ligand
 OpenBabel02271912153D
libRbt.so/2013.1/901 2013/11/27
 26 29  0  0  0  0  0  0  0  0999 V2000
  111.2111  -74.7547  -81.9693 C   0  0  1  0  0  0  0  0  0  0  0  0
  111.3978  -74.3979  -80.6415 N   0  0  0  0  0  0  0  0  0  0  0  0
  111.7408  -76.0162  -82.4657 C   0  0  0  0  0  0  0  0  0  0  0  0
  112.7461  -80.6395  -87.5417 N   0  0  0  0  0  0  0  0  0  0  0  0
  112.0367  -77.5294  -84.2747 O   0  0  0  0  0  0  0  0  0  0  0  0
  111.4727  -76.2277  -83.8195 C   0  0  2  0  0  0  0  0  0  0  0  0
  111.7963  -77.7093  -85.5147 C   0  0  1  0  0  0  0  0  0  0  0  0
  112.3752  -79.0077  -85.8594 C   0  0  0  0  0  0  0  0  0  0  0  0
  112.2053  -79.3776  -87.2407 C   0  0  2  0  0  0  0  0  0  0  0  0
  111.5458  -78.5458  -88.1791 C   0  0  0  0  0  0  0  0  0  0  0  0
  110.9846  -77.2715  -87.7708 C   0  0  0  0  0  0  0  0  0  0  0  0
  111.1302  -76.8869  -86.3883 C   0  0  2  0  0  0  0  0  0  0  0  0
  110.5043  -75.5556  -86.0451 C   0  0  1  0  0  0  0  0  0  0  0  0
  110.7828  -75.3788  -84.6779 C   0  0  2  0  0  0  0  0  0  0  0  0
  110.2515  -74.1171  -84.1575 C   0  0  0  0  0  0  0  0  0  0  0  0
  110.5146  -73.8742  -82.7740 C   0  0  0  0  0  0  0  0  0  0  0  0
  109.8362  -74.7753  -86.9696 C   0  0  0  0  0  0  0  0  0  0  0  0
  110.1293  -73.4242  -87.2683 C   0  0  0  0  0  0  0  0  0  0  0  0
  109.4770  -72.6270  -88.2104 C   0  0  0  0  0  0  0  0  0  0  0  0
  108.3838  -73.1854  -88.9919 C   0  0  0  0  0  0  0  0  0  0  0  0
  108.1083  -74.5341  -88.6615 C   0  0  0  0  0  0  0  0  0  0  0  0
  108.7323  -75.3685  -87.7238 C   0  0  0  0  0  0  0  0  0  0  0  0
  110.9720  -73.1029  -80.1180 C   0  0  0  0  0  0  0  0  0  0  0  0
  112.0179  -75.2299  -79.5883 C   0  0  0  0  0  0  0  0  0  0  0  0
  112.9560  -81.3368  -88.8301 C   0  0  0  0  0  0  0  0  0  0  0  0
  113.2338  -81.4737  -86.3870 C   0  0  0  0  0  0  0  0  0  0  0  0
  1  2  1  1  0  0  0
  1  3  1  0  0  0  0
  1 16  1  0  0  0  0
  2 23  1  0  0  0  0
  2 24  1  0  0  0  0
  4 25  1  0  0  0  0
  4 26  1  0  0  0  0
  5  6  1  0  0  0  0
  6  3  1  6  0  0  0
  6 14  1  0  0  0  0
  7  5  1  1  0  0  0
  7  8  1  0  0  0  0
  7 12  1  0  0  0  0
  8  9  1  0  0  0  0
  9  4  1  1  0  0  0
  9 10  1  0  0  0  0
 10 11  1  0  0  0  0
 12 11  1  6  0  0  0
 12 13  1  0  0  0  0
 13 14  1  0  0  0  0
 13 17  1  6  0  0  0
 14 15  1  6  0  0  0
 15 16  1  0  0  0  0
 17 18  1  0  0  0  0
 17 22  1  0  0  0  0
 18 19  1  0  0  0  0
 19 20  1  0  0  0  0
 20 21  1  0  0  0  0
 21 22  1  0  0  0  0
M  END
>  <CHROM.1>
175.47121331,-171.07207460,-124.98319184,111.09204807,-76.33098189,-85.37033344
-1.83454046,1.04096428,-2.07257648

>  <Name>
ligand

>  <RI>
0

>  <Rbt.Current_Directory>
/home/itssahil/PROJECTS/Mol_Feturizer/Test_systems_manuscript/rnas/1f1t

>  <Rbt.Executable>
rbdock ($Id: //depot/dev/client3/rdock/2013.1/src/exe/rbdock.cxx#4 $)

>  <Rbt.Library>
libRbt.so (2013.1, Build901 2013/11/27)

>  <Rbt.Parameter_File>
/export/apps/rDock/src/rDock_2013.1_src/data/scripts/dock_solv.prm

>  <Rbt.Receptor>
prm/pocket_docking_8.prm

>  <SCORE>
-53.4515

>  <SCORE.INTER>
-56.2078

>  <SCORE.INTER.CONST>
1

>  <SCORE.INTER.POLAR>
0

>  <SCORE.INTER.ROT>
3

>  <SCORE.INTER.SOLV>
8.90796

>  <SCORE.INTER.VDW>
-46.0412

>  <SCORE.INTER.norm>
-2.16184

>  <SCORE.INTRA>
2.7563

>  <SCORE.INTRA.DIHEDRAL>
-0.00056571

>  <SCORE.INTRA.DIHEDRAL.0>
3.60016

>  <SCORE.INTRA.POLAR>
0

>  <SCORE.INTRA.POLAR.0>
0

>  <SCORE.INTRA.REPUL>
0

>  <SCORE.INTRA.REPUL.0>
0

>  <SCORE.INTRA.SOLV>
-0.000975452

>  <SCORE.INTRA.SOLV.lig_0>
-10.9882

>  <SCORE.INTRA.VDW>
2.75707

>  <SCORE.INTRA.VDW.0>
1.84442

>  <SCORE.INTRA.norm>
0.106011

>  <SCORE.RESTR>
0

>  <SCORE.RESTR.CAVITY>
0

>  <SCORE.RESTR.norm>
0

>  <SCORE.SYSTEM>
0

>  <SCORE.SYSTEM.CONST>
0

>  <SCORE.SYSTEM.DIHEDRAL>
0

>  <SCORE.SYSTEM.SOLV>
0

>  <SCORE.SYSTEM.norm>
0

>  <SCORE.heavy>
26

>  <SCORE.norm>
-2.05583

>  <RMSD>
0.664

$$$$
ligand
 OpenBabel02271912153D
libRbt.so/2013.1/901 2013/11/27
 26 29  0  0  0  0  0  0  0  0999 V2000
  111.1927  -74.7326  -81.9711 C   0  0  1  0  0  0  0  0  0  0  0  0
  111.3792  -74.3803  -80.6421 N   0  0  0  0  0  0  0  0  0  0  0  0
  111.7205  -75.9934  -82.4712 C   0  0  0  0  0  0  0  0  0  0  0  0
  112.7212  -80.6022  -87.5612 N   0  0  0  0  0  0  0  0  0  0  0  0
  112.0151  -77.5013  -84.2848 O   0  0  0  0  0  0  0  0  0  0  0  0
  111.4529  -76.2002  -83.8258 C   0  0  2  0  0  0  0  0  0  0  0  0
  111.7751  -77.6769  -85.5255 C   0  0  1  0  0  0  0  0  0  0  0  0
  112.3520  -78.9751  -85.8740 C   0  0  0  0  0  0  0  0  0  0  0  0
  112.1824  -79.3405  -87.2565 C   0  0  2  0  0  0  0  0  0  0  0  0
  111.5248  -78.5046  -88.1927 C   0  0  0  0  0  0  0  0  0  0  0  0
  110.9654  -77.2307  -87.7806 C   0  0  0  0  0  0  0  0  0  0  0  0
  111.1109  -76.8507  -86.3969 C   0  0  2  0  0  0  0  0  0  0  0  0
  110.4869  -75.5195  -86.0499 C   0  0  1  0  0  0  0  0  0  0  0  0
  110.7649  -75.3474  -84.6819 C   0  0  2  0  0  0  0  0  0  0  0  0
  110.2353  -74.0865  -84.1578 C   0  0  0  0  0  0  0  0  0  0  0  0
  110.4980  -73.8484  -82.7734 C   0  0  0  0  0  0  0  0  0  0  0  0
  109.8206  -74.7352  -86.9723 C   0  0  0  0  0  0  0  0  0  0  0  0
  110.1455  -73.3982  -87.3001 C   0  0  0  0  0  0  0  0  0  0  0  0
  109.4950  -72.5977  -88.2408 C   0  0  0  0  0  0  0  0  0  0  0  0
  108.3688  -73.1367  -88.9882 C   0  0  0  0  0  0  0  0  0  0  0  0
  108.0624  -74.4713  -88.6291 C   0  0  0  0  0  0  0  0  0  0  0  0
  108.6833  -75.3082  -87.6916 C   0  0  0  0  0  0  0  0  0  0  0  0
  112.0457  -75.2647  -79.6903 C   0  0  0  0  0  0  0  0  0  0  0  0
  110.9642  -73.1129  -80.0039 C   0  0  0  0  0  0  0  0  0  0  0  0
  112.9062  -81.3068  -88.8494 C   0  0  0  0  0  0  0  0  0  0  0  0
  113.2365  -81.4275  -86.4121 C   0  0  0  0  0  0  0  0  0  0  0  0
  1  2  1  1  0  0  0
  1  3  1  0  0  0  0
  1 16  1  0  0  0  0
  2 23  1  0  0  0  0
  2 24  1  0  0  0  0
  4 25  1  0  0  0  0
  4 26  1  0  0  0  0
  5  6  1  0  0  0  0
  6  3  1  6  0  0  0
  6 14  1  0  0  0  0
  7  5  1  1  0  0  0
  7  8  1  0  0  0  0
  7 12  1  0  0  0  0
  8  9  1  0  0  0  0
  9  4  1  1  0  0  0
  9 10  1  0  0  0  0
 10 11  1  0  0  0  0
 12 11  1  6  0  0  0
 12 13  1  0  0  0  0
 13 14  1  0  0  0  0
 13 17  1  6  0  0  0
 14 15  1  6  0  0  0
 15 16  1  0  0  0  0
 17 18  1  0  0  0  0
 17 22  1  0  0  0  0
 18 19  1  0  0  0  0
 19 20  1  0  0  0  0
 20 21  1  0  0  0  0
 21 22  1  0  0  0  0
M  END
>  <CHROM.1>
-2.76392680,-172.47044469,-122.64874270,111.07549058,-76.30119645,-85.37644401
-1.83085847,1.04113595,-2.07068424

>  <Name>
ligand

>  <RI>
0

>  <Rbt.Current_Directory>
/home/itssahil/PROJECTS/Mol_Feturizer/Test_systems_manuscript/rnas/1f1t

>  <Rbt.Executable>
rbdock ($Id: //depot/dev/client3/rdock/2013.1/src/exe/rbdock.cxx#4 $)

>  <Rbt.Library>
libRbt.so (2013.1, Build901 2013/11/27)

>  <Rbt.Parameter_File>
/export/apps/rDock/src/rDock_2013.1_src/data/scripts/dock_solv.prm

>  <Rbt.Receptor>
prm/pocket_docking_6.prm

>  <SCORE>
-53.6925

>  <SCORE.INTER>
-56.1473

>  <SCORE.INTER.CONST>
1

>  <SCORE.INTER.POLAR>
0

>  <SCORE.INTER.ROT>
3

>  <SCORE.INTER.SOLV>
8.95261

>  <SCORE.INTER.VDW>
-46.0158

>  <SCORE.INTER.norm>
-2.15951

>  <SCORE.INTRA>
2.45485

>  <SCORE.INTRA.DIHEDRAL>
-0.000592158

>  <SCORE.INTRA.DIHEDRAL.0>
3.60016

>  <SCORE.INTRA.POLAR>
0

>  <SCORE.INTRA.POLAR.0>
0

>  <SCORE.INTRA.REPUL>
0

>  <SCORE.INTRA.REPUL.0>
0

>  <SCORE.INTRA.SOLV>
-0.000986244

>  <SCORE.INTRA.SOLV.lig_0>
-10.9882

>  <SCORE.INTRA.VDW>
2.45563

>  <SCORE.INTRA.VDW.0>
1.84442

>  <SCORE.INTRA.norm>
0.0944171

>  <SCORE.RESTR>
0

>  <SCORE.RESTR.CAVITY>
0

>  <SCORE.RESTR.norm>
0

>  <SCORE.SYSTEM>
0

>  <SCORE.SYSTEM.CONST>
0

>  <SCORE.SYSTEM.DIHEDRAL>
0

>  <SCORE.SYSTEM.SOLV>
0

>  <SCORE.SYSTEM.norm>
0

>  <SCORE.heavy>
26

>  <SCORE.norm>
-2.0651

>  <RMSD>
0.680

$$$$
ligand
 OpenBabel02271912153D
libRbt.so/2013.1/901 2013/11/27
 26 29  0  0  0  0  0  0  0  0999 V2000
  112.2304  -79.4852  -87.0820 C   0  0  1  0  0  0  0  0  0  0  0  0
  112.7493  -80.7116  -87.4718 N   0  0  0  0  0  0  0  0  0  0  0  0
  112.3640  -79.0437  -85.7015 C   0  0  0  0  0  0  0  0  0  0  0  0
  111.3335  -74.3971  -80.6520 N   0  0  0  0  0  0  0  0  0  0  0  0
  111.9528  -77.3910  -84.0435 O   0  0  0  0  0  0  0  0  0  0  0  0
  111.7890  -77.7929  -85.4687 C   0  0  2  0  0  0  0  0  0  0  0  0
  111.4155  -76.2522  -83.8377 C   0  0  1  0  0  0  0  0  0  0  0  0
  111.6380  -75.9443  -82.4251 C   0  0  0  0  0  0  0  0  0  0  0  0
  111.0846  -74.6828  -82.0054 C   0  0  2  0  0  0  0  0  0  0  0  0
  110.3773  -73.8276  -82.8862 C   0  0  0  0  0  0  0  0  0  0  0  0
  110.1987  -74.1874  -84.2806 C   0  0  0  0  0  0  0  0  0  0  0  0
  110.7574  -75.4400  -84.7267 C   0  0  2  0  0  0  0  0  0  0  0  0
  110.5402  -75.7293  -86.1934 C   0  0  1  0  0  0  0  0  0  0  0  0
  111.1378  -76.9864  -86.3955 C   0  0  2  0  0  0  0  0  0  0  0  0
  111.0199  -77.4453  -87.7813 C   0  0  0  0  0  0  0  0  0  0  0  0
  111.5979  -78.7251  -88.0465 C   0  0  0  0  0  0  0  0  0  0  0  0
  109.8757  -74.8648  -87.0426 C   0  0  0  0  0  0  0  0  0  0  0  0
  108.7785  -75.2059  -87.8672 C   0  0  0  0  0  0  0  0  0  0  0  0
  108.0849  -74.3424  -88.7171 C   0  0  0  0  0  0  0  0  0  0  0  0
  108.4825  -72.9452  -88.8035 C   0  0  0  0  0  0  0  0  0  0  0  0
  109.5892  -72.6392  -87.9756 C   0  0  0  0  0  0  0  0  0  0  0  0
  110.3157  -73.4717  -87.1131 C   0  0  0  0  0  0  0  0  0  0  0  0
  113.2765  -81.6736  -86.5081 C   0  0  0  0  0  0  0  0  0  0  0  0
  112.8411  -81.2257  -88.8550 C   0  0  0  0  0  0  0  0  0  0  0  0
  111.9628  -75.1978  -79.5781 C   0  0  0  0  0  0  0  0  0  0  0  0
  110.9239  -73.0389  -80.1476 C   0  0  0  0  0  0  0  0  0  0  0  0
  1  2  1  6  0  0  0
  1  3  1  0  0  0  0
  1 16  1  0  0  0  0
  2 23  1  0  0  0  0
  2 24  1  0  0  0  0
  4 25  1  0  0  0  0
  4 26  1  0  0  0  0
  5  6  1  0  0  0  0
  6  3  1  1  0  0  0
  6 14  1  0  0  0  0
  7  5  1  6  0  0  0
  7  8  1  0  0  0  0
  7 12  1  0  0  0  0
  8  9  1  0  0  0  0
  9  4  1  6  0  0  0
  9 10  1  0  0  0  0
 10 11  1  0  0  0  0
 12 11  1  1  0  0  0
 12 13  1  0  0  0  0
 13 14  1  0  0  0  0
 13 17  1  1  0  0  0
 14 15  1  1  0  0  0
 15 16  1  0  0  0  0
 17 18  1  0  0  0  0
 17 22  1  0  0  0  0
 18 19  1  0  0  0  0
 19 20  1  0  0  0  0
 20 21  1  0  0  0  0
 21 22  1  0  0  0  0
M  END
>  <CHROM.1>
8.40034589,-5.33986901,-126.62044351,111.08093587,-76.34050052,-85.35198540
-1.25268250,-1.05622600,1.07653327

>  <Name>
ligand

>  <RI>
0

>  <Rbt.Current_Directory>
/home/itssahil/PROJECTS/Mol_Feturizer/Test_systems_manuscript/rnas/1f1t

>  <Rbt.Executable>
rbdock ($Id: //depot/dev/client3/rdock/2013.1/src/exe/rbdock.cxx#4 $)

>  <Rbt.Library>
libRbt.so (2013.1, Build901 2013/11/27)

>  <Rbt.Parameter_File>
/export/apps/rDock/src/rDock_2013.1_src/data/scripts/dock_solv.prm

>  <Rbt.Receptor>
prm/pocket_docking_8.prm

>  <SCORE>
-55.9704

>  <SCORE.INTER>
-56.1583

>  <SCORE.INTER.CONST>
1

>  <SCORE.INTER.POLAR>
0

>  <SCORE.INTER.ROT>
3

>  <SCORE.INTER.SOLV>
8.8795

>  <SCORE.INTER.VDW>
-45.9987

>  <SCORE.INTER.norm>
-2.15994

>  <SCORE.INTRA>
0.18791

>  <SCORE.INTRA.DIHEDRAL>
-1.74011e-05

>  <SCORE.INTRA.DIHEDRAL.0>
3.60016

>  <SCORE.INTRA.POLAR>
0

>  <SCORE.INTRA.POLAR.0>
0

>  <SCORE.INTRA.REPUL>
0

>  <SCORE.INTRA.REPUL.0>
0

>  <SCORE.INTRA.SOLV>
2.98126e-05

>  <SCORE.INTRA.SOLV.lig_0>
-10.9882

>  <SCORE.INTRA.VDW>
0.187904

>  <SCORE.INTRA.VDW.0>
1.84442

>  <SCORE.INTRA.norm>
0.00722732

>  <SCORE.RESTR>
0

>  <SCORE.RESTR.CAVITY>
0

>  <SCORE.RESTR.norm>
0

>  <SCORE.SYSTEM>
0

>  <SCORE.SYSTEM.CONST>
0

>  <SCORE.SYSTEM.DIHEDRAL>
0

>  <SCORE.SYSTEM.SOLV>
0

>  <SCORE.SYSTEM.norm>
0

>  <SCORE.heavy>
26

>  <SCORE.norm>
-2.15271

>  <RMSD>
0.680

$$$$
ligand
 OpenBabel02271912153D
libRbt.so/2013.1/901 2013/11/27
 26 29  0  0  0  0  0  0  0  0999 V2000
  111.1710  -74.7202  -81.9904 C   0  0  1  0  0  0  0  0  0  0  0  0
  111.3558  -74.3575  -80.6640 N   0  0  0  0  0  0  0  0  0  0  0  0
  111.7032  -75.9829  -82.4810 C   0  0  0  0  0  0  0  0  0  0  0  0
  112.7210  -80.6258  -87.5365 N   0  0  0  0  0  0  0  0  0  0  0  0
  112.0034  -77.5032  -84.2833 O   0  0  0  0  0  0  0  0  0  0  0  0
  111.4368  -76.2006  -83.8342 C   0  0  2  0  0  0  0  0  0  0  0  0
  111.7644  -77.6887  -85.5228 C   0  0  1  0  0  0  0  0  0  0  0  0
  112.3458  -78.9876  -85.8615 C   0  0  0  0  0  0  0  0  0  0  0  0
  112.1779  -79.3636  -87.2414 C   0  0  2  0  0  0  0  0  0  0  0  0
  111.5179  -78.5369  -88.1840 C   0  0  0  0  0  0  0  0  0  0  0  0
  110.9542  -77.2617  -87.7815 C   0  0  0  0  0  0  0  0  0  0  0  0
  111.0979  -76.8712  -86.4005 C   0  0  2  0  0  0  0  0  0  0  0  0
  110.4694  -75.5394  -86.0636 C   0  0  1  0  0  0  0  0  0  0  0  0
  110.7463  -75.3564  -84.6968 C   0  0  2  0  0  0  0  0  0  0  0  0
  110.2124  -74.0934  -84.1823 C   0  0  0  0  0  0  0  0  0  0  0  0
  110.4737  -73.8442  -82.7995 C   0  0  0  0  0  0  0  0  0  0  0  0
  109.8009  -74.7641  -86.9920 C   0  0  0  0  0  0  0  0  0  0  0  0
  110.1098  -73.4225  -87.3160 C   0  0  0  0  0  0  0  0  0  0  0  0
  109.4570  -72.6307  -88.2625 C   0  0  0  0  0  0  0  0  0  0  0  0
  108.3459  -73.1853  -89.0211 C   0  0  0  0  0  0  0  0  0  0  0  0
  108.0551  -74.5244  -88.6656 C   0  0  0  0  0  0  0  0  0  0  0  0
  108.6789  -75.3529  -87.7226 C   0  0  0  0  0  0  0  0  0  0  0  0
  112.0242  -75.2330  -79.7053 C   0  0  0  0  0  0  0  0  0  0  0  0
  110.9370  -73.0865  -80.0355 C   0  0  0  0  0  0  0  0  0  0  0  0
  112.9087  -81.3393  -88.8195 C   0  0  0  0  0  0  0  0  0  0  0  0
  113.2387  -81.4408  -86.3812 C   0  0  0  0  0  0  0  0  0  0  0  0
  1  2  1  1  0  0  0
  1  3  1  0  0  0  0
  1 16  1  0  0  0  0
  2 23  1  0  0  0  0
  2 24  1  0  0  0  0
  4 25  1  0  0  0  0
  4 26  1  0  0  0  0
  5  6  1  0  0  0  0
  6  3  1  6  0  0  0
  6 14  1  0  0  0  0
  7  5  1  1  0  0  0
  7  8  1  0  0  0  0
  7 12  1  0  0  0  0
  8  9  1  0  0  0  0
  9  4  1  1  0  0  0
  9 10  1  0  0  0  0
 10 11  1  0  0  0  0
 12 11  1  6  0  0  0
 12 13  1  0  0  0  0
 13 14  1  0  0  0  0
 13 17  1  6  0  0  0
 14 15  1  6  0  0  0
 15 16  1  0  0  0  0
 17 18  1  0  0  0  0
 17 22  1  0  0  0  0
 18 19  1  0  0  0  0
 19 20  1  0  0  0  0
 20 21  1  0  0  0  0
 21 22  1  0  0  0  0
M  END
>  <CHROM.1>
-2.79575984,-172.47660628,-123.59006673,111.06042314,-76.31424372,-85.38428473
-1.83446376,1.03857449,-2.07498053

>  <Name>
ligand

>  <RI>
0

>  <Rbt.Current_Directory>
/home/itssahil/PROJECTS/Mol_Feturizer/Test_systems_manuscript/rnas/1f1t

>  <Rbt.Executable>
rbdock ($Id: //depot/dev/client3/rdock/2013.1/src/exe/rbdock.cxx#4 $)

>  <Rbt.Library>
libRbt.so (2013.1, Build901 2013/11/27)

>  <Rbt.Parameter_File>
/export/apps/rDock/src/rDock_2013.1_src/data/scripts/dock_solv.prm

>  <Rbt.Receptor>
prm/pocket_docking_6.prm

>  <SCORE>
-53.8049

>  <SCORE.INTER>
-56.2825

>  <SCORE.INTER.CONST>
1

>  <SCORE.INTER.POLAR>
0

>  <SCORE.INTER.ROT>
3

>  <SCORE.INTER.SOLV>
8.93823

>  <SCORE.INTER.VDW>
-46.1011

>  <SCORE.INTER.norm>
-2.16471

>  <SCORE.INTRA>
2.47756

>  <SCORE.INTRA.DIHEDRAL>
-0.000590826

>  <SCORE.INTRA.DIHEDRAL.0>
3.60016

>  <SCORE.INTRA.POLAR>
0

>  <SCORE.INTRA.POLAR.0>
0

>  <SCORE.INTRA.REPUL>
0

>  <SCORE.INTRA.REPUL.0>
0

>  <SCORE.INTRA.SOLV>
-0.000986173

>  <SCORE.INTRA.SOLV.lig_0>
-10.9882

>  <SCORE.INTRA.VDW>
2.47835

>  <SCORE.INTRA.VDW.0>
1.84442

>  <SCORE.INTRA.norm>
0.0952909

>  <SCORE.RESTR>
0

>  <SCORE.RESTR.CAVITY>
0

>  <SCORE.RESTR.norm>
0

>  <SCORE.SYSTEM>
0

>  <SCORE.SYSTEM.CONST>
0

>  <SCORE.SYSTEM.DIHEDRAL>
0

>  <SCORE.SYSTEM.SOLV>
0

>  <SCORE.SYSTEM.norm>
0

>  <SCORE.heavy>
26

>  <SCORE.norm>
-2.06942

>  <RMSD>
0.683

$$$$
ligand
 OpenBabel02271912153D
libRbt.so/2013.1/901 2013/11/27
 26 29  0  0  0  0  0  0  0  0999 V2000
  111.1879  -74.7240  -81.9758 C   0  0  1  0  0  0  0  0  0  0  0  0
  111.3727  -74.3670  -80.6478 N   0  0  0  0  0  0  0  0  0  0  0  0
  111.7160  -75.9867  -82.4707 C   0  0  0  0  0  0  0  0  0  0  0  0
  112.7217  -80.6139  -87.5429 N   0  0  0  0  0  0  0  0  0  0  0  0
  112.0123  -77.5012  -84.2785 O   0  0  0  0  0  0  0  0  0  0  0  0
  111.4501  -76.1982  -83.8249 C   0  0  2  0  0  0  0  0  0  0  0  0
  111.7739  -77.6811  -85.5189 C   0  0  1  0  0  0  0  0  0  0  0  0
  112.3509  -78.9807  -85.8621 C   0  0  0  0  0  0  0  0  0  0  0  0
  112.1829  -79.3509  -87.2435 C   0  0  2  0  0  0  0  0  0  0  0  0
  111.5268  -78.5182  -88.1835 C   0  0  0  0  0  0  0  0  0  0  0  0
  110.9673  -77.2425  -87.7767 C   0  0  0  0  0  0  0  0  0  0  0  0
  111.1111  -76.8578  -86.3941 C   0  0  2  0  0  0  0  0  0  0  0  0
  110.4872  -75.5250  -86.0526 C   0  0  1  0  0  0  0  0  0  0  0  0
  110.7635  -75.3483  -84.6849 C   0  0  2  0  0  0  0  0  0  0  0  0
  110.2336  -74.0853  -84.1661 C   0  0  0  0  0  0  0  0  0  0  0  0
  110.4946  -73.8424  -82.7821 C   0  0  0  0  0  0  0  0  0  0  0  0
  109.8224  -74.7438  -86.9787 C   0  0  0  0  0  0  0  0  0  0  0  0
  110.1340  -73.4008  -87.2945 C   0  0  0  0  0  0  0  0  0  0  0  0
  109.4850  -72.6030  -88.2385 C   0  0  0  0  0  0  0  0  0  0  0  0
  108.3753  -73.1520  -89.0033 C   0  0  0  0  0  0  0  0  0  0  0  0
  108.0817  -74.4926  -88.6559 C   0  0  0  0  0  0  0  0  0  0  0  0
  108.7016  -75.3271  -87.7157 C   0  0  0  0  0  0  0  0  0  0  0  0
  110.9444  -73.0728  -80.1245 C   0  0  0  0  0  0  0  0  0  0  0  0
  111.9932  -75.1981  -79.5941 C   0  0  0  0  0  0  0  0  0  0  0  0
  112.9169  -81.3192  -88.8293 C   0  0  0  0  0  0  0  0  0  0  0  0
  113.2246  -81.4401  -86.3890 C   0  0  0  0  0  0  0  0  0  0  0  0
  1  2  1  1  0  0  0
  1  3  1  0  0  0  0
  1 16  1  0  0  0  0
  2 23  1  0  0  0  0
  2 24  1  0  0  0  0
  4 25  1  0  0  0  0
  4 26  1  0  0  0  0
  5  6  1  0  0  0  0
  6  3  1  6  0  0  0
  6 14  1  0  0  0  0
  7  5  1  1  0  0  0
  7  8  1  0  0  0  0
  7 12  1  0  0  0  0
  8  9  1  0  0  0  0
  9  4  1  1  0  0  0
  9 10  1  0  0  0  0
 10 11  1  0  0  0  0
 12 11  1  6  0  0  0
 12 13  1  0  0  0  0
 13 14  1  0  0  0  0
 13 17  1  6  0  0  0
 14 15  1  6  0  0  0
 15 16  1  0  0  0  0
 17 18  1  0  0  0  0
 17 22  1  0  0  0  0
 18 19  1  0  0  0  0
 19 20  1  0  0  0  0
 20 21  1  0  0  0  0
 21 22  1  0  0  0  0
M  END
>  <CHROM.1>
175.68813109,-171.96972375,-123.78438484,111.07208326,-76.30126728,-85.37633008
-1.83585660,1.04309187,-2.07180154

>  <Name>
ligand

>  <RI>
0

>  <Rbt.Current_Directory>
/home/itssahil/PROJECTS/Mol_Feturizer/Test_systems_manuscript/rnas/1f1t

>  <Rbt.Executable>
rbdock ($Id: //depot/dev/client3/rdock/2013.1/src/exe/rbdock.cxx#4 $)

>  <Rbt.Library>
libRbt.so (2013.1, Build901 2013/11/27)

>  <Rbt.Parameter_File>
/export/apps/rDock/src/rDock_2013.1_src/data/scripts/dock_solv.prm

>  <Rbt.Receptor>
prm/pocket_docking_4.prm

>  <SCORE>
-53.5152

>  <SCORE.INTER>
-56.2726

>  <SCORE.INTER.CONST>
1

>  <SCORE.INTER.POLAR>
0

>  <SCORE.INTER.ROT>
3

>  <SCORE.INTER.SOLV>
8.91627

>  <SCORE.INTER.VDW>
-46.0872

>  <SCORE.INTER.norm>
-2.16433

>  <SCORE.INTRA>
2.75745

>  <SCORE.INTRA.DIHEDRAL>
-0.000574024

>  <SCORE.INTRA.DIHEDRAL.0>
3.60016

>  <SCORE.INTRA.POLAR>
0

>  <SCORE.INTRA.POLAR.0>
0

>  <SCORE.INTRA.REPUL>
0

>  <SCORE.INTRA.REPUL.0>
0

>  <SCORE.INTRA.SOLV>
-0.000979564

>  <SCORE.INTRA.SOLV.lig_0>
-10.9882

>  <SCORE.INTRA.VDW>
2.75823

>  <SCORE.INTRA.VDW.0>
1.84442

>  <SCORE.INTRA.norm>
0.106056

>  <SCORE.RESTR>
0

>  <SCORE.RESTR.CAVITY>
0

>  <SCORE.RESTR.norm>
0

>  <SCORE.SYSTEM>
0

>  <SCORE.SYSTEM.CONST>
0

>  <SCORE.SYSTEM.DIHEDRAL>
0

>  <SCORE.SYSTEM.SOLV>
0

>  <SCORE.SYSTEM.norm>
0

>  <SCORE.heavy>
26

>  <SCORE.norm>
-2.05828

>  <RMSD>
0.685

$$$$
ligand
 OpenBabel02271912153D
libRbt.so/2013.1/901 2013/11/27
 26 29  0  0  0  0  0  0  0  0999 V2000
  112.2529  -79.4629  -87.1161 C   0  0  1  0  0  0  0  0  0  0  0  0
  112.7814  -80.6837  -87.5104 N   0  0  0  0  0  0  0  0  0  0  0  0
  112.3807  -79.0266  -85.7334 C   0  0  0  0  0  0  0  0  0  0  0  0
  111.3073  -74.4101  -80.6652 N   0  0  0  0  0  0  0  0  0  0  0  0
  111.9545  -77.3843  -84.0688 O   0  0  0  0  0  0  0  0  0  0  0  0
  111.7962  -77.7810  -85.4961 C   0  0  2  0  0  0  0  0  0  0  0  0
  111.4086  -76.2503  -83.8589 C   0  0  1  0  0  0  0  0  0  0  0  0
  111.6262  -75.9471  -82.4446 C   0  0  0  0  0  0  0  0  0  0  0  0
  111.0628  -74.6917  -82.0203 C   0  0  2  0  0  0  0  0  0  0  0  0
  110.3509  -73.8377  -82.8986 C   0  0  0  0  0  0  0  0  0  0  0  0
  110.1774  -74.1925  -84.2949 C   0  0  0  0  0  0  0  0  0  0  0  0
  110.7461  -75.4391  -84.7455 C   0  0  2  0  0  0  0  0  0  0  0  0
  110.5336  -75.7234  -86.2139 C   0  0  1  0  0  0  0  0  0  0  0  0
  111.1408  -76.9751  -86.4205 C   0  0  2  0  0  0  0  0  0  0  0  0
  111.0288  -77.4287  -87.8086 C   0  0  0  0  0  0  0  0  0  0  0  0
  111.6166  -78.7031  -88.0783 C   0  0  0  0  0  0  0  0  0  0  0  0
  109.8644  -74.8600  -87.0604 C   0  0  0  0  0  0  0  0  0  0  0  0
  110.1567  -73.4867  -87.2311 C   0  0  0  0  0  0  0  0  0  0  0  0
  109.5033  -72.6048  -88.0936 C   0  0  0  0  0  0  0  0  0  0  0  0
  108.4097  -73.0878  -88.9233 C   0  0  0  0  0  0  0  0  0  0  0  0
  108.1350  -74.4617  -88.7208 C   0  0  0  0  0  0  0  0  0  0  0  0
  108.7601  -75.3803  -87.8661 C   0  0  0  0  0  0  0  0  0  0  0  0
  113.2808  -81.6613  -86.5475 C   0  0  0  0  0  0  0  0  0  0  0  0
  112.9112  -81.1763  -88.8984 C   0  0  0  0  0  0  0  0  0  0  0  0
  111.9574  -75.2036  -79.5984 C   0  0  0  0  0  0  0  0  0  0  0  0
  110.8662  -73.0659  -80.1500 C   0  0  0  0  0  0  0  0  0  0  0  0
  1  2  1  6  0  0  0
  1  3  1  0  0  0  0
  1 16  1  0  0  0  0
  2 23  1  0  0  0  0
  2 24  1  0  0  0  0
  4 25  1  0  0  0  0
  4 26  1  0  0  0  0
  5  6  1  0  0  0  0
  6  3  1  1  0  0  0
  6 14  1  0  0  0  0
  7  5  1  6  0  0  0
  7  8  1  0  0  0  0
  7 12  1  0  0  0  0
  8  9  1  0  0  0  0
  9  4  1  6  0  0  0
  9 10  1  0  0  0  0
 10 11  1  0  0  0  0
 12 11  1  1  0  0  0
 12 13  1  0  0  0  0
 13 14  1  0  0  0  0
 13 17  1  1  0  0  0
 14 15  1  1  0  0  0
 15 16  1  0  0  0  0
 17 18  1  0  0  0  0
 17 22  1  0  0  0  0
 18 19  1  0  0  0  0
 19 20  1  0  0  0  0
 20 21  1  0  0  0  0
 21 22  1  0  0  0  0
M  END
>  <CHROM.1>
10.09132484,-4.35242838,52.91481003,111.06997702,-76.35014044,-85.38455969
-1.25975844,-1.04647564,1.08774711

>  <Name>
ligand

>  <RI>
0

>  <Rbt.Current_Directory>
/home/itssahil/PROJECTS/Mol_Feturizer/Test_systems_manuscript/rnas/1f1t

>  <Rbt.Executable>
rbdock ($Id: //depot/dev/client3/rdock/2013.1/src/exe/rbdock.cxx#4 $)

>  <Rbt.Library>
libRbt.so (2013.1, Build901 2013/11/27)

>  <Rbt.Parameter_File>
/export/apps/rDock/src/rDock_2013.1_src/data/scripts/dock_solv.prm

>  <Rbt.Receptor>
prm/pocket_docking_4.prm

>  <SCORE>
-56.3666

>  <SCORE.INTER>
-56.4647

>  <SCORE.INTER.CONST>
1

>  <SCORE.INTER.POLAR>
0

>  <SCORE.INTER.ROT>
3

>  <SCORE.INTER.SOLV>
8.89303

>  <SCORE.INTER.VDW>
-46.2075

>  <SCORE.INTER.norm>
-2.17172

>  <SCORE.INTRA>
0.0980869

>  <SCORE.INTRA.DIHEDRAL>
0.000273569

>  <SCORE.INTRA.DIHEDRAL.0>
3.60016

>  <SCORE.INTRA.POLAR>
0

>  <SCORE.INTRA.POLAR.0>
0

>  <SCORE.INTRA.REPUL>
0

>  <SCORE.INTRA.REPUL.0>
0

>  <SCORE.INTRA.SOLV>
4.2176e-05

>  <SCORE.INTRA.SOLV.lig_0>
-10.9882

>  <SCORE.INTRA.VDW>
0.097929

>  <SCORE.INTRA.VDW.0>
1.84442

>  <SCORE.INTRA.norm>
0.00377257

>  <SCORE.RESTR>
0

>  <SCORE.RESTR.CAVITY>
0

>  <SCORE.RESTR.norm>
0

>  <SCORE.SYSTEM>
0

>  <SCORE.SYSTEM.CONST>
0

>  <SCORE.SYSTEM.DIHEDRAL>
0

>  <SCORE.SYSTEM.SOLV>
0

>  <SCORE.SYSTEM.norm>
0

>  <SCORE.heavy>
26

>  <SCORE.norm>
-2.16795

>  <RMSD>
0.686

$$$$
ligand
 OpenBabel02271912153D
libRbt.so/2013.1/901 2013/11/27
 26 29  0  0  0  0  0  0  0  0999 V2000
  111.1753  -74.7235  -81.9961 C   0  0  1  0  0  0  0  0  0  0  0  0
  111.3614  -74.3547  -80.6716 N   0  0  0  0  0  0  0  0  0  0  0  0
  111.7146  -75.9844  -82.4836 C   0  0  0  0  0  0  0  0  0  0  0  0
  112.7496  -80.6389  -87.5249 N   0  0  0  0  0  0  0  0  0  0  0  0
  112.0200  -77.5093  -84.2812 O   0  0  0  0  0  0  0  0  0  0  0  0
  111.4459  -76.2088  -83.8352 C   0  0  2  0  0  0  0  0  0  0  0  0
  111.7788  -77.7010  -85.5193 C   0  0  1  0  0  0  0  0  0  0  0  0
  112.3680  -78.9971  -85.8549 C   0  0  0  0  0  0  0  0  0  0  0  0
  112.1987  -79.3794  -87.2328 C   0  0  2  0  0  0  0  0  0  0  0  0
  111.5305  -78.5606  -88.1766 C   0  0  0  0  0  0  0  0  0  0  0  0
  110.9593  -77.2878  -87.7772 C   0  0  0  0  0  0  0  0  0  0  0  0
  111.1042  -76.8912  -86.3981 C   0  0  2  0  0  0  0  0  0  0  0  0
  110.4678  -75.5625  -86.0642 C   0  0  1  0  0  0  0  0  0  0  0  0
  110.7473  -75.3725  -84.6989 C   0  0  2  0  0  0  0  0  0  0  0  0
  110.2063  -74.1113  -84.1875 C   0  0  0  0  0  0  0  0  0  0  0  0
  110.4698  -73.8553  -82.8064 C   0  0  0  0  0  0  0  0  0  0  0  0
  109.7914  -74.7951  -86.9936 C   0  0  0  0  0  0  0  0  0  0  0  0
  108.7314  -75.2454  -87.8146 C   0  0  0  0  0  0  0  0  0  0  0  0
  108.0260  -74.4804  -88.7452 C   0  0  0  0  0  0  0  0  0  0  0  0
  108.3681  -73.0782  -88.9309 C   0  0  0  0  0  0  0  0  0  0  0  0
  109.4390  -72.6622  -88.1037 C   0  0  0  0  0  0  0  0  0  0  0  0
  110.1757  -73.3940  -87.1622 C   0  0  0  0  0  0  0  0  0  0  0  0
  110.9556  -73.0465  -80.1653 C   0  0  0  0  0  0  0  0  0  0  0  0
  111.9614  -75.1851  -79.6057 C   0  0  0  0  0  0  0  0  0  0  0  0
  112.9755  -81.3389  -88.8092 C   0  0  0  0  0  0  0  0  0  0  0  0
  113.2313  -81.4668  -86.3632 C   0  0  0  0  0  0  0  0  0  0  0  0
  1  2  1  1  0  0  0
  1  3  1  0  0  0  0
  1 16  1  0  0  0  0
  2 23  1  0  0  0  0
  2 24  1  0  0  0  0
  4 25  1  0  0  0  0
  4 26  1  0  0  0  0
  5  6  1  0  0  0  0
  6  3  1  6  0  0  0
  6 14  1  0  0  0  0
  7  5  1  1  0  0  0
  7  8  1  0  0  0  0
  7 12  1  0  0  0  0
  8  9  1  0  0  0  0
  9  4  1  1  0  0  0
  9 10  1  0  0  0  0
 10 11  1  0  0  0  0
 12 11  1  6  0  0  0
 12 13  1  0  0  0  0
 13 14  1  0  0  0  0
 13 17  1  6  0  0  0
 14 15  1  6  0  0  0
 15 16  1  0  0  0  0
 17 18  1  0  0  0  0
 17 22  1  0  0  0  0
 18 19  1  0  0  0  0
 19 20  1  0  0  0  0
 20 21  1  0  0  0  0
 21 22  1  0  0  0  0
M  END
>  <CHROM.1>
173.91986878,-170.35766249,53.12624663,111.06983471,-76.31083682,-85.37549066
-1.85749742,1.03801599,-2.07404293

>  <Name>
ligand

>  <RI>
0

>  <Rbt.Current_Directory>
/home/itssahil/PROJECTS/Mol_Feturizer/Test_systems_manuscript/rnas/1f1t

>  <Rbt.Executable>
rbdock ($Id: //depot/dev/client3/rdock/2013.1/src/exe/rbdock.cxx#4 $)

>  <Rbt.Library>
libRbt.so (2013.1, Build901 2013/11/27)

>  <Rbt.Parameter_File>
/export/apps/rDock/src/rDock_2013.1_src/data/scripts/dock_solv.prm

>  <Rbt.Receptor>
prm/pocket_docking_8.prm

>  <SCORE>
-53.4009

>  <SCORE.INTER>
-56.0861

>  <SCORE.INTER.CONST>
1

>  <SCORE.INTER.POLAR>
0

>  <SCORE.INTER.ROT>
3

>  <SCORE.INTER.SOLV>
8.92362

>  <SCORE.INTER.VDW>
-45.9653

>  <SCORE.INTER.norm>
-2.15716

>  <SCORE.INTRA>
2.68519

>  <SCORE.INTRA.DIHEDRAL>
-0.000269196

>  <SCORE.INTRA.DIHEDRAL.0>
3.60016

>  <SCORE.INTRA.POLAR>
0

>  <SCORE.INTRA.POLAR.0>
0

>  <SCORE.INTRA.REPUL>
0

>  <SCORE.INTRA.REPUL.0>
0

>  <SCORE.INTRA.SOLV>
-0.00096473

>  <SCORE.INTRA.SOLV.lig_0>
-10.9882

>  <SCORE.INTRA.VDW>
2.6858

>  <SCORE.INTRA.VDW.0>
1.84442

>  <SCORE.INTRA.norm>
0.103276

>  <SCORE.RESTR>
0

>  <SCORE.RESTR.CAVITY>
0

>  <SCORE.RESTR.norm>
0

>  <SCORE.SYSTEM>
0

>  <SCORE.SYSTEM.CONST>
0

>  <SCORE.SYSTEM.DIHEDRAL>
0

>  <SCORE.SYSTEM.SOLV>
0

>  <SCORE.SYSTEM.norm>
0

>  <SCORE.heavy>
26

>  <SCORE.norm>
-2.05388

>  <RMSD>
0.688

$$$$
ligand
 OpenBabel02271912153D
libRbt.so/2013.1/901 2013/11/27
 26 29  0  0  0  0  0  0  0  0999 V2000
  111.2308  -74.7148  -81.9236 C   0  0  1  0  0  0  0  0  0  0  0  0
  111.4107  -74.3744  -80.5906 N   0  0  0  0  0  0  0  0  0  0  0  0
  111.7491  -75.9775  -82.4289 C   0  0  0  0  0  0  0  0  0  0  0  0
  112.7402  -80.5592  -87.5453 N   0  0  0  0  0  0  0  0  0  0  0  0
  112.0416  -77.4751  -84.2514 O   0  0  0  0  0  0  0  0  0  0  0  0
  111.4899  -76.1714  -83.7871 C   0  0  2  0  0  0  0  0  0  0  0  0
  111.8094  -77.6390  -85.4952 C   0  0  1  0  0  0  0  0  0  0  0  0
  112.3752  -78.9407  -85.8489 C   0  0  0  0  0  0  0  0  0  0  0  0
  112.2125  -79.2940  -87.2354 C   0  0  2  0  0  0  0  0  0  0  0  0
  111.5711  -78.4443  -88.1704 C   0  0  0  0  0  0  0  0  0  0  0  0
  111.0221  -77.1675  -87.7531 C   0  0  0  0  0  0  0  0  0  0  0  0
  111.1609  -76.7993  -86.3655 C   0  0  2  0  0  0  0  0  0  0  0  0
  110.5485  -75.4640  -86.0134 C   0  0  1  0  0  0  0  0  0  0  0  0
  110.8177  -75.3051  -84.6421 C   0  0  2  0  0  0  0  0  0  0  0  0
  110.2975  -74.0425  -84.1128 C   0  0  0  0  0  0  0  0  0  0  0  0
  110.5519  -73.8174  -82.7246 C   0  0  0  0  0  0  0  0  0  0  0  0
  109.8978  -74.6659  -86.9351 C   0  0  0  0  0  0  0  0  0  0  0  0
  110.2113  -73.3161  -87.2185 C   0  0  0  0  0  0  0  0  0  0  0  0
  109.5768  -72.5010  -88.1575 C   0  0  0  0  0  0  0  0  0  0  0  0
  108.4819  -73.0370  -88.9522 C   0  0  0  0  0  0  0  0  0  0  0  0
  108.1858  -74.3849  -88.6369 C   0  0  0  0  0  0  0  0  0  0  0  0
  108.7915  -75.2367  -87.7029 C   0  0  0  0  0  0  0  0  0  0  0  0
  110.9707  -73.0910  -80.0506 C   0  0  0  0  0  0  0  0  0  0  0  0
  112.0365  -75.2144  -79.5473 C   0  0  0  0  0  0  0  0  0  0  0  0
  112.9339  -81.2535  -88.8378 C   0  0  0  0  0  0  0  0  0  0  0  0
  113.2302  -81.4016  -86.3976 C   0  0  0  0  0  0  0  0  0  0  0  0
  1  2  1  1  0  0  0
  1  3  1  0  0  0  0
  1 16  1  0  0  0  0
  2 23  1  0  0  0  0
  2 24  1  0  0  0  0
  4 25  1  0  0  0  0
  4 26  1  0  0  0  0
  5  6  1  0  0  0  0
  6  3  1  6  0  0  0
  6 14  1  0  0  0  0
  7  5  1  1  0  0  0
  7  8  1  0  0  0  0
  7 12  1  0  0  0  0
  8  9  1  0  0  0  0
  9  4  1  1  0  0  0
  9 10  1  0  0  0  0
 10 11  1  0  0  0  0
 12 11  1  6  0  0  0
 12 13  1  0  0  0  0
 13 14  1  0  0  0  0
 13 17  1  6  0  0  0
 14 15  1  6  0  0  0
 15 16  1  0  0  0  0
 17 18  1  0  0  0  0
 17 22  1  0  0  0  0
 18 19  1  0  0  0  0
 19 20  1  0  0  0  0
 20 21  1  0  0  0  0
 21 22  1  0  0  0  0
M  END
>  <CHROM.1>
176.80434740,-172.11995750,-124.87454564,111.12108804,-76.25362878,-85.34205515
-1.83729796,1.05494685,-2.05962044

>  <Name>
ligand

>  <RI>
0

>  <Rbt.Current_Directory>
/home/itssahil/PROJECTS/Mol_Feturizer/Test_systems_manuscript/rnas/1f1t

>  <Rbt.Executable>
rbdock ($Id: //depot/dev/client3/rdock/2013.1/src/exe/rbdock.cxx#4 $)

>  <Rbt.Library>
libRbt.so (2013.1, Build901 2013/11/27)

>  <Rbt.Parameter_File>
/export/apps/rDock/src/rDock_2013.1_src/data/scripts/dock_solv.prm

>  <Rbt.Receptor>
prm/pocket_docking_7.prm

>  <SCORE>
-53.4819

>  <SCORE.INTER>
-56.2832

>  <SCORE.INTER.CONST>
1

>  <SCORE.INTER.POLAR>
0

>  <SCORE.INTER.ROT>
3

>  <SCORE.INTER.SOLV>
9.0262

>  <SCORE.INTER.VDW>
-46.1308

>  <SCORE.INTER.norm>
-2.16474

>  <SCORE.INTRA>
2.80128

>  <SCORE.INTRA.DIHEDRAL>
-0.000572753

>  <SCORE.INTRA.DIHEDRAL.0>
3.60016

>  <SCORE.INTRA.POLAR>
0

>  <SCORE.INTRA.POLAR.0>
0

>  <SCORE.INTRA.REPUL>
0

>  <SCORE.INTRA.REPUL.0>
0

>  <SCORE.INTRA.SOLV>
-0.000984142

>  <SCORE.INTRA.SOLV.lig_0>
-10.9882

>  <SCORE.INTRA.VDW>
2.80206

>  <SCORE.INTRA.VDW.0>
1.84442

>  <SCORE.INTRA.norm>
0.107742

>  <SCORE.RESTR>
0

>  <SCORE.RESTR.CAVITY>
0

>  <SCORE.RESTR.norm>
0

>  <SCORE.SYSTEM>
0

>  <SCORE.SYSTEM.CONST>
0

>  <SCORE.SYSTEM.DIHEDRAL>
0

>  <SCORE.SYSTEM.SOLV>
0

>  <SCORE.SYSTEM.norm>
0

>  <SCORE.heavy>
26

>  <SCORE.norm>
-2.057

>  <RMSD>
0.689

$$$$
ligand
 OpenBabel02271912153D
libRbt.so/2013.1/901 2013/11/27
 26 29  0  0  0  0  0  0  0  0999 V2000
  112.2568  -79.4717  -87.1206 C   0  0  1  0  0  0  0  0  0  0  0  0
  112.7856  -80.6922  -87.5155 N   0  0  0  0  0  0  0  0  0  0  0  0
  112.3919  -79.0323  -85.7396 C   0  0  0  0  0  0  0  0  0  0  0  0
  111.3387  -74.4076  -80.6747 N   0  0  0  0  0  0  0  0  0  0  0  0
  111.9721  -77.3874  -84.0759 O   0  0  0  0  0  0  0  0  0  0  0  0
  111.8062  -77.7875  -85.5014 C   0  0  2  0  0  0  0  0  0  0  0  0
  111.4250  -76.2542  -83.8651 C   0  0  1  0  0  0  0  0  0  0  0  0
  111.6504  -75.9476  -82.4527 C   0  0  0  0  0  0  0  0  0  0  0  0
  111.0868  -74.6925  -82.0277 C   0  0  2  0  0  0  0  0  0  0  0  0
  110.3679  -73.8419  -82.9035 C   0  0  0  0  0  0  0  0  0  0  0  0
  110.1869  -74.2000  -84.2981 C   0  0  0  0  0  0  0  0  0  0  0  0
  110.7555  -75.4462  -84.7495 C   0  0  2  0  0  0  0  0  0  0  0  0
  110.5350  -75.7340  -86.2159 C   0  0  1  0  0  0  0  0  0  0  0  0
  111.1436  -76.9849  -86.4236 C   0  0  2  0  0  0  0  0  0  0  0  0
  111.0243  -77.4416  -87.8100 C   0  0  0  0  0  0  0  0  0  0  0  0
  111.6132  -78.7153  -88.0806 C   0  0  0  0  0  0  0  0  0  0  0  0
  109.8589  -74.8738  -87.0603 C   0  0  0  0  0  0  0  0  0  0  0  0
  108.7426  -75.2159  -87.8586 C   0  0  0  0  0  0  0  0  0  0  0  0
  108.0374  -74.3565  -88.7030 C   0  0  0  0  0  0  0  0  0  0  0  0
  108.4423  -72.9630  -88.8122 C   0  0  0  0  0  0  0  0  0  0  0  0
  109.5680  -72.6560  -88.0105 C   0  0  0  0  0  0  0  0  0  0  0  0
  110.3066  -73.4845  -87.1544 C   0  0  0  0  0  0  0  0  0  0  0  0
  112.8788  -81.0802  -88.9202 C   0  0  0  0  0  0  0  0  0  0  0  0
  113.3233  -81.7442  -86.6268 C   0  0  0  0  0  0  0  0  0  0  0  0
  111.9723  -75.2082  -79.6032 C   0  0  0  0  0  0  0  0  0  0  0  0
  110.9277  -73.0507  -80.1678 C   0  0  0  0  0  0  0  0  0  0  0  0
  1  2  1  6  0  0  0
  1  3  1  0  0  0  0
  1 16  1  0  0  0  0
  2 23  1  0  0  0  0
  2 24  1  0  0  0  0
  4 25  1  0  0  0  0
  4 26  1  0  0  0  0
  5  6  1  0  0  0  0
  6  3  1  1  0  0  0
  6 14  1  0  0  0  0
  7  5  1  6  0  0  0
  7  8  1  0  0  0  0
  7 12  1  0  0  0  0
  8  9  1  0  0  0  0
  9  4  1  6  0  0  0
  9 10  1  0  0  0  0
 10 11  1  0  0  0  0
 12 11  1  1  0  0  0
 12 13  1  0  0  0  0
 13 14  1  0  0  0  0
 13 17  1  1  0  0  0
 14 15  1  1  0  0  0
 15 16  1  0  0  0  0
 17 18  1  0  0  0  0
 17 22  1  0  0  0  0
 18 19  1  0  0  0  0
 19 20  1  0  0  0  0
 20 21  1  0  0  0  0
 21 22  1  0  0  0  0
M  END
>  <CHROM.1>
-169.47220692,-5.78297991,-125.10754368,111.08521710,-76.34075172,-85.38252518
-1.25122784,-1.04617038,1.08251922

>  <Name>
ligand

>  <RI>
0

>  <Rbt.Current_Directory>
/home/itssahil/PROJECTS/Mol_Feturizer/Test_systems_manuscript/rnas/1f1t

>  <Rbt.Executable>
rbdock ($Id: //depot/dev/client3/rdock/2013.1/src/exe/rbdock.cxx#4 $)

>  <Rbt.Library>
libRbt.so (2013.1, Build901 2013/11/27)

>  <Rbt.Parameter_File>
/export/apps/rDock/src/rDock_2013.1_src/data/scripts/dock_solv.prm

>  <Rbt.Receptor>
prm/pocket_docking_3.prm

>  <SCORE>
-55.7116

>  <SCORE.INTER>
-56.0991

>  <SCORE.INTER.CONST>
1

>  <SCORE.INTER.POLAR>
0

>  <SCORE.INTER.ROT>
3

>  <SCORE.INTER.SOLV>
8.89666

>  <SCORE.INTER.VDW>
-45.965

>  <SCORE.INTER.norm>
-2.15766

>  <SCORE.INTRA>
0.387505

>  <SCORE.INTRA.DIHEDRAL>
-1.12759e-05

>  <SCORE.INTRA.DIHEDRAL.0>
3.60016

>  <SCORE.INTRA.POLAR>
0

>  <SCORE.INTRA.POLAR.0>
0

>  <SCORE.INTRA.REPUL>
0

>  <SCORE.INTRA.REPUL.0>
0

>  <SCORE.INTRA.SOLV>
4.83799e-05

>  <SCORE.INTRA.SOLV.lig_0>
-10.9882

>  <SCORE.INTRA.VDW>
0.387487

>  <SCORE.INTRA.VDW.0>
1.84442

>  <SCORE.INTRA.norm>
0.014904

>  <SCORE.RESTR>
0

>  <SCORE.RESTR.CAVITY>
0

>  <SCORE.RESTR.norm>
0

>  <SCORE.SYSTEM>
0

>  <SCORE.SYSTEM.CONST>
0

>  <SCORE.SYSTEM.DIHEDRAL>
0

>  <SCORE.SYSTEM.SOLV>
0

>  <SCORE.SYSTEM.norm>
0

>  <SCORE.heavy>
26

>  <SCORE.norm>
-2.14275

>  <RMSD>
0.690

$$$$
ligand
 OpenBabel02271912153D
libRbt.so/2013.1/901 2013/11/27
 26 29  0  0  0  0  0  0  0  0999 V2000
  111.2197  -74.7539  -82.0165 C   0  0  1  0  0  0  0  0  0  0  0  0
  111.4039  -74.3857  -80.6915 N   0  0  0  0  0  0  0  0  0  0  0  0
  111.7562  -76.0165  -82.5027 C   0  0  0  0  0  0  0  0  0  0  0  0
  112.7881  -80.6742  -87.5417 N   0  0  0  0  0  0  0  0  0  0  0  0
  112.0609  -77.5423  -84.2996 O   0  0  0  0  0  0  0  0  0  0  0  0
  111.4899  -76.2401  -83.8549 C   0  0  2  0  0  0  0  0  0  0  0  0
  111.8219  -77.7332  -85.5383 C   0  0  1  0  0  0  0  0  0  0  0  0
  112.4078  -79.0312  -85.8725 C   0  0  0  0  0  0  0  0  0  0  0  0
  112.2405  -79.4129  -87.2509 C   0  0  2  0  0  0  0  0  0  0  0  0
  111.5770  -78.5921  -88.1961 C   0  0  0  0  0  0  0  0  0  0  0  0
  111.0089  -77.3175  -87.7981 C   0  0  0  0  0  0  0  0  0  0  0  0
  111.1519  -76.9213  -86.4186 C   0  0  2  0  0  0  0  0  0  0  0  0
  110.5188  -75.5907  -86.0862 C   0  0  1  0  0  0  0  0  0  0  0  0
  110.7958  -75.4016  -84.7203 C   0  0  2  0  0  0  0  0  0  0  0  0
  110.2576  -74.1387  -84.2101 C   0  0  0  0  0  0  0  0  0  0  0  0
  110.5188  -73.8835  -82.8284 C   0  0  0  0  0  0  0  0  0  0  0  0
  109.8470  -74.8212  -87.0171 C   0  0  0  0  0  0  0  0  0  0  0  0
  108.8085  -75.2764  -87.8625 C   0  0  0  0  0  0  0  0  0  0  0  0
  108.1077  -74.5098  -88.7952 C   0  0  0  0  0  0  0  0  0  0  0  0
  108.4313  -73.1001  -88.9563 C   0  0  0  0  0  0  0  0  0  0  0  0
  109.4810  -72.6791  -88.1049 C   0  0  0  0  0  0  0  0  0  0  0  0
  110.2124  -73.4122  -87.1603 C   0  0  0  0  0  0  0  0  0  0  0  0
  112.0082  -75.2848  -79.7123 C   0  0  0  0  0  0  0  0  0  0  0  0
  111.0464  -73.0859  -80.0843 C   0  0  0  0  0  0  0  0  0  0  0  0
  113.0166  -81.3741  -88.8256 C   0  0  0  0  0  0  0  0  0  0  0  0
  113.2625  -81.5046  -86.3787 C   0  0  0  0  0  0  0  0  0  0  0  0
  1  2  1  1  0  0  0
  1  3  1  0  0  0  0
  1 16  1  0  0  0  0
  2 23  1  0  0  0  0
  2 24  1  0  0  0  0
  4 25  1  0  0  0  0
  4 26  1  0  0  0  0
  5  6  1  0  0  0  0
  6  3  1  6  0  0  0
  6 14  1  0  0  0  0
  7  5  1  1  0  0  0
  7  8  1  0  0  0  0
  7 12  1  0  0  0  0
  8  9  1  0  0  0  0
  9  4  1  1  0  0  0
  9 10  1  0  0  0  0
 10 11  1  0  0  0  0
 12 11  1  6  0  0  0
 12 13  1  0  0  0  0
 13 14  1  0  0  0  0
 13 17  1  6  0  0  0
 14 15  1  6  0  0  0
 15 16  1  0  0  0  0
 17 18  1  0  0  0  0
 17 22  1  0  0  0  0
 18 19  1  0  0  0  0
 19 20  1  0  0  0  0
 20 21  1  0  0  0  0
 21 22  1  0  0  0  0
M  END
>  <CHROM.1>
-6.32414256,-170.25691777,51.55492533,111.11921003,-76.34437336,-85.39531341
-1.85536552,1.04169968,-2.07427239

>  <Name>
ligand

>  <RI>
0

>  <Rbt.Current_Directory>
/home/itssahil/PROJECTS/Mol_Feturizer/Test_systems_manuscript/rnas/1f1t

>  <Rbt.Executable>
rbdock ($Id: //depot/dev/client3/rdock/2013.1/src/exe/rbdock.cxx#4 $)

>  <Rbt.Library>
libRbt.so (2013.1, Build901 2013/11/27)

>  <Rbt.Parameter_File>
/export/apps/rDock/src/rDock_2013.1_src/data/scripts/dock_solv.prm

>  <Rbt.Receptor>
prm/pocket_docking_3.prm

>  <SCORE>
-53.5955

>  <SCORE.INTER>
-56.0131

>  <SCORE.INTER.CONST>
1

>  <SCORE.INTER.POLAR>
0

>  <SCORE.INTER.ROT>
3

>  <SCORE.INTER.SOLV>
8.98904

>  <SCORE.INTER.VDW>
-45.9384

>  <SCORE.INTER.norm>
-2.15435

>  <SCORE.INTRA>
2.41759

>  <SCORE.INTRA.DIHEDRAL>
-0.000286473

>  <SCORE.INTRA.DIHEDRAL.0>
3.60016

>  <SCORE.INTRA.POLAR>
0

>  <SCORE.INTRA.POLAR.0>
0

>  <SCORE.INTRA.REPUL>
0

>  <SCORE.INTRA.REPUL.0>
0

>  <SCORE.INTRA.SOLV>
-0.000962497

>  <SCORE.INTRA.SOLV.lig_0>
-10.9882

>  <SCORE.INTRA.VDW>
2.41821

>  <SCORE.INTRA.VDW.0>
1.84442

>  <SCORE.INTRA.norm>
0.0929842

>  <SCORE.RESTR>
0

>  <SCORE.RESTR.CAVITY>
0

>  <SCORE.RESTR.norm>
0

>  <SCORE.SYSTEM>
0

>  <SCORE.SYSTEM.CONST>
0

>  <SCORE.SYSTEM.DIHEDRAL>
0

>  <SCORE.SYSTEM.SOLV>
0

>  <SCORE.SYSTEM.norm>
0

>  <SCORE.heavy>
26

>  <SCORE.norm>
-2.06137

>  <RMSD>
0.690

$$$$
ligand
 OpenBabel02271912153D
libRbt.so/2013.1/901 2013/11/27
 26 29  0  0  0  0  0  0  0  0999 V2000
  112.2661  -79.4782  -87.1163 C   0  0  1  0  0  0  0  0  0  0  0  0
  112.7974  -80.6980  -87.5102 N   0  0  0  0  0  0  0  0  0  0  0  0
  112.3971  -79.0390  -85.7349 C   0  0  0  0  0  0  0  0  0  0  0  0
  111.3249  -74.4171  -80.6714 N   0  0  0  0  0  0  0  0  0  0  0  0
  111.9709  -77.3951  -84.0718 O   0  0  0  0  0  0  0  0  0  0  0  0
  111.8092  -77.7950  -85.4979 C   0  0  2  0  0  0  0  0  0  0  0  0
  111.4218  -76.2627  -83.8621 C   0  0  1  0  0  0  0  0  0  0  0  0
  111.6431  -75.9562  -82.4491 C   0  0  0  0  0  0  0  0  0  0  0  0
  111.0769  -74.7019  -82.0251 C   0  0  2  0  0  0  0  0  0  0  0  0
  110.3592  -73.8519  -82.9026 C   0  0  0  0  0  0  0  0  0  0  0  0
  110.1823  -74.2098  -84.2977 C   0  0  0  0  0  0  0  0  0  0  0  0
  110.7537  -75.4552  -84.7480 C   0  0  2  0  0  0  0  0  0  0  0  0
  110.5374  -75.7429  -86.2151 C   0  0  1  0  0  0  0  0  0  0  0  0
  111.1480  -76.9930  -86.4215 C   0  0  2  0  0  0  0  0  0  0  0  0
  111.0330  -77.4494  -87.8084 C   0  0  0  0  0  0  0  0  0  0  0  0
  111.6241  -78.7223  -88.0778 C   0  0  0  0  0  0  0  0  0  0  0  0
  109.8625  -74.8832  -87.0610 C   0  0  0  0  0  0  0  0  0  0  0  0
  108.7854  -75.2400  -87.9055 C   0  0  0  0  0  0  0  0  0  0  0  0
  108.0815  -74.3821  -88.7525 C   0  0  0  0  0  0  0  0  0  0  0  0
  108.4443  -72.9742  -88.8135 C   0  0  0  0  0  0  0  0  0  0  0  0
  109.5317  -72.6522  -87.9661 C   0  0  0  0  0  0  0  0  0  0  0  0
  110.2676  -73.4785  -87.1056 C   0  0  0  0  0  0  0  0  0  0  0  0
  112.9226  -81.0729  -88.9159 C   0  0  0  0  0  0  0  0  0  0  0  0
  113.3075  -81.7616  -86.6190 C   0  0  0  0  0  0  0  0  0  0  0  0
  111.9692  -75.2118  -79.6020 C   0  0  0  0  0  0  0  0  0  0  0  0
  110.8956  -73.0672  -80.1611 C   0  0  0  0  0  0  0  0  0  0  0  0
  1  2  1  6  0  0  0
  1  3  1  0  0  0  0
  1 16  1  0  0  0  0
  2 23  1  0  0  0  0
  2 24  1  0  0  0  0
  4 25  1  0  0  0  0
  4 26  1  0  0  0  0
  5  6  1  0  0  0  0
  6  3  1  1  0  0  0
  6 14  1  0  0  0  0
  7  5  1  6  0  0  0
  7  8  1  0  0  0  0
  7 12  1  0  0  0  0
  8  9  1  0  0  0  0
  9  4  1  6  0  0  0
  9 10  1  0  0  0  0
 10 11  1  0  0  0  0
 12 11  1  1  0  0  0
 12 13  1  0  0  0  0
 13 14  1  0  0  0  0
 13 17  1  1  0  0  0
 14 15  1  1  0  0  0
 15 16  1  0  0  0  0
 17 18  1  0  0  0  0
 17 22  1  0  0  0  0
 18 19  1  0  0  0  0
 19 20  1  0  0  0  0
 20 21  1  0  0  0  0
 21 22  1  0  0  0  0
M  END
>  <CHROM.1>
-168.06189441,-5.05332258,-128.00650295,111.08568016,-76.34921252,-85.38009399
-1.24516213,-1.04623663,1.08792061

>  <Name>
ligand

>  <RI>
0

>  <Rbt.Current_Directory>
/home/itssahil/PROJECTS/Mol_Feturizer/Test_systems_manuscript/rnas/1f1t

>  <Rbt.Executable>
rbdock ($Id: //depot/dev/client3/rdock/2013.1/src/exe/rbdock.cxx#4 $)

>  <Rbt.Library>
libRbt.so (2013.1, Build901 2013/11/27)

>  <Rbt.Parameter_File>
/export/apps/rDock/src/rDock_2013.1_src/data/scripts/dock_solv.prm

>  <Rbt.Receptor>
prm/pocket_docking_7.prm

>  <SCORE>
-55.7265

>  <SCORE.INTER>
-56.1785

>  <SCORE.INTER.CONST>
1

>  <SCORE.INTER.POLAR>
0

>  <SCORE.INTER.ROT>
3

>  <SCORE.INTER.SOLV>
8.87703

>  <SCORE.INTER.VDW>
-46.0114

>  <SCORE.INTER.norm>
-2.16071

>  <SCORE.INTRA>
0.452051

>  <SCORE.INTRA.DIHEDRAL>
-2.65873e-09

>  <SCORE.INTRA.DIHEDRAL.0>
3.60016

>  <SCORE.INTRA.POLAR>
0

>  <SCORE.INTRA.POLAR.0>
0

>  <SCORE.INTRA.REPUL>
0

>  <SCORE.INTRA.REPUL.0>
0

>  <SCORE.INTRA.SOLV>
6.12012e-05

>  <SCORE.INTRA.SOLV.lig_0>
-10.9882

>  <SCORE.INTRA.VDW>
0.45202

>  <SCORE.INTRA.VDW.0>
1.84442

>  <SCORE.INTRA.norm>
0.0173866

>  <SCORE.RESTR>
0

>  <SCORE.RESTR.CAVITY>
0

>  <SCORE.RESTR.norm>
0

>  <SCORE.SYSTEM>
0

>  <SCORE.SYSTEM.CONST>
0

>  <SCORE.SYSTEM.DIHEDRAL>
0

>  <SCORE.SYSTEM.SOLV>
0

>  <SCORE.SYSTEM.norm>
0

>  <SCORE.heavy>
26

>  <SCORE.norm>
-2.14333

>  <RMSD>
0.690

$$$$
ligand
 OpenBabel02271912153D
libRbt.so/2013.1/901 2013/11/27
 26 29  0  0  0  0  0  0  0  0999 V2000
  111.1703  -74.7266  -82.0061 C   0  0  1  0  0  0  0  0  0  0  0  0
  111.3551  -74.3584  -80.6811 N   0  0  0  0  0  0  0  0  0  0  0  0
  111.7151  -75.9846  -82.4950 C   0  0  0  0  0  0  0  0  0  0  0  0
  112.7693  -80.6292  -87.5414 N   0  0  0  0  0  0  0  0  0  0  0  0
  112.0267  -77.5062  -84.2942 O   0  0  0  0  0  0  0  0  0  0  0  0
  111.4470  -76.2088  -83.8467 C   0  0  2  0  0  0  0  0  0  0  0  0
  111.7861  -77.6977  -85.5325 C   0  0  1  0  0  0  0  0  0  0  0  0
  112.3809  -78.9908  -85.8696 C   0  0  0  0  0  0  0  0  0  0  0  0
  112.2130  -79.3724  -87.2479 C   0  0  2  0  0  0  0  0  0  0  0  0
  111.5410  -78.5556  -88.1906 C   0  0  0  0  0  0  0  0  0  0  0  0
  110.9642  -77.2857  -87.7898 C   0  0  0  0  0  0  0  0  0  0  0  0
  111.1078  -76.8899  -86.4103 C   0  0  2  0  0  0  0  0  0  0  0  0
  110.4655  -75.5644  -86.0749 C   0  0  1  0  0  0  0  0  0  0  0  0
  110.7445  -75.3747  -84.7094 C   0  0  2  0  0  0  0  0  0  0  0  0
  110.1981  -74.1164  -84.1966 C   0  0  0  0  0  0  0  0  0  0  0  0
  110.4609  -73.8606  -82.8153 C   0  0  0  0  0  0  0  0  0  0  0  0
  109.7856  -74.7991  -87.0032 C   0  0  0  0  0  0  0  0  0  0  0  0
  108.6983  -75.2405  -87.7928 C   0  0  0  0  0  0  0  0  0  0  0  0
  107.9892  -74.4769  -88.7218 C   0  0  0  0  0  0  0  0  0  0  0  0
  108.3573  -73.0861  -88.9405 C   0  0  0  0  0  0  0  0  0  0  0  0
  109.4548  -72.6790  -88.1443 C   0  0  0  0  0  0  0  0  0  0  0  0
  110.1961  -73.4099  -87.2057 C   0  0  0  0  0  0  0  0  0  0  0  0
  110.9434  -73.0526  -80.1733 C   0  0  0  0  0  0  0  0  0  0  0  0
  111.9594  -75.1871  -79.6163 C   0  0  0  0  0  0  0  0  0  0  0  0
  113.0277  -81.3133  -88.8281 C   0  0  0  0  0  0  0  0  0  0  0  0
  113.2190  -81.4727  -86.3781 C   0  0  0  0  0  0  0  0  0  0  0  0
  1  2  1  1  0  0  0
  1  3  1  0  0  0  0
  1 16  1  0  0  0  0
  2 23  1  0  0  0  0
  2 24  1  0  0  0  0
  4 25  1  0  0  0  0
  4 26  1  0  0  0  0
  5  6  1  0  0  0  0
  6  3  1  6  0  0  0
  6 14  1  0  0  0  0
  7  5  1  1  0  0  0
  7  8  1  0  0  0  0
  7 12  1  0  0  0  0
  8  9  1  0  0  0  0
  9  4  1  1  0  0  0
  9 10  1  0  0  0  0
 10 11  1  0  0  0  0
 12 11  1  6  0  0  0
 12 13  1  0  0  0  0
 13 14  1  0  0  0  0
 13 17  1  6  0  0  0
 14 15  1  6  0  0  0
 15 16  1  0  0  0  0
 17 18  1  0  0  0  0
 17 22  1  0  0  0  0
 18 19  1  0  0  0  0
 19 20  1  0  0  0  0
 20 21  1  0  0  0  0
 21 22  1  0  0  0  0
M  END
>  <CHROM.1>
173.93623251,-168.66349959,55.35384177,111.07108008,-76.31096053,-85.38725137
-1.86204108,1.03470491,-2.06875476

>  <Name>
ligand

>  <RI>
0

>  <Rbt.Current_Directory>
/home/itssahil/PROJECTS/Mol_Feturizer/Test_systems_manuscript/rnas/1f1t

>  <Rbt.Executable>
rbdock ($Id: //depot/dev/client3/rdock/2013.1/src/exe/rbdock.cxx#4 $)

>  <Rbt.Library>
libRbt.so (2013.1, Build901 2013/11/27)

>  <Rbt.Parameter_File>
/export/apps/rDock/src/rDock_2013.1_src/data/scripts/dock_solv.prm

>  <Rbt.Receptor>
prm/pocket_docking_2.prm

>  <SCORE>
-53.3675

>  <SCORE.INTER>
-55.9317

>  <SCORE.INTER.CONST>
1

>  <SCORE.INTER.POLAR>
0

>  <SCORE.INTER.ROT>
3

>  <SCORE.INTER.SOLV>
8.92875

>  <SCORE.INTER.VDW>
-45.864

>  <SCORE.INTER.norm>
-2.15122

>  <SCORE.INTRA>
2.56418

>  <SCORE.INTRA.DIHEDRAL>
-0.000249825

>  <SCORE.INTRA.DIHEDRAL.0>
3.60016

>  <SCORE.INTRA.POLAR>
0

>  <SCORE.INTRA.POLAR.0>
0

>  <SCORE.INTRA.REPUL>
0

>  <SCORE.INTRA.REPUL.0>
0

>  <SCORE.INTRA.SOLV>
-0.000956907

>  <SCORE.INTRA.SOLV.lig_0>
-10.9882

>  <SCORE.INTRA.VDW>
2.56479

>  <SCORE.INTRA.VDW.0>
1.84442

>  <SCORE.INTRA.norm>
0.0986224

>  <SCORE.RESTR>
0

>  <SCORE.RESTR.CAVITY>
0

>  <SCORE.RESTR.norm>
0

>  <SCORE.SYSTEM>
0

>  <SCORE.SYSTEM.CONST>
0

>  <SCORE.SYSTEM.DIHEDRAL>
0

>  <SCORE.SYSTEM.SOLV>
0

>  <SCORE.SYSTEM.norm>
0

>  <SCORE.heavy>
26

>  <SCORE.norm>
-2.0526

>  <RMSD>
0.693

$$$$
ligand
 OpenBabel02271912153D
libRbt.so/2013.1/901 2013/11/27
 26 29  0  0  0  0  0  0  0  0999 V2000
  111.2071  -74.6905  -81.9216 C   0  0  1  0  0  0  0  0  0  0  0  0
  111.3826  -74.3463  -80.5890 N   0  0  0  0  0  0  0  0  0  0  0  0
  111.7221  -75.9571  -82.4204 C   0  0  0  0  0  0  0  0  0  0  0  0
  112.7158  -80.5605  -87.5167 N   0  0  0  0  0  0  0  0  0  0  0  0
  112.0162  -77.4622  -84.2364 O   0  0  0  0  0  0  0  0  0  0  0  0
  111.4680  -76.1546  -83.7790 C   0  0  2  0  0  0  0  0  0  0  0  0
  111.7887  -77.6293  -85.4807 C   0  0  1  0  0  0  0  0  0  0  0  0
  112.3504  -78.9347  -85.8275 C   0  0  0  0  0  0  0  0  0  0  0  0
  112.1922  -79.2920  -87.2134 C   0  0  2  0  0  0  0  0  0  0  0  0
  111.5587  -78.4427  -88.1541 C   0  0  0  0  0  0  0  0  0  0  0  0
  111.0134  -77.1621  -87.7437 C   0  0  0  0  0  0  0  0  0  0  0  0
  111.1477  -76.7899  -86.3567 C   0  0  2  0  0  0  0  0  0  0  0  0
  110.5395  -75.4507  -86.0118 C   0  0  1  0  0  0  0  0  0  0  0  0
  110.8033  -75.2882  -84.6399 C   0  0  2  0  0  0  0  0  0  0  0  0
  110.2863  -74.0216  -84.1172 C   0  0  0  0  0  0  0  0  0  0  0  0
  110.5356  -73.7929  -82.7286 C   0  0  0  0  0  0  0  0  0  0  0  0
  109.8963  -74.6529  -86.9390 C   0  0  0  0  0  0  0  0  0  0  0  0
  110.2164  -73.3052  -87.2250 C   0  0  0  0  0  0  0  0  0  0  0  0
  109.5894  -72.4906  -88.1695 C   0  0  0  0  0  0  0  0  0  0  0  0
  108.4964  -73.0249  -88.9680 C   0  0  0  0  0  0  0  0  0  0  0  0
  108.1937  -74.3707  -88.6500 C   0  0  0  0  0  0  0  0  0  0  0  0
  108.7916  -75.2219  -87.7105 C   0  0  0  0  0  0  0  0  0  0  0  0
  112.0460  -75.2342  -79.6383 C   0  0  0  0  0  0  0  0  0  0  0  0
  110.9578  -73.0848  -79.9454 C   0  0  0  0  0  0  0  0  0  0  0  0
  112.8702  -81.2784  -88.8016 C   0  0  0  0  0  0  0  0  0  0  0  0
  113.2478  -81.3788  -86.3702 C   0  0  0  0  0  0  0  0  0  0  0  0
  1  2  1  1  0  0  0
  1  3  1  0  0  0  0
  1 16  1  0  0  0  0
  2 23  1  0  0  0  0
  2 24  1  0  0  0  0
  4 25  1  0  0  0  0
  4 26  1  0  0  0  0
  5  6  1  0  0  0  0
  6  3  1  6  0  0  0
  6 14  1  0  0  0  0
  7  5  1  1  0  0  0
  7  8  1  0  0  0  0
  7 12  1  0  0  0  0
  8  9  1  0  0  0  0
  9  4  1  1  0  0  0
  9 10  1  0  0  0  0
 10 11  1  0  0  0  0
 12 11  1  6  0  0  0
 12 13  1  0  0  0  0
 13 14  1  0  0  0  0
 13 17  1  6  0  0  0
 14 15  1  6  0  0  0
 15 16  1  0  0  0  0
 17 18  1  0  0  0  0
 17 22  1  0  0  0  0
 18 19  1  0  0  0  0
 19 20  1  0  0  0  0
 20 21  1  0  0  0  0
 21 22  1  0  0  0  0
M  END
>  <CHROM.1>
-1.62067977,-174.50339789,-124.92246558,111.10874979,-76.24367562,-85.33483265
-1.83705796,1.05933339,-2.06142507

>  <Name>
ligand

>  <RI>
0

>  <Rbt.Current_Directory>
/home/itssahil/PROJECTS/Mol_Feturizer/Test_systems_manuscript/rnas/1f1t

>  <Rbt.Executable>
rbdock ($Id: //depot/dev/client3/rdock/2013.1/src/exe/rbdock.cxx#4 $)

>  <Rbt.Library>
libRbt.so (2013.1, Build901 2013/11/27)

>  <Rbt.Parameter_File>
/export/apps/rDock/src/rDock_2013.1_src/data/scripts/dock_solv.prm

>  <Rbt.Receptor>
prm/pocket_docking_6.prm

>  <SCORE>
-53.7226

>  <SCORE.INTER>
-56.2938

>  <SCORE.INTER.CONST>
1

>  <SCORE.INTER.POLAR>
0

>  <SCORE.INTER.ROT>
3

>  <SCORE.INTER.SOLV>
9.0681

>  <SCORE.INTER.VDW>
-46.1519

>  <SCORE.INTER.norm>
-2.16515

>  <SCORE.INTRA>
2.57121

>  <SCORE.INTRA.DIHEDRAL>
-0.000598742

>  <SCORE.INTRA.DIHEDRAL.0>
3.60016

>  <SCORE.INTRA.POLAR>
0

>  <SCORE.INTRA.POLAR.0>
0

>  <SCORE.INTRA.REPUL>
0

>  <SCORE.INTRA.REPUL.0>
0

>  <SCORE.INTRA.SOLV>
-0.000993824

>  <SCORE.INTRA.SOLV.lig_0>
-10.9882

>  <SCORE.INTRA.VDW>
2.572

>  <SCORE.INTRA.VDW.0>
1.84442

>  <SCORE.INTRA.norm>
0.0988925

>  <SCORE.RESTR>
0

>  <SCORE.RESTR.CAVITY>
0

>  <SCORE.RESTR.norm>
0

>  <SCORE.SYSTEM>
0

>  <SCORE.SYSTEM.CONST>
0

>  <SCORE.SYSTEM.DIHEDRAL>
0

>  <SCORE.SYSTEM.SOLV>
0

>  <SCORE.SYSTEM.norm>
0

>  <SCORE.heavy>
26

>  <SCORE.norm>
-2.06625

>  <RMSD>
0.693

$$$$
ligand
 OpenBabel02271912153D
libRbt.so/2013.1/901 2013/11/27
 26 29  0  0  0  0  0  0  0  0999 V2000
  111.1618  -74.7134  -82.0026 C   0  0  1  0  0  0  0  0  0  0  0  0
  111.3470  -74.3427  -80.6784 N   0  0  0  0  0  0  0  0  0  0  0  0
  111.7022  -75.9747  -82.4881 C   0  0  0  0  0  0  0  0  0  0  0  0
  112.7427  -80.6352  -87.5227 N   0  0  0  0  0  0  0  0  0  0  0  0
  112.0094  -77.5017  -84.2835 O   0  0  0  0  0  0  0  0  0  0  0  0
  111.4343  -76.2010  -83.8395 C   0  0  2  0  0  0  0  0  0  0  0  0
  111.7690  -77.6952  -85.5215 C   0  0  1  0  0  0  0  0  0  0  0  0
  112.3592  -78.9914  -85.8550 C   0  0  0  0  0  0  0  0  0  0  0  0
  112.1909  -79.3756  -87.2326 C   0  0  2  0  0  0  0  0  0  0  0  0
  111.5227  -78.5585  -88.1777 C   0  0  0  0  0  0  0  0  0  0  0  0
  110.9504  -77.2856  -87.7804 C   0  0  0  0  0  0  0  0  0  0  0  0
  111.0944  -76.8870  -86.4017 C   0  0  2  0  0  0  0  0  0  0  0  0
  110.4569  -75.5583  -86.0699 C   0  0  1  0  0  0  0  0  0  0  0  0
  110.7356  -75.3663  -84.7047 C   0  0  2  0  0  0  0  0  0  0  0  0
  110.1935  -74.1048  -84.1953 C   0  0  0  0  0  0  0  0  0  0  0  0
  110.4562  -73.8467  -82.8144 C   0  0  0  0  0  0  0  0  0  0  0  0
  109.7806  -74.7926  -87.0007 C   0  0  0  0  0  0  0  0  0  0  0  0
  108.6876  -75.2296  -87.7848 C   0  0  0  0  0  0  0  0  0  0  0  0
  107.9821  -74.4654  -88.7160 C   0  0  0  0  0  0  0  0  0  0  0  0
  108.3608  -73.0788  -88.9434 C   0  0  0  0  0  0  0  0  0  0  0  0
  109.4637  -72.6762  -88.1525 C   0  0  0  0  0  0  0  0  0  0  0  0
  110.2017  -73.4079  -87.2118 C   0  0  0  0  0  0  0  0  0  0  0  0
  112.0227  -75.2091  -79.7166 C   0  0  0  0  0  0  0  0  0  0  0  0
  110.9216  -73.0711  -80.0557 C   0  0  0  0  0  0  0  0  0  0  0  0
  113.2643  -81.7057  -86.6438 C   0  0  0  0  0  0  0  0  0  0  0  0
  112.8300  -81.0323  -88.9724 C   0  0  0  0  0  0  0  0  0  0  0  0
  1  2  1  1  0  0  0
  1  3  1  0  0  0  0
  1 16  1  0  0  0  0
  2 23  1  0  0  0  0
  2 24  1  0  0  0  0
  4 25  1  0  0  0  0
  4 26  1  0  0  0  0
  5  6  1  0  0  0  0
  6  3  1  6  0  0  0
  6 14  1  0  0  0  0
  7  5  1  1  0  0  0
  7  8  1  0  0  0  0
  7 12  1  0  0  0  0
  8  9  1  0  0  0  0
  9  4  1  1  0  0  0
  9 10  1  0  0  0  0
 10 11  1  0  0  0  0
 12 11  1  6  0  0  0
 12 13  1  0  0  0  0
 13 14  1  0  0  0  0
 13 17  1  6  0  0  0
 14 15  1  6  0  0  0
 15 16  1  0  0  0  0
 17 18  1  0  0  0  0
 17 22  1  0  0  0  0
 18 19  1  0  0  0  0
 19 20  1  0  0  0  0
 20 21  1  0  0  0  0
 21 22  1  0  0  0  0
M  END
>  <CHROM.1>
-2.86843840,10.94766000,55.71785275,111.05753873,-76.30599999,-85.39997117
-1.84567117,1.03647231,-2.07224657

>  <Name>
ligand

>  <RI>
0

>  <Rbt.Current_Directory>
/home/itssahil/PROJECTS/Mol_Feturizer/Test_systems_manuscript/rnas/1f1t

>  <Rbt.Executable>
rbdock ($Id: //depot/dev/client3/rdock/2013.1/src/exe/rbdock.cxx#4 $)

>  <Rbt.Library>
libRbt.so (2013.1, Build901 2013/11/27)

>  <Rbt.Parameter_File>
/export/apps/rDock/src/rDock_2013.1_src/data/scripts/dock_solv.prm

>  <Rbt.Receptor>
prm/pocket_docking_5.prm

>  <SCORE>
-56.2043

>  <SCORE.INTER>
-56.2469

>  <SCORE.INTER.CONST>
1

>  <SCORE.INTER.POLAR>
0

>  <SCORE.INTER.ROT>
3

>  <SCORE.INTER.SOLV>
8.90742

>  <SCORE.INTER.VDW>
-46.0671

>  <SCORE.INTER.norm>
-2.16334

>  <SCORE.INTRA>
0.04259

>  <SCORE.INTRA.DIHEDRAL>
0.000241261

>  <SCORE.INTRA.DIHEDRAL.0>
3.60016

>  <SCORE.INTRA.POLAR>
0

>  <SCORE.INTRA.POLAR.0>
0

>  <SCORE.INTRA.REPUL>
0

>  <SCORE.INTRA.REPUL.0>
0

>  <SCORE.INTRA.SOLV>
3.86422e-05

>  <SCORE.INTRA.SOLV.lig_0>
-10.9882

>  <SCORE.INTRA.VDW>
0.04245

>  <SCORE.INTRA.VDW.0>
1.84442

>  <SCORE.INTRA.norm>
0.00163808

>  <SCORE.RESTR>
0

>  <SCORE.RESTR.CAVITY>
0

>  <SCORE.RESTR.norm>
0

>  <SCORE.SYSTEM>
0

>  <SCORE.SYSTEM.CONST>
0

>  <SCORE.SYSTEM.DIHEDRAL>
0

>  <SCORE.SYSTEM.SOLV>
0

>  <SCORE.SYSTEM.norm>
0

>  <SCORE.heavy>
26

>  <SCORE.norm>
-2.1617

>  <RMSD>
0.694

$$$$
ligand
 OpenBabel02271912153D
libRbt.so/2013.1/901 2013/11/27
 26 29  0  0  0  0  0  0  0  0999 V2000
  112.2313  -79.4299  -87.0975 C   0  0  1  0  0  0  0  0  0  0  0  0
  112.7338  -80.6600  -87.4968 N   0  0  0  0  0  0  0  0  0  0  0  0
  112.3570  -79.0075  -85.7103 C   0  0  0  0  0  0  0  0  0  0  0  0
  111.3489  -74.4059  -80.6153 N   0  0  0  0  0  0  0  0  0  0  0  0
  111.9553  -77.3683  -84.0366 O   0  0  0  0  0  0  0  0  0  0  0  0
  111.8006  -77.7501  -85.4683 C   0  0  2  0  0  0  0  0  0  0  0  0
  111.4350  -76.2232  -83.8225 C   0  0  1  0  0  0  0  0  0  0  0  0
  111.6469  -75.9363  -82.4039 C   0  0  0  0  0  0  0  0  0  0  0  0
  111.1102  -74.6709  -81.9747 C   0  0  2  0  0  0  0  0  0  0  0  0
  110.4271  -73.7932  -82.8525 C   0  0  0  0  0  0  0  0  0  0  0  0
  110.2579  -74.1329  -84.2531 C   0  0  0  0  0  0  0  0  0  0  0  0
  110.8005  -75.3893  -84.7085 C   0  0  2  0  0  0  0  0  0  0  0  0
  110.5946  -75.6570  -86.1810 C   0  0  1  0  0  0  0  0  0  0  0  0
  111.1733  -76.9214  -86.3921 C   0  0  2  0  0  0  0  0  0  0  0  0
  111.0631  -77.3614  -87.7847 C   0  0  0  0  0  0  0  0  0  0  0  0
  111.6224  -78.6475  -88.0593 C   0  0  0  0  0  0  0  0  0  0  0  0
  109.9542  -74.7711  -87.0266 C   0  0  0  0  0  0  0  0  0  0  0  0
  110.2902  -73.4075  -87.1941 C   0  0  0  0  0  0  0  0  0  0  0  0
  109.6662  -72.5035  -88.0556 C   0  0  0  0  0  0  0  0  0  0  0  0
  108.5588  -72.9500  -88.8876 C   0  0  0  0  0  0  0  0  0  0  0  0
  108.2405  -74.3149  -88.6882 C   0  0  0  0  0  0  0  0  0  0  0  0
  108.8350  -75.2545  -87.8347 C   0  0  0  0  0  0  0  0  0  0  0  0
  113.2770  -81.6236  -86.5435 C   0  0  0  0  0  0  0  0  0  0  0  0
  112.7911  -81.1769  -88.8808 C   0  0  0  0  0  0  0  0  0  0  0  0
  111.9993  -75.2100  -79.5567 C   0  0  0  0  0  0  0  0  0  0  0  0
  110.8997  -73.0706  -80.0840 C   0  0  0  0  0  0  0  0  0  0  0  0
  1  2  1  6  0  0  0
  1  3  1  0  0  0  0
  1 16  1  0  0  0  0
  2 23  1  0  0  0  0
  2 24  1  0  0  0  0
  4 25  1  0  0  0  0
  4 26  1  0  0  0  0
  5  6  1  0  0  0  0
  6  3  1  1  0  0  0
  6 14  1  0  0  0  0
  7  5  1  6  0  0  0
  7  8  1  0  0  0  0
  7 12  1  0  0  0  0
  8  9  1  0  0  0  0
  9  4  1  6  0  0  0
  9 10  1  0  0  0  0
 10 11  1  0  0  0  0
 12 11  1  1  0  0  0
 12 13  1  0  0  0  0
 13 14  1  0  0  0  0
 13 17  1  1  0  0  0
 14 15  1  1  0  0  0
 15 16  1  0  0  0  0
 17 18  1  0  0  0  0
 17 22  1  0  0  0  0
 18 19  1  0  0  0  0
 19 20  1  0  0  0  0
 20 21  1  0  0  0  0
 21 22  1  0  0  0  0
M  END
>  <CHROM.1>
6.22252044,-2.63556586,53.62135629,111.10782914,-76.30298502,-85.35172885
-1.26726197,-1.07038972,1.08892134

>  <Name>
ligand

>  <RI>
0

>  <Rbt.Current_Directory>
/home/itssahil/PROJECTS/Mol_Feturizer/Test_systems_manuscript/rnas/1f1t

>  <Rbt.Executable>
rbdock ($Id: //depot/dev/client3/rdock/2013.1/src/exe/rbdock.cxx#4 $)

>  <Rbt.Library>
libRbt.so (2013.1, Build901 2013/11/27)

>  <Rbt.Parameter_File>
/export/apps/rDock/src/rDock_2013.1_src/data/scripts/dock_solv.prm

>  <Rbt.Receptor>
prm/pocket_docking_7.prm

>  <SCORE>
-56.4203

>  <SCORE.INTER>
-56.573

>  <SCORE.INTER.CONST>
1

>  <SCORE.INTER.POLAR>
0

>  <SCORE.INTER.ROT>
3

>  <SCORE.INTER.SOLV>
8.97998

>  <SCORE.INTER.VDW>
-46.3087

>  <SCORE.INTER.norm>
-2.17588

>  <SCORE.INTRA>
0.152738

>  <SCORE.INTRA.DIHEDRAL>
0.00028018

>  <SCORE.INTRA.DIHEDRAL.0>
3.60016

>  <SCORE.INTRA.POLAR>
0

>  <SCORE.INTRA.POLAR.0>
0

>  <SCORE.INTRA.REPUL>
0

>  <SCORE.INTRA.REPUL.0>
0

>  <SCORE.INTRA.SOLV>
1.34891e-05

>  <SCORE.INTRA.SOLV.lig_0>
-10.9882

>  <SCORE.INTRA.VDW>
0.152591

>  <SCORE.INTRA.VDW.0>
1.84442

>  <SCORE.INTRA.norm>
0.00587454

>  <SCORE.RESTR>
0

>  <SCORE.RESTR.CAVITY>
0

>  <SCORE.RESTR.norm>
0

>  <SCORE.SYSTEM>
0

>  <SCORE.SYSTEM.CONST>
0

>  <SCORE.SYSTEM.DIHEDRAL>
0

>  <SCORE.SYSTEM.SOLV>
0

>  <SCORE.SYSTEM.norm>
0

>  <SCORE.heavy>
26

>  <SCORE.norm>
-2.17001

>  <RMSD>
0.694

$$$$
ligand
 OpenBabel02271912153D
libRbt.so/2013.1/901 2013/11/27
 26 29  0  0  0  0  0  0  0  0999 V2000
  111.1664  -74.7226  -81.9930 C   0  0  1  0  0  0  0  0  0  0  0  0
  111.3478  -74.3584  -80.6665 N   0  0  0  0  0  0  0  0  0  0  0  0
  111.7023  -75.9845  -82.4816 C   0  0  0  0  0  0  0  0  0  0  0  0
  112.7404  -80.6291  -87.5314 N   0  0  0  0  0  0  0  0  0  0  0  0
  112.0094  -77.5055  -84.2821 O   0  0  0  0  0  0  0  0  0  0  0  0
  111.4391  -76.2038  -83.8351 C   0  0  2  0  0  0  0  0  0  0  0  0
  111.7733  -77.6926  -85.5219 C   0  0  1  0  0  0  0  0  0  0  0  0
  112.3583  -78.9904  -85.8584 C   0  0  0  0  0  0  0  0  0  0  0  0
  112.1939  -79.3679  -87.2383 C   0  0  2  0  0  0  0  0  0  0  0  0
  111.5339  -78.5433  -88.1828 C   0  0  0  0  0  0  0  0  0  0  0  0
  110.9666  -77.2692  -87.7825 C   0  0  0  0  0  0  0  0  0  0  0  0
  111.1067  -76.8772  -86.4015 C   0  0  2  0  0  0  0  0  0  0  0  0
  110.4746  -75.5466  -86.0669 C   0  0  1  0  0  0  0  0  0  0  0  0
  110.7484  -75.3619  -84.6997 C   0  0  2  0  0  0  0  0  0  0  0  0
  110.2107  -74.0997  -84.1872 C   0  0  0  0  0  0  0  0  0  0  0  0
  110.4688  -73.8488  -82.8041 C   0  0  0  0  0  0  0  0  0  0  0  0
  109.8062  -74.7735  -86.9972 C   0  0  0  0  0  0  0  0  0  0  0  0
  108.7462  -75.2158  -87.8226 C   0  0  0  0  0  0  0  0  0  0  0  0
  108.0487  -74.4449  -88.7543 C   0  0  0  0  0  0  0  0  0  0  0  0
  108.4002  -73.0445  -88.9365 C   0  0  0  0  0  0  0  0  0  0  0  0
  109.4707  -72.6366  -88.1049 C   0  0  0  0  0  0  0  0  0  0  0  0
  110.1997  -73.3745  -87.1621 C   0  0  0  0  0  0  0  0  0  0  0  0
  112.0172  -75.2312  -79.7061 C   0  0  0  0  0  0  0  0  0  0  0  0
  110.9241  -73.0883  -80.0396 C   0  0  0  0  0  0  0  0  0  0  0  0
  112.9551  -81.3328  -88.8155 C   0  0  0  0  0  0  0  0  0  0  0  0
  113.2300  -81.4547  -86.3714 C   0  0  0  0  0  0  0  0  0  0  0  0
  1  2  1  1  0  0  0
  1  3  1  0  0  0  0
  1 16  1  0  0  0  0
  2 23  1  0  0  0  0
  2 24  1  0  0  0  0
  4 25  1  0  0  0  0
  4 26  1  0  0  0  0
  5  6  1  0  0  0  0
  6  3  1  6  0  0  0
  6 14  1  0  0  0  0
  7  5  1  1  0  0  0
  7  8  1  0  0  0  0
  7 12  1  0  0  0  0
  8  9  1  0  0  0  0
  9  4  1  1  0  0  0
  9 10  1  0  0  0  0
 10 11  1  0  0  0  0
 12 11  1  6  0  0  0
 12 13  1  0  0  0  0
 13 14  1  0  0  0  0
 13 17  1  6  0  0  0
 14 15  1  6  0  0  0
 15 16  1  0  0  0  0
 17 18  1  0  0  0  0
 17 22  1  0  0  0  0
 18 19  1  0  0  0  0
 19 20  1  0  0  0  0
 20 21  1  0  0  0  0
 21 22  1  0  0  0  0
M  END
>  <CHROM.1>
-2.74789367,-171.16757886,53.26739255,111.07269715,-76.30297932,-85.37689736
-1.85842089,1.04271832,-2.06861075

>  <Name>
ligand

>  <RI>
0

>  <Rbt.Current_Directory>
/home/itssahil/PROJECTS/Mol_Feturizer/Test_systems_manuscript/rnas/1f1t

>  <Rbt.Executable>
rbdock ($Id: //depot/dev/client3/rdock/2013.1/src/exe/rbdock.cxx#4 $)

>  <Rbt.Library>
libRbt.so (2013.1, Build901 2013/11/27)

>  <Rbt.Parameter_File>
/export/apps/rDock/src/rDock_2013.1_src/data/scripts/dock_solv.prm

>  <Rbt.Receptor>
prm/pocket_docking_7.prm

>  <SCORE>
-53.6879

>  <SCORE.INTER>
-56.1311

>  <SCORE.INTER.CONST>
1

>  <SCORE.INTER.POLAR>
0

>  <SCORE.INTER.ROT>
3

>  <SCORE.INTER.SOLV>
8.96801

>  <SCORE.INTER.VDW>
-46.0101

>  <SCORE.INTER.norm>
-2.15889

>  <SCORE.INTRA>
2.44319

>  <SCORE.INTRA.DIHEDRAL>
-0.000287814

>  <SCORE.INTRA.DIHEDRAL.0>
3.60016

>  <SCORE.INTRA.POLAR>
0

>  <SCORE.INTRA.POLAR.0>
0

>  <SCORE.INTRA.REPUL>
0

>  <SCORE.INTRA.REPUL.0>
0

>  <SCORE.INTRA.SOLV>
-0.000981882

>  <SCORE.INTRA.SOLV.lig_0>
-10.9882

>  <SCORE.INTRA.VDW>
2.44382

>  <SCORE.INTRA.VDW.0>
1.84442

>  <SCORE.INTRA.norm>
0.0939687

>  <SCORE.RESTR>
0

>  <SCORE.RESTR.CAVITY>
0

>  <SCORE.RESTR.norm>
0

>  <SCORE.SYSTEM>
0

>  <SCORE.SYSTEM.CONST>
0

>  <SCORE.SYSTEM.DIHEDRAL>
0

>  <SCORE.SYSTEM.SOLV>
0

>  <SCORE.SYSTEM.norm>
0

>  <SCORE.heavy>
26

>  <SCORE.norm>
-2.06492

>  <RMSD>
0.694

$$$$
ligand
 OpenBabel02271912153D
libRbt.so/2013.1/901 2013/11/27
 26 29  0  0  0  0  0  0  0  0999 V2000
  112.2467  -79.4345  -87.0964 C   0  0  1  0  0  0  0  0  0  0  0  0
  112.7499  -80.6636  -87.4981 N   0  0  0  0  0  0  0  0  0  0  0  0
  112.3668  -79.0174  -85.7072 C   0  0  0  0  0  0  0  0  0  0  0  0
  111.3406  -74.4337  -80.5996 N   0  0  0  0  0  0  0  0  0  0  0  0
  111.9593  -77.3840  -84.0291 O   0  0  0  0  0  0  0  0  0  0  0  0
  111.8104  -77.7603  -85.4629 C   0  0  2  0  0  0  0  0  0  0  0  0
  111.4390  -76.2392  -83.8131 C   0  0  1  0  0  0  0  0  0  0  0  0
  111.6451  -75.9578  -82.3925 C   0  0  0  0  0  0  0  0  0  0  0  0
  111.1075  -74.6935  -81.9609 C   0  0  2  0  0  0  0  0  0  0  0  0
  110.4289  -73.8120  -82.8384 C   0  0  0  0  0  0  0  0  0  0  0  0
  110.2654  -74.1464  -84.2410 C   0  0  0  0  0  0  0  0  0  0  0  0
  110.8089  -75.4016  -84.6987 C   0  0  2  0  0  0  0  0  0  0  0  0
  110.6092  -75.6637  -86.1730 C   0  0  1  0  0  0  0  0  0  0  0  0
  111.1877  -76.9278  -86.3863 C   0  0  2  0  0  0  0  0  0  0  0  0
  111.0831  -77.3625  -87.7809 C   0  0  0  0  0  0  0  0  0  0  0  0
  111.6425  -78.6481  -88.0579 C   0  0  0  0  0  0  0  0  0  0  0  0
  109.9731  -74.7741  -87.0180 C   0  0  0  0  0  0  0  0  0  0  0  0
  110.2459  -73.3893  -87.1082 C   0  0  0  0  0  0  0  0  0  0  0  0
  109.6261  -72.4802  -87.9674 C   0  0  0  0  0  0  0  0  0  0  0  0
  108.5939  -72.9440  -88.8823 C   0  0  0  0  0  0  0  0  0  0  0  0
  108.3369  -74.3307  -88.7594 C   0  0  0  0  0  0  0  0  0  0  0  0
  108.9296  -75.2765  -87.9114 C   0  0  0  0  0  0  0  0  0  0  0  0
  113.3060  -81.6232  -86.5482 C   0  0  0  0  0  0  0  0  0  0  0  0
  112.7957  -81.1831  -88.8815 C   0  0  0  0  0  0  0  0  0  0  0  0
  111.9654  -75.2514  -79.5359 C   0  0  0  0  0  0  0  0  0  0  0  0
  110.9153  -73.0893  -80.0716 C   0  0  0  0  0  0  0  0  0  0  0  0
  1  2  1  6  0  0  0
  1  3  1  0  0  0  0
  1 16  1  0  0  0  0
  2 23  1  0  0  0  0
  2 24  1  0  0  0  0
  4 25  1  0  0  0  0
  4 26  1  0  0  0  0
  5  6  1  0  0  0  0
  6  3  1  1  0  0  0
  6 14  1  0  0  0  0
  7  5  1  6  0  0  0
  7  8  1  0  0  0  0
  7 12  1  0  0  0  0
  8  9  1  0  0  0  0
  9  4  1  6  0  0  0
  9 10  1  0  0  0  0
 10 11  1  0  0  0  0
 12 11  1  1  0  0  0
 12 13  1  0  0  0  0
 13 14  1  0  0  0  0
 13 17  1  1  0  0  0
 14 15  1  1  0  0  0
 15 16  1  0  0  0  0
 17 18  1  0  0  0  0
 17 22  1  0  0  0  0
 18 19  1  0  0  0  0
 19 20  1  0  0  0  0
 20 21  1  0  0  0  0
 21 22  1  0  0  0  0
M  END
>  <CHROM.1>
5.31843651,-3.83156385,48.72613642,111.11922722,-76.31301571,-85.34447356
-1.26154706,-1.07370079,1.09792221

>  <Name>
ligand

>  <RI>
0

>  <Rbt.Current_Directory>
/home/itssahil/PROJECTS/Mol_Feturizer/Test_systems_manuscript/rnas/1f1t

>  <Rbt.Executable>
rbdock ($Id: //depot/dev/client3/rdock/2013.1/src/exe/rbdock.cxx#4 $)

>  <Rbt.Library>
libRbt.so (2013.1, Build901 2013/11/27)

>  <Rbt.Parameter_File>
/export/apps/rDock/src/rDock_2013.1_src/data/scripts/dock_solv.prm

>  <Rbt.Receptor>
prm/pocket_docking_6.prm

>  <SCORE>
-56.283

>  <SCORE.INTER>
-56.5724

>  <SCORE.INTER.CONST>
1

>  <SCORE.INTER.POLAR>
0

>  <SCORE.INTER.ROT>
3

>  <SCORE.INTER.SOLV>
9.01286

>  <SCORE.INTER.VDW>
-46.3192

>  <SCORE.INTER.norm>
-2.17586

>  <SCORE.INTRA>
0.289467

>  <SCORE.INTRA.DIHEDRAL>
0.000258595

>  <SCORE.INTRA.DIHEDRAL.0>
3.60016

>  <SCORE.INTRA.POLAR>
0

>  <SCORE.INTRA.POLAR.0>
0

>  <SCORE.INTRA.REPUL>
0

>  <SCORE.INTRA.REPUL.0>
0

>  <SCORE.INTRA.SOLV>
9.72937e-06

>  <SCORE.INTRA.SOLV.lig_0>
-10.9882

>  <SCORE.INTRA.VDW>
0.289333

>  <SCORE.INTRA.VDW.0>
1.84442

>  <SCORE.INTRA.norm>
0.0111334

>  <SCORE.RESTR>
0

>  <SCORE.RESTR.CAVITY>
0

>  <SCORE.RESTR.norm>
0

>  <SCORE.SYSTEM>
0

>  <SCORE.SYSTEM.CONST>
0

>  <SCORE.SYSTEM.DIHEDRAL>
0

>  <SCORE.SYSTEM.SOLV>
0

>  <SCORE.SYSTEM.norm>
0

>  <SCORE.heavy>
26

>  <SCORE.norm>
-2.16473

>  <RMSD>
0.695

$$$$
ligand
 OpenBabel02271912153D
libRbt.so/2013.1/901 2013/11/27
 26 29  0  0  0  0  0  0  0  0999 V2000
  111.2201  -74.7506  -82.0117 C   0  0  1  0  0  0  0  0  0  0  0  0
  111.4077  -74.3838  -80.6868 N   0  0  0  0  0  0  0  0  0  0  0  0
  111.7516  -76.0147  -82.4996 C   0  0  0  0  0  0  0  0  0  0  0  0
  112.7597  -80.6726  -87.5432 N   0  0  0  0  0  0  0  0  0  0  0  0
  112.0483  -77.5403  -84.2980 O   0  0  0  0  0  0  0  0  0  0  0  0
  111.4823  -76.2365  -83.8515 C   0  0  2  0  0  0  0  0  0  0  0  0
  111.8067  -77.7297  -85.5364 C   0  0  1  0  0  0  0  0  0  0  0  0
  112.3877  -79.0294  -85.8724 C   0  0  0  0  0  0  0  0  0  0  0  0
  112.2169  -79.4097  -87.2507 C   0  0  2  0  0  0  0  0  0  0  0  0
  111.5546  -78.5860  -88.1944 C   0  0  0  0  0  0  0  0  0  0  0  0
  110.9914  -77.3098  -87.7946 C   0  0  0  0  0  0  0  0  0  0  0  0
  111.1380  -76.9150  -86.4151 C   0  0  2  0  0  0  0  0  0  0  0  0
  110.5099  -75.5824  -86.0808 C   0  0  1  0  0  0  0  0  0  0  0  0
  110.7897  -75.3951  -84.7152 C   0  0  2  0  0  0  0  0  0  0  0  0
  110.2566  -74.1307  -84.2034 C   0  0  0  0  0  0  0  0  0  0  0  0
  110.5209  -73.8773  -82.8219 C   0  0  0  0  0  0  0  0  0  0  0  0
  109.8392  -74.8101  -87.0101 C   0  0  0  0  0  0  0  0  0  0  0  0
  108.7926  -75.2593  -87.8488 C   0  0  0  0  0  0  0  0  0  0  0  0
  108.0929  -74.4895  -88.7798 C   0  0  0  0  0  0  0  0  0  0  0  0
  108.4267  -73.0829  -88.9464 C   0  0  0  0  0  0  0  0  0  0  0  0
  109.4843  -72.6680  -88.1017 C   0  0  0  0  0  0  0  0  0  0  0  0
  110.2150  -73.4044  -87.1591 C   0  0  0  0  0  0  0  0  0  0  0  0
  112.0483  -75.2699  -79.7189 C   0  0  0  0  0  0  0  0  0  0  0  0
  111.0191  -73.0981  -80.0690 C   0  0  0  0  0  0  0  0  0  0  0  0
  113.2973  -81.7379  -86.6678 C   0  0  0  0  0  0  0  0  0  0  0  0
  112.8159  -81.0802  -88.9916 C   0  0  0  0  0  0  0  0  0  0  0  0
  1  2  1  1  0  0  0
  1  3  1  0  0  0  0
  1 16  1  0  0  0  0
  2 23  1  0  0  0  0
  2 24  1  0  0  0  0
  4 25  1  0  0  0  0
  4 26  1  0  0  0  0
  5  6  1  0  0  0  0
  6  3  1  6  0  0  0
  6 14  1  0  0  0  0
  7  5  1  1  0  0  0
  7  8  1  0  0  0  0
  7 12  1  0  0  0  0
  8  9  1  0  0  0  0
  9  4  1  1  0  0  0
  9 10  1  0  0  0  0
 10 11  1  0  0  0  0
 12 11  1  6  0  0  0
 12 13  1  0  0  0  0
 13 14  1  0  0  0  0
 13 17  1  6  0  0  0
 14 15  1  6  0  0  0
 15 16  1  0  0  0  0
 17 18  1  0  0  0  0
 17 22  1  0  0  0  0
 18 19  1  0  0  0  0
 19 20  1  0  0  0  0
 20 21  1  0  0  0  0
 21 22  1  0  0  0  0
M  END
>  <CHROM.1>
-4.37630842,9.60443023,51.94125813,111.10428425,-76.33581263,-85.41181400
-1.83801603,1.04283818,-2.07746792

>  <Name>
ligand

>  <RI>
0

>  <Rbt.Current_Directory>
/home/itssahil/PROJECTS/Mol_Feturizer/Test_systems_manuscript/rnas/1f1t

>  <Rbt.Executable>
rbdock ($Id: //depot/dev/client3/rdock/2013.1/src/exe/rbdock.cxx#4 $)

>  <Rbt.Library>
libRbt.so (2013.1, Build901 2013/11/27)

>  <Rbt.Parameter_File>
/export/apps/rDock/src/rDock_2013.1_src/data/scripts/dock_solv.prm

>  <Rbt.Receptor>
prm/pocket_docking_8.prm

>  <SCORE>
-56.1702

>  <SCORE.INTER>
-56.3096

>  <SCORE.INTER.CONST>
1

>  <SCORE.INTER.POLAR>
0

>  <SCORE.INTER.ROT>
3

>  <SCORE.INTER.SOLV>
8.92092

>  <SCORE.INTER.VDW>
-46.1133

>  <SCORE.INTER.norm>
-2.16575

>  <SCORE.INTRA>
0.139395

>  <SCORE.INTRA.DIHEDRAL>
0.000241884

>  <SCORE.INTRA.DIHEDRAL.0>
3.60016

>  <SCORE.INTRA.POLAR>
0

>  <SCORE.INTRA.POLAR.0>
0

>  <SCORE.INTRA.REPUL>
0

>  <SCORE.INTRA.REPUL.0>
0

>  <SCORE.INTRA.SOLV>
3.68192e-05

>  <SCORE.INTRA.SOLV.lig_0>
-10.9882

>  <SCORE.INTRA.VDW>
0.139256

>  <SCORE.INTRA.VDW.0>
1.84442

>  <SCORE.INTRA.norm>
0.00536135

>  <SCORE.RESTR>
0

>  <SCORE.RESTR.CAVITY>
0

>  <SCORE.RESTR.norm>
0

>  <SCORE.SYSTEM>
0

>  <SCORE.SYSTEM.CONST>
0

>  <SCORE.SYSTEM.DIHEDRAL>
0

>  <SCORE.SYSTEM.SOLV>
0

>  <SCORE.SYSTEM.norm>
0

>  <SCORE.heavy>
26

>  <SCORE.norm>
-2.16039

>  <RMSD>
0.695

$$$$
ligand
 OpenBabel02271912153D
libRbt.so/2013.1/901 2013/11/27
 26 29  0  0  0  0  0  0  0  0999 V2000
  111.2522  -74.6109  -81.8409 C   0  0  1  0  0  0  0  0  0  0  0  0
  111.4270  -74.2626  -80.5093 N   0  0  0  0  0  0  0  0  0  0  0  0
  111.7472  -75.8892  -82.3302 C   0  0  0  0  0  0  0  0  0  0  0  0
  112.6850  -80.5372  -87.3965 N   0  0  0  0  0  0  0  0  0  0  0  0
  112.0237  -77.4091  -84.1366 O   0  0  0  0  0  0  0  0  0  0  0  0
  111.4966  -76.0895  -83.6890 C   0  0  2  0  0  0  0  0  0  0  0  0
  111.7997  -77.5790  -85.3811 C   0  0  1  0  0  0  0  0  0  0  0  0
  112.3399  -78.8959  -85.7180 C   0  0  0  0  0  0  0  0  0  0  0  0
  112.1825  -79.2580  -87.1028 C   0  0  2  0  0  0  0  0  0  0  0  0
  111.5689  -78.4027  -88.0513 C   0  0  0  0  0  0  0  0  0  0  0  0
  111.0444  -77.1105  -87.6506 C   0  0  0  0  0  0  0  0  0  0  0  0
  111.1781  -76.7331  -86.2649 C   0  0  2  0  0  0  0  0  0  0  0  0
  110.5921  -75.3815  -85.9304 C   0  0  1  0  0  0  0  0  0  0  0  0
  110.8517  -75.2162  -84.5580 C   0  0  2  0  0  0  0  0  0  0  0  0
  110.3546  -73.9378  -84.0448 C   0  0  0  0  0  0  0  0  0  0  0  0
  110.6008  -73.7059  -82.6563 C   0  0  0  0  0  0  0  0  0  0  0  0
  109.9679  -74.5775  -86.8652 C   0  0  0  0  0  0  0  0  0  0  0  0
  110.2842  -73.2238  -87.1258 C   0  0  0  0  0  0  0  0  0  0  0  0
  109.6766  -72.4026  -88.0773 C   0  0  0  0  0  0  0  0  0  0  0  0
  108.6105  -72.9358  -88.9120 C   0  0  0  0  0  0  0  0  0  0  0  0
  108.3105  -74.2879  -88.6189 C   0  0  0  0  0  0  0  0  0  0  0  0
  108.8896  -75.1459  -87.6737 C   0  0  0  0  0  0  0  0  0  0  0  0
  112.0607  -75.1609  -79.5482 C   0  0  0  0  0  0  0  0  0  0  0  0
  111.0300  -72.9865  -79.8769 C   0  0  0  0  0  0  0  0  0  0  0  0
  113.2840  -81.5797  -86.5336 C   0  0  0  0  0  0  0  0  0  0  0  0
  112.6132  -80.9938  -88.8295 C   0  0  0  0  0  0  0  0  0  0  0  0
  1  2  1  1  0  0  0
  1  3  1  0  0  0  0
  1 16  1  0  0  0  0
  2 23  1  0  0  0  0
  2 24  1  0  0  0  0
  4 25  1  0  0  0  0
  4 26  1  0  0  0  0
  5  6  1  0  0  0  0
  6  3  1  6  0  0  0
  6 14  1  0  0  0  0
  7  5  1  1  0  0  0
  7  8  1  0  0  0  0
  7 12  1  0  0  0  0
  8  9  1  0  0  0  0
  9  4  1  1  0  0  0
  9 10  1  0  0  0  0
 10 11  1  0  0  0  0
 12 11  1  6  0  0  0
 12 13  1  0  0  0  0
 13 14  1  0  0  0  0
 13 17  1  6  0  0  0
 14 15  1  6  0  0  0
 15 16  1  0  0  0  0
 17 18  1  0  0  0  0
 17 22  1  0  0  0  0
 18 19  1  0  0  0  0
 19 20  1  0  0  0  0
 20 21  1  0  0  0  0
 21 22  1  0  0  0  0
M  END
>  <CHROM.1>
-2.08602953,2.98098275,-127.13293835,111.13799547,-76.17848027,-85.26651741
-1.81567151,1.07747944,-2.07535085

>  <Name>
ligand

>  <RI>
0

>  <Rbt.Current_Directory>
/home/itssahil/PROJECTS/Mol_Feturizer/Test_systems_manuscript/rnas/1f1t

>  <Rbt.Executable>
rbdock ($Id: //depot/dev/client3/rdock/2013.1/src/exe/rbdock.cxx#4 $)

>  <Rbt.Library>
libRbt.so (2013.1, Build901 2013/11/27)

>  <Rbt.Parameter_File>
/export/apps/rDock/src/rDock_2013.1_src/data/scripts/dock_solv.prm

>  <Rbt.Receptor>
prm/pocket_docking_7.prm

>  <SCORE>
-56.4032

>  <SCORE.INTER>
-56.6886

>  <SCORE.INTER.CONST>
1

>  <SCORE.INTER.POLAR>
0

>  <SCORE.INTER.ROT>
3

>  <SCORE.INTER.SOLV>
9.18947

>  <SCORE.INTER.VDW>
-46.4556

>  <SCORE.INTER.norm>
-2.18033

>  <SCORE.INTRA>
0.285483

>  <SCORE.INTRA.DIHEDRAL>
-7.47184e-06

>  <SCORE.INTRA.DIHEDRAL.0>
3.60016

>  <SCORE.INTRA.POLAR>
0

>  <SCORE.INTRA.POLAR.0>
0

>  <SCORE.INTRA.REPUL>
0

>  <SCORE.INTRA.REPUL.0>
0

>  <SCORE.INTRA.SOLV>
5.43153e-06

>  <SCORE.INTRA.SOLV.lig_0>
-10.9882

>  <SCORE.INTRA.VDW>
0.285484

>  <SCORE.INTRA.VDW.0>
1.84442

>  <SCORE.INTRA.norm>
0.0109801

>  <SCORE.RESTR>
0

>  <SCORE.RESTR.CAVITY>
0

>  <SCORE.RESTR.norm>
0

>  <SCORE.SYSTEM>
0

>  <SCORE.SYSTEM.CONST>
0

>  <SCORE.SYSTEM.DIHEDRAL>
0

>  <SCORE.SYSTEM.SOLV>
0

>  <SCORE.SYSTEM.norm>
0

>  <SCORE.heavy>
26

>  <SCORE.norm>
-2.16935

>  <RMSD>
0.697

$$$$
ligand
 OpenBabel02271912153D
libRbt.so/2013.1/901 2013/11/27
 26 29  0  0  0  0  0  0  0  0999 V2000
  112.2443  -79.4547  -87.1041 C   0  0  1  0  0  0  0  0  0  0  0  0
  112.7652  -80.6813  -87.4906 N   0  0  0  0  0  0  0  0  0  0  0  0
  112.3758  -79.0098  -85.7246 C   0  0  0  0  0  0  0  0  0  0  0  0
  111.3338  -74.3528  -80.6870 N   0  0  0  0  0  0  0  0  0  0  0  0
  111.9607  -77.3538  -84.0708 O   0  0  0  0  0  0  0  0  0  0  0  0
  111.7990  -77.7592  -85.4953 C   0  0  2  0  0  0  0  0  0  0  0  0
  111.4217  -76.2152  -83.8682 C   0  0  1  0  0  0  0  0  0  0  0  0
  111.6422  -75.9037  -82.4561 C   0  0  0  0  0  0  0  0  0  0  0  0
  111.0867  -74.6421  -82.0399 C   0  0  2  0  0  0  0  0  0  0  0  0
  110.3793  -73.7898  -82.9235 C   0  0  0  0  0  0  0  0  0  0  0  0
  110.2026  -74.1530  -84.3173 C   0  0  0  0  0  0  0  0  0  0  0  0
  110.7635  -75.4060  -84.7598 C   0  0  2  0  0  0  0  0  0  0  0  0
  110.5483  -75.6989  -86.2261 C   0  0  1  0  0  0  0  0  0  0  0  0
  111.1477  -76.9557  -86.4246 C   0  0  2  0  0  0  0  0  0  0  0  0
  111.0320  -77.4179  -87.8095 C   0  0  0  0  0  0  0  0  0  0  0  0
  111.6119  -78.6977  -88.0710 C   0  0  0  0  0  0  0  0  0  0  0  0
  109.8836  -74.8373  -87.0780 C   0  0  0  0  0  0  0  0  0  0  0  0
  110.1931  -73.4704  -87.2687 C   0  0  0  0  0  0  0  0  0  0  0  0
  109.5444  -72.5906  -88.1369 C   0  0  0  0  0  0  0  0  0  0  0  0
  108.4373  -73.0691  -88.9512 C   0  0  0  0  0  0  0  0  0  0  0  0
  108.1457  -74.4365  -88.7288 C   0  0  0  0  0  0  0  0  0  0  0  0
  108.7655  -75.3525  -87.8677 C   0  0  0  0  0  0  0  0  0  0  0  0
  113.2586  -81.6557  -86.5213 C   0  0  0  0  0  0  0  0  0  0  0  0
  112.8919  -81.1836  -88.8753 C   0  0  0  0  0  0  0  0  0  0  0  0
  111.0164  -73.1659  -79.8619 C   0  0  0  0  0  0  0  0  0  0  0  0
  112.0296  -75.4104  -79.8719 C   0  0  0  0  0  0  0  0  0  0  0  0
  1  2  1  6  0  0  0
  1  3  1  0  0  0  0
  1 16  1  0  0  0  0
  2 23  1  0  0  0  0
  2 24  1  0  0  0  0
  4 25  1  0  0  0  0
  4 26  1  0  0  0  0
  5  6  1  0  0  0  0
  6  3  1  1  0  0  0
  6 14  1  0  0  0  0
  7  5  1  6  0  0  0
  7  8  1  0  0  0  0
  7 12  1  0  0  0  0
  8  9  1  0  0  0  0
  9  4  1  6  0  0  0
  9 10  1  0  0  0  0
 10 11  1  0  0  0  0
 12 11  1  1  0  0  0
 12 13  1  0  0  0  0
 13 14  1  0  0  0  0
 13 17  1  1  0  0  0
 14 15  1  1  0  0  0
 15 16  1  0  0  0  0
 17 18  1  0  0  0  0
 17 22  1  0  0  0  0
 18 19  1  0  0  0  0
 19 20  1  0  0  0  0
 20 21  1  0  0  0  0
 21 22  1  0  0  0  0
M  END
>  <CHROM.1>
10.13563173,176.64145650,53.62547371,111.08879568,-76.34274900,-85.39002119
-1.27620878,-1.05170864,1.07827768

>  <Name>
ligand

>  <RI>
0

>  <Rbt.Current_Directory>
/home/itssahil/PROJECTS/Mol_Feturizer/Test_systems_manuscript/rnas/1f1t

>  <Rbt.Executable>
rbdock ($Id: //depot/dev/client3/rdock/2013.1/src/exe/rbdock.cxx#4 $)

>  <Rbt.Library>
libRbt.so (2013.1, Build901 2013/11/27)

>  <Rbt.Parameter_File>
/export/apps/rDock/src/rDock_2013.1_src/data/scripts/dock_solv.prm

>  <Rbt.Receptor>
prm/pocket_docking_2.prm

>  <SCORE>
-53.897

>  <SCORE.INTER>
-56.3489

>  <SCORE.INTER.CONST>
1

>  <SCORE.INTER.POLAR>
0

>  <SCORE.INTER.ROT>
3

>  <SCORE.INTER.SOLV>
8.93213

>  <SCORE.INTER.VDW>
-46.1433

>  <SCORE.INTER.norm>
-2.16727

>  <SCORE.INTRA>
2.45194

>  <SCORE.INTRA.DIHEDRAL>
-0.000311506

>  <SCORE.INTRA.DIHEDRAL.0>
3.60016

>  <SCORE.INTRA.POLAR>
0

>  <SCORE.INTRA.POLAR.0>
0

>  <SCORE.INTRA.REPUL>
0

>  <SCORE.INTRA.REPUL.0>
0

>  <SCORE.INTRA.SOLV>
-0.000946444

>  <SCORE.INTRA.SOLV.lig_0>
-10.9882

>  <SCORE.INTRA.VDW>
2.45256

>  <SCORE.INTRA.VDW.0>
1.84442

>  <SCORE.INTRA.norm>
0.0943052

>  <SCORE.RESTR>
0

>  <SCORE.RESTR.CAVITY>
0

>  <SCORE.RESTR.norm>
0

>  <SCORE.SYSTEM>
0

>  <SCORE.SYSTEM.CONST>
0

>  <SCORE.SYSTEM.DIHEDRAL>
0

>  <SCORE.SYSTEM.SOLV>
0

>  <SCORE.SYSTEM.norm>
0

>  <SCORE.heavy>
26

>  <SCORE.norm>
-2.07296

>  <RMSD>
0.698

$$$$
ligand
 OpenBabel02271912153D
libRbt.so/2013.1/901 2013/11/27
 26 29  0  0  0  0  0  0  0  0999 V2000
  111.1878  -74.7553  -81.9827 C   0  0  1  0  0  0  0  0  0  0  0  0
  111.3628  -74.4024  -80.6523 N   0  0  0  0  0  0  0  0  0  0  0  0
  111.7115  -76.0208  -82.4754 C   0  0  0  0  0  0  0  0  0  0  0  0
  112.7317  -80.6447  -87.5477 N   0  0  0  0  0  0  0  0  0  0  0  0
  112.0139  -77.5336  -84.2835 O   0  0  0  0  0  0  0  0  0  0  0  0
  111.4568  -76.2276  -83.8324 C   0  0  2  0  0  0  0  0  0  0  0  0
  111.7858  -77.7093  -85.5265 C   0  0  1  0  0  0  0  0  0  0  0  0
  112.3567  -79.0123  -85.8670 C   0  0  0  0  0  0  0  0  0  0  0  0
  112.1991  -79.3785  -87.2507 C   0  0  2  0  0  0  0  0  0  0  0  0
  111.5578  -78.5392  -88.1950 C   0  0  0  0  0  0  0  0  0  0  0  0
  111.0036  -77.2604  -87.7908 C   0  0  0  0  0  0  0  0  0  0  0  0
  111.1372  -76.8795  -86.4061 C   0  0  2  0  0  0  0  0  0  0  0  0
  110.5196  -75.5430  -86.0677 C   0  0  1  0  0  0  0  0  0  0  0  0
  110.7843  -75.3710  -84.6971 C   0  0  2  0  0  0  0  0  0  0  0  0
  110.2586  -74.1054  -84.1805 C   0  0  0  0  0  0  0  0  0  0  0  0
  110.5083  -73.8671  -82.7937 C   0  0  0  0  0  0  0  0  0  0  0  0
  109.8690  -74.7552  -86.9983 C   0  0  0  0  0  0  0  0  0  0  0  0
  110.1617  -73.3992  -87.2740 C   0  0  0  0  0  0  0  0  0  0  0  0
  109.5272  -72.5940  -88.2216 C   0  0  0  0  0  0  0  0  0  0  0  0
  108.4556  -73.1487  -89.0351 C   0  0  0  0  0  0  0  0  0  0  0  0
  108.1798  -74.5027  -88.7271 C   0  0  0  0  0  0  0  0  0  0  0  0
  108.7862  -75.3450  -87.7851 C   0  0  0  0  0  0  0  0  0  0  0  0
  110.8811  -73.1325  -80.1158 C   0  0  0  0  0  0  0  0  0  0  0  0
  112.0232  -75.2150  -79.6087 C   0  0  0  0  0  0  0  0  0  0  0  0
  113.2976  -81.7011  -86.6795 C   0  0  0  0  0  0  0  0  0  0  0  0
  112.7398  -81.0674  -88.9928 C   0  0  0  0  0  0  0  0  0  0  0  0
  1  2  1  1  0  0  0
  1  3  1  0  0  0  0
  1 16  1  0  0  0  0
  2 23  1  0  0  0  0
  2 24  1  0  0  0  0
  4 25  1  0  0  0  0
  4 26  1  0  0  0  0
  5  6  1  0  0  0  0
  6  3  1  6  0  0  0
  6 14  1  0  0  0  0
  7  5  1  1  0  0  0
  7  8  1  0  0  0  0
  7 12  1  0  0  0  0
  8  9  1  0  0  0  0
  9  4  1  1  0  0  0
  9 10  1  0  0  0  0
 10 11  1  0  0  0  0
 12 11  1  6  0  0  0
 12 13  1  0  0  0  0
 13 14  1  0  0  0  0
 13 17  1  6  0  0  0
 14 15  1  6  0  0  0
 15 16  1  0  0  0  0
 17 18  1  0  0  0  0
 17 22  1  0  0  0  0
 18 19  1  0  0  0  0
 19 20  1  0  0  0  0
 20 21  1  0  0  0  0
 21 22  1  0  0  0  0
M  END
>  <CHROM.1>
178.70263531,6.70390586,-126.21060029,111.08765360,-76.32229055,-85.40803391
-1.83363547,1.05263834,-2.06124364

>  <Name>
ligand

>  <RI>
0

>  <Rbt.Current_Directory>
/home/itssahil/PROJECTS/Mol_Feturizer/Test_systems_manuscript/rnas/1f1t

>  <Rbt.Executable>
rbdock ($Id: //depot/dev/client3/rdock/2013.1/src/exe/rbdock.cxx#4 $)

>  <Rbt.Library>
libRbt.so (2013.1, Build901 2013/11/27)

>  <Rbt.Parameter_File>
/export/apps/rDock/src/rDock_2013.1_src/data/scripts/dock_solv.prm

>  <Rbt.Receptor>
prm/pocket_docking_2.prm

>  <SCORE>
-56.0028

>  <SCORE.INTER>
-56.5364

>  <SCORE.INTER.CONST>
1

>  <SCORE.INTER.POLAR>
0

>  <SCORE.INTER.ROT>
3

>  <SCORE.INTER.SOLV>
8.93409

>  <SCORE.INTER.VDW>
-46.269

>  <SCORE.INTER.norm>
-2.17448

>  <SCORE.INTRA>
0.53359

>  <SCORE.INTRA.DIHEDRAL>
-1.08025e-05

>  <SCORE.INTRA.DIHEDRAL.0>
3.60016

>  <SCORE.INTRA.POLAR>
0

>  <SCORE.INTRA.POLAR.0>
0

>  <SCORE.INTRA.REPUL>
0

>  <SCORE.INTRA.REPUL.0>
0

>  <SCORE.INTRA.SOLV>
1.48951e-05

>  <SCORE.INTRA.SOLV.lig_0>
-10.9882

>  <SCORE.INTRA.VDW>
0.533588

>  <SCORE.INTRA.VDW.0>
1.84442

>  <SCORE.INTRA.norm>
0.0205227

>  <SCORE.RESTR>
0

>  <SCORE.RESTR.CAVITY>
0

>  <SCORE.RESTR.norm>
0

>  <SCORE.SYSTEM>
0

>  <SCORE.SYSTEM.CONST>
0

>  <SCORE.SYSTEM.DIHEDRAL>
0

>  <SCORE.SYSTEM.SOLV>
0

>  <SCORE.SYSTEM.norm>
0

>  <SCORE.heavy>
26

>  <SCORE.norm>
-2.15395

>  <RMSD>
0.698

$$$$
ligand
 OpenBabel02271912153D
libRbt.so/2013.1/901 2013/11/27
 26 29  0  0  0  0  0  0  0  0999 V2000
  112.2290  -79.4291  -87.0681 C   0  0  1  0  0  0  0  0  0  0  0  0
  112.7305  -80.6635  -87.4553 N   0  0  0  0  0  0  0  0  0  0  0  0
  112.3592  -78.9912  -85.6862 C   0  0  0  0  0  0  0  0  0  0  0  0
  111.3668  -74.3329  -80.6398 N   0  0  0  0  0  0  0  0  0  0  0  0
  111.9627  -77.3334  -84.0296 O   0  0  0  0  0  0  0  0  0  0  0  0
  111.8032  -77.7312  -85.4565 C   0  0  2  0  0  0  0  0  0  0  0  0
  111.4426  -76.1861  -83.8267 C   0  0  1  0  0  0  0  0  0  0  0  0
  111.6593  -75.8832  -82.4121 C   0  0  0  0  0  0  0  0  0  0  0  0
  111.1235  -74.6133  -81.9953 C   0  0  2  0  0  0  0  0  0  0  0  0
  110.4372  -73.7457  -82.8806 C   0  0  0  0  0  0  0  0  0  0  0  0
  110.2634  -74.1011  -84.2767 C   0  0  0  0  0  0  0  0  0  0  0  0
  110.8048  -75.3624  -84.7198 C   0  0  2  0  0  0  0  0  0  0  0  0
  110.5941  -75.6467  -86.1884 C   0  0  1  0  0  0  0  0  0  0  0  0
  111.1725  -76.9132  -86.3874 C   0  0  2  0  0  0  0  0  0  0  0  0
  111.0577  -77.3688  -87.7745 C   0  0  0  0  0  0  0  0  0  0  0  0
  111.6165  -78.6578  -88.0366 C   0  0  0  0  0  0  0  0  0  0  0  0
  109.9505  -74.7705  -87.0418 C   0  0  0  0  0  0  0  0  0  0  0  0
  110.2779  -73.4058  -87.2169 C   0  0  0  0  0  0  0  0  0  0  0  0
  109.6506  -72.5115  -88.0862 C   0  0  0  0  0  0  0  0  0  0  0  0
  108.5490  -72.9708  -88.9189 C   0  0  0  0  0  0  0  0  0  0  0  0
  108.2391  -74.3365  -88.7118 C   0  0  0  0  0  0  0  0  0  0  0  0
  108.8371  -75.2666  -87.8503 C   0  0  0  0  0  0  0  0  0  0  0  0
  113.2841  -81.6131  -86.4940 C   0  0  0  0  0  0  0  0  0  0  0  0
  112.7768  -81.1988  -88.8327 C   0  0  0  0  0  0  0  0  0  0  0  0
  111.0783  -73.1375  -79.8163 C   0  0  0  0  0  0  0  0  0  0  0  0
  112.0221  -75.4121  -79.8194 C   0  0  0  0  0  0  0  0  0  0  0  0
  1  2  1  6  0  0  0
  1  3  1  0  0  0  0
  1 16  1  0  0  0  0
  2 23  1  0  0  0  0
  2 24  1  0  0  0  0
  4 25  1  0  0  0  0
  4 26  1  0  0  0  0
  5  6  1  0  0  0  0
  6  3  1  1  0  0  0
  6 14  1  0  0  0  0
  7  5  1  6  0  0  0
  7  8  1  0  0  0  0
  7 12  1  0  0  0  0
  8  9  1  0  0  0  0
  9  4  1  6  0  0  0
  9 10  1  0  0  0  0
 10 11  1  0  0  0  0
 12 11  1  1  0  0  0
 12 13  1  0  0  0  0
 13 14  1  0  0  0  0
 13 17  1  1  0  0  0
 14 15  1  1  0  0  0
 15 16  1  0  0  0  0
 17 18  1  0  0  0  0
 17 22  1  0  0  0  0
 18 19  1  0  0  0  0
 19 20  1  0  0  0  0
 20 21  1  0  0  0  0
 21 22  1  0  0  0  0
M  END
>  <CHROM.1>
5.87815986,175.87116413,53.02739665,111.11767086,-76.30272720,-85.35108136
-1.28344073,-1.06963359,1.07522259

>  <Name>
ligand

>  <RI>
0

>  <Rbt.Current_Directory>
/home/itssahil/PROJECTS/Mol_Feturizer/Test_systems_manuscript/rnas/1f1t

>  <Rbt.Executable>
rbdock ($Id: //depot/dev/client3/rdock/2013.1/src/exe/rbdock.cxx#4 $)

>  <Rbt.Library>
libRbt.so (2013.1, Build901 2013/11/27)

>  <Rbt.Parameter_File>
/export/apps/rDock/src/rDock_2013.1_src/data/scripts/dock_solv.prm

>  <Rbt.Receptor>
prm/pocket_docking_3.prm

>  <SCORE>
-53.9354

>  <SCORE.INTER>
-56.4504

>  <SCORE.INTER.CONST>
1

>  <SCORE.INTER.POLAR>
0

>  <SCORE.INTER.ROT>
3

>  <SCORE.INTER.SOLV>
9.00944

>  <SCORE.INTER.VDW>
-46.2367

>  <SCORE.INTER.norm>
-2.17117

>  <SCORE.INTRA>
2.51501

>  <SCORE.INTRA.DIHEDRAL>
-0.000311393

>  <SCORE.INTRA.DIHEDRAL.0>
3.60016

>  <SCORE.INTRA.POLAR>
0

>  <SCORE.INTRA.POLAR.0>
0

>  <SCORE.INTRA.REPUL>
0

>  <SCORE.INTRA.REPUL.0>
0

>  <SCORE.INTRA.SOLV>
-0.000973543

>  <SCORE.INTRA.SOLV.lig_0>
-10.9882

>  <SCORE.INTRA.VDW>
2.51566

>  <SCORE.INTRA.VDW.0>
1.84442

>  <SCORE.INTRA.norm>
0.0967313

>  <SCORE.RESTR>
0

>  <SCORE.RESTR.CAVITY>
0

>  <SCORE.RESTR.norm>
0

>  <SCORE.SYSTEM>
0

>  <SCORE.SYSTEM.CONST>
0

>  <SCORE.SYSTEM.DIHEDRAL>
0

>  <SCORE.SYSTEM.SOLV>
0

>  <SCORE.SYSTEM.norm>
0

>  <SCORE.heavy>
26

>  <SCORE.norm>
-2.07444

>  <RMSD>
0.698

$$$$
ligand
 OpenBabel02271912153D
libRbt.so/2013.1/901 2013/11/27
 26 29  0  0  0  0  0  0  0  0999 V2000
  111.2339  -74.7179  -81.9374 C   0  0  1  0  0  0  0  0  0  0  0  0
  111.4162  -74.3764  -80.6050 N   0  0  0  0  0  0  0  0  0  0  0  0
  111.7435  -75.9850  -82.4407 C   0  0  0  0  0  0  0  0  0  0  0  0
  112.7030  -80.5820  -87.5492 N   0  0  0  0  0  0  0  0  0  0  0  0
  112.0257  -77.4876  -84.2606 O   0  0  0  0  0  0  0  0  0  0  0  0
  111.4829  -76.1794  -83.7985 C   0  0  2  0  0  0  0  0  0  0  0  0
  111.7923  -77.6520  -85.5041 C   0  0  1  0  0  0  0  0  0  0  0  0
  112.3491  -78.9582  -85.8556 C   0  0  0  0  0  0  0  0  0  0  0  0
  112.1839  -79.3127  -87.2414 C   0  0  2  0  0  0  0  0  0  0  0  0
  111.5485  -78.4602  -88.1779 C   0  0  0  0  0  0  0  0  0  0  0  0
  111.0083  -77.1789  -87.7628 C   0  0  0  0  0  0  0  0  0  0  0  0
  111.1496  -76.8094  -86.3758 C   0  0  2  0  0  0  0  0  0  0  0  0
  110.5464  -75.4693  -86.0260 C   0  0  1  0  0  0  0  0  0  0  0  0
  110.8166  -75.3099  -84.6550 C   0  0  2  0  0  0  0  0  0  0  0  0
  110.3052  -74.0428  -84.1278 C   0  0  0  0  0  0  0  0  0  0  0  0
  110.5612  -73.8171  -82.7400 C   0  0  0  0  0  0  0  0  0  0  0  0
  109.9012  -74.6683  -86.9490 C   0  0  0  0  0  0  0  0  0  0  0  0
  110.2153  -73.3172  -87.2252 C   0  0  0  0  0  0  0  0  0  0  0  0
  109.5863  -72.4991  -88.1654 C   0  0  0  0  0  0  0  0  0  0  0  0
  108.4973  -73.0331  -88.9695 C   0  0  0  0  0  0  0  0  0  0  0  0
  108.2004  -74.3825  -88.6613 C   0  0  0  0  0  0  0  0  0  0  0  0
  108.8006  -75.2373  -87.7265 C   0  0  0  0  0  0  0  0  0  0  0  0
  110.9584  -73.1011  -80.0605 C   0  0  0  0  0  0  0  0  0  0  0  0
  112.0619  -75.2075  -79.5668 C   0  0  0  0  0  0  0  0  0  0  0  0
  112.8591  -81.2941  -88.8372 C   0  0  0  0  0  0  0  0  0  0  0  0
  113.2266  -81.4086  -86.4048 C   0  0  0  0  0  0  0  0  0  0  0  0
  1  2  1  1  0  0  0
  1  3  1  0  0  0  0
  1 16  1  0  0  0  0
  2 23  1  0  0  0  0
  2 24  1  0  0  0  0
  4 25  1  0  0  0  0
  4 26  1  0  0  0  0
  5  6  1  0  0  0  0
  6  3  1  6  0  0  0
  6 14  1  0  0  0  0
  7  5  1  1  0  0  0
  7  8  1  0  0  0  0
  7 12  1  0  0  0  0
  8  9  1  0  0  0  0
  9  4  1  1  0  0  0
  9 10  1  0  0  0  0
 10 11  1  0  0  0  0
 12 11  1  6  0  0  0
 12 13  1  0  0  0  0
 13 14  1  0  0  0  0
 13 17  1  6  0  0  0
 14 15  1  6  0  0  0
 15 16  1  0  0  0  0
 17 18  1  0  0  0  0
 17 22  1  0  0  0  0
 18 19  1  0  0  0  0
 19 20  1  0  0  0  0
 20 21  1  0  0  0  0
 21 22  1  0  0  0  0
M  END
>  <CHROM.1>
178.19428246,-173.97236867,-125.54819612,111.11389877,-76.26158789,-85.35342792
-1.83003816,1.05999181,-2.06768181

>  <Name>
ligand

>  <RI>
0

>  <Rbt.Current_Directory>
/home/itssahil/PROJECTS/Mol_Feturizer/Test_systems_manuscript/rnas/1f1t

>  <Rbt.Executable>
rbdock ($Id: //depot/dev/client3/rdock/2013.1/src/exe/rbdock.cxx#4 $)

>  <Rbt.Library>
libRbt.so (2013.1, Build901 2013/11/27)

>  <Rbt.Parameter_File>
/export/apps/rDock/src/rDock_2013.1_src/data/scripts/dock_solv.prm

>  <Rbt.Receptor>
prm/pocket_docking_6.prm

>  <SCORE>
-53.442

>  <SCORE.INTER>
-56.3226

>  <SCORE.INTER.CONST>
1

>  <SCORE.INTER.POLAR>
0

>  <SCORE.INTER.ROT>
3

>  <SCORE.INTER.SOLV>
8.99671

>  <SCORE.INTER.VDW>
-46.1473

>  <SCORE.INTER.norm>
-2.16625

>  <SCORE.INTRA>
2.88064

>  <SCORE.INTRA.DIHEDRAL>
-0.000581289

>  <SCORE.INTRA.DIHEDRAL.0>
3.60016

>  <SCORE.INTRA.POLAR>
0

>  <SCORE.INTRA.POLAR.0>
0

>  <SCORE.INTRA.REPUL>
0

>  <SCORE.INTRA.REPUL.0>
0

>  <SCORE.INTRA.SOLV>
-0.000992645

>  <SCORE.INTRA.SOLV.lig_0>
-10.9882

>  <SCORE.INTRA.VDW>
2.88143

>  <SCORE.INTRA.VDW.0>
1.84442

>  <SCORE.INTRA.norm>
0.110794

>  <SCORE.RESTR>
0

>  <SCORE.RESTR.CAVITY>
0

>  <SCORE.RESTR.norm>
0

>  <SCORE.SYSTEM>
0

>  <SCORE.SYSTEM.CONST>
0

>  <SCORE.SYSTEM.DIHEDRAL>
0

>  <SCORE.SYSTEM.SOLV>
0

>  <SCORE.SYSTEM.norm>
0

>  <SCORE.heavy>
26

>  <SCORE.norm>
-2.05546

>  <RMSD>
0.698

$$$$
ligand
 OpenBabel02271912153D
libRbt.so/2013.1/901 2013/11/27
 26 29  0  0  0  0  0  0  0  0999 V2000
  111.1910  -74.7527  -82.0237 C   0  0  1  0  0  0  0  0  0  0  0  0
  111.3712  -74.3865  -80.6976 N   0  0  0  0  0  0  0  0  0  0  0  0
  111.7360  -76.0108  -82.5123 C   0  0  0  0  0  0  0  0  0  0  0  0
  112.8035  -80.6499  -87.5611 N   0  0  0  0  0  0  0  0  0  0  0  0
  112.0526  -77.5303  -84.3124 O   0  0  0  0  0  0  0  0  0  0  0  0
  111.4728  -76.2328  -83.8654 C   0  0  2  0  0  0  0  0  0  0  0  0
  111.8164  -77.7198  -85.5519 C   0  0  1  0  0  0  0  0  0  0  0  0
  112.4109  -79.0133  -85.8885 C   0  0  0  0  0  0  0  0  0  0  0  0
  112.2477  -79.3927  -87.2680 C   0  0  2  0  0  0  0  0  0  0  0  0
  111.5804  -78.5737  -88.2121 C   0  0  0  0  0  0  0  0  0  0  0  0
  111.0037  -77.3037  -87.8117 C   0  0  0  0  0  0  0  0  0  0  0  0
  111.1425  -76.9100  -86.4311 C   0  0  2  0  0  0  0  0  0  0  0  0
  110.5007  -75.5841  -86.0963 C   0  0  1  0  0  0  0  0  0  0  0  0
  110.7747  -75.3966  -84.7296 C   0  0  2  0  0  0  0  0  0  0  0  0
  110.2279  -74.1383  -84.2171 C   0  0  0  0  0  0  0  0  0  0  0  0
  110.4858  -73.8848  -82.8345 C   0  0  0  0  0  0  0  0  0  0  0  0
  109.8252  -74.8166  -87.0263 C   0  0  0  0  0  0  0  0  0  0  0  0
  108.7691  -75.2680  -87.8516 C   0  0  0  0  0  0  0  0  0  0  0  0
  108.0646  -74.5029  -88.7829 C   0  0  0  0  0  0  0  0  0  0  0  0
  108.4036  -73.0994  -88.9646 C   0  0  0  0  0  0  0  0  0  0  0  0
  109.4706  -72.6823  -88.1331 C   0  0  0  0  0  0  0  0  0  0  0  0
  110.2063  -73.4141  -87.1907 C   0  0  0  0  0  0  0  0  0  0  0  0
  112.0359  -75.2597  -79.7342 C   0  0  0  0  0  0  0  0  0  0  0  0
  110.9507  -73.1137  -80.0740 C   0  0  0  0  0  0  0  0  0  0  0  0
  113.0747  -81.3286  -88.8480 C   0  0  0  0  0  0  0  0  0  0  0  0
  113.2373  -81.5002  -86.3967 C   0  0  0  0  0  0  0  0  0  0  0  0
  1  2  1  1  0  0  0
  1  3  1  0  0  0  0
  1 16  1  0  0  0  0
  2 23  1  0  0  0  0
  2 24  1  0  0  0  0
  4 25  1  0  0  0  0
  4 26  1  0  0  0  0
  5  6  1  0  0  0  0
  6  3  1  6  0  0  0
  6 14  1  0  0  0  0
  7  5  1  1  0  0  0
  7  8  1  0  0  0  0
  7 12  1  0  0  0  0
  8  9  1  0  0  0  0
  9  4  1  1  0  0  0
  9 10  1  0  0  0  0
 10 11  1  0  0  0  0
 12 11  1  6  0  0  0
 12 13  1  0  0  0  0
 13 14  1  0  0  0  0
 13 17  1  6  0  0  0
 14 15  1  6  0  0  0
 15 16  1  0  0  0  0
 17 18  1  0  0  0  0
 17 22  1  0  0  0  0
 18 19  1  0  0  0  0
 19 20  1  0  0  0  0
 20 21  1  0  0  0  0
 21 22  1  0  0  0  0
M  END
>  <CHROM.1>
-3.41133455,-168.17229208,53.16160818,111.10483942,-76.33578191,-85.40663041
-1.86452527,1.03658738,-2.06386723

>  <Name>
ligand

>  <RI>
0

>  <Rbt.Current_Directory>
/home/itssahil/PROJECTS/Mol_Feturizer/Test_systems_manuscript/rnas/1f1t

>  <Rbt.Executable>
rbdock ($Id: //depot/dev/client3/rdock/2013.1/src/exe/rbdock.cxx#4 $)

>  <Rbt.Library>
libRbt.so (2013.1, Build901 2013/11/27)

>  <Rbt.Parameter_File>
/export/apps/rDock/src/rDock_2013.1_src/data/scripts/dock_solv.prm

>  <Rbt.Receptor>
prm/pocket_docking_7.prm

>  <SCORE>
-53.579

>  <SCORE.INTER>
-55.8948

>  <SCORE.INTER.CONST>
1

>  <SCORE.INTER.POLAR>
0

>  <SCORE.INTER.ROT>
3

>  <SCORE.INTER.SOLV>
8.99702

>  <SCORE.INTER.VDW>
-45.8622

>  <SCORE.INTER.norm>
-2.1498

>  <SCORE.INTRA>
2.31577

>  <SCORE.INTRA.DIHEDRAL>
-0.000264164

>  <SCORE.INTRA.DIHEDRAL.0>
3.60016

>  <SCORE.INTRA.POLAR>
0

>  <SCORE.INTRA.POLAR.0>
0

>  <SCORE.INTRA.REPUL>
0

>  <SCORE.INTRA.REPUL.0>
0

>  <SCORE.INTRA.SOLV>
-0.000966106

>  <SCORE.INTRA.SOLV.lig_0>
-10.9882

>  <SCORE.INTRA.VDW>
2.31638

>  <SCORE.INTRA.VDW.0>
1.84442

>  <SCORE.INTRA.norm>
0.089068

>  <SCORE.RESTR>
0

>  <SCORE.RESTR.CAVITY>
0

>  <SCORE.RESTR.norm>
0

>  <SCORE.SYSTEM>
0

>  <SCORE.SYSTEM.CONST>
0

>  <SCORE.SYSTEM.DIHEDRAL>
0

>  <SCORE.SYSTEM.SOLV>
0

>  <SCORE.SYSTEM.norm>
0

>  <SCORE.heavy>
26

>  <SCORE.norm>
-2.06073

>  <RMSD>
0.698

$$$$
ligand
 OpenBabel02271912153D
libRbt.so/2013.1/901 2013/11/27
 26 29  0  0  0  0  0  0  0  0999 V2000
  112.2587  -79.4694  -87.1096 C   0  0  1  0  0  0  0  0  0  0  0  0
  112.7902  -80.6903  -87.4993 N   0  0  0  0  0  0  0  0  0  0  0  0
  112.3846  -79.0278  -85.7285 C   0  0  0  0  0  0  0  0  0  0  0  0
  111.2972  -74.3957  -80.6775 N   0  0  0  0  0  0  0  0  0  0  0  0
  111.9535  -77.3805  -84.0701 O   0  0  0  0  0  0  0  0  0  0  0  0
  111.7971  -77.7827  -85.4960 C   0  0  2  0  0  0  0  0  0  0  0  0
  111.4048  -76.2471  -83.8646 C   0  0  1  0  0  0  0  0  0  0  0  0
  111.6208  -75.9384  -82.4512 C   0  0  0  0  0  0  0  0  0  0  0  0
  111.0543  -74.6827  -82.0317 C   0  0  2  0  0  0  0  0  0  0  0  0
  110.3409  -73.8336  -82.9136 C   0  0  0  0  0  0  0  0  0  0  0  0
  110.1692  -74.1938  -84.3087 C   0  0  0  0  0  0  0  0  0  0  0  0
  110.7411  -75.4406  -84.7545 C   0  0  2  0  0  0  0  0  0  0  0  0
  110.5302  -75.7306  -86.2220 C   0  0  1  0  0  0  0  0  0  0  0  0
  111.1404  -76.9817  -86.4237 C   0  0  2  0  0  0  0  0  0  0  0  0
  111.0303  -77.4405  -87.8102 C   0  0  0  0  0  0  0  0  0  0  0  0
  111.6213  -78.7145  -88.0750 C   0  0  0  0  0  0  0  0  0  0  0  0
  109.8596  -74.8718  -87.0720 C   0  0  0  0  0  0  0  0  0  0  0  0
  108.7678  -75.2228  -87.8998 C   0  0  0  0  0  0  0  0  0  0  0  0
  108.0680  -74.3653  -88.7507 C   0  0  0  0  0  0  0  0  0  0  0  0
  108.4522  -72.9641  -88.8347 C   0  0  0  0  0  0  0  0  0  0  0  0
  109.5538  -72.6481  -88.0037 C   0  0  0  0  0  0  0  0  0  0  0  0
  110.2861  -73.4744  -87.1401 C   0  0  0  0  0  0  0  0  0  0  0  0
  113.2892  -81.6643  -86.5324 C   0  0  0  0  0  0  0  0  0  0  0  0
  112.9242  -81.1866  -88.8855 C   0  0  0  0  0  0  0  0  0  0  0  0
  111.9613  -75.1779  -79.6110 C   0  0  0  0  0  0  0  0  0  0  0  0
  110.8369  -73.0577  -80.1631 C   0  0  0  0  0  0  0  0  0  0  0  0
  1  2  1  6  0  0  0
  1  3  1  0  0  0  0
  1 16  1  0  0  0  0
  2 23  1  0  0  0  0
  2 24  1  0  0  0  0
  4 25  1  0  0  0  0
  4 26  1  0  0  0  0
  5  6  1  0  0  0  0
  6  3  1  1  0  0  0
  6 14  1  0  0  0  0
  7  5  1  6  0  0  0
  7  8  1  0  0  0  0
  7 12  1  0  0  0  0
  8  9  1  0  0  0  0
  9  4  1  6  0  0  0
  9 10  1  0  0  0  0
 10 11  1  0  0  0  0
 12 11  1  1  0  0  0
 12 13  1  0  0  0  0
 13 14  1  0  0  0  0
 13 17  1  1  0  0  0
 14 15  1  1  0  0  0
 15 16  1  0  0  0  0
 17 18  1  0  0  0  0
 17 22  1  0  0  0  0
 18 19  1  0  0  0  0
 19 20  1  0  0  0  0
 20 21  1  0  0  0  0
 21 22  1  0  0  0  0
M  END
>  <CHROM.1>
10.20105250,-3.59234241,-126.63125837,111.07440346,-76.33746859,-85.37970390
-1.23802017,-1.04881613,1.09024367

>  <Name>
ligand

>  <RI>
0

>  <Rbt.Current_Directory>
/home/itssahil/PROJECTS/Mol_Feturizer/Test_systems_manuscript/rnas/1f1t

>  <Rbt.Executable>
rbdock ($Id: //depot/dev/client3/rdock/2013.1/src/exe/rbdock.cxx#4 $)

>  <Rbt.Library>
libRbt.so (2013.1, Build901 2013/11/27)

>  <Rbt.Parameter_File>
/export/apps/rDock/src/rDock_2013.1_src/data/scripts/dock_solv.prm

>  <Rbt.Receptor>
prm/pocket_docking_6.prm

>  <SCORE>
-55.98

>  <SCORE.INTER>
-56.1504

>  <SCORE.INTER.CONST>
1

>  <SCORE.INTER.POLAR>
0

>  <SCORE.INTER.ROT>
3

>  <SCORE.INTER.SOLV>
8.92087

>  <SCORE.INTER.VDW>
-46.0072

>  <SCORE.INTER.norm>
-2.15963

>  <SCORE.INTRA>
0.170395

>  <SCORE.INTRA.DIHEDRAL>
-1.0515e-05

>  <SCORE.INTRA.DIHEDRAL.0>
3.60016

>  <SCORE.INTRA.POLAR>
0

>  <SCORE.INTRA.POLAR.0>
0

>  <SCORE.INTRA.REPUL>
0

>  <SCORE.INTRA.REPUL.0>
0

>  <SCORE.INTRA.SOLV>
4.24479e-05

>  <SCORE.INTRA.SOLV.lig_0>
-10.9882

>  <SCORE.INTRA.VDW>
0.170379

>  <SCORE.INTRA.VDW.0>
1.84442

>  <SCORE.INTRA.norm>
0.00655365

>  <SCORE.RESTR>
0

>  <SCORE.RESTR.CAVITY>
0

>  <SCORE.RESTR.norm>
0

>  <SCORE.SYSTEM>
0

>  <SCORE.SYSTEM.CONST>
0

>  <SCORE.SYSTEM.DIHEDRAL>
0

>  <SCORE.SYSTEM.SOLV>
0

>  <SCORE.SYSTEM.norm>
0

>  <SCORE.heavy>
26

>  <SCORE.norm>
-2.15308

>  <RMSD>
0.699

$$$$
ligand
 OpenBabel02271912153D
libRbt.so/2013.1/901 2013/11/27
 26 29  0  0  0  0  0  0  0  0999 V2000
  112.2198  -79.4753  -87.1153 C   0  0  1  0  0  0  0  0  0  0  0  0
  112.7451  -80.6986  -87.5062 N   0  0  0  0  0  0  0  0  0  0  0  0
  112.3567  -79.0313  -85.7360 C   0  0  0  0  0  0  0  0  0  0  0  0
  111.3183  -74.3860  -80.6870 N   0  0  0  0  0  0  0  0  0  0  0  0
  111.9421  -77.3795  -84.0779 O   0  0  0  0  0  0  0  0  0  0  0  0
  111.7744  -77.7841  -85.5019 C   0  0  2  0  0  0  0  0  0  0  0  0
  111.3981  -76.2441  -83.8709 C   0  0  1  0  0  0  0  0  0  0  0  0
  111.6250  -75.9331  -82.4597 C   0  0  0  0  0  0  0  0  0  0  0  0
  111.0650  -74.6750  -82.0388 C   0  0  2  0  0  0  0  0  0  0  0  0
  110.3478  -73.8256  -82.9173 C   0  0  0  0  0  0  0  0  0  0  0  0
  110.1652  -74.1881  -84.3105 C   0  0  0  0  0  0  0  0  0  0  0  0
  110.7303  -75.4374  -84.7577 C   0  0  2  0  0  0  0  0  0  0  0  0
  110.5083  -75.7299  -86.2231 C   0  0  1  0  0  0  0  0  0  0  0  0
  111.1135  -76.9831  -86.4266 C   0  0  2  0  0  0  0  0  0  0  0  0
  110.9923  -77.4444  -87.8113 C   0  0  0  0  0  0  0  0  0  0  0  0
  111.5777  -78.7206  -88.0777 C   0  0  0  0  0  0  0  0  0  0  0  0
  109.8341  -74.8709  -87.0701 C   0  0  0  0  0  0  0  0  0  0  0  0
  108.7104  -75.2102  -87.8592 C   0  0  0  0  0  0  0  0  0  0  0  0
  108.0070  -74.3518  -88.7061 C   0  0  0  0  0  0  0  0  0  0  0  0
  108.4224  -72.9625  -88.8286 C   0  0  0  0  0  0  0  0  0  0  0  0
  109.5551  -72.6583  -88.0359 C   0  0  0  0  0  0  0  0  0  0  0  0
  110.2922  -73.4860  -87.1778 C   0  0  0  0  0  0  0  0  0  0  0  0
  113.2690  -81.6625  -86.5425 C   0  0  0  0  0  0  0  0  0  0  0  0
  112.8478  -81.2072  -88.8906 C   0  0  0  0  0  0  0  0  0  0  0  0
  111.9574  -75.1814  -79.6150 C   0  0  0  0  0  0  0  0  0  0  0  0
  110.9024  -73.0297  -80.1823 C   0  0  0  0  0  0  0  0  0  0  0  0
  1  2  1  6  0  0  0
  1  3  1  0  0  0  0
  1 16  1  0  0  0  0
  2 23  1  0  0  0  0
  2 24  1  0  0  0  0
  4 25  1  0  0  0  0
  4 26  1  0  0  0  0
  5  6  1  0  0  0  0
  6  3  1  1  0  0  0
  6 14  1  0  0  0  0
  7  5  1  6  0  0  0
  7  8  1  0  0  0  0
  7 12  1  0  0  0  0
  8  9  1  0  0  0  0
  9  4  1  6  0  0  0
  9 10  1  0  0  0  0
 10 11  1  0  0  0  0
 12 11  1  1  0  0  0
 12 13  1  0  0  0  0
 13 14  1  0  0  0  0
 13 17  1  1  0  0  0
 14 15  1  1  0  0  0
 15 16  1  0  0  0  0
 17 18  1  0  0  0  0
 17 22  1  0  0  0  0
 18 19  1  0  0  0  0
 19 20  1  0  0  0  0
 20 21  1  0  0  0  0
 21 22  1  0  0  0  0
M  END
>  <CHROM.1>
9.13377851,-5.36851582,-124.60870795,111.05730864,-76.33643335,-85.38373942
-1.25369225,-1.04842138,1.07467798

>  <Name>
ligand

>  <RI>
0

>  <Rbt.Current_Directory>
/home/itssahil/PROJECTS/Mol_Feturizer/Test_systems_manuscript/rnas/1f1t

>  <Rbt.Executable>
rbdock ($Id: //depot/dev/client3/rdock/2013.1/src/exe/rbdock.cxx#4 $)

>  <Rbt.Library>
libRbt.so (2013.1, Build901 2013/11/27)

>  <Rbt.Parameter_File>
/export/apps/rDock/src/rDock_2013.1_src/data/scripts/dock_solv.prm

>  <Rbt.Receptor>
prm/pocket_docking_6.prm

>  <SCORE>
-55.9658

>  <SCORE.INTER>
-56.082

>  <SCORE.INTER.CONST>
1

>  <SCORE.INTER.POLAR>
0

>  <SCORE.INTER.ROT>
3

>  <SCORE.INTER.SOLV>
8.87503

>  <SCORE.INTER.VDW>
-45.9463

>  <SCORE.INTER.norm>
-2.157

>  <SCORE.INTRA>
0.116173

>  <SCORE.INTRA.DIHEDRAL>
-2.23917e-05

>  <SCORE.INTRA.DIHEDRAL.0>
3.60016

>  <SCORE.INTRA.POLAR>
0

>  <SCORE.INTRA.POLAR.0>
0

>  <SCORE.INTRA.REPUL>
0

>  <SCORE.INTRA.REPUL.0>
0

>  <SCORE.INTRA.SOLV>
3.54665e-05

>  <SCORE.INTRA.SOLV.lig_0>
-10.9882

>  <SCORE.INTRA.VDW>
0.116166

>  <SCORE.INTRA.VDW.0>
1.84442

>  <SCORE.INTRA.norm>
0.00446818

>  <SCORE.RESTR>
0

>  <SCORE.RESTR.CAVITY>
0

>  <SCORE.RESTR.norm>
0

>  <SCORE.SYSTEM>
0

>  <SCORE.SYSTEM.CONST>
0

>  <SCORE.SYSTEM.DIHEDRAL>
0

>  <SCORE.SYSTEM.SOLV>
0

>  <SCORE.SYSTEM.norm>
0

>  <SCORE.heavy>
26

>  <SCORE.norm>
-2.15253

>  <RMSD>
0.699

$$$$
ligand
 OpenBabel02271912153D
libRbt.so/2013.1/901 2013/11/27
 26 29  0  0  0  0  0  0  0  0999 V2000
  111.2157  -74.6967  -81.9230 C   0  0  1  0  0  0  0  0  0  0  0  0
  111.3936  -74.3559  -80.5898 N   0  0  0  0  0  0  0  0  0  0  0  0
  111.7318  -75.9610  -82.4265 C   0  0  0  0  0  0  0  0  0  0  0  0
  112.7223  -80.5479  -87.5382 N   0  0  0  0  0  0  0  0  0  0  0  0
  112.0245  -77.4603  -84.2476 O   0  0  0  0  0  0  0  0  0  0  0  0
  111.4750  -76.1549  -83.7851 C   0  0  2  0  0  0  0  0  0  0  0  0
  111.7945  -77.6243  -85.4918 C   0  0  1  0  0  0  0  0  0  0  0  0
  112.3578  -78.9276  -85.8436 C   0  0  0  0  0  0  0  0  0  0  0  0
  112.1971  -79.2813  -87.2302 C   0  0  2  0  0  0  0  0  0  0  0  0
  111.5600  -78.4304  -88.1670 C   0  0  0  0  0  0  0  0  0  0  0  0
  111.0133  -77.1519  -87.7517 C   0  0  0  0  0  0  0  0  0  0  0  0
  111.1500  -76.7834  -86.3639 C   0  0  2  0  0  0  0  0  0  0  0  0
  110.5403  -75.4464  -86.0139 C   0  0  1  0  0  0  0  0  0  0  0  0
  110.8069  -75.2873  -84.6421 C   0  0  2  0  0  0  0  0  0  0  0  0
  110.2888  -74.0231  -84.1146 C   0  0  0  0  0  0  0  0  0  0  0  0
  110.5408  -73.7979  -82.7260 C   0  0  0  0  0  0  0  0  0  0  0  0
  109.8936  -74.6470  -86.9374 C   0  0  0  0  0  0  0  0  0  0  0  0
  110.2164  -73.3007  -87.2266 C   0  0  0  0  0  0  0  0  0  0  0  0
  109.5860  -72.4846  -88.1676 C   0  0  0  0  0  0  0  0  0  0  0  0
  108.4857  -73.0157  -88.9581 C   0  0  0  0  0  0  0  0  0  0  0  0
  108.1804  -74.3602  -88.6370 C   0  0  0  0  0  0  0  0  0  0  0  0
  108.7817  -75.2128  -87.7009 C   0  0  0  0  0  0  0  0  0  0  0  0
  110.9604  -73.0690  -80.0526 C   0  0  0  0  0  0  0  0  0  0  0  0
  112.0104  -75.1990  -79.5436 C   0  0  0  0  0  0  0  0  0  0  0  0
  112.9127  -81.2453  -88.8296 C   0  0  0  0  0  0  0  0  0  0  0  0
  113.2127  -81.3888  -86.3896 C   0  0  0  0  0  0  0  0  0  0  0  0
  1  2  1  1  0  0  0
  1  3  1  0  0  0  0
  1 16  1  0  0  0  0
  2 23  1  0  0  0  0
  2 24  1  0  0  0  0
  4 25  1  0  0  0  0
  4 26  1  0  0  0  0
  5  6  1  0  0  0  0
  6  3  1  6  0  0  0
  6 14  1  0  0  0  0
  7  5  1  1  0  0  0
  7  8  1  0  0  0  0
  7 12  1  0  0  0  0
  8  9  1  0  0  0  0
  9  4  1  1  0  0  0
  9 10  1  0  0  0  0
 10 11  1  0  0  0  0
 12 11  1  6  0  0  0
 12 13  1  0  0  0  0
 13 14  1  0  0  0  0
 13 17  1  6  0  0  0
 14 15  1  6  0  0  0
 15 16  1  0  0  0  0
 17 18  1  0  0  0  0
 17 22  1  0  0  0  0
 18 19  1  0  0  0  0
 19 20  1  0  0  0  0
 20 21  1  0  0  0  0
 21 22  1  0  0  0  0
M  END
>  <CHROM.1>
176.55818840,-172.35709566,-124.46884768,111.10940213,-76.23701893,-85.34083991
-1.83869267,1.05817619,-2.05894618

>  <Name>
ligand

>  <RI>
0

>  <Rbt.Current_Directory>
/home/itssahil/PROJECTS/Mol_Feturizer/Test_systems_manuscript/rnas/1f1t

>  <Rbt.Executable>
rbdock ($Id: //depot/dev/client3/rdock/2013.1/src/exe/rbdock.cxx#4 $)

>  <Rbt.Library>
libRbt.so (2013.1, Build901 2013/11/27)

>  <Rbt.Parameter_File>
/export/apps/rDock/src/rDock_2013.1_src/data/scripts/dock_solv.prm

>  <Rbt.Receptor>
prm/pocket_docking_5.prm

>  <SCORE>
-53.4385

>  <SCORE.INTER>
-56.2342

>  <SCORE.INTER.CONST>
1

>  <SCORE.INTER.POLAR>
0

>  <SCORE.INTER.ROT>
3

>  <SCORE.INTER.SOLV>
9.02784

>  <SCORE.INTER.VDW>
-46.0987

>  <SCORE.INTER.norm>
-2.16285

>  <SCORE.INTRA>
2.79569

>  <SCORE.INTRA.DIHEDRAL>
-0.000575066

>  <SCORE.INTRA.DIHEDRAL.0>
3.60016

>  <SCORE.INTRA.POLAR>
0

>  <SCORE.INTRA.POLAR.0>
0

>  <SCORE.INTRA.REPUL>
0

>  <SCORE.INTRA.REPUL.0>
0

>  <SCORE.INTRA.SOLV>
-0.000984084

>  <SCORE.INTRA.SOLV.lig_0>
-10.9882

>  <SCORE.INTRA.VDW>
2.79647

>  <SCORE.INTRA.VDW.0>
1.84442

>  <SCORE.INTRA.norm>
0.107526

>  <SCORE.RESTR>
0

>  <SCORE.RESTR.CAVITY>
0

>  <SCORE.RESTR.norm>
0

>  <SCORE.SYSTEM>
0

>  <SCORE.SYSTEM.CONST>
0

>  <SCORE.SYSTEM.DIHEDRAL>
0

>  <SCORE.SYSTEM.SOLV>
0

>  <SCORE.SYSTEM.norm>
0

>  <SCORE.heavy>
26

>  <SCORE.norm>
-2.05533

>  <RMSD>
0.700

$$$$
ligand
 OpenBabel02271912153D
libRbt.so/2013.1/901 2013/11/27
 26 29  0  0  0  0  0  0  0  0999 V2000
  112.2455  -79.4712  -87.1094 C   0  0  1  0  0  0  0  0  0  0  0  0
  112.7743  -80.6936  -87.4981 N   0  0  0  0  0  0  0  0  0  0  0  0
  112.3763  -79.0268  -85.7296 C   0  0  0  0  0  0  0  0  0  0  0  0
  111.3104  -74.3826  -80.6852 N   0  0  0  0  0  0  0  0  0  0  0  0
  111.9524  -77.3755  -84.0734 O   0  0  0  0  0  0  0  0  0  0  0  0
  111.7910  -77.7806  -85.4979 C   0  0  2  0  0  0  0  0  0  0  0  0
  111.4057  -76.2410  -83.8685 C   0  0  1  0  0  0  0  0  0  0  0  0
  111.6266  -75.9294  -82.4565 C   0  0  0  0  0  0  0  0  0  0  0  0
  111.0629  -74.6722  -82.0380 C   0  0  2  0  0  0  0  0  0  0  0  0
  110.3478  -73.8241  -82.9194 C   0  0  0  0  0  0  0  0  0  0  0  0
  110.1712  -74.1871  -84.3132 C   0  0  0  0  0  0  0  0  0  0  0  0
  110.7402  -75.4355  -84.7581 C   0  0  2  0  0  0  0  0  0  0  0  0
  110.5243  -75.7285  -86.2242 C   0  0  1  0  0  0  0  0  0  0  0  0
  111.1323  -76.9807  -86.4252 C   0  0  2  0  0  0  0  0  0  0  0  0
  111.0173  -77.4423  -87.8104 C   0  0  0  0  0  0  0  0  0  0  0  0
  111.6059  -78.7176  -88.0744 C   0  0  0  0  0  0  0  0  0  0  0  0
  109.8520  -74.8707  -87.0740 C   0  0  0  0  0  0  0  0  0  0  0  0
  108.7396  -75.2151  -87.8767 C   0  0  0  0  0  0  0  0  0  0  0  0
  108.0382  -74.3582  -88.7267 C   0  0  0  0  0  0  0  0  0  0  0  0
  108.4432  -72.9649  -88.8376 C   0  0  0  0  0  0  0  0  0  0  0  0
  109.5649  -72.6554  -88.0314 C   0  0  0  0  0  0  0  0  0  0  0  0
  110.2997  -73.4815  -87.1697 C   0  0  0  0  0  0  0  0  0  0  0  0
  113.3059  -81.6520  -86.5331 C   0  0  0  0  0  0  0  0  0  0  0  0
  112.8737  -81.2066  -88.8811 C   0  0  0  0  0  0  0  0  0  0  0  0
  111.9611  -75.1706  -79.6146 C   0  0  0  0  0  0  0  0  0  0  0  0
  110.8728  -73.0344  -80.1775 C   0  0  0  0  0  0  0  0  0  0  0  0
  1  2  1  6  0  0  0
  1  3  1  0  0  0  0
  1 16  1  0  0  0  0
  2 23  1  0  0  0  0
  2 24  1  0  0  0  0
  4 25  1  0  0  0  0
  4 26  1  0  0  0  0
  5  6  1  0  0  0  0
  6  3  1  1  0  0  0
  6 14  1  0  0  0  0
  7  5  1  6  0  0  0
  7  8  1  0  0  0  0
  7 12  1  0  0  0  0
  8  9  1  0  0  0  0
  9  4  1  6  0  0  0
  9 10  1  0  0  0  0
 10 11  1  0  0  0  0
 12 11  1  1  0  0  0
 12 13  1  0  0  0  0
 13 14  1  0  0  0  0
 13 17  1  1  0  0  0
 14 15  1  1  0  0  0
 15 16  1  0  0  0  0
 17 18  1  0  0  0  0
 17 22  1  0  0  0  0
 18 19  1  0  0  0  0
 19 20  1  0  0  0  0
 20 21  1  0  0  0  0
 21 22  1  0  0  0  0
M  END
>  <CHROM.1>
8.62953781,-4.52945120,-125.22921058,111.07084196,-76.33408234,-85.38260518
-1.24535800,-1.04836787,1.08174543

>  <Name>
ligand

>  <RI>
0

>  <Rbt.Current_Directory>
/home/itssahil/PROJECTS/Mol_Feturizer/Test_systems_manuscript/rnas/1f1t

>  <Rbt.Executable>
rbdock ($Id: //depot/dev/client3/rdock/2013.1/src/exe/rbdock.cxx#4 $)

>  <Rbt.Library>
libRbt.so (2013.1, Build901 2013/11/27)

>  <Rbt.Parameter_File>
/export/apps/rDock/src/rDock_2013.1_src/data/scripts/dock_solv.prm

>  <Rbt.Receptor>
prm/pocket_docking_6.prm

>  <SCORE>
-55.9541

>  <SCORE.INTER>
-56.1035

>  <SCORE.INTER.CONST>
1

>  <SCORE.INTER.POLAR>
0

>  <SCORE.INTER.ROT>
3

>  <SCORE.INTER.SOLV>
8.92452

>  <SCORE.INTER.VDW>
-45.9772

>  <SCORE.INTER.norm>
-2.15783

>  <SCORE.INTRA>
0.149439

>  <SCORE.INTRA.DIHEDRAL>
-1.76359e-05

>  <SCORE.INTRA.DIHEDRAL.0>
3.60016

>  <SCORE.INTRA.POLAR>
0

>  <SCORE.INTRA.POLAR.0>
0

>  <SCORE.INTRA.REPUL>
0

>  <SCORE.INTRA.REPUL.0>
0

>  <SCORE.INTRA.SOLV>
3.04176e-05

>  <SCORE.INTRA.SOLV.lig_0>
-10.9882

>  <SCORE.INTRA.VDW>
0.149433

>  <SCORE.INTRA.VDW.0>
1.84442

>  <SCORE.INTRA.norm>
0.00574766

>  <SCORE.RESTR>
0

>  <SCORE.RESTR.CAVITY>
0

>  <SCORE.RESTR.norm>
0

>  <SCORE.SYSTEM>
0

>  <SCORE.SYSTEM.CONST>
0

>  <SCORE.SYSTEM.DIHEDRAL>
0

>  <SCORE.SYSTEM.SOLV>
0

>  <SCORE.SYSTEM.norm>
0

>  <SCORE.heavy>
26

>  <SCORE.norm>
-2.15208

>  <RMSD>
0.700

$$$$
ligand
 OpenBabel02271912153D
libRbt.so/2013.1/901 2013/11/27
 26 29  0  0  0  0  0  0  0  0999 V2000
  112.2593  -79.4684  -87.1098 C   0  0  1  0  0  0  0  0  0  0  0  0
  112.7904  -80.6897  -87.4990 N   0  0  0  0  0  0  0  0  0  0  0  0
  112.3844  -79.0269  -85.7286 C   0  0  0  0  0  0  0  0  0  0  0  0
  111.2956  -74.3941  -80.6786 N   0  0  0  0  0  0  0  0  0  0  0  0
  111.9529  -77.3793  -84.0706 O   0  0  0  0  0  0  0  0  0  0  0  0
  111.7974  -77.7815  -85.4966 C   0  0  2  0  0  0  0  0  0  0  0  0
  111.4047  -76.2456  -83.8655 C   0  0  1  0  0  0  0  0  0  0  0  0
  111.6198  -75.9369  -82.4520 C   0  0  0  0  0  0  0  0  0  0  0  0
  111.0536  -74.6809  -82.0330 C   0  0  2  0  0  0  0  0  0  0  0  0
  110.3415  -73.8314  -82.9155 C   0  0  0  0  0  0  0  0  0  0  0  0
  110.1707  -74.1915  -84.3108 C   0  0  0  0  0  0  0  0  0  0  0  0
  110.7422  -75.4387  -84.7560 C   0  0  2  0  0  0  0  0  0  0  0  0
  110.5324  -75.7286  -86.2236 C   0  0  1  0  0  0  0  0  0  0  0  0
  111.1420  -76.9801  -86.4249 C   0  0  2  0  0  0  0  0  0  0  0  0
  111.0327  -77.4389  -87.8114 C   0  0  0  0  0  0  0  0  0  0  0  0
  111.6231  -78.7132  -88.0757 C   0  0  0  0  0  0  0  0  0  0  0  0
  109.8629  -74.8694  -87.0743 C   0  0  0  0  0  0  0  0  0  0  0  0
  108.7662  -75.2178  -87.8967 C   0  0  0  0  0  0  0  0  0  0  0  0
  108.0677  -74.3597  -88.7480 C   0  0  0  0  0  0  0  0  0  0  0  0
  108.4587  -72.9609  -88.8385 C   0  0  0  0  0  0  0  0  0  0  0  0
  109.5650  -72.6476  -88.0128 C   0  0  0  0  0  0  0  0  0  0  0  0
  110.2964  -73.4745  -87.1490 C   0  0  0  0  0  0  0  0  0  0  0  0
  113.2864  -81.6647  -86.5316 C   0  0  0  0  0  0  0  0  0  0  0  0
  112.9268  -81.1854  -88.8852 C   0  0  0  0  0  0  0  0  0  0  0  0
  111.9564  -75.1775  -79.6110 C   0  0  0  0  0  0  0  0  0  0  0  0
  110.8381  -73.0547  -80.1652 C   0  0  0  0  0  0  0  0  0  0  0  0
  1  2  1  6  0  0  0
  1  3  1  0  0  0  0
  1 16  1  0  0  0  0
  2 23  1  0  0  0  0
  2 24  1  0  0  0  0
  4 25  1  0  0  0  0
  4 26  1  0  0  0  0
  5  6  1  0  0  0  0
  6  3  1  1  0  0  0
  6 14  1  0  0  0  0
  7  5  1  6  0  0  0
  7  8  1  0  0  0  0
  7 12  1  0  0  0  0
  8  9  1  0  0  0  0
  9  4  1  6  0  0  0
  9 10  1  0  0  0  0
 10 11  1  0  0  0  0
 12 11  1  1  0  0  0
 12 13  1  0  0  0  0
 13 14  1  0  0  0  0
 13 17  1  1  0  0  0
 14 15  1  1  0  0  0
 15 16  1  0  0  0  0
 17 18  1  0  0  0  0
 17 22  1  0  0  0  0
 18 19  1  0  0  0  0
 19 20  1  0  0  0  0
 20 21  1  0  0  0  0
 21 22  1  0  0  0  0
M  END
>  <CHROM.1>
10.28139529,-3.70689716,-126.20959208,111.07557310,-76.33578527,-85.38097929
-1.23703673,-1.04981491,1.09109063

>  <Name>
ligand

>  <RI>
0

>  <Rbt.Current_Directory>
/home/itssahil/PROJECTS/Mol_Feturizer/Test_systems_manuscript/rnas/1f1t

>  <Rbt.Executable>
rbdock ($Id: //depot/dev/client3/rdock/2013.1/src/exe/rbdock.cxx#4 $)

>  <Rbt.Library>
libRbt.so (2013.1, Build901 2013/11/27)

>  <Rbt.Parameter_File>
/export/apps/rDock/src/rDock_2013.1_src/data/scripts/dock_solv.prm

>  <Rbt.Receptor>
prm/pocket_docking_4.prm

>  <SCORE>
-55.9709

>  <SCORE.INTER>
-56.1258

>  <SCORE.INTER.CONST>
1

>  <SCORE.INTER.POLAR>
0

>  <SCORE.INTER.ROT>
3

>  <SCORE.INTER.SOLV>
8.92333

>  <SCORE.INTER.VDW>
-45.9916

>  <SCORE.INTER.norm>
-2.15868

>  <SCORE.INTRA>
0.154895

>  <SCORE.INTRA.DIHEDRAL>
-1.20349e-05

>  <SCORE.INTRA.DIHEDRAL.0>
3.60016

>  <SCORE.INTRA.POLAR>
0

>  <SCORE.INTRA.POLAR.0>
0

>  <SCORE.INTRA.REPUL>
0

>  <SCORE.INTRA.REPUL.0>
0

>  <SCORE.INTRA.SOLV>
4.32581e-05

>  <SCORE.INTRA.SOLV.lig_0>
-10.9882

>  <SCORE.INTRA.VDW>
0.154879

>  <SCORE.INTRA.VDW.0>
1.84442

>  <SCORE.INTRA.norm>
0.0059575

>  <SCORE.RESTR>
0

>  <SCORE.RESTR.CAVITY>
0

>  <SCORE.RESTR.norm>
0

>  <SCORE.SYSTEM>
0

>  <SCORE.SYSTEM.CONST>
0

>  <SCORE.SYSTEM.DIHEDRAL>
0

>  <SCORE.SYSTEM.SOLV>
0

>  <SCORE.SYSTEM.norm>
0

>  <SCORE.heavy>
26

>  <SCORE.norm>
-2.15273

>  <RMSD>
0.701

$$$$
ligand
 OpenBabel02271912153D
libRbt.so/2013.1/901 2013/11/27
 26 29  0  0  0  0  0  0  0  0999 V2000
  112.2503  -79.4686  -87.1038 C   0  0  1  0  0  0  0  0  0  0  0  0
  112.7791  -80.6923  -87.4886 N   0  0  0  0  0  0  0  0  0  0  0  0
  112.3848  -79.0179  -85.7265 C   0  0  0  0  0  0  0  0  0  0  0  0
  111.3297  -74.3521  -80.6998 N   0  0  0  0  0  0  0  0  0  0  0  0
  111.9644  -77.3595  -84.0764 O   0  0  0  0  0  0  0  0  0  0  0  0
  111.7991  -77.7711  -85.4987 C   0  0  2  0  0  0  0  0  0  0  0  0
  111.4173  -76.2246  -83.8751 C   0  0  1  0  0  0  0  0  0  0  0  0
  111.6420  -75.9065  -82.4651 C   0  0  0  0  0  0  0  0  0  0  0  0
  111.0784  -74.6479  -82.0505 C   0  0  2  0  0  0  0  0  0  0  0  0
  110.3600  -73.8044  -82.9336 C   0  0  0  0  0  0  0  0  0  0  0  0
  110.1796  -74.1738  -84.3253 C   0  0  0  0  0  0  0  0  0  0  0  0
  110.7484  -75.4237  -84.7662 C   0  0  2  0  0  0  0  0  0  0  0  0
  110.5285  -75.7234  -86.2304 C   0  0  1  0  0  0  0  0  0  0  0  0
  111.1370  -76.9760  -86.4276 C   0  0  2  0  0  0  0  0  0  0  0  0
  111.0184  -77.4439  -87.8103 C   0  0  0  0  0  0  0  0  0  0  0  0
  111.6073  -78.7199  -88.0703 C   0  0  0  0  0  0  0  0  0  0  0  0
  109.8529  -74.8700  -87.0821 C   0  0  0  0  0  0  0  0  0  0  0  0
  108.7672  -75.2302  -87.9139 C   0  0  0  0  0  0  0  0  0  0  0  0
  108.0626  -74.3784  -88.7664 C   0  0  0  0  0  0  0  0  0  0  0  0
  108.4342  -72.9737  -88.8479 C   0  0  0  0  0  0  0  0  0  0  0  0
  109.5300  -72.6484  -88.0129 C   0  0  0  0  0  0  0  0  0  0  0  0
  110.2669  -73.4687  -87.1475 C   0  0  0  0  0  0  0  0  0  0  0  0
  113.2830  -81.6602  -86.5183 C   0  0  0  0  0  0  0  0  0  0  0  0
  112.9051  -81.1975  -88.8724 C   0  0  0  0  0  0  0  0  0  0  0  0
  111.0626  -73.1405  -79.8929 C   0  0  0  0  0  0  0  0  0  0  0  0
  111.9697  -75.4298  -79.8655 C   0  0  0  0  0  0  0  0  0  0  0  0
  1  2  1  6  0  0  0
  1  3  1  0  0  0  0
  1 16  1  0  0  0  0
  2 23  1  0  0  0  0
  2 24  1  0  0  0  0
  4 25  1  0  0  0  0
  4 26  1  0  0  0  0
  5  6  1  0  0  0  0
  6  3  1  1  0  0  0
  6 14  1  0  0  0  0
  7  5  1  6  0  0  0
  7  8  1  0  0  0  0
  7 12  1  0  0  0  0
  8  9  1  0  0  0  0
  9  4  1  6  0  0  0
  9 10  1  0  0  0  0
 10 11  1  0  0  0  0
 12 11  1  1  0  0  0
 12 13  1  0  0  0  0
 13 14  1  0  0  0  0
 13 17  1  1  0  0  0
 14 15  1  1  0  0  0
 15 16  1  0  0  0  0
 17 18  1  0  0  0  0
 17 22  1  0  0  0  0
 18 19  1  0  0  0  0
 19 20  1  0  0  0  0
 20 21  1  0  0  0  0
 21 22  1  0  0  0  0
M  END
>  <CHROM.1>
10.23290562,173.38168840,-127.51194451,111.08469200,-76.34442267,-85.38446957
-1.25835030,-1.04795360,1.07705575

>  <Name>
ligand

>  <RI>
0

>  <Rbt.Current_Directory>
/home/itssahil/PROJECTS/Mol_Feturizer/Test_systems_manuscript/rnas/1f1t

>  <Rbt.Executable>
rbdock ($Id: //depot/dev/client3/rdock/2013.1/src/exe/rbdock.cxx#4 $)

>  <Rbt.Library>
libRbt.so (2013.1, Build901 2013/11/27)

>  <Rbt.Parameter_File>
/export/apps/rDock/src/rDock_2013.1_src/data/scripts/dock_solv.prm

>  <Rbt.Receptor>
prm/pocket_docking_5.prm

>  <SCORE>
-53.5455

>  <SCORE.INTER>
-56.0236

>  <SCORE.INTER.CONST>
1

>  <SCORE.INTER.POLAR>
0

>  <SCORE.INTER.ROT>
3

>  <SCORE.INTER.SOLV>
8.92773

>  <SCORE.INTER.VDW>
-45.925

>  <SCORE.INTER.norm>
-2.15475

>  <SCORE.INTRA>
2.47812

>  <SCORE.INTRA.DIHEDRAL>
-0.000583949

>  <SCORE.INTRA.DIHEDRAL.0>
3.60016

>  <SCORE.INTRA.POLAR>
0

>  <SCORE.INTRA.POLAR.0>
0

>  <SCORE.INTRA.REPUL>
0

>  <SCORE.INTRA.REPUL.0>
0

>  <SCORE.INTRA.SOLV>
-0.000932525

>  <SCORE.INTRA.SOLV.lig_0>
-10.9882

>  <SCORE.INTRA.VDW>
2.47888

>  <SCORE.INTRA.VDW.0>
1.84442

>  <SCORE.INTRA.norm>
0.0953123

>  <SCORE.RESTR>
0

>  <SCORE.RESTR.CAVITY>
0

>  <SCORE.RESTR.norm>
0

>  <SCORE.SYSTEM>
0

>  <SCORE.SYSTEM.CONST>
0

>  <SCORE.SYSTEM.DIHEDRAL>
0

>  <SCORE.SYSTEM.SOLV>
0

>  <SCORE.SYSTEM.norm>
0

>  <SCORE.heavy>
26

>  <SCORE.norm>
-2.05944

>  <RMSD>
0.701

$$$$
ligand
 OpenBabel02271912153D
libRbt.so/2013.1/901 2013/11/27
 26 29  0  0  0  0  0  0  0  0999 V2000
  111.2381  -74.7126  -82.0175 C   0  0  1  0  0  0  0  0  0  0  0  0
  111.4285  -74.3397  -80.6946 N   0  0  0  0  0  0  0  0  0  0  0  0
  111.7706  -75.9777  -82.5013 C   0  0  0  0  0  0  0  0  0  0  0  0
  112.7742  -80.6556  -87.5274 N   0  0  0  0  0  0  0  0  0  0  0  0
  112.0654  -77.5106  -84.2938 O   0  0  0  0  0  0  0  0  0  0  0  0
  111.4982  -76.2059  -83.8515 C   0  0  2  0  0  0  0  0  0  0  0  0
  111.8209  -77.7058  -85.5308 C   0  0  1  0  0  0  0  0  0  0  0  0
  112.4035  -79.0058  -85.8627 C   0  0  0  0  0  0  0  0  0  0  0  0
  112.2297  -79.3924  -87.2389 C   0  0  2  0  0  0  0  0  0  0  0  0
  111.5634  -78.5740  -88.1843 C   0  0  0  0  0  0  0  0  0  0  0  0
  110.9988  -77.2972  -87.7885 C   0  0  0  0  0  0  0  0  0  0  0  0
  111.1483  -76.8961  -86.4112 C   0  0  2  0  0  0  0  0  0  0  0  0
  110.5186  -75.5633  -86.0810 C   0  0  1  0  0  0  0  0  0  0  0  0
  110.8017  -75.3696  -84.7170 C   0  0  2  0  0  0  0  0  0  0  0  0
  110.2675  -74.1040  -84.2092 C   0  0  0  0  0  0  0  0  0  0  0  0
  110.5350  -73.8441  -82.8296 C   0  0  0  0  0  0  0  0  0  0  0  0
  109.8439  -74.7963  -87.0118 C   0  0  0  0  0  0  0  0  0  0  0  0
  108.7881  -75.2480  -87.8375 C   0  0  0  0  0  0  0  0  0  0  0  0
  108.0844  -74.4834  -88.7697 C   0  0  0  0  0  0  0  0  0  0  0  0
  108.4239  -73.0801  -88.9522 C   0  0  0  0  0  0  0  0  0  0  0  0
  109.4905  -72.6627  -88.1204 C   0  0  0  0  0  0  0  0  0  0  0  0
  110.2254  -73.3940  -87.1770 C   0  0  0  0  0  0  0  0  0  0  0  0
  111.0054  -73.0379  -80.1860 C   0  0  0  0  0  0  0  0  0  0  0  0
  112.0503  -75.1594  -79.6329 C   0  0  0  0  0  0  0  0  0  0  0  0
  113.0483  -81.3375  -88.8119 C   0  0  0  0  0  0  0  0  0  0  0  0
  113.1893  -81.5103  -86.3594 C   0  0  0  0  0  0  0  0  0  0  0  0
  1  2  1  1  0  0  0
  1  3  1  0  0  0  0
  1 16  1  0  0  0  0
  2 23  1  0  0  0  0
  2 24  1  0  0  0  0
  4 25  1  0  0  0  0
  4 26  1  0  0  0  0
  5  6  1  0  0  0  0
  6  3  1  6  0  0  0
  6 14  1  0  0  0  0
  7  5  1  1  0  0  0
  7  8  1  0  0  0  0
  7 12  1  0  0  0  0
  8  9  1  0  0  0  0
  9  4  1  1  0  0  0
  9 10  1  0  0  0  0
 10 11  1  0  0  0  0
 12 11  1  6  0  0  0
 12 13  1  0  0  0  0
 13 14  1  0  0  0  0
 13 17  1  6  0  0  0
 14 15  1  6  0  0  0
 15 16  1  0  0  0  0
 17 18  1  0  0  0  0
 17 22  1  0  0  0  0
 18 19  1  0  0  0  0
 19 20  1  0  0  0  0
 20 21  1  0  0  0  0
 21 22  1  0  0  0  0
M  END
>  <CHROM.1>
175.17509299,-167.30271984,52.52908303,111.11798103,-76.31212925,-85.39054263
-1.85081427,1.04154826,-2.08363935

>  <Name>
ligand

>  <RI>
0

>  <Rbt.Current_Directory>
/home/itssahil/PROJECTS/Mol_Feturizer/Test_systems_manuscript/rnas/1f1t

>  <Rbt.Executable>
rbdock ($Id: //depot/dev/client3/rdock/2013.1/src/exe/rbdock.cxx#4 $)

>  <Rbt.Library>
libRbt.so (2013.1, Build901 2013/11/27)

>  <Rbt.Parameter_File>
/export/apps/rDock/src/rDock_2013.1_src/data/scripts/dock_solv.prm

>  <Rbt.Receptor>
prm/pocket_docking_5.prm

>  <SCORE>
-53.2996

>  <SCORE.INTER>
-55.8774

>  <SCORE.INTER.CONST>
1

>  <SCORE.INTER.POLAR>
0

>  <SCORE.INTER.ROT>
3

>  <SCORE.INTER.SOLV>
8.95019

>  <SCORE.INTER.VDW>
-45.835

>  <SCORE.INTER.norm>
-2.14913

>  <SCORE.INTRA>
2.57785

>  <SCORE.INTRA.DIHEDRAL>
-0.000244723

>  <SCORE.INTRA.DIHEDRAL.0>
3.60016

>  <SCORE.INTRA.POLAR>
0

>  <SCORE.INTRA.POLAR.0>
0

>  <SCORE.INTRA.REPUL>
0

>  <SCORE.INTRA.REPUL.0>
0

>  <SCORE.INTRA.SOLV>
-0.000955826

>  <SCORE.INTRA.SOLV.lig_0>
-10.9882

>  <SCORE.INTRA.VDW>
2.57845

>  <SCORE.INTRA.VDW.0>
1.84442

>  <SCORE.INTRA.norm>
0.099148

>  <SCORE.RESTR>
0

>  <SCORE.RESTR.CAVITY>
0

>  <SCORE.RESTR.norm>
0

>  <SCORE.SYSTEM>
0

>  <SCORE.SYSTEM.CONST>
0

>  <SCORE.SYSTEM.DIHEDRAL>
0

>  <SCORE.SYSTEM.SOLV>
0

>  <SCORE.SYSTEM.norm>
0

>  <SCORE.heavy>
26

>  <SCORE.norm>
-2.04998

>  <RMSD>
0.701

$$$$
ligand
 OpenBabel02271912153D
libRbt.so/2013.1/901 2013/11/27
 26 29  0  0  0  0  0  0  0  0999 V2000
  112.2394  -79.4664  -87.1255 C   0  0  1  0  0  0  0  0  0  0  0  0
  112.7593  -80.6899  -87.5226 N   0  0  0  0  0  0  0  0  0  0  0  0
  112.3706  -79.0339  -85.7420 C   0  0  0  0  0  0  0  0  0  0  0  0
  111.3304  -74.4210  -80.6636 N   0  0  0  0  0  0  0  0  0  0  0  0
  111.9562  -77.3922  -84.0737 O   0  0  0  0  0  0  0  0  0  0  0  0
  111.7948  -77.7848  -85.5018 C   0  0  2  0  0  0  0  0  0  0  0  0
  111.4182  -76.2550  -83.8612 C   0  0  1  0  0  0  0  0  0  0  0  0
  111.6383  -75.9564  -82.4463 C   0  0  0  0  0  0  0  0  0  0  0  0
  111.0837  -74.6980  -82.0191 C   0  0  2  0  0  0  0  0  0  0  0  0
  110.3775  -73.8372  -82.8955 C   0  0  0  0  0  0  0  0  0  0  0  0
  110.2012  -74.1878  -84.2925 C   0  0  0  0  0  0  0  0  0  0  0  0
  110.7611  -75.4373  -84.7459 C   0  0  2  0  0  0  0  0  0  0  0  0
  110.5463  -75.7170  -86.2148 C   0  0  1  0  0  0  0  0  0  0  0  0
  111.1447  -76.9724  -86.4243 C   0  0  2  0  0  0  0  0  0  0  0  0
  111.0292  -77.4222  -87.8133 C   0  0  0  0  0  0  0  0  0  0  0  0
  111.6081  -78.7001  -88.0859 C   0  0  0  0  0  0  0  0  0  0  0  0
  109.8829  -74.8471  -87.0593 C   0  0  0  0  0  0  0  0  0  0  0  0
  108.7864  -75.1830  -87.8872 C   0  0  0  0  0  0  0  0  0  0  0  0
  108.0939  -74.3141  -88.7325 C   0  0  0  0  0  0  0  0  0  0  0  0
  108.4917  -72.9165  -88.8098 C   0  0  0  0  0  0  0  0  0  0  0  0
  109.5977  -72.6157  -87.9789 C   0  0  0  0  0  0  0  0  0  0  0  0
  110.3232  -73.4537  -87.1208 C   0  0  0  0  0  0  0  0  0  0  0  0
  112.8204  -81.0893  -88.9258 C   0  0  0  0  0  0  0  0  0  0  0  0
  113.3177  -81.7346  -86.6379 C   0  0  0  0  0  0  0  0  0  0  0  0
  111.9949  -75.2123  -79.6040 C   0  0  0  0  0  0  0  0  0  0  0  0
  110.8749  -73.0853  -80.1388 C   0  0  0  0  0  0  0  0  0  0  0  0
  1  2  1  6  0  0  0
  1  3  1  0  0  0  0
  1 16  1  0  0  0  0
  2 23  1  0  0  0  0
  2 24  1  0  0  0  0
  4 25  1  0  0  0  0
  4 26  1  0  0  0  0
  5  6  1  0  0  0  0
  6  3  1  1  0  0  0
  6 14  1  0  0  0  0
  7  5  1  6  0  0  0
  7  8  1  0  0  0  0
  7 12  1  0  0  0  0
  8  9  1  0  0  0  0
  9  4  1  6  0  0  0
  9 10  1  0  0  0  0
 10 11  1  0  0  0  0
 12 11  1  1  0  0  0
 12 13  1  0  0  0  0
 13 14  1  0  0  0  0
 13 17  1  1  0  0  0
 14 15  1  1  0  0  0
 15 16  1  0  0  0  0
 17 18  1  0  0  0  0
 17 22  1  0  0  0  0
 18 19  1  0  0  0  0
 19 20  1  0  0  0  0
 20 21  1  0  0  0  0
 21 22  1  0  0  0  0
M  END
>  <CHROM.1>
-171.33797963,-3.20294183,-126.57136090,111.08559216,-76.33231334,-85.38062097
-1.25014635,-1.05543315,1.08757606

>  <Name>
ligand

>  <RI>
0

>  <Rbt.Current_Directory>
/home/itssahil/PROJECTS/Mol_Feturizer/Test_systems_manuscript/rnas/1f1t

>  <Rbt.Executable>
rbdock ($Id: //depot/dev/client3/rdock/2013.1/src/exe/rbdock.cxx#4 $)

>  <Rbt.Library>
libRbt.so (2013.1, Build901 2013/11/27)

>  <Rbt.Parameter_File>
/export/apps/rDock/src/rDock_2013.1_src/data/scripts/dock_solv.prm

>  <Rbt.Receptor>
prm/pocket_docking_5.prm

>  <SCORE>
-55.8174

>  <SCORE.INTER>
-56.3088

>  <SCORE.INTER.CONST>
1

>  <SCORE.INTER.POLAR>
0

>  <SCORE.INTER.ROT>
3

>  <SCORE.INTER.SOLV>
8.91843

>  <SCORE.INTER.VDW>
-46.112

>  <SCORE.INTER.norm>
-2.16572

>  <SCORE.INTRA>
0.491318

>  <SCORE.INTRA.DIHEDRAL>
2.52938e-06

>  <SCORE.INTRA.DIHEDRAL.0>
3.60016

>  <SCORE.INTRA.POLAR>
0

>  <SCORE.INTRA.POLAR.0>
0

>  <SCORE.INTRA.REPUL>
0

>  <SCORE.INTRA.REPUL.0>
0

>  <SCORE.INTRA.SOLV>
2.96574e-05

>  <SCORE.INTRA.SOLV.lig_0>
-10.9882

>  <SCORE.INTRA.VDW>
0.491302

>  <SCORE.INTRA.VDW.0>
1.84442

>  <SCORE.INTRA.norm>
0.0188968

>  <SCORE.RESTR>
0

>  <SCORE.RESTR.CAVITY>
0

>  <SCORE.RESTR.norm>
0

>  <SCORE.SYSTEM>
0

>  <SCORE.SYSTEM.CONST>
0

>  <SCORE.SYSTEM.DIHEDRAL>
0

>  <SCORE.SYSTEM.SOLV>
0

>  <SCORE.SYSTEM.norm>
0

>  <SCORE.heavy>
26

>  <SCORE.norm>
-2.14682

>  <RMSD>
0.701

$$$$
ligand
 OpenBabel02271912153D
libRbt.so/2013.1/901 2013/11/27
 26 29  0  0  0  0  0  0  0  0999 V2000
  112.2199  -79.4381  -87.0893 C   0  0  1  0  0  0  0  0  0  0  0  0
  112.7204  -80.6720  -87.4797 N   0  0  0  0  0  0  0  0  0  0  0  0
  112.3489  -79.0047  -85.7059 C   0  0  0  0  0  0  0  0  0  0  0  0
  111.3560  -74.3609  -80.6462 N   0  0  0  0  0  0  0  0  0  0  0  0
  111.9524  -77.3516  -84.0446 O   0  0  0  0  0  0  0  0  0  0  0  0
  111.7943  -77.7447  -85.4729 C   0  0  2  0  0  0  0  0  0  0  0  0
  111.4336  -76.2042  -83.8388 C   0  0  1  0  0  0  0  0  0  0  0  0
  111.6488  -75.9061  -82.4230 C   0  0  0  0  0  0  0  0  0  0  0  0
  111.1142  -74.6367  -82.0029 C   0  0  2  0  0  0  0  0  0  0  0  0
  110.4301  -73.7654  -82.8864 C   0  0  0  0  0  0  0  0  0  0  0  0
  110.2577  -74.1163  -84.2839 C   0  0  0  0  0  0  0  0  0  0  0  0
  110.7981  -75.3769  -84.7302 C   0  0  2  0  0  0  0  0  0  0  0  0
  110.5889  -75.6563  -86.2000 C   0  0  1  0  0  0  0  0  0  0  0  0
  111.1658  -76.9230  -86.4021 C   0  0  2  0  0  0  0  0  0  0  0  0
  111.0523  -77.3741  -87.7908 C   0  0  0  0  0  0  0  0  0  0  0  0
  111.6098  -78.6630  -88.0562 C   0  0  0  0  0  0  0  0  0  0  0  0
  109.9476  -74.7767  -87.0514 C   0  0  0  0  0  0  0  0  0  0  0  0
  110.2860  -73.4154  -87.2324 C   0  0  0  0  0  0  0  0  0  0  0  0
  109.6611  -72.5178  -88.1000 C   0  0  0  0  0  0  0  0  0  0  0  0
  108.5499  -72.9693  -88.9241 C   0  0  0  0  0  0  0  0  0  0  0  0
  108.2292  -74.3316  -88.7113 C   0  0  0  0  0  0  0  0  0  0  0  0
  108.8245  -75.2648  -87.8513 C   0  0  0  0  0  0  0  0  0  0  0  0
  113.2639  -81.6287  -86.5197 C   0  0  0  0  0  0  0  0  0  0  0  0
  112.7750  -81.1998  -88.8596 C   0  0  0  0  0  0  0  0  0  0  0  0
  111.0551  -73.1733  -79.8160 C   0  0  0  0  0  0  0  0  0  0  0  0
  112.0246  -75.4369  -79.8325 C   0  0  0  0  0  0  0  0  0  0  0  0
  1  2  1  6  0  0  0
  1  3  1  0  0  0  0
  1 16  1  0  0  0  0
  2 23  1  0  0  0  0
  2 24  1  0  0  0  0
  4 25  1  0  0  0  0
  4 26  1  0  0  0  0
  5  6  1  0  0  0  0
  6  3  1  1  0  0  0
  6 14  1  0  0  0  0
  7  5  1  6  0  0  0
  7  8  1  0  0  0  0
  7 12  1  0  0  0  0
  8  9  1  0  0  0  0
  9  4  1  6  0  0  0
  9 10  1  0  0  0  0
 10 11  1  0  0  0  0
 12 11  1  1  0  0  0
 12 13  1  0  0  0  0
 13 14  1  0  0  0  0
 13 17  1  1  0  0  0
 14 15  1  1  0  0  0
 15 16  1  0  0  0  0
 17 18  1  0  0  0  0
 17 22  1  0  0  0  0
 18 19  1  0  0  0  0
 19 20  1  0  0  0  0
 20 21  1  0  0  0  0
 21 22  1  0  0  0  0
M  END
>  <CHROM.1>
6.26131577,176.62339073,53.74010958,111.11051590,-76.31562308,-85.36393653
-1.28206917,-1.07117735,1.07949035

>  <Name>
ligand

>  <RI>
0

>  <Rbt.Current_Directory>
/home/itssahil/PROJECTS/Mol_Feturizer/Test_systems_manuscript/rnas/1f1t

>  <Rbt.Executable>
rbdock ($Id: //depot/dev/client3/rdock/2013.1/src/exe/rbdock.cxx#4 $)

>  <Rbt.Library>
libRbt.so (2013.1, Build901 2013/11/27)

>  <Rbt.Parameter_File>
/export/apps/rDock/src/rDock_2013.1_src/data/scripts/dock_solv.prm

>  <Rbt.Receptor>
prm/pocket_docking_2.prm

>  <SCORE>
-54.0193

>  <SCORE.INTER>
-56.5291

>  <SCORE.INTER.CONST>
1

>  <SCORE.INTER.POLAR>
0

>  <SCORE.INTER.ROT>
3

>  <SCORE.INTER.SOLV>
8.98038

>  <SCORE.INTER.VDW>
-46.2795

>  <SCORE.INTER.norm>
-2.17419

>  <SCORE.INTRA>
2.50973

>  <SCORE.INTRA.DIHEDRAL>
-0.000311698

>  <SCORE.INTRA.DIHEDRAL.0>
3.60016

>  <SCORE.INTRA.POLAR>
0

>  <SCORE.INTRA.POLAR.0>
0

>  <SCORE.INTRA.REPUL>
0

>  <SCORE.INTRA.REPUL.0>
0

>  <SCORE.INTRA.SOLV>
-0.000974036

>  <SCORE.INTRA.SOLV.lig_0>
-10.9882

>  <SCORE.INTRA.VDW>
2.51037

>  <SCORE.INTRA.VDW.0>
1.84442

>  <SCORE.INTRA.norm>
0.096528

>  <SCORE.RESTR>
0

>  <SCORE.RESTR.CAVITY>
0

>  <SCORE.RESTR.norm>
0

>  <SCORE.SYSTEM>
0

>  <SCORE.SYSTEM.CONST>
0

>  <SCORE.SYSTEM.DIHEDRAL>
0

>  <SCORE.SYSTEM.SOLV>
0

>  <SCORE.SYSTEM.norm>
0

>  <SCORE.heavy>
26

>  <SCORE.norm>
-2.07767

>  <RMSD>
0.702

$$$$
ligand
 OpenBabel02271912153D
libRbt.so/2013.1/901 2013/11/27
 26 29  0  0  0  0  0  0  0  0999 V2000
  111.2035  -74.7283  -81.9931 C   0  0  1  0  0  0  0  0  0  0  0  0
  111.3845  -74.3659  -80.6661 N   0  0  0  0  0  0  0  0  0  0  0  0
  111.7310  -75.9942  -82.4807 C   0  0  0  0  0  0  0  0  0  0  0  0
  112.7457  -80.6453  -87.5293 N   0  0  0  0  0  0  0  0  0  0  0  0
  112.0308  -77.5171  -84.2809 O   0  0  0  0  0  0  0  0  0  0  0  0
  111.4693  -76.2111  -83.8349 C   0  0  2  0  0  0  0  0  0  0  0  0
  111.7962  -77.7020  -85.5214 C   0  0  1  0  0  0  0  0  0  0  0  0
  112.3720  -79.0041  -85.8568 C   0  0  0  0  0  0  0  0  0  0  0  0
  112.2081  -79.3801  -87.2372 C   0  0  2  0  0  0  0  0  0  0  0  0
  111.5567  -78.5503  -88.1830 C   0  0  0  0  0  0  0  0  0  0  0  0
  110.9981  -77.2719  -87.7837 C   0  0  0  0  0  0  0  0  0  0  0  0
  111.1379  -76.8813  -86.4023 C   0  0  2  0  0  0  0  0  0  0  0  0
  110.5152  -75.5460  -86.0688 C   0  0  1  0  0  0  0  0  0  0  0  0
  110.7871  -75.3637  -84.7010 C   0  0  2  0  0  0  0  0  0  0  0  0
  110.2578  -74.0976  -84.1894 C   0  0  0  0  0  0  0  0  0  0  0  0
  110.5145  -73.8491  -82.8057 C   0  0  0  0  0  0  0  0  0  0  0  0
  109.8549  -74.7677  -87.0006 C   0  0  0  0  0  0  0  0  0  0  0  0
  108.8123  -75.2092  -87.8482 C   0  0  0  0  0  0  0  0  0  0  0  0
  108.1231  -74.4333  -88.7818 C   0  0  0  0  0  0  0  0  0  0  0  0
  108.4648  -73.0278  -88.9415 C   0  0  0  0  0  0  0  0  0  0  0  0
  109.5181  -72.6205  -88.0879 C   0  0  0  0  0  0  0  0  0  0  0  0
  110.2384  -73.3633  -87.1423 C   0  0  0  0  0  0  0  0  0  0  0  0
  110.9711  -73.0625  -80.1536 C   0  0  0  0  0  0  0  0  0  0  0  0
  111.9859  -75.1992  -79.6032 C   0  0  0  0  0  0  0  0  0  0  0  0
  112.9542  -81.3520  -88.8128 C   0  0  0  0  0  0  0  0  0  0  0  0
  113.2309  -81.4728  -86.3688 C   0  0  0  0  0  0  0  0  0  0  0  0
  1  2  1  1  0  0  0
  1  3  1  0  0  0  0
  1 16  1  0  0  0  0
  2 23  1  0  0  0  0
  2 24  1  0  0  0  0
  4 25  1  0  0  0  0
  4 26  1  0  0  0  0
  5  6  1  0  0  0  0
  6  3  1  6  0  0  0
  6 14  1  0  0  0  0
  7  5  1  1  0  0  0
  7  8  1  0  0  0  0
  7 12  1  0  0  0  0
  8  9  1  0  0  0  0
  9  4  1  1  0  0  0
  9 10  1  0  0  0  0
 10 11  1  0  0  0  0
 12 11  1  6  0  0  0
 12 13  1  0  0  0  0
 13 14  1  0  0  0  0
 13 17  1  6  0  0  0
 14 15  1  6  0  0  0
 15 16  1  0  0  0  0
 17 18  1  0  0  0  0
 17 22  1  0  0  0  0
 18 19  1  0  0  0  0
 19 20  1  0  0  0  0
 20 21  1  0  0  0  0
 21 22  1  0  0  0  0
M  END
>  <CHROM.1>
174.93984379,-171.39094254,51.86385734,111.10308969,-76.30373391,-85.37808323
-1.85808638,1.05135563,-2.07057838

>  <Name>
ligand

>  <RI>
0

>  <Rbt.Current_Directory>
/home/itssahil/PROJECTS/Mol_Feturizer/Test_systems_manuscript/rnas/1f1t

>  <Rbt.Executable>
rbdock ($Id: //depot/dev/client3/rdock/2013.1/src/exe/rbdock.cxx#4 $)

>  <Rbt.Library>
libRbt.so (2013.1, Build901 2013/11/27)

>  <Rbt.Parameter_File>
/export/apps/rDock/src/rDock_2013.1_src/data/scripts/dock_solv.prm

>  <Rbt.Receptor>
prm/pocket_docking_2.prm

>  <SCORE>
-53.4073

>  <SCORE.INTER>
-56.1756

>  <SCORE.INTER.CONST>
1

>  <SCORE.INTER.POLAR>
0

>  <SCORE.INTER.ROT>
3

>  <SCORE.INTER.SOLV>
8.96151

>  <SCORE.INTER.VDW>
-46.0376

>  <SCORE.INTER.norm>
-2.1606

>  <SCORE.INTRA>
2.76828

>  <SCORE.INTRA.DIHEDRAL>
-0.000280514

>  <SCORE.INTRA.DIHEDRAL.0>
3.60016

>  <SCORE.INTRA.POLAR>
0

>  <SCORE.INTRA.POLAR.0>
0

>  <SCORE.INTRA.REPUL>
0

>  <SCORE.INTRA.REPUL.0>
0

>  <SCORE.INTRA.SOLV>
-0.000974187

>  <SCORE.INTRA.SOLV.lig_0>
-10.9882

>  <SCORE.INTRA.VDW>
2.76891

>  <SCORE.INTRA.VDW.0>
1.84442

>  <SCORE.INTRA.norm>
0.106472

>  <SCORE.RESTR>
0

>  <SCORE.RESTR.CAVITY>
0

>  <SCORE.RESTR.norm>
0

>  <SCORE.SYSTEM>
0

>  <SCORE.SYSTEM.CONST>
0

>  <SCORE.SYSTEM.DIHEDRAL>
0

>  <SCORE.SYSTEM.SOLV>
0

>  <SCORE.SYSTEM.norm>
0

>  <SCORE.heavy>
26

>  <SCORE.norm>
-2.05413

>  <RMSD>
0.702

$$$$
ligand
 OpenBabel02271912153D
libRbt.so/2013.1/901 2013/11/27
 26 29  0  0  0  0  0  0  0  0999 V2000
  111.1464  -74.7306  -82.0109 C   0  0  1  0  0  0  0  0  0  0  0  0
  111.3258  -74.3635  -80.6849 N   0  0  0  0  0  0  0  0  0  0  0  0
  111.6899  -75.9901  -82.4976 C   0  0  0  0  0  0  0  0  0  0  0  0
  112.7553  -80.6358  -87.5406 N   0  0  0  0  0  0  0  0  0  0  0  0
  112.0059  -77.5119  -84.2959 O   0  0  0  0  0  0  0  0  0  0  0  0
  111.4279  -76.2129  -83.8507 C   0  0  2  0  0  0  0  0  0  0  0  0
  111.7709  -77.7021  -85.5354 C   0  0  1  0  0  0  0  0  0  0  0  0
  112.3635  -78.9969  -85.8701 C   0  0  0  0  0  0  0  0  0  0  0  0
  112.2013  -79.3775  -87.2494 C   0  0  2  0  0  0  0  0  0  0  0  0
  111.5364  -78.5583  -88.1951 C   0  0  0  0  0  0  0  0  0  0  0  0
  110.9614  -77.2869  -87.7966 C   0  0  0  0  0  0  0  0  0  0  0  0
  111.0993  -76.8920  -86.4162 C   0  0  2  0  0  0  0  0  0  0  0  0
  110.4593  -75.5647  -86.0834 C   0  0  1  0  0  0  0  0  0  0  0  0
  110.7321  -75.3764  -84.7166 C   0  0  2  0  0  0  0  0  0  0  0  0
  110.1869  -74.1167  -84.2059 C   0  0  0  0  0  0  0  0  0  0  0  0
  110.4436  -73.8622  -82.8232 C   0  0  0  0  0  0  0  0  0  0  0  0
  109.7862  -74.7970  -87.0149 C   0  0  0  0  0  0  0  0  0  0  0  0
  108.7073  -75.2376  -87.8162 C   0  0  0  0  0  0  0  0  0  0  0  0
  108.0051  -74.4716  -88.7485 C   0  0  0  0  0  0  0  0  0  0  0  0
  108.3721  -73.0791  -88.9580 C   0  0  0  0  0  0  0  0  0  0  0  0
  109.4613  -72.6730  -88.1501 C   0  0  0  0  0  0  0  0  0  0  0  0
  110.1956  -73.4061  -87.2077 C   0  0  0  0  0  0  0  0  0  0  0  0
  110.9116  -73.0583  -80.1776 C   0  0  0  0  0  0  0  0  0  0  0  0
  111.9261  -75.1929  -79.6184 C   0  0  0  0  0  0  0  0  0  0  0  0
  112.9976  -81.3294  -88.8254 C   0  0  0  0  0  0  0  0  0  0  0  0
  113.2215  -81.4698  -86.3770 C   0  0  0  0  0  0  0  0  0  0  0  0
  1  2  1  1  0  0  0
  1  3  1  0  0  0  0
  1 16  1  0  0  0  0
  2 23  1  0  0  0  0
  2 24  1  0  0  0  0
  4 25  1  0  0  0  0
  4 26  1  0  0  0  0
  5  6  1  0  0  0  0
  6  3  1  6  0  0  0
  6 14  1  0  0  0  0
  7  5  1  1  0  0  0
  7  8  1  0  0  0  0
  7 12  1  0  0  0  0
  8  9  1  0  0  0  0
  9  4  1  1  0  0  0
  9 10  1  0  0  0  0
 10 11  1  0  0  0  0
 12 11  1  6  0  0  0
 12 13  1  0  0  0  0
 13 14  1  0  0  0  0
 13 17  1  6  0  0  0
 14 15  1  6  0  0  0
 15 16  1  0  0  0  0
 17 18  1  0  0  0  0
 17 22  1  0  0  0  0
 18 19  1  0  0  0  0
 19 20  1  0  0  0  0
 20 21  1  0  0  0  0
 21 22  1  0  0  0  0
M  END
>  <CHROM.1>
174.13594533,-169.83004348,54.91428601,111.05938391,-76.31327957,-85.39311946
-1.86739013,1.03920863,-2.06381734

>  <Name>
ligand

>  <RI>
0

>  <Rbt.Current_Directory>
/home/itssahil/PROJECTS/Mol_Feturizer/Test_systems_manuscript/rnas/1f1t

>  <Rbt.Executable>
rbdock ($Id: //depot/dev/client3/rdock/2013.1/src/exe/rbdock.cxx#4 $)

>  <Rbt.Library>
libRbt.so (2013.1, Build901 2013/11/27)

>  <Rbt.Parameter_File>
/export/apps/rDock/src/rDock_2013.1_src/data/scripts/dock_solv.prm

>  <Rbt.Receptor>
prm/pocket_docking_5.prm

>  <SCORE>
-53.3602

>  <SCORE.INTER>
-55.9871

>  <SCORE.INTER.CONST>
1

>  <SCORE.INTER.POLAR>
0

>  <SCORE.INTER.ROT>
3

>  <SCORE.INTER.SOLV>
8.92259

>  <SCORE.INTER.VDW>
-45.8989

>  <SCORE.INTER.norm>
-2.15335

>  <SCORE.INTRA>
2.62689

>  <SCORE.INTRA.DIHEDRAL>
-0.000260428

>  <SCORE.INTRA.DIHEDRAL.0>
3.60016

>  <SCORE.INTRA.POLAR>
0

>  <SCORE.INTRA.POLAR.0>
0

>  <SCORE.INTRA.REPUL>
0

>  <SCORE.INTRA.REPUL.0>
0

>  <SCORE.INTRA.SOLV>
-0.000963662

>  <SCORE.INTRA.SOLV.lig_0>
-10.9882

>  <SCORE.INTRA.VDW>
2.6275

>  <SCORE.INTRA.VDW.0>
1.84442

>  <SCORE.INTRA.norm>
0.101034

>  <SCORE.RESTR>
0

>  <SCORE.RESTR.CAVITY>
0

>  <SCORE.RESTR.norm>
0

>  <SCORE.SYSTEM>
0

>  <SCORE.SYSTEM.CONST>
0

>  <SCORE.SYSTEM.DIHEDRAL>
0

>  <SCORE.SYSTEM.SOLV>
0

>  <SCORE.SYSTEM.norm>
0

>  <SCORE.heavy>
26

>  <SCORE.norm>
-2.05231

>  <RMSD>
0.702

$$$$
ligand
 OpenBabel02271912153D
libRbt.so/2013.1/901 2013/11/27
 26 29  0  0  0  0  0  0  0  0999 V2000
  112.2521  -79.4655  -87.1048 C   0  0  1  0  0  0  0  0  0  0  0  0
  112.7758  -80.6896  -87.4952 N   0  0  0  0  0  0  0  0  0  0  0  0
  112.3776  -79.0272  -85.7226 C   0  0  0  0  0  0  0  0  0  0  0  0
  111.3106  -74.3962  -80.6664 N   0  0  0  0  0  0  0  0  0  0  0  0
  111.9541  -77.3798  -84.0624 O   0  0  0  0  0  0  0  0  0  0  0  0
  111.7986  -77.7783  -85.4895 C   0  0  2  0  0  0  0  0  0  0  0  0
  111.4131  -76.2428  -83.8564 C   0  0  1  0  0  0  0  0  0  0  0  0
  111.6277  -75.9380  -82.4419 C   0  0  0  0  0  0  0  0  0  0  0  0
  111.0692  -74.6790  -82.0217 C   0  0  2  0  0  0  0  0  0  0  0  0
  110.3644  -73.8231  -82.9039 C   0  0  0  0  0  0  0  0  0  0  0  0
  110.1937  -74.1797  -84.3002 C   0  0  0  0  0  0  0  0  0  0  0  0
  110.7577  -75.4298  -84.7466 C   0  0  2  0  0  0  0  0  0  0  0  0
  110.5486  -75.7158  -86.2151 C   0  0  1  0  0  0  0  0  0  0  0  0
  111.1502  -76.9709  -86.4175 C   0  0  2  0  0  0  0  0  0  0  0  0
  111.0405  -77.4265  -87.8050 C   0  0  0  0  0  0  0  0  0  0  0  0
  111.6228  -78.7043  -88.0706 C   0  0  0  0  0  0  0  0  0  0  0  0
  109.8865  -74.8506  -87.0655 C   0  0  0  0  0  0  0  0  0  0  0  0
  108.7954  -75.1925  -87.8979 C   0  0  0  0  0  0  0  0  0  0  0  0
  108.1042  -74.3285  -88.7491 C   0  0  0  0  0  0  0  0  0  0  0  0
  108.4976  -72.9297  -88.8284 C   0  0  0  0  0  0  0  0  0  0  0  0
  109.5983  -72.6228  -87.9928 C   0  0  0  0  0  0  0  0  0  0  0  0
  110.3223  -73.4558  -87.1287 C   0  0  0  0  0  0  0  0  0  0  0  0
  113.2793  -81.6625  -86.5296 C   0  0  0  0  0  0  0  0  0  0  0  0
  112.8963  -81.1905  -88.8810 C   0  0  0  0  0  0  0  0  0  0  0  0
  111.9212  -75.2044  -79.5874 C   0  0  0  0  0  0  0  0  0  0  0  0
  110.9134  -73.0331  -80.1652 C   0  0  0  0  0  0  0  0  0  0  0  0
  1  2  1  6  0  0  0
  1  3  1  0  0  0  0
  1 16  1  0  0  0  0
  2 23  1  0  0  0  0
  2 24  1  0  0  0  0
  4 25  1  0  0  0  0
  4 26  1  0  0  0  0
  5  6  1  0  0  0  0
  6  3  1  1  0  0  0
  6 14  1  0  0  0  0
  7  5  1  6  0  0  0
  7  8  1  0  0  0  0
  7 12  1  0  0  0  0
  8  9  1  0  0  0  0
  9  4  1  6  0  0  0
  9 10  1  0  0  0  0
 10 11  1  0  0  0  0
 12 11  1  1  0  0  0
 12 13  1  0  0  0  0
 13 14  1  0  0  0  0
 13 17  1  1  0  0  0
 14 15  1  1  0  0  0
 15 16  1  0  0  0  0
 17 18  1  0  0  0  0
 17 22  1  0  0  0  0
 18 19  1  0  0  0  0
 19 20  1  0  0  0  0
 20 21  1  0  0  0  0
 21 22  1  0  0  0  0
M  END
>  <CHROM.1>
9.48005746,-6.20301107,-126.70869308,111.08658860,-76.32788664,-85.37260213
-1.24108425,-1.05712823,1.08926576

>  <Name>
ligand

>  <RI>
0

>  <Rbt.Current_Directory>
/home/itssahil/PROJECTS/Mol_Feturizer/Test_systems_manuscript/rnas/1f1t

>  <Rbt.Executable>
rbdock ($Id: //depot/dev/client3/rdock/2013.1/src/exe/rbdock.cxx#4 $)

>  <Rbt.Library>
libRbt.so (2013.1, Build901 2013/11/27)

>  <Rbt.Parameter_File>
/export/apps/rDock/src/rDock_2013.1_src/data/scripts/dock_solv.prm

>  <Rbt.Receptor>
prm/pocket_docking_2.prm

>  <SCORE>
-56.0437

>  <SCORE.INTER>
-56.2071

>  <SCORE.INTER.CONST>
1

>  <SCORE.INTER.POLAR>
0

>  <SCORE.INTER.ROT>
3

>  <SCORE.INTER.SOLV>
8.92831

>  <SCORE.INTER.VDW>
-46.0475

>  <SCORE.INTER.norm>
-2.16181

>  <SCORE.INTRA>
0.163459

>  <SCORE.INTRA.DIHEDRAL>
-2.11096e-05

>  <SCORE.INTRA.DIHEDRAL.0>
3.60016

>  <SCORE.INTRA.POLAR>
0

>  <SCORE.INTRA.POLAR.0>
0

>  <SCORE.INTRA.REPUL>
0

>  <SCORE.INTRA.REPUL.0>
0

>  <SCORE.INTRA.SOLV>
3.97269e-05

>  <SCORE.INTRA.SOLV.lig_0>
-10.9882

>  <SCORE.INTRA.VDW>
0.16345

>  <SCORE.INTRA.VDW.0>
1.84442

>  <SCORE.INTRA.norm>
0.00628689

>  <SCORE.RESTR>
0

>  <SCORE.RESTR.CAVITY>
0

>  <SCORE.RESTR.norm>
0

>  <SCORE.SYSTEM>
0

>  <SCORE.SYSTEM.CONST>
0

>  <SCORE.SYSTEM.DIHEDRAL>
0

>  <SCORE.SYSTEM.SOLV>
0

>  <SCORE.SYSTEM.norm>
0

>  <SCORE.heavy>
26

>  <SCORE.norm>
-2.15553

>  <RMSD>
0.703

$$$$
ligand
 OpenBabel02271912153D
libRbt.so/2013.1/901 2013/11/27
 26 29  0  0  0  0  0  0  0  0999 V2000
  111.1624  -74.7033  -82.0077 C   0  0  1  0  0  0  0  0  0  0  0  0
  111.3450  -74.3396  -80.6812 N   0  0  0  0  0  0  0  0  0  0  0  0
  111.6947  -75.9668  -82.4962 C   0  0  0  0  0  0  0  0  0  0  0  0
  112.7190  -80.6147  -87.5458 N   0  0  0  0  0  0  0  0  0  0  0  0
  111.9973  -77.4888  -84.2966 O   0  0  0  0  0  0  0  0  0  0  0  0
  111.4307  -76.1855  -83.8496 C   0  0  2  0  0  0  0  0  0  0  0  0
  111.7605  -77.6753  -85.5364 C   0  0  1  0  0  0  0  0  0  0  0  0
  112.3417  -78.9748  -85.8729 C   0  0  0  0  0  0  0  0  0  0  0  0
  112.1761  -79.3520  -87.2527 C   0  0  2  0  0  0  0  0  0  0  0  0
  111.5183  -78.5256  -88.1972 C   0  0  0  0  0  0  0  0  0  0  0  0
  110.9546  -77.2498  -87.7969 C   0  0  0  0  0  0  0  0  0  0  0  0
  111.0960  -76.8581  -86.4160 C   0  0  2  0  0  0  0  0  0  0  0  0
  110.4678  -75.5257  -86.0814 C   0  0  1  0  0  0  0  0  0  0  0  0
  110.7423  -75.3417  -84.7142 C   0  0  2  0  0  0  0  0  0  0  0  0
  110.2081  -74.0779  -84.2018 C   0  0  0  0  0  0  0  0  0  0  0  0
  110.4671  -73.8277  -82.8188 C   0  0  0  0  0  0  0  0  0  0  0  0
  109.8014  -74.7508  -87.0117 C   0  0  0  0  0  0  0  0  0  0  0  0
  110.1188  -73.4134  -87.3445 C   0  0  0  0  0  0  0  0  0  0  0  0
  109.4683  -72.6222  -88.2931 C   0  0  0  0  0  0  0  0  0  0  0  0
  108.3502  -73.1730  -89.0443 C   0  0  0  0  0  0  0  0  0  0  0  0
  108.0510  -74.5078  -88.6800 C   0  0  0  0  0  0  0  0  0  0  0  0
  108.6723  -75.3355  -87.7346 C   0  0  0  0  0  0  0  0  0  0  0  0
  111.9974  -75.2210  -79.7169 C   0  0  0  0  0  0  0  0  0  0  0  0
  110.9391  -73.0618  -80.0581 C   0  0  0  0  0  0  0  0  0  0  0  0
  112.9136  -81.3272  -88.8283 C   0  0  0  0  0  0  0  0  0  0  0  0
  113.2281  -81.4318  -86.3881 C   0  0  0  0  0  0  0  0  0  0  0  0
  1  2  1  1  0  0  0
  1  3  1  0  0  0  0
  1 16  1  0  0  0  0
  2 23  1  0  0  0  0
  2 24  1  0  0  0  0
  4 25  1  0  0  0  0
  4 26  1  0  0  0  0
  5  6  1  0  0  0  0
  6  3  1  6  0  0  0
  6 14  1  0  0  0  0
  7  5  1  1  0  0  0
  7  8  1  0  0  0  0
  7 12  1  0  0  0  0
  8  9  1  0  0  0  0
  9  4  1  1  0  0  0
  9 10  1  0  0  0  0
 10 11  1  0  0  0  0
 12 11  1  6  0  0  0
 12 13  1  0  0  0  0
 13 14  1  0  0  0  0
 13 17  1  6  0  0  0
 14 15  1  6  0  0  0
 15 16  1  0  0  0  0
 17 18  1  0  0  0  0
 17 22  1  0  0  0  0
 18 19  1  0  0  0  0
 19 20  1  0  0  0  0
 20 21  1  0  0  0  0
 21 22  1  0  0  0  0
M  END
>  <CHROM.1>
-3.51980960,-172.19155711,-123.01416158,111.05689016,-76.30031928,-85.40024855
-1.83720315,1.04024279,-2.07346021

>  <Name>
ligand

>  <RI>
0

>  <Rbt.Current_Directory>
/home/itssahil/PROJECTS/Mol_Feturizer/Test_systems_manuscript/rnas/1f1t

>  <Rbt.Executable>
rbdock ($Id: //depot/dev/client3/rdock/2013.1/src/exe/rbdock.cxx#4 $)

>  <Rbt.Library>
libRbt.so (2013.1, Build901 2013/11/27)

>  <Rbt.Parameter_File>
/export/apps/rDock/src/rDock_2013.1_src/data/scripts/dock_solv.prm

>  <Rbt.Receptor>
prm/pocket_docking_2.prm

>  <SCORE>
-53.7615

>  <SCORE.INTER>
-56.2112

>  <SCORE.INTER.CONST>
1

>  <SCORE.INTER.POLAR>
0

>  <SCORE.INTER.ROT>
3

>  <SCORE.INTER.SOLV>
8.95061

>  <SCORE.INTER.VDW>
-46.0576

>  <SCORE.INTER.norm>
-2.16197

>  <SCORE.INTRA>
2.44968

>  <SCORE.INTRA.DIHEDRAL>
-0.00058994

>  <SCORE.INTRA.DIHEDRAL.0>
3.60016

>  <SCORE.INTRA.POLAR>
0

>  <SCORE.INTRA.POLAR.0>
0

>  <SCORE.INTRA.REPUL>
0

>  <SCORE.INTRA.REPUL.0>
0

>  <SCORE.INTRA.SOLV>
-0.000983008

>  <SCORE.INTRA.SOLV.lig_0>
-10.9882

>  <SCORE.INTRA.VDW>
2.45046

>  <SCORE.INTRA.VDW.0>
1.84442

>  <SCORE.INTRA.norm>
0.0942183

>  <SCORE.RESTR>
0

>  <SCORE.RESTR.CAVITY>
0

>  <SCORE.RESTR.norm>
0

>  <SCORE.SYSTEM>
0

>  <SCORE.SYSTEM.CONST>
0

>  <SCORE.SYSTEM.DIHEDRAL>
0

>  <SCORE.SYSTEM.SOLV>
0

>  <SCORE.SYSTEM.norm>
0

>  <SCORE.heavy>
26

>  <SCORE.norm>
-2.06775

>  <RMSD>
0.704

$$$$
ligand
 OpenBabel02271912153D
libRbt.so/2013.1/901 2013/11/27
 26 29  0  0  0  0  0  0  0  0999 V2000
  112.2295  -79.4679  -87.1231 C   0  0  1  0  0  0  0  0  0  0  0  0
  112.7573  -80.6898  -87.5149 N   0  0  0  0  0  0  0  0  0  0  0  0
  112.3630  -79.0259  -85.7429 C   0  0  0  0  0  0  0  0  0  0  0  0
  111.3079  -74.3900  -80.6886 N   0  0  0  0  0  0  0  0  0  0  0  0
  111.9427  -77.3773  -84.0830 O   0  0  0  0  0  0  0  0  0  0  0  0
  111.7785  -77.7799  -85.5080 C   0  0  2  0  0  0  0  0  0  0  0  0
  111.3967  -76.2429  -83.8753 C   0  0  1  0  0  0  0  0  0  0  0  0
  111.6203  -75.9339  -82.4631 C   0  0  0  0  0  0  0  0  0  0  0  0
  111.0578  -74.6772  -82.0414 C   0  0  2  0  0  0  0  0  0  0  0  0
  110.3413  -73.8273  -82.9200 C   0  0  0  0  0  0  0  0  0  0  0  0
  110.1620  -74.1879  -84.3142 C   0  0  0  0  0  0  0  0  0  0  0  0
  110.7298  -75.4358  -84.7622 C   0  0  2  0  0  0  0  0  0  0  0  0
  110.5111  -75.7262  -86.2285 C   0  0  1  0  0  0  0  0  0  0  0  0
  111.1184  -76.9782  -86.4327 C   0  0  2  0  0  0  0  0  0  0  0  0
  111.0007  -77.4375  -87.8184 C   0  0  0  0  0  0  0  0  0  0  0  0
  111.5884  -78.7125  -88.0857 C   0  0  0  0  0  0  0  0  0  0  0  0
  109.8375  -74.8667  -87.0756 C   0  0  0  0  0  0  0  0  0  0  0  0
  108.7158  -75.2062  -87.8673 C   0  0  0  0  0  0  0  0  0  0  0  0
  108.0131  -74.3474  -88.7144 C   0  0  0  0  0  0  0  0  0  0  0  0
  108.4270  -72.9574  -88.8339 C   0  0  0  0  0  0  0  0  0  0  0  0
  109.5578  -72.6530  -88.0385 C   0  0  0  0  0  0  0  0  0  0  0  0
  110.2942  -73.4811  -87.1802 C   0  0  0  0  0  0  0  0  0  0  0  0
  113.2879  -81.6511  -86.5523 C   0  0  0  0  0  0  0  0  0  0  0  0
  112.8563  -81.1994  -88.8992 C   0  0  0  0  0  0  0  0  0  0  0  0
  111.9500  -75.1845  -79.6177 C   0  0  0  0  0  0  0  0  0  0  0  0
  110.8840  -73.0373  -80.1812 C   0  0  0  0  0  0  0  0  0  0  0  0
  1  2  1  6  0  0  0
  1  3  1  0  0  0  0
  1 16  1  0  0  0  0
  2 23  1  0  0  0  0
  2 24  1  0  0  0  0
  4 25  1  0  0  0  0
  4 26  1  0  0  0  0
  5  6  1  0  0  0  0
  6  3  1  1  0  0  0
  6 14  1  0  0  0  0
  7  5  1  6  0  0  0
  7  8  1  0  0  0  0
  7 12  1  0  0  0  0
  8  9  1  0  0  0  0
  9  4  1  6  0  0  0
  9 10  1  0  0  0  0
 10 11  1  0  0  0  0
 12 11  1  1  0  0  0
 12 13  1  0  0  0  0
 13 14  1  0  0  0  0
 13 17  1  1  0  0  0
 14 15  1  1  0  0  0
 15 16  1  0  0  0  0
 17 18  1  0  0  0  0
 17 22  1  0  0  0  0
 18 19  1  0  0  0  0
 19 20  1  0  0  0  0
 20 21  1  0  0  0  0
 21 22  1  0  0  0  0
M  END
>  <CHROM.1>
8.75148350,-5.12388214,-124.60012298,111.05922317,-76.33333595,-85.38897092
-1.24886081,-1.04804518,1.08044911

>  <Name>
ligand

>  <RI>
0

>  <Rbt.Current_Directory>
/home/itssahil/PROJECTS/Mol_Feturizer/Test_systems_manuscript/rnas/1f1t

>  <Rbt.Executable>
rbdock ($Id: //depot/dev/client3/rdock/2013.1/src/exe/rbdock.cxx#4 $)

>  <Rbt.Library>
libRbt.so (2013.1, Build901 2013/11/27)

>  <Rbt.Parameter_File>
/export/apps/rDock/src/rDock_2013.1_src/data/scripts/dock_solv.prm

>  <Rbt.Receptor>
prm/pocket_docking_2.prm

>  <SCORE>
-55.995

>  <SCORE.INTER>
-56.1198

>  <SCORE.INTER.CONST>
1

>  <SCORE.INTER.POLAR>
0

>  <SCORE.INTER.ROT>
3

>  <SCORE.INTER.SOLV>
8.90429

>  <SCORE.INTER.VDW>
-45.9813

>  <SCORE.INTER.norm>
-2.15845

>  <SCORE.INTRA>
0.124756

>  <SCORE.INTRA.DIHEDRAL>
-2.13991e-05

>  <SCORE.INTRA.DIHEDRAL.0>
3.60016

>  <SCORE.INTRA.POLAR>
0

>  <SCORE.INTRA.POLAR.0>
0

>  <SCORE.INTRA.REPUL>
0

>  <SCORE.INTRA.REPUL.0>
0

>  <SCORE.INTRA.SOLV>
3.21174e-05

>  <SCORE.INTRA.SOLV.lig_0>
-10.9882

>  <SCORE.INTRA.VDW>
0.124751

>  <SCORE.INTRA.VDW.0>
1.84442

>  <SCORE.INTRA.norm>
0.00479831

>  <SCORE.RESTR>
0

>  <SCORE.RESTR.CAVITY>
0

>  <SCORE.RESTR.norm>
0

>  <SCORE.SYSTEM>
0

>  <SCORE.SYSTEM.CONST>
0

>  <SCORE.SYSTEM.DIHEDRAL>
0

>  <SCORE.SYSTEM.SOLV>
0

>  <SCORE.SYSTEM.norm>
0

>  <SCORE.heavy>
26

>  <SCORE.norm>
-2.15366

>  <RMSD>
0.704

$$$$
ligand
 OpenBabel02271912153D
libRbt.so/2013.1/901 2013/11/27
 26 29  0  0  0  0  0  0  0  0999 V2000
  112.2457  -79.4669  -87.1088 C   0  0  1  0  0  0  0  0  0  0  0  0
  112.7695  -80.6906  -87.5006 N   0  0  0  0  0  0  0  0  0  0  0  0
  112.3730  -79.0293  -85.7266 C   0  0  0  0  0  0  0  0  0  0  0  0
  111.3110  -74.4013  -80.6665 N   0  0  0  0  0  0  0  0  0  0  0  0
  111.9511  -77.3829  -84.0649 O   0  0  0  0  0  0  0  0  0  0  0  0
  111.7936  -77.7809  -85.4920 C   0  0  2  0  0  0  0  0  0  0  0  0
  111.4098  -76.2463  -83.8575 C   0  0  1  0  0  0  0  0  0  0  0  0
  111.6263  -75.9421  -82.4432 C   0  0  0  0  0  0  0  0  0  0  0  0
  111.0677  -74.6836  -82.0216 C   0  0  2  0  0  0  0  0  0  0  0  0
  110.3611  -73.8277  -82.9023 C   0  0  0  0  0  0  0  0  0  0  0  0
  110.1885  -74.1837  -84.2985 C   0  0  0  0  0  0  0  0  0  0  0  0
  110.7525  -75.4333  -84.7464 C   0  0  2  0  0  0  0  0  0  0  0  0
  110.5414  -75.7187  -86.2147 C   0  0  1  0  0  0  0  0  0  0  0  0
  111.1434  -76.9734  -86.4186 C   0  0  2  0  0  0  0  0  0  0  0  0
  111.0318  -77.4283  -87.8062 C   0  0  0  0  0  0  0  0  0  0  0  0
  111.6145  -78.7057  -88.0732 C   0  0  0  0  0  0  0  0  0  0  0  0
  109.8775  -74.8535  -87.0636 C   0  0  0  0  0  0  0  0  0  0  0  0
  108.7978  -75.2001  -87.9089 C   0  0  0  0  0  0  0  0  0  0  0  0
  108.1048  -74.3363  -88.7590 C   0  0  0  0  0  0  0  0  0  0  0  0
  108.4835  -72.9327  -88.8227 C   0  0  0  0  0  0  0  0  0  0  0  0
  109.5732  -72.6210  -87.9745 C   0  0  0  0  0  0  0  0  0  0  0  0
  110.2985  -73.4535  -87.1109 C   0  0  0  0  0  0  0  0  0  0  0  0
  112.8627  -81.0819  -88.9043 C   0  0  0  0  0  0  0  0  0  0  0  0
  113.3016  -81.7431  -86.6090 C   0  0  0  0  0  0  0  0  0  0  0  0
  111.9277  -75.2081  -79.5899 C   0  0  0  0  0  0  0  0  0  0  0  0
  110.9090  -73.0405  -80.1629 C   0  0  0  0  0  0  0  0  0  0  0  0
  1  2  1  6  0  0  0
  1  3  1  0  0  0  0
  1 16  1  0  0  0  0
  2 23  1  0  0  0  0
  2 24  1  0  0  0  0
  4 25  1  0  0  0  0
  4 26  1  0  0  0  0
  5  6  1  0  0  0  0
  6  3  1  1  0  0  0
  6 14  1  0  0  0  0
  7  5  1  6  0  0  0
  7  8  1  0  0  0  0
  7 12  1  0  0  0  0
  8  9  1  0  0  0  0
  9  4  1  6  0  0  0
  9 10  1  0  0  0  0
 10 11  1  0  0  0  0
 12 11  1  1  0  0  0
 12 13  1  0  0  0  0
 13 14  1  0  0  0  0
 13 17  1  1  0  0  0
 14 15  1  1  0  0  0
 15 16  1  0  0  0  0
 17 18  1  0  0  0  0
 17 22  1  0  0  0  0
 18 19  1  0  0  0  0
 19 20  1  0  0  0  0
 20 21  1  0  0  0  0
 21 22  1  0  0  0  0
M  END
>  <CHROM.1>
-169.89929751,-5.97784385,-127.67839633,111.08088259,-76.32954791,-85.37729046
-1.24439455,-1.05531121,1.08900401

>  <Name>
ligand

>  <RI>
0

>  <Rbt.Current_Directory>
/home/itssahil/PROJECTS/Mol_Feturizer/Test_systems_manuscript/rnas/1f1t

>  <Rbt.Executable>
rbdock ($Id: //depot/dev/client3/rdock/2013.1/src/exe/rbdock.cxx#4 $)

>  <Rbt.Library>
libRbt.so (2013.1, Build901 2013/11/27)

>  <Rbt.Parameter_File>
/export/apps/rDock/src/rDock_2013.1_src/data/scripts/dock_solv.prm

>  <Rbt.Receptor>
prm/pocket_docking_8.prm

>  <SCORE>
-55.7389

>  <SCORE.INTER>
-56.2143

>  <SCORE.INTER.CONST>
1

>  <SCORE.INTER.POLAR>
0

>  <SCORE.INTER.ROT>
3

>  <SCORE.INTER.SOLV>
8.89704

>  <SCORE.INTER.VDW>
-46.0419

>  <SCORE.INTER.norm>
-2.16209

>  <SCORE.INTRA>
0.475347

>  <SCORE.INTRA.DIHEDRAL>
-4.99291e-06

>  <SCORE.INTRA.DIHEDRAL.0>
3.60016

>  <SCORE.INTRA.POLAR>
0

>  <SCORE.INTRA.POLAR.0>
0

>  <SCORE.INTRA.REPUL>
0

>  <SCORE.INTRA.REPUL.0>
0

>  <SCORE.INTRA.SOLV>
4.48469e-05

>  <SCORE.INTRA.SOLV.lig_0>
-10.9882

>  <SCORE.INTRA.VDW>
0.475327

>  <SCORE.INTRA.VDW.0>
1.84442

>  <SCORE.INTRA.norm>
0.0182826

>  <SCORE.RESTR>
0

>  <SCORE.RESTR.CAVITY>
0

>  <SCORE.RESTR.norm>
0

>  <SCORE.SYSTEM>
0

>  <SCORE.SYSTEM.CONST>
0

>  <SCORE.SYSTEM.DIHEDRAL>
0

>  <SCORE.SYSTEM.SOLV>
0

>  <SCORE.SYSTEM.norm>
0

>  <SCORE.heavy>
26

>  <SCORE.norm>
-2.1438

>  <RMSD>
0.704

$$$$
ligand
 OpenBabel02271912153D
libRbt.so/2013.1/901 2013/11/27
 26 29  0  0  0  0  0  0  0  0999 V2000
  112.2187  -79.4404  -87.0921 C   0  0  1  0  0  0  0  0  0  0  0  0
  112.7180  -80.6744  -87.4832 N   0  0  0  0  0  0  0  0  0  0  0  0
  112.3514  -79.0063  -85.7092 C   0  0  0  0  0  0  0  0  0  0  0  0
  111.3722  -74.3600  -80.6491 N   0  0  0  0  0  0  0  0  0  0  0  0
  111.9594  -77.3524  -84.0477 O   0  0  0  0  0  0  0  0  0  0  0  0
  111.7974  -77.7462  -85.4754 C   0  0  2  0  0  0  0  0  0  0  0  0
  111.4412  -76.2049  -83.8410 C   0  0  1  0  0  0  0  0  0  0  0  0
  111.6602  -75.9061  -82.4260 C   0  0  0  0  0  0  0  0  0  0  0  0
  111.1268  -74.6365  -82.0050 C   0  0  2  0  0  0  0  0  0  0  0  0
  110.4405  -73.7656  -82.8872 C   0  0  0  0  0  0  0  0  0  0  0  0
  110.2643  -74.1170  -84.2840 C   0  0  0  0  0  0  0  0  0  0  0  0
  110.8034  -75.3779  -84.7312 C   0  0  2  0  0  0  0  0  0  0  0  0
  110.5904  -75.6580  -86.2002 C   0  0  1  0  0  0  0  0  0  0  0  0
  111.1667  -76.9248  -86.4032 C   0  0  2  0  0  0  0  0  0  0  0  0
  111.0494  -77.3765  -87.7915 C   0  0  0  0  0  0  0  0  0  0  0  0
  111.6061  -78.6656  -88.0577 C   0  0  0  0  0  0  0  0  0  0  0  0
  109.9469  -74.7787  -87.0504 C   0  0  0  0  0  0  0  0  0  0  0  0
  110.2793  -73.4152  -87.2262 C   0  0  0  0  0  0  0  0  0  0  0  0
  109.6521  -72.5179  -88.0924 C   0  0  0  0  0  0  0  0  0  0  0  0
  108.5451  -72.9720  -88.9206 C   0  0  0  0  0  0  0  0  0  0  0  0
  108.2304  -74.3365  -88.7129 C   0  0  0  0  0  0  0  0  0  0  0  0
  108.8281  -75.2696  -87.8545 C   0  0  0  0  0  0  0  0  0  0  0  0
  112.7454  -81.0933  -88.8818 C   0  0  0  0  0  0  0  0  0  0  0  0
  113.2847  -81.7127  -86.5962 C   0  0  0  0  0  0  0  0  0  0  0  0
  111.0786  -73.1698  -79.8200 C   0  0  0  0  0  0  0  0  0  0  0  0
  112.0367  -75.4383  -79.8351 C   0  0  0  0  0  0  0  0  0  0  0  0
  1  2  1  6  0  0  0
  1  3  1  0  0  0  0
  1 16  1  0  0  0  0
  2 23  1  0  0  0  0
  2 24  1  0  0  0  0
  4 25  1  0  0  0  0
  4 26  1  0  0  0  0
  5  6  1  0  0  0  0
  6  3  1  1  0  0  0
  6 14  1  0  0  0  0
  7  5  1  6  0  0  0
  7  8  1  0  0  0  0
  7 12  1  0  0  0  0
  8  9  1  0  0  0  0
  9  4  1  6  0  0  0
  9 10  1  0  0  0  0
 10 11  1  0  0  0  0
 12 11  1  1  0  0  0
 12 13  1  0  0  0  0
 13 14  1  0  0  0  0
 13 17  1  1  0  0  0
 14 15  1  1  0  0  0
 15 16  1  0  0  0  0
 17 18  1  0  0  0  0
 17 22  1  0  0  0  0
 18 19  1  0  0  0  0
 19 20  1  0  0  0  0
 20 21  1  0  0  0  0
 21 22  1  0  0  0  0
M  END
>  <CHROM.1>
-173.00803749,176.33149156,53.28898590,111.11401113,-76.31571247,-85.36939628
-1.28803109,-1.06979487,1.07600702

>  <Name>
ligand

>  <RI>
0

>  <Rbt.Current_Directory>
/home/itssahil/PROJECTS/Mol_Feturizer/Test_systems_manuscript/rnas/1f1t

>  <Rbt.Executable>
rbdock ($Id: //depot/dev/client3/rdock/2013.1/src/exe/rbdock.cxx#4 $)

>  <Rbt.Library>
libRbt.so (2013.1, Build901 2013/11/27)

>  <Rbt.Parameter_File>
/export/apps/rDock/src/rDock_2013.1_src/data/scripts/dock_solv.prm

>  <Rbt.Receptor>
prm/pocket_docking_8.prm

>  <SCORE>
-53.8046

>  <SCORE.INTER>
-56.6063

>  <SCORE.INTER.CONST>
1

>  <SCORE.INTER.POLAR>
0

>  <SCORE.INTER.ROT>
3

>  <SCORE.INTER.SOLV>
8.95507

>  <SCORE.INTER.VDW>
-46.3225

>  <SCORE.INTER.norm>
-2.17716

>  <SCORE.INTRA>
2.80165

>  <SCORE.INTRA.DIHEDRAL>
-0.000299205

>  <SCORE.INTRA.DIHEDRAL.0>
3.60016

>  <SCORE.INTRA.POLAR>
0

>  <SCORE.INTRA.POLAR.0>
0

>  <SCORE.INTRA.REPUL>
0

>  <SCORE.INTRA.REPUL.0>
0

>  <SCORE.INTRA.SOLV>
-0.000968839

>  <SCORE.INTRA.SOLV.lig_0>
-10.9882

>  <SCORE.INTRA.VDW>
2.80229

>  <SCORE.INTRA.VDW.0>
1.84442

>  <SCORE.INTRA.norm>
0.107756

>  <SCORE.RESTR>
0

>  <SCORE.RESTR.CAVITY>
0

>  <SCORE.RESTR.norm>
0

>  <SCORE.SYSTEM>
0

>  <SCORE.SYSTEM.CONST>
0

>  <SCORE.SYSTEM.DIHEDRAL>
0

>  <SCORE.SYSTEM.SOLV>
0

>  <SCORE.SYSTEM.norm>
0

>  <SCORE.heavy>
26

>  <SCORE.norm>
-2.06941

>  <RMSD>
0.704

$$$$
ligand
 OpenBabel02271912153D
libRbt.so/2013.1/901 2013/11/27
 26 29  0  0  0  0  0  0  0  0999 V2000
  111.2316  -74.7014  -81.9271 C   0  0  1  0  0  0  0  0  0  0  0  0
  111.4131  -74.3634  -80.5937 N   0  0  0  0  0  0  0  0  0  0  0  0
  111.7463  -75.9647  -82.4346 C   0  0  0  0  0  0  0  0  0  0  0  0
  112.7227  -80.5416  -87.5580 N   0  0  0  0  0  0  0  0  0  0  0  0
  112.0340  -77.4604  -84.2593 O   0  0  0  0  0  0  0  0  0  0  0  0
  111.4859  -76.1560  -83.7929 C   0  0  2  0  0  0  0  0  0  0  0  0
  111.8007  -77.6219  -85.5033 C   0  0  1  0  0  0  0  0  0  0  0  0
  112.3629  -78.9246  -85.8591 C   0  0  0  0  0  0  0  0  0  0  0  0
  112.1985  -79.2755  -87.2460 C   0  0  2  0  0  0  0  0  0  0  0  0
  111.5589  -78.4227  -88.1795 C   0  0  0  0  0  0  0  0  0  0  0  0
  111.0136  -77.1450  -87.7601 C   0  0  0  0  0  0  0  0  0  0  0  0
  111.1540  -76.7792  -86.3720 C   0  0  2  0  0  0  0  0  0  0  0  0
  110.5453  -75.4428  -86.0177 C   0  0  1  0  0  0  0  0  0  0  0  0
  110.8156  -75.2866  -84.6463 C   0  0  2  0  0  0  0  0  0  0  0  0
  110.2990  -74.0234  -84.1149 C   0  0  0  0  0  0  0  0  0  0  0  0
  110.5547  -73.8010  -82.7265 C   0  0  0  0  0  0  0  0  0  0  0  0
  109.8963  -74.6416  -86.9379 C   0  0  0  0  0  0  0  0  0  0  0  0
  110.2183  -73.2947  -87.2251 C   0  0  0  0  0  0  0  0  0  0  0  0
  109.5854  -72.4766  -88.1627 C   0  0  0  0  0  0  0  0  0  0  0  0
  108.4831  -73.0061  -88.9516 C   0  0  0  0  0  0  0  0  0  0  0  0
  108.1787  -74.3513  -88.6325 C   0  0  0  0  0  0  0  0  0  0  0  0
  108.7824  -75.2058  -87.6997 C   0  0  0  0  0  0  0  0  0  0  0  0
  110.9899  -73.0738  -80.0549 C   0  0  0  0  0  0  0  0  0  0  0  0
  112.0246  -75.2120  -79.5488 C   0  0  0  0  0  0  0  0  0  0  0  0
  112.9082  -81.2370  -88.8512 C   0  0  0  0  0  0  0  0  0  0  0  0
  113.2178  -81.3840  -86.4125 C   0  0  0  0  0  0  0  0  0  0  0  0
  1  2  1  1  0  0  0
  1  3  1  0  0  0  0
  1 16  1  0  0  0  0
  2 23  1  0  0  0  0
  2 24  1  0  0  0  0
  4 25  1  0  0  0  0
  4 26  1  0  0  0  0
  5  6  1  0  0  0  0
  6  3  1  6  0  0  0
  6 14  1  0  0  0  0
  7  5  1  1  0  0  0
  7  8  1  0  0  0  0
  7 12  1  0  0  0  0
  8  9  1  0  0  0  0
  9  4  1  1  0  0  0
  9 10  1  0  0  0  0
 10 11  1  0  0  0  0
 12 11  1  6  0  0  0
 12 13  1  0  0  0  0
 13 14  1  0  0  0  0
 13 17  1  6  0  0  0
 14 15  1  6  0  0  0
 15 16  1  0  0  0  0
 17 18  1  0  0  0  0
 17 22  1  0  0  0  0
 18 19  1  0  0  0  0
 19 20  1  0  0  0  0
 20 21  1  0  0  0  0
 21 22  1  0  0  0  0
M  END
>  <CHROM.1>
176.12439203,-172.43802014,-124.48006942,111.11614788,-76.23488521,-85.34773948
-1.83374803,1.05714176,-2.06125235

>  <Name>
ligand

>  <RI>
0

>  <Rbt.Current_Directory>
/home/itssahil/PROJECTS/Mol_Feturizer/Test_systems_manuscript/rnas/1f1t

>  <Rbt.Executable>
rbdock ($Id: //depot/dev/client3/rdock/2013.1/src/exe/rbdock.cxx#4 $)

>  <Rbt.Library>
libRbt.so (2013.1, Build901 2013/11/27)

>  <Rbt.Parameter_File>
/export/apps/rDock/src/rDock_2013.1_src/data/scripts/dock_solv.prm

>  <Rbt.Receptor>
prm/pocket_docking_4.prm

>  <SCORE>
-53.423

>  <SCORE.INTER>
-56.2177

>  <SCORE.INTER.CONST>
1

>  <SCORE.INTER.POLAR>
0

>  <SCORE.INTER.ROT>
3

>  <SCORE.INTER.SOLV>
9.04265

>  <SCORE.INTER.VDW>
-46.0927

>  <SCORE.INTER.norm>
-2.16222

>  <SCORE.INTRA>
2.79468

>  <SCORE.INTRA.DIHEDRAL>
-0.000575559

>  <SCORE.INTRA.DIHEDRAL.0>
3.60016

>  <SCORE.INTRA.POLAR>
0

>  <SCORE.INTRA.POLAR.0>
0

>  <SCORE.INTRA.REPUL>
0

>  <SCORE.INTRA.REPUL.0>
0

>  <SCORE.INTRA.SOLV>
-0.00098278

>  <SCORE.INTRA.SOLV.lig_0>
-10.9882

>  <SCORE.INTRA.VDW>
2.79546

>  <SCORE.INTRA.VDW.0>
1.84442

>  <SCORE.INTRA.norm>
0.107488

>  <SCORE.RESTR>
0

>  <SCORE.RESTR.CAVITY>
0

>  <SCORE.RESTR.norm>
0

>  <SCORE.SYSTEM>
0

>  <SCORE.SYSTEM.CONST>
0

>  <SCORE.SYSTEM.DIHEDRAL>
0

>  <SCORE.SYSTEM.SOLV>
0

>  <SCORE.SYSTEM.norm>
0

>  <SCORE.heavy>
26

>  <SCORE.norm>
-2.05473

>  <RMSD>
0.705

$$$$
ligand
 OpenBabel02271912153D
libRbt.so/2013.1/901 2013/11/27
 26 29  0  0  0  0  0  0  0  0999 V2000
  112.2237  -79.4290  -87.0970 C   0  0  1  0  0  0  0  0  0  0  0  0
  112.7261  -80.6614  -87.4894 N   0  0  0  0  0  0  0  0  0  0  0  0
  112.3529  -78.9972  -85.7132 C   0  0  0  0  0  0  0  0  0  0  0  0
  111.3553  -74.3619  -80.6467 N   0  0  0  0  0  0  0  0  0  0  0  0
  111.9546  -77.3470  -84.0494 O   0  0  0  0  0  0  0  0  0  0  0  0
  111.7961  -77.7385  -85.4781 C   0  0  2  0  0  0  0  0  0  0  0  0
  111.4338  -76.2008  -83.8417 C   0  0  1  0  0  0  0  0  0  0  0  0
  111.6496  -75.9041  -82.4257 C   0  0  0  0  0  0  0  0  0  0  0  0
  111.1129  -74.6363  -82.0035 C   0  0  2  0  0  0  0  0  0  0  0  0
  110.4266  -73.7652  -82.8854 C   0  0  0  0  0  0  0  0  0  0  0  0
  110.2538  -74.1145  -84.2832 C   0  0  0  0  0  0  0  0  0  0  0  0
  110.7961  -75.3735  -84.7316 C   0  0  2  0  0  0  0  0  0  0  0  0
  110.5863  -75.6514  -86.2015 C   0  0  1  0  0  0  0  0  0  0  0  0
  111.1655  -76.9167  -86.4057 C   0  0  2  0  0  0  0  0  0  0  0  0
  111.0517  -77.3662  -87.7950 C   0  0  0  0  0  0  0  0  0  0  0  0
  111.6113  -78.6537  -88.0624 C   0  0  0  0  0  0  0  0  0  0  0  0
  109.9428  -74.7718  -87.0513 C   0  0  0  0  0  0  0  0  0  0  0  0
  110.2700  -73.4063  -87.2207 C   0  0  0  0  0  0  0  0  0  0  0  0
  109.6427  -72.5085  -88.0865 C   0  0  0  0  0  0  0  0  0  0  0  0
  108.5414  -72.9644  -88.9212 C   0  0  0  0  0  0  0  0  0  0  0  0
  108.2317  -74.3310  -88.7198 C   0  0  0  0  0  0  0  0  0  0  0  0
  108.8297  -75.2646  -87.8622 C   0  0  0  0  0  0  0  0  0  0  0  0
  113.2502  -81.6281  -86.5286 C   0  0  0  0  0  0  0  0  0  0  0  0
  112.8016  -81.1780  -88.8726 C   0  0  0  0  0  0  0  0  0  0  0  0
  111.0224  -73.1899  -79.8063 C   0  0  0  0  0  0  0  0  0  0  0  0
  112.0635  -75.4213  -79.8448 C   0  0  0  0  0  0  0  0  0  0  0  0
  1  2  1  6  0  0  0
  1  3  1  0  0  0  0
  1 16  1  0  0  0  0
  2 23  1  0  0  0  0
  2 24  1  0  0  0  0
  4 25  1  0  0  0  0
  4 26  1  0  0  0  0
  5  6  1  0  0  0  0
  6  3  1  1  0  0  0
  6 14  1  0  0  0  0
  7  5  1  6  0  0  0
  7  8  1  0  0  0  0
  7 12  1  0  0  0  0
  8  9  1  0  0  0  0
  9  4  1  6  0  0  0
  9 10  1  0  0  0  0
 10 11  1  0  0  0  0
 12 11  1  1  0  0  0
 12 13  1  0  0  0  0
 13 14  1  0  0  0  0
 13 17  1  1  0  0  0
 14 15  1  1  0  0  0
 15 16  1  0  0  0  0
 17 18  1  0  0  0  0
 17 22  1  0  0  0  0
 18 19  1  0  0  0  0
 19 20  1  0  0  0  0
 20 21  1  0  0  0  0
 21 22  1  0  0  0  0
M  END
>  <CHROM.1>
7.37522129,178.40999089,53.06108245,111.11016805,-76.31073888,-85.36689515
-1.28146146,-1.06893256,1.08138202

>  <Name>
ligand

>  <RI>
0

>  <Rbt.Current_Directory>
/home/itssahil/PROJECTS/Mol_Feturizer/Test_systems_manuscript/rnas/1f1t

>  <Rbt.Executable>
rbdock ($Id: //depot/dev/client3/rdock/2013.1/src/exe/rbdock.cxx#4 $)

>  <Rbt.Library>
libRbt.so (2013.1, Build901 2013/11/27)

>  <Rbt.Parameter_File>
/export/apps/rDock/src/rDock_2013.1_src/data/scripts/dock_solv.prm

>  <Rbt.Receptor>
prm/pocket_docking_8.prm

>  <SCORE>
-53.9775

>  <SCORE.INTER>
-56.516

>  <SCORE.INTER.CONST>
1

>  <SCORE.INTER.POLAR>
0

>  <SCORE.INTER.ROT>
3

>  <SCORE.INTER.SOLV>
8.98058

>  <SCORE.INTER.VDW>
-46.2708

>  <SCORE.INTER.norm>
-2.17369

>  <SCORE.INTRA>
2.53845

>  <SCORE.INTRA.DIHEDRAL>
-0.000317356

>  <SCORE.INTRA.DIHEDRAL.0>
3.60016

>  <SCORE.INTRA.POLAR>
0

>  <SCORE.INTRA.POLAR.0>
0

>  <SCORE.INTRA.REPUL>
0

>  <SCORE.INTRA.REPUL.0>
0

>  <SCORE.INTRA.SOLV>
-0.000972121

>  <SCORE.INTRA.SOLV.lig_0>
-10.9882

>  <SCORE.INTRA.VDW>
2.5391

>  <SCORE.INTRA.VDW.0>
1.84442

>  <SCORE.INTRA.norm>
0.0976328

>  <SCORE.RESTR>
0

>  <SCORE.RESTR.CAVITY>
0

>  <SCORE.RESTR.norm>
0

>  <SCORE.SYSTEM>
0

>  <SCORE.SYSTEM.CONST>
0

>  <SCORE.SYSTEM.DIHEDRAL>
0

>  <SCORE.SYSTEM.SOLV>
0

>  <SCORE.SYSTEM.norm>
0

>  <SCORE.heavy>
26

>  <SCORE.norm>
-2.07606

>  <RMSD>
0.705

$$$$
ligand
 OpenBabel02271912153D
libRbt.so/2013.1/901 2013/11/27
 26 29  0  0  0  0  0  0  0  0999 V2000
  112.2166  -79.4393  -87.0906 C   0  0  1  0  0  0  0  0  0  0  0  0
  112.7174  -80.6732  -87.4803 N   0  0  0  0  0  0  0  0  0  0  0  0
  112.3498  -79.0029  -85.7085 C   0  0  0  0  0  0  0  0  0  0  0  0
  111.3679  -74.3506  -80.6546 N   0  0  0  0  0  0  0  0  0  0  0  0
  111.9566  -77.3471  -84.0492 O   0  0  0  0  0  0  0  0  0  0  0  0
  111.7941  -77.7433  -85.4761 C   0  0  2  0  0  0  0  0  0  0  0  0
  111.4369  -76.2001  -83.8438 C   0  0  1  0  0  0  0  0  0  0  0  0
  111.6567  -75.8988  -82.4294 C   0  0  0  0  0  0  0  0  0  0  0  0
  111.1216  -74.6294  -82.0099 C   0  0  2  0  0  0  0  0  0  0  0  0
  110.4332  -73.7609  -82.8927 C   0  0  0  0  0  0  0  0  0  0  0  0
  110.2564  -74.1148  -84.2888 C   0  0  0  0  0  0  0  0  0  0  0  0
  110.7970  -75.3754  -84.7346 C   0  0  2  0  0  0  0  0  0  0  0  0
  110.5831  -75.6581  -86.2030 C   0  0  1  0  0  0  0  0  0  0  0  0
  111.1612  -76.9243  -86.4047 C   0  0  2  0  0  0  0  0  0  0  0  0
  111.0434  -77.3783  -87.7921 C   0  0  0  0  0  0  0  0  0  0  0  0
  111.6019  -78.6669  -88.0569 C   0  0  0  0  0  0  0  0  0  0  0  0
  109.9376  -74.7810  -87.0540 C   0  0  0  0  0  0  0  0  0  0  0  0
  110.2539  -73.4121  -87.2163 C   0  0  0  0  0  0  0  0  0  0  0  0
  109.6246  -72.5167  -88.0829 C   0  0  0  0  0  0  0  0  0  0  0  0
  108.5328  -72.9792  -88.9266 C   0  0  0  0  0  0  0  0  0  0  0  0
  108.2337  -74.3491  -88.7322 C   0  0  0  0  0  0  0  0  0  0  0  0
  108.8342  -75.2806  -87.8740 C   0  0  0  0  0  0  0  0  0  0  0  0
  113.2592  -81.6301  -86.5196 C   0  0  0  0  0  0  0  0  0  0  0  0
  112.7742  -81.2008  -88.8603 C   0  0  0  0  0  0  0  0  0  0  0  0
  111.1055  -73.1461  -79.8356 C   0  0  0  0  0  0  0  0  0  0  0  0
  111.9953  -75.4423  -79.8291 C   0  0  0  0  0  0  0  0  0  0  0  0
  1  2  1  6  0  0  0
  1  3  1  0  0  0  0
  1 16  1  0  0  0  0
  2 23  1  0  0  0  0
  2 24  1  0  0  0  0
  4 25  1  0  0  0  0
  4 26  1  0  0  0  0
  5  6  1  0  0  0  0
  6  3  1  1  0  0  0
  6 14  1  0  0  0  0
  7  5  1  6  0  0  0
  7  8  1  0  0  0  0
  7 12  1  0  0  0  0
  8  9  1  0  0  0  0
  9  4  1  6  0  0  0
  9 10  1  0  0  0  0
 10 11  1  0  0  0  0
 12 11  1  1  0  0  0
 12 13  1  0  0  0  0
 13 14  1  0  0  0  0
 13 17  1  1  0  0  0
 14 15  1  1  0  0  0
 15 16  1  0  0  0  0
 17 18  1  0  0  0  0
 17 22  1  0  0  0  0
 18 19  1  0  0  0  0
 19 20  1  0  0  0  0
 20 21  1  0  0  0  0
 21 22  1  0  0  0  0
M  END
>  <CHROM.1>
6.59203393,174.46127645,52.21291520,111.10848244,-76.31509241,-85.36761911
-1.28711763,-1.06928043,1.07328525

>  <Name>
ligand

>  <RI>
0

>  <Rbt.Current_Directory>
/home/itssahil/PROJECTS/Mol_Feturizer/Test_systems_manuscript/rnas/1f1t

>  <Rbt.Executable>
rbdock ($Id: //depot/dev/client3/rdock/2013.1/src/exe/rbdock.cxx#4 $)

>  <Rbt.Library>
libRbt.so (2013.1, Build901 2013/11/27)

>  <Rbt.Parameter_File>
/export/apps/rDock/src/rDock_2013.1_src/data/scripts/dock_solv.prm

>  <Rbt.Receptor>
prm/pocket_docking_2.prm

>  <SCORE>
-53.9714

>  <SCORE.INTER>
-56.4614

>  <SCORE.INTER.CONST>
1

>  <SCORE.INTER.POLAR>
0

>  <SCORE.INTER.ROT>
3

>  <SCORE.INTER.SOLV>
8.95787

>  <SCORE.INTER.VDW>
-46.2269

>  <SCORE.INTER.norm>
-2.17159

>  <SCORE.INTRA>
2.49003

>  <SCORE.INTRA.DIHEDRAL>
-0.000308191

>  <SCORE.INTRA.DIHEDRAL.0>
3.60016

>  <SCORE.INTRA.POLAR>
0

>  <SCORE.INTRA.POLAR.0>
0

>  <SCORE.INTRA.REPUL>
0

>  <SCORE.INTRA.REPUL.0>
0

>  <SCORE.INTRA.SOLV>
-0.000964188

>  <SCORE.INTRA.SOLV.lig_0>
-10.9882

>  <SCORE.INTRA.VDW>
2.49067

>  <SCORE.INTRA.VDW.0>
1.84442

>  <SCORE.INTRA.norm>
0.0957704

>  <SCORE.RESTR>
0

>  <SCORE.RESTR.CAVITY>
0

>  <SCORE.RESTR.norm>
0

>  <SCORE.SYSTEM>
0

>  <SCORE.SYSTEM.CONST>
0

>  <SCORE.SYSTEM.DIHEDRAL>
0

>  <SCORE.SYSTEM.SOLV>
0

>  <SCORE.SYSTEM.norm>
0

>  <SCORE.heavy>
26

>  <SCORE.norm>
-2.07582

>  <RMSD>
0.706

$$$$
ligand
 OpenBabel02271912153D
libRbt.so/2013.1/901 2013/11/27
 26 29  0  0  0  0  0  0  0  0999 V2000
  112.2321  -79.4738  -87.1199 C   0  0  1  0  0  0  0  0  0  0  0  0
  112.7496  -80.6992  -87.5146 N   0  0  0  0  0  0  0  0  0  0  0  0
  112.3601  -79.0410  -85.7362 C   0  0  0  0  0  0  0  0  0  0  0  0
  111.3172  -74.4223  -80.6636 N   0  0  0  0  0  0  0  0  0  0  0  0
  111.9452  -77.3972  -84.0702 O   0  0  0  0  0  0  0  0  0  0  0  0
  111.7872  -77.7901  -85.4986 C   0  0  2  0  0  0  0  0  0  0  0  0
  111.4098  -76.2583  -83.8600 C   0  0  1  0  0  0  0  0  0  0  0  0
  111.6262  -75.9595  -82.4445 C   0  0  0  0  0  0  0  0  0  0  0  0
  111.0741  -74.6992  -82.0199 C   0  0  2  0  0  0  0  0  0  0  0  0
  110.3733  -73.8369  -82.8989 C   0  0  0  0  0  0  0  0  0  0  0  0
  110.2005  -74.1877  -84.2963 C   0  0  0  0  0  0  0  0  0  0  0  0
  110.7581  -75.4391  -84.7473 C   0  0  2  0  0  0  0  0  0  0  0  0
  110.5473  -75.7189  -86.2167 C   0  0  1  0  0  0  0  0  0  0  0  0
  111.1426  -76.9763  -86.4236 C   0  0  2  0  0  0  0  0  0  0  0  0
  111.0303  -77.4265  -87.8127 C   0  0  0  0  0  0  0  0  0  0  0  0
  111.6062  -78.7062  -88.0828 C   0  0  0  0  0  0  0  0  0  0  0  0
  109.8892  -74.8476  -87.0639 C   0  0  0  0  0  0  0  0  0  0  0  0
  108.8094  -75.1860  -87.9124 C   0  0  0  0  0  0  0  0  0  0  0  0
  108.1223  -74.3159  -88.7607 C   0  0  0  0  0  0  0  0  0  0  0  0
  108.5079  -72.9139  -88.8188 C   0  0  0  0  0  0  0  0  0  0  0  0
  109.5974  -72.6105  -87.9674 C   0  0  0  0  0  0  0  0  0  0  0  0
  110.3170  -73.4495  -87.1054 C   0  0  0  0  0  0  0  0  0  0  0  0
  112.8148  -81.0991  -88.9175 C   0  0  0  0  0  0  0  0  0  0  0  0
  113.3013  -81.7454  -86.6276 C   0  0  0  0  0  0  0  0  0  0  0  0
  111.9549  -75.2244  -79.5958 C   0  0  0  0  0  0  0  0  0  0  0  0
  110.8895  -73.0739  -80.1479 C   0  0  0  0  0  0  0  0  0  0  0  0
  1  2  1  6  0  0  0
  1  3  1  0  0  0  0
  1 16  1  0  0  0  0
  2 23  1  0  0  0  0
  2 24  1  0  0  0  0
  4 25  1  0  0  0  0
  4 26  1  0  0  0  0
  5  6  1  0  0  0  0
  6  3  1  1  0  0  0
  6 14  1  0  0  0  0
  7  5  1  6  0  0  0
  7  8  1  0  0  0  0
  7 12  1  0  0  0  0
  8  9  1  0  0  0  0
  9  4  1  6  0  0  0
  9 10  1  0  0  0  0
 10 11  1  0  0  0  0
 12 11  1  1  0  0  0
 12 13  1  0  0  0  0
 13 14  1  0  0  0  0
 13 17  1  1  0  0  0
 14 15  1  1  0  0  0
 15 16  1  0  0  0  0
 17 18  1  0  0  0  0
 17 22  1  0  0  0  0
 18 19  1  0  0  0  0
 19 20  1  0  0  0  0
 20 21  1  0  0  0  0
 21 22  1  0  0  0  0
M  END
>  <CHROM.1>
-171.30153779,-4.42836559,-127.74112042,111.08202383,-76.33534931,-85.38037211
-1.24761941,-1.05990020,1.08915298

>  <Name>
ligand

>  <RI>
0

>  <Rbt.Current_Directory>
/home/itssahil/PROJECTS/Mol_Feturizer/Test_systems_manuscript/rnas/1f1t

>  <Rbt.Executable>
rbdock ($Id: //depot/dev/client3/rdock/2013.1/src/exe/rbdock.cxx#4 $)

>  <Rbt.Library>
libRbt.so (2013.1, Build901 2013/11/27)

>  <Rbt.Parameter_File>
/export/apps/rDock/src/rDock_2013.1_src/data/scripts/dock_solv.prm

>  <Rbt.Receptor>
prm/pocket_docking_5.prm

>  <SCORE>
-55.7722

>  <SCORE.INTER>
-56.293

>  <SCORE.INTER.CONST>
1

>  <SCORE.INTER.POLAR>
0

>  <SCORE.INTER.ROT>
3

>  <SCORE.INTER.SOLV>
8.89886

>  <SCORE.INTER.VDW>
-46.095

>  <SCORE.INTER.norm>
-2.16512

>  <SCORE.INTRA>
0.520779

>  <SCORE.INTRA.DIHEDRAL>
2.17115e-06

>  <SCORE.INTRA.DIHEDRAL.0>
3.60016

>  <SCORE.INTRA.POLAR>
0

>  <SCORE.INTRA.POLAR.0>
0

>  <SCORE.INTRA.REPUL>
0

>  <SCORE.INTRA.REPUL.0>
0

>  <SCORE.INTRA.SOLV>
3.09829e-05

>  <SCORE.INTRA.SOLV.lig_0>
-10.9882

>  <SCORE.INTRA.VDW>
0.520763

>  <SCORE.INTRA.VDW.0>
1.84442

>  <SCORE.INTRA.norm>
0.02003

>  <SCORE.RESTR>
0

>  <SCORE.RESTR.CAVITY>
0

>  <SCORE.RESTR.norm>
0

>  <SCORE.SYSTEM>
0

>  <SCORE.SYSTEM.CONST>
0

>  <SCORE.SYSTEM.DIHEDRAL>
0

>  <SCORE.SYSTEM.SOLV>
0

>  <SCORE.SYSTEM.norm>
0

>  <SCORE.heavy>
26

>  <SCORE.norm>
-2.14509

>  <RMSD>
0.706

$$$$
ligand
 OpenBabel02271912153D
libRbt.so/2013.1/901 2013/11/27
 26 29  0  0  0  0  0  0  0  0999 V2000
  111.1783  -74.7147  -82.0074 C   0  0  1  0  0  0  0  0  0  0  0  0
  111.3599  -74.3449  -80.6825 N   0  0  0  0  0  0  0  0  0  0  0  0
  111.7106  -75.9805  -82.4897 C   0  0  0  0  0  0  0  0  0  0  0  0
  112.7378  -80.6519  -87.5170 N   0  0  0  0  0  0  0  0  0  0  0  0
  112.0143  -77.5109  -84.2829 O   0  0  0  0  0  0  0  0  0  0  0  0
  111.4477  -76.2053  -83.8423 C   0  0  2  0  0  0  0  0  0  0  0  0
  111.7785  -77.7030  -85.5220 C   0  0  1  0  0  0  0  0  0  0  0  0
  112.3596  -79.0042  -85.8520 C   0  0  0  0  0  0  0  0  0  0  0  0
  112.1950  -79.3876  -87.2302 C   0  0  2  0  0  0  0  0  0  0  0  0
  111.5383  -78.5655  -88.1791 C   0  0  0  0  0  0  0  0  0  0  0  0
  110.9746  -77.2876  -87.7851 C   0  0  0  0  0  0  0  0  0  0  0  0
  111.1150  -76.8896  -86.4059 C   0  0  2  0  0  0  0  0  0  0  0  0
  110.4869  -75.5555  -86.0779 C   0  0  1  0  0  0  0  0  0  0  0  0
  110.7603  -75.3653  -84.7114 C   0  0  2  0  0  0  0  0  0  0  0  0
  110.2261  -74.0990  -84.2052 C   0  0  0  0  0  0  0  0  0  0  0  0
  110.4840  -73.8425  -82.8231 C   0  0  0  0  0  0  0  0  0  0  0  0
  109.8215  -74.7847  -87.0123 C   0  0  0  0  0  0  0  0  0  0  0  0
  108.7792  -75.2350  -87.8557 C   0  0  0  0  0  0  0  0  0  0  0  0
  108.0849  -74.4667  -88.7920 C   0  0  0  0  0  0  0  0  0  0  0  0
  108.4204  -73.0607  -88.9595 C   0  0  0  0  0  0  0  0  0  0  0  0
  109.4736  -72.6446  -88.1100 C   0  0  0  0  0  0  0  0  0  0  0  0
  110.1988  -73.3795  -87.1620 C   0  0  0  0  0  0  0  0  0  0  0  0
  112.0146  -75.2205  -79.7145 C   0  0  0  0  0  0  0  0  0  0  0  0
  110.9506  -73.0656  -80.0647 C   0  0  0  0  0  0  0  0  0  0  0  0
  113.2827  -81.7100  -86.6373 C   0  0  0  0  0  0  0  0  0  0  0  0
  112.7850  -81.0700  -88.9627 C   0  0  0  0  0  0  0  0  0  0  0  0
  1  2  1  1  0  0  0
  1  3  1  0  0  0  0
  1 16  1  0  0  0  0
  2 23  1  0  0  0  0
  2 24  1  0  0  0  0
  4 25  1  0  0  0  0
  4 26  1  0  0  0  0
  5  6  1  0  0  0  0
  6  3  1  6  0  0  0
  6 14  1  0  0  0  0
  7  5  1  1  0  0  0
  7  8  1  0  0  0  0
  7 12  1  0  0  0  0
  8  9  1  0  0  0  0
  9  4  1  1  0  0  0
  9 10  1  0  0  0  0
 10 11  1  0  0  0  0
 12 11  1  6  0  0  0
 12 13  1  0  0  0  0
 13 14  1  0  0  0  0
 13 17  1  6  0  0  0
 14 15  1  6  0  0  0
 15 16  1  0  0  0  0
 17 18  1  0  0  0  0
 17 22  1  0  0  0  0
 18 19  1  0  0  0  0
 19 20  1  0  0  0  0
 20 21  1  0  0  0  0
 21 22  1  0  0  0  0
M  END
>  <CHROM.1>
-3.33929033,8.87520689,51.88703501,111.07699272,-76.30804885,-85.40415972
-1.84497968,1.04569043,-2.07394312

>  <Name>
ligand

>  <RI>
0

>  <Rbt.Current_Directory>
/home/itssahil/PROJECTS/Mol_Feturizer/Test_systems_manuscript/rnas/1f1t

>  <Rbt.Executable>
rbdock ($Id: //depot/dev/client3/rdock/2013.1/src/exe/rbdock.cxx#4 $)

>  <Rbt.Library>
libRbt.so (2013.1, Build901 2013/11/27)

>  <Rbt.Parameter_File>
/export/apps/rDock/src/rDock_2013.1_src/data/scripts/dock_solv.prm

>  <Rbt.Receptor>
prm/pocket_docking_7.prm

>  <SCORE>
-56.278

>  <SCORE.INTER>
-56.4385

>  <SCORE.INTER.CONST>
1

>  <SCORE.INTER.POLAR>
0

>  <SCORE.INTER.ROT>
3

>  <SCORE.INTER.SOLV>
8.93107

>  <SCORE.INTER.VDW>
-46.2027

>  <SCORE.INTER.norm>
-2.17071

>  <SCORE.INTRA>
0.160449

>  <SCORE.INTRA.DIHEDRAL>
0.000246874

>  <SCORE.INTRA.DIHEDRAL.0>
3.60016

>  <SCORE.INTRA.POLAR>
0

>  <SCORE.INTRA.POLAR.0>
0

>  <SCORE.INTRA.REPUL>
0

>  <SCORE.INTRA.REPUL.0>
0

>  <SCORE.INTRA.SOLV>
2.93043e-05

>  <SCORE.INTRA.SOLV.lig_0>
-10.9882

>  <SCORE.INTRA.VDW>
0.160311

>  <SCORE.INTRA.VDW.0>
1.84442

>  <SCORE.INTRA.norm>
0.00617112

>  <SCORE.RESTR>
0

>  <SCORE.RESTR.CAVITY>
0

>  <SCORE.RESTR.norm>
0

>  <SCORE.SYSTEM>
0

>  <SCORE.SYSTEM.CONST>
0

>  <SCORE.SYSTEM.DIHEDRAL>
0

>  <SCORE.SYSTEM.SOLV>
0

>  <SCORE.SYSTEM.norm>
0

>  <SCORE.heavy>
26

>  <SCORE.norm>
-2.16454

>  <RMSD>
0.706

$$$$
ligand
 OpenBabel02271912153D
libRbt.so/2013.1/901 2013/11/27
 26 29  0  0  0  0  0  0  0  0999 V2000
  111.2223  -74.6233  -81.8395 C   0  0  1  0  0  0  0  0  0  0  0  0
  111.3882  -74.2829  -80.5047 N   0  0  0  0  0  0  0  0  0  0  0  0
  111.7254  -75.8962  -82.3343 C   0  0  0  0  0  0  0  0  0  0  0  0
  112.7111  -80.5072  -87.4253 N   0  0  0  0  0  0  0  0  0  0  0  0
  112.0185  -77.4032  -84.1490 O   0  0  0  0  0  0  0  0  0  0  0  0
  111.4832  -76.0888  -83.6958 C   0  0  2  0  0  0  0  0  0  0  0  0
  111.8021  -77.5659  -85.3958 C   0  0  1  0  0  0  0  0  0  0  0  0
  112.3497  -78.8784  -85.7381 C   0  0  0  0  0  0  0  0  0  0  0  0
  112.2015  -79.2321  -87.1261 C   0  0  2  0  0  0  0  0  0  0  0  0
  111.5896  -78.3733  -88.0725 C   0  0  0  0  0  0  0  0  0  0  0  0
  111.0573  -77.0859  -87.6663 C   0  0  0  0  0  0  0  0  0  0  0  0
  111.1818  -76.7169  -86.2775 C   0  0  2  0  0  0  0  0  0  0  0  0
  110.5881  -75.3701  -85.9376 C   0  0  1  0  0  0  0  0  0  0  0  0
  110.8395  -75.2126  -84.5627 C   0  0  2  0  0  0  0  0  0  0  0  0
  110.3341  -73.9397  -84.0440 C   0  0  0  0  0  0  0  0  0  0  0  0
  110.5716  -73.7158  -82.6526 C   0  0  0  0  0  0  0  0  0  0  0  0
  109.9657  -74.5626  -86.8706 C   0  0  0  0  0  0  0  0  0  0  0  0
  110.2946  -73.2133  -87.1383 C   0  0  0  0  0  0  0  0  0  0  0  0
  109.6888  -72.3890  -88.0882 C   0  0  0  0  0  0  0  0  0  0  0  0
  108.6109  -72.9136  -88.9132 C   0  0  0  0  0  0  0  0  0  0  0  0
  108.2987  -74.2614  -88.6131 C   0  0  0  0  0  0  0  0  0  0  0  0
  108.8755  -75.1222  -87.6692 C   0  0  0  0  0  0  0  0  0  0  0  0
  112.0226  -75.1838  -79.5465 C   0  0  0  0  0  0  0  0  0  0  0  0
  110.9801  -73.0136  -79.8658 C   0  0  0  0  0  0  0  0  0  0  0  0
  113.2705  -81.5698  -86.5602 C   0  0  0  0  0  0  0  0  0  0  0  0
  112.6965  -80.9341  -88.8691 C   0  0  0  0  0  0  0  0  0  0  0  0
  1  2  1  1  0  0  0
  1  3  1  0  0  0  0
  1 16  1  0  0  0  0
  2 23  1  0  0  0  0
  2 24  1  0  0  0  0
  4 25  1  0  0  0  0
  4 26  1  0  0  0  0
  5  6  1  0  0  0  0
  6  3  1  6  0  0  0
  6 14  1  0  0  0  0
  7  5  1  1  0  0  0
  7  8  1  0  0  0  0
  7 12  1  0  0  0  0
  8  9  1  0  0  0  0
  9  4  1  1  0  0  0
  9 10  1  0  0  0  0
 10 11  1  0  0  0  0
 12 11  1  6  0  0  0
 12 13  1  0  0  0  0
 13 14  1  0  0  0  0
 13 17  1  6  0  0  0
 14 15  1  6  0  0  0
 15 16  1  0  0  0  0
 17 18  1  0  0  0  0
 17 22  1  0  0  0  0
 18 19  1  0  0  0  0
 19 20  1  0  0  0  0
 20 21  1  0  0  0  0
 21 22  1  0  0  0  0
M  END
>  <CHROM.1>
-1.97072843,5.21503481,-125.86442861,111.13393520,-76.16884876,-85.27576039
-1.83163056,1.07662343,-2.05458138

>  <Name>
ligand

>  <RI>
0

>  <Rbt.Current_Directory>
/home/itssahil/PROJECTS/Mol_Feturizer/Test_systems_manuscript/rnas/1f1t

>  <Rbt.Executable>
rbdock ($Id: //depot/dev/client3/rdock/2013.1/src/exe/rbdock.cxx#4 $)

>  <Rbt.Library>
libRbt.so (2013.1, Build901 2013/11/27)

>  <Rbt.Parameter_File>
/export/apps/rDock/src/rDock_2013.1_src/data/scripts/dock_solv.prm

>  <Rbt.Receptor>
prm/pocket_docking_7.prm

>  <SCORE>
-56.3506

>  <SCORE.INTER>
-56.5815

>  <SCORE.INTER.CONST>
1

>  <SCORE.INTER.POLAR>
0

>  <SCORE.INTER.ROT>
3

>  <SCORE.INTER.SOLV>
9.21303

>  <SCORE.INTER.VDW>
-46.392

>  <SCORE.INTER.norm>
-2.17621

>  <SCORE.INTRA>
0.230885

>  <SCORE.INTRA.DIHEDRAL>
-1.82823e-05

>  <SCORE.INTRA.DIHEDRAL.0>
3.60016

>  <SCORE.INTRA.POLAR>
0

>  <SCORE.INTRA.POLAR.0>
0

>  <SCORE.INTRA.REPUL>
0

>  <SCORE.INTRA.REPUL.0>
0

>  <SCORE.INTRA.SOLV>
1.11269e-05

>  <SCORE.INTRA.SOLV.lig_0>
-10.9882

>  <SCORE.INTRA.VDW>
0.230889

>  <SCORE.INTRA.VDW.0>
1.84442

>  <SCORE.INTRA.norm>
0.00888021

>  <SCORE.RESTR>
0

>  <SCORE.RESTR.CAVITY>
0

>  <SCORE.RESTR.norm>
0

>  <SCORE.SYSTEM>
0

>  <SCORE.SYSTEM.CONST>
0

>  <SCORE.SYSTEM.DIHEDRAL>
0

>  <SCORE.SYSTEM.SOLV>
0

>  <SCORE.SYSTEM.norm>
0

>  <SCORE.heavy>
26

>  <SCORE.norm>
-2.16733

>  <RMSD>
0.706

$$$$
ligand
 OpenBabel02271912153D
libRbt.so/2013.1/901 2013/11/27
 26 29  0  0  0  0  0  0  0  0999 V2000
  111.1945  -74.7331  -81.9982 C   0  0  1  0  0  0  0  0  0  0  0  0
  111.3764  -74.3774  -80.6695 N   0  0  0  0  0  0  0  0  0  0  0  0
  111.7164  -75.9992  -82.4911 C   0  0  0  0  0  0  0  0  0  0  0  0
  112.7125  -80.6324  -87.5598 N   0  0  0  0  0  0  0  0  0  0  0  0
  112.0102  -77.5154  -84.2980 O   0  0  0  0  0  0  0  0  0  0  0  0
  111.4545  -76.2089  -83.8464 C   0  0  2  0  0  0  0  0  0  0  0  0
  111.7755  -77.6937  -85.5393 C   0  0  1  0  0  0  0  0  0  0  0  0
  112.3455  -78.9970  -85.8803 C   0  0  0  0  0  0  0  0  0  0  0  0
  112.1806  -79.3660  -87.2624 C   0  0  2  0  0  0  0  0  0  0  0  0
  111.5336  -78.5290  -88.2049 C   0  0  0  0  0  0  0  0  0  0  0  0
  110.9807  -77.2498  -87.8002 C   0  0  0  0  0  0  0  0  0  0  0  0
  111.1215  -76.8661  -86.4170 C   0  0  2  0  0  0  0  0  0  0  0  0
  110.5048  -75.5294  -86.0779 C   0  0  1  0  0  0  0  0  0  0  0  0
  110.7768  -75.3545  -84.7091 C   0  0  2  0  0  0  0  0  0  0  0  0
  110.2531  -74.0882  -84.1922 C   0  0  0  0  0  0  0  0  0  0  0  0
  110.5101  -73.8470  -82.8072 C   0  0  0  0  0  0  0  0  0  0  0  0
  109.8487  -74.7438  -87.0065 C   0  0  0  0  0  0  0  0  0  0  0  0
  110.1471  -73.3918  -87.2953 C   0  0  0  0  0  0  0  0  0  0  0  0
  109.5069  -72.5892  -88.2413 C   0  0  0  0  0  0  0  0  0  0  0  0
  108.4223  -73.1425  -89.0383 C   0  0  0  0  0  0  0  0  0  0  0  0
  108.1412  -74.4923  -88.7175 C   0  0  0  0  0  0  0  0  0  0  0  0
  108.7530  -75.3320  -87.7765 C   0  0  0  0  0  0  0  0  0  0  0  0
  110.9612  -73.0776  -80.1495 C   0  0  0  0  0  0  0  0  0  0  0  0
  111.9808  -75.2153  -79.6118 C   0  0  0  0  0  0  0  0  0  0  0  0
  112.9005  -81.3423  -88.8448 C   0  0  0  0  0  0  0  0  0  0  0  0
  113.2148  -81.4577  -86.4050 C   0  0  0  0  0  0  0  0  0  0  0  0
  1  2  1  1  0  0  0
  1  3  1  0  0  0  0
  1 16  1  0  0  0  0
  2 23  1  0  0  0  0
  2 24  1  0  0  0  0
  4 25  1  0  0  0  0
  4 26  1  0  0  0  0
  5  6  1  0  0  0  0
  6  3  1  6  0  0  0
  6 14  1  0  0  0  0
  7  5  1  1  0  0  0
  7  8  1  0  0  0  0
  7 12  1  0  0  0  0
  8  9  1  0  0  0  0
  9  4  1  1  0  0  0
  9 10  1  0  0  0  0
 10 11  1  0  0  0  0
 12 11  1  6  0  0  0
 12 13  1  0  0  0  0
 13 14  1  0  0  0  0
 13 17  1  6  0  0  0
 14 15  1  6  0  0  0
 15 16  1  0  0  0  0
 17 18  1  0  0  0  0
 17 22  1  0  0  0  0
 18 19  1  0  0  0  0
 19 20  1  0  0  0  0
 20 21  1  0  0  0  0
 21 22  1  0  0  0  0
M  END
>  <CHROM.1>
175.33294916,-172.40830412,-125.58646143,111.08237078,-76.30938197,-85.39957536
-1.83616235,1.05082797,-2.07150956

>  <Name>
ligand

>  <RI>
0

>  <Rbt.Current_Directory>
/home/itssahil/PROJECTS/Mol_Feturizer/Test_systems_manuscript/rnas/1f1t

>  <Rbt.Executable>
rbdock ($Id: //depot/dev/client3/rdock/2013.1/src/exe/rbdock.cxx#4 $)

>  <Rbt.Library>
libRbt.so (2013.1, Build901 2013/11/27)

>  <Rbt.Parameter_File>
/export/apps/rDock/src/rDock_2013.1_src/data/scripts/dock_solv.prm

>  <Rbt.Receptor>
prm/pocket_docking_3.prm

>  <SCORE>
-53.3957

>  <SCORE.INTER>
-56.2126

>  <SCORE.INTER.CONST>
1

>  <SCORE.INTER.POLAR>
0

>  <SCORE.INTER.ROT>
3

>  <SCORE.INTER.SOLV>
8.9136

>  <SCORE.INTER.VDW>
-46.0462

>  <SCORE.INTER.norm>
-2.16202

>  <SCORE.INTRA>
2.81685

>  <SCORE.INTRA.DIHEDRAL>
-0.000572971

>  <SCORE.INTRA.DIHEDRAL.0>
3.60016

>  <SCORE.INTRA.POLAR>
0

>  <SCORE.INTRA.POLAR.0>
0

>  <SCORE.INTRA.REPUL>
0

>  <SCORE.INTRA.REPUL.0>
0

>  <SCORE.INTRA.SOLV>
-0.000979418

>  <SCORE.INTRA.SOLV.lig_0>
-10.9882

>  <SCORE.INTRA.VDW>
2.81763

>  <SCORE.INTRA.VDW.0>
1.84442

>  <SCORE.INTRA.norm>
0.108341

>  <SCORE.RESTR>
0

>  <SCORE.RESTR.CAVITY>
0

>  <SCORE.RESTR.norm>
0

>  <SCORE.SYSTEM>
0

>  <SCORE.SYSTEM.CONST>
0

>  <SCORE.SYSTEM.DIHEDRAL>
0

>  <SCORE.SYSTEM.SOLV>
0

>  <SCORE.SYSTEM.norm>
0

>  <SCORE.heavy>
26

>  <SCORE.norm>
-2.05368

>  <RMSD>
0.707

$$$$
ligand
 OpenBabel02271912153D
libRbt.so/2013.1/901 2013/11/27
 26 29  0  0  0  0  0  0  0  0999 V2000
  112.2328  -79.4734  -87.1338 C   0  0  1  0  0  0  0  0  0  0  0  0
  112.7542  -80.6964  -87.5308 N   0  0  0  0  0  0  0  0  0  0  0  0
  112.3585  -79.0432  -85.7491 C   0  0  0  0  0  0  0  0  0  0  0  0
  111.2983  -74.4382  -80.6676 N   0  0  0  0  0  0  0  0  0  0  0  0
  111.9375  -77.4041  -84.0799 O   0  0  0  0  0  0  0  0  0  0  0  0
  111.7819  -77.7944  -85.5093 C   0  0  2  0  0  0  0  0  0  0  0  0
  111.3988  -76.2671  -83.8678 C   0  0  1  0  0  0  0  0  0  0  0  0
  111.6132  -75.9708  -82.4515 C   0  0  0  0  0  0  0  0  0  0  0  0
  111.0571  -74.7130  -82.0246 C   0  0  2  0  0  0  0  0  0  0  0  0
  110.3545  -73.8507  -82.9024 C   0  0  0  0  0  0  0  0  0  0  0  0
  110.1839  -74.1990  -84.3007 C   0  0  0  0  0  0  0  0  0  0  0  0
  110.7455  -75.4479  -84.7539 C   0  0  2  0  0  0  0  0  0  0  0  0
  110.5366  -75.7252  -86.2241 C   0  0  1  0  0  0  0  0  0  0  0  0
  111.1357  -76.9804  -86.4331 C   0  0  2  0  0  0  0  0  0  0  0  0
  111.0258  -77.4280  -87.8233 C   0  0  0  0  0  0  0  0  0  0  0  0
  111.6056  -78.7055  -88.0956 C   0  0  0  0  0  0  0  0  0  0  0  0
  109.8768  -74.8539  -87.0699 C   0  0  0  0  0  0  0  0  0  0  0  0
  108.7914  -75.1910  -87.9117 C   0  0  0  0  0  0  0  0  0  0  0  0
  108.1025  -74.3209  -88.7586 C   0  0  0  0  0  0  0  0  0  0  0  0
  108.4923  -72.9203  -88.8224 C   0  0  0  0  0  0  0  0  0  0  0  0
  109.5874  -72.6182  -87.9777 C   0  0  0  0  0  0  0  0  0  0  0  0
  110.3089  -73.4573  -87.1175 C   0  0  0  0  0  0  0  0  0  0  0  0
  112.7926  -81.1064  -88.9317 C   0  0  0  0  0  0  0  0  0  0  0  0
  113.3360  -81.7301  -86.6483 C   0  0  0  0  0  0  0  0  0  0  0  0
  111.9576  -75.2316  -79.6064 C   0  0  0  0  0  0  0  0  0  0  0  0
  110.8417  -73.1029  -80.1428 C   0  0  0  0  0  0  0  0  0  0  0  0
  1  2  1  6  0  0  0
  1  3  1  0  0  0  0
  1 16  1  0  0  0  0
  2 23  1  0  0  0  0
  2 24  1  0  0  0  0
  4 25  1  0  0  0  0
  4 26  1  0  0  0  0
  5  6  1  0  0  0  0
  6  3  1  1  0  0  0
  6 14  1  0  0  0  0
  7  5  1  6  0  0  0
  7  8  1  0  0  0  0
  7 12  1  0  0  0  0
  8  9  1  0  0  0  0
  9  4  1  6  0  0  0
  9 10  1  0  0  0  0
 10 11  1  0  0  0  0
 12 11  1  1  0  0  0
 12 13  1  0  0  0  0
 13 14  1  0  0  0  0
 13 17  1  1  0  0  0
 14 15  1  1  0  0  0
 15 16  1  0  0  0  0
 17 18  1  0  0  0  0
 17 22  1  0  0  0  0
 18 19  1  0  0  0  0
 19 20  1  0  0  0  0
 20 21  1  0  0  0  0
 21 22  1  0  0  0  0
M  END
>  <CHROM.1>
-172.78375341,-3.24373283,-127.17261588,111.07228577,-76.34196987,-85.38862499
-1.24373602,-1.05704102,1.09466768

>  <Name>
ligand

>  <RI>
0

>  <Rbt.Current_Directory>
/home/itssahil/PROJECTS/Mol_Feturizer/Test_systems_manuscript/rnas/1f1t

>  <Rbt.Executable>
rbdock ($Id: //depot/dev/client3/rdock/2013.1/src/exe/rbdock.cxx#4 $)

>  <Rbt.Library>
libRbt.so (2013.1, Build901 2013/11/27)

>  <Rbt.Parameter_File>
/export/apps/rDock/src/rDock_2013.1_src/data/scripts/dock_solv.prm

>  <Rbt.Receptor>
prm/pocket_docking_5.prm

>  <SCORE>
-55.7789

>  <SCORE.INTER>
-56.3149

>  <SCORE.INTER.CONST>
1

>  <SCORE.INTER.POLAR>
0

>  <SCORE.INTER.ROT>
3

>  <SCORE.INTER.SOLV>
8.92317

>  <SCORE.INTER.VDW>
-46.1176

>  <SCORE.INTER.norm>
-2.16596

>  <SCORE.INTRA>
0.535928

>  <SCORE.INTRA.DIHEDRAL>
4.40825e-06

>  <SCORE.INTRA.DIHEDRAL.0>
3.60016

>  <SCORE.INTRA.POLAR>
0

>  <SCORE.INTRA.POLAR.0>
0

>  <SCORE.INTRA.REPUL>
0

>  <SCORE.INTRA.REPUL.0>
0

>  <SCORE.INTRA.SOLV>
1.96377e-05

>  <SCORE.INTRA.SOLV.lig_0>
-10.9882

>  <SCORE.INTRA.VDW>
0.535916

>  <SCORE.INTRA.VDW.0>
1.84442

>  <SCORE.INTRA.norm>
0.0206126

>  <SCORE.RESTR>
0

>  <SCORE.RESTR.CAVITY>
0

>  <SCORE.RESTR.norm>
0

>  <SCORE.SYSTEM>
0

>  <SCORE.SYSTEM.CONST>
0

>  <SCORE.SYSTEM.DIHEDRAL>
0

>  <SCORE.SYSTEM.SOLV>
0

>  <SCORE.SYSTEM.norm>
0

>  <SCORE.heavy>
26

>  <SCORE.norm>
-2.14534

>  <RMSD>
0.707

$$$$
ligand
 OpenBabel02271912153D
libRbt.so/2013.1/901 2013/11/27
 26 29  0  0  0  0  0  0  0  0999 V2000
  111.1816  -74.7257  -81.9928 C   0  0  1  0  0  0  0  0  0  0  0  0
  111.3612  -74.3640  -80.6654 N   0  0  0  0  0  0  0  0  0  0  0  0
  111.7074  -75.9925  -82.4798 C   0  0  0  0  0  0  0  0  0  0  0  0
  112.7212  -80.6443  -87.5280 N   0  0  0  0  0  0  0  0  0  0  0  0
  112.0071  -77.5155  -84.2799 O   0  0  0  0  0  0  0  0  0  0  0  0
  111.4475  -76.2086  -83.8345 C   0  0  2  0  0  0  0  0  0  0  0  0
  111.7742  -77.6996  -85.5208 C   0  0  1  0  0  0  0  0  0  0  0  0
  112.3480  -79.0028  -85.8557 C   0  0  0  0  0  0  0  0  0  0  0  0
  112.1856  -79.3781  -87.2364 C   0  0  2  0  0  0  0  0  0  0  0  0
  111.5374  -78.5467  -88.1831 C   0  0  0  0  0  0  0  0  0  0  0  0
  110.9807  -77.2674  -87.7844 C   0  0  0  0  0  0  0  0  0  0  0  0
  111.1190  -76.8774  -86.4027 C   0  0  2  0  0  0  0  0  0  0  0  0
  110.4984  -75.5410  -86.0698 C   0  0  1  0  0  0  0  0  0  0  0  0
  110.7685  -75.3596  -84.7015 C   0  0  2  0  0  0  0  0  0  0  0  0
  110.2408  -74.0926  -84.1905 C   0  0  0  0  0  0  0  0  0  0  0  0
  110.4957  -73.8449  -82.8062 C   0  0  0  0  0  0  0  0  0  0  0  0
  109.8412  -74.7611  -87.0024 C   0  0  0  0  0  0  0  0  0  0  0  0
  108.7989  -75.2002  -87.8516 C   0  0  0  0  0  0  0  0  0  0  0  0
  108.1126  -74.4226  -88.7861 C   0  0  0  0  0  0  0  0  0  0  0  0
  108.4578  -73.0179  -88.9452 C   0  0  0  0  0  0  0  0  0  0  0  0
  109.5108  -72.6131  -88.0901 C   0  0  0  0  0  0  0  0  0  0  0  0
  110.2281  -73.3576  -87.1435 C   0  0  0  0  0  0  0  0  0  0  0  0
  110.9510  -73.0593  -80.1536 C   0  0  0  0  0  0  0  0  0  0  0  0
  111.9578  -75.1994  -79.6014 C   0  0  0  0  0  0  0  0  0  0  0  0
  112.9098  -81.3602  -88.8095 C   0  0  0  0  0  0  0  0  0  0  0  0
  113.2276  -81.4620  -86.3696 C   0  0  0  0  0  0  0  0  0  0  0  0
  1  2  1  1  0  0  0
  1  3  1  0  0  0  0
  1 16  1  0  0  0  0
  2 23  1  0  0  0  0
  2 24  1  0  0  0  0
  4 25  1  0  0  0  0
  4 26  1  0  0  0  0
  5  6  1  0  0  0  0
  6  3  1  6  0  0  0
  6 14  1  0  0  0  0
  7  5  1  1  0  0  0
  7  8  1  0  0  0  0
  7 12  1  0  0  0  0
  8  9  1  0  0  0  0
  9  4  1  1  0  0  0
  9 10  1  0  0  0  0
 10 11  1  0  0  0  0
 12 11  1  6  0  0  0
 12 13  1  0  0  0  0
 13 14  1  0  0  0  0
 13 17  1  6  0  0  0
 14 15  1  6  0  0  0
 15 16  1  0  0  0  0
 17 18  1  0  0  0  0
 17 22  1  0  0  0  0
 18 19  1  0  0  0  0
 19 20  1  0  0  0  0
 20 21  1  0  0  0  0
 21 22  1  0  0  0  0
M  END
>  <CHROM.1>
174.86648969,-172.55776312,51.88626527,111.08387238,-76.29994641,-85.37835989
-1.85865923,1.05353451,-2.06982569

>  <Name>
ligand

>  <RI>
0

>  <Rbt.Current_Directory>
/home/itssahil/PROJECTS/Mol_Feturizer/Test_systems_manuscript/rnas/1f1t

>  <Rbt.Executable>
rbdock ($Id: //depot/dev/client3/rdock/2013.1/src/exe/rbdock.cxx#4 $)

>  <Rbt.Library>
libRbt.so (2013.1, Build901 2013/11/27)

>  <Rbt.Parameter_File>
/export/apps/rDock/src/rDock_2013.1_src/data/scripts/dock_solv.prm

>  <Rbt.Receptor>
prm/pocket_docking_7.prm

>  <SCORE>
-53.4265

>  <SCORE.INTER>
-56.2312

>  <SCORE.INTER.CONST>
1

>  <SCORE.INTER.POLAR>
0

>  <SCORE.INTER.ROT>
3

>  <SCORE.INTER.SOLV>
8.93928

>  <SCORE.INTER.VDW>
-46.0672

>  <SCORE.INTER.norm>
-2.16274

>  <SCORE.INTRA>
2.80477

>  <SCORE.INTRA.DIHEDRAL>
-0.000287802

>  <SCORE.INTRA.DIHEDRAL.0>
3.60016

>  <SCORE.INTRA.POLAR>
0

>  <SCORE.INTRA.POLAR.0>
0

>  <SCORE.INTRA.REPUL>
0

>  <SCORE.INTRA.REPUL.0>
0

>  <SCORE.INTRA.SOLV>
-0.000977674

>  <SCORE.INTRA.SOLV.lig_0>
-10.9882

>  <SCORE.INTRA.VDW>
2.8054

>  <SCORE.INTRA.VDW.0>
1.84442

>  <SCORE.INTRA.norm>
0.107876

>  <SCORE.RESTR>
0

>  <SCORE.RESTR.CAVITY>
0

>  <SCORE.RESTR.norm>
0

>  <SCORE.SYSTEM>
0

>  <SCORE.SYSTEM.CONST>
0

>  <SCORE.SYSTEM.DIHEDRAL>
0

>  <SCORE.SYSTEM.SOLV>
0

>  <SCORE.SYSTEM.norm>
0

>  <SCORE.heavy>
26

>  <SCORE.norm>
-2.05486

>  <RMSD>
0.707

$$$$
ligand
 OpenBabel02271912153D
libRbt.so/2013.1/901 2013/11/27
 26 29  0  0  0  0  0  0  0  0999 V2000
  111.2631  -74.6217  -81.8680 C   0  0  1  0  0  0  0  0  0  0  0  0
  111.4412  -74.2730  -80.5369 N   0  0  0  0  0  0  0  0  0  0  0  0
  111.7509  -75.9031  -82.3566 C   0  0  0  0  0  0  0  0  0  0  0  0
  112.6588  -80.5608  -87.4195 N   0  0  0  0  0  0  0  0  0  0  0  0
  112.0175  -77.4261  -84.1619 O   0  0  0  0  0  0  0  0  0  0  0  0
  111.4977  -76.1033  -83.7150 C   0  0  2  0  0  0  0  0  0  0  0  0
  111.7912  -77.5960  -85.4060 C   0  0  1  0  0  0  0  0  0  0  0  0
  112.3241  -78.9161  -85.7421 C   0  0  0  0  0  0  0  0  0  0  0  0
  112.1633  -79.2786  -87.1265 C   0  0  2  0  0  0  0  0  0  0  0  0
  111.5532  -78.4211  -88.0751 C   0  0  0  0  0  0  0  0  0  0  0  0
  111.0358  -77.1257  -87.6751 C   0  0  0  0  0  0  0  0  0  0  0  0
  111.1731  -76.7477  -86.2899 C   0  0  2  0  0  0  0  0  0  0  0  0
  110.5945  -75.3928  -85.9561 C   0  0  1  0  0  0  0  0  0  0  0  0
  110.8565  -75.2275  -84.5841 C   0  0  2  0  0  0  0  0  0  0  0  0
  110.3667  -73.9460  -84.0716 C   0  0  0  0  0  0  0  0  0  0  0  0
  110.6157  -73.7141  -82.6835 C   0  0  0  0  0  0  0  0  0  0  0  0
  109.9735  -74.5864  -86.8910 C   0  0  0  0  0  0  0  0  0  0  0  0
  110.3147  -73.2429  -87.1724 C   0  0  0  0  0  0  0  0  0  0  0  0
  109.7104  -72.4199  -88.1244 C   0  0  0  0  0  0  0  0  0  0  0  0
  108.6206  -72.9397  -88.9367 C   0  0  0  0  0  0  0  0  0  0  0  0
  108.2963  -74.2815  -88.6231 C   0  0  0  0  0  0  0  0  0  0  0  0
  108.8712  -75.1407  -87.6765 C   0  0  0  0  0  0  0  0  0  0  0  0
  112.0562  -75.1802  -79.5720 C   0  0  0  0  0  0  0  0  0  0  0  0
  111.0661  -72.9883  -79.9088 C   0  0  0  0  0  0  0  0  0  0  0  0
  113.2639  -81.6010  -86.5581 C   0  0  0  0  0  0  0  0  0  0  0  0
  112.5701  -81.0239  -88.8494 C   0  0  0  0  0  0  0  0  0  0  0  0
  1  2  1  1  0  0  0
  1  3  1  0  0  0  0
  1 16  1  0  0  0  0
  2 23  1  0  0  0  0
  2 24  1  0  0  0  0
  4 25  1  0  0  0  0
  4 26  1  0  0  0  0
  5  6  1  0  0  0  0
  6  3  1  6  0  0  0
  6 14  1  0  0  0  0
  7  5  1  1  0  0  0
  7  8  1  0  0  0  0
  7 12  1  0  0  0  0
  8  9  1  0  0  0  0
  9  4  1  1  0  0  0
  9 10  1  0  0  0  0
 10 11  1  0  0  0  0
 12 11  1  6  0  0  0
 12 13  1  0  0  0  0
 13 14  1  0  0  0  0
 13 17  1  6  0  0  0
 14 15  1  6  0  0  0
 15 16  1  0  0  0  0
 17 18  1  0  0  0  0
 17 22  1  0  0  0  0
 18 19  1  0  0  0  0
 19 20  1  0  0  0  0
 20 21  1  0  0  0  0
 21 22  1  0  0  0  0
M  END
>  <CHROM.1>
-2.86311266,2.37275982,-125.76197217,111.13664382,-76.19201046,-85.29183756
-1.80800523,1.08152848,-2.08308152

>  <Name>
ligand

>  <RI>
0

>  <Rbt.Current_Directory>
/home/itssahil/PROJECTS/Mol_Feturizer/Test_systems_manuscript/rnas/1f1t

>  <Rbt.Executable>
rbdock ($Id: //depot/dev/client3/rdock/2013.1/src/exe/rbdock.cxx#4 $)

>  <Rbt.Library>
libRbt.so (2013.1, Build901 2013/11/27)

>  <Rbt.Parameter_File>
/export/apps/rDock/src/rDock_2013.1_src/data/scripts/dock_solv.prm

>  <Rbt.Receptor>
prm/pocket_docking_8.prm

>  <SCORE>
-56.3599

>  <SCORE.INTER>
-56.6009

>  <SCORE.INTER.CONST>
1

>  <SCORE.INTER.POLAR>
0

>  <SCORE.INTER.ROT>
3

>  <SCORE.INTER.SOLV>
9.14561

>  <SCORE.INTER.VDW>
-46.3824

>  <SCORE.INTER.norm>
-2.17696

>  <SCORE.INTRA>
0.240944

>  <SCORE.INTRA.DIHEDRAL>
-1.00148e-05

>  <SCORE.INTRA.DIHEDRAL.0>
3.60016

>  <SCORE.INTRA.POLAR>
0

>  <SCORE.INTRA.POLAR.0>
0

>  <SCORE.INTRA.REPUL>
0

>  <SCORE.INTRA.REPUL.0>
0

>  <SCORE.INTRA.SOLV>
6.16568e-06

>  <SCORE.INTRA.SOLV.lig_0>
-10.9882

>  <SCORE.INTRA.VDW>
0.240946

>  <SCORE.INTRA.VDW.0>
1.84442

>  <SCORE.INTRA.norm>
0.00926708

>  <SCORE.RESTR>
0

>  <SCORE.RESTR.CAVITY>
0

>  <SCORE.RESTR.norm>
0

>  <SCORE.SYSTEM>
0

>  <SCORE.SYSTEM.CONST>
0

>  <SCORE.SYSTEM.DIHEDRAL>
0

>  <SCORE.SYSTEM.SOLV>
0

>  <SCORE.SYSTEM.norm>
0

>  <SCORE.heavy>
26

>  <SCORE.norm>
-2.16769

>  <RMSD>
0.707

$$$$
ligand
 OpenBabel02271912153D
libRbt.so/2013.1/901 2013/11/27
 26 29  0  0  0  0  0  0  0  0999 V2000
  111.2379  -74.7009  -81.9118 C   0  0  1  0  0  0  0  0  0  0  0  0
  111.4149  -74.3670  -80.5768 N   0  0  0  0  0  0  0  0  0  0  0  0
  111.7447  -75.9675  -82.4189 C   0  0  0  0  0  0  0  0  0  0  0  0
  112.7106  -80.5425  -87.5460 N   0  0  0  0  0  0  0  0  0  0  0  0
  112.0297  -77.4621  -84.2451 O   0  0  0  0  0  0  0  0  0  0  0  0
  111.4902  -76.1539  -83.7790 C   0  0  2  0  0  0  0  0  0  0  0  0
  111.8020  -77.6191  -85.4906 C   0  0  1  0  0  0  0  0  0  0  0  0
  112.3551  -78.9258  -85.8460 C   0  0  0  0  0  0  0  0  0  0  0  0
  112.1954  -79.2726  -87.2344 C   0  0  2  0  0  0  0  0  0  0  0  0
  111.5683  -78.4126  -88.1697 C   0  0  0  0  0  0  0  0  0  0  0  0
  111.0314  -77.1312  -87.7508 C   0  0  0  0  0  0  0  0  0  0  0  0
  111.1672  -76.7693  -86.3612 C   0  0  2  0  0  0  0  0  0  0  0  0
  110.5680  -75.4285  -86.0076 C   0  0  1  0  0  0  0  0  0  0  0  0
  110.8319  -75.2772  -84.6344 C   0  0  2  0  0  0  0  0  0  0  0  0
  110.3232  -74.0107  -84.1033 C   0  0  0  0  0  0  0  0  0  0  0  0
  110.5731  -73.7932  -82.7131 C   0  0  0  0  0  0  0  0  0  0  0  0
  109.9308  -74.6200  -86.9297 C   0  0  0  0  0  0  0  0  0  0  0  0
  110.2750  -73.2799  -87.2229 C   0  0  0  0  0  0  0  0  0  0  0  0
  109.6543  -72.4549  -88.1626 C   0  0  0  0  0  0  0  0  0  0  0  0
  108.5417  -72.9687  -88.9473 C   0  0  0  0  0  0  0  0  0  0  0  0
  108.2151  -74.3073  -88.6223 C   0  0  0  0  0  0  0  0  0  0  0  0
  108.8061  -75.1683  -87.6872 C   0  0  0  0  0  0  0  0  0  0  0  0
  110.9598  -73.0925  -80.0280 C   0  0  0  0  0  0  0  0  0  0  0  0
  112.0518  -75.2061  -79.5395 C   0  0  0  0  0  0  0  0  0  0  0  0
  112.8827  -81.2432  -88.8382 C   0  0  0  0  0  0  0  0  0  0  0  0
  113.2100  -81.3837  -86.4015 C   0  0  0  0  0  0  0  0  0  0  0  0
  1  2  1  1  0  0  0
  1  3  1  0  0  0  0
  1 16  1  0  0  0  0
  2 23  1  0  0  0  0
  2 24  1  0  0  0  0
  4 25  1  0  0  0  0
  4 26  1  0  0  0  0
  5  6  1  0  0  0  0
  6  3  1  6  0  0  0
  6 14  1  0  0  0  0
  7  5  1  1  0  0  0
  7  8  1  0  0  0  0
  7 12  1  0  0  0  0
  8  9  1  0  0  0  0
  9  4  1  1  0  0  0
  9 10  1  0  0  0  0
 10 11  1  0  0  0  0
 12 11  1  6  0  0  0
 12 13  1  0  0  0  0
 13 14  1  0  0  0  0
 13 17  1  6  0  0  0
 14 15  1  6  0  0  0
 15 16  1  0  0  0  0
 17 18  1  0  0  0  0
 17 22  1  0  0  0  0
 18 19  1  0  0  0  0
 19 20  1  0  0  0  0
 20 21  1  0  0  0  0
 21 22  1  0  0  0  0
M  END
>  <CHROM.1>
178.19043624,-173.26817883,-123.75142735,111.12833196,-76.22663652,-85.33600654
-1.83561158,1.06611635,-2.05763268

>  <Name>
ligand

>  <RI>
0

>  <Rbt.Current_Directory>
/home/itssahil/PROJECTS/Mol_Feturizer/Test_systems_manuscript/rnas/1f1t

>  <Rbt.Executable>
rbdock ($Id: //depot/dev/client3/rdock/2013.1/src/exe/rbdock.cxx#4 $)

>  <Rbt.Library>
libRbt.so (2013.1, Build901 2013/11/27)

>  <Rbt.Parameter_File>
/export/apps/rDock/src/rDock_2013.1_src/data/scripts/dock_solv.prm

>  <Rbt.Receptor>
prm/pocket_docking_4.prm

>  <SCORE>
-53.4303

>  <SCORE.INTER>
-56.244

>  <SCORE.INTER.CONST>
1

>  <SCORE.INTER.POLAR>
0

>  <SCORE.INTER.ROT>
3

>  <SCORE.INTER.SOLV>
9.0734

>  <SCORE.INTER.VDW>
-46.1205

>  <SCORE.INTER.norm>
-2.16323

>  <SCORE.INTRA>
2.81371

>  <SCORE.INTRA.DIHEDRAL>
-0.00058148

>  <SCORE.INTRA.DIHEDRAL.0>
3.60016

>  <SCORE.INTRA.POLAR>
0

>  <SCORE.INTRA.POLAR.0>
0

>  <SCORE.INTRA.REPUL>
0

>  <SCORE.INTRA.REPUL.0>
0

>  <SCORE.INTRA.SOLV>
-0.000990967

>  <SCORE.INTRA.SOLV.lig_0>
-10.9882

>  <SCORE.INTRA.VDW>
2.8145

>  <SCORE.INTRA.VDW.0>
1.84442

>  <SCORE.INTRA.norm>
0.10822

>  <SCORE.RESTR>
0

>  <SCORE.RESTR.CAVITY>
0

>  <SCORE.RESTR.norm>
0

>  <SCORE.SYSTEM>
0

>  <SCORE.SYSTEM.CONST>
0

>  <SCORE.SYSTEM.DIHEDRAL>
0

>  <SCORE.SYSTEM.SOLV>
0

>  <SCORE.SYSTEM.norm>
0

>  <SCORE.heavy>
26

>  <SCORE.norm>
-2.05501

>  <RMSD>
0.708

$$$$
ligand
 OpenBabel02271912153D
libRbt.so/2013.1/901 2013/11/27
 26 29  0  0  0  0  0  0  0  0999 V2000
  112.2309  -79.4301  -87.0976 C   0  0  1  0  0  0  0  0  0  0  0  0
  112.7343  -80.6614  -87.4923 N   0  0  0  0  0  0  0  0  0  0  0  0
  112.3616  -78.9999  -85.7133 C   0  0  0  0  0  0  0  0  0  0  0  0
  111.3657  -74.3725  -80.6393 N   0  0  0  0  0  0  0  0  0  0  0  0
  111.9637  -77.3524  -84.0469 O   0  0  0  0  0  0  0  0  0  0  0  0
  111.8036  -77.7423  -85.4758 C   0  0  2  0  0  0  0  0  0  0  0  0
  111.4419  -76.2072  -83.8369 C   0  0  1  0  0  0  0  0  0  0  0  0
  111.6593  -75.9121  -82.4208 C   0  0  0  0  0  0  0  0  0  0  0  0
  111.1217  -74.6455  -81.9961 C   0  0  2  0  0  0  0  0  0  0  0  0
  110.4331  -73.7740  -82.8758 C   0  0  0  0  0  0  0  0  0  0  0  0
  110.2586  -74.1217  -84.2738 C   0  0  0  0  0  0  0  0  0  0  0  0
  110.8019  -75.3794  -84.7247 C   0  0  2  0  0  0  0  0  0  0  0  0
  110.5903  -75.6556  -86.1947 C   0  0  1  0  0  0  0  0  0  0  0  0
  111.1707  -76.9200  -86.4014 C   0  0  2  0  0  0  0  0  0  0  0  0
  111.0555  -77.3678  -87.7911 C   0  0  0  0  0  0  0  0  0  0  0  0
  111.6163  -78.6543  -88.0611 C   0  0  0  0  0  0  0  0  0  0  0  0
  109.9445  -74.7757  -87.0424 C   0  0  0  0  0  0  0  0  0  0  0  0
  110.2657  -73.4080  -87.2058 C   0  0  0  0  0  0  0  0  0  0  0  0
  109.6361  -72.5098  -88.0694 C   0  0  0  0  0  0  0  0  0  0  0  0
  108.5386  -72.9675  -88.9082 C   0  0  0  0  0  0  0  0  0  0  0  0
  108.2348  -74.3363  -88.7128 C   0  0  0  0  0  0  0  0  0  0  0  0
  108.8353  -75.2705  -87.8575 C   0  0  0  0  0  0  0  0  0  0  0  0
  112.7758  -81.0704  -88.8935 C   0  0  0  0  0  0  0  0  0  0  0  0
  113.2921  -81.7058  -86.6070 C   0  0  0  0  0  0  0  0  0  0  0  0
  112.0001  -75.1795  -79.5731 C   0  0  0  0  0  0  0  0  0  0  0  0
  110.9431  -73.0237  -80.1206 C   0  0  0  0  0  0  0  0  0  0  0  0
  1  2  1  6  0  0  0
  1  3  1  0  0  0  0
  1 16  1  0  0  0  0
  2 23  1  0  0  0  0
  2 24  1  0  0  0  0
  4 25  1  0  0  0  0
  4 26  1  0  0  0  0
  5  6  1  0  0  0  0
  6  3  1  1  0  0  0
  6 14  1  0  0  0  0
  7  5  1  6  0  0  0
  7  8  1  0  0  0  0
  7 12  1  0  0  0  0
  8  9  1  0  0  0  0
  9  4  1  6  0  0  0
  9 10  1  0  0  0  0
 10 11  1  0  0  0  0
 12 11  1  1  0  0  0
 12 13  1  0  0  0  0
 13 14  1  0  0  0  0
 13 17  1  1  0  0  0
 14 15  1  1  0  0  0
 15 16  1  0  0  0  0
 17 18  1  0  0  0  0
 17 22  1  0  0  0  0
 18 19  1  0  0  0  0
 19 20  1  0  0  0  0
 20 21  1  0  0  0  0
 21 22  1  0  0  0  0
M  END
>  <CHROM.1>
-172.38647002,-3.93483690,52.74479599,111.10862715,-76.29466218,-85.36842979
-1.27427361,-1.06687917,1.07951210

>  <Name>
ligand

>  <RI>
0

>  <Rbt.Current_Directory>
/home/itssahil/PROJECTS/Mol_Feturizer/Test_systems_manuscript/rnas/1f1t

>  <Rbt.Executable>
rbdock ($Id: //depot/dev/client3/rdock/2013.1/src/exe/rbdock.cxx#4 $)

>  <Rbt.Library>
libRbt.so (2013.1, Build901 2013/11/27)

>  <Rbt.Parameter_File>
/export/apps/rDock/src/rDock_2013.1_src/data/scripts/dock_solv.prm

>  <Rbt.Receptor>
prm/pocket_docking_7.prm

>  <SCORE>
-56.3012

>  <SCORE.INTER>
-56.7437

>  <SCORE.INTER.CONST>
1

>  <SCORE.INTER.POLAR>
0

>  <SCORE.INTER.ROT>
3

>  <SCORE.INTER.SOLV>
8.95143

>  <SCORE.INTER.VDW>
-46.413

>  <SCORE.INTER.norm>
-2.18245

>  <SCORE.INTRA>
0.442513

>  <SCORE.INTRA.DIHEDRAL>
0.000286762

>  <SCORE.INTRA.DIHEDRAL.0>
3.60016

>  <SCORE.INTRA.POLAR>
0

>  <SCORE.INTRA.POLAR.0>
0

>  <SCORE.INTRA.REPUL>
0

>  <SCORE.INTRA.REPUL.0>
0

>  <SCORE.INTRA.SOLV>
2.27314e-05

>  <SCORE.INTRA.SOLV.lig_0>
-10.9882

>  <SCORE.INTRA.VDW>
0.442359

>  <SCORE.INTRA.VDW.0>
1.84442

>  <SCORE.INTRA.norm>
0.0170197

>  <SCORE.RESTR>
0

>  <SCORE.RESTR.CAVITY>
0

>  <SCORE.RESTR.norm>
0

>  <SCORE.SYSTEM>
0

>  <SCORE.SYSTEM.CONST>
0

>  <SCORE.SYSTEM.DIHEDRAL>
0

>  <SCORE.SYSTEM.SOLV>
0

>  <SCORE.SYSTEM.norm>
0

>  <SCORE.heavy>
26

>  <SCORE.norm>
-2.16543

>  <RMSD>
0.708

$$$$
ligand
 OpenBabel02271912153D
libRbt.so/2013.1/901 2013/11/27
 26 29  0  0  0  0  0  0  0  0999 V2000
  112.2299  -79.4812  -87.1165 C   0  0  1  0  0  0  0  0  0  0  0  0
  112.7445  -80.7091  -87.5071 N   0  0  0  0  0  0  0  0  0  0  0  0
  112.3657  -79.0406  -85.7360 C   0  0  0  0  0  0  0  0  0  0  0  0
  111.3536  -74.3923  -80.6842 N   0  0  0  0  0  0  0  0  0  0  0  0
  111.9610  -77.3871  -84.0771 O   0  0  0  0  0  0  0  0  0  0  0  0
  111.7950  -77.7880  -85.5024 C   0  0  2  0  0  0  0  0  0  0  0  0
  111.4276  -76.2466  -83.8706 C   0  0  1  0  0  0  0  0  0  0  0  0
  111.6519  -75.9399  -82.4580 C   0  0  0  0  0  0  0  0  0  0  0  0
  111.1029  -74.6769  -82.0375 C   0  0  2  0  0  0  0  0  0  0  0  0
  110.3978  -73.8191  -82.9176 C   0  0  0  0  0  0  0  0  0  0  0  0
  110.2171  -74.1777  -84.3120 C   0  0  0  0  0  0  0  0  0  0  0  0
  110.7715  -75.4320  -84.7589 C   0  0  2  0  0  0  0  0  0  0  0  0
  110.5524  -75.7201  -86.2255 C   0  0  1  0  0  0  0  0  0  0  0  0
  111.1458  -76.9790  -86.4285 C   0  0  2  0  0  0  0  0  0  0  0  0
  111.0255  -77.4371  -87.8144 C   0  0  0  0  0  0  0  0  0  0  0  0
  111.5992  -78.7187  -88.0803 C   0  0  0  0  0  0  0  0  0  0  0  0
  109.8902  -74.8532  -87.0740 C   0  0  0  0  0  0  0  0  0  0  0  0
  108.7892  -75.1896  -87.8956 C   0  0  0  0  0  0  0  0  0  0  0  0
  108.0979  -74.3236  -88.7447 C   0  0  0  0  0  0  0  0  0  0  0  0
  108.5022  -72.9284  -88.8335 C   0  0  0  0  0  0  0  0  0  0  0  0
  109.6125  -72.6271  -88.0086 C   0  0  0  0  0  0  0  0  0  0  0  0
  110.3369  -73.4623  -87.1470 C   0  0  0  0  0  0  0  0  0  0  0  0
  113.2578  -81.6783  -86.5430 C   0  0  0  0  0  0  0  0  0  0  0  0
  112.8448  -81.2180  -88.8916 C   0  0  0  0  0  0  0  0  0  0  0  0
  111.9932  -75.1903  -79.6144 C   0  0  0  0  0  0  0  0  0  0  0  0
  110.9339  -73.0390  -80.1750 C   0  0  0  0  0  0  0  0  0  0  0  0
  1  2  1  6  0  0  0
  1  3  1  0  0  0  0
  1 16  1  0  0  0  0
  2 23  1  0  0  0  0
  2 24  1  0  0  0  0
  4 25  1  0  0  0  0
  4 26  1  0  0  0  0
  5  6  1  0  0  0  0
  6  3  1  1  0  0  0
  6 14  1  0  0  0  0
  7  5  1  6  0  0  0
  7  8  1  0  0  0  0
  7 12  1  0  0  0  0
  8  9  1  0  0  0  0
  9  4  1  6  0  0  0
  9 10  1  0  0  0  0
 10 11  1  0  0  0  0
 12 11  1  1  0  0  0
 12 13  1  0  0  0  0
 13 14  1  0  0  0  0
 13 17  1  1  0  0  0
 14 15  1  1  0  0  0
 15 16  1  0  0  0  0
 17 18  1  0  0  0  0
 17 22  1  0  0  0  0
 18 19  1  0  0  0  0
 19 20  1  0  0  0  0
 20 21  1  0  0  0  0
 21 22  1  0  0  0  0
M  END
>  <CHROM.1>
8.98568023,-4.63330168,-126.45502524,111.09156526,-76.33338138,-85.38467104
-1.25651924,-1.05871609,1.07357379

>  <Name>
ligand

>  <RI>
0

>  <Rbt.Current_Directory>
/home/itssahil/PROJECTS/Mol_Feturizer/Test_systems_manuscript/rnas/1f1t

>  <Rbt.Executable>
rbdock ($Id: //depot/dev/client3/rdock/2013.1/src/exe/rbdock.cxx#4 $)

>  <Rbt.Library>
libRbt.so (2013.1, Build901 2013/11/27)

>  <Rbt.Parameter_File>
/export/apps/rDock/src/rDock_2013.1_src/data/scripts/dock_solv.prm

>  <Rbt.Receptor>
prm/pocket_docking_4.prm

>  <SCORE>
-56.0028

>  <SCORE.INTER>
-56.182

>  <SCORE.INTER.CONST>
1

>  <SCORE.INTER.POLAR>
0

>  <SCORE.INTER.ROT>
3

>  <SCORE.INTER.SOLV>
8.88054

>  <SCORE.INTER.VDW>
-46.0149

>  <SCORE.INTER.norm>
-2.16085

>  <SCORE.INTRA>
0.179266

>  <SCORE.INTRA.DIHEDRAL>
-1.48353e-05

>  <SCORE.INTRA.DIHEDRAL.0>
3.60016

>  <SCORE.INTRA.POLAR>
0

>  <SCORE.INTRA.POLAR.0>
0

>  <SCORE.INTRA.REPUL>
0

>  <SCORE.INTRA.REPUL.0>
0

>  <SCORE.INTRA.SOLV>
3.32788e-05

>  <SCORE.INTRA.SOLV.lig_0>
-10.9882

>  <SCORE.INTRA.VDW>
0.179256

>  <SCORE.INTRA.VDW.0>
1.84442

>  <SCORE.INTRA.norm>
0.00689483

>  <SCORE.RESTR>
0

>  <SCORE.RESTR.CAVITY>
0

>  <SCORE.RESTR.norm>
0

>  <SCORE.SYSTEM>
0

>  <SCORE.SYSTEM.CONST>
0

>  <SCORE.SYSTEM.DIHEDRAL>
0

>  <SCORE.SYSTEM.SOLV>
0

>  <SCORE.SYSTEM.norm>
0

>  <SCORE.heavy>
26

>  <SCORE.norm>
-2.15395

>  <RMSD>
0.709

$$$$
ligand
 OpenBabel02271912153D
libRbt.so/2013.1/901 2013/11/27
 26 29  0  0  0  0  0  0  0  0999 V2000
  112.2241  -79.4062  -87.1053 C   0  0  1  0  0  0  0  0  0  0  0  0
  112.7203  -80.6378  -87.5081 N   0  0  0  0  0  0  0  0  0  0  0  0
  112.3502  -78.9893  -85.7166 C   0  0  0  0  0  0  0  0  0  0  0  0
  111.3607  -74.3994  -80.6073 N   0  0  0  0  0  0  0  0  0  0  0  0
  111.9554  -77.3536  -84.0378 O   0  0  0  0  0  0  0  0  0  0  0  0
  111.8005  -77.7296  -85.4711 C   0  0  2  0  0  0  0  0  0  0  0  0
  111.4411  -76.2063  -83.8206 C   0  0  1  0  0  0  0  0  0  0  0  0
  111.6527  -75.9254  -82.4007 C   0  0  0  0  0  0  0  0  0  0  0  0
  111.1223  -74.6585  -81.9679 C   0  0  2  0  0  0  0  0  0  0  0  0
  110.4453  -73.7741  -82.8437 C   0  0  0  0  0  0  0  0  0  0  0  0
  110.2762  -74.1080  -84.2457 C   0  0  0  0  0  0  0  0  0  0  0  0
  110.8124  -75.3659  -84.7046 C   0  0  2  0  0  0  0  0  0  0  0  0
  110.6072  -75.6274  -86.1782 C   0  0  1  0  0  0  0  0  0  0  0  0
  111.1791  -76.8943  -86.3928 C   0  0  2  0  0  0  0  0  0  0  0  0
  111.0683  -77.3289  -87.7871 C   0  0  0  0  0  0  0  0  0  0  0  0
  111.6209  -78.6172  -88.0653 C   0  0  0  0  0  0  0  0  0  0  0  0
  109.9729  -74.7351  -87.0217 C   0  0  0  0  0  0  0  0  0  0  0  0
  110.3120  -73.3710  -87.1787 C   0  0  0  0  0  0  0  0  0  0  0  0
  109.6942  -72.4606  -88.0379 C   0  0  0  0  0  0  0  0  0  0  0  0
  108.5907  -72.8999  -88.8787 C   0  0  0  0  0  0  0  0  0  0  0  0
  108.2690  -74.2655  -88.6897 C   0  0  0  0  0  0  0  0  0  0  0  0
  108.8572  -75.2115  -87.8389 C   0  0  0  0  0  0  0  0  0  0  0  0
  113.2928  -81.5916  -86.5621 C   0  0  0  0  0  0  0  0  0  0  0  0
  112.7422  -81.1658  -88.8889 C   0  0  0  0  0  0  0  0  0  0  0  0
  111.9917  -75.2168  -79.5471 C   0  0  0  0  0  0  0  0  0  0  0  0
  110.9345  -73.0565  -80.0763 C   0  0  0  0  0  0  0  0  0  0  0  0
  1  2  1  6  0  0  0
  1  3  1  0  0  0  0
  1 16  1  0  0  0  0
  2 23  1  0  0  0  0
  2 24  1  0  0  0  0
  4 25  1  0  0  0  0
  4 26  1  0  0  0  0
  5  6  1  0  0  0  0
  6  3  1  1  0  0  0
  6 14  1  0  0  0  0
  7  5  1  6  0  0  0
  7  8  1  0  0  0  0
  7 12  1  0  0  0  0
  8  9  1  0  0  0  0
  9  4  1  6  0  0  0
  9 10  1  0  0  0  0
 10 11  1  0  0  0  0
 12 11  1  1  0  0  0
 12 13  1  0  0  0  0
 13 14  1  0  0  0  0
 13 17  1  1  0  0  0
 14 15  1  1  0  0  0
 15 16  1  0  0  0  0
 17 18  1  0  0  0  0
 17 22  1  0  0  0  0
 18 19  1  0  0  0  0
 19 20  1  0  0  0  0
 20 21  1  0  0  0  0
 21 22  1  0  0  0  0
M  END
>  <CHROM.1>
4.38566410,-3.41909819,53.26008405,111.11586064,-76.27901297,-85.35053232
-1.27113465,-1.07570833,1.08881544

>  <Name>
ligand

>  <RI>
0

>  <Rbt.Current_Directory>
/home/itssahil/PROJECTS/Mol_Feturizer/Test_systems_manuscript/rnas/1f1t

>  <Rbt.Executable>
rbdock ($Id: //depot/dev/client3/rdock/2013.1/src/exe/rbdock.cxx#4 $)

>  <Rbt.Library>
libRbt.so (2013.1, Build901 2013/11/27)

>  <Rbt.Parameter_File>
/export/apps/rDock/src/rDock_2013.1_src/data/scripts/dock_solv.prm

>  <Rbt.Receptor>
prm/pocket_docking_2.prm

>  <SCORE>
-56.3954

>  <SCORE.INTER>
-56.5709

>  <SCORE.INTER.CONST>
1

>  <SCORE.INTER.POLAR>
0

>  <SCORE.INTER.ROT>
3

>  <SCORE.INTER.SOLV>
9.04061

>  <SCORE.INTER.VDW>
-46.3275

>  <SCORE.INTER.norm>
-2.1758

>  <SCORE.INTRA>
0.175523

>  <SCORE.INTRA.DIHEDRAL>
0.000276944

>  <SCORE.INTRA.DIHEDRAL.0>
3.60016

>  <SCORE.INTRA.POLAR>
0

>  <SCORE.INTRA.POLAR.0>
0

>  <SCORE.INTRA.REPUL>
0

>  <SCORE.INTRA.REPUL.0>
0

>  <SCORE.INTRA.SOLV>
5.57178e-06

>  <SCORE.INTRA.SOLV.lig_0>
-10.9882

>  <SCORE.INTRA.VDW>
0.175381

>  <SCORE.INTRA.VDW.0>
1.84442

>  <SCORE.INTRA.norm>
0.00675087

>  <SCORE.RESTR>
0

>  <SCORE.RESTR.CAVITY>
0

>  <SCORE.RESTR.norm>
0

>  <SCORE.SYSTEM>
0

>  <SCORE.SYSTEM.CONST>
0

>  <SCORE.SYSTEM.DIHEDRAL>
0

>  <SCORE.SYSTEM.SOLV>
0

>  <SCORE.SYSTEM.norm>
0

>  <SCORE.heavy>
26

>  <SCORE.norm>
-2.16905

>  <RMSD>
0.710

$$$$
ligand
 OpenBabel02271912153D
libRbt.so/2013.1/901 2013/11/27
 26 29  0  0  0  0  0  0  0  0999 V2000
  112.2293  -79.4398  -87.0943 C   0  0  1  0  0  0  0  0  0  0  0  0
  112.7309  -80.6728  -87.4858 N   0  0  0  0  0  0  0  0  0  0  0  0
  112.3617  -79.0056  -85.7114 C   0  0  0  0  0  0  0  0  0  0  0  0
  111.3756  -74.3620  -80.6503 N   0  0  0  0  0  0  0  0  0  0  0  0
  111.9672  -77.3527  -84.0495 O   0  0  0  0  0  0  0  0  0  0  0  0
  111.8054  -77.7466  -85.4772 C   0  0  2  0  0  0  0  0  0  0  0  0
  111.4469  -76.2063  -83.8424 C   0  0  1  0  0  0  0  0  0  0  0  0
  111.6659  -75.9072  -82.4274 C   0  0  0  0  0  0  0  0  0  0  0  0
  111.1302  -74.6387  -82.0061 C   0  0  2  0  0  0  0  0  0  0  0  0
  110.4418  -73.7690  -82.8878 C   0  0  0  0  0  0  0  0  0  0  0  0
  110.2658  -74.1207  -84.2846 C   0  0  0  0  0  0  0  0  0  0  0  0
  110.8071  -75.3804  -84.7322 C   0  0  2  0  0  0  0  0  0  0  0  0
  110.5940  -75.6607  -86.2012 C   0  0  1  0  0  0  0  0  0  0  0  0
  111.1727  -76.9264  -86.4047 C   0  0  2  0  0  0  0  0  0  0  0  0
  111.0557  -77.3782  -87.7929 C   0  0  0  0  0  0  0  0  0  0  0  0
  111.6148  -78.6661  -88.0595 C   0  0  0  0  0  0  0  0  0  0  0  0
  109.9485  -74.7825  -87.0510 C   0  0  0  0  0  0  0  0  0  0  0  0
  110.2657  -73.4137  -87.2124 C   0  0  0  0  0  0  0  0  0  0  0  0
  109.6364  -72.5171  -88.0779 C   0  0  0  0  0  0  0  0  0  0  0  0
  108.5437  -72.9782  -88.9212 C   0  0  0  0  0  0  0  0  0  0  0  0
  108.2438  -74.3481  -88.7277 C   0  0  0  0  0  0  0  0  0  0  0  0
  108.8442  -75.2806  -87.8706 C   0  0  0  0  0  0  0  0  0  0  0  0
  113.2638  -81.6350  -86.5253 C   0  0  0  0  0  0  0  0  0  0  0  0
  112.7969  -81.1945  -88.8676 C   0  0  0  0  0  0  0  0  0  0  0  0
  112.0253  -75.1598  -79.5864 C   0  0  0  0  0  0  0  0  0  0  0  0
  110.9364  -73.0190  -80.1303 C   0  0  0  0  0  0  0  0  0  0  0  0
  1  2  1  6  0  0  0
  1  3  1  0  0  0  0
  1 16  1  0  0  0  0
  2 23  1  0  0  0  0
  2 24  1  0  0  0  0
  4 25  1  0  0  0  0
  4 26  1  0  0  0  0
  5  6  1  0  0  0  0
  6  3  1  1  0  0  0
  6 14  1  0  0  0  0
  7  5  1  6  0  0  0
  7  8  1  0  0  0  0
  7 12  1  0  0  0  0
  8  9  1  0  0  0  0
  9  4  1  6  0  0  0
  9 10  1  0  0  0  0
 10 11  1  0  0  0  0
 12 11  1  1  0  0  0
 12 13  1  0  0  0  0
 13 14  1  0  0  0  0
 13 17  1  1  0  0  0
 14 15  1  1  0  0  0
 15 16  1  0  0  0  0
 17 18  1  0  0  0  0
 17 22  1  0  0  0  0
 18 19  1  0  0  0  0
 19 20  1  0  0  0  0
 20 21  1  0  0  0  0
 21 22  1  0  0  0  0
M  END
>  <CHROM.1>
7.03879016,-3.04041132,52.31622249,111.11221620,-76.29921764,-85.36936481
-1.27584443,-1.06770342,1.07307463

>  <Name>
ligand

>  <RI>
0

>  <Rbt.Current_Directory>
/home/itssahil/PROJECTS/Mol_Feturizer/Test_systems_manuscript/rnas/1f1t

>  <Rbt.Executable>
rbdock ($Id: //depot/dev/client3/rdock/2013.1/src/exe/rbdock.cxx#4 $)

>  <Rbt.Library>
libRbt.so (2013.1, Build901 2013/11/27)

>  <Rbt.Parameter_File>
/export/apps/rDock/src/rDock_2013.1_src/data/scripts/dock_solv.prm

>  <Rbt.Receptor>
prm/pocket_docking_2.prm

>  <SCORE>
-56.4693

>  <SCORE.INTER>
-56.641

>  <SCORE.INTER.CONST>
1

>  <SCORE.INTER.POLAR>
0

>  <SCORE.INTER.ROT>
3

>  <SCORE.INTER.SOLV>
8.95442

>  <SCORE.INTER.VDW>
-46.3455

>  <SCORE.INTER.norm>
-2.1785

>  <SCORE.INTRA>
0.171677

>  <SCORE.INTRA.DIHEDRAL>
0.000275324

>  <SCORE.INTRA.DIHEDRAL.0>
3.60016

>  <SCORE.INTRA.POLAR>
0

>  <SCORE.INTRA.POLAR.0>
0

>  <SCORE.INTRA.REPUL>
0

>  <SCORE.INTRA.REPUL.0>
0

>  <SCORE.INTRA.SOLV>
1.83322e-05

>  <SCORE.INTRA.SOLV.lig_0>
-10.9882

>  <SCORE.INTRA.VDW>
0.17153

>  <SCORE.INTRA.VDW.0>
1.84442

>  <SCORE.INTRA.norm>
0.00660295

>  <SCORE.RESTR>
0

>  <SCORE.RESTR.CAVITY>
0

>  <SCORE.RESTR.norm>
0

>  <SCORE.SYSTEM>
0

>  <SCORE.SYSTEM.CONST>
0

>  <SCORE.SYSTEM.DIHEDRAL>
0

>  <SCORE.SYSTEM.SOLV>
0

>  <SCORE.SYSTEM.norm>
0

>  <SCORE.heavy>
26

>  <SCORE.norm>
-2.1719

>  <RMSD>
0.710

$$$$
ligand
 OpenBabel02271912153D
libRbt.so/2013.1/901 2013/11/27
 26 29  0  0  0  0  0  0  0  0999 V2000
  111.1809  -74.7205  -82.0029 C   0  0  1  0  0  0  0  0  0  0  0  0
  111.3611  -74.3565  -80.6762 N   0  0  0  0  0  0  0  0  0  0  0  0
  111.7100  -75.9862  -82.4891 C   0  0  0  0  0  0  0  0  0  0  0  0
  112.7316  -80.6413  -87.5326 N   0  0  0  0  0  0  0  0  0  0  0  0
  112.0121  -77.5106  -84.2876 O   0  0  0  0  0  0  0  0  0  0  0  0
  111.4490  -76.2049  -83.8431 C   0  0  2  0  0  0  0  0  0  0  0  0
  111.7781  -77.6970  -85.5280 C   0  0  1  0  0  0  0  0  0  0  0  0
  112.3555  -78.9988  -85.8619 C   0  0  0  0  0  0  0  0  0  0  0  0
  112.1924  -79.3764  -87.2420 C   0  0  2  0  0  0  0  0  0  0  0  0
  111.5404  -78.5483  -88.1889 C   0  0  0  0  0  0  0  0  0  0  0  0
  110.9802  -77.2701  -87.7910 C   0  0  0  0  0  0  0  0  0  0  0  0
  111.1191  -76.8780  -86.4100 C   0  0  2  0  0  0  0  0  0  0  0  0
  110.4948  -75.5431  -86.0780 C   0  0  1  0  0  0  0  0  0  0  0  0
  110.7661  -75.3591  -84.7102 C   0  0  2  0  0  0  0  0  0  0  0  0
  110.2351  -74.0931  -84.2001 C   0  0  0  0  0  0  0  0  0  0  0  0
  110.4911  -73.8429  -82.8165 C   0  0  0  0  0  0  0  0  0  0  0  0
  109.8338  -74.7665  -87.0107 C   0  0  0  0  0  0  0  0  0  0  0  0
  108.7941  -75.2109  -87.8603 C   0  0  0  0  0  0  0  0  0  0  0  0
  108.1042  -74.4367  -88.7950 C   0  0  0  0  0  0  0  0  0  0  0  0
  108.4421  -73.0301  -88.9537 C   0  0  0  0  0  0  0  0  0  0  0  0
  109.4927  -72.6200  -88.0981 C   0  0  0  0  0  0  0  0  0  0  0  0
  110.2135  -73.3610  -87.1514 C   0  0  0  0  0  0  0  0  0  0  0  0
  110.9345  -73.0580  -80.1622 C   0  0  0  0  0  0  0  0  0  0  0  0
  111.9744  -75.1835  -79.6151 C   0  0  0  0  0  0  0  0  0  0  0  0
  112.9405  -81.3494  -88.8153 C   0  0  0  0  0  0  0  0  0  0  0  0
  113.2183  -81.4666  -86.3712 C   0  0  0  0  0  0  0  0  0  0  0  0
  1  2  1  1  0  0  0
  1  3  1  0  0  0  0
  1 16  1  0  0  0  0
  2 23  1  0  0  0  0
  2 24  1  0  0  0  0
  4 25  1  0  0  0  0
  4 26  1  0  0  0  0
  5  6  1  0  0  0  0
  6  3  1  6  0  0  0
  6 14  1  0  0  0  0
  7  5  1  1  0  0  0
  7  8  1  0  0  0  0
  7 12  1  0  0  0  0
  8  9  1  0  0  0  0
  9  4  1  1  0  0  0
  9 10  1  0  0  0  0
 10 11  1  0  0  0  0
 12 11  1  6  0  0  0
 12 13  1  0  0  0  0
 13 14  1  0  0  0  0
 13 17  1  6  0  0  0
 14 15  1  6  0  0  0
 15 16  1  0  0  0  0
 17 18  1  0  0  0  0
 17 22  1  0  0  0  0
 18 19  1  0  0  0  0
 19 20  1  0  0  0  0
 20 21  1  0  0  0  0
 21 22  1  0  0  0  0
M  END
>  <CHROM.1>
175.53801426,-171.43393942,51.71289380,111.08330396,-76.29944975,-85.38628124
-1.85975351,1.05024977,-2.07016361

>  <Name>
ligand

>  <RI>
0

>  <Rbt.Current_Directory>
/home/itssahil/PROJECTS/Mol_Feturizer/Test_systems_manuscript/rnas/1f1t

>  <Rbt.Executable>
rbdock ($Id: //depot/dev/client3/rdock/2013.1/src/exe/rbdock.cxx#4 $)

>  <Rbt.Library>
libRbt.so (2013.1, Build901 2013/11/27)

>  <Rbt.Parameter_File>
/export/apps/rDock/src/rDock_2013.1_src/data/scripts/dock_solv.prm

>  <Rbt.Receptor>
prm/pocket_docking_7.prm

>  <SCORE>
-53.4142

>  <SCORE.INTER>
-56.1947

>  <SCORE.INTER.CONST>
1

>  <SCORE.INTER.POLAR>
0

>  <SCORE.INTER.ROT>
3

>  <SCORE.INTER.SOLV>
8.93898

>  <SCORE.INTER.VDW>
-46.0428

>  <SCORE.INTER.norm>
-2.16133

>  <SCORE.INTRA>
2.78045

>  <SCORE.INTRA.DIHEDRAL>
-0.000281276

>  <SCORE.INTRA.DIHEDRAL.0>
3.60016

>  <SCORE.INTRA.POLAR>
0

>  <SCORE.INTRA.POLAR.0>
0

>  <SCORE.INTRA.REPUL>
0

>  <SCORE.INTRA.REPUL.0>
0

>  <SCORE.INTRA.SOLV>
-0.00097708

>  <SCORE.INTRA.SOLV.lig_0>
-10.9882

>  <SCORE.INTRA.VDW>
2.78108

>  <SCORE.INTRA.VDW.0>
1.84442

>  <SCORE.INTRA.norm>
0.10694

>  <SCORE.RESTR>
0

>  <SCORE.RESTR.CAVITY>
0

>  <SCORE.RESTR.norm>
0

>  <SCORE.SYSTEM>
0

>  <SCORE.SYSTEM.CONST>
0

>  <SCORE.SYSTEM.DIHEDRAL>
0

>  <SCORE.SYSTEM.SOLV>
0

>  <SCORE.SYSTEM.norm>
0

>  <SCORE.heavy>
26

>  <SCORE.norm>
-2.05439

>  <RMSD>
0.711

$$$$
ligand
 OpenBabel02271912153D
libRbt.so/2013.1/901 2013/11/27
 26 29  0  0  0  0  0  0  0  0999 V2000
  111.2223  -74.7133  -81.9073 C   0  0  1  0  0  0  0  0  0  0  0  0
  111.3990  -74.3859  -80.5706 N   0  0  0  0  0  0  0  0  0  0  0  0
  111.7309  -75.9766  -82.4210 C   0  0  0  0  0  0  0  0  0  0  0  0
  112.7027  -80.5239  -87.5716 N   0  0  0  0  0  0  0  0  0  0  0  0
  112.0178  -77.4614  -84.2548 O   0  0  0  0  0  0  0  0  0  0  0  0
  111.4763  -76.1564  -83.7820 C   0  0  2  0  0  0  0  0  0  0  0  0
  111.7900  -77.6124  -85.5011 C   0  0  1  0  0  0  0  0  0  0  0  0
  112.3451  -78.9164  -85.8632 C   0  0  0  0  0  0  0  0  0  0  0  0
  112.1856  -79.2564  -87.2534 C   0  0  2  0  0  0  0  0  0  0  0  0
  111.5569  -78.3926  -88.1841 C   0  0  0  0  0  0  0  0  0  0  0  0
  111.0181  -77.1142  -87.7586 C   0  0  0  0  0  0  0  0  0  0  0  0
  111.1537  -76.7592  -86.3672 C   0  0  2  0  0  0  0  0  0  0  0  0
  110.5524  -75.4212  -86.0066 C   0  0  1  0  0  0  0  0  0  0  0  0
  110.8165  -75.2765  -84.6327 C   0  0  2  0  0  0  0  0  0  0  0  0
  110.3058  -74.0135  -84.0951 C   0  0  0  0  0  0  0  0  0  0  0  0
  110.5558  -73.8026  -82.7038 C   0  0  0  0  0  0  0  0  0  0  0  0
  109.9137  -74.6090  -86.9244 C   0  0  0  0  0  0  0  0  0  0  0  0
  110.2490  -73.2635  -87.2032 C   0  0  0  0  0  0  0  0  0  0  0  0
  109.6267  -72.4346  -88.1384 C   0  0  0  0  0  0  0  0  0  0  0  0
  108.5222  -72.9497  -88.9337 C   0  0  0  0  0  0  0  0  0  0  0  0
  108.2044  -74.2937  -88.6230 C   0  0  0  0  0  0  0  0  0  0  0  0
  108.7972  -75.1588  -87.6929 C   0  0  0  0  0  0  0  0  0  0  0  0
  110.9285  -73.1215  -80.0119 C   0  0  0  0  0  0  0  0  0  0  0  0
  112.0507  -75.2232  -79.5411 C   0  0  0  0  0  0  0  0  0  0  0  0
  112.8601  -81.2245  -88.8657 C   0  0  0  0  0  0  0  0  0  0  0  0
  113.2225  -81.3618  -86.4338 C   0  0  0  0  0  0  0  0  0  0  0  0
  1  2  1  1  0  0  0
  1  3  1  0  0  0  0
  1 16  1  0  0  0  0
  2 23  1  0  0  0  0
  2 24  1  0  0  0  0
  4 25  1  0  0  0  0
  4 26  1  0  0  0  0
  5  6  1  0  0  0  0
  6  3  1  6  0  0  0
  6 14  1  0  0  0  0
  7  5  1  1  0  0  0
  7  8  1  0  0  0  0
  7 12  1  0  0  0  0
  8  9  1  0  0  0  0
  9  4  1  1  0  0  0
  9 10  1  0  0  0  0
 10 11  1  0  0  0  0
 12 11  1  6  0  0  0
 12 13  1  0  0  0  0
 13 14  1  0  0  0  0
 13 17  1  6  0  0  0
 14 15  1  6  0  0  0
 15 16  1  0  0  0  0
 17 18  1  0  0  0  0
 17 22  1  0  0  0  0
 18 19  1  0  0  0  0
 19 20  1  0  0  0  0
 20 21  1  0  0  0  0
 21 22  1  0  0  0  0
M  END
>  <CHROM.1>
178.90686383,-174.14933936,-124.28489113,111.11439730,-76.22177385,-85.33930048
-1.83632164,1.06412540,-2.05193912

>  <Name>
ligand

>  <RI>
0

>  <Rbt.Current_Directory>
/home/itssahil/PROJECTS/Mol_Feturizer/Test_systems_manuscript/rnas/1f1t

>  <Rbt.Executable>
rbdock ($Id: //depot/dev/client3/rdock/2013.1/src/exe/rbdock.cxx#4 $)

>  <Rbt.Library>
libRbt.so (2013.1, Build901 2013/11/27)

>  <Rbt.Parameter_File>
/export/apps/rDock/src/rDock_2013.1_src/data/scripts/dock_solv.prm

>  <Rbt.Receptor>
prm/pocket_docking_3.prm

>  <SCORE>
-53.496

>  <SCORE.INTER>
-56.3482

>  <SCORE.INTER.CONST>
1

>  <SCORE.INTER.POLAR>
0

>  <SCORE.INTER.ROT>
3

>  <SCORE.INTER.SOLV>
9.08876

>  <SCORE.INTER.VDW>
-46.195

>  <SCORE.INTER.norm>
-2.16724

>  <SCORE.INTRA>
2.85222

>  <SCORE.INTRA.DIHEDRAL>
-0.000584867

>  <SCORE.INTRA.DIHEDRAL.0>
3.60016

>  <SCORE.INTRA.POLAR>
0

>  <SCORE.INTRA.POLAR.0>
0

>  <SCORE.INTRA.REPUL>
0

>  <SCORE.INTRA.REPUL.0>
0

>  <SCORE.INTRA.SOLV>
-0.000994141

>  <SCORE.INTRA.SOLV.lig_0>
-10.9882

>  <SCORE.INTRA.VDW>
2.85301

>  <SCORE.INTRA.VDW.0>
1.84442

>  <SCORE.INTRA.norm>
0.109701

>  <SCORE.RESTR>
0

>  <SCORE.RESTR.CAVITY>
0

>  <SCORE.RESTR.norm>
0

>  <SCORE.SYSTEM>
0

>  <SCORE.SYSTEM.CONST>
0

>  <SCORE.SYSTEM.DIHEDRAL>
0

>  <SCORE.SYSTEM.SOLV>
0

>  <SCORE.SYSTEM.norm>
0

>  <SCORE.heavy>
26

>  <SCORE.norm>
-2.05754

>  <RMSD>
0.712

$$$$
ligand
 OpenBabel02271912153D
libRbt.so/2013.1/901 2013/11/27
 26 29  0  0  0  0  0  0  0  0999 V2000
  111.1611  -74.7104  -82.0139 C   0  0  1  0  0  0  0  0  0  0  0  0
  111.3418  -74.3429  -80.6882 N   0  0  0  0  0  0  0  0  0  0  0  0
  111.6995  -75.9724  -82.4995 C   0  0  0  0  0  0  0  0  0  0  0  0
  112.7463  -80.6265  -87.5387 N   0  0  0  0  0  0  0  0  0  0  0  0
  112.0094  -77.4970  -84.2966 O   0  0  0  0  0  0  0  0  0  0  0  0
  111.4366  -76.1953  -83.8525 C   0  0  2  0  0  0  0  0  0  0  0  0
  111.7737  -77.6873  -85.5360 C   0  0  1  0  0  0  0  0  0  0  0  0
  112.3611  -78.9847  -85.8695 C   0  0  0  0  0  0  0  0  0  0  0  0
  112.1974  -79.3657  -87.2485 C   0  0  2  0  0  0  0  0  0  0  0  0
  111.5359  -78.5446  -88.1949 C   0  0  0  0  0  0  0  0  0  0  0  0
  110.9661  -77.2705  -87.7975 C   0  0  0  0  0  0  0  0  0  0  0  0
  111.1055  -76.8751  -86.4175 C   0  0  2  0  0  0  0  0  0  0  0  0
  110.4709  -75.5450  -86.0858 C   0  0  1  0  0  0  0  0  0  0  0  0
  110.7444  -75.3566  -84.7191 C   0  0  2  0  0  0  0  0  0  0  0  0
  110.2043  -74.0943  -84.2095 C   0  0  0  0  0  0  0  0  0  0  0  0
  110.4619  -73.8398  -82.8270 C   0  0  0  0  0  0  0  0  0  0  0  0
  109.8011  -74.7753  -87.0179 C   0  0  0  0  0  0  0  0  0  0  0  0
  108.7271  -75.2151  -87.8264 C   0  0  0  0  0  0  0  0  0  0  0  0
  108.0281  -74.4472  -88.7595 C   0  0  0  0  0  0  0  0  0  0  0  0
  108.3934  -73.0532  -88.9621 C   0  0  0  0  0  0  0  0  0  0  0  0
  109.4776  -72.6478  -88.1472 C   0  0  0  0  0  0  0  0  0  0  0  0
  110.2086  -73.3829  -87.2037 C   0  0  0  0  0  0  0  0  0  0  0  0
  110.9256  -73.0387  -80.1801 C   0  0  0  0  0  0  0  0  0  0  0  0
  111.9457  -75.1711  -79.6227 C   0  0  0  0  0  0  0  0  0  0  0  0
  112.9540  -81.3366  -88.8206 C   0  0  0  0  0  0  0  0  0  0  0  0
  113.2476  -81.4439  -86.3779 C   0  0  0  0  0  0  0  0  0  0  0  0
  1  2  1  1  0  0  0
  1  3  1  0  0  0  0
  1 16  1  0  0  0  0
  2 23  1  0  0  0  0
  2 24  1  0  0  0  0
  4 25  1  0  0  0  0
  4 26  1  0  0  0  0
  5  6  1  0  0  0  0
  6  3  1  6  0  0  0
  6 14  1  0  0  0  0
  7  5  1  1  0  0  0
  7  8  1  0  0  0  0
  7 12  1  0  0  0  0
  8  9  1  0  0  0  0
  9  4  1  1  0  0  0
  9 10  1  0  0  0  0
 10 11  1  0  0  0  0
 12 11  1  6  0  0  0
 12 13  1  0  0  0  0
 13 14  1  0  0  0  0
 13 17  1  6  0  0  0
 14 15  1  6  0  0  0
 15 16  1  0  0  0  0
 17 18  1  0  0  0  0
 17 22  1  0  0  0  0
 18 19  1  0  0  0  0
 19 20  1  0  0  0  0
 20 21  1  0  0  0  0
 21 22  1  0  0  0  0
M  END
>  <CHROM.1>
174.51144857,-171.64866024,54.39785534,111.06809069,-76.29526668,-85.39484949
-1.86305310,1.04209522,-2.06845934

>  <Name>
ligand

>  <RI>
0

>  <Rbt.Current_Directory>
/home/itssahil/PROJECTS/Mol_Feturizer/Test_systems_manuscript/rnas/1f1t

>  <Rbt.Executable>
rbdock ($Id: //depot/dev/client3/rdock/2013.1/src/exe/rbdock.cxx#4 $)

>  <Rbt.Library>
libRbt.so (2013.1, Build901 2013/11/27)

>  <Rbt.Parameter_File>
/export/apps/rDock/src/rDock_2013.1_src/data/scripts/dock_solv.prm

>  <Rbt.Receptor>
prm/pocket_docking_7.prm

>  <SCORE>
-53.3324

>  <SCORE.INTER>
-56.0438

>  <SCORE.INTER.CONST>
1

>  <SCORE.INTER.POLAR>
0

>  <SCORE.INTER.ROT>
3

>  <SCORE.INTER.SOLV>
8.95187

>  <SCORE.INTER.VDW>
-45.9465

>  <SCORE.INTER.norm>
-2.15553

>  <SCORE.INTRA>
2.71138

>  <SCORE.INTRA.DIHEDRAL>
-0.000274742

>  <SCORE.INTRA.DIHEDRAL.0>
3.60016

>  <SCORE.INTRA.POLAR>
0

>  <SCORE.INTRA.POLAR.0>
0

>  <SCORE.INTRA.REPUL>
0

>  <SCORE.INTRA.REPUL.0>
0

>  <SCORE.INTRA.SOLV>
-0.000972942

>  <SCORE.INTRA.SOLV.lig_0>
-10.9882

>  <SCORE.INTRA.VDW>
2.71201

>  <SCORE.INTRA.VDW.0>
1.84442

>  <SCORE.INTRA.norm>
0.104284

>  <SCORE.RESTR>
0

>  <SCORE.RESTR.CAVITY>
0

>  <SCORE.RESTR.norm>
0

>  <SCORE.SYSTEM>
0

>  <SCORE.SYSTEM.CONST>
0

>  <SCORE.SYSTEM.DIHEDRAL>
0

>  <SCORE.SYSTEM.SOLV>
0

>  <SCORE.SYSTEM.norm>
0

>  <SCORE.heavy>
26

>  <SCORE.norm>
-2.05125

>  <RMSD>
0.712

$$$$
ligand
 OpenBabel02271912153D
libRbt.so/2013.1/901 2013/11/27
 26 29  0  0  0  0  0  0  0  0999 V2000
  112.2548  -79.4881  -87.1035 C   0  0  1  0  0  0  0  0  0  0  0  0
  112.7837  -80.7129  -87.4847 N   0  0  0  0  0  0  0  0  0  0  0  0
  112.3831  -79.0366  -85.7258 C   0  0  0  0  0  0  0  0  0  0  0  0
  111.3100  -74.3652  -80.7081 N   0  0  0  0  0  0  0  0  0  0  0  0
  111.9569  -77.3763  -84.0791 O   0  0  0  0  0  0  0  0  0  0  0  0
  111.7982  -77.7887  -85.5019 C   0  0  2  0  0  0  0  0  0  0  0  0
  111.4106  -76.2403  -83.8815 C   0  0  1  0  0  0  0  0  0  0  0  0
  111.6288  -75.9215  -82.4706 C   0  0  0  0  0  0  0  0  0  0  0  0
  111.0651  -74.6617  -82.0599 C   0  0  2  0  0  0  0  0  0  0  0  0
  110.3524  -73.8177  -82.9472 C   0  0  0  0  0  0  0  0  0  0  0  0
  110.1785  -74.1879  -84.3395 C   0  0  0  0  0  0  0  0  0  0  0  0
  110.7475  -75.4391  -84.7766 C   0  0  2  0  0  0  0  0  0  0  0  0
  110.5345  -75.7396  -86.2417 C   0  0  1  0  0  0  0  0  0  0  0  0
  111.1421  -76.9933  -86.4348 C   0  0  2  0  0  0  0  0  0  0  0  0
  111.0296  -77.4621  -87.8177 C   0  0  0  0  0  0  0  0  0  0  0  0
  111.6178  -78.7392  -88.0738 C   0  0  0  0  0  0  0  0  0  0  0  0
  109.8646  -74.8858  -87.0974 C   0  0  0  0  0  0  0  0  0  0  0  0
  108.7708  -75.2406  -87.9209 C   0  0  0  0  0  0  0  0  0  0  0  0
  108.0718  -74.3881  -88.7773 C   0  0  0  0  0  0  0  0  0  0  0  0
  108.4590  -72.9885  -88.8726 C   0  0  0  0  0  0  0  0  0  0  0  0
  109.5625  -72.6687  -88.0456 C   0  0  0  0  0  0  0  0  0  0  0  0
  110.2942  -73.4899  -87.1768 C   0  0  0  0  0  0  0  0  0  0  0  0
  113.2728  -81.6847  -86.5106 C   0  0  0  0  0  0  0  0  0  0  0  0
  112.9238  -81.2158  -88.8679 C   0  0  0  0  0  0  0  0  0  0  0  0
  111.9489  -75.1519  -79.6296 C   0  0  0  0  0  0  0  0  0  0  0  0
  110.8831  -73.0094  -80.2114 C   0  0  0  0  0  0  0  0  0  0  0  0
  1  2  1  6  0  0  0
  1  3  1  0  0  0  0
  1 16  1  0  0  0  0
  2 23  1  0  0  0  0
  2 24  1  0  0  0  0
  4 25  1  0  0  0  0
  4 26  1  0  0  0  0
  5  6  1  0  0  0  0
  6  3  1  1  0  0  0
  6 14  1  0  0  0  0
  7  5  1  6  0  0  0
  7  8  1  0  0  0  0
  7 12  1  0  0  0  0
  8  9  1  0  0  0  0
  9  4  1  6  0  0  0
  9 10  1  0  0  0  0
 10 11  1  0  0  0  0
 12 11  1  1  0  0  0
 12 13  1  0  0  0  0
 13 14  1  0  0  0  0
 13 17  1  1  0  0  0
 14 15  1  1  0  0  0
 15 16  1  0  0  0  0
 17 18  1  0  0  0  0
 17 22  1  0  0  0  0
 18 19  1  0  0  0  0
 19 20  1  0  0  0  0
 20 21  1  0  0  0  0
 21 22  1  0  0  0  0
M  END
>  <CHROM.1>
10.65761472,-5.04991199,-126.59697877,111.07865820,-76.34115007,-85.39559480
-1.24188362,-1.05060267,1.07947565

>  <Name>
ligand

>  <RI>
0

>  <Rbt.Current_Directory>
/home/itssahil/PROJECTS/Mol_Feturizer/Test_systems_manuscript/rnas/1f1t

>  <Rbt.Executable>
rbdock ($Id: //depot/dev/client3/rdock/2013.1/src/exe/rbdock.cxx#4 $)

>  <Rbt.Library>
libRbt.so (2013.1, Build901 2013/11/27)

>  <Rbt.Parameter_File>
/export/apps/rDock/src/rDock_2013.1_src/data/scripts/dock_solv.prm

>  <Rbt.Receptor>
prm/pocket_docking_6.prm

>  <SCORE>
-55.9942

>  <SCORE.INTER>
-56.1431

>  <SCORE.INTER.CONST>
1

>  <SCORE.INTER.POLAR>
0

>  <SCORE.INTER.ROT>
3

>  <SCORE.INTER.SOLV>
8.88631

>  <SCORE.INTER.VDW>
-45.9909

>  <SCORE.INTER.norm>
-2.15935

>  <SCORE.INTRA>
0.14895

>  <SCORE.INTRA.DIHEDRAL>
-1.58344e-05

>  <SCORE.INTRA.DIHEDRAL.0>
3.60016

>  <SCORE.INTRA.POLAR>
0

>  <SCORE.INTRA.POLAR.0>
0

>  <SCORE.INTRA.REPUL>
0

>  <SCORE.INTRA.REPUL.0>
0

>  <SCORE.INTRA.SOLV>
4.81941e-05

>  <SCORE.INTRA.SOLV.lig_0>
-10.9882

>  <SCORE.INTRA.VDW>
0.148934

>  <SCORE.INTRA.VDW.0>
1.84442

>  <SCORE.INTRA.norm>
0.00572886

>  <SCORE.RESTR>
0

>  <SCORE.RESTR.CAVITY>
0

>  <SCORE.RESTR.norm>
0

>  <SCORE.SYSTEM>
0

>  <SCORE.SYSTEM.CONST>
0

>  <SCORE.SYSTEM.DIHEDRAL>
0

>  <SCORE.SYSTEM.SOLV>
0

>  <SCORE.SYSTEM.norm>
0

>  <SCORE.heavy>
26

>  <SCORE.norm>
-2.15362

>  <RMSD>
0.713

$$$$
ligand
 OpenBabel02271912153D
libRbt.so/2013.1/901 2013/11/27
 26 29  0  0  0  0  0  0  0  0999 V2000
  112.2266  -79.4117  -87.1019 C   0  0  1  0  0  0  0  0  0  0  0  0
  112.7231  -80.6431  -87.5045 N   0  0  0  0  0  0  0  0  0  0  0  0
  112.3465  -78.9973  -85.7118 C   0  0  0  0  0  0  0  0  0  0  0  0
  111.3383  -74.4152  -80.5992 N   0  0  0  0  0  0  0  0  0  0  0  0
  111.9457  -77.3641  -84.0321 O   0  0  0  0  0  0  0  0  0  0  0  0
  111.7972  -77.7373  -85.4667 C   0  0  2  0  0  0  0  0  0  0  0  0
  111.4319  -76.2165  -83.8153 C   0  0  1  0  0  0  0  0  0  0  0  0
  111.6369  -75.9384  -82.3939 C   0  0  0  0  0  0  0  0  0  0  0  0
  111.1062  -74.6716  -81.9614 C   0  0  2  0  0  0  0  0  0  0  0  0
  110.4346  -73.7847  -82.8389 C   0  0  0  0  0  0  0  0  0  0  0  0
  110.2719  -74.1159  -84.2423 C   0  0  0  0  0  0  0  0  0  0  0  0
  110.8086  -75.3737  -84.7009 C   0  0  2  0  0  0  0  0  0  0  0  0
  110.6101  -75.6323  -86.1759 C   0  0  1  0  0  0  0  0  0  0  0  0
  111.1814  -76.8996  -86.3900 C   0  0  2  0  0  0  0  0  0  0  0  0
  111.0769  -77.3316  -87.7855 C   0  0  0  0  0  0  0  0  0  0  0  0
  111.6291  -78.6201  -88.0634 C   0  0  0  0  0  0  0  0  0  0  0  0
  109.9811  -74.7377  -87.0209 C   0  0  0  0  0  0  0  0  0  0  0  0
  110.2901  -73.3624  -87.1374 C   0  0  0  0  0  0  0  0  0  0  0  0
  109.6776  -72.4489  -87.9972 C   0  0  0  0  0  0  0  0  0  0  0  0
  108.6139  -72.8969  -88.8834 C   0  0  0  0  0  0  0  0  0  0  0  0
  108.3213  -74.2740  -88.7344 C   0  0  0  0  0  0  0  0  0  0  0  0
  108.9055  -75.2236  -87.8848 C   0  0  0  0  0  0  0  0  0  0  0  0
  112.7586  -81.0451  -88.9078 C   0  0  0  0  0  0  0  0  0  0  0  0
  113.2788  -81.6947  -86.6262 C   0  0  0  0  0  0  0  0  0  0  0  0
  111.9997  -75.2185  -79.5468 C   0  0  0  0  0  0  0  0  0  0  0  0
  110.8667  -73.0922  -80.0567 C   0  0  0  0  0  0  0  0  0  0  0  0
  1  2  1  6  0  0  0
  1  3  1  0  0  0  0
  1 16  1  0  0  0  0
  2 23  1  0  0  0  0
  2 24  1  0  0  0  0
  4 25  1  0  0  0  0
  4 26  1  0  0  0  0
  5  6  1  0  0  0  0
  6  3  1  1  0  0  0
  6 14  1  0  0  0  0
  7  5  1  6  0  0  0
  7  8  1  0  0  0  0
  7 12  1  0  0  0  0
  8  9  1  0  0  0  0
  9  4  1  6  0  0  0
  9 10  1  0  0  0  0
 10 11  1  0  0  0  0
 12 11  1  1  0  0  0
 12 13  1  0  0  0  0
 13 14  1  0  0  0  0
 13 17  1  1  0  0  0
 14 15  1  1  0  0  0
 15 16  1  0  0  0  0
 17 18  1  0  0  0  0
 17 22  1  0  0  0  0
 18 19  1  0  0  0  0
 19 20  1  0  0  0  0
 20 21  1  0  0  0  0
 21 22  1  0  0  0  0
M  END
>  <CHROM.1>
-173.25822370,-1.27809489,50.75912821,111.11382191,-76.28489393,-85.35121474
-1.26350240,-1.07878001,1.09982192

>  <Name>
ligand

>  <RI>
0

>  <Rbt.Current_Directory>
/home/itssahil/PROJECTS/Mol_Feturizer/Test_systems_manuscript/rnas/1f1t

>  <Rbt.Executable>
rbdock ($Id: //depot/dev/client3/rdock/2013.1/src/exe/rbdock.cxx#4 $)

>  <Rbt.Library>
libRbt.so (2013.1, Build901 2013/11/27)

>  <Rbt.Parameter_File>
/export/apps/rDock/src/rDock_2013.1_src/data/scripts/dock_solv.prm

>  <Rbt.Receptor>
prm/pocket_docking_3.prm

>  <SCORE>
-56.2882

>  <SCORE.INTER>
-56.8096

>  <SCORE.INTER.CONST>
1

>  <SCORE.INTER.POLAR>
0

>  <SCORE.INTER.ROT>
3

>  <SCORE.INTER.SOLV>
9.00487

>  <SCORE.INTER.VDW>
-46.4747

>  <SCORE.INTER.norm>
-2.18499

>  <SCORE.INTRA>
0.521375

>  <SCORE.INTRA.DIHEDRAL>
0.000285895

>  <SCORE.INTRA.DIHEDRAL.0>
3.60016

>  <SCORE.INTRA.POLAR>
0

>  <SCORE.INTRA.POLAR.0>
0

>  <SCORE.INTRA.REPUL>
0

>  <SCORE.INTRA.REPUL.0>
0

>  <SCORE.INTRA.SOLV>
1.64304e-05

>  <SCORE.INTRA.SOLV.lig_0>
-10.9882

>  <SCORE.INTRA.VDW>
0.521224

>  <SCORE.INTRA.VDW.0>
1.84442

>  <SCORE.INTRA.norm>
0.0200529

>  <SCORE.RESTR>
0

>  <SCORE.RESTR.CAVITY>
0

>  <SCORE.RESTR.norm>
0

>  <SCORE.SYSTEM>
0

>  <SCORE.SYSTEM.CONST>
0

>  <SCORE.SYSTEM.DIHEDRAL>
0

>  <SCORE.SYSTEM.SOLV>
0

>  <SCORE.SYSTEM.norm>
0

>  <SCORE.heavy>
26

>  <SCORE.norm>
-2.16493

>  <RMSD>
0.714

$$$$
ligand
 OpenBabel02271912153D
libRbt.so/2013.1/901 2013/11/27
 26 29  0  0  0  0  0  0  0  0999 V2000
  112.2341  -79.4837  -87.1298 C   0  0  1  0  0  0  0  0  0  0  0  0
  112.7507  -80.7103  -87.5218 N   0  0  0  0  0  0  0  0  0  0  0  0
  112.3673  -79.0454  -85.7483 C   0  0  0  0  0  0  0  0  0  0  0  0
  111.3420  -74.4073  -80.6899 N   0  0  0  0  0  0  0  0  0  0  0  0
  111.9581  -77.3953  -84.0872 O   0  0  0  0  0  0  0  0  0  0  0  0
  111.7948  -77.7938  -85.5134 C   0  0  2  0  0  0  0  0  0  0  0  0
  111.4230  -76.2558  -83.8794 C   0  0  1  0  0  0  0  0  0  0  0  0
  111.6448  -75.9514  -82.4660 C   0  0  0  0  0  0  0  0  0  0  0  0
  111.0936  -74.6897  -82.0441 C   0  0  2  0  0  0  0  0  0  0  0  0
  110.3890  -73.8311  -82.9238 C   0  0  0  0  0  0  0  0  0  0  0  0
  110.2109  -74.1875  -84.3191 C   0  0  0  0  0  0  0  0  0  0  0  0
  110.7675  -75.4404  -84.7673 C   0  0  2  0  0  0  0  0  0  0  0  0
  110.5510  -75.7261  -86.2348 C   0  0  1  0  0  0  0  0  0  0  0  0
  111.1461  -76.9840  -86.4391 C   0  0  2  0  0  0  0  0  0  0  0  0
  111.0286  -77.4397  -87.8260 C   0  0  0  0  0  0  0  0  0  0  0  0
  111.6041  -78.7202  -88.0933 C   0  0  0  0  0  0  0  0  0  0  0  0
  109.8892  -74.8584  -87.0828 C   0  0  0  0  0  0  0  0  0  0  0  0
  108.8003  -75.1985  -87.9189 C   0  0  0  0  0  0  0  0  0  0  0  0
  108.1094  -74.3320  -88.7678 C   0  0  0  0  0  0  0  0  0  0  0  0
  108.5007  -72.9322  -88.8403 C   0  0  0  0  0  0  0  0  0  0  0  0
  109.5992  -72.6271  -88.0012 C   0  0  0  0  0  0  0  0  0  0  0  0
  110.3228  -73.4626  -87.1392 C   0  0  0  0  0  0  0  0  0  0  0  0
  113.2810  -81.6728  -86.5602 C   0  0  0  0  0  0  0  0  0  0  0  0
  112.8371  -81.2242  -88.9054 C   0  0  0  0  0  0  0  0  0  0  0  0
  111.9633  -75.2138  -79.6158 C   0  0  0  0  0  0  0  0  0  0  0  0
  110.9410  -73.0469  -80.1846 C   0  0  0  0  0  0  0  0  0  0  0  0
  1  2  1  6  0  0  0
  1  3  1  0  0  0  0
  1 16  1  0  0  0  0
  2 23  1  0  0  0  0
  2 24  1  0  0  0  0
  4 25  1  0  0  0  0
  4 26  1  0  0  0  0
  5  6  1  0  0  0  0
  6  3  1  1  0  0  0
  6 14  1  0  0  0  0
  7  5  1  6  0  0  0
  7  8  1  0  0  0  0
  7 12  1  0  0  0  0
  8  9  1  0  0  0  0
  9  4  1  6  0  0  0
  9 10  1  0  0  0  0
 10 11  1  0  0  0  0
 12 11  1  1  0  0  0
 12 13  1  0  0  0  0
 13 14  1  0  0  0  0
 13 17  1  1  0  0  0
 14 15  1  1  0  0  0
 15 16  1  0  0  0  0
 17 18  1  0  0  0  0
 17 22  1  0  0  0  0
 18 19  1  0  0  0  0
 19 20  1  0  0  0  0
 20 21  1  0  0  0  0
 21 22  1  0  0  0  0
M  END
>  <CHROM.1>
8.09802150,-5.63772530,-127.27344463,111.08962334,-76.34020453,-85.39417181
-1.25337946,-1.05849263,1.07800919

>  <Name>
ligand

>  <RI>
0

>  <Rbt.Current_Directory>
/home/itssahil/PROJECTS/Mol_Feturizer/Test_systems_manuscript/rnas/1f1t

>  <Rbt.Executable>
rbdock ($Id: //depot/dev/client3/rdock/2013.1/src/exe/rbdock.cxx#4 $)

>  <Rbt.Library>
libRbt.so (2013.1, Build901 2013/11/27)

>  <Rbt.Parameter_File>
/export/apps/rDock/src/rDock_2013.1_src/data/scripts/dock_solv.prm

>  <Rbt.Receptor>
prm/pocket_docking_6.prm

>  <SCORE>
-55.9777

>  <SCORE.INTER>
-56.1887

>  <SCORE.INTER.CONST>
1

>  <SCORE.INTER.POLAR>
0

>  <SCORE.INTER.ROT>
3

>  <SCORE.INTER.SOLV>
8.89181

>  <SCORE.INTER.VDW>
-46.0231

>  <SCORE.INTER.norm>
-2.16111

>  <SCORE.INTRA>
0.21102

>  <SCORE.INTRA.DIHEDRAL>
-1.68439e-05

>  <SCORE.INTRA.DIHEDRAL.0>
3.60016

>  <SCORE.INTRA.POLAR>
0

>  <SCORE.INTRA.POLAR.0>
0

>  <SCORE.INTRA.REPUL>
0

>  <SCORE.INTRA.REPUL.0>
0

>  <SCORE.INTRA.SOLV>
2.81171e-05

>  <SCORE.INTRA.SOLV.lig_0>
-10.9882

>  <SCORE.INTRA.VDW>
0.211014

>  <SCORE.INTRA.VDW.0>
1.84442

>  <SCORE.INTRA.norm>
0.00811616

>  <SCORE.RESTR>
0

>  <SCORE.RESTR.CAVITY>
0

>  <SCORE.RESTR.norm>
0

>  <SCORE.SYSTEM>
0

>  <SCORE.SYSTEM.CONST>
0

>  <SCORE.SYSTEM.DIHEDRAL>
0

>  <SCORE.SYSTEM.SOLV>
0

>  <SCORE.SYSTEM.norm>
0

>  <SCORE.heavy>
26

>  <SCORE.norm>
-2.15299

>  <RMSD>
0.714

$$$$
ligand
 OpenBabel02271912153D
libRbt.so/2013.1/901 2013/11/27
 26 29  0  0  0  0  0  0  0  0999 V2000
  112.2229  -79.4244  -87.0943 C   0  0  1  0  0  0  0  0  0  0  0  0
  112.7228  -80.6576  -87.4873 N   0  0  0  0  0  0  0  0  0  0  0  0
  112.3497  -78.9951  -85.7094 C   0  0  0  0  0  0  0  0  0  0  0  0
  111.3521  -74.3649  -80.6382 N   0  0  0  0  0  0  0  0  0  0  0  0
  111.9518  -77.3464  -84.0442 O   0  0  0  0  0  0  0  0  0  0  0  0
  111.7959  -77.7353  -85.4739 C   0  0  2  0  0  0  0  0  0  0  0  0
  111.4338  -76.1991  -83.8360 C   0  0  1  0  0  0  0  0  0  0  0  0
  111.6466  -75.9053  -82.4189 C   0  0  0  0  0  0  0  0  0  0  0  0
  111.1125  -74.6366  -81.9962 C   0  0  2  0  0  0  0  0  0  0  0  0
  110.4310  -73.7621  -82.8784 C   0  0  0  0  0  0  0  0  0  0  0  0
  110.2609  -74.1087  -84.2772 C   0  0  0  0  0  0  0  0  0  0  0  0
  110.8008  -75.3685  -84.7262 C   0  0  2  0  0  0  0  0  0  0  0  0
  110.5941  -75.6435  -86.1971 C   0  0  1  0  0  0  0  0  0  0  0  0
  111.1701  -76.9102  -86.4018 C   0  0  2  0  0  0  0  0  0  0  0  0
  111.0587  -77.3571  -87.7921 C   0  0  0  0  0  0  0  0  0  0  0  0
  111.6154  -78.6458  -88.0601 C   0  0  0  0  0  0  0  0  0  0  0  0
  109.9553  -74.7607  -87.0472 C   0  0  0  0  0  0  0  0  0  0  0  0
  110.3030  -73.4023  -87.2324 C   0  0  0  0  0  0  0  0  0  0  0  0
  109.6806  -72.5018  -88.0988 C   0  0  0  0  0  0  0  0  0  0  0  0
  108.5622  -72.9466  -88.9168 C   0  0  0  0  0  0  0  0  0  0  0  0
  108.2324  -74.3060  -88.6998 C   0  0  0  0  0  0  0  0  0  0  0  0
  108.8249  -75.2420  -87.8409 C   0  0  0  0  0  0  0  0  0  0  0  0
  113.2699  -81.6148  -86.5298 C   0  0  0  0  0  0  0  0  0  0  0  0
  112.7733  -81.1843  -88.8679 C   0  0  0  0  0  0  0  0  0  0  0  0
  111.9935  -75.1683  -79.5736 C   0  0  0  0  0  0  0  0  0  0  0  0
  110.9150  -73.0220  -80.1163 C   0  0  0  0  0  0  0  0  0  0  0  0
  1  2  1  6  0  0  0
  1  3  1  0  0  0  0
  1 16  1  0  0  0  0
  2 23  1  0  0  0  0
  2 24  1  0  0  0  0
  4 25  1  0  0  0  0
  4 26  1  0  0  0  0
  5  6  1  0  0  0  0
  6  3  1  1  0  0  0
  6 14  1  0  0  0  0
  7  5  1  6  0  0  0
  7  8  1  0  0  0  0
  7 12  1  0  0  0  0
  8  9  1  0  0  0  0
  9  4  1  6  0  0  0
  9 10  1  0  0  0  0
 10 11  1  0  0  0  0
 12 11  1  1  0  0  0
 12 13  1  0  0  0  0
 13 14  1  0  0  0  0
 13 17  1  1  0  0  0
 14 15  1  1  0  0  0
 15 16  1  0  0  0  0
 17 18  1  0  0  0  0
 17 22  1  0  0  0  0
 18 19  1  0  0  0  0
 19 20  1  0  0  0  0
 20 21  1  0  0  0  0
 21 22  1  0  0  0  0
M  END
>  <CHROM.1>
5.93421973,-3.07953299,54.33471272,111.10613925,-76.28616353,-85.36460545
-1.26969584,-1.07206961,1.08150027

>  <Name>
ligand

>  <RI>
0

>  <Rbt.Current_Directory>
/home/itssahil/PROJECTS/Mol_Feturizer/Test_systems_manuscript/rnas/1f1t

>  <Rbt.Executable>
rbdock ($Id: //depot/dev/client3/rdock/2013.1/src/exe/rbdock.cxx#4 $)

>  <Rbt.Library>
libRbt.so (2013.1, Build901 2013/11/27)

>  <Rbt.Parameter_File>
/export/apps/rDock/src/rDock_2013.1_src/data/scripts/dock_solv.prm

>  <Rbt.Receptor>
prm/pocket_docking_6.prm

>  <SCORE>
-56.5417

>  <SCORE.INTER>
-56.6794

>  <SCORE.INTER.CONST>
1

>  <SCORE.INTER.POLAR>
0

>  <SCORE.INTER.ROT>
3

>  <SCORE.INTER.SOLV>
8.99256

>  <SCORE.INTER.VDW>
-46.3838

>  <SCORE.INTER.norm>
-2.17998

>  <SCORE.INTRA>
0.137745

>  <SCORE.INTRA.DIHEDRAL>
0.000280939

>  <SCORE.INTRA.DIHEDRAL.0>
3.60016

>  <SCORE.INTRA.POLAR>
0

>  <SCORE.INTRA.POLAR.0>
0

>  <SCORE.INTRA.REPUL>
0

>  <SCORE.INTRA.REPUL.0>
0

>  <SCORE.INTRA.SOLV>
1.2173e-05

>  <SCORE.INTRA.SOLV.lig_0>
-10.9882

>  <SCORE.INTRA.VDW>
0.137598

>  <SCORE.INTRA.VDW.0>
1.84442

>  <SCORE.INTRA.norm>
0.00529788

>  <SCORE.RESTR>
0

>  <SCORE.RESTR.CAVITY>
0

>  <SCORE.RESTR.norm>
0

>  <SCORE.SYSTEM>
0

>  <SCORE.SYSTEM.CONST>
0

>  <SCORE.SYSTEM.DIHEDRAL>
0

>  <SCORE.SYSTEM.SOLV>
0

>  <SCORE.SYSTEM.norm>
0

>  <SCORE.heavy>
26

>  <SCORE.norm>
-2.17468

>  <RMSD>
0.714

$$$$
ligand
 OpenBabel02271912153D
libRbt.so/2013.1/901 2013/11/27
 26 29  0  0  0  0  0  0  0  0999 V2000
  112.2317  -79.4186  -87.1425 C   0  0  1  0  0  0  0  0  0  0  0  0
  112.7319  -80.6473  -87.5490 N   0  0  0  0  0  0  0  0  0  0  0  0
  112.3671  -79.0001  -85.7551 C   0  0  0  0  0  0  0  0  0  0  0  0
  111.3933  -74.4137  -80.6397 N   0  0  0  0  0  0  0  0  0  0  0  0
  111.9767  -77.3660  -84.0738 O   0  0  0  0  0  0  0  0  0  0  0  0
  111.8118  -77.7437  -85.5055 C   0  0  2  0  0  0  0  0  0  0  0  0
  111.4573  -76.2218  -83.8527 C   0  0  1  0  0  0  0  0  0  0  0  0
  111.6793  -75.9388  -82.4348 C   0  0  0  0  0  0  0  0  0  0  0  0
  111.1449  -74.6750  -81.9981 C   0  0  2  0  0  0  0  0  0  0  0  0
  110.4551  -73.7951  -82.8685 C   0  0  0  0  0  0  0  0  0  0  0  0
  110.2760  -74.1309  -84.2688 C   0  0  0  0  0  0  0  0  0  0  0  0
  110.8160  -75.3856  -84.7317 C   0  0  2  0  0  0  0  0  0  0  0  0
  110.5997  -75.6492  -86.2034 C   0  0  1  0  0  0  0  0  0  0  0  0
  111.1775  -76.9127  -86.4223 C   0  0  2  0  0  0  0  0  0  0  0  0
  111.0575  -77.3487  -87.8153 C   0  0  0  0  0  0  0  0  0  0  0  0
  111.6155  -78.6338  -88.0977 C   0  0  0  0  0  0  0  0  0  0  0  0
  109.9528  -74.7613  -87.0418 C   0  0  0  0  0  0  0  0  0  0  0  0
  110.2843  -73.3960  -87.2048 C   0  0  0  0  0  0  0  0  0  0  0  0
  109.6536  -72.4898  -88.0592 C   0  0  0  0  0  0  0  0  0  0  0  0
  108.5434  -72.9355  -88.8876 C   0  0  0  0  0  0  0  0  0  0  0  0
  108.2296  -74.3021  -88.6928 C   0  0  0  0  0  0  0  0  0  0  0  0
  108.8308  -75.2439  -87.8465 C   0  0  0  0  0  0  0  0  0  0  0  0
  113.2498  -81.6278  -86.5988 C   0  0  0  0  0  0  0  0  0  0  0  0
  112.8110  -81.1462  -88.9385 C   0  0  0  0  0  0  0  0  0  0  0  0
  112.0303  -75.2302  -79.5824 C   0  0  0  0  0  0  0  0  0  0  0  0
  110.9734  -73.0690  -80.1083 C   0  0  0  0  0  0  0  0  0  0  0  0
  1  2  1  6  0  0  0
  1  3  1  0  0  0  0
  1 16  1  0  0  0  0
  2 23  1  0  0  0  0
  2 24  1  0  0  0  0
  4 25  1  0  0  0  0
  4 26  1  0  0  0  0
  5  6  1  0  0  0  0
  6  3  1  1  0  0  0
  6 14  1  0  0  0  0
  7  5  1  6  0  0  0
  7  8  1  0  0  0  0
  7 12  1  0  0  0  0
  8  9  1  0  0  0  0
  9  4  1  6  0  0  0
  9 10  1  0  0  0  0
 10 11  1  0  0  0  0
 12 11  1  1  0  0  0
 12 13  1  0  0  0  0
 13 14  1  0  0  0  0
 13 17  1  1  0  0  0
 14 15  1  1  0  0  0
 15 16  1  0  0  0  0
 17 18  1  0  0  0  0
 17 22  1  0  0  0  0
 18 19  1  0  0  0  0
 19 20  1  0  0  0  0
 20 21  1  0  0  0  0
 21 22  1  0  0  0  0
M  END
>  <CHROM.1>
7.88773219,-3.88705739,53.42373969,111.11935908,-76.29727561,-85.37978299
-1.27964540,-1.06745696,1.08099557

>  <Name>
ligand

>  <RI>
0

>  <Rbt.Current_Directory>
/home/itssahil/PROJECTS/Mol_Feturizer/Test_systems_manuscript/rnas/1f1t

>  <Rbt.Executable>
rbdock ($Id: //depot/dev/client3/rdock/2013.1/src/exe/rbdock.cxx#4 $)

>  <Rbt.Library>
libRbt.so (2013.1, Build901 2013/11/27)

>  <Rbt.Parameter_File>
/export/apps/rDock/src/rDock_2013.1_src/data/scripts/dock_solv.prm

>  <Rbt.Receptor>
prm/pocket_docking_8.prm

>  <SCORE>
-56.3932

>  <SCORE.INTER>
-56.5205

>  <SCORE.INTER.CONST>
1

>  <SCORE.INTER.POLAR>
0

>  <SCORE.INTER.ROT>
3

>  <SCORE.INTER.SOLV>
8.964

>  <SCORE.INTER.VDW>
-46.2683

>  <SCORE.INTER.norm>
-2.17386

>  <SCORE.INTRA>
0.127246

>  <SCORE.INTRA.DIHEDRAL>
0.000276345

>  <SCORE.INTRA.DIHEDRAL.0>
3.60016

>  <SCORE.INTRA.POLAR>
0

>  <SCORE.INTRA.POLAR.0>
0

>  <SCORE.INTRA.REPUL>
0

>  <SCORE.INTRA.REPUL.0>
0

>  <SCORE.INTRA.SOLV>
2.44212e-05

>  <SCORE.INTRA.SOLV.lig_0>
-10.9882

>  <SCORE.INTRA.VDW>
0.127096

>  <SCORE.INTRA.VDW.0>
1.84442

>  <SCORE.INTRA.norm>
0.00489408

>  <SCORE.RESTR>
0

>  <SCORE.RESTR.CAVITY>
0

>  <SCORE.RESTR.norm>
0

>  <SCORE.SYSTEM>
0

>  <SCORE.SYSTEM.CONST>
0

>  <SCORE.SYSTEM.DIHEDRAL>
0

>  <SCORE.SYSTEM.SOLV>
0

>  <SCORE.SYSTEM.norm>
0

>  <SCORE.heavy>
26

>  <SCORE.norm>
-2.16897

>  <RMSD>
0.714

$$$$
ligand
 OpenBabel02271912153D
libRbt.so/2013.1/901 2013/11/27
 26 29  0  0  0  0  0  0  0  0999 V2000
  112.2486  -79.4798  -87.1122 C   0  0  1  0  0  0  0  0  0  0  0  0
  112.7793  -80.7029  -87.4964 N   0  0  0  0  0  0  0  0  0  0  0  0
  112.3822  -79.0283  -85.7351 C   0  0  0  0  0  0  0  0  0  0  0  0
  111.3193  -74.3616  -80.7108 N   0  0  0  0  0  0  0  0  0  0  0  0
  111.9590  -77.3697  -84.0859 O   0  0  0  0  0  0  0  0  0  0  0  0
  111.7945  -77.7823  -85.5079 C   0  0  2  0  0  0  0  0  0  0  0  0
  111.4101  -76.2356  -83.8852 C   0  0  1  0  0  0  0  0  0  0  0  0
  111.6343  -75.9164  -82.4753 C   0  0  0  0  0  0  0  0  0  0  0  0
  111.0687  -74.6585  -82.0614 C   0  0  2  0  0  0  0  0  0  0  0  0
  110.3490  -73.8166  -82.9450 C   0  0  0  0  0  0  0  0  0  0  0  0
  110.1693  -74.1869  -84.3365 C   0  0  0  0  0  0  0  0  0  0  0  0
  110.7401  -75.4362  -84.7768 C   0  0  2  0  0  0  0  0  0  0  0  0
  110.5208  -75.7370  -86.2409 C   0  0  1  0  0  0  0  0  0  0  0  0
  111.1313  -76.9887  -86.4373 C   0  0  2  0  0  0  0  0  0  0  0  0
  111.0135  -77.4575  -87.8198 C   0  0  0  0  0  0  0  0  0  0  0  0
  111.6044  -78.7327  -88.0791 C   0  0  0  0  0  0  0  0  0  0  0  0
  109.8439  -74.8851  -87.0930 C   0  0  0  0  0  0  0  0  0  0  0  0
  108.7626  -75.2487  -87.9290 C   0  0  0  0  0  0  0  0  0  0  0  0
  108.0567  -74.3985  -88.7821 C   0  0  0  0  0  0  0  0  0  0  0  0
  108.4220  -72.9920  -88.8597 C   0  0  0  0  0  0  0  0  0  0  0  0
  109.5136  -72.6632  -88.0205 C   0  0  0  0  0  0  0  0  0  0  0  0
  110.2516  -73.4817  -87.1544 C   0  0  0  0  0  0  0  0  0  0  0  0
  113.2907  -81.6668  -86.5260 C   0  0  0  0  0  0  0  0  0  0  0  0
  112.9004  -81.2113  -88.8794 C   0  0  0  0  0  0  0  0  0  0  0  0
  111.9381  -75.1583  -79.6279 C   0  0  0  0  0  0  0  0  0  0  0  0
  110.9247  -72.9937  -80.2210 C   0  0  0  0  0  0  0  0  0  0  0  0
  1  2  1  6  0  0  0
  1  3  1  0  0  0  0
  1 16  1  0  0  0  0
  2 23  1  0  0  0  0
  2 24  1  0  0  0  0
  4 25  1  0  0  0  0
  4 26  1  0  0  0  0
  5  6  1  0  0  0  0
  6  3  1  1  0  0  0
  6 14  1  0  0  0  0
  7  5  1  6  0  0  0
  7  8  1  0  0  0  0
  7 12  1  0  0  0  0
  8  9  1  0  0  0  0
  9  4  1  6  0  0  0
  9 10  1  0  0  0  0
 10 11  1  0  0  0  0
 12 11  1  1  0  0  0
 12 13  1  0  0  0  0
 13 14  1  0  0  0  0
 13 17  1  1  0  0  0
 14 15  1  1  0  0  0
 15 16  1  0  0  0  0
 17 18  1  0  0  0  0
 17 22  1  0  0  0  0
 18 19  1  0  0  0  0
 19 20  1  0  0  0  0
 20 21  1  0  0  0  0
 21 22  1  0  0  0  0
M  END
>  <CHROM.1>
9.92475561,-6.66814775,-127.79920914,111.07113325,-76.33694570,-85.39759524
-1.24860804,-1.04571402,1.07382975

>  <Name>
ligand

>  <RI>
0

>  <Rbt.Current_Directory>
/home/itssahil/PROJECTS/Mol_Feturizer/Test_systems_manuscript/rnas/1f1t

>  <Rbt.Executable>
rbdock ($Id: //depot/dev/client3/rdock/2013.1/src/exe/rbdock.cxx#4 $)

>  <Rbt.Library>
libRbt.so (2013.1, Build901 2013/11/27)

>  <Rbt.Parameter_File>
/export/apps/rDock/src/rDock_2013.1_src/data/scripts/dock_solv.prm

>  <Rbt.Receptor>
prm/pocket_docking_8.prm

>  <SCORE>
-55.9328

>  <SCORE.INTER>
-56.1191

>  <SCORE.INTER.CONST>
1

>  <SCORE.INTER.POLAR>
0

>  <SCORE.INTER.ROT>
3

>  <SCORE.INTER.SOLV>
8.89161

>  <SCORE.INTER.VDW>
-45.9766

>  <SCORE.INTER.norm>
-2.15843

>  <SCORE.INTRA>
0.186284

>  <SCORE.INTRA.DIHEDRAL>
-2.00959e-05

>  <SCORE.INTRA.DIHEDRAL.0>
3.60016

>  <SCORE.INTRA.POLAR>
0

>  <SCORE.INTRA.POLAR.0>
0

>  <SCORE.INTRA.REPUL>
0

>  <SCORE.INTRA.REPUL.0>
0

>  <SCORE.INTRA.SOLV>
4.44404e-05

>  <SCORE.INTRA.SOLV.lig_0>
-10.9882

>  <SCORE.INTRA.VDW>
0.186272

>  <SCORE.INTRA.VDW.0>
1.84442

>  <SCORE.INTRA.norm>
0.00716476

>  <SCORE.RESTR>
0

>  <SCORE.RESTR.CAVITY>
0

>  <SCORE.RESTR.norm>
0

>  <SCORE.SYSTEM>
0

>  <SCORE.SYSTEM.CONST>
0

>  <SCORE.SYSTEM.DIHEDRAL>
0

>  <SCORE.SYSTEM.SOLV>
0

>  <SCORE.SYSTEM.norm>
0

>  <SCORE.heavy>
26

>  <SCORE.norm>
-2.15126

>  <RMSD>
0.714

$$$$
ligand
 OpenBabel02271912153D
libRbt.so/2013.1/901 2013/11/27
 26 29  0  0  0  0  0  0  0  0999 V2000
  111.1791  -74.7216  -82.0028 C   0  0  1  0  0  0  0  0  0  0  0  0
  111.3576  -74.3592  -80.6753 N   0  0  0  0  0  0  0  0  0  0  0  0
  111.7043  -75.9891  -82.4885 C   0  0  0  0  0  0  0  0  0  0  0  0
  112.7190  -80.6450  -87.5327 N   0  0  0  0  0  0  0  0  0  0  0  0
  112.0045  -77.5135  -84.2873 O   0  0  0  0  0  0  0  0  0  0  0  0
  111.4456  -76.2058  -83.8433 C   0  0  2  0  0  0  0  0  0  0  0  0
  111.7727  -77.6982  -85.5283 C   0  0  1  0  0  0  0  0  0  0  0  0
  112.3456  -79.0021  -85.8618 C   0  0  0  0  0  0  0  0  0  0  0  0
  112.1843  -79.3780  -87.2425 C   0  0  2  0  0  0  0  0  0  0  0  0
  111.5379  -78.5467  -88.1904 C   0  0  0  0  0  0  0  0  0  0  0  0
  110.9819  -77.2665  -87.7930 C   0  0  0  0  0  0  0  0  0  0  0  0
  111.1191  -76.8759  -86.4114 C   0  0  2  0  0  0  0  0  0  0  0  0
  110.4994  -75.5387  -86.0800 C   0  0  1  0  0  0  0  0  0  0  0  0
  110.7682  -75.3567  -84.7115 C   0  0  2  0  0  0  0  0  0  0  0  0
  110.2412  -74.0889  -84.2018 C   0  0  0  0  0  0  0  0  0  0  0  0
  110.4949  -73.8406  -82.8174 C   0  0  0  0  0  0  0  0  0  0  0  0
  109.8439  -74.7587  -87.0138 C   0  0  0  0  0  0  0  0  0  0  0  0
  108.7967  -75.1953  -87.8583 C   0  0  0  0  0  0  0  0  0  0  0  0
  108.1122  -74.4175  -88.7939 C   0  0  0  0  0  0  0  0  0  0  0  0
  108.4647  -73.0154  -88.9594 C   0  0  0  0  0  0  0  0  0  0  0  0
  109.5224  -72.6131  -88.1089 C   0  0  0  0  0  0  0  0  0  0  0  0
  110.2382  -73.3580  -87.1614 C   0  0  0  0  0  0  0  0  0  0  0  0
  110.9171  -73.0671  -80.1570 C   0  0  0  0  0  0  0  0  0  0  0  0
  111.9824  -75.1819  -79.6177 C   0  0  0  0  0  0  0  0  0  0  0  0
  112.9114  -81.3605  -88.8139 C   0  0  0  0  0  0  0  0  0  0  0  0
  113.2198  -81.4640  -86.3728 C   0  0  0  0  0  0  0  0  0  0  0  0
  1  2  1  1  0  0  0
  1  3  1  0  0  0  0
  1 16  1  0  0  0  0
  2 23  1  0  0  0  0
  2 24  1  0  0  0  0
  4 25  1  0  0  0  0
  4 26  1  0  0  0  0
  5  6  1  0  0  0  0
  6  3  1  6  0  0  0
  6 14  1  0  0  0  0
  7  5  1  1  0  0  0
  7  8  1  0  0  0  0
  7 12  1  0  0  0  0
  8  9  1  0  0  0  0
  9  4  1  1  0  0  0
  9 10  1  0  0  0  0
 10 11  1  0  0  0  0
 12 11  1  6  0  0  0
 12 13  1  0  0  0  0
 13 14  1  0  0  0  0
 13 17  1  6  0  0  0
 14 15  1  6  0  0  0
 15 16  1  0  0  0  0
 17 18  1  0  0  0  0
 17 22  1  0  0  0  0
 18 19  1  0  0  0  0
 19 20  1  0  0  0  0
 20 21  1  0  0  0  0
 21 22  1  0  0  0  0
M  END
>  <CHROM.1>
176.47340665,-172.38431380,52.28246817,111.08345791,-76.29780270,-85.38747492
-1.85985543,1.05438125,-2.06935274

>  <Name>
ligand

>  <RI>
0

>  <Rbt.Current_Directory>
/home/itssahil/PROJECTS/Mol_Feturizer/Test_systems_manuscript/rnas/1f1t

>  <Rbt.Executable>
rbdock ($Id: //depot/dev/client3/rdock/2013.1/src/exe/rbdock.cxx#4 $)

>  <Rbt.Library>
libRbt.so (2013.1, Build901 2013/11/27)

>  <Rbt.Parameter_File>
/export/apps/rDock/src/rDock_2013.1_src/data/scripts/dock_solv.prm

>  <Rbt.Receptor>
prm/pocket_docking_3.prm

>  <SCORE>
-53.3819

>  <SCORE.INTER>
-56.1877

>  <SCORE.INTER.CONST>
1

>  <SCORE.INTER.POLAR>
0

>  <SCORE.INTER.ROT>
3

>  <SCORE.INTER.SOLV>
8.9415

>  <SCORE.INTER.VDW>
-46.0389

>  <SCORE.INTER.norm>
-2.16106

>  <SCORE.INTRA>
2.80582

>  <SCORE.INTRA.DIHEDRAL>
-0.000285298

>  <SCORE.INTRA.DIHEDRAL.0>
3.60016

>  <SCORE.INTRA.POLAR>
0

>  <SCORE.INTRA.POLAR.0>
0

>  <SCORE.INTRA.REPUL>
0

>  <SCORE.INTRA.REPUL.0>
0

>  <SCORE.INTRA.SOLV>
-0.000983878

>  <SCORE.INTRA.SOLV.lig_0>
-10.9882

>  <SCORE.INTRA.VDW>
2.80645

>  <SCORE.INTRA.VDW.0>
1.84442

>  <SCORE.INTRA.norm>
0.107916

>  <SCORE.RESTR>
0

>  <SCORE.RESTR.CAVITY>
0

>  <SCORE.RESTR.norm>
0

>  <SCORE.SYSTEM>
0

>  <SCORE.SYSTEM.CONST>
0

>  <SCORE.SYSTEM.DIHEDRAL>
0

>  <SCORE.SYSTEM.SOLV>
0

>  <SCORE.SYSTEM.norm>
0

>  <SCORE.heavy>
26

>  <SCORE.norm>
-2.05315

>  <RMSD>
0.715

$$$$
ligand
 OpenBabel02271912153D
libRbt.so/2013.1/901 2013/11/27
 26 29  0  0  0  0  0  0  0  0999 V2000
  112.2139  -79.4359  -87.0859 C   0  0  1  0  0  0  0  0  0  0  0  0
  112.7112  -80.6709  -87.4766 N   0  0  0  0  0  0  0  0  0  0  0  0
  112.3406  -79.0046  -85.7016 C   0  0  0  0  0  0  0  0  0  0  0  0
  111.3497  -74.3641  -80.6385 N   0  0  0  0  0  0  0  0  0  0  0  0
  111.9451  -77.3524  -84.0392 O   0  0  0  0  0  0  0  0  0  0  0  0
  111.7895  -77.7431  -85.4685 C   0  0  2  0  0  0  0  0  0  0  0  0
  111.4297  -76.2035  -83.8333 C   0  0  1  0  0  0  0  0  0  0  0  0
  111.6420  -75.9080  -82.4166 C   0  0  0  0  0  0  0  0  0  0  0  0
  111.1106  -74.6373  -81.9962 C   0  0  2  0  0  0  0  0  0  0  0  0
  110.4319  -73.7626  -82.8805 C   0  0  0  0  0  0  0  0  0  0  0  0
  110.2620  -74.1111  -84.2788 C   0  0  0  0  0  0  0  0  0  0  0  0
  110.7993  -75.3729  -84.7254 C   0  0  2  0  0  0  0  0  0  0  0  0
  110.5932  -75.6497  -86.1960 C   0  0  1  0  0  0  0  0  0  0  0  0
  111.1665  -76.9180  -86.3982 C   0  0  2  0  0  0  0  0  0  0  0  0
  111.0551  -77.3670  -87.7879 C   0  0  0  0  0  0  0  0  0  0  0  0
  111.6090  -78.6574  -88.0534 C   0  0  0  0  0  0  0  0  0  0  0  0
  109.9572  -74.7668  -87.0481 C   0  0  0  0  0  0  0  0  0  0  0  0
  110.2906  -73.4024  -87.2146 C   0  0  0  0  0  0  0  0  0  0  0  0
  109.6711  -72.5013  -88.0824 C   0  0  0  0  0  0  0  0  0  0  0  0
  108.5719  -72.9521  -88.9229 C   0  0  0  0  0  0  0  0  0  0  0  0
  108.2559  -74.3177  -88.7243 C   0  0  0  0  0  0  0  0  0  0  0  0
  108.8461  -75.2544  -87.8647 C   0  0  0  0  0  0  0  0  0  0  0  0
  112.7083  -81.1035  -88.8712 C   0  0  0  0  0  0  0  0  0  0  0  0
  113.3047  -81.6970  -86.5930 C   0  0  0  0  0  0  0  0  0  0  0  0
  111.9846  -75.1690  -79.5711 C   0  0  0  0  0  0  0  0  0  0  0  0
  110.9198  -73.0174  -80.1203 C   0  0  0  0  0  0  0  0  0  0  0  0
  1  2  1  6  0  0  0
  1  3  1  0  0  0  0
  1 16  1  0  0  0  0
  2 23  1  0  0  0  0
  2 24  1  0  0  0  0
  4 25  1  0  0  0  0
  4 26  1  0  0  0  0
  5  6  1  0  0  0  0
  6  3  1  1  0  0  0
  6 14  1  0  0  0  0
  7  5  1  6  0  0  0
  7  8  1  0  0  0  0
  7 12  1  0  0  0  0
  8  9  1  0  0  0  0
  9  4  1  6  0  0  0
  9 10  1  0  0  0  0
 10 11  1  0  0  0  0
 12 11  1  1  0  0  0
 12 13  1  0  0  0  0
 13 14  1  0  0  0  0
 13 17  1  1  0  0  0
 14 15  1  1  0  0  0
 15 16  1  0  0  0  0
 17 18  1  0  0  0  0
 17 22  1  0  0  0  0
 18 19  1  0  0  0  0
 19 20  1  0  0  0  0
 20 21  1  0  0  0  0
 21 22  1  0  0  0  0
M  END
>  <CHROM.1>
-174.86256746,-3.29662187,52.94353781,111.10313267,-76.29100837,-85.36634178
-1.27252923,-1.07398017,1.07961065

>  <Name>
ligand

>  <RI>
0

>  <Rbt.Current_Directory>
/home/itssahil/PROJECTS/Mol_Feturizer/Test_systems_manuscript/rnas/1f1t

>  <Rbt.Executable>
rbdock ($Id: //depot/dev/client3/rdock/2013.1/src/exe/rbdock.cxx#4 $)

>  <Rbt.Library>
libRbt.so (2013.1, Build901 2013/11/27)

>  <Rbt.Parameter_File>
/export/apps/rDock/src/rDock_2013.1_src/data/scripts/dock_solv.prm

>  <Rbt.Receptor>
prm/pocket_docking_4.prm

>  <SCORE>
-56.3113

>  <SCORE.INTER>
-56.7883

>  <SCORE.INTER.CONST>
1

>  <SCORE.INTER.POLAR>
0

>  <SCORE.INTER.ROT>
3

>  <SCORE.INTER.SOLV>
8.96811

>  <SCORE.INTER.VDW>
-46.4482

>  <SCORE.INTER.norm>
-2.18417

>  <SCORE.INTRA>
0.47704

>  <SCORE.INTRA.DIHEDRAL>
0.000289616

>  <SCORE.INTRA.DIHEDRAL.0>
3.60016

>  <SCORE.INTRA.POLAR>
0

>  <SCORE.INTRA.POLAR.0>
0

>  <SCORE.INTRA.REPUL>
0

>  <SCORE.INTRA.REPUL.0>
0

>  <SCORE.INTRA.SOLV>
8.53682e-06

>  <SCORE.INTRA.SOLV.lig_0>
-10.9882

>  <SCORE.INTRA.VDW>
0.476891

>  <SCORE.INTRA.VDW.0>
1.84442

>  <SCORE.INTRA.norm>
0.0183477

>  <SCORE.RESTR>
0

>  <SCORE.RESTR.CAVITY>
0

>  <SCORE.RESTR.norm>
0

>  <SCORE.SYSTEM>
0

>  <SCORE.SYSTEM.CONST>
0

>  <SCORE.SYSTEM.DIHEDRAL>
0

>  <SCORE.SYSTEM.SOLV>
0

>  <SCORE.SYSTEM.norm>
0

>  <SCORE.heavy>
26

>  <SCORE.norm>
-2.16582

>  <RMSD>
0.715

$$$$
ligand
 OpenBabel02271912153D
libRbt.so/2013.1/901 2013/11/27
 26 29  0  0  0  0  0  0  0  0999 V2000
  112.2358  -79.4293  -87.1078 C   0  0  1  0  0  0  0  0  0  0  0  0
  112.7369  -80.6617  -87.5019 N   0  0  0  0  0  0  0  0  0  0  0  0
  112.3618  -79.0013  -85.7223 C   0  0  0  0  0  0  0  0  0  0  0  0
  111.3584  -74.3774  -80.6466 N   0  0  0  0  0  0  0  0  0  0  0  0
  111.9618  -77.3547  -84.0555 O   0  0  0  0  0  0  0  0  0  0  0  0
  111.8069  -77.7422  -85.4857 C   0  0  2  0  0  0  0  0  0  0  0  0
  111.4428  -76.2081  -83.8463 C   0  0  1  0  0  0  0  0  0  0  0  0
  111.6549  -75.9156  -82.4288 C   0  0  0  0  0  0  0  0  0  0  0  0
  111.1196  -74.6478  -82.0049 C   0  0  2  0  0  0  0  0  0  0  0  0
  110.4378  -73.7729  -82.8865 C   0  0  0  0  0  0  0  0  0  0  0  0
  110.2684  -74.1181  -84.2857 C   0  0  0  0  0  0  0  0  0  0  0  0
  110.8095  -75.3771  -84.7358 C   0  0  2  0  0  0  0  0  0  0  0  0
  110.6036  -75.6506  -86.2072 C   0  0  1  0  0  0  0  0  0  0  0  0
  111.1808  -76.9166  -86.4130 C   0  0  2  0  0  0  0  0  0  0  0  0
  111.0703  -77.3622  -87.8037 C   0  0  0  0  0  0  0  0  0  0  0  0
  111.6281  -78.6501  -88.0729 C   0  0  0  0  0  0  0  0  0  0  0  0
  109.9645  -74.7674  -87.0566 C   0  0  0  0  0  0  0  0  0  0  0  0
  110.2599  -73.3900  -87.1823 C   0  0  0  0  0  0  0  0  0  0  0  0
  109.6371  -72.4878  -88.0466 C   0  0  0  0  0  0  0  0  0  0  0  0
  108.5762  -72.9517  -88.9281 C   0  0  0  0  0  0  0  0  0  0  0  0
  108.2973  -74.3305  -88.7700 C   0  0  0  0  0  0  0  0  0  0  0  0
  108.8922  -75.2691  -87.9155 C   0  0  0  0  0  0  0  0  0  0  0  0
  113.2820  -81.6205  -86.5449 C   0  0  0  0  0  0  0  0  0  0  0  0
  112.7907  -81.1858  -88.8833 C   0  0  0  0  0  0  0  0  0  0  0  0
  111.0776  -73.1838  -79.8180 C   0  0  0  0  0  0  0  0  0  0  0  0
  111.9984  -75.4677  -79.8288 C   0  0  0  0  0  0  0  0  0  0  0  0
  1  2  1  6  0  0  0
  1  3  1  0  0  0  0
  1 16  1  0  0  0  0
  2 23  1  0  0  0  0
  2 24  1  0  0  0  0
  4 25  1  0  0  0  0
  4 26  1  0  0  0  0
  5  6  1  0  0  0  0
  6  3  1  1  0  0  0
  6 14  1  0  0  0  0
  7  5  1  6  0  0  0
  7  8  1  0  0  0  0
  7 12  1  0  0  0  0
  8  9  1  0  0  0  0
  9  4  1  6  0  0  0
  9 10  1  0  0  0  0
 10 11  1  0  0  0  0
 12 11  1  1  0  0  0
 12 13  1  0  0  0  0
 13 14  1  0  0  0  0
 13 17  1  1  0  0  0
 14 15  1  1  0  0  0
 15 16  1  0  0  0  0
 17 18  1  0  0  0  0
 17 22  1  0  0  0  0
 18 19  1  0  0  0  0
 19 20  1  0  0  0  0
 20 21  1  0  0  0  0
 21 22  1  0  0  0  0
M  END
>  <CHROM.1>
6.05613643,175.36542030,50.37667146,111.12348475,-76.31341423,-85.37284956
-1.27867446,-1.07322138,1.08670213

>  <Name>
ligand

>  <RI>
0

>  <Rbt.Current_Directory>
/home/itssahil/PROJECTS/Mol_Feturizer/Test_systems_manuscript/rnas/1f1t

>  <Rbt.Executable>
rbdock ($Id: //depot/dev/client3/rdock/2013.1/src/exe/rbdock.cxx#4 $)

>  <Rbt.Library>
libRbt.so (2013.1, Build901 2013/11/27)

>  <Rbt.Parameter_File>
/export/apps/rDock/src/rDock_2013.1_src/data/scripts/dock_solv.prm

>  <Rbt.Receptor>
prm/pocket_docking_2.prm

>  <SCORE>
-53.9796

>  <SCORE.INTER>
-56.5503

>  <SCORE.INTER.CONST>
1

>  <SCORE.INTER.POLAR>
0

>  <SCORE.INTER.ROT>
3

>  <SCORE.INTER.SOLV>
9.01532

>  <SCORE.INTER.VDW>
-46.3053

>  <SCORE.INTER.norm>
-2.17501

>  <SCORE.INTRA>
2.57066

>  <SCORE.INTRA.DIHEDRAL>
-0.000318848

>  <SCORE.INTRA.DIHEDRAL.0>
3.60016

>  <SCORE.INTRA.POLAR>
0

>  <SCORE.INTRA.POLAR.0>
0

>  <SCORE.INTRA.REPUL>
0

>  <SCORE.INTRA.REPUL.0>
0

>  <SCORE.INTRA.SOLV>
-0.000970777

>  <SCORE.INTRA.SOLV.lig_0>
-10.9882

>  <SCORE.INTRA.VDW>
2.5713

>  <SCORE.INTRA.VDW.0>
1.84442

>  <SCORE.INTRA.norm>
0.0988715

>  <SCORE.RESTR>
0

>  <SCORE.RESTR.CAVITY>
0

>  <SCORE.RESTR.norm>
0

>  <SCORE.SYSTEM>
0

>  <SCORE.SYSTEM.CONST>
0

>  <SCORE.SYSTEM.DIHEDRAL>
0

>  <SCORE.SYSTEM.SOLV>
0

>  <SCORE.SYSTEM.norm>
0

>  <SCORE.heavy>
26

>  <SCORE.norm>
-2.07614

>  <RMSD>
0.716

$$$$
ligand
 OpenBabel02271912153D
libRbt.so/2013.1/901 2013/11/27
 26 29  0  0  0  0  0  0  0  0999 V2000
  111.2573  -74.7098  -81.9094 C   0  0  1  0  0  0  0  0  0  0  0  0
  111.4360  -74.3753  -80.5747 N   0  0  0  0  0  0  0  0  0  0  0  0
  111.7478  -75.9843  -82.4128 C   0  0  0  0  0  0  0  0  0  0  0  0
  112.6619  -80.5831  -87.5280 N   0  0  0  0  0  0  0  0  0  0  0  0
  112.0162  -77.4865  -84.2351 O   0  0  0  0  0  0  0  0  0  0  0  0
  111.4935  -76.1702  -83.7730 C   0  0  2  0  0  0  0  0  0  0  0  0
  111.7889  -77.6432  -85.4807 C   0  0  1  0  0  0  0  0  0  0  0  0
  112.3249  -78.9581  -85.8321 C   0  0  0  0  0  0  0  0  0  0  0  0
  112.1633  -79.3057  -87.2202 C   0  0  2  0  0  0  0  0  0  0  0  0
  111.5498  -78.4393  -88.1585 C   0  0  0  0  0  0  0  0  0  0  0  0
  111.0295  -77.1498  -87.7435 C   0  0  0  0  0  0  0  0  0  0  0  0
  111.1674  -76.7868  -86.3545 C   0  0  2  0  0  0  0  0  0  0  0  0
  110.5857  -75.4372  -86.0049 C   0  0  1  0  0  0  0  0  0  0  0  0
  110.8490  -75.2865  -84.6315 C   0  0  2  0  0  0  0  0  0  0  0  0
  110.3563  -74.0121  -84.1043 C   0  0  0  0  0  0  0  0  0  0  0  0
  110.6064  -73.7949  -82.7140 C   0  0  0  0  0  0  0  0  0  0  0  0
  109.9614  -74.6222  -86.9301 C   0  0  0  0  0  0  0  0  0  0  0  0
  110.3075  -73.2790  -87.2066 C   0  0  0  0  0  0  0  0  0  0  0  0
  109.6999  -72.4473  -88.1489 C   0  0  0  0  0  0  0  0  0  0  0  0
  108.6007  -72.9566  -88.9553 C   0  0  0  0  0  0  0  0  0  0  0  0
  108.2718  -74.2985  -88.6467 C   0  0  0  0  0  0  0  0  0  0  0  0
  108.8498  -75.1662  -87.7098 C   0  0  0  0  0  0  0  0  0  0  0  0
  110.9883  -73.0977  -80.0275 C   0  0  0  0  0  0  0  0  0  0  0  0
  112.0680  -75.2170  -79.5364 C   0  0  0  0  0  0  0  0  0  0  0  0
  113.2235  -81.6515  -86.6715 C   0  0  0  0  0  0  0  0  0  0  0  0
  112.6297  -81.0060  -88.9727 C   0  0  0  0  0  0  0  0  0  0  0  0
  1  2  1  1  0  0  0
  1  3  1  0  0  0  0
  1 16  1  0  0  0  0
  2 23  1  0  0  0  0
  2 24  1  0  0  0  0
  4 25  1  0  0  0  0
  4 26  1  0  0  0  0
  5  6  1  0  0  0  0
  6  3  1  6  0  0  0
  6 14  1  0  0  0  0
  7  5  1  1  0  0  0
  7  8  1  0  0  0  0
  7 12  1  0  0  0  0
  8  9  1  0  0  0  0
  9  4  1  1  0  0  0
  9 10  1  0  0  0  0
 10 11  1  0  0  0  0
 12 11  1  6  0  0  0
 12 13  1  0  0  0  0
 13 14  1  0  0  0  0
 13 17  1  6  0  0  0
 14 15  1  6  0  0  0
 15 16  1  0  0  0  0
 17 18  1  0  0  0  0
 17 22  1  0  0  0  0
 18 19  1  0  0  0  0
 19 20  1  0  0  0  0
 20 21  1  0  0  0  0
 21 22  1  0  0  0  0
M  END
>  <CHROM.1>
178.65309906,5.06264574,-125.08308585,111.12853549,-76.23871302,-85.35078985
-1.81347988,1.07871250,-2.06877010

>  <Name>
ligand

>  <RI>
0

>  <Rbt.Current_Directory>
/home/itssahil/PROJECTS/Mol_Feturizer/Test_systems_manuscript/rnas/1f1t

>  <Rbt.Executable>
rbdock ($Id: //depot/dev/client3/rdock/2013.1/src/exe/rbdock.cxx#4 $)

>  <Rbt.Library>
libRbt.so (2013.1, Build901 2013/11/27)

>  <Rbt.Parameter_File>
/export/apps/rDock/src/rDock_2013.1_src/data/scripts/dock_solv.prm

>  <Rbt.Receptor>
prm/pocket_docking_5.prm

>  <SCORE>
-56.1765

>  <SCORE.INTER>
-56.6928

>  <SCORE.INTER.CONST>
1

>  <SCORE.INTER.POLAR>
0

>  <SCORE.INTER.ROT>
3

>  <SCORE.INTER.SOLV>
9.02817

>  <SCORE.INTER.VDW>
-46.4046

>  <SCORE.INTER.norm>
-2.18049

>  <SCORE.INTRA>
0.516336

>  <SCORE.INTRA.DIHEDRAL>
-5.9703e-06

>  <SCORE.INTRA.DIHEDRAL.0>
3.60016

>  <SCORE.INTRA.POLAR>
0

>  <SCORE.INTRA.POLAR.0>
0

>  <SCORE.INTRA.REPUL>
0

>  <SCORE.INTRA.REPUL.0>
0

>  <SCORE.INTRA.SOLV>
9.30929e-06

>  <SCORE.INTRA.SOLV.lig_0>
-10.9882

>  <SCORE.INTRA.VDW>
0.516334

>  <SCORE.INTRA.VDW.0>
1.84442

>  <SCORE.INTRA.norm>
0.0198591

>  <SCORE.RESTR>
0

>  <SCORE.RESTR.CAVITY>
0

>  <SCORE.RESTR.norm>
0

>  <SCORE.SYSTEM>
0

>  <SCORE.SYSTEM.CONST>
0

>  <SCORE.SYSTEM.DIHEDRAL>
0

>  <SCORE.SYSTEM.SOLV>
0

>  <SCORE.SYSTEM.norm>
0

>  <SCORE.heavy>
26

>  <SCORE.norm>
-2.16063

>  <RMSD>
0.716

$$$$
ligand
 OpenBabel02271912153D
libRbt.so/2013.1/901 2013/11/27
 26 29  0  0  0  0  0  0  0  0999 V2000
  112.2277  -79.4576  -87.1073 C   0  0  1  0  0  0  0  0  0  0  0  0
  112.7499  -80.6831  -87.4955 N   0  0  0  0  0  0  0  0  0  0  0  0
  112.3664  -79.0107  -85.7291 C   0  0  0  0  0  0  0  0  0  0  0  0
  111.3414  -74.3509  -80.6906 N   0  0  0  0  0  0  0  0  0  0  0  0
  111.9565  -77.3539  -84.0747 O   0  0  0  0  0  0  0  0  0  0  0  0
  111.7872  -77.7616  -85.4977 C   0  0  2  0  0  0  0  0  0  0  0  0
  111.4153  -76.2168  -83.8701 C   0  0  1  0  0  0  0  0  0  0  0  0
  111.6436  -75.9029  -82.4598 C   0  0  0  0  0  0  0  0  0  0  0  0
  111.0868  -74.6425  -82.0416 C   0  0  2  0  0  0  0  0  0  0  0  0
  110.3713  -73.7935  -82.9218 C   0  0  0  0  0  0  0  0  0  0  0  0
  110.1871  -74.1589  -84.3141 C   0  0  0  0  0  0  0  0  0  0  0  0
  110.7491  -75.4106  -84.7586 C   0  0  2  0  0  0  0  0  0  0  0  0
  110.5256  -75.7060  -86.2231 C   0  0  1  0  0  0  0  0  0  0  0  0
  111.1277  -76.9611  -86.4239 C   0  0  2  0  0  0  0  0  0  0  0  0
  111.0048  -77.4254  -87.8075 C   0  0  0  0  0  0  0  0  0  0  0  0
  111.5870  -78.7037  -88.0711 C   0  0  0  0  0  0  0  0  0  0  0  0
  109.8531  -74.8474  -87.0719 C   0  0  0  0  0  0  0  0  0  0  0  0
  108.7688  -75.2019  -87.9081 C   0  0  0  0  0  0  0  0  0  0  0  0
  108.0672  -74.3449  -88.7578 C   0  0  0  0  0  0  0  0  0  0  0  0
  108.4407  -72.9403  -88.8313 C   0  0  0  0  0  0  0  0  0  0  0  0
  109.5350  -72.6207  -87.9920 C   0  0  0  0  0  0  0  0  0  0  0  0
  110.2690  -73.4463  -87.1292 C   0  0  0  0  0  0  0  0  0  0  0  0
  112.8174  -81.0899  -88.8963 C   0  0  0  0  0  0  0  0  0  0  0  0
  113.3048  -81.7228  -86.6028 C   0  0  0  0  0  0  0  0  0  0  0  0
  111.9276  -75.1656  -79.6029 C   0  0  0  0  0  0  0  0  0  0  0  0
  110.9917  -72.9690  -80.2059 C   0  0  0  0  0  0  0  0  0  0  0  0
  1  2  1  6  0  0  0
  1  3  1  0  0  0  0
  1 16  1  0  0  0  0
  2 23  1  0  0  0  0
  2 24  1  0  0  0  0
  4 25  1  0  0  0  0
  4 26  1  0  0  0  0
  5  6  1  0  0  0  0
  6  3  1  1  0  0  0
  6 14  1  0  0  0  0
  7  5  1  6  0  0  0
  7  8  1  0  0  0  0
  7 12  1  0  0  0  0
  8  9  1  0  0  0  0
  9  4  1  6  0  0  0
  9 10  1  0  0  0  0
 10 11  1  0  0  0  0
 12 11  1  1  0  0  0
 12 13  1  0  0  0  0
 13 14  1  0  0  0  0
 13 17  1  1  0  0  0
 14 15  1  1  0  0  0
 15 16  1  0  0  0  0
 17 18  1  0  0  0  0
 17 22  1  0  0  0  0
 18 19  1  0  0  0  0
 19 20  1  0  0  0  0
 20 21  1  0  0  0  0
 21 22  1  0  0  0  0
M  END
>  <CHROM.1>
-170.61429738,-8.32461218,-127.85451084,111.07361691,-76.31045531,-85.38649036
-1.25951254,-1.05045344,1.06925738

>  <Name>
ligand

>  <RI>
0

>  <Rbt.Current_Directory>
/home/itssahil/PROJECTS/Mol_Feturizer/Test_systems_manuscript/rnas/1f1t

>  <Rbt.Executable>
rbdock ($Id: //depot/dev/client3/rdock/2013.1/src/exe/rbdock.cxx#4 $)

>  <Rbt.Library>
libRbt.so (2013.1, Build901 2013/11/27)

>  <Rbt.Parameter_File>
/export/apps/rDock/src/rDock_2013.1_src/data/scripts/dock_solv.prm

>  <Rbt.Receptor>
prm/pocket_docking_6.prm

>  <SCORE>
-55.6481

>  <SCORE.INTER>
-56.1154

>  <SCORE.INTER.CONST>
1

>  <SCORE.INTER.POLAR>
0

>  <SCORE.INTER.ROT>
3

>  <SCORE.INTER.SOLV>
8.89374

>  <SCORE.INTER.VDW>
-45.9749

>  <SCORE.INTER.norm>
-2.15829

>  <SCORE.INTRA>
0.467365

>  <SCORE.INTRA.DIHEDRAL>
-1.80238e-05

>  <SCORE.INTRA.DIHEDRAL.0>
3.60016

>  <SCORE.INTRA.POLAR>
0

>  <SCORE.INTRA.POLAR.0>
0

>  <SCORE.INTRA.REPUL>
0

>  <SCORE.INTRA.REPUL.0>
0

>  <SCORE.INTRA.SOLV>
4.42013e-05

>  <SCORE.INTRA.SOLV.lig_0>
-10.9882

>  <SCORE.INTRA.VDW>
0.467352

>  <SCORE.INTRA.VDW.0>
1.84442

>  <SCORE.INTRA.norm>
0.0179756

>  <SCORE.RESTR>
0

>  <SCORE.RESTR.CAVITY>
0

>  <SCORE.RESTR.norm>
0

>  <SCORE.SYSTEM>
0

>  <SCORE.SYSTEM.CONST>
0

>  <SCORE.SYSTEM.DIHEDRAL>
0

>  <SCORE.SYSTEM.SOLV>
0

>  <SCORE.SYSTEM.norm>
0

>  <SCORE.heavy>
26

>  <SCORE.norm>
-2.14031

>  <RMSD>
0.716

$$$$
ligand
 OpenBabel02271912153D
libRbt.so/2013.1/901 2013/11/27
 26 29  0  0  0  0  0  0  0  0999 V2000
  112.1916  -79.4280  -87.0923 C   0  0  1  0  0  0  0  0  0  0  0  0
  112.6844  -80.6646  -87.4836 N   0  0  0  0  0  0  0  0  0  0  0  0
  112.3253  -78.9954  -85.7090 C   0  0  0  0  0  0  0  0  0  0  0  0
  111.3669  -74.3467  -80.6472 N   0  0  0  0  0  0  0  0  0  0  0  0
  111.9408  -77.3403  -84.0469 O   0  0  0  0  0  0  0  0  0  0  0  0
  111.7781  -77.7324  -85.4750 C   0  0  2  0  0  0  0  0  0  0  0  0
  111.4288  -76.1901  -83.8401 C   0  0  1  0  0  0  0  0  0  0  0  0
  111.6481  -75.8933  -82.4247 C   0  0  0  0  0  0  0  0  0  0  0  0
  111.1213  -74.6210  -82.0035 C   0  0  2  0  0  0  0  0  0  0  0  0
  110.4407  -73.7458  -82.8858 C   0  0  0  0  0  0  0  0  0  0  0  0
  110.2640  -74.0955  -84.2830 C   0  0  0  0  0  0  0  0  0  0  0  0
  110.7965  -75.3591  -84.7304 C   0  0  2  0  0  0  0  0  0  0  0  0
  110.5833  -75.6371  -86.1998 C   0  0  1  0  0  0  0  0  0  0  0  0
  111.1528  -76.9070  -86.4030 C   0  0  2  0  0  0  0  0  0  0  0  0
  111.0344  -77.3573  -87.7916 C   0  0  0  0  0  0  0  0  0  0  0  0
  111.5842  -78.6493  -88.0580 C   0  0  0  0  0  0  0  0  0  0  0  0
  109.9456  -74.7537  -87.0501 C   0  0  0  0  0  0  0  0  0  0  0  0
  110.2879  -73.3929  -87.2273 C   0  0  0  0  0  0  0  0  0  0  0  0
  109.6666  -72.4916  -88.0937 C   0  0  0  0  0  0  0  0  0  0  0  0
  108.5555  -72.9383  -88.9206 C   0  0  0  0  0  0  0  0  0  0  0  0
  108.2310  -74.3002  -88.7116 C   0  0  0  0  0  0  0  0  0  0  0  0
  108.8225  -75.2370  -87.8529 C   0  0  0  0  0  0  0  0  0  0  0  0
  112.6793  -81.0966  -88.8785 C   0  0  0  0  0  0  0  0  0  0  0  0
  113.2747  -81.6931  -86.6007 C   0  0  0  0  0  0  0  0  0  0  0  0
  111.0809  -73.1546  -79.8182 C   0  0  0  0  0  0  0  0  0  0  0  0
  112.0224  -75.4301  -79.8325 C   0  0  0  0  0  0  0  0  0  0  0  0
  1  2  1  6  0  0  0
  1  3  1  0  0  0  0
  1 16  1  0  0  0  0
  2 23  1  0  0  0  0
  2 24  1  0  0  0  0
  4 25  1  0  0  0  0
  4 26  1  0  0  0  0
  5  6  1  0  0  0  0
  6  3  1  1  0  0  0
  6 14  1  0  0  0  0
  7  5  1  6  0  0  0
  7  8  1  0  0  0  0
  7 12  1  0  0  0  0
  8  9  1  0  0  0  0
  9  4  1  6  0  0  0
  9 10  1  0  0  0  0
 10 11  1  0  0  0  0
 12 11  1  1  0  0  0
 12 13  1  0  0  0  0
 13 14  1  0  0  0  0
 13 17  1  1  0  0  0
 14 15  1  1  0  0  0
 15 16  1  0  0  0  0
 17 18  1  0  0  0  0
 17 22  1  0  0  0  0
 18 19  1  0  0  0  0
 19 20  1  0  0  0  0
 20 21  1  0  0  0  0
 21 22  1  0  0  0  0
M  END
>  <CHROM.1>
-174.61310349,176.22534921,53.45468264,111.10241982,-76.29825414,-85.36885988
-1.29244778,-1.07474842,1.07263394

>  <Name>
ligand

>  <RI>
0

>  <Rbt.Current_Directory>
/home/itssahil/PROJECTS/Mol_Feturizer/Test_systems_manuscript/rnas/1f1t

>  <Rbt.Executable>
rbdock ($Id: //depot/dev/client3/rdock/2013.1/src/exe/rbdock.cxx#4 $)

>  <Rbt.Library>
libRbt.so (2013.1, Build901 2013/11/27)

>  <Rbt.Parameter_File>
/export/apps/rDock/src/rDock_2013.1_src/data/scripts/dock_solv.prm

>  <Rbt.Receptor>
prm/pocket_docking_7.prm

>  <SCORE>
-53.7726

>  <SCORE.INTER>
-56.5903

>  <SCORE.INTER.CONST>
1

>  <SCORE.INTER.POLAR>
0

>  <SCORE.INTER.ROT>
3

>  <SCORE.INTER.SOLV>
8.96196

>  <SCORE.INTER.VDW>
-46.3142

>  <SCORE.INTER.norm>
-2.17655

>  <SCORE.INTRA>
2.81769

>  <SCORE.INTRA.DIHEDRAL>
-0.000298217

>  <SCORE.INTRA.DIHEDRAL.0>
3.60016

>  <SCORE.INTRA.POLAR>
0

>  <SCORE.INTRA.POLAR.0>
0

>  <SCORE.INTRA.REPUL>
0

>  <SCORE.INTRA.REPUL.0>
0

>  <SCORE.INTRA.SOLV>
-0.000977103

>  <SCORE.INTRA.SOLV.lig_0>
-10.9882

>  <SCORE.INTRA.VDW>
2.81832

>  <SCORE.INTRA.VDW.0>
1.84442

>  <SCORE.INTRA.norm>
0.108373

>  <SCORE.RESTR>
0

>  <SCORE.RESTR.CAVITY>
0

>  <SCORE.RESTR.norm>
0

>  <SCORE.SYSTEM>
0

>  <SCORE.SYSTEM.CONST>
0

>  <SCORE.SYSTEM.DIHEDRAL>
0

>  <SCORE.SYSTEM.SOLV>
0

>  <SCORE.SYSTEM.norm>
0

>  <SCORE.heavy>
26

>  <SCORE.norm>
-2.06818

>  <RMSD>
0.716

$$$$
ligand
 OpenBabel02271912153D
libRbt.so/2013.1/901 2013/11/27
 26 29  0  0  0  0  0  0  0  0999 V2000
  112.2282  -79.4857  -87.1182 C   0  0  1  0  0  0  0  0  0  0  0  0
  112.7446  -80.7136  -87.5069 N   0  0  0  0  0  0  0  0  0  0  0  0
  112.3602  -79.0444  -85.7376 C   0  0  0  0  0  0  0  0  0  0  0  0
  111.3321  -74.3941  -80.6909 N   0  0  0  0  0  0  0  0  0  0  0  0
  111.9502  -77.3902  -84.0807 O   0  0  0  0  0  0  0  0  0  0  0  0
  111.7882  -77.7919  -85.5061 C   0  0  2  0  0  0  0  0  0  0  0  0
  111.4155  -76.2500  -83.8761 C   0  0  1  0  0  0  0  0  0  0  0  0
  111.6360  -75.9424  -82.4631 C   0  0  0  0  0  0  0  0  0  0  0  0
  111.0851  -74.6795  -82.0447 C   0  0  2  0  0  0  0  0  0  0  0  0
  110.3818  -73.8225  -82.9271 C   0  0  0  0  0  0  0  0  0  0  0  0
  110.2051  -74.1820  -84.3218 C   0  0  0  0  0  0  0  0  0  0  0  0
  110.7614  -75.4362  -84.7665 C   0  0  2  0  0  0  0  0  0  0  0  0
  110.5463  -75.7252  -86.2336 C   0  0  1  0  0  0  0  0  0  0  0  0
  111.1409  -76.9838  -86.4343 C   0  0  2  0  0  0  0  0  0  0  0  0
  111.0246  -77.4427  -87.8203 C   0  0  0  0  0  0  0  0  0  0  0  0
  111.5997  -78.7241  -88.0841 C   0  0  0  0  0  0  0  0  0  0  0  0
  109.8858  -74.8590  -87.0843 C   0  0  0  0  0  0  0  0  0  0  0  0
  108.7877  -75.1967  -87.9091 C   0  0  0  0  0  0  0  0  0  0  0  0
  108.0981  -74.3315  -88.7605 C   0  0  0  0  0  0  0  0  0  0  0  0
  108.5014  -72.9360  -88.8484 C   0  0  0  0  0  0  0  0  0  0  0  0
  109.6089  -72.6334  -88.0202 C   0  0  0  0  0  0  0  0  0  0  0  0
  110.3315  -73.4678  -87.1563 C   0  0  0  0  0  0  0  0  0  0  0  0
  112.8342  -81.1096  -88.9095 C   0  0  0  0  0  0  0  0  0  0  0  0
  113.2714  -81.7665  -86.6126 C   0  0  0  0  0  0  0  0  0  0  0  0
  111.9426  -75.2023  -79.6117 C   0  0  0  0  0  0  0  0  0  0  0  0
  110.9428  -73.0279  -80.1922 C   0  0  0  0  0  0  0  0  0  0  0  0
  1  2  1  6  0  0  0
  1  3  1  0  0  0  0
  1 16  1  0  0  0  0
  2 23  1  0  0  0  0
  2 24  1  0  0  0  0
  4 25  1  0  0  0  0
  4 26  1  0  0  0  0
  5  6  1  0  0  0  0
  6  3  1  1  0  0  0
  6 14  1  0  0  0  0
  7  5  1  6  0  0  0
  7  8  1  0  0  0  0
  7 12  1  0  0  0  0
  8  9  1  0  0  0  0
  9  4  1  6  0  0  0
  9 10  1  0  0  0  0
 10 11  1  0  0  0  0
 12 11  1  1  0  0  0
 12 13  1  0  0  0  0
 13 14  1  0  0  0  0
 13 17  1  1  0  0  0
 14 15  1  1  0  0  0
 15 16  1  0  0  0  0
 17 18  1  0  0  0  0
 17 22  1  0  0  0  0
 18 19  1  0  0  0  0
 19 20  1  0  0  0  0
 20 21  1  0  0  0  0
 21 22  1  0  0  0  0
M  END
>  <CHROM.1>
-169.85458632,-6.17571557,-126.49139024,111.08389871,-76.33631235,-85.39518541
-1.25239661,-1.05965355,1.07885107

>  <Name>
ligand

>  <RI>
0

>  <Rbt.Current_Directory>
/home/itssahil/PROJECTS/Mol_Feturizer/Test_systems_manuscript/rnas/1f1t

>  <Rbt.Executable>
rbdock ($Id: //depot/dev/client3/rdock/2013.1/src/exe/rbdock.cxx#4 $)

>  <Rbt.Library>
libRbt.so (2013.1, Build901 2013/11/27)

>  <Rbt.Parameter_File>
/export/apps/rDock/src/rDock_2013.1_src/data/scripts/dock_solv.prm

>  <Rbt.Receptor>
prm/pocket_docking_6.prm

>  <SCORE>
-55.786

>  <SCORE.INTER>
-56.2193

>  <SCORE.INTER.CONST>
1

>  <SCORE.INTER.POLAR>
0

>  <SCORE.INTER.ROT>
3

>  <SCORE.INTER.SOLV>
8.8568

>  <SCORE.INTER.VDW>
-46.0318

>  <SCORE.INTER.norm>
-2.16228

>  <SCORE.INTRA>
0.433224

>  <SCORE.INTRA.DIHEDRAL>
-9.62526e-06

>  <SCORE.INTRA.DIHEDRAL.0>
3.60016

>  <SCORE.INTRA.POLAR>
0

>  <SCORE.INTRA.POLAR.0>
0

>  <SCORE.INTRA.REPUL>
0

>  <SCORE.INTRA.REPUL.0>
0

>  <SCORE.INTRA.SOLV>
4.56132e-05

>  <SCORE.INTRA.SOLV.lig_0>
-10.9882

>  <SCORE.INTRA.VDW>
0.433206

>  <SCORE.INTRA.VDW.0>
1.84442

>  <SCORE.INTRA.norm>
0.0166624

>  <SCORE.RESTR>
0

>  <SCORE.RESTR.CAVITY>
0

>  <SCORE.RESTR.norm>
0

>  <SCORE.SYSTEM>
0

>  <SCORE.SYSTEM.CONST>
0

>  <SCORE.SYSTEM.DIHEDRAL>
0

>  <SCORE.SYSTEM.SOLV>
0

>  <SCORE.SYSTEM.norm>
0

>  <SCORE.heavy>
26

>  <SCORE.norm>
-2.14562

>  <RMSD>
0.717

$$$$
ligand
 OpenBabel02271912153D
libRbt.so/2013.1/901 2013/11/27
 26 29  0  0  0  0  0  0  0  0999 V2000
  112.2137  -79.4076  -87.0994 C   0  0  1  0  0  0  0  0  0  0  0  0
  112.7048  -80.6421  -87.4995 N   0  0  0  0  0  0  0  0  0  0  0  0
  112.3443  -78.9868  -85.7122 C   0  0  0  0  0  0  0  0  0  0  0  0
  111.3816  -74.3779  -80.6150 N   0  0  0  0  0  0  0  0  0  0  0  0
  111.9587  -77.3446  -84.0377 O   0  0  0  0  0  0  0  0  0  0  0  0
  111.7993  -77.7245  -85.4694 C   0  0  2  0  0  0  0  0  0  0  0  0
  111.4488  -76.1949  -83.8229 C   0  0  1  0  0  0  0  0  0  0  0  0
  111.6645  -75.9104  -82.4043 C   0  0  0  0  0  0  0  0  0  0  0  0
  111.1394  -74.6404  -81.9743 C   0  0  2  0  0  0  0  0  0  0  0  0
  110.4634  -73.7563  -82.8513 C   0  0  0  0  0  0  0  0  0  0  0  0
  110.2901  -74.0940  -84.2518 C   0  0  0  0  0  0  0  0  0  0  0  0
  110.8210  -75.3551  -84.7081 C   0  0  2  0  0  0  0  0  0  0  0  0
  110.6115  -75.6205  -86.1804 C   0  0  1  0  0  0  0  0  0  0  0  0
  111.1787  -76.8900  -86.3924 C   0  0  2  0  0  0  0  0  0  0  0  0
  111.0634  -77.3285  -87.7850 C   0  0  0  0  0  0  0  0  0  0  0  0
  111.6110  -78.6195  -88.0605 C   0  0  0  0  0  0  0  0  0  0  0  0
  109.9784  -74.7287  -87.0252 C   0  0  0  0  0  0  0  0  0  0  0  0
  110.3250  -73.3675  -87.1909 C   0  0  0  0  0  0  0  0  0  0  0  0
  109.7083  -72.4576  -88.0516 C   0  0  0  0  0  0  0  0  0  0  0  0
  108.5979  -72.8946  -88.8846 C   0  0  0  0  0  0  0  0  0  0  0  0
  108.2690  -74.2572  -88.6870 C   0  0  0  0  0  0  0  0  0  0  0  0
  108.8558  -75.2024  -87.8344 C   0  0  0  0  0  0  0  0  0  0  0  0
  112.7307  -81.0504  -88.9013 C   0  0  0  0  0  0  0  0  0  0  0  0
  113.2634  -81.6910  -86.6200 C   0  0  0  0  0  0  0  0  0  0  0  0
  112.0157  -75.1926  -79.5546 C   0  0  0  0  0  0  0  0  0  0  0  0
  110.9570  -73.0336  -80.0861 C   0  0  0  0  0  0  0  0  0  0  0  0
  1  2  1  6  0  0  0
  1  3  1  0  0  0  0
  1 16  1  0  0  0  0
  2 23  1  0  0  0  0
  2 24  1  0  0  0  0
  4 25  1  0  0  0  0
  4 26  1  0  0  0  0
  5  6  1  0  0  0  0
  6  3  1  1  0  0  0
  6 14  1  0  0  0  0
  7  5  1  6  0  0  0
  7  8  1  0  0  0  0
  7 12  1  0  0  0  0
  8  9  1  0  0  0  0
  9  4  1  6  0  0  0
  9 10  1  0  0  0  0
 10 11  1  0  0  0  0
 12 11  1  1  0  0  0
 12 13  1  0  0  0  0
 13 14  1  0  0  0  0
 13 17  1  1  0  0  0
 14 15  1  1  0  0  0
 15 16  1  0  0  0  0
 17 18  1  0  0  0  0
 17 22  1  0  0  0  0
 18 19  1  0  0  0  0
 19 20  1  0  0  0  0
 20 21  1  0  0  0  0
 21 22  1  0  0  0  0
M  END
>  <CHROM.1>
-173.19755652,-3.21767612,53.50883956,111.11965230,-76.26999654,-85.35592713
-1.27876895,-1.07768882,1.08125386

>  <Name>
ligand

>  <RI>
0

>  <Rbt.Current_Directory>
/home/itssahil/PROJECTS/Mol_Feturizer/Test_systems_manuscript/rnas/1f1t

>  <Rbt.Executable>
rbdock ($Id: //depot/dev/client3/rdock/2013.1/src/exe/rbdock.cxx#4 $)

>  <Rbt.Library>
libRbt.so (2013.1, Build901 2013/11/27)

>  <Rbt.Parameter_File>
/export/apps/rDock/src/rDock_2013.1_src/data/scripts/dock_solv.prm

>  <Rbt.Receptor>
prm/pocket_docking_3.prm

>  <SCORE>
-56.2392

>  <SCORE.INTER>
-56.6812

>  <SCORE.INTER.CONST>
1

>  <SCORE.INTER.POLAR>
0

>  <SCORE.INTER.ROT>
3

>  <SCORE.INTER.SOLV>
8.98708

>  <SCORE.INTER.VDW>
-46.3831

>  <SCORE.INTER.norm>
-2.18005

>  <SCORE.INTRA>
0.441954

>  <SCORE.INTRA.DIHEDRAL>
0.000291319

>  <SCORE.INTRA.DIHEDRAL.0>
3.60016

>  <SCORE.INTRA.POLAR>
0

>  <SCORE.INTRA.POLAR.0>
0

>  <SCORE.INTRA.REPUL>
0

>  <SCORE.INTRA.REPUL.0>
0

>  <SCORE.INTRA.SOLV>
1.70945e-05

>  <SCORE.INTRA.SOLV.lig_0>
-10.9882

>  <SCORE.INTRA.VDW>
0.4418

>  <SCORE.INTRA.VDW.0>
1.84442

>  <SCORE.INTRA.norm>
0.0169982

>  <SCORE.RESTR>
0

>  <SCORE.RESTR.CAVITY>
0

>  <SCORE.RESTR.norm>
0

>  <SCORE.SYSTEM>
0

>  <SCORE.SYSTEM.CONST>
0

>  <SCORE.SYSTEM.DIHEDRAL>
0

>  <SCORE.SYSTEM.SOLV>
0

>  <SCORE.SYSTEM.norm>
0

>  <SCORE.heavy>
26

>  <SCORE.norm>
-2.16305

>  <RMSD>
0.718

$$$$
ligand
 OpenBabel02271912153D
libRbt.so/2013.1/901 2013/11/27
 26 29  0  0  0  0  0  0  0  0999 V2000
  111.1732  -74.7061  -82.0107 C   0  0  1  0  0  0  0  0  0  0  0  0
  111.3534  -74.3427  -80.6838 N   0  0  0  0  0  0  0  0  0  0  0  0
  111.6980  -75.9738  -82.4963 C   0  0  0  0  0  0  0  0  0  0  0  0
  112.7071  -80.6329  -87.5386 N   0  0  0  0  0  0  0  0  0  0  0  0
  111.9961  -77.4994  -84.2945 O   0  0  0  0  0  0  0  0  0  0  0  0
  111.4375  -76.1915  -83.8506 C   0  0  2  0  0  0  0  0  0  0  0  0
  111.7627  -77.6850  -85.5350 C   0  0  1  0  0  0  0  0  0  0  0  0
  112.3355  -78.9890  -85.8684 C   0  0  0  0  0  0  0  0  0  0  0  0
  112.1724  -79.3659  -87.2486 C   0  0  2  0  0  0  0  0  0  0  0  0
  111.5244  -78.5354  -88.1962 C   0  0  0  0  0  0  0  0  0  0  0  0
  110.9687  -77.2552  -87.7989 C   0  0  0  0  0  0  0  0  0  0  0  0
  111.1077  -76.8635  -86.4177 C   0  0  2  0  0  0  0  0  0  0  0  0
  110.4881  -75.5262  -86.0864 C   0  0  1  0  0  0  0  0  0  0  0  0
  110.7587  -75.3432  -84.7184 C   0  0  2  0  0  0  0  0  0  0  0  0
  110.2320  -74.0752  -84.2089 C   0  0  0  0  0  0  0  0  0  0  0  0
  110.4875  -73.8259  -82.8251 C   0  0  0  0  0  0  0  0  0  0  0  0
  109.8310  -74.7471  -87.0198 C   0  0  0  0  0  0  0  0  0  0  0  0
  110.1311  -73.3980  -87.3204 C   0  0  0  0  0  0  0  0  0  0  0  0
  109.4900  -72.6020  -88.2713 C   0  0  0  0  0  0  0  0  0  0  0  0
  108.4025  -73.1599  -89.0611 C   0  0  0  0  0  0  0  0  0  0  0  0
  108.1198  -74.5065  -88.7287 C   0  0  0  0  0  0  0  0  0  0  0  0
  108.7324  -75.3396  -87.7823 C   0  0  0  0  0  0  0  0  0  0  0  0
  111.9966  -75.2278  -79.7167 C   0  0  0  0  0  0  0  0  0  0  0  0
  110.9536  -73.0620  -80.0628 C   0  0  0  0  0  0  0  0  0  0  0  0
  113.2671  -81.6870  -86.6637 C   0  0  0  0  0  0  0  0  0  0  0  0
  112.7251  -81.0594  -88.9825 C   0  0  0  0  0  0  0  0  0  0  0  0
  1  2  1  1  0  0  0
  1  3  1  0  0  0  0
  1 16  1  0  0  0  0
  2 23  1  0  0  0  0
  2 24  1  0  0  0  0
  4 25  1  0  0  0  0
  4 26  1  0  0  0  0
  5  6  1  0  0  0  0
  6  3  1  6  0  0  0
  6 14  1  0  0  0  0
  7  5  1  1  0  0  0
  7  8  1  0  0  0  0
  7 12  1  0  0  0  0
  8  9  1  0  0  0  0
  9  4  1  1  0  0  0
  9 10  1  0  0  0  0
 10 11  1  0  0  0  0
 12 11  1  6  0  0  0
 12 13  1  0  0  0  0
 13 14  1  0  0  0  0
 13 17  1  6  0  0  0
 14 15  1  6  0  0  0
 15 16  1  0  0  0  0
 17 18  1  0  0  0  0
 17 22  1  0  0  0  0
 18 19  1  0  0  0  0
 19 20  1  0  0  0  0
 20 21  1  0  0  0  0
 21 22  1  0  0  0  0
M  END
>  <CHROM.1>
-3.46476523,7.43623298,-125.26546915,111.06396141,-76.30226541,-85.42303701
-1.82512702,1.04866369,-2.07421389

>  <Name>
ligand

>  <RI>
0

>  <Rbt.Current_Directory>
/home/itssahil/PROJECTS/Mol_Feturizer/Test_systems_manuscript/rnas/1f1t

>  <Rbt.Executable>
rbdock ($Id: //depot/dev/client3/rdock/2013.1/src/exe/rbdock.cxx#4 $)

>  <Rbt.Library>
libRbt.so (2013.1, Build901 2013/11/27)

>  <Rbt.Parameter_File>
/export/apps/rDock/src/rDock_2013.1_src/data/scripts/dock_solv.prm

>  <Rbt.Receptor>
prm/pocket_docking_3.prm

>  <SCORE>
-56.2948

>  <SCORE.INTER>
-56.4758

>  <SCORE.INTER.CONST>
1

>  <SCORE.INTER.POLAR>
0

>  <SCORE.INTER.ROT>
3

>  <SCORE.INTER.SOLV>
8.93423

>  <SCORE.INTER.VDW>
-46.2286

>  <SCORE.INTER.norm>
-2.17215

>  <SCORE.INTRA>
0.180988

>  <SCORE.INTRA.DIHEDRAL>
-3.07738e-05

>  <SCORE.INTRA.DIHEDRAL.0>
3.60016

>  <SCORE.INTRA.POLAR>
0

>  <SCORE.INTRA.POLAR.0>
0

>  <SCORE.INTRA.REPUL>
0

>  <SCORE.INTRA.REPUL.0>
0

>  <SCORE.INTRA.SOLV>
2.33312e-05

>  <SCORE.INTRA.SOLV.lig_0>
-10.9882

>  <SCORE.INTRA.VDW>
0.180991

>  <SCORE.INTRA.VDW.0>
1.84442

>  <SCORE.INTRA.norm>
0.00696106

>  <SCORE.RESTR>
0

>  <SCORE.RESTR.CAVITY>
0

>  <SCORE.RESTR.norm>
0

>  <SCORE.SYSTEM>
0

>  <SCORE.SYSTEM.CONST>
0

>  <SCORE.SYSTEM.DIHEDRAL>
0

>  <SCORE.SYSTEM.SOLV>
0

>  <SCORE.SYSTEM.norm>
0

>  <SCORE.heavy>
26

>  <SCORE.norm>
-2.16519

>  <RMSD>
0.718

$$$$
ligand
 OpenBabel02271912153D
libRbt.so/2013.1/901 2013/11/27
 26 29  0  0  0  0  0  0  0  0999 V2000
  111.1711  -74.7198  -82.0049 C   0  0  1  0  0  0  0  0  0  0  0  0
  111.3440  -74.3556  -80.6772 N   0  0  0  0  0  0  0  0  0  0  0  0
  111.6997  -75.9873  -82.4870 C   0  0  0  0  0  0  0  0  0  0  0  0
  112.7398  -80.6482  -87.5214 N   0  0  0  0  0  0  0  0  0  0  0  0
  112.0088  -77.5135  -84.2827 O   0  0  0  0  0  0  0  0  0  0  0  0
  111.4466  -76.2060  -83.8425 C   0  0  2  0  0  0  0  0  0  0  0  0
  111.7821  -77.7001  -85.5244 C   0  0  1  0  0  0  0  0  0  0  0  0
  112.3579  -79.0037  -85.8540 C   0  0  0  0  0  0  0  0  0  0  0  0
  112.2025  -79.3815  -87.2348 C   0  0  2  0  0  0  0  0  0  0  0  0
  111.5587  -78.5522  -88.1863 C   0  0  0  0  0  0  0  0  0  0  0  0
  110.9996  -77.2722  -87.7927 C   0  0  0  0  0  0  0  0  0  0  0  0
  111.1310  -76.8797  -86.4110 C   0  0  2  0  0  0  0  0  0  0  0  0
  110.5083  -75.5428  -86.0837 C   0  0  1  0  0  0  0  0  0  0  0  0
  110.7716  -75.3588  -84.7144 C   0  0  2  0  0  0  0  0  0  0  0  0
  110.2410  -74.0910  -84.2083 C   0  0  0  0  0  0  0  0  0  0  0  0
  110.4890  -73.8407  -82.8233 C   0  0  0  0  0  0  0  0  0  0  0  0
  109.8555  -74.7649  -87.0210 C   0  0  0  0  0  0  0  0  0  0  0  0
  108.8129  -75.2041  -87.8698 C   0  0  0  0  0  0  0  0  0  0  0  0
  108.1311  -74.4284  -88.8090 C   0  0  0  0  0  0  0  0  0  0  0  0
  108.4816  -73.0257  -88.9741 C   0  0  0  0  0  0  0  0  0  0  0  0
  109.5348  -72.6208  -88.1192 C   0  0  0  0  0  0  0  0  0  0  0  0
  110.2478  -73.3635  -87.1680 C   0  0  0  0  0  0  0  0  0  0  0  0
  112.0002  -75.2316  -79.7107 C   0  0  0  0  0  0  0  0  0  0  0  0
  110.9230  -73.0823  -80.0549 C   0  0  0  0  0  0  0  0  0  0  0  0
  113.2728  -81.7117  -86.6409 C   0  0  0  0  0  0  0  0  0  0  0  0
  112.7942  -81.0627  -88.9678 C   0  0  0  0  0  0  0  0  0  0  0  0
  1  2  1  1  0  0  0
  1  3  1  0  0  0  0
  1 16  1  0  0  0  0
  2 23  1  0  0  0  0
  2 24  1  0  0  0  0
  4 25  1  0  0  0  0
  4 26  1  0  0  0  0
  5  6  1  0  0  0  0
  6  3  1  6  0  0  0
  6 14  1  0  0  0  0
  7  5  1  1  0  0  0
  7  8  1  0  0  0  0
  7 12  1  0  0  0  0
  8  9  1  0  0  0  0
  9  4  1  1  0  0  0
  9 10  1  0  0  0  0
 10 11  1  0  0  0  0
 12 11  1  6  0  0  0
 12 13  1  0  0  0  0
 13 14  1  0  0  0  0
 13 17  1  6  0  0  0
 14 15  1  6  0  0  0
 15 16  1  0  0  0  0
 17 18  1  0  0  0  0
 17 22  1  0  0  0  0
 18 19  1  0  0  0  0
 19 20  1  0  0  0  0
 20 21  1  0  0  0  0
 21 22  1  0  0  0  0
M  END
>  <CHROM.1>
-2.55955036,8.77019022,52.22608160,111.08829565,-76.30122000,-85.40770805
-1.85371083,1.05476206,-2.06298360

>  <Name>
ligand

>  <RI>
0

>  <Rbt.Current_Directory>
/home/itssahil/PROJECTS/Mol_Feturizer/Test_systems_manuscript/rnas/1f1t

>  <Rbt.Executable>
rbdock ($Id: //depot/dev/client3/rdock/2013.1/src/exe/rbdock.cxx#4 $)

>  <Rbt.Library>
libRbt.so (2013.1, Build901 2013/11/27)

>  <Rbt.Parameter_File>
/export/apps/rDock/src/rDock_2013.1_src/data/scripts/dock_solv.prm

>  <Rbt.Receptor>
prm/pocket_docking_7.prm

>  <SCORE>
-56.2844

>  <SCORE.INTER>
-56.4427

>  <SCORE.INTER.CONST>
1

>  <SCORE.INTER.POLAR>
0

>  <SCORE.INTER.ROT>
3

>  <SCORE.INTER.SOLV>
8.96227

>  <SCORE.INTER.VDW>
-46.2159

>  <SCORE.INTER.norm>
-2.17087

>  <SCORE.INTRA>
0.158274

>  <SCORE.INTRA.DIHEDRAL>
0.000248703

>  <SCORE.INTRA.DIHEDRAL.0>
3.60016

>  <SCORE.INTRA.POLAR>
0

>  <SCORE.INTRA.POLAR.0>
0

>  <SCORE.INTRA.REPUL>
0

>  <SCORE.INTRA.REPUL.0>
0

>  <SCORE.INTRA.SOLV>
2.64953e-05

>  <SCORE.INTRA.SOLV.lig_0>
-10.9882

>  <SCORE.INTRA.VDW>
0.158137

>  <SCORE.INTRA.VDW.0>
1.84442

>  <SCORE.INTRA.norm>
0.00608747

>  <SCORE.RESTR>
0

>  <SCORE.RESTR.CAVITY>
0

>  <SCORE.RESTR.norm>
0

>  <SCORE.SYSTEM>
0

>  <SCORE.SYSTEM.CONST>
0

>  <SCORE.SYSTEM.DIHEDRAL>
0

>  <SCORE.SYSTEM.SOLV>
0

>  <SCORE.SYSTEM.norm>
0

>  <SCORE.heavy>
26

>  <SCORE.norm>
-2.16479

>  <RMSD>
0.718

$$$$
ligand
 OpenBabel02271912153D
libRbt.so/2013.1/901 2013/11/27
 26 29  0  0  0  0  0  0  0  0999 V2000
  112.2191  -79.4236  -87.0984 C   0  0  1  0  0  0  0  0  0  0  0  0
  112.7190  -80.6565  -87.4923 N   0  0  0  0  0  0  0  0  0  0  0  0
  112.3460  -78.9953  -85.7131 C   0  0  0  0  0  0  0  0  0  0  0  0
  111.3487  -74.3689  -80.6384 N   0  0  0  0  0  0  0  0  0  0  0  0
  111.9481  -77.3478  -84.0466 O   0  0  0  0  0  0  0  0  0  0  0  0
  111.7922  -77.7356  -85.4766 C   0  0  2  0  0  0  0  0  0  0  0  0
  111.4302  -76.2007  -83.8375 C   0  0  1  0  0  0  0  0  0  0  0  0
  111.6431  -75.9079  -82.4203 C   0  0  0  0  0  0  0  0  0  0  0  0
  111.1090  -74.6395  -81.9965 C   0  0  2  0  0  0  0  0  0  0  0  0
  110.4275  -73.7643  -82.8781 C   0  0  0  0  0  0  0  0  0  0  0  0
  110.2573  -74.1099  -84.2772 C   0  0  0  0  0  0  0  0  0  0  0  0
  110.7971  -75.3694  -84.7271 C   0  0  2  0  0  0  0  0  0  0  0  0
  110.5904  -75.6433  -86.1982 C   0  0  1  0  0  0  0  0  0  0  0  0
  111.1664  -76.9098  -86.4039 C   0  0  2  0  0  0  0  0  0  0  0  0
  111.0549  -77.3557  -87.7945 C   0  0  0  0  0  0  0  0  0  0  0  0
  111.6115  -78.6442  -88.0635 C   0  0  0  0  0  0  0  0  0  0  0  0
  109.9516  -74.7599  -87.0476 C   0  0  0  0  0  0  0  0  0  0  0  0
  110.2782  -73.3930  -87.2074 C   0  0  0  0  0  0  0  0  0  0  0  0
  109.6558  -72.4913  -88.0725 C   0  0  0  0  0  0  0  0  0  0  0  0
  108.5607  -72.9440  -88.9172 C   0  0  0  0  0  0  0  0  0  0  0  0
  108.2513  -74.3121  -88.7254 C   0  0  0  0  0  0  0  0  0  0  0  0
  108.8446  -75.2496  -87.8687 C   0  0  0  0  0  0  0  0  0  0  0  0
  112.7365  -81.0766  -88.8907 C   0  0  0  0  0  0  0  0  0  0  0  0
  113.2957  -81.6922  -86.6089 C   0  0  0  0  0  0  0  0  0  0  0  0
  112.0105  -75.1638  -79.5799 C   0  0  0  0  0  0  0  0  0  0  0  0
  110.8868  -73.0373  -80.1089 C   0  0  0  0  0  0  0  0  0  0  0  0
  1  2  1  6  0  0  0
  1  3  1  0  0  0  0
  1 16  1  0  0  0  0
  2 23  1  0  0  0  0
  2 24  1  0  0  0  0
  4 25  1  0  0  0  0
  4 26  1  0  0  0  0
  5  6  1  0  0  0  0
  6  3  1  1  0  0  0
  6 14  1  0  0  0  0
  7  5  1  6  0  0  0
  7  8  1  0  0  0  0
  7 12  1  0  0  0  0
  8  9  1  0  0  0  0
  9  4  1  6  0  0  0
  9 10  1  0  0  0  0
 10 11  1  0  0  0  0
 12 11  1  1  0  0  0
 12 13  1  0  0  0  0
 13 14  1  0  0  0  0
 13 17  1  1  0  0  0
 14 15  1  1  0  0  0
 15 16  1  0  0  0  0
 17 18  1  0  0  0  0
 17 22  1  0  0  0  0
 18 19  1  0  0  0  0
 19 20  1  0  0  0  0
 20 21  1  0  0  0  0
 21 22  1  0  0  0  0
M  END
>  <CHROM.1>
-173.80658224,-1.88659008,52.67858158,111.10234545,-76.28540365,-85.37045469
-1.27105252,-1.07136029,1.08335975

>  <Name>
ligand

>  <RI>
0

>  <Rbt.Current_Directory>
/home/itssahil/PROJECTS/Mol_Feturizer/Test_systems_manuscript/rnas/1f1t

>  <Rbt.Executable>
rbdock ($Id: //depot/dev/client3/rdock/2013.1/src/exe/rbdock.cxx#4 $)

>  <Rbt.Library>
libRbt.so (2013.1, Build901 2013/11/27)

>  <Rbt.Parameter_File>
/export/apps/rDock/src/rDock_2013.1_src/data/scripts/dock_solv.prm

>  <Rbt.Receptor>
prm/pocket_docking_7.prm

>  <SCORE>
-56.3334

>  <SCORE.INTER>
-56.8104

>  <SCORE.INTER.CONST>
1

>  <SCORE.INTER.POLAR>
0

>  <SCORE.INTER.ROT>
3

>  <SCORE.INTER.SOLV>
8.97652

>  <SCORE.INTER.VDW>
-46.4657

>  <SCORE.INTER.norm>
-2.18501

>  <SCORE.INTRA>
0.47695

>  <SCORE.INTRA.DIHEDRAL>
0.000291849

>  <SCORE.INTRA.DIHEDRAL.0>
3.60016

>  <SCORE.INTRA.POLAR>
0

>  <SCORE.INTRA.POLAR.0>
0

>  <SCORE.INTRA.REPUL>
0

>  <SCORE.INTRA.REPUL.0>
0

>  <SCORE.INTRA.SOLV>
1.32653e-05

>  <SCORE.INTRA.SOLV.lig_0>
-10.9882

>  <SCORE.INTRA.VDW>
0.476797

>  <SCORE.INTRA.VDW.0>
1.84442

>  <SCORE.INTRA.norm>
0.0183442

>  <SCORE.RESTR>
0

>  <SCORE.RESTR.CAVITY>
0

>  <SCORE.RESTR.norm>
0

>  <SCORE.SYSTEM>
0

>  <SCORE.SYSTEM.CONST>
0

>  <SCORE.SYSTEM.DIHEDRAL>
0

>  <SCORE.SYSTEM.SOLV>
0

>  <SCORE.SYSTEM.norm>
0

>  <SCORE.heavy>
26

>  <SCORE.norm>
-2.16667

>  <RMSD>
0.718

$$$$
ligand
 OpenBabel02271912153D
libRbt.so/2013.1/901 2013/11/27
 26 29  0  0  0  0  0  0  0  0999 V2000
  111.1768  -74.7145  -82.0050 C   0  0  1  0  0  0  0  0  0  0  0  0
  111.3551  -74.3496  -80.6783 N   0  0  0  0  0  0  0  0  0  0  0  0
  111.7028  -75.9826  -82.4884 C   0  0  0  0  0  0  0  0  0  0  0  0
  112.7205  -80.6470  -87.5241 N   0  0  0  0  0  0  0  0  0  0  0  0
  112.0040  -77.5101  -84.2845 O   0  0  0  0  0  0  0  0  0  0  0  0
  111.4442  -76.2019  -83.8428 C   0  0  2  0  0  0  0  0  0  0  0  0
  111.7723  -77.6972  -85.5252 C   0  0  1  0  0  0  0  0  0  0  0  0
  112.3461  -79.0013  -85.8563 C   0  0  0  0  0  0  0  0  0  0  0  0
  112.1850  -79.3799  -87.2362 C   0  0  2  0  0  0  0  0  0  0  0  0
  111.5379  -78.5508  -88.1856 C   0  0  0  0  0  0  0  0  0  0  0  0
  110.9811  -77.2703  -87.7906 C   0  0  0  0  0  0  0  0  0  0  0  0
  111.1181  -76.8770  -86.4097 C   0  0  2  0  0  0  0  0  0  0  0  0
  110.4975  -75.5396  -86.0807 C   0  0  1  0  0  0  0  0  0  0  0  0
  110.7662  -75.3549  -84.7126 C   0  0  2  0  0  0  0  0  0  0  0  0
  110.2384  -74.0865  -84.2052 C   0  0  0  0  0  0  0  0  0  0  0  0
  110.4919  -73.8355  -82.8213 C   0  0  0  0  0  0  0  0  0  0  0  0
  109.8414  -74.7618  -87.0159 C   0  0  0  0  0  0  0  0  0  0  0  0
  108.8119  -75.2074  -87.8773 C   0  0  0  0  0  0  0  0  0  0  0  0
  108.1268  -74.4322  -88.8147 C   0  0  0  0  0  0  0  0  0  0  0  0
  108.4591  -73.0232  -88.9636 C   0  0  0  0  0  0  0  0  0  0  0  0
  109.4996  -72.6119  -88.0963 C   0  0  0  0  0  0  0  0  0  0  0  0
  110.2153  -73.3538  -87.1465 C   0  0  0  0  0  0  0  0  0  0  0  0
  112.0340  -75.2162  -79.7189 C   0  0  0  0  0  0  0  0  0  0  0  0
  110.9186  -73.0844  -80.0501 C   0  0  0  0  0  0  0  0  0  0  0  0
  113.2403  -81.7173  -86.6441 C   0  0  0  0  0  0  0  0  0  0  0  0
  112.7884  -81.0539  -88.9722 C   0  0  0  0  0  0  0  0  0  0  0  0
  1  2  1  1  0  0  0
  1  3  1  0  0  0  0
  1 16  1  0  0  0  0
  2 23  1  0  0  0  0
  2 24  1  0  0  0  0
  4 25  1  0  0  0  0
  4 26  1  0  0  0  0
  5  6  1  0  0  0  0
  6  3  1  6  0  0  0
  6 14  1  0  0  0  0
  7  5  1  1  0  0  0
  7  8  1  0  0  0  0
  7 12  1  0  0  0  0
  8  9  1  0  0  0  0
  9  4  1  1  0  0  0
  9 10  1  0  0  0  0
 10 11  1  0  0  0  0
 12 11  1  6  0  0  0
 12 13  1  0  0  0  0
 13 14  1  0  0  0  0
 13 17  1  6  0  0  0
 14 15  1  6  0  0  0
 15 16  1  0  0  0  0
 17 18  1  0  0  0  0
 17 22  1  0  0  0  0
 18 19  1  0  0  0  0
 19 20  1  0  0  0  0
 20 21  1  0  0  0  0
 21 22  1  0  0  0  0
M  END
>  <CHROM.1>
-1.53915396,9.67999176,51.00243227,111.07972175,-76.29780806,-85.40648310
-1.84665193,1.05308830,-2.06985229

>  <Name>
ligand

>  <RI>
0

>  <Rbt.Current_Directory>
/home/itssahil/PROJECTS/Mol_Feturizer/Test_systems_manuscript/rnas/1f1t

>  <Rbt.Executable>
rbdock ($Id: //depot/dev/client3/rdock/2013.1/src/exe/rbdock.cxx#4 $)

>  <Rbt.Library>
libRbt.so (2013.1, Build901 2013/11/27)

>  <Rbt.Parameter_File>
/export/apps/rDock/src/rDock_2013.1_src/data/scripts/dock_solv.prm

>  <Rbt.Receptor>
prm/pocket_docking_3.prm

>  <SCORE>
-56.2417

>  <SCORE.INTER>
-56.4232

>  <SCORE.INTER.CONST>
1

>  <SCORE.INTER.POLAR>
0

>  <SCORE.INTER.ROT>
3

>  <SCORE.INTER.SOLV>
8.92748

>  <SCORE.INTER.VDW>
-46.1913

>  <SCORE.INTER.norm>
-2.17012

>  <SCORE.INTRA>
0.181502

>  <SCORE.INTRA.DIHEDRAL>
0.000237756

>  <SCORE.INTRA.DIHEDRAL.0>
3.60016

>  <SCORE.INTRA.POLAR>
0

>  <SCORE.INTRA.POLAR.0>
0

>  <SCORE.INTRA.REPUL>
0

>  <SCORE.INTRA.REPUL.0>
0

>  <SCORE.INTRA.SOLV>
2.8773e-05

>  <SCORE.INTRA.SOLV.lig_0>
-10.9882

>  <SCORE.INTRA.VDW>
0.181368

>  <SCORE.INTRA.VDW.0>
1.84442

>  <SCORE.INTRA.norm>
0.00698083

>  <SCORE.RESTR>
0

>  <SCORE.RESTR.CAVITY>
0

>  <SCORE.RESTR.norm>
0

>  <SCORE.SYSTEM>
0

>  <SCORE.SYSTEM.CONST>
0

>  <SCORE.SYSTEM.DIHEDRAL>
0

>  <SCORE.SYSTEM.SOLV>
0

>  <SCORE.SYSTEM.norm>
0

>  <SCORE.heavy>
26

>  <SCORE.norm>
-2.16314

>  <RMSD>
0.719

$$$$
ligand
 OpenBabel02271912153D
libRbt.so/2013.1/901 2013/11/27
 26 29  0  0  0  0  0  0  0  0999 V2000
  111.2542  -74.7009  -81.9120 C   0  0  1  0  0  0  0  0  0  0  0  0
  111.4322  -74.3649  -80.5776 N   0  0  0  0  0  0  0  0  0  0  0  0
  111.7435  -75.9767  -82.4133 C   0  0  0  0  0  0  0  0  0  0  0  0
  112.6560  -80.5836  -87.5215 N   0  0  0  0  0  0  0  0  0  0  0  0
  112.0115  -77.4818  -84.2333 O   0  0  0  0  0  0  0  0  0  0  0  0
  111.4902  -76.1641  -83.7734 C   0  0  2  0  0  0  0  0  0  0  0  0
  111.7851  -77.6398  -85.4790 C   0  0  1  0  0  0  0  0  0  0  0  0
  112.3197  -78.9559  -85.8281 C   0  0  0  0  0  0  0  0  0  0  0  0
  112.1589  -79.3051  -87.2159 C   0  0  2  0  0  0  0  0  0  0  0  0
  111.5474  -78.4392  -88.1559 C   0  0  0  0  0  0  0  0  0  0  0  0
  111.0284  -77.1484  -87.7431 C   0  0  0  0  0  0  0  0  0  0  0  0
  111.1656  -76.7837  -86.3544 C   0  0  2  0  0  0  0  0  0  0  0  0
  110.5853  -75.4329  -86.0072 C   0  0  1  0  0  0  0  0  0  0  0  0
  110.8476  -75.2807  -84.6338 C   0  0  2  0  0  0  0  0  0  0  0  0
  110.3562  -74.0049  -84.1086 C   0  0  0  0  0  0  0  0  0  0  0  0
  110.6052  -73.7862  -82.7185 C   0  0  0  0  0  0  0  0  0  0  0  0
  109.9630  -74.6183  -86.9340 C   0  0  0  0  0  0  0  0  0  0  0  0
  110.3189  -73.2798  -87.2206 C   0  0  0  0  0  0  0  0  0  0  0  0
  109.7132  -72.4488  -88.1648 C   0  0  0  0  0  0  0  0  0  0  0  0
  108.6054  -72.9536  -88.9621 C   0  0  0  0  0  0  0  0  0  0  0  0
  108.2669  -74.2907  -88.6435 C   0  0  0  0  0  0  0  0  0  0  0  0
  108.8426  -75.1575  -87.7043 C   0  0  0  0  0  0  0  0  0  0  0  0
  110.9895  -73.0842  -80.0335 C   0  0  0  0  0  0  0  0  0  0  0  0
  112.0584  -75.2077  -79.5368 C   0  0  0  0  0  0  0  0  0  0  0  0
  113.2180  -81.6505  -86.6635 C   0  0  0  0  0  0  0  0  0  0  0  0
  112.6214  -81.0097  -88.9652 C   0  0  0  0  0  0  0  0  0  0  0  0
  1  2  1  1  0  0  0
  1  3  1  0  0  0  0
  1 16  1  0  0  0  0
  2 23  1  0  0  0  0
  2 24  1  0  0  0  0
  4 25  1  0  0  0  0
  4 26  1  0  0  0  0
  5  6  1  0  0  0  0
  6  3  1  6  0  0  0
  6 14  1  0  0  0  0
  7  5  1  1  0  0  0
  7  8  1  0  0  0  0
  7 12  1  0  0  0  0
  8  9  1  0  0  0  0
  9  4  1  1  0  0  0
  9 10  1  0  0  0  0
 10 11  1  0  0  0  0
 12 11  1  6  0  0  0
 12 13  1  0  0  0  0
 13 14  1  0  0  0  0
 13 17  1  6  0  0  0
 14 15  1  6  0  0  0
 15 16  1  0  0  0  0
 17 18  1  0  0  0  0
 17 22  1  0  0  0  0
 18 19  1  0  0  0  0
 19 20  1  0  0  0  0
 20 21  1  0  0  0  0
 21 22  1  0  0  0  0
M  END
>  <CHROM.1>
178.45309333,4.91706354,-124.47065330,111.12640459,-76.23425292,-85.35143729
-1.81380317,1.08027843,-2.06980877

>  <Name>
ligand

>  <RI>
0

>  <Rbt.Current_Directory>
/home/itssahil/PROJECTS/Mol_Feturizer/Test_systems_manuscript/rnas/1f1t

>  <Rbt.Executable>
rbdock ($Id: //depot/dev/client3/rdock/2013.1/src/exe/rbdock.cxx#4 $)

>  <Rbt.Library>
libRbt.so (2013.1, Build901 2013/11/27)

>  <Rbt.Parameter_File>
/export/apps/rDock/src/rDock_2013.1_src/data/scripts/dock_solv.prm

>  <Rbt.Receptor>
prm/pocket_docking_2.prm

>  <SCORE>
-56.1763

>  <SCORE.INTER>
-56.6762

>  <SCORE.INTER.CONST>
1

>  <SCORE.INTER.POLAR>
0

>  <SCORE.INTER.ROT>
3

>  <SCORE.INTER.SOLV>
9.02855

>  <SCORE.INTER.VDW>
-46.3937

>  <SCORE.INTER.norm>
-2.17985

>  <SCORE.INTRA>
0.499947

>  <SCORE.INTRA.DIHEDRAL>
-6.70957e-06

>  <SCORE.INTRA.DIHEDRAL.0>
3.60016

>  <SCORE.INTRA.POLAR>
0

>  <SCORE.INTRA.POLAR.0>
0

>  <SCORE.INTRA.REPUL>
0

>  <SCORE.INTRA.REPUL.0>
0

>  <SCORE.INTRA.SOLV>
9.17846e-06

>  <SCORE.INTRA.SOLV.lig_0>
-10.9882

>  <SCORE.INTRA.VDW>
0.499946

>  <SCORE.INTRA.VDW.0>
1.84442

>  <SCORE.INTRA.norm>
0.0192287

>  <SCORE.RESTR>
0

>  <SCORE.RESTR.CAVITY>
0

>  <SCORE.RESTR.norm>
0

>  <SCORE.SYSTEM>
0

>  <SCORE.SYSTEM.CONST>
0

>  <SCORE.SYSTEM.DIHEDRAL>
0

>  <SCORE.SYSTEM.SOLV>
0

>  <SCORE.SYSTEM.norm>
0

>  <SCORE.heavy>
26

>  <SCORE.norm>
-2.16063

>  <RMSD>
0.720

$$$$
ligand
 OpenBabel02271912153D
libRbt.so/2013.1/901 2013/11/27
 26 29  0  0  0  0  0  0  0  0999 V2000
  112.2141  -79.4303  -87.0957 C   0  0  1  0  0  0  0  0  0  0  0  0
  112.7120  -80.6644  -87.4884 N   0  0  0  0  0  0  0  0  0  0  0  0
  112.3416  -79.0009  -85.7109 C   0  0  0  0  0  0  0  0  0  0  0  0
  111.3514  -74.3679  -80.6408 N   0  0  0  0  0  0  0  0  0  0  0  0
  111.9463  -77.3511  -84.0460 O   0  0  0  0  0  0  0  0  0  0  0  0
  111.7898  -77.7401  -85.4757 C   0  0  2  0  0  0  0  0  0  0  0  0
  111.4302  -76.2029  -83.8381 C   0  0  1  0  0  0  0  0  0  0  0  0
  111.6435  -75.9091  -82.4212 C   0  0  0  0  0  0  0  0  0  0  0  0
  111.1114  -74.6395  -81.9987 C   0  0  2  0  0  0  0  0  0  0  0  0
  110.4314  -73.7640  -82.8812 C   0  0  0  0  0  0  0  0  0  0  0  0
  110.2607  -74.1107  -84.2799 C   0  0  0  0  0  0  0  0  0  0  0  0
  110.7986  -75.3715  -84.7286 C   0  0  2  0  0  0  0  0  0  0  0  0
  110.5915  -75.6465  -86.1995 C   0  0  1  0  0  0  0  0  0  0  0  0
  111.1654  -76.9142  -86.4038 C   0  0  2  0  0  0  0  0  0  0  0  0
  111.0533  -77.3613  -87.7940 C   0  0  0  0  0  0  0  0  0  0  0  0
  111.6079  -78.6509  -88.0617 C   0  0  0  0  0  0  0  0  0  0  0  0
  109.9542  -74.7629  -87.0498 C   0  0  0  0  0  0  0  0  0  0  0  0
  110.2789  -73.3952  -87.2061 C   0  0  0  0  0  0  0  0  0  0  0  0
  109.6580  -72.4932  -88.0720 C   0  0  0  0  0  0  0  0  0  0  0  0
  108.5669  -72.9466  -88.9215 C   0  0  0  0  0  0  0  0  0  0  0  0
  108.2594  -74.3155  -88.7331 C   0  0  0  0  0  0  0  0  0  0  0  0
  108.8512  -75.2533  -87.8758 C   0  0  0  0  0  0  0  0  0  0  0  0
  112.7442  -81.0792  -88.8882 C   0  0  0  0  0  0  0  0  0  0  0  0
  113.2723  -81.7067  -86.6022 C   0  0  0  0  0  0  0  0  0  0  0  0
  111.9830  -75.1759  -79.5737 C   0  0  0  0  0  0  0  0  0  0  0  0
  110.9269  -73.0198  -80.1219 C   0  0  0  0  0  0  0  0  0  0  0  0
  1  2  1  6  0  0  0
  1  3  1  0  0  0  0
  1 16  1  0  0  0  0
  2 23  1  0  0  0  0
  2 24  1  0  0  0  0
  4 25  1  0  0  0  0
  4 26  1  0  0  0  0
  5  6  1  0  0  0  0
  6  3  1  1  0  0  0
  6 14  1  0  0  0  0
  7  5  1  6  0  0  0
  7  8  1  0  0  0  0
  7 12  1  0  0  0  0
  8  9  1  0  0  0  0
  9  4  1  6  0  0  0
  9 10  1  0  0  0  0
 10 11  1  0  0  0  0
 12 11  1  1  0  0  0
 12 13  1  0  0  0  0
 13 14  1  0  0  0  0
 13 17  1  1  0  0  0
 14 15  1  1  0  0  0
 15 16  1  0  0  0  0
 17 18  1  0  0  0  0
 17 22  1  0  0  0  0
 18 19  1  0  0  0  0
 19 20  1  0  0  0  0
 20 21  1  0  0  0  0
 21 22  1  0  0  0  0
M  END
>  <CHROM.1>
-173.02929713,-3.57510139,52.35330600,111.10269338,-76.28852523,-85.37109820
-1.27264754,-1.07362661,1.08097356

>  <Name>
ligand

>  <RI>
0

>  <Rbt.Current_Directory>
/home/itssahil/PROJECTS/Mol_Feturizer/Test_systems_manuscript/rnas/1f1t

>  <Rbt.Executable>
rbdock ($Id: //depot/dev/client3/rdock/2013.1/src/exe/rbdock.cxx#4 $)

>  <Rbt.Library>
libRbt.so (2013.1, Build901 2013/11/27)

>  <Rbt.Parameter_File>
/export/apps/rDock/src/rDock_2013.1_src/data/scripts/dock_solv.prm

>  <Rbt.Receptor>
prm/pocket_docking_3.prm

>  <SCORE>
-56.3073

>  <SCORE.INTER>
-56.7724

>  <SCORE.INTER.CONST>
1

>  <SCORE.INTER.POLAR>
0

>  <SCORE.INTER.ROT>
3

>  <SCORE.INTER.SOLV>
8.94661

>  <SCORE.INTER.VDW>
-46.4305

>  <SCORE.INTER.norm>
-2.18355

>  <SCORE.INTRA>
0.465101

>  <SCORE.INTRA.DIHEDRAL>
0.000286738

>  <SCORE.INTRA.DIHEDRAL.0>
3.60016

>  <SCORE.INTRA.POLAR>
0

>  <SCORE.INTRA.POLAR.0>
0

>  <SCORE.INTRA.REPUL>
0

>  <SCORE.INTRA.REPUL.0>
0

>  <SCORE.INTRA.SOLV>
1.83427e-05

>  <SCORE.INTRA.SOLV.lig_0>
-10.9882

>  <SCORE.INTRA.VDW>
0.464949

>  <SCORE.INTRA.VDW.0>
1.84442

>  <SCORE.INTRA.norm>
0.0178885

>  <SCORE.RESTR>
0

>  <SCORE.RESTR.CAVITY>
0

>  <SCORE.RESTR.norm>
0

>  <SCORE.SYSTEM>
0

>  <SCORE.SYSTEM.CONST>
0

>  <SCORE.SYSTEM.DIHEDRAL>
0

>  <SCORE.SYSTEM.SOLV>
0

>  <SCORE.SYSTEM.norm>
0

>  <SCORE.heavy>
26

>  <SCORE.norm>
-2.16566

>  <RMSD>
0.720

$$$$
ligand
 OpenBabel02271912153D
libRbt.so/2013.1/901 2013/11/27
 26 29  0  0  0  0  0  0  0  0999 V2000
  111.2227  -74.6827  -82.0064 C   0  0  1  0  0  0  0  0  0  0  0  0
  111.4020  -74.3201  -80.6792 N   0  0  0  0  0  0  0  0  0  0  0  0
  111.7418  -75.9533  -82.4907 C   0  0  0  0  0  0  0  0  0  0  0  0
  112.7371  -80.6184  -87.5302 N   0  0  0  0  0  0  0  0  0  0  0  0
  112.0358  -77.4807  -84.2880 O   0  0  0  0  0  0  0  0  0  0  0  0
  111.4831  -76.1698  -83.8455 C   0  0  2  0  0  0  0  0  0  0  0  0
  111.8041  -77.6652  -85.5290 C   0  0  1  0  0  0  0  0  0  0  0  0
  112.3707  -78.9723  -85.8610 C   0  0  0  0  0  0  0  0  0  0  0  0
  112.2085  -79.3486  -87.2414 C   0  0  2  0  0  0  0  0  0  0  0  0
  111.5670  -78.5148  -88.1905 C   0  0  0  0  0  0  0  0  0  0  0  0
  111.0172  -77.2316  -87.7947 C   0  0  0  0  0  0  0  0  0  0  0  0
  111.1553  -76.8404  -86.4133 C   0  0  2  0  0  0  0  0  0  0  0  0
  110.5421  -75.4998  -86.0835 C   0  0  1  0  0  0  0  0  0  0  0  0
  110.8107  -75.3181  -84.7149 C   0  0  2  0  0  0  0  0  0  0  0  0
  110.2897  -74.0471  -84.2068 C   0  0  0  0  0  0  0  0  0  0  0  0
  110.5436  -73.7990  -82.8224 C   0  0  0  0  0  0  0  0  0  0  0  0
  109.8912  -74.7174  -87.0185 C   0  0  0  0  0  0  0  0  0  0  0  0
  110.2021  -73.3713  -87.3218 C   0  0  0  0  0  0  0  0  0  0  0  0
  109.5673  -72.5722  -88.2743 C   0  0  0  0  0  0  0  0  0  0  0  0
  108.4753  -73.1229  -89.0629 C   0  0  0  0  0  0  0  0  0  0  0  0
  108.1819  -74.4666  -88.7276 C   0  0  0  0  0  0  0  0  0  0  0  0
  108.7878  -75.3026  -87.7796 C   0  0  0  0  0  0  0  0  0  0  0  0
  112.0548  -75.2011  -79.7148 C   0  0  0  0  0  0  0  0  0  0  0  0
  110.9919  -73.0440  -80.0552 C   0  0  0  0  0  0  0  0  0  0  0  0
  112.9176  -81.3401  -88.8096 C   0  0  0  0  0  0  0  0  0  0  0  0
  113.2440  -81.4341  -86.3705 C   0  0  0  0  0  0  0  0  0  0  0  0
  1  2  1  1  0  0  0
  1  3  1  0  0  0  0
  1 16  1  0  0  0  0
  2 23  1  0  0  0  0
  2 24  1  0  0  0  0
  4 25  1  0  0  0  0
  4 26  1  0  0  0  0
  5  6  1  0  0  0  0
  6  3  1  6  0  0  0
  6 14  1  0  0  0  0
  7  5  1  1  0  0  0
  7  8  1  0  0  0  0
  7 12  1  0  0  0  0
  8  9  1  0  0  0  0
  9  4  1  1  0  0  0
  9 10  1  0  0  0  0
 10 11  1  0  0  0  0
 12 11  1  6  0  0  0
 12 13  1  0  0  0  0
 13 14  1  0  0  0  0
 13 17  1  6  0  0  0
 14 15  1  6  0  0  0
 15 16  1  0  0  0  0
 17 18  1  0  0  0  0
 17 22  1  0  0  0  0
 18 19  1  0  0  0  0
 19 20  1  0  0  0  0
 20 21  1  0  0  0  0
 21 22  1  0  0  0  0
M  END
>  <CHROM.1>
-2.60945465,-172.91139401,-125.03633428,111.11766977,-76.28121129,-85.39849429
-1.83487660,1.05399918,-2.07642995

>  <Name>
ligand

>  <RI>
0

>  <Rbt.Current_Directory>
/home/itssahil/PROJECTS/Mol_Feturizer/Test_systems_manuscript/rnas/1f1t

>  <Rbt.Executable>
rbdock ($Id: //depot/dev/client3/rdock/2013.1/src/exe/rbdock.cxx#4 $)

>  <Rbt.Library>
libRbt.so (2013.1, Build901 2013/11/27)

>  <Rbt.Parameter_File>
/export/apps/rDock/src/rDock_2013.1_src/data/scripts/dock_solv.prm

>  <Rbt.Receptor>
prm/pocket_docking_7.prm

>  <SCORE>
-53.6708

>  <SCORE.INTER>
-56.2007

>  <SCORE.INTER.CONST>
1

>  <SCORE.INTER.POLAR>
0

>  <SCORE.INTER.ROT>
3

>  <SCORE.INTER.SOLV>
9.06392

>  <SCORE.INTER.VDW>
-46.0884

>  <SCORE.INTER.norm>
-2.16156

>  <SCORE.INTRA>
2.52989

>  <SCORE.INTRA.DIHEDRAL>
-0.000590527

>  <SCORE.INTRA.DIHEDRAL.0>
3.60016

>  <SCORE.INTRA.POLAR>
0

>  <SCORE.INTRA.POLAR.0>
0

>  <SCORE.INTRA.REPUL>
0

>  <SCORE.INTRA.REPUL.0>
0

>  <SCORE.INTRA.SOLV>
-0.000987941

>  <SCORE.INTRA.SOLV.lig_0>
-10.9882

>  <SCORE.INTRA.VDW>
2.53068

>  <SCORE.INTRA.VDW.0>
1.84442

>  <SCORE.INTRA.norm>
0.0973035

>  <SCORE.RESTR>
0

>  <SCORE.RESTR.CAVITY>
0

>  <SCORE.RESTR.norm>
0

>  <SCORE.SYSTEM>
0

>  <SCORE.SYSTEM.CONST>
0

>  <SCORE.SYSTEM.DIHEDRAL>
0

>  <SCORE.SYSTEM.SOLV>
0

>  <SCORE.SYSTEM.norm>
0

>  <SCORE.heavy>
26

>  <SCORE.norm>
-2.06426

>  <RMSD>
0.720

$$$$
ligand
 OpenBabel02271912153D
libRbt.so/2013.1/901 2013/11/27
 26 29  0  0  0  0  0  0  0  0999 V2000
  111.1818  -74.7133  -82.0097 C   0  0  1  0  0  0  0  0  0  0  0  0
  111.3630  -74.3471  -80.6837 N   0  0  0  0  0  0  0  0  0  0  0  0
  111.7079  -75.9812  -82.4934 C   0  0  0  0  0  0  0  0  0  0  0  0
  112.7180  -80.6483  -87.5281 N   0  0  0  0  0  0  0  0  0  0  0  0
  112.0062  -77.5096  -84.2891 O   0  0  0  0  0  0  0  0  0  0  0  0
  111.4462  -76.2018  -83.8470 C   0  0  2  0  0  0  0  0  0  0  0  0
  111.7716  -77.6980  -85.5290 C   0  0  1  0  0  0  0  0  0  0  0  0
  112.3460  -79.0017  -85.8606 C   0  0  0  0  0  0  0  0  0  0  0  0
  112.1818  -79.3815  -87.2398 C   0  0  2  0  0  0  0  0  0  0  0  0
  111.5316  -78.5538  -88.1883 C   0  0  0  0  0  0  0  0  0  0  0  0
  110.9744  -77.2736  -87.7928 C   0  0  0  0  0  0  0  0  0  0  0  0
  111.1144  -76.8791  -86.4125 C   0  0  2  0  0  0  0  0  0  0  0  0
  110.4932  -75.5421  -86.0830 C   0  0  1  0  0  0  0  0  0  0  0  0
  110.7652  -75.3561  -84.7157 C   0  0  2  0  0  0  0  0  0  0  0  0
  110.2372  -74.0879  -84.2080 C   0  0  0  0  0  0  0  0  0  0  0  0
  110.4940  -73.8356  -82.8249 C   0  0  0  0  0  0  0  0  0  0  0  0
  109.8340  -74.7657  -87.0172 C   0  0  0  0  0  0  0  0  0  0  0  0
  108.8049  -75.2137  -87.8777 C   0  0  0  0  0  0  0  0  0  0  0  0
  108.1167  -74.4400  -88.8140 C   0  0  0  0  0  0  0  0  0  0  0  0
  108.4449  -73.0301  -88.9626 C   0  0  0  0  0  0  0  0  0  0  0  0
  109.4851  -72.6163  -88.0962 C   0  0  0  0  0  0  0  0  0  0  0  0
  110.2038  -73.3566  -87.1474 C   0  0  0  0  0  0  0  0  0  0  0  0
  112.0047  -75.2312  -79.7146 C   0  0  0  0  0  0  0  0  0  0  0  0
  110.9659  -73.0641  -80.0656 C   0  0  0  0  0  0  0  0  0  0  0  0
  113.2773  -81.7014  -86.6515 C   0  0  0  0  0  0  0  0  0  0  0  0
  112.7389  -81.0757  -88.9717 C   0  0  0  0  0  0  0  0  0  0  0  0
  1  2  1  1  0  0  0
  1  3  1  0  0  0  0
  1 16  1  0  0  0  0
  2 23  1  0  0  0  0
  2 24  1  0  0  0  0
  4 25  1  0  0  0  0
  4 26  1  0  0  0  0
  5  6  1  0  0  0  0
  6  3  1  6  0  0  0
  6 14  1  0  0  0  0
  7  5  1  1  0  0  0
  7  8  1  0  0  0  0
  7 12  1  0  0  0  0
  8  9  1  0  0  0  0
  9  4  1  1  0  0  0
  9 10  1  0  0  0  0
 10 11  1  0  0  0  0
 12 11  1  6  0  0  0
 12 13  1  0  0  0  0
 13 14  1  0  0  0  0
 13 17  1  6  0  0  0
 14 15  1  6  0  0  0
 15 16  1  0  0  0  0
 17 18  1  0  0  0  0
 17 22  1  0  0  0  0
 18 19  1  0  0  0  0
 19 20  1  0  0  0  0
 20 21  1  0  0  0  0
 21 22  1  0  0  0  0
M  END
>  <CHROM.1>
-3.66912411,7.62297411,50.85193238,111.07748875,-76.29940835,-85.40957977
-1.84200720,1.05134711,-2.07472780

>  <Name>
ligand

>  <RI>
0

>  <Rbt.Current_Directory>
/home/itssahil/PROJECTS/Mol_Feturizer/Test_systems_manuscript/rnas/1f1t

>  <Rbt.Executable>
rbdock ($Id: //depot/dev/client3/rdock/2013.1/src/exe/rbdock.cxx#4 $)

>  <Rbt.Library>
libRbt.so (2013.1, Build901 2013/11/27)

>  <Rbt.Parameter_File>
/export/apps/rDock/src/rDock_2013.1_src/data/scripts/dock_solv.prm

>  <Rbt.Receptor>
prm/pocket_docking_8.prm

>  <SCORE>
-56.2707

>  <SCORE.INTER>
-56.4737

>  <SCORE.INTER.CONST>
1

>  <SCORE.INTER.POLAR>
0

>  <SCORE.INTER.ROT>
3

>  <SCORE.INTER.SOLV>
8.94089

>  <SCORE.INTER.VDW>
-46.2294

>  <SCORE.INTER.norm>
-2.17206

>  <SCORE.INTRA>
0.20297

>  <SCORE.INTRA.DIHEDRAL>
0.000251224

>  <SCORE.INTRA.DIHEDRAL.0>
3.60016

>  <SCORE.INTRA.POLAR>
0

>  <SCORE.INTRA.POLAR.0>
0

>  <SCORE.INTRA.REPUL>
0

>  <SCORE.INTRA.REPUL.0>
0

>  <SCORE.INTRA.SOLV>
2.48304e-05

>  <SCORE.INTRA.SOLV.lig_0>
-10.9882

>  <SCORE.INTRA.VDW>
0.202832

>  <SCORE.INTRA.VDW.0>
1.84442

>  <SCORE.INTRA.norm>
0.00780653

>  <SCORE.RESTR>
0

>  <SCORE.RESTR.CAVITY>
0

>  <SCORE.RESTR.norm>
0

>  <SCORE.SYSTEM>
0

>  <SCORE.SYSTEM.CONST>
0

>  <SCORE.SYSTEM.DIHEDRAL>
0

>  <SCORE.SYSTEM.SOLV>
0

>  <SCORE.SYSTEM.norm>
0

>  <SCORE.heavy>
26

>  <SCORE.norm>
-2.16426

>  <RMSD>
0.720

$$$$
ligand
 OpenBabel02271912153D
libRbt.so/2013.1/901 2013/11/27
 26 29  0  0  0  0  0  0  0  0999 V2000
  112.2371  -79.4752  -87.1345 C   0  0  1  0  0  0  0  0  0  0  0  0
  112.7532  -80.7020  -87.5270 N   0  0  0  0  0  0  0  0  0  0  0  0
  112.3741  -79.0358  -85.7537 C   0  0  0  0  0  0  0  0  0  0  0  0
  111.3614  -74.3942  -80.6960 N   0  0  0  0  0  0  0  0  0  0  0  0
  111.9690  -77.3846  -84.0927 O   0  0  0  0  0  0  0  0  0  0  0  0
  111.8017  -77.7843  -85.5181 C   0  0  2  0  0  0  0  0  0  0  0  0
  111.4340  -76.2451  -83.8843 C   0  0  1  0  0  0  0  0  0  0  0  0
  111.6598  -75.9395  -82.4717 C   0  0  0  0  0  0  0  0  0  0  0  0
  111.1093  -74.6777  -82.0492 C   0  0  2  0  0  0  0  0  0  0  0  0
  110.4017  -73.8202  -82.9276 C   0  0  0  0  0  0  0  0  0  0  0  0
  110.2198  -74.1777  -84.3221 C   0  0  0  0  0  0  0  0  0  0  0  0
  110.7755  -75.4307  -84.7709 C   0  0  2  0  0  0  0  0  0  0  0  0
  110.5550  -75.7177  -86.2376 C   0  0  1  0  0  0  0  0  0  0  0  0
  111.1501  -76.9755  -86.4425 C   0  0  2  0  0  0  0  0  0  0  0  0
  111.0287  -77.4323  -87.8287 C   0  0  0  0  0  0  0  0  0  0  0  0
  111.6041  -78.7128  -88.0967 C   0  0  0  0  0  0  0  0  0  0  0  0
  109.8903  -74.8509  -87.0843 C   0  0  0  0  0  0  0  0  0  0  0  0
  108.8011  -75.1929  -87.9193 C   0  0  0  0  0  0  0  0  0  0  0  0
  108.1074  -74.3274  -88.7669 C   0  0  0  0  0  0  0  0  0  0  0  0
  108.4958  -72.9268  -88.8392 C   0  0  0  0  0  0  0  0  0  0  0  0
  109.5947  -72.6198  -88.0013 C   0  0  0  0  0  0  0  0  0  0  0  0
  110.3210  -73.4542  -87.1405 C   0  0  0  0  0  0  0  0  0  0  0  0
  112.8220  -81.1027  -88.9295 C   0  0  0  0  0  0  0  0  0  0  0  0
  113.2996  -81.7490  -86.6376 C   0  0  0  0  0  0  0  0  0  0  0  0
  111.9785  -75.2027  -79.6209 C   0  0  0  0  0  0  0  0  0  0  0  0
  110.9706  -73.0298  -80.1932 C   0  0  0  0  0  0  0  0  0  0  0  0
  1  2  1  6  0  0  0
  1  3  1  0  0  0  0
  1 16  1  0  0  0  0
  2 23  1  0  0  0  0
  2 24  1  0  0  0  0
  4 25  1  0  0  0  0
  4 26  1  0  0  0  0
  5  6  1  0  0  0  0
  6  3  1  1  0  0  0
  6 14  1  0  0  0  0
  7  5  1  6  0  0  0
  7  8  1  0  0  0  0
  7 12  1  0  0  0  0
  8  9  1  0  0  0  0
  9  4  1  6  0  0  0
  9 10  1  0  0  0  0
 10 11  1  0  0  0  0
 12 11  1  1  0  0  0
 12 13  1  0  0  0  0
 13 14  1  0  0  0  0
 13 17  1  1  0  0  0
 14 15  1  1  0  0  0
 15 16  1  0  0  0  0
 17 18  1  0  0  0  0
 17 22  1  0  0  0  0
 18 19  1  0  0  0  0
 19 20  1  0  0  0  0
 20 21  1  0  0  0  0
 21 22  1  0  0  0  0
M  END
>  <CHROM.1>
-170.64904590,-6.08203875,-127.42698760,111.09631734,-76.32955780,-85.40209240
-1.25903855,-1.05660934,1.07450252

>  <Name>
ligand

>  <RI>
0

>  <Rbt.Current_Directory>
/home/itssahil/PROJECTS/Mol_Feturizer/Test_systems_manuscript/rnas/1f1t

>  <Rbt.Executable>
rbdock ($Id: //depot/dev/client3/rdock/2013.1/src/exe/rbdock.cxx#4 $)

>  <Rbt.Library>
libRbt.so (2013.1, Build901 2013/11/27)

>  <Rbt.Parameter_File>
/export/apps/rDock/src/rDock_2013.1_src/data/scripts/dock_solv.prm

>  <Rbt.Receptor>
prm/pocket_docking_3.prm

>  <SCORE>
-55.8022

>  <SCORE.INTER>
-56.2839

>  <SCORE.INTER.CONST>
1

>  <SCORE.INTER.POLAR>
0

>  <SCORE.INTER.ROT>
3

>  <SCORE.INTER.SOLV>
8.88556

>  <SCORE.INTER.VDW>
-46.0844

>  <SCORE.INTER.norm>
-2.16476

>  <SCORE.INTRA>
0.481631

>  <SCORE.INTRA.DIHEDRAL>
-6.19991e-06

>  <SCORE.INTRA.DIHEDRAL.0>
3.60016

>  <SCORE.INTRA.POLAR>
0

>  <SCORE.INTRA.POLAR.0>
0

>  <SCORE.INTRA.REPUL>
0

>  <SCORE.INTRA.REPUL.0>
0

>  <SCORE.INTRA.SOLV>
3.86254e-05

>  <SCORE.INTRA.SOLV.lig_0>
-10.9882

>  <SCORE.INTRA.VDW>
0.481615

>  <SCORE.INTRA.VDW.0>
1.84442

>  <SCORE.INTRA.norm>
0.0185243

>  <SCORE.RESTR>
0

>  <SCORE.RESTR.CAVITY>
0

>  <SCORE.RESTR.norm>
0

>  <SCORE.SYSTEM>
0

>  <SCORE.SYSTEM.CONST>
0

>  <SCORE.SYSTEM.DIHEDRAL>
0

>  <SCORE.SYSTEM.SOLV>
0

>  <SCORE.SYSTEM.norm>
0

>  <SCORE.heavy>
26

>  <SCORE.norm>
-2.14624

>  <RMSD>
0.721

$$$$
ligand
 OpenBabel02271912153D
libRbt.so/2013.1/901 2013/11/27
 26 29  0  0  0  0  0  0  0  0999 V2000
  112.2124  -79.4336  -87.0928 C   0  0  1  0  0  0  0  0  0  0  0  0
  112.7091  -80.6687  -87.4839 N   0  0  0  0  0  0  0  0  0  0  0  0
  112.3413  -79.0019  -85.7088 C   0  0  0  0  0  0  0  0  0  0  0  0
  111.3584  -74.3598  -80.6457 N   0  0  0  0  0  0  0  0  0  0  0  0
  111.9485  -77.3491  -84.0464 O   0  0  0  0  0  0  0  0  0  0  0  0
  111.7906  -77.7404  -85.4752 C   0  0  2  0  0  0  0  0  0  0  0  0
  111.4333  -76.2003  -83.8400 C   0  0  1  0  0  0  0  0  0  0  0  0
  111.6480  -75.9042  -82.4237 C   0  0  0  0  0  0  0  0  0  0  0  0
  111.1171  -74.6335  -82.0029 C   0  0  2  0  0  0  0  0  0  0  0  0
  110.4370  -73.7591  -82.8863 C   0  0  0  0  0  0  0  0  0  0  0  0
  110.2649  -74.1080  -84.2843 C   0  0  0  0  0  0  0  0  0  0  0  0
  110.8015  -75.3699  -84.7313 C   0  0  2  0  0  0  0  0  0  0  0  0
  110.5931  -75.6472  -86.2016 C   0  0  1  0  0  0  0  0  0  0  0  0
  111.1660  -76.9156  -86.4043 C   0  0  2  0  0  0  0  0  0  0  0  0
  111.0525  -77.3650  -87.7936 C   0  0  0  0  0  0  0  0  0  0  0  0
  111.6059  -78.6554  -88.0596 C   0  0  0  0  0  0  0  0  0  0  0  0
  109.9557  -74.7646  -87.0528 C   0  0  0  0  0  0  0  0  0  0  0  0
  110.2801  -73.3970  -87.2105 C   0  0  0  0  0  0  0  0  0  0  0  0
  109.6591  -72.4960  -88.0775 C   0  0  0  0  0  0  0  0  0  0  0  0
  108.5682  -72.9505  -88.9266 C   0  0  0  0  0  0  0  0  0  0  0  0
  108.2609  -74.3193  -88.7367 C   0  0  0  0  0  0  0  0  0  0  0  0
  108.8528  -75.2561  -87.8784 C   0  0  0  0  0  0  0  0  0  0  0  0
  112.7090  -81.0996  -88.8791 C   0  0  0  0  0  0  0  0  0  0  0  0
  113.2993  -81.6967  -86.6002 C   0  0  0  0  0  0  0  0  0  0  0  0
  111.9940  -75.1648  -79.5788 C   0  0  0  0  0  0  0  0  0  0  0  0
  110.9306  -73.0124  -80.1275 C   0  0  0  0  0  0  0  0  0  0  0  0
  1  2  1  6  0  0  0
  1  3  1  0  0  0  0
  1 16  1  0  0  0  0
  2 23  1  0  0  0  0
  2 24  1  0  0  0  0
  4 25  1  0  0  0  0
  4 26  1  0  0  0  0
  5  6  1  0  0  0  0
  6  3  1  1  0  0  0
  6 14  1  0  0  0  0
  7  5  1  6  0  0  0
  7  8  1  0  0  0  0
  7 12  1  0  0  0  0
  8  9  1  0  0  0  0
  9  4  1  6  0  0  0
  9 10  1  0  0  0  0
 10 11  1  0  0  0  0
 12 11  1  1  0  0  0
 12 13  1  0  0  0  0
 13 14  1  0  0  0  0
 13 17  1  1  0  0  0
 14 15  1  1  0  0  0
 15 16  1  0  0  0  0
 17 18  1  0  0  0  0
 17 22  1  0  0  0  0
 18 19  1  0  0  0  0
 19 20  1  0  0  0  0
 20 21  1  0  0  0  0
 21 22  1  0  0  0  0
M  END
>  <CHROM.1>
-174.60910110,-3.35726393,52.27367130,111.10443740,-76.28822442,-85.37254202
-1.27550053,-1.07334486,1.07673141

>  <Name>
ligand

>  <RI>
0

>  <Rbt.Current_Directory>
/home/itssahil/PROJECTS/Mol_Feturizer/Test_systems_manuscript/rnas/1f1t

>  <Rbt.Executable>
rbdock ($Id: //depot/dev/client3/rdock/2013.1/src/exe/rbdock.cxx#4 $)

>  <Rbt.Library>
libRbt.so (2013.1, Build901 2013/11/27)

>  <Rbt.Parameter_File>
/export/apps/rDock/src/rDock_2013.1_src/data/scripts/dock_solv.prm

>  <Rbt.Receptor>
prm/pocket_docking_5.prm

>  <SCORE>
-56.3194

>  <SCORE.INTER>
-56.8097

>  <SCORE.INTER.CONST>
1

>  <SCORE.INTER.POLAR>
0

>  <SCORE.INTER.ROT>
3

>  <SCORE.INTER.SOLV>
8.96528

>  <SCORE.INTER.VDW>
-46.4615

>  <SCORE.INTER.norm>
-2.18499

>  <SCORE.INTRA>
0.490257

>  <SCORE.INTRA.DIHEDRAL>
0.000287292

>  <SCORE.INTRA.DIHEDRAL.0>
3.60016

>  <SCORE.INTRA.POLAR>
0

>  <SCORE.INTRA.POLAR.0>
0

>  <SCORE.INTRA.REPUL>
0

>  <SCORE.INTRA.REPUL.0>
0

>  <SCORE.INTRA.SOLV>
9.72361e-06

>  <SCORE.INTRA.SOLV.lig_0>
-10.9882

>  <SCORE.INTRA.VDW>
0.490108

>  <SCORE.INTRA.VDW.0>
1.84442

>  <SCORE.INTRA.norm>
0.018856

>  <SCORE.RESTR>
0

>  <SCORE.RESTR.CAVITY>
0

>  <SCORE.RESTR.norm>
0

>  <SCORE.SYSTEM>
0

>  <SCORE.SYSTEM.CONST>
0

>  <SCORE.SYSTEM.DIHEDRAL>
0

>  <SCORE.SYSTEM.SOLV>
0

>  <SCORE.SYSTEM.norm>
0

>  <SCORE.heavy>
26

>  <SCORE.norm>
-2.16613

>  <RMSD>
0.721

$$$$
ligand
 OpenBabel02271912153D
libRbt.so/2013.1/901 2013/11/27
 26 29  0  0  0  0  0  0  0  0999 V2000
  112.1986  -79.3932  -87.1062 C   0  0  1  0  0  0  0  0  0  0  0  0
  112.6931  -80.6268  -87.5047 N   0  0  0  0  0  0  0  0  0  0  0  0
  112.3310  -78.9688  -85.7203 C   0  0  0  0  0  0  0  0  0  0  0  0
  111.3641  -74.3518  -80.6313 N   0  0  0  0  0  0  0  0  0  0  0  0
  111.9435  -77.3242  -84.0486 O   0  0  0  0  0  0  0  0  0  0  0  0
  111.7822  -77.7079  -85.4791 C   0  0  2  0  0  0  0  0  0  0  0  0
  111.4301  -76.1758  -83.8352 C   0  0  1  0  0  0  0  0  0  0  0  0
  111.6481  -75.8873  -82.4178 C   0  0  0  0  0  0  0  0  0  0  0  0
  111.1196  -74.6182  -81.9894 C   0  0  2  0  0  0  0  0  0  0  0  0
  110.4386  -73.7385  -82.8668 C   0  0  0  0  0  0  0  0  0  0  0  0
  110.2631  -74.0800  -84.2662 C   0  0  0  0  0  0  0  0  0  0  0  0
  110.7974  -75.3402  -84.7208 C   0  0  2  0  0  0  0  0  0  0  0  0
  110.5854  -75.6096  -86.1920 C   0  0  1  0  0  0  0  0  0  0  0  0
  111.1565  -76.8776  -86.4025 C   0  0  2  0  0  0  0  0  0  0  0  0
  111.0395  -77.3197  -87.7938 C   0  0  0  0  0  0  0  0  0  0  0  0
  111.5909  -78.6094  -88.0677 C   0  0  0  0  0  0  0  0  0  0  0  0
  109.9472  -74.7219  -87.0374 C   0  0  0  0  0  0  0  0  0  0  0  0
  110.2908  -73.3608  -87.2095 C   0  0  0  0  0  0  0  0  0  0  0  0
  109.6690  -72.4551  -88.0709 C   0  0  0  0  0  0  0  0  0  0  0  0
  108.5558  -72.8969  -88.8975 C   0  0  0  0  0  0  0  0  0  0  0  0
  108.2299  -74.2593  -88.6936 C   0  0  0  0  0  0  0  0  0  0  0  0
  108.8219  -75.2004  -87.8400 C   0  0  0  0  0  0  0  0  0  0  0  0
  113.2615  -81.5793  -86.5550 C   0  0  0  0  0  0  0  0  0  0  0  0
  112.7169  -81.1585  -88.8841 C   0  0  0  0  0  0  0  0  0  0  0  0
  111.0722  -73.1667  -79.7942 C   0  0  0  0  0  0  0  0  0  0  0  0
  112.0252  -75.4373  -79.8240 C   0  0  0  0  0  0  0  0  0  0  0  0
  1  2  1  6  0  0  0
  1  3  1  0  0  0  0
  1 16  1  0  0  0  0
  2 23  1  0  0  0  0
  2 24  1  0  0  0  0
  4 25  1  0  0  0  0
  4 26  1  0  0  0  0
  5  6  1  0  0  0  0
  6  3  1  1  0  0  0
  6 14  1  0  0  0  0
  7  5  1  6  0  0  0
  7  8  1  0  0  0  0
  7 12  1  0  0  0  0
  8  9  1  0  0  0  0
  9  4  1  6  0  0  0
  9 10  1  0  0  0  0
 10 11  1  0  0  0  0
 12 11  1  1  0  0  0
 12 13  1  0  0  0  0
 13 14  1  0  0  0  0
 13 17  1  1  0  0  0
 14 15  1  1  0  0  0
 15 16  1  0  0  0  0
 17 18  1  0  0  0  0
 17 22  1  0  0  0  0
 18 19  1  0  0  0  0
 19 20  1  0  0  0  0
 20 21  1  0  0  0  0
 21 22  1  0  0  0  0
M  END
>  <CHROM.1>
4.82440667,176.45444210,53.68203254,111.10499268,-76.27640359,-85.36059555
-1.28900815,-1.07428302,1.07946298

>  <Name>
ligand

>  <RI>
0

>  <Rbt.Current_Directory>
/home/itssahil/PROJECTS/Mol_Feturizer/Test_systems_manuscript/rnas/1f1t

>  <Rbt.Executable>
rbdock ($Id: //depot/dev/client3/rdock/2013.1/src/exe/rbdock.cxx#4 $)

>  <Rbt.Library>
libRbt.so (2013.1, Build901 2013/11/27)

>  <Rbt.Parameter_File>
/export/apps/rDock/src/rDock_2013.1_src/data/scripts/dock_solv.prm

>  <Rbt.Receptor>
prm/pocket_docking_8.prm

>  <SCORE>
-53.9236

>  <SCORE.INTER>
-56.4466

>  <SCORE.INTER.CONST>
1

>  <SCORE.INTER.POLAR>
0

>  <SCORE.INTER.ROT>
3

>  <SCORE.INTER.SOLV>
9.03258

>  <SCORE.INTER.VDW>
-46.2419

>  <SCORE.INTER.norm>
-2.17102

>  <SCORE.INTRA>
2.52303

>  <SCORE.INTRA.DIHEDRAL>
-0.0003115

>  <SCORE.INTRA.DIHEDRAL.0>
3.60016

>  <SCORE.INTRA.POLAR>
0

>  <SCORE.INTRA.POLAR.0>
0

>  <SCORE.INTRA.REPUL>
0

>  <SCORE.INTRA.REPUL.0>
0

>  <SCORE.INTRA.SOLV>
-0.000980317

>  <SCORE.INTRA.SOLV.lig_0>
-10.9882

>  <SCORE.INTRA.VDW>
2.52368

>  <SCORE.INTRA.VDW.0>
1.84442

>  <SCORE.INTRA.norm>
0.0970396

>  <SCORE.RESTR>
0

>  <SCORE.RESTR.CAVITY>
0

>  <SCORE.RESTR.norm>
0

>  <SCORE.SYSTEM>
0

>  <SCORE.SYSTEM.CONST>
0

>  <SCORE.SYSTEM.DIHEDRAL>
0

>  <SCORE.SYSTEM.SOLV>
0

>  <SCORE.SYSTEM.norm>
0

>  <SCORE.heavy>
26

>  <SCORE.norm>
-2.07398

>  <RMSD>
0.721

$$$$
ligand
 OpenBabel02271912153D
libRbt.so/2013.1/901 2013/11/27
 26 29  0  0  0  0  0  0  0  0999 V2000
  111.1495  -74.7055  -82.0299 C   0  0  1  0  0  0  0  0  0  0  0  0
  111.3289  -74.3364  -80.7045 N   0  0  0  0  0  0  0  0  0  0  0  0
  111.6880  -75.9682  -82.5135 C   0  0  0  0  0  0  0  0  0  0  0  0
  112.7388  -80.6288  -87.5459 N   0  0  0  0  0  0  0  0  0  0  0  0
  111.9994  -77.4950  -84.3083 O   0  0  0  0  0  0  0  0  0  0  0  0
  111.4265  -76.1927  -83.8665 C   0  0  2  0  0  0  0  0  0  0  0  0
  111.7649  -77.6868  -85.5477 C   0  0  1  0  0  0  0  0  0  0  0  0
  112.3523  -78.9848  -85.8791 C   0  0  0  0  0  0  0  0  0  0  0  0
  112.1899  -79.3675  -87.2578 C   0  0  2  0  0  0  0  0  0  0  0  0
  111.5296  -78.5473  -88.2059 C   0  0  0  0  0  0  0  0  0  0  0  0
  110.9597  -77.2727  -87.8106 C   0  0  0  0  0  0  0  0  0  0  0  0
  111.0977  -76.8756  -86.4309 C   0  0  2  0  0  0  0  0  0  0  0  0
  110.4632  -75.5449  -86.1015 C   0  0  1  0  0  0  0  0  0  0  0  0
  110.7353  -75.3550  -84.7347 C   0  0  2  0  0  0  0  0  0  0  0  0
  110.1949  -74.0919  -84.2272 C   0  0  0  0  0  0  0  0  0  0  0  0
  110.4512  -73.8357  -82.8448 C   0  0  0  0  0  0  0  0  0  0  0  0
  109.7944  -74.7762  -87.0352 C   0  0  0  0  0  0  0  0  0  0  0  0
  108.7168  -75.2149  -87.8395 C   0  0  0  0  0  0  0  0  0  0  0  0
  108.0189  -74.4479  -88.7742 C   0  0  0  0  0  0  0  0  0  0  0  0
  108.3894  -73.0562  -88.9832 C   0  0  0  0  0  0  0  0  0  0  0  0
  109.4771  -72.6520  -88.1723 C   0  0  0  0  0  0  0  0  0  0  0  0
  110.2071  -73.3863  -87.2275 C   0  0  0  0  0  0  0  0  0  0  0  0
  111.9983  -75.2050  -79.7402 C   0  0  0  0  0  0  0  0  0  0  0  0
  110.9031  -73.0645  -80.0826 C   0  0  0  0  0  0  0  0  0  0  0  0
  112.9631  -81.3334  -88.8279 C   0  0  0  0  0  0  0  0  0  0  0  0
  113.2201  -81.4534  -86.3817 C   0  0  0  0  0  0  0  0  0  0  0  0
  1  2  1  1  0  0  0
  1  3  1  0  0  0  0
  1 16  1  0  0  0  0
  2 23  1  0  0  0  0
  2 24  1  0  0  0  0
  4 25  1  0  0  0  0
  4 26  1  0  0  0  0
  5  6  1  0  0  0  0
  6  3  1  6  0  0  0
  6 14  1  0  0  0  0
  7  5  1  1  0  0  0
  7  8  1  0  0  0  0
  7 12  1  0  0  0  0
  8  9  1  0  0  0  0
  9  4  1  1  0  0  0
  9 10  1  0  0  0  0
 10 11  1  0  0  0  0
 12 11  1  6  0  0  0
 12 13  1  0  0  0  0
 13 14  1  0  0  0  0
 13 17  1  6  0  0  0
 14 15  1  6  0  0  0
 15 16  1  0  0  0  0
 17 18  1  0  0  0  0
 17 22  1  0  0  0  0
 18 19  1  0  0  0  0
 19 20  1  0  0  0  0
 20 21  1  0  0  0  0
 21 22  1  0  0  0  0
M  END
>  <CHROM.1>
-2.78008874,-170.76412958,54.72565488,111.06193525,-76.29793318,-85.40843536
-1.86200825,1.04196219,-2.06880523

>  <Name>
ligand

>  <RI>
0

>  <Rbt.Current_Directory>
/home/itssahil/PROJECTS/Mol_Feturizer/Test_systems_manuscript/rnas/1f1t

>  <Rbt.Executable>
rbdock ($Id: //depot/dev/client3/rdock/2013.1/src/exe/rbdock.cxx#4 $)

>  <Rbt.Library>
libRbt.so (2013.1, Build901 2013/11/27)

>  <Rbt.Parameter_File>
/export/apps/rDock/src/rDock_2013.1_src/data/scripts/dock_solv.prm

>  <Rbt.Receptor>
prm/pocket_docking_2.prm

>  <SCORE>
-53.6548

>  <SCORE.INTER>
-56.0503

>  <SCORE.INTER.CONST>
1

>  <SCORE.INTER.POLAR>
0

>  <SCORE.INTER.ROT>
3

>  <SCORE.INTER.SOLV>
8.96293

>  <SCORE.INTER.VDW>
-45.9545

>  <SCORE.INTER.norm>
-2.15578

>  <SCORE.INTRA>
2.39545

>  <SCORE.INTRA.DIHEDRAL>
-0.000281129

>  <SCORE.INTRA.DIHEDRAL.0>
3.60016

>  <SCORE.INTRA.POLAR>
0

>  <SCORE.INTRA.POLAR.0>
0

>  <SCORE.INTRA.REPUL>
0

>  <SCORE.INTRA.REPUL.0>
0

>  <SCORE.INTRA.SOLV>
-0.000980234

>  <SCORE.INTRA.SOLV.lig_0>
-10.9882

>  <SCORE.INTRA.VDW>
2.39609

>  <SCORE.INTRA.VDW.0>
1.84442

>  <SCORE.INTRA.norm>
0.0921329

>  <SCORE.RESTR>
0

>  <SCORE.RESTR.CAVITY>
0

>  <SCORE.RESTR.norm>
0

>  <SCORE.SYSTEM>
0

>  <SCORE.SYSTEM.CONST>
0

>  <SCORE.SYSTEM.DIHEDRAL>
0

>  <SCORE.SYSTEM.SOLV>
0

>  <SCORE.SYSTEM.norm>
0

>  <SCORE.heavy>
26

>  <SCORE.norm>
-2.06365

>  <RMSD>
0.722

$$$$
ligand
 OpenBabel02271912153D
libRbt.so/2013.1/901 2013/11/27
 26 29  0  0  0  0  0  0  0  0999 V2000
  112.1977  -79.4228  -87.0818 C   0  0  1  0  0  0  0  0  0  0  0  0
  112.6882  -80.6605  -87.4725 N   0  0  0  0  0  0  0  0  0  0  0  0
  112.3295  -78.9911  -85.6981 C   0  0  0  0  0  0  0  0  0  0  0  0
  111.3723  -74.3416  -80.6369 N   0  0  0  0  0  0  0  0  0  0  0  0
  111.9457  -77.3355  -84.0364 O   0  0  0  0  0  0  0  0  0  0  0  0
  111.7851  -77.7267  -85.4649 C   0  0  2  0  0  0  0  0  0  0  0  0
  111.4363  -76.1840  -83.8303 C   0  0  1  0  0  0  0  0  0  0  0  0
  111.6532  -75.8883  -82.4142 C   0  0  0  0  0  0  0  0  0  0  0  0
  111.1288  -74.6148  -81.9938 C   0  0  2  0  0  0  0  0  0  0  0  0
  110.4524  -73.7375  -82.8773 C   0  0  0  0  0  0  0  0  0  0  0  0
  110.2778  -74.0863  -84.2750 C   0  0  0  0  0  0  0  0  0  0  0  0
  110.8080  -75.3511  -84.7216 C   0  0  2  0  0  0  0  0  0  0  0  0
  110.5973  -75.6281  -86.1916 C   0  0  1  0  0  0  0  0  0  0  0  0
  111.1640  -76.8994  -86.3940 C   0  0  2  0  0  0  0  0  0  0  0  0
  111.0474  -77.3489  -87.7830 C   0  0  0  0  0  0  0  0  0  0  0  0
  111.5944  -78.6422  -88.0487 C   0  0  0  0  0  0  0  0  0  0  0  0
  109.9637  -74.7428  -87.0430 C   0  0  0  0  0  0  0  0  0  0  0  0
  110.2620  -73.3657  -87.1655 C   0  0  0  0  0  0  0  0  0  0  0  0
  109.6447  -72.4615  -88.0317 C   0  0  0  0  0  0  0  0  0  0  0  0
  108.5873  -72.9225  -88.9189 C   0  0  0  0  0  0  0  0  0  0  0  0
  108.3054  -74.3011  -88.7637 C   0  0  0  0  0  0  0  0  0  0  0  0
  108.8946  -75.2417  -87.9076 C   0  0  0  0  0  0  0  0  0  0  0  0
  112.6572  -81.1044  -88.8633 C   0  0  0  0  0  0  0  0  0  0  0  0
  113.3006  -81.6790  -86.5930 C   0  0  0  0  0  0  0  0  0  0  0  0
  111.0926  -73.1469  -79.8094 C   0  0  0  0  0  0  0  0  0  0  0  0
  112.0170  -75.4293  -79.8196 C   0  0  0  0  0  0  0  0  0  0  0  0
  1  2  1  6  0  0  0
  1  3  1  0  0  0  0
  1 16  1  0  0  0  0
  2 23  1  0  0  0  0
  2 24  1  0  0  0  0
  4 25  1  0  0  0  0
  4 26  1  0  0  0  0
  5  6  1  0  0  0  0
  6  3  1  1  0  0  0
  6 14  1  0  0  0  0
  7  5  1  6  0  0  0
  7  8  1  0  0  0  0
  7 12  1  0  0  0  0
  8  9  1  0  0  0  0
  9  4  1  6  0  0  0
  9 10  1  0  0  0  0
 10 11  1  0  0  0  0
 12 11  1  1  0  0  0
 12 13  1  0  0  0  0
 13 14  1  0  0  0  0
 13 17  1  1  0  0  0
 14 15  1  1  0  0  0
 15 16  1  0  0  0  0
 17 18  1  0  0  0  0
 17 22  1  0  0  0  0
 18 19  1  0  0  0  0
 19 20  1  0  0  0  0
 20 21  1  0  0  0  0
 21 22  1  0  0  0  0
M  END
>  <CHROM.1>
-176.03233546,175.93296815,49.78836853,111.11332206,-76.29088685,-85.36008166
-1.29228137,-1.07813950,1.07328768

>  <Name>
ligand

>  <RI>
0

>  <Rbt.Current_Directory>
/home/itssahil/PROJECTS/Mol_Feturizer/Test_systems_manuscript/rnas/1f1t

>  <Rbt.Executable>
rbdock ($Id: //depot/dev/client3/rdock/2013.1/src/exe/rbdock.cxx#4 $)

>  <Rbt.Library>
libRbt.so (2013.1, Build901 2013/11/27)

>  <Rbt.Parameter_File>
/export/apps/rDock/src/rDock_2013.1_src/data/scripts/dock_solv.prm

>  <Rbt.Receptor>
prm/pocket_docking_2.prm

>  <SCORE>
-53.7035

>  <SCORE.INTER>
-56.6267

>  <SCORE.INTER.CONST>
1

>  <SCORE.INTER.POLAR>
0

>  <SCORE.INTER.ROT>
3

>  <SCORE.INTER.SOLV>
9.00578

>  <SCORE.INTER.VDW>
-46.3531

>  <SCORE.INTER.norm>
-2.17795

>  <SCORE.INTRA>
2.92323

>  <SCORE.INTRA.DIHEDRAL>
-0.00031015

>  <SCORE.INTRA.DIHEDRAL.0>
3.60016

>  <SCORE.INTRA.POLAR>
0

>  <SCORE.INTRA.POLAR.0>
0

>  <SCORE.INTRA.REPUL>
0

>  <SCORE.INTRA.REPUL.0>
0

>  <SCORE.INTRA.SOLV>
-0.00098178

>  <SCORE.INTRA.SOLV.lig_0>
-10.9882

>  <SCORE.INTRA.VDW>
2.92387

>  <SCORE.INTRA.VDW.0>
1.84442

>  <SCORE.INTRA.norm>
0.112432

>  <SCORE.RESTR>
0

>  <SCORE.RESTR.CAVITY>
0

>  <SCORE.RESTR.norm>
0

>  <SCORE.SYSTEM>
0

>  <SCORE.SYSTEM.CONST>
0

>  <SCORE.SYSTEM.DIHEDRAL>
0

>  <SCORE.SYSTEM.SOLV>
0

>  <SCORE.SYSTEM.norm>
0

>  <SCORE.heavy>
26

>  <SCORE.norm>
-2.06552

>  <RMSD>
0.722

$$$$
ligand
 OpenBabel02271912153D
libRbt.so/2013.1/901 2013/11/27
 26 29  0  0  0  0  0  0  0  0999 V2000
  112.2260  -79.4629  -87.1303 C   0  0  1  0  0  0  0  0  0  0  0  0
  112.7560  -80.6849  -87.5191 N   0  0  0  0  0  0  0  0  0  0  0  0
  112.3609  -79.0162  -85.7517 C   0  0  0  0  0  0  0  0  0  0  0  0
  111.3037  -74.3668  -80.7103 N   0  0  0  0  0  0  0  0  0  0  0  0
  111.9396  -77.3633  -84.0964 O   0  0  0  0  0  0  0  0  0  0  0  0
  111.7738  -77.7709  -85.5198 C   0  0  2  0  0  0  0  0  0  0  0  0
  111.3913  -76.2297  -83.8913 C   0  0  1  0  0  0  0  0  0  0  0  0
  111.6167  -75.9155  -82.4805 C   0  0  0  0  0  0  0  0  0  0  0  0
  111.0518  -74.6589  -82.0618 C   0  0  2  0  0  0  0  0  0  0  0  0
  110.3318  -73.8136  -82.9418 C   0  0  0  0  0  0  0  0  0  0  0  0
  110.1509  -74.1790  -84.3345 C   0  0  0  0  0  0  0  0  0  0  0  0
  110.7208  -75.4269  -84.7796 C   0  0  2  0  0  0  0  0  0  0  0  0
  110.5002  -75.7225  -86.2445 C   0  0  1  0  0  0  0  0  0  0  0  0
  111.1102  -76.9738  -86.4459 C   0  0  2  0  0  0  0  0  0  0  0  0
  110.9911  -77.4377  -87.8299 C   0  0  0  0  0  0  0  0  0  0  0  0
  111.5813  -78.7122  -88.0941 C   0  0  0  0  0  0  0  0  0  0  0  0
  109.8230  -74.8674  -87.0931 C   0  0  0  0  0  0  0  0  0  0  0  0
  108.7305  -75.2240  -87.9175 C   0  0  0  0  0  0  0  0  0  0  0  0
  108.0242  -74.3703  -88.7668 C   0  0  0  0  0  0  0  0  0  0  0  0
  108.4015  -72.9675  -88.8528 C   0  0  0  0  0  0  0  0  0  0  0  0
  109.5040  -72.6458  -88.0252 C   0  0  0  0  0  0  0  0  0  0  0  0
  110.2428  -73.4680  -87.1633 C   0  0  0  0  0  0  0  0  0  0  0  0
  113.2886  -81.6427  -86.5542 C   0  0  0  0  0  0  0  0  0  0  0  0
  112.8557  -81.1978  -88.9022 C   0  0  0  0  0  0  0  0  0  0  0  0
  111.9306  -75.1644  -79.6328 C   0  0  0  0  0  0  0  0  0  0  0  0
  110.9007  -73.0040  -80.2129 C   0  0  0  0  0  0  0  0  0  0  0  0
  1  2  1  6  0  0  0
  1  3  1  0  0  0  0
  1 16  1  0  0  0  0
  2 23  1  0  0  0  0
  2 24  1  0  0  0  0
  4 25  1  0  0  0  0
  4 26  1  0  0  0  0
  5  6  1  0  0  0  0
  6  3  1  1  0  0  0
  6 14  1  0  0  0  0
  7  5  1  6  0  0  0
  7  8  1  0  0  0  0
  7 12  1  0  0  0  0
  8  9  1  0  0  0  0
  9  4  1  6  0  0  0
  9 10  1  0  0  0  0
 10 11  1  0  0  0  0
 12 11  1  1  0  0  0
 12 13  1  0  0  0  0
 13 14  1  0  0  0  0
 13 17  1  1  0  0  0
 14 15  1  1  0  0  0
 15 16  1  0  0  0  0
 17 18  1  0  0  0  0
 17 22  1  0  0  0  0
 18 19  1  0  0  0  0
 19 20  1  0  0  0  0
 20 21  1  0  0  0  0
 21 22  1  0  0  0  0
M  END
>  <CHROM.1>
8.85540743,-6.23258067,-126.98918392,111.05112866,-76.32564458,-85.40384355
-1.25052200,-1.04528812,1.07566602

>  <Name>
ligand

>  <RI>
0

>  <Rbt.Current_Directory>
/home/itssahil/PROJECTS/Mol_Feturizer/Test_systems_manuscript/rnas/1f1t

>  <Rbt.Executable>
rbdock ($Id: //depot/dev/client3/rdock/2013.1/src/exe/rbdock.cxx#4 $)

>  <Rbt.Library>
libRbt.so (2013.1, Build901 2013/11/27)

>  <Rbt.Parameter_File>
/export/apps/rDock/src/rDock_2013.1_src/data/scripts/dock_solv.prm

>  <Rbt.Receptor>
prm/pocket_docking_3.prm

>  <SCORE>
-55.9516

>  <SCORE.INTER>
-56.1347

>  <SCORE.INTER.CONST>
1

>  <SCORE.INTER.POLAR>
0

>  <SCORE.INTER.ROT>
3

>  <SCORE.INTER.SOLV>
8.8978

>  <SCORE.INTER.VDW>
-45.9891

>  <SCORE.INTER.norm>
-2.15903

>  <SCORE.INTRA>
0.183111

>  <SCORE.INTRA.DIHEDRAL>
-2.05303e-05

>  <SCORE.INTRA.DIHEDRAL.0>
3.60016

>  <SCORE.INTRA.POLAR>
0

>  <SCORE.INTRA.POLAR.0>
0

>  <SCORE.INTRA.REPUL>
0

>  <SCORE.INTRA.REPUL.0>
0

>  <SCORE.INTRA.SOLV>
3.47813e-05

>  <SCORE.INTRA.SOLV.lig_0>
-10.9882

>  <SCORE.INTRA.VDW>
0.183104

>  <SCORE.INTRA.VDW.0>
1.84442

>  <SCORE.INTRA.norm>
0.00704272

>  <SCORE.RESTR>
0

>  <SCORE.RESTR.CAVITY>
0

>  <SCORE.RESTR.norm>
0

>  <SCORE.SYSTEM>
0

>  <SCORE.SYSTEM.CONST>
0

>  <SCORE.SYSTEM.DIHEDRAL>
0

>  <SCORE.SYSTEM.SOLV>
0

>  <SCORE.SYSTEM.norm>
0

>  <SCORE.heavy>
26

>  <SCORE.norm>
-2.15199

>  <RMSD>
0.722

$$$$
ligand
 OpenBabel02271912153D
libRbt.so/2013.1/901 2013/11/27
 26 29  0  0  0  0  0  0  0  0999 V2000
  111.2334  -74.7091  -81.9185 C   0  0  1  0  0  0  0  0  0  0  0  0
  111.4075  -74.3733  -80.5836 N   0  0  0  0  0  0  0  0  0  0  0  0
  111.7280  -75.9830  -82.4194 C   0  0  0  0  0  0  0  0  0  0  0  0
  112.6666  -80.5840  -87.5282 N   0  0  0  0  0  0  0  0  0  0  0  0
  112.0049  -77.4862  -84.2397 O   0  0  0  0  0  0  0  0  0  0  0  0
  111.4781  -76.1705  -83.7802 C   0  0  2  0  0  0  0  0  0  0  0  0
  111.7816  -77.6443  -85.4859 C   0  0  1  0  0  0  0  0  0  0  0  0
  112.3213  -78.9583  -85.8346 C   0  0  0  0  0  0  0  0  0  0  0  0
  112.1645  -79.3074  -87.2229 C   0  0  2  0  0  0  0  0  0  0  0  0
  111.5520  -78.4430  -88.1638 C   0  0  0  0  0  0  0  0  0  0  0  0
  111.0279  -77.1543  -87.7513 C   0  0  0  0  0  0  0  0  0  0  0  0
  111.1610  -76.7899  -86.3621 C   0  0  2  0  0  0  0  0  0  0  0  0
  110.5754  -75.4412  -86.0154 C   0  0  1  0  0  0  0  0  0  0  0  0
  110.8343  -75.2889  -84.6414 C   0  0  2  0  0  0  0  0  0  0  0  0
  110.3375  -74.0150  -84.1166 C   0  0  0  0  0  0  0  0  0  0  0  0
  110.5830  -73.7962  -82.7258 C   0  0  0  0  0  0  0  0  0  0  0  0
  109.9522  -74.6282  -86.9431 C   0  0  0  0  0  0  0  0  0  0  0  0
  110.2756  -73.2750  -87.1973 C   0  0  0  0  0  0  0  0  0  0  0  0
  109.6690  -72.4448  -88.1417 C   0  0  0  0  0  0  0  0  0  0  0  0
  108.5963  -72.9668  -88.9749 C   0  0  0  0  0  0  0  0  0  0  0  0
  108.2894  -74.3188  -88.6882 C   0  0  0  0  0  0  0  0  0  0  0  0
  108.8672  -75.1855  -87.7503 C   0  0  0  0  0  0  0  0  0  0  0  0
  110.9561  -73.0959  -80.0388 C   0  0  0  0  0  0  0  0  0  0  0  0
  112.0377  -75.2130  -79.5426 C   0  0  0  0  0  0  0  0  0  0  0  0
  113.2287  -81.6503  -86.6693 C   0  0  0  0  0  0  0  0  0  0  0  0
  112.6387  -81.0085  -88.9725 C   0  0  0  0  0  0  0  0  0  0  0  0
  1  2  1  1  0  0  0
  1  3  1  0  0  0  0
  1 16  1  0  0  0  0
  2 23  1  0  0  0  0
  2 24  1  0  0  0  0
  4 25  1  0  0  0  0
  4 26  1  0  0  0  0
  5  6  1  0  0  0  0
  6  3  1  6  0  0  0
  6 14  1  0  0  0  0
  7  5  1  1  0  0  0
  7  8  1  0  0  0  0
  7 12  1  0  0  0  0
  8  9  1  0  0  0  0
  9  4  1  1  0  0  0
  9 10  1  0  0  0  0
 10 11  1  0  0  0  0
 12 11  1  6  0  0  0
 12 13  1  0  0  0  0
 13 14  1  0  0  0  0
 13 17  1  6  0  0  0
 14 15  1  6  0  0  0
 15 16  1  0  0  0  0
 17 18  1  0  0  0  0
 17 22  1  0  0  0  0
 18 19  1  0  0  0  0
 19 20  1  0  0  0  0
 20 21  1  0  0  0  0
 21 22  1  0  0  0  0
M  END
>  <CHROM.1>
178.62809770,5.02063196,-126.66846739,111.11817710,-76.24105471,-85.35918324
-1.82083120,1.07850533,-2.06314181

>  <Name>
ligand

>  <RI>
0

>  <Rbt.Current_Directory>
/home/itssahil/PROJECTS/Mol_Feturizer/Test_systems_manuscript/rnas/1f1t

>  <Rbt.Executable>
rbdock ($Id: //depot/dev/client3/rdock/2013.1/src/exe/rbdock.cxx#4 $)

>  <Rbt.Library>
libRbt.so (2013.1, Build901 2013/11/27)

>  <Rbt.Parameter_File>
/export/apps/rDock/src/rDock_2013.1_src/data/scripts/dock_solv.prm

>  <Rbt.Receptor>
prm/pocket_docking_4.prm

>  <SCORE>
-56.1535

>  <SCORE.INTER>
-56.7176

>  <SCORE.INTER.CONST>
1

>  <SCORE.INTER.POLAR>
0

>  <SCORE.INTER.ROT>
3

>  <SCORE.INTER.SOLV>
9.02629

>  <SCORE.INTER.VDW>
-46.4205

>  <SCORE.INTER.norm>
-2.18145

>  <SCORE.INTRA>
0.564168

>  <SCORE.INTRA.DIHEDRAL>
-1.71513e-06

>  <SCORE.INTRA.DIHEDRAL.0>
3.60016

>  <SCORE.INTRA.POLAR>
0

>  <SCORE.INTRA.POLAR.0>
0

>  <SCORE.INTRA.REPUL>
0

>  <SCORE.INTRA.REPUL.0>
0

>  <SCORE.INTRA.SOLV>
9.21727e-06

>  <SCORE.INTRA.SOLV.lig_0>
-10.9882

>  <SCORE.INTRA.VDW>
0.564164

>  <SCORE.INTRA.VDW.0>
1.84442

>  <SCORE.INTRA.norm>
0.0216988

>  <SCORE.RESTR>
0

>  <SCORE.RESTR.CAVITY>
0

>  <SCORE.RESTR.norm>
0

>  <SCORE.SYSTEM>
0

>  <SCORE.SYSTEM.CONST>
0

>  <SCORE.SYSTEM.DIHEDRAL>
0

>  <SCORE.SYSTEM.SOLV>
0

>  <SCORE.SYSTEM.norm>
0

>  <SCORE.heavy>
26

>  <SCORE.norm>
-2.15975

>  <RMSD>
0.722

$$$$
ligand
 OpenBabel02271912153D
libRbt.so/2013.1/901 2013/11/27
 26 29  0  0  0  0  0  0  0  0999 V2000
  111.2875  -74.6410  -81.8955 C   0  0  1  0  0  0  0  0  0  0  0  0
  111.4706  -74.3023  -80.5625 N   0  0  0  0  0  0  0  0  0  0  0  0
  111.7846  -75.9131  -82.3986 C   0  0  0  0  0  0  0  0  0  0  0  0
  112.7058  -80.5169  -87.5081 N   0  0  0  0  0  0  0  0  0  0  0  0
  112.0546  -77.4175  -84.2189 O   0  0  0  0  0  0  0  0  0  0  0  0
  111.5248  -76.1039  -83.7570 C   0  0  2  0  0  0  0  0  0  0  0  0
  111.8221  -77.5787  -85.4630 C   0  0  1  0  0  0  0  0  0  0  0  0
  112.3658  -78.8904  -85.8142 C   0  0  0  0  0  0  0  0  0  0  0  0
  112.1996  -79.2423  -87.2006 C   0  0  2  0  0  0  0  0  0  0  0  0
  111.5751  -78.3825  -88.1378 C   0  0  0  0  0  0  0  0  0  0  0  0
  111.0477  -77.0959  -87.7230 C   0  0  0  0  0  0  0  0  0  0  0  0
  111.1901  -76.7287  -86.3355 C   0  0  2  0  0  0  0  0  0  0  0  0
  110.6004  -75.3826  -85.9860 C   0  0  1  0  0  0  0  0  0  0  0  0
  110.8695  -75.2269  -84.6143 C   0  0  2  0  0  0  0  0  0  0  0  0
  110.3704  -73.9548  -84.0873 C   0  0  0  0  0  0  0  0  0  0  0  0
  110.6259  -73.7327  -82.6989 C   0  0  0  0  0  0  0  0  0  0  0  0
  109.9656  -74.5741  -86.9098 C   0  0  0  0  0  0  0  0  0  0  0  0
  110.2909  -73.2245  -87.1803 C   0  0  0  0  0  0  0  0  0  0  0  0
  109.6725  -72.3991  -88.1212 C   0  0  0  0  0  0  0  0  0  0  0  0
  108.5837  -72.9229  -88.9323 C   0  0  0  0  0  0  0  0  0  0  0  0
  108.2755  -74.2710  -88.6296 C   0  0  0  0  0  0  0  0  0  0  0  0
  108.8648  -75.1328  -87.6944 C   0  0  0  0  0  0  0  0  0  0  0  0
  112.1389  -75.1944  -79.6193 C   0  0  0  0  0  0  0  0  0  0  0  0
  111.0500  -73.0433  -79.9115 C   0  0  0  0  0  0  0  0  0  0  0  0
  112.8496  -81.2329  -88.7953 C   0  0  0  0  0  0  0  0  0  0  0  0
  113.2274  -81.3458  -86.3645 C   0  0  0  0  0  0  0  0  0  0  0  0
  1  2  1  1  0  0  0
  1  3  1  0  0  0  0
  1 16  1  0  0  0  0
  2 23  1  0  0  0  0
  2 24  1  0  0  0  0
  4 25  1  0  0  0  0
  4 26  1  0  0  0  0
  5  6  1  0  0  0  0
  6  3  1  6  0  0  0
  6 14  1  0  0  0  0
  7  5  1  1  0  0  0
  7  8  1  0  0  0  0
  7 12  1  0  0  0  0
  8  9  1  0  0  0  0
  9  4  1  1  0  0  0
  9 10  1  0  0  0  0
 10 11  1  0  0  0  0
 12 11  1  6  0  0  0
 12 13  1  0  0  0  0
 13 14  1  0  0  0  0
 13 17  1  6  0  0  0
 14 15  1  6  0  0  0
 15 16  1  0  0  0  0
 17 18  1  0  0  0  0
 17 22  1  0  0  0  0
 18 19  1  0  0  0  0
 19 20  1  0  0  0  0
 20 21  1  0  0  0  0
 21 22  1  0  0  0  0
M  END
>  <CHROM.1>
-0.86160017,-174.39585508,-125.83499504,111.16085430,-76.18453897,-85.31232972
-1.81981396,1.06964308,-2.07414011

>  <Name>
ligand

>  <RI>
0

>  <Rbt.Current_Directory>
/home/itssahil/PROJECTS/Mol_Feturizer/Test_systems_manuscript/rnas/1f1t

>  <Rbt.Executable>
rbdock ($Id: //depot/dev/client3/rdock/2013.1/src/exe/rbdock.cxx#4 $)

>  <Rbt.Library>
libRbt.so (2013.1, Build901 2013/11/27)

>  <Rbt.Parameter_File>
/export/apps/rDock/src/rDock_2013.1_src/data/scripts/dock_solv.prm

>  <Rbt.Receptor>
prm/pocket_docking_4.prm

>  <SCORE>
-53.7529

>  <SCORE.INTER>
-56.3503

>  <SCORE.INTER.CONST>
1

>  <SCORE.INTER.POLAR>
0

>  <SCORE.INTER.ROT>
3

>  <SCORE.INTER.SOLV>
9.22401

>  <SCORE.INTER.VDW>
-46.2415

>  <SCORE.INTER.norm>
-2.16732

>  <SCORE.INTRA>
2.59747

>  <SCORE.INTRA.DIHEDRAL>
-0.000596119

>  <SCORE.INTRA.DIHEDRAL.0>
3.60016

>  <SCORE.INTRA.POLAR>
0

>  <SCORE.INTRA.POLAR.0>
0

>  <SCORE.INTRA.REPUL>
0

>  <SCORE.INTRA.REPUL.0>
0

>  <SCORE.INTRA.SOLV>
-0.000994692

>  <SCORE.INTRA.SOLV.lig_0>
-10.9882

>  <SCORE.INTRA.VDW>
2.59826

>  <SCORE.INTRA.VDW.0>
1.84442

>  <SCORE.INTRA.norm>
0.0999025

>  <SCORE.RESTR>
0

>  <SCORE.RESTR.CAVITY>
0

>  <SCORE.RESTR.norm>
0

>  <SCORE.SYSTEM>
0

>  <SCORE.SYSTEM.CONST>
0

>  <SCORE.SYSTEM.DIHEDRAL>
0

>  <SCORE.SYSTEM.SOLV>
0

>  <SCORE.SYSTEM.norm>
0

>  <SCORE.heavy>
26

>  <SCORE.norm>
-2.06742

>  <RMSD>
0.722

$$$$
ligand
 OpenBabel02271912153D
libRbt.so/2013.1/901 2013/11/27
 26 29  0  0  0  0  0  0  0  0999 V2000
  112.2191  -79.4567  -87.1019 C   0  0  1  0  0  0  0  0  0  0  0  0
  112.7429  -80.6839  -87.4823 N   0  0  0  0  0  0  0  0  0  0  0  0
  112.3586  -79.0001  -85.7270 C   0  0  0  0  0  0  0  0  0  0  0  0
  111.3316  -74.3075  -80.7194 N   0  0  0  0  0  0  0  0  0  0  0  0
  111.9478  -77.3327  -84.0836 O   0  0  0  0  0  0  0  0  0  0  0  0
  111.7776  -77.7503  -85.5035 C   0  0  2  0  0  0  0  0  0  0  0  0
  111.4049  -76.1950  -83.8862 C   0  0  1  0  0  0  0  0  0  0  0  0
  111.6343  -75.8712  -82.4783 C   0  0  0  0  0  0  0  0  0  0  0  0
  111.0759  -74.6088  -82.0681 C   0  0  2  0  0  0  0  0  0  0  0  0
  110.3580  -73.7670  -82.9533 C   0  0  0  0  0  0  0  0  0  0  0  0
  110.1729  -74.1423  -84.3428 C   0  0  0  0  0  0  0  0  0  0  0  0
  110.7364  -75.3961  -84.7794 C   0  0  2  0  0  0  0  0  0  0  0  0
  110.5118  -75.7019  -86.2416 C   0  0  1  0  0  0  0  0  0  0  0  0
  111.1157  -76.9574  -86.4345 C   0  0  2  0  0  0  0  0  0  0  0  0
  110.9920  -77.4314  -87.8147 C   0  0  0  0  0  0  0  0  0  0  0  0
  111.5761  -78.7104  -88.0702 C   0  0  0  0  0  0  0  0  0  0  0  0
  109.8369  -74.8503  -87.0955 C   0  0  0  0  0  0  0  0  0  0  0  0
  108.7367  -75.2065  -87.9098 C   0  0  0  0  0  0  0  0  0  0  0  0
  108.0326  -74.3561  -88.7642 C   0  0  0  0  0  0  0  0  0  0  0  0
  108.4210  -72.9574  -88.8673 C   0  0  0  0  0  0  0  0  0  0  0  0
  109.5309  -72.6361  -88.0495 C   0  0  0  0  0  0  0  0  0  0  0  0
  110.2678  -73.4553  -87.1830 C   0  0  0  0  0  0  0  0  0  0  0  0
  112.8141  -81.0982  -88.8807 C   0  0  0  0  0  0  0  0  0  0  0  0
  113.2962  -81.7185  -86.5827 C   0  0  0  0  0  0  0  0  0  0  0  0
  111.0705  -73.0913  -79.9175 C   0  0  0  0  0  0  0  0  0  0  0  0
  111.9703  -75.3834  -79.8818 C   0  0  0  0  0  0  0  0  0  0  0  0
  1  2  1  6  0  0  0
  1  3  1  0  0  0  0
  1 16  1  0  0  0  0
  2 23  1  0  0  0  0
  2 24  1  0  0  0  0
  4 25  1  0  0  0  0
  4 26  1  0  0  0  0
  5  6  1  0  0  0  0
  6  3  1  1  0  0  0
  6 14  1  0  0  0  0
  7  5  1  6  0  0  0
  7  8  1  0  0  0  0
  7 12  1  0  0  0  0
  8  9  1  0  0  0  0
  9  4  1  6  0  0  0
  9 10  1  0  0  0  0
 10 11  1  0  0  0  0
 12 11  1  1  0  0  0
 12 13  1  0  0  0  0
 13 14  1  0  0  0  0
 13 17  1  1  0  0  0
 14 15  1  1  0  0  0
 15 16  1  0  0  0  0
 17 18  1  0  0  0  0
 17 22  1  0  0  0  0
 18 19  1  0  0  0  0
 19 20  1  0  0  0  0
 20 21  1  0  0  0  0
 21 22  1  0  0  0  0
M  END
>  <CHROM.1>
-170.38135272,173.38457131,-126.63139100,111.06826800,-76.31950457,-85.39833778
-1.26738265,-1.04889144,1.06680461

>  <Name>
ligand

>  <RI>
0

>  <Rbt.Current_Directory>
/home/itssahil/PROJECTS/Mol_Feturizer/Test_systems_manuscript/rnas/1f1t

>  <Rbt.Executable>
rbdock ($Id: //depot/dev/client3/rdock/2013.1/src/exe/rbdock.cxx#4 $)

>  <Rbt.Library>
libRbt.so (2013.1, Build901 2013/11/27)

>  <Rbt.Parameter_File>
/export/apps/rDock/src/rDock_2013.1_src/data/scripts/dock_solv.prm

>  <Rbt.Receptor>
prm/pocket_docking_4.prm

>  <SCORE>
-53.2827

>  <SCORE.INTER>
-56.0338

>  <SCORE.INTER.CONST>
1

>  <SCORE.INTER.POLAR>
0

>  <SCORE.INTER.ROT>
3

>  <SCORE.INTER.SOLV>
8.91563

>  <SCORE.INTER.VDW>
-45.9277

>  <SCORE.INTER.norm>
-2.15515

>  <SCORE.INTRA>
2.75112

>  <SCORE.INTRA.DIHEDRAL>
-0.000574723

>  <SCORE.INTRA.DIHEDRAL.0>
3.60016

>  <SCORE.INTRA.POLAR>
0

>  <SCORE.INTRA.POLAR.0>
0

>  <SCORE.INTRA.REPUL>
0

>  <SCORE.INTRA.REPUL.0>
0

>  <SCORE.INTRA.SOLV>
-0.000937674

>  <SCORE.INTRA.SOLV.lig_0>
-10.9882

>  <SCORE.INTRA.VDW>
2.75187

>  <SCORE.INTRA.VDW.0>
1.84442

>  <SCORE.INTRA.norm>
0.105812

>  <SCORE.RESTR>
0

>  <SCORE.RESTR.CAVITY>
0

>  <SCORE.RESTR.norm>
0

>  <SCORE.SYSTEM>
0

>  <SCORE.SYSTEM.CONST>
0

>  <SCORE.SYSTEM.DIHEDRAL>
0

>  <SCORE.SYSTEM.SOLV>
0

>  <SCORE.SYSTEM.norm>
0

>  <SCORE.heavy>
26

>  <SCORE.norm>
-2.04933

>  <RMSD>
0.722

$$$$
ligand
 OpenBabel02271912153D
libRbt.so/2013.1/901 2013/11/27
 26 29  0  0  0  0  0  0  0  0999 V2000
  112.2258  -79.4191  -87.1170 C   0  0  1  0  0  0  0  0  0  0  0  0
  112.7273  -80.6503  -87.5144 N   0  0  0  0  0  0  0  0  0  0  0  0
  112.3517  -78.9947  -85.7305 C   0  0  0  0  0  0  0  0  0  0  0  0
  111.3469  -74.3843  -80.6427 N   0  0  0  0  0  0  0  0  0  0  0  0
  111.9512  -77.3526  -84.0593 O   0  0  0  0  0  0  0  0  0  0  0  0
  111.7963  -77.7363  -85.4905 C   0  0  2  0  0  0  0  0  0  0  0  0
  111.4319  -76.2066  -83.8471 C   0  0  1  0  0  0  0  0  0  0  0  0
  111.6438  -75.9177  -82.4289 C   0  0  0  0  0  0  0  0  0  0  0  0
  111.1081  -74.6512  -82.0017 C   0  0  2  0  0  0  0  0  0  0  0  0
  110.4260  -73.7742  -82.8810 C   0  0  0  0  0  0  0  0  0  0  0  0
  110.2568  -74.1159  -84.2812 C   0  0  0  0  0  0  0  0  0  0  0  0
  110.7983  -75.3735  -84.7345 C   0  0  2  0  0  0  0  0  0  0  0  0
  110.5925  -75.6432  -86.2066 C   0  0  1  0  0  0  0  0  0  0  0  0
  111.1700  -76.9085  -86.4157 C   0  0  2  0  0  0  0  0  0  0  0  0
  111.0596  -77.3505  -87.8076 C   0  0  0  0  0  0  0  0  0  0  0  0
  111.6178  -78.6376  -88.0802 C   0  0  0  0  0  0  0  0  0  0  0  0
  109.9530  -74.7581  -87.0537 C   0  0  0  0  0  0  0  0  0  0  0  0
  110.2875  -73.3939  -87.2200 C   0  0  0  0  0  0  0  0  0  0  0  0
  109.6645  -72.4906  -88.0830 C   0  0  0  0  0  0  0  0  0  0  0  0
  108.5599  -72.9385  -88.9179 C   0  0  0  0  0  0  0  0  0  0  0  0
  108.2430  -74.3039  -88.7197 C   0  0  0  0  0  0  0  0  0  0  0  0
  108.8366  -75.2428  -87.8648 C   0  0  0  0  0  0  0  0  0  0  0  0
  113.2532  -81.6200  -86.5577 C   0  0  0  0  0  0  0  0  0  0  0  0
  112.7999  -81.1624  -88.8994 C   0  0  0  0  0  0  0  0  0  0  0  0
  111.9896  -75.1905  -79.5810 C   0  0  0  0  0  0  0  0  0  0  0  0
  110.9071  -73.0442  -80.1157 C   0  0  0  0  0  0  0  0  0  0  0  0
  1  2  1  6  0  0  0
  1  3  1  0  0  0  0
  1 16  1  0  0  0  0
  2 23  1  0  0  0  0
  2 24  1  0  0  0  0
  4 25  1  0  0  0  0
  4 26  1  0  0  0  0
  5  6  1  0  0  0  0
  6  3  1  1  0  0  0
  6 14  1  0  0  0  0
  7  5  1  6  0  0  0
  7  8  1  0  0  0  0
  7 12  1  0  0  0  0
  8  9  1  0  0  0  0
  9  4  1  6  0  0  0
  9 10  1  0  0  0  0
 10 11  1  0  0  0  0
 12 11  1  1  0  0  0
 12 13  1  0  0  0  0
 13 14  1  0  0  0  0
 13 17  1  1  0  0  0
 14 15  1  1  0  0  0
 15 16  1  0  0  0  0
 17 18  1  0  0  0  0
 17 22  1  0  0  0  0
 18 19  1  0  0  0  0
 19 20  1  0  0  0  0
 20 21  1  0  0  0  0
 21 22  1  0  0  0  0
M  END
>  <CHROM.1>
7.04640099,-3.03262072,53.40399672,111.10498430,-76.28843048,-85.37631183
-1.26761968,-1.07167238,1.08711628

>  <Name>
ligand

>  <RI>
0

>  <Rbt.Current_Directory>
/home/itssahil/PROJECTS/Mol_Feturizer/Test_systems_manuscript/rnas/1f1t

>  <Rbt.Executable>
rbdock ($Id: //depot/dev/client3/rdock/2013.1/src/exe/rbdock.cxx#4 $)

>  <Rbt.Library>
libRbt.so (2013.1, Build901 2013/11/27)

>  <Rbt.Parameter_File>
/export/apps/rDock/src/rDock_2013.1_src/data/scripts/dock_solv.prm

>  <Rbt.Receptor>
prm/pocket_docking_5.prm

>  <SCORE>
-56.5133

>  <SCORE.INTER>
-56.6585

>  <SCORE.INTER.CONST>
1

>  <SCORE.INTER.POLAR>
0

>  <SCORE.INTER.ROT>
3

>  <SCORE.INTER.SOLV>
8.9832

>  <SCORE.INTER.VDW>
-46.3667

>  <SCORE.INTER.norm>
-2.17917

>  <SCORE.INTRA>
0.14518

>  <SCORE.INTRA.DIHEDRAL>
0.000278695

>  <SCORE.INTRA.DIHEDRAL.0>
3.60016

>  <SCORE.INTRA.POLAR>
0

>  <SCORE.INTRA.POLAR.0>
0

>  <SCORE.INTRA.REPUL>
0

>  <SCORE.INTRA.REPUL.0>
0

>  <SCORE.INTRA.SOLV>
1.83746e-05

>  <SCORE.INTRA.SOLV.lig_0>
-10.9882

>  <SCORE.INTRA.VDW>
0.145032

>  <SCORE.INTRA.VDW.0>
1.84442

>  <SCORE.INTRA.norm>
0.00558386

>  <SCORE.RESTR>
0

>  <SCORE.RESTR.CAVITY>
0

>  <SCORE.RESTR.norm>
0

>  <SCORE.SYSTEM>
0

>  <SCORE.SYSTEM.CONST>
0

>  <SCORE.SYSTEM.DIHEDRAL>
0

>  <SCORE.SYSTEM.SOLV>
0

>  <SCORE.SYSTEM.norm>
0

>  <SCORE.heavy>
26

>  <SCORE.norm>
-2.17359

>  <RMSD>
0.722

$$$$
ligand
 OpenBabel02271912153D
libRbt.so/2013.1/901 2013/11/27
 26 29  0  0  0  0  0  0  0  0999 V2000
  112.2055  -79.4415  -87.0825 C   0  0  1  0  0  0  0  0  0  0  0  0
  112.6988  -80.6796  -87.4684 N   0  0  0  0  0  0  0  0  0  0  0  0
  112.3334  -79.0055  -85.6997 C   0  0  0  0  0  0  0  0  0  0  0  0
  111.3569  -74.3429  -80.6543 N   0  0  0  0  0  0  0  0  0  0  0  0
  111.9431  -77.3458  -84.0437 O   0  0  0  0  0  0  0  0  0  0  0  0
  111.7865  -77.7413  -85.4715 C   0  0  2  0  0  0  0  0  0  0  0  0
  111.4315  -76.1944  -83.8422 C   0  0  1  0  0  0  0  0  0  0  0  0
  111.6445  -75.8943  -82.4264 C   0  0  0  0  0  0  0  0  0  0  0  0
  111.1172  -74.6203  -82.0110 C   0  0  2  0  0  0  0  0  0  0  0  0
  110.4417  -73.7466  -82.8986 C   0  0  0  0  0  0  0  0  0  0  0  0
  110.2710  -74.0997  -84.2958 C   0  0  0  0  0  0  0  0  0  0  0  0
  110.8042  -75.3650  -84.7374 C   0  0  2  0  0  0  0  0  0  0  0  0
  110.5975  -75.6465  -86.2071 C   0  0  1  0  0  0  0  0  0  0  0  0
  111.1664  -76.9176  -86.4045 C   0  0  2  0  0  0  0  0  0  0  0  0
  111.0540  -77.3713  -87.7924 C   0  0  0  0  0  0  0  0  0  0  0  0
  111.6035  -78.6645  -88.0530 C   0  0  0  0  0  0  0  0  0  0  0  0
  109.9647  -74.7647  -87.0626 C   0  0  0  0  0  0  0  0  0  0  0  0
  110.2766  -73.3925  -87.2049 C   0  0  0  0  0  0  0  0  0  0  0  0
  109.6602  -72.4920  -88.0756 C   0  0  0  0  0  0  0  0  0  0  0  0
  108.5887  -72.9520  -88.9462 C   0  0  0  0  0  0  0  0  0  0  0  0
  108.2934  -74.3254  -88.7715 C   0  0  0  0  0  0  0  0  0  0  0  0
  108.8813  -75.2621  -87.9101 C   0  0  0  0  0  0  0  0  0  0  0  0
  112.6950  -81.1172  -88.8615 C   0  0  0  0  0  0  0  0  0  0  0  0
  113.2883  -81.7045  -86.5809 C   0  0  0  0  0  0  0  0  0  0  0  0
  111.0633  -73.1505  -79.8282 C   0  0  0  0  0  0  0  0  0  0  0  0
  112.0136  -75.4224  -79.8354 C   0  0  0  0  0  0  0  0  0  0  0  0
  1  2  1  6  0  0  0
  1  3  1  0  0  0  0
  1 16  1  0  0  0  0
  2 23  1  0  0  0  0
  2 24  1  0  0  0  0
  4 25  1  0  0  0  0
  4 26  1  0  0  0  0
  5  6  1  0  0  0  0
  6  3  1  1  0  0  0
  6 14  1  0  0  0  0
  7  5  1  6  0  0  0
  7  8  1  0  0  0  0
  7 12  1  0  0  0  0
  8  9  1  0  0  0  0
  9  4  1  6  0  0  0
  9 10  1  0  0  0  0
 10 11  1  0  0  0  0
 12 11  1  1  0  0  0
 12 13  1  0  0  0  0
 13 14  1  0  0  0  0
 13 17  1  1  0  0  0
 14 15  1  1  0  0  0
 15 16  1  0  0  0  0
 17 18  1  0  0  0  0
 17 22  1  0  0  0  0
 18 19  1  0  0  0  0
 19 20  1  0  0  0  0
 20 21  1  0  0  0  0
 21 22  1  0  0  0  0
M  END
>  <CHROM.1>
-174.84998161,176.51939789,50.93678055,111.11236900,-76.30612563,-85.37236435
-1.28560102,-1.07801391,1.07625225

>  <Name>
ligand

>  <RI>
0

>  <Rbt.Current_Directory>
/home/itssahil/PROJECTS/Mol_Feturizer/Test_systems_manuscript/rnas/1f1t

>  <Rbt.Executable>
rbdock ($Id: //depot/dev/client3/rdock/2013.1/src/exe/rbdock.cxx#4 $)

>  <Rbt.Library>
libRbt.so (2013.1, Build901 2013/11/27)

>  <Rbt.Parameter_File>
/export/apps/rDock/src/rDock_2013.1_src/data/scripts/dock_solv.prm

>  <Rbt.Receptor>
prm/pocket_docking_7.prm

>  <SCORE>
-53.8342

>  <SCORE.INTER>
-56.7248

>  <SCORE.INTER.CONST>
1

>  <SCORE.INTER.POLAR>
0

>  <SCORE.INTER.ROT>
3

>  <SCORE.INTER.SOLV>
8.97769

>  <SCORE.INTER.VDW>
-46.4091

>  <SCORE.INTER.norm>
-2.18172

>  <SCORE.INTRA>
2.89062

>  <SCORE.INTRA.DIHEDRAL>
-0.000307498

>  <SCORE.INTRA.DIHEDRAL.0>
3.60016

>  <SCORE.INTRA.POLAR>
0

>  <SCORE.INTRA.POLAR.0>
0

>  <SCORE.INTRA.REPUL>
0

>  <SCORE.INTRA.REPUL.0>
0

>  <SCORE.INTRA.SOLV>
-0.000979131

>  <SCORE.INTRA.SOLV.lig_0>
-10.9882

>  <SCORE.INTRA.VDW>
2.89126

>  <SCORE.INTRA.VDW.0>
1.84442

>  <SCORE.INTRA.norm>
0.111178

>  <SCORE.RESTR>
0

>  <SCORE.RESTR.CAVITY>
0

>  <SCORE.RESTR.norm>
0

>  <SCORE.SYSTEM>
0

>  <SCORE.SYSTEM.CONST>
0

>  <SCORE.SYSTEM.DIHEDRAL>
0

>  <SCORE.SYSTEM.SOLV>
0

>  <SCORE.SYSTEM.norm>
0

>  <SCORE.heavy>
26

>  <SCORE.norm>
-2.07054

>  <RMSD>
0.722

$$$$
ligand
 OpenBabel02271912153D
libRbt.so/2013.1/901 2013/11/27
 26 29  0  0  0  0  0  0  0  0999 V2000
  112.2277  -79.4172  -87.1146 C   0  0  1  0  0  0  0  0  0  0  0  0
  112.7292  -80.6487  -87.5107 N   0  0  0  0  0  0  0  0  0  0  0  0
  112.3543  -78.9910  -85.7287 C   0  0  0  0  0  0  0  0  0  0  0  0
  111.3513  -74.3748  -80.6459 N   0  0  0  0  0  0  0  0  0  0  0  0
  111.9544  -77.3470  -84.0592 O   0  0  0  0  0  0  0  0  0  0  0  0
  111.7987  -77.7326  -85.4899 C   0  0  2  0  0  0  0  0  0  0  0  0
  111.4348  -76.2010  -83.8481 C   0  0  1  0  0  0  0  0  0  0  0  0
  111.6476  -75.9103  -82.4304 C   0  0  0  0  0  0  0  0  0  0  0  0
  111.1117  -74.6434  -82.0044 C   0  0  2  0  0  0  0  0  0  0  0  0
  110.4287  -73.7678  -82.8843 C   0  0  0  0  0  0  0  0  0  0  0  0
  110.2586  -74.1112  -84.2839 C   0  0  0  0  0  0  0  0  0  0  0  0
  110.8003  -75.3692  -84.7361 C   0  0  2  0  0  0  0  0  0  0  0  0
  110.5935  -75.6408  -86.2077 C   0  0  1  0  0  0  0  0  0  0  0  0
  111.1714  -76.9062  -86.4156 C   0  0  2  0  0  0  0  0  0  0  0  0
  111.0602  -77.3499  -87.8069 C   0  0  0  0  0  0  0  0  0  0  0  0
  111.6187  -78.6371  -88.0783 C   0  0  0  0  0  0  0  0  0  0  0  0
  109.9532  -74.7569  -87.0554 C   0  0  0  0  0  0  0  0  0  0  0  0
  110.2946  -73.3958  -87.2323 C   0  0  0  0  0  0  0  0  0  0  0  0
  109.6706  -72.4940  -88.0962 C   0  0  0  0  0  0  0  0  0  0  0  0
  108.5573  -72.9403  -88.9204 C   0  0  0  0  0  0  0  0  0  0  0  0
  108.2338  -74.3025  -88.7116 C   0  0  0  0  0  0  0  0  0  0  0  0
  108.8280  -75.2399  -87.8555 C   0  0  0  0  0  0  0  0  0  0  0  0
  113.2693  -81.6113  -86.5547 C   0  0  0  0  0  0  0  0  0  0  0  0
  112.7885  -81.1681  -88.8937 C   0  0  0  0  0  0  0  0  0  0  0  0
  111.9868  -75.1831  -79.5814 C   0  0  0  0  0  0  0  0  0  0  0  0
  110.9215  -73.0299  -80.1229 C   0  0  0  0  0  0  0  0  0  0  0  0
  1  2  1  6  0  0  0
  1  3  1  0  0  0  0
  1 16  1  0  0  0  0
  2 23  1  0  0  0  0
  2 24  1  0  0  0  0
  4 25  1  0  0  0  0
  4 26  1  0  0  0  0
  5  6  1  0  0  0  0
  6  3  1  1  0  0  0
  6 14  1  0  0  0  0
  7  5  1  6  0  0  0
  7  8  1  0  0  0  0
  7 12  1  0  0  0  0
  8  9  1  0  0  0  0
  9  4  1  6  0  0  0
  9 10  1  0  0  0  0
 10 11  1  0  0  0  0
 12 11  1  1  0  0  0
 12 13  1  0  0  0  0
 13 14  1  0  0  0  0
 13 17  1  1  0  0  0
 14 15  1  1  0  0  0
 15 16  1  0  0  0  0
 17 18  1  0  0  0  0
 17 22  1  0  0  0  0
 18 19  1  0  0  0  0
 19 20  1  0  0  0  0
 20 21  1  0  0  0  0
 21 22  1  0  0  0  0
M  END
>  <CHROM.1>
6.37994591,-3.51329424,53.99530973,111.10688235,-76.28478828,-85.37690126
-1.26882316,-1.07092943,1.08474461

>  <Name>
ligand

>  <RI>
0

>  <Rbt.Current_Directory>
/home/itssahil/PROJECTS/Mol_Feturizer/Test_systems_manuscript/rnas/1f1t

>  <Rbt.Executable>
rbdock ($Id: //depot/dev/client3/rdock/2013.1/src/exe/rbdock.cxx#4 $)

>  <Rbt.Library>
libRbt.so (2013.1, Build901 2013/11/27)

>  <Rbt.Parameter_File>
/export/apps/rDock/src/rDock_2013.1_src/data/scripts/dock_solv.prm

>  <Rbt.Receptor>
prm/pocket_docking_7.prm

>  <SCORE>
-56.4856

>  <SCORE.INTER>
-56.623

>  <SCORE.INTER.CONST>
1

>  <SCORE.INTER.POLAR>
0

>  <SCORE.INTER.ROT>
3

>  <SCORE.INTER.SOLV>
9.00087

>  <SCORE.INTER.VDW>
-46.3489

>  <SCORE.INTER.norm>
-2.17781

>  <SCORE.INTRA>
0.137362

>  <SCORE.INTRA.DIHEDRAL>
0.000278897

>  <SCORE.INTRA.DIHEDRAL.0>
3.60016

>  <SCORE.INTRA.POLAR>
0

>  <SCORE.INTRA.POLAR.0>
0

>  <SCORE.INTRA.REPUL>
0

>  <SCORE.INTRA.REPUL.0>
0

>  <SCORE.INTRA.SOLV>
1.48048e-05

>  <SCORE.INTRA.SOLV.lig_0>
-10.9882

>  <SCORE.INTRA.VDW>
0.137215

>  <SCORE.INTRA.VDW.0>
1.84442

>  <SCORE.INTRA.norm>
0.00528315

>  <SCORE.RESTR>
0

>  <SCORE.RESTR.CAVITY>
0

>  <SCORE.RESTR.norm>
0

>  <SCORE.SYSTEM>
0

>  <SCORE.SYSTEM.CONST>
0

>  <SCORE.SYSTEM.DIHEDRAL>
0

>  <SCORE.SYSTEM.SOLV>
0

>  <SCORE.SYSTEM.norm>
0

>  <SCORE.heavy>
26

>  <SCORE.norm>
-2.17252

>  <RMSD>
0.722

$$$$
ligand
 OpenBabel02271912153D
libRbt.so/2013.1/901 2013/11/27
 26 29  0  0  0  0  0  0  0  0999 V2000
  111.2216  -74.7426  -82.0354 C   0  0  1  0  0  0  0  0  0  0  0  0
  111.4052  -74.3796  -80.7088 N   0  0  0  0  0  0  0  0  0  0  0  0
  111.7542  -76.0054  -82.5252 C   0  0  0  0  0  0  0  0  0  0  0  0
  112.7765  -80.6495  -87.5787 N   0  0  0  0  0  0  0  0  0  0  0  0
  112.0559  -77.5261  -84.3269 O   0  0  0  0  0  0  0  0  0  0  0  0
  111.4891  -76.2233  -83.8785 C   0  0  2  0  0  0  0  0  0  0  0  0
  111.8182  -77.7119  -85.5666 C   0  0  1  0  0  0  0  0  0  0  0  0
  112.3998  -79.0108  -85.9044 C   0  0  0  0  0  0  0  0  0  0  0  0
  112.2332  -79.3872  -87.2844 C   0  0  2  0  0  0  0  0  0  0  0  0
  111.5742  -78.5605  -88.2278 C   0  0  0  0  0  0  0  0  0  0  0  0
  111.0102  -77.2853  -87.8261 C   0  0  0  0  0  0  0  0  0  0  0  0
  111.1526  -76.8944  -86.4451 C   0  0  2  0  0  0  0  0  0  0  0  0
  110.5239  -75.5625  -86.1090 C   0  0  1  0  0  0  0  0  0  0  0  0
  110.7995  -75.3793  -84.7420 C   0  0  2  0  0  0  0  0  0  0  0  0
  110.2652  -74.1161  -84.2283 C   0  0  0  0  0  0  0  0  0  0  0  0
  110.5252  -73.8667  -82.8453 C   0  0  0  0  0  0  0  0  0  0  0  0
  109.8564  -74.7874  -87.0382 C   0  0  0  0  0  0  0  0  0  0  0  0
  108.7952  -75.2270  -87.8635 C   0  0  0  0  0  0  0  0  0  0  0  0
  108.0986  -74.4539  -88.7941 C   0  0  0  0  0  0  0  0  0  0  0  0
  108.4525  -73.0540  -88.9751 C   0  0  0  0  0  0  0  0  0  0  0  0
  109.5242  -72.6488  -88.1437 C   0  0  0  0  0  0  0  0  0  0  0  0
  110.2523  -73.3889  -87.2020 C   0  0  0  0  0  0  0  0  0  0  0  0
  110.9919  -73.0764  -80.1958 C   0  0  0  0  0  0  0  0  0  0  0  0
  112.0096  -75.2122  -79.6470 C   0  0  0  0  0  0  0  0  0  0  0  0
  113.0042  -81.3458  -88.8647 C   0  0  0  0  0  0  0  0  0  0  0  0
  113.2460  -81.4856  -86.4179 C   0  0  0  0  0  0  0  0  0  0  0  0
  1  2  1  1  0  0  0
  1  3  1  0  0  0  0
  1 16  1  0  0  0  0
  2 23  1  0  0  0  0
  2 24  1  0  0  0  0
  4 25  1  0  0  0  0
  4 26  1  0  0  0  0
  5  6  1  0  0  0  0
  6  3  1  6  0  0  0
  6 14  1  0  0  0  0
  7  5  1  1  0  0  0
  7  8  1  0  0  0  0
  7 12  1  0  0  0  0
  8  9  1  0  0  0  0
  9  4  1  1  0  0  0
  9 10  1  0  0  0  0
 10 11  1  0  0  0  0
 12 11  1  6  0  0  0
 12 13  1  0  0  0  0
 13 14  1  0  0  0  0
 13 17  1  6  0  0  0
 14 15  1  6  0  0  0
 15 16  1  0  0  0  0
 17 18  1  0  0  0  0
 17 22  1  0  0  0  0
 18 19  1  0  0  0  0
 19 20  1  0  0  0  0
 20 21  1  0  0  0  0
 21 22  1  0  0  0  0
M  END
>  <CHROM.1>
174.67074660,-170.26251718,53.22281087,111.11819320,-76.31743699,-85.42061725
-1.85770690,1.04563986,-2.07038110

>  <Name>
ligand

>  <RI>
0

>  <Rbt.Current_Directory>
/home/itssahil/PROJECTS/Mol_Feturizer/Test_systems_manuscript/rnas/1f1t

>  <Rbt.Executable>
rbdock ($Id: //depot/dev/client3/rdock/2013.1/src/exe/rbdock.cxx#4 $)

>  <Rbt.Library>
libRbt.so (2013.1, Build901 2013/11/27)

>  <Rbt.Parameter_File>
/export/apps/rDock/src/rDock_2013.1_src/data/scripts/dock_solv.prm

>  <Rbt.Receptor>
prm/pocket_docking_8.prm

>  <SCORE>
-53.3412

>  <SCORE.INTER>
-56.0303

>  <SCORE.INTER.CONST>
1

>  <SCORE.INTER.POLAR>
0

>  <SCORE.INTER.ROT>
3

>  <SCORE.INTER.SOLV>
8.97792

>  <SCORE.INTER.VDW>
-45.9462

>  <SCORE.INTER.norm>
-2.15501

>  <SCORE.INTRA>
2.68915

>  <SCORE.INTRA.DIHEDRAL>
-0.000268111

>  <SCORE.INTRA.DIHEDRAL.0>
3.60016

>  <SCORE.INTRA.POLAR>
0

>  <SCORE.INTRA.POLAR.0>
0

>  <SCORE.INTRA.REPUL>
0

>  <SCORE.INTRA.REPUL.0>
0

>  <SCORE.INTRA.SOLV>
-0.000968406

>  <SCORE.INTRA.SOLV.lig_0>
-10.9882

>  <SCORE.INTRA.VDW>
2.68976

>  <SCORE.INTRA.VDW.0>
1.84442

>  <SCORE.INTRA.norm>
0.103429

>  <SCORE.RESTR>
0

>  <SCORE.RESTR.CAVITY>
0

>  <SCORE.RESTR.norm>
0

>  <SCORE.SYSTEM>
0

>  <SCORE.SYSTEM.CONST>
0

>  <SCORE.SYSTEM.DIHEDRAL>
0

>  <SCORE.SYSTEM.SOLV>
0

>  <SCORE.SYSTEM.norm>
0

>  <SCORE.heavy>
26

>  <SCORE.norm>
-2.05158

>  <RMSD>
0.722

$$$$
ligand
 OpenBabel02271912153D
libRbt.so/2013.1/901 2013/11/27
 26 29  0  0  0  0  0  0  0  0999 V2000
  112.2351  -79.4268  -87.1134 C   0  0  1  0  0  0  0  0  0  0  0  0
  112.7327  -80.6595  -87.5109 N   0  0  0  0  0  0  0  0  0  0  0  0
  112.3549  -79.0065  -85.7251 C   0  0  0  0  0  0  0  0  0  0  0  0
  111.3432  -74.4037  -80.6318 N   0  0  0  0  0  0  0  0  0  0  0  0
  111.9528  -77.3665  -84.0522 O   0  0  0  0  0  0  0  0  0  0  0  0
  111.8045  -77.7460  -85.4853 C   0  0  2  0  0  0  0  0  0  0  0  0
  111.4379  -76.2185  -83.8402 C   0  0  1  0  0  0  0  0  0  0  0  0
  111.6430  -75.9342  -82.4201 C   0  0  0  0  0  0  0  0  0  0  0  0
  111.1111  -74.6661  -81.9929 C   0  0  2  0  0  0  0  0  0  0  0  0
  110.4386  -73.7835  -82.8740 C   0  0  0  0  0  0  0  0  0  0  0  0
  110.2759  -74.1209  -84.2759 C   0  0  0  0  0  0  0  0  0  0  0  0
  110.8137  -75.3800  -84.7293 C   0  0  2  0  0  0  0  0  0  0  0  0
  110.6153  -75.6451  -86.2031 C   0  0  1  0  0  0  0  0  0  0  0  0
  111.1877  -76.9128  -86.4120 C   0  0  2  0  0  0  0  0  0  0  0  0
  111.0833  -77.3508  -87.8057 C   0  0  0  0  0  0  0  0  0  0  0  0
  111.6367  -78.6399  -88.0781 C   0  0  0  0  0  0  0  0  0  0  0  0
  109.9853  -74.7547  -87.0518 C   0  0  0  0  0  0  0  0  0  0  0  0
  110.3096  -73.3852  -87.1925 C   0  0  0  0  0  0  0  0  0  0  0  0
  109.6962  -72.4763  -88.0564 C   0  0  0  0  0  0  0  0  0  0  0  0
  108.6142  -72.9233  -88.9208 C   0  0  0  0  0  0  0  0  0  0  0  0
  108.3067  -74.2943  -88.7478 C   0  0  0  0  0  0  0  0  0  0  0  0
  108.8912  -75.2391  -87.8931 C   0  0  0  0  0  0  0  0  0  0  0  0
  113.2742  -81.6229  -86.5564 C   0  0  0  0  0  0  0  0  0  0  0  0
  112.7860  -81.1796  -88.8938 C   0  0  0  0  0  0  0  0  0  0  0  0
  112.0009  -75.2042  -79.5749 C   0  0  0  0  0  0  0  0  0  0  0  0
  110.8762  -73.0763  -80.0962 C   0  0  0  0  0  0  0  0  0  0  0  0
  1  2  1  6  0  0  0
  1  3  1  0  0  0  0
  1 16  1  0  0  0  0
  2 23  1  0  0  0  0
  2 24  1  0  0  0  0
  4 25  1  0  0  0  0
  4 26  1  0  0  0  0
  5  6  1  0  0  0  0
  6  3  1  1  0  0  0
  6 14  1  0  0  0  0
  7  5  1  6  0  0  0
  7  8  1  0  0  0  0
  7 12  1  0  0  0  0
  8  9  1  0  0  0  0
  9  4  1  6  0  0  0
  9 10  1  0  0  0  0
 10 11  1  0  0  0  0
 12 11  1  1  0  0  0
 12 13  1  0  0  0  0
 13 14  1  0  0  0  0
 13 17  1  1  0  0  0
 14 15  1  1  0  0  0
 15 16  1  0  0  0  0
 17 18  1  0  0  0  0
 17 22  1  0  0  0  0
 18 19  1  0  0  0  0
 19 20  1  0  0  0  0
 20 21  1  0  0  0  0
 21 22  1  0  0  0  0
M  END
>  <CHROM.1>
5.72640572,-1.55430735,52.02300810,111.11966035,-76.29499038,-85.37157627
-1.26195905,-1.07811111,1.09466619

>  <Name>
ligand

>  <RI>
0

>  <Rbt.Current_Directory>
/home/itssahil/PROJECTS/Mol_Feturizer/Test_systems_manuscript/rnas/1f1t

>  <Rbt.Executable>
rbdock ($Id: //depot/dev/client3/rdock/2013.1/src/exe/rbdock.cxx#4 $)

>  <Rbt.Library>
libRbt.so (2013.1, Build901 2013/11/27)

>  <Rbt.Parameter_File>
/export/apps/rDock/src/rDock_2013.1_src/data/scripts/dock_solv.prm

>  <Rbt.Receptor>
prm/pocket_docking_2.prm

>  <SCORE>
-56.4003

>  <SCORE.INTER>
-56.6019

>  <SCORE.INTER.CONST>
1

>  <SCORE.INTER.POLAR>
0

>  <SCORE.INTER.ROT>
3

>  <SCORE.INTER.SOLV>
9.01838

>  <SCORE.INTER.VDW>
-46.3408

>  <SCORE.INTER.norm>
-2.177

>  <SCORE.INTRA>
0.201683

>  <SCORE.INTRA.DIHEDRAL>
0.000277168

>  <SCORE.INTRA.DIHEDRAL.0>
3.60016

>  <SCORE.INTRA.POLAR>
0

>  <SCORE.INTRA.POLAR.0>
0

>  <SCORE.INTRA.REPUL>
0

>  <SCORE.INTRA.REPUL.0>
0

>  <SCORE.INTRA.SOLV>
1.08457e-05

>  <SCORE.INTRA.SOLV.lig_0>
-10.9882

>  <SCORE.INTRA.VDW>
0.201539

>  <SCORE.INTRA.VDW.0>
1.84442

>  <SCORE.INTRA.norm>
0.00775703

>  <SCORE.RESTR>
0

>  <SCORE.RESTR.CAVITY>
0

>  <SCORE.RESTR.norm>
0

>  <SCORE.SYSTEM>
0

>  <SCORE.SYSTEM.CONST>
0

>  <SCORE.SYSTEM.DIHEDRAL>
0

>  <SCORE.SYSTEM.SOLV>
0

>  <SCORE.SYSTEM.norm>
0

>  <SCORE.heavy>
26

>  <SCORE.norm>
-2.16924

>  <RMSD>
0.723

$$$$
ligand
 OpenBabel02271912153D
libRbt.so/2013.1/901 2013/11/27
 26 29  0  0  0  0  0  0  0  0999 V2000
  112.2638  -79.4926  -87.1120 C   0  0  1  0  0  0  0  0  0  0  0  0
  112.7950  -80.7170  -87.4914 N   0  0  0  0  0  0  0  0  0  0  0  0
  112.3927  -79.0380  -85.7354 C   0  0  0  0  0  0  0  0  0  0  0  0
  111.3149  -74.3590  -80.7259 N   0  0  0  0  0  0  0  0  0  0  0  0
  111.9647  -77.3753  -84.0916 O   0  0  0  0  0  0  0  0  0  0  0  0
  111.8052  -77.7911  -85.5133 C   0  0  2  0  0  0  0  0  0  0  0  0
  111.4160  -76.2403  -83.8955 C   0  0  1  0  0  0  0  0  0  0  0  0
  111.6352  -75.9181  -82.4856 C   0  0  0  0  0  0  0  0  0  0  0  0
  111.0690  -74.6588  -82.0767 C   0  0  2  0  0  0  0  0  0  0  0  0
  110.3532  -73.8183  -82.9649 C   0  0  0  0  0  0  0  0  0  0  0  0
  110.1784  -74.1917  -84.3562 C   0  0  0  0  0  0  0  0  0  0  0  0
  110.7498  -75.4424  -84.7915 C   0  0  2  0  0  0  0  0  0  0  0  0
  110.5357  -75.7464  -86.2556 C   0  0  1  0  0  0  0  0  0  0  0  0
  111.1460  -76.9991  -86.4470 C   0  0  2  0  0  0  0  0  0  0  0  0
  111.0329  -77.4710  -87.8288 C   0  0  0  0  0  0  0  0  0  0  0  0
  111.6238  -78.7472  -88.0830 C   0  0  0  0  0  0  0  0  0  0  0  0
  109.8627  -74.8960  -87.1122 C   0  0  0  0  0  0  0  0  0  0  0  0
  108.7921  -75.2634  -87.9603 C   0  0  0  0  0  0  0  0  0  0  0  0
  108.0900  -74.4148  -88.8181 C   0  0  0  0  0  0  0  0  0  0  0  0
  108.4479  -73.0059  -88.8880 C   0  0  0  0  0  0  0  0  0  0  0  0
  109.5290  -72.6733  -88.0367 C   0  0  0  0  0  0  0  0  0  0  0  0
  110.2628  -73.4901  -87.1654 C   0  0  0  0  0  0  0  0  0  0  0  0
  113.2978  -81.6810  -86.5166 C   0  0  0  0  0  0  0  0  0  0  0  0
  112.9248  -81.2268  -88.8731 C   0  0  0  0  0  0  0  0  0  0  0  0
  111.9503  -75.1449  -79.6447 C   0  0  0  0  0  0  0  0  0  0  0  0
  110.8937  -72.9998  -80.2336 C   0  0  0  0  0  0  0  0  0  0  0  0
  1  2  1  6  0  0  0
  1  3  1  0  0  0  0
  1 16  1  0  0  0  0
  2 23  1  0  0  0  0
  2 24  1  0  0  0  0
  4 25  1  0  0  0  0
  4 26  1  0  0  0  0
  5  6  1  0  0  0  0
  6  3  1  1  0  0  0
  6 14  1  0  0  0  0
  7  5  1  6  0  0  0
  7  8  1  0  0  0  0
  7 12  1  0  0  0  0
  8  9  1  0  0  0  0
  9  4  1  6  0  0  0
  9 10  1  0  0  0  0
 10 11  1  0  0  0  0
 12 11  1  1  0  0  0
 12 13  1  0  0  0  0
 13 14  1  0  0  0  0
 13 17  1  1  0  0  0
 14 15  1  1  0  0  0
 15 16  1  0  0  0  0
 17 18  1  0  0  0  0
 17 22  1  0  0  0  0
 18 19  1  0  0  0  0
 19 20  1  0  0  0  0
 20 21  1  0  0  0  0
 21 22  1  0  0  0  0
M  END
>  <CHROM.1>
10.13991367,-5.44222322,-128.40870961,111.08217900,-76.34496089,-85.40886419
-1.24253948,-1.04777648,1.07677314

>  <Name>
ligand

>  <RI>
0

>  <Rbt.Current_Directory>
/home/itssahil/PROJECTS/Mol_Feturizer/Test_systems_manuscript/rnas/1f1t

>  <Rbt.Executable>
rbdock ($Id: //depot/dev/client3/rdock/2013.1/src/exe/rbdock.cxx#4 $)

>  <Rbt.Library>
libRbt.so (2013.1, Build901 2013/11/27)

>  <Rbt.Parameter_File>
/export/apps/rDock/src/rDock_2013.1_src/data/scripts/dock_solv.prm

>  <Rbt.Receptor>
prm/pocket_docking_2.prm

>  <SCORE>
-55.9791

>  <SCORE.INTER>
-56.196

>  <SCORE.INTER.CONST>
1

>  <SCORE.INTER.POLAR>
0

>  <SCORE.INTER.ROT>
3

>  <SCORE.INTER.SOLV>
8.89899

>  <SCORE.INTER.VDW>
-46.0304

>  <SCORE.INTER.norm>
-2.16139

>  <SCORE.INTRA>
0.216901

>  <SCORE.INTRA.DIHEDRAL>
-1.18117e-05

>  <SCORE.INTRA.DIHEDRAL.0>
3.60016

>  <SCORE.INTRA.POLAR>
0

>  <SCORE.INTRA.POLAR.0>
0

>  <SCORE.INTRA.REPUL>
0

>  <SCORE.INTRA.REPUL.0>
0

>  <SCORE.INTRA.SOLV>
4.40623e-05

>  <SCORE.INTRA.SOLV.lig_0>
-10.9882

>  <SCORE.INTRA.VDW>
0.216885

>  <SCORE.INTRA.VDW.0>
1.84442

>  <SCORE.INTRA.norm>
0.00834236

>  <SCORE.RESTR>
0

>  <SCORE.RESTR.CAVITY>
0

>  <SCORE.RESTR.norm>
0

>  <SCORE.SYSTEM>
0

>  <SCORE.SYSTEM.CONST>
0

>  <SCORE.SYSTEM.DIHEDRAL>
0

>  <SCORE.SYSTEM.SOLV>
0

>  <SCORE.SYSTEM.norm>
0

>  <SCORE.heavy>
26

>  <SCORE.norm>
-2.15304

>  <RMSD>
0.723

$$$$
ligand
 OpenBabel02271912153D
libRbt.so/2013.1/901 2013/11/27
 26 29  0  0  0  0  0  0  0  0999 V2000
  112.2245  -79.4185  -87.1163 C   0  0  1  0  0  0  0  0  0  0  0  0
  112.7252  -80.6500  -87.5137 N   0  0  0  0  0  0  0  0  0  0  0  0
  112.3492  -78.9950  -85.7294 C   0  0  0  0  0  0  0  0  0  0  0  0
  111.3432  -74.3863  -80.6404 N   0  0  0  0  0  0  0  0  0  0  0  0
  111.9484  -77.3534  -84.0579 O   0  0  0  0  0  0  0  0  0  0  0  0
  111.7948  -77.7362  -85.4894 C   0  0  2  0  0  0  0  0  0  0  0  0
  111.4300  -76.2070  -83.8457 C   0  0  1  0  0  0  0  0  0  0  0  0
  111.6406  -75.9191  -82.4271 C   0  0  0  0  0  0  0  0  0  0  0  0
  111.1057  -74.6523  -81.9998 C   0  0  2  0  0  0  0  0  0  0  0  0
  110.4255  -73.7742  -82.8794 C   0  0  0  0  0  0  0  0  0  0  0  0
  110.2575  -74.1149  -84.2799 C   0  0  0  0  0  0  0  0  0  0  0  0
  110.7982  -75.3728  -84.7333 C   0  0  2  0  0  0  0  0  0  0  0  0
  110.5938  -75.6416  -86.2058 C   0  0  1  0  0  0  0  0  0  0  0  0
  111.1704  -76.9073  -86.4149 C   0  0  2  0  0  0  0  0  0  0  0  0
  111.0611  -77.3485  -87.8071 C   0  0  0  0  0  0  0  0  0  0  0  0
  111.6184  -78.6360  -88.0797 C   0  0  0  0  0  0  0  0  0  0  0  0
  109.9563  -74.7553  -87.0531 C   0  0  0  0  0  0  0  0  0  0  0  0
  110.2939  -73.3921  -87.2202 C   0  0  0  0  0  0  0  0  0  0  0  0
  109.6728  -72.4877  -88.0835 C   0  0  0  0  0  0  0  0  0  0  0  0
  108.5669  -72.9334  -88.9179 C   0  0  0  0  0  0  0  0  0  0  0  0
  108.2468  -74.2979  -88.7188 C   0  0  0  0  0  0  0  0  0  0  0  0
  108.8384  -75.2379  -87.8637 C   0  0  0  0  0  0  0  0  0  0  0  0
  113.2618  -81.6152  -86.5584 C   0  0  0  0  0  0  0  0  0  0  0  0
  112.7866  -81.1669  -88.8975 C   0  0  0  0  0  0  0  0  0  0  0  0
  111.9696  -75.2000  -79.5746 C   0  0  0  0  0  0  0  0  0  0  0  0
  110.9215  -73.0388  -80.1177 C   0  0  0  0  0  0  0  0  0  0  0  0
  1  2  1  6  0  0  0
  1  3  1  0  0  0  0
  1 16  1  0  0  0  0
  2 23  1  0  0  0  0
  2 24  1  0  0  0  0
  4 25  1  0  0  0  0
  4 26  1  0  0  0  0
  5  6  1  0  0  0  0
  6  3  1  1  0  0  0
  6 14  1  0  0  0  0
  7  5  1  6  0  0  0
  7  8  1  0  0  0  0
  7 12  1  0  0  0  0
  8  9  1  0  0  0  0
  9  4  1  6  0  0  0
  9 10  1  0  0  0  0
 10 11  1  0  0  0  0
 12 11  1  1  0  0  0
 12 13  1  0  0  0  0
 13 14  1  0  0  0  0
 13 17  1  1  0  0  0
 14 15  1  1  0  0  0
 15 16  1  0  0  0  0
 17 18  1  0  0  0  0
 17 22  1  0  0  0  0
 18 19  1  0  0  0  0
 19 20  1  0  0  0  0
 20 21  1  0  0  0  0
 21 22  1  0  0  0  0
M  END
>  <CHROM.1>
6.39834743,-3.86241980,53.53319719,111.10492501,-76.28766825,-85.37525979
-1.26693877,-1.07314678,1.08818173

>  <Name>
ligand

>  <RI>
0

>  <Rbt.Current_Directory>
/home/itssahil/PROJECTS/Mol_Feturizer/Test_systems_manuscript/rnas/1f1t

>  <Rbt.Executable>
rbdock ($Id: //depot/dev/client3/rdock/2013.1/src/exe/rbdock.cxx#4 $)

>  <Rbt.Library>
libRbt.so (2013.1, Build901 2013/11/27)

>  <Rbt.Parameter_File>
/export/apps/rDock/src/rDock_2013.1_src/data/scripts/dock_solv.prm

>  <Rbt.Receptor>
prm/pocket_docking_3.prm

>  <SCORE>
-56.5005

>  <SCORE.INTER>
-56.6458

>  <SCORE.INTER.CONST>
1

>  <SCORE.INTER.POLAR>
0

>  <SCORE.INTER.ROT>
3

>  <SCORE.INTER.SOLV>
8.99229

>  <SCORE.INTER.VDW>
-46.3613

>  <SCORE.INTER.norm>
-2.17868

>  <SCORE.INTRA>
0.14533

>  <SCORE.INTRA.DIHEDRAL>
0.000276548

>  <SCORE.INTRA.DIHEDRAL.0>
3.60016

>  <SCORE.INTRA.POLAR>
0

>  <SCORE.INTRA.POLAR.0>
0

>  <SCORE.INTRA.REPUL>
0

>  <SCORE.INTRA.REPUL.0>
0

>  <SCORE.INTRA.SOLV>
1.51849e-05

>  <SCORE.INTRA.SOLV.lig_0>
-10.9882

>  <SCORE.INTRA.VDW>
0.145184

>  <SCORE.INTRA.VDW.0>
1.84442

>  <SCORE.INTRA.norm>
0.00558961

>  <SCORE.RESTR>
0

>  <SCORE.RESTR.CAVITY>
0

>  <SCORE.RESTR.norm>
0

>  <SCORE.SYSTEM>
0

>  <SCORE.SYSTEM.CONST>
0

>  <SCORE.SYSTEM.DIHEDRAL>
0

>  <SCORE.SYSTEM.SOLV>
0

>  <SCORE.SYSTEM.norm>
0

>  <SCORE.heavy>
26

>  <SCORE.norm>
-2.17309

>  <RMSD>
0.723

$$$$
ligand
 OpenBabel02271912153D
libRbt.so/2013.1/901 2013/11/27
 26 29  0  0  0  0  0  0  0  0999 V2000
  111.2527  -74.6061  -81.8837 C   0  0  1  0  0  0  0  0  0  0  0  0
  111.4265  -74.2599  -80.5514 N   0  0  0  0  0  0  0  0  0  0  0  0
  111.7544  -75.8805  -82.3763 C   0  0  0  0  0  0  0  0  0  0  0  0
  112.7145  -80.5116  -87.4539 N   0  0  0  0  0  0  0  0  0  0  0  0
  112.0381  -77.3947  -84.1864 O   0  0  0  0  0  0  0  0  0  0  0  0
  111.5039  -76.0791  -83.7354 C   0  0  2  0  0  0  0  0  0  0  0  0
  111.8142  -77.5629  -85.4311 C   0  0  1  0  0  0  0  0  0  0  0  0
  112.3614  -78.8761  -85.7714 C   0  0  0  0  0  0  0  0  0  0  0  0
  112.2050  -79.2358  -87.1569 C   0  0  2  0  0  0  0  0  0  0  0  0
  111.5861  -78.3818  -88.1030 C   0  0  0  0  0  0  0  0  0  0  0  0
  111.0547  -77.0934  -87.6990 C   0  0  0  0  0  0  0  0  0  0  0  0
  111.1873  -76.7185  -86.3125 C   0  0  2  0  0  0  0  0  0  0  0  0
  110.5940  -75.3710  -85.9745 C   0  0  1  0  0  0  0  0  0  0  0  0
  110.8537  -75.2074  -84.6019 C   0  0  2  0  0  0  0  0  0  0  0  0
  110.3499  -73.9329  -84.0854 C   0  0  0  0  0  0  0  0  0  0  0  0
  110.5958  -73.7029  -82.6965 C   0  0  0  0  0  0  0  0  0  0  0  0
  109.9647  -74.5683  -86.9071 C   0  0  0  0  0  0  0  0  0  0  0  0
  110.2863  -73.2179  -87.1783 C   0  0  0  0  0  0  0  0  0  0  0  0
  109.6735  -72.3982  -88.1278 C   0  0  0  0  0  0  0  0  0  0  0  0
  108.5955  -72.9295  -88.9483 C   0  0  0  0  0  0  0  0  0  0  0  0
  108.2907  -74.2782  -88.6447 C   0  0  0  0  0  0  0  0  0  0  0  0
  108.8746  -75.1345  -87.7011 C   0  0  0  0  0  0  0  0  0  0  0  0
  112.0705  -75.1548  -79.5940 C   0  0  0  0  0  0  0  0  0  0  0  0
  111.0183  -72.9895  -79.9146 C   0  0  0  0  0  0  0  0  0  0  0  0
  112.8539  -81.2404  -88.7344 C   0  0  0  0  0  0  0  0  0  0  0  0
  113.2456  -81.3264  -86.3046 C   0  0  0  0  0  0  0  0  0  0  0  0
  1  2  1  1  0  0  0
  1  3  1  0  0  0  0
  1 16  1  0  0  0  0
  2 23  1  0  0  0  0
  2 24  1  0  0  0  0
  4 25  1  0  0  0  0
  4 26  1  0  0  0  0
  5  6  1  0  0  0  0
  6  3  1  6  0  0  0
  6 14  1  0  0  0  0
  7  5  1  1  0  0  0
  7  8  1  0  0  0  0
  7 12  1  0  0  0  0
  8  9  1  0  0  0  0
  9  4  1  1  0  0  0
  9 10  1  0  0  0  0
 10 11  1  0  0  0  0
 12 11  1  6  0  0  0
 12 13  1  0  0  0  0
 13 14  1  0  0  0  0
 13 17  1  6  0  0  0
 14 15  1  6  0  0  0
 15 16  1  0  0  0  0
 17 18  1  0  0  0  0
 17 22  1  0  0  0  0
 18 19  1  0  0  0  0
 19 20  1  0  0  0  0
 20 21  1  0  0  0  0
 21 22  1  0  0  0  0
M  END
>  <CHROM.1>
-1.84339763,-175.17735532,-126.16133424,111.15078735,-76.16862303,-85.29270758
-1.83281327,1.07218993,-2.06828842

>  <Name>
ligand

>  <RI>
0

>  <Rbt.Current_Directory>
/home/itssahil/PROJECTS/Mol_Feturizer/Test_systems_manuscript/rnas/1f1t

>  <Rbt.Executable>
rbdock ($Id: //depot/dev/client3/rdock/2013.1/src/exe/rbdock.cxx#4 $)

>  <Rbt.Library>
libRbt.so (2013.1, Build901 2013/11/27)

>  <Rbt.Parameter_File>
/export/apps/rDock/src/rDock_2013.1_src/data/scripts/dock_solv.prm

>  <Rbt.Receptor>
prm/pocket_docking_5.prm

>  <SCORE>
-53.6851

>  <SCORE.INTER>
-56.3051

>  <SCORE.INTER.CONST>
1

>  <SCORE.INTER.POLAR>
0

>  <SCORE.INTER.ROT>
3

>  <SCORE.INTER.SOLV>
9.25235

>  <SCORE.INTER.VDW>
-46.2209

>  <SCORE.INTER.norm>
-2.16558

>  <SCORE.INTRA>
2.62

>  <SCORE.INTRA.DIHEDRAL>
-0.000598456

>  <SCORE.INTRA.DIHEDRAL.0>
3.60016

>  <SCORE.INTRA.POLAR>
0

>  <SCORE.INTRA.POLAR.0>
0

>  <SCORE.INTRA.REPUL>
0

>  <SCORE.INTRA.REPUL.0>
0

>  <SCORE.INTRA.SOLV>
-0.000994548

>  <SCORE.INTRA.SOLV.lig_0>
-10.9882

>  <SCORE.INTRA.VDW>
2.62079

>  <SCORE.INTRA.VDW.0>
1.84442

>  <SCORE.INTRA.norm>
0.100769

>  <SCORE.RESTR>
0

>  <SCORE.RESTR.CAVITY>
0

>  <SCORE.RESTR.norm>
0

>  <SCORE.SYSTEM>
0

>  <SCORE.SYSTEM.CONST>
0

>  <SCORE.SYSTEM.DIHEDRAL>
0

>  <SCORE.SYSTEM.SOLV>
0

>  <SCORE.SYSTEM.norm>
0

>  <SCORE.heavy>
26

>  <SCORE.norm>
-2.06481

>  <RMSD>
0.723

$$$$
ligand
 OpenBabel02271912153D
libRbt.so/2013.1/901 2013/11/27
 26 29  0  0  0  0  0  0  0  0999 V2000
  112.2473  -79.4817  -87.1201 C   0  0  1  0  0  0  0  0  0  0  0  0
  112.7815  -80.7050  -87.4987 N   0  0  0  0  0  0  0  0  0  0  0  0
  112.3764  -79.0252  -85.7442 C   0  0  0  0  0  0  0  0  0  0  0  0
  111.2908  -74.3435  -80.7387 N   0  0  0  0  0  0  0  0  0  0  0  0
  111.9455  -77.3619  -84.1018 O   0  0  0  0  0  0  0  0  0  0  0  0
  111.7856  -77.7796  -85.5229 C   0  0  2  0  0  0  0  0  0  0  0  0
  111.3938  -76.2281  -83.9064 C   0  0  1  0  0  0  0  0  0  0  0  0
  111.6136  -75.9037  -82.4971 C   0  0  0  0  0  0  0  0  0  0  0  0
  111.0443  -74.6455  -82.0890 C   0  0  2  0  0  0  0  0  0  0  0  0
  110.3253  -73.8080  -82.9773 C   0  0  0  0  0  0  0  0  0  0  0  0
  110.1501  -74.1835  -84.3680 C   0  0  0  0  0  0  0  0  0  0  0  0
  110.7245  -75.4331  -84.8025 C   0  0  2  0  0  0  0  0  0  0  0  0
  110.5097  -75.7394  -86.2661 C   0  0  1  0  0  0  0  0  0  0  0  0
  111.1233  -76.9905  -86.4567 C   0  0  2  0  0  0  0  0  0  0  0  0
  111.0101  -77.4643  -87.8379 C   0  0  0  0  0  0  0  0  0  0  0  0
  111.6042  -78.7391  -88.0913 C   0  0  0  0  0  0  0  0  0  0  0  0
  109.8335  -74.8917  -87.1230 C   0  0  0  0  0  0  0  0  0  0  0  0
  108.7430  -75.2560  -87.9467 C   0  0  0  0  0  0  0  0  0  0  0  0
  108.0376  -74.4098  -88.8042 C   0  0  0  0  0  0  0  0  0  0  0  0
  108.4137  -73.0073  -88.9007 C   0  0  0  0  0  0  0  0  0  0  0  0
  109.5142  -72.6779  -88.0735 C   0  0  0  0  0  0  0  0  0  0  0  0
  110.2520  -73.4925  -87.2035 C   0  0  0  0  0  0  0  0  0  0  0  0
  113.2739  -81.6729  -86.5225 C   0  0  0  0  0  0  0  0  0  0  0  0
  112.9249  -81.2098  -88.8808 C   0  0  0  0  0  0  0  0  0  0  0  0
  110.9595  -73.1552  -79.9211 C   0  0  0  0  0  0  0  0  0  0  0  0
  112.0027  -75.3859  -79.9180 C   0  0  0  0  0  0  0  0  0  0  0  0
  1  2  1  6  0  0  0
  1  3  1  0  0  0  0
  1 16  1  0  0  0  0
  2 23  1  0  0  0  0
  2 24  1  0  0  0  0
  4 25  1  0  0  0  0
  4 26  1  0  0  0  0
  5  6  1  0  0  0  0
  6  3  1  1  0  0  0
  6 14  1  0  0  0  0
  7  5  1  6  0  0  0
  7  8  1  0  0  0  0
  7 12  1  0  0  0  0
  8  9  1  0  0  0  0
  9  4  1  6  0  0  0
  9 10  1  0  0  0  0
 10 11  1  0  0  0  0
 12 11  1  1  0  0  0
 12 13  1  0  0  0  0
 13 14  1  0  0  0  0
 13 17  1  1  0  0  0
 14 15  1  1  0  0  0
 15 16  1  0  0  0  0
 17 18  1  0  0  0  0
 17 22  1  0  0  0  0
 18 19  1  0  0  0  0
 19 20  1  0  0  0  0
 20 21  1  0  0  0  0
 21 22  1  0  0  0  0
M  END
>  <CHROM.1>
10.85802684,176.75531370,-126.85842611,111.06646042,-76.35485358,-85.41644238
-1.24997891,-1.04507361,1.08027255

>  <Name>
ligand

>  <RI>
0

>  <Rbt.Current_Directory>
/home/itssahil/PROJECTS/Mol_Feturizer/Test_systems_manuscript/rnas/1f1t

>  <Rbt.Executable>
rbdock ($Id: //depot/dev/client3/rdock/2013.1/src/exe/rbdock.cxx#4 $)

>  <Rbt.Library>
libRbt.so (2013.1, Build901 2013/11/27)

>  <Rbt.Parameter_File>
/export/apps/rDock/src/rDock_2013.1_src/data/scripts/dock_solv.prm

>  <Rbt.Receptor>
prm/pocket_docking_5.prm

>  <SCORE>
-53.5465

>  <SCORE.INTER>
-56.0793

>  <SCORE.INTER.CONST>
1

>  <SCORE.INTER.POLAR>
0

>  <SCORE.INTER.ROT>
3

>  <SCORE.INTER.SOLV>
8.92177

>  <SCORE.INTER.VDW>
-45.9601

>  <SCORE.INTER.norm>
-2.1569

>  <SCORE.INTRA>
2.53279

>  <SCORE.INTRA.DIHEDRAL>
-0.000599761

>  <SCORE.INTRA.DIHEDRAL.0>
3.60016

>  <SCORE.INTRA.POLAR>
0

>  <SCORE.INTRA.POLAR.0>
0

>  <SCORE.INTRA.REPUL>
0

>  <SCORE.INTRA.REPUL.0>
0

>  <SCORE.INTRA.SOLV>
-0.000940148

>  <SCORE.INTRA.SOLV.lig_0>
-10.9882

>  <SCORE.INTRA.VDW>
2.53356

>  <SCORE.INTRA.VDW.0>
1.84442

>  <SCORE.INTRA.norm>
0.0974149

>  <SCORE.RESTR>
0

>  <SCORE.RESTR.CAVITY>
0

>  <SCORE.RESTR.norm>
0

>  <SCORE.SYSTEM>
0

>  <SCORE.SYSTEM.CONST>
0

>  <SCORE.SYSTEM.DIHEDRAL>
0

>  <SCORE.SYSTEM.SOLV>
0

>  <SCORE.SYSTEM.norm>
0

>  <SCORE.heavy>
26

>  <SCORE.norm>
-2.05948

>  <RMSD>
0.723

$$$$
ligand
 OpenBabel02271912153D
libRbt.so/2013.1/901 2013/11/27
 26 29  0  0  0  0  0  0  0  0999 V2000
  111.1425  -74.7027  -82.0348 C   0  0  1  0  0  0  0  0  0  0  0  0
  111.3234  -74.3310  -80.7103 N   0  0  0  0  0  0  0  0  0  0  0  0
  111.6836  -75.9648  -82.5174 C   0  0  0  0  0  0  0  0  0  0  0  0
  112.7378  -80.6304  -87.5444 N   0  0  0  0  0  0  0  0  0  0  0  0
  111.9959  -77.4936  -84.3104 O   0  0  0  0  0  0  0  0  0  0  0  0
  111.4202  -76.1921  -83.8695 C   0  0  2  0  0  0  0  0  0  0  0  0
  111.7596  -77.6879  -85.5491 C   0  0  1  0  0  0  0  0  0  0  0  0
  112.3499  -78.9849  -85.8795 C   0  0  0  0  0  0  0  0  0  0  0  0
  112.1860  -79.3701  -87.2573 C   0  0  2  0  0  0  0  0  0  0  0  0
  111.5217  -78.5533  -88.2054 C   0  0  0  0  0  0  0  0  0  0  0  0
  110.9490  -77.2796  -87.8111 C   0  0  0  0  0  0  0  0  0  0  0  0
  111.0886  -76.8800  -86.4323 C   0  0  2  0  0  0  0  0  0  0  0  0
  110.4510  -75.5505  -86.1038 C   0  0  1  0  0  0  0  0  0  0  0  0
  110.7251  -75.3576  -84.7379 C   0  0  2  0  0  0  0  0  0  0  0  0
  110.1822  -74.0952  -84.2313 C   0  0  0  0  0  0  0  0  0  0  0  0
  110.4404  -73.8362  -82.8498 C   0  0  0  0  0  0  0  0  0  0  0  0
  109.7784  -74.7851  -87.0375 C   0  0  0  0  0  0  0  0  0  0  0  0
  108.7163  -75.2349  -87.8562 C   0  0  0  0  0  0  0  0  0  0  0  0
  108.0146  -74.4717  -88.7911 C   0  0  0  0  0  0  0  0  0  0  0  0
  108.3635  -73.0722  -88.9846 C   0  0  0  0  0  0  0  0  0  0  0  0
  109.4362  -72.6567  -88.1595 C   0  0  0  0  0  0  0  0  0  0  0  0
  110.1693  -73.3867  -87.2138 C   0  0  0  0  0  0  0  0  0  0  0  0
  111.9741  -75.2068  -79.7398 C   0  0  0  0  0  0  0  0  0  0  0  0
  110.9172  -73.0493  -80.0955 C   0  0  0  0  0  0  0  0  0  0  0  0
  112.9534  -81.3402  -88.8251 C   0  0  0  0  0  0  0  0  0  0  0  0
  113.2334  -81.4473  -86.3807 C   0  0  0  0  0  0  0  0  0  0  0  0
  1  2  1  1  0  0  0
  1  3  1  0  0  0  0
  1 16  1  0  0  0  0
  2 23  1  0  0  0  0
  2 24  1  0  0  0  0
  4 25  1  0  0  0  0
  4 26  1  0  0  0  0
  5  6  1  0  0  0  0
  6  3  1  6  0  0  0
  6 14  1  0  0  0  0
  7  5  1  1  0  0  0
  7  8  1  0  0  0  0
  7 12  1  0  0  0  0
  8  9  1  0  0  0  0
  9  4  1  1  0  0  0
  9 10  1  0  0  0  0
 10 11  1  0  0  0  0
 12 11  1  6  0  0  0
 12 13  1  0  0  0  0
 13 14  1  0  0  0  0
 13 17  1  6  0  0  0
 14 15  1  6  0  0  0
 15 16  1  0  0  0  0
 17 18  1  0  0  0  0
 17 22  1  0  0  0  0
 18 19  1  0  0  0  0
 19 20  1  0  0  0  0
 20 21  1  0  0  0  0
 21 22  1  0  0  0  0
M  END
>  <CHROM.1>
-3.97579043,-171.23374558,53.52146793,111.05294604,-76.30075321,-85.41055365
-1.86104747,1.03888649,-2.07137621

>  <Name>
ligand

>  <RI>
0

>  <Rbt.Current_Directory>
/home/itssahil/PROJECTS/Mol_Feturizer/Test_systems_manuscript/rnas/1f1t

>  <Rbt.Executable>
rbdock ($Id: //depot/dev/client3/rdock/2013.1/src/exe/rbdock.cxx#4 $)

>  <Rbt.Library>
libRbt.so (2013.1, Build901 2013/11/27)

>  <Rbt.Parameter_File>
/export/apps/rDock/src/rDock_2013.1_src/data/scripts/dock_solv.prm

>  <Rbt.Receptor>
prm/pocket_docking_5.prm

>  <SCORE>
-53.6941

>  <SCORE.INTER>
-56.1248

>  <SCORE.INTER.CONST>
1

>  <SCORE.INTER.POLAR>
0

>  <SCORE.INTER.ROT>
3

>  <SCORE.INTER.SOLV>
8.95864

>  <SCORE.INTER.VDW>
-46.0027

>  <SCORE.INTER.norm>
-2.15865

>  <SCORE.INTRA>
2.43072

>  <SCORE.INTRA.DIHEDRAL>
-0.000287458

>  <SCORE.INTRA.DIHEDRAL.0>
3.60016

>  <SCORE.INTRA.POLAR>
0

>  <SCORE.INTRA.POLAR.0>
0

>  <SCORE.INTRA.REPUL>
0

>  <SCORE.INTRA.REPUL.0>
0

>  <SCORE.INTRA.SOLV>
-0.000978029

>  <SCORE.INTRA.SOLV.lig_0>
-10.9882

>  <SCORE.INTRA.VDW>
2.43136

>  <SCORE.INTRA.VDW.0>
1.84442

>  <SCORE.INTRA.norm>
0.0934893

>  <SCORE.RESTR>
0

>  <SCORE.RESTR.CAVITY>
0

>  <SCORE.RESTR.norm>
0

>  <SCORE.SYSTEM>
0

>  <SCORE.SYSTEM.CONST>
0

>  <SCORE.SYSTEM.DIHEDRAL>
0

>  <SCORE.SYSTEM.SOLV>
0

>  <SCORE.SYSTEM.norm>
0

>  <SCORE.heavy>
26

>  <SCORE.norm>
-2.06516

>  <RMSD>
0.723

$$$$
ligand
 OpenBabel02271912153D
libRbt.so/2013.1/901 2013/11/27
 26 29  0  0  0  0  0  0  0  0999 V2000
  112.2256  -79.4158  -87.1096 C   0  0  1  0  0  0  0  0  0  0  0  0
  112.7264  -80.6479  -87.5053 N   0  0  0  0  0  0  0  0  0  0  0  0
  112.3514  -78.9897  -85.7236 C   0  0  0  0  0  0  0  0  0  0  0  0
  111.3483  -74.3722  -80.6420 N   0  0  0  0  0  0  0  0  0  0  0  0
  111.9516  -77.3452  -84.0547 O   0  0  0  0  0  0  0  0  0  0  0  0
  111.7968  -77.7308  -85.4854 C   0  0  2  0  0  0  0  0  0  0  0  0
  111.4329  -76.1987  -83.8441 C   0  0  1  0  0  0  0  0  0  0  0  0
  111.6447  -75.9081  -82.4262 C   0  0  0  0  0  0  0  0  0  0  0  0
  111.1097  -74.6407  -82.0008 C   0  0  2  0  0  0  0  0  0  0  0  0
  110.4282  -73.7645  -82.8813 C   0  0  0  0  0  0  0  0  0  0  0  0
  110.2590  -74.1079  -84.2810 C   0  0  0  0  0  0  0  0  0  0  0  0
  110.7999  -75.3663  -84.7327 C   0  0  2  0  0  0  0  0  0  0  0  0
  110.5942  -75.6379  -86.2044 C   0  0  1  0  0  0  0  0  0  0  0  0
  111.1710  -76.9038  -86.4118 C   0  0  2  0  0  0  0  0  0  0  0  0
  111.0607  -77.3475  -87.8031 C   0  0  0  0  0  0  0  0  0  0  0  0
  111.6182  -78.6353  -88.0739 C   0  0  0  0  0  0  0  0  0  0  0  0
  109.9554  -74.7535  -87.0528 C   0  0  0  0  0  0  0  0  0  0  0  0
  110.2897  -73.3894  -87.2196 C   0  0  0  0  0  0  0  0  0  0  0  0
  109.6674  -72.4868  -88.0839 C   0  0  0  0  0  0  0  0  0  0  0  0
  108.5638  -72.9355  -88.9197 C   0  0  0  0  0  0  0  0  0  0  0  0
  108.2471  -74.3008  -88.7209 C   0  0  0  0  0  0  0  0  0  0  0  0
  108.8400  -75.2391  -87.8648 C   0  0  0  0  0  0  0  0  0  0  0  0
  113.2515  -81.6167  -86.5473 C   0  0  0  0  0  0  0  0  0  0  0  0
  112.7990  -81.1618  -88.8896 C   0  0  0  0  0  0  0  0  0  0  0  0
  111.9788  -75.1825  -79.5761 C   0  0  0  0  0  0  0  0  0  0  0  0
  110.9234  -73.0251  -80.1206 C   0  0  0  0  0  0  0  0  0  0  0  0
  1  2  1  6  0  0  0
  1  3  1  0  0  0  0
  1 16  1  0  0  0  0
  2 23  1  0  0  0  0
  2 24  1  0  0  0  0
  4 25  1  0  0  0  0
  4 26  1  0  0  0  0
  5  6  1  0  0  0  0
  6  3  1  1  0  0  0
  6 14  1  0  0  0  0
  7  5  1  6  0  0  0
  7  8  1  0  0  0  0
  7 12  1  0  0  0  0
  8  9  1  0  0  0  0
  9  4  1  6  0  0  0
  9 10  1  0  0  0  0
 10 11  1  0  0  0  0
 12 11  1  1  0  0  0
 12 13  1  0  0  0  0
 13 14  1  0  0  0  0
 13 17  1  1  0  0  0
 14 15  1  1  0  0  0
 15 16  1  0  0  0  0
 17 18  1  0  0  0  0
 17 22  1  0  0  0  0
 18 19  1  0  0  0  0
 19 20  1  0  0  0  0
 20 21  1  0  0  0  0
 21 22  1  0  0  0  0
M  END
>  <CHROM.1>
7.05091827,-3.70894272,53.32519033,111.10633092,-76.28227440,-85.37324496
-1.26803793,-1.07248987,1.08543409

>  <Name>
ligand

>  <RI>
0

>  <Rbt.Current_Directory>
/home/itssahil/PROJECTS/Mol_Feturizer/Test_systems_manuscript/rnas/1f1t

>  <Rbt.Executable>
rbdock ($Id: //depot/dev/client3/rdock/2013.1/src/exe/rbdock.cxx#4 $)

>  <Rbt.Library>
libRbt.so (2013.1, Build901 2013/11/27)

>  <Rbt.Parameter_File>
/export/apps/rDock/src/rDock_2013.1_src/data/scripts/dock_solv.prm

>  <Rbt.Receptor>
prm/pocket_docking_2.prm

>  <SCORE>
-56.5037

>  <SCORE.INTER>
-56.6465

>  <SCORE.INTER.CONST>
1

>  <SCORE.INTER.POLAR>
0

>  <SCORE.INTER.ROT>
3

>  <SCORE.INTER.SOLV>
8.98883

>  <SCORE.INTER.VDW>
-46.3606

>  <SCORE.INTER.norm>
-2.17871

>  <SCORE.INTRA>
0.142796

>  <SCORE.INTRA.DIHEDRAL>
0.000276524

>  <SCORE.INTRA.DIHEDRAL.0>
3.60016

>  <SCORE.INTRA.POLAR>
0

>  <SCORE.INTRA.POLAR.0>
0

>  <SCORE.INTRA.REPUL>
0

>  <SCORE.INTRA.REPUL.0>
0

>  <SCORE.INTRA.SOLV>
1.88468e-05

>  <SCORE.INTRA.SOLV.lig_0>
-10.9882

>  <SCORE.INTRA.VDW>
0.142649

>  <SCORE.INTRA.VDW.0>
1.84442

>  <SCORE.INTRA.norm>
0.00549217

>  <SCORE.RESTR>
0

>  <SCORE.RESTR.CAVITY>
0

>  <SCORE.RESTR.norm>
0

>  <SCORE.SYSTEM>
0

>  <SCORE.SYSTEM.CONST>
0

>  <SCORE.SYSTEM.DIHEDRAL>
0

>  <SCORE.SYSTEM.SOLV>
0

>  <SCORE.SYSTEM.norm>
0

>  <SCORE.heavy>
26

>  <SCORE.norm>
-2.17322

>  <RMSD>
0.724

$$$$
ligand
 OpenBabel02271912153D
libRbt.so/2013.1/901 2013/11/27
 26 29  0  0  0  0  0  0  0  0999 V2000
  112.2298  -79.3915  -87.1341 C   0  0  1  0  0  0  0  0  0  0  0  0
  112.7307  -80.6202  -87.5398 N   0  0  0  0  0  0  0  0  0  0  0  0
  112.3542  -78.9774  -85.7444 C   0  0  0  0  0  0  0  0  0  0  0  0
  111.3467  -74.4034  -80.6244 N   0  0  0  0  0  0  0  0  0  0  0  0
  111.9529  -77.3471  -84.0618 O   0  0  0  0  0  0  0  0  0  0  0  0
  111.7997  -77.7203  -85.4960 C   0  0  2  0  0  0  0  0  0  0  0  0
  111.4344  -76.2023  -83.8419 C   0  0  1  0  0  0  0  0  0  0  0  0
  111.6447  -75.9240  -82.4214 C   0  0  0  0  0  0  0  0  0  0  0  0
  111.1096  -74.6601  -81.9856 C   0  0  2  0  0  0  0  0  0  0  0  0
  110.4294  -73.7761  -82.8594 C   0  0  0  0  0  0  0  0  0  0  0  0
  110.2617  -74.1074  -84.2622 C   0  0  0  0  0  0  0  0  0  0  0  0
  110.8027  -75.3621  -84.7241 C   0  0  2  0  0  0  0  0  0  0  0  0
  110.5986  -75.6209  -86.1983 C   0  0  1  0  0  0  0  0  0  0  0  0
  111.1753  -76.8852  -86.4159 C   0  0  2  0  0  0  0  0  0  0  0  0
  111.0664  -77.3169  -87.8111 C   0  0  0  0  0  0  0  0  0  0  0  0
  111.6238  -78.6025  -88.0924 C   0  0  0  0  0  0  0  0  0  0  0  0
  109.9611  -74.7290  -87.0398 C   0  0  0  0  0  0  0  0  0  0  0  0
  110.3062  -73.3676  -87.2063 C   0  0  0  0  0  0  0  0  0  0  0  0
  109.6851  -72.4576  -88.0638 C   0  0  0  0  0  0  0  0  0  0  0  0
  108.5711  -72.8947  -88.8919 C   0  0  0  0  0  0  0  0  0  0  0  0
  108.2438  -74.2576  -88.6935 C   0  0  0  0  0  0  0  0  0  0  0  0
  108.8351  -75.2029  -87.8440 C   0  0  0  0  0  0  0  0  0  0  0  0
  113.2868  -81.5831  -86.5933 C   0  0  0  0  0  0  0  0  0  0  0  0
  112.7736  -81.1362  -88.9246 C   0  0  0  0  0  0  0  0  0  0  0  0
  111.9976  -75.2132  -79.5704 C   0  0  0  0  0  0  0  0  0  0  0  0
  110.8950  -73.0722  -80.0850 C   0  0  0  0  0  0  0  0  0  0  0  0
  1  2  1  6  0  0  0
  1  3  1  0  0  0  0
  1 16  1  0  0  0  0
  2 23  1  0  0  0  0
  2 24  1  0  0  0  0
  4 25  1  0  0  0  0
  4 26  1  0  0  0  0
  5  6  1  0  0  0  0
  6  3  1  1  0  0  0
  6 14  1  0  0  0  0
  7  5  1  6  0  0  0
  7  8  1  0  0  0  0
  7 12  1  0  0  0  0
  8  9  1  0  0  0  0
  9  4  1  6  0  0  0
  9 10  1  0  0  0  0
 10 11  1  0  0  0  0
 12 11  1  1  0  0  0
 12 13  1  0  0  0  0
 13 14  1  0  0  0  0
 13 17  1  1  0  0  0
 14 15  1  1  0  0  0
 15 16  1  0  0  0  0
 17 18  1  0  0  0  0
 17 22  1  0  0  0  0
 18 19  1  0  0  0  0
 19 20  1  0  0  0  0
 20 21  1  0  0  0  0
 21 22  1  0  0  0  0
M  END
>  <CHROM.1>
5.39899619,-2.43382546,54.12611886,111.10930193,-76.27266645,-85.37198911
-1.26639879,-1.07234313,1.09538400

>  <Name>
ligand

>  <RI>
0

>  <Rbt.Current_Directory>
/home/itssahil/PROJECTS/Mol_Feturizer/Test_systems_manuscript/rnas/1f1t

>  <Rbt.Executable>
rbdock ($Id: //depot/dev/client3/rdock/2013.1/src/exe/rbdock.cxx#4 $)

>  <Rbt.Library>
libRbt.so (2013.1, Build901 2013/11/27)

>  <Rbt.Parameter_File>
/export/apps/rDock/src/rDock_2013.1_src/data/scripts/dock_solv.prm

>  <Rbt.Receptor>
prm/pocket_docking_3.prm

>  <SCORE>
-56.3888

>  <SCORE.INTER>
-56.5403

>  <SCORE.INTER.CONST>
1

>  <SCORE.INTER.POLAR>
0

>  <SCORE.INTER.ROT>
3

>  <SCORE.INTER.SOLV>
9.05507

>  <SCORE.INTER.VDW>
-46.3119

>  <SCORE.INTER.norm>
-2.17463

>  <SCORE.INTRA>
0.151481

>  <SCORE.INTRA.DIHEDRAL>
0.000281891

>  <SCORE.INTRA.DIHEDRAL.0>
3.60016

>  <SCORE.INTRA.POLAR>
0

>  <SCORE.INTRA.POLAR.0>
0

>  <SCORE.INTRA.REPUL>
0

>  <SCORE.INTRA.REPUL.0>
0

>  <SCORE.INTRA.SOLV>
9.32702e-06

>  <SCORE.INTRA.SOLV.lig_0>
-10.9882

>  <SCORE.INTRA.VDW>
0.151335

>  <SCORE.INTRA.VDW.0>
1.84442

>  <SCORE.INTRA.norm>
0.00582618

>  <SCORE.RESTR>
0

>  <SCORE.RESTR.CAVITY>
0

>  <SCORE.RESTR.norm>
0

>  <SCORE.SYSTEM>
0

>  <SCORE.SYSTEM.CONST>
0

>  <SCORE.SYSTEM.DIHEDRAL>
0

>  <SCORE.SYSTEM.SOLV>
0

>  <SCORE.SYSTEM.norm>
0

>  <SCORE.heavy>
26

>  <SCORE.norm>
-2.1688

>  <RMSD>
0.724

$$$$
ligand
 OpenBabel02271912153D
libRbt.so/2013.1/901 2013/11/27
 26 29  0  0  0  0  0  0  0  0999 V2000
  112.2207  -79.4703  -87.1233 C   0  0  1  0  0  0  0  0  0  0  0  0
  112.7486  -80.6940  -87.5090 N   0  0  0  0  0  0  0  0  0  0  0  0
  112.3576  -79.0197  -85.7461 C   0  0  0  0  0  0  0  0  0  0  0  0
  111.3118  -74.3538  -80.7175 N   0  0  0  0  0  0  0  0  0  0  0  0
  111.9402  -77.3613  -84.0953 O   0  0  0  0  0  0  0  0  0  0  0  0
  111.7725  -77.7728  -85.5173 C   0  0  2  0  0  0  0  0  0  0  0  0
  111.3937  -76.2263  -83.8930 C   0  0  1  0  0  0  0  0  0  0  0  0
  111.6209  -75.9083  -82.4834 C   0  0  0  0  0  0  0  0  0  0  0  0
  111.0582  -74.6496  -82.0678 C   0  0  2  0  0  0  0  0  0  0  0  0
  110.3384  -73.8059  -82.9496 C   0  0  0  0  0  0  0  0  0  0  0  0
  110.1556  -74.1752  -84.3410 C   0  0  0  0  0  0  0  0  0  0  0  0
  110.7234  -75.4252  -84.7830 C   0  0  2  0  0  0  0  0  0  0  0  0
  110.5009  -75.7249  -86.2468 C   0  0  1  0  0  0  0  0  0  0  0  0
  111.1089  -76.9776  -86.4451 C   0  0  2  0  0  0  0  0  0  0  0  0
  110.9878  -77.4454  -87.8276 C   0  0  0  0  0  0  0  0  0  0  0  0
  111.5761  -78.7215  -88.0886 C   0  0  0  0  0  0  0  0  0  0  0  0
  109.8241  -74.8713  -87.0973 C   0  0  0  0  0  0  0  0  0  0  0  0
  108.7052  -75.2189  -87.8896 C   0  0  0  0  0  0  0  0  0  0  0  0
  107.9992  -74.3662  -88.7400 C   0  0  0  0  0  0  0  0  0  0  0  0
  108.4060  -72.9743  -88.8630 C   0  0  0  0  0  0  0  0  0  0  0  0
  109.5341  -72.6618  -88.0669 C   0  0  0  0  0  0  0  0  0  0  0  0
  110.2736  -73.4837  -87.2052 C   0  0  0  0  0  0  0  0  0  0  0  0
  112.8234  -81.1009  -88.9094 C   0  0  0  0  0  0  0  0  0  0  0  0
  113.3031  -81.7317  -86.6137 C   0  0  0  0  0  0  0  0  0  0  0  0
  111.9327  -75.1515  -79.6365 C   0  0  0  0  0  0  0  0  0  0  0  0
  110.9186  -72.9862  -80.2257 C   0  0  0  0  0  0  0  0  0  0  0  0
  1  2  1  6  0  0  0
  1  3  1  0  0  0  0
  1 16  1  0  0  0  0
  2 23  1  0  0  0  0
  2 24  1  0  0  0  0
  4 25  1  0  0  0  0
  4 26  1  0  0  0  0
  5  6  1  0  0  0  0
  6  3  1  1  0  0  0
  6 14  1  0  0  0  0
  7  5  1  6  0  0  0
  7  8  1  0  0  0  0
  7 12  1  0  0  0  0
  8  9  1  0  0  0  0
  9  4  1  6  0  0  0
  9 10  1  0  0  0  0
 10 11  1  0  0  0  0
 12 11  1  1  0  0  0
 12 13  1  0  0  0  0
 13 14  1  0  0  0  0
 13 17  1  1  0  0  0
 14 15  1  1  0  0  0
 15 16  1  0  0  0  0
 17 18  1  0  0  0  0
 17 22  1  0  0  0  0
 18 19  1  0  0  0  0
 19 20  1  0  0  0  0
 20 21  1  0  0  0  0
 21 22  1  0  0  0  0
M  END
>  <CHROM.1>
-170.31862398,-6.57913226,-124.98761862,111.05216481,-76.32494137,-85.40924278
-1.25422839,-1.04587225,1.07181349

>  <Name>
ligand

>  <RI>
0

>  <Rbt.Current_Directory>
/home/itssahil/PROJECTS/Mol_Feturizer/Test_systems_manuscript/rnas/1f1t

>  <Rbt.Executable>
rbdock ($Id: //depot/dev/client3/rdock/2013.1/src/exe/rbdock.cxx#4 $)

>  <Rbt.Library>
libRbt.so (2013.1, Build901 2013/11/27)

>  <Rbt.Parameter_File>
/export/apps/rDock/src/rDock_2013.1_src/data/scripts/dock_solv.prm

>  <Rbt.Receptor>
prm/pocket_docking_3.prm

>  <SCORE>
-55.7314

>  <SCORE.INTER>
-56.1255

>  <SCORE.INTER.CONST>
1

>  <SCORE.INTER.POLAR>
0

>  <SCORE.INTER.ROT>
3

>  <SCORE.INTER.SOLV>
8.87508

>  <SCORE.INTER.VDW>
-45.9754

>  <SCORE.INTER.norm>
-2.15867

>  <SCORE.INTRA>
0.394093

>  <SCORE.INTRA.DIHEDRAL>
-1.54634e-05

>  <SCORE.INTRA.DIHEDRAL.0>
3.60016

>  <SCORE.INTRA.POLAR>
0

>  <SCORE.INTRA.POLAR.0>
0

>  <SCORE.INTRA.REPUL>
0

>  <SCORE.INTRA.REPUL.0>
0

>  <SCORE.INTRA.SOLV>
4.23699e-05

>  <SCORE.INTRA.SOLV.lig_0>
-10.9882

>  <SCORE.INTRA.VDW>
0.394079

>  <SCORE.INTRA.VDW.0>
1.84442

>  <SCORE.INTRA.norm>
0.0151574

>  <SCORE.RESTR>
0

>  <SCORE.RESTR.CAVITY>
0

>  <SCORE.RESTR.norm>
0

>  <SCORE.SYSTEM>
0

>  <SCORE.SYSTEM.CONST>
0

>  <SCORE.SYSTEM.DIHEDRAL>
0

>  <SCORE.SYSTEM.SOLV>
0

>  <SCORE.SYSTEM.norm>
0

>  <SCORE.heavy>
26

>  <SCORE.norm>
-2.14352

>  <RMSD>
0.724

$$$$
ligand
 OpenBabel02271912153D
libRbt.so/2013.1/901 2013/11/27
 26 29  0  0  0  0  0  0  0  0999 V2000
  112.2348  -79.4244  -87.1195 C   0  0  1  0  0  0  0  0  0  0  0  0
  112.7380  -80.6553  -87.5157 N   0  0  0  0  0  0  0  0  0  0  0  0
  112.3568  -79.0002  -85.7326 C   0  0  0  0  0  0  0  0  0  0  0  0
  111.3360  -74.3911  -80.6469 N   0  0  0  0  0  0  0  0  0  0  0  0
  111.9510  -77.3585  -84.0623 O   0  0  0  0  0  0  0  0  0  0  0  0
  111.8001  -77.7422  -85.4940 C   0  0  2  0  0  0  0  0  0  0  0  0
  111.4304  -76.2129  -83.8513 C   0  0  1  0  0  0  0  0  0  0  0  0
  111.6385  -75.9241  -82.4325 C   0  0  0  0  0  0  0  0  0  0  0  0
  111.1009  -74.6579  -82.0066 C   0  0  2  0  0  0  0  0  0  0  0  0
  110.4206  -73.7812  -82.8875 C   0  0  0  0  0  0  0  0  0  0  0  0
  110.2552  -74.1228  -84.2881 C   0  0  0  0  0  0  0  0  0  0  0  0
  110.7986  -75.3800  -84.7403 C   0  0  2  0  0  0  0  0  0  0  0  0
  110.5968  -75.6497  -86.2129 C   0  0  1  0  0  0  0  0  0  0  0  0
  111.1756  -76.9146  -86.4206 C   0  0  2  0  0  0  0  0  0  0  0  0
  111.0692  -77.3565  -87.8129 C   0  0  0  0  0  0  0  0  0  0  0  0
  111.6288  -78.6432  -88.0842 C   0  0  0  0  0  0  0  0  0  0  0  0
  109.9591  -74.7648  -87.0615 C   0  0  0  0  0  0  0  0  0  0  0  0
  110.2925  -73.4002  -87.2260 C   0  0  0  0  0  0  0  0  0  0  0  0
  109.6712  -72.4971  -88.0904 C   0  0  0  0  0  0  0  0  0  0  0  0
  108.5698  -72.9458  -88.9292 C   0  0  0  0  0  0  0  0  0  0  0  0
  108.2539  -74.3117  -88.7327 C   0  0  0  0  0  0  0  0  0  0  0  0
  108.8458  -75.2504  -87.8765 C   0  0  0  0  0  0  0  0  0  0  0  0
  113.2623  -81.6248  -86.5579 C   0  0  0  0  0  0  0  0  0  0  0  0
  112.8143  -81.1673  -88.9006 C   0  0  0  0  0  0  0  0  0  0  0  0
  111.9558  -75.2061  -79.5782 C   0  0  0  0  0  0  0  0  0  0  0  0
  110.9192  -73.0408  -80.1273 C   0  0  0  0  0  0  0  0  0  0  0  0
  1  2  1  6  0  0  0
  1  3  1  0  0  0  0
  1 16  1  0  0  0  0
  2 23  1  0  0  0  0
  2 24  1  0  0  0  0
  4 25  1  0  0  0  0
  4 26  1  0  0  0  0
  5  6  1  0  0  0  0
  6  3  1  1  0  0  0
  6 14  1  0  0  0  0
  7  5  1  6  0  0  0
  7  8  1  0  0  0  0
  7 12  1  0  0  0  0
  8  9  1  0  0  0  0
  9  4  1  6  0  0  0
  9 10  1  0  0  0  0
 10 11  1  0  0  0  0
 12 11  1  1  0  0  0
 12 13  1  0  0  0  0
 13 14  1  0  0  0  0
 13 17  1  1  0  0  0
 14 15  1  1  0  0  0
 15 16  1  0  0  0  0
 17 18  1  0  0  0  0
 17 22  1  0  0  0  0
 18 19  1  0  0  0  0
 19 20  1  0  0  0  0
 20 21  1  0  0  0  0
 21 22  1  0  0  0  0
M  END
>  <CHROM.1>
7.03536167,-4.23148457,53.35212469,111.10778395,-76.29464511,-85.38139398
-1.26255159,-1.07273955,1.09167392

>  <Name>
ligand

>  <RI>
0

>  <Rbt.Current_Directory>
/home/itssahil/PROJECTS/Mol_Feturizer/Test_systems_manuscript/rnas/1f1t

>  <Rbt.Executable>
rbdock ($Id: //depot/dev/client3/rdock/2013.1/src/exe/rbdock.cxx#4 $)

>  <Rbt.Library>
libRbt.so (2013.1, Build901 2013/11/27)

>  <Rbt.Parameter_File>
/export/apps/rDock/src/rDock_2013.1_src/data/scripts/dock_solv.prm

>  <Rbt.Receptor>
prm/pocket_docking_4.prm

>  <SCORE>
-56.4656

>  <SCORE.INTER>
-56.6042

>  <SCORE.INTER.CONST>
1

>  <SCORE.INTER.POLAR>
0

>  <SCORE.INTER.ROT>
3

>  <SCORE.INTER.SOLV>
8.99074

>  <SCORE.INTER.VDW>
-46.333

>  <SCORE.INTER.norm>
-2.17708

>  <SCORE.INTRA>
0.138615

>  <SCORE.INTRA.DIHEDRAL>
0.000274845

>  <SCORE.INTRA.DIHEDRAL.0>
3.60016

>  <SCORE.INTRA.POLAR>
0

>  <SCORE.INTRA.POLAR.0>
0

>  <SCORE.INTRA.REPUL>
0

>  <SCORE.INTRA.REPUL.0>
0

>  <SCORE.INTRA.SOLV>
1.92348e-05

>  <SCORE.INTRA.SOLV.lig_0>
-10.9882

>  <SCORE.INTRA.VDW>
0.138468

>  <SCORE.INTRA.VDW.0>
1.84442

>  <SCORE.INTRA.norm>
0.00533134

>  <SCORE.RESTR>
0

>  <SCORE.RESTR.CAVITY>
0

>  <SCORE.RESTR.norm>
0

>  <SCORE.SYSTEM>
0

>  <SCORE.SYSTEM.CONST>
0

>  <SCORE.SYSTEM.DIHEDRAL>
0

>  <SCORE.SYSTEM.SOLV>
0

>  <SCORE.SYSTEM.norm>
0

>  <SCORE.heavy>
26

>  <SCORE.norm>
-2.17175

>  <RMSD>
0.724

$$$$
ligand
 OpenBabel02271912153D
libRbt.so/2013.1/901 2013/11/27
 26 29  0  0  0  0  0  0  0  0999 V2000
  112.2262  -79.4156  -87.1173 C   0  0  1  0  0  0  0  0  0  0  0  0
  112.7292  -80.6464  -87.5138 N   0  0  0  0  0  0  0  0  0  0  0  0
  112.3502  -78.9908  -85.7307 C   0  0  0  0  0  0  0  0  0  0  0  0
  111.3361  -74.3802  -80.6450 N   0  0  0  0  0  0  0  0  0  0  0  0
  111.9466  -77.3487  -84.0603 O   0  0  0  0  0  0  0  0  0  0  0  0
  111.7935  -77.7329  -85.4916 C   0  0  2  0  0  0  0  0  0  0  0  0
  111.4259  -76.2032  -83.8489 C   0  0  1  0  0  0  0  0  0  0  0  0
  111.6362  -75.9138  -82.4306 C   0  0  0  0  0  0  0  0  0  0  0  0
  111.0989  -74.6476  -82.0042 C   0  0  2  0  0  0  0  0  0  0  0  0
  110.4168  -73.7715  -82.8844 C   0  0  0  0  0  0  0  0  0  0  0  0
  110.2493  -74.1137  -84.2846 C   0  0  0  0  0  0  0  0  0  0  0  0
  110.7924  -75.3709  -84.7371 C   0  0  2  0  0  0  0  0  0  0  0  0
  110.5883  -75.6412  -86.2093 C   0  0  1  0  0  0  0  0  0  0  0  0
  111.1672  -76.9059  -86.4176 C   0  0  2  0  0  0  0  0  0  0  0  0
  111.0587  -77.3484  -87.8095 C   0  0  0  0  0  0  0  0  0  0  0  0
  111.6184  -78.6350  -88.0812 C   0  0  0  0  0  0  0  0  0  0  0  0
  109.9488  -74.7568  -87.0572 C   0  0  0  0  0  0  0  0  0  0  0  0
  110.2879  -73.3946  -87.2302 C   0  0  0  0  0  0  0  0  0  0  0  0
  109.6648  -72.4922  -88.0941 C   0  0  0  0  0  0  0  0  0  0  0  0
  108.5552  -72.9391  -88.9229 C   0  0  0  0  0  0  0  0  0  0  0  0
  108.2338  -74.3024  -88.7181 C   0  0  0  0  0  0  0  0  0  0  0  0
  108.8273  -75.2404  -87.8620 C   0  0  0  0  0  0  0  0  0  0  0  0
  113.2637  -81.6117  -86.5574 C   0  0  0  0  0  0  0  0  0  0  0  0
  112.7954  -81.1625  -88.8977 C   0  0  0  0  0  0  0  0  0  0  0  0
  111.9623  -75.1927  -79.5782 C   0  0  0  0  0  0  0  0  0  0  0  0
  110.9142  -73.0321  -80.1239 C   0  0  0  0  0  0  0  0  0  0  0  0
  1  2  1  6  0  0  0
  1  3  1  0  0  0  0
  1 16  1  0  0  0  0
  2 23  1  0  0  0  0
  2 24  1  0  0  0  0
  4 25  1  0  0  0  0
  4 26  1  0  0  0  0
  5  6  1  0  0  0  0
  6  3  1  1  0  0  0
  6 14  1  0  0  0  0
  7  5  1  6  0  0  0
  7  8  1  0  0  0  0
  7 12  1  0  0  0  0
  8  9  1  0  0  0  0
  9  4  1  6  0  0  0
  9 10  1  0  0  0  0
 10 11  1  0  0  0  0
 12 11  1  1  0  0  0
 12 13  1  0  0  0  0
 13 14  1  0  0  0  0
 13 17  1  1  0  0  0
 14 15  1  1  0  0  0
 15 16  1  0  0  0  0
 17 18  1  0  0  0  0
 17 22  1  0  0  0  0
 18 19  1  0  0  0  0
 19 20  1  0  0  0  0
 20 21  1  0  0  0  0
 21 22  1  0  0  0  0
M  END
>  <CHROM.1>
6.61073323,-3.97421822,53.85260454,111.10073313,-76.28560291,-85.37838846
-1.26521604,-1.07140399,1.08891860

>  <Name>
ligand

>  <RI>
0

>  <Rbt.Current_Directory>
/home/itssahil/PROJECTS/Mol_Feturizer/Test_systems_manuscript/rnas/1f1t

>  <Rbt.Executable>
rbdock ($Id: //depot/dev/client3/rdock/2013.1/src/exe/rbdock.cxx#4 $)

>  <Rbt.Library>
libRbt.so (2013.1, Build901 2013/11/27)

>  <Rbt.Parameter_File>
/export/apps/rDock/src/rDock_2013.1_src/data/scripts/dock_solv.prm

>  <Rbt.Receptor>
prm/pocket_docking_5.prm

>  <SCORE>
-56.4838

>  <SCORE.INTER>
-56.6184

>  <SCORE.INTER.CONST>
1

>  <SCORE.INTER.POLAR>
0

>  <SCORE.INTER.ROT>
3

>  <SCORE.INTER.SOLV>
8.99606

>  <SCORE.INTER.VDW>
-46.3443

>  <SCORE.INTER.norm>
-2.17763

>  <SCORE.INTRA>
0.134555

>  <SCORE.INTRA.DIHEDRAL>
0.00027708

>  <SCORE.INTRA.DIHEDRAL.0>
3.60016

>  <SCORE.INTRA.POLAR>
0

>  <SCORE.INTRA.POLAR.0>
0

>  <SCORE.INTRA.REPUL>
0

>  <SCORE.INTRA.REPUL.0>
0

>  <SCORE.INTRA.SOLV>
1.64773e-05

>  <SCORE.INTRA.SOLV.lig_0>
-10.9882

>  <SCORE.INTRA.VDW>
0.134409

>  <SCORE.INTRA.VDW.0>
1.84442

>  <SCORE.INTRA.norm>
0.0051752

>  <SCORE.RESTR>
0

>  <SCORE.RESTR.CAVITY>
0

>  <SCORE.RESTR.norm>
0

>  <SCORE.SYSTEM>
0

>  <SCORE.SYSTEM.CONST>
0

>  <SCORE.SYSTEM.DIHEDRAL>
0

>  <SCORE.SYSTEM.SOLV>
0

>  <SCORE.SYSTEM.norm>
0

>  <SCORE.heavy>
26

>  <SCORE.norm>
-2.17246

>  <RMSD>
0.724

$$$$
ligand
 OpenBabel02271912153D
libRbt.so/2013.1/901 2013/11/27
 26 29  0  0  0  0  0  0  0  0999 V2000
  112.1955  -79.4091  -87.1165 C   0  0  1  0  0  0  0  0  0  0  0  0
  112.6918  -80.6417  -87.5161 N   0  0  0  0  0  0  0  0  0  0  0  0
  112.3256  -78.9865  -85.7298 C   0  0  0  0  0  0  0  0  0  0  0  0
  111.3473  -74.3776  -80.6355 N   0  0  0  0  0  0  0  0  0  0  0  0
  111.9343  -77.3447  -84.0563 O   0  0  0  0  0  0  0  0  0  0  0  0
  111.7752  -77.7265  -85.4875 C   0  0  2  0  0  0  0  0  0  0  0  0
  111.4194  -76.1971  -83.8419 C   0  0  1  0  0  0  0  0  0  0  0  0
  111.6353  -75.9104  -82.4239 C   0  0  0  0  0  0  0  0  0  0  0  0
  111.1049  -74.6424  -81.9943 C   0  0  2  0  0  0  0  0  0  0  0  0
  110.4240  -73.7622  -82.8714 C   0  0  0  0  0  0  0  0  0  0  0  0
  110.2507  -74.1019  -84.2715 C   0  0  0  0  0  0  0  0  0  0  0  0
  110.7869  -75.3609  -84.7272 C   0  0  2  0  0  0  0  0  0  0  0  0
  110.5771  -75.6286  -86.1990 C   0  0  1  0  0  0  0  0  0  0  0  0
  111.1498  -76.8956  -86.4106 C   0  0  2  0  0  0  0  0  0  0  0  0
  111.0350  -77.3359  -87.8027 C   0  0  0  0  0  0  0  0  0  0  0  0
  111.5882  -78.6246  -88.0776 C   0  0  0  0  0  0  0  0  0  0  0  0
  109.9390  -74.7403  -87.0440 C   0  0  0  0  0  0  0  0  0  0  0  0
  110.2720  -73.3750  -87.2029 C   0  0  0  0  0  0  0  0  0  0  0  0
  109.6503  -72.4685  -88.0635 C   0  0  0  0  0  0  0  0  0  0  0  0
  108.5490  -72.9141  -88.9040 C   0  0  0  0  0  0  0  0  0  0  0  0
  108.2335  -74.2808  -88.7131 C   0  0  0  0  0  0  0  0  0  0  0  0
  108.8258  -75.2229  -87.8608 C   0  0  0  0  0  0  0  0  0  0  0  0
  113.2247  -81.6105  -86.5623 C   0  0  0  0  0  0  0  0  0  0  0  0
  112.7517  -81.1563  -88.9008 C   0  0  0  0  0  0  0  0  0  0  0  0
  111.9859  -75.1887  -79.5750 C   0  0  0  0  0  0  0  0  0  0  0  0
  110.9176  -73.0347  -80.1075 C   0  0  0  0  0  0  0  0  0  0  0  0
  1  2  1  6  0  0  0
  1  3  1  0  0  0  0
  1 16  1  0  0  0  0
  2 23  1  0  0  0  0
  2 24  1  0  0  0  0
  4 25  1  0  0  0  0
  4 26  1  0  0  0  0
  5  6  1  0  0  0  0
  6  3  1  1  0  0  0
  6 14  1  0  0  0  0
  7  5  1  6  0  0  0
  7  8  1  0  0  0  0
  7 12  1  0  0  0  0
  8  9  1  0  0  0  0
  9  4  1  6  0  0  0
  9 10  1  0  0  0  0
 10 11  1  0  0  0  0
 12 11  1  1  0  0  0
 12 13  1  0  0  0  0
 13 14  1  0  0  0  0
 13 17  1  1  0  0  0
 14 15  1  1  0  0  0
 15 16  1  0  0  0  0
 17 18  1  0  0  0  0
 17 22  1  0  0  0  0
 18 19  1  0  0  0  0
 19 20  1  0  0  0  0
 20 21  1  0  0  0  0
 21 22  1  0  0  0  0
M  END
>  <CHROM.1>
6.61920724,-3.24006668,52.94466581,111.08918508,-76.27630823,-85.37051493
-1.27516469,-1.07377412,1.08146163

>  <Name>
ligand

>  <RI>
0

>  <Rbt.Current_Directory>
/home/itssahil/PROJECTS/Mol_Feturizer/Test_systems_manuscript/rnas/1f1t

>  <Rbt.Executable>
rbdock ($Id: //depot/dev/client3/rdock/2013.1/src/exe/rbdock.cxx#4 $)

>  <Rbt.Library>
libRbt.so (2013.1, Build901 2013/11/27)

>  <Rbt.Parameter_File>
/export/apps/rDock/src/rDock_2013.1_src/data/scripts/dock_solv.prm

>  <Rbt.Receptor>
prm/pocket_docking_2.prm

>  <SCORE>
-56.3795

>  <SCORE.INTER>
-56.5401

>  <SCORE.INTER.CONST>
1

>  <SCORE.INTER.POLAR>
0

>  <SCORE.INTER.ROT>
3

>  <SCORE.INTER.SOLV>
8.95719

>  <SCORE.INTER.VDW>
-46.2791

>  <SCORE.INTER.norm>
-2.17462

>  <SCORE.INTRA>
0.160522

>  <SCORE.INTRA.DIHEDRAL>
0.000276728

>  <SCORE.INTRA.DIHEDRAL.0>
3.60016

>  <SCORE.INTRA.POLAR>
0

>  <SCORE.INTRA.POLAR.0>
0

>  <SCORE.INTRA.REPUL>
0

>  <SCORE.INTRA.REPUL.0>
0

>  <SCORE.INTRA.SOLV>
1.59659e-05

>  <SCORE.INTRA.SOLV.lig_0>
-10.9882

>  <SCORE.INTRA.VDW>
0.160376

>  <SCORE.INTRA.VDW.0>
1.84442

>  <SCORE.INTRA.norm>
0.00617392

>  <SCORE.RESTR>
0

>  <SCORE.RESTR.CAVITY>
0

>  <SCORE.RESTR.norm>
0

>  <SCORE.SYSTEM>
0

>  <SCORE.SYSTEM.CONST>
0

>  <SCORE.SYSTEM.DIHEDRAL>
0

>  <SCORE.SYSTEM.SOLV>
0

>  <SCORE.SYSTEM.norm>
0

>  <SCORE.heavy>
26

>  <SCORE.norm>
-2.16844

>  <RMSD>
0.726

$$$$
ligand
 OpenBabel02271912153D
libRbt.so/2013.1/901 2013/11/27
 26 29  0  0  0  0  0  0  0  0999 V2000
  112.2203  -79.4166  -87.1121 C   0  0  1  0  0  0  0  0  0  0  0  0
  112.7197  -80.6490  -87.5084 N   0  0  0  0  0  0  0  0  0  0  0  0
  112.3463  -78.9915  -85.7258 C   0  0  0  0  0  0  0  0  0  0  0  0
  111.3476  -74.3757  -80.6417 N   0  0  0  0  0  0  0  0  0  0  0  0
  111.9480  -77.3475  -84.0560 O   0  0  0  0  0  0  0  0  0  0  0  0
  111.7931  -77.7320  -85.4870 C   0  0  2  0  0  0  0  0  0  0  0  0
  111.4307  -76.2004  -83.8448 C   0  0  1  0  0  0  0  0  0  0  0  0
  111.6426  -75.9110  -82.4267 C   0  0  0  0  0  0  0  0  0  0  0  0
  111.1090  -74.6432  -82.0007 C   0  0  2  0  0  0  0  0  0  0  0  0
  110.4289  -73.7655  -82.8809 C   0  0  0  0  0  0  0  0  0  0  0  0
  110.2596  -74.1079  -84.2809 C   0  0  0  0  0  0  0  0  0  0  0  0
  110.7990  -75.3668  -84.7331 C   0  0  2  0  0  0  0  0  0  0  0  0
  110.5934  -75.6372  -86.2051 C   0  0  1  0  0  0  0  0  0  0  0  0
  111.1687  -76.9037  -86.4130 C   0  0  2  0  0  0  0  0  0  0  0  0
  111.0582  -77.3464  -87.8047 C   0  0  0  0  0  0  0  0  0  0  0  0
  111.6141  -78.6347  -88.0761 C   0  0  0  0  0  0  0  0  0  0  0  0
  109.9560  -74.7514  -87.0531 C   0  0  0  0  0  0  0  0  0  0  0  0
  110.2907  -73.3871  -87.2175 C   0  0  0  0  0  0  0  0  0  0  0  0
  109.6697  -72.4832  -88.0813 C   0  0  0  0  0  0  0  0  0  0  0  0
  108.5673  -72.9306  -88.9194 C   0  0  0  0  0  0  0  0  0  0  0  0
  108.2500  -74.2962  -88.7230 C   0  0  0  0  0  0  0  0  0  0  0  0
  108.8416  -75.2357  -87.8673 C   0  0  0  0  0  0  0  0  0  0  0  0
  112.7702  -81.0519  -88.9110 C   0  0  0  0  0  0  0  0  0  0  0  0
  113.2641  -81.7007  -86.6233 C   0  0  0  0  0  0  0  0  0  0  0  0
  112.0061  -75.1743  -79.5839 C   0  0  0  0  0  0  0  0  0  0  0  0
  110.8884  -73.0440  -80.1102 C   0  0  0  0  0  0  0  0  0  0  0  0
  1  2  1  6  0  0  0
  1  3  1  0  0  0  0
  1 16  1  0  0  0  0
  2 23  1  0  0  0  0
  2 24  1  0  0  0  0
  4 25  1  0  0  0  0
  4 26  1  0  0  0  0
  5  6  1  0  0  0  0
  6  3  1  1  0  0  0
  6 14  1  0  0  0  0
  7  5  1  6  0  0  0
  7  8  1  0  0  0  0
  7 12  1  0  0  0  0
  8  9  1  0  0  0  0
  9  4  1  6  0  0  0
  9 10  1  0  0  0  0
 10 11  1  0  0  0  0
 12 11  1  1  0  0  0
 12 13  1  0  0  0  0
 13 14  1  0  0  0  0
 13 17  1  1  0  0  0
 14 15  1  1  0  0  0
 15 16  1  0  0  0  0
 17 18  1  0  0  0  0
 17 22  1  0  0  0  0
 18 19  1  0  0  0  0
 19 20  1  0  0  0  0
 20 21  1  0  0  0  0
 21 22  1  0  0  0  0
M  END
>  <CHROM.1>
-172.17564434,-1.99466812,53.22245313,111.10416836,-76.28149248,-85.37817359
-1.26922530,-1.07280084,1.08720904

>  <Name>
ligand

>  <RI>
0

>  <Rbt.Current_Directory>
/home/itssahil/PROJECTS/Mol_Feturizer/Test_systems_manuscript/rnas/1f1t

>  <Rbt.Executable>
rbdock ($Id: //depot/dev/client3/rdock/2013.1/src/exe/rbdock.cxx#4 $)

>  <Rbt.Library>
libRbt.so (2013.1, Build901 2013/11/27)

>  <Rbt.Parameter_File>
/export/apps/rDock/src/rDock_2013.1_src/data/scripts/dock_solv.prm

>  <Rbt.Receptor>
prm/pocket_docking_4.prm

>  <SCORE>
-56.2912

>  <SCORE.INTER>
-56.7292

>  <SCORE.INTER.CONST>
1

>  <SCORE.INTER.POLAR>
0

>  <SCORE.INTER.ROT>
3

>  <SCORE.INTER.SOLV>
8.96501

>  <SCORE.INTER.VDW>
-46.4078

>  <SCORE.INTER.norm>
-2.18189

>  <SCORE.INTRA>
0.438003

>  <SCORE.INTRA.DIHEDRAL>
0.000293118

>  <SCORE.INTRA.DIHEDRAL.0>
3.60016

>  <SCORE.INTRA.POLAR>
0

>  <SCORE.INTRA.POLAR.0>
0

>  <SCORE.INTRA.REPUL>
0

>  <SCORE.INTRA.REPUL.0>
0

>  <SCORE.INTRA.SOLV>
2.3229e-05

>  <SCORE.INTRA.SOLV.lig_0>
-10.9882

>  <SCORE.INTRA.VDW>
0.437845

>  <SCORE.INTRA.VDW.0>
1.84442

>  <SCORE.INTRA.norm>
0.0168463

>  <SCORE.RESTR>
0

>  <SCORE.RESTR.CAVITY>
0

>  <SCORE.RESTR.norm>
0

>  <SCORE.SYSTEM>
0

>  <SCORE.SYSTEM.CONST>
0

>  <SCORE.SYSTEM.DIHEDRAL>
0

>  <SCORE.SYSTEM.SOLV>
0

>  <SCORE.SYSTEM.norm>
0

>  <SCORE.heavy>
26

>  <SCORE.norm>
-2.16505

>  <RMSD>
0.726

$$$$
ligand
 OpenBabel02271912153D
libRbt.so/2013.1/901 2013/11/27
 26 29  0  0  0  0  0  0  0  0999 V2000
  111.2761  -74.6503  -81.8906 C   0  0  1  0  0  0  0  0  0  0  0  0
  111.4553  -74.3125  -80.5568 N   0  0  0  0  0  0  0  0  0  0  0  0
  111.7646  -75.9270  -82.3903 C   0  0  0  0  0  0  0  0  0  0  0  0
  112.6715  -80.5416  -87.4927 N   0  0  0  0  0  0  0  0  0  0  0  0
  112.0307  -77.4348  -84.2085 O   0  0  0  0  0  0  0  0  0  0  0  0
  111.5101  -76.1163  -83.7500 C   0  0  2  0  0  0  0  0  0  0  0  0
  111.8031  -77.5946  -85.4537 C   0  0  1  0  0  0  0  0  0  0  0  0
  112.3371  -78.9113  -85.8014 C   0  0  0  0  0  0  0  0  0  0  0  0
  112.1750  -79.2625  -87.1885 C   0  0  2  0  0  0  0  0  0  0  0  0
  111.5628  -78.3977  -88.1293 C   0  0  0  0  0  0  0  0  0  0  0  0
  111.0446  -77.1063  -87.7179 C   0  0  0  0  0  0  0  0  0  0  0  0
  111.1831  -76.7396  -86.3298 C   0  0  2  0  0  0  0  0  0  0  0  0
  110.6035  -75.3881  -85.9841 C   0  0  1  0  0  0  0  0  0  0  0  0
  110.8669  -75.2340  -84.6111 C   0  0  2  0  0  0  0  0  0  0  0  0
  110.3763  -73.9573  -84.0874 C   0  0  0  0  0  0  0  0  0  0  0  0
  110.6267  -73.7367  -82.6977 C   0  0  0  0  0  0  0  0  0  0  0  0
  109.9805  -74.5747  -86.9115 C   0  0  0  0  0  0  0  0  0  0  0  0
  110.3491  -73.2432  -87.2146 C   0  0  0  0  0  0  0  0  0  0  0  0
  109.7429  -72.4137  -88.1597 C   0  0  0  0  0  0  0  0  0  0  0  0
  108.6203  -72.9126  -88.9399 C   0  0  0  0  0  0  0  0  0  0  0  0
  108.2695  -74.2426  -88.6051 C   0  0  0  0  0  0  0  0  0  0  0  0
  108.8453  -75.1075  -87.6643 C   0  0  0  0  0  0  0  0  0  0  0  0
  112.0690  -75.2285  -79.5993 C   0  0  0  0  0  0  0  0  0  0  0  0
  111.0830  -73.0320  -79.9184 C   0  0  0  0  0  0  0  0  0  0  0  0
  113.2737  -81.5905  -86.6398 C   0  0  0  0  0  0  0  0  0  0  0  0
  112.5877  -80.9902  -88.9275 C   0  0  0  0  0  0  0  0  0  0  0  0
  1  2  1  1  0  0  0
  1  3  1  0  0  0  0
  1 16  1  0  0  0  0
  2 23  1  0  0  0  0
  2 24  1  0  0  0  0
  4 25  1  0  0  0  0
  4 26  1  0  0  0  0
  5  6  1  0  0  0  0
  6  3  1  6  0  0  0
  6 14  1  0  0  0  0
  7  5  1  1  0  0  0
  7  8  1  0  0  0  0
  7 12  1  0  0  0  0
  8  9  1  0  0  0  0
  9  4  1  1  0  0  0
  9 10  1  0  0  0  0
 10 11  1  0  0  0  0
 12 11  1  6  0  0  0
 12 13  1  0  0  0  0
 13 14  1  0  0  0  0
 13 17  1  6  0  0  0
 14 15  1  6  0  0  0
 15 16  1  0  0  0  0
 17 18  1  0  0  0  0
 17 22  1  0  0  0  0
 18 19  1  0  0  0  0
 19 20  1  0  0  0  0
 20 21  1  0  0  0  0
 21 22  1  0  0  0  0
M  END
>  <CHROM.1>
-3.04157216,2.66117201,-123.47455376,111.14695070,-76.19223227,-85.32689268
-1.80743338,1.07986024,-2.07516731

>  <Name>
ligand

>  <RI>
0

>  <Rbt.Current_Directory>
/home/itssahil/PROJECTS/Mol_Feturizer/Test_systems_manuscript/rnas/1f1t

>  <Rbt.Executable>
rbdock ($Id: //depot/dev/client3/rdock/2013.1/src/exe/rbdock.cxx#4 $)

>  <Rbt.Library>
libRbt.so (2013.1, Build901 2013/11/27)

>  <Rbt.Parameter_File>
/export/apps/rDock/src/rDock_2013.1_src/data/scripts/dock_solv.prm

>  <Rbt.Receptor>
prm/pocket_docking_4.prm

>  <SCORE>
-56.3487

>  <SCORE.INTER>
-56.5251

>  <SCORE.INTER.CONST>
1

>  <SCORE.INTER.POLAR>
0

>  <SCORE.INTER.ROT>
3

>  <SCORE.INTER.SOLV>
9.20018

>  <SCORE.INTER.VDW>
-46.3501

>  <SCORE.INTER.norm>
-2.17404

>  <SCORE.INTRA>
0.176334

>  <SCORE.INTRA.DIHEDRAL>
-1.53004e-05

>  <SCORE.INTRA.DIHEDRAL.0>
3.60016

>  <SCORE.INTRA.POLAR>
0

>  <SCORE.INTRA.POLAR.0>
0

>  <SCORE.INTRA.REPUL>
0

>  <SCORE.INTRA.REPUL.0>
0

>  <SCORE.INTRA.SOLV>
7.26026e-06

>  <SCORE.INTRA.SOLV.lig_0>
-10.9882

>  <SCORE.INTRA.VDW>
0.176338

>  <SCORE.INTRA.VDW.0>
1.84442

>  <SCORE.INTRA.norm>
0.0067821

>  <SCORE.RESTR>
0

>  <SCORE.RESTR.CAVITY>
0

>  <SCORE.RESTR.norm>
0

>  <SCORE.SYSTEM>
0

>  <SCORE.SYSTEM.CONST>
0

>  <SCORE.SYSTEM.DIHEDRAL>
0

>  <SCORE.SYSTEM.SOLV>
0

>  <SCORE.SYSTEM.norm>
0

>  <SCORE.heavy>
26

>  <SCORE.norm>
-2.16726

>  <RMSD>
0.726

$$$$
ligand
 OpenBabel02271912153D
libRbt.so/2013.1/901 2013/11/27
 26 29  0  0  0  0  0  0  0  0999 V2000
  112.2469  -79.4996  -87.1102 C   0  0  1  0  0  0  0  0  0  0  0  0
  112.7749  -80.7257  -87.4884 N   0  0  0  0  0  0  0  0  0  0  0  0
  112.3761  -79.0444  -85.7338 C   0  0  0  0  0  0  0  0  0  0  0  0
  111.3081  -74.3591  -80.7280 N   0  0  0  0  0  0  0  0  0  0  0  0
  111.9517  -77.3795  -84.0913 O   0  0  0  0  0  0  0  0  0  0  0  0
  111.7919  -77.7957  -85.5129 C   0  0  2  0  0  0  0  0  0  0  0  0
  111.4060  -76.2428  -83.8964 C   0  0  1  0  0  0  0  0  0  0  0  0
  111.6251  -75.9202  -82.4866 C   0  0  0  0  0  0  0  0  0  0  0  0
  111.0622  -74.6591  -82.0789 C   0  0  2  0  0  0  0  0  0  0  0  0
  110.3494  -73.8172  -82.9680 C   0  0  0  0  0  0  0  0  0  0  0  0
  110.1745  -74.1910  -84.3592 C   0  0  0  0  0  0  0  0  0  0  0  0
  110.7427  -75.4437  -84.7933 C   0  0  2  0  0  0  0  0  0  0  0  0
  110.5287  -75.7480  -86.2574 C   0  0  1  0  0  0  0  0  0  0  0  0
  111.1356  -77.0025  -86.4475 C   0  0  2  0  0  0  0  0  0  0  0  0
  111.0221  -77.4750  -87.8291 C   0  0  0  0  0  0  0  0  0  0  0  0
  111.6096  -78.7530  -88.0821 C   0  0  0  0  0  0  0  0  0  0  0  0
  109.8587  -74.8962  -87.1150 C   0  0  0  0  0  0  0  0  0  0  0  0
  108.7811  -75.2589  -87.9563 C   0  0  0  0  0  0  0  0  0  0  0  0
  108.0820  -74.4088  -88.8150 C   0  0  0  0  0  0  0  0  0  0  0  0
  108.4511  -73.0033  -88.8934 C   0  0  0  0  0  0  0  0  0  0  0  0
  109.5388  -72.6755  -88.0488 C   0  0  0  0  0  0  0  0  0  0  0  0
  110.2700  -73.4940  -87.1770 C   0  0  0  0  0  0  0  0  0  0  0  0
  112.8642  -81.1346  -88.8873 C   0  0  0  0  0  0  0  0  0  0  0  0
  113.3156  -81.7641  -86.5855 C   0  0  0  0  0  0  0  0  0  0  0  0
  111.9452  -75.1440  -79.6472 C   0  0  0  0  0  0  0  0  0  0  0  0
  110.8846  -73.0007  -80.2354 C   0  0  0  0  0  0  0  0  0  0  0  0
  1  2  1  6  0  0  0
  1  3  1  0  0  0  0
  1 16  1  0  0  0  0
  2 23  1  0  0  0  0
  2 24  1  0  0  0  0
  4 25  1  0  0  0  0
  4 26  1  0  0  0  0
  5  6  1  0  0  0  0
  6  3  1  1  0  0  0
  6 14  1  0  0  0  0
  7  5  1  6  0  0  0
  7  8  1  0  0  0  0
  7 12  1  0  0  0  0
  8  9  1  0  0  0  0
  9  4  1  6  0  0  0
  9 10  1  0  0  0  0
 10 11  1  0  0  0  0
 12 11  1  1  0  0  0
 12 13  1  0  0  0  0
 13 14  1  0  0  0  0
 13 17  1  1  0  0  0
 14 15  1  1  0  0  0
 15 16  1  0  0  0  0
 17 18  1  0  0  0  0
 17 22  1  0  0  0  0
 18 19  1  0  0  0  0
 19 20  1  0  0  0  0
 20 21  1  0  0  0  0
 21 22  1  0  0  0  0
M  END
>  <CHROM.1>
-169.98189479,-5.17055926,-127.90900582,111.07301775,-76.34622517,-85.41401904
-1.24518545,-1.04984949,1.07599856

>  <Name>
ligand

>  <RI>
0

>  <Rbt.Current_Directory>
/home/itssahil/PROJECTS/Mol_Feturizer/Test_systems_manuscript/rnas/1f1t

>  <Rbt.Executable>
rbdock ($Id: //depot/dev/client3/rdock/2013.1/src/exe/rbdock.cxx#4 $)

>  <Rbt.Library>
libRbt.so (2013.1, Build901 2013/11/27)

>  <Rbt.Parameter_File>
/export/apps/rDock/src/rDock_2013.1_src/data/scripts/dock_solv.prm

>  <Rbt.Receptor>
prm/pocket_docking_5.prm

>  <SCORE>
-55.7344

>  <SCORE.INTER>
-56.2275

>  <SCORE.INTER.CONST>
1

>  <SCORE.INTER.POLAR>
0

>  <SCORE.INTER.ROT>
3

>  <SCORE.INTER.SOLV>
8.86752

>  <SCORE.INTER.VDW>
-46.0409

>  <SCORE.INTER.norm>
-2.1626

>  <SCORE.INTRA>
0.49314

>  <SCORE.INTRA.DIHEDRAL>
-4.68586e-07

>  <SCORE.INTRA.DIHEDRAL.0>
3.60016

>  <SCORE.INTRA.POLAR>
0

>  <SCORE.INTRA.POLAR.0>
0

>  <SCORE.INTRA.REPUL>
0

>  <SCORE.INTRA.REPUL.0>
0

>  <SCORE.INTRA.SOLV>
4.27946e-05

>  <SCORE.INTRA.SOLV.lig_0>
-10.9882

>  <SCORE.INTRA.VDW>
0.493119

>  <SCORE.INTRA.VDW.0>
1.84442

>  <SCORE.INTRA.norm>
0.0189669

>  <SCORE.RESTR>
0

>  <SCORE.RESTR.CAVITY>
0

>  <SCORE.RESTR.norm>
0

>  <SCORE.SYSTEM>
0

>  <SCORE.SYSTEM.CONST>
0

>  <SCORE.SYSTEM.DIHEDRAL>
0

>  <SCORE.SYSTEM.SOLV>
0

>  <SCORE.SYSTEM.norm>
0

>  <SCORE.heavy>
26

>  <SCORE.norm>
-2.14363

>  <RMSD>
0.726

$$$$
ligand
 OpenBabel02271912153D
libRbt.so/2013.1/901 2013/11/27
 26 29  0  0  0  0  0  0  0  0999 V2000
  112.2480  -79.4672  -87.1298 C   0  0  1  0  0  0  0  0  0  0  0  0
  112.7775  -80.6899  -87.5169 N   0  0  0  0  0  0  0  0  0  0  0  0
  112.3796  -79.0205  -85.7508 C   0  0  0  0  0  0  0  0  0  0  0  0
  111.3141  -74.3689  -80.7131 N   0  0  0  0  0  0  0  0  0  0  0  0
  111.9558  -77.3668  -84.0969 O   0  0  0  0  0  0  0  0  0  0  0  0
  111.7935  -77.7743  -85.5207 C   0  0  2  0  0  0  0  0  0  0  0  0
  111.4084  -76.2324  -83.8935 C   0  0  1  0  0  0  0  0  0  0  0  0
  111.6301  -75.9184  -82.4822 C   0  0  0  0  0  0  0  0  0  0  0  0
  111.0658  -74.6609  -82.0652 C   0  0  2  0  0  0  0  0  0  0  0  0
  110.3493  -73.8148  -82.9475 C   0  0  0  0  0  0  0  0  0  0  0  0
  110.1719  -74.1801  -84.3406 C   0  0  0  0  0  0  0  0  0  0  0  0
  110.7415  -75.4289  -84.7839 C   0  0  2  0  0  0  0  0  0  0  0  0
  110.5247  -75.7244  -86.2494 C   0  0  1  0  0  0  0  0  0  0  0  0
  111.1335  -76.9765  -86.4488 C   0  0  2  0  0  0  0  0  0  0  0  0
  111.0178  -77.4404  -87.8331 C   0  0  0  0  0  0  0  0  0  0  0  0
  111.6071  -78.7157  -88.0955 C   0  0  0  0  0  0  0  0  0  0  0  0
  109.8511  -74.8685  -87.1000 C   0  0  0  0  0  0  0  0  0  0  0  0
  108.7768  -75.2294  -87.9462 C   0  0  0  0  0  0  0  0  0  0  0  0
  108.0741  -74.3753  -88.7980 C   0  0  0  0  0  0  0  0  0  0  0  0
  108.4353  -72.9671  -88.8629 C   0  0  0  0  0  0  0  0  0  0  0  0
  109.5200  -72.6410  -88.0137 C   0  0  0  0  0  0  0  0  0  0  0  0
  110.2546  -73.4634  -87.1484 C   0  0  0  0  0  0  0  0  0  0  0  0
  113.2891  -81.6562  -86.5490 C   0  0  0  0  0  0  0  0  0  0  0  0
  112.8968  -81.1955  -88.9011 C   0  0  0  0  0  0  0  0  0  0  0  0
  111.9515  -75.1611  -79.6377 C   0  0  0  0  0  0  0  0  0  0  0  0
  110.8938  -73.0127  -80.2122 C   0  0  0  0  0  0  0  0  0  0  0  0
  1  2  1  6  0  0  0
  1  3  1  0  0  0  0
  1 16  1  0  0  0  0
  2 23  1  0  0  0  0
  2 24  1  0  0  0  0
  4 25  1  0  0  0  0
  4 26  1  0  0  0  0
  5  6  1  0  0  0  0
  6  3  1  1  0  0  0
  6 14  1  0  0  0  0
  7  5  1  6  0  0  0
  7  8  1  0  0  0  0
  7 12  1  0  0  0  0
  8  9  1  0  0  0  0
  9  4  1  6  0  0  0
  9 10  1  0  0  0  0
 10 11  1  0  0  0  0
 12 11  1  1  0  0  0
 12 13  1  0  0  0  0
 13 14  1  0  0  0  0
 13 17  1  1  0  0  0
 14 15  1  1  0  0  0
 15 16  1  0  0  0  0
 17 18  1  0  0  0  0
 17 22  1  0  0  0  0
 18 19  1  0  0  0  0
 19 20  1  0  0  0  0
 20 21  1  0  0  0  0
 21 22  1  0  0  0  0
M  END
>  <CHROM.1>
9.72738655,-5.38867063,-128.25748159,111.07202799,-76.32818095,-85.40690645
-1.24639123,-1.04768754,1.07909259

>  <Name>
ligand

>  <RI>
0

>  <Rbt.Current_Directory>
/home/itssahil/PROJECTS/Mol_Feturizer/Test_systems_manuscript/rnas/1f1t

>  <Rbt.Executable>
rbdock ($Id: //depot/dev/client3/rdock/2013.1/src/exe/rbdock.cxx#4 $)

>  <Rbt.Library>
libRbt.so (2013.1, Build901 2013/11/27)

>  <Rbt.Parameter_File>
/export/apps/rDock/src/rDock_2013.1_src/data/scripts/dock_solv.prm

>  <Rbt.Receptor>
prm/pocket_docking_6.prm

>  <SCORE>
-55.9553

>  <SCORE.INTER>
-56.175

>  <SCORE.INTER.CONST>
1

>  <SCORE.INTER.POLAR>
0

>  <SCORE.INTER.ROT>
3

>  <SCORE.INTER.SOLV>
8.90921

>  <SCORE.INTER.VDW>
-46.0198

>  <SCORE.INTER.norm>
-2.16058

>  <SCORE.INTRA>
0.219746

>  <SCORE.INTRA.DIHEDRAL>
-1.21771e-05

>  <SCORE.INTRA.DIHEDRAL.0>
3.60016

>  <SCORE.INTRA.POLAR>
0

>  <SCORE.INTRA.POLAR.0>
0

>  <SCORE.INTRA.REPUL>
0

>  <SCORE.INTRA.REPUL.0>
0

>  <SCORE.INTRA.SOLV>
4.03915e-05

>  <SCORE.INTRA.SOLV.lig_0>
-10.9882

>  <SCORE.INTRA.VDW>
0.219732

>  <SCORE.INTRA.VDW.0>
1.84442

>  <SCORE.INTRA.norm>
0.00845176

>  <SCORE.RESTR>
0

>  <SCORE.RESTR.CAVITY>
0

>  <SCORE.RESTR.norm>
0

>  <SCORE.SYSTEM>
0

>  <SCORE.SYSTEM.CONST>
0

>  <SCORE.SYSTEM.DIHEDRAL>
0

>  <SCORE.SYSTEM.SOLV>
0

>  <SCORE.SYSTEM.norm>
0

>  <SCORE.heavy>
26

>  <SCORE.norm>
-2.15213

>  <RMSD>
0.726

$$$$
ligand
 OpenBabel02271912153D
libRbt.so/2013.1/901 2013/11/27
 26 29  0  0  0  0  0  0  0  0999 V2000
  112.2222  -79.4214  -87.0964 C   0  0  1  0  0  0  0  0  0  0  0  0
  112.7221  -80.6543  -87.4902 N   0  0  0  0  0  0  0  0  0  0  0  0
  112.3483  -78.9933  -85.7111 C   0  0  0  0  0  0  0  0  0  0  0  0
  111.3485  -74.3674  -80.6364 N   0  0  0  0  0  0  0  0  0  0  0  0
  111.9496  -77.3460  -84.0446 O   0  0  0  0  0  0  0  0  0  0  0  0
  111.7946  -77.7335  -85.4747 C   0  0  2  0  0  0  0  0  0  0  0  0
  111.4317  -76.1988  -83.8357 C   0  0  1  0  0  0  0  0  0  0  0  0
  111.6438  -75.9062  -82.4182 C   0  0  0  0  0  0  0  0  0  0  0  0
  111.1096  -74.6378  -81.9947 C   0  0  2  0  0  0  0  0  0  0  0  0
  110.4288  -73.7624  -82.8766 C   0  0  0  0  0  0  0  0  0  0  0  0
  110.2594  -74.1078  -84.2758 C   0  0  0  0  0  0  0  0  0  0  0  0
  110.7994  -75.3673  -84.7255 C   0  0  2  0  0  0  0  0  0  0  0  0
  110.5935  -75.6409  -86.1968 C   0  0  1  0  0  0  0  0  0  0  0  0
  111.1694  -76.9075  -86.4023 C   0  0  2  0  0  0  0  0  0  0  0  0
  111.0588  -77.3533  -87.7930 C   0  0  0  0  0  0  0  0  0  0  0  0
  111.6154  -78.6418  -88.0619 C   0  0  0  0  0  0  0  0  0  0  0  0
  109.9553  -74.7573  -87.0465 C   0  0  0  0  0  0  0  0  0  0  0  0
  110.2464  -73.3784  -87.1663 C   0  0  0  0  0  0  0  0  0  0  0  0
  109.6246  -72.4757  -88.0308 C   0  0  0  0  0  0  0  0  0  0  0  0
  108.5697  -72.9405  -88.9190 C   0  0  0  0  0  0  0  0  0  0  0  0
  108.2950  -74.3209  -88.7667 C   0  0  0  0  0  0  0  0  0  0  0  0
  108.8890  -75.2600  -87.9123 C   0  0  0  0  0  0  0  0  0  0  0  0
  112.7926  -81.0515  -88.8936 C   0  0  0  0  0  0  0  0  0  0  0  0
  113.2481  -81.7122  -86.6014 C   0  0  0  0  0  0  0  0  0  0  0  0
  111.9669  -75.1815  -79.5662 C   0  0  0  0  0  0  0  0  0  0  0  0
  110.9384  -73.0137  -80.1205 C   0  0  0  0  0  0  0  0  0  0  0  0
  1  2  1  6  0  0  0
  1  3  1  0  0  0  0
  1 16  1  0  0  0  0
  2 23  1  0  0  0  0
  2 24  1  0  0  0  0
  4 25  1  0  0  0  0
  4 26  1  0  0  0  0
  5  6  1  0  0  0  0
  6  3  1  1  0  0  0
  6 14  1  0  0  0  0
  7  5  1  6  0  0  0
  7  8  1  0  0  0  0
  7 12  1  0  0  0  0
  8  9  1  0  0  0  0
  9  4  1  6  0  0  0
  9 10  1  0  0  0  0
 10 11  1  0  0  0  0
 12 11  1  1  0  0  0
 12 13  1  0  0  0  0
 13 14  1  0  0  0  0
 13 17  1  1  0  0  0
 14 15  1  1  0  0  0
 15 16  1  0  0  0  0
 17 18  1  0  0  0  0
 17 22  1  0  0  0  0
 18 19  1  0  0  0  0
 19 20  1  0  0  0  0
 20 21  1  0  0  0  0
 21 22  1  0  0  0  0
M  END
>  <CHROM.1>
-171.16182408,-4.37038425,49.95154011,111.10573704,-76.28305265,-85.36916756
-1.26987154,-1.07356767,1.08474307

>  <Name>
ligand

>  <RI>
0

>  <Rbt.Current_Directory>
/home/itssahil/PROJECTS/Mol_Feturizer/Test_systems_manuscript/rnas/1f1t

>  <Rbt.Executable>
rbdock ($Id: //depot/dev/client3/rdock/2013.1/src/exe/rbdock.cxx#4 $)

>  <Rbt.Library>
libRbt.so (2013.1, Build901 2013/11/27)

>  <Rbt.Parameter_File>
/export/apps/rDock/src/rDock_2013.1_src/data/scripts/dock_solv.prm

>  <Rbt.Receptor>
prm/pocket_docking_7.prm

>  <SCORE>
-56.3181

>  <SCORE.INTER>
-56.8104

>  <SCORE.INTER.CONST>
1

>  <SCORE.INTER.POLAR>
0

>  <SCORE.INTER.ROT>
3

>  <SCORE.INTER.SOLV>
8.94409

>  <SCORE.INTER.VDW>
-46.455

>  <SCORE.INTER.norm>
-2.18502

>  <SCORE.INTRA>
0.4923

>  <SCORE.INTRA.DIHEDRAL>
0.000274844

>  <SCORE.INTRA.DIHEDRAL.0>
3.60016

>  <SCORE.INTRA.POLAR>
0

>  <SCORE.INTRA.POLAR.0>
0

>  <SCORE.INTRA.REPUL>
0

>  <SCORE.INTRA.REPUL.0>
0

>  <SCORE.INTRA.SOLV>
3.19932e-05

>  <SCORE.INTRA.SOLV.lig_0>
-10.9882

>  <SCORE.INTRA.VDW>
0.492147

>  <SCORE.INTRA.VDW.0>
1.84442

>  <SCORE.INTRA.norm>
0.0189346

>  <SCORE.RESTR>
0

>  <SCORE.RESTR.CAVITY>
0

>  <SCORE.RESTR.norm>
0

>  <SCORE.SYSTEM>
0

>  <SCORE.SYSTEM.CONST>
0

>  <SCORE.SYSTEM.DIHEDRAL>
0

>  <SCORE.SYSTEM.SOLV>
0

>  <SCORE.SYSTEM.norm>
0

>  <SCORE.heavy>
26

>  <SCORE.norm>
-2.16608

>  <RMSD>
0.726

$$$$
ligand
 OpenBabel02271912153D
libRbt.so/2013.1/901 2013/11/27
 26 29  0  0  0  0  0  0  0  0999 V2000
  111.2219  -74.6829  -82.0173 C   0  0  1  0  0  0  0  0  0  0  0  0
  111.4104  -74.3107  -80.6940 N   0  0  0  0  0  0  0  0  0  0  0  0
  111.7458  -75.9527  -82.4984 C   0  0  0  0  0  0  0  0  0  0  0  0
  112.7295  -80.6421  -87.5176 N   0  0  0  0  0  0  0  0  0  0  0  0
  112.0347  -77.4892  -84.2888 O   0  0  0  0  0  0  0  0  0  0  0  0
  111.4765  -76.1796  -83.8494 C   0  0  2  0  0  0  0  0  0  0  0  0
  111.7931  -77.6832  -85.5265 C   0  0  1  0  0  0  0  0  0  0  0  0
  112.3662  -78.9882  -85.8554 C   0  0  0  0  0  0  0  0  0  0  0  0
  112.1944  -79.3743  -87.2320 C   0  0  2  0  0  0  0  0  0  0  0  0
  111.5383  -78.5512  -88.1804 C   0  0  0  0  0  0  0  0  0  0  0  0
  110.9827  -77.2695  -87.7876 C   0  0  0  0  0  0  0  0  0  0  0  0
  111.1304  -76.8687  -86.4099 C   0  0  2  0  0  0  0  0  0  0  0  0
  110.5105  -75.5305  -86.0829 C   0  0  1  0  0  0  0  0  0  0  0  0
  110.7901  -75.3382  -84.7180 C   0  0  2  0  0  0  0  0  0  0  0  0
  110.2644  -74.0680  -84.2130 C   0  0  0  0  0  0  0  0  0  0  0  0
  110.5289  -73.8093  -82.8326 C   0  0  0  0  0  0  0  0  0  0  0  0
  109.8455  -74.7587  -87.0168 C   0  0  0  0  0  0  0  0  0  0  0  0
  108.8114  -75.2109  -87.8691 C   0  0  0  0  0  0  0  0  0  0  0  0
  108.1175  -74.4418  -88.8049 C   0  0  0  0  0  0  0  0  0  0  0  0
  108.4445  -73.0325  -88.9621 C   0  0  0  0  0  0  0  0  0  0  0  0
  109.4897  -72.6144  -88.1038 C   0  0  0  0  0  0  0  0  0  0  0  0
  110.2142  -73.3501  -87.1559 C   0  0  0  0  0  0  0  0  0  0  0  0
  110.9829  -73.0108  -80.1844 C   0  0  0  0  0  0  0  0  0  0  0  0
  112.0345  -75.1294  -79.6328 C   0  0  0  0  0  0  0  0  0  0  0  0
  113.2689  -81.7023  -86.6370 C   0  0  0  0  0  0  0  0  0  0  0  0
  112.7732  -81.0622  -88.9628 C   0  0  0  0  0  0  0  0  0  0  0  0
  1  2  1  1  0  0  0
  1  3  1  0  0  0  0
  1 16  1  0  0  0  0
  2 23  1  0  0  0  0
  2 24  1  0  0  0  0
  4 25  1  0  0  0  0
  4 26  1  0  0  0  0
  5  6  1  0  0  0  0
  6  3  1  6  0  0  0
  6 14  1  0  0  0  0
  7  5  1  1  0  0  0
  7  8  1  0  0  0  0
  7 12  1  0  0  0  0
  8  9  1  0  0  0  0
  9  4  1  1  0  0  0
  9 10  1  0  0  0  0
 10 11  1  0  0  0  0
 12 11  1  6  0  0  0
 12 13  1  0  0  0  0
 13 14  1  0  0  0  0
 13 17  1  6  0  0  0
 14 15  1  6  0  0  0
 15 16  1  0  0  0  0
 17 18  1  0  0  0  0
 17 22  1  0  0  0  0
 18 19  1  0  0  0  0
 19 20  1  0  0  0  0
 20 21  1  0  0  0  0
 21 22  1  0  0  0  0
M  END
>  <CHROM.1>
175.86561135,9.07262414,50.87678325,111.09661327,-76.28098231,-85.41003724
-1.83633910,1.04873478,-2.08583573

>  <Name>
ligand

>  <RI>
0

>  <Rbt.Current_Directory>
/home/itssahil/PROJECTS/Mol_Feturizer/Test_systems_manuscript/rnas/1f1t

>  <Rbt.Executable>
rbdock ($Id: //depot/dev/client3/rdock/2013.1/src/exe/rbdock.cxx#4 $)

>  <Rbt.Library>
libRbt.so (2013.1, Build901 2013/11/27)

>  <Rbt.Parameter_File>
/export/apps/rDock/src/rDock_2013.1_src/data/scripts/dock_solv.prm

>  <Rbt.Receptor>
prm/pocket_docking_4.prm

>  <SCORE>
-55.9297

>  <SCORE.INTER>
-56.4107

>  <SCORE.INTER.CONST>
1

>  <SCORE.INTER.POLAR>
0

>  <SCORE.INTER.ROT>
3

>  <SCORE.INTER.SOLV>
8.93968

>  <SCORE.INTER.VDW>
-46.187

>  <SCORE.INTER.norm>
-2.16964

>  <SCORE.INTRA>
0.480998

>  <SCORE.INTRA.DIHEDRAL>
0.000255159

>  <SCORE.INTRA.DIHEDRAL.0>
3.60016

>  <SCORE.INTRA.POLAR>
0

>  <SCORE.INTRA.POLAR.0>
0

>  <SCORE.INTRA.REPUL>
0

>  <SCORE.INTRA.REPUL.0>
0

>  <SCORE.INTRA.SOLV>
3.28669e-05

>  <SCORE.INTRA.SOLV.lig_0>
-10.9882

>  <SCORE.INTRA.VDW>
0.480854

>  <SCORE.INTRA.VDW.0>
1.84442

>  <SCORE.INTRA.norm>
0.0184999

>  <SCORE.RESTR>
0

>  <SCORE.RESTR.CAVITY>
0

>  <SCORE.RESTR.norm>
0

>  <SCORE.SYSTEM>
0

>  <SCORE.SYSTEM.CONST>
0

>  <SCORE.SYSTEM.DIHEDRAL>
0

>  <SCORE.SYSTEM.SOLV>
0

>  <SCORE.SYSTEM.norm>
0

>  <SCORE.heavy>
26

>  <SCORE.norm>
-2.15114

>  <RMSD>
0.727

$$$$
ligand
 OpenBabel02271912153D
libRbt.so/2013.1/901 2013/11/27
 26 29  0  0  0  0  0  0  0  0999 V2000
  111.1667  -74.6968  -82.0216 C   0  0  1  0  0  0  0  0  0  0  0  0
  111.3477  -74.3293  -80.6959 N   0  0  0  0  0  0  0  0  0  0  0  0
  111.6993  -75.9618  -82.5057 C   0  0  0  0  0  0  0  0  0  0  0  0
  112.7286  -80.6246  -87.5406 N   0  0  0  0  0  0  0  0  0  0  0  0
  112.0037  -77.4891  -84.3014 O   0  0  0  0  0  0  0  0  0  0  0  0
  111.4368  -76.1843  -83.8589 C   0  0  2  0  0  0  0  0  0  0  0  0
  111.7683  -77.6792  -85.5409 C   0  0  1  0  0  0  0  0  0  0  0  0
  112.3496  -78.9798  -85.8729 C   0  0  0  0  0  0  0  0  0  0  0  0
  112.1856  -79.3609  -87.2518 C   0  0  2  0  0  0  0  0  0  0  0  0
  111.5292  -78.5371  -88.1995 C   0  0  0  0  0  0  0  0  0  0  0  0
  110.9653  -77.2600  -87.8036 C   0  0  0  0  0  0  0  0  0  0  0  0
  111.1051  -76.8644  -86.4237 C   0  0  2  0  0  0  0  0  0  0  0  0
  110.4768  -75.5308  -86.0937 C   0  0  1  0  0  0  0  0  0  0  0  0
  110.7497  -75.3429  -84.7268 C   0  0  2  0  0  0  0  0  0  0  0  0
  110.2153  -74.0775  -84.2187 C   0  0  0  0  0  0  0  0  0  0  0  0
  110.4726  -73.8233  -82.8361 C   0  0  0  0  0  0  0  0  0  0  0  0
  109.8118  -74.7585  -87.0271 C   0  0  0  0  0  0  0  0  0  0  0  0
  108.7753  -75.2095  -87.8772 C   0  0  0  0  0  0  0  0  0  0  0  0
  108.0813  -74.4398  -88.8125 C   0  0  0  0  0  0  0  0  0  0  0  0
  108.4108  -73.0313  -88.9715 C   0  0  0  0  0  0  0  0  0  0  0  0
  109.4583  -72.6145  -88.1154 C   0  0  0  0  0  0  0  0  0  0  0  0
  110.1830  -73.3508  -87.1680 C   0  0  0  0  0  0  0  0  0  0  0  0
  111.9891  -75.2123  -79.7258 C   0  0  0  0  0  0  0  0  0  0  0  0
  110.9508  -73.0455  -80.0794 C   0  0  0  0  0  0  0  0  0  0  0  0
  112.9589  -81.3255  -88.8235 C   0  0  0  0  0  0  0  0  0  0  0  0
  113.1946  -81.4572  -86.3758 C   0  0  0  0  0  0  0  0  0  0  0  0
  1  2  1  1  0  0  0
  1  3  1  0  0  0  0
  1 16  1  0  0  0  0
  2 23  1  0  0  0  0
  2 24  1  0  0  0  0
  4 25  1  0  0  0  0
  4 26  1  0  0  0  0
  5  6  1  0  0  0  0
  6  3  1  6  0  0  0
  6 14  1  0  0  0  0
  7  5  1  1  0  0  0
  7  8  1  0  0  0  0
  7 12  1  0  0  0  0
  8  9  1  0  0  0  0
  9  4  1  1  0  0  0
  9 10  1  0  0  0  0
 10 11  1  0  0  0  0
 12 11  1  6  0  0  0
 12 13  1  0  0  0  0
 13 14  1  0  0  0  0
 13 17  1  6  0  0  0
 14 15  1  6  0  0  0
 15 16  1  0  0  0  0
 17 18  1  0  0  0  0
 17 22  1  0  0  0  0
 18 19  1  0  0  0  0
 19 20  1  0  0  0  0
 20 21  1  0  0  0  0
 21 22  1  0  0  0  0
M  END
>  <CHROM.1>
-4.02138173,-170.23755021,51.48402428,111.07137298,-76.28710794,-85.40059937
-1.85754519,1.04656445,-2.07256610

>  <Name>
ligand

>  <RI>
0

>  <Rbt.Current_Directory>
/home/itssahil/PROJECTS/Mol_Feturizer/Test_systems_manuscript/rnas/1f1t

>  <Rbt.Executable>
rbdock ($Id: //depot/dev/client3/rdock/2013.1/src/exe/rbdock.cxx#4 $)

>  <Rbt.Library>
libRbt.so (2013.1, Build901 2013/11/27)

>  <Rbt.Parameter_File>
/export/apps/rDock/src/rDock_2013.1_src/data/scripts/dock_solv.prm

>  <Rbt.Receptor>
prm/pocket_docking_4.prm

>  <SCORE>
-53.6827

>  <SCORE.INTER>
-56.1263

>  <SCORE.INTER.CONST>
1

>  <SCORE.INTER.POLAR>
0

>  <SCORE.INTER.ROT>
3

>  <SCORE.INTER.SOLV>
8.96015

>  <SCORE.INTER.VDW>
-46.0042

>  <SCORE.INTER.norm>
-2.1587

>  <SCORE.INTRA>
2.44358

>  <SCORE.INTRA.DIHEDRAL>
-0.000286811

>  <SCORE.INTRA.DIHEDRAL.0>
3.60016

>  <SCORE.INTRA.POLAR>
0

>  <SCORE.INTRA.POLAR.0>
0

>  <SCORE.INTRA.REPUL>
0

>  <SCORE.INTRA.REPUL.0>
0

>  <SCORE.INTRA.SOLV>
-0.000973877

>  <SCORE.INTRA.SOLV.lig_0>
-10.9882

>  <SCORE.INTRA.VDW>
2.44421

>  <SCORE.INTRA.VDW.0>
1.84442

>  <SCORE.INTRA.norm>
0.0939838

>  <SCORE.RESTR>
0

>  <SCORE.RESTR.CAVITY>
0

>  <SCORE.RESTR.norm>
0

>  <SCORE.SYSTEM>
0

>  <SCORE.SYSTEM.CONST>
0

>  <SCORE.SYSTEM.DIHEDRAL>
0

>  <SCORE.SYSTEM.SOLV>
0

>  <SCORE.SYSTEM.norm>
0

>  <SCORE.heavy>
26

>  <SCORE.norm>
-2.06472

>  <RMSD>
0.727

$$$$
ligand
 OpenBabel02271912153D
libRbt.so/2013.1/901 2013/11/27
 26 29  0  0  0  0  0  0  0  0999 V2000
  112.2217  -79.4232  -87.1175 C   0  0  1  0  0  0  0  0  0  0  0  0
  112.7218  -80.6555  -87.5133 N   0  0  0  0  0  0  0  0  0  0  0  0
  112.3495  -78.9966  -85.7318 C   0  0  0  0  0  0  0  0  0  0  0  0
  111.3542  -74.3769  -80.6506 N   0  0  0  0  0  0  0  0  0  0  0  0
  111.9523  -77.3514  -84.0630 O   0  0  0  0  0  0  0  0  0  0  0  0
  111.7954  -77.7374  -85.4933 C   0  0  2  0  0  0  0  0  0  0  0  0
  111.4340  -76.2047  -83.8521 C   0  0  1  0  0  0  0  0  0  0  0  0
  111.6479  -75.9136  -82.4346 C   0  0  0  0  0  0  0  0  0  0  0  0
  111.1136  -74.6459  -82.0089 C   0  0  2  0  0  0  0  0  0  0  0  0
  110.4311  -73.7699  -82.8889 C   0  0  0  0  0  0  0  0  0  0  0  0
  110.2599  -74.1138  -84.2882 C   0  0  0  0  0  0  0  0  0  0  0  0
  110.7999  -75.3726  -84.7401 C   0  0  2  0  0  0  0  0  0  0  0  0
  110.5921  -75.6447  -86.2115 C   0  0  1  0  0  0  0  0  0  0  0  0
  111.1685  -76.9108  -86.4191 C   0  0  2  0  0  0  0  0  0  0  0  0
  111.0561  -77.3550  -87.8101 C   0  0  0  0  0  0  0  0  0  0  0  0
  111.6131  -78.6430  -88.0812 C   0  0  0  0  0  0  0  0  0  0  0  0
  109.9523  -74.7605  -87.0593 C   0  0  0  0  0  0  0  0  0  0  0  0
  110.2757  -73.3924  -87.2146 C   0  0  0  0  0  0  0  0  0  0  0  0
  109.6523  -72.4898  -88.0781 C   0  0  0  0  0  0  0  0  0  0  0  0
  108.5596  -72.9429  -88.9257 C   0  0  0  0  0  0  0  0  0  0  0  0
  108.2535  -74.3123  -88.7383 C   0  0  0  0  0  0  0  0  0  0  0  0
  108.8479  -75.2507  -87.8834 C   0  0  0  0  0  0  0  0  0  0  0  0
  113.2548  -81.6211  -86.5564 C   0  0  0  0  0  0  0  0  0  0  0  0
  112.7859  -81.1728  -88.8968 C   0  0  0  0  0  0  0  0  0  0  0  0
  111.9698  -75.1938  -79.5810 C   0  0  0  0  0  0  0  0  0  0  0  0
  110.9499  -73.0216  -80.1342 C   0  0  0  0  0  0  0  0  0  0  0  0
  1  2  1  6  0  0  0
  1  3  1  0  0  0  0
  1 16  1  0  0  0  0
  2 23  1  0  0  0  0
  2 24  1  0  0  0  0
  4 25  1  0  0  0  0
  4 26  1  0  0  0  0
  5  6  1  0  0  0  0
  6  3  1  1  0  0  0
  6 14  1  0  0  0  0
  7  5  1  6  0  0  0
  7  8  1  0  0  0  0
  7 12  1  0  0  0  0
  8  9  1  0  0  0  0
  9  4  1  6  0  0  0
  9 10  1  0  0  0  0
 10 11  1  0  0  0  0
 12 11  1  1  0  0  0
 12 13  1  0  0  0  0
 13 14  1  0  0  0  0
 13 17  1  1  0  0  0
 14 15  1  1  0  0  0
 15 16  1  0  0  0  0
 17 18  1  0  0  0  0
 17 22  1  0  0  0  0
 18 19  1  0  0  0  0
 19 20  1  0  0  0  0
 20 21  1  0  0  0  0
 21 22  1  0  0  0  0
M  END
>  <CHROM.1>
6.70766929,-4.64479207,52.47658039,111.10563233,-76.28875575,-85.38087715
-1.27133160,-1.07226343,1.08217572

>  <Name>
ligand

>  <RI>
0

>  <Rbt.Current_Directory>
/home/itssahil/PROJECTS/Mol_Feturizer/Test_systems_manuscript/rnas/1f1t

>  <Rbt.Executable>
rbdock ($Id: //depot/dev/client3/rdock/2013.1/src/exe/rbdock.cxx#4 $)

>  <Rbt.Library>
libRbt.so (2013.1, Build901 2013/11/27)

>  <Rbt.Parameter_File>
/export/apps/rDock/src/rDock_2013.1_src/data/scripts/dock_solv.prm

>  <Rbt.Receptor>
prm/pocket_docking_5.prm

>  <SCORE>
-56.4731

>  <SCORE.INTER>
-56.6339

>  <SCORE.INTER.CONST>
1

>  <SCORE.INTER.POLAR>
0

>  <SCORE.INTER.ROT>
3

>  <SCORE.INTER.SOLV>
8.97453

>  <SCORE.INTER.VDW>
-46.3475

>  <SCORE.INTER.norm>
-2.17823

>  <SCORE.INTRA>
0.160843

>  <SCORE.INTRA.DIHEDRAL>
0.000270585

>  <SCORE.INTRA.DIHEDRAL.0>
3.60016

>  <SCORE.INTRA.POLAR>
0

>  <SCORE.INTRA.POLAR.0>
0

>  <SCORE.INTRA.REPUL>
0

>  <SCORE.INTRA.REPUL.0>
0

>  <SCORE.INTRA.SOLV>
1.77554e-05

>  <SCORE.INTRA.SOLV.lig_0>
-10.9882

>  <SCORE.INTRA.VDW>
0.160699

>  <SCORE.INTRA.VDW.0>
1.84442

>  <SCORE.INTRA.norm>
0.00618626

>  <SCORE.RESTR>
0

>  <SCORE.RESTR.CAVITY>
0

>  <SCORE.RESTR.norm>
0

>  <SCORE.SYSTEM>
0

>  <SCORE.SYSTEM.CONST>
0

>  <SCORE.SYSTEM.DIHEDRAL>
0

>  <SCORE.SYSTEM.SOLV>
0

>  <SCORE.SYSTEM.norm>
0

>  <SCORE.heavy>
26

>  <SCORE.norm>
-2.17204

>  <RMSD>
0.727

$$$$
ligand
 OpenBabel02271912153D
libRbt.so/2013.1/901 2013/11/27
 26 29  0  0  0  0  0  0  0  0999 V2000
  112.2339  -79.4120  -87.1107 C   0  0  1  0  0  0  0  0  0  0  0  0
  112.7299  -80.6448  -87.5101 N   0  0  0  0  0  0  0  0  0  0  0  0
  112.3505  -78.9958  -85.7209 C   0  0  0  0  0  0  0  0  0  0  0  0
  111.3341  -74.4047  -80.6180 N   0  0  0  0  0  0  0  0  0  0  0  0
  111.9471  -77.3595  -84.0448 O   0  0  0  0  0  0  0  0  0  0  0  0
  111.8022  -77.7347  -85.4793 C   0  0  2  0  0  0  0  0  0  0  0  0
  111.4342  -76.2110  -83.8311 C   0  0  1  0  0  0  0  0  0  0  0  0
  111.6357  -75.9310  -82.4096 C   0  0  0  0  0  0  0  0  0  0  0  0
  111.1054  -74.6628  -81.9805 C   0  0  2  0  0  0  0  0  0  0  0  0
  110.4374  -73.7764  -82.8611 C   0  0  0  0  0  0  0  0  0  0  0  0
  110.2781  -74.1095  -84.2645 C   0  0  0  0  0  0  0  0  0  0  0  0
  110.8145  -75.3687  -84.7197 C   0  0  2  0  0  0  0  0  0  0  0  0
  110.6197  -75.6293  -86.1949 C   0  0  1  0  0  0  0  0  0  0  0  0
  111.1900  -76.8976  -86.4055 C   0  0  2  0  0  0  0  0  0  0  0  0
  111.0887  -77.3316  -87.8007 C   0  0  0  0  0  0  0  0  0  0  0  0
  111.6400  -78.6212  -88.0751 C   0  0  0  0  0  0  0  0  0  0  0  0
  109.9942  -74.7351  -87.0429 C   0  0  0  0  0  0  0  0  0  0  0  0
  110.3354  -73.3708  -87.1938 C   0  0  0  0  0  0  0  0  0  0  0  0
  109.7265  -72.4585  -88.0574 C   0  0  0  0  0  0  0  0  0  0  0  0
  108.6312  -72.8958  -88.9100 C   0  0  0  0  0  0  0  0  0  0  0  0
  108.3072  -74.2616  -88.7269 C   0  0  0  0  0  0  0  0  0  0  0  0
  108.8867  -75.2095  -87.8721 C   0  0  0  0  0  0  0  0  0  0  0  0
  112.7530  -81.0558  -88.9111 C   0  0  0  0  0  0  0  0  0  0  0  0
  113.2969  -81.6891  -86.6305 C   0  0  0  0  0  0  0  0  0  0  0  0
  111.9759  -75.2147  -79.5586 C   0  0  0  0  0  0  0  0  0  0  0  0
  110.8819  -73.0717  -80.0836 C   0  0  0  0  0  0  0  0  0  0  0  0
  1  2  1  6  0  0  0
  1  3  1  0  0  0  0
  1 16  1  0  0  0  0
  2 23  1  0  0  0  0
  2 24  1  0  0  0  0
  4 25  1  0  0  0  0
  4 26  1  0  0  0  0
  5  6  1  0  0  0  0
  6  3  1  1  0  0  0
  6 14  1  0  0  0  0
  7  5  1  6  0  0  0
  7  8  1  0  0  0  0
  7 12  1  0  0  0  0
  8  9  1  0  0  0  0
  9  4  1  6  0  0  0
  9 10  1  0  0  0  0
 10 11  1  0  0  0  0
 12 11  1  1  0  0  0
 12 13  1  0  0  0  0
 13 14  1  0  0  0  0
 13 17  1  1  0  0  0
 14 15  1  1  0  0  0
 15 16  1  0  0  0  0
 17 18  1  0  0  0  0
 17 22  1  0  0  0  0
 18 19  1  0  0  0  0
 19 20  1  0  0  0  0
 20 21  1  0  0  0  0
 21 22  1  0  0  0  0
M  END
>  <CHROM.1>
-174.05591615,-2.20043336,53.04695907,111.12010911,-76.28121500,-85.36761426
-1.25975516,-1.08101841,1.10139396

>  <Name>
ligand

>  <RI>
0

>  <Rbt.Current_Directory>
/home/itssahil/PROJECTS/Mol_Feturizer/Test_systems_manuscript/rnas/1f1t

>  <Rbt.Executable>
rbdock ($Id: //depot/dev/client3/rdock/2013.1/src/exe/rbdock.cxx#4 $)

>  <Rbt.Library>
libRbt.so (2013.1, Build901 2013/11/27)

>  <Rbt.Parameter_File>
/export/apps/rDock/src/rDock_2013.1_src/data/scripts/dock_solv.prm

>  <Rbt.Receptor>
prm/pocket_docking_7.prm

>  <SCORE>
-56.2448

>  <SCORE.INTER>
-56.7149

>  <SCORE.INTER.CONST>
1

>  <SCORE.INTER.POLAR>
0

>  <SCORE.INTER.ROT>
3

>  <SCORE.INTER.SOLV>
9.03395

>  <SCORE.INTER.VDW>
-46.4213

>  <SCORE.INTER.norm>
-2.18134

>  <SCORE.INTRA>
0.470159

>  <SCORE.INTRA.DIHEDRAL>
0.000292447

>  <SCORE.INTRA.DIHEDRAL.0>
3.60016

>  <SCORE.INTRA.POLAR>
0

>  <SCORE.INTRA.POLAR.0>
0

>  <SCORE.INTRA.REPUL>
0

>  <SCORE.INTRA.REPUL.0>
0

>  <SCORE.INTRA.SOLV>
1.19754e-05

>  <SCORE.INTRA.SOLV.lig_0>
-10.9882

>  <SCORE.INTRA.VDW>
0.470007

>  <SCORE.INTRA.VDW.0>
1.84442

>  <SCORE.INTRA.norm>
0.018083

>  <SCORE.RESTR>
0

>  <SCORE.RESTR.CAVITY>
0

>  <SCORE.RESTR.norm>
0

>  <SCORE.SYSTEM>
0

>  <SCORE.SYSTEM.CONST>
0

>  <SCORE.SYSTEM.DIHEDRAL>
0

>  <SCORE.SYSTEM.SOLV>
0

>  <SCORE.SYSTEM.norm>
0

>  <SCORE.heavy>
26

>  <SCORE.norm>
-2.16326

>  <RMSD>
0.727

$$$$
ligand
 OpenBabel02271912153D
libRbt.so/2013.1/901 2013/11/27
 26 29  0  0  0  0  0  0  0  0999 V2000
  112.2320  -79.4792  -87.1485 C   0  0  1  0  0  0  0  0  0  0  0  0
  112.7481  -80.7056  -87.5417 N   0  0  0  0  0  0  0  0  0  0  0  0
  112.3720  -79.0389  -85.7683 C   0  0  0  0  0  0  0  0  0  0  0  0
  111.3678  -74.3957  -80.7104 N   0  0  0  0  0  0  0  0  0  0  0  0
  111.9696  -77.3872  -84.1071 O   0  0  0  0  0  0  0  0  0  0  0  0
  111.7991  -77.7878  -85.5319 C   0  0  2  0  0  0  0  0  0  0  0  0
  111.4341  -76.2482  -83.8980 C   0  0  1  0  0  0  0  0  0  0  0  0
  111.6631  -75.9416  -82.4861 C   0  0  0  0  0  0  0  0  0  0  0  0
  111.1125  -74.6801  -82.0629 C   0  0  2  0  0  0  0  0  0  0  0  0
  110.4020  -73.8236  -82.9399 C   0  0  0  0  0  0  0  0  0  0  0  0
  110.2169  -74.1820  -84.3338 C   0  0  0  0  0  0  0  0  0  0  0  0
  110.7727  -75.4348  -84.7834 C   0  0  2  0  0  0  0  0  0  0  0  0
  110.5487  -75.7226  -86.2493 C   0  0  1  0  0  0  0  0  0  0  0  0
  111.1444  -76.9800  -86.4551 C   0  0  2  0  0  0  0  0  0  0  0  0
  111.0200  -77.4377  -87.8408 C   0  0  0  0  0  0  0  0  0  0  0  0
  111.5958  -78.7178  -88.1096 C   0  0  0  0  0  0  0  0  0  0  0  0
  109.8811  -74.8569  -87.0948 C   0  0  0  0  0  0  0  0  0  0  0  0
  108.7824  -75.1974  -87.9177 C   0  0  0  0  0  0  0  0  0  0  0  0
  108.0857  -74.3327  -88.7639 C   0  0  0  0  0  0  0  0  0  0  0  0
  108.4813  -72.9348  -88.8477 C   0  0  0  0  0  0  0  0  0  0  0  0
  109.5895  -72.6294  -88.0217 C   0  0  0  0  0  0  0  0  0  0  0  0
  110.3191  -73.4630  -87.1629 C   0  0  0  0  0  0  0  0  0  0  0  0
  112.8339  -81.0981  -88.9456 C   0  0  0  0  0  0  0  0  0  0  0  0
  113.2783  -81.7603  -86.6516 C   0  0  0  0  0  0  0  0  0  0  0  0
  112.0199  -75.1897  -79.6453 C   0  0  0  0  0  0  0  0  0  0  0  0
  110.9386  -73.0470  -80.1968 C   0  0  0  0  0  0  0  0  0  0  0  0
  1  2  1  6  0  0  0
  1  3  1  0  0  0  0
  1 16  1  0  0  0  0
  2 23  1  0  0  0  0
  2 24  1  0  0  0  0
  4 25  1  0  0  0  0
  4 26  1  0  0  0  0
  5  6  1  0  0  0  0
  6  3  1  1  0  0  0
  6 14  1  0  0  0  0
  7  5  1  6  0  0  0
  7  8  1  0  0  0  0
  7 12  1  0  0  0  0
  8  9  1  0  0  0  0
  9  4  1  6  0  0  0
  9 10  1  0  0  0  0
 10 11  1  0  0  0  0
 12 11  1  1  0  0  0
 12 13  1  0  0  0  0
 13 14  1  0  0  0  0
 13 17  1  1  0  0  0
 14 15  1  1  0  0  0
 15 16  1  0  0  0  0
 17 18  1  0  0  0  0
 17 22  1  0  0  0  0
 18 19  1  0  0  0  0
 19 20  1  0  0  0  0
 20 21  1  0  0  0  0
 21 22  1  0  0  0  0
M  END
>  <CHROM.1>
-169.62705783,-4.24866719,-126.81456810,111.09245916,-76.33371702,-85.41485249
-1.26155122,-1.05435500,1.07189082

>  <Name>
ligand

>  <RI>
0

>  <Rbt.Current_Directory>
/home/itssahil/PROJECTS/Mol_Feturizer/Test_systems_manuscript/rnas/1f1t

>  <Rbt.Executable>
rbdock ($Id: //depot/dev/client3/rdock/2013.1/src/exe/rbdock.cxx#4 $)

>  <Rbt.Library>
libRbt.so (2013.1, Build901 2013/11/27)

>  <Rbt.Parameter_File>
/export/apps/rDock/src/rDock_2013.1_src/data/scripts/dock_solv.prm

>  <Rbt.Receptor>
prm/pocket_docking_8.prm

>  <SCORE>
-55.7428

>  <SCORE.INTER>
-56.1992

>  <SCORE.INTER.CONST>
1

>  <SCORE.INTER.POLAR>
0

>  <SCORE.INTER.ROT>
3

>  <SCORE.INTER.SOLV>
8.86343

>  <SCORE.INTER.VDW>
-46.0206

>  <SCORE.INTER.norm>
-2.16151

>  <SCORE.INTRA>
0.456331

>  <SCORE.INTRA.DIHEDRAL>
-3.55288e-07

>  <SCORE.INTRA.DIHEDRAL.0>
3.60016

>  <SCORE.INTRA.POLAR>
0

>  <SCORE.INTRA.POLAR.0>
0

>  <SCORE.INTRA.REPUL>
0

>  <SCORE.INTRA.REPUL.0>
0

>  <SCORE.INTRA.SOLV>
4.48244e-05

>  <SCORE.INTRA.SOLV.lig_0>
-10.9882

>  <SCORE.INTRA.VDW>
0.456309

>  <SCORE.INTRA.VDW.0>
1.84442

>  <SCORE.INTRA.norm>
0.0175512

>  <SCORE.RESTR>
0

>  <SCORE.RESTR.CAVITY>
0

>  <SCORE.RESTR.norm>
0

>  <SCORE.SYSTEM>
0

>  <SCORE.SYSTEM.CONST>
0

>  <SCORE.SYSTEM.DIHEDRAL>
0

>  <SCORE.SYSTEM.SOLV>
0

>  <SCORE.SYSTEM.norm>
0

>  <SCORE.heavy>
26

>  <SCORE.norm>
-2.14396

>  <RMSD>
0.727

$$$$
ligand
 OpenBabel02271912153D
libRbt.so/2013.1/901 2013/11/27
 26 29  0  0  0  0  0  0  0  0999 V2000
  112.2238  -79.4889  -87.0992 C   0  0  1  0  0  0  0  0  0  0  0  0
  112.7464  -80.7182  -87.4743 N   0  0  0  0  0  0  0  0  0  0  0  0
  112.3470  -79.0349  -85.7218 C   0  0  0  0  0  0  0  0  0  0  0  0
  111.2766  -74.3440  -80.7218 N   0  0  0  0  0  0  0  0  0  0  0  0
  111.9227  -77.3676  -84.0817 O   0  0  0  0  0  0  0  0  0  0  0  0
  111.7694  -77.7825  -85.5044 C   0  0  2  0  0  0  0  0  0  0  0  0
  111.3830  -76.2275  -83.8900 C   0  0  1  0  0  0  0  0  0  0  0  0
  111.5950  -75.9067  -82.4787 C   0  0  0  0  0  0  0  0  0  0  0  0
  111.0376  -74.6421  -82.0743 C   0  0  2  0  0  0  0  0  0  0  0  0
  110.3360  -73.7954  -82.9679 C   0  0  0  0  0  0  0  0  0  0  0  0
  110.1678  -74.1678  -84.3603 C   0  0  0  0  0  0  0  0  0  0  0  0
  110.7307  -75.4239  -84.7910 C   0  0  2  0  0  0  0  0  0  0  0  0
  110.5243  -75.7265  -86.2566 C   0  0  1  0  0  0  0  0  0  0  0  0
  111.1243  -76.9848  -86.4431 C   0  0  2  0  0  0  0  0  0  0  0  0
  111.0168  -77.4563  -87.8255 C   0  0  0  0  0  0  0  0  0  0  0  0
  111.5977  -78.7380  -88.0750 C   0  0  0  0  0  0  0  0  0  0  0  0
  109.8653  -74.8702  -87.1183 C   0  0  0  0  0  0  0  0  0  0  0  0
  108.7908  -75.2258  -87.9664 C   0  0  0  0  0  0  0  0  0  0  0  0
  108.1027  -74.3709  -88.8294 C   0  0  0  0  0  0  0  0  0  0  0  0
  108.4815  -72.9679  -88.9052 C   0  0  0  0  0  0  0  0  0  0  0  0
  109.5660  -72.6473  -88.0537 C   0  0  0  0  0  0  0  0  0  0  0  0
  110.2863  -73.4707  -87.1773 C   0  0  0  0  0  0  0  0  0  0  0  0
  112.8320  -81.1319  -88.8721 C   0  0  0  0  0  0  0  0  0  0  0  0
  113.2843  -81.7560  -86.5689 C   0  0  0  0  0  0  0  0  0  0  0  0
  110.9564  -73.1507  -79.9070 C   0  0  0  0  0  0  0  0  0  0  0  0
  111.9649  -75.3973  -79.8949 C   0  0  0  0  0  0  0  0  0  0  0  0
  1  2  1  6  0  0  0
  1  3  1  0  0  0  0
  1 16  1  0  0  0  0
  2 23  1  0  0  0  0
  2 24  1  0  0  0  0
  4 25  1  0  0  0  0
  4 26  1  0  0  0  0
  5  6  1  0  0  0  0
  6  3  1  1  0  0  0
  6 14  1  0  0  0  0
  7  5  1  6  0  0  0
  7  8  1  0  0  0  0
  7 12  1  0  0  0  0
  8  9  1  0  0  0  0
  9  4  1  6  0  0  0
  9 10  1  0  0  0  0
 10 11  1  0  0  0  0
 12 11  1  1  0  0  0
 12 13  1  0  0  0  0
 13 14  1  0  0  0  0
 13 17  1  1  0  0  0
 14 15  1  1  0  0  0
 15 16  1  0  0  0  0
 17 18  1  0  0  0  0
 17 22  1  0  0  0  0
 18 19  1  0  0  0  0
 19 20  1  0  0  0  0
 20 21  1  0  0  0  0
 21 22  1  0  0  0  0
M  END
>  <CHROM.1>
-170.49607976,176.54889843,-127.89794390,111.06650156,-76.34796511,-85.40678680
-1.24877604,-1.05854902,1.08416128

>  <Name>
ligand

>  <RI>
0

>  <Rbt.Current_Directory>
/home/itssahil/PROJECTS/Mol_Feturizer/Test_systems_manuscript/rnas/1f1t

>  <Rbt.Executable>
rbdock ($Id: //depot/dev/client3/rdock/2013.1/src/exe/rbdock.cxx#4 $)

>  <Rbt.Library>
libRbt.so (2013.1, Build901 2013/11/27)

>  <Rbt.Parameter_File>
/export/apps/rDock/src/rDock_2013.1_src/data/scripts/dock_solv.prm

>  <Rbt.Receptor>
prm/pocket_docking_5.prm

>  <SCORE>
-53.3167

>  <SCORE.INTER>
-56.197

>  <SCORE.INTER.CONST>
1

>  <SCORE.INTER.POLAR>
0

>  <SCORE.INTER.ROT>
3

>  <SCORE.INTER.SOLV>
8.90066

>  <SCORE.INTER.VDW>
-46.0316

>  <SCORE.INTER.norm>
-2.16142

>  <SCORE.INTRA>
2.88038

>  <SCORE.INTRA.DIHEDRAL>
-0.000584041

>  <SCORE.INTRA.DIHEDRAL.0>
3.60016

>  <SCORE.INTRA.POLAR>
0

>  <SCORE.INTRA.POLAR.0>
0

>  <SCORE.INTRA.REPUL>
0

>  <SCORE.INTRA.REPUL.0>
0

>  <SCORE.INTRA.SOLV>
-0.000951387

>  <SCORE.INTRA.SOLV.lig_0>
-10.9882

>  <SCORE.INTRA.VDW>
2.88115

>  <SCORE.INTRA.VDW.0>
1.84442

>  <SCORE.INTRA.norm>
0.110784

>  <SCORE.RESTR>
0

>  <SCORE.RESTR.CAVITY>
0

>  <SCORE.RESTR.norm>
0

>  <SCORE.SYSTEM>
0

>  <SCORE.SYSTEM.CONST>
0

>  <SCORE.SYSTEM.DIHEDRAL>
0

>  <SCORE.SYSTEM.SOLV>
0

>  <SCORE.SYSTEM.norm>
0

>  <SCORE.heavy>
26

>  <SCORE.norm>
-2.05064

>  <RMSD>
0.728

$$$$
ligand
 OpenBabel02271912153D
libRbt.so/2013.1/901 2013/11/27
 26 29  0  0  0  0  0  0  0  0999 V2000
  111.2716  -74.6404  -81.8890 C   0  0  1  0  0  0  0  0  0  0  0  0
  111.4518  -74.3012  -80.5557 N   0  0  0  0  0  0  0  0  0  0  0  0
  111.7609  -75.9170  -82.3881 C   0  0  0  0  0  0  0  0  0  0  0  0
  112.6673  -80.5352  -87.4873 N   0  0  0  0  0  0  0  0  0  0  0  0
  112.0267  -77.4261  -84.2052 O   0  0  0  0  0  0  0  0  0  0  0  0
  111.5052  -76.1078  -83.7474 C   0  0  2  0  0  0  0  0  0  0  0  0
  111.7980  -77.5872  -85.4500 C   0  0  1  0  0  0  0  0  0  0  0  0
  112.3329  -78.9037  -85.7971 C   0  0  0  0  0  0  0  0  0  0  0  0
  112.1698  -79.2563  -87.1837 C   0  0  2  0  0  0  0  0  0  0  0  0
  111.5559  -78.3930  -88.1247 C   0  0  0  0  0  0  0  0  0  0  0  0
  111.0368  -77.1017  -87.7139 C   0  0  0  0  0  0  0  0  0  0  0  0
  111.1763  -76.7337  -86.3263 C   0  0  2  0  0  0  0  0  0  0  0  0
  110.5957  -75.3824  -85.9812 C   0  0  1  0  0  0  0  0  0  0  0  0
  110.8603  -75.2269  -84.6086 C   0  0  2  0  0  0  0  0  0  0  0  0
  110.3690  -73.9502  -84.0855 C   0  0  0  0  0  0  0  0  0  0  0  0
  110.6205  -73.7281  -82.6963 C   0  0  0  0  0  0  0  0  0  0  0  0
  109.9710  -74.5704  -86.9087 C   0  0  0  0  0  0  0  0  0  0  0  0
  110.3190  -73.2291  -87.1920 C   0  0  0  0  0  0  0  0  0  0  0  0
  109.7110  -72.4006  -88.1369 C   0  0  0  0  0  0  0  0  0  0  0  0
  108.6092  -72.9114  -88.9386 C   0  0  0  0  0  0  0  0  0  0  0  0
  108.2784  -74.2513  -88.6232 C   0  0  0  0  0  0  0  0  0  0  0  0
  108.8567  -75.1158  -87.6836 C   0  0  0  0  0  0  0  0  0  0  0  0
  112.0976  -75.2025  -79.6055 C   0  0  0  0  0  0  0  0  0  0  0  0
  111.0496  -73.0330  -79.9110 C   0  0  0  0  0  0  0  0  0  0  0  0
  113.2749  -81.5812  -86.6347 C   0  0  0  0  0  0  0  0  0  0  0  0
  112.5782  -80.9871  -88.9208 C   0  0  0  0  0  0  0  0  0  0  0  0
  1  2  1  1  0  0  0
  1  3  1  0  0  0  0
  1 16  1  0  0  0  0
  2 23  1  0  0  0  0
  2 24  1  0  0  0  0
  4 25  1  0  0  0  0
  4 26  1  0  0  0  0
  5  6  1  0  0  0  0
  6  3  1  6  0  0  0
  6 14  1  0  0  0  0
  7  5  1  1  0  0  0
  7  8  1  0  0  0  0
  7 12  1  0  0  0  0
  8  9  1  0  0  0  0
  9  4  1  1  0  0  0
  9 10  1  0  0  0  0
 10 11  1  0  0  0  0
 12 11  1  6  0  0  0
 12 13  1  0  0  0  0
 13 14  1  0  0  0  0
 13 17  1  6  0  0  0
 14 15  1  6  0  0  0
 15 16  1  0  0  0  0
 17 18  1  0  0  0  0
 17 22  1  0  0  0  0
 18 19  1  0  0  0  0
 19 20  1  0  0  0  0
 20 21  1  0  0  0  0
 21 22  1  0  0  0  0
M  END
>  <CHROM.1>
-1.47130630,2.45690288,-124.97087945,111.14079635,-76.18542631,-85.32398227
-1.80635133,1.07810371,-2.07709532

>  <Name>
ligand

>  <RI>
0

>  <Rbt.Current_Directory>
/home/itssahil/PROJECTS/Mol_Feturizer/Test_systems_manuscript/rnas/1f1t

>  <Rbt.Executable>
rbdock ($Id: //depot/dev/client3/rdock/2013.1/src/exe/rbdock.cxx#4 $)

>  <Rbt.Library>
libRbt.so (2013.1, Build901 2013/11/27)

>  <Rbt.Parameter_File>
/export/apps/rDock/src/rDock_2013.1_src/data/scripts/dock_solv.prm

>  <Rbt.Receptor>
prm/pocket_docking_6.prm

>  <SCORE>
-56.3844

>  <SCORE.INTER>
-56.6089

>  <SCORE.INTER.CONST>
1

>  <SCORE.INTER.POLAR>
0

>  <SCORE.INTER.ROT>
3

>  <SCORE.INTER.SOLV>
9.2038

>  <SCORE.INTER.VDW>
-46.4072

>  <SCORE.INTER.norm>
-2.17727

>  <SCORE.INTRA>
0.224535

>  <SCORE.INTRA.DIHEDRAL>
-1.21127e-05

>  <SCORE.INTRA.DIHEDRAL.0>
3.60016

>  <SCORE.INTRA.POLAR>
0

>  <SCORE.INTRA.POLAR.0>
0

>  <SCORE.INTRA.REPUL>
0

>  <SCORE.INTRA.REPUL.0>
0

>  <SCORE.INTRA.SOLV>
3.1885e-06

>  <SCORE.INTRA.SOLV.lig_0>
-10.9882

>  <SCORE.INTRA.VDW>
0.22454

>  <SCORE.INTRA.VDW.0>
1.84442

>  <SCORE.INTRA.norm>
0.00863597

>  <SCORE.RESTR>
0

>  <SCORE.RESTR.CAVITY>
0

>  <SCORE.RESTR.norm>
0

>  <SCORE.SYSTEM>
0

>  <SCORE.SYSTEM.CONST>
0

>  <SCORE.SYSTEM.DIHEDRAL>
0

>  <SCORE.SYSTEM.SOLV>
0

>  <SCORE.SYSTEM.norm>
0

>  <SCORE.heavy>
26

>  <SCORE.norm>
-2.16863

>  <RMSD>
0.728

$$$$
ligand
 OpenBabel02271912153D
libRbt.so/2013.1/901 2013/11/27
 26 29  0  0  0  0  0  0  0  0999 V2000
  112.2046  -79.4084  -87.0920 C   0  0  1  0  0  0  0  0  0  0  0  0
  112.6934  -80.6451  -87.4879 N   0  0  0  0  0  0  0  0  0  0  0  0
  112.3301  -78.9859  -85.7049 C   0  0  0  0  0  0  0  0  0  0  0  0
  111.3594  -74.3658  -80.6193 N   0  0  0  0  0  0  0  0  0  0  0  0
  111.9423  -77.3398  -84.0347 O   0  0  0  0  0  0  0  0  0  0  0  0
  111.7884  -77.7213  -85.4666 C   0  0  2  0  0  0  0  0  0  0  0  0
  111.4353  -76.1880  -83.8240 C   0  0  1  0  0  0  0  0  0  0  0  0
  111.6454  -75.9020  -82.4049 C   0  0  0  0  0  0  0  0  0  0  0  0
  111.1226  -74.6296  -81.9793 C   0  0  2  0  0  0  0  0  0  0  0  0
  110.4538  -73.7446  -82.8608 C   0  0  0  0  0  0  0  0  0  0  0  0
  110.2858  -74.0839  -84.2616 C   0  0  0  0  0  0  0  0  0  0  0  0
  110.8145  -75.3475  -84.7134 C   0  0  2  0  0  0  0  0  0  0  0  0
  110.6111  -75.6144  -86.1863 C   0  0  1  0  0  0  0  0  0  0  0  0
  111.1749  -76.8862  -86.3937 C   0  0  2  0  0  0  0  0  0  0  0  0
  111.0646  -77.3265  -87.7862 C   0  0  0  0  0  0  0  0  0  0  0  0
  111.6090  -78.6197  -88.0571 C   0  0  0  0  0  0  0  0  0  0  0  0
  109.9849  -74.7218  -87.0355 C   0  0  0  0  0  0  0  0  0  0  0  0
  110.3300  -73.3593  -87.1937 C   0  0  0  0  0  0  0  0  0  0  0  0
  109.7204  -72.4486  -88.0585 C   0  0  0  0  0  0  0  0  0  0  0  0
  108.6201  -72.8858  -88.9046 C   0  0  0  0  0  0  0  0  0  0  0  0
  108.2923  -74.2497  -88.7143 C   0  0  0  0  0  0  0  0  0  0  0  0
  108.8722  -75.1959  -87.8580 C   0  0  0  0  0  0  0  0  0  0  0  0
  112.6739  -81.0777  -88.8825 C   0  0  0  0  0  0  0  0  0  0  0  0
  113.2928  -81.6733  -86.6108 C   0  0  0  0  0  0  0  0  0  0  0  0
  112.0035  -75.1732  -79.5593 C   0  0  0  0  0  0  0  0  0  0  0  0
  110.9152  -73.0285  -80.0889 C   0  0  0  0  0  0  0  0  0  0  0  0
  1  2  1  6  0  0  0
  1  3  1  0  0  0  0
  1 16  1  0  0  0  0
  2 23  1  0  0  0  0
  2 24  1  0  0  0  0
  4 25  1  0  0  0  0
  4 26  1  0  0  0  0
  5  6  1  0  0  0  0
  6  3  1  1  0  0  0
  6 14  1  0  0  0  0
  7  5  1  6  0  0  0
  7  8  1  0  0  0  0
  7 12  1  0  0  0  0
  8  9  1  0  0  0  0
  9  4  1  6  0  0  0
  9 10  1  0  0  0  0
 10 11  1  0  0  0  0
 12 11  1  1  0  0  0
 12 13  1  0  0  0  0
 13 14  1  0  0  0  0
 13 17  1  1  0  0  0
 14 15  1  1  0  0  0
 15 16  1  0  0  0  0
 17 18  1  0  0  0  0
 17 22  1  0  0  0  0
 18 19  1  0  0  0  0
 19 20  1  0  0  0  0
 20 21  1  0  0  0  0
 21 22  1  0  0  0  0
M  END
>  <CHROM.1>
-175.76924386,-2.18387212,52.96874291,111.11291977,-76.26447333,-85.35850298
-1.27443845,-1.08191275,1.08347826

>  <Name>
ligand

>  <RI>
0

>  <Rbt.Current_Directory>
/home/itssahil/PROJECTS/Mol_Feturizer/Test_systems_manuscript/rnas/1f1t

>  <Rbt.Executable>
rbdock ($Id: //depot/dev/client3/rdock/2013.1/src/exe/rbdock.cxx#4 $)

>  <Rbt.Library>
libRbt.so (2013.1, Build901 2013/11/27)

>  <Rbt.Parameter_File>
/export/apps/rDock/src/rDock_2013.1_src/data/scripts/dock_solv.prm

>  <Rbt.Receptor>
prm/pocket_docking_6.prm

>  <SCORE>
-56.2419

>  <SCORE.INTER>
-56.7334

>  <SCORE.INTER.CONST>
1

>  <SCORE.INTER.POLAR>
0

>  <SCORE.INTER.ROT>
3

>  <SCORE.INTER.SOLV>
9.02398

>  <SCORE.INTER.VDW>
-46.4303

>  <SCORE.INTER.norm>
-2.18206

>  <SCORE.INTRA>
0.491561

>  <SCORE.INTRA.DIHEDRAL>
0.000292396

>  <SCORE.INTRA.DIHEDRAL.0>
3.60016

>  <SCORE.INTRA.POLAR>
0

>  <SCORE.INTRA.POLAR.0>
0

>  <SCORE.INTRA.REPUL>
0

>  <SCORE.INTRA.REPUL.0>
0

>  <SCORE.INTRA.SOLV>
4.48719e-06

>  <SCORE.INTRA.SOLV.lig_0>
-10.9882

>  <SCORE.INTRA.VDW>
0.491412

>  <SCORE.INTRA.VDW.0>
1.84442

>  <SCORE.INTRA.norm>
0.0189062

>  <SCORE.RESTR>
0

>  <SCORE.RESTR.CAVITY>
0

>  <SCORE.RESTR.norm>
0

>  <SCORE.SYSTEM>
0

>  <SCORE.SYSTEM.CONST>
0

>  <SCORE.SYSTEM.DIHEDRAL>
0

>  <SCORE.SYSTEM.SOLV>
0

>  <SCORE.SYSTEM.norm>
0

>  <SCORE.heavy>
26

>  <SCORE.norm>
-2.16315

>  <RMSD>
0.729

$$$$
ligand
 OpenBabel02271912153D
libRbt.so/2013.1/901 2013/11/27
 26 29  0  0  0  0  0  0  0  0999 V2000
  111.2476  -74.6840  -81.9466 C   0  0  1  0  0  0  0  0  0  0  0  0
  111.4258  -74.3376  -80.6149 N   0  0  0  0  0  0  0  0  0  0  0  0
  111.7418  -75.9614  -82.4392 C   0  0  0  0  0  0  0  0  0  0  0  0
  112.6678  -80.6013  -87.5150 N   0  0  0  0  0  0  0  0  0  0  0  0
  112.0141  -77.4785  -84.2486 O   0  0  0  0  0  0  0  0  0  0  0  0
  111.4876  -76.1597  -83.7976 C   0  0  2  0  0  0  0  0  0  0  0  0
  111.7868  -77.6465  -85.4928 C   0  0  1  0  0  0  0  0  0  0  0  0
  112.3266  -78.9628  -85.8330 C   0  0  0  0  0  0  0  0  0  0  0  0
  112.1656  -79.3228  -87.2180 C   0  0  2  0  0  0  0  0  0  0  0  0
  111.5492  -78.4663  -88.1636 C   0  0  0  0  0  0  0  0  0  0  0  0
  111.0252  -77.1748  -87.7595 C   0  0  0  0  0  0  0  0  0  0  0  0
  111.1625  -76.7995  -86.3736 C   0  0  2  0  0  0  0  0  0  0  0  0
  110.5769  -75.4487  -86.0355 C   0  0  1  0  0  0  0  0  0  0  0  0
  110.8402  -75.2854  -84.6636 C   0  0  2  0  0  0  0  0  0  0  0  0
  110.3439  -74.0079  -84.1471 C   0  0  0  0  0  0  0  0  0  0  0  0
  110.5938  -73.7781  -82.7588 C   0  0  0  0  0  0  0  0  0  0  0  0
  109.9499  -74.6435  -86.9674 C   0  0  0  0  0  0  0  0  0  0  0  0
  110.2938  -73.3026  -87.2576 C   0  0  0  0  0  0  0  0  0  0  0  0
  109.6834  -72.4809  -88.2069 C   0  0  0  0  0  0  0  0  0  0  0  0
  108.5835  -72.9994  -89.0062 C   0  0  0  0  0  0  0  0  0  0  0  0
  108.2568  -74.3386  -88.6840 C   0  0  0  0  0  0  0  0  0  0  0  0
  108.8376  -75.1964  -87.7397 C   0  0  0  0  0  0  0  0  0  0  0  0
  111.0060  -73.0428  -80.0863 C   0  0  0  0  0  0  0  0  0  0  0  0
  112.0302  -75.1816  -79.5622 C   0  0  0  0  0  0  0  0  0  0  0  0
  113.2131  -81.6690  -86.6471 C   0  0  0  0  0  0  0  0  0  0  0  0
  112.6602  -81.0266  -88.9593 C   0  0  0  0  0  0  0  0  0  0  0  0
  1  2  1  1  0  0  0
  1  3  1  0  0  0  0
  1 16  1  0  0  0  0
  2 23  1  0  0  0  0
  2 24  1  0  0  0  0
  4 25  1  0  0  0  0
  4 26  1  0  0  0  0
  5  6  1  0  0  0  0
  6  3  1  6  0  0  0
  6 14  1  0  0  0  0
  7  5  1  1  0  0  0
  7  8  1  0  0  0  0
  7 12  1  0  0  0  0
  8  9  1  0  0  0  0
  9  4  1  1  0  0  0
  9 10  1  0  0  0  0
 10 11  1  0  0  0  0
 12 11  1  6  0  0  0
 12 13  1  0  0  0  0
 13 14  1  0  0  0  0
 13 17  1  6  0  0  0
 14 15  1  6  0  0  0
 15 16  1  0  0  0  0
 17 18  1  0  0  0  0
 17 22  1  0  0  0  0
 18 19  1  0  0  0  0
 19 20  1  0  0  0  0
 20 21  1  0  0  0  0
 21 22  1  0  0  0  0
M  END
>  <CHROM.1>
177.01839855,6.17941972,-124.93873170,111.12253084,-76.24278379,-85.37472128
-1.81637566,1.07674325,-2.07475530

>  <Name>
ligand

>  <RI>
0

>  <Rbt.Current_Directory>
/home/itssahil/PROJECTS/Mol_Feturizer/Test_systems_manuscript/rnas/1f1t

>  <Rbt.Executable>
rbdock ($Id: //depot/dev/client3/rdock/2013.1/src/exe/rbdock.cxx#4 $)

>  <Rbt.Library>
libRbt.so (2013.1, Build901 2013/11/27)

>  <Rbt.Parameter_File>
/export/apps/rDock/src/rDock_2013.1_src/data/scripts/dock_solv.prm

>  <Rbt.Receptor>
prm/pocket_docking_6.prm

>  <SCORE>
-56.033

>  <SCORE.INTER>
-56.5261

>  <SCORE.INTER.CONST>
1

>  <SCORE.INTER.POLAR>
0

>  <SCORE.INTER.ROT>
3

>  <SCORE.INTER.SOLV>
9.00634

>  <SCORE.INTER.VDW>
-46.2862

>  <SCORE.INTER.norm>
-2.17408

>  <SCORE.INTRA>
0.493094

>  <SCORE.INTRA.DIHEDRAL>
-1.13329e-05

>  <SCORE.INTRA.DIHEDRAL.0>
3.60016

>  <SCORE.INTRA.POLAR>
0

>  <SCORE.INTRA.POLAR.0>
0

>  <SCORE.INTRA.REPUL>
0

>  <SCORE.INTRA.REPUL.0>
0

>  <SCORE.INTRA.SOLV>
1.66597e-05

>  <SCORE.INTRA.SOLV.lig_0>
-10.9882

>  <SCORE.INTRA.VDW>
0.493091

>  <SCORE.INTRA.VDW.0>
1.84442

>  <SCORE.INTRA.norm>
0.0189651

>  <SCORE.RESTR>
0

>  <SCORE.RESTR.CAVITY>
0

>  <SCORE.RESTR.norm>
0

>  <SCORE.SYSTEM>
0

>  <SCORE.SYSTEM.CONST>
0

>  <SCORE.SYSTEM.DIHEDRAL>
0

>  <SCORE.SYSTEM.SOLV>
0

>  <SCORE.SYSTEM.norm>
0

>  <SCORE.heavy>
26

>  <SCORE.norm>
-2.15512

>  <RMSD>
0.729

$$$$
ligand
 OpenBabel02271912153D
libRbt.so/2013.1/901 2013/11/27
 26 29  0  0  0  0  0  0  0  0999 V2000
  112.2286  -79.4082  -87.1118 C   0  0  1  0  0  0  0  0  0  0  0  0
  112.7248  -80.6411  -87.5104 N   0  0  0  0  0  0  0  0  0  0  0  0
  112.3504  -78.9885  -85.7235 C   0  0  0  0  0  0  0  0  0  0  0  0
  111.3486  -74.3869  -80.6272 N   0  0  0  0  0  0  0  0  0  0  0  0
  111.9517  -77.3489  -84.0495 O   0  0  0  0  0  0  0  0  0  0  0  0
  111.8013  -77.7277  -85.4825 C   0  0  2  0  0  0  0  0  0  0  0  0
  111.4380  -76.2006  -83.8365 C   0  0  1  0  0  0  0  0  0  0  0  0
  111.6450  -75.9170  -82.4165 C   0  0  0  0  0  0  0  0  0  0  0  0
  111.1146  -74.6486  -81.9881 C   0  0  2  0  0  0  0  0  0  0  0  0
  110.4416  -73.7652  -82.8680 C   0  0  0  0  0  0  0  0  0  0  0  0
  110.2769  -74.1019  -84.2699 C   0  0  0  0  0  0  0  0  0  0  0  0
  110.8133  -75.3613  -84.7244 C   0  0  2  0  0  0  0  0  0  0  0  0
  110.6128  -75.6256  -86.1981 C   0  0  1  0  0  0  0  0  0  0  0  0
  111.1840  -76.8936  -86.4082 C   0  0  2  0  0  0  0  0  0  0  0  0
  111.0775  -77.3310  -87.8019 C   0  0  0  0  0  0  0  0  0  0  0  0
  111.6296  -78.6205  -88.0755 C   0  0  0  0  0  0  0  0  0  0  0  0
  109.9824  -74.7344  -87.0456 C   0  0  0  0  0  0  0  0  0  0  0  0
  110.3076  -73.3651  -87.1863 C   0  0  0  0  0  0  0  0  0  0  0  0
  109.6937  -72.4554  -88.0490 C   0  0  0  0  0  0  0  0  0  0  0  0
  108.6103  -72.9013  -88.9122 C   0  0  0  0  0  0  0  0  0  0  0  0
  108.3020  -74.2721  -88.7393 C   0  0  0  0  0  0  0  0  0  0  0  0
  108.8869  -75.2176  -87.8857 C   0  0  0  0  0  0  0  0  0  0  0  0
  113.2597  -81.6084  -86.5561 C   0  0  0  0  0  0  0  0  0  0  0  0
  112.7826  -81.1578  -88.8944 C   0  0  0  0  0  0  0  0  0  0  0  0
  111.9897  -75.1963  -79.5669 C   0  0  0  0  0  0  0  0  0  0  0  0
  110.9044  -73.0500  -80.0960 C   0  0  0  0  0  0  0  0  0  0  0  0
  1  2  1  6  0  0  0
  1  3  1  0  0  0  0
  1 16  1  0  0  0  0
  2 23  1  0  0  0  0
  2 24  1  0  0  0  0
  4 25  1  0  0  0  0
  4 26  1  0  0  0  0
  5  6  1  0  0  0  0
  6  3  1  1  0  0  0
  6 14  1  0  0  0  0
  7  5  1  6  0  0  0
  7  8  1  0  0  0  0
  7 12  1  0  0  0  0
  8  9  1  0  0  0  0
  9  4  1  6  0  0  0
  9 10  1  0  0  0  0
 10 11  1  0  0  0  0
 12 11  1  1  0  0  0
 12 13  1  0  0  0  0
 13 14  1  0  0  0  0
 13 17  1  1  0  0  0
 14 15  1  1  0  0  0
 15 16  1  0  0  0  0
 17 18  1  0  0  0  0
 17 22  1  0  0  0  0
 18 19  1  0  0  0  0
 19 20  1  0  0  0  0
 20 21  1  0  0  0  0
 21 22  1  0  0  0  0
M  END
>  <CHROM.1>
6.08128257,-2.57010573,52.02517009,111.11785931,-76.27614658,-85.36746619
-1.26514604,-1.07863534,1.09222128

>  <Name>
ligand

>  <RI>
0

>  <Rbt.Current_Directory>
/home/itssahil/PROJECTS/Mol_Feturizer/Test_systems_manuscript/rnas/1f1t

>  <Rbt.Executable>
rbdock ($Id: //depot/dev/client3/rdock/2013.1/src/exe/rbdock.cxx#4 $)

>  <Rbt.Library>
libRbt.so (2013.1, Build901 2013/11/27)

>  <Rbt.Parameter_File>
/export/apps/rDock/src/rDock_2013.1_src/data/scripts/dock_solv.prm

>  <Rbt.Receptor>
prm/pocket_docking_7.prm

>  <SCORE>
-56.5814

>  <SCORE.INTER>
-56.775

>  <SCORE.INTER.CONST>
1

>  <SCORE.INTER.POLAR>
0

>  <SCORE.INTER.ROT>
3

>  <SCORE.INTER.SOLV>
9.03314

>  <SCORE.INTER.VDW>
-46.461

>  <SCORE.INTER.norm>
-2.18365

>  <SCORE.INTRA>
0.193627

>  <SCORE.INTRA.DIHEDRAL>
0.000275375

>  <SCORE.INTRA.DIHEDRAL.0>
3.60016

>  <SCORE.INTRA.POLAR>
0

>  <SCORE.INTRA.POLAR.0>
0

>  <SCORE.INTRA.REPUL>
0

>  <SCORE.INTRA.REPUL.0>
0

>  <SCORE.INTRA.SOLV>
1.27209e-05

>  <SCORE.INTRA.SOLV.lig_0>
-10.9882

>  <SCORE.INTRA.VDW>
0.193483

>  <SCORE.INTRA.VDW.0>
1.84442

>  <SCORE.INTRA.norm>
0.00744721

>  <SCORE.RESTR>
0

>  <SCORE.RESTR.CAVITY>
0

>  <SCORE.RESTR.norm>
0

>  <SCORE.SYSTEM>
0

>  <SCORE.SYSTEM.CONST>
0

>  <SCORE.SYSTEM.DIHEDRAL>
0

>  <SCORE.SYSTEM.SOLV>
0

>  <SCORE.SYSTEM.norm>
0

>  <SCORE.heavy>
26

>  <SCORE.norm>
-2.17621

>  <RMSD>
0.729

$$$$
ligand
 OpenBabel02271912153D
libRbt.so/2013.1/901 2013/11/27
 26 29  0  0  0  0  0  0  0  0999 V2000
  112.2369  -79.4531  -87.1485 C   0  0  1  0  0  0  0  0  0  0  0  0
  112.7623  -80.6762  -87.5397 N   0  0  0  0  0  0  0  0  0  0  0  0
  112.3640  -79.0145  -85.7665 C   0  0  0  0  0  0  0  0  0  0  0  0
  111.2972  -74.3852  -80.7086 N   0  0  0  0  0  0  0  0  0  0  0  0
  111.9404  -77.3678  -84.1056 O   0  0  0  0  0  0  0  0  0  0  0  0
  111.7830  -77.7667  -85.5324 C   0  0  2  0  0  0  0  0  0  0  0  0
  111.3976  -76.2318  -83.8987 C   0  0  1  0  0  0  0  0  0  0  0  0
  111.6141  -75.9265  -82.4846 C   0  0  0  0  0  0  0  0  0  0  0  0
  111.0540  -74.6686  -82.0635 C   0  0  2  0  0  0  0  0  0  0  0  0
  110.3460  -73.8141  -82.9445 C   0  0  0  0  0  0  0  0  0  0  0  0
  110.1735  -74.1710  -84.3405 C   0  0  0  0  0  0  0  0  0  0  0  0
  110.7391  -75.4201  -84.7878 C   0  0  2  0  0  0  0  0  0  0  0  0
  110.5279  -75.7066  -86.2560 C   0  0  1  0  0  0  0  0  0  0  0  0
  111.1315  -76.9606  -86.4593 C   0  0  2  0  0  0  0  0  0  0  0  0
  111.0202  -77.4164  -87.8467 C   0  0  0  0  0  0  0  0  0  0  0  0
  111.6045  -78.6932  -88.1131 C   0  0  0  0  0  0  0  0  0  0  0  0
  109.8626  -74.8427  -87.1052 C   0  0  0  0  0  0  0  0  0  0  0  0
  110.1618  -73.4716  -87.2807 C   0  0  0  0  0  0  0  0  0  0  0  0
  109.5124  -72.5893  -88.1459 C   0  0  0  0  0  0  0  0  0  0  0  0
  108.4159  -73.0697  -88.9734 C   0  0  0  0  0  0  0  0  0  0  0  0
  108.1345  -74.4414  -88.7660 C   0  0  0  0  0  0  0  0  0  0  0  0
  108.7553  -75.3602  -87.9085 C   0  0  0  0  0  0  0  0  0  0  0  0
  113.2584  -81.6530  -86.5743 C   0  0  0  0  0  0  0  0  0  0  0  0
  112.8915  -81.1724  -88.9264 C   0  0  0  0  0  0  0  0  0  0  0  0
  111.9426  -75.1789  -79.6391 C   0  0  0  0  0  0  0  0  0  0  0  0
  110.8604  -73.0383  -80.1968 C   0  0  0  0  0  0  0  0  0  0  0  0
  1  2  1  6  0  0  0
  1  3  1  0  0  0  0
  1 16  1  0  0  0  0
  2 23  1  0  0  0  0
  2 24  1  0  0  0  0
  4 25  1  0  0  0  0
  4 26  1  0  0  0  0
  5  6  1  0  0  0  0
  6  3  1  1  0  0  0
  6 14  1  0  0  0  0
  7  5  1  6  0  0  0
  7  8  1  0  0  0  0
  7 12  1  0  0  0  0
  8  9  1  0  0  0  0
  9  4  1  6  0  0  0
  9 10  1  0  0  0  0
 10 11  1  0  0  0  0
 12 11  1  1  0  0  0
 12 13  1  0  0  0  0
 13 14  1  0  0  0  0
 13 17  1  1  0  0  0
 14 15  1  1  0  0  0
 15 16  1  0  0  0  0
 17 18  1  0  0  0  0
 17 22  1  0  0  0  0
 18 19  1  0  0  0  0
 19 20  1  0  0  0  0
 20 21  1  0  0  0  0
 21 22  1  0  0  0  0
M  END
>  <CHROM.1>
10.03013542,-4.39238699,53.09906562,111.06105052,-76.33340254,-85.42463210
-1.25994786,-1.04989311,1.08567559

>  <Name>
ligand

>  <RI>
0

>  <Rbt.Current_Directory>
/home/itssahil/PROJECTS/Mol_Feturizer/Test_systems_manuscript/rnas/1f1t

>  <Rbt.Executable>
rbdock ($Id: //depot/dev/client3/rdock/2013.1/src/exe/rbdock.cxx#4 $)

>  <Rbt.Library>
libRbt.so (2013.1, Build901 2013/11/27)

>  <Rbt.Parameter_File>
/export/apps/rDock/src/rDock_2013.1_src/data/scripts/dock_solv.prm

>  <Rbt.Receptor>
prm/pocket_docking_8.prm

>  <SCORE>
-56.2177

>  <SCORE.INTER>
-56.3122

>  <SCORE.INTER.CONST>
1

>  <SCORE.INTER.POLAR>
0

>  <SCORE.INTER.ROT>
3

>  <SCORE.INTER.SOLV>
8.89401

>  <SCORE.INTER.VDW>
-46.1061

>  <SCORE.INTER.norm>
-2.16585

>  <SCORE.INTRA>
0.0945072

>  <SCORE.INTRA.DIHEDRAL>
0.000273968

>  <SCORE.INTRA.DIHEDRAL.0>
3.60016

>  <SCORE.INTRA.POLAR>
0

>  <SCORE.INTRA.POLAR.0>
0

>  <SCORE.INTRA.REPUL>
0

>  <SCORE.INTRA.REPUL.0>
0

>  <SCORE.INTRA.SOLV>
4.16811e-05

>  <SCORE.INTRA.SOLV.lig_0>
-10.9882

>  <SCORE.INTRA.VDW>
0.0943494

>  <SCORE.INTRA.VDW.0>
1.84442

>  <SCORE.INTRA.norm>
0.00363489

>  <SCORE.RESTR>
0

>  <SCORE.RESTR.CAVITY>
0

>  <SCORE.RESTR.norm>
0

>  <SCORE.SYSTEM>
0

>  <SCORE.SYSTEM.CONST>
0

>  <SCORE.SYSTEM.DIHEDRAL>
0

>  <SCORE.SYSTEM.SOLV>
0

>  <SCORE.SYSTEM.norm>
0

>  <SCORE.heavy>
26

>  <SCORE.norm>
-2.16222

>  <RMSD>
0.729

$$$$
ligand
 OpenBabel02271912153D
libRbt.so/2013.1/901 2013/11/27
 26 29  0  0  0  0  0  0  0  0999 V2000
  112.2324  -79.4857  -87.1313 C   0  0  1  0  0  0  0  0  0  0  0  0
  112.7524  -80.7126  -87.5181 N   0  0  0  0  0  0  0  0  0  0  0  0
  112.3669  -79.0399  -85.7523 C   0  0  0  0  0  0  0  0  0  0  0  0
  111.3361  -74.3795  -80.7156 N   0  0  0  0  0  0  0  0  0  0  0  0
  111.9554  -77.3827  -84.0988 O   0  0  0  0  0  0  0  0  0  0  0  0
  111.7906  -77.7891  -85.5226 C   0  0  2  0  0  0  0  0  0  0  0  0
  111.4169  -76.2440  -83.8958 C   0  0  1  0  0  0  0  0  0  0  0  0
  111.6405  -75.9316  -82.4844 C   0  0  0  0  0  0  0  0  0  0  0  0
  111.0860  -74.6696  -82.0678 C   0  0  2  0  0  0  0  0  0  0  0  0
  110.3766  -73.8179  -82.9505 C   0  0  0  0  0  0  0  0  0  0  0  0
  110.1970  -74.1821  -84.3436 C   0  0  0  0  0  0  0  0  0  0  0  0
  110.7568  -75.4353  -84.7865 C   0  0  2  0  0  0  0  0  0  0  0  0
  110.5384  -75.7293  -86.2521 C   0  0  1  0  0  0  0  0  0  0  0  0
  111.1374  -76.9862  -86.4511 C   0  0  2  0  0  0  0  0  0  0  0  0
  111.0186  -77.4494  -87.8354 C   0  0  0  0  0  0  0  0  0  0  0  0
  111.5979  -78.7293  -88.0974 C   0  0  0  0  0  0  0  0  0  0  0  0
  109.8719  -74.8682  -87.1032 C   0  0  0  0  0  0  0  0  0  0  0  0
  108.7907  -75.2192  -87.9447 C   0  0  0  0  0  0  0  0  0  0  0  0
  108.0952  -74.3596  -88.7969 C   0  0  0  0  0  0  0  0  0  0  0  0
  108.4725  -72.9558  -88.8671 C   0  0  0  0  0  0  0  0  0  0  0  0
  109.5636  -72.6397  -88.0225 C   0  0  0  0  0  0  0  0  0  0  0  0
  110.2915  -73.4680  -87.1570 C   0  0  0  0  0  0  0  0  0  0  0  0
  112.8385  -81.1126  -88.9198 C   0  0  0  0  0  0  0  0  0  0  0  0
  113.2868  -81.7606  -86.6225 C   0  0  0  0  0  0  0  0  0  0  0  0
  111.9751  -75.1730  -79.6421 C   0  0  0  0  0  0  0  0  0  0  0  0
  110.9160  -73.0241  -80.2123 C   0  0  0  0  0  0  0  0  0  0  0  0
  1  2  1  6  0  0  0
  1  3  1  0  0  0  0
  1 16  1  0  0  0  0
  2 23  1  0  0  0  0
  2 24  1  0  0  0  0
  4 25  1  0  0  0  0
  4 26  1  0  0  0  0
  5  6  1  0  0  0  0
  6  3  1  1  0  0  0
  6 14  1  0  0  0  0
  7  5  1  6  0  0  0
  7  8  1  0  0  0  0
  7 12  1  0  0  0  0
  8  9  1  0  0  0  0
  9  4  1  6  0  0  0
  9 10  1  0  0  0  0
 10 11  1  0  0  0  0
 12 11  1  1  0  0  0
 12 13  1  0  0  0  0
 13 14  1  0  0  0  0
 13 17  1  1  0  0  0
 14 15  1  1  0  0  0
 15 16  1  0  0  0  0
 17 18  1  0  0  0  0
 17 22  1  0  0  0  0
 18 19  1  0  0  0  0
 19 20  1  0  0  0  0
 20 21  1  0  0  0  0
 21 22  1  0  0  0  0
M  END
>  <CHROM.1>
-169.89201596,-4.89838499,-127.91551098,111.08054828,-76.33601989,-85.41341167
-1.25406647,-1.05420566,1.07451021

>  <Name>
ligand

>  <RI>
0

>  <Rbt.Current_Directory>
/home/itssahil/PROJECTS/Mol_Feturizer/Test_systems_manuscript/rnas/1f1t

>  <Rbt.Executable>
rbdock ($Id: //depot/dev/client3/rdock/2013.1/src/exe/rbdock.cxx#4 $)

>  <Rbt.Library>
libRbt.so (2013.1, Build901 2013/11/27)

>  <Rbt.Parameter_File>
/export/apps/rDock/src/rDock_2013.1_src/data/scripts/dock_solv.prm

>  <Rbt.Receptor>
prm/pocket_docking_8.prm

>  <SCORE>
-55.6821

>  <SCORE.INTER>
-56.1759

>  <SCORE.INTER.CONST>
1

>  <SCORE.INTER.POLAR>
0

>  <SCORE.INTER.ROT>
3

>  <SCORE.INTER.SOLV>
8.86038

>  <SCORE.INTER.VDW>
-46.0041

>  <SCORE.INTER.norm>
-2.16061

>  <SCORE.INTRA>
0.493844

>  <SCORE.INTRA.DIHEDRAL>
6.82958e-07

>  <SCORE.INTRA.DIHEDRAL.0>
3.60016

>  <SCORE.INTRA.POLAR>
0

>  <SCORE.INTRA.POLAR.0>
0

>  <SCORE.INTRA.REPUL>
0

>  <SCORE.INTRA.REPUL.0>
0

>  <SCORE.INTRA.SOLV>
4.32103e-05

>  <SCORE.INTRA.SOLV.lig_0>
-10.9882

>  <SCORE.INTRA.VDW>
0.493822

>  <SCORE.INTRA.VDW.0>
1.84442

>  <SCORE.INTRA.norm>
0.018994

>  <SCORE.RESTR>
0

>  <SCORE.RESTR.CAVITY>
0

>  <SCORE.RESTR.norm>
0

>  <SCORE.SYSTEM>
0

>  <SCORE.SYSTEM.CONST>
0

>  <SCORE.SYSTEM.DIHEDRAL>
0

>  <SCORE.SYSTEM.SOLV>
0

>  <SCORE.SYSTEM.norm>
0

>  <SCORE.heavy>
26

>  <SCORE.norm>
-2.14162

>  <RMSD>
0.729

$$$$
ligand
 OpenBabel02271912153D
libRbt.so/2013.1/901 2013/11/27
 26 29  0  0  0  0  0  0  0  0999 V2000
  112.2157  -79.4111  -87.1114 C   0  0  1  0  0  0  0  0  0  0  0  0
  112.7096  -80.6449  -87.5100 N   0  0  0  0  0  0  0  0  0  0  0  0
  112.3385  -78.9915  -85.7231 C   0  0  0  0  0  0  0  0  0  0  0  0
  111.3455  -74.3880  -80.6268 N   0  0  0  0  0  0  0  0  0  0  0  0
  111.9429  -77.3511  -84.0491 O   0  0  0  0  0  0  0  0  0  0  0  0
  111.7915  -77.7298  -85.4821 C   0  0  2  0  0  0  0  0  0  0  0  0
  111.4312  -76.2019  -83.8360 C   0  0  1  0  0  0  0  0  0  0  0  0
  111.6390  -75.9186  -82.4161 C   0  0  0  0  0  0  0  0  0  0  0  0
  111.1109  -74.6493  -81.9877 C   0  0  2  0  0  0  0  0  0  0  0  0
  110.4393  -73.7648  -82.8675 C   0  0  0  0  0  0  0  0  0  0  0  0
  110.2737  -74.1013  -84.2693 C   0  0  0  0  0  0  0  0  0  0  0  0
  110.8078  -75.3616  -84.7239 C   0  0  2  0  0  0  0  0  0  0  0  0
  110.6066  -75.6257  -86.1975 C   0  0  1  0  0  0  0  0  0  0  0  0
  111.1755  -76.8947  -86.4077 C   0  0  2  0  0  0  0  0  0  0  0  0
  111.0681  -77.3319  -87.8013 C   0  0  0  0  0  0  0  0  0  0  0  0
  111.6178  -78.6224  -88.0750 C   0  0  0  0  0  0  0  0  0  0  0  0
  109.9776  -74.7334  -87.0450 C   0  0  0  0  0  0  0  0  0  0  0  0
  110.3069  -73.3653  -87.1876 C   0  0  0  0  0  0  0  0  0  0  0  0
  109.6944  -72.4546  -88.0504 C   0  0  0  0  0  0  0  0  0  0  0  0
  108.6082  -72.8980  -88.9113 C   0  0  0  0  0  0  0  0  0  0  0  0
  108.2959  -74.2676  -88.7364 C   0  0  0  0  0  0  0  0  0  0  0  0
  108.8792  -75.2141  -87.8828 C   0  0  0  0  0  0  0  0  0  0  0  0
  113.2534  -81.6085  -86.5570 C   0  0  0  0  0  0  0  0  0  0  0  0
  112.7564  -81.1661  -88.8928 C   0  0  0  0  0  0  0  0  0  0  0  0
  111.9924  -75.1953  -79.5684 C   0  0  0  0  0  0  0  0  0  0  0  0
  110.8952  -73.0540  -80.0934 C   0  0  0  0  0  0  0  0  0  0  0  0
  1  2  1  6  0  0  0
  1  3  1  0  0  0  0
  1 16  1  0  0  0  0
  2 23  1  0  0  0  0
  2 24  1  0  0  0  0
  4 25  1  0  0  0  0
  4 26  1  0  0  0  0
  5  6  1  0  0  0  0
  6  3  1  1  0  0  0
  6 14  1  0  0  0  0
  7  5  1  6  0  0  0
  7  8  1  0  0  0  0
  7 12  1  0  0  0  0
  8  9  1  0  0  0  0
  9  4  1  6  0  0  0
  9 10  1  0  0  0  0
 10 11  1  0  0  0  0
 12 11  1  1  0  0  0
 12 13  1  0  0  0  0
 13 14  1  0  0  0  0
 13 17  1  1  0  0  0
 14 15  1  1  0  0  0
 15 16  1  0  0  0  0
 17 18  1  0  0  0  0
 17 22  1  0  0  0  0
 18 19  1  0  0  0  0
 19 20  1  0  0  0  0
 20 21  1  0  0  0  0
 21 22  1  0  0  0  0
M  END
>  <CHROM.1>
5.55665889,-2.16133683,52.15315364,111.11060649,-76.27706070,-85.36693027
-1.26727139,-1.07980320,1.09028275

>  <Name>
ligand

>  <RI>
0

>  <Rbt.Current_Directory>
/home/itssahil/PROJECTS/Mol_Feturizer/Test_systems_manuscript/rnas/1f1t

>  <Rbt.Executable>
rbdock ($Id: //depot/dev/client3/rdock/2013.1/src/exe/rbdock.cxx#4 $)

>  <Rbt.Library>
libRbt.so (2013.1, Build901 2013/11/27)

>  <Rbt.Parameter_File>
/export/apps/rDock/src/rDock_2013.1_src/data/scripts/dock_solv.prm

>  <Rbt.Receptor>
prm/pocket_docking_8.prm

>  <SCORE>
-56.5498

>  <SCORE.INTER>
-56.7479

>  <SCORE.INTER.CONST>
1

>  <SCORE.INTER.POLAR>
0

>  <SCORE.INTER.ROT>
3

>  <SCORE.INTER.SOLV>
9.01738

>  <SCORE.INTER.VDW>
-46.4377

>  <SCORE.INTER.norm>
-2.18261

>  <SCORE.INTRA>
0.198036

>  <SCORE.INTRA.DIHEDRAL>
0.000276594

>  <SCORE.INTRA.DIHEDRAL.0>
3.60016

>  <SCORE.INTRA.POLAR>
0

>  <SCORE.INTRA.POLAR.0>
0

>  <SCORE.INTRA.REPUL>
0

>  <SCORE.INTRA.REPUL.0>
0

>  <SCORE.INTRA.SOLV>
1.00163e-05

>  <SCORE.INTRA.SOLV.lig_0>
-10.9882

>  <SCORE.INTRA.VDW>
0.197892

>  <SCORE.INTRA.VDW.0>
1.84442

>  <SCORE.INTRA.norm>
0.00761675

>  <SCORE.RESTR>
0

>  <SCORE.RESTR.CAVITY>
0

>  <SCORE.RESTR.norm>
0

>  <SCORE.SYSTEM>
0

>  <SCORE.SYSTEM.CONST>
0

>  <SCORE.SYSTEM.DIHEDRAL>
0

>  <SCORE.SYSTEM.SOLV>
0

>  <SCORE.SYSTEM.norm>
0

>  <SCORE.heavy>
26

>  <SCORE.norm>
-2.17499

>  <RMSD>
0.729

$$$$
ligand
 OpenBabel02271912153D
libRbt.so/2013.1/901 2013/11/27
 26 29  0  0  0  0  0  0  0  0999 V2000
  112.2251  -79.4061  -87.1084 C   0  0  1  0  0  0  0  0  0  0  0  0
  112.7222  -80.6391  -87.5053 N   0  0  0  0  0  0  0  0  0  0  0  0
  112.3454  -78.9850  -85.7204 C   0  0  0  0  0  0  0  0  0  0  0  0
  111.3366  -74.3790  -80.6295 N   0  0  0  0  0  0  0  0  0  0  0  0
  111.9443  -77.3439  -84.0483 O   0  0  0  0  0  0  0  0  0  0  0  0
  111.7954  -77.7242  -85.4811 C   0  0  2  0  0  0  0  0  0  0  0  0
  111.4298  -76.1957  -83.8368 C   0  0  1  0  0  0  0  0  0  0  0  0
  111.6354  -75.9106  -82.4169 C   0  0  0  0  0  0  0  0  0  0  0  0
  111.1040  -74.6421  -81.9903 C   0  0  2  0  0  0  0  0  0  0  0  0
  110.4313  -73.7599  -82.8717 C   0  0  0  0  0  0  0  0  0  0  0  0
  110.2681  -74.0980  -84.2734 C   0  0  0  0  0  0  0  0  0  0  0  0
  110.8055  -75.3576  -84.7261 C   0  0  2  0  0  0  0  0  0  0  0  0
  110.6064  -75.6235  -86.1998 C   0  0  1  0  0  0  0  0  0  0  0  0
  111.1785  -76.8914  -86.4081 C   0  0  2  0  0  0  0  0  0  0  0  0
  111.0735  -77.3301  -87.8015 C   0  0  0  0  0  0  0  0  0  0  0  0
  111.6265  -78.6196  -88.0734 C   0  0  0  0  0  0  0  0  0  0  0  0
  109.9763  -74.7334  -87.0487 C   0  0  0  0  0  0  0  0  0  0  0  0
  110.3045  -73.3653  -87.1943 C   0  0  0  0  0  0  0  0  0  0  0  0
  109.6909  -72.4568  -88.0586 C   0  0  0  0  0  0  0  0  0  0  0  0
  108.6047  -72.9028  -88.9181 C   0  0  0  0  0  0  0  0  0  0  0  0
  108.2935  -74.2723  -88.7404 C   0  0  0  0  0  0  0  0  0  0  0  0
  108.8780  -75.2166  -87.8851 C   0  0  0  0  0  0  0  0  0  0  0  0
  113.2970  -81.5872  -86.5550 C   0  0  0  0  0  0  0  0  0  0  0  0
  112.7429  -81.1744  -88.8833 C   0  0  0  0  0  0  0  0  0  0  0  0
  111.9958  -75.1783  -79.5727 C   0  0  0  0  0  0  0  0  0  0  0  0
  110.8685  -73.0518  -80.0941 C   0  0  0  0  0  0  0  0  0  0  0  0
  1  2  1  6  0  0  0
  1  3  1  0  0  0  0
  1 16  1  0  0  0  0
  2 23  1  0  0  0  0
  2 24  1  0  0  0  0
  4 25  1  0  0  0  0
  4 26  1  0  0  0  0
  5  6  1  0  0  0  0
  6  3  1  1  0  0  0
  6 14  1  0  0  0  0
  7  5  1  6  0  0  0
  7  8  1  0  0  0  0
  7 12  1  0  0  0  0
  8  9  1  0  0  0  0
  9  4  1  6  0  0  0
  9 10  1  0  0  0  0
 10 11  1  0  0  0  0
 12 11  1  1  0  0  0
 12 13  1  0  0  0  0
 13 14  1  0  0  0  0
 13 17  1  1  0  0  0
 14 15  1  1  0  0  0
 15 16  1  0  0  0  0
 17 18  1  0  0  0  0
 17 22  1  0  0  0  0
 18 19  1  0  0  0  0
 19 20  1  0  0  0  0
 20 21  1  0  0  0  0
 21 22  1  0  0  0  0
M  END
>  <CHROM.1>
4.02459404,-1.47548699,52.29125969,111.11094868,-76.27294199,-85.36799520
-1.26347648,-1.07762437,1.09262620

>  <Name>
ligand

>  <RI>
0

>  <Rbt.Current_Directory>
/home/itssahil/PROJECTS/Mol_Feturizer/Test_systems_manuscript/rnas/1f1t

>  <Rbt.Executable>
rbdock ($Id: //depot/dev/client3/rdock/2013.1/src/exe/rbdock.cxx#4 $)

>  <Rbt.Library>
libRbt.so (2013.1, Build901 2013/11/27)

>  <Rbt.Parameter_File>
/export/apps/rDock/src/rDock_2013.1_src/data/scripts/dock_solv.prm

>  <Rbt.Receptor>
prm/pocket_docking_2.prm

>  <SCORE>
-56.4776

>  <SCORE.INTER>
-56.6886

>  <SCORE.INTER.CONST>
1

>  <SCORE.INTER.POLAR>
0

>  <SCORE.INTER.ROT>
3

>  <SCORE.INTER.SOLV>
9.06327

>  <SCORE.INTER.VDW>
-46.4135

>  <SCORE.INTER.norm>
-2.18033

>  <SCORE.INTRA>
0.210991

>  <SCORE.INTRA.DIHEDRAL>
0.000278029

>  <SCORE.INTRA.DIHEDRAL.0>
3.60016

>  <SCORE.INTRA.POLAR>
0

>  <SCORE.INTRA.POLAR.0>
0

>  <SCORE.INTRA.REPUL>
0

>  <SCORE.INTRA.REPUL.0>
0

>  <SCORE.INTRA.SOLV>
3.8175e-06

>  <SCORE.INTRA.SOLV.lig_0>
-10.9882

>  <SCORE.INTRA.VDW>
0.21085

>  <SCORE.INTRA.VDW.0>
1.84442

>  <SCORE.INTRA.norm>
0.00811505

>  <SCORE.RESTR>
0

>  <SCORE.RESTR.CAVITY>
0

>  <SCORE.RESTR.norm>
0

>  <SCORE.SYSTEM>
0

>  <SCORE.SYSTEM.CONST>
0

>  <SCORE.SYSTEM.DIHEDRAL>
0

>  <SCORE.SYSTEM.SOLV>
0

>  <SCORE.SYSTEM.norm>
0

>  <SCORE.heavy>
26

>  <SCORE.norm>
-2.17221

>  <RMSD>
0.730

$$$$
ligand
 OpenBabel02271912153D
libRbt.so/2013.1/901 2013/11/27
 26 29  0  0  0  0  0  0  0  0999 V2000
  111.1709  -74.7161  -82.0073 C   0  0  1  0  0  0  0  0  0  0  0  0
  111.3478  -74.3545  -80.6795 N   0  0  0  0  0  0  0  0  0  0  0  0
  111.6955  -75.9839  -82.4928 C   0  0  0  0  0  0  0  0  0  0  0  0
  112.7130  -80.6385  -87.5376 N   0  0  0  0  0  0  0  0  0  0  0  0
  111.9968  -77.5078  -84.2919 O   0  0  0  0  0  0  0  0  0  0  0  0
  111.4385  -76.1997  -83.8481 C   0  0  2  0  0  0  0  0  0  0  0  0
  111.7666  -77.6917  -85.5333 C   0  0  1  0  0  0  0  0  0  0  0  0
  112.3388  -78.9960  -85.8666 C   0  0  0  0  0  0  0  0  0  0  0  0
  112.1791  -79.3712  -87.2476 C   0  0  2  0  0  0  0  0  0  0  0  0
  111.5347  -78.5389  -88.1961 C   0  0  0  0  0  0  0  0  0  0  0  0
  110.9794  -77.2584  -87.7989 C   0  0  0  0  0  0  0  0  0  0  0  0
  111.1150  -76.8685  -86.4169 C   0  0  2  0  0  0  0  0  0  0  0  0
  110.4961  -75.5308  -86.0858 C   0  0  1  0  0  0  0  0  0  0  0  0
  110.7631  -75.3497  -84.7168 C   0  0  2  0  0  0  0  0  0  0  0  0
  110.2366  -74.0816  -84.2074 C   0  0  0  0  0  0  0  0  0  0  0  0
  110.4886  -73.8341  -82.8225 C   0  0  0  0  0  0  0  0  0  0  0  0
  109.8426  -74.7499  -87.0202 C   0  0  0  0  0  0  0  0  0  0  0  0
  108.7955  -75.1849  -87.8656 C   0  0  0  0  0  0  0  0  0  0  0  0
  108.1130  -74.4061  -88.8018 C   0  0  0  0  0  0  0  0  0  0  0  0
  108.4678  -73.0044  -88.9670 C   0  0  0  0  0  0  0  0  0  0  0  0
  109.5253  -72.6038  -88.1155 C   0  0  0  0  0  0  0  0  0  0  0  0
  110.2391  -73.3497  -87.1674 C   0  0  0  0  0  0  0  0  0  0  0  0
  110.9057  -73.0631  -80.1607 C   0  0  0  0  0  0  0  0  0  0  0  0
  111.9724  -75.1774  -79.6218 C   0  0  0  0  0  0  0  0  0  0  0  0
  113.2699  -81.6941  -86.6624 C   0  0  0  0  0  0  0  0  0  0  0  0
  112.7339  -81.0636  -88.9819 C   0  0  0  0  0  0  0  0  0  0  0  0
  1  2  1  1  0  0  0
  1  3  1  0  0  0  0
  1 16  1  0  0  0  0
  2 23  1  0  0  0  0
  2 24  1  0  0  0  0
  4 25  1  0  0  0  0
  4 26  1  0  0  0  0
  5  6  1  0  0  0  0
  6  3  1  6  0  0  0
  6 14  1  0  0  0  0
  7  5  1  1  0  0  0
  7  8  1  0  0  0  0
  7 12  1  0  0  0  0
  8  9  1  0  0  0  0
  9  4  1  1  0  0  0
  9 10  1  0  0  0  0
 10 11  1  0  0  0  0
 12 11  1  6  0  0  0
 12 13  1  0  0  0  0
 13 14  1  0  0  0  0
 13 17  1  6  0  0  0
 14 15  1  6  0  0  0
 15 16  1  0  0  0  0
 17 18  1  0  0  0  0
 17 22  1  0  0  0  0
 18 19  1  0  0  0  0
 19 20  1  0  0  0  0
 20 21  1  0  0  0  0
 21 22  1  0  0  0  0
M  END
>  <CHROM.1>
176.57923236,7.40777249,52.33066449,111.07330084,-76.28832159,-85.41307891
-1.84946795,1.05569343,-2.06679834

>  <Name>
ligand

>  <RI>
0

>  <Rbt.Current_Directory>
/home/itssahil/PROJECTS/Mol_Feturizer/Test_systems_manuscript/rnas/1f1t

>  <Rbt.Executable>
rbdock ($Id: //depot/dev/client3/rdock/2013.1/src/exe/rbdock.cxx#4 $)

>  <Rbt.Library>
libRbt.so (2013.1, Build901 2013/11/27)

>  <Rbt.Parameter_File>
/export/apps/rDock/src/rDock_2013.1_src/data/scripts/dock_solv.prm

>  <Rbt.Receptor>
prm/pocket_docking_2.prm

>  <SCORE>
-55.9406

>  <SCORE.INTER>
-56.4123

>  <SCORE.INTER.CONST>
1

>  <SCORE.INTER.POLAR>
0

>  <SCORE.INTER.ROT>
3

>  <SCORE.INTER.SOLV>
8.9289

>  <SCORE.INTER.VDW>
-46.1845

>  <SCORE.INTER.norm>
-2.1697

>  <SCORE.INTRA>
0.471692

>  <SCORE.INTRA.DIHEDRAL>
0.000271157

>  <SCORE.INTRA.DIHEDRAL.0>
3.60016

>  <SCORE.INTRA.POLAR>
0

>  <SCORE.INTRA.POLAR.0>
0

>  <SCORE.INTRA.REPUL>
0

>  <SCORE.INTRA.REPUL.0>
0

>  <SCORE.INTRA.SOLV>
2.2775e-05

>  <SCORE.INTRA.SOLV.lig_0>
-10.9882

>  <SCORE.INTRA.VDW>
0.471545

>  <SCORE.INTRA.VDW.0>
1.84442

>  <SCORE.INTRA.norm>
0.018142

>  <SCORE.RESTR>
0

>  <SCORE.RESTR.CAVITY>
0

>  <SCORE.RESTR.norm>
0

>  <SCORE.SYSTEM>
0

>  <SCORE.SYSTEM.CONST>
0

>  <SCORE.SYSTEM.DIHEDRAL>
0

>  <SCORE.SYSTEM.SOLV>
0

>  <SCORE.SYSTEM.norm>
0

>  <SCORE.heavy>
26

>  <SCORE.norm>
-2.15156

>  <RMSD>
0.730

$$$$
ligand
 OpenBabel02271912153D
libRbt.so/2013.1/901 2013/11/27
 26 29  0  0  0  0  0  0  0  0999 V2000
  111.2095  -74.6922  -81.9427 C   0  0  1  0  0  0  0  0  0  0  0  0
  111.3881  -74.3519  -80.6094 N   0  0  0  0  0  0  0  0  0  0  0  0
  111.7141  -75.9620  -82.4440 C   0  0  0  0  0  0  0  0  0  0  0  0
  112.6694  -80.5635  -87.5493 N   0  0  0  0  0  0  0  0  0  0  0  0
  111.9956  -77.4659  -84.2630 O   0  0  0  0  0  0  0  0  0  0  0  0
  111.4582  -76.1548  -83.8029 C   0  0  2  0  0  0  0  0  0  0  0  0
  111.7666  -77.6288  -85.5075 C   0  0  1  0  0  0  0  0  0  0  0  0
  112.3175  -78.9380  -85.8569 C   0  0  0  0  0  0  0  0  0  0  0  0
  112.1562  -79.2914  -87.2435 C   0  0  2  0  0  0  0  0  0  0  0  0
  111.5294  -78.4352  -88.1824 C   0  0  0  0  0  0  0  0  0  0  0  0
  110.9947  -77.1510  -87.7694 C   0  0  0  0  0  0  0  0  0  0  0  0
  111.1322  -76.7825  -86.3818 C   0  0  2  0  0  0  0  0  0  0  0  0
  110.5350  -75.4391  -86.0342 C   0  0  1  0  0  0  0  0  0  0  0  0
  110.8004  -75.2814  -84.6620 C   0  0  2  0  0  0  0  0  0  0  0  0
  110.2938  -74.0116  -84.1368 C   0  0  0  0  0  0  0  0  0  0  0  0
  110.5452  -73.7875  -82.7479 C   0  0  0  0  0  0  0  0  0  0  0  0
  109.8982  -74.6343  -86.9598 C   0  0  0  0  0  0  0  0  0  0  0  0
  110.2330  -73.2906  -87.2475 C   0  0  0  0  0  0  0  0  0  0  0  0
  109.6126  -72.4691  -88.1905 C   0  0  0  0  0  0  0  0  0  0  0  0
  108.5108  -72.9910  -88.9851 C   0  0  0  0  0  0  0  0  0  0  0  0
  108.1934  -74.3331  -88.6654 C   0  0  0  0  0  0  0  0  0  0  0  0
  108.7844  -75.1908  -87.7274 C   0  0  0  0  0  0  0  0  0  0  0  0
  110.9432  -73.0706  -80.0686 C   0  0  0  0  0  0  0  0  0  0  0  0
  112.0171  -75.1903  -79.5667 C   0  0  0  0  0  0  0  0  0  0  0  0
  113.2329  -81.6285  -86.6898 C   0  0  0  0  0  0  0  0  0  0  0  0
  112.6545  -80.9836  -88.9950 C   0  0  0  0  0  0  0  0  0  0  0  0
  1  2  1  1  0  0  0
  1  3  1  0  0  0  0
  1 16  1  0  0  0  0
  2 23  1  0  0  0  0
  2 24  1  0  0  0  0
  4 25  1  0  0  0  0
  4 26  1  0  0  0  0
  5  6  1  0  0  0  0
  6  3  1  6  0  0  0
  6 14  1  0  0  0  0
  7  5  1  1  0  0  0
  7  8  1  0  0  0  0
  7 12  1  0  0  0  0
  8  9  1  0  0  0  0
  9  4  1  1  0  0  0
  9 10  1  0  0  0  0
 10 11  1  0  0  0  0
 12 11  1  6  0  0  0
 12 13  1  0  0  0  0
 13 14  1  0  0  0  0
 13 17  1  6  0  0  0
 14 15  1  6  0  0  0
 15 16  1  0  0  0  0
 17 18  1  0  0  0  0
 17 22  1  0  0  0  0
 18 19  1  0  0  0  0
 19 20  1  0  0  0  0
 20 21  1  0  0  0  0
 21 22  1  0  0  0  0
M  END
>  <CHROM.1>
177.77593285,5.83538637,-124.62004630,111.08958301,-76.23201762,-85.37946409
-1.82069775,1.06701502,-2.06512216

>  <Name>
ligand

>  <RI>
0

>  <Rbt.Current_Directory>
/home/itssahil/PROJECTS/Mol_Feturizer/Test_systems_manuscript/rnas/1f1t

>  <Rbt.Executable>
rbdock ($Id: //depot/dev/client3/rdock/2013.1/src/exe/rbdock.cxx#4 $)

>  <Rbt.Library>
libRbt.so (2013.1, Build901 2013/11/27)

>  <Rbt.Parameter_File>
/export/apps/rDock/src/rDock_2013.1_src/data/scripts/dock_solv.prm

>  <Rbt.Receptor>
prm/pocket_docking_2.prm

>  <SCORE>
-56.085

>  <SCORE.INTER>
-56.5776

>  <SCORE.INTER.CONST>
1

>  <SCORE.INTER.POLAR>
0

>  <SCORE.INTER.ROT>
3

>  <SCORE.INTER.SOLV>
9.01075

>  <SCORE.INTER.VDW>
-46.322

>  <SCORE.INTER.norm>
-2.17606

>  <SCORE.INTRA>
0.492565

>  <SCORE.INTRA.DIHEDRAL>
-1.03386e-05

>  <SCORE.INTRA.DIHEDRAL.0>
3.60016

>  <SCORE.INTRA.POLAR>
0

>  <SCORE.INTRA.POLAR.0>
0

>  <SCORE.INTRA.REPUL>
0

>  <SCORE.INTRA.REPUL.0>
0

>  <SCORE.INTRA.SOLV>
1.3471e-05

>  <SCORE.INTRA.SOLV.lig_0>
-10.9882

>  <SCORE.INTRA.VDW>
0.492564

>  <SCORE.INTRA.VDW.0>
1.84442

>  <SCORE.INTRA.norm>
0.0189448

>  <SCORE.RESTR>
0

>  <SCORE.RESTR.CAVITY>
0

>  <SCORE.RESTR.norm>
0

>  <SCORE.SYSTEM>
0

>  <SCORE.SYSTEM.CONST>
0

>  <SCORE.SYSTEM.DIHEDRAL>
0

>  <SCORE.SYSTEM.SOLV>
0

>  <SCORE.SYSTEM.norm>
0

>  <SCORE.heavy>
26

>  <SCORE.norm>
-2.15712

>  <RMSD>
0.730

$$$$
ligand
 OpenBabel02271912153D
libRbt.so/2013.1/901 2013/11/27
 26 29  0  0  0  0  0  0  0  0999 V2000
  112.2008  -79.4807  -87.1100 C   0  0  1  0  0  0  0  0  0  0  0  0
  112.7284  -80.7076  -87.4865 N   0  0  0  0  0  0  0  0  0  0  0  0
  112.3321  -79.0228  -85.7346 C   0  0  0  0  0  0  0  0  0  0  0  0
  111.2710  -74.3276  -80.7367 N   0  0  0  0  0  0  0  0  0  0  0  0
  111.9099  -77.3547  -84.0949 O   0  0  0  0  0  0  0  0  0  0  0  0
  111.7481  -77.7737  -85.5154 C   0  0  2  0  0  0  0  0  0  0  0  0
  111.3644  -76.2176  -83.9014 C   0  0  1  0  0  0  0  0  0  0  0  0
  111.5856  -75.8923  -82.4925 C   0  0  0  0  0  0  0  0  0  0  0  0
  111.0232  -74.6303  -82.0865 C   0  0  2  0  0  0  0  0  0  0  0  0
  110.3090  -73.7903  -82.9764 C   0  0  0  0  0  0  0  0  0  0  0  0
  110.1321  -74.1669  -84.3665 C   0  0  0  0  0  0  0  0  0  0  0  0
  110.6998  -75.4203  -84.7990 C   0  0  2  0  0  0  0  0  0  0  0  0
  110.4837  -75.7276  -86.2622 C   0  0  1  0  0  0  0  0  0  0  0  0
  111.0904  -76.9824  -86.4507 C   0  0  2  0  0  0  0  0  0  0  0  0
  110.9749  -77.4576  -87.8312 C   0  0  0  0  0  0  0  0  0  0  0  0
  111.5621  -78.7361  -88.0824 C   0  0  0  0  0  0  0  0  0  0  0  0
  109.8123  -74.8775  -87.1205 C   0  0  0  0  0  0  0  0  0  0  0  0
  108.7155  -75.2353  -87.9386 C   0  0  0  0  0  0  0  0  0  0  0  0
  108.0151  -74.3864  -88.7975 C   0  0  0  0  0  0  0  0  0  0  0  0
  108.4040  -72.9880  -88.9018 C   0  0  0  0  0  0  0  0  0  0  0  0
  109.5105  -72.6652  -88.0800 C   0  0  0  0  0  0  0  0  0  0  0  0
  110.2438  -73.4827  -87.2089 C   0  0  0  0  0  0  0  0  0  0  0  0
  112.7671  -81.1416  -88.8802 C   0  0  0  0  0  0  0  0  0  0  0  0
  113.3172  -81.7226  -86.5871 C   0  0  0  0  0  0  0  0  0  0  0  0
  110.9733  -73.1239  -79.9288 C   0  0  0  0  0  0  0  0  0  0  0  0
  111.9436  -75.3872  -79.9048 C   0  0  0  0  0  0  0  0  0  0  0  0
  1  2  1  6  0  0  0
  1  3  1  0  0  0  0
  1 16  1  0  0  0  0
  2 23  1  0  0  0  0
  2 24  1  0  0  0  0
  4 25  1  0  0  0  0
  4 26  1  0  0  0  0
  5  6  1  0  0  0  0
  6  3  1  1  0  0  0
  6 14  1  0  0  0  0
  7  5  1  6  0  0  0
  7  8  1  0  0  0  0
  7 12  1  0  0  0  0
  8  9  1  0  0  0  0
  9  4  1  6  0  0  0
  9 10  1  0  0  0  0
 10 11  1  0  0  0  0
 12 11  1  1  0  0  0
 12 13  1  0  0  0  0
 13 14  1  0  0  0  0
 13 17  1  1  0  0  0
 14 15  1  1  0  0  0
 15 16  1  0  0  0  0
 17 18  1  0  0  0  0
 17 22  1  0  0  0  0
 18 19  1  0  0  0  0
 19 20  1  0  0  0  0
 20 21  1  0  0  0  0
 21 22  1  0  0  0  0
M  END
>  <CHROM.1>
-172.47089539,175.14880963,-126.49725707,111.03655883,-76.34366960,-85.41544964
-1.25734719,-1.04918742,1.07455317

>  <Name>
ligand

>  <RI>
0

>  <Rbt.Current_Directory>
/home/itssahil/PROJECTS/Mol_Feturizer/Test_systems_manuscript/rnas/1f1t

>  <Rbt.Executable>
rbdock ($Id: //depot/dev/client3/rdock/2013.1/src/exe/rbdock.cxx#4 $)

>  <Rbt.Library>
libRbt.so (2013.1, Build901 2013/11/27)

>  <Rbt.Parameter_File>
/export/apps/rDock/src/rDock_2013.1_src/data/scripts/dock_solv.prm

>  <Rbt.Receptor>
prm/pocket_docking_3.prm

>  <SCORE>
-53.3038

>  <SCORE.INTER>
-56.1428

>  <SCORE.INTER.CONST>
1

>  <SCORE.INTER.POLAR>
0

>  <SCORE.INTER.ROT>
3

>  <SCORE.INTER.SOLV>
8.90689

>  <SCORE.INTER.VDW>
-45.9975

>  <SCORE.INTER.norm>
-2.15934

>  <SCORE.INTRA>
2.83899

>  <SCORE.INTRA.DIHEDRAL>
-0.000583185

>  <SCORE.INTRA.DIHEDRAL.0>
3.60016

>  <SCORE.INTRA.POLAR>
0

>  <SCORE.INTRA.POLAR.0>
0

>  <SCORE.INTRA.REPUL>
0

>  <SCORE.INTRA.REPUL.0>
0

>  <SCORE.INTRA.SOLV>
-0.000961182

>  <SCORE.INTRA.SOLV.lig_0>
-10.9882

>  <SCORE.INTRA.VDW>
2.83976

>  <SCORE.INTRA.VDW.0>
1.84442

>  <SCORE.INTRA.norm>
0.109192

>  <SCORE.RESTR>
0

>  <SCORE.RESTR.CAVITY>
0

>  <SCORE.RESTR.norm>
0

>  <SCORE.SYSTEM>
0

>  <SCORE.SYSTEM.CONST>
0

>  <SCORE.SYSTEM.DIHEDRAL>
0

>  <SCORE.SYSTEM.SOLV>
0

>  <SCORE.SYSTEM.norm>
0

>  <SCORE.heavy>
26

>  <SCORE.norm>
-2.05015

>  <RMSD>
0.730

$$$$
ligand
 OpenBabel02271912153D
libRbt.so/2013.1/901 2013/11/27
 26 29  0  0  0  0  0  0  0  0999 V2000
  112.2198  -79.4169  -87.1161 C   0  0  1  0  0  0  0  0  0  0  0  0
  112.7187  -80.6492  -87.5131 N   0  0  0  0  0  0  0  0  0  0  0  0
  112.3419  -78.9946  -85.7287 C   0  0  0  0  0  0  0  0  0  0  0  0
  111.3334  -74.3871  -80.6390 N   0  0  0  0  0  0  0  0  0  0  0  0
  111.9406  -77.3532  -84.0570 O   0  0  0  0  0  0  0  0  0  0  0  0
  111.7898  -77.7347  -85.4892 C   0  0  2  0  0  0  0  0  0  0  0  0
  111.4243  -76.2058  -83.8453 C   0  0  1  0  0  0  0  0  0  0  0  0
  111.6319  -75.9193  -82.4260 C   0  0  0  0  0  0  0  0  0  0  0  0
  111.0988  -74.6516  -81.9992 C   0  0  2  0  0  0  0  0  0  0  0  0
  110.4228  -73.7713  -82.8799 C   0  0  0  0  0  0  0  0  0  0  0  0
  110.2576  -74.1107  -84.2811 C   0  0  0  0  0  0  0  0  0  0  0  0
  110.7967  -75.3695  -84.7340 C   0  0  2  0  0  0  0  0  0  0  0  0
  110.5954  -75.6368  -86.2071 C   0  0  1  0  0  0  0  0  0  0  0  0
  111.1696  -76.9038  -86.4156 C   0  0  2  0  0  0  0  0  0  0  0  0
  111.0629  -77.3437  -87.8085 C   0  0  0  0  0  0  0  0  0  0  0  0
  111.6179  -78.6323  -88.0806 C   0  0  0  0  0  0  0  0  0  0  0  0
  109.9620  -74.7486  -87.0555 C   0  0  0  0  0  0  0  0  0  0  0  0
  110.3008  -73.3850  -87.2180 C   0  0  0  0  0  0  0  0  0  0  0  0
  109.6839  -72.4787  -88.0822 C   0  0  0  0  0  0  0  0  0  0  0  0
  108.5818  -72.9222  -88.9227 C   0  0  0  0  0  0  0  0  0  0  0  0
  108.2604  -74.2871  -88.7281 C   0  0  0  0  0  0  0  0  0  0  0  0
  108.8478  -75.2290  -87.8723 C   0  0  0  0  0  0  0  0  0  0  0  0
  112.7550  -81.0575  -88.9147 C   0  0  0  0  0  0  0  0  0  0  0  0
  113.2763  -81.6957  -86.6301 C   0  0  0  0  0  0  0  0  0  0  0  0
  111.9710  -75.1961  -79.5763 C   0  0  0  0  0  0  0  0  0  0  0  0
  110.8943  -73.0470  -80.1116 C   0  0  0  0  0  0  0  0  0  0  0  0
  1  2  1  6  0  0  0
  1  3  1  0  0  0  0
  1 16  1  0  0  0  0
  2 23  1  0  0  0  0
  2 24  1  0  0  0  0
  4 25  1  0  0  0  0
  4 26  1  0  0  0  0
  5  6  1  0  0  0  0
  6  3  1  1  0  0  0
  6 14  1  0  0  0  0
  7  5  1  6  0  0  0
  7  8  1  0  0  0  0
  7 12  1  0  0  0  0
  8  9  1  0  0  0  0
  9  4  1  6  0  0  0
  9 10  1  0  0  0  0
 10 11  1  0  0  0  0
 12 11  1  1  0  0  0
 12 13  1  0  0  0  0
 13 14  1  0  0  0  0
 13 17  1  1  0  0  0
 14 15  1  1  0  0  0
 15 16  1  0  0  0  0
 17 18  1  0  0  0  0
 17 22  1  0  0  0  0
 18 19  1  0  0  0  0
 19 20  1  0  0  0  0
 20 21  1  0  0  0  0
 21 22  1  0  0  0  0
M  END
>  <CHROM.1>
-173.10172987,-2.94917895,53.34556449,111.10268750,-76.28342452,-85.37985626
-1.26526281,-1.07562126,1.09252817

>  <Name>
ligand

>  <RI>
0

>  <Rbt.Current_Directory>
/home/itssahil/PROJECTS/Mol_Feturizer/Test_systems_manuscript/rnas/1f1t

>  <Rbt.Executable>
rbdock ($Id: //depot/dev/client3/rdock/2013.1/src/exe/rbdock.cxx#4 $)

>  <Rbt.Library>
libRbt.so (2013.1, Build901 2013/11/27)

>  <Rbt.Parameter_File>
/export/apps/rDock/src/rDock_2013.1_src/data/scripts/dock_solv.prm

>  <Rbt.Receptor>
prm/pocket_docking_4.prm

>  <SCORE>
-56.2648

>  <SCORE.INTER>
-56.7106

>  <SCORE.INTER.CONST>
1

>  <SCORE.INTER.POLAR>
0

>  <SCORE.INTER.ROT>
3

>  <SCORE.INTER.SOLV>
8.97957

>  <SCORE.INTER.VDW>
-46.4003

>  <SCORE.INTER.norm>
-2.18118

>  <SCORE.INTRA>
0.44583

>  <SCORE.INTRA.DIHEDRAL>
0.00029155

>  <SCORE.INTRA.DIHEDRAL.0>
3.60016

>  <SCORE.INTRA.POLAR>
0

>  <SCORE.INTRA.POLAR.0>
0

>  <SCORE.INTRA.REPUL>
0

>  <SCORE.INTRA.REPUL.0>
0

>  <SCORE.INTRA.SOLV>
1.75239e-05

>  <SCORE.INTRA.SOLV.lig_0>
-10.9882

>  <SCORE.INTRA.VDW>
0.445675

>  <SCORE.INTRA.VDW.0>
1.84442

>  <SCORE.INTRA.norm>
0.0171473

>  <SCORE.RESTR>
0

>  <SCORE.RESTR.CAVITY>
0

>  <SCORE.RESTR.norm>
0

>  <SCORE.SYSTEM>
0

>  <SCORE.SYSTEM.CONST>
0

>  <SCORE.SYSTEM.DIHEDRAL>
0

>  <SCORE.SYSTEM.SOLV>
0

>  <SCORE.SYSTEM.norm>
0

>  <SCORE.heavy>
26

>  <SCORE.norm>
-2.16403

>  <RMSD>
0.730

$$$$
ligand
 OpenBabel02271912153D
libRbt.so/2013.1/901 2013/11/27
 26 29  0  0  0  0  0  0  0  0999 V2000
  112.2237  -79.4401  -87.0975 C   0  0  1  0  0  0  0  0  0  0  0  0
  112.7308  -80.6715  -87.4868 N   0  0  0  0  0  0  0  0  0  0  0  0
  112.3497  -79.0051  -85.7142 C   0  0  0  0  0  0  0  0  0  0  0  0
  111.3299  -74.3635  -80.6579 N   0  0  0  0  0  0  0  0  0  0  0  0
  111.9437  -77.3531  -84.0542 O   0  0  0  0  0  0  0  0  0  0  0  0
  111.7883  -77.7480  -85.4823 C   0  0  2  0  0  0  0  0  0  0  0  0
  111.4187  -76.2084  -83.8493 C   0  0  1  0  0  0  0  0  0  0  0  0
  111.6317  -75.9082  -82.4336 C   0  0  0  0  0  0  0  0  0  0  0  0
  111.0901  -74.6415  -82.0146 C   0  0  2  0  0  0  0  0  0  0  0  0
  110.4019  -73.7744  -82.8989 C   0  0  0  0  0  0  0  0  0  0  0  0
  110.2320  -74.1270  -84.2963 C   0  0  0  0  0  0  0  0  0  0  0  0
  110.7792  -75.3850  -84.7416 C   0  0  2  0  0  0  0  0  0  0  0  0
  110.5722  -75.6664  -86.2112 C   0  0  1  0  0  0  0  0  0  0  0  0
  111.1560  -76.9302  -86.4123 C   0  0  2  0  0  0  0  0  0  0  0  0
  111.0454  -77.3827  -87.8008 C   0  0  0  0  0  0  0  0  0  0  0  0
  111.6099  -78.6688  -88.0651 C   0  0  0  0  0  0  0  0  0  0  0  0
  109.9267  -74.7907  -87.0635 C   0  0  0  0  0  0  0  0  0  0  0  0
  108.8630  -75.1259  -87.9334 C   0  0  0  0  0  0  0  0  0  0  0  0
  108.1884  -74.2515  -88.7874 C   0  0  0  0  0  0  0  0  0  0  0  0
  108.5710  -72.8481  -88.8285 C   0  0  0  0  0  0  0  0  0  0  0  0
  109.6445  -72.5479  -87.9559 C   0  0  0  0  0  0  0  0  0  0  0  0
  110.3512  -73.3912  -87.0875 C   0  0  0  0  0  0  0  0  0  0  0  0
  113.2812  -81.6238  -86.5263 C   0  0  0  0  0  0  0  0  0  0  0  0
  112.7868  -81.2009  -88.8661 C   0  0  0  0  0  0  0  0  0  0  0  0
  111.9690  -75.1631  -79.5890 C   0  0  0  0  0  0  0  0  0  0  0  0
  110.8959  -73.0169  -80.1430 C   0  0  0  0  0  0  0  0  0  0  0  0
  1  2  1  6  0  0  0
  1  3  1  0  0  0  0
  1 16  1  0  0  0  0
  2 23  1  0  0  0  0
  2 24  1  0  0  0  0
  4 25  1  0  0  0  0
  4 26  1  0  0  0  0
  5  6  1  0  0  0  0
  6  3  1  1  0  0  0
  6 14  1  0  0  0  0
  7  5  1  6  0  0  0
  7  8  1  0  0  0  0
  7 12  1  0  0  0  0
  8  9  1  0  0  0  0
  9  4  1  6  0  0  0
  9 10  1  0  0  0  0
 10 11  1  0  0  0  0
 12 11  1  1  0  0  0
 12 13  1  0  0  0  0
 13 14  1  0  0  0  0
 13 17  1  1  0  0  0
 14 15  1  1  0  0  0
 15 16  1  0  0  0  0
 17 18  1  0  0  0  0
 17 22  1  0  0  0  0
 18 19  1  0  0  0  0
 19 20  1  0  0  0  0
 20 21  1  0  0  0  0
 21 22  1  0  0  0  0
M  END
>  <CHROM.1>
6.14754685,-3.59880298,-128.92486165,111.09678966,-76.28734521,-85.36670655
-1.24864453,-1.07032524,1.08343576

>  <Name>
ligand

>  <RI>
0

>  <Rbt.Current_Directory>
/home/itssahil/PROJECTS/Mol_Feturizer/Test_systems_manuscript/rnas/1f1t

>  <Rbt.Executable>
rbdock ($Id: //depot/dev/client3/rdock/2013.1/src/exe/rbdock.cxx#4 $)

>  <Rbt.Library>
libRbt.so (2013.1, Build901 2013/11/27)

>  <Rbt.Parameter_File>
/export/apps/rDock/src/rDock_2013.1_src/data/scripts/dock_solv.prm

>  <Rbt.Receptor>
prm/pocket_docking_8.prm

>  <SCORE>
-55.999

>  <SCORE.INTER>
-56.3122

>  <SCORE.INTER.CONST>
1

>  <SCORE.INTER.POLAR>
0

>  <SCORE.INTER.ROT>
3

>  <SCORE.INTER.SOLV>
9.0074

>  <SCORE.INTER.VDW>
-46.1439

>  <SCORE.INTER.norm>
-2.16585

>  <SCORE.INTRA>
0.313146

>  <SCORE.INTRA.DIHEDRAL>
-3.4919e-06

>  <SCORE.INTRA.DIHEDRAL.0>
3.60016

>  <SCORE.INTRA.POLAR>
0

>  <SCORE.INTRA.POLAR.0>
0

>  <SCORE.INTRA.REPUL>
0

>  <SCORE.INTRA.REPUL.0>
0

>  <SCORE.INTRA.SOLV>
1.36147e-05

>  <SCORE.INTRA.SOLV.lig_0>
-10.9882

>  <SCORE.INTRA.VDW>
0.313141

>  <SCORE.INTRA.VDW.0>
1.84442

>  <SCORE.INTRA.norm>
0.0120441

>  <SCORE.RESTR>
0

>  <SCORE.RESTR.CAVITY>
0

>  <SCORE.RESTR.norm>
0

>  <SCORE.SYSTEM>
0

>  <SCORE.SYSTEM.CONST>
0

>  <SCORE.SYSTEM.DIHEDRAL>
0

>  <SCORE.SYSTEM.SOLV>
0

>  <SCORE.SYSTEM.norm>
0

>  <SCORE.heavy>
26

>  <SCORE.norm>
-2.15381

>  <RMSD>
0.730

$$$$
ligand
 OpenBabel02271912153D
libRbt.so/2013.1/901 2013/11/27
 26 29  0  0  0  0  0  0  0  0999 V2000
  112.2315  -79.4025  -87.1229 C   0  0  1  0  0  0  0  0  0  0  0  0
  112.7321  -80.6337  -87.5213 N   0  0  0  0  0  0  0  0  0  0  0  0
  112.3527  -78.9818  -85.7348 C   0  0  0  0  0  0  0  0  0  0  0  0
  111.3369  -74.3820  -80.6397 N   0  0  0  0  0  0  0  0  0  0  0  0
  111.9489  -77.3430  -84.0612 O   0  0  0  0  0  0  0  0  0  0  0  0
  111.7989  -77.7229  -85.4940 C   0  0  2  0  0  0  0  0  0  0  0  0
  111.4310  -76.1966  -83.8482 C   0  0  1  0  0  0  0  0  0  0  0  0
  111.6379  -75.9116  -82.4285 C   0  0  0  0  0  0  0  0  0  0  0  0
  111.1030  -74.6451  -82.0003 C   0  0  2  0  0  0  0  0  0  0  0  0
  110.4261  -73.7646  -82.8801 C   0  0  0  0  0  0  0  0  0  0  0  0
  110.2617  -74.1024  -84.2818 C   0  0  0  0  0  0  0  0  0  0  0  0
  110.8025  -75.3600  -84.7361 C   0  0  2  0  0  0  0  0  0  0  0  0
  110.6020  -75.6257  -86.2096 C   0  0  1  0  0  0  0  0  0  0  0  0
  111.1779  -76.8916  -86.4195 C   0  0  2  0  0  0  0  0  0  0  0  0
  111.0721  -77.3300  -87.8129 C   0  0  0  0  0  0  0  0  0  0  0  0
  111.6289  -78.6175  -88.0865 C   0  0  0  0  0  0  0  0  0  0  0  0
  109.9677  -74.7372  -87.0570 C   0  0  0  0  0  0  0  0  0  0  0  0
  110.2854  -73.3660  -87.1959 C   0  0  0  0  0  0  0  0  0  0  0  0
  109.6676  -72.4589  -88.0586 C   0  0  0  0  0  0  0  0  0  0  0  0
  108.5877  -72.9100  -88.9236 C   0  0  0  0  0  0  0  0  0  0  0  0
  108.2868  -74.2827  -88.7524 C   0  0  0  0  0  0  0  0  0  0  0  0
  108.8760  -75.2257  -87.8990 C   0  0  0  0  0  0  0  0  0  0  0  0
  112.8023  -81.0258  -88.9261 C   0  0  0  0  0  0  0  0  0  0  0  0
  113.2591  -81.6945  -86.6364 C   0  0  0  0  0  0  0  0  0  0  0  0
  111.0311  -73.2021  -79.8001 C   0  0  0  0  0  0  0  0  0  0  0  0
  112.0007  -75.4656  -79.8322 C   0  0  0  0  0  0  0  0  0  0  0  0
  1  2  1  6  0  0  0
  1  3  1  0  0  0  0
  1 16  1  0  0  0  0
  2 23  1  0  0  0  0
  2 24  1  0  0  0  0
  4 25  1  0  0  0  0
  4 26  1  0  0  0  0
  5  6  1  0  0  0  0
  6  3  1  1  0  0  0
  6 14  1  0  0  0  0
  7  5  1  6  0  0  0
  7  8  1  0  0  0  0
  7 12  1  0  0  0  0
  8  9  1  0  0  0  0
  9  4  1  6  0  0  0
  9 10  1  0  0  0  0
 10 11  1  0  0  0  0
 12 11  1  1  0  0  0
 12 13  1  0  0  0  0
 13 14  1  0  0  0  0
 13 17  1  1  0  0  0
 14 15  1  1  0  0  0
 15 16  1  0  0  0  0
 17 18  1  0  0  0  0
 17 22  1  0  0  0  0
 18 19  1  0  0  0  0
 19 20  1  0  0  0  0
 20 21  1  0  0  0  0
 21 22  1  0  0  0  0
M  END
>  <CHROM.1>
-171.42689952,176.73392084,51.85448181,111.11743884,-76.29224377,-85.38059244
-1.27291448,-1.07593493,1.09890189

>  <Name>
ligand

>  <RI>
0

>  <Rbt.Current_Directory>
/home/itssahil/PROJECTS/Mol_Feturizer/Test_systems_manuscript/rnas/1f1t

>  <Rbt.Executable>
rbdock ($Id: //depot/dev/client3/rdock/2013.1/src/exe/rbdock.cxx#4 $)

>  <Rbt.Library>
libRbt.so (2013.1, Build901 2013/11/27)

>  <Rbt.Parameter_File>
/export/apps/rDock/src/rDock_2013.1_src/data/scripts/dock_solv.prm

>  <Rbt.Receptor>
prm/pocket_docking_2.prm

>  <SCORE>
-53.7923

>  <SCORE.INTER>
-56.6102

>  <SCORE.INTER.CONST>
1

>  <SCORE.INTER.POLAR>
0

>  <SCORE.INTER.ROT>
3

>  <SCORE.INTER.SOLV>
9.01046

>  <SCORE.INTER.VDW>
-46.3436

>  <SCORE.INTER.norm>
-2.17732

>  <SCORE.INTRA>
2.81795

>  <SCORE.INTRA.DIHEDRAL>
-0.000305189

>  <SCORE.INTRA.DIHEDRAL.0>
3.60016

>  <SCORE.INTRA.POLAR>
0

>  <SCORE.INTRA.POLAR.0>
0

>  <SCORE.INTRA.REPUL>
0

>  <SCORE.INTRA.REPUL.0>
0

>  <SCORE.INTRA.SOLV>
-0.000959347

>  <SCORE.INTRA.SOLV.lig_0>
-10.9882

>  <SCORE.INTRA.VDW>
2.81858

>  <SCORE.INTRA.VDW.0>
1.84442

>  <SCORE.INTRA.norm>
0.108383

>  <SCORE.RESTR>
0

>  <SCORE.RESTR.CAVITY>
0

>  <SCORE.RESTR.norm>
0

>  <SCORE.SYSTEM>
0

>  <SCORE.SYSTEM.CONST>
0

>  <SCORE.SYSTEM.DIHEDRAL>
0

>  <SCORE.SYSTEM.SOLV>
0

>  <SCORE.SYSTEM.norm>
0

>  <SCORE.heavy>
26

>  <SCORE.norm>
-2.06893

>  <RMSD>
0.731

$$$$
ligand
 OpenBabel02271912153D
libRbt.so/2013.1/901 2013/11/27
 26 29  0  0  0  0  0  0  0  0999 V2000
  112.2149  -79.4037  -87.1101 C   0  0  1  0  0  0  0  0  0  0  0  0
  112.7106  -80.6372  -87.5076 N   0  0  0  0  0  0  0  0  0  0  0  0
  112.3376  -78.9825  -85.7223 C   0  0  0  0  0  0  0  0  0  0  0  0
  111.3397  -74.3753  -80.6303 N   0  0  0  0  0  0  0  0  0  0  0  0
  111.9401  -77.3410  -84.0498 O   0  0  0  0  0  0  0  0  0  0  0  0
  111.7889  -77.7213  -85.4823 C   0  0  2  0  0  0  0  0  0  0  0  0
  111.4269  -76.1923  -83.8377 C   0  0  1  0  0  0  0  0  0  0  0  0
  111.6347  -75.9073  -82.4181 C   0  0  0  0  0  0  0  0  0  0  0  0
  111.1049  -74.6383  -81.9908 C   0  0  2  0  0  0  0  0  0  0  0  0
  110.4318  -73.7556  -82.8713 C   0  0  0  0  0  0  0  0  0  0  0  0
  110.2662  -74.0938  -84.2727 C   0  0  0  0  0  0  0  0  0  0  0  0
  110.8020  -75.3538  -84.7262 C   0  0  2  0  0  0  0  0  0  0  0  0
  110.6006  -75.6197  -86.1995 C   0  0  1  0  0  0  0  0  0  0  0  0
  111.1714  -76.8881  -86.4085 C   0  0  2  0  0  0  0  0  0  0  0  0
  111.0641  -77.3269  -87.8017 C   0  0  0  0  0  0  0  0  0  0  0  0
  111.6156  -78.6168  -88.0743 C   0  0  0  0  0  0  0  0  0  0  0  0
  109.9701  -74.7291  -87.0476 C   0  0  0  0  0  0  0  0  0  0  0  0
  110.3103  -73.3655  -87.2064 C   0  0  0  0  0  0  0  0  0  0  0  0
  109.6963  -72.4569  -88.0702 C   0  0  0  0  0  0  0  0  0  0  0  0
  108.5960  -72.8978  -88.9145 C   0  0  0  0  0  0  0  0  0  0  0  0
  108.2731  -74.2628  -88.7237 C   0  0  0  0  0  0  0  0  0  0  0  0
  108.8576  -75.2070  -87.8683 C   0  0  0  0  0  0  0  0  0  0  0  0
  113.2789  -81.5888  -86.5570 C   0  0  0  0  0  0  0  0  0  0  0  0
  112.7357  -81.1695  -88.8866 C   0  0  0  0  0  0  0  0  0  0  0  0
  111.9733  -75.1872  -79.5675 C   0  0  0  0  0  0  0  0  0  0  0  0
  110.9056  -73.0336  -80.1027 C   0  0  0  0  0  0  0  0  0  0  0  0
  1  2  1  6  0  0  0
  1  3  1  0  0  0  0
  1 16  1  0  0  0  0
  2 23  1  0  0  0  0
  2 24  1  0  0  0  0
  4 25  1  0  0  0  0
  4 26  1  0  0  0  0
  5  6  1  0  0  0  0
  6  3  1  1  0  0  0
  6 14  1  0  0  0  0
  7  5  1  6  0  0  0
  7  8  1  0  0  0  0
  7 12  1  0  0  0  0
  8  9  1  0  0  0  0
  9  4  1  6  0  0  0
  9 10  1  0  0  0  0
 10 11  1  0  0  0  0
 12 11  1  1  0  0  0
 12 13  1  0  0  0  0
 13 14  1  0  0  0  0
 13 17  1  1  0  0  0
 14 15  1  1  0  0  0
 15 16  1  0  0  0  0
 17 18  1  0  0  0  0
 17 22  1  0  0  0  0
 18 19  1  0  0  0  0
 19 20  1  0  0  0  0
 20 21  1  0  0  0  0
 21 22  1  0  0  0  0
M  END
>  <CHROM.1>
4.38698687,-3.02127518,53.15617956,111.10594734,-76.26941238,-85.36833603
-1.26698829,-1.07819943,1.08935217

>  <Name>
ligand

>  <RI>
0

>  <Rbt.Current_Directory>
/home/itssahil/PROJECTS/Mol_Feturizer/Test_systems_manuscript/rnas/1f1t

>  <Rbt.Executable>
rbdock ($Id: //depot/dev/client3/rdock/2013.1/src/exe/rbdock.cxx#4 $)

>  <Rbt.Library>
libRbt.so (2013.1, Build901 2013/11/27)

>  <Rbt.Parameter_File>
/export/apps/rDock/src/rDock_2013.1_src/data/scripts/dock_solv.prm

>  <Rbt.Receptor>
prm/pocket_docking_6.prm

>  <SCORE>
-56.4205

>  <SCORE.INTER>
-56.6009

>  <SCORE.INTER.CONST>
1

>  <SCORE.INTER.POLAR>
0

>  <SCORE.INTER.ROT>
3

>  <SCORE.INTER.SOLV>
9.04219

>  <SCORE.INTER.VDW>
-46.348

>  <SCORE.INTER.norm>
-2.17696

>  <SCORE.INTRA>
0.180326

>  <SCORE.INTRA.DIHEDRAL>
0.000277733

>  <SCORE.INTRA.DIHEDRAL.0>
3.60016

>  <SCORE.INTRA.POLAR>
0

>  <SCORE.INTRA.POLAR.0>
0

>  <SCORE.INTRA.REPUL>
0

>  <SCORE.INTRA.REPUL.0>
0

>  <SCORE.INTRA.SOLV>
5.34176e-06

>  <SCORE.INTRA.SOLV.lig_0>
-10.9882

>  <SCORE.INTRA.VDW>
0.180185

>  <SCORE.INTRA.VDW.0>
1.84442

>  <SCORE.INTRA.norm>
0.00693563

>  <SCORE.RESTR>
0

>  <SCORE.RESTR.CAVITY>
0

>  <SCORE.RESTR.norm>
0

>  <SCORE.SYSTEM>
0

>  <SCORE.SYSTEM.CONST>
0

>  <SCORE.SYSTEM.DIHEDRAL>
0

>  <SCORE.SYSTEM.SOLV>
0

>  <SCORE.SYSTEM.norm>
0

>  <SCORE.heavy>
26

>  <SCORE.norm>
-2.17002

>  <RMSD>
0.731

$$$$
ligand
 OpenBabel02271912153D
libRbt.so/2013.1/901 2013/11/27
 26 29  0  0  0  0  0  0  0  0999 V2000
  112.2202  -79.4431  -87.1139 C   0  0  1  0  0  0  0  0  0  0  0  0
  112.7527  -80.6666  -87.4944 N   0  0  0  0  0  0  0  0  0  0  0  0
  112.3487  -78.9897  -85.7368 C   0  0  0  0  0  0  0  0  0  0  0  0
  111.2659  -74.3167  -80.7227 N   0  0  0  0  0  0  0  0  0  0  0  0
  111.9189  -77.3291  -84.0914 O   0  0  0  0  0  0  0  0  0  0  0  0
  111.7598  -77.7436  -85.5135 C   0  0  2  0  0  0  0  0  0  0  0  0
  111.3690  -76.1948  -83.8942 C   0  0  1  0  0  0  0  0  0  0  0  0
  111.5878  -75.8738  -82.4840 C   0  0  0  0  0  0  0  0  0  0  0  0
  111.0203  -74.6155  -82.0738 C   0  0  2  0  0  0  0  0  0  0  0  0
  110.3036  -73.7749  -82.9612 C   0  0  0  0  0  0  0  0  0  0  0  0
  110.1293  -74.1471  -84.3528 C   0  0  0  0  0  0  0  0  0  0  0  0
  110.7020  -75.3968  -84.7894 C   0  0  2  0  0  0  0  0  0  0  0  0
  110.4882  -75.6996  -86.2538 C   0  0  1  0  0  0  0  0  0  0  0  0
  111.0998  -76.9514  -86.4464 C   0  0  2  0  0  0  0  0  0  0  0  0
  110.9873  -77.4221  -87.8287 C   0  0  0  0  0  0  0  0  0  0  0  0
  111.5795  -78.6974  -88.0841 C   0  0  0  0  0  0  0  0  0  0  0  0
  109.8143  -74.8490  -87.1096 C   0  0  0  0  0  0  0  0  0  0  0  0
  108.7024  -75.2010  -87.9096 C   0  0  0  0  0  0  0  0  0  0  0  0
  107.9994  -74.3513  -88.7656 C   0  0  0  0  0  0  0  0  0  0  0  0
  108.4021  -72.9581  -88.8864 C   0  0  0  0  0  0  0  0  0  0  0  0
  109.5234  -72.6411  -88.0826 C   0  0  0  0  0  0  0  0  0  0  0  0
  110.2597  -73.4598  -87.2152 C   0  0  0  0  0  0  0  0  0  0  0  0
  112.8379  -81.0751  -88.8937 C   0  0  0  0  0  0  0  0  0  0  0  0
  113.3027  -81.7022  -86.5940 C   0  0  0  0  0  0  0  0  0  0  0  0
  110.9472  -73.1242  -79.9062 C   0  0  0  0  0  0  0  0  0  0  0  0
  111.9611  -75.3684  -79.8994 C   0  0  0  0  0  0  0  0  0  0  0  0
  1  2  1  6  0  0  0
  1  3  1  0  0  0  0
  1 16  1  0  0  0  0
  2 23  1  0  0  0  0
  2 24  1  0  0  0  0
  4 25  1  0  0  0  0
  4 26  1  0  0  0  0
  5  6  1  0  0  0  0
  6  3  1  1  0  0  0
  6 14  1  0  0  0  0
  7  5  1  6  0  0  0
  7  8  1  0  0  0  0
  7 12  1  0  0  0  0
  8  9  1  0  0  0  0
  9  4  1  6  0  0  0
  9 10  1  0  0  0  0
 10 11  1  0  0  0  0
 12 11  1  1  0  0  0
 12 13  1  0  0  0  0
 13 14  1  0  0  0  0
 13 17  1  1  0  0  0
 14 15  1  1  0  0  0
 15 16  1  0  0  0  0
 17 18  1  0  0  0  0
 17 22  1  0  0  0  0
 18 19  1  0  0  0  0
 19 20  1  0  0  0  0
 20 21  1  0  0  0  0
 21 22  1  0  0  0  0
M  END
>  <CHROM.1>
-170.22693793,176.07684196,-125.13406712,111.04317186,-76.31657738,-85.40909035
-1.25111477,-1.04654869,1.08370659

>  <Name>
ligand

>  <RI>
0

>  <Rbt.Current_Directory>
/home/itssahil/PROJECTS/Mol_Feturizer/Test_systems_manuscript/rnas/1f1t

>  <Rbt.Executable>
rbdock ($Id: //depot/dev/client3/rdock/2013.1/src/exe/rbdock.cxx#4 $)

>  <Rbt.Library>
libRbt.so (2013.1, Build901 2013/11/27)

>  <Rbt.Parameter_File>
/export/apps/rDock/src/rDock_2013.1_src/data/scripts/dock_solv.prm

>  <Rbt.Receptor>
prm/pocket_docking_7.prm

>  <SCORE>
-53.2875

>  <SCORE.INTER>
-56.0652

>  <SCORE.INTER.CONST>
1

>  <SCORE.INTER.POLAR>
0

>  <SCORE.INTER.ROT>
3

>  <SCORE.INTER.SOLV>
8.95126

>  <SCORE.INTER.VDW>
-45.9606

>  <SCORE.INTER.norm>
-2.15635

>  <SCORE.INTRA>
2.77774

>  <SCORE.INTRA.DIHEDRAL>
-0.000590436

>  <SCORE.INTRA.DIHEDRAL.0>
3.60016

>  <SCORE.INTRA.POLAR>
0

>  <SCORE.INTRA.POLAR.0>
0

>  <SCORE.INTRA.REPUL>
0

>  <SCORE.INTRA.REPUL.0>
0

>  <SCORE.INTRA.SOLV>
-0.000947559

>  <SCORE.INTRA.SOLV.lig_0>
-10.9882

>  <SCORE.INTRA.VDW>
2.77851

>  <SCORE.INTRA.VDW.0>
1.84442

>  <SCORE.INTRA.norm>
0.106836

>  <SCORE.RESTR>
0

>  <SCORE.RESTR.CAVITY>
0

>  <SCORE.RESTR.norm>
0

>  <SCORE.SYSTEM>
0

>  <SCORE.SYSTEM.CONST>
0

>  <SCORE.SYSTEM.DIHEDRAL>
0

>  <SCORE.SYSTEM.SOLV>
0

>  <SCORE.SYSTEM.norm>
0

>  <SCORE.heavy>
26

>  <SCORE.norm>
-2.04952

>  <RMSD>
0.731

$$$$
ligand
 OpenBabel02271912153D
libRbt.so/2013.1/901 2013/11/27
 26 29  0  0  0  0  0  0  0  0999 V2000
  112.2090  -79.4308  -87.0891 C   0  0  1  0  0  0  0  0  0  0  0  0
  112.7053  -80.6668  -87.4779 N   0  0  0  0  0  0  0  0  0  0  0  0
  112.3305  -79.0002  -85.7041 C   0  0  0  0  0  0  0  0  0  0  0  0
  111.3272  -74.3591  -80.6441 N   0  0  0  0  0  0  0  0  0  0  0  0
  111.9313  -77.3476  -84.0430 O   0  0  0  0  0  0  0  0  0  0  0  0
  111.7812  -77.7376  -85.4731 C   0  0  2  0  0  0  0  0  0  0  0  0
  111.4175  -76.1977  -83.8391 C   0  0  1  0  0  0  0  0  0  0  0  0
  111.6241  -75.9030  -82.4213 C   0  0  0  0  0  0  0  0  0  0  0  0
  111.0936  -74.6314  -82.0029 C   0  0  2  0  0  0  0  0  0  0  0  0
  110.4209  -73.7548  -82.8899 C   0  0  0  0  0  0  0  0  0  0  0  0
  110.2565  -74.1025  -84.2891 C   0  0  0  0  0  0  0  0  0  0  0  0
  110.7930  -75.3654  -84.7336 C   0  0  2  0  0  0  0  0  0  0  0  0
  110.5929  -75.6412  -86.2053 C   0  0  1  0  0  0  0  0  0  0  0  0
  111.1642  -76.9108  -86.4054 C   0  0  2  0  0  0  0  0  0  0  0  0
  111.0581  -77.3590  -87.7956 C   0  0  0  0  0  0  0  0  0  0  0  0
  111.6102  -78.6506  -88.0591 C   0  0  0  0  0  0  0  0  0  0  0  0
  109.9627  -74.7566  -87.0599 C   0  0  0  0  0  0  0  0  0  0  0  0
  110.2801  -73.3857  -87.2024 C   0  0  0  0  0  0  0  0  0  0  0  0
  109.6664  -72.4825  -88.0722 C   0  0  0  0  0  0  0  0  0  0  0  0
  108.5920  -72.9380  -88.9416 C   0  0  0  0  0  0  0  0  0  0  0  0
  108.2914  -74.3102  -88.7668 C   0  0  0  0  0  0  0  0  0  0  0  0
  108.8763  -75.2494  -87.9063 C   0  0  0  0  0  0  0  0  0  0  0  0
  113.2684  -81.6140  -86.5198 C   0  0  0  0  0  0  0  0  0  0  0  0
  112.7363  -81.2063  -88.8541 C   0  0  0  0  0  0  0  0  0  0  0  0
  111.9125  -75.1833  -79.5631 C   0  0  0  0  0  0  0  0  0  0  0  0
  110.9505  -72.9911  -80.1404 C   0  0  0  0  0  0  0  0  0  0  0  0
  1  2  1  6  0  0  0
  1  3  1  0  0  0  0
  1 16  1  0  0  0  0
  2 23  1  0  0  0  0
  2 24  1  0  0  0  0
  4 25  1  0  0  0  0
  4 26  1  0  0  0  0
  5  6  1  0  0  0  0
  6  3  1  1  0  0  0
  6 14  1  0  0  0  0
  7  5  1  6  0  0  0
  7  8  1  0  0  0  0
  7 12  1  0  0  0  0
  8  9  1  0  0  0  0
  9  4  1  6  0  0  0
  9 10  1  0  0  0  0
 10 11  1  0  0  0  0
 12 11  1  1  0  0  0
 12 13  1  0  0  0  0
 13 14  1  0  0  0  0
 13 17  1  1  0  0  0
 14 15  1  1  0  0  0
 15 16  1  0  0  0  0
 17 18  1  0  0  0  0
 17 22  1  0  0  0  0
 18 19  1  0  0  0  0
 19 20  1  0  0  0  0
 20 21  1  0  0  0  0
 21 22  1  0  0  0  0
M  END
>  <CHROM.1>
4.63568100,-5.76990439,51.42144357,111.09847278,-76.28502278,-85.36969524
-1.26622142,-1.07942874,1.08339006

>  <Name>
ligand

>  <RI>
0

>  <Rbt.Current_Directory>
/home/itssahil/PROJECTS/Mol_Feturizer/Test_systems_manuscript/rnas/1f1t

>  <Rbt.Executable>
rbdock ($Id: //depot/dev/client3/rdock/2013.1/src/exe/rbdock.cxx#4 $)

>  <Rbt.Library>
libRbt.so (2013.1, Build901 2013/11/27)

>  <Rbt.Parameter_File>
/export/apps/rDock/src/rDock_2013.1_src/data/scripts/dock_solv.prm

>  <Rbt.Receptor>
prm/pocket_docking_2.prm

>  <SCORE>
-56.4529

>  <SCORE.INTER>
-56.6532

>  <SCORE.INTER.CONST>
1

>  <SCORE.INTER.POLAR>
0

>  <SCORE.INTER.ROT>
3

>  <SCORE.INTER.SOLV>
8.98625

>  <SCORE.INTER.VDW>
-46.3642

>  <SCORE.INTER.norm>
-2.17897

>  <SCORE.INTRA>
0.200297

>  <SCORE.INTRA.DIHEDRAL>
0.000261868

>  <SCORE.INTRA.DIHEDRAL.0>
3.60016

>  <SCORE.INTRA.POLAR>
0

>  <SCORE.INTRA.POLAR.0>
0

>  <SCORE.INTRA.REPUL>
0

>  <SCORE.INTRA.REPUL.0>
0

>  <SCORE.INTRA.SOLV>
9.34776e-06

>  <SCORE.INTRA.SOLV.lig_0>
-10.9882

>  <SCORE.INTRA.VDW>
0.200162

>  <SCORE.INTRA.VDW.0>
1.84442

>  <SCORE.INTRA.norm>
0.00770374

>  <SCORE.RESTR>
0

>  <SCORE.RESTR.CAVITY>
0

>  <SCORE.RESTR.norm>
0

>  <SCORE.SYSTEM>
0

>  <SCORE.SYSTEM.CONST>
0

>  <SCORE.SYSTEM.DIHEDRAL>
0

>  <SCORE.SYSTEM.SOLV>
0

>  <SCORE.SYSTEM.norm>
0

>  <SCORE.heavy>
26

>  <SCORE.norm>
-2.17126

>  <RMSD>
0.732

$$$$
ligand
 OpenBabel02271912153D
libRbt.so/2013.1/901 2013/11/27
 26 29  0  0  0  0  0  0  0  0999 V2000
  111.1698  -74.6852  -82.0598 C   0  0  1  0  0  0  0  0  0  0  0  0
  111.3517  -74.3001  -80.7393 N   0  0  0  0  0  0  0  0  0  0  0  0
  111.7062  -75.9545  -82.5285 C   0  0  0  0  0  0  0  0  0  0  0  0
  112.7442  -80.6779  -87.5047 N   0  0  0  0  0  0  0  0  0  0  0  0
  112.0132  -77.5036  -84.3049 O   0  0  0  0  0  0  0  0  0  0  0  0
  111.4425  -76.1953  -83.8783 C   0  0  2  0  0  0  0  0  0  0  0  0
  111.7767  -77.7104  -85.5415 C   0  0  1  0  0  0  0  0  0  0  0  0
  112.3620  -79.0131  -85.8577 C   0  0  0  0  0  0  0  0  0  0  0  0
  112.1972  -79.4125  -87.2314 C   0  0  2  0  0  0  0  0  0  0  0  0
  111.5365  -78.6032  -88.1886 C   0  0  0  0  0  0  0  0  0  0  0  0
  110.9687  -77.3231  -87.8082 C   0  0  0  0  0  0  0  0  0  0  0  0
  111.1092  -76.9093  -86.4337 C   0  0  2  0  0  0  0  0  0  0  0  0
  110.4767  -75.5738  -86.1198 C   0  0  1  0  0  0  0  0  0  0  0  0
  110.7510  -75.3674  -84.7558 C   0  0  2  0  0  0  0  0  0  0  0  0
  110.2129  -74.0975  -84.2631 C   0  0  0  0  0  0  0  0  0  0  0  0
  110.4715  -73.8247  -82.8843 C   0  0  0  0  0  0  0  0  0  0  0  0
  109.8075  -74.8159  -87.0619 C   0  0  0  0  0  0  0  0  0  0  0  0
  108.7669  -75.2797  -87.9001 C   0  0  0  0  0  0  0  0  0  0  0  0
  108.0688  -74.5244  -88.8440 C   0  0  0  0  0  0  0  0  0  0  0  0
  108.3979  -73.1186  -89.0265 C   0  0  0  0  0  0  0  0  0  0  0  0
  109.4496  -72.6890  -88.1819 C   0  0  0  0  0  0  0  0  0  0  0  0
  110.1785  -73.4107  -87.2265 C   0  0  0  0  0  0  0  0  0  0  0  0
  111.9755  -75.1779  -79.7531 C   0  0  0  0  0  0  0  0  0  0  0  0
  110.9724  -73.0009  -80.1442 C   0  0  0  0  0  0  0  0  0  0  0  0
  113.2861  -81.7277  -86.6133 C   0  0  0  0  0  0  0  0  0  0  0  0
  112.8006  -81.1077  -88.9466 C   0  0  0  0  0  0  0  0  0  0  0  0
  1  2  1  1  0  0  0
  1  3  1  0  0  0  0
  1 16  1  0  0  0  0
  2 23  1  0  0  0  0
  2 24  1  0  0  0  0
  4 25  1  0  0  0  0
  4 26  1  0  0  0  0
  5  6  1  0  0  0  0
  6  3  1  6  0  0  0
  6 14  1  0  0  0  0
  7  5  1  1  0  0  0
  7  8  1  0  0  0  0
  7 12  1  0  0  0  0
  8  9  1  0  0  0  0
  9  4  1  1  0  0  0
  9 10  1  0  0  0  0
 10 11  1  0  0  0  0
 12 11  1  6  0  0  0
 12 13  1  0  0  0  0
 13 14  1  0  0  0  0
 13 17  1  6  0  0  0
 14 15  1  6  0  0  0
 15 16  1  0  0  0  0
 17 18  1  0  0  0  0
 17 22  1  0  0  0  0
 18 19  1  0  0  0  0
 19 20  1  0  0  0  0
 20 21  1  0  0  0  0
 21 22  1  0  0  0  0
M  END
>  <CHROM.1>
-5.16917700,9.31829977,51.81096827,111.07033850,-76.31672049,-85.43840590
-1.84654004,1.04271993,-2.08367550

>  <Name>
ligand

>  <RI>
0

>  <Rbt.Current_Directory>
/home/itssahil/PROJECTS/Mol_Feturizer/Test_systems_manuscript/rnas/1f1t

>  <Rbt.Executable>
rbdock ($Id: //depot/dev/client3/rdock/2013.1/src/exe/rbdock.cxx#4 $)

>  <Rbt.Library>
libRbt.so (2013.1, Build901 2013/11/27)

>  <Rbt.Parameter_File>
/export/apps/rDock/src/rDock_2013.1_src/data/scripts/dock_solv.prm

>  <Rbt.Receptor>
prm/pocket_docking_4.prm

>  <SCORE>
-56.2119

>  <SCORE.INTER>
-56.3512

>  <SCORE.INTER.CONST>
1

>  <SCORE.INTER.POLAR>
0

>  <SCORE.INTER.ROT>
3

>  <SCORE.INTER.SOLV>
8.91039

>  <SCORE.INTER.VDW>
-46.1376

>  <SCORE.INTER.norm>
-2.16736

>  <SCORE.INTRA>
0.139296

>  <SCORE.INTRA.DIHEDRAL>
0.000243615

>  <SCORE.INTRA.DIHEDRAL.0>
3.60016

>  <SCORE.INTRA.POLAR>
0

>  <SCORE.INTRA.POLAR.0>
0

>  <SCORE.INTRA.REPUL>
0

>  <SCORE.INTRA.REPUL.0>
0

>  <SCORE.INTRA.SOLV>
3.90442e-05

>  <SCORE.INTRA.SOLV.lig_0>
-10.9882

>  <SCORE.INTRA.VDW>
0.139155

>  <SCORE.INTRA.VDW.0>
1.84442

>  <SCORE.INTRA.norm>
0.00535756

>  <SCORE.RESTR>
0

>  <SCORE.RESTR.CAVITY>
0

>  <SCORE.RESTR.norm>
0

>  <SCORE.SYSTEM>
0

>  <SCORE.SYSTEM.CONST>
0

>  <SCORE.SYSTEM.DIHEDRAL>
0

>  <SCORE.SYSTEM.SOLV>
0

>  <SCORE.SYSTEM.norm>
0

>  <SCORE.heavy>
26

>  <SCORE.norm>
-2.162

>  <RMSD>
0.732

$$$$
ligand
 OpenBabel02271912153D
libRbt.so/2013.1/901 2013/11/27
 26 29  0  0  0  0  0  0  0  0999 V2000
  111.2284  -74.6974  -81.9387 C   0  0  1  0  0  0  0  0  0  0  0  0
  111.4079  -74.3598  -80.6049 N   0  0  0  0  0  0  0  0  0  0  0  0
  111.7303  -75.9674  -82.4423 C   0  0  0  0  0  0  0  0  0  0  0  0
  112.6754  -80.5620  -87.5558 N   0  0  0  0  0  0  0  0  0  0  0  0
  112.0084  -77.4687  -84.2640 O   0  0  0  0  0  0  0  0  0  0  0  0
  111.4738  -76.1573  -83.8015 C   0  0  2  0  0  0  0  0  0  0  0  0
  111.7789  -77.6290  -85.5088 C   0  0  1  0  0  0  0  0  0  0  0  0
  112.3271  -78.9387  -85.8605 C   0  0  0  0  0  0  0  0  0  0  0  0
  112.1648  -79.2893  -87.2477 C   0  0  2  0  0  0  0  0  0  0  0  0
  111.5397  -78.4302  -88.1850 C   0  0  0  0  0  0  0  0  0  0  0  0
  111.0076  -77.1456  -87.7697 C   0  0  0  0  0  0  0  0  0  0  0  0
  111.1461  -76.7798  -86.3814 C   0  0  2  0  0  0  0  0  0  0  0  0
  110.5518  -75.4358  -86.0314 C   0  0  1  0  0  0  0  0  0  0  0  0
  110.8177  -75.2811  -84.6590 C   0  0  2  0  0  0  0  0  0  0  0  0
  110.3137  -74.0111  -84.1315 C   0  0  0  0  0  0  0  0  0  0  0  0
  110.5658  -73.7900  -82.7422 C   0  0  0  0  0  0  0  0  0  0  0  0
  109.9164  -74.6281  -86.9555 C   0  0  0  0  0  0  0  0  0  0  0  0
  110.2447  -73.2802  -87.2308 C   0  0  0  0  0  0  0  0  0  0  0  0
  109.6258  -72.4556  -88.1720 C   0  0  0  0  0  0  0  0  0  0  0  0
  108.5330  -72.9785  -88.9783 C   0  0  0  0  0  0  0  0  0  0  0  0
  108.2218  -74.3248  -88.6709 C   0  0  0  0  0  0  0  0  0  0  0  0
  108.8116  -75.1858  -87.7351 C   0  0  0  0  0  0  0  0  0  0  0  0
  110.9745  -73.0746  -80.0639 C   0  0  0  0  0  0  0  0  0  0  0  0
  112.0269  -75.2050  -79.5617 C   0  0  0  0  0  0  0  0  0  0  0  0
  113.2373  -81.6294  -86.6983 C   0  0  0  0  0  0  0  0  0  0  0  0
  112.6589  -80.9797  -89.0022 C   0  0  0  0  0  0  0  0  0  0  0  0
  1  2  1  1  0  0  0
  1  3  1  0  0  0  0
  1 16  1  0  0  0  0
  2 23  1  0  0  0  0
  2 24  1  0  0  0  0
  4 25  1  0  0  0  0
  4 26  1  0  0  0  0
  5  6  1  0  0  0  0
  6  3  1  6  0  0  0
  6 14  1  0  0  0  0
  7  5  1  1  0  0  0
  7  8  1  0  0  0  0
  7 12  1  0  0  0  0
  8  9  1  0  0  0  0
  9  4  1  1  0  0  0
  9 10  1  0  0  0  0
 10 11  1  0  0  0  0
 12 11  1  6  0  0  0
 12 13  1  0  0  0  0
 13 14  1  0  0  0  0
 13 17  1  6  0  0  0
 14 15  1  6  0  0  0
 15 16  1  0  0  0  0
 17 18  1  0  0  0  0
 17 22  1  0  0  0  0
 18 19  1  0  0  0  0
 19 20  1  0  0  0  0
 20 21  1  0  0  0  0
 21 22  1  0  0  0  0
M  END
>  <CHROM.1>
177.31888355,5.81112970,-125.33170178,111.10489152,-76.23101531,-85.37824157
-1.81823630,1.06897335,-2.06556656

>  <Name>
ligand

>  <RI>
0

>  <Rbt.Current_Directory>
/home/itssahil/PROJECTS/Mol_Feturizer/Test_systems_manuscript/rnas/1f1t

>  <Rbt.Executable>
rbdock ($Id: //depot/dev/client3/rdock/2013.1/src/exe/rbdock.cxx#4 $)

>  <Rbt.Library>
libRbt.so (2013.1, Build901 2013/11/27)

>  <Rbt.Parameter_File>
/export/apps/rDock/src/rDock_2013.1_src/data/scripts/dock_solv.prm

>  <Rbt.Receptor>
prm/pocket_docking_4.prm

>  <SCORE>
-56.0657

>  <SCORE.INTER>
-56.5756

>  <SCORE.INTER.CONST>
1

>  <SCORE.INTER.POLAR>
0

>  <SCORE.INTER.ROT>
3

>  <SCORE.INTER.SOLV>
9.03138

>  <SCORE.INTER.VDW>
-46.3276

>  <SCORE.INTER.norm>
-2.17599

>  <SCORE.INTRA>
0.509976

>  <SCORE.INTRA.DIHEDRAL>
-8.67248e-06

>  <SCORE.INTRA.DIHEDRAL.0>
3.60016

>  <SCORE.INTRA.POLAR>
0

>  <SCORE.INTRA.POLAR.0>
0

>  <SCORE.INTRA.REPUL>
0

>  <SCORE.INTRA.REPUL.0>
0

>  <SCORE.INTRA.SOLV>
1.45226e-05

>  <SCORE.INTRA.SOLV.lig_0>
-10.9882

>  <SCORE.INTRA.VDW>
0.509973

>  <SCORE.INTRA.VDW.0>
1.84442

>  <SCORE.INTRA.norm>
0.0196145

>  <SCORE.RESTR>
0

>  <SCORE.RESTR.CAVITY>
0

>  <SCORE.RESTR.norm>
0

>  <SCORE.SYSTEM>
0

>  <SCORE.SYSTEM.CONST>
0

>  <SCORE.SYSTEM.DIHEDRAL>
0

>  <SCORE.SYSTEM.SOLV>
0

>  <SCORE.SYSTEM.norm>
0

>  <SCORE.heavy>
26

>  <SCORE.norm>
-2.15637

>  <RMSD>
0.732

$$$$
ligand
 OpenBabel02271912153D
libRbt.so/2013.1/901 2013/11/27
 26 29  0  0  0  0  0  0  0  0999 V2000
  111.2112  -74.7524  -82.0086 C   0  0  1  0  0  0  0  0  0  0  0  0
  111.3847  -74.4006  -80.6777 N   0  0  0  0  0  0  0  0  0  0  0  0
  111.7319  -76.0194  -82.5007 C   0  0  0  0  0  0  0  0  0  0  0  0
  112.7476  -80.6445  -87.5729 N   0  0  0  0  0  0  0  0  0  0  0  0
  112.0332  -77.5324  -84.3089 O   0  0  0  0  0  0  0  0  0  0  0  0
  111.4792  -76.2249  -83.8584 C   0  0  2  0  0  0  0  0  0  0  0  0
  111.8069  -77.7069  -85.5524 C   0  0  1  0  0  0  0  0  0  0  0  0
  112.3744  -79.0116  -85.8922 C   0  0  0  0  0  0  0  0  0  0  0  0
  112.2183  -79.3767  -87.2764 C   0  0  2  0  0  0  0  0  0  0  0  0
  111.5814  -78.5351  -88.2216 C   0  0  0  0  0  0  0  0  0  0  0  0
  111.0304  -77.2548  -87.8180 C   0  0  0  0  0  0  0  0  0  0  0  0
  111.1625  -76.8748  -86.4329 C   0  0  2  0  0  0  0  0  0  0  0  0
  110.5484  -75.5366  -86.0951 C   0  0  1  0  0  0  0  0  0  0  0  0
  110.8110  -75.3659  -84.7240 C   0  0  2  0  0  0  0  0  0  0  0  0
  110.2883  -74.0988  -84.2079 C   0  0  0  0  0  0  0  0  0  0  0  0
  110.5361  -73.8619  -82.8205 C   0  0  0  0  0  0  0  0  0  0  0  0
  109.9021  -74.7463  -87.0267 C   0  0  0  0  0  0  0  0  0  0  0  0
  108.8949  -75.1847  -87.9176 C   0  0  0  0  0  0  0  0  0  0  0  0
  108.2197  -74.3974  -88.8520 C   0  0  0  0  0  0  0  0  0  0  0  0
  108.5389  -72.9820  -88.9647 C   0  0  0  0  0  0  0  0  0  0  0  0
  109.5573  -72.5779  -88.0684 C   0  0  0  0  0  0  0  0  0  0  0  0
  110.2625  -73.3319  -87.1202 C   0  0  0  0  0  0  0  0  0  0  0  0
  110.9302  -73.1180  -80.1479 C   0  0  0  0  0  0  0  0  0  0  0  0
  112.0171  -75.2265  -79.6272 C   0  0  0  0  0  0  0  0  0  0  0  0
  112.9274  -81.3586  -88.8567 C   0  0  0  0  0  0  0  0  0  0  0  0
  113.2563  -81.4664  -86.4185 C   0  0  0  0  0  0  0  0  0  0  0  0
  1  2  1  1  0  0  0
  1  3  1  0  0  0  0
  1 16  1  0  0  0  0
  2 23  1  0  0  0  0
  2 24  1  0  0  0  0
  4 25  1  0  0  0  0
  4 26  1  0  0  0  0
  5  6  1  0  0  0  0
  6  3  1  6  0  0  0
  6 14  1  0  0  0  0
  7  5  1  1  0  0  0
  7  8  1  0  0  0  0
  7 12  1  0  0  0  0
  8  9  1  0  0  0  0
  9  4  1  1  0  0  0
  9 10  1  0  0  0  0
 10 11  1  0  0  0  0
 12 11  1  6  0  0  0
 12 13  1  0  0  0  0
 13 14  1  0  0  0  0
 13 17  1  6  0  0  0
 14 15  1  6  0  0  0
 15 16  1  0  0  0  0
 17 18  1  0  0  0  0
 17 22  1  0  0  0  0
 18 19  1  0  0  0  0
 19 20  1  0  0  0  0
 20 21  1  0  0  0  0
 21 22  1  0  0  0  0
M  END
>  <CHROM.1>
177.42669195,-173.25496912,49.53259715,111.12435733,-76.30381580,-85.40480779
-1.86358430,1.06088812,-2.05927023

>  <Name>
ligand

>  <RI>
0

>  <Rbt.Current_Directory>
/home/itssahil/PROJECTS/Mol_Feturizer/Test_systems_manuscript/rnas/1f1t

>  <Rbt.Executable>
rbdock ($Id: //depot/dev/client3/rdock/2013.1/src/exe/rbdock.cxx#4 $)

>  <Rbt.Library>
libRbt.so (2013.1, Build901 2013/11/27)

>  <Rbt.Parameter_File>
/export/apps/rDock/src/rDock_2013.1_src/data/scripts/dock_solv.prm

>  <Rbt.Receptor>
prm/pocket_docking_8.prm

>  <SCORE>
-53.3535

>  <SCORE.INTER>
-56.2678

>  <SCORE.INTER.CONST>
1

>  <SCORE.INTER.POLAR>
0

>  <SCORE.INTER.ROT>
3

>  <SCORE.INTER.SOLV>
9.01981

>  <SCORE.INTER.VDW>
-46.1185

>  <SCORE.INTER.norm>
-2.16415

>  <SCORE.INTRA>
2.91434

>  <SCORE.INTRA.DIHEDRAL>
-0.000300679

>  <SCORE.INTRA.DIHEDRAL.0>
3.60016

>  <SCORE.INTRA.POLAR>
0

>  <SCORE.INTRA.POLAR.0>
0

>  <SCORE.INTRA.REPUL>
0

>  <SCORE.INTRA.REPUL.0>
0

>  <SCORE.INTRA.SOLV>
-0.000989218

>  <SCORE.INTRA.SOLV.lig_0>
-10.9882

>  <SCORE.INTRA.VDW>
2.91499

>  <SCORE.INTRA.VDW.0>
1.84442

>  <SCORE.INTRA.norm>
0.11209

>  <SCORE.RESTR>
0

>  <SCORE.RESTR.CAVITY>
0

>  <SCORE.RESTR.norm>
0

>  <SCORE.SYSTEM>
0

>  <SCORE.SYSTEM.CONST>
0

>  <SCORE.SYSTEM.DIHEDRAL>
0

>  <SCORE.SYSTEM.SOLV>
0

>  <SCORE.SYSTEM.norm>
0

>  <SCORE.heavy>
26

>  <SCORE.norm>
-2.05206

>  <RMSD>
0.732

$$$$
ligand
 OpenBabel02271912153D
libRbt.so/2013.1/901 2013/11/27
 26 29  0  0  0  0  0  0  0  0999 V2000
  112.2237  -79.4268  -87.1121 C   0  0  1  0  0  0  0  0  0  0  0  0
  112.7230  -80.6601  -87.5056 N   0  0  0  0  0  0  0  0  0  0  0  0
  112.3457  -79.0005  -85.7258 C   0  0  0  0  0  0  0  0  0  0  0  0
  111.3358  -74.3790  -80.6492 N   0  0  0  0  0  0  0  0  0  0  0  0
  111.9440  -77.3546  -84.0588 O   0  0  0  0  0  0  0  0  0  0  0  0
  111.7932  -77.7402  -85.4899 C   0  0  2  0  0  0  0  0  0  0  0  0
  111.4271  -76.2068  -83.8503 C   0  0  1  0  0  0  0  0  0  0  0  0
  111.6348  -75.9162  -82.4318 C   0  0  0  0  0  0  0  0  0  0  0  0
  111.1012  -74.6475  -82.0086 C   0  0  2  0  0  0  0  0  0  0  0  0
  110.4248  -73.7700  -82.8918 C   0  0  0  0  0  0  0  0  0  0  0  0
  110.2596  -74.1134  -84.2920 C   0  0  0  0  0  0  0  0  0  0  0  0
  110.7991  -75.3733  -84.7413 C   0  0  2  0  0  0  0  0  0  0  0  0
  110.5979  -75.6449  -86.2137 C   0  0  1  0  0  0  0  0  0  0  0  0
  111.1725  -76.9122  -86.4186 C   0  0  2  0  0  0  0  0  0  0  0  0
  111.0659  -77.3561  -87.8102 C   0  0  0  0  0  0  0  0  0  0  0  0
  111.6214  -78.6452  -88.0787 C   0  0  0  0  0  0  0  0  0  0  0  0
  109.9640  -74.7593  -87.0645 C   0  0  0  0  0  0  0  0  0  0  0  0
  110.2781  -73.3873  -87.2038 C   0  0  0  0  0  0  0  0  0  0  0  0
  109.6607  -72.4830  -88.0698 C   0  0  0  0  0  0  0  0  0  0  0  0
  108.5855  -72.9385  -88.9384 C   0  0  0  0  0  0  0  0  0  0  0  0
  108.2883  -74.3118  -88.7668 C   0  0  0  0  0  0  0  0  0  0  0  0
  108.8770  -75.2521  -87.9101 C   0  0  0  0  0  0  0  0  0  0  0  0
  112.7149  -81.0921  -88.9004 C   0  0  0  0  0  0  0  0  0  0  0  0
  113.3239  -81.6847  -86.6253 C   0  0  0  0  0  0  0  0  0  0  0  0
  111.9629  -75.1895  -79.5813 C   0  0  0  0  0  0  0  0  0  0  0  0
  110.9096  -73.0319  -80.1289 C   0  0  0  0  0  0  0  0  0  0  0  0
  1  2  1  6  0  0  0
  1  3  1  0  0  0  0
  1 16  1  0  0  0  0
  2 23  1  0  0  0  0
  2 24  1  0  0  0  0
  4 25  1  0  0  0  0
  4 26  1  0  0  0  0
  5  6  1  0  0  0  0
  6  3  1  1  0  0  0
  6 14  1  0  0  0  0
  7  5  1  6  0  0  0
  7  8  1  0  0  0  0
  7 12  1  0  0  0  0
  8  9  1  0  0  0  0
  9  4  1  6  0  0  0
  9 10  1  0  0  0  0
 10 11  1  0  0  0  0
 12 11  1  1  0  0  0
 12 13  1  0  0  0  0
 13 14  1  0  0  0  0
 13 17  1  1  0  0  0
 14 15  1  1  0  0  0
 15 16  1  0  0  0  0
 17 18  1  0  0  0  0
 17 22  1  0  0  0  0
 18 19  1  0  0  0  0
 19 20  1  0  0  0  0
 20 21  1  0  0  0  0
 21 22  1  0  0  0  0
M  END
>  <CHROM.1>
-175.37360107,-3.58628467,51.48292126,111.10576682,-76.28888185,-85.38483134
-1.26658914,-1.07502733,1.08852413

>  <Name>
ligand

>  <RI>
0

>  <Rbt.Current_Directory>
/home/itssahil/PROJECTS/Mol_Feturizer/Test_systems_manuscript/rnas/1f1t

>  <Rbt.Executable>
rbdock ($Id: //depot/dev/client3/rdock/2013.1/src/exe/rbdock.cxx#4 $)

>  <Rbt.Library>
libRbt.so (2013.1, Build901 2013/11/27)

>  <Rbt.Parameter_File>
/export/apps/rDock/src/rDock_2013.1_src/data/scripts/dock_solv.prm

>  <Rbt.Receptor>
prm/pocket_docking_2.prm

>  <SCORE>
-56.3086

>  <SCORE.INTER>
-56.8265

>  <SCORE.INTER.CONST>
1

>  <SCORE.INTER.POLAR>
0

>  <SCORE.INTER.ROT>
3

>  <SCORE.INTER.SOLV>
9.00609

>  <SCORE.INTER.VDW>
-46.4864

>  <SCORE.INTER.norm>
-2.18564

>  <SCORE.INTRA>
0.517909

>  <SCORE.INTRA.DIHEDRAL>
0.000283947

>  <SCORE.INTRA.DIHEDRAL.0>
3.60016

>  <SCORE.INTRA.POLAR>
0

>  <SCORE.INTRA.POLAR.0>
0

>  <SCORE.INTRA.REPUL>
0

>  <SCORE.INTRA.REPUL.0>
0

>  <SCORE.INTRA.SOLV>
6.59864e-06

>  <SCORE.INTRA.SOLV.lig_0>
-10.9882

>  <SCORE.INTRA.VDW>
0.517764

>  <SCORE.INTRA.VDW.0>
1.84442

>  <SCORE.INTRA.norm>
0.0199196

>  <SCORE.RESTR>
0

>  <SCORE.RESTR.CAVITY>
0

>  <SCORE.RESTR.norm>
0

>  <SCORE.SYSTEM>
0

>  <SCORE.SYSTEM.CONST>
0

>  <SCORE.SYSTEM.DIHEDRAL>
0

>  <SCORE.SYSTEM.SOLV>
0

>  <SCORE.SYSTEM.norm>
0

>  <SCORE.heavy>
26

>  <SCORE.norm>
-2.16572

>  <RMSD>
0.733

$$$$
ligand
 OpenBabel02271912153D
libRbt.so/2013.1/901 2013/11/27
 26 29  0  0  0  0  0  0  0  0999 V2000
  112.2175  -79.4209  -87.1175 C   0  0  1  0  0  0  0  0  0  0  0  0
  112.7148  -80.6541  -87.5138 N   0  0  0  0  0  0  0  0  0  0  0  0
  112.3407  -78.9976  -85.7304 C   0  0  0  0  0  0  0  0  0  0  0  0
  111.3399  -74.3848  -80.6441 N   0  0  0  0  0  0  0  0  0  0  0  0
  111.9421  -77.3544  -84.0599 O   0  0  0  0  0  0  0  0  0  0  0  0
  111.7902  -77.7369  -85.4918 C   0  0  2  0  0  0  0  0  0  0  0  0
  111.4272  -76.2062  -83.8489 C   0  0  1  0  0  0  0  0  0  0  0  0
  111.6358  -75.9188  -82.4300 C   0  0  0  0  0  0  0  0  0  0  0  0
  111.1044  -74.6501  -82.0040 C   0  0  2  0  0  0  0  0  0  0  0  0
  110.4290  -73.7698  -82.8851 C   0  0  0  0  0  0  0  0  0  0  0  0
  110.2628  -74.1101  -84.2859 C   0  0  0  0  0  0  0  0  0  0  0  0
  110.8001  -75.3699  -84.7380 C   0  0  2  0  0  0  0  0  0  0  0  0
  110.5979  -75.6382  -86.2109 C   0  0  1  0  0  0  0  0  0  0  0  0
  111.1705  -76.9060  -86.4186 C   0  0  2  0  0  0  0  0  0  0  0  0
  111.0627  -77.3469  -87.8110 C   0  0  0  0  0  0  0  0  0  0  0  0
  111.6161  -78.6363  -88.0823 C   0  0  0  0  0  0  0  0  0  0  0  0
  109.9651  -74.7499  -87.0597 C   0  0  0  0  0  0  0  0  0  0  0  0
  110.2839  -73.3790  -87.1991 C   0  0  0  0  0  0  0  0  0  0  0  0
  109.6676  -72.4721  -88.0632 C   0  0  0  0  0  0  0  0  0  0  0  0
  108.5885  -72.9231  -88.9291 C   0  0  0  0  0  0  0  0  0  0  0  0
  108.2866  -74.2955  -88.7573 C   0  0  0  0  0  0  0  0  0  0  0  0
  108.8741  -75.2383  -87.9026 C   0  0  0  0  0  0  0  0  0  0  0  0
  113.2414  -81.6231  -86.5566 C   0  0  0  0  0  0  0  0  0  0  0  0
  112.7819  -81.1694  -88.8979 C   0  0  0  0  0  0  0  0  0  0  0  0
  111.9810  -75.1919  -79.5820 C   0  0  0  0  0  0  0  0  0  0  0  0
  110.8978  -73.0458  -80.1163 C   0  0  0  0  0  0  0  0  0  0  0  0
  1  2  1  6  0  0  0
  1  3  1  0  0  0  0
  1 16  1  0  0  0  0
  2 23  1  0  0  0  0
  2 24  1  0  0  0  0
  4 25  1  0  0  0  0
  4 26  1  0  0  0  0
  5  6  1  0  0  0  0
  6  3  1  1  0  0  0
  6 14  1  0  0  0  0
  7  5  1  6  0  0  0
  7  8  1  0  0  0  0
  7 12  1  0  0  0  0
  8  9  1  0  0  0  0
  9  4  1  6  0  0  0
  9 10  1  0  0  0  0
 10 11  1  0  0  0  0
 12 11  1  1  0  0  0
 12 13  1  0  0  0  0
 13 14  1  0  0  0  0
 13 17  1  1  0  0  0
 14 15  1  1  0  0  0
 15 16  1  0  0  0  0
 17 18  1  0  0  0  0
 17 22  1  0  0  0  0
 18 19  1  0  0  0  0
 19 20  1  0  0  0  0
 20 21  1  0  0  0  0
 21 22  1  0  0  0  0
M  END
>  <CHROM.1>
6.63875408,-2.71785264,51.68241773,111.10508842,-76.28599635,-85.37935776
-1.26634059,-1.07705669,1.08875640

>  <Name>
ligand

>  <RI>
0

>  <Rbt.Current_Directory>
/home/itssahil/PROJECTS/Mol_Feturizer/Test_systems_manuscript/rnas/1f1t

>  <Rbt.Executable>
rbdock ($Id: //depot/dev/client3/rdock/2013.1/src/exe/rbdock.cxx#4 $)

>  <Rbt.Library>
libRbt.so (2013.1, Build901 2013/11/27)

>  <Rbt.Parameter_File>
/export/apps/rDock/src/rDock_2013.1_src/data/scripts/dock_solv.prm

>  <Rbt.Receptor>
prm/pocket_docking_2.prm

>  <SCORE>
-56.4984

>  <SCORE.INTER>
-56.6934

>  <SCORE.INTER.CONST>
1

>  <SCORE.INTER.POLAR>
0

>  <SCORE.INTER.ROT>
3

>  <SCORE.INTER.SOLV>
8.98293

>  <SCORE.INTER.VDW>
-46.3899

>  <SCORE.INTER.norm>
-2.18052

>  <SCORE.INTRA>
0.195

>  <SCORE.INTRA.DIHEDRAL>
0.000273911

>  <SCORE.INTRA.DIHEDRAL.0>
3.60016

>  <SCORE.INTRA.POLAR>
0

>  <SCORE.INTRA.POLAR.0>
0

>  <SCORE.INTRA.REPUL>
0

>  <SCORE.INTRA.REPUL.0>
0

>  <SCORE.INTRA.SOLV>
1.58254e-05

>  <SCORE.INTRA.SOLV.lig_0>
-10.9882

>  <SCORE.INTRA.VDW>
0.194855

>  <SCORE.INTRA.VDW.0>
1.84442

>  <SCORE.INTRA.norm>
0.00749999

>  <SCORE.RESTR>
0

>  <SCORE.RESTR.CAVITY>
0

>  <SCORE.RESTR.norm>
0

>  <SCORE.SYSTEM>
0

>  <SCORE.SYSTEM.CONST>
0

>  <SCORE.SYSTEM.DIHEDRAL>
0

>  <SCORE.SYSTEM.SOLV>
0

>  <SCORE.SYSTEM.norm>
0

>  <SCORE.heavy>
26

>  <SCORE.norm>
-2.17302

>  <RMSD>
0.733

$$$$
ligand
 OpenBabel02271912153D
libRbt.so/2013.1/901 2013/11/27
 26 29  0  0  0  0  0  0  0  0999 V2000
  112.2258  -79.4275  -87.1017 C   0  0  1  0  0  0  0  0  0  0  0  0
  112.7252  -80.6618  -87.4919 N   0  0  0  0  0  0  0  0  0  0  0  0
  112.3498  -78.9965  -85.7171 C   0  0  0  0  0  0  0  0  0  0  0  0
  111.3454  -74.3586  -80.6543 N   0  0  0  0  0  0  0  0  0  0  0  0
  111.9498  -77.3452  -84.0549 O   0  0  0  0  0  0  0  0  0  0  0  0
  111.7969  -77.7357  -85.4845 C   0  0  2  0  0  0  0  0  0  0  0  0
  111.4326  -76.1970  -83.8495 C   0  0  1  0  0  0  0  0  0  0  0  0
  111.6424  -75.9016  -82.4323 C   0  0  0  0  0  0  0  0  0  0  0  0
  111.1087  -74.6317  -82.0125 C   0  0  2  0  0  0  0  0  0  0  0  0
  110.4304  -73.7576  -82.8975 C   0  0  0  0  0  0  0  0  0  0  0  0
  110.2631  -74.1058  -84.2962 C   0  0  0  0  0  0  0  0  0  0  0  0
  110.8027  -75.3669  -84.7423 C   0  0  2  0  0  0  0  0  0  0  0  0
  110.5992  -75.6435  -86.2133 C   0  0  1  0  0  0  0  0  0  0  0  0
  111.1743  -76.9111  -86.4150 C   0  0  2  0  0  0  0  0  0  0  0  0
  111.0657  -77.3598  -87.8049 C   0  0  0  0  0  0  0  0  0  0  0  0
  111.6215  -78.6495  -88.0699 C   0  0  0  0  0  0  0  0  0  0  0  0
  109.9635  -74.7612  -87.0661 C   0  0  0  0  0  0  0  0  0  0  0  0
  110.2722  -73.3880  -87.2058 C   0  0  0  0  0  0  0  0  0  0  0  0
  109.6528  -72.4869  -88.0737 C   0  0  0  0  0  0  0  0  0  0  0  0
  108.5813  -72.9474  -88.9441 C   0  0  0  0  0  0  0  0  0  0  0  0
  108.2893  -74.3218  -88.7721 C   0  0  0  0  0  0  0  0  0  0  0  0
  108.8802  -75.2591  -87.9135 C   0  0  0  0  0  0  0  0  0  0  0  0
  113.2703  -81.6178  -86.5320 C   0  0  0  0  0  0  0  0  0  0  0  0
  112.7771  -81.1909  -88.8715 C   0  0  0  0  0  0  0  0  0  0  0  0
  111.9669  -75.1685  -79.5828 C   0  0  0  0  0  0  0  0  0  0  0  0
  110.9287  -73.0061  -80.1403 C   0  0  0  0  0  0  0  0  0  0  0  0
  1  2  1  6  0  0  0
  1  3  1  0  0  0  0
  1 16  1  0  0  0  0
  2 23  1  0  0  0  0
  2 24  1  0  0  0  0
  4 25  1  0  0  0  0
  4 26  1  0  0  0  0
  5  6  1  0  0  0  0
  6  3  1  1  0  0  0
  6 14  1  0  0  0  0
  7  5  1  6  0  0  0
  7  8  1  0  0  0  0
  7 12  1  0  0  0  0
  8  9  1  0  0  0  0
  9  4  1  6  0  0  0
  9 10  1  0  0  0  0
 10 11  1  0  0  0  0
 12 11  1  1  0  0  0
 12 13  1  0  0  0  0
 13 14  1  0  0  0  0
 13 17  1  1  0  0  0
 14 15  1  1  0  0  0
 15 16  1  0  0  0  0
 17 18  1  0  0  0  0
 17 22  1  0  0  0  0
 18 19  1  0  0  0  0
 19 20  1  0  0  0  0
 20 21  1  0  0  0  0
 21 22  1  0  0  0  0
M  END
>  <CHROM.1>
5.86474276,-4.03687784,51.15715898,111.10913057,-76.28564906,-85.37911708
-1.26731176,-1.07482564,1.08248590

>  <Name>
ligand

>  <RI>
0

>  <Rbt.Current_Directory>
/home/itssahil/PROJECTS/Mol_Feturizer/Test_systems_manuscript/rnas/1f1t

>  <Rbt.Executable>
rbdock ($Id: //depot/dev/client3/rdock/2013.1/src/exe/rbdock.cxx#4 $)

>  <Rbt.Library>
libRbt.so (2013.1, Build901 2013/11/27)

>  <Rbt.Parameter_File>
/export/apps/rDock/src/rDock_2013.1_src/data/scripts/dock_solv.prm

>  <Rbt.Receptor>
prm/pocket_docking_4.prm

>  <SCORE>
-56.5007

>  <SCORE.INTER>
-56.711

>  <SCORE.INTER.CONST>
1

>  <SCORE.INTER.POLAR>
0

>  <SCORE.INTER.ROT>
3

>  <SCORE.INTER.SOLV>
8.9968

>  <SCORE.INTER.VDW>
-46.4063

>  <SCORE.INTER.norm>
-2.18119

>  <SCORE.INTRA>
0.210251

>  <SCORE.INTRA.DIHEDRAL>
0.000268119

>  <SCORE.INTRA.DIHEDRAL.0>
3.60016

>  <SCORE.INTRA.POLAR>
0

>  <SCORE.INTRA.POLAR.0>
0

>  <SCORE.INTRA.REPUL>
0

>  <SCORE.INTRA.REPUL.0>
0

>  <SCORE.INTRA.SOLV>
1.25303e-05

>  <SCORE.INTRA.SOLV.lig_0>
-10.9882

>  <SCORE.INTRA.VDW>
0.21011

>  <SCORE.INTRA.VDW.0>
1.84442

>  <SCORE.INTRA.norm>
0.00808657

>  <SCORE.RESTR>
0

>  <SCORE.RESTR.CAVITY>
0

>  <SCORE.RESTR.norm>
0

>  <SCORE.SYSTEM>
0

>  <SCORE.SYSTEM.CONST>
0

>  <SCORE.SYSTEM.DIHEDRAL>
0

>  <SCORE.SYSTEM.SOLV>
0

>  <SCORE.SYSTEM.norm>
0

>  <SCORE.heavy>
26

>  <SCORE.norm>
-2.17311

>  <RMSD>
0.733

$$$$
ligand
 OpenBabel02271912153D
libRbt.so/2013.1/901 2013/11/27
 26 29  0  0  0  0  0  0  0  0999 V2000
  112.2461  -79.4921  -87.1109 C   0  0  1  0  0  0  0  0  0  0  0  0
  112.7779  -80.7183  -87.4834 N   0  0  0  0  0  0  0  0  0  0  0  0
  112.3740  -79.0303  -85.7365 C   0  0  0  0  0  0  0  0  0  0  0  0
  111.2917  -74.3254  -80.7522 N   0  0  0  0  0  0  0  0  0  0  0  0
  111.9445  -77.3592  -84.1017 O   0  0  0  0  0  0  0  0  0  0  0  0
  111.7860  -77.7823  -85.5213 C   0  0  2  0  0  0  0  0  0  0  0  0
  111.3954  -76.2232  -83.9119 C   0  0  1  0  0  0  0  0  0  0  0  0
  111.6135  -75.8937  -82.5036 C   0  0  0  0  0  0  0  0  0  0  0  0
  111.0468  -74.6324  -82.1016 C   0  0  2  0  0  0  0  0  0  0  0  0
  110.3314  -73.7967  -82.9946 C   0  0  0  0  0  0  0  0  0  0  0  0
  110.1577  -74.1774  -84.3841 C   0  0  0  0  0  0  0  0  0  0  0  0
  110.7297  -75.4302  -84.8125 C   0  0  2  0  0  0  0  0  0  0  0  0
  110.5166  -75.7419  -86.2752 C   0  0  1  0  0  0  0  0  0  0  0  0
  111.1273  -76.9954  -86.4596 C   0  0  2  0  0  0  0  0  0  0  0  0
  111.0153  -77.4745  -87.8390 C   0  0  0  0  0  0  0  0  0  0  0  0
  111.6067  -78.7519  -88.0861 C   0  0  0  0  0  0  0  0  0  0  0  0
  109.8440  -74.8961  -87.1366 C   0  0  0  0  0  0  0  0  0  0  0  0
  108.7676  -75.2659  -87.9762 C   0  0  0  0  0  0  0  0  0  0  0  0
  108.0659  -74.4218  -88.8388 C   0  0  0  0  0  0  0  0  0  0  0  0
  108.4307  -73.0156  -88.9236 C   0  0  0  0  0  0  0  0  0  0  0  0
  109.5174  -72.6805  -88.0805 C   0  0  0  0  0  0  0  0  0  0  0  0
  110.2511  -73.4928  -87.2049 C   0  0  0  0  0  0  0  0  0  0  0  0
  112.8682  -81.1334  -88.8805 C   0  0  0  0  0  0  0  0  0  0  0  0
  113.3220  -81.7508  -86.5759 C   0  0  0  0  0  0  0  0  0  0  0  0
  110.9837  -73.1230  -79.9462 C   0  0  0  0  0  0  0  0  0  0  0  0
  111.9731  -75.3779  -79.9185 C   0  0  0  0  0  0  0  0  0  0  0  0
  1  2  1  6  0  0  0
  1  3  1  0  0  0  0
  1 16  1  0  0  0  0
  2 23  1  0  0  0  0
  2 24  1  0  0  0  0
  4 25  1  0  0  0  0
  4 26  1  0  0  0  0
  5  6  1  0  0  0  0
  6  3  1  1  0  0  0
  6 14  1  0  0  0  0
  7  5  1  6  0  0  0
  7  8  1  0  0  0  0
  7 12  1  0  0  0  0
  8  9  1  0  0  0  0
  9  4  1  6  0  0  0
  9 10  1  0  0  0  0
 10 11  1  0  0  0  0
 12 11  1  1  0  0  0
 12 13  1  0  0  0  0
 13 14  1  0  0  0  0
 13 17  1  1  0  0  0
 14 15  1  1  0  0  0
 15 16  1  0  0  0  0
 17 18  1  0  0  0  0
 17 22  1  0  0  0  0
 18 19  1  0  0  0  0
 19 20  1  0  0  0  0
 20 21  1  0  0  0  0
 21 22  1  0  0  0  0
M  END
>  <CHROM.1>
-169.99537298,175.47718354,-127.91177998,111.07002560,-76.35412403,-85.42594410
-1.25108251,-1.04766456,1.07738818

>  <Name>
ligand

>  <RI>
0

>  <Rbt.Current_Directory>
/home/itssahil/PROJECTS/Mol_Feturizer/Test_systems_manuscript/rnas/1f1t

>  <Rbt.Executable>
rbdock ($Id: //depot/dev/client3/rdock/2013.1/src/exe/rbdock.cxx#4 $)

>  <Rbt.Library>
libRbt.so (2013.1, Build901 2013/11/27)

>  <Rbt.Parameter_File>
/export/apps/rDock/src/rDock_2013.1_src/data/scripts/dock_solv.prm

>  <Rbt.Receptor>
prm/pocket_docking_5.prm

>  <SCORE>
-53.3673

>  <SCORE.INTER>
-56.2137

>  <SCORE.INTER.CONST>
1

>  <SCORE.INTER.POLAR>
0

>  <SCORE.INTER.ROT>
3

>  <SCORE.INTER.SOLV>
8.91825

>  <SCORE.INTER.VDW>
-46.0485

>  <SCORE.INTER.norm>
-2.16206

>  <SCORE.INTRA>
2.84643

>  <SCORE.INTRA.DIHEDRAL>
-0.000580467

>  <SCORE.INTRA.DIHEDRAL.0>
3.60016

>  <SCORE.INTRA.POLAR>
0

>  <SCORE.INTRA.POLAR.0>
0

>  <SCORE.INTRA.REPUL>
0

>  <SCORE.INTRA.REPUL.0>
0

>  <SCORE.INTRA.SOLV>
-0.0009434

>  <SCORE.INTRA.SOLV.lig_0>
-10.9882

>  <SCORE.INTRA.VDW>
2.84719

>  <SCORE.INTRA.VDW.0>
1.84442

>  <SCORE.INTRA.norm>
0.109478

>  <SCORE.RESTR>
0

>  <SCORE.RESTR.CAVITY>
0

>  <SCORE.RESTR.norm>
0

>  <SCORE.SYSTEM>
0

>  <SCORE.SYSTEM.CONST>
0

>  <SCORE.SYSTEM.DIHEDRAL>
0

>  <SCORE.SYSTEM.SOLV>
0

>  <SCORE.SYSTEM.norm>
0

>  <SCORE.heavy>
26

>  <SCORE.norm>
-2.05259

>  <RMSD>
0.733

$$$$
ligand
 OpenBabel02271912153D
libRbt.so/2013.1/901 2013/11/27
 26 29  0  0  0  0  0  0  0  0999 V2000
  112.2039  -79.4068  -87.1182 C   0  0  1  0  0  0  0  0  0  0  0  0
  112.6939  -80.6414  -87.5193 N   0  0  0  0  0  0  0  0  0  0  0  0
  112.3279  -78.9904  -85.7291 C   0  0  0  0  0  0  0  0  0  0  0  0
  111.3496  -74.3939  -80.6237 N   0  0  0  0  0  0  0  0  0  0  0  0
  111.9375  -77.3521  -84.0519 O   0  0  0  0  0  0  0  0  0  0  0  0
  111.7851  -77.7273  -85.4856 C   0  0  2  0  0  0  0  0  0  0  0  0
  111.4296  -76.2017  -83.8365 C   0  0  1  0  0  0  0  0  0  0  0  0
  111.6382  -75.9219  -82.4160 C   0  0  0  0  0  0  0  0  0  0  0  0
  111.1142  -74.6517  -81.9851 C   0  0  2  0  0  0  0  0  0  0  0  0
  110.4456  -73.7632  -82.8632 C   0  0  0  0  0  0  0  0  0  0  0  0
  110.2791  -74.0963  -84.2657 C   0  0  0  0  0  0  0  0  0  0  0  0
  110.8091  -75.3575  -84.7227 C   0  0  2  0  0  0  0  0  0  0  0  0
  110.6071  -75.6180  -86.1969 C   0  0  1  0  0  0  0  0  0  0  0  0
  111.1719  -76.8884  -86.4095 C   0  0  2  0  0  0  0  0  0  0  0  0
  111.0632  -77.3225  -87.8041 C   0  0  0  0  0  0  0  0  0  0  0  0
  111.6087  -78.6142  -88.0803 C   0  0  0  0  0  0  0  0  0  0  0  0
  109.9811  -74.7219  -87.0426 C   0  0  0  0  0  0  0  0  0  0  0  0
  110.3192  -73.3562  -87.1873 C   0  0  0  0  0  0  0  0  0  0  0  0
  109.7098  -72.4418  -88.0484 C   0  0  0  0  0  0  0  0  0  0  0  0
  108.6175  -72.8784  -88.9051 C   0  0  0  0  0  0  0  0  0  0  0  0
  108.2965  -74.2457  -88.7283 C   0  0  0  0  0  0  0  0  0  0  0  0
  108.8765  -75.1956  -87.8762 C   0  0  0  0  0  0  0  0  0  0  0  0
  113.2775  -81.5895  -86.5744 C   0  0  0  0  0  0  0  0  0  0  0  0
  112.6976  -81.1785  -88.8967 C   0  0  0  0  0  0  0  0  0  0  0  0
  112.0119  -75.1969  -79.5716 C   0  0  0  0  0  0  0  0  0  0  0  0
  110.8813  -73.0694  -80.0819 C   0  0  0  0  0  0  0  0  0  0  0  0
  1  2  1  6  0  0  0
  1  3  1  0  0  0  0
  1 16  1  0  0  0  0
  2 23  1  0  0  0  0
  2 24  1  0  0  0  0
  4 25  1  0  0  0  0
  4 26  1  0  0  0  0
  5  6  1  0  0  0  0
  6  3  1  1  0  0  0
  6 14  1  0  0  0  0
  7  5  1  6  0  0  0
  7  8  1  0  0  0  0
  7 12  1  0  0  0  0
  8  9  1  0  0  0  0
  9  4  1  6  0  0  0
  9 10  1  0  0  0  0
 10 11  1  0  0  0  0
 12 11  1  1  0  0  0
 12 13  1  0  0  0  0
 13 14  1  0  0  0  0
 13 17  1  1  0  0  0
 14 15  1  1  0  0  0
 15 16  1  0  0  0  0
 17 18  1  0  0  0  0
 17 22  1  0  0  0  0
 18 19  1  0  0  0  0
 19 20  1  0  0  0  0
 20 21  1  0  0  0  0
 21 22  1  0  0  0  0
M  END
>  <CHROM.1>
3.34772896,-1.08942298,52.48327511,111.10878278,-76.27269742,-85.36750225
-1.27088483,-1.08173531,1.08898691

>  <Name>
ligand

>  <RI>
0

>  <Rbt.Current_Directory>
/home/itssahil/PROJECTS/Mol_Feturizer/Test_systems_manuscript/rnas/1f1t

>  <Rbt.Executable>
rbdock ($Id: //depot/dev/client3/rdock/2013.1/src/exe/rbdock.cxx#4 $)

>  <Rbt.Library>
libRbt.so (2013.1, Build901 2013/11/27)

>  <Rbt.Parameter_File>
/export/apps/rDock/src/rDock_2013.1_src/data/scripts/dock_solv.prm

>  <Rbt.Receptor>
prm/pocket_docking_8.prm

>  <SCORE>
-56.4716

>  <SCORE.INTER>
-56.6834

>  <SCORE.INTER.CONST>
1

>  <SCORE.INTER.POLAR>
0

>  <SCORE.INTER.ROT>
3

>  <SCORE.INTER.SOLV>
9.04424

>  <SCORE.INTER.VDW>
-46.4037

>  <SCORE.INTER.norm>
-2.18013

>  <SCORE.INTRA>
0.211891

>  <SCORE.INTRA.DIHEDRAL>
0.000279064

>  <SCORE.INTRA.DIHEDRAL.0>
3.60016

>  <SCORE.INTRA.POLAR>
0

>  <SCORE.INTRA.POLAR.0>
0

>  <SCORE.INTRA.REPUL>
0

>  <SCORE.INTRA.REPUL.0>
0

>  <SCORE.INTRA.SOLV>
1.85107e-06

>  <SCORE.INTRA.SOLV.lig_0>
-10.9882

>  <SCORE.INTRA.VDW>
0.21175

>  <SCORE.INTRA.VDW.0>
1.84442

>  <SCORE.INTRA.norm>
0.00814964

>  <SCORE.RESTR>
0

>  <SCORE.RESTR.CAVITY>
0

>  <SCORE.RESTR.norm>
0

>  <SCORE.SYSTEM>
0

>  <SCORE.SYSTEM.CONST>
0

>  <SCORE.SYSTEM.DIHEDRAL>
0

>  <SCORE.SYSTEM.SOLV>
0

>  <SCORE.SYSTEM.norm>
0

>  <SCORE.heavy>
26

>  <SCORE.norm>
-2.17198

>  <RMSD>
0.733

$$$$
ligand
 OpenBabel02271912153D
libRbt.so/2013.1/901 2013/11/27
 26 29  0  0  0  0  0  0  0  0999 V2000
  112.2193  -79.4265  -87.1194 C   0  0  1  0  0  0  0  0  0  0  0  0
  112.7163  -80.6599  -87.5156 N   0  0  0  0  0  0  0  0  0  0  0  0
  112.3408  -79.0041  -85.7319 C   0  0  0  0  0  0  0  0  0  0  0  0
  111.3357  -74.3937  -80.6443 N   0  0  0  0  0  0  0  0  0  0  0  0
  111.9409  -77.3616  -84.0610 O   0  0  0  0  0  0  0  0  0  0  0  0
  111.7908  -77.7432  -85.4933 C   0  0  2  0  0  0  0  0  0  0  0  0
  111.4264  -76.2132  -83.8501 C   0  0  1  0  0  0  0  0  0  0  0  0
  111.6332  -75.9269  -82.4306 C   0  0  0  0  0  0  0  0  0  0  0  0
  111.1020  -74.6580  -82.0046 C   0  0  2  0  0  0  0  0  0  0  0  0
  110.4286  -73.7767  -82.8863 C   0  0  0  0  0  0  0  0  0  0  0  0
  110.2641  -74.1161  -84.2875 C   0  0  0  0  0  0  0  0  0  0  0  0
  110.8013  -75.3760  -84.7396 C   0  0  2  0  0  0  0  0  0  0  0  0
  110.6010  -75.6433  -86.2129 C   0  0  1  0  0  0  0  0  0  0  0  0
  111.1730  -76.9113  -86.4205 C   0  0  2  0  0  0  0  0  0  0  0  0
  111.0669  -77.3514  -87.8134 C   0  0  0  0  0  0  0  0  0  0  0  0
  111.6198  -78.6410  -88.0846 C   0  0  0  0  0  0  0  0  0  0  0  0
  109.9701  -74.7540  -87.0621 C   0  0  0  0  0  0  0  0  0  0  0  0
  110.2914  -73.3837  -87.2017 C   0  0  0  0  0  0  0  0  0  0  0  0
  109.6770  -72.4759  -88.0662 C   0  0  0  0  0  0  0  0  0  0  0  0
  108.5974  -72.9252  -88.9324 C   0  0  0  0  0  0  0  0  0  0  0  0
  108.2930  -74.2970  -88.7604 C   0  0  0  0  0  0  0  0  0  0  0  0
  108.8785  -75.2407  -87.9052 C   0  0  0  0  0  0  0  0  0  0  0  0
  112.7502  -81.0699  -88.9167 C   0  0  0  0  0  0  0  0  0  0  0  0
  113.2740  -81.7060  -86.6321 C   0  0  0  0  0  0  0  0  0  0  0  0
  111.9696  -75.2041  -79.5804 C   0  0  0  0  0  0  0  0  0  0  0  0
  110.9001  -73.0520  -80.1179 C   0  0  0  0  0  0  0  0  0  0  0  0
  1  2  1  6  0  0  0
  1  3  1  0  0  0  0
  1 16  1  0  0  0  0
  2 23  1  0  0  0  0
  2 24  1  0  0  0  0
  4 25  1  0  0  0  0
  4 26  1  0  0  0  0
  5  6  1  0  0  0  0
  6  3  1  1  0  0  0
  6 14  1  0  0  0  0
  7  5  1  6  0  0  0
  7  8  1  0  0  0  0
  7 12  1  0  0  0  0
  8  9  1  0  0  0  0
  9  4  1  6  0  0  0
  9 10  1  0  0  0  0
 10 11  1  0  0  0  0
 12 11  1  1  0  0  0
 12 13  1  0  0  0  0
 13 14  1  0  0  0  0
 13 17  1  1  0  0  0
 14 15  1  1  0  0  0
 15 16  1  0  0  0  0
 17 18  1  0  0  0  0
 17 22  1  0  0  0  0
 18 19  1  0  0  0  0
 19 20  1  0  0  0  0
 20 21  1  0  0  0  0
 21 22  1  0  0  0  0
M  END
>  <CHROM.1>
-173.25661853,-3.01803180,51.78282537,111.10650213,-76.29060143,-85.38510425
-1.26556838,-1.07789023,1.09213670

>  <Name>
ligand

>  <RI>
0

>  <Rbt.Current_Directory>
/home/itssahil/PROJECTS/Mol_Feturizer/Test_systems_manuscript/rnas/1f1t

>  <Rbt.Executable>
rbdock ($Id: //depot/dev/client3/rdock/2013.1/src/exe/rbdock.cxx#4 $)

>  <Rbt.Library>
libRbt.so (2013.1, Build901 2013/11/27)

>  <Rbt.Parameter_File>
/export/apps/rDock/src/rDock_2013.1_src/data/scripts/dock_solv.prm

>  <Rbt.Receptor>
prm/pocket_docking_2.prm

>  <SCORE>
-56.2981

>  <SCORE.INTER>
-56.7847

>  <SCORE.INTER.CONST>
1

>  <SCORE.INTER.POLAR>
0

>  <SCORE.INTER.ROT>
3

>  <SCORE.INTER.SOLV>
8.97035

>  <SCORE.INTER.VDW>
-46.4466

>  <SCORE.INTER.norm>
-2.18403

>  <SCORE.INTRA>
0.486575

>  <SCORE.INTRA.DIHEDRAL>
0.000286401

>  <SCORE.INTRA.DIHEDRAL.0>
3.60016

>  <SCORE.INTRA.POLAR>
0

>  <SCORE.INTRA.POLAR.0>
0

>  <SCORE.INTRA.REPUL>
0

>  <SCORE.INTRA.REPUL.0>
0

>  <SCORE.INTRA.SOLV>
1.66375e-05

>  <SCORE.INTRA.SOLV.lig_0>
-10.9882

>  <SCORE.INTRA.VDW>
0.486423

>  <SCORE.INTRA.VDW.0>
1.84442

>  <SCORE.INTRA.norm>
0.0187144

>  <SCORE.RESTR>
0

>  <SCORE.RESTR.CAVITY>
0

>  <SCORE.RESTR.norm>
0

>  <SCORE.SYSTEM>
0

>  <SCORE.SYSTEM.CONST>
0

>  <SCORE.SYSTEM.DIHEDRAL>
0

>  <SCORE.SYSTEM.SOLV>
0

>  <SCORE.SYSTEM.norm>
0

>  <SCORE.heavy>
26

>  <SCORE.norm>
-2.16531

>  <RMSD>
0.734

$$$$
ligand
 OpenBabel02271912153D
libRbt.so/2013.1/901 2013/11/27
 26 29  0  0  0  0  0  0  0  0999 V2000
  112.2156  -79.4071  -87.1081 C   0  0  1  0  0  0  0  0  0  0  0  0
  112.7114  -80.6408  -87.5049 N   0  0  0  0  0  0  0  0  0  0  0  0
  112.3398  -78.9844  -85.7209 C   0  0  0  0  0  0  0  0  0  0  0  0
  111.3458  -74.3721  -80.6327 N   0  0  0  0  0  0  0  0  0  0  0  0
  111.9436  -77.3413  -84.0497 O   0  0  0  0  0  0  0  0  0  0  0  0
  111.7907  -77.7232  -85.4816 C   0  0  2  0  0  0  0  0  0  0  0  0
  111.4300  -76.1926  -83.8382 C   0  0  1  0  0  0  0  0  0  0  0  0
  111.6395  -75.9059  -82.4192 C   0  0  0  0  0  0  0  0  0  0  0  0
  111.1095  -74.6368  -81.9926 C   0  0  2  0  0  0  0  0  0  0  0  0
  110.4347  -73.7554  -82.8732 C   0  0  0  0  0  0  0  0  0  0  0  0
  110.2676  -74.0952  -84.2740 C   0  0  0  0  0  0  0  0  0  0  0  0
  110.8035  -75.3554  -84.7268 C   0  0  2  0  0  0  0  0  0  0  0  0
  110.6004  -75.6230  -86.1996 C   0  0  1  0  0  0  0  0  0  0  0  0
  111.1716  -76.8913  -86.4080 C   0  0  2  0  0  0  0  0  0  0  0  0
  111.0627  -77.3317  -87.8005 C   0  0  0  0  0  0  0  0  0  0  0  0
  111.6146  -78.6216  -88.0724 C   0  0  0  0  0  0  0  0  0  0  0  0
  109.9683  -74.7337  -87.0479 C   0  0  0  0  0  0  0  0  0  0  0  0
  110.2880  -73.3630  -87.1866 C   0  0  0  0  0  0  0  0  0  0  0  0
  109.6724  -72.4552  -88.0501 C   0  0  0  0  0  0  0  0  0  0  0  0
  108.5929  -72.9049  -88.9163 C   0  0  0  0  0  0  0  0  0  0  0  0
  108.2900  -74.2771  -88.7452 C   0  0  0  0  0  0  0  0  0  0  0  0
  108.8769  -75.2209  -87.8910 C   0  0  0  0  0  0  0  0  0  0  0  0
  112.7418  -81.0515  -88.9058 C   0  0  0  0  0  0  0  0  0  0  0  0
  113.2711  -81.6864  -86.6222 C   0  0  0  0  0  0  0  0  0  0  0  0
  111.9718  -75.1867  -79.5673 C   0  0  0  0  0  0  0  0  0  0  0  0
  110.9232  -73.0253  -80.1089 C   0  0  0  0  0  0  0  0  0  0  0  0
  1  2  1  6  0  0  0
  1  3  1  0  0  0  0
  1 16  1  0  0  0  0
  2 23  1  0  0  0  0
  2 24  1  0  0  0  0
  4 25  1  0  0  0  0
  4 26  1  0  0  0  0
  5  6  1  0  0  0  0
  6  3  1  1  0  0  0
  6 14  1  0  0  0  0
  7  5  1  6  0  0  0
  7  8  1  0  0  0  0
  7 12  1  0  0  0  0
  8  9  1  0  0  0  0
  9  4  1  6  0  0  0
  9 10  1  0  0  0  0
 10 11  1  0  0  0  0
 12 11  1  1  0  0  0
 12 13  1  0  0  0  0
 13 14  1  0  0  0  0
 13 17  1  1  0  0  0
 14 15  1  1  0  0  0
 15 16  1  0  0  0  0
 17 18  1  0  0  0  0
 17 22  1  0  0  0  0
 18 19  1  0  0  0  0
 19 20  1  0  0  0  0
 20 21  1  0  0  0  0
 21 22  1  0  0  0  0
M  END
>  <CHROM.1>
-173.29589689,-3.56931675,51.65213167,111.10727209,-76.27025340,-85.37262370
-1.26956364,-1.07754600,1.08833658

>  <Name>
ligand

>  <RI>
0

>  <Rbt.Current_Directory>
/home/itssahil/PROJECTS/Mol_Feturizer/Test_systems_manuscript/rnas/1f1t

>  <Rbt.Executable>
rbdock ($Id: //depot/dev/client3/rdock/2013.1/src/exe/rbdock.cxx#4 $)

>  <Rbt.Library>
libRbt.so (2013.1, Build901 2013/11/27)

>  <Rbt.Parameter_File>
/export/apps/rDock/src/rDock_2013.1_src/data/scripts/dock_solv.prm

>  <Rbt.Receptor>
prm/pocket_docking_2.prm

>  <SCORE>
-56.3786

>  <SCORE.INTER>
-56.8659

>  <SCORE.INTER.CONST>
1

>  <SCORE.INTER.POLAR>
0

>  <SCORE.INTER.ROT>
3

>  <SCORE.INTER.SOLV>
8.99402

>  <SCORE.INTER.VDW>
-46.5086

>  <SCORE.INTER.norm>
-2.18715

>  <SCORE.INTRA>
0.48727

>  <SCORE.INTRA.DIHEDRAL>
0.000284396

>  <SCORE.INTRA.DIHEDRAL.0>
3.60016

>  <SCORE.INTRA.POLAR>
0

>  <SCORE.INTRA.POLAR.0>
0

>  <SCORE.INTRA.REPUL>
0

>  <SCORE.INTRA.REPUL.0>
0

>  <SCORE.INTRA.SOLV>
1.67513e-05

>  <SCORE.INTRA.SOLV.lig_0>
-10.9882

>  <SCORE.INTRA.VDW>
0.48712

>  <SCORE.INTRA.VDW.0>
1.84442

>  <SCORE.INTRA.norm>
0.0187412

>  <SCORE.RESTR>
0

>  <SCORE.RESTR.CAVITY>
0

>  <SCORE.RESTR.norm>
0

>  <SCORE.SYSTEM>
0

>  <SCORE.SYSTEM.CONST>
0

>  <SCORE.SYSTEM.DIHEDRAL>
0

>  <SCORE.SYSTEM.SOLV>
0

>  <SCORE.SYSTEM.norm>
0

>  <SCORE.heavy>
26

>  <SCORE.norm>
-2.16841

>  <RMSD>
0.734

$$$$
ligand
 OpenBabel02271912153D
libRbt.so/2013.1/901 2013/11/27
 26 29  0  0  0  0  0  0  0  0999 V2000
  112.2078  -79.4135  -87.1051 C   0  0  1  0  0  0  0  0  0  0  0  0
  112.7007  -80.6484  -87.5016 N   0  0  0  0  0  0  0  0  0  0  0  0
  112.3302  -78.9921  -85.7174 C   0  0  0  0  0  0  0  0  0  0  0  0
  111.3390  -74.3802  -80.6283 N   0  0  0  0  0  0  0  0  0  0  0  0
  111.9353  -77.3489  -84.0460 O   0  0  0  0  0  0  0  0  0  0  0  0
  111.7844  -77.7294  -85.4785 C   0  0  2  0  0  0  0  0  0  0  0  0
  111.4247  -76.1988  -83.8348 C   0  0  1  0  0  0  0  0  0  0  0  0
  111.6319  -75.9137  -82.4152 C   0  0  0  0  0  0  0  0  0  0  0  0
  111.1049  -74.6432  -81.9889 C   0  0  2  0  0  0  0  0  0  0  0  0
  110.4347  -73.7593  -82.8704 C   0  0  0  0  0  0  0  0  0  0  0  0
  110.2696  -74.0976  -84.2718 C   0  0  0  0  0  0  0  0  0  0  0  0
  110.8026  -75.3592  -84.7242 C   0  0  2  0  0  0  0  0  0  0  0  0
  110.6020  -75.6252  -86.1976 C   0  0  1  0  0  0  0  0  0  0  0  0
  111.1698  -76.8951  -86.4056 C   0  0  2  0  0  0  0  0  0  0  0  0
  111.0627  -77.3342  -87.7986 C   0  0  0  0  0  0  0  0  0  0  0  0
  111.6113  -78.6257  -88.0702 C   0  0  0  0  0  0  0  0  0  0  0  0
  109.9743  -74.7335  -87.0467 C   0  0  0  0  0  0  0  0  0  0  0  0
  110.2952  -73.3625  -87.1802 C   0  0  0  0  0  0  0  0  0  0  0  0
  109.6841  -72.4522  -88.0444 C   0  0  0  0  0  0  0  0  0  0  0  0
  108.6089  -72.8993  -88.9171 C   0  0  0  0  0  0  0  0  0  0  0  0
  108.3047  -74.2719  -88.7513 C   0  0  0  0  0  0  0  0  0  0  0  0
  108.8870  -75.2181  -87.8966 C   0  0  0  0  0  0  0  0  0  0  0  0
  112.7214  -81.0633  -88.9015 C   0  0  0  0  0  0  0  0  0  0  0  0
  113.2664  -81.6915  -86.6197 C   0  0  0  0  0  0  0  0  0  0  0  0
  111.9846  -75.1865  -79.5684 C   0  0  0  0  0  0  0  0  0  0  0  0
  110.8897  -73.0450  -80.0970 C   0  0  0  0  0  0  0  0  0  0  0  0
  1  2  1  6  0  0  0
  1  3  1  0  0  0  0
  1 16  1  0  0  0  0
  2 23  1  0  0  0  0
  2 24  1  0  0  0  0
  4 25  1  0  0  0  0
  4 26  1  0  0  0  0
  5  6  1  0  0  0  0
  6  3  1  1  0  0  0
  6 14  1  0  0  0  0
  7  5  1  6  0  0  0
  7  8  1  0  0  0  0
  7 12  1  0  0  0  0
  8  9  1  0  0  0  0
  9  4  1  6  0  0  0
  9 10  1  0  0  0  0
 10 11  1  0  0  0  0
 12 11  1  1  0  0  0
 12 13  1  0  0  0  0
 13 14  1  0  0  0  0
 13 17  1  1  0  0  0
 14 15  1  1  0  0  0
 15 16  1  0  0  0  0
 17 18  1  0  0  0  0
 17 22  1  0  0  0  0
 18 19  1  0  0  0  0
 19 20  1  0  0  0  0
 20 21  1  0  0  0  0
 21 22  1  0  0  0  0
M  END
>  <CHROM.1>
-173.87971141,-2.15573678,51.40003189,111.10485807,-76.27460442,-85.36996744
-1.26836955,-1.08062437,1.09007633

>  <Name>
ligand

>  <RI>
0

>  <Rbt.Current_Directory>
/home/itssahil/PROJECTS/Mol_Feturizer/Test_systems_manuscript/rnas/1f1t

>  <Rbt.Executable>
rbdock ($Id: //depot/dev/client3/rdock/2013.1/src/exe/rbdock.cxx#4 $)

>  <Rbt.Library>
libRbt.so (2013.1, Build901 2013/11/27)

>  <Rbt.Parameter_File>
/export/apps/rDock/src/rDock_2013.1_src/data/scripts/dock_solv.prm

>  <Rbt.Receptor>
prm/pocket_docking_6.prm

>  <SCORE>
-56.335

>  <SCORE.INTER>
-56.8448

>  <SCORE.INTER.CONST>
1

>  <SCORE.INTER.POLAR>
0

>  <SCORE.INTER.ROT>
3

>  <SCORE.INTER.SOLV>
8.98785

>  <SCORE.INTER.VDW>
-46.4925

>  <SCORE.INTER.norm>
-2.18634

>  <SCORE.INTRA>
0.509803

>  <SCORE.INTRA.DIHEDRAL>
0.000287036

>  <SCORE.INTRA.DIHEDRAL.0>
3.60016

>  <SCORE.INTRA.POLAR>
0

>  <SCORE.INTRA.POLAR.0>
0

>  <SCORE.INTRA.REPUL>
0

>  <SCORE.INTRA.REPUL.0>
0

>  <SCORE.INTRA.SOLV>
1.28904e-05

>  <SCORE.INTRA.SOLV.lig_0>
-10.9882

>  <SCORE.INTRA.VDW>
0.509653

>  <SCORE.INTRA.VDW.0>
1.84442

>  <SCORE.INTRA.norm>
0.0196078

>  <SCORE.RESTR>
0

>  <SCORE.RESTR.CAVITY>
0

>  <SCORE.RESTR.norm>
0

>  <SCORE.SYSTEM>
0

>  <SCORE.SYSTEM.CONST>
0

>  <SCORE.SYSTEM.DIHEDRAL>
0

>  <SCORE.SYSTEM.SOLV>
0

>  <SCORE.SYSTEM.norm>
0

>  <SCORE.heavy>
26

>  <SCORE.norm>
-2.16673

>  <RMSD>
0.734

$$$$
ligand
 OpenBabel02271912153D
libRbt.so/2013.1/901 2013/11/27
 26 29  0  0  0  0  0  0  0  0999 V2000
  112.2302  -79.4077  -87.1123 C   0  0  1  0  0  0  0  0  0  0  0  0
  112.7308  -80.6395  -87.5088 N   0  0  0  0  0  0  0  0  0  0  0  0
  112.3522  -78.9844  -85.7251 C   0  0  0  0  0  0  0  0  0  0  0  0
  111.3387  -74.3754  -80.6378 N   0  0  0  0  0  0  0  0  0  0  0  0
  111.9491  -77.3426  -84.0543 O   0  0  0  0  0  0  0  0  0  0  0  0
  111.7982  -77.7252  -85.4862 C   0  0  2  0  0  0  0  0  0  0  0  0
  111.4310  -76.1959  -83.8431 C   0  0  1  0  0  0  0  0  0  0  0  0
  111.6389  -75.9082  -82.4240 C   0  0  0  0  0  0  0  0  0  0  0  0
  111.1039  -74.6411  -81.9978 C   0  0  2  0  0  0  0  0  0  0  0  0
  110.4261  -73.7624  -82.8787 C   0  0  0  0  0  0  0  0  0  0  0  0
  110.2608  -74.1030  -84.2796 C   0  0  0  0  0  0  0  0  0  0  0  0
  110.8017  -75.3612  -84.7320 C   0  0  2  0  0  0  0  0  0  0  0  0
  110.6002  -75.6297  -86.2049 C   0  0  1  0  0  0  0  0  0  0  0  0
  111.1762  -76.8958  -86.4129 C   0  0  2  0  0  0  0  0  0  0  0  0
  111.0696  -77.3368  -87.8054 C   0  0  0  0  0  0  0  0  0  0  0  0
  111.6266  -78.6246  -88.0769 C   0  0  0  0  0  0  0  0  0  0  0  0
  109.9649  -74.7430  -87.0535 C   0  0  0  0  0  0  0  0  0  0  0  0
  110.2747  -73.3694  -87.1869 C   0  0  0  0  0  0  0  0  0  0  0  0
  109.6559  -72.4639  -88.0507 C   0  0  0  0  0  0  0  0  0  0  0  0
  108.5839  -72.9196  -88.9229 C   0  0  0  0  0  0  0  0  0  0  0  0
  108.2908  -74.2946  -88.7571 C   0  0  0  0  0  0  0  0  0  0  0  0
  108.8811  -75.2362  -87.9029 C   0  0  0  0  0  0  0  0  0  0  0  0
  112.7743  -81.0454  -88.9108 C   0  0  0  0  0  0  0  0  0  0  0  0
  113.2836  -81.6876  -86.6246 C   0  0  0  0  0  0  0  0  0  0  0  0
  111.9805  -75.1816  -79.5755 C   0  0  0  0  0  0  0  0  0  0  0  0
  110.8947  -73.0369  -80.1102 C   0  0  0  0  0  0  0  0  0  0  0  0
  1  2  1  6  0  0  0
  1  3  1  0  0  0  0
  1 16  1  0  0  0  0
  2 23  1  0  0  0  0
  2 24  1  0  0  0  0
  4 25  1  0  0  0  0
  4 26  1  0  0  0  0
  5  6  1  0  0  0  0
  6  3  1  1  0  0  0
  6 14  1  0  0  0  0
  7  5  1  6  0  0  0
  7  8  1  0  0  0  0
  7 12  1  0  0  0  0
  8  9  1  0  0  0  0
  9  4  1  6  0  0  0
  9 10  1  0  0  0  0
 10 11  1  0  0  0  0
 12 11  1  1  0  0  0
 12 13  1  0  0  0  0
 13 14  1  0  0  0  0
 13 17  1  1  0  0  0
 14 15  1  1  0  0  0
 15 16  1  0  0  0  0
 17 18  1  0  0  0  0
 17 22  1  0  0  0  0
 18 19  1  0  0  0  0
 19 20  1  0  0  0  0
 20 21  1  0  0  0  0
 21 22  1  0  0  0  0
M  END
>  <CHROM.1>
-172.73798159,-2.80667837,51.28620343,111.10912965,-76.27496307,-85.37762772
-1.26472367,-1.07426742,1.09255359

>  <Name>
ligand

>  <RI>
0

>  <Rbt.Current_Directory>
/home/itssahil/PROJECTS/Mol_Feturizer/Test_systems_manuscript/rnas/1f1t

>  <Rbt.Executable>
rbdock ($Id: //depot/dev/client3/rdock/2013.1/src/exe/rbdock.cxx#4 $)

>  <Rbt.Library>
libRbt.so (2013.1, Build901 2013/11/27)

>  <Rbt.Parameter_File>
/export/apps/rDock/src/rDock_2013.1_src/data/scripts/dock_solv.prm

>  <Rbt.Receptor>
prm/pocket_docking_7.prm

>  <SCORE>
-56.3001

>  <SCORE.INTER>
-56.793

>  <SCORE.INTER.CONST>
1

>  <SCORE.INTER.POLAR>
0

>  <SCORE.INTER.ROT>
3

>  <SCORE.INTER.SOLV>
9.00419

>  <SCORE.INTER.VDW>
-46.4634

>  <SCORE.INTER.norm>
-2.18435

>  <SCORE.INTRA>
0.492848

>  <SCORE.INTRA.DIHEDRAL>
0.000285083

>  <SCORE.INTRA.DIHEDRAL.0>
3.60016

>  <SCORE.INTRA.POLAR>
0

>  <SCORE.INTRA.POLAR.0>
0

>  <SCORE.INTRA.REPUL>
0

>  <SCORE.INTRA.REPUL.0>
0

>  <SCORE.INTRA.SOLV>
1.97066e-05

>  <SCORE.INTRA.SOLV.lig_0>
-10.9882

>  <SCORE.INTRA.VDW>
0.492696

>  <SCORE.INTRA.VDW.0>
1.84442

>  <SCORE.INTRA.norm>
0.0189557

>  <SCORE.RESTR>
0

>  <SCORE.RESTR.CAVITY>
0

>  <SCORE.RESTR.norm>
0

>  <SCORE.SYSTEM>
0

>  <SCORE.SYSTEM.CONST>
0

>  <SCORE.SYSTEM.DIHEDRAL>
0

>  <SCORE.SYSTEM.SOLV>
0

>  <SCORE.SYSTEM.norm>
0

>  <SCORE.heavy>
26

>  <SCORE.norm>
-2.16539

>  <RMSD>
0.734

$$$$
ligand
 OpenBabel02271912153D
libRbt.so/2013.1/901 2013/11/27
 26 29  0  0  0  0  0  0  0  0999 V2000
  111.2067  -74.7088  -82.0046 C   0  0  1  0  0  0  0  0  0  0  0  0
  111.3841  -74.3458  -80.6772 N   0  0  0  0  0  0  0  0  0  0  0  0
  111.7207  -75.9825  -82.4861 C   0  0  0  0  0  0  0  0  0  0  0  0
  112.7062  -80.6578  -87.5181 N   0  0  0  0  0  0  0  0  0  0  0  0
  112.0118  -77.5132  -84.2811 O   0  0  0  0  0  0  0  0  0  0  0  0
  111.4646  -76.1991  -83.8414 C   0  0  2  0  0  0  0  0  0  0  0  0
  111.7826  -77.6978  -85.5226 C   0  0  1  0  0  0  0  0  0  0  0  0
  112.3435  -79.0081  -85.8516 C   0  0  0  0  0  0  0  0  0  0  0  0
  112.1833  -79.3850  -87.2321 C   0  0  2  0  0  0  0  0  0  0  0  0
  111.5487  -78.5489  -88.1839 C   0  0  0  0  0  0  0  0  0  0  0  0
  111.0043  -77.2625  -87.7908 C   0  0  0  0  0  0  0  0  0  0  0  0
  111.1405  -76.8707  -86.4094 C   0  0  2  0  0  0  0  0  0  0  0  0
  110.5332  -75.5266  -86.0827 C   0  0  1  0  0  0  0  0  0  0  0  0
  110.7990  -75.3448  -84.7136 C   0  0  2  0  0  0  0  0  0  0  0  0
  110.2830  -74.0708  -84.2081 C   0  0  0  0  0  0  0  0  0  0  0  0
  110.5342  -73.8225  -82.8233 C   0  0  0  0  0  0  0  0  0  0  0  0
  109.8889  -74.7419  -87.0202 C   0  0  0  0  0  0  0  0  0  0  0  0
  108.8642  -75.1787  -87.8917 C   0  0  0  0  0  0  0  0  0  0  0  0
  108.1910  -74.3963  -88.8317 C   0  0  0  0  0  0  0  0  0  0  0  0
  108.5319  -72.9886  -88.9726 C   0  0  0  0  0  0  0  0  0  0  0  0
  109.5674  -72.5861  -88.0952 C   0  0  0  0  0  0  0  0  0  0  0  0
  110.2713  -73.3353  -87.1424 C   0  0  0  0  0  0  0  0  0  0  0  0
  110.9541  -73.0486  -80.1627 C   0  0  0  0  0  0  0  0  0  0  0  0
  111.9973  -75.1726  -79.6160 C   0  0  0  0  0  0  0  0  0  0  0  0
  113.2378  -81.7223  -86.6380 C   0  0  0  0  0  0  0  0  0  0  0  0
  112.7428  -81.0793  -88.9631 C   0  0  0  0  0  0  0  0  0  0  0  0
  1  2  1  1  0  0  0
  1  3  1  0  0  0  0
  1 16  1  0  0  0  0
  2 23  1  0  0  0  0
  2 24  1  0  0  0  0
  4 25  1  0  0  0  0
  4 26  1  0  0  0  0
  5  6  1  0  0  0  0
  6  3  1  6  0  0  0
  6 14  1  0  0  0  0
  7  5  1  1  0  0  0
  7  8  1  0  0  0  0
  7 12  1  0  0  0  0
  8  9  1  0  0  0  0
  9  4  1  1  0  0  0
  9 10  1  0  0  0  0
 10 11  1  0  0  0  0
 12 11  1  6  0  0  0
 12 13  1  0  0  0  0
 13 14  1  0  0  0  0
 13 17  1  6  0  0  0
 14 15  1  6  0  0  0
 15 16  1  0  0  0  0
 17 18  1  0  0  0  0
 17 22  1  0  0  0  0
 18 19  1  0  0  0  0
 19 20  1  0  0  0  0
 20 21  1  0  0  0  0
 21 22  1  0  0  0  0
M  END
>  <CHROM.1>
176.50390979,8.17882020,50.53838321,111.10185205,-76.28781750,-85.40685166
-1.84469819,1.06484343,-2.07342862

>  <Name>
ligand

>  <RI>
0

>  <Rbt.Current_Directory>
/home/itssahil/PROJECTS/Mol_Feturizer/Test_systems_manuscript/rnas/1f1t

>  <Rbt.Executable>
rbdock ($Id: //depot/dev/client3/rdock/2013.1/src/exe/rbdock.cxx#4 $)

>  <Rbt.Library>
libRbt.so (2013.1, Build901 2013/11/27)

>  <Rbt.Parameter_File>
/export/apps/rDock/src/rDock_2013.1_src/data/scripts/dock_solv.prm

>  <Rbt.Receptor>
prm/pocket_docking_8.prm

>  <SCORE>
-55.9524

>  <SCORE.INTER>
-56.4615

>  <SCORE.INTER.CONST>
1

>  <SCORE.INTER.POLAR>
0

>  <SCORE.INTER.ROT>
3

>  <SCORE.INTER.SOLV>
8.9353

>  <SCORE.INTER.VDW>
-46.2194

>  <SCORE.INTER.norm>
-2.1716

>  <SCORE.INTRA>
0.509092

>  <SCORE.INTRA.DIHEDRAL>
0.000259925

>  <SCORE.INTRA.DIHEDRAL.0>
3.60016

>  <SCORE.INTRA.POLAR>
0

>  <SCORE.INTRA.POLAR.0>
0

>  <SCORE.INTRA.REPUL>
0

>  <SCORE.INTRA.REPUL.0>
0

>  <SCORE.INTRA.SOLV>
2.63359e-05

>  <SCORE.INTRA.SOLV.lig_0>
-10.9882

>  <SCORE.INTRA.VDW>
0.508949

>  <SCORE.INTRA.VDW.0>
1.84442

>  <SCORE.INTRA.norm>
0.0195805

>  <SCORE.RESTR>
0

>  <SCORE.RESTR.CAVITY>
0

>  <SCORE.RESTR.norm>
0

>  <SCORE.SYSTEM>
0

>  <SCORE.SYSTEM.CONST>
0

>  <SCORE.SYSTEM.DIHEDRAL>
0

>  <SCORE.SYSTEM.SOLV>
0

>  <SCORE.SYSTEM.norm>
0

>  <SCORE.heavy>
26

>  <SCORE.norm>
-2.15202

>  <RMSD>
0.734

$$$$
ligand
 OpenBabel02271912153D
libRbt.so/2013.1/901 2013/11/27
 26 29  0  0  0  0  0  0  0  0999 V2000
  112.2156  -79.4250  -87.1196 C   0  0  1  0  0  0  0  0  0  0  0  0
  112.7138  -80.6580  -87.5155 N   0  0  0  0  0  0  0  0  0  0  0  0
  112.3402  -79.0005  -85.7330 C   0  0  0  0  0  0  0  0  0  0  0  0
  111.3406  -74.3851  -80.6488 N   0  0  0  0  0  0  0  0  0  0  0  0
  111.9418  -77.3565  -84.0632 O   0  0  0  0  0  0  0  0  0  0  0  0
  111.7884  -77.7403  -85.4945 C   0  0  2  0  0  0  0  0  0  0  0  0
  111.4258  -76.2088  -83.8524 C   0  0  1  0  0  0  0  0  0  0  0  0
  111.6360  -75.9201  -82.4339 C   0  0  0  0  0  0  0  0  0  0  0  0
  111.1036  -74.6517  -82.0081 C   0  0  2  0  0  0  0  0  0  0  0  0
  110.4259  -73.7729  -82.8890 C   0  0  0  0  0  0  0  0  0  0  0  0
  110.2582  -74.1145  -84.2894 C   0  0  0  0  0  0  0  0  0  0  0  0
  110.7965  -75.3740  -84.7412 C   0  0  2  0  0  0  0  0  0  0  0  0
  110.5926  -75.6437  -86.2136 C   0  0  1  0  0  0  0  0  0  0  0  0
  111.1665  -76.9109  -86.4211 C   0  0  2  0  0  0  0  0  0  0  0  0
  111.0573  -77.3530  -87.8131 C   0  0  0  0  0  0  0  0  0  0  0  0
  111.6119  -78.6420  -88.0841 C   0  0  0  0  0  0  0  0  0  0  0  0
  109.9576  -74.7568  -87.0622 C   0  0  0  0  0  0  0  0  0  0  0  0
  110.2681  -73.3834  -87.1961 C   0  0  0  0  0  0  0  0  0  0  0  0
  109.6495  -72.4778  -88.0598 C   0  0  0  0  0  0  0  0  0  0  0  0
  108.5769  -72.9331  -88.9316 C   0  0  0  0  0  0  0  0  0  0  0  0
  108.2831  -74.3079  -88.7653 C   0  0  0  0  0  0  0  0  0  0  0  0
  108.8732  -75.2496  -87.9111 C   0  0  0  0  0  0  0  0  0  0  0  0
  112.7607  -81.0627  -88.9178 C   0  0  0  0  0  0  0  0  0  0  0  0
  113.2604  -81.7086  -86.6305 C   0  0  0  0  0  0  0  0  0  0  0  0
  111.9607  -75.2008  -79.5809 C   0  0  0  0  0  0  0  0  0  0  0  0
  110.9261  -73.0342  -80.1287 C   0  0  0  0  0  0  0  0  0  0  0  0
  1  2  1  6  0  0  0
  1  3  1  0  0  0  0
  1 16  1  0  0  0  0
  2 23  1  0  0  0  0
  2 24  1  0  0  0  0
  4 25  1  0  0  0  0
  4 26  1  0  0  0  0
  5  6  1  0  0  0  0
  6  3  1  1  0  0  0
  6 14  1  0  0  0  0
  7  5  1  6  0  0  0
  7  8  1  0  0  0  0
  7 12  1  0  0  0  0
  8  9  1  0  0  0  0
  9  4  1  6  0  0  0
  9 10  1  0  0  0  0
 10 11  1  0  0  0  0
 12 11  1  1  0  0  0
 12 13  1  0  0  0  0
 13 14  1  0  0  0  0
 13 17  1  1  0  0  0
 14 15  1  1  0  0  0
 15 16  1  0  0  0  0
 17 18  1  0  0  0  0
 17 22  1  0  0  0  0
 18 19  1  0  0  0  0
 19 20  1  0  0  0  0
 20 21  1  0  0  0  0
 21 22  1  0  0  0  0
M  END
>  <CHROM.1>
-172.43445472,-4.07898608,51.19450408,111.10194129,-76.28882066,-85.38647211
-1.26896753,-1.07549912,1.08783425

>  <Name>
ligand

>  <RI>
0

>  <Rbt.Current_Directory>
/home/itssahil/PROJECTS/Mol_Feturizer/Test_systems_manuscript/rnas/1f1t

>  <Rbt.Executable>
rbdock ($Id: //depot/dev/client3/rdock/2013.1/src/exe/rbdock.cxx#4 $)

>  <Rbt.Library>
libRbt.so (2013.1, Build901 2013/11/27)

>  <Rbt.Parameter_File>
/export/apps/rDock/src/rDock_2013.1_src/data/scripts/dock_solv.prm

>  <Rbt.Receptor>
prm/pocket_docking_2.prm

>  <SCORE>
-56.3239

>  <SCORE.INTER>
-56.8063

>  <SCORE.INTER.CONST>
1

>  <SCORE.INTER.POLAR>
0

>  <SCORE.INTER.ROT>
3

>  <SCORE.INTER.SOLV>
8.94988

>  <SCORE.INTER.VDW>
-46.4541

>  <SCORE.INTER.norm>
-2.18486

>  <SCORE.INTRA>
0.482337

>  <SCORE.INTRA.DIHEDRAL>
0.000280973

>  <SCORE.INTRA.DIHEDRAL.0>
3.60016

>  <SCORE.INTRA.POLAR>
0

>  <SCORE.INTRA.POLAR.0>
0

>  <SCORE.INTRA.REPUL>
0

>  <SCORE.INTRA.REPUL.0>
0

>  <SCORE.INTRA.SOLV>
2.25487e-05

>  <SCORE.INTRA.SOLV.lig_0>
-10.9882

>  <SCORE.INTRA.VDW>
0.482186

>  <SCORE.INTRA.VDW.0>
1.84442

>  <SCORE.INTRA.norm>
0.0185514

>  <SCORE.RESTR>
0

>  <SCORE.RESTR.CAVITY>
0

>  <SCORE.RESTR.norm>
0

>  <SCORE.SYSTEM>
0

>  <SCORE.SYSTEM.CONST>
0

>  <SCORE.SYSTEM.DIHEDRAL>
0

>  <SCORE.SYSTEM.SOLV>
0

>  <SCORE.SYSTEM.norm>
0

>  <SCORE.heavy>
26

>  <SCORE.norm>
-2.16631

>  <RMSD>
0.735

$$$$
ligand
 OpenBabel02271912153D
libRbt.so/2013.1/901 2013/11/27
 26 29  0  0  0  0  0  0  0  0999 V2000
  111.2038  -74.7034  -81.9251 C   0  0  1  0  0  0  0  0  0  0  0  0
  111.3783  -74.3730  -80.5889 N   0  0  0  0  0  0  0  0  0  0  0  0
  111.7031  -75.9729  -82.4325 C   0  0  0  0  0  0  0  0  0  0  0  0
  112.6542  -80.5463  -87.5638 N   0  0  0  0  0  0  0  0  0  0  0  0
  111.9839  -77.4664  -84.2601 O   0  0  0  0  0  0  0  0  0  0  0  0
  111.4522  -76.1551  -83.7939 C   0  0  2  0  0  0  0  0  0  0  0  0
  111.7596  -77.6198  -85.5068 C   0  0  1  0  0  0  0  0  0  0  0  0
  112.3044  -78.9299  -85.8623 C   0  0  0  0  0  0  0  0  0  0  0  0
  112.1472  -79.2732  -87.2519 C   0  0  2  0  0  0  0  0  0  0  0  0
  111.5298  -78.4071  -88.1880 C   0  0  0  0  0  0  0  0  0  0  0  0
  111.0008  -77.1224  -87.7689 C   0  0  0  0  0  0  0  0  0  0  0  0
  111.1342  -76.7639  -86.3782 C   0  0  2  0  0  0  0  0  0  0  0  0
  110.5435  -75.4193  -86.0245 C   0  0  1  0  0  0  0  0  0  0  0  0
  110.8036  -75.2722  -84.6501 C   0  0  2  0  0  0  0  0  0  0  0  0
  110.3021  -74.0029  -84.1188 C   0  0  0  0  0  0  0  0  0  0  0  0
  110.5485  -73.7895  -82.7273 C   0  0  0  0  0  0  0  0  0  0  0  0
  109.9156  -74.6046  -86.9476 C   0  0  0  0  0  0  0  0  0  0  0  0
  110.2636  -73.2630  -87.2293 C   0  0  0  0  0  0  0  0  0  0  0  0
  109.6524  -72.4318  -88.1697 C   0  0  0  0  0  0  0  0  0  0  0  0
  108.5468  -72.9399  -88.9680 C   0  0  0  0  0  0  0  0  0  0  0  0
  108.2162  -74.2801  -88.6543 C   0  0  0  0  0  0  0  0  0  0  0  0
  108.7977  -75.1473  -87.7191 C   0  0  0  0  0  0  0  0  0  0  0  0
  112.0828  -75.2497  -79.6576 C   0  0  0  0  0  0  0  0  0  0  0  0
  110.9126  -73.1382  -79.9224 C   0  0  0  0  0  0  0  0  0  0  0  0
  113.2350  -81.6084  -86.7124 C   0  0  0  0  0  0  0  0  0  0  0  0
  112.6103  -80.9711  -89.0076 C   0  0  0  0  0  0  0  0  0  0  0  0
  1  2  1  1  0  0  0
  1  3  1  0  0  0  0
  1 16  1  0  0  0  0
  2 23  1  0  0  0  0
  2 24  1  0  0  0  0
  4 25  1  0  0  0  0
  4 26  1  0  0  0  0
  5  6  1  0  0  0  0
  6  3  1  6  0  0  0
  6 14  1  0  0  0  0
  7  5  1  1  0  0  0
  7  8  1  0  0  0  0
  7 12  1  0  0  0  0
  8  9  1  0  0  0  0
  9  4  1  1  0  0  0
  9 10  1  0  0  0  0
 10 11  1  0  0  0  0
 12 11  1  6  0  0  0
 12 13  1  0  0  0  0
 13 14  1  0  0  0  0
 13 17  1  6  0  0  0
 14 15  1  6  0  0  0
 15 16  1  0  0  0  0
 17 18  1  0  0  0  0
 17 22  1  0  0  0  0
 18 19  1  0  0  0  0
 19 20  1  0  0  0  0
 20 21  1  0  0  0  0
 21 22  1  0  0  0  0
M  END
>  <CHROM.1>
1.44470972,4.27266250,-124.31400979,111.09271777,-76.22326209,-85.37197695
-1.81920320,1.07255812,-2.05807947

>  <Name>
ligand

>  <RI>
0

>  <Rbt.Current_Directory>
/home/itssahil/PROJECTS/Mol_Feturizer/Test_systems_manuscript/rnas/1f1t

>  <Rbt.Executable>
rbdock ($Id: //depot/dev/client3/rdock/2013.1/src/exe/rbdock.cxx#4 $)

>  <Rbt.Library>
libRbt.so (2013.1, Build901 2013/11/27)

>  <Rbt.Parameter_File>
/export/apps/rDock/src/rDock_2013.1_src/data/scripts/dock_solv.prm

>  <Rbt.Receptor>
prm/pocket_docking_4.prm

>  <SCORE>
-56.3285

>  <SCORE.INTER>
-56.5265

>  <SCORE.INTER.CONST>
1

>  <SCORE.INTER.POLAR>
0

>  <SCORE.INTER.ROT>
3

>  <SCORE.INTER.SOLV>
9.08007

>  <SCORE.INTER.VDW>
-46.311

>  <SCORE.INTER.norm>
-2.17409

>  <SCORE.INTRA>
0.19793

>  <SCORE.INTRA.DIHEDRAL>
-1.82857e-05

>  <SCORE.INTRA.DIHEDRAL.0>
3.60016

>  <SCORE.INTRA.POLAR>
0

>  <SCORE.INTRA.POLAR.0>
0

>  <SCORE.INTRA.REPUL>
0

>  <SCORE.INTRA.REPUL.0>
0

>  <SCORE.INTRA.SOLV>
6.55645e-06

>  <SCORE.INTRA.SOLV.lig_0>
-10.9882

>  <SCORE.INTRA.VDW>
0.197936

>  <SCORE.INTRA.VDW.0>
1.84442

>  <SCORE.INTRA.norm>
0.00761269

>  <SCORE.RESTR>
0

>  <SCORE.RESTR.CAVITY>
0

>  <SCORE.RESTR.norm>
0

>  <SCORE.SYSTEM>
0

>  <SCORE.SYSTEM.CONST>
0

>  <SCORE.SYSTEM.DIHEDRAL>
0

>  <SCORE.SYSTEM.SOLV>
0

>  <SCORE.SYSTEM.norm>
0

>  <SCORE.heavy>
26

>  <SCORE.norm>
-2.16648

>  <RMSD>
0.735

$$$$
ligand
 OpenBabel02271912153D
libRbt.so/2013.1/901 2013/11/27
 26 29  0  0  0  0  0  0  0  0999 V2000
  112.2143  -79.4244  -87.1130 C   0  0  1  0  0  0  0  0  0  0  0  0
  112.7109  -80.6585  -87.5077 N   0  0  0  0  0  0  0  0  0  0  0  0
  112.3377  -78.9995  -85.7265 C   0  0  0  0  0  0  0  0  0  0  0  0
  111.3395  -74.3798  -80.6459 N   0  0  0  0  0  0  0  0  0  0  0  0
  111.9400  -77.3539  -84.0580 O   0  0  0  0  0  0  0  0  0  0  0  0
  111.7879  -77.7382  -85.4894 C   0  0  2  0  0  0  0  0  0  0  0  0
  111.4257  -76.2053  -83.8485 C   0  0  1  0  0  0  0  0  0  0  0  0
  111.6346  -75.9162  -82.4299 C   0  0  0  0  0  0  0  0  0  0  0  0
  111.1037  -74.6467  -82.0054 C   0  0  2  0  0  0  0  0  0  0  0  0
  110.4288  -73.7671  -82.8877 C   0  0  0  0  0  0  0  0  0  0  0  0
  110.2624  -74.1091  -84.2881 C   0  0  0  0  0  0  0  0  0  0  0  0
  110.7991  -75.3698  -84.7386 C   0  0  2  0  0  0  0  0  0  0  0  0
  110.5966  -75.6398  -86.2111 C   0  0  1  0  0  0  0  0  0  0  0  0
  111.1686  -76.9081  -86.4172 C   0  0  2  0  0  0  0  0  0  0  0  0
  111.0605  -77.3508  -87.8091 C   0  0  0  0  0  0  0  0  0  0  0  0
  111.6132  -78.6408  -88.0788 C   0  0  0  0  0  0  0  0  0  0  0  0
  109.9643  -74.7522  -87.0610 C   0  0  0  0  0  0  0  0  0  0  0  0
  110.2839  -73.3817  -87.2023 C   0  0  0  0  0  0  0  0  0  0  0  0
  109.6681  -72.4756  -88.0675 C   0  0  0  0  0  0  0  0  0  0  0  0
  108.5886  -72.9271  -88.9327 C   0  0  0  0  0  0  0  0  0  0  0  0
  108.2858  -74.2991  -88.7591 C   0  0  0  0  0  0  0  0  0  0  0  0
  108.8729  -75.2411  -87.9031 C   0  0  0  0  0  0  0  0  0  0  0  0
  112.7349  -81.0744  -88.9072 C   0  0  0  0  0  0  0  0  0  0  0  0
  113.2776  -81.6994  -86.6240 C   0  0  0  0  0  0  0  0  0  0  0  0
  111.9614  -75.1940  -79.5780 C   0  0  0  0  0  0  0  0  0  0  0  0
  110.9209  -73.0302  -80.1257 C   0  0  0  0  0  0  0  0  0  0  0  0
  1  2  1  6  0  0  0
  1  3  1  0  0  0  0
  1 16  1  0  0  0  0
  2 23  1  0  0  0  0
  2 24  1  0  0  0  0
  4 25  1  0  0  0  0
  4 26  1  0  0  0  0
  5  6  1  0  0  0  0
  6  3  1  1  0  0  0
  6 14  1  0  0  0  0
  7  5  1  6  0  0  0
  7  8  1  0  0  0  0
  7 12  1  0  0  0  0
  8  9  1  0  0  0  0
  9  4  1  6  0  0  0
  9 10  1  0  0  0  0
 10 11  1  0  0  0  0
 12 11  1  1  0  0  0
 12 13  1  0  0  0  0
 13 14  1  0  0  0  0
 13 17  1  1  0  0  0
 14 15  1  1  0  0  0
 15 16  1  0  0  0  0
 17 18  1  0  0  0  0
 17 22  1  0  0  0  0
 18 19  1  0  0  0  0
 19 20  1  0  0  0  0
 20 21  1  0  0  0  0
 21 22  1  0  0  0  0
M  END
>  <CHROM.1>
-173.65568130,-3.81065584,51.69121535,111.10361480,-76.28547110,-85.38291984
-1.26860222,-1.07719570,1.08758291

>  <Name>
ligand

>  <RI>
0

>  <Rbt.Current_Directory>
/home/itssahil/PROJECTS/Mol_Feturizer/Test_systems_manuscript/rnas/1f1t

>  <Rbt.Executable>
rbdock ($Id: //depot/dev/client3/rdock/2013.1/src/exe/rbdock.cxx#4 $)

>  <Rbt.Library>
libRbt.so (2013.1, Build901 2013/11/27)

>  <Rbt.Parameter_File>
/export/apps/rDock/src/rDock_2013.1_src/data/scripts/dock_solv.prm

>  <Rbt.Receptor>
prm/pocket_docking_5.prm

>  <SCORE>
-56.3115

>  <SCORE.INTER>
-56.8013

>  <SCORE.INTER.CONST>
1

>  <SCORE.INTER.POLAR>
0

>  <SCORE.INTER.ROT>
3

>  <SCORE.INTER.SOLV>
8.96992

>  <SCORE.INTER.VDW>
-46.4575

>  <SCORE.INTER.norm>
-2.18467

>  <SCORE.INTRA>
0.489848

>  <SCORE.INTRA.DIHEDRAL>
0.00028382

>  <SCORE.INTRA.DIHEDRAL.0>
3.60016

>  <SCORE.INTRA.POLAR>
0

>  <SCORE.INTRA.POLAR.0>
0

>  <SCORE.INTRA.REPUL>
0

>  <SCORE.INTRA.REPUL.0>
0

>  <SCORE.INTRA.SOLV>
1.49042e-05

>  <SCORE.INTRA.SOLV.lig_0>
-10.9882

>  <SCORE.INTRA.VDW>
0.489699

>  <SCORE.INTRA.VDW.0>
1.84442

>  <SCORE.INTRA.norm>
0.0188403

>  <SCORE.RESTR>
0

>  <SCORE.RESTR.CAVITY>
0

>  <SCORE.RESTR.norm>
0

>  <SCORE.SYSTEM>
0

>  <SCORE.SYSTEM.CONST>
0

>  <SCORE.SYSTEM.DIHEDRAL>
0

>  <SCORE.SYSTEM.SOLV>
0

>  <SCORE.SYSTEM.norm>
0

>  <SCORE.heavy>
26

>  <SCORE.norm>
-2.16583

>  <RMSD>
0.735

$$$$
ligand
 OpenBabel02271912153D
libRbt.so/2013.1/901 2013/11/27
 26 29  0  0  0  0  0  0  0  0999 V2000
  112.2189  -79.4274  -87.1121 C   0  0  1  0  0  0  0  0  0  0  0  0
  112.7158  -80.6616  -87.5058 N   0  0  0  0  0  0  0  0  0  0  0  0
  112.3441  -79.0003  -85.7264 C   0  0  0  0  0  0  0  0  0  0  0  0
  111.3502  -74.3741  -80.6509 N   0  0  0  0  0  0  0  0  0  0  0  0
  111.9478  -77.3527  -84.0597 O   0  0  0  0  0  0  0  0  0  0  0  0
  111.7937  -77.7391  -85.4902 C   0  0  2  0  0  0  0  0  0  0  0  0
  111.4329  -76.2041  -83.8510 C   0  0  1  0  0  0  0  0  0  0  0  0
  111.6437  -75.9129  -82.4331 C   0  0  0  0  0  0  0  0  0  0  0  0
  111.1126  -74.6431  -82.0097 C   0  0  2  0  0  0  0  0  0  0  0  0
  110.4357  -73.7653  -82.8921 C   0  0  0  0  0  0  0  0  0  0  0  0
  110.2673  -74.1095  -84.2917 C   0  0  0  0  0  0  0  0  0  0  0  0
  110.8043  -75.3704  -84.7413 C   0  0  2  0  0  0  0  0  0  0  0  0
  110.5998  -75.6427  -86.2131 C   0  0  1  0  0  0  0  0  0  0  0  0
  111.1723  -76.9109  -86.4183 C   0  0  2  0  0  0  0  0  0  0  0  0
  111.0624  -77.3556  -87.8094 C   0  0  0  0  0  0  0  0  0  0  0  0
  111.6157  -78.6456  -88.0781 C   0  0  0  0  0  0  0  0  0  0  0  0
  109.9655  -74.7568  -87.0633 C   0  0  0  0  0  0  0  0  0  0  0  0
  110.2802  -73.3850  -87.2032 C   0  0  0  0  0  0  0  0  0  0  0  0
  109.6624  -72.4805  -88.0686 C   0  0  0  0  0  0  0  0  0  0  0  0
  108.5858  -72.9354  -88.9357 C   0  0  0  0  0  0  0  0  0  0  0  0
  108.2878  -74.3085  -88.7635 C   0  0  0  0  0  0  0  0  0  0  0  0
  108.8771  -75.2491  -87.9073 C   0  0  0  0  0  0  0  0  0  0  0  0
  112.7648  -81.0679  -88.9075 C   0  0  0  0  0  0  0  0  0  0  0  0
  113.2589  -81.7122  -86.6186 C   0  0  0  0  0  0  0  0  0  0  0  0
  111.9929  -75.1783  -79.5876 C   0  0  0  0  0  0  0  0  0  0  0  0
  110.9090  -73.0336  -80.1261 C   0  0  0  0  0  0  0  0  0  0  0  0
  1  2  1  6  0  0  0
  1  3  1  0  0  0  0
  1 16  1  0  0  0  0
  2 23  1  0  0  0  0
  2 24  1  0  0  0  0
  4 25  1  0  0  0  0
  4 26  1  0  0  0  0
  5  6  1  0  0  0  0
  6  3  1  1  0  0  0
  6 14  1  0  0  0  0
  7  5  1  6  0  0  0
  7  8  1  0  0  0  0
  7 12  1  0  0  0  0
  8  9  1  0  0  0  0
  9  4  1  6  0  0  0
  9 10  1  0  0  0  0
 10 11  1  0  0  0  0
 12 11  1  1  0  0  0
 12 13  1  0  0  0  0
 13 14  1  0  0  0  0
 13 17  1  1  0  0  0
 14 15  1  1  0  0  0
 15 16  1  0  0  0  0
 17 18  1  0  0  0  0
 17 22  1  0  0  0  0
 18 19  1  0  0  0  0
 19 20  1  0  0  0  0
 20 21  1  0  0  0  0
 21 22  1  0  0  0  0
M  END
>  <CHROM.1>
-172.29206652,-2.73623741,51.42245528,111.10840732,-76.28682327,-85.38476199
-1.26986234,-1.07584888,1.08514275

>  <Name>
ligand

>  <RI>
0

>  <Rbt.Current_Directory>
/home/itssahil/PROJECTS/Mol_Feturizer/Test_systems_manuscript/rnas/1f1t

>  <Rbt.Executable>
rbdock ($Id: //depot/dev/client3/rdock/2013.1/src/exe/rbdock.cxx#4 $)

>  <Rbt.Library>
libRbt.so (2013.1, Build901 2013/11/27)

>  <Rbt.Parameter_File>
/export/apps/rDock/src/rDock_2013.1_src/data/scripts/dock_solv.prm

>  <Rbt.Receptor>
prm/pocket_docking_6.prm

>  <SCORE>
-56.3167

>  <SCORE.INTER>
-56.7989

>  <SCORE.INTER.CONST>
1

>  <SCORE.INTER.POLAR>
0

>  <SCORE.INTER.ROT>
3

>  <SCORE.INTER.SOLV>
8.95493

>  <SCORE.INTER.VDW>
-46.4509

>  <SCORE.INTER.norm>
-2.18457

>  <SCORE.INTRA>
0.482134

>  <SCORE.INTRA.DIHEDRAL>
0.000285691

>  <SCORE.INTRA.DIHEDRAL.0>
3.60016

>  <SCORE.INTRA.POLAR>
0

>  <SCORE.INTRA.POLAR.0>
0

>  <SCORE.INTRA.REPUL>
0

>  <SCORE.INTRA.REPUL.0>
0

>  <SCORE.INTRA.SOLV>
2.25943e-05

>  <SCORE.INTRA.SOLV.lig_0>
-10.9882

>  <SCORE.INTRA.VDW>
0.48198

>  <SCORE.INTRA.VDW.0>
1.84442

>  <SCORE.INTRA.norm>
0.0185436

>  <SCORE.RESTR>
0

>  <SCORE.RESTR.CAVITY>
0

>  <SCORE.RESTR.norm>
0

>  <SCORE.SYSTEM>
0

>  <SCORE.SYSTEM.CONST>
0

>  <SCORE.SYSTEM.DIHEDRAL>
0

>  <SCORE.SYSTEM.SOLV>
0

>  <SCORE.SYSTEM.norm>
0

>  <SCORE.heavy>
26

>  <SCORE.norm>
-2.16603

>  <RMSD>
0.735

$$$$
ligand
 OpenBabel02271912153D
libRbt.so/2013.1/901 2013/11/27
 26 29  0  0  0  0  0  0  0  0999 V2000
  111.2098  -74.7013  -81.9395 C   0  0  1  0  0  0  0  0  0  0  0  0
  111.3839  -74.3645  -80.6048 N   0  0  0  0  0  0  0  0  0  0  0  0
  111.7115  -75.9721  -82.4413 C   0  0  0  0  0  0  0  0  0  0  0  0
  112.6705  -80.5668  -87.5519 N   0  0  0  0  0  0  0  0  0  0  0  0
  111.9948  -77.4734  -84.2622 O   0  0  0  0  0  0  0  0  0  0  0  0
  111.4606  -76.1610  -83.8017 C   0  0  2  0  0  0  0  0  0  0  0  0
  111.7705  -77.6328  -85.5080 C   0  0  1  0  0  0  0  0  0  0  0  0
  112.3178  -78.9434  -85.8577 C   0  0  0  0  0  0  0  0  0  0  0  0
  112.1611  -79.2933  -87.2458 C   0  0  2  0  0  0  0  0  0  0  0  0
  111.5418  -78.4327  -88.1856 C   0  0  0  0  0  0  0  0  0  0  0  0
  111.0103  -77.1472  -87.7722 C   0  0  0  0  0  0  0  0  0  0  0  0
  111.1433  -76.7821  -86.3832 C   0  0  2  0  0  0  0  0  0  0  0  0
  110.5500  -75.4371  -86.0355 C   0  0  1  0  0  0  0  0  0  0  0  0
  110.8101  -75.2833  -84.6618 C   0  0  2  0  0  0  0  0  0  0  0  0
  110.3063  -74.0125  -84.1361 C   0  0  0  0  0  0  0  0  0  0  0  0
  110.5525  -73.7924  -82.7457 C   0  0  0  0  0  0  0  0  0  0  0  0
  109.9204  -74.6278  -86.9621 C   0  0  0  0  0  0  0  0  0  0  0  0
  110.2472  -73.2780  -87.2297 C   0  0  0  0  0  0  0  0  0  0  0  0
  109.6341  -72.4518  -88.1732 C   0  0  0  0  0  0  0  0  0  0  0  0
  108.5498  -72.9748  -88.9910 C   0  0  0  0  0  0  0  0  0  0  0  0
  108.2400  -74.3232  -88.6912 C   0  0  0  0  0  0  0  0  0  0  0  0
  108.8241  -75.1859  -87.7534 C   0  0  0  0  0  0  0  0  0  0  0  0
  110.9498  -73.0789  -80.0652 C   0  0  0  0  0  0  0  0  0  0  0  0
  111.9973  -75.2109  -79.5592 C   0  0  0  0  0  0  0  0  0  0  0  0
  113.2431  -81.6285  -86.6944 C   0  0  0  0  0  0  0  0  0  0  0  0
  112.6398  -80.9928  -88.9958 C   0  0  0  0  0  0  0  0  0  0  0  0
  1  2  1  1  0  0  0
  1  3  1  0  0  0  0
  1 16  1  0  0  0  0
  2 23  1  0  0  0  0
  2 24  1  0  0  0  0
  4 25  1  0  0  0  0
  4 26  1  0  0  0  0
  5  6  1  0  0  0  0
  6  3  1  6  0  0  0
  6 14  1  0  0  0  0
  7  5  1  1  0  0  0
  7  8  1  0  0  0  0
  7 12  1  0  0  0  0
  8  9  1  0  0  0  0
  9  4  1  1  0  0  0
  9 10  1  0  0  0  0
 10 11  1  0  0  0  0
 12 11  1  6  0  0  0
 12 13  1  0  0  0  0
 13 14  1  0  0  0  0
 13 17  1  6  0  0  0
 14 15  1  6  0  0  0
 15 16  1  0  0  0  0
 17 18  1  0  0  0  0
 17 22  1  0  0  0  0
 18 19  1  0  0  0  0
 19 20  1  0  0  0  0
 20 21  1  0  0  0  0
 21 22  1  0  0  0  0
M  END
>  <CHROM.1>
177.35713756,4.87033755,-125.74873440,111.09858682,-76.23363007,-85.38007707
-1.82399384,1.07266007,-2.06027427

>  <Name>
ligand

>  <RI>
0

>  <Rbt.Current_Directory>
/home/itssahil/PROJECTS/Mol_Feturizer/Test_systems_manuscript/rnas/1f1t

>  <Rbt.Executable>
rbdock ($Id: //depot/dev/client3/rdock/2013.1/src/exe/rbdock.cxx#4 $)

>  <Rbt.Library>
libRbt.so (2013.1, Build901 2013/11/27)

>  <Rbt.Parameter_File>
/export/apps/rDock/src/rDock_2013.1_src/data/scripts/dock_solv.prm

>  <Rbt.Receptor>
prm/pocket_docking_3.prm

>  <SCORE>
-56.1042

>  <SCORE.INTER>
-56.635

>  <SCORE.INTER.CONST>
1

>  <SCORE.INTER.POLAR>
0

>  <SCORE.INTER.ROT>
3

>  <SCORE.INTER.SOLV>
9.03739

>  <SCORE.INTER.VDW>
-46.3691

>  <SCORE.INTER.norm>
-2.17827

>  <SCORE.INTRA>
0.530812

>  <SCORE.INTRA.DIHEDRAL>
-3.67471e-06

>  <SCORE.INTRA.DIHEDRAL.0>
3.60016

>  <SCORE.INTRA.POLAR>
0

>  <SCORE.INTRA.POLAR.0>
0

>  <SCORE.INTRA.REPUL>
0

>  <SCORE.INTRA.REPUL.0>
0

>  <SCORE.INTRA.SOLV>
1.14021e-05

>  <SCORE.INTRA.SOLV.lig_0>
-10.9882

>  <SCORE.INTRA.VDW>
0.530809

>  <SCORE.INTRA.VDW.0>
1.84442

>  <SCORE.INTRA.norm>
0.0204159

>  <SCORE.RESTR>
0

>  <SCORE.RESTR.CAVITY>
0

>  <SCORE.RESTR.norm>
0

>  <SCORE.SYSTEM>
0

>  <SCORE.SYSTEM.CONST>
0

>  <SCORE.SYSTEM.DIHEDRAL>
0

>  <SCORE.SYSTEM.SOLV>
0

>  <SCORE.SYSTEM.norm>
0

>  <SCORE.heavy>
26

>  <SCORE.norm>
-2.15785

>  <RMSD>
0.736

$$$$
ligand
 OpenBabel02271912153D
libRbt.so/2013.1/901 2013/11/27
 26 29  0  0  0  0  0  0  0  0999 V2000
  111.1601  -74.6871  -82.0503 C   0  0  1  0  0  0  0  0  0  0  0  0
  111.3397  -74.3077  -80.7278 N   0  0  0  0  0  0  0  0  0  0  0  0
  111.6949  -75.9556  -82.5230 C   0  0  0  0  0  0  0  0  0  0  0  0
  112.7344  -80.6610  -87.5159 N   0  0  0  0  0  0  0  0  0  0  0  0
  112.0027  -77.4982  -84.3049 O   0  0  0  0  0  0  0  0  0  0  0  0
  111.4337  -76.1904  -83.8743 C   0  0  2  0  0  0  0  0  0  0  0  0
  111.7686  -77.6994  -85.5429 C   0  0  1  0  0  0  0  0  0  0  0  0
  112.3519  -79.0021  -85.8630 C   0  0  0  0  0  0  0  0  0  0  0  0
  112.1894  -79.3955  -87.2387 C   0  0  2  0  0  0  0  0  0  0  0  0
  111.5326  -78.5811  -88.1940 C   0  0  0  0  0  0  0  0  0  0  0  0
  110.9666  -77.3013  -87.8098 C   0  0  0  0  0  0  0  0  0  0  0  0
  111.1048  -76.8934  -86.4333 C   0  0  2  0  0  0  0  0  0  0  0  0
  110.4744  -75.5579  -86.1154 C   0  0  1  0  0  0  0  0  0  0  0  0
  110.7460  -75.3575  -84.7500 C   0  0  2  0  0  0  0  0  0  0  0  0
  110.2094  -74.0885  -84.2534 C   0  0  0  0  0  0  0  0  0  0  0  0
  110.4654  -73.8218  -82.8729 C   0  0  0  0  0  0  0  0  0  0  0  0
  109.8089  -74.7947  -87.0560 C   0  0  0  0  0  0  0  0  0  0  0  0
  108.7660  -75.2517  -87.8950 C   0  0  0  0  0  0  0  0  0  0  0  0
  108.0716  -74.4910  -88.8374 C   0  0  0  0  0  0  0  0  0  0  0  0
  108.4076  -73.0866  -89.0170 C   0  0  0  0  0  0  0  0  0  0  0  0
  109.4614  -72.6638  -88.1716 C   0  0  0  0  0  0  0  0  0  0  0  0
  110.1868  -73.3910  -87.2178 C   0  0  0  0  0  0  0  0  0  0  0  0
  111.9842  -75.1802  -79.7502 C   0  0  0  0  0  0  0  0  0  0  0  0
  110.9380  -73.0202  -80.1222 C   0  0  0  0  0  0  0  0  0  0  0  0
  113.2677  -81.7175  -86.6272 C   0  0  0  0  0  0  0  0  0  0  0  0
  112.7985  -81.0827  -88.9599 C   0  0  0  0  0  0  0  0  0  0  0  0
  1  2  1  1  0  0  0
  1  3  1  0  0  0  0
  1 16  1  0  0  0  0
  2 23  1  0  0  0  0
  2 24  1  0  0  0  0
  4 25  1  0  0  0  0
  4 26  1  0  0  0  0
  5  6  1  0  0  0  0
  6  3  1  6  0  0  0
  6 14  1  0  0  0  0
  7  5  1  1  0  0  0
  7  8  1  0  0  0  0
  7 12  1  0  0  0  0
  8  9  1  0  0  0  0
  9  4  1  1  0  0  0
  9 10  1  0  0  0  0
 10 11  1  0  0  0  0
 12 11  1  6  0  0  0
 12 13  1  0  0  0  0
 13 14  1  0  0  0  0
 13 17  1  6  0  0  0
 14 15  1  6  0  0  0
 15 16  1  0  0  0  0
 17 18  1  0  0  0  0
 17 22  1  0  0  0  0
 18 19  1  0  0  0  0
 19 20  1  0  0  0  0
 20 21  1  0  0  0  0
 21 22  1  0  0  0  0
M  END
>  <CHROM.1>
-3.88742980,9.56803088,52.04993984,111.06502751,-76.30469214,-85.43575232
-1.84867455,1.04525035,-2.07777420

>  <Name>
ligand

>  <RI>
0

>  <Rbt.Current_Directory>
/home/itssahil/PROJECTS/Mol_Feturizer/Test_systems_manuscript/rnas/1f1t

>  <Rbt.Executable>
rbdock ($Id: //depot/dev/client3/rdock/2013.1/src/exe/rbdock.cxx#4 $)

>  <Rbt.Library>
libRbt.so (2013.1, Build901 2013/11/27)

>  <Rbt.Parameter_File>
/export/apps/rDock/src/rDock_2013.1_src/data/scripts/dock_solv.prm

>  <Rbt.Receptor>
prm/pocket_docking_4.prm

>  <SCORE>
-56.2091

>  <SCORE.INTER>
-56.3506

>  <SCORE.INTER.CONST>
1

>  <SCORE.INTER.POLAR>
0

>  <SCORE.INTER.ROT>
3

>  <SCORE.INTER.SOLV>
8.91422

>  <SCORE.INTER.VDW>
-46.1385

>  <SCORE.INTER.norm>
-2.16733

>  <SCORE.INTRA>
0.141452

>  <SCORE.INTRA.DIHEDRAL>
0.000242487

>  <SCORE.INTRA.DIHEDRAL.0>
3.60016

>  <SCORE.INTRA.POLAR>
0

>  <SCORE.INTRA.POLAR.0>
0

>  <SCORE.INTRA.REPUL>
0

>  <SCORE.INTRA.REPUL.0>
0

>  <SCORE.INTRA.SOLV>
3.46615e-05

>  <SCORE.INTRA.SOLV.lig_0>
-10.9882

>  <SCORE.INTRA.VDW>
0.141313

>  <SCORE.INTRA.VDW.0>
1.84442

>  <SCORE.INTRA.norm>
0.00544045

>  <SCORE.RESTR>
0

>  <SCORE.RESTR.CAVITY>
0

>  <SCORE.RESTR.norm>
0

>  <SCORE.SYSTEM>
0

>  <SCORE.SYSTEM.CONST>
0

>  <SCORE.SYSTEM.DIHEDRAL>
0

>  <SCORE.SYSTEM.SOLV>
0

>  <SCORE.SYSTEM.norm>
0

>  <SCORE.heavy>
26

>  <SCORE.norm>
-2.16189

>  <RMSD>
0.736

$$$$
ligand
 OpenBabel02271912153D
libRbt.so/2013.1/901 2013/11/27
 26 29  0  0  0  0  0  0  0  0999 V2000
  111.2303  -74.7047  -81.9211 C   0  0  1  0  0  0  0  0  0  0  0  0
  111.3982  -74.3702  -80.5850 N   0  0  0  0  0  0  0  0  0  0  0  0
  111.7208  -75.9813  -82.4193 C   0  0  0  0  0  0  0  0  0  0  0  0
  112.6648  -80.5864  -87.5235 N   0  0  0  0  0  0  0  0  0  0  0  0
  112.0004  -77.4855  -84.2383 O   0  0  0  0  0  0  0  0  0  0  0  0
  111.4782  -76.1671  -83.7816 C   0  0  2  0  0  0  0  0  0  0  0  0
  111.7837  -77.6422  -85.4858 C   0  0  1  0  0  0  0  0  0  0  0  0
  112.3182  -78.9591  -85.8316 C   0  0  0  0  0  0  0  0  0  0  0  0
  112.1680  -79.3070  -87.2209 C   0  0  2  0  0  0  0  0  0  0  0  0
  111.5660  -78.4390  -88.1653 C   0  0  0  0  0  0  0  0  0  0  0  0
  111.0466  -77.1474  -87.7557 C   0  0  0  0  0  0  0  0  0  0  0  0
  111.1732  -76.7841  -86.3656 C   0  0  2  0  0  0  0  0  0  0  0  0
  110.5932  -75.4322  -86.0221 C   0  0  1  0  0  0  0  0  0  0  0  0
  110.8445  -75.2817  -84.6465 C   0  0  2  0  0  0  0  0  0  0  0  0
  110.3517  -74.0051  -84.1244 C   0  0  0  0  0  0  0  0  0  0  0  0
  110.5899  -73.7881  -82.7321 C   0  0  0  0  0  0  0  0  0  0  0  0
  109.9801  -74.6155  -86.9534 C   0  0  0  0  0  0  0  0  0  0  0  0
  110.2935  -73.2560  -87.1857 C   0  0  0  0  0  0  0  0  0  0  0  0
  109.6973  -72.4218  -88.1330 C   0  0  0  0  0  0  0  0  0  0  0  0
  108.6479  -72.9461  -88.9942 C   0  0  0  0  0  0  0  0  0  0  0  0
  108.3503  -74.3044  -88.7290 C   0  0  0  0  0  0  0  0  0  0  0  0
  108.9183  -75.1755  -87.7891 C   0  0  0  0  0  0  0  0  0  0  0  0
  112.0006  -75.2897  -79.6239 C   0  0  0  0  0  0  0  0  0  0  0  0
  111.0233  -73.0900  -79.9474 C   0  0  0  0  0  0  0  0  0  0  0  0
  113.2271  -81.6511  -86.6629 C   0  0  0  0  0  0  0  0  0  0  0  0
  112.6294  -81.0162  -88.9660 C   0  0  0  0  0  0  0  0  0  0  0  0
  1  2  1  1  0  0  0
  1  3  1  0  0  0  0
  1 16  1  0  0  0  0
  2 23  1  0  0  0  0
  2 24  1  0  0  0  0
  4 25  1  0  0  0  0
  4 26  1  0  0  0  0
  5  6  1  0  0  0  0
  6  3  1  6  0  0  0
  6 14  1  0  0  0  0
  7  5  1  1  0  0  0
  7  8  1  0  0  0  0
  7 12  1  0  0  0  0
  8  9  1  0  0  0  0
  9  4  1  1  0  0  0
  9 10  1  0  0  0  0
 10 11  1  0  0  0  0
 12 11  1  6  0  0  0
 12 13  1  0  0  0  0
 13 14  1  0  0  0  0
 13 17  1  6  0  0  0
 14 15  1  6  0  0  0
 15 16  1  0  0  0  0
 17 18  1  0  0  0  0
 17 22  1  0  0  0  0
 18 19  1  0  0  0  0
 19 20  1  0  0  0  0
 20 21  1  0  0  0  0
 21 22  1  0  0  0  0
M  END
>  <CHROM.1>
-3.08111772,4.37316438,-128.08786101,111.13007514,-76.23874096,-85.36238744
-1.82275177,1.08676573,-2.05943314

>  <Name>
ligand

>  <RI>
0

>  <Rbt.Current_Directory>
/home/itssahil/PROJECTS/Mol_Feturizer/Test_systems_manuscript/rnas/1f1t

>  <Rbt.Executable>
rbdock ($Id: //depot/dev/client3/rdock/2013.1/src/exe/rbdock.cxx#4 $)

>  <Rbt.Library>
libRbt.so (2013.1, Build901 2013/11/27)

>  <Rbt.Parameter_File>
/export/apps/rDock/src/rDock_2013.1_src/data/scripts/dock_solv.prm

>  <Rbt.Receptor>
prm/pocket_docking_5.prm

>  <SCORE>
-56.4084

>  <SCORE.INTER>
-56.7124

>  <SCORE.INTER.CONST>
1

>  <SCORE.INTER.POLAR>
0

>  <SCORE.INTER.ROT>
3

>  <SCORE.INTER.SOLV>
9.07981

>  <SCORE.INTER.VDW>
-46.4349

>  <SCORE.INTER.norm>
-2.18125

>  <SCORE.INTRA>
0.303977

>  <SCORE.INTRA.DIHEDRAL>
-8.33192e-06

>  <SCORE.INTRA.DIHEDRAL.0>
3.60016

>  <SCORE.INTRA.POLAR>
0

>  <SCORE.INTRA.POLAR.0>
0

>  <SCORE.INTRA.REPUL>
0

>  <SCORE.INTRA.REPUL.0>
0

>  <SCORE.INTRA.SOLV>
1.14942e-05

>  <SCORE.INTRA.SOLV.lig_0>
-10.9882

>  <SCORE.INTRA.VDW>
0.303976

>  <SCORE.INTRA.VDW.0>
1.84442

>  <SCORE.INTRA.norm>
0.0116914

>  <SCORE.RESTR>
0

>  <SCORE.RESTR.CAVITY>
0

>  <SCORE.RESTR.norm>
0

>  <SCORE.SYSTEM>
0

>  <SCORE.SYSTEM.CONST>
0

>  <SCORE.SYSTEM.DIHEDRAL>
0

>  <SCORE.SYSTEM.SOLV>
0

>  <SCORE.SYSTEM.norm>
0

>  <SCORE.heavy>
26

>  <SCORE.norm>
-2.16955

>  <RMSD>
0.736

$$$$
ligand
 OpenBabel02271912153D
libRbt.so/2013.1/901 2013/11/27
 26 29  0  0  0  0  0  0  0  0999 V2000
  111.2480  -74.6054  -81.8828 C   0  0  1  0  0  0  0  0  0  0  0  0
  111.4214  -74.2598  -80.5502 N   0  0  0  0  0  0  0  0  0  0  0  0
  111.7387  -75.8850  -82.3730 C   0  0  0  0  0  0  0  0  0  0  0  0
  112.6680  -80.5292  -87.4443 N   0  0  0  0  0  0  0  0  0  0  0  0
  112.0128  -77.4033  -84.1811 O   0  0  0  0  0  0  0  0  0  0  0  0
  111.4902  -76.0822  -83.7326 C   0  0  2  0  0  0  0  0  0  0  0  0
  111.7907  -77.5704  -85.4264 C   0  0  1  0  0  0  0  0  0  0  0  0
  112.3262  -78.8891  -85.7640 C   0  0  0  0  0  0  0  0  0  0  0  0
  112.1702  -79.2483  -87.1497 C   0  0  2  0  0  0  0  0  0  0  0  0
  111.5622  -78.3891  -88.0982 C   0  0  0  0  0  0  0  0  0  0  0  0
  111.0421  -77.0953  -87.6967 C   0  0  0  0  0  0  0  0  0  0  0  0
  111.1745  -76.7206  -86.3102 C   0  0  2  0  0  0  0  0  0  0  0  0
  110.5934  -75.3671  -85.9749 C   0  0  1  0  0  0  0  0  0  0  0  0
  110.8508  -75.2050  -84.6016 C   0  0  2  0  0  0  0  0  0  0  0  0
  110.3579  -73.9253  -84.0875 C   0  0  0  0  0  0  0  0  0  0  0  0
  110.6022  -73.6965  -82.6981 C   0  0  0  0  0  0  0  0  0  0  0  0
  109.9745  -74.5591  -86.9098 C   0  0  0  0  0  0  0  0  0  0  0  0
  110.3144  -73.2142  -87.1859 C   0  0  0  0  0  0  0  0  0  0  0  0
  109.7122  -72.3895  -88.1378 C   0  0  0  0  0  0  0  0  0  0  0  0
  108.6265  -72.9088  -88.9558 C   0  0  0  0  0  0  0  0  0  0  0  0
  108.3034  -74.2521  -88.6474 C   0  0  0  0  0  0  0  0  0  0  0  0
  108.8763  -75.1131  -87.7011 C   0  0  0  0  0  0  0  0  0  0  0  0
  112.0260  -75.1722  -79.5836 C   0  0  0  0  0  0  0  0  0  0  0  0
  111.0510  -72.9737  -79.9221 C   0  0  0  0  0  0  0  0  0  0  0  0
  113.2592  -81.5762  -86.5814 C   0  0  0  0  0  0  0  0  0  0  0  0
  112.5993  -80.9825  -88.8785 C   0  0  0  0  0  0  0  0  0  0  0  0
  1  2  1  1  0  0  0
  1  3  1  0  0  0  0
  1 16  1  0  0  0  0
  2 23  1  0  0  0  0
  2 24  1  0  0  0  0
  4 25  1  0  0  0  0
  4 26  1  0  0  0  0
  5  6  1  0  0  0  0
  6  3  1  6  0  0  0
  6 14  1  0  0  0  0
  7  5  1  1  0  0  0
  7  8  1  0  0  0  0
  7 12  1  0  0  0  0
  8  9  1  0  0  0  0
  9  4  1  1  0  0  0
  9 10  1  0  0  0  0
 10 11  1  0  0  0  0
 12 11  1  6  0  0  0
 12 13  1  0  0  0  0
 13 14  1  0  0  0  0
 13 17  1  6  0  0  0
 14 15  1  6  0  0  0
 15 16  1  0  0  0  0
 17 18  1  0  0  0  0
 17 22  1  0  0  0  0
 18 19  1  0  0  0  0
 19 20  1  0  0  0  0
 20 21  1  0  0  0  0
 21 22  1  0  0  0  0
M  END
>  <CHROM.1>
-3.29030356,3.07314031,-125.82284854,111.13437972,-76.16733531,-85.31086461
-1.81547784,1.08243283,-2.07394261

>  <Name>
ligand

>  <RI>
0

>  <Rbt.Current_Directory>
/home/itssahil/PROJECTS/Mol_Feturizer/Test_systems_manuscript/rnas/1f1t

>  <Rbt.Executable>
rbdock ($Id: //depot/dev/client3/rdock/2013.1/src/exe/rbdock.cxx#4 $)

>  <Rbt.Library>
libRbt.so (2013.1, Build901 2013/11/27)

>  <Rbt.Parameter_File>
/export/apps/rDock/src/rDock_2013.1_src/data/scripts/dock_solv.prm

>  <Rbt.Receptor>
prm/pocket_docking_7.prm

>  <SCORE>
-56.3558

>  <SCORE.INTER>
-56.5926

>  <SCORE.INTER.CONST>
1

>  <SCORE.INTER.POLAR>
0

>  <SCORE.INTER.ROT>
3

>  <SCORE.INTER.SOLV>
9.20977

>  <SCORE.INTER.VDW>
-46.3983

>  <SCORE.INTER.norm>
-2.17664

>  <SCORE.INTRA>
0.236794

>  <SCORE.INTRA.DIHEDRAL>
-1.13171e-05

>  <SCORE.INTRA.DIHEDRAL.0>
3.60016

>  <SCORE.INTRA.POLAR>
0

>  <SCORE.INTRA.POLAR.0>
0

>  <SCORE.INTRA.REPUL>
0

>  <SCORE.INTRA.REPUL.0>
0

>  <SCORE.INTRA.SOLV>
8.91755e-06

>  <SCORE.INTRA.SOLV.lig_0>
-10.9882

>  <SCORE.INTRA.VDW>
0.236796

>  <SCORE.INTRA.VDW.0>
1.84442

>  <SCORE.INTRA.norm>
0.00910748

>  <SCORE.RESTR>
0

>  <SCORE.RESTR.CAVITY>
0

>  <SCORE.RESTR.norm>
0

>  <SCORE.SYSTEM>
0

>  <SCORE.SYSTEM.CONST>
0

>  <SCORE.SYSTEM.DIHEDRAL>
0

>  <SCORE.SYSTEM.SOLV>
0

>  <SCORE.SYSTEM.norm>
0

>  <SCORE.heavy>
26

>  <SCORE.norm>
-2.16753

>  <RMSD>
0.736

$$$$
ligand
 OpenBabel02271912153D
libRbt.so/2013.1/901 2013/11/27
 26 29  0  0  0  0  0  0  0  0999 V2000
  111.1744  -74.7124  -82.0226 C   0  0  1  0  0  0  0  0  0  0  0  0
  111.3545  -74.3484  -80.6959 N   0  0  0  0  0  0  0  0  0  0  0  0
  111.6964  -75.9819  -82.5067 C   0  0  0  0  0  0  0  0  0  0  0  0
  112.6976  -80.6477  -87.5444 N   0  0  0  0  0  0  0  0  0  0  0  0
  111.9920  -77.5097  -84.3034 O   0  0  0  0  0  0  0  0  0  0  0  0
  111.4364  -76.2000  -83.8610 C   0  0  2  0  0  0  0  0  0  0  0  0
  111.7591  -77.6957  -85.5440 C   0  0  1  0  0  0  0  0  0  0  0  0
  112.3289  -79.0014  -85.8758 C   0  0  0  0  0  0  0  0  0  0  0  0
  112.1659  -79.3791  -87.2558 C   0  0  2  0  0  0  0  0  0  0  0  0
  111.5208  -78.5478  -88.2046 C   0  0  0  0  0  0  0  0  0  0  0  0
  110.9679  -77.2658  -87.8088 C   0  0  0  0  0  0  0  0  0  0  0  0
  111.1069  -76.8733  -86.4279 C   0  0  2  0  0  0  0  0  0  0  0  0
  110.4904  -75.5342  -86.0982 C   0  0  1  0  0  0  0  0  0  0  0  0
  110.7604  -75.3508  -84.7301 C   0  0  2  0  0  0  0  0  0  0  0  0
  110.2365  -74.0810  -84.2220 C   0  0  0  0  0  0  0  0  0  0  0  0
  110.4916  -73.8312  -82.8382 C   0  0  0  0  0  0  0  0  0  0  0  0
  109.8360  -74.7542  -87.0327 C   0  0  0  0  0  0  0  0  0  0  0  0
  108.7869  -75.1896  -87.8755 C   0  0  0  0  0  0  0  0  0  0  0  0
  108.1036  -74.4117  -88.8118 C   0  0  0  0  0  0  0  0  0  0  0  0
  108.4596  -73.0108  -88.9802 C   0  0  0  0  0  0  0  0  0  0  0  0
  109.5191  -72.6098  -88.1314 C   0  0  0  0  0  0  0  0  0  0  0  0
  110.2339  -73.3548  -87.1833 C   0  0  0  0  0  0  0  0  0  0  0  0
  112.0052  -75.2296  -79.7302 C   0  0  0  0  0  0  0  0  0  0  0  0
  110.9474  -73.0706  -80.0737 C   0  0  0  0  0  0  0  0  0  0  0  0
  113.2452  -81.7065  -86.6673 C   0  0  0  0  0  0  0  0  0  0  0  0
  112.7266  -81.0705  -88.9892 C   0  0  0  0  0  0  0  0  0  0  0  0
  1  2  1  1  0  0  0
  1  3  1  0  0  0  0
  1 16  1  0  0  0  0
  2 23  1  0  0  0  0
  2 24  1  0  0  0  0
  4 25  1  0  0  0  0
  4 26  1  0  0  0  0
  5  6  1  0  0  0  0
  6  3  1  6  0  0  0
  6 14  1  0  0  0  0
  7  5  1  1  0  0  0
  7  8  1  0  0  0  0
  7 12  1  0  0  0  0
  8  9  1  0  0  0  0
  9  4  1  1  0  0  0
  9 10  1  0  0  0  0
 10 11  1  0  0  0  0
 12 11  1  6  0  0  0
 12 13  1  0  0  0  0
 13 14  1  0  0  0  0
 13 17  1  6  0  0  0
 14 15  1  6  0  0  0
 15 16  1  0  0  0  0
 17 18  1  0  0  0  0
 17 22  1  0  0  0  0
 18 19  1  0  0  0  0
 19 20  1  0  0  0  0
 20 21  1  0  0  0  0
 21 22  1  0  0  0  0
M  END
>  <CHROM.1>
-2.91743214,7.95065680,52.31399502,111.07059274,-76.29450574,-85.42455513
-1.84182737,1.05566130,-2.07362333

>  <Name>
ligand

>  <RI>
0

>  <Rbt.Current_Directory>
/home/itssahil/PROJECTS/Mol_Feturizer/Test_systems_manuscript/rnas/1f1t

>  <Rbt.Executable>
rbdock ($Id: //depot/dev/client3/rdock/2013.1/src/exe/rbdock.cxx#4 $)

>  <Rbt.Library>
libRbt.so (2013.1, Build901 2013/11/27)

>  <Rbt.Parameter_File>
/export/apps/rDock/src/rDock_2013.1_src/data/scripts/dock_solv.prm

>  <Rbt.Receptor>
prm/pocket_docking_8.prm

>  <SCORE>
-56.2532

>  <SCORE.INTER>
-56.4185

>  <SCORE.INTER.CONST>
1

>  <SCORE.INTER.POLAR>
0

>  <SCORE.INTER.ROT>
3

>  <SCORE.INTER.SOLV>
8.92829

>  <SCORE.INTER.VDW>
-46.1884

>  <SCORE.INTER.norm>
-2.16994

>  <SCORE.INTRA>
0.165276

>  <SCORE.INTRA.DIHEDRAL>
0.000254388

>  <SCORE.INTRA.DIHEDRAL.0>
3.60016

>  <SCORE.INTRA.POLAR>
0

>  <SCORE.INTRA.POLAR.0>
0

>  <SCORE.INTRA.REPUL>
0

>  <SCORE.INTRA.REPUL.0>
0

>  <SCORE.INTRA.SOLV>
2.37713e-05

>  <SCORE.INTRA.SOLV.lig_0>
-10.9882

>  <SCORE.INTRA.VDW>
0.165137

>  <SCORE.INTRA.VDW.0>
1.84442

>  <SCORE.INTRA.norm>
0.00635678

>  <SCORE.RESTR>
0

>  <SCORE.RESTR.CAVITY>
0

>  <SCORE.RESTR.norm>
0

>  <SCORE.SYSTEM>
0

>  <SCORE.SYSTEM.CONST>
0

>  <SCORE.SYSTEM.DIHEDRAL>
0

>  <SCORE.SYSTEM.SOLV>
0

>  <SCORE.SYSTEM.norm>
0

>  <SCORE.heavy>
26

>  <SCORE.norm>
-2.16358

>  <RMSD>
0.736

$$$$
ligand
 OpenBabel02271912153D
libRbt.so/2013.1/901 2013/11/27
 26 29  0  0  0  0  0  0  0  0999 V2000
  112.2212  -79.4032  -87.1163 C   0  0  1  0  0  0  0  0  0  0  0  0
  112.7202  -80.6352  -87.5141 N   0  0  0  0  0  0  0  0  0  0  0  0
  112.3438  -78.9816  -85.7286 C   0  0  0  0  0  0  0  0  0  0  0  0
  111.3366  -74.3770  -80.6361 N   0  0  0  0  0  0  0  0  0  0  0  0
  111.9430  -77.3412  -84.0559 O   0  0  0  0  0  0  0  0  0  0  0  0
  111.7916  -77.7220  -85.4883 C   0  0  2  0  0  0  0  0  0  0  0  0
  111.4265  -76.1940  -83.8434 C   0  0  1  0  0  0  0  0  0  0  0  0
  111.6347  -75.9083  -82.4240 C   0  0  0  0  0  0  0  0  0  0  0  0
  111.1015  -74.6408  -81.9963 C   0  0  2  0  0  0  0  0  0  0  0  0
  110.4249  -73.7602  -82.8763 C   0  0  0  0  0  0  0  0  0  0  0  0
  110.2591  -74.0990  -84.2776 C   0  0  0  0  0  0  0  0  0  0  0  0
  110.7983  -75.3574  -84.7314 C   0  0  2  0  0  0  0  0  0  0  0  0
  110.5964  -75.6240  -86.2046 C   0  0  1  0  0  0  0  0  0  0  0  0
  111.1707  -76.8907  -86.4140 C   0  0  2  0  0  0  0  0  0  0  0  0
  111.0635  -77.3299  -87.8070 C   0  0  0  0  0  0  0  0  0  0  0  0
  111.6187  -78.6182  -88.0800 C   0  0  0  0  0  0  0  0  0  0  0  0
  109.9624  -74.7354  -87.0522 C   0  0  0  0  0  0  0  0  0  0  0  0
  110.2782  -73.3635  -87.1886 C   0  0  0  0  0  0  0  0  0  0  0  0
  109.6606  -72.4563  -88.0514 C   0  0  0  0  0  0  0  0  0  0  0  0
  108.5834  -72.9081  -88.9193 C   0  0  0  0  0  0  0  0  0  0  0  0
  108.2845  -74.2814  -88.7505 C   0  0  0  0  0  0  0  0  0  0  0  0
  108.8733  -75.2247  -87.8971 C   0  0  0  0  0  0  0  0  0  0  0  0
  112.7895  -81.0282  -88.9188 C   0  0  0  0  0  0  0  0  0  0  0  0
  113.2462  -81.6961  -86.6289 C   0  0  0  0  0  0  0  0  0  0  0  0
  111.9819  -75.1832  -79.5759 C   0  0  0  0  0  0  0  0  0  0  0  0
  110.8890  -73.0409  -80.1056 C   0  0  0  0  0  0  0  0  0  0  0  0
  1  2  1  6  0  0  0
  1  3  1  0  0  0  0
  1 16  1  0  0  0  0
  2 23  1  0  0  0  0
  2 24  1  0  0  0  0
  4 25  1  0  0  0  0
  4 26  1  0  0  0  0
  5  6  1  0  0  0  0
  6  3  1  1  0  0  0
  6 14  1  0  0  0  0
  7  5  1  6  0  0  0
  7  8  1  0  0  0  0
  7 12  1  0  0  0  0
  8  9  1  0  0  0  0
  9  4  1  6  0  0  0
  9 10  1  0  0  0  0
 10 11  1  0  0  0  0
 12 11  1  1  0  0  0
 12 13  1  0  0  0  0
 13 14  1  0  0  0  0
 13 17  1  1  0  0  0
 14 15  1  1  0  0  0
 15 16  1  0  0  0  0
 17 18  1  0  0  0  0
 17 22  1  0  0  0  0
 18 19  1  0  0  0  0
 19 20  1  0  0  0  0
 20 21  1  0  0  0  0
 21 22  1  0  0  0  0
M  END
>  <CHROM.1>
-171.40306320,-2.53971928,51.59824718,111.10444171,-76.27090116,-85.37801055
-1.26530293,-1.07572380,1.09320259

>  <Name>
ligand

>  <RI>
0

>  <Rbt.Current_Directory>
/home/itssahil/PROJECTS/Mol_Feturizer/Test_systems_manuscript/rnas/1f1t

>  <Rbt.Executable>
rbdock ($Id: //depot/dev/client3/rdock/2013.1/src/exe/rbdock.cxx#4 $)

>  <Rbt.Library>
libRbt.so (2013.1, Build901 2013/11/27)

>  <Rbt.Parameter_File>
/export/apps/rDock/src/rDock_2013.1_src/data/scripts/dock_solv.prm

>  <Rbt.Receptor>
prm/pocket_docking_2.prm

>  <SCORE>
-56.3351

>  <SCORE.INTER>
-56.7975

>  <SCORE.INTER.CONST>
1

>  <SCORE.INTER.POLAR>
0

>  <SCORE.INTER.ROT>
3

>  <SCORE.INTER.SOLV>
8.97818

>  <SCORE.INTER.VDW>
-46.4577

>  <SCORE.INTER.norm>
-2.18452

>  <SCORE.INTRA>
0.462388

>  <SCORE.INTRA.DIHEDRAL>
0.000286644

>  <SCORE.INTRA.DIHEDRAL.0>
3.60016

>  <SCORE.INTRA.POLAR>
0

>  <SCORE.INTRA.POLAR.0>
0

>  <SCORE.INTRA.REPUL>
0

>  <SCORE.INTRA.REPUL.0>
0

>  <SCORE.INTRA.SOLV>
2.88761e-05

>  <SCORE.INTRA.SOLV.lig_0>
-10.9882

>  <SCORE.INTRA.VDW>
0.46223

>  <SCORE.INTRA.VDW.0>
1.84442

>  <SCORE.INTRA.norm>
0.0177842

>  <SCORE.RESTR>
0

>  <SCORE.RESTR.CAVITY>
0

>  <SCORE.RESTR.norm>
0

>  <SCORE.SYSTEM>
0

>  <SCORE.SYSTEM.CONST>
0

>  <SCORE.SYSTEM.DIHEDRAL>
0

>  <SCORE.SYSTEM.SOLV>
0

>  <SCORE.SYSTEM.norm>
0

>  <SCORE.heavy>
26

>  <SCORE.norm>
-2.16674

>  <RMSD>
0.737

$$$$
ligand
 OpenBabel02271912153D
libRbt.so/2013.1/901 2013/11/27
 26 29  0  0  0  0  0  0  0  0999 V2000
  111.2143  -74.6946  -81.9152 C   0  0  1  0  0  0  0  0  0  0  0  0
  111.3917  -74.3635  -80.5795 N   0  0  0  0  0  0  0  0  0  0  0  0
  111.7092  -75.9659  -82.4223 C   0  0  0  0  0  0  0  0  0  0  0  0
  112.6397  -80.5466  -87.5508 N   0  0  0  0  0  0  0  0  0  0  0  0
  111.9830  -77.4619  -84.2489 O   0  0  0  0  0  0  0  0  0  0  0  0
  111.4558  -76.1487  -83.7830 C   0  0  2  0  0  0  0  0  0  0  0  0
  111.7564  -77.6157  -85.4951 C   0  0  1  0  0  0  0  0  0  0  0  0
  112.2969  -78.9277  -85.8503 C   0  0  0  0  0  0  0  0  0  0  0  0
  112.1368  -79.2718  -87.2393 C   0  0  2  0  0  0  0  0  0  0  0  0
  111.5205  -78.4047  -88.1753 C   0  0  0  0  0  0  0  0  0  0  0  0
  110.9958  -77.1182  -87.7566 C   0  0  0  0  0  0  0  0  0  0  0  0
  111.1322  -76.7588  -86.3664 C   0  0  2  0  0  0  0  0  0  0  0  0
  110.5459  -75.4122  -86.0130 C   0  0  1  0  0  0  0  0  0  0  0  0
  110.8084  -75.2647  -84.6392 C   0  0  2  0  0  0  0  0  0  0  0  0
  110.3114  -73.9934  -84.1082 C   0  0  0  0  0  0  0  0  0  0  0  0
  110.5604  -73.7795  -82.7173 C   0  0  0  0  0  0  0  0  0  0  0  0
  109.9190  -74.5966  -86.9359 C   0  0  0  0  0  0  0  0  0  0  0  0
  110.2641  -73.2531  -87.2123 C   0  0  0  0  0  0  0  0  0  0  0  0
  109.6539  -72.4208  -88.1524 C   0  0  0  0  0  0  0  0  0  0  0  0
  108.5527  -72.9296  -88.9562 C   0  0  0  0  0  0  0  0  0  0  0  0
  108.2249  -74.2718  -88.6478 C   0  0  0  0  0  0  0  0  0  0  0  0
  108.8055  -75.1401  -87.7131 C   0  0  0  0  0  0  0  0  0  0  0  0
  110.9721  -73.0745  -80.0365 C   0  0  0  0  0  0  0  0  0  0  0  0
  111.9948  -75.2197  -79.5361 C   0  0  0  0  0  0  0  0  0  0  0  0
  113.2284  -81.6054  -86.7008 C   0  0  0  0  0  0  0  0  0  0  0  0
  112.5806  -80.9777  -88.9922 C   0  0  0  0  0  0  0  0  0  0  0  0
  1  2  1  1  0  0  0
  1  3  1  0  0  0  0
  1 16  1  0  0  0  0
  2 23  1  0  0  0  0
  2 24  1  0  0  0  0
  4 25  1  0  0  0  0
  4 26  1  0  0  0  0
  5  6  1  0  0  0  0
  6  3  1  6  0  0  0
  6 14  1  0  0  0  0
  7  5  1  1  0  0  0
  7  8  1  0  0  0  0
  7 12  1  0  0  0  0
  8  9  1  0  0  0  0
  9  4  1  1  0  0  0
  9 10  1  0  0  0  0
 10 11  1  0  0  0  0
 12 11  1  6  0  0  0
 12 13  1  0  0  0  0
 13 14  1  0  0  0  0
 13 17  1  6  0  0  0
 14 15  1  6  0  0  0
 15 16  1  0  0  0  0
 17 18  1  0  0  0  0
 17 22  1  0  0  0  0
 18 19  1  0  0  0  0
 19 20  1  0  0  0  0
 20 21  1  0  0  0  0
 21 22  1  0  0  0  0
M  END
>  <CHROM.1>
176.96127516,3.71850793,-124.80841565,111.09109549,-76.21385674,-85.36107800
-1.81634463,1.07612886,-2.06342804

>  <Name>
ligand

>  <RI>
0

>  <Rbt.Current_Directory>
/home/itssahil/PROJECTS/Mol_Feturizer/Test_systems_manuscript/rnas/1f1t

>  <Rbt.Executable>
rbdock ($Id: //depot/dev/client3/rdock/2013.1/src/exe/rbdock.cxx#4 $)

>  <Rbt.Library>
libRbt.so (2013.1, Build901 2013/11/27)

>  <Rbt.Parameter_File>
/export/apps/rDock/src/rDock_2013.1_src/data/scripts/dock_solv.prm

>  <Rbt.Receptor>
prm/pocket_docking_4.prm

>  <SCORE>
-56.1656

>  <SCORE.INTER>
-56.675

>  <SCORE.INTER.CONST>
1

>  <SCORE.INTER.POLAR>
0

>  <SCORE.INTER.ROT>
3

>  <SCORE.INTER.SOLV>
9.04496

>  <SCORE.INTER.VDW>
-46.3983

>  <SCORE.INTER.norm>
-2.17981

>  <SCORE.INTRA>
0.509396

>  <SCORE.INTRA.DIHEDRAL>
-1.99092e-06

>  <SCORE.INTRA.DIHEDRAL.0>
3.60016

>  <SCORE.INTRA.POLAR>
0

>  <SCORE.INTRA.POLAR.0>
0

>  <SCORE.INTRA.REPUL>
0

>  <SCORE.INTRA.REPUL.0>
0

>  <SCORE.INTRA.SOLV>
9.36126e-06

>  <SCORE.INTRA.SOLV.lig_0>
-10.9882

>  <SCORE.INTRA.VDW>
0.509393

>  <SCORE.INTRA.VDW.0>
1.84442

>  <SCORE.INTRA.norm>
0.0195922

>  <SCORE.RESTR>
0

>  <SCORE.RESTR.CAVITY>
0

>  <SCORE.RESTR.norm>
0

>  <SCORE.SYSTEM>
0

>  <SCORE.SYSTEM.CONST>
0

>  <SCORE.SYSTEM.DIHEDRAL>
0

>  <SCORE.SYSTEM.SOLV>
0

>  <SCORE.SYSTEM.norm>
0

>  <SCORE.heavy>
26

>  <SCORE.norm>
-2.16021

>  <RMSD>
0.737

$$$$
ligand
 OpenBabel02271912153D
libRbt.so/2013.1/901 2013/11/27
 26 29  0  0  0  0  0  0  0  0999 V2000
  111.2577  -74.6180  -81.8843 C   0  0  1  0  0  0  0  0  0  0  0  0
  111.4377  -74.2788  -80.5510 N   0  0  0  0  0  0  0  0  0  0  0  0
  111.7541  -75.8913  -82.3851 C   0  0  0  0  0  0  0  0  0  0  0  0
  112.6817  -80.4998  -87.4892 N   0  0  0  0  0  0  0  0  0  0  0  0
  112.0266  -77.3973  -84.2037 O   0  0  0  0  0  0  0  0  0  0  0  0
  111.4977  -76.0825  -83.7442 C   0  0  2  0  0  0  0  0  0  0  0  0
  111.7973  -77.5588  -85.4484 C   0  0  1  0  0  0  0  0  0  0  0  0
  112.3397  -78.8717  -85.7973 C   0  0  0  0  0  0  0  0  0  0  0  0
  112.1768  -79.2242  -87.1839 C   0  0  2  0  0  0  0  0  0  0  0  0
  111.5564  -78.3639  -88.1234 C   0  0  0  0  0  0  0  0  0  0  0  0
  111.0301  -77.0761  -87.7109 C   0  0  0  0  0  0  0  0  0  0  0  0
  111.1692  -76.7083  -86.3232 C   0  0  2  0  0  0  0  0  0  0  0  0
  110.5808  -75.3609  -85.9762 C   0  0  1  0  0  0  0  0  0  0  0  0
  110.8464  -75.2048  -84.6038 C   0  0  2  0  0  0  0  0  0  0  0  0
  110.3480  -73.9316  -84.0791 C   0  0  0  0  0  0  0  0  0  0  0  0
  110.6000  -73.7091  -82.6900 C   0  0  0  0  0  0  0  0  0  0  0  0
  109.9500  -74.5520  -86.9022 C   0  0  0  0  0  0  0  0  0  0  0  0
  110.2790  -73.2034  -87.1733 C   0  0  0  0  0  0  0  0  0  0  0  0
  109.6646  -72.3775  -88.1165 C   0  0  0  0  0  0  0  0  0  0  0  0
  108.5766  -72.8996  -88.9296 C   0  0  0  0  0  0  0  0  0  0  0  0
  108.2647  -74.2467  -88.6263 C   0  0  0  0  0  0  0  0  0  0  0  0
  108.8499  -75.1090  -87.6889 C   0  0  0  0  0  0  0  0  0  0  0  0
  112.0676  -75.1870  -79.5967 C   0  0  0  0  0  0  0  0  0  0  0  0
  111.0505  -73.0040  -79.9101 C   0  0  0  0  0  0  0  0  0  0  0  0
  113.2501  -81.5630  -86.6309 C   0  0  0  0  0  0  0  0  0  0  0  0
  112.6497  -80.9265  -88.9328 C   0  0  0  0  0  0  0  0  0  0  0  0
  1  2  1  1  0  0  0
  1  3  1  0  0  0  0
  1 16  1  0  0  0  0
  2 23  1  0  0  0  0
  2 24  1  0  0  0  0
  4 25  1  0  0  0  0
  4 26  1  0  0  0  0
  5  6  1  0  0  0  0
  6  3  1  6  0  0  0
  6 14  1  0  0  0  0
  7  5  1  1  0  0  0
  7  8  1  0  0  0  0
  7 12  1  0  0  0  0
  8  9  1  0  0  0  0
  9  4  1  1  0  0  0
  9 10  1  0  0  0  0
 10 11  1  0  0  0  0
 12 11  1  6  0  0  0
 12 13  1  0  0  0  0
 13 14  1  0  0  0  0
 13 17  1  6  0  0  0
 14 15  1  6  0  0  0
 15 16  1  0  0  0  0
 17 18  1  0  0  0  0
 17 22  1  0  0  0  0
 18 19  1  0  0  0  0
 19 20  1  0  0  0  0
 20 21  1  0  0  0  0
 21 22  1  0  0  0  0
M  END
>  <CHROM.1>
-2.64947157,5.11856197,-125.79001167,111.13223448,-76.16095285,-85.32052671
-1.81134944,1.07320048,-2.07168350

>  <Name>
ligand

>  <RI>
0

>  <Rbt.Current_Directory>
/home/itssahil/PROJECTS/Mol_Feturizer/Test_systems_manuscript/rnas/1f1t

>  <Rbt.Executable>
rbdock ($Id: //depot/dev/client3/rdock/2013.1/src/exe/rbdock.cxx#4 $)

>  <Rbt.Library>
libRbt.so (2013.1, Build901 2013/11/27)

>  <Rbt.Parameter_File>
/export/apps/rDock/src/rDock_2013.1_src/data/scripts/dock_solv.prm

>  <Rbt.Receptor>
prm/pocket_docking_5.prm

>  <SCORE>
-56.4793

>  <SCORE.INTER>
-56.7054

>  <SCORE.INTER.CONST>
1

>  <SCORE.INTER.POLAR>
0

>  <SCORE.INTER.ROT>
3

>  <SCORE.INTER.SOLV>
9.21969

>  <SCORE.INTER.VDW>
-46.4768

>  <SCORE.INTER.norm>
-2.18098

>  <SCORE.INTRA>
0.226015

>  <SCORE.INTRA.DIHEDRAL>
-1.80461e-05

>  <SCORE.INTRA.DIHEDRAL.0>
3.60016

>  <SCORE.INTRA.POLAR>
0

>  <SCORE.INTRA.POLAR.0>
0

>  <SCORE.INTRA.REPUL>
0

>  <SCORE.INTRA.REPUL.0>
0

>  <SCORE.INTRA.SOLV>
1.24432e-05

>  <SCORE.INTRA.SOLV.lig_0>
-10.9882

>  <SCORE.INTRA.VDW>
0.226018

>  <SCORE.INTRA.VDW.0>
1.84442

>  <SCORE.INTRA.norm>
0.00869289

>  <SCORE.RESTR>
0

>  <SCORE.RESTR.CAVITY>
0

>  <SCORE.RESTR.norm>
0

>  <SCORE.SYSTEM>
0

>  <SCORE.SYSTEM.CONST>
0

>  <SCORE.SYSTEM.DIHEDRAL>
0

>  <SCORE.SYSTEM.SOLV>
0

>  <SCORE.SYSTEM.norm>
0

>  <SCORE.heavy>
26

>  <SCORE.norm>
-2.17228

>  <RMSD>
0.737

$$$$
ligand
 OpenBabel02271912153D
libRbt.so/2013.1/901 2013/11/27
 26 29  0  0  0  0  0  0  0  0999 V2000
  111.2421  -74.6020  -81.8850 C   0  0  1  0  0  0  0  0  0  0  0  0
  111.4159  -74.2568  -80.5524 N   0  0  0  0  0  0  0  0  0  0  0  0
  111.7392  -75.8782  -82.3774 C   0  0  0  0  0  0  0  0  0  0  0  0
  112.6859  -80.5116  -87.4554 N   0  0  0  0  0  0  0  0  0  0  0  0
  112.0187  -77.3930  -84.1877 O   0  0  0  0  0  0  0  0  0  0  0  0
  111.4894  -76.0754  -83.7369 C   0  0  2  0  0  0  0  0  0  0  0  0
  111.7954  -77.5600  -85.4327 C   0  0  1  0  0  0  0  0  0  0  0  0
  112.3377  -78.8753  -85.7728 C   0  0  0  0  0  0  0  0  0  0  0  0
  112.1814  -79.2339  -87.1586 C   0  0  2  0  0  0  0  0  0  0  0  0
  111.5669  -78.3772  -88.1051 C   0  0  0  0  0  0  0  0  0  0  0  0
  111.0402  -77.0867  -87.7012 C   0  0  0  0  0  0  0  0  0  0  0  0
  111.1729  -76.7127  -86.3146 C   0  0  2  0  0  0  0  0  0  0  0  0
  110.5847  -75.3629  -85.9768 C   0  0  1  0  0  0  0  0  0  0  0  0
  110.8436  -75.2008  -84.6038 C   0  0  2  0  0  0  0  0  0  0  0  0
  110.3444  -73.9245  -84.0875 C   0  0  0  0  0  0  0  0  0  0  0  0
  110.5897  -73.6959  -82.6983 C   0  0  0  0  0  0  0  0  0  0  0  0
  109.9597  -74.5574  -86.9097 C   0  0  0  0  0  0  0  0  0  0  0  0
  110.2899  -73.2096  -87.1833 C   0  0  0  0  0  0  0  0  0  0  0  0
  109.6814  -72.3873  -88.1333 C   0  0  0  0  0  0  0  0  0  0  0  0
  108.5989  -72.9126  -88.9518 C   0  0  0  0  0  0  0  0  0  0  0  0
  108.2855  -74.2588  -88.6459 C   0  0  0  0  0  0  0  0  0  0  0  0
  108.8649  -75.1176  -87.7017 C   0  0  0  0  0  0  0  0  0  0  0  0
  112.0352  -75.1634  -79.5897 C   0  0  0  0  0  0  0  0  0  0  0  0
  111.0316  -72.9767  -79.9204 C   0  0  0  0  0  0  0  0  0  0  0  0
  113.2378  -81.5762  -86.5880 C   0  0  0  0  0  0  0  0  0  0  0  0
  112.6736  -80.9394  -88.8990 C   0  0  0  0  0  0  0  0  0  0  0  0
  1  2  1  1  0  0  0
  1  3  1  0  0  0  0
  1 16  1  0  0  0  0
  2 23  1  0  0  0  0
  2 24  1  0  0  0  0
  4 25  1  0  0  0  0
  4 26  1  0  0  0  0
  5  6  1  0  0  0  0
  6  3  1  6  0  0  0
  6 14  1  0  0  0  0
  7  5  1  1  0  0  0
  7  8  1  0  0  0  0
  7 12  1  0  0  0  0
  8  9  1  0  0  0  0
  9  4  1  1  0  0  0
  9 10  1  0  0  0  0
 10 11  1  0  0  0  0
 12 11  1  6  0  0  0
 12 13  1  0  0  0  0
 13 14  1  0  0  0  0
 13 17  1  6  0  0  0
 14 15  1  6  0  0  0
 15 16  1  0  0  0  0
 17 18  1  0  0  0  0
 17 22  1  0  0  0  0
 18 19  1  0  0  0  0
 19 20  1  0  0  0  0
 20 21  1  0  0  0  0
 21 22  1  0  0  0  0
M  END
>  <CHROM.1>
-2.88314937,5.73096036,-125.94126264,111.13182910,-76.16060495,-85.31471081
-1.81951669,1.07703677,-2.06909466

>  <Name>
ligand

>  <RI>
0

>  <Rbt.Current_Directory>
/home/itssahil/PROJECTS/Mol_Feturizer/Test_systems_manuscript/rnas/1f1t

>  <Rbt.Executable>
rbdock ($Id: //depot/dev/client3/rdock/2013.1/src/exe/rbdock.cxx#4 $)

>  <Rbt.Library>
libRbt.so (2013.1, Build901 2013/11/27)

>  <Rbt.Parameter_File>
/export/apps/rDock/src/rDock_2013.1_src/data/scripts/dock_solv.prm

>  <Rbt.Receptor>
prm/pocket_docking_6.prm

>  <SCORE>
-56.3877

>  <SCORE.INTER>
-56.6112

>  <SCORE.INTER.CONST>
1

>  <SCORE.INTER.POLAR>
0

>  <SCORE.INTER.ROT>
3

>  <SCORE.INTER.SOLV>
9.2043

>  <SCORE.INTER.VDW>
-46.4089

>  <SCORE.INTER.norm>
-2.17736

>  <SCORE.INTRA>
0.22358

>  <SCORE.INTRA.DIHEDRAL>
-2.02727e-05

>  <SCORE.INTRA.DIHEDRAL.0>
3.60016

>  <SCORE.INTRA.POLAR>
0

>  <SCORE.INTRA.POLAR.0>
0

>  <SCORE.INTRA.REPUL>
0

>  <SCORE.INTRA.REPUL.0>
0

>  <SCORE.INTRA.SOLV>
1.50846e-05

>  <SCORE.INTRA.SOLV.lig_0>
-10.9882

>  <SCORE.INTRA.VDW>
0.223582

>  <SCORE.INTRA.VDW.0>
1.84442

>  <SCORE.INTRA.norm>
0.00859922

>  <SCORE.RESTR>
0

>  <SCORE.RESTR.CAVITY>
0

>  <SCORE.RESTR.norm>
0

>  <SCORE.SYSTEM>
0

>  <SCORE.SYSTEM.CONST>
0

>  <SCORE.SYSTEM.DIHEDRAL>
0

>  <SCORE.SYSTEM.SOLV>
0

>  <SCORE.SYSTEM.norm>
0

>  <SCORE.heavy>
26

>  <SCORE.norm>
-2.16876

>  <RMSD>
0.737

$$$$
ligand
 OpenBabel02271912153D
libRbt.so/2013.1/901 2013/11/27
 26 29  0  0  0  0  0  0  0  0999 V2000
  112.2402  -79.4647  -87.1661 C   0  0  1  0  0  0  0  0  0  0  0  0
  112.7641  -80.6872  -87.5613 N   0  0  0  0  0  0  0  0  0  0  0  0
  112.3705  -79.0295  -85.7833 C   0  0  0  0  0  0  0  0  0  0  0  0
  111.3166  -74.4116  -80.7123 N   0  0  0  0  0  0  0  0  0  0  0  0
  111.9511  -77.3865  -84.1177 O   0  0  0  0  0  0  0  0  0  0  0  0
  111.7905  -77.7820  -85.5450 C   0  0  2  0  0  0  0  0  0  0  0  0
  111.4093  -76.2507  -83.9069 C   0  0  1  0  0  0  0  0  0  0  0  0
  111.6289  -75.9489  -82.4926 C   0  0  0  0  0  0  0  0  0  0  0  0
  111.0703  -74.6917  -82.0673 C   0  0  2  0  0  0  0  0  0  0  0  0
  110.3608  -73.8348  -82.9448 C   0  0  0  0  0  0  0  0  0  0  0  0
  110.1852  -74.1884  -84.3412 C   0  0  0  0  0  0  0  0  0  0  0  0
  110.7492  -75.4367  -84.7927 C   0  0  2  0  0  0  0  0  0  0  0  0
  110.5348  -75.7196  -86.2610 C   0  0  1  0  0  0  0  0  0  0  0  0
  111.1374  -76.9734  -86.4686 C   0  0  2  0  0  0  0  0  0  0  0  0
  111.0229  -77.4259  -87.8568 C   0  0  0  0  0  0  0  0  0  0  0  0
  111.6060  -78.7023  -88.1276 C   0  0  0  0  0  0  0  0  0  0  0  0
  109.8681  -74.8534  -87.1068 C   0  0  0  0  0  0  0  0  0  0  0  0
  108.7692  -75.1931  -87.9299 C   0  0  0  0  0  0  0  0  0  0  0  0
  108.0734  -74.3280  -88.7763 C   0  0  0  0  0  0  0  0  0  0  0  0
  108.4701  -72.9304  -88.8602 C   0  0  0  0  0  0  0  0  0  0  0  0
  109.5784  -72.6257  -88.0340 C   0  0  0  0  0  0  0  0  0  0  0  0
  110.3072  -73.4599  -87.1750 C   0  0  0  0  0  0  0  0  0  0  0  0
  112.8688  -81.0695  -88.9667 C   0  0  0  0  0  0  0  0  0  0  0  0
  113.2853  -81.7471  -86.6720 C   0  0  0  0  0  0  0  0  0  0  0  0
  111.9605  -75.2096  -79.6451 C   0  0  0  0  0  0  0  0  0  0  0  0
  110.8855  -73.0640  -80.1975 C   0  0  0  0  0  0  0  0  0  0  0  0
  1  2  1  6  0  0  0
  1  3  1  0  0  0  0
  1 16  1  0  0  0  0
  2 23  1  0  0  0  0
  2 24  1  0  0  0  0
  4 25  1  0  0  0  0
  4 26  1  0  0  0  0
  5  6  1  0  0  0  0
  6  3  1  1  0  0  0
  6 14  1  0  0  0  0
  7  5  1  6  0  0  0
  7  8  1  0  0  0  0
  7 12  1  0  0  0  0
  8  9  1  0  0  0  0
  9  4  1  6  0  0  0
  9 10  1  0  0  0  0
 10 11  1  0  0  0  0
 12 11  1  1  0  0  0
 12 13  1  0  0  0  0
 13 14  1  0  0  0  0
 13 17  1  1  0  0  0
 14 15  1  1  0  0  0
 15 16  1  0  0  0  0
 17 18  1  0  0  0  0
 17 22  1  0  0  0  0
 18 19  1  0  0  0  0
 19 20  1  0  0  0  0
 20 21  1  0  0  0  0
 21 22  1  0  0  0  0
M  END
>  <CHROM.1>
-169.16293458,-4.58815738,-126.31577597,111.07677921,-76.33157297,-85.42610874
-1.24691020,-1.05327401,1.08873440

>  <Name>
ligand

>  <RI>
0

>  <Rbt.Current_Directory>
/home/itssahil/PROJECTS/Mol_Feturizer/Test_systems_manuscript/rnas/1f1t

>  <Rbt.Executable>
rbdock ($Id: //depot/dev/client3/rdock/2013.1/src/exe/rbdock.cxx#4 $)

>  <Rbt.Library>
libRbt.so (2013.1, Build901 2013/11/27)

>  <Rbt.Parameter_File>
/export/apps/rDock/src/rDock_2013.1_src/data/scripts/dock_solv.prm

>  <Rbt.Receptor>
prm/pocket_docking_7.prm

>  <SCORE>
-55.7546

>  <SCORE.INTER>
-56.1818

>  <SCORE.INTER.CONST>
1

>  <SCORE.INTER.POLAR>
0

>  <SCORE.INTER.ROT>
3

>  <SCORE.INTER.SOLV>
8.89117

>  <SCORE.INTER.VDW>
-46.0183

>  <SCORE.INTER.norm>
-2.16084

>  <SCORE.INTRA>
0.427182

>  <SCORE.INTRA.DIHEDRAL>
-3.12647e-06

>  <SCORE.INTRA.DIHEDRAL.0>
3.60016

>  <SCORE.INTRA.POLAR>
0

>  <SCORE.INTRA.POLAR.0>
0

>  <SCORE.INTRA.REPUL>
0

>  <SCORE.INTRA.REPUL.0>
0

>  <SCORE.INTRA.SOLV>
4.95411e-05

>  <SCORE.INTRA.SOLV.lig_0>
-10.9882

>  <SCORE.INTRA.VDW>
0.427159

>  <SCORE.INTRA.VDW.0>
1.84442

>  <SCORE.INTRA.norm>
0.0164301

>  <SCORE.RESTR>
0

>  <SCORE.RESTR.CAVITY>
0

>  <SCORE.RESTR.norm>
0

>  <SCORE.SYSTEM>
0

>  <SCORE.SYSTEM.CONST>
0

>  <SCORE.SYSTEM.DIHEDRAL>
0

>  <SCORE.SYSTEM.SOLV>
0

>  <SCORE.SYSTEM.norm>
0

>  <SCORE.heavy>
26

>  <SCORE.norm>
-2.14441

>  <RMSD>
0.737

$$$$
ligand
 OpenBabel02271912153D
libRbt.so/2013.1/901 2013/11/27
 26 29  0  0  0  0  0  0  0  0999 V2000
  112.1773  -79.4574  -87.0027 C   0  0  1  0  0  0  0  0  0  0  0  0
  112.6994  -80.6922  -87.3602 N   0  0  0  0  0  0  0  0  0  0  0  0
  112.3077  -78.9803  -85.6338 C   0  0  0  0  0  0  0  0  0  0  0  0
  111.2595  -74.2081  -80.7066 N   0  0  0  0  0  0  0  0  0  0  0  0
  111.8905  -77.2865  -84.0193 O   0  0  0  0  0  0  0  0  0  0  0  0
  111.7297  -77.7252  -85.4340 C   0  0  2  0  0  0  0  0  0  0  0  0
  111.3504  -76.1440  -83.8435 C   0  0  1  0  0  0  0  0  0  0  0  0
  111.5700  -75.7995  -82.4390 C   0  0  0  0  0  0  0  0  0  0  0  0
  111.0132  -74.5290  -82.0525 C   0  0  2  0  0  0  0  0  0  0  0  0
  110.3054  -73.6982  -82.9561 C   0  0  0  0  0  0  0  0  0  0  0  0
  110.1297  -74.0940  -84.3411 C   0  0  0  0  0  0  0  0  0  0  0  0
  110.6919  -75.3564  -84.7541 C   0  0  2  0  0  0  0  0  0  0  0  0
  110.4775  -75.6836  -86.2132 C   0  0  1  0  0  0  0  0  0  0  0  0
  111.0782  -76.9441  -86.3821 C   0  0  2  0  0  0  0  0  0  0  0  0
  110.9634  -77.4387  -87.7559 C   0  0  0  0  0  0  0  0  0  0  0  0
  111.5446  -78.7236  -87.9873 C   0  0  0  0  0  0  0  0  0  0  0  0
  109.8125  -74.8427  -87.0852 C   0  0  0  0  0  0  0  0  0  0  0  0
  108.7136  -75.2057  -87.8982 C   0  0  0  0  0  0  0  0  0  0  0  0
  108.0195  -74.3657  -88.7709 C   0  0  0  0  0  0  0  0  0  0  0  0
  108.4181  -72.9719  -88.8971 C   0  0  0  0  0  0  0  0  0  0  0  0
  109.5265  -72.6438  -88.0798 C   0  0  0  0  0  0  0  0  0  0  0  0
  110.2536  -73.4525  -87.1955 C   0  0  0  0  0  0  0  0  0  0  0  0
  112.7609  -81.1365  -88.7499 C   0  0  0  0  0  0  0  0  0  0  0  0
  113.2599  -81.7067  -86.4424 C   0  0  0  0  0  0  0  0  0  0  0  0
  111.8796  -74.9834  -79.6091 C   0  0  0  0  0  0  0  0  0  0  0  0
  110.8572  -72.8340  -80.2408 C   0  0  0  0  0  0  0  0  0  0  0  0
  1  2  1  6  0  0  0
  1  3  1  0  0  0  0
  1 16  1  0  0  0  0
  2 23  1  0  0  0  0
  2 24  1  0  0  0  0
  4 25  1  0  0  0  0
  4 26  1  0  0  0  0
  5  6  1  0  0  0  0
  6  3  1  1  0  0  0
  6 14  1  0  0  0  0
  7  5  1  6  0  0  0
  7  8  1  0  0  0  0
  7 12  1  0  0  0  0
  8  9  1  0  0  0  0
  9  4  1  6  0  0  0
  9 10  1  0  0  0  0
 10 11  1  0  0  0  0
 12 11  1  1  0  0  0
 12 13  1  0  0  0  0
 13 14  1  0  0  0  0
 13 17  1  1  0  0  0
 14 15  1  1  0  0  0
 15 16  1  0  0  0  0
 17 18  1  0  0  0  0
 17 22  1  0  0  0  0
 18 19  1  0  0  0  0
 19 20  1  0  0  0  0
 20 21  1  0  0  0  0
 21 22  1  0  0  0  0
M  END
>  <CHROM.1>
-171.35170072,-5.86900077,-126.33138282,111.01839010,-76.27067441,-85.35976315
-1.24915749,-1.05469103,1.05617430

>  <Name>
ligand

>  <RI>
0

>  <Rbt.Current_Directory>
/home/itssahil/PROJECTS/Mol_Feturizer/Test_systems_manuscript/rnas/1f1t

>  <Rbt.Executable>
rbdock ($Id: //depot/dev/client3/rdock/2013.1/src/exe/rbdock.cxx#4 $)

>  <Rbt.Library>
libRbt.so (2013.1, Build901 2013/11/27)

>  <Rbt.Parameter_File>
/export/apps/rDock/src/rDock_2013.1_src/data/scripts/dock_solv.prm

>  <Rbt.Receptor>
prm/pocket_docking_7.prm

>  <SCORE>
-55.614

>  <SCORE.INTER>
-56.0763

>  <SCORE.INTER.CONST>
1

>  <SCORE.INTER.POLAR>
0

>  <SCORE.INTER.ROT>
3

>  <SCORE.INTER.SOLV>
8.89251

>  <SCORE.INTER.VDW>
-45.9484

>  <SCORE.INTER.norm>
-2.15678

>  <SCORE.INTRA>
0.462332

>  <SCORE.INTRA.DIHEDRAL>
-8.29611e-06

>  <SCORE.INTRA.DIHEDRAL.0>
3.60016

>  <SCORE.INTRA.POLAR>
0

>  <SCORE.INTRA.POLAR.0>
0

>  <SCORE.INTRA.REPUL>
0

>  <SCORE.INTRA.REPUL.0>
0

>  <SCORE.INTRA.SOLV>
3.26867e-05

>  <SCORE.INTRA.SOLV.lig_0>
-10.9882

>  <SCORE.INTRA.VDW>
0.462319

>  <SCORE.INTRA.VDW.0>
1.84442

>  <SCORE.INTRA.norm>
0.017782

>  <SCORE.RESTR>
0

>  <SCORE.RESTR.CAVITY>
0

>  <SCORE.RESTR.norm>
0

>  <SCORE.SYSTEM>
0

>  <SCORE.SYSTEM.CONST>
0

>  <SCORE.SYSTEM.DIHEDRAL>
0

>  <SCORE.SYSTEM.SOLV>
0

>  <SCORE.SYSTEM.norm>
0

>  <SCORE.heavy>
26

>  <SCORE.norm>
-2.139

>  <RMSD>
0.737

$$$$
ligand
 OpenBabel02271912153D
libRbt.so/2013.1/901 2013/11/27
 26 29  0  0  0  0  0  0  0  0999 V2000
  111.1969  -74.7236  -82.0143 C   0  0  1  0  0  0  0  0  0  0  0  0
  111.3836  -74.3644  -80.6872 N   0  0  0  0  0  0  0  0  0  0  0  0
  111.7142  -75.9925  -82.5050 C   0  0  0  0  0  0  0  0  0  0  0  0
  112.6839  -80.6434  -87.5625 N   0  0  0  0  0  0  0  0  0  0  0  0
  111.9989  -77.5148  -84.3080 O   0  0  0  0  0  0  0  0  0  0  0  0
  111.4478  -76.2056  -83.8588 C   0  0  2  0  0  0  0  0  0  0  0  0
  111.7601  -77.6963  -85.5482 C   0  0  1  0  0  0  0  0  0  0  0  0
  112.3259  -79.0020  -85.8869 C   0  0  0  0  0  0  0  0  0  0  0  0
  112.1560  -79.3748  -87.2674 C   0  0  2  0  0  0  0  0  0  0  0  0
  111.5082  -78.5391  -88.2105 C   0  0  0  0  0  0  0  0  0  0  0  0
  110.9597  -77.2573  -87.8080 C   0  0  0  0  0  0  0  0  0  0  0  0
  111.1055  -76.8697  -86.4264 C   0  0  2  0  0  0  0  0  0  0  0  0
  110.4931  -75.5305  -86.0895 C   0  0  1  0  0  0  0  0  0  0  0  0
  110.7696  -75.3522  -84.7221 C   0  0  2  0  0  0  0  0  0  0  0  0
  110.2505  -74.0830  -84.2075 C   0  0  0  0  0  0  0  0  0  0  0  0
  110.5122  -73.8383  -82.8240 C   0  0  0  0  0  0  0  0  0  0  0  0
  109.8361  -74.7462  -87.0186 C   0  0  0  0  0  0  0  0  0  0  0  0
  108.7935  -75.1811  -87.8696 C   0  0  0  0  0  0  0  0  0  0  0  0
  108.1075  -74.3990  -88.8005 C   0  0  0  0  0  0  0  0  0  0  0  0
  108.4533  -72.9937  -88.9534 C   0  0  0  0  0  0  0  0  0  0  0  0
  109.5066  -72.5932  -88.0966 C   0  0  0  0  0  0  0  0  0  0  0  0
  110.2237  -73.3423  -87.1535 C   0  0  0  0  0  0  0  0  0  0  0  0
  110.9754  -73.0610  -80.1706 C   0  0  0  0  0  0  0  0  0  0  0  0
  111.9869  -75.2014  -79.6283 C   0  0  0  0  0  0  0  0  0  0  0  0
  113.2371  -81.7046  -86.6917 C   0  0  0  0  0  0  0  0  0  0  0  0
  112.7011  -81.0635  -89.0083 C   0  0  0  0  0  0  0  0  0  0  0  0
  1  2  1  1  0  0  0
  1  3  1  0  0  0  0
  1 16  1  0  0  0  0
  2 23  1  0  0  0  0
  2 24  1  0  0  0  0
  4 25  1  0  0  0  0
  4 26  1  0  0  0  0
  5  6  1  0  0  0  0
  6  3  1  6  0  0  0
  6 14  1  0  0  0  0
  7  5  1  1  0  0  0
  7  8  1  0  0  0  0
  7 12  1  0  0  0  0
  8  9  1  0  0  0  0
  9  4  1  1  0  0  0
  9 10  1  0  0  0  0
 10 11  1  0  0  0  0
 12 11  1  6  0  0  0
 12 13  1  0  0  0  0
 13 14  1  0  0  0  0
 13 17  1  6  0  0  0
 14 15  1  6  0  0  0
 15 16  1  0  0  0  0
 17 18  1  0  0  0  0
 17 22  1  0  0  0  0
 18 19  1  0  0  0  0
 19 20  1  0  0  0  0
 20 21  1  0  0  0  0
 21 22  1  0  0  0  0
M  END
>  <CHROM.1>
175.21614722,7.73972103,51.49219621,111.07214646,-76.29078677,-85.42149660
-1.83477852,1.05591923,-2.07831552

>  <Name>
ligand

>  <RI>
0

>  <Rbt.Current_Directory>
/home/itssahil/PROJECTS/Mol_Feturizer/Test_systems_manuscript/rnas/1f1t

>  <Rbt.Executable>
rbdock ($Id: //depot/dev/client3/rdock/2013.1/src/exe/rbdock.cxx#4 $)

>  <Rbt.Library>
libRbt.so (2013.1, Build901 2013/11/27)

>  <Rbt.Parameter_File>
/export/apps/rDock/src/rDock_2013.1_src/data/scripts/dock_solv.prm

>  <Rbt.Receptor>
prm/pocket_docking_8.prm

>  <SCORE>
-55.9491

>  <SCORE.INTER>
-56.4251

>  <SCORE.INTER.CONST>
1

>  <SCORE.INTER.POLAR>
0

>  <SCORE.INTER.ROT>
3

>  <SCORE.INTER.SOLV>
8.89317

>  <SCORE.INTER.VDW>
-46.1811

>  <SCORE.INTER.norm>
-2.1702

>  <SCORE.INTRA>
0.475971

>  <SCORE.INTRA.DIHEDRAL>
0.000266178

>  <SCORE.INTRA.DIHEDRAL.0>
3.60016

>  <SCORE.INTRA.POLAR>
0

>  <SCORE.INTRA.POLAR.0>
0

>  <SCORE.INTRA.REPUL>
0

>  <SCORE.INTRA.REPUL.0>
0

>  <SCORE.INTRA.SOLV>
2.95907e-05

>  <SCORE.INTRA.SOLV.lig_0>
-10.9882

>  <SCORE.INTRA.VDW>
0.475823

>  <SCORE.INTRA.VDW.0>
1.84442

>  <SCORE.INTRA.norm>
0.0183066

>  <SCORE.RESTR>
0

>  <SCORE.RESTR.CAVITY>
0

>  <SCORE.RESTR.norm>
0

>  <SCORE.SYSTEM>
0

>  <SCORE.SYSTEM.CONST>
0

>  <SCORE.SYSTEM.DIHEDRAL>
0

>  <SCORE.SYSTEM.SOLV>
0

>  <SCORE.SYSTEM.norm>
0

>  <SCORE.heavy>
26

>  <SCORE.norm>
-2.15189

>  <RMSD>
0.737

$$$$
ligand
 OpenBabel02271912153D
libRbt.so/2013.1/901 2013/11/27
 26 29  0  0  0  0  0  0  0  0999 V2000
  111.2803  -74.7436  -81.9474 C   0  0  1  0  0  0  0  0  0  0  0  0
  111.4564  -74.4116  -80.6118 N   0  0  0  0  0  0  0  0  0  0  0  0
  111.7691  -76.0185  -82.4515 C   0  0  0  0  0  0  0  0  0  0  0  0
  112.6855  -80.6118  -87.5712 N   0  0  0  0  0  0  0  0  0  0  0  0
  112.0387  -77.5187  -84.2753 O   0  0  0  0  0  0  0  0  0  0  0  0
  111.5179  -76.2017  -83.8126 C   0  0  2  0  0  0  0  0  0  0  0  0
  111.8143  -77.6729  -85.5218 C   0  0  1  0  0  0  0  0  0  0  0  0
  112.3480  -78.9885  -85.8738 C   0  0  0  0  0  0  0  0  0  0  0  0
  112.1892  -79.3336  -87.2628 C   0  0  2  0  0  0  0  0  0  0  0  0
  111.5802  -78.4644  -88.2014 C   0  0  0  0  0  0  0  0  0  0  0  0
  111.0619  -77.1743  -87.7858 C   0  0  0  0  0  0  0  0  0  0  0  0
  111.1971  -76.8137  -86.3959 C   0  0  2  0  0  0  0  0  0  0  0  0
  110.6177  -75.4632  -86.0458 C   0  0  1  0  0  0  0  0  0  0  0  0
  110.8777  -75.3152  -84.6715 C   0  0  2  0  0  0  0  0  0  0  0  0
  110.3868  -74.0404  -84.1436 C   0  0  0  0  0  0  0  0  0  0  0  0
  110.6337  -73.8259  -82.7524 C   0  0  0  0  0  0  0  0  0  0  0  0
  109.9978  -74.6453  -86.9714 C   0  0  0  0  0  0  0  0  0  0  0  0
  110.3049  -73.2837  -87.1996 C   0  0  0  0  0  0  0  0  0  0  0  0
  109.7017  -72.4481  -88.1412 C   0  0  0  0  0  0  0  0  0  0  0  0
  108.6509  -72.9731  -89.0003 C   0  0  0  0  0  0  0  0  0  0  0  0
  108.3597  -74.3336  -88.7394 C   0  0  0  0  0  0  0  0  0  0  0  0
  108.9349  -75.2061  -87.8051 C   0  0  0  0  0  0  0  0  0  0  0  0
  112.0919  -75.3213  -79.6627 C   0  0  0  0  0  0  0  0  0  0  0  0
  111.0593  -73.1438  -79.9632 C   0  0  0  0  0  0  0  0  0  0  0  0
  113.2453  -81.6816  -86.7153 C   0  0  0  0  0  0  0  0  0  0  0  0
  112.6526  -81.0339  -89.0161 C   0  0  0  0  0  0  0  0  0  0  0  0
  1  2  1  1  0  0  0
  1  3  1  0  0  0  0
  1 16  1  0  0  0  0
  2 23  1  0  0  0  0
  2 24  1  0  0  0  0
  4 25  1  0  0  0  0
  4 26  1  0  0  0  0
  5  6  1  0  0  0  0
  6  3  1  6  0  0  0
  6 14  1  0  0  0  0
  7  5  1  1  0  0  0
  7  8  1  0  0  0  0
  7 12  1  0  0  0  0
  8  9  1  0  0  0  0
  9  4  1  1  0  0  0
  9 10  1  0  0  0  0
 10 11  1  0  0  0  0
 12 11  1  6  0  0  0
 12 13  1  0  0  0  0
 13 14  1  0  0  0  0
 13 17  1  6  0  0  0
 14 15  1  6  0  0  0
 15 16  1  0  0  0  0
 17 18  1  0  0  0  0
 17 22  1  0  0  0  0
 18 19  1  0  0  0  0
 19 20  1  0  0  0  0
 20 21  1  0  0  0  0
 21 22  1  0  0  0  0
M  END
>  <CHROM.1>
-1.74709199,4.89917847,-128.32503904,111.15994476,-76.27043692,-85.39128577
-1.81216199,1.08237159,-2.06668093

>  <Name>
ligand

>  <RI>
0

>  <Rbt.Current_Directory>
/home/itssahil/PROJECTS/Mol_Feturizer/Test_systems_manuscript/rnas/1f1t

>  <Rbt.Executable>
rbdock ($Id: //depot/dev/client3/rdock/2013.1/src/exe/rbdock.cxx#4 $)

>  <Rbt.Library>
libRbt.so (2013.1, Build901 2013/11/27)

>  <Rbt.Parameter_File>
/export/apps/rDock/src/rDock_2013.1_src/data/scripts/dock_solv.prm

>  <Rbt.Receptor>
prm/pocket_docking_2.prm

>  <SCORE>
-56.3336

>  <SCORE.INTER>
-56.6491

>  <SCORE.INTER.CONST>
1

>  <SCORE.INTER.POLAR>
0

>  <SCORE.INTER.ROT>
3

>  <SCORE.INTER.SOLV>
9.08607

>  <SCORE.INTER.VDW>
-46.3947

>  <SCORE.INTER.norm>
-2.17881

>  <SCORE.INTRA>
0.315491

>  <SCORE.INTRA.DIHEDRAL>
-9.49785e-06

>  <SCORE.INTRA.DIHEDRAL.0>
3.60016

>  <SCORE.INTRA.POLAR>
0

>  <SCORE.INTRA.POLAR.0>
0

>  <SCORE.INTRA.REPUL>
0

>  <SCORE.INTRA.REPUL.0>
0

>  <SCORE.INTRA.SOLV>
9.71136e-06

>  <SCORE.INTRA.SOLV.lig_0>
-10.9882

>  <SCORE.INTRA.VDW>
0.315491

>  <SCORE.INTRA.VDW.0>
1.84442

>  <SCORE.INTRA.norm>
0.0121343

>  <SCORE.RESTR>
0

>  <SCORE.RESTR.CAVITY>
0

>  <SCORE.RESTR.norm>
0

>  <SCORE.SYSTEM>
0

>  <SCORE.SYSTEM.CONST>
0

>  <SCORE.SYSTEM.DIHEDRAL>
0

>  <SCORE.SYSTEM.SOLV>
0

>  <SCORE.SYSTEM.norm>
0

>  <SCORE.heavy>
26

>  <SCORE.norm>
-2.16668

>  <RMSD>
0.738

$$$$
ligand
 OpenBabel02271912153D
libRbt.so/2013.1/901 2013/11/27
 26 29  0  0  0  0  0  0  0  0999 V2000
  111.2668  -74.6255  -81.8934 C   0  0  1  0  0  0  0  0  0  0  0  0
  111.4460  -74.2860  -80.5600 N   0  0  0  0  0  0  0  0  0  0  0  0
  111.7623  -75.8994  -82.3934 C   0  0  0  0  0  0  0  0  0  0  0  0
  112.6895  -80.5104  -87.4953 N   0  0  0  0  0  0  0  0  0  0  0  0
  112.0348  -77.4062  -84.2113 O   0  0  0  0  0  0  0  0  0  0  0  0
  111.5068  -76.0908  -83.7526 C   0  0  2  0  0  0  0  0  0  0  0  0
  111.8063  -77.5679  -85.4562 C   0  0  1  0  0  0  0  0  0  0  0  0
  112.3477  -78.8815  -85.8042 C   0  0  0  0  0  0  0  0  0  0  0  0
  112.1856  -79.2342  -87.1909 C   0  0  2  0  0  0  0  0  0  0  0  0
  111.5668  -78.3736  -88.1311 C   0  0  0  0  0  0  0  0  0  0  0  0
  111.0414  -77.0851  -87.7194 C   0  0  0  0  0  0  0  0  0  0  0  0
  111.1797  -76.7171  -86.3317 C   0  0  2  0  0  0  0  0  0  0  0  0
  110.5924  -75.3690  -85.9856 C   0  0  1  0  0  0  0  0  0  0  0  0
  110.8570  -75.2128  -84.6130 C   0  0  2  0  0  0  0  0  0  0  0  0
  110.3595  -73.9389  -84.0891 C   0  0  0  0  0  0  0  0  0  0  0  0
  110.6106  -73.7161  -82.6999 C   0  0  0  0  0  0  0  0  0  0  0  0
  109.9631  -74.5597  -86.9124 C   0  0  0  0  0  0  0  0  0  0  0  0
  110.3061  -73.2175  -87.1974 C   0  0  0  0  0  0  0  0  0  0  0  0
  109.6933  -72.3917  -88.1415 C   0  0  0  0  0  0  0  0  0  0  0  0
  108.5915  -72.9068  -88.9405 C   0  0  0  0  0  0  0  0  0  0  0  0
  108.2659  -74.2475  -88.6235 C   0  0  0  0  0  0  0  0  0  0  0  0
  108.8490  -75.1094  -87.6845 C   0  0  0  0  0  0  0  0  0  0  0  0
  112.0686  -75.1970  -79.6036 C   0  0  0  0  0  0  0  0  0  0  0  0
  111.0650  -73.0083  -79.9211 C   0  0  0  0  0  0  0  0  0  0  0  0
  113.2337  -81.5834  -86.6335 C   0  0  0  0  0  0  0  0  0  0  0  0
  112.6854  -80.9259  -88.9425 C   0  0  0  0  0  0  0  0  0  0  0  0
  1  2  1  1  0  0  0
  1  3  1  0  0  0  0
  1 16  1  0  0  0  0
  2 23  1  0  0  0  0
  2 24  1  0  0  0  0
  4 25  1  0  0  0  0
  4 26  1  0  0  0  0
  5  6  1  0  0  0  0
  6  3  1  6  0  0  0
  6 14  1  0  0  0  0
  7  5  1  1  0  0  0
  7  8  1  0  0  0  0
  7 12  1  0  0  0  0
  8  9  1  0  0  0  0
  9  4  1  1  0  0  0
  9 10  1  0  0  0  0
 10 11  1  0  0  0  0
 12 11  1  6  0  0  0
 12 13  1  0  0  0  0
 13 14  1  0  0  0  0
 13 17  1  6  0  0  0
 14 15  1  6  0  0  0
 15 16  1  0  0  0  0
 17 18  1  0  0  0  0
 17 22  1  0  0  0  0
 18 19  1  0  0  0  0
 19 20  1  0  0  0  0
 20 21  1  0  0  0  0
 21 22  1  0  0  0  0
M  END
>  <CHROM.1>
-2.94341525,6.39491702,-124.81971185,111.14259070,-76.16926903,-85.32917984
-1.81266047,1.07465831,-2.07071766

>  <Name>
ligand

>  <RI>
0

>  <Rbt.Current_Directory>
/home/itssahil/PROJECTS/Mol_Feturizer/Test_systems_manuscript/rnas/1f1t

>  <Rbt.Executable>
rbdock ($Id: //depot/dev/client3/rdock/2013.1/src/exe/rbdock.cxx#4 $)

>  <Rbt.Library>
libRbt.so (2013.1, Build901 2013/11/27)

>  <Rbt.Parameter_File>
/export/apps/rDock/src/rDock_2013.1_src/data/scripts/dock_solv.prm

>  <Rbt.Receptor>
prm/pocket_docking_2.prm

>  <SCORE>
-56.4458

>  <SCORE.INTER>
-56.6299

>  <SCORE.INTER.CONST>
1

>  <SCORE.INTER.POLAR>
0

>  <SCORE.INTER.ROT>
3

>  <SCORE.INTER.SOLV>
9.20657

>  <SCORE.INTER.VDW>
-46.4221

>  <SCORE.INTER.norm>
-2.17807

>  <SCORE.INTRA>
0.184083

>  <SCORE.INTRA.DIHEDRAL>
-2.61227e-05

>  <SCORE.INTRA.DIHEDRAL.0>
3.60016

>  <SCORE.INTRA.POLAR>
0

>  <SCORE.INTRA.POLAR.0>
0

>  <SCORE.INTRA.REPUL>
0

>  <SCORE.INTRA.REPUL.0>
0

>  <SCORE.INTRA.SOLV>
1.76027e-05

>  <SCORE.INTRA.SOLV.lig_0>
-10.9882

>  <SCORE.INTRA.VDW>
0.184087

>  <SCORE.INTRA.VDW.0>
1.84442

>  <SCORE.INTRA.norm>
0.0070801

>  <SCORE.RESTR>
0

>  <SCORE.RESTR.CAVITY>
0

>  <SCORE.RESTR.norm>
0

>  <SCORE.SYSTEM>
0

>  <SCORE.SYSTEM.CONST>
0

>  <SCORE.SYSTEM.DIHEDRAL>
0

>  <SCORE.SYSTEM.SOLV>
0

>  <SCORE.SYSTEM.norm>
0

>  <SCORE.heavy>
26

>  <SCORE.norm>
-2.17099

>  <RMSD>
0.738

$$$$
ligand
 OpenBabel02271912153D
libRbt.so/2013.1/901 2013/11/27
 26 29  0  0  0  0  0  0  0  0999 V2000
  111.2375  -74.6714  -81.9589 C   0  0  1  0  0  0  0  0  0  0  0  0
  111.4187  -74.3240  -80.6278 N   0  0  0  0  0  0  0  0  0  0  0  0
  111.7340  -75.9474  -82.4525 C   0  0  0  0  0  0  0  0  0  0  0  0
  112.6587  -80.5863  -87.5295 N   0  0  0  0  0  0  0  0  0  0  0  0
  112.0054  -77.4642  -84.2622 O   0  0  0  0  0  0  0  0  0  0  0  0
  111.4763  -76.1470  -83.8101 C   0  0  2  0  0  0  0  0  0  0  0  0
  111.7748  -77.6334  -85.5057 C   0  0  1  0  0  0  0  0  0  0  0  0
  112.3176  -78.9481  -85.8471 C   0  0  0  0  0  0  0  0  0  0  0  0
  112.1534  -79.3091  -87.2314 C   0  0  2  0  0  0  0  0  0  0  0  0
  111.5315  -78.4549  -88.1754 C   0  0  0  0  0  0  0  0  0  0  0  0
  111.0049  -77.1649  -87.7702 C   0  0  0  0  0  0  0  0  0  0  0  0
  111.1453  -76.7886  -86.3849 C   0  0  2  0  0  0  0  0  0  0  0  0
  110.5566  -75.4395  -86.0454 C   0  0  1  0  0  0  0  0  0  0  0  0
  110.8235  -75.2749  -84.6743 C   0  0  2  0  0  0  0  0  0  0  0  0
  110.3250  -73.9988  -84.1568 C   0  0  0  0  0  0  0  0  0  0  0  0
  110.5784  -73.7677  -82.7694 C   0  0  0  0  0  0  0  0  0  0  0  0
  109.9243  -74.6365  -86.9757 C   0  0  0  0  0  0  0  0  0  0  0  0
  110.2543  -73.2904  -87.2576 C   0  0  0  0  0  0  0  0  0  0  0  0
  109.6385  -72.4707  -88.2051 C   0  0  0  0  0  0  0  0  0  0  0  0
  108.5475  -72.9973  -89.0115 C   0  0  0  0  0  0  0  0  0  0  0  0
  108.2346  -74.3417  -88.6974 C   0  0  0  0  0  0  0  0  0  0  0  0
  108.8212  -75.1978  -87.7552 C   0  0  0  0  0  0  0  0  0  0  0  0
  112.0728  -75.2159  -79.6745 C   0  0  0  0  0  0  0  0  0  0  0  0
  111.0096  -73.0551  -79.9888 C   0  0  0  0  0  0  0  0  0  0  0  0
  113.2231  -81.6463  -86.6646 C   0  0  0  0  0  0  0  0  0  0  0  0
  112.6320  -81.0189  -88.9714 C   0  0  0  0  0  0  0  0  0  0  0  0
  1  2  1  1  0  0  0
  1  3  1  0  0  0  0
  1 16  1  0  0  0  0
  2 23  1  0  0  0  0
  2 24  1  0  0  0  0
  4 25  1  0  0  0  0
  4 26  1  0  0  0  0
  5  6  1  0  0  0  0
  6  3  1  6  0  0  0
  6 14  1  0  0  0  0
  7  5  1  1  0  0  0
  7  8  1  0  0  0  0
  7 12  1  0  0  0  0
  8  9  1  0  0  0  0
  9  4  1  1  0  0  0
  9 10  1  0  0  0  0
 10 11  1  0  0  0  0
 12 11  1  6  0  0  0
 12 13  1  0  0  0  0
 13 14  1  0  0  0  0
 13 17  1  6  0  0  0
 14 15  1  6  0  0  0
 15 16  1  0  0  0  0
 17 18  1  0  0  0  0
 17 22  1  0  0  0  0
 18 19  1  0  0  0  0
 19 20  1  0  0  0  0
 20 21  1  0  0  0  0
 21 22  1  0  0  0  0
M  END
>  <CHROM.1>
-1.47210844,5.43229598,-125.62807897,111.10920096,-76.23514809,-85.38554495
-1.81017748,1.07180032,-2.07876583

>  <Name>
ligand

>  <RI>
0

>  <Rbt.Current_Directory>
/home/itssahil/PROJECTS/Mol_Feturizer/Test_systems_manuscript/rnas/1f1t

>  <Rbt.Executable>
rbdock ($Id: //depot/dev/client3/rdock/2013.1/src/exe/rbdock.cxx#4 $)

>  <Rbt.Library>
libRbt.so (2013.1, Build901 2013/11/27)

>  <Rbt.Parameter_File>
/export/apps/rDock/src/rDock_2013.1_src/data/scripts/dock_solv.prm

>  <Rbt.Receptor>
prm/pocket_docking_3.prm

>  <SCORE>
-56.3269

>  <SCORE.INTER>
-56.5508

>  <SCORE.INTER.CONST>
1

>  <SCORE.INTER.POLAR>
0

>  <SCORE.INTER.ROT>
3

>  <SCORE.INTER.SOLV>
9.04339

>  <SCORE.INTER.VDW>
-46.315

>  <SCORE.INTER.norm>
-2.17503

>  <SCORE.INTRA>
0.223898

>  <SCORE.INTRA.DIHEDRAL>
-1.98133e-05

>  <SCORE.INTRA.DIHEDRAL.0>
3.60016

>  <SCORE.INTRA.POLAR>
0

>  <SCORE.INTRA.POLAR.0>
0

>  <SCORE.INTRA.REPUL>
0

>  <SCORE.INTRA.REPUL.0>
0

>  <SCORE.INTRA.SOLV>
1.08997e-05

>  <SCORE.INTRA.SOLV.lig_0>
-10.9882

>  <SCORE.INTRA.VDW>
0.223903

>  <SCORE.INTRA.VDW.0>
1.84442

>  <SCORE.INTRA.norm>
0.00861148

>  <SCORE.RESTR>
0

>  <SCORE.RESTR.CAVITY>
0

>  <SCORE.RESTR.norm>
0

>  <SCORE.SYSTEM>
0

>  <SCORE.SYSTEM.CONST>
0

>  <SCORE.SYSTEM.DIHEDRAL>
0

>  <SCORE.SYSTEM.SOLV>
0

>  <SCORE.SYSTEM.norm>
0

>  <SCORE.heavy>
26

>  <SCORE.norm>
-2.16642

>  <RMSD>
0.738

$$$$
ligand
 OpenBabel02271912153D
libRbt.so/2013.1/901 2013/11/27
 26 29  0  0  0  0  0  0  0  0999 V2000
  112.2593  -79.4753  -87.1302 C   0  0  1  0  0  0  0  0  0  0  0  0
  112.7955  -80.6982  -87.5072 N   0  0  0  0  0  0  0  0  0  0  0  0
  112.3851  -79.0183  -85.7541 C   0  0  0  0  0  0  0  0  0  0  0  0
  111.2845  -74.3361  -80.7524 N   0  0  0  0  0  0  0  0  0  0  0  0
  111.9492  -77.3549  -84.1131 O   0  0  0  0  0  0  0  0  0  0  0  0
  111.7926  -77.7732  -85.5344 C   0  0  2  0  0  0  0  0  0  0  0  0
  111.3960  -76.2216  -83.9193 C   0  0  1  0  0  0  0  0  0  0  0  0
  111.6124  -75.8966  -82.5096 C   0  0  0  0  0  0  0  0  0  0  0  0
  111.0411  -74.6388  -82.1031 C   0  0  2  0  0  0  0  0  0  0  0  0
  110.3232  -73.8023  -82.9932 C   0  0  0  0  0  0  0  0  0  0  0  0
  110.1512  -74.1783  -84.3842 C   0  0  0  0  0  0  0  0  0  0  0  0
  110.7278  -75.4275  -84.8171 C   0  0  2  0  0  0  0  0  0  0  0  0
  110.5163  -75.7344  -86.2810 C   0  0  1  0  0  0  0  0  0  0  0  0
  111.1315  -76.9850  -86.4699 C   0  0  2  0  0  0  0  0  0  0  0  0
  111.0217  -77.4593  -87.8512 C   0  0  0  0  0  0  0  0  0  0  0  0
  111.6176  -78.7337  -88.1029 C   0  0  0  0  0  0  0  0  0  0  0  0
  109.8411  -74.8877  -87.1395 C   0  0  0  0  0  0  0  0  0  0  0  0
  108.7638  -75.2573  -87.9782 C   0  0  0  0  0  0  0  0  0  0  0  0
  108.0595  -74.4123  -88.8378 C   0  0  0  0  0  0  0  0  0  0  0  0
  108.4221  -73.0054  -88.9201 C   0  0  0  0  0  0  0  0  0  0  0  0
  109.5096  -72.6706  -88.0780 C   0  0  0  0  0  0  0  0  0  0  0  0
  110.2460  -73.4837  -87.2054 C   0  0  0  0  0  0  0  0  0  0  0  0
  113.2818  -81.6676  -86.5294 C   0  0  0  0  0  0  0  0  0  0  0  0
  112.9470  -81.2011  -88.8892 C   0  0  0  0  0  0  0  0  0  0  0  0
  110.9888  -73.1304  -79.9468 C   0  0  0  0  0  0  0  0  0  0  0  0
  111.9487  -75.3980  -79.9168 C   0  0  0  0  0  0  0  0  0  0  0  0
  1  2  1  6  0  0  0
  1  3  1  0  0  0  0
  1 16  1  0  0  0  0
  2 23  1  0  0  0  0
  2 24  1  0  0  0  0
  4 25  1  0  0  0  0
  4 26  1  0  0  0  0
  5  6  1  0  0  0  0
  6  3  1  1  0  0  0
  6 14  1  0  0  0  0
  7  5  1  6  0  0  0
  7  8  1  0  0  0  0
  7 12  1  0  0  0  0
  8  9  1  0  0  0  0
  9  4  1  6  0  0  0
  9 10  1  0  0  0  0
 10 11  1  0  0  0  0
 12 11  1  1  0  0  0
 12 13  1  0  0  0  0
 13 14  1  0  0  0  0
 13 17  1  1  0  0  0
 14 15  1  1  0  0  0
 15 16  1  0  0  0  0
 17 18  1  0  0  0  0
 17 22  1  0  0  0  0
 18 19  1  0  0  0  0
 19 20  1  0  0  0  0
 20 21  1  0  0  0  0
 21 22  1  0  0  0  0
M  END
>  <CHROM.1>
11.11026556,174.49361777,-127.72656927,111.07138229,-76.34925260,-85.42977799
-1.24527007,-1.04604835,1.08409431

>  <Name>
ligand

>  <RI>
0

>  <Rbt.Current_Directory>
/home/itssahil/PROJECTS/Mol_Feturizer/Test_systems_manuscript/rnas/1f1t

>  <Rbt.Executable>
rbdock ($Id: //depot/dev/client3/rdock/2013.1/src/exe/rbdock.cxx#4 $)

>  <Rbt.Library>
libRbt.so (2013.1, Build901 2013/11/27)

>  <Rbt.Parameter_File>
/export/apps/rDock/src/rDock_2013.1_src/data/scripts/dock_solv.prm

>  <Rbt.Receptor>
prm/pocket_docking_3.prm

>  <SCORE>
-53.6025

>  <SCORE.INTER>
-56.105

>  <SCORE.INTER.CONST>
1

>  <SCORE.INTER.POLAR>
0

>  <SCORE.INTER.ROT>
3

>  <SCORE.INTER.SOLV>
8.94253

>  <SCORE.INTER.VDW>
-45.9842

>  <SCORE.INTER.norm>
-2.15789

>  <SCORE.INTRA>
2.50253

>  <SCORE.INTRA.DIHEDRAL>
-0.000588662

>  <SCORE.INTRA.DIHEDRAL.0>
3.60016

>  <SCORE.INTRA.POLAR>
0

>  <SCORE.INTRA.POLAR.0>
0

>  <SCORE.INTRA.REPUL>
0

>  <SCORE.INTRA.REPUL.0>
0

>  <SCORE.INTRA.SOLV>
-0.000929436

>  <SCORE.INTRA.SOLV.lig_0>
-10.9882

>  <SCORE.INTRA.VDW>
2.50329

>  <SCORE.INTRA.VDW.0>
1.84442

>  <SCORE.INTRA.norm>
0.0962511

>  <SCORE.RESTR>
0

>  <SCORE.RESTR.CAVITY>
0

>  <SCORE.RESTR.norm>
0

>  <SCORE.SYSTEM>
0

>  <SCORE.SYSTEM.CONST>
0

>  <SCORE.SYSTEM.DIHEDRAL>
0

>  <SCORE.SYSTEM.SOLV>
0

>  <SCORE.SYSTEM.norm>
0

>  <SCORE.heavy>
26

>  <SCORE.norm>
-2.06164

>  <RMSD>
0.738

$$$$
ligand
 OpenBabel02271912153D
libRbt.so/2013.1/901 2013/11/27
 26 29  0  0  0  0  0  0  0  0999 V2000
  111.1976  -74.6949  -81.9403 C   0  0  1  0  0  0  0  0  0  0  0  0
  111.3695  -74.3573  -80.6055 N   0  0  0  0  0  0  0  0  0  0  0  0
  111.7004  -75.9659  -82.4405 C   0  0  0  0  0  0  0  0  0  0  0  0
  112.6688  -80.5634  -87.5469 N   0  0  0  0  0  0  0  0  0  0  0  0
  111.9870  -77.4681  -84.2601 O   0  0  0  0  0  0  0  0  0  0  0  0
  111.4518  -76.1557  -83.8012 C   0  0  2  0  0  0  0  0  0  0  0  0
  111.7648  -77.6283  -85.5062 C   0  0  1  0  0  0  0  0  0  0  0  0
  112.3129  -78.9391  -85.8542 C   0  0  0  0  0  0  0  0  0  0  0  0
  112.1585  -79.2898  -87.2423 C   0  0  2  0  0  0  0  0  0  0  0  0
  111.5405  -78.4299  -88.1837 C   0  0  0  0  0  0  0  0  0  0  0  0
  111.0081  -77.1443  -87.7719 C   0  0  0  0  0  0  0  0  0  0  0  0
  111.1388  -76.7783  -86.3829 C   0  0  2  0  0  0  0  0  0  0  0  0
  110.5446  -75.4333  -86.0369 C   0  0  1  0  0  0  0  0  0  0  0  0
  110.8024  -75.2786  -84.6629 C   0  0  2  0  0  0  0  0  0  0  0  0
  110.2975  -74.0077  -84.1388 C   0  0  0  0  0  0  0  0  0  0  0  0
  110.5414  -73.7866  -82.7481 C   0  0  0  0  0  0  0  0  0  0  0  0
  109.9163  -74.6247  -86.9650 C   0  0  0  0  0  0  0  0  0  0  0  0
  110.2523  -73.2792  -87.2427 C   0  0  0  0  0  0  0  0  0  0  0  0
  109.6405  -72.4539  -88.1880 C   0  0  0  0  0  0  0  0  0  0  0  0
  108.5476  -72.9733  -88.9964 C   0  0  0  0  0  0  0  0  0  0  0  0
  108.2287  -74.3173  -88.6866 C   0  0  0  0  0  0  0  0  0  0  0  0
  108.8111  -75.1788  -87.7467 C   0  0  0  0  0  0  0  0  0  0  0  0
  110.9202  -73.0778  -80.0640 C   0  0  0  0  0  0  0  0  0  0  0  0
  111.9950  -75.1969  -79.5617 C   0  0  0  0  0  0  0  0  0  0  0  0
  113.2341  -81.6271  -86.6871 C   0  0  0  0  0  0  0  0  0  0  0  0
  112.6478  -80.9870  -88.9916 C   0  0  0  0  0  0  0  0  0  0  0  0
  1  2  1  1  0  0  0
  1  3  1  0  0  0  0
  1 16  1  0  0  0  0
  2 23  1  0  0  0  0
  2 24  1  0  0  0  0
  4 25  1  0  0  0  0
  4 26  1  0  0  0  0
  5  6  1  0  0  0  0
  6  3  1  6  0  0  0
  6 14  1  0  0  0  0
  7  5  1  1  0  0  0
  7  8  1  0  0  0  0
  7 12  1  0  0  0  0
  8  9  1  0  0  0  0
  9  4  1  1  0  0  0
  9 10  1  0  0  0  0
 10 11  1  0  0  0  0
 12 11  1  6  0  0  0
 12 13  1  0  0  0  0
 13 14  1  0  0  0  0
 13 17  1  6  0  0  0
 14 15  1  6  0  0  0
 15 16  1  0  0  0  0
 17 18  1  0  0  0  0
 17 22  1  0  0  0  0
 18 19  1  0  0  0  0
 19 20  1  0  0  0  0
 20 21  1  0  0  0  0
 21 22  1  0  0  0  0
M  END
>  <CHROM.1>
178.08856679,5.21573984,-125.04660864,111.09223838,-76.22927411,-85.38008036
-1.82754488,1.07292541,-2.05768548

>  <Name>
ligand

>  <RI>
0

>  <Rbt.Current_Directory>
/home/itssahil/PROJECTS/Mol_Feturizer/Test_systems_manuscript/rnas/1f1t

>  <Rbt.Executable>
rbdock ($Id: //depot/dev/client3/rdock/2013.1/src/exe/rbdock.cxx#4 $)

>  <Rbt.Library>
libRbt.so (2013.1, Build901 2013/11/27)

>  <Rbt.Parameter_File>
/export/apps/rDock/src/rDock_2013.1_src/data/scripts/dock_solv.prm

>  <Rbt.Receptor>
prm/pocket_docking_5.prm

>  <SCORE>
-56.0759

>  <SCORE.INTER>
-56.5876

>  <SCORE.INTER.CONST>
1

>  <SCORE.INTER.POLAR>
0

>  <SCORE.INTER.ROT>
3

>  <SCORE.INTER.SOLV>
9.03411

>  <SCORE.INTER.VDW>
-46.3364

>  <SCORE.INTER.norm>
-2.17645

>  <SCORE.INTRA>
0.511686

>  <SCORE.INTRA.DIHEDRAL>
-6.69474e-06

>  <SCORE.INTRA.DIHEDRAL.0>
3.60016

>  <SCORE.INTRA.POLAR>
0

>  <SCORE.INTRA.POLAR.0>
0

>  <SCORE.INTRA.REPUL>
0

>  <SCORE.INTRA.REPUL.0>
0

>  <SCORE.INTRA.SOLV>
1.07658e-05

>  <SCORE.INTRA.SOLV.lig_0>
-10.9882

>  <SCORE.INTRA.VDW>
0.511684

>  <SCORE.INTRA.VDW.0>
1.84442

>  <SCORE.INTRA.norm>
0.0196802

>  <SCORE.RESTR>
0

>  <SCORE.RESTR.CAVITY>
0

>  <SCORE.RESTR.norm>
0

>  <SCORE.SYSTEM>
0

>  <SCORE.SYSTEM.CONST>
0

>  <SCORE.SYSTEM.DIHEDRAL>
0

>  <SCORE.SYSTEM.SOLV>
0

>  <SCORE.SYSTEM.norm>
0

>  <SCORE.heavy>
26

>  <SCORE.norm>
-2.15677

>  <RMSD>
0.738

$$$$
ligand
 OpenBabel02271912153D
libRbt.so/2013.1/901 2013/11/27
 26 29  0  0  0  0  0  0  0  0999 V2000
  112.2384  -79.4866  -87.1472 C   0  0  1  0  0  0  0  0  0  0  0  0
  112.7613  -80.7122  -87.5342 N   0  0  0  0  0  0  0  0  0  0  0  0
  112.3699  -79.0418  -85.7676 C   0  0  0  0  0  0  0  0  0  0  0  0
  111.3225  -74.3877  -80.7284 N   0  0  0  0  0  0  0  0  0  0  0  0
  111.9528  -77.3868  -84.1133 O   0  0  0  0  0  0  0  0  0  0  0  0
  111.7909  -77.7923  -85.5377 C   0  0  2  0  0  0  0  0  0  0  0  0
  111.4118  -76.2493  -83.9101 C   0  0  1  0  0  0  0  0  0  0  0  0
  111.6326  -75.9377  -82.4980 C   0  0  0  0  0  0  0  0  0  0  0  0
  111.0750  -74.6772  -82.0812 C   0  0  2  0  0  0  0  0  0  0  0  0
  110.3655  -73.8260  -82.9642 C   0  0  0  0  0  0  0  0  0  0  0  0
  110.1886  -74.1893  -84.3580 C   0  0  0  0  0  0  0  0  0  0  0  0
  110.7515  -75.4411  -84.8011 C   0  0  2  0  0  0  0  0  0  0  0  0
  110.5359  -75.7341  -86.2673 C   0  0  1  0  0  0  0  0  0  0  0  0
  111.1376  -76.9897  -86.4665 C   0  0  2  0  0  0  0  0  0  0  0  0
  111.0218  -77.4519  -87.8514 C   0  0  0  0  0  0  0  0  0  0  0  0
  111.6040  -78.7305  -88.1135 C   0  0  0  0  0  0  0  0  0  0  0  0
  109.8692  -74.8735  -87.1186 C   0  0  0  0  0  0  0  0  0  0  0  0
  108.7953  -75.2277  -87.9682 C   0  0  0  0  0  0  0  0  0  0  0  0
  108.0995  -74.3687  -88.8208 C   0  0  0  0  0  0  0  0  0  0  0  0
  108.4683  -72.9624  -88.8827 C   0  0  0  0  0  0  0  0  0  0  0  0
  109.5523  -72.6431  -88.0301 C   0  0  0  0  0  0  0  0  0  0  0  0
  110.2802  -73.4705  -87.1639 C   0  0  0  0  0  0  0  0  0  0  0  0
  113.2733  -81.6785  -86.5666 C   0  0  0  0  0  0  0  0  0  0  0  0
  112.8724  -81.2210  -88.9178 C   0  0  0  0  0  0  0  0  0  0  0  0
  111.9591  -75.1819  -79.6540 C   0  0  0  0  0  0  0  0  0  0  0  0
  110.9018  -73.0324  -80.2252 C   0  0  0  0  0  0  0  0  0  0  0  0
  1  2  1  6  0  0  0
  1  3  1  0  0  0  0
  1 16  1  0  0  0  0
  2 23  1  0  0  0  0
  2 24  1  0  0  0  0
  4 25  1  0  0  0  0
  4 26  1  0  0  0  0
  5  6  1  0  0  0  0
  6  3  1  1  0  0  0
  6 14  1  0  0  0  0
  7  5  1  6  0  0  0
  7  8  1  0  0  0  0
  7 12  1  0  0  0  0
  8  9  1  0  0  0  0
  9  4  1  6  0  0  0
  9 10  1  0  0  0  0
 10 11  1  0  0  0  0
 12 11  1  1  0  0  0
 12 13  1  0  0  0  0
 13 14  1  0  0  0  0
 13 17  1  1  0  0  0
 14 15  1  1  0  0  0
 15 16  1  0  0  0  0
 17 18  1  0  0  0  0
 17 22  1  0  0  0  0
 18 19  1  0  0  0  0
 19 20  1  0  0  0  0
 20 21  1  0  0  0  0
 21 22  1  0  0  0  0
M  END
>  <CHROM.1>
9.30800355,-5.02789637,-128.32826748,111.07786797,-76.34189879,-85.42415512
-1.24868203,-1.05370020,1.07786537

>  <Name>
ligand

>  <RI>
0

>  <Rbt.Current_Directory>
/home/itssahil/PROJECTS/Mol_Feturizer/Test_systems_manuscript/rnas/1f1t

>  <Rbt.Executable>
rbdock ($Id: //depot/dev/client3/rdock/2013.1/src/exe/rbdock.cxx#4 $)

>  <Rbt.Library>
libRbt.so (2013.1, Build901 2013/11/27)

>  <Rbt.Parameter_File>
/export/apps/rDock/src/rDock_2013.1_src/data/scripts/dock_solv.prm

>  <Rbt.Receptor>
prm/pocket_docking_6.prm

>  <SCORE>
-55.96

>  <SCORE.INTER>
-56.1933

>  <SCORE.INTER.CONST>
1

>  <SCORE.INTER.POLAR>
0

>  <SCORE.INTER.ROT>
3

>  <SCORE.INTER.SOLV>
8.87769

>  <SCORE.INTER.VDW>
-46.0214

>  <SCORE.INTER.norm>
-2.16128

>  <SCORE.INTRA>
0.233236

>  <SCORE.INTRA.DIHEDRAL>
-1.04298e-05

>  <SCORE.INTRA.DIHEDRAL.0>
3.60016

>  <SCORE.INTRA.POLAR>
0

>  <SCORE.INTRA.POLAR.0>
0

>  <SCORE.INTRA.REPUL>
0

>  <SCORE.INTRA.REPUL.0>
0

>  <SCORE.INTRA.SOLV>
3.63695e-05

>  <SCORE.INTRA.SOLV.lig_0>
-10.9882

>  <SCORE.INTRA.VDW>
0.233223

>  <SCORE.INTRA.VDW.0>
1.84442

>  <SCORE.INTRA.norm>
0.0089706

>  <SCORE.RESTR>
0

>  <SCORE.RESTR.CAVITY>
0

>  <SCORE.RESTR.norm>
0

>  <SCORE.SYSTEM>
0

>  <SCORE.SYSTEM.CONST>
0

>  <SCORE.SYSTEM.DIHEDRAL>
0

>  <SCORE.SYSTEM.SOLV>
0

>  <SCORE.SYSTEM.norm>
0

>  <SCORE.heavy>
26

>  <SCORE.norm>
-2.15231

>  <RMSD>
0.738

$$$$
ligand
 OpenBabel02271912153D
libRbt.so/2013.1/901 2013/11/27
 26 29  0  0  0  0  0  0  0  0999 V2000
  111.2656  -74.6219  -81.8897 C   0  0  1  0  0  0  0  0  0  0  0  0
  111.4454  -74.2820  -80.5566 N   0  0  0  0  0  0  0  0  0  0  0  0
  111.7643  -75.8943  -82.3904 C   0  0  0  0  0  0  0  0  0  0  0  0
  112.6993  -80.5022  -87.4938 N   0  0  0  0  0  0  0  0  0  0  0  0
  112.0392  -77.4002  -84.2088 O   0  0  0  0  0  0  0  0  0  0  0  0
  111.5079  -76.0863  -83.7494 C   0  0  2  0  0  0  0  0  0  0  0  0
  111.8097  -77.5625  -85.4534 C   0  0  1  0  0  0  0  0  0  0  0  0
  112.3546  -78.8744  -85.8021 C   0  0  0  0  0  0  0  0  0  0  0  0
  112.1920  -79.2275  -87.1886 C   0  0  2  0  0  0  0  0  0  0  0  0
  111.5695  -78.3687  -88.1281 C   0  0  0  0  0  0  0  0  0  0  0  0
  111.0408  -77.0818  -87.7157 C   0  0  0  0  0  0  0  0  0  0  0  0
  111.1796  -76.7134  -86.3281 C   0  0  2  0  0  0  0  0  0  0  0  0
  110.5888  -75.3671  -85.9812 C   0  0  1  0  0  0  0  0  0  0  0  0
  110.8545  -75.2102  -84.6090 C   0  0  2  0  0  0  0  0  0  0  0  0
  110.3538  -73.9378  -84.0844 C   0  0  0  0  0  0  0  0  0  0  0  0
  110.6058  -73.7145  -82.6955 C   0  0  0  0  0  0  0  0  0  0  0  0
  109.9560  -74.5597  -86.9073 C   0  0  0  0  0  0  0  0  0  0  0  0
  110.2831  -73.2109  -87.1798 C   0  0  0  0  0  0  0  0  0  0  0  0
  109.6668  -72.3865  -88.1229 C   0  0  0  0  0  0  0  0  0  0  0  0
  108.5784  -72.9105  -88.9345 C   0  0  0  0  0  0  0  0  0  0  0  0
  108.2684  -74.2577  -88.6297 C   0  0  0  0  0  0  0  0  0  0  0  0
  108.8556  -75.1186  -87.6922 C   0  0  0  0  0  0  0  0  0  0  0  0
  110.9950  -73.0036  -80.0135 C   0  0  0  0  0  0  0  0  0  0  0  0
  112.0812  -75.1181  -79.5161 C   0  0  0  0  0  0  0  0  0  0  0  0
  113.2486  -81.5732  -86.6328 C   0  0  0  0  0  0  0  0  0  0  0  0
  112.6935  -80.9181  -88.9408 C   0  0  0  0  0  0  0  0  0  0  0  0
  1  2  1  1  0  0  0
  1  3  1  0  0  0  0
  1 16  1  0  0  0  0
  2 23  1  0  0  0  0
  2 24  1  0  0  0  0
  4 25  1  0  0  0  0
  4 26  1  0  0  0  0
  5  6  1  0  0  0  0
  6  3  1  6  0  0  0
  6 14  1  0  0  0  0
  7  5  1  1  0  0  0
  7  8  1  0  0  0  0
  7 12  1  0  0  0  0
  8  9  1  0  0  0  0
  9  4  1  1  0  0  0
  9 10  1  0  0  0  0
 10 11  1  0  0  0  0
 12 11  1  6  0  0  0
 12 13  1  0  0  0  0
 13 14  1  0  0  0  0
 13 17  1  6  0  0  0
 14 15  1  6  0  0  0
 15 16  1  0  0  0  0
 17 18  1  0  0  0  0
 17 22  1  0  0  0  0
 18 19  1  0  0  0  0
 19 20  1  0  0  0  0
 20 21  1  0  0  0  0
 21 22  1  0  0  0  0
M  END
>  <CHROM.1>
178.37369593,6.33488272,-125.71606516,111.13957679,-76.16241579,-85.32613813
-1.81671332,1.07133205,-2.06897038

>  <Name>
ligand

>  <RI>
0

>  <Rbt.Current_Directory>
/home/itssahil/PROJECTS/Mol_Feturizer/Test_systems_manuscript/rnas/1f1t

>  <Rbt.Executable>
rbdock ($Id: //depot/dev/client3/rdock/2013.1/src/exe/rbdock.cxx#4 $)

>  <Rbt.Library>
libRbt.so (2013.1, Build901 2013/11/27)

>  <Rbt.Parameter_File>
/export/apps/rDock/src/rDock_2013.1_src/data/scripts/dock_solv.prm

>  <Rbt.Receptor>
prm/pocket_docking_8.prm

>  <SCORE>
-56.1271

>  <SCORE.INTER>
-56.6486

>  <SCORE.INTER.CONST>
1

>  <SCORE.INTER.POLAR>
0

>  <SCORE.INTER.ROT>
3

>  <SCORE.INTER.SOLV>
9.20369

>  <SCORE.INTER.VDW>
-46.4336

>  <SCORE.INTER.norm>
-2.17879

>  <SCORE.INTRA>
0.521463

>  <SCORE.INTRA.DIHEDRAL>
-1.02044e-05

>  <SCORE.INTRA.DIHEDRAL.0>
3.60016

>  <SCORE.INTRA.POLAR>
0

>  <SCORE.INTRA.POLAR.0>
0

>  <SCORE.INTRA.REPUL>
0

>  <SCORE.INTRA.REPUL.0>
0

>  <SCORE.INTRA.SOLV>
1.404e-05

>  <SCORE.INTRA.SOLV.lig_0>
-10.9882

>  <SCORE.INTRA.VDW>
0.521461

>  <SCORE.INTRA.VDW.0>
1.84442

>  <SCORE.INTRA.norm>
0.0200563

>  <SCORE.RESTR>
0

>  <SCORE.RESTR.CAVITY>
0

>  <SCORE.RESTR.norm>
0

>  <SCORE.SYSTEM>
0

>  <SCORE.SYSTEM.CONST>
0

>  <SCORE.SYSTEM.DIHEDRAL>
0

>  <SCORE.SYSTEM.SOLV>
0

>  <SCORE.SYSTEM.norm>
0

>  <SCORE.heavy>
26

>  <SCORE.norm>
-2.15874

>  <RMSD>
0.738

$$$$
ligand
 OpenBabel02271912153D
libRbt.so/2013.1/901 2013/11/27
 26 29  0  0  0  0  0  0  0  0999 V2000
  112.2501  -79.4733  -87.1412 C   0  0  1  0  0  0  0  0  0  0  0  0
  112.7827  -80.6965  -87.5222 N   0  0  0  0  0  0  0  0  0  0  0  0
  112.3796  -79.0198  -85.7642 C   0  0  0  0  0  0  0  0  0  0  0  0
  111.2998  -74.3471  -80.7492 N   0  0  0  0  0  0  0  0  0  0  0  0
  111.9508  -77.3593  -84.1184 O   0  0  0  0  0  0  0  0  0  0  0  0
  111.7905  -77.7739  -85.5404 C   0  0  2  0  0  0  0  0  0  0  0  0
  111.4006  -76.2252  -83.9208 C   0  0  1  0  0  0  0  0  0  0  0  0
  111.6206  -75.9041  -82.5108 C   0  0  0  0  0  0  0  0  0  0  0  0
  111.0530  -74.6460  -82.1001 C   0  0  2  0  0  0  0  0  0  0  0  0
  110.3353  -73.8056  -82.9868 C   0  0  0  0  0  0  0  0  0  0  0  0
  110.1598  -74.1780  -84.3783 C   0  0  0  0  0  0  0  0  0  0  0  0
  110.7325  -75.4275  -84.8153 C   0  0  2  0  0  0  0  0  0  0  0  0
  110.5175  -75.7303  -86.2796 C   0  0  1  0  0  0  0  0  0  0  0  0
  111.1294  -76.9819  -86.4727 C   0  0  2  0  0  0  0  0  0  0  0  0
  111.0157  -77.4527  -87.8549 C   0  0  0  0  0  0  0  0  0  0  0  0
  111.6082  -78.7278  -88.1108 C   0  0  0  0  0  0  0  0  0  0  0  0
  109.8425  -74.8800  -87.1348 C   0  0  0  0  0  0  0  0  0  0  0  0
  108.7645  -75.2456  -87.9741 C   0  0  0  0  0  0  0  0  0  0  0  0
  108.0604  -74.3970  -88.8303 C   0  0  0  0  0  0  0  0  0  0  0  0
  108.4243  -72.9902  -88.9079 C   0  0  0  0  0  0  0  0  0  0  0  0
  109.5126  -72.6593  -88.0653 C   0  0  0  0  0  0  0  0  0  0  0  0
  110.2487  -73.4762  -87.1960 C   0  0  0  0  0  0  0  0  0  0  0  0
  113.2894  -81.6600  -86.5489 C   0  0  0  0  0  0  0  0  0  0  0  0
  112.9103  -81.2056  -88.9043 C   0  0  0  0  0  0  0  0  0  0  0  0
  110.9871  -73.1520  -79.9341 C   0  0  0  0  0  0  0  0  0  0  0  0
  111.9892  -75.4015  -79.9247 C   0  0  0  0  0  0  0  0  0  0  0  0
  1  2  1  6  0  0  0
  1  3  1  0  0  0  0
  1 16  1  0  0  0  0
  2 23  1  0  0  0  0
  2 24  1  0  0  0  0
  4 25  1  0  0  0  0
  4 26  1  0  0  0  0
  5  6  1  0  0  0  0
  6  3  1  1  0  0  0
  6 14  1  0  0  0  0
  7  5  1  6  0  0  0
  7  8  1  0  0  0  0
  7 12  1  0  0  0  0
  8  9  1  0  0  0  0
  9  4  1  6  0  0  0
  9 10  1  0  0  0  0
 10 11  1  0  0  0  0
 12 11  1  1  0  0  0
 12 13  1  0  0  0  0
 13 14  1  0  0  0  0
 13 17  1  1  0  0  0
 14 15  1  1  0  0  0
 15 16  1  0  0  0  0
 17 18  1  0  0  0  0
 17 22  1  0  0  0  0
 18 19  1  0  0  0  0
 19 20  1  0  0  0  0
 20 21  1  0  0  0  0
 21 22  1  0  0  0  0
M  END
>  <CHROM.1>
10.05105644,175.74235961,-127.85556822,111.07300029,-76.34842232,-85.43097555
-1.25146878,-1.04643247,1.08103071

>  <Name>
ligand

>  <RI>
0

>  <Rbt.Current_Directory>
/home/itssahil/PROJECTS/Mol_Feturizer/Test_systems_manuscript/rnas/1f1t

>  <Rbt.Executable>
rbdock ($Id: //depot/dev/client3/rdock/2013.1/src/exe/rbdock.cxx#4 $)

>  <Rbt.Library>
libRbt.so (2013.1, Build901 2013/11/27)

>  <Rbt.Parameter_File>
/export/apps/rDock/src/rDock_2013.1_src/data/scripts/dock_solv.prm

>  <Rbt.Receptor>
prm/pocket_docking_8.prm

>  <SCORE>
-53.5911

>  <SCORE.INTER>
-56.1519

>  <SCORE.INTER.CONST>
1

>  <SCORE.INTER.POLAR>
0

>  <SCORE.INTER.ROT>
3

>  <SCORE.INTER.SOLV>
8.94148

>  <SCORE.INTER.VDW>
-46.0151

>  <SCORE.INTER.norm>
-2.15969

>  <SCORE.INTRA>
2.56079

>  <SCORE.INTRA.DIHEDRAL>
-0.000593531

>  <SCORE.INTRA.DIHEDRAL.0>
3.60016

>  <SCORE.INTRA.POLAR>
0

>  <SCORE.INTRA.POLAR.0>
0

>  <SCORE.INTRA.REPUL>
0

>  <SCORE.INTRA.REPUL.0>
0

>  <SCORE.INTRA.SOLV>
-0.000944184

>  <SCORE.INTRA.SOLV.lig_0>
-10.9882

>  <SCORE.INTRA.VDW>
2.56155

>  <SCORE.INTRA.VDW.0>
1.84442

>  <SCORE.INTRA.norm>
0.0984918

>  <SCORE.RESTR>
0

>  <SCORE.RESTR.CAVITY>
0

>  <SCORE.RESTR.norm>
0

>  <SCORE.SYSTEM>
0

>  <SCORE.SYSTEM.CONST>
0

>  <SCORE.SYSTEM.DIHEDRAL>
0

>  <SCORE.SYSTEM.SOLV>
0

>  <SCORE.SYSTEM.norm>
0

>  <SCORE.heavy>
26

>  <SCORE.norm>
-2.0612

>  <RMSD>
0.738

$$$$
ligand
 OpenBabel02271912153D
libRbt.so/2013.1/901 2013/11/27
 26 29  0  0  0  0  0  0  0  0999 V2000
  112.2085  -79.4543  -87.1113 C   0  0  1  0  0  0  0  0  0  0  0  0
  112.7388  -80.6787  -87.4917 N   0  0  0  0  0  0  0  0  0  0  0  0
  112.3409  -78.9993  -85.7351 C   0  0  0  0  0  0  0  0  0  0  0  0
  111.2758  -74.3191  -80.7240 N   0  0  0  0  0  0  0  0  0  0  0  0
  111.9171  -77.3363  -84.0906 O   0  0  0  0  0  0  0  0  0  0  0  0
  111.7539  -77.7524  -85.5118 C   0  0  2  0  0  0  0  0  0  0  0  0
  111.3688  -76.2012  -83.8934 C   0  0  1  0  0  0  0  0  0  0  0  0
  111.5916  -75.8786  -82.4842 C   0  0  0  0  0  0  0  0  0  0  0  0
  111.0264  -74.6193  -82.0741 C   0  0  2  0  0  0  0  0  0  0  0  0
  110.3082  -73.7791  -82.9606 C   0  0  0  0  0  0  0  0  0  0  0  0
  110.1298  -74.1529  -84.3514 C   0  0  0  0  0  0  0  0  0  0  0  0
  110.7002  -75.4037  -84.7878 C   0  0  2  0  0  0  0  0  0  0  0  0
  110.4823  -75.7081  -86.2513 C   0  0  1  0  0  0  0  0  0  0  0  0
  111.0922  -76.9607  -86.4440 C   0  0  2  0  0  0  0  0  0  0  0  0
  110.9755  -77.4330  -87.8254 C   0  0  0  0  0  0  0  0  0  0  0  0
  111.5659  -78.7092  -88.0808 C   0  0  0  0  0  0  0  0  0  0  0  0
  109.8069  -74.8579  -87.1064 C   0  0  0  0  0  0  0  0  0  0  0  0
  108.7061  -75.2154  -87.9192 C   0  0  0  0  0  0  0  0  0  0  0  0
  108.0016  -74.3664  -88.7747 C   0  0  0  0  0  0  0  0  0  0  0  0
  108.3903  -72.9681  -88.8809 C   0  0  0  0  0  0  0  0  0  0  0  0
  109.5009  -72.6455  -88.0645 C   0  0  0  0  0  0  0  0  0  0  0  0
  110.2382  -73.4632  -87.1969 C   0  0  0  0  0  0  0  0  0  0  0  0
  112.8375  -81.0811  -88.8919 C   0  0  0  0  0  0  0  0  0  0  0  0
  113.2732  -81.7215  -86.5901 C   0  0  0  0  0  0  0  0  0  0  0  0
  111.9242  -75.1002  -79.6471 C   0  0  0  0  0  0  0  0  0  0  0  0
  110.8433  -72.9650  -80.2276 C   0  0  0  0  0  0  0  0  0  0  0  0
  1  2  1  6  0  0  0
  1  3  1  0  0  0  0
  1 16  1  0  0  0  0
  2 23  1  0  0  0  0
  2 24  1  0  0  0  0
  4 25  1  0  0  0  0
  4 26  1  0  0  0  0
  5  6  1  0  0  0  0
  6  3  1  1  0  0  0
  6 14  1  0  0  0  0
  7  5  1  6  0  0  0
  7  8  1  0  0  0  0
  7 12  1  0  0  0  0
  8  9  1  0  0  0  0
  9  4  1  6  0  0  0
  9 10  1  0  0  0  0
 10 11  1  0  0  0  0
 12 11  1  1  0  0  0
 12 13  1  0  0  0  0
 13 14  1  0  0  0  0
 13 17  1  1  0  0  0
 14 15  1  1  0  0  0
 15 16  1  0  0  0  0
 17 18  1  0  0  0  0
 17 22  1  0  0  0  0
 18 19  1  0  0  0  0
 19 20  1  0  0  0  0
 20 21  1  0  0  0  0
 21 22  1  0  0  0  0
M  END
>  <CHROM.1>
-169.32903538,-4.84837578,-126.21747943,111.03127991,-76.30504850,-85.41014314
-1.24750869,-1.04593362,1.07449288

>  <Name>
ligand

>  <RI>
0

>  <Rbt.Current_Directory>
/home/itssahil/PROJECTS/Mol_Feturizer/Test_systems_manuscript/rnas/1f1t

>  <Rbt.Executable>
rbdock ($Id: //depot/dev/client3/rdock/2013.1/src/exe/rbdock.cxx#4 $)

>  <Rbt.Library>
libRbt.so (2013.1, Build901 2013/11/27)

>  <Rbt.Parameter_File>
/export/apps/rDock/src/rDock_2013.1_src/data/scripts/dock_solv.prm

>  <Rbt.Receptor>
prm/pocket_docking_2.prm

>  <SCORE>
-55.698

>  <SCORE.INTER>
-56.1238

>  <SCORE.INTER.CONST>
1

>  <SCORE.INTER.POLAR>
0

>  <SCORE.INTER.ROT>
3

>  <SCORE.INTER.SOLV>
8.86921

>  <SCORE.INTER.VDW>
-45.9723

>  <SCORE.INTER.norm>
-2.15861

>  <SCORE.INTRA>
0.425814

>  <SCORE.INTRA.DIHEDRAL>
-4.39396e-06

>  <SCORE.INTRA.DIHEDRAL.0>
3.60016

>  <SCORE.INTRA.POLAR>
0

>  <SCORE.INTRA.POLAR.0>
0

>  <SCORE.INTRA.REPUL>
0

>  <SCORE.INTRA.REPUL.0>
0

>  <SCORE.INTRA.SOLV>
4.82944e-05

>  <SCORE.INTRA.SOLV.lig_0>
-10.9882

>  <SCORE.INTRA.VDW>
0.425792

>  <SCORE.INTRA.VDW.0>
1.84442

>  <SCORE.INTRA.norm>
0.0163775

>  <SCORE.RESTR>
0

>  <SCORE.RESTR.CAVITY>
0

>  <SCORE.RESTR.norm>
0

>  <SCORE.SYSTEM>
0

>  <SCORE.SYSTEM.CONST>
0

>  <SCORE.SYSTEM.DIHEDRAL>
0

>  <SCORE.SYSTEM.SOLV>
0

>  <SCORE.SYSTEM.norm>
0

>  <SCORE.heavy>
26

>  <SCORE.norm>
-2.14223

>  <RMSD>
0.739

$$$$
ligand
 OpenBabel02271912153D
libRbt.so/2013.1/901 2013/11/27
 26 29  0  0  0  0  0  0  0  0999 V2000
  112.1869  -79.4171  -87.1059 C   0  0  1  0  0  0  0  0  0  0  0  0
  112.6775  -80.6533  -87.5013 N   0  0  0  0  0  0  0  0  0  0  0  0
  112.3133  -78.9932  -85.7192 C   0  0  0  0  0  0  0  0  0  0  0  0
  111.3399  -74.3708  -80.6363 N   0  0  0  0  0  0  0  0  0  0  0  0
  111.9244  -77.3465  -84.0499 O   0  0  0  0  0  0  0  0  0  0  0  0
  111.7695  -77.7295  -85.4813 C   0  0  2  0  0  0  0  0  0  0  0  0
  111.4155  -76.1955  -83.8396 C   0  0  1  0  0  0  0  0  0  0  0  0
  111.6267  -75.9079  -82.4210 C   0  0  0  0  0  0  0  0  0  0  0  0
  111.1021  -74.6361  -81.9958 C   0  0  2  0  0  0  0  0  0  0  0  0
  110.4307  -73.7530  -82.8773 C   0  0  0  0  0  0  0  0  0  0  0  0
  110.2617  -74.0938  -84.2777 C   0  0  0  0  0  0  0  0  0  0  0  0
  110.7922  -75.3568  -84.7290 C   0  0  2  0  0  0  0  0  0  0  0  0
  110.5876  -75.6253  -86.2015 C   0  0  1  0  0  0  0  0  0  0  0  0
  111.1534  -76.8962  -86.4085 C   0  0  2  0  0  0  0  0  0  0  0  0
  111.0424  -77.3378  -87.8004 C   0  0  0  0  0  0  0  0  0  0  0  0
  111.5889  -78.6304  -88.0709 C   0  0  0  0  0  0  0  0  0  0  0  0
  109.9588  -74.7345  -87.0506 C   0  0  0  0  0  0  0  0  0  0  0  0
  110.2750  -73.3621  -87.1810 C   0  0  0  0  0  0  0  0  0  0  0  0
  109.6628  -72.4526  -88.0452 C   0  0  0  0  0  0  0  0  0  0  0  0
  108.5914  -72.9022  -88.9214 C   0  0  0  0  0  0  0  0  0  0  0  0
  108.2919  -74.2762  -88.7587 C   0  0  0  0  0  0  0  0  0  0  0  0
  108.8755  -75.2217  -87.9041 C   0  0  0  0  0  0  0  0  0  0  0  0
  112.6656  -81.0834  -88.8967 C   0  0  0  0  0  0  0  0  0  0  0  0
  113.2717  -81.6833  -86.6227 C   0  0  0  0  0  0  0  0  0  0  0  0
  111.9479  -75.1928  -79.5663 C   0  0  0  0  0  0  0  0  0  0  0  0
  110.9412  -73.0143  -80.1187 C   0  0  0  0  0  0  0  0  0  0  0  0
  1  2  1  6  0  0  0
  1  3  1  0  0  0  0
  1 16  1  0  0  0  0
  2 23  1  0  0  0  0
  2 24  1  0  0  0  0
  4 25  1  0  0  0  0
  4 26  1  0  0  0  0
  5  6  1  0  0  0  0
  6  3  1  1  0  0  0
  6 14  1  0  0  0  0
  7  5  1  6  0  0  0
  7  8  1  0  0  0  0
  7 12  1  0  0  0  0
  8  9  1  0  0  0  0
  9  4  1  6  0  0  0
  9 10  1  0  0  0  0
 10 11  1  0  0  0  0
 12 11  1  1  0  0  0
 12 13  1  0  0  0  0
 13 14  1  0  0  0  0
 13 17  1  1  0  0  0
 14 15  1  1  0  0  0
 15 16  1  0  0  0  0
 17 18  1  0  0  0  0
 17 22  1  0  0  0  0
 18 19  1  0  0  0  0
 19 20  1  0  0  0  0
 20 21  1  0  0  0  0
 21 22  1  0  0  0  0
M  END
>  <CHROM.1>
-175.33893268,-4.43329765,50.95142622,111.09221920,-76.27362952,-85.37398748
-1.27552722,-1.08083697,1.08180349

>  <Name>
ligand

>  <RI>
0

>  <Rbt.Current_Directory>
/home/itssahil/PROJECTS/Mol_Feturizer/Test_systems_manuscript/rnas/1f1t

>  <Rbt.Executable>
rbdock ($Id: //depot/dev/client3/rdock/2013.1/src/exe/rbdock.cxx#4 $)

>  <Rbt.Library>
libRbt.so (2013.1, Build901 2013/11/27)

>  <Rbt.Parameter_File>
/export/apps/rDock/src/rDock_2013.1_src/data/scripts/dock_solv.prm

>  <Rbt.Receptor>
prm/pocket_docking_2.prm

>  <SCORE>
-56.3131

>  <SCORE.INTER>
-56.8389

>  <SCORE.INTER.CONST>
1

>  <SCORE.INTER.POLAR>
0

>  <SCORE.INTER.ROT>
3

>  <SCORE.INTER.SOLV>
8.9668

>  <SCORE.INTER.VDW>
-46.4815

>  <SCORE.INTER.norm>
-2.18611

>  <SCORE.INTRA>
0.525844

>  <SCORE.INTRA.DIHEDRAL>
0.000279102

>  <SCORE.INTRA.DIHEDRAL.0>
3.60016

>  <SCORE.INTRA.POLAR>
0

>  <SCORE.INTRA.POLAR.0>
0

>  <SCORE.INTRA.REPUL>
0

>  <SCORE.INTRA.REPUL.0>
0

>  <SCORE.INTRA.SOLV>
7.53367e-06

>  <SCORE.INTRA.SOLV.lig_0>
-10.9882

>  <SCORE.INTRA.VDW>
0.525701

>  <SCORE.INTRA.VDW.0>
1.84442

>  <SCORE.INTRA.norm>
0.0202248

>  <SCORE.RESTR>
0

>  <SCORE.RESTR.CAVITY>
0

>  <SCORE.RESTR.norm>
0

>  <SCORE.SYSTEM>
0

>  <SCORE.SYSTEM.CONST>
0

>  <SCORE.SYSTEM.DIHEDRAL>
0

>  <SCORE.SYSTEM.SOLV>
0

>  <SCORE.SYSTEM.norm>
0

>  <SCORE.heavy>
26

>  <SCORE.norm>
-2.16589

>  <RMSD>
0.739

$$$$
ligand
 OpenBabel02271912153D
libRbt.so/2013.1/901 2013/11/27
 26 29  0  0  0  0  0  0  0  0999 V2000
  111.2502  -74.6118  -81.8917 C   0  0  1  0  0  0  0  0  0  0  0  0
  111.4269  -74.2707  -80.5584 N   0  0  0  0  0  0  0  0  0  0  0  0
  111.7560  -75.8817  -82.3916 C   0  0  0  0  0  0  0  0  0  0  0  0
  112.7197  -80.4858  -87.4930 N   0  0  0  0  0  0  0  0  0  0  0  0
  112.0404  -77.3866  -84.2094 O   0  0  0  0  0  0  0  0  0  0  0  0
  111.5018  -76.0754  -83.7507 C   0  0  2  0  0  0  0  0  0  0  0  0
  111.8130  -77.5503  -85.4541 C   0  0  1  0  0  0  0  0  0  0  0  0
  112.3650  -78.8594  -85.8020 C   0  0  0  0  0  0  0  0  0  0  0  0
  112.2055  -79.2137  -87.1886 C   0  0  2  0  0  0  0  0  0  0  0  0
  111.5796  -78.3583  -88.1288 C   0  0  0  0  0  0  0  0  0  0  0  0
  111.0437  -77.0741  -87.7173 C   0  0  0  0  0  0  0  0  0  0  0  0
  111.1793  -76.7047  -86.3296 C   0  0  2  0  0  0  0  0  0  0  0  0
  110.5812  -75.3614  -85.9836 C   0  0  1  0  0  0  0  0  0  0  0  0
  110.8447  -75.2028  -84.6112 C   0  0  2  0  0  0  0  0  0  0  0  0
  110.3369  -73.9329  -84.0873 C   0  0  0  0  0  0  0  0  0  0  0  0
  110.5865  -73.7080  -82.6982 C   0  0  0  0  0  0  0  0  0  0  0  0
  109.9451  -74.5574  -86.9105 C   0  0  0  0  0  0  0  0  0  0  0  0
  110.2922  -73.2200  -87.2125 C   0  0  0  0  0  0  0  0  0  0  0  0
  109.6726  -72.3997  -88.1570 C   0  0  0  0  0  0  0  0  0  0  0  0
  108.5582  -72.9160  -88.9376 C   0  0  0  0  0  0  0  0  0  0  0  0
  108.2288  -74.2517  -88.6037 C   0  0  0  0  0  0  0  0  0  0  0  0
  108.8186  -75.1080  -87.6636 C   0  0  0  0  0  0  0  0  0  0  0  0
  110.9820  -72.9887  -80.0192 C   0  0  0  0  0  0  0  0  0  0  0  0
  112.0537  -75.1088  -79.5141 C   0  0  0  0  0  0  0  0  0  0  0  0
  113.2547  -81.5620  -86.6294 C   0  0  0  0  0  0  0  0  0  0  0  0
  112.7405  -80.8921  -88.9427 C   0  0  0  0  0  0  0  0  0  0  0  0
  1  2  1  1  0  0  0
  1  3  1  0  0  0  0
  1 16  1  0  0  0  0
  2 23  1  0  0  0  0
  2 24  1  0  0  0  0
  4 25  1  0  0  0  0
  4 26  1  0  0  0  0
  5  6  1  0  0  0  0
  6  3  1  6  0  0  0
  6 14  1  0  0  0  0
  7  5  1  1  0  0  0
  7  8  1  0  0  0  0
  7 12  1  0  0  0  0
  8  9  1  0  0  0  0
  9  4  1  1  0  0  0
  9 10  1  0  0  0  0
 10 11  1  0  0  0  0
 12 11  1  6  0  0  0
 12 13  1  0  0  0  0
 13 14  1  0  0  0  0
 13 17  1  6  0  0  0
 14 15  1  6  0  0  0
 15 16  1  0  0  0  0
 17 18  1  0  0  0  0
 17 22  1  0  0  0  0
 18 19  1  0  0  0  0
 19 20  1  0  0  0  0
 20 21  1  0  0  0  0
 21 22  1  0  0  0  0
M  END
>  <CHROM.1>
177.70777083,7.41460024,-123.63609898,111.13536318,-76.15359053,-85.32766132
-1.82448669,1.06741571,-2.06224299

>  <Name>
ligand

>  <RI>
0

>  <Rbt.Current_Directory>
/home/itssahil/PROJECTS/Mol_Feturizer/Test_systems_manuscript/rnas/1f1t

>  <Rbt.Executable>
rbdock ($Id: //depot/dev/client3/rdock/2013.1/src/exe/rbdock.cxx#4 $)

>  <Rbt.Library>
libRbt.so (2013.1, Build901 2013/11/27)

>  <Rbt.Parameter_File>
/export/apps/rDock/src/rDock_2013.1_src/data/scripts/dock_solv.prm

>  <Rbt.Receptor>
prm/pocket_docking_4.prm

>  <SCORE>
-56.1019

>  <SCORE.INTER>
-56.5509

>  <SCORE.INTER.CONST>
1

>  <SCORE.INTER.POLAR>
0

>  <SCORE.INTER.ROT>
3

>  <SCORE.INTER.SOLV>
9.22209

>  <SCORE.INTER.VDW>
-46.3746

>  <SCORE.INTER.norm>
-2.17503

>  <SCORE.INTRA>
0.448958

>  <SCORE.INTRA.DIHEDRAL>
-2.04457e-05

>  <SCORE.INTRA.DIHEDRAL.0>
3.60016

>  <SCORE.INTRA.POLAR>
0

>  <SCORE.INTRA.POLAR.0>
0

>  <SCORE.INTRA.REPUL>
0

>  <SCORE.INTRA.REPUL.0>
0

>  <SCORE.INTRA.SOLV>
1.95876e-05

>  <SCORE.INTRA.SOLV.lig_0>
-10.9882

>  <SCORE.INTRA.VDW>
0.448958

>  <SCORE.INTRA.VDW.0>
1.84442

>  <SCORE.INTRA.norm>
0.0172676

>  <SCORE.RESTR>
0

>  <SCORE.RESTR.CAVITY>
0

>  <SCORE.RESTR.norm>
0

>  <SCORE.SYSTEM>
0

>  <SCORE.SYSTEM.CONST>
0

>  <SCORE.SYSTEM.DIHEDRAL>
0

>  <SCORE.SYSTEM.SOLV>
0

>  <SCORE.SYSTEM.norm>
0

>  <SCORE.heavy>
26

>  <SCORE.norm>
-2.15777

>  <RMSD>
0.739

$$$$
ligand
 OpenBabel02271912153D
libRbt.so/2013.1/901 2013/11/27
 26 29  0  0  0  0  0  0  0  0999 V2000
  112.2078  -79.4047  -87.1107 C   0  0  1  0  0  0  0  0  0  0  0  0
  112.7053  -80.6380  -87.5062 N   0  0  0  0  0  0  0  0  0  0  0  0
  112.3329  -78.9796  -85.7243 C   0  0  0  0  0  0  0  0  0  0  0  0
  111.3369  -74.3615  -80.6418 N   0  0  0  0  0  0  0  0  0  0  0  0
  111.9358  -77.3347  -84.0551 O   0  0  0  0  0  0  0  0  0  0  0  0
  111.7819  -77.7190  -85.4862 C   0  0  2  0  0  0  0  0  0  0  0  0
  111.4204  -76.1867  -83.8447 C   0  0  1  0  0  0  0  0  0  0  0  0
  111.6311  -75.8974  -82.4264 C   0  0  0  0  0  0  0  0  0  0  0  0
  111.0994  -74.6286  -82.0010 C   0  0  2  0  0  0  0  0  0  0  0  0
  110.4220  -73.7498  -82.8822 C   0  0  0  0  0  0  0  0  0  0  0  0
  110.2538  -74.0919  -84.2823 C   0  0  0  0  0  0  0  0  0  0  0  0
  110.7913  -75.3519  -84.7338 C   0  0  2  0  0  0  0  0  0  0  0  0
  110.5869  -75.6221  -86.2059 C   0  0  1  0  0  0  0  0  0  0  0  0
  111.1601  -76.8897  -86.4131 C   0  0  2  0  0  0  0  0  0  0  0  0
  111.0504  -77.3324  -87.8048 C   0  0  0  0  0  0  0  0  0  0  0  0
  111.6042  -78.6217  -88.0754 C   0  0  0  0  0  0  0  0  0  0  0  0
  109.9522  -74.7352  -87.0548 C   0  0  0  0  0  0  0  0  0  0  0  0
  110.2644  -73.3624  -87.1905 C   0  0  0  0  0  0  0  0  0  0  0  0
  109.6461  -72.4569  -88.0545 C   0  0  0  0  0  0  0  0  0  0  0  0
  108.5718  -72.9116  -88.9246 C   0  0  0  0  0  0  0  0  0  0  0  0
  108.2764  -74.2859  -88.7565 C   0  0  0  0  0  0  0  0  0  0  0  0
  108.8662  -75.2275  -87.9019 C   0  0  0  0  0  0  0  0  0  0  0  0
  112.7253  -81.0549  -88.9055 C   0  0  0  0  0  0  0  0  0  0  0  0
  113.2769  -81.6774  -86.6237 C   0  0  0  0  0  0  0  0  0  0  0  0
  111.9626  -75.1746  -79.5752 C   0  0  0  0  0  0  0  0  0  0  0  0
  110.9162  -73.0131  -80.1205 C   0  0  0  0  0  0  0  0  0  0  0  0
  1  2  1  6  0  0  0
  1  3  1  0  0  0  0
  1 16  1  0  0  0  0
  2 23  1  0  0  0  0
  2 24  1  0  0  0  0
  4 25  1  0  0  0  0
  4 26  1  0  0  0  0
  5  6  1  0  0  0  0
  6  3  1  1  0  0  0
  6 14  1  0  0  0  0
  7  5  1  6  0  0  0
  7  8  1  0  0  0  0
  7 12  1  0  0  0  0
  8  9  1  0  0  0  0
  9  4  1  6  0  0  0
  9 10  1  0  0  0  0
 10 11  1  0  0  0  0
 12 11  1  1  0  0  0
 12 13  1  0  0  0  0
 13 14  1  0  0  0  0
 13 17  1  1  0  0  0
 14 15  1  1  0  0  0
 15 16  1  0  0  0  0
 17 18  1  0  0  0  0
 17 22  1  0  0  0  0
 18 19  1  0  0  0  0
 19 20  1  0  0  0  0
 20 21  1  0  0  0  0
 21 22  1  0  0  0  0
M  END
>  <CHROM.1>
-173.77296419,-3.74581483,51.27560860,111.09603619,-76.26717403,-85.37865169
-1.27042023,-1.07536820,1.08607481

>  <Name>
ligand

>  <RI>
0

>  <Rbt.Current_Directory>
/home/itssahil/PROJECTS/Mol_Feturizer/Test_systems_manuscript/rnas/1f1t

>  <Rbt.Executable>
rbdock ($Id: //depot/dev/client3/rdock/2013.1/src/exe/rbdock.cxx#4 $)

>  <Rbt.Library>
libRbt.so (2013.1, Build901 2013/11/27)

>  <Rbt.Parameter_File>
/export/apps/rDock/src/rDock_2013.1_src/data/scripts/dock_solv.prm

>  <Rbt.Receptor>
prm/pocket_docking_4.prm

>  <SCORE>
-56.2452

>  <SCORE.INTER>
-56.7483

>  <SCORE.INTER.CONST>
1

>  <SCORE.INTER.POLAR>
0

>  <SCORE.INTER.ROT>
3

>  <SCORE.INTER.SOLV>
8.99007

>  <SCORE.INTER.VDW>
-46.4289

>  <SCORE.INTER.norm>
-2.18263

>  <SCORE.INTRA>
0.503033

>  <SCORE.INTRA.DIHEDRAL>
0.000282541

>  <SCORE.INTRA.DIHEDRAL.0>
3.60016

>  <SCORE.INTRA.POLAR>
0

>  <SCORE.INTRA.POLAR.0>
0

>  <SCORE.INTRA.REPUL>
0

>  <SCORE.INTRA.REPUL.0>
0

>  <SCORE.INTRA.SOLV>
1.42101e-05

>  <SCORE.INTRA.SOLV.lig_0>
-10.9882

>  <SCORE.INTRA.VDW>
0.502884

>  <SCORE.INTRA.VDW.0>
1.84442

>  <SCORE.INTRA.norm>
0.0193474

>  <SCORE.RESTR>
0

>  <SCORE.RESTR.CAVITY>
0

>  <SCORE.RESTR.norm>
0

>  <SCORE.SYSTEM>
0

>  <SCORE.SYSTEM.CONST>
0

>  <SCORE.SYSTEM.DIHEDRAL>
0

>  <SCORE.SYSTEM.SOLV>
0

>  <SCORE.SYSTEM.norm>
0

>  <SCORE.heavy>
26

>  <SCORE.norm>
-2.16328

>  <RMSD>
0.739

$$$$
ligand
 OpenBabel02271912153D
libRbt.so/2013.1/901 2013/11/27
 26 29  0  0  0  0  0  0  0  0999 V2000
  111.2552  -74.6140  -81.8865 C   0  0  1  0  0  0  0  0  0  0  0  0
  111.4350  -74.2733  -80.5535 N   0  0  0  0  0  0  0  0  0  0  0  0
  111.7514  -75.8879  -82.3858 C   0  0  0  0  0  0  0  0  0  0  0  0
  112.6788  -80.5023  -87.4846 N   0  0  0  0  0  0  0  0  0  0  0  0
  112.0238  -77.3960  -84.2027 O   0  0  0  0  0  0  0  0  0  0  0  0
  111.4952  -76.0806  -83.7447 C   0  0  2  0  0  0  0  0  0  0  0  0
  111.7947  -77.5588  -85.4472 C   0  0  1  0  0  0  0  0  0  0  0  0
  112.3369  -78.8723  -85.7945 C   0  0  0  0  0  0  0  0  0  0  0  0
  112.1742  -79.2263  -87.1808 C   0  0  2  0  0  0  0  0  0  0  0  0
  111.5542  -78.3669  -88.1213 C   0  0  0  0  0  0  0  0  0  0  0  0
  111.0281  -77.0785  -87.7104 C   0  0  0  0  0  0  0  0  0  0  0  0
  111.1670  -76.7092  -86.3231 C   0  0  2  0  0  0  0  0  0  0  0  0
  110.5790  -75.3612  -85.9777 C   0  0  1  0  0  0  0  0  0  0  0  0
  110.8443  -75.2037  -84.6055 C   0  0  2  0  0  0  0  0  0  0  0  0
  110.3461  -73.9297  -84.0822 C   0  0  0  0  0  0  0  0  0  0  0  0
  110.5979  -73.7057  -82.6934 C   0  0  0  0  0  0  0  0  0  0  0  0
  109.9485  -74.5532  -86.9048 C   0  0  0  0  0  0  0  0  0  0  0  0
  110.2707  -73.2017  -87.1696 C   0  0  0  0  0  0  0  0  0  0  0  0
  109.6568  -72.3766  -88.1136 C   0  0  0  0  0  0  0  0  0  0  0  0
  108.5767  -72.9027  -88.9348 C   0  0  0  0  0  0  0  0  0  0  0  0
  108.2714  -74.2527  -88.6377 C   0  0  0  0  0  0  0  0  0  0  0  0
  108.8564  -75.1144  -87.6997 C   0  0  0  0  0  0  0  0  0  0  0  0
  112.0435  -75.1895  -79.5930 C   0  0  0  0  0  0  0  0  0  0  0  0
  111.0683  -72.9893  -79.9190 C   0  0  0  0  0  0  0  0  0  0  0  0
  113.2673  -81.5560  -86.6279 C   0  0  0  0  0  0  0  0  0  0  0  0
  112.6222  -80.9414  -88.9237 C   0  0  0  0  0  0  0  0  0  0  0  0
  1  2  1  1  0  0  0
  1  3  1  0  0  0  0
  1 16  1  0  0  0  0
  2 23  1  0  0  0  0
  2 24  1  0  0  0  0
  4 25  1  0  0  0  0
  4 26  1  0  0  0  0
  5  6  1  0  0  0  0
  6  3  1  6  0  0  0
  6 14  1  0  0  0  0
  7  5  1  1  0  0  0
  7  8  1  0  0  0  0
  7 12  1  0  0  0  0
  8  9  1  0  0  0  0
  9  4  1  1  0  0  0
  9 10  1  0  0  0  0
 10 11  1  0  0  0  0
 12 11  1  6  0  0  0
 12 13  1  0  0  0  0
 13 14  1  0  0  0  0
 13 17  1  6  0  0  0
 14 15  1  6  0  0  0
 15 16  1  0  0  0  0
 17 18  1  0  0  0  0
 17 22  1  0  0  0  0
 18 19  1  0  0  0  0
 19 20  1  0  0  0  0
 20 21  1  0  0  0  0
 21 22  1  0  0  0  0
M  END
>  <CHROM.1>
-3.73148651,3.95253247,-126.33970282,111.12988309,-76.16079061,-85.32105937
-1.81067556,1.07374817,-2.07349121

>  <Name>
ligand

>  <RI>
0

>  <Rbt.Current_Directory>
/home/itssahil/PROJECTS/Mol_Feturizer/Test_systems_manuscript/rnas/1f1t

>  <Rbt.Executable>
rbdock ($Id: //depot/dev/client3/rdock/2013.1/src/exe/rbdock.cxx#4 $)

>  <Rbt.Library>
libRbt.so (2013.1, Build901 2013/11/27)

>  <Rbt.Parameter_File>
/export/apps/rDock/src/rDock_2013.1_src/data/scripts/dock_solv.prm

>  <Rbt.Receptor>
prm/pocket_docking_4.prm

>  <SCORE>
-56.5059

>  <SCORE.INTER>
-56.75

>  <SCORE.INTER.CONST>
1

>  <SCORE.INTER.POLAR>
0

>  <SCORE.INTER.ROT>
3

>  <SCORE.INTER.SOLV>
9.22866

>  <SCORE.INTER.VDW>
-46.5096

>  <SCORE.INTER.norm>
-2.18269

>  <SCORE.INTRA>
0.244104

>  <SCORE.INTRA.DIHEDRAL>
-1.23382e-05

>  <SCORE.INTRA.DIHEDRAL.0>
3.60016

>  <SCORE.INTRA.POLAR>
0

>  <SCORE.INTRA.POLAR.0>
0

>  <SCORE.INTRA.REPUL>
0

>  <SCORE.INTRA.REPUL.0>
0

>  <SCORE.INTRA.SOLV>
1.25609e-05

>  <SCORE.INTRA.SOLV.lig_0>
-10.9882

>  <SCORE.INTRA.VDW>
0.244104

>  <SCORE.INTRA.VDW.0>
1.84442

>  <SCORE.INTRA.norm>
0.00938861

>  <SCORE.RESTR>
0

>  <SCORE.RESTR.CAVITY>
0

>  <SCORE.RESTR.norm>
0

>  <SCORE.SYSTEM>
0

>  <SCORE.SYSTEM.CONST>
0

>  <SCORE.SYSTEM.DIHEDRAL>
0

>  <SCORE.SYSTEM.SOLV>
0

>  <SCORE.SYSTEM.norm>
0

>  <SCORE.heavy>
26

>  <SCORE.norm>
-2.1733

>  <RMSD>
0.739

$$$$
ligand
 OpenBabel02271912153D
libRbt.so/2013.1/901 2013/11/27
 26 29  0  0  0  0  0  0  0  0999 V2000
  111.2370  -74.7037  -81.9231 C   0  0  1  0  0  0  0  0  0  0  0  0
  111.4069  -74.3693  -80.5873 N   0  0  0  0  0  0  0  0  0  0  0  0
  111.7264  -75.9804  -82.4221 C   0  0  0  0  0  0  0  0  0  0  0  0
  112.6615  -80.5857  -87.5277 N   0  0  0  0  0  0  0  0  0  0  0  0
  112.0029  -77.4847  -84.2415 O   0  0  0  0  0  0  0  0  0  0  0  0
  111.4818  -76.1661  -83.7841 C   0  0  2  0  0  0  0  0  0  0  0  0
  111.7844  -77.6412  -85.4888 C   0  0  1  0  0  0  0  0  0  0  0  0
  112.3180  -78.9584  -85.8354 C   0  0  0  0  0  0  0  0  0  0  0  0
  112.1656  -79.3061  -87.2244 C   0  0  2  0  0  0  0  0  0  0  0  0
  111.5626  -78.4379  -88.1679 C   0  0  0  0  0  0  0  0  0  0  0  0
  111.0442  -77.1462  -87.7575 C   0  0  0  0  0  0  0  0  0  0  0  0
  111.1730  -76.7829  -86.3677 C   0  0  2  0  0  0  0  0  0  0  0  0
  110.5938  -75.4309  -86.0233 C   0  0  1  0  0  0  0  0  0  0  0  0
  110.8472  -75.2804  -84.6480 C   0  0  2  0  0  0  0  0  0  0  0  0
  110.3555  -74.0038  -84.1252 C   0  0  0  0  0  0  0  0  0  0  0  0
  110.5958  -73.7868  -82.7332 C   0  0  0  0  0  0  0  0  0  0  0  0
  109.9798  -74.6139  -86.9536 C   0  0  0  0  0  0  0  0  0  0  0  0
  110.2926  -73.2542  -87.1855 C   0  0  0  0  0  0  0  0  0  0  0  0
  109.6953  -72.4197  -88.1320 C   0  0  0  0  0  0  0  0  0  0  0  0
  108.6453  -72.9439  -88.9925 C   0  0  0  0  0  0  0  0  0  0  0  0
  108.3484  -74.3025  -88.7278 C   0  0  0  0  0  0  0  0  0  0  0  0
  108.9175  -75.1738  -87.7888 C   0  0  0  0  0  0  0  0  0  0  0  0
  110.9471  -73.0955  -80.0411 C   0  0  0  0  0  0  0  0  0  0  0  0
  112.0402  -75.2072  -79.5468 C   0  0  0  0  0  0  0  0  0  0  0  0
  113.2228  -81.6514  -86.6678 C   0  0  0  0  0  0  0  0  0  0  0  0
  112.6261  -81.0145  -88.9706 C   0  0  0  0  0  0  0  0  0  0  0  0
  1  2  1  1  0  0  0
  1  3  1  0  0  0  0
  1 16  1  0  0  0  0
  2 23  1  0  0  0  0
  2 24  1  0  0  0  0
  4 25  1  0  0  0  0
  4 26  1  0  0  0  0
  5  6  1  0  0  0  0
  6  3  1  6  0  0  0
  6 14  1  0  0  0  0
  7  5  1  1  0  0  0
  7  8  1  0  0  0  0
  7 12  1  0  0  0  0
  8  9  1  0  0  0  0
  9  4  1  1  0  0  0
  9 10  1  0  0  0  0
 10 11  1  0  0  0  0
 12 11  1  6  0  0  0
 12 13  1  0  0  0  0
 13 14  1  0  0  0  0
 13 17  1  6  0  0  0
 14 15  1  6  0  0  0
 15 16  1  0  0  0  0
 17 18  1  0  0  0  0
 17 22  1  0  0  0  0
 18 19  1  0  0  0  0
 19 20  1  0  0  0  0
 20 21  1  0  0  0  0
 21 22  1  0  0  0  0
M  END
>  <CHROM.1>
179.32647849,4.47536235,-128.14613385,111.12887443,-76.23416579,-85.36486883
-1.82323792,1.08575888,-2.06081735

>  <Name>
ligand

>  <RI>
0

>  <Rbt.Current_Directory>
/home/itssahil/PROJECTS/Mol_Feturizer/Test_systems_manuscript/rnas/1f1t

>  <Rbt.Executable>
rbdock ($Id: //depot/dev/client3/rdock/2013.1/src/exe/rbdock.cxx#4 $)

>  <Rbt.Library>
libRbt.so (2013.1, Build901 2013/11/27)

>  <Rbt.Parameter_File>
/export/apps/rDock/src/rDock_2013.1_src/data/scripts/dock_solv.prm

>  <Rbt.Receptor>
prm/pocket_docking_5.prm

>  <SCORE>
-56.2012

>  <SCORE.INTER>
-56.8214

>  <SCORE.INTER.CONST>
1

>  <SCORE.INTER.POLAR>
0

>  <SCORE.INTER.ROT>
3

>  <SCORE.INTER.SOLV>
9.05933

>  <SCORE.INTER.VDW>
-46.5007

>  <SCORE.INTER.norm>
-2.18544

>  <SCORE.INTRA>
0.620114

>  <SCORE.INTRA.DIHEDRAL>
5.0522e-06

>  <SCORE.INTRA.DIHEDRAL.0>
3.60016

>  <SCORE.INTRA.POLAR>
0

>  <SCORE.INTRA.POLAR.0>
0

>  <SCORE.INTRA.REPUL>
0

>  <SCORE.INTRA.REPUL.0>
0

>  <SCORE.INTRA.SOLV>
6.78458e-06

>  <SCORE.INTRA.SOLV.lig_0>
-10.9882

>  <SCORE.INTRA.VDW>
0.620108

>  <SCORE.INTRA.VDW.0>
1.84442

>  <SCORE.INTRA.norm>
0.0238505

>  <SCORE.RESTR>
0

>  <SCORE.RESTR.CAVITY>
0

>  <SCORE.RESTR.norm>
0

>  <SCORE.SYSTEM>
0

>  <SCORE.SYSTEM.CONST>
0

>  <SCORE.SYSTEM.DIHEDRAL>
0

>  <SCORE.SYSTEM.SOLV>
0

>  <SCORE.SYSTEM.norm>
0

>  <SCORE.heavy>
26

>  <SCORE.norm>
-2.16159

>  <RMSD>
0.739

$$$$
ligand
 OpenBabel02271912153D
libRbt.so/2013.1/901 2013/11/27
 26 29  0  0  0  0  0  0  0  0999 V2000
  111.2411  -74.6890  -81.9250 C   0  0  1  0  0  0  0  0  0  0  0  0
  111.4114  -74.3490  -80.5907 N   0  0  0  0  0  0  0  0  0  0  0  0
  111.7253  -75.9702  -82.4176 C   0  0  0  0  0  0  0  0  0  0  0  0
  112.6441  -80.6035  -87.5007 N   0  0  0  0  0  0  0  0  0  0  0  0
  111.9965  -77.4843  -84.2296 O   0  0  0  0  0  0  0  0  0  0  0  0
  111.4808  -76.1612  -83.7788 C   0  0  2  0  0  0  0  0  0  0  0  0
  111.7783  -77.6457  -85.4763 C   0  0  1  0  0  0  0  0  0  0  0  0
  112.3064  -78.9668  -85.8163 C   0  0  0  0  0  0  0  0  0  0  0  0
  112.1535  -79.3204  -87.2038 C   0  0  2  0  0  0  0  0  0  0  0  0
  111.5550  -78.4541  -88.1518 C   0  0  0  0  0  0  0  0  0  0  0  0
  111.0419  -77.1582  -87.7480 C   0  0  0  0  0  0  0  0  0  0  0  0
  111.1712  -76.7889  -86.3597 C   0  0  2  0  0  0  0  0  0  0  0  0
  110.5977  -75.4327  -86.0222 C   0  0  1  0  0  0  0  0  0  0  0  0
  110.8507  -75.2769  -84.6474 C   0  0  2  0  0  0  0  0  0  0  0  0
  110.3642  -73.9957  -84.1310 C   0  0  0  0  0  0  0  0  0  0  0  0
  110.6045  -73.7732  -82.7399 C   0  0  0  0  0  0  0  0  0  0  0  0
  109.9879  -74.6176  -86.9568 C   0  0  0  0  0  0  0  0  0  0  0  0
  110.3131  -73.2630  -87.2014 C   0  0  0  0  0  0  0  0  0  0  0  0
  109.7201  -72.4306  -88.1524 C   0  0  0  0  0  0  0  0  0  0  0  0
  108.6615  -72.9515  -89.0042 C   0  0  0  0  0  0  0  0  0  0  0  0
  108.3524  -74.3048  -88.7269 C   0  0  0  0  0  0  0  0  0  0  0  0
  108.9167  -75.1738  -87.7830 C   0  0  0  0  0  0  0  0  0  0  0  0
  110.9979  -73.0527  -80.0606 C   0  0  0  0  0  0  0  0  0  0  0  0
  112.0006  -75.2017  -79.5363 C   0  0  0  0  0  0  0  0  0  0  0  0
  113.2278  -81.6561  -86.6394 C   0  0  0  0  0  0  0  0  0  0  0  0
  112.5746  -81.0531  -88.9360 C   0  0  0  0  0  0  0  0  0  0  0  0
  1  2  1  1  0  0  0
  1  3  1  0  0  0  0
  1 16  1  0  0  0  0
  2 23  1  0  0  0  0
  2 24  1  0  0  0  0
  4 25  1  0  0  0  0
  4 26  1  0  0  0  0
  5  6  1  0  0  0  0
  6  3  1  6  0  0  0
  6 14  1  0  0  0  0
  7  5  1  1  0  0  0
  7  8  1  0  0  0  0
  7 12  1  0  0  0  0
  8  9  1  0  0  0  0
  9  4  1  1  0  0  0
  9 10  1  0  0  0  0
 10 11  1  0  0  0  0
 12 11  1  6  0  0  0
 12 13  1  0  0  0  0
 13 14  1  0  0  0  0
 13 17  1  6  0  0  0
 14 15  1  6  0  0  0
 15 16  1  0  0  0  0
 17 18  1  0  0  0  0
 17 22  1  0  0  0  0
 18 19  1  0  0  0  0
 19 20  1  0  0  0  0
 20 21  1  0  0  0  0
 21 22  1  0  0  0  0
M  END
>  <CHROM.1>
177.19775441,2.91076056,-127.67595310,111.12852649,-76.23530957,-85.35948918
-1.81917392,1.09031267,-2.06930424

>  <Name>
ligand

>  <RI>
0

>  <Rbt.Current_Directory>
/home/itssahil/PROJECTS/Mol_Feturizer/Test_systems_manuscript/rnas/1f1t

>  <Rbt.Executable>
rbdock ($Id: //depot/dev/client3/rdock/2013.1/src/exe/rbdock.cxx#4 $)

>  <Rbt.Library>
libRbt.so (2013.1, Build901 2013/11/27)

>  <Rbt.Parameter_File>
/export/apps/rDock/src/rDock_2013.1_src/data/scripts/dock_solv.prm

>  <Rbt.Receptor>
prm/pocket_docking_8.prm

>  <SCORE>
-56.1632

>  <SCORE.INTER>
-56.7673

>  <SCORE.INTER.CONST>
1

>  <SCORE.INTER.POLAR>
0

>  <SCORE.INTER.ROT>
3

>  <SCORE.INTER.SOLV>
9.05024

>  <SCORE.INTER.VDW>
-46.4616

>  <SCORE.INTER.norm>
-2.18336

>  <SCORE.INTRA>
0.604042

>  <SCORE.INTRA.DIHEDRAL>
7.93167e-06

>  <SCORE.INTRA.DIHEDRAL.0>
3.60016

>  <SCORE.INTRA.POLAR>
0

>  <SCORE.INTRA.POLAR.0>
0

>  <SCORE.INTRA.REPUL>
0

>  <SCORE.INTRA.REPUL.0>
0

>  <SCORE.INTRA.SOLV>
6.80566e-06

>  <SCORE.INTRA.SOLV.lig_0>
-10.9882

>  <SCORE.INTRA.VDW>
0.604035

>  <SCORE.INTRA.VDW.0>
1.84442

>  <SCORE.INTRA.norm>
0.0232324

>  <SCORE.RESTR>
0

>  <SCORE.RESTR.CAVITY>
0

>  <SCORE.RESTR.norm>
0

>  <SCORE.SYSTEM>
0

>  <SCORE.SYSTEM.CONST>
0

>  <SCORE.SYSTEM.DIHEDRAL>
0

>  <SCORE.SYSTEM.SOLV>
0

>  <SCORE.SYSTEM.norm>
0

>  <SCORE.heavy>
26

>  <SCORE.norm>
-2.16012

>  <RMSD>
0.739

$$$$
ligand
 OpenBabel02271912153D
libRbt.so/2013.1/901 2013/11/27
 26 29  0  0  0  0  0  0  0  0999 V2000
  112.2045  -79.4109  -87.1340 C   0  0  1  0  0  0  0  0  0  0  0  0
  112.7009  -80.6430  -87.5348 N   0  0  0  0  0  0  0  0  0  0  0  0
  112.3325  -78.9907  -85.7464 C   0  0  0  0  0  0  0  0  0  0  0  0
  111.3480  -74.3900  -80.6459 N   0  0  0  0  0  0  0  0  0  0  0  0
  111.9392  -77.3515  -84.0707 O   0  0  0  0  0  0  0  0  0  0  0  0
  111.7823  -77.7308  -85.5028 C   0  0  2  0  0  0  0  0  0  0  0  0
  111.4245  -76.2041  -83.8552 C   0  0  1  0  0  0  0  0  0  0  0  0
  111.6382  -75.9198  -82.4363 C   0  0  0  0  0  0  0  0  0  0  0  0
  111.1077  -74.6523  -82.0055 C   0  0  2  0  0  0  0  0  0  0  0  0
  110.4287  -73.7703  -82.8822 C   0  0  0  0  0  0  0  0  0  0  0  0
  110.2575  -74.1076  -84.2831 C   0  0  0  0  0  0  0  0  0  0  0  0
  110.7938  -75.3661  -84.7401 C   0  0  2  0  0  0  0  0  0  0  0  0
  110.5864  -75.6311  -86.2128 C   0  0  1  0  0  0  0  0  0  0  0  0
  111.1588  -76.8981  -86.4255 C   0  0  2  0  0  0  0  0  0  0  0  0
  111.0461  -77.3359  -87.8185 C   0  0  0  0  0  0  0  0  0  0  0  0
  111.5991  -78.6244  -88.0948 C   0  0  0  0  0  0  0  0  0  0  0  0
  109.9501  -74.7411  -87.0572 C   0  0  0  0  0  0  0  0  0  0  0  0
  110.2471  -73.3631  -87.1722 C   0  0  0  0  0  0  0  0  0  0  0  0
  109.6271  -72.4541  -88.0314 C   0  0  0  0  0  0  0  0  0  0  0  0
  108.5679  -72.9105  -88.9188 C   0  0  0  0  0  0  0  0  0  0  0  0
  108.2873  -74.2902  -88.7713 C   0  0  0  0  0  0  0  0  0  0  0  0
  108.8793  -75.2355  -87.9223 C   0  0  0  0  0  0  0  0  0  0  0  0
  112.6970  -81.0643  -88.9330 C   0  0  0  0  0  0  0  0  0  0  0  0
  113.2942  -81.6765  -86.6599 C   0  0  0  0  0  0  0  0  0  0  0  0
  112.0335  -75.1800  -79.5988 C   0  0  0  0  0  0  0  0  0  0  0  0
  110.8584  -73.0748  -80.1005 C   0  0  0  0  0  0  0  0  0  0  0  0
  1  2  1  6  0  0  0
  1  3  1  0  0  0  0
  1 16  1  0  0  0  0
  2 23  1  0  0  0  0
  2 24  1  0  0  0  0
  4 25  1  0  0  0  0
  4 26  1  0  0  0  0
  5  6  1  0  0  0  0
  6  3  1  1  0  0  0
  6 14  1  0  0  0  0
  7  5  1  6  0  0  0
  7  8  1  0  0  0  0
  7 12  1  0  0  0  0
  8  9  1  0  0  0  0
  9  4  1  6  0  0  0
  9 10  1  0  0  0  0
 10 11  1  0  0  0  0
 12 11  1  1  0  0  0
 12 13  1  0  0  0  0
 13 14  1  0  0  0  0
 13 17  1  1  0  0  0
 14 15  1  1  0  0  0
 15 16  1  0  0  0  0
 17 18  1  0  0  0  0
 17 22  1  0  0  0  0
 18 19  1  0  0  0  0
 19 20  1  0  0  0  0
 20 21  1  0  0  0  0
 21 22  1  0  0  0  0
M  END
>  <CHROM.1>
-174.83980864,-0.35284291,50.12779953,111.09656173,-76.27937815,-85.38876327
-1.27425123,-1.07335370,1.08636255

>  <Name>
ligand

>  <RI>
0

>  <Rbt.Current_Directory>
/home/itssahil/PROJECTS/Mol_Feturizer/Test_systems_manuscript/rnas/1f1t

>  <Rbt.Executable>
rbdock ($Id: //depot/dev/client3/rdock/2013.1/src/exe/rbdock.cxx#4 $)

>  <Rbt.Library>
libRbt.so (2013.1, Build901 2013/11/27)

>  <Rbt.Parameter_File>
/export/apps/rDock/src/rDock_2013.1_src/data/scripts/dock_solv.prm

>  <Rbt.Receptor>
prm/pocket_docking_3.prm

>  <SCORE>
-56.2168

>  <SCORE.INTER>
-56.7788

>  <SCORE.INTER.CONST>
1

>  <SCORE.INTER.POLAR>
0

>  <SCORE.INTER.ROT>
3

>  <SCORE.INTER.SOLV>
8.9947

>  <SCORE.INTER.VDW>
-46.4508

>  <SCORE.INTER.norm>
-2.1838

>  <SCORE.INTRA>
0.562026

>  <SCORE.INTRA.DIHEDRAL>
0.000284267

>  <SCORE.INTRA.DIHEDRAL.0>
3.60016

>  <SCORE.INTRA.POLAR>
0

>  <SCORE.INTRA.POLAR.0>
0

>  <SCORE.INTRA.REPUL>
0

>  <SCORE.INTRA.REPUL.0>
0

>  <SCORE.INTRA.SOLV>
8.72636e-06

>  <SCORE.INTRA.SOLV.lig_0>
-10.9882

>  <SCORE.INTRA.VDW>
0.561879

>  <SCORE.INTRA.VDW.0>
1.84442

>  <SCORE.INTRA.norm>
0.0216164

>  <SCORE.RESTR>
0

>  <SCORE.RESTR.CAVITY>
0

>  <SCORE.RESTR.norm>
0

>  <SCORE.SYSTEM>
0

>  <SCORE.SYSTEM.CONST>
0

>  <SCORE.SYSTEM.DIHEDRAL>
0

>  <SCORE.SYSTEM.SOLV>
0

>  <SCORE.SYSTEM.norm>
0

>  <SCORE.heavy>
26

>  <SCORE.norm>
-2.16218

>  <RMSD>
0.740

$$$$
ligand
 OpenBabel02271912153D
libRbt.so/2013.1/901 2013/11/27
 26 29  0  0  0  0  0  0  0  0999 V2000
  112.2067  -79.4074  -87.1192 C   0  0  1  0  0  0  0  0  0  0  0  0
  112.6992  -80.6418  -87.5178 N   0  0  0  0  0  0  0  0  0  0  0  0
  112.3291  -78.9885  -85.7307 C   0  0  0  0  0  0  0  0  0  0  0  0
  111.3391  -74.3854  -80.6335 N   0  0  0  0  0  0  0  0  0  0  0  0
  111.9346  -77.3481  -84.0564 O   0  0  0  0  0  0  0  0  0  0  0  0
  111.7838  -77.7260  -85.4896 C   0  0  2  0  0  0  0  0  0  0  0  0
  111.4244  -76.1983  -83.8432 C   0  0  1  0  0  0  0  0  0  0  0  0
  111.6316  -75.9158  -82.4230 C   0  0  0  0  0  0  0  0  0  0  0  0
  111.1050  -74.6459  -81.9946 C   0  0  2  0  0  0  0  0  0  0  0  0
  110.4353  -73.7601  -82.8746 C   0  0  0  0  0  0  0  0  0  0  0  0
  110.2702  -74.0958  -84.2766 C   0  0  0  0  0  0  0  0  0  0  0  0
  110.8029  -75.3568  -84.7312 C   0  0  2  0  0  0  0  0  0  0  0  0
  110.6023  -75.6201  -86.2051 C   0  0  1  0  0  0  0  0  0  0  0  0
  111.1696  -76.8898  -86.4153 C   0  0  2  0  0  0  0  0  0  0  0  0
  111.0625  -77.3264  -87.8092 C   0  0  0  0  0  0  0  0  0  0  0  0
  111.6107  -78.6176  -88.0829 C   0  0  0  0  0  0  0  0  0  0  0  0
  109.9752  -74.7266  -87.0527 C   0  0  0  0  0  0  0  0  0  0  0  0
  110.3125  -73.3611  -87.2014 C   0  0  0  0  0  0  0  0  0  0  0  0
  109.7020  -72.4494  -88.0645 C   0  0  0  0  0  0  0  0  0  0  0  0
  108.6091  -72.8887  -88.9190 C   0  0  0  0  0  0  0  0  0  0  0  0
  108.2888  -74.2557  -88.7381 C   0  0  0  0  0  0  0  0  0  0  0  0
  108.8700  -75.2030  -87.8839 C   0  0  0  0  0  0  0  0  0  0  0  0
  112.7346  -81.0478  -88.9200 C   0  0  0  0  0  0  0  0  0  0  0  0
  113.2503  -81.6929  -86.6361 C   0  0  0  0  0  0  0  0  0  0  0  0
  111.9914  -75.1905  -79.5768 C   0  0  0  0  0  0  0  0  0  0  0  0
  110.8813  -73.0549  -80.0976 C   0  0  0  0  0  0  0  0  0  0  0  0
  1  2  1  6  0  0  0
  1  3  1  0  0  0  0
  1 16  1  0  0  0  0
  2 23  1  0  0  0  0
  2 24  1  0  0  0  0
  4 25  1  0  0  0  0
  4 26  1  0  0  0  0
  5  6  1  0  0  0  0
  6  3  1  1  0  0  0
  6 14  1  0  0  0  0
  7  5  1  6  0  0  0
  7  8  1  0  0  0  0
  7 12  1  0  0  0  0
  8  9  1  0  0  0  0
  9  4  1  6  0  0  0
  9 10  1  0  0  0  0
 10 11  1  0  0  0  0
 12 11  1  1  0  0  0
 12 13  1  0  0  0  0
 13 14  1  0  0  0  0
 13 17  1  1  0  0  0
 14 15  1  1  0  0  0
 15 16  1  0  0  0  0
 17 18  1  0  0  0  0
 17 22  1  0  0  0  0
 18 19  1  0  0  0  0
 19 20  1  0  0  0  0
 20 21  1  0  0  0  0
 21 22  1  0  0  0  0
M  END
>  <CHROM.1>
-173.13615361,-1.72832674,52.61846586,111.10459680,-76.27118164,-85.37842270
-1.26781314,-1.08098297,1.09232462

>  <Name>
ligand

>  <RI>
0

>  <Rbt.Current_Directory>
/home/itssahil/PROJECTS/Mol_Feturizer/Test_systems_manuscript/rnas/1f1t

>  <Rbt.Executable>
rbdock ($Id: //depot/dev/client3/rdock/2013.1/src/exe/rbdock.cxx#4 $)

>  <Rbt.Library>
libRbt.so (2013.1, Build901 2013/11/27)

>  <Rbt.Parameter_File>
/export/apps/rDock/src/rDock_2013.1_src/data/scripts/dock_solv.prm

>  <Rbt.Receptor>
prm/pocket_docking_3.prm

>  <SCORE>
-56.3315

>  <SCORE.INTER>
-56.8007

>  <SCORE.INTER.CONST>
1

>  <SCORE.INTER.POLAR>
0

>  <SCORE.INTER.ROT>
3

>  <SCORE.INTER.SOLV>
8.9864

>  <SCORE.INTER.VDW>
-46.4626

>  <SCORE.INTER.norm>
-2.18464

>  <SCORE.INTRA>
0.46923

>  <SCORE.INTRA.DIHEDRAL>
0.000291835

>  <SCORE.INTRA.DIHEDRAL.0>
3.60016

>  <SCORE.INTRA.POLAR>
0

>  <SCORE.INTRA.POLAR.0>
0

>  <SCORE.INTRA.REPUL>
0

>  <SCORE.INTRA.REPUL.0>
0

>  <SCORE.INTRA.SOLV>
1.70753e-05

>  <SCORE.INTRA.SOLV.lig_0>
-10.9882

>  <SCORE.INTRA.VDW>
0.469075

>  <SCORE.INTRA.VDW.0>
1.84442

>  <SCORE.INTRA.norm>
0.0180473

>  <SCORE.RESTR>
0

>  <SCORE.RESTR.CAVITY>
0

>  <SCORE.RESTR.norm>
0

>  <SCORE.SYSTEM>
0

>  <SCORE.SYSTEM.CONST>
0

>  <SCORE.SYSTEM.DIHEDRAL>
0

>  <SCORE.SYSTEM.SOLV>
0

>  <SCORE.SYSTEM.norm>
0

>  <SCORE.heavy>
26

>  <SCORE.norm>
-2.16659

>  <RMSD>
0.740

$$$$
ligand
 OpenBabel02271912153D
libRbt.so/2013.1/901 2013/11/27
 26 29  0  0  0  0  0  0  0  0999 V2000
  112.2645  -79.4793  -87.1345 C   0  0  1  0  0  0  0  0  0  0  0  0
  112.7994  -80.7018  -87.5146 N   0  0  0  0  0  0  0  0  0  0  0  0
  112.3949  -79.0236  -85.7583 C   0  0  0  0  0  0  0  0  0  0  0  0
  111.3113  -74.3468  -80.7480 N   0  0  0  0  0  0  0  0  0  0  0  0
  111.9646  -77.3620  -84.1141 O   0  0  0  0  0  0  0  0  0  0  0  0
  111.8032  -77.7788  -85.5353 C   0  0  2  0  0  0  0  0  0  0  0  0
  111.4120  -76.2289  -83.9172 C   0  0  1  0  0  0  0  0  0  0  0  0
  111.6333  -75.9054  -82.5079 C   0  0  0  0  0  0  0  0  0  0  0  0
  111.0633  -74.6480  -82.0982 C   0  0  2  0  0  0  0  0  0  0  0  0
  110.3423  -73.8106  -82.9849 C   0  0  0  0  0  0  0  0  0  0  0  0
  110.1656  -74.1852  -84.3757 C   0  0  0  0  0  0  0  0  0  0  0  0
  110.7407  -75.4339  -84.8119 C   0  0  2  0  0  0  0  0  0  0  0  0
  110.5243  -75.7393  -86.2754 C   0  0  1  0  0  0  0  0  0  0  0  0
  111.1389  -76.9897  -86.4677 C   0  0  2  0  0  0  0  0  0  0  0  0
  111.0243  -77.4626  -87.8491 C   0  0  0  0  0  0  0  0  0  0  0  0
  111.6194  -78.7366  -88.1042 C   0  0  0  0  0  0  0  0  0  0  0  0
  109.8461  -74.8917  -87.1307 C   0  0  0  0  0  0  0  0  0  0  0  0
  108.7677  -75.2610  -87.9681 C   0  0  0  0  0  0  0  0  0  0  0  0
  108.0604  -74.4153  -88.8244 C   0  0  0  0  0  0  0  0  0  0  0  0
  108.4208  -73.0076  -88.9043 C   0  0  0  0  0  0  0  0  0  0  0  0
  109.5095  -72.6730  -88.0637 C   0  0  0  0  0  0  0  0  0  0  0  0
  110.2488  -73.4870  -87.1943 C   0  0  0  0  0  0  0  0  0  0  0  0
  113.2905  -81.6716  -86.5396 C   0  0  0  0  0  0  0  0  0  0  0  0
  112.9449  -81.2038  -88.8976 C   0  0  0  0  0  0  0  0  0  0  0  0
  111.9506  -75.1305  -79.6676 C   0  0  0  0  0  0  0  0  0  0  0  0
  110.8880  -72.9882  -80.2558 C   0  0  0  0  0  0  0  0  0  0  0  0
  1  2  1  6  0  0  0
  1  3  1  0  0  0  0
  1 16  1  0  0  0  0
  2 23  1  0  0  0  0
  2 24  1  0  0  0  0
  4 25  1  0  0  0  0
  4 26  1  0  0  0  0
  5  6  1  0  0  0  0
  6  3  1  1  0  0  0
  6 14  1  0  0  0  0
  7  5  1  6  0  0  0
  7  8  1  0  0  0  0
  7 12  1  0  0  0  0
  8  9  1  0  0  0  0
  9  4  1  6  0  0  0
  9 10  1  0  0  0  0
 10 11  1  0  0  0  0
 12 11  1  1  0  0  0
 12 13  1  0  0  0  0
 13 14  1  0  0  0  0
 13 17  1  1  0  0  0
 14 15  1  1  0  0  0
 15 16  1  0  0  0  0
 17 18  1  0  0  0  0
 17 22  1  0  0  0  0
 18 19  1  0  0  0  0
 19 20  1  0  0  0  0
 20 21  1  0  0  0  0
 21 22  1  0  0  0  0
M  END
>  <CHROM.1>
11.04139848,-5.53443780,-127.85967523,111.07508858,-76.33543357,-85.42977258
-1.24265260,-1.04366060,1.07634091

>  <Name>
ligand

>  <RI>
0

>  <Rbt.Current_Directory>
/home/itssahil/PROJECTS/Mol_Feturizer/Test_systems_manuscript/rnas/1f1t

>  <Rbt.Executable>
rbdock ($Id: //depot/dev/client3/rdock/2013.1/src/exe/rbdock.cxx#4 $)

>  <Rbt.Library>
libRbt.so (2013.1, Build901 2013/11/27)

>  <Rbt.Parameter_File>
/export/apps/rDock/src/rDock_2013.1_src/data/scripts/dock_solv.prm

>  <Rbt.Receptor>
prm/pocket_docking_3.prm

>  <SCORE>
-56.0173

>  <SCORE.INTER>
-56.1958

>  <SCORE.INTER.CONST>
1

>  <SCORE.INTER.POLAR>
0

>  <SCORE.INTER.ROT>
3

>  <SCORE.INTER.SOLV>
8.90833

>  <SCORE.INTER.VDW>
-46.0333

>  <SCORE.INTER.norm>
-2.16138

>  <SCORE.INTRA>
0.178483

>  <SCORE.INTRA.DIHEDRAL>
-1.39683e-05

>  <SCORE.INTRA.DIHEDRAL.0>
3.60016

>  <SCORE.INTRA.POLAR>
0

>  <SCORE.INTRA.POLAR.0>
0

>  <SCORE.INTRA.REPUL>
0

>  <SCORE.INTRA.REPUL.0>
0

>  <SCORE.INTRA.SOLV>
5.25775e-05

>  <SCORE.INTRA.SOLV.lig_0>
-10.9882

>  <SCORE.INTRA.VDW>
0.178463

>  <SCORE.INTRA.VDW.0>
1.84442

>  <SCORE.INTRA.norm>
0.00686471

>  <SCORE.RESTR>
0

>  <SCORE.RESTR.CAVITY>
0

>  <SCORE.RESTR.norm>
0

>  <SCORE.SYSTEM>
0

>  <SCORE.SYSTEM.CONST>
0

>  <SCORE.SYSTEM.DIHEDRAL>
0

>  <SCORE.SYSTEM.SOLV>
0

>  <SCORE.SYSTEM.norm>
0

>  <SCORE.heavy>
26

>  <SCORE.norm>
-2.15451

>  <RMSD>
0.740

$$$$
ligand
 OpenBabel02271912153D
libRbt.so/2013.1/901 2013/11/27
 26 29  0  0  0  0  0  0  0  0999 V2000
  111.2626  -74.6159  -81.8873 C   0  0  1  0  0  0  0  0  0  0  0  0
  111.4435  -74.2756  -80.5544 N   0  0  0  0  0  0  0  0  0  0  0  0
  111.7597  -75.8890  -82.3877 C   0  0  0  0  0  0  0  0  0  0  0  0
  112.6867  -80.5002  -87.4895 N   0  0  0  0  0  0  0  0  0  0  0  0
  112.0319  -77.3960  -84.2056 O   0  0  0  0  0  0  0  0  0  0  0  0
  111.5022  -76.0814  -83.7464 C   0  0  2  0  0  0  0  0  0  0  0  0
  111.8015  -77.5586  -85.4499 C   0  0  1  0  0  0  0  0  0  0  0  0
  112.3448  -78.8713  -85.7984 C   0  0  0  0  0  0  0  0  0  0  0  0
  112.1810  -79.2248  -87.1847 C   0  0  2  0  0  0  0  0  0  0  0  0
  111.5590  -78.3657  -88.1241 C   0  0  0  0  0  0  0  0  0  0  0  0
  111.0318  -77.0781  -87.7120 C   0  0  0  0  0  0  0  0  0  0  0  0
  111.1718  -76.7093  -86.3247 C   0  0  2  0  0  0  0  0  0  0  0  0
  110.5826  -75.3622  -85.9781 C   0  0  1  0  0  0  0  0  0  0  0  0
  110.8493  -75.2049  -84.6061 C   0  0  2  0  0  0  0  0  0  0  0  0
  110.3502  -73.9318  -84.0817 C   0  0  0  0  0  0  0  0  0  0  0  0
  110.6033  -73.7081  -82.6931 C   0  0  0  0  0  0  0  0  0  0  0  0
  109.9502  -74.5544  -86.9041 C   0  0  0  0  0  0  0  0  0  0  0  0
  110.2742  -73.2042  -87.1727 C   0  0  0  0  0  0  0  0  0  0  0  0
  109.6583  -72.3794  -88.1157 C   0  0  0  0  0  0  0  0  0  0  0  0
  108.5737  -72.9047  -88.9316 C   0  0  0  0  0  0  0  0  0  0  0  0
  108.2667  -74.2535  -88.6307 C   0  0  0  0  0  0  0  0  0  0  0  0
  108.8537  -75.1147  -87.6935 C   0  0  0  0  0  0  0  0  0  0  0  0
  111.0398  -72.9769  -80.0227 C   0  0  0  0  0  0  0  0  0  0  0  0
  112.0355  -75.1303  -79.5033 C   0  0  0  0  0  0  0  0  0  0  0  0
  113.2814  -81.5517  -86.6346 C   0  0  0  0  0  0  0  0  0  0  0  0
  112.6243  -80.9407  -88.9279 C   0  0  0  0  0  0  0  0  0  0  0  0
  1  2  1  1  0  0  0
  1  3  1  0  0  0  0
  1 16  1  0  0  0  0
  2 23  1  0  0  0  0
  2 24  1  0  0  0  0
  4 25  1  0  0  0  0
  4 26  1  0  0  0  0
  5  6  1  0  0  0  0
  6  3  1  6  0  0  0
  6 14  1  0  0  0  0
  7  5  1  1  0  0  0
  7  8  1  0  0  0  0
  7 12  1  0  0  0  0
  8  9  1  0  0  0  0
  9  4  1  1  0  0  0
  9 10  1  0  0  0  0
 10 11  1  0  0  0  0
 12 11  1  6  0  0  0
 12 13  1  0  0  0  0
 13 14  1  0  0  0  0
 13 17  1  6  0  0  0
 14 15  1  6  0  0  0
 15 16  1  0  0  0  0
 17 18  1  0  0  0  0
 17 22  1  0  0  0  0
 18 19  1  0  0  0  0
 19 20  1  0  0  0  0
 20 21  1  0  0  0  0
 21 22  1  0  0  0  0
M  END
>  <CHROM.1>
176.03937698,3.72473618,-126.05416468,111.13264068,-76.15792050,-85.32288971
-1.81288067,1.07234570,-2.07301784

>  <Name>
ligand

>  <RI>
0

>  <Rbt.Current_Directory>
/home/itssahil/PROJECTS/Mol_Feturizer/Test_systems_manuscript/rnas/1f1t

>  <Rbt.Executable>
rbdock ($Id: //depot/dev/client3/rdock/2013.1/src/exe/rbdock.cxx#4 $)

>  <Rbt.Library>
libRbt.so (2013.1, Build901 2013/11/27)

>  <Rbt.Parameter_File>
/export/apps/rDock/src/rDock_2013.1_src/data/scripts/dock_solv.prm

>  <Rbt.Receptor>
prm/pocket_docking_3.prm

>  <SCORE>
-56.1729

>  <SCORE.INTER>
-56.7107

>  <SCORE.INTER.CONST>
1

>  <SCORE.INTER.POLAR>
0

>  <SCORE.INTER.ROT>
3

>  <SCORE.INTER.SOLV>
9.2273

>  <SCORE.INTER.VDW>
-46.4829

>  <SCORE.INTER.norm>
-2.18118

>  <SCORE.INTRA>
0.537746

>  <SCORE.INTRA.DIHEDRAL>
9.17109e-07

>  <SCORE.INTRA.DIHEDRAL.0>
3.60016

>  <SCORE.INTRA.POLAR>
0

>  <SCORE.INTRA.POLAR.0>
0

>  <SCORE.INTRA.REPUL>
0

>  <SCORE.INTRA.REPUL.0>
0

>  <SCORE.INTRA.SOLV>
1.25418e-05

>  <SCORE.INTRA.SOLV.lig_0>
-10.9882

>  <SCORE.INTRA.VDW>
0.53774

>  <SCORE.INTRA.VDW.0>
1.84442

>  <SCORE.INTRA.norm>
0.0206826

>  <SCORE.RESTR>
0

>  <SCORE.RESTR.CAVITY>
0

>  <SCORE.RESTR.norm>
0

>  <SCORE.SYSTEM>
0

>  <SCORE.SYSTEM.CONST>
0

>  <SCORE.SYSTEM.DIHEDRAL>
0

>  <SCORE.SYSTEM.SOLV>
0

>  <SCORE.SYSTEM.norm>
0

>  <SCORE.heavy>
26

>  <SCORE.norm>
-2.1605

>  <RMSD>
0.740

$$$$
ligand
 OpenBabel02271912153D
libRbt.so/2013.1/901 2013/11/27
 26 29  0  0  0  0  0  0  0  0999 V2000
  111.2702  -74.6167  -81.8958 C   0  0  1  0  0  0  0  0  0  0  0  0
  111.4505  -74.2753  -80.5631 N   0  0  0  0  0  0  0  0  0  0  0  0
  111.7679  -75.8900  -82.3950 C   0  0  0  0  0  0  0  0  0  0  0  0
  112.6987  -80.5047  -87.4930 N   0  0  0  0  0  0  0  0  0  0  0  0
  112.0414  -77.3983  -84.2116 O   0  0  0  0  0  0  0  0  0  0  0  0
  111.5110  -76.0835  -83.7537 C   0  0  2  0  0  0  0  0  0  0  0  0
  111.8115  -77.5619  -85.4559 C   0  0  1  0  0  0  0  0  0  0  0  0
  112.3555  -78.8746  -85.8032 C   0  0  0  0  0  0  0  0  0  0  0  0
  112.1923  -79.2293  -87.1892 C   0  0  2  0  0  0  0  0  0  0  0  0
  111.5702  -78.3712  -88.1296 C   0  0  0  0  0  0  0  0  0  0  0  0
  111.0423  -77.0835  -87.7186 C   0  0  0  0  0  0  0  0  0  0  0  0
  111.1817  -76.7136  -86.3315 C   0  0  2  0  0  0  0  0  0  0  0  0
  110.5918  -75.3665  -85.9862 C   0  0  1  0  0  0  0  0  0  0  0  0
  110.8580  -75.2080  -84.6142 C   0  0  2  0  0  0  0  0  0  0  0  0
  110.3582  -73.9347  -84.0910 C   0  0  0  0  0  0  0  0  0  0  0  0
  110.6107  -73.7098  -82.7024 C   0  0  0  0  0  0  0  0  0  0  0  0
  109.9593  -74.5597  -86.9130 C   0  0  0  0  0  0  0  0  0  0  0  0
  110.2851  -73.2105  -87.1851 C   0  0  0  0  0  0  0  0  0  0  0  0
  109.6691  -72.3869  -88.1290 C   0  0  0  0  0  0  0  0  0  0  0  0
  108.5825  -72.9122  -88.9421 C   0  0  0  0  0  0  0  0  0  0  0  0
  108.2737  -74.2598  -88.6378 C   0  0  0  0  0  0  0  0  0  0  0  0
  108.8607  -75.1200  -87.6996 C   0  0  0  0  0  0  0  0  0  0  0  0
  112.0566  -75.1920  -79.6016 C   0  0  0  0  0  0  0  0  0  0  0  0
  111.0866  -72.9898  -79.9297 C   0  0  0  0  0  0  0  0  0  0  0  0
  113.2490  -81.5745  -86.6309 C   0  0  0  0  0  0  0  0  0  0  0  0
  112.6906  -80.9231  -88.9393 C   0  0  0  0  0  0  0  0  0  0  0  0
  1  2  1  1  0  0  0
  1  3  1  0  0  0  0
  1 16  1  0  0  0  0
  2 23  1  0  0  0  0
  2 24  1  0  0  0  0
  4 25  1  0  0  0  0
  4 26  1  0  0  0  0
  5  6  1  0  0  0  0
  6  3  1  6  0  0  0
  6 14  1  0  0  0  0
  7  5  1  1  0  0  0
  7  8  1  0  0  0  0
  7 12  1  0  0  0  0
  8  9  1  0  0  0  0
  9  4  1  1  0  0  0
  9 10  1  0  0  0  0
 10 11  1  0  0  0  0
 12 11  1  6  0  0  0
 12 13  1  0  0  0  0
 13 14  1  0  0  0  0
 13 17  1  6  0  0  0
 14 15  1  6  0  0  0
 15 16  1  0  0  0  0
 17 18  1  0  0  0  0
 17 22  1  0  0  0  0
 18 19  1  0  0  0  0
 19 20  1  0  0  0  0
 20 21  1  0  0  0  0
 21 22  1  0  0  0  0
M  END
>  <CHROM.1>
-3.96828326,6.25731194,-125.87792610,111.14483860,-76.16471946,-85.32971861
-1.81214119,1.07242601,-2.07235232

>  <Name>
ligand

>  <RI>
0

>  <Rbt.Current_Directory>
/home/itssahil/PROJECTS/Mol_Feturizer/Test_systems_manuscript/rnas/1f1t

>  <Rbt.Executable>
rbdock ($Id: //depot/dev/client3/rdock/2013.1/src/exe/rbdock.cxx#4 $)

>  <Rbt.Library>
libRbt.so (2013.1, Build901 2013/11/27)

>  <Rbt.Parameter_File>
/export/apps/rDock/src/rDock_2013.1_src/data/scripts/dock_solv.prm

>  <Rbt.Receptor>
prm/pocket_docking_3.prm

>  <SCORE>
-56.4654

>  <SCORE.INTER>
-56.6738

>  <SCORE.INTER.CONST>
1

>  <SCORE.INTER.POLAR>
0

>  <SCORE.INTER.ROT>
3

>  <SCORE.INTER.SOLV>
9.22997

>  <SCORE.INTER.VDW>
-46.4592

>  <SCORE.INTER.norm>
-2.17976

>  <SCORE.INTRA>
0.20841

>  <SCORE.INTRA.DIHEDRAL>
-2.28591e-05

>  <SCORE.INTRA.DIHEDRAL.0>
3.60016

>  <SCORE.INTRA.POLAR>
0

>  <SCORE.INTRA.POLAR.0>
0

>  <SCORE.INTRA.REPUL>
0

>  <SCORE.INTRA.REPUL.0>
0

>  <SCORE.INTRA.SOLV>
2.06102e-05

>  <SCORE.INTRA.SOLV.lig_0>
-10.9882

>  <SCORE.INTRA.VDW>
0.208412

>  <SCORE.INTRA.VDW.0>
1.84442

>  <SCORE.INTRA.norm>
0.00801579

>  <SCORE.RESTR>
0

>  <SCORE.RESTR.CAVITY>
0

>  <SCORE.RESTR.norm>
0

>  <SCORE.SYSTEM>
0

>  <SCORE.SYSTEM.CONST>
0

>  <SCORE.SYSTEM.DIHEDRAL>
0

>  <SCORE.SYSTEM.SOLV>
0

>  <SCORE.SYSTEM.norm>
0

>  <SCORE.heavy>
26

>  <SCORE.norm>
-2.17175

>  <RMSD>
0.740

$$$$
ligand
 OpenBabel02271912153D
libRbt.so/2013.1/901 2013/11/27
 26 29  0  0  0  0  0  0  0  0999 V2000
  111.1792  -74.7273  -82.0329 C   0  0  1  0  0  0  0  0  0  0  0  0
  111.3500  -74.3621  -80.7053 N   0  0  0  0  0  0  0  0  0  0  0  0
  111.7032  -75.9979  -82.5118 C   0  0  0  0  0  0  0  0  0  0  0  0
  112.7359  -80.6703  -87.5370 N   0  0  0  0  0  0  0  0  0  0  0  0
  112.0103  -77.5280  -84.3047 O   0  0  0  0  0  0  0  0  0  0  0  0
  111.4529  -76.2172  -83.8678 C   0  0  2  0  0  0  0  0  0  0  0  0
  111.7863  -77.7151  -85.5467 C   0  0  1  0  0  0  0  0  0  0  0  0
  112.3569  -79.0219  -85.8729 C   0  0  0  0  0  0  0  0  0  0  0  0
  112.2036  -79.4008  -87.2537 C   0  0  2  0  0  0  0  0  0  0  0  0
  111.5665  -78.5698  -88.2081 C   0  0  0  0  0  0  0  0  0  0  0  0
  111.0122  -77.2867  -87.8178 C   0  0  0  0  0  0  0  0  0  0  0  0
  111.1415  -76.8929  -86.4363 C   0  0  2  0  0  0  0  0  0  0  0  0
  110.5242  -75.5527  -86.1125 C   0  0  1  0  0  0  0  0  0  0  0  0
  110.7844  -75.3681  -84.7427 C   0  0  2  0  0  0  0  0  0  0  0  0
  110.2583  -74.0971  -84.2399 C   0  0  0  0  0  0  0  0  0  0  0  0
  110.5035  -73.8461  -82.8545 C   0  0  0  0  0  0  0  0  0  0  0  0
  109.8776  -74.7730  -87.0527 C   0  0  0  0  0  0  0  0  0  0  0  0
  108.8796  -75.2244  -87.9474 C   0  0  0  0  0  0  0  0  0  0  0  0
  108.2042  -74.4477  -88.8906 C   0  0  0  0  0  0  0  0  0  0  0  0
  108.5130  -73.0306  -89.0095 C   0  0  0  0  0  0  0  0  0  0  0  0
  109.5226  -72.6133  -88.1091 C   0  0  0  0  0  0  0  0  0  0  0  0
  110.2276  -73.3563  -87.1521 C   0  0  0  0  0  0  0  0  0  0  0  0
  112.0097  -75.2350  -79.7383 C   0  0  0  0  0  0  0  0  0  0  0  0
  110.9232  -73.0905  -80.0833 C   0  0  0  0  0  0  0  0  0  0  0  0
  113.3547  -81.6935  -86.6649 C   0  0  0  0  0  0  0  0  0  0  0  0
  112.6799  -81.1378  -88.9672 C   0  0  0  0  0  0  0  0  0  0  0  0
  1  2  1  1  0  0  0
  1  3  1  0  0  0  0
  1 16  1  0  0  0  0
  2 23  1  0  0  0  0
  2 24  1  0  0  0  0
  4 25  1  0  0  0  0
  4 26  1  0  0  0  0
  5  6  1  0  0  0  0
  6  3  1  6  0  0  0
  6 14  1  0  0  0  0
  7  5  1  1  0  0  0
  7  8  1  0  0  0  0
  7 12  1  0  0  0  0
  8  9  1  0  0  0  0
  9  4  1  1  0  0  0
  9 10  1  0  0  0  0
 10 11  1  0  0  0  0
 12 11  1  6  0  0  0
 12 13  1  0  0  0  0
 13 14  1  0  0  0  0
 13 17  1  6  0  0  0
 14 15  1  6  0  0  0
 15 16  1  0  0  0  0
 17 18  1  0  0  0  0
 17 22  1  0  0  0  0
 18 19  1  0  0  0  0
 19 20  1  0  0  0  0
 20 21  1  0  0  0  0
 21 22  1  0  0  0  0
M  END
>  <CHROM.1>
-2.01583405,3.44455294,49.04253975,111.09734534,-76.31329422,-85.43338101
-1.85124900,1.05878220,-2.06728162

>  <Name>
ligand

>  <RI>
0

>  <Rbt.Current_Directory>
/home/itssahil/PROJECTS/Mol_Feturizer/Test_systems_manuscript/rnas/1f1t

>  <Rbt.Executable>
rbdock ($Id: //depot/dev/client3/rdock/2013.1/src/exe/rbdock.cxx#4 $)

>  <Rbt.Library>
libRbt.so (2013.1, Build901 2013/11/27)

>  <Rbt.Parameter_File>
/export/apps/rDock/src/rDock_2013.1_src/data/scripts/dock_solv.prm

>  <Rbt.Receptor>
prm/pocket_docking_6.prm

>  <SCORE>
-56.1269

>  <SCORE.INTER>
-56.4322

>  <SCORE.INTER.CONST>
1

>  <SCORE.INTER.POLAR>
0

>  <SCORE.INTER.ROT>
3

>  <SCORE.INTER.SOLV>
9.02798

>  <SCORE.INTER.VDW>
-46.2308

>  <SCORE.INTER.norm>
-2.17047

>  <SCORE.INTRA>
0.305264

>  <SCORE.INTRA.DIHEDRAL>
0.000261837

>  <SCORE.INTRA.DIHEDRAL.0>
3.60016

>  <SCORE.INTRA.POLAR>
0

>  <SCORE.INTRA.POLAR.0>
0

>  <SCORE.INTRA.REPUL>
0

>  <SCORE.INTRA.REPUL.0>
0

>  <SCORE.INTRA.SOLV>
6.33184e-06

>  <SCORE.INTRA.SOLV.lig_0>
-10.9882

>  <SCORE.INTRA.VDW>
0.30513

>  <SCORE.INTRA.VDW.0>
1.84442

>  <SCORE.INTRA.norm>
0.0117409

>  <SCORE.RESTR>
0

>  <SCORE.RESTR.CAVITY>
0

>  <SCORE.RESTR.norm>
0

>  <SCORE.SYSTEM>
0

>  <SCORE.SYSTEM.CONST>
0

>  <SCORE.SYSTEM.DIHEDRAL>
0

>  <SCORE.SYSTEM.SOLV>
0

>  <SCORE.SYSTEM.norm>
0

>  <SCORE.heavy>
26

>  <SCORE.norm>
-2.15873

>  <RMSD>
0.740

$$$$
ligand
 OpenBabel02271912153D
libRbt.so/2013.1/901 2013/11/27
 26 29  0  0  0  0  0  0  0  0999 V2000
  112.2548  -79.4796  -87.1579 C   0  0  1  0  0  0  0  0  0  0  0  0
  112.7889  -80.7003  -87.5447 N   0  0  0  0  0  0  0  0  0  0  0  0
  112.3864  -79.0311  -85.7795 C   0  0  0  0  0  0  0  0  0  0  0  0
  111.3084  -74.3796  -80.7444 N   0  0  0  0  0  0  0  0  0  0  0  0
  111.9579  -77.3777  -84.1265 O   0  0  0  0  0  0  0  0  0  0  0  0
  111.7954  -77.7872  -85.5497 C   0  0  2  0  0  0  0  0  0  0  0  0
  111.4060  -76.2454  -83.9233 C   0  0  1  0  0  0  0  0  0  0  0  0
  111.6284  -75.9292  -82.5126 C   0  0  0  0  0  0  0  0  0  0  0  0
  111.0593  -74.6738  -82.0959 C   0  0  2  0  0  0  0  0  0  0  0  0
  110.3380  -73.8315  -82.9779 C   0  0  0  0  0  0  0  0  0  0  0  0
  110.1602  -74.1989  -84.3704 C   0  0  0  0  0  0  0  0  0  0  0  0
  110.7344  -75.4456  -84.8134 C   0  0  2  0  0  0  0  0  0  0  0  0
  110.5168  -75.7433  -86.2784 C   0  0  1  0  0  0  0  0  0  0  0  0
  111.1307  -76.9930  -86.4776 C   0  0  2  0  0  0  0  0  0  0  0  0
  111.0150  -77.4587  -87.8613 C   0  0  0  0  0  0  0  0  0  0  0  0
  111.6093  -78.7317  -88.1233 C   0  0  0  0  0  0  0  0  0  0  0  0
  109.8384  -74.8910  -87.1288 C   0  0  0  0  0  0  0  0  0  0  0  0
  108.7365  -75.2473  -87.9409 C   0  0  0  0  0  0  0  0  0  0  0  0
  108.0290  -74.3963  -88.7917 C   0  0  0  0  0  0  0  0  0  0  0  0
  108.4150  -72.9969  -88.8933 C   0  0  0  0  0  0  0  0  0  0  0  0
  109.5266  -72.6755  -88.0777 C   0  0  0  0  0  0  0  0  0  0  0  0
  110.2670  -73.4952  -87.2148 C   0  0  0  0  0  0  0  0  0  0  0  0
  112.9157  -81.0829  -88.9482 C   0  0  0  0  0  0  0  0  0  0  0  0
  113.3008  -81.7579  -86.6473 C   0  0  0  0  0  0  0  0  0  0  0  0
  111.9580  -75.1649  -79.6712 C   0  0  0  0  0  0  0  0  0  0  0  0
  110.8740  -73.0285  -80.2417 C   0  0  0  0  0  0  0  0  0  0  0  0
  1  2  1  6  0  0  0
  1  3  1  0  0  0  0
  1 16  1  0  0  0  0
  2 23  1  0  0  0  0
  2 24  1  0  0  0  0
  4 25  1  0  0  0  0
  4 26  1  0  0  0  0
  5  6  1  0  0  0  0
  6  3  1  1  0  0  0
  6 14  1  0  0  0  0
  7  5  1  6  0  0  0
  7  8  1  0  0  0  0
  7 12  1  0  0  0  0
  8  9  1  0  0  0  0
  9  4  1  6  0  0  0
  9 10  1  0  0  0  0
 10 11  1  0  0  0  0
 12 11  1  1  0  0  0
 12 13  1  0  0  0  0
 13 14  1  0  0  0  0
 13 17  1  1  0  0  0
 14 15  1  1  0  0  0
 15 16  1  0  0  0  0
 17 18  1  0  0  0  0
 17 22  1  0  0  0  0
 18 19  1  0  0  0  0
 19 20  1  0  0  0  0
 20 21  1  0  0  0  0
 21 22  1  0  0  0  0
M  END
>  <CHROM.1>
-167.93521342,-4.95832782,-126.07979064,111.06824970,-76.34270416,-85.44042153
-1.24459477,-1.04325528,1.08206891

>  <Name>
ligand

>  <RI>
0

>  <Rbt.Current_Directory>
/home/itssahil/PROJECTS/Mol_Feturizer/Test_systems_manuscript/rnas/1f1t

>  <Rbt.Executable>
rbdock ($Id: //depot/dev/client3/rdock/2013.1/src/exe/rbdock.cxx#4 $)

>  <Rbt.Library>
libRbt.so (2013.1, Build901 2013/11/27)

>  <Rbt.Parameter_File>
/export/apps/rDock/src/rDock_2013.1_src/data/scripts/dock_solv.prm

>  <Rbt.Receptor>
prm/pocket_docking_7.prm

>  <SCORE>
-55.7433

>  <SCORE.INTER>
-56.1298

>  <SCORE.INTER.CONST>
1

>  <SCORE.INTER.POLAR>
0

>  <SCORE.INTER.ROT>
3

>  <SCORE.INTER.SOLV>
8.87232

>  <SCORE.INTER.VDW>
-45.9773

>  <SCORE.INTER.norm>
-2.15884

>  <SCORE.INTRA>
0.386495

>  <SCORE.INTRA.DIHEDRAL>
-5.48951e-06

>  <SCORE.INTRA.DIHEDRAL.0>
3.60016

>  <SCORE.INTRA.POLAR>
0

>  <SCORE.INTRA.POLAR.0>
0

>  <SCORE.INTRA.REPUL>
0

>  <SCORE.INTRA.REPUL.0>
0

>  <SCORE.INTRA.SOLV>
6.24109e-05

>  <SCORE.INTRA.SOLV.lig_0>
-10.9882

>  <SCORE.INTRA.VDW>
0.386467

>  <SCORE.INTRA.VDW.0>
1.84442

>  <SCORE.INTRA.norm>
0.0148652

>  <SCORE.RESTR>
0

>  <SCORE.RESTR.CAVITY>
0

>  <SCORE.RESTR.norm>
0

>  <SCORE.SYSTEM>
0

>  <SCORE.SYSTEM.CONST>
0

>  <SCORE.SYSTEM.DIHEDRAL>
0

>  <SCORE.SYSTEM.SOLV>
0

>  <SCORE.SYSTEM.norm>
0

>  <SCORE.heavy>
26

>  <SCORE.norm>
-2.14397

>  <RMSD>
0.740

$$$$
ligand
 OpenBabel02271912153D
libRbt.so/2013.1/901 2013/11/27
 26 29  0  0  0  0  0  0  0  0999 V2000
  111.2670  -74.6080  -81.8908 C   0  0  1  0  0  0  0  0  0  0  0  0
  111.4527  -74.2661  -80.5590 N   0  0  0  0  0  0  0  0  0  0  0  0
  111.7587  -75.8835  -82.3906 C   0  0  0  0  0  0  0  0  0  0  0  0
  112.6571  -80.5059  -87.4874 N   0  0  0  0  0  0  0  0  0  0  0  0
  112.0211  -77.3943  -84.2067 O   0  0  0  0  0  0  0  0  0  0  0  0
  111.4968  -76.0773  -83.7482 C   0  0  2  0  0  0  0  0  0  0  0  0
  111.7868  -77.5582  -85.4501 C   0  0  1  0  0  0  0  0  0  0  0  0
  112.3250  -78.8732  -85.7979 C   0  0  0  0  0  0  0  0  0  0  0  0
  112.1562  -79.2285  -87.1832 C   0  0  2  0  0  0  0  0  0  0  0  0
  111.5342  -78.3690  -88.1223 C   0  0  0  0  0  0  0  0  0  0  0  0
  111.0122  -77.0791  -87.7108 C   0  0  0  0  0  0  0  0  0  0  0  0
  111.1573  -76.7084  -86.3245 C   0  0  2  0  0  0  0  0  0  0  0  0
  110.5732  -75.3589  -85.9784 C   0  0  1  0  0  0  0  0  0  0  0  0
  110.8442  -75.2002  -84.6075 C   0  0  2  0  0  0  0  0  0  0  0  0
  110.3506  -73.9247  -84.0838 C   0  0  0  0  0  0  0  0  0  0  0  0
  110.6083  -73.6995  -82.6962 C   0  0  0  0  0  0  0  0  0  0  0  0
  109.9407  -74.5507  -86.9040 C   0  0  0  0  0  0  0  0  0  0  0  0
  110.2797  -73.2074  -87.1885 C   0  0  0  0  0  0  0  0  0  0  0  0
  109.6637  -72.3826  -88.1314 C   0  0  0  0  0  0  0  0  0  0  0  0
  108.5624  -72.9001  -88.9296 C   0  0  0  0  0  0  0  0  0  0  0  0
  108.2407  -74.2419  -88.6131 C   0  0  0  0  0  0  0  0  0  0  0  0
  108.8272  -75.1028  -87.6753 C   0  0  0  0  0  0  0  0  0  0  0  0
  112.0717  -75.1788  -79.6019 C   0  0  0  0  0  0  0  0  0  0  0  0
  111.0827  -72.9840  -79.9226 C   0  0  0  0  0  0  0  0  0  0  0  0
  113.2875  -81.5419  -86.6391 C   0  0  0  0  0  0  0  0  0  0  0  0
  112.5452  -80.9680  -88.9160 C   0  0  0  0  0  0  0  0  0  0  0  0
  1  2  1  1  0  0  0
  1  3  1  0  0  0  0
  1 16  1  0  0  0  0
  2 23  1  0  0  0  0
  2 24  1  0  0  0  0
  4 25  1  0  0  0  0
  4 26  1  0  0  0  0
  5  6  1  0  0  0  0
  6  3  1  6  0  0  0
  6 14  1  0  0  0  0
  7  5  1  1  0  0  0
  7  8  1  0  0  0  0
  7 12  1  0  0  0  0
  8  9  1  0  0  0  0
  9  4  1  1  0  0  0
  9 10  1  0  0  0  0
 10 11  1  0  0  0  0
 12 11  1  6  0  0  0
 12 13  1  0  0  0  0
 13 14  1  0  0  0  0
 13 17  1  6  0  0  0
 14 15  1  6  0  0  0
 15 16  1  0  0  0  0
 17 18  1  0  0  0  0
 17 22  1  0  0  0  0
 18 19  1  0  0  0  0
 19 20  1  0  0  0  0
 20 21  1  0  0  0  0
 21 22  1  0  0  0  0
M  END
>  <CHROM.1>
-3.29356621,1.62973422,-125.15572035,111.12460030,-76.15889043,-85.32277863
-1.80041905,1.07275212,-2.08390207

>  <Name>
ligand

>  <RI>
0

>  <Rbt.Current_Directory>
/home/itssahil/PROJECTS/Mol_Feturizer/Test_systems_manuscript/rnas/1f1t

>  <Rbt.Executable>
rbdock ($Id: //depot/dev/client3/rdock/2013.1/src/exe/rbdock.cxx#4 $)

>  <Rbt.Library>
libRbt.so (2013.1, Build901 2013/11/27)

>  <Rbt.Parameter_File>
/export/apps/rDock/src/rDock_2013.1_src/data/scripts/dock_solv.prm

>  <Rbt.Receptor>
prm/pocket_docking_8.prm

>  <SCORE>
-56.4036

>  <SCORE.INTER>
-56.6265

>  <SCORE.INTER.CONST>
1

>  <SCORE.INTER.POLAR>
0

>  <SCORE.INTER.ROT>
3

>  <SCORE.INTER.SOLV>
9.23832

>  <SCORE.INTER.VDW>
-46.4304

>  <SCORE.INTER.norm>
-2.17794

>  <SCORE.INTRA>
0.222839

>  <SCORE.INTRA.DIHEDRAL>
-1.03149e-05

>  <SCORE.INTRA.DIHEDRAL.0>
3.60016

>  <SCORE.INTRA.POLAR>
0

>  <SCORE.INTRA.POLAR.0>
0

>  <SCORE.INTRA.REPUL>
0

>  <SCORE.INTRA.REPUL.0>
0

>  <SCORE.INTRA.SOLV>
6.20628e-06

>  <SCORE.INTRA.SOLV.lig_0>
-10.9882

>  <SCORE.INTRA.VDW>
0.222841

>  <SCORE.INTRA.VDW.0>
1.84442

>  <SCORE.INTRA.norm>
0.00857071

>  <SCORE.RESTR>
0

>  <SCORE.RESTR.CAVITY>
0

>  <SCORE.RESTR.norm>
0

>  <SCORE.SYSTEM>
0

>  <SCORE.SYSTEM.CONST>
0

>  <SCORE.SYSTEM.DIHEDRAL>
0

>  <SCORE.SYSTEM.SOLV>
0

>  <SCORE.SYSTEM.norm>
0

>  <SCORE.heavy>
26

>  <SCORE.norm>
-2.16937

>  <RMSD>
0.740

$$$$
ligand
 OpenBabel02271912153D
libRbt.so/2013.1/901 2013/11/27
 26 29  0  0  0  0  0  0  0  0999 V2000
  111.1962  -74.6627  -81.9129 C   0  0  1  0  0  0  0  0  0  0  0  0
  111.3634  -74.3287  -80.5766 N   0  0  0  0  0  0  0  0  0  0  0  0
  111.7052  -75.9301  -82.4159 C   0  0  0  0  0  0  0  0  0  0  0  0
  112.7042  -80.5075  -87.5346 N   0  0  0  0  0  0  0  0  0  0  0  0
  112.0022  -77.4254  -84.2395 O   0  0  0  0  0  0  0  0  0  0  0  0
  111.4608  -76.1165  -83.7779 C   0  0  2  0  0  0  0  0  0  0  0  0
  111.7838  -77.5825  -85.4868 C   0  0  1  0  0  0  0  0  0  0  0  0
  112.3378  -78.8900  -85.8376 C   0  0  0  0  0  0  0  0  0  0  0  0
  112.1883  -79.2368  -87.2272 C   0  0  2  0  0  0  0  0  0  0  0  0
  111.5694  -78.3762  -88.1674 C   0  0  0  0  0  0  0  0  0  0  0  0
  111.0311  -77.0940  -87.7529 C   0  0  0  0  0  0  0  0  0  0  0  0
  111.1568  -76.7320  -86.3623 C   0  0  2  0  0  0  0  0  0  0  0  0
  110.5566  -75.3903  -86.0136 C   0  0  1  0  0  0  0  0  0  0  0  0
  110.8103  -75.2391  -84.6384 C   0  0  2  0  0  0  0  0  0  0  0  0
  110.2991  -73.9718  -84.1115 C   0  0  0  0  0  0  0  0  0  0  0  0
  110.5387  -73.7543  -82.7195 C   0  0  0  0  0  0  0  0  0  0  0  0
  109.9275  -74.5812  -86.9407 C   0  0  0  0  0  0  0  0  0  0  0  0
  110.2832  -73.2454  -87.2399 C   0  0  0  0  0  0  0  0  0  0  0  0
  109.6708  -72.4201  -88.1846 C   0  0  0  0  0  0  0  0  0  0  0  0
  108.5552  -72.9286  -88.9686 C   0  0  0  0  0  0  0  0  0  0  0  0
  108.2172  -74.2628  -88.6376 C   0  0  0  0  0  0  0  0  0  0  0  0
  108.7996  -75.1240  -87.6973 C   0  0  0  0  0  0  0  0  0  0  0  0
  112.0155  -75.2265  -79.6274 C   0  0  0  0  0  0  0  0  0  0  0  0
  110.9398  -73.0699  -79.9273 C   0  0  0  0  0  0  0  0  0  0  0  0
  113.2557  -81.5785  -86.6749 C   0  0  0  0  0  0  0  0  0  0  0  0
  112.7074  -80.9182  -88.9831 C   0  0  0  0  0  0  0  0  0  0  0  0
  1  2  1  1  0  0  0
  1  3  1  0  0  0  0
  1 16  1  0  0  0  0
  2 23  1  0  0  0  0
  2 24  1  0  0  0  0
  4 25  1  0  0  0  0
  4 26  1  0  0  0  0
  5  6  1  0  0  0  0
  6  3  1  6  0  0  0
  6 14  1  0  0  0  0
  7  5  1  1  0  0  0
  7  8  1  0  0  0  0
  7 12  1  0  0  0  0
  8  9  1  0  0  0  0
  9  4  1  1  0  0  0
  9 10  1  0  0  0  0
 10 11  1  0  0  0  0
 12 11  1  6  0  0  0
 12 13  1  0  0  0  0
 13 14  1  0  0  0  0
 13 17  1  6  0  0  0
 14 15  1  6  0  0  0
 15 16  1  0  0  0  0
 17 18  1  0  0  0  0
 17 22  1  0  0  0  0
 18 19  1  0  0  0  0
 19 20  1  0  0  0  0
 20 21  1  0  0  0  0
 21 22  1  0  0  0  0
M  END
>  <CHROM.1>
-1.42279014,6.10495362,-123.16241929,111.10806379,-76.18966677,-85.35720759
-1.83353510,1.07030828,-2.04722970

>  <Name>
ligand

>  <RI>
0

>  <Rbt.Current_Directory>
/home/itssahil/PROJECTS/Mol_Feturizer/Test_systems_manuscript/rnas/1f1t

>  <Rbt.Executable>
rbdock ($Id: //depot/dev/client3/rdock/2013.1/src/exe/rbdock.cxx#4 $)

>  <Rbt.Library>
libRbt.so (2013.1, Build901 2013/11/27)

>  <Rbt.Parameter_File>
/export/apps/rDock/src/rDock_2013.1_src/data/scripts/dock_solv.prm

>  <Rbt.Receptor>
prm/pocket_docking_8.prm

>  <SCORE>
-56.328

>  <SCORE.INTER>
-56.4796

>  <SCORE.INTER.CONST>
1

>  <SCORE.INTER.POLAR>
0

>  <SCORE.INTER.ROT>
3

>  <SCORE.INTER.SOLV>
9.16929

>  <SCORE.INTER.VDW>
-46.3095

>  <SCORE.INTER.norm>
-2.17229

>  <SCORE.INTRA>
0.151595

>  <SCORE.INTRA.DIHEDRAL>
-2.77627e-05

>  <SCORE.INTRA.DIHEDRAL.0>
3.60016

>  <SCORE.INTRA.POLAR>
0

>  <SCORE.INTRA.POLAR.0>
0

>  <SCORE.INTRA.REPUL>
0

>  <SCORE.INTRA.REPUL.0>
0

>  <SCORE.INTRA.SOLV>
1.31057e-05

>  <SCORE.INTRA.SOLV.lig_0>
-10.9882

>  <SCORE.INTRA.VDW>
0.151603

>  <SCORE.INTRA.VDW.0>
1.84442

>  <SCORE.INTRA.norm>
0.00583059

>  <SCORE.RESTR>
0

>  <SCORE.RESTR.CAVITY>
0

>  <SCORE.RESTR.norm>
0

>  <SCORE.SYSTEM>
0

>  <SCORE.SYSTEM.CONST>
0

>  <SCORE.SYSTEM.DIHEDRAL>
0

>  <SCORE.SYSTEM.SOLV>
0

>  <SCORE.SYSTEM.norm>
0

>  <SCORE.heavy>
26

>  <SCORE.norm>
-2.16646

>  <RMSD>
0.740

$$$$
ligand
 OpenBabel02271912153D
libRbt.so/2013.1/901 2013/11/27
 26 29  0  0  0  0  0  0  0  0999 V2000
  111.2225  -74.6109  -81.8991 C   0  0  1  0  0  0  0  0  0  0  0  0
  111.3967  -74.2678  -80.5660 N   0  0  0  0  0  0  0  0  0  0  0  0
  111.7265  -75.8829  -82.3955 C   0  0  0  0  0  0  0  0  0  0  0  0
  112.6922  -80.4986  -87.4860 N   0  0  0  0  0  0  0  0  0  0  0  0
  112.0119  -77.3917  -84.2097 O   0  0  0  0  0  0  0  0  0  0  0  0
  111.4754  -76.0784  -83.7549 C   0  0  2  0  0  0  0  0  0  0  0  0
  111.7873  -77.5572  -85.4548 C   0  0  1  0  0  0  0  0  0  0  0  0
  112.3371  -78.8683  -85.7989 C   0  0  0  0  0  0  0  0  0  0  0  0
  112.1803  -79.2247  -87.1852 C   0  0  2  0  0  0  0  0  0  0  0  0
  111.5588  -78.3696  -88.1286 C   0  0  0  0  0  0  0  0  0  0  0  0
  111.0250  -77.0833  -87.7207 C   0  0  0  0  0  0  0  0  0  0  0  0
  111.1579  -76.7117  -86.3334 C   0  0  2  0  0  0  0  0  0  0  0  0
  110.5621  -75.3664  -85.9914 C   0  0  1  0  0  0  0  0  0  0  0  0
  110.8226  -75.2059  -84.6186 C   0  0  2  0  0  0  0  0  0  0  0  0
  110.3165  -73.9338  -84.0983 C   0  0  0  0  0  0  0  0  0  0  0  0
  110.5630  -73.7069  -82.7090 C   0  0  0  0  0  0  0  0  0  0  0  0
  109.9303  -74.5626  -86.9213 C   0  0  0  0  0  0  0  0  0  0  0  0
  110.2734  -73.2225  -87.2161 C   0  0  0  0  0  0  0  0  0  0  0  0
  109.6582  -72.4022  -88.1635 C   0  0  0  0  0  0  0  0  0  0  0  0
  108.5533  -72.9215  -88.9555 C   0  0  0  0  0  0  0  0  0  0  0  0
  108.2277  -74.2599  -88.6288 C   0  0  0  0  0  0  0  0  0  0  0  0
  108.8133  -75.1163  -87.6862 C   0  0  0  0  0  0  0  0  0  0  0  0
  110.9437  -72.9881  -80.0279 C   0  0  0  0  0  0  0  0  0  0  0  0
  112.0283  -75.1012  -79.5209 C   0  0  0  0  0  0  0  0  0  0  0  0
  113.2959  -81.5427  -86.6283 C   0  0  0  0  0  0  0  0  0  0  0  0
  112.6271  -80.9462  -88.9221 C   0  0  0  0  0  0  0  0  0  0  0  0
  1  2  1  1  0  0  0
  1  3  1  0  0  0  0
  1 16  1  0  0  0  0
  2 23  1  0  0  0  0
  2 24  1  0  0  0  0
  4 25  1  0  0  0  0
  4 26  1  0  0  0  0
  5  6  1  0  0  0  0
  6  3  1  6  0  0  0
  6 14  1  0  0  0  0
  7  5  1  1  0  0  0
  7  8  1  0  0  0  0
  7 12  1  0  0  0  0
  8  9  1  0  0  0  0
  9  4  1  1  0  0  0
  9 10  1  0  0  0  0
 10 11  1  0  0  0  0
 12 11  1  6  0  0  0
 12 13  1  0  0  0  0
 13 14  1  0  0  0  0
 13 17  1  6  0  0  0
 14 15  1  6  0  0  0
 15 16  1  0  0  0  0
 17 18  1  0  0  0  0
 17 22  1  0  0  0  0
 18 19  1  0  0  0  0
 19 20  1  0  0  0  0
 20 21  1  0  0  0  0
 21 22  1  0  0  0  0
M  END
>  <CHROM.1>
178.21923559,3.23974989,-124.26233249,111.11211913,-76.15898611,-85.33249997
-1.82438054,1.06980839,-2.06450207

>  <Name>
ligand

>  <RI>
0

>  <Rbt.Current_Directory>
/home/itssahil/PROJECTS/Mol_Feturizer/Test_systems_manuscript/rnas/1f1t

>  <Rbt.Executable>
rbdock ($Id: //depot/dev/client3/rdock/2013.1/src/exe/rbdock.cxx#4 $)

>  <Rbt.Library>
libRbt.so (2013.1, Build901 2013/11/27)

>  <Rbt.Parameter_File>
/export/apps/rDock/src/rDock_2013.1_src/data/scripts/dock_solv.prm

>  <Rbt.Receptor>
prm/pocket_docking_3.prm

>  <SCORE>
-56.099

>  <SCORE.INTER>
-56.6038

>  <SCORE.INTER.CONST>
1

>  <SCORE.INTER.POLAR>
0

>  <SCORE.INTER.ROT>
3

>  <SCORE.INTER.SOLV>
9.21519

>  <SCORE.INTER.VDW>
-46.4076

>  <SCORE.INTER.norm>
-2.17707

>  <SCORE.INTRA>
0.504796

>  <SCORE.INTRA.DIHEDRAL>
-1.73256e-06

>  <SCORE.INTRA.DIHEDRAL.0>
3.60016

>  <SCORE.INTRA.POLAR>
0

>  <SCORE.INTRA.POLAR.0>
0

>  <SCORE.INTRA.REPUL>
0

>  <SCORE.INTRA.REPUL.0>
0

>  <SCORE.INTRA.SOLV>
5.14545e-06

>  <SCORE.INTRA.SOLV.lig_0>
-10.9882

>  <SCORE.INTRA.VDW>
0.504794

>  <SCORE.INTRA.VDW.0>
1.84442

>  <SCORE.INTRA.norm>
0.0194152

>  <SCORE.RESTR>
0

>  <SCORE.RESTR.CAVITY>
0

>  <SCORE.RESTR.norm>
0

>  <SCORE.SYSTEM>
0

>  <SCORE.SYSTEM.CONST>
0

>  <SCORE.SYSTEM.DIHEDRAL>
0

>  <SCORE.SYSTEM.SOLV>
0

>  <SCORE.SYSTEM.norm>
0

>  <SCORE.heavy>
26

>  <SCORE.norm>
-2.15765

>  <RMSD>
0.741

$$$$
ligand
 OpenBabel02271912153D
libRbt.so/2013.1/901 2013/11/27
 26 29  0  0  0  0  0  0  0  0999 V2000
  112.2623  -79.4927  -87.1217 C   0  0  1  0  0  0  0  0  0  0  0  0
  112.7954  -80.7174  -87.4972 N   0  0  0  0  0  0  0  0  0  0  0  0
  112.3857  -79.0359  -85.7453 C   0  0  0  0  0  0  0  0  0  0  0  0
  111.2869  -74.3499  -80.7469 N   0  0  0  0  0  0  0  0  0  0  0  0
  111.9508  -77.3710  -84.1056 O   0  0  0  0  0  0  0  0  0  0  0  0
  111.7969  -77.7889  -85.5273 C   0  0  2  0  0  0  0  0  0  0  0  0
  111.4009  -76.2359  -83.9134 C   0  0  1  0  0  0  0  0  0  0  0  0
  111.6145  -75.9115  -82.5031 C   0  0  0  0  0  0  0  0  0  0  0  0
  111.0463  -74.6518  -82.0983 C   0  0  2  0  0  0  0  0  0  0  0  0
  110.3337  -73.8129  -82.9904 C   0  0  0  0  0  0  0  0  0  0  0  0
  110.1644  -74.1884  -84.3818 C   0  0  0  0  0  0  0  0  0  0  0  0
  110.7379  -75.4396  -84.8131 C   0  0  2  0  0  0  0  0  0  0  0  0
  110.5295  -75.7458  -86.2776 C   0  0  1  0  0  0  0  0  0  0  0  0
  111.1410  -76.9986  -86.4647 C   0  0  2  0  0  0  0  0  0  0  0  0
  111.0335  -77.4725  -87.8463 C   0  0  0  0  0  0  0  0  0  0  0  0
  111.6258  -78.7489  -88.0963 C   0  0  0  0  0  0  0  0  0  0  0  0
  109.8596  -74.8969  -87.1380 C   0  0  0  0  0  0  0  0  0  0  0  0
  108.7687  -75.2575  -87.9630 C   0  0  0  0  0  0  0  0  0  0  0  0
  108.0697  -74.4099  -88.8242 C   0  0  0  0  0  0  0  0  0  0  0  0
  108.4535  -73.0097  -88.9237 C   0  0  0  0  0  0  0  0  0  0  0  0
  109.5541  -72.6840  -88.0951 C   0  0  0  0  0  0  0  0  0  0  0  0
  110.2858  -73.5002  -87.2215 C   0  0  0  0  0  0  0  0  0  0  0  0
  113.3039  -81.6756  -86.5197 C   0  0  0  0  0  0  0  0  0  0  0  0
  112.9220  -81.2332  -88.8769 C   0  0  0  0  0  0  0  0  0  0  0  0
  111.9162  -75.1348  -79.6615 C   0  0  0  0  0  0  0  0  0  0  0  0
  110.8659  -72.9891  -80.2590 C   0  0  0  0  0  0  0  0  0  0  0  0
  1  2  1  6  0  0  0
  1  3  1  0  0  0  0
  1 16  1  0  0  0  0
  2 23  1  0  0  0  0
  2 24  1  0  0  0  0
  4 25  1  0  0  0  0
  4 26  1  0  0  0  0
  5  6  1  0  0  0  0
  6  3  1  1  0  0  0
  6 14  1  0  0  0  0
  7  5  1  6  0  0  0
  7  8  1  0  0  0  0
  7 12  1  0  0  0  0
  8  9  1  0  0  0  0
  9  4  1  6  0  0  0
  9 10  1  0  0  0  0
 10 11  1  0  0  0  0
 12 11  1  1  0  0  0
 12 13  1  0  0  0  0
 13 14  1  0  0  0  0
 13 17  1  1  0  0  0
 14 15  1  1  0  0  0
 15 16  1  0  0  0  0
 17 18  1  0  0  0  0
 17 22  1  0  0  0  0
 18 19  1  0  0  0  0
 19 20  1  0  0  0  0
 20 21  1  0  0  0  0
 21 22  1  0  0  0  0
M  END
>  <CHROM.1>
9.67339224,-5.56582908,-126.58460472,111.07326239,-76.34288859,-85.42801258
-1.23525066,-1.04933961,1.08167112

>  <Name>
ligand

>  <RI>
0

>  <Rbt.Current_Directory>
/home/itssahil/PROJECTS/Mol_Feturizer/Test_systems_manuscript/rnas/1f1t

>  <Rbt.Executable>
rbdock ($Id: //depot/dev/client3/rdock/2013.1/src/exe/rbdock.cxx#4 $)

>  <Rbt.Library>
libRbt.so (2013.1, Build901 2013/11/27)

>  <Rbt.Parameter_File>
/export/apps/rDock/src/rDock_2013.1_src/data/scripts/dock_solv.prm

>  <Rbt.Receptor>
prm/pocket_docking_8.prm

>  <SCORE>
-55.9484

>  <SCORE.INTER>
-56.111

>  <SCORE.INTER.CONST>
1

>  <SCORE.INTER.POLAR>
0

>  <SCORE.INTER.ROT>
3

>  <SCORE.INTER.SOLV>
8.91849

>  <SCORE.INTER.VDW>
-45.9802

>  <SCORE.INTER.norm>
-2.15812

>  <SCORE.INTRA>
0.16263

>  <SCORE.INTRA.DIHEDRAL>
-1.83272e-05

>  <SCORE.INTRA.DIHEDRAL.0>
3.60016

>  <SCORE.INTRA.POLAR>
0

>  <SCORE.INTRA.POLAR.0>
0

>  <SCORE.INTRA.REPUL>
0

>  <SCORE.INTRA.REPUL.0>
0

>  <SCORE.INTRA.SOLV>
4.02157e-05

>  <SCORE.INTRA.SOLV.lig_0>
-10.9882

>  <SCORE.INTRA.VDW>
0.162619

>  <SCORE.INTRA.VDW.0>
1.84442

>  <SCORE.INTRA.norm>
0.00625501

>  <SCORE.RESTR>
0

>  <SCORE.RESTR.CAVITY>
0

>  <SCORE.RESTR.norm>
0

>  <SCORE.SYSTEM>
0

>  <SCORE.SYSTEM.CONST>
0

>  <SCORE.SYSTEM.DIHEDRAL>
0

>  <SCORE.SYSTEM.SOLV>
0

>  <SCORE.SYSTEM.norm>
0

>  <SCORE.heavy>
26

>  <SCORE.norm>
-2.15186

>  <RMSD>
0.741

$$$$
ligand
 OpenBabel02271912153D
libRbt.so/2013.1/901 2013/11/27
 26 29  0  0  0  0  0  0  0  0999 V2000
  111.2516  -74.6198  -81.8849 C   0  0  1  0  0  0  0  0  0  0  0  0
  111.4304  -74.2815  -80.5512 N   0  0  0  0  0  0  0  0  0  0  0  0
  111.7460  -75.8938  -82.3856 C   0  0  0  0  0  0  0  0  0  0  0  0
  112.6713  -80.5020  -87.4904 N   0  0  0  0  0  0  0  0  0  0  0  0
  112.0180  -77.3996  -84.2045 O   0  0  0  0  0  0  0  0  0  0  0  0
  111.4912  -76.0839  -83.7451 C   0  0  2  0  0  0  0  0  0  0  0  0
  111.7901  -77.5601  -85.4496 C   0  0  1  0  0  0  0  0  0  0  0  0
  112.3303  -78.8740  -85.7982 C   0  0  0  0  0  0  0  0  0  0  0  0
  112.1686  -79.2256  -87.1853 C   0  0  2  0  0  0  0  0  0  0  0  0
  111.5513  -78.3636  -88.1252 C   0  0  0  0  0  0  0  0  0  0  0  0
  111.0269  -77.0749  -87.7129 C   0  0  0  0  0  0  0  0  0  0  0  0
  111.1649  -76.7080  -86.3248 C   0  0  2  0  0  0  0  0  0  0  0  0
  110.5788  -75.3596  -85.9781 C   0  0  1  0  0  0  0  0  0  0  0  0
  110.8428  -75.2046  -84.6053 C   0  0  2  0  0  0  0  0  0  0  0  0
  110.3463  -73.9305  -84.0807 C   0  0  0  0  0  0  0  0  0  0  0  0
  110.5968  -73.7091  -82.6912 C   0  0  0  0  0  0  0  0  0  0  0  0
  109.9509  -74.5489  -86.9047 C   0  0  0  0  0  0  0  0  0  0  0  0
  110.2793  -73.1992  -87.1708 C   0  0  0  0  0  0  0  0  0  0  0  0
  109.6679  -72.3716  -88.1143 C   0  0  0  0  0  0  0  0  0  0  0  0
  108.5840  -72.8929  -88.9335 C   0  0  0  0  0  0  0  0  0  0  0  0
  108.2725  -74.2412  -88.6351 C   0  0  0  0  0  0  0  0  0  0  0  0
  108.8549  -75.1052  -87.6975 C   0  0  0  0  0  0  0  0  0  0  0  0
  112.0446  -75.1967  -79.5935 C   0  0  0  0  0  0  0  0  0  0  0  0
  111.0570  -73.0011  -79.9132 C   0  0  0  0  0  0  0  0  0  0  0  0
  113.2561  -81.5583  -86.6345 C   0  0  0  0  0  0  0  0  0  0  0  0
  112.6166  -80.9383  -88.9304 C   0  0  0  0  0  0  0  0  0  0  0  0
  1  2  1  1  0  0  0
  1  3  1  0  0  0  0
  1 16  1  0  0  0  0
  2 23  1  0  0  0  0
  2 24  1  0  0  0  0
  4 25  1  0  0  0  0
  4 26  1  0  0  0  0
  5  6  1  0  0  0  0
  6  3  1  6  0  0  0
  6 14  1  0  0  0  0
  7  5  1  1  0  0  0
  7  8  1  0  0  0  0
  7 12  1  0  0  0  0
  8  9  1  0  0  0  0
  9  4  1  1  0  0  0
  9 10  1  0  0  0  0
 10 11  1  0  0  0  0
 12 11  1  6  0  0  0
 12 13  1  0  0  0  0
 13 14  1  0  0  0  0
 13 17  1  6  0  0  0
 14 15  1  6  0  0  0
 15 16  1  0  0  0  0
 17 18  1  0  0  0  0
 17 22  1  0  0  0  0
 18 19  1  0  0  0  0
 19 20  1  0  0  0  0
 20 21  1  0  0  0  0
 21 22  1  0  0  0  0
M  END
>  <CHROM.1>
-3.29535615,3.99762224,-126.07334973,111.12753016,-76.16107209,-85.32200367
-1.81113613,1.07568511,-2.07153800

>  <Name>
ligand

>  <RI>
0

>  <Rbt.Current_Directory>
/home/itssahil/PROJECTS/Mol_Feturizer/Test_systems_manuscript/rnas/1f1t

>  <Rbt.Executable>
rbdock ($Id: //depot/dev/client3/rdock/2013.1/src/exe/rbdock.cxx#4 $)

>  <Rbt.Library>
libRbt.so (2013.1, Build901 2013/11/27)

>  <Rbt.Parameter_File>
/export/apps/rDock/src/rDock_2013.1_src/data/scripts/dock_solv.prm

>  <Rbt.Receptor>
prm/pocket_docking_8.prm

>  <SCORE>
-56.478

>  <SCORE.INTER>
-56.7169

>  <SCORE.INTER.CONST>
1

>  <SCORE.INTER.POLAR>
0

>  <SCORE.INTER.ROT>
3

>  <SCORE.INTER.SOLV>
9.21918

>  <SCORE.INTER.VDW>
-46.4843

>  <SCORE.INTER.norm>
-2.18142

>  <SCORE.INTRA>
0.238902

>  <SCORE.INTRA.DIHEDRAL>
-1.32321e-05

>  <SCORE.INTRA.DIHEDRAL.0>
3.60016

>  <SCORE.INTRA.POLAR>
0

>  <SCORE.INTRA.POLAR.0>
0

>  <SCORE.INTRA.REPUL>
0

>  <SCORE.INTRA.REPUL.0>
0

>  <SCORE.INTRA.SOLV>
1.11625e-05

>  <SCORE.INTRA.SOLV.lig_0>
-10.9882

>  <SCORE.INTRA.VDW>
0.238903

>  <SCORE.INTRA.VDW.0>
1.84442

>  <SCORE.INTRA.norm>
0.00918852

>  <SCORE.RESTR>
0

>  <SCORE.RESTR.CAVITY>
0

>  <SCORE.RESTR.norm>
0

>  <SCORE.SYSTEM>
0

>  <SCORE.SYSTEM.CONST>
0

>  <SCORE.SYSTEM.DIHEDRAL>
0

>  <SCORE.SYSTEM.SOLV>
0

>  <SCORE.SYSTEM.norm>
0

>  <SCORE.heavy>
26

>  <SCORE.norm>
-2.17223

>  <RMSD>
0.741

$$$$
ligand
 OpenBabel02271912153D
libRbt.so/2013.1/901 2013/11/27
 26 29  0  0  0  0  0  0  0  0999 V2000
  112.2588  -79.4791  -87.1484 C   0  0  1  0  0  0  0  0  0  0  0  0
  112.7925  -80.7008  -87.5328 N   0  0  0  0  0  0  0  0  0  0  0  0
  112.3914  -79.0275  -85.7711 C   0  0  0  0  0  0  0  0  0  0  0  0
  111.3177  -74.3645  -80.7458 N   0  0  0  0  0  0  0  0  0  0  0  0
  111.9644  -77.3703  -84.1215 O   0  0  0  0  0  0  0  0  0  0  0  0
  111.8008  -77.7830  -85.5437 C   0  0  2  0  0  0  0  0  0  0  0  0
  111.4127  -76.2376  -83.9205 C   0  0  1  0  0  0  0  0  0  0  0  0
  111.6362  -75.9182  -82.5107 C   0  0  0  0  0  0  0  0  0  0  0  0
  111.0676  -74.6617  -82.0964 C   0  0  2  0  0  0  0  0  0  0  0  0
  110.3458  -73.8213  -82.9798 C   0  0  0  0  0  0  0  0  0  0  0  0
  110.1669  -74.1918  -84.3713 C   0  0  0  0  0  0  0  0  0  0  0  0
  110.7407  -75.4396  -84.8119 C   0  0  2  0  0  0  0  0  0  0  0  0
  110.5220  -75.7406  -86.2760 C   0  0  1  0  0  0  0  0  0  0  0  0
  111.1355  -76.9908  -86.4729 C   0  0  2  0  0  0  0  0  0  0  0  0
  111.0187  -77.4596  -87.8554 C   0  0  0  0  0  0  0  0  0  0  0  0
  111.6127  -78.7333  -88.1150 C   0  0  0  0  0  0  0  0  0  0  0  0
  109.8430  -74.8902  -87.1279 C   0  0  0  0  0  0  0  0  0  0  0  0
  108.7630  -75.2564  -87.9645 C   0  0  0  0  0  0  0  0  0  0  0  0
  108.0550  -74.4078  -88.8174 C   0  0  0  0  0  0  0  0  0  0  0  0
  108.4163  -73.0002  -88.8941 C   0  0  0  0  0  0  0  0  0  0  0  0
  109.5066  -72.6687  -88.0543 C   0  0  0  0  0  0  0  0  0  0  0  0
  110.2467  -73.4856  -87.1884 C   0  0  0  0  0  0  0  0  0  0  0  0
  112.9262  -81.0830  -88.9357 C   0  0  0  0  0  0  0  0  0  0  0  0
  113.2970  -81.7599  -86.6330 C   0  0  0  0  0  0  0  0  0  0  0  0
  111.9485  -75.1558  -79.6659 C   0  0  0  0  0  0  0  0  0  0  0  0
  110.9075  -73.0024  -80.2523 C   0  0  0  0  0  0  0  0  0  0  0  0
  1  2  1  6  0  0  0
  1  3  1  0  0  0  0
  1 16  1  0  0  0  0
  2 23  1  0  0  0  0
  2 24  1  0  0  0  0
  4 25  1  0  0  0  0
  4 26  1  0  0  0  0
  5  6  1  0  0  0  0
  6  3  1  1  0  0  0
  6 14  1  0  0  0  0
  7  5  1  6  0  0  0
  7  8  1  0  0  0  0
  7 12  1  0  0  0  0
  8  9  1  0  0  0  0
  9  4  1  6  0  0  0
  9 10  1  0  0  0  0
 10 11  1  0  0  0  0
 12 11  1  1  0  0  0
 12 13  1  0  0  0  0
 13 14  1  0  0  0  0
 13 17  1  1  0  0  0
 14 15  1  1  0  0  0
 15 16  1  0  0  0  0
 17 18  1  0  0  0  0
 17 22  1  0  0  0  0
 18 19  1  0  0  0  0
 19 20  1  0  0  0  0
 20 21  1  0  0  0  0
 21 22  1  0  0  0  0
M  END
>  <CHROM.1>
-167.52565912,-6.08886572,-127.84163829,111.07385845,-76.33814554,-85.43700909
-1.24641258,-1.04337563,1.07812842

>  <Name>
ligand

>  <RI>
0

>  <Rbt.Current_Directory>
/home/itssahil/PROJECTS/Mol_Feturizer/Test_systems_manuscript/rnas/1f1t

>  <Rbt.Executable>
rbdock ($Id: //depot/dev/client3/rdock/2013.1/src/exe/rbdock.cxx#4 $)

>  <Rbt.Library>
libRbt.so (2013.1, Build901 2013/11/27)

>  <Rbt.Parameter_File>
/export/apps/rDock/src/rDock_2013.1_src/data/scripts/dock_solv.prm

>  <Rbt.Receptor>
prm/pocket_docking_3.prm

>  <SCORE>
-55.782

>  <SCORE.INTER>
-56.204

>  <SCORE.INTER.CONST>
1

>  <SCORE.INTER.POLAR>
0

>  <SCORE.INTER.ROT>
3

>  <SCORE.INTER.SOLV>
8.8687

>  <SCORE.INTER.VDW>
-46.0256

>  <SCORE.INTER.norm>
-2.16169

>  <SCORE.INTRA>
0.422057

>  <SCORE.INTRA.DIHEDRAL>
-5.46902e-06

>  <SCORE.INTRA.DIHEDRAL.0>
3.60016

>  <SCORE.INTRA.POLAR>
0

>  <SCORE.INTRA.POLAR.0>
0

>  <SCORE.INTRA.REPUL>
0

>  <SCORE.INTRA.REPUL.0>
0

>  <SCORE.INTRA.SOLV>
6.86693e-05

>  <SCORE.INTRA.SOLV.lig_0>
-10.9882

>  <SCORE.INTRA.VDW>
0.422025

>  <SCORE.INTRA.VDW.0>
1.84442

>  <SCORE.INTRA.norm>
0.0162329

>  <SCORE.RESTR>
0

>  <SCORE.RESTR.CAVITY>
0

>  <SCORE.RESTR.norm>
0

>  <SCORE.SYSTEM>
0

>  <SCORE.SYSTEM.CONST>
0

>  <SCORE.SYSTEM.DIHEDRAL>
0

>  <SCORE.SYSTEM.SOLV>
0

>  <SCORE.SYSTEM.norm>
0

>  <SCORE.heavy>
26

>  <SCORE.norm>
-2.14546

>  <RMSD>
0.742

$$$$
ligand
 OpenBabel02271912153D
libRbt.so/2013.1/901 2013/11/27
 26 29  0  0  0  0  0  0  0  0999 V2000
  112.2507  -79.4907  -87.1249 C   0  0  1  0  0  0  0  0  0  0  0  0
  112.7819  -80.7159  -87.5019 N   0  0  0  0  0  0  0  0  0  0  0  0
  112.3818  -79.0324  -85.7497 C   0  0  0  0  0  0  0  0  0  0  0  0
  111.3104  -74.3405  -80.7509 N   0  0  0  0  0  0  0  0  0  0  0  0
  111.9559  -77.3655  -84.1096 O   0  0  0  0  0  0  0  0  0  0  0  0
  111.7940  -77.7851  -85.5300 C   0  0  2  0  0  0  0  0  0  0  0  0
  111.4069  -76.2302  -83.9157 C   0  0  1  0  0  0  0  0  0  0  0  0
  111.6284  -75.9042  -82.5070 C   0  0  0  0  0  0  0  0  0  0  0  0
  111.0623  -74.6440  -82.1005 C   0  0  2  0  0  0  0  0  0  0  0  0
  110.3446  -73.8063  -82.9896 C   0  0  0  0  0  0  0  0  0  0  0  0
  110.1676  -74.1835  -84.3796 C   0  0  0  0  0  0  0  0  0  0  0  0
  110.7388  -75.4351  -84.8126 C   0  0  2  0  0  0  0  0  0  0  0  0
  110.5223  -75.7431  -86.2756 C   0  0  1  0  0  0  0  0  0  0  0  0
  111.1329  -76.9960  -86.4646 C   0  0  2  0  0  0  0  0  0  0  0  0
  111.0177  -77.4716  -87.8450 C   0  0  0  0  0  0  0  0  0  0  0  0
  111.6087  -78.7482  -88.0968 C   0  0  0  0  0  0  0  0  0  0  0  0
  109.8475  -74.8952  -87.1333 C   0  0  0  0  0  0  0  0  0  0  0  0
  108.7670  -75.2624  -87.9688 C   0  0  0  0  0  0  0  0  0  0  0  0
  108.0631  -74.4163  -88.8275 C   0  0  0  0  0  0  0  0  0  0  0  0
  108.4297  -73.0105  -88.9122 C   0  0  0  0  0  0  0  0  0  0  0  0
  109.5203  -72.6781  -88.0732 C   0  0  0  0  0  0  0  0  0  0  0  0
  110.2564  -73.4926  -87.2016 C   0  0  0  0  0  0  0  0  0  0  0  0
  113.2748  -81.6825  -86.5247 C   0  0  0  0  0  0  0  0  0  0  0  0
  112.9210  -81.2241  -88.8833 C   0  0  0  0  0  0  0  0  0  0  0  0
  111.9281  -75.1315  -79.6631 C   0  0  0  0  0  0  0  0  0  0  0  0
  110.9137  -72.9706  -80.2682 C   0  0  0  0  0  0  0  0  0  0  0  0
  1  2  1  6  0  0  0
  1  3  1  0  0  0  0
  1 16  1  0  0  0  0
  2 23  1  0  0  0  0
  2 24  1  0  0  0  0
  4 25  1  0  0  0  0
  4 26  1  0  0  0  0
  5  6  1  0  0  0  0
  6  3  1  1  0  0  0
  6 14  1  0  0  0  0
  7  5  1  6  0  0  0
  7  8  1  0  0  0  0
  7 12  1  0  0  0  0
  8  9  1  0  0  0  0
  9  4  1  6  0  0  0
  9 10  1  0  0  0  0
 10 11  1  0  0  0  0
 12 11  1  1  0  0  0
 12 13  1  0  0  0  0
 13 14  1  0  0  0  0
 13 17  1  1  0  0  0
 14 15  1  1  0  0  0
 15 16  1  0  0  0  0
 17 18  1  0  0  0  0
 17 22  1  0  0  0  0
 18 19  1  0  0  0  0
 19 20  1  0  0  0  0
 20 21  1  0  0  0  0
 21 22  1  0  0  0  0
M  END
>  <CHROM.1>
10.74876169,-6.59607552,-127.75012666,111.07082839,-76.33904870,-85.42825133
-1.24505684,-1.04713124,1.07195774

>  <Name>
ligand

>  <RI>
0

>  <Rbt.Current_Directory>
/home/itssahil/PROJECTS/Mol_Feturizer/Test_systems_manuscript/rnas/1f1t

>  <Rbt.Executable>
rbdock ($Id: //depot/dev/client3/rdock/2013.1/src/exe/rbdock.cxx#4 $)

>  <Rbt.Library>
libRbt.so (2013.1, Build901 2013/11/27)

>  <Rbt.Parameter_File>
/export/apps/rDock/src/rDock_2013.1_src/data/scripts/dock_solv.prm

>  <Rbt.Receptor>
prm/pocket_docking_3.prm

>  <SCORE>
-56.0082

>  <SCORE.INTER>
-56.1775

>  <SCORE.INTER.CONST>
1

>  <SCORE.INTER.POLAR>
0

>  <SCORE.INTER.ROT>
3

>  <SCORE.INTER.SOLV>
8.87829

>  <SCORE.INTER.VDW>
-46.0111

>  <SCORE.INTER.norm>
-2.16067

>  <SCORE.INTRA>
0.169313

>  <SCORE.INTRA.DIHEDRAL>
-1.97172e-05

>  <SCORE.INTRA.DIHEDRAL.0>
3.60016

>  <SCORE.INTRA.POLAR>
0

>  <SCORE.INTRA.POLAR.0>
0

>  <SCORE.INTRA.REPUL>
0

>  <SCORE.INTRA.REPUL.0>
0

>  <SCORE.INTRA.SOLV>
5.17504e-05

>  <SCORE.INTRA.SOLV.lig_0>
-10.9882

>  <SCORE.INTRA.VDW>
0.169297

>  <SCORE.INTRA.VDW.0>
1.84442

>  <SCORE.INTRA.norm>
0.00651204

>  <SCORE.RESTR>
0

>  <SCORE.RESTR.CAVITY>
0

>  <SCORE.RESTR.norm>
0

>  <SCORE.SYSTEM>
0

>  <SCORE.SYSTEM.CONST>
0

>  <SCORE.SYSTEM.DIHEDRAL>
0

>  <SCORE.SYSTEM.SOLV>
0

>  <SCORE.SYSTEM.norm>
0

>  <SCORE.heavy>
26

>  <SCORE.norm>
-2.15416

>  <RMSD>
0.742

$$$$
ligand
 OpenBabel02271912153D
libRbt.so/2013.1/901 2013/11/27
 26 29  0  0  0  0  0  0  0  0999 V2000
  112.2700  -79.4770  -87.1398 C   0  0  1  0  0  0  0  0  0  0  0  0
  112.8075  -80.6979  -87.5213 N   0  0  0  0  0  0  0  0  0  0  0  0
  112.3983  -79.0233  -85.7628 C   0  0  0  0  0  0  0  0  0  0  0  0
  111.3014  -74.3564  -80.7461 N   0  0  0  0  0  0  0  0  0  0  0  0
  111.9633  -77.3650  -84.1164 O   0  0  0  0  0  0  0  0  0  0  0  0
  111.8041  -77.7799  -85.5384 C   0  0  2  0  0  0  0  0  0  0  0  0
  111.4086  -76.2333  -83.9182 C   0  0  1  0  0  0  0  0  0  0  0  0
  111.6279  -75.9116  -82.5082 C   0  0  0  0  0  0  0  0  0  0  0  0
  111.0553  -74.6559  -82.0970 C   0  0  2  0  0  0  0  0  0  0  0  0
  110.3337  -73.8184  -82.9832 C   0  0  0  0  0  0  0  0  0  0  0  0
  110.1590  -74.1911  -84.3747 C   0  0  0  0  0  0  0  0  0  0  0  0
  110.7368  -75.4381  -84.8123 C   0  0  2  0  0  0  0  0  0  0  0  0
  110.5223  -75.7415  -86.2765 C   0  0  1  0  0  0  0  0  0  0  0  0
  111.1393  -76.9905  -86.4702 C   0  0  2  0  0  0  0  0  0  0  0  0
  111.0270  -77.4613  -87.8525 C   0  0  0  0  0  0  0  0  0  0  0  0
  111.6246  -78.7339  -88.1090 C   0  0  0  0  0  0  0  0  0  0  0  0
  109.8435  -74.8937  -87.1312 C   0  0  0  0  0  0  0  0  0  0  0  0
  108.7727  -75.2657  -87.9771 C   0  0  0  0  0  0  0  0  0  0  0  0
  108.0648  -74.4200  -88.8329 C   0  0  0  0  0  0  0  0  0  0  0  0
  108.4159  -73.0094  -88.9028 C   0  0  0  0  0  0  0  0  0  0  0  0
  109.4972  -72.6722  -88.0536 C   0  0  0  0  0  0  0  0  0  0  0  0
  110.2368  -73.4860  -87.1844 C   0  0  0  0  0  0  0  0  0  0  0  0
  113.2808  -81.6768  -86.5466 C   0  0  0  0  0  0  0  0  0  0  0  0
  112.9731  -81.1894  -88.9059 C   0  0  0  0  0  0  0  0  0  0  0  0
  111.9138  -75.1520  -79.6588 C   0  0  0  0  0  0  0  0  0  0  0  0
  110.9083  -72.9862  -80.2612 C   0  0  0  0  0  0  0  0  0  0  0  0
  1  2  1  6  0  0  0
  1  3  1  0  0  0  0
  1 16  1  0  0  0  0
  2 23  1  0  0  0  0
  2 24  1  0  0  0  0
  4 25  1  0  0  0  0
  4 26  1  0  0  0  0
  5  6  1  0  0  0  0
  6  3  1  1  0  0  0
  6 14  1  0  0  0  0
  7  5  1  6  0  0  0
  7  8  1  0  0  0  0
  7 12  1  0  0  0  0
  8  9  1  0  0  0  0
  9  4  1  6  0  0  0
  9 10  1  0  0  0  0
 10 11  1  0  0  0  0
 12 11  1  1  0  0  0
 12 13  1  0  0  0  0
 13 14  1  0  0  0  0
 13 17  1  1  0  0  0
 14 15  1  1  0  0  0
 15 16  1  0  0  0  0
 17 18  1  0  0  0  0
 17 22  1  0  0  0  0
 18 19  1  0  0  0  0
 19 20  1  0  0  0  0
 20 21  1  0  0  0  0
 21 22  1  0  0  0  0
M  END
>  <CHROM.1>
11.98657390,-7.10721425,-128.33276558,111.07351864,-76.33793045,-85.43129390
-1.23935703,-1.04327637,1.08077568

>  <Name>
ligand

>  <RI>
0

>  <Rbt.Current_Directory>
/home/itssahil/PROJECTS/Mol_Feturizer/Test_systems_manuscript/rnas/1f1t

>  <Rbt.Executable>
rbdock ($Id: //depot/dev/client3/rdock/2013.1/src/exe/rbdock.cxx#4 $)

>  <Rbt.Library>
libRbt.so (2013.1, Build901 2013/11/27)

>  <Rbt.Parameter_File>
/export/apps/rDock/src/rDock_2013.1_src/data/scripts/dock_solv.prm

>  <Rbt.Receptor>
prm/pocket_docking_3.prm

>  <SCORE>
-55.9647

>  <SCORE.INTER>
-56.122

>  <SCORE.INTER.CONST>
1

>  <SCORE.INTER.POLAR>
0

>  <SCORE.INTER.ROT>
3

>  <SCORE.INTER.SOLV>
8.90274

>  <SCORE.INTER.VDW>
-45.9823

>  <SCORE.INTER.norm>
-2.15854

>  <SCORE.INTRA>
0.157334

>  <SCORE.INTRA.DIHEDRAL>
-2.0353e-05

>  <SCORE.INTRA.DIHEDRAL.0>
3.60016

>  <SCORE.INTRA.POLAR>
0

>  <SCORE.INTRA.POLAR.0>
0

>  <SCORE.INTRA.REPUL>
0

>  <SCORE.INTRA.REPUL.0>
0

>  <SCORE.INTRA.SOLV>
6.52241e-05

>  <SCORE.INTRA.SOLV.lig_0>
-10.9882

>  <SCORE.INTRA.VDW>
0.157312

>  <SCORE.INTRA.VDW.0>
1.84442

>  <SCORE.INTRA.norm>
0.00605133

>  <SCORE.RESTR>
0

>  <SCORE.RESTR.CAVITY>
0

>  <SCORE.RESTR.norm>
0

>  <SCORE.SYSTEM>
0

>  <SCORE.SYSTEM.CONST>
0

>  <SCORE.SYSTEM.DIHEDRAL>
0

>  <SCORE.SYSTEM.SOLV>
0

>  <SCORE.SYSTEM.norm>
0

>  <SCORE.heavy>
26

>  <SCORE.norm>
-2.15249

>  <RMSD>
0.742

$$$$
ligand
 OpenBabel02271912153D
libRbt.so/2013.1/901 2013/11/27
 26 29  0  0  0  0  0  0  0  0999 V2000
  112.2155  -79.4066  -87.1392 C   0  0  1  0  0  0  0  0  0  0  0  0
  112.7128  -80.6381  -87.5409 N   0  0  0  0  0  0  0  0  0  0  0  0
  112.3377  -78.9901  -85.7500 C   0  0  0  0  0  0  0  0  0  0  0  0
  111.3336  -74.4016  -80.6423 N   0  0  0  0  0  0  0  0  0  0  0  0
  111.9380  -77.3548  -84.0719 O   0  0  0  0  0  0  0  0  0  0  0  0
  111.7872  -77.7304  -85.5057 C   0  0  2  0  0  0  0  0  0  0  0  0
  111.4232  -76.2076  -83.8558 C   0  0  1  0  0  0  0  0  0  0  0  0
  111.6307  -75.9271  -82.4353 C   0  0  0  0  0  0  0  0  0  0  0  0
  111.0992  -74.6603  -82.0036 C   0  0  2  0  0  0  0  0  0  0  0  0
  110.4247  -73.7756  -82.8811 C   0  0  0  0  0  0  0  0  0  0  0  0
  110.2596  -74.1092  -84.2837 C   0  0  0  0  0  0  0  0  0  0  0  0
  110.7971  -75.3669  -84.7414 C   0  0  2  0  0  0  0  0  0  0  0  0
  110.5960  -75.6280  -86.2156 C   0  0  1  0  0  0  0  0  0  0  0  0
  111.1685  -76.8949  -86.4290 C   0  0  2  0  0  0  0  0  0  0  0  0
  111.0617  -77.3291  -87.8237 C   0  0  0  0  0  0  0  0  0  0  0  0
  111.6150  -78.6174  -88.1007 C   0  0  0  0  0  0  0  0  0  0  0  0
  109.9641  -74.7355  -87.0607 C   0  0  0  0  0  0  0  0  0  0  0  0
  110.2889  -73.3660  -87.1996 C   0  0  0  0  0  0  0  0  0  0  0  0
  109.6736  -72.4549  -88.0599 C   0  0  0  0  0  0  0  0  0  0  0  0
  108.5889  -72.8996  -88.9221 C   0  0  0  0  0  0  0  0  0  0  0  0
  108.2810  -74.2707  -88.7510 C   0  0  0  0  0  0  0  0  0  0  0  0
  108.8674  -75.2175  -87.8999 C   0  0  0  0  0  0  0  0  0  0  0  0
  112.7500  -81.0404  -88.9441 C   0  0  0  0  0  0  0  0  0  0  0  0
  113.2678  -81.6893  -86.6618 C   0  0  0  0  0  0  0  0  0  0  0  0
  111.9820  -75.2101  -79.5857 C   0  0  0  0  0  0  0  0  0  0  0  0
  110.8812  -73.0695  -80.1059 C   0  0  0  0  0  0  0  0  0  0  0  0
  1  2  1  6  0  0  0
  1  3  1  0  0  0  0
  1 16  1  0  0  0  0
  2 23  1  0  0  0  0
  2 24  1  0  0  0  0
  4 25  1  0  0  0  0
  4 26  1  0  0  0  0
  5  6  1  0  0  0  0
  6  3  1  1  0  0  0
  6 14  1  0  0  0  0
  7  5  1  6  0  0  0
  7  8  1  0  0  0  0
  7 12  1  0  0  0  0
  8  9  1  0  0  0  0
  9  4  1  6  0  0  0
  9 10  1  0  0  0  0
 10 11  1  0  0  0  0
 12 11  1  1  0  0  0
 12 13  1  0  0  0  0
 13 14  1  0  0  0  0
 13 17  1  1  0  0  0
 14 15  1  1  0  0  0
 15 16  1  0  0  0  0
 17 18  1  0  0  0  0
 17 22  1  0  0  0  0
 18 19  1  0  0  0  0
 19 20  1  0  0  0  0
 20 21  1  0  0  0  0
 21 22  1  0  0  0  0
M  END
>  <CHROM.1>
-173.05298198,-2.23193381,52.11246382,111.10212275,-76.27865659,-85.39088646
-1.26592883,-1.07693348,1.09604933

>  <Name>
ligand

>  <RI>
0

>  <Rbt.Current_Directory>
/home/itssahil/PROJECTS/Mol_Feturizer/Test_systems_manuscript/rnas/1f1t

>  <Rbt.Executable>
rbdock ($Id: //depot/dev/client3/rdock/2013.1/src/exe/rbdock.cxx#4 $)

>  <Rbt.Library>
libRbt.so (2013.1, Build901 2013/11/27)

>  <Rbt.Parameter_File>
/export/apps/rDock/src/rDock_2013.1_src/data/scripts/dock_solv.prm

>  <Rbt.Receptor>
prm/pocket_docking_3.prm

>  <SCORE>
-56.2367

>  <SCORE.INTER>
-56.7155

>  <SCORE.INTER.CONST>
1

>  <SCORE.INTER.POLAR>
0

>  <SCORE.INTER.ROT>
3

>  <SCORE.INTER.SOLV>
8.98927

>  <SCORE.INTER.VDW>
-46.4067

>  <SCORE.INTER.norm>
-2.18136

>  <SCORE.INTRA>
0.478781

>  <SCORE.INTRA.DIHEDRAL>
0.000289292

>  <SCORE.INTRA.DIHEDRAL.0>
3.60016

>  <SCORE.INTRA.POLAR>
0

>  <SCORE.INTRA.POLAR.0>
0

>  <SCORE.INTRA.REPUL>
0

>  <SCORE.INTRA.REPUL.0>
0

>  <SCORE.INTRA.SOLV>
1.75952e-05

>  <SCORE.INTRA.SOLV.lig_0>
-10.9882

>  <SCORE.INTRA.VDW>
0.478628

>  <SCORE.INTRA.VDW.0>
1.84442

>  <SCORE.INTRA.norm>
0.0184147

>  <SCORE.RESTR>
0

>  <SCORE.RESTR.CAVITY>
0

>  <SCORE.RESTR.norm>
0

>  <SCORE.SYSTEM>
0

>  <SCORE.SYSTEM.CONST>
0

>  <SCORE.SYSTEM.DIHEDRAL>
0

>  <SCORE.SYSTEM.SOLV>
0

>  <SCORE.SYSTEM.norm>
0

>  <SCORE.heavy>
26

>  <SCORE.norm>
-2.16295

>  <RMSD>
0.742

$$$$
ligand
 OpenBabel02271912153D
libRbt.so/2013.1/901 2013/11/27
 26 29  0  0  0  0  0  0  0  0999 V2000
  112.2587  -79.4771  -87.1462 C   0  0  1  0  0  0  0  0  0  0  0  0
  112.7919  -80.6992  -87.5300 N   0  0  0  0  0  0  0  0  0  0  0  0
  112.3901  -79.0256  -85.7688 C   0  0  0  0  0  0  0  0  0  0  0  0
  111.3141  -74.3618  -80.7447 N   0  0  0  0  0  0  0  0  0  0  0  0
  111.9624  -77.3681  -84.1197 O   0  0  0  0  0  0  0  0  0  0  0  0
  111.8001  -77.7807  -85.5420 C   0  0  2  0  0  0  0  0  0  0  0  0
  111.4114  -76.2349  -83.9193 C   0  0  1  0  0  0  0  0  0  0  0  0
  111.6335  -75.9158  -82.5092 C   0  0  0  0  0  0  0  0  0  0  0  0
  111.0654  -74.6588  -82.0956 C   0  0  2  0  0  0  0  0  0  0  0  0
  110.3453  -73.8178  -82.9798 C   0  0  0  0  0  0  0  0  0  0  0  0
  110.1678  -74.1882  -84.3716 C   0  0  0  0  0  0  0  0  0  0  0  0
  110.7410  -75.4364  -84.8115 C   0  0  2  0  0  0  0  0  0  0  0  0
  110.5238  -75.7372  -86.2759 C   0  0  1  0  0  0  0  0  0  0  0  0
  111.1366  -76.9879  -86.4720 C   0  0  2  0  0  0  0  0  0  0  0  0
  111.0211  -77.4566  -87.8547 C   0  0  0  0  0  0  0  0  0  0  0  0
  111.6144  -78.7307  -88.1137 C   0  0  0  0  0  0  0  0  0  0  0  0
  109.8466  -74.8862  -87.1286 C   0  0  0  0  0  0  0  0  0  0  0  0
  108.7608  -75.2493  -87.9591 C   0  0  0  0  0  0  0  0  0  0  0  0
  108.0545  -74.3999  -88.8126 C   0  0  0  0  0  0  0  0  0  0  0  0
  108.4241  -72.9949  -88.8968 C   0  0  0  0  0  0  0  0  0  0  0  0
  109.5201  -72.6667  -88.0631 C   0  0  0  0  0  0  0  0  0  0  0  0
  110.2587  -73.4845  -87.1968 C   0  0  0  0  0  0  0  0  0  0  0  0
  112.9245  -81.0826  -88.9328 C   0  0  0  0  0  0  0  0  0  0  0  0
  113.2970  -81.7576  -86.6298 C   0  0  0  0  0  0  0  0  0  0  0  0
  111.9557  -75.1482  -79.6675 C   0  0  0  0  0  0  0  0  0  0  0  0
  110.8889  -73.0057  -80.2474 C   0  0  0  0  0  0  0  0  0  0  0  0
  1  2  1  6  0  0  0
  1  3  1  0  0  0  0
  1 16  1  0  0  0  0
  2 23  1  0  0  0  0
  2 24  1  0  0  0  0
  4 25  1  0  0  0  0
  4 26  1  0  0  0  0
  5  6  1  0  0  0  0
  6  3  1  1  0  0  0
  6 14  1  0  0  0  0
  7  5  1  6  0  0  0
  7  8  1  0  0  0  0
  7 12  1  0  0  0  0
  8  9  1  0  0  0  0
  9  4  1  6  0  0  0
  9 10  1  0  0  0  0
 10 11  1  0  0  0  0
 12 11  1  1  0  0  0
 12 13  1  0  0  0  0
 13 14  1  0  0  0  0
 13 17  1  1  0  0  0
 14 15  1  1  0  0  0
 15 16  1  0  0  0  0
 17 18  1  0  0  0  0
 17 22  1  0  0  0  0
 18 19  1  0  0  0  0
 19 20  1  0  0  0  0
 20 21  1  0  0  0  0
 21 22  1  0  0  0  0
M  END
>  <CHROM.1>
-167.65452649,-5.34996955,-127.33831127,111.07420874,-76.33523993,-85.43624492
-1.24485636,-1.04441443,1.07952390

>  <Name>
ligand

>  <RI>
0

>  <Rbt.Current_Directory>
/home/itssahil/PROJECTS/Mol_Feturizer/Test_systems_manuscript/rnas/1f1t

>  <Rbt.Executable>
rbdock ($Id: //depot/dev/client3/rdock/2013.1/src/exe/rbdock.cxx#4 $)

>  <Rbt.Library>
libRbt.so (2013.1, Build901 2013/11/27)

>  <Rbt.Parameter_File>
/export/apps/rDock/src/rDock_2013.1_src/data/scripts/dock_solv.prm

>  <Rbt.Receptor>
prm/pocket_docking_4.prm

>  <SCORE>
-55.7781

>  <SCORE.INTER>
-56.1939

>  <SCORE.INTER.CONST>
1

>  <SCORE.INTER.POLAR>
0

>  <SCORE.INTER.ROT>
3

>  <SCORE.INTER.SOLV>
8.87481

>  <SCORE.INTER.VDW>
-46.0208

>  <SCORE.INTER.norm>
-2.1613

>  <SCORE.INTRA>
0.41579

>  <SCORE.INTRA.DIHEDRAL>
-3.57117e-06

>  <SCORE.INTRA.DIHEDRAL.0>
3.60016

>  <SCORE.INTRA.POLAR>
0

>  <SCORE.INTRA.POLAR.0>
0

>  <SCORE.INTRA.REPUL>
0

>  <SCORE.INTRA.REPUL.0>
0

>  <SCORE.INTRA.SOLV>
6.60013e-05

>  <SCORE.INTRA.SOLV.lig_0>
-10.9882

>  <SCORE.INTRA.VDW>
0.415759

>  <SCORE.INTRA.VDW.0>
1.84442

>  <SCORE.INTRA.norm>
0.0159919

>  <SCORE.RESTR>
0

>  <SCORE.RESTR.CAVITY>
0

>  <SCORE.RESTR.norm>
0

>  <SCORE.SYSTEM>
0

>  <SCORE.SYSTEM.CONST>
0

>  <SCORE.SYSTEM.DIHEDRAL>
0

>  <SCORE.SYSTEM.SOLV>
0

>  <SCORE.SYSTEM.norm>
0

>  <SCORE.heavy>
26

>  <SCORE.norm>
-2.14531

>  <RMSD>
0.742

$$$$
ligand
 OpenBabel02271912153D
libRbt.so/2013.1/901 2013/11/27
 26 29  0  0  0  0  0  0  0  0999 V2000
  111.2314  -74.6860  -81.9291 C   0  0  1  0  0  0  0  0  0  0  0  0
  111.4141  -74.3526  -80.5947 N   0  0  0  0  0  0  0  0  0  0  0  0
  111.7275  -75.9567  -82.4367 C   0  0  0  0  0  0  0  0  0  0  0  0
  112.6466  -80.5418  -87.5633 N   0  0  0  0  0  0  0  0  0  0  0  0
  111.9969  -77.4544  -84.2626 O   0  0  0  0  0  0  0  0  0  0  0  0
  111.4682  -76.1420  -83.7961 C   0  0  2  0  0  0  0  0  0  0  0  0
  111.7649  -77.6105  -85.5075 C   0  0  1  0  0  0  0  0  0  0  0  0
  112.3073  -78.9215  -85.8634 C   0  0  0  0  0  0  0  0  0  0  0  0
  112.1416  -79.2680  -87.2513 C   0  0  2  0  0  0  0  0  0  0  0  0
  111.5186  -78.4039  -88.1855 C   0  0  0  0  0  0  0  0  0  0  0  0
  110.9923  -77.1183  -87.7661 C   0  0  0  0  0  0  0  0  0  0  0  0
  111.1342  -76.7566  -86.3771 C   0  0  2  0  0  0  0  0  0  0  0  0
  110.5458  -75.4111  -86.0228 C   0  0  1  0  0  0  0  0  0  0  0  0
  110.8143  -75.2610  -84.6503 C   0  0  2  0  0  0  0  0  0  0  0  0
  110.3163  -73.9904  -84.1188 C   0  0  0  0  0  0  0  0  0  0  0  0
  110.5713  -73.7739  -82.7294 C   0  0  0  0  0  0  0  0  0  0  0  0
  109.9124  -74.5985  -86.9438 C   0  0  0  0  0  0  0  0  0  0  0  0
  110.2485  -73.2526  -87.2192 C   0  0  0  0  0  0  0  0  0  0  0  0
  109.6316  -72.4232  -88.1575 C   0  0  0  0  0  0  0  0  0  0  0  0
  108.5324  -72.9381  -88.9602 C   0  0  0  0  0  0  0  0  0  0  0  0
  108.2136  -74.2827  -88.6528 C   0  0  0  0  0  0  0  0  0  0  0  0
  108.8011  -75.1483  -87.7199 C   0  0  0  0  0  0  0  0  0  0  0  0
  110.9706  -73.0742  -80.0459 C   0  0  0  0  0  0  0  0  0  0  0  0
  112.0467  -75.1962  -79.5584 C   0  0  0  0  0  0  0  0  0  0  0  0
  113.2398  -81.5989  -86.7142 C   0  0  0  0  0  0  0  0  0  0  0  0
  112.5850  -80.9738  -89.0044 C   0  0  0  0  0  0  0  0  0  0  0  0
  1  2  1  1  0  0  0
  1  3  1  0  0  0  0
  1 16  1  0  0  0  0
  2 23  1  0  0  0  0
  2 24  1  0  0  0  0
  4 25  1  0  0  0  0
  4 26  1  0  0  0  0
  5  6  1  0  0  0  0
  6  3  1  6  0  0  0
  6 14  1  0  0  0  0
  7  5  1  1  0  0  0
  7  8  1  0  0  0  0
  7 12  1  0  0  0  0
  8  9  1  0  0  0  0
  9  4  1  1  0  0  0
  9 10  1  0  0  0  0
 10 11  1  0  0  0  0
 12 11  1  6  0  0  0
 12 13  1  0  0  0  0
 13 14  1  0  0  0  0
 13 17  1  6  0  0  0
 14 15  1  6  0  0  0
 15 16  1  0  0  0  0
 17 18  1  0  0  0  0
 17 22  1  0  0  0  0
 18 19  1  0  0  0  0
 19 20  1  0  0  0  0
 20 21  1  0  0  0  0
 21 22  1  0  0  0  0
M  END
>  <CHROM.1>
178.15229682,3.85887422,-125.11668673,111.09633094,-76.21040222,-85.37230992
-1.81061149,1.07110902,-2.06982072

>  <Name>
ligand

>  <RI>
0

>  <Rbt.Current_Directory>
/home/itssahil/PROJECTS/Mol_Feturizer/Test_systems_manuscript/rnas/1f1t

>  <Rbt.Executable>
rbdock ($Id: //depot/dev/client3/rdock/2013.1/src/exe/rbdock.cxx#4 $)

>  <Rbt.Library>
libRbt.so (2013.1, Build901 2013/11/27)

>  <Rbt.Parameter_File>
/export/apps/rDock/src/rDock_2013.1_src/data/scripts/dock_solv.prm

>  <Rbt.Receptor>
prm/pocket_docking_7.prm

>  <SCORE>
-56.1258

>  <SCORE.INTER>
-56.65

>  <SCORE.INTER.CONST>
1

>  <SCORE.INTER.POLAR>
0

>  <SCORE.INTER.ROT>
3

>  <SCORE.INTER.SOLV>
9.06332

>  <SCORE.INTER.VDW>
-46.3878

>  <SCORE.INTER.norm>
-2.17885

>  <SCORE.INTRA>
0.524229

>  <SCORE.INTRA.DIHEDRAL>
-1.66868e-06

>  <SCORE.INTRA.DIHEDRAL.0>
3.60016

>  <SCORE.INTRA.POLAR>
0

>  <SCORE.INTRA.POLAR.0>
0

>  <SCORE.INTRA.REPUL>
0

>  <SCORE.INTRA.REPUL.0>
0

>  <SCORE.INTRA.SOLV>
6.76896e-06

>  <SCORE.INTRA.SOLV.lig_0>
-10.9882

>  <SCORE.INTRA.VDW>
0.524226

>  <SCORE.INTRA.VDW.0>
1.84442

>  <SCORE.INTRA.norm>
0.0201626

>  <SCORE.RESTR>
0

>  <SCORE.RESTR.CAVITY>
0

>  <SCORE.RESTR.norm>
0

>  <SCORE.SYSTEM>
0

>  <SCORE.SYSTEM.CONST>
0

>  <SCORE.SYSTEM.DIHEDRAL>
0

>  <SCORE.SYSTEM.SOLV>
0

>  <SCORE.SYSTEM.norm>
0

>  <SCORE.heavy>
26

>  <SCORE.norm>
-2.15868

>  <RMSD>
0.742

$$$$
ligand
 OpenBabel02271912153D
libRbt.so/2013.1/901 2013/11/27
 26 29  0  0  0  0  0  0  0  0999 V2000
  111.1742  -74.7216  -82.0250 C   0  0  1  0  0  0  0  0  0  0  0  0
  111.3390  -74.3569  -80.6965 N   0  0  0  0  0  0  0  0  0  0  0  0
  111.6977  -75.9935  -82.5012 C   0  0  0  0  0  0  0  0  0  0  0  0
  112.7453  -80.6682  -87.5212 N   0  0  0  0  0  0  0  0  0  0  0  0
  112.0104  -77.5242  -84.2925 O   0  0  0  0  0  0  0  0  0  0  0  0
  111.4540  -76.2121  -83.8585 C   0  0  2  0  0  0  0  0  0  0  0  0
  111.7924  -77.7107  -85.5357 C   0  0  1  0  0  0  0  0  0  0  0  0
  112.3616  -79.0188  -85.8591 C   0  0  0  0  0  0  0  0  0  0  0  0
  112.2146  -79.3974  -87.2406 C   0  0  2  0  0  0  0  0  0  0  0  0
  111.5844  -78.5647  -88.1983 C   0  0  0  0  0  0  0  0  0  0  0  0
  111.0313  -77.2804  -87.8108 C   0  0  0  0  0  0  0  0  0  0  0  0
  111.1543  -76.8870  -86.4286 C   0  0  2  0  0  0  0  0  0  0  0  0
  110.5385  -75.5453  -86.1080 C   0  0  1  0  0  0  0  0  0  0  0  0
  110.7920  -75.3614  -84.7368 C   0  0  2  0  0  0  0  0  0  0  0  0
  110.2663  -74.0891  -84.2367 C   0  0  0  0  0  0  0  0  0  0  0  0
  110.5049  -73.8388  -82.8500 C   0  0  0  0  0  0  0  0  0  0  0  0
  109.8988  -74.7639  -87.0515 C   0  0  0  0  0  0  0  0  0  0  0  0
  108.8840  -75.2060  -87.9320 C   0  0  0  0  0  0  0  0  0  0  0  0
  108.2153  -74.4273  -88.8782 C   0  0  0  0  0  0  0  0  0  0  0  0
  108.5506  -73.0179  -89.0164 C   0  0  0  0  0  0  0  0  0  0  0  0
  109.5763  -72.6101  -88.1301 C   0  0  0  0  0  0  0  0  0  0  0  0
  110.2753  -73.3556  -87.1707 C   0  0  0  0  0  0  0  0  0  0  0  0
  110.8700  -73.0743  -80.1793 C   0  0  0  0  0  0  0  0  0  0  0  0
  111.9751  -75.1678  -79.6365 C   0  0  0  0  0  0  0  0  0  0  0  0
  113.3001  -81.7183  -86.6383 C   0  0  0  0  0  0  0  0  0  0  0  0
  112.7643  -81.1044  -88.9622 C   0  0  0  0  0  0  0  0  0  0  0  0
  1  2  1  1  0  0  0
  1  3  1  0  0  0  0
  1 16  1  0  0  0  0
  2 23  1  0  0  0  0
  2 24  1  0  0  0  0
  4 25  1  0  0  0  0
  4 26  1  0  0  0  0
  5  6  1  0  0  0  0
  6  3  1  6  0  0  0
  6 14  1  0  0  0  0
  7  5  1  1  0  0  0
  7  8  1  0  0  0  0
  7 12  1  0  0  0  0
  8  9  1  0  0  0  0
  9  4  1  1  0  0  0
  9 10  1  0  0  0  0
 10 11  1  0  0  0  0
 12 11  1  6  0  0  0
 12 13  1  0  0  0  0
 13 14  1  0  0  0  0
 13 17  1  6  0  0  0
 14 15  1  6  0  0  0
 15 16  1  0  0  0  0
 17 18  1  0  0  0  0
 17 22  1  0  0  0  0
 18 19  1  0  0  0  0
 19 20  1  0  0  0  0
 20 21  1  0  0  0  0
 21 22  1  0  0  0  0
M  END
>  <CHROM.1>
178.02698903,6.69883533,50.48538502,111.10439002,-76.30368384,-85.42677340
-1.86334846,1.06425530,-2.05795147

>  <Name>
ligand

>  <RI>
0

>  <Rbt.Current_Directory>
/home/itssahil/PROJECTS/Mol_Feturizer/Test_systems_manuscript/rnas/1f1t

>  <Rbt.Executable>
rbdock ($Id: //depot/dev/client3/rdock/2013.1/src/exe/rbdock.cxx#4 $)

>  <Rbt.Library>
libRbt.so (2013.1, Build901 2013/11/27)

>  <Rbt.Parameter_File>
/export/apps/rDock/src/rDock_2013.1_src/data/scripts/dock_solv.prm

>  <Rbt.Receptor>
prm/pocket_docking_2.prm

>  <SCORE>
-56.001

>  <SCORE.INTER>
-56.54

>  <SCORE.INTER.CONST>
1

>  <SCORE.INTER.POLAR>
0

>  <SCORE.INTER.ROT>
3

>  <SCORE.INTER.SOLV>
8.9857

>  <SCORE.INTER.VDW>
-46.2886

>  <SCORE.INTER.norm>
-2.17462

>  <SCORE.INTRA>
0.539044

>  <SCORE.INTRA.DIHEDRAL>
0.000268472

>  <SCORE.INTRA.DIHEDRAL.0>
3.60016

>  <SCORE.INTRA.POLAR>
0

>  <SCORE.INTRA.POLAR.0>
0

>  <SCORE.INTRA.REPUL>
0

>  <SCORE.INTRA.REPUL.0>
0

>  <SCORE.INTRA.SOLV>
1.60511e-05

>  <SCORE.INTRA.SOLV.lig_0>
-10.9882

>  <SCORE.INTRA.VDW>
0.538901

>  <SCORE.INTRA.VDW.0>
1.84442

>  <SCORE.INTRA.norm>
0.0207324

>  <SCORE.RESTR>
0

>  <SCORE.RESTR.CAVITY>
0

>  <SCORE.RESTR.norm>
0

>  <SCORE.SYSTEM>
0

>  <SCORE.SYSTEM.CONST>
0

>  <SCORE.SYSTEM.DIHEDRAL>
0

>  <SCORE.SYSTEM.SOLV>
0

>  <SCORE.SYSTEM.norm>
0

>  <SCORE.heavy>
26

>  <SCORE.norm>
-2.15388

>  <RMSD>
0.743

$$$$
ligand
 OpenBabel02271912153D
libRbt.so/2013.1/901 2013/11/27
 26 29  0  0  0  0  0  0  0  0999 V2000
  112.2352  -79.4030  -87.1374 C   0  0  1  0  0  0  0  0  0  0  0  0
  112.7410  -80.6321  -87.5359 N   0  0  0  0  0  0  0  0  0  0  0  0
  112.3552  -78.9816  -85.7495 C   0  0  0  0  0  0  0  0  0  0  0  0
  111.3218  -74.3856  -80.6544 N   0  0  0  0  0  0  0  0  0  0  0  0
  111.9450  -77.3444  -84.0759 O   0  0  0  0  0  0  0  0  0  0  0  0
  111.7960  -77.7252  -85.5085 C   0  0  2  0  0  0  0  0  0  0  0  0
  111.4222  -76.2002  -83.8628 C   0  0  1  0  0  0  0  0  0  0  0  0
  111.6286  -75.9141  -82.4432 C   0  0  0  0  0  0  0  0  0  0  0  0
  111.0883  -74.6499  -82.0149 C   0  0  2  0  0  0  0  0  0  0  0  0
  110.4071  -73.7726  -82.8944 C   0  0  0  0  0  0  0  0  0  0  0  0
  110.2434  -74.1114  -84.2959 C   0  0  0  0  0  0  0  0  0  0  0  0
  110.7895  -75.3666  -84.7504 C   0  0  2  0  0  0  0  0  0  0  0  0
  110.5894  -75.6334  -86.2237 C   0  0  1  0  0  0  0  0  0  0  0  0
  111.1708  -76.8968  -86.4338 C   0  0  2  0  0  0  0  0  0  0  0  0
  111.0662  -77.3357  -87.8271 C   0  0  0  0  0  0  0  0  0  0  0  0
  111.6285  -78.6208  -88.1008 C   0  0  0  0  0  0  0  0  0  0  0  0
  109.9507  -74.7478  -87.0709 C   0  0  0  0  0  0  0  0  0  0  0  0
  110.2515  -73.3717  -87.1984 C   0  0  0  0  0  0  0  0  0  0  0  0
  109.6291  -72.4672  -88.0606 C   0  0  0  0  0  0  0  0  0  0  0  0
  108.5627  -72.9269  -88.9377 C   0  0  0  0  0  0  0  0  0  0  0  0
  108.2785  -74.3044  -88.7778 C   0  0  0  0  0  0  0  0  0  0  0  0
  108.8727  -75.2452  -87.9253 C   0  0  0  0  0  0  0  0  0  0  0  0
  113.2441  -81.6125  -86.5778 C   0  0  0  0  0  0  0  0  0  0  0  0
  112.8407  -81.1314  -88.9239 C   0  0  0  0  0  0  0  0  0  0  0  0
  111.9765  -75.1865  -79.5959 C   0  0  0  0  0  0  0  0  0  0  0  0
  110.8604  -73.0552  -80.1215 C   0  0  0  0  0  0  0  0  0  0  0  0
  1  2  1  6  0  0  0
  1  3  1  0  0  0  0
  1 16  1  0  0  0  0
  2 23  1  0  0  0  0
  2 24  1  0  0  0  0
  4 25  1  0  0  0  0
  4 26  1  0  0  0  0
  5  6  1  0  0  0  0
  6  3  1  1  0  0  0
  6 14  1  0  0  0  0
  7  5  1  6  0  0  0
  7  8  1  0  0  0  0
  7 12  1  0  0  0  0
  8  9  1  0  0  0  0
  9  4  1  6  0  0  0
  9 10  1  0  0  0  0
 10 11  1  0  0  0  0
 12 11  1  1  0  0  0
 12 13  1  0  0  0  0
 13 14  1  0  0  0  0
 13 17  1  1  0  0  0
 14 15  1  1  0  0  0
 15 16  1  0  0  0  0
 17 18  1  0  0  0  0
 17 22  1  0  0  0  0
 18 19  1  0  0  0  0
 19 20  1  0  0  0  0
 20 21  1  0  0  0  0
 21 22  1  0  0  0  0
M  END
>  <CHROM.1>
8.16225922,-2.23530330,51.04060245,111.10085886,-76.27930124,-85.39344330
-1.25870454,-1.07135511,1.09752411

>  <Name>
ligand

>  <RI>
0

>  <Rbt.Current_Directory>
/home/itssahil/PROJECTS/Mol_Feturizer/Test_systems_manuscript/rnas/1f1t

>  <Rbt.Executable>
rbdock ($Id: //depot/dev/client3/rdock/2013.1/src/exe/rbdock.cxx#4 $)

>  <Rbt.Library>
libRbt.so (2013.1, Build901 2013/11/27)

>  <Rbt.Parameter_File>
/export/apps/rDock/src/rDock_2013.1_src/data/scripts/dock_solv.prm

>  <Rbt.Receptor>
prm/pocket_docking_2.prm

>  <SCORE>
-56.3866

>  <SCORE.INTER>
-56.5794

>  <SCORE.INTER.CONST>
1

>  <SCORE.INTER.POLAR>
0

>  <SCORE.INTER.ROT>
3

>  <SCORE.INTER.SOLV>
9.00869

>  <SCORE.INTER.VDW>
-46.3225

>  <SCORE.INTER.norm>
-2.17613

>  <SCORE.INTRA>
0.192841

>  <SCORE.INTRA.DIHEDRAL>
0.000272801

>  <SCORE.INTRA.DIHEDRAL.0>
3.60016

>  <SCORE.INTRA.POLAR>
0

>  <SCORE.INTRA.POLAR.0>
0

>  <SCORE.INTRA.REPUL>
0

>  <SCORE.INTRA.REPUL.0>
0

>  <SCORE.INTRA.SOLV>
2.54794e-05

>  <SCORE.INTRA.SOLV.lig_0>
-10.9882

>  <SCORE.INTRA.VDW>
0.192692

>  <SCORE.INTRA.VDW.0>
1.84442

>  <SCORE.INTRA.norm>
0.00741696

>  <SCORE.RESTR>
0

>  <SCORE.RESTR.CAVITY>
0

>  <SCORE.RESTR.norm>
0

>  <SCORE.SYSTEM>
0

>  <SCORE.SYSTEM.CONST>
0

>  <SCORE.SYSTEM.DIHEDRAL>
0

>  <SCORE.SYSTEM.SOLV>
0

>  <SCORE.SYSTEM.norm>
0

>  <SCORE.heavy>
26

>  <SCORE.norm>
-2.16871

>  <RMSD>
0.743

$$$$
ligand
 OpenBabel02271912153D
libRbt.so/2013.1/901 2013/11/27
 26 29  0  0  0  0  0  0  0  0999 V2000
  111.1533  -74.6885  -82.0230 C   0  0  1  0  0  0  0  0  0  0  0  0
  111.3206  -74.3179  -80.6964 N   0  0  0  0  0  0  0  0  0  0  0  0
  111.6727  -75.9639  -82.4939 C   0  0  0  0  0  0  0  0  0  0  0  0
  112.7018  -80.6649  -87.4931 N   0  0  0  0  0  0  0  0  0  0  0  0
  111.9792  -77.5039  -84.2783 O   0  0  0  0  0  0  0  0  0  0  0  0
  111.4268  -76.1883  -83.8498 C   0  0  2  0  0  0  0  0  0  0  0  0
  111.7592  -77.6957  -85.5204 C   0  0  1  0  0  0  0  0  0  0  0  0
  112.3245  -79.0068  -85.8383 C   0  0  0  0  0  0  0  0  0  0  0  0
  112.1748  -79.3914  -87.2178 C   0  0  2  0  0  0  0  0  0  0  0  0
  111.5457  -78.5616  -88.1786 C   0  0  0  0  0  0  0  0  0  0  0  0
  110.9965  -77.2739  -87.7965 C   0  0  0  0  0  0  0  0  0  0  0  0
  111.1222  -76.8744  -86.4164 C   0  0  2  0  0  0  0  0  0  0  0  0
  110.5104  -75.5296  -86.1013 C   0  0  1  0  0  0  0  0  0  0  0  0
  110.7660  -75.3399  -84.7313 C   0  0  2  0  0  0  0  0  0  0  0  0
  110.2444  -74.0640  -84.2365 C   0  0  0  0  0  0  0  0  0  0  0  0
  110.4853  -73.8077  -82.8514 C   0  0  0  0  0  0  0  0  0  0  0  0
  109.8716  -74.7510  -87.0477 C   0  0  0  0  0  0  0  0  0  0  0  0
  108.8511  -75.1932  -87.9215 C   0  0  0  0  0  0  0  0  0  0  0  0
  108.1834  -74.4170  -88.8705 C   0  0  0  0  0  0  0  0  0  0  0  0
  108.5261  -73.0105  -89.0194 C   0  0  0  0  0  0  0  0  0  0  0  0
  109.5573  -72.6026  -88.1395 C   0  0  0  0  0  0  0  0  0  0  0  0
  110.2556  -73.3456  -87.1777 C   0  0  0  0  0  0  0  0  0  0  0  0
  111.9813  -75.1853  -79.7251 C   0  0  0  0  0  0  0  0  0  0  0  0
  110.8887  -73.0455  -80.0797 C   0  0  0  0  0  0  0  0  0  0  0  0
  113.2973  -81.6936  -86.6115 C   0  0  0  0  0  0  0  0  0  0  0  0
  112.6667  -81.1308  -88.9245 C   0  0  0  0  0  0  0  0  0  0  0  0
  1  2  1  1  0  0  0
  1  3  1  0  0  0  0
  1 16  1  0  0  0  0
  2 23  1  0  0  0  0
  2 24  1  0  0  0  0
  4 25  1  0  0  0  0
  4 26  1  0  0  0  0
  5  6  1  0  0  0  0
  6  3  1  6  0  0  0
  6 14  1  0  0  0  0
  7  5  1  1  0  0  0
  7  8  1  0  0  0  0
  7 12  1  0  0  0  0
  8  9  1  0  0  0  0
  9  4  1  1  0  0  0
  9 10  1  0  0  0  0
 10 11  1  0  0  0  0
 12 11  1  6  0  0  0
 12 13  1  0  0  0  0
 13 14  1  0  0  0  0
 13 17  1  6  0  0  0
 14 15  1  6  0  0  0
 15 16  1  0  0  0  0
 17 18  1  0  0  0  0
 17 22  1  0  0  0  0
 18 19  1  0  0  0  0
 19 20  1  0  0  0  0
 20 21  1  0  0  0  0
 21 22  1  0  0  0  0
M  END
>  <CHROM.1>
-1.52643185,4.27798968,50.73221386,111.07736025,-76.28978998,-85.41654252
-1.85402717,1.06527319,-2.06922428

>  <Name>
ligand

>  <RI>
0

>  <Rbt.Current_Directory>
/home/itssahil/PROJECTS/Mol_Feturizer/Test_systems_manuscript/rnas/1f1t

>  <Rbt.Executable>
rbdock ($Id: //depot/dev/client3/rdock/2013.1/src/exe/rbdock.cxx#4 $)

>  <Rbt.Library>
libRbt.so (2013.1, Build901 2013/11/27)

>  <Rbt.Parameter_File>
/export/apps/rDock/src/rDock_2013.1_src/data/scripts/dock_solv.prm

>  <Rbt.Receptor>
prm/pocket_docking_2.prm

>  <SCORE>
-56.2406

>  <SCORE.INTER>
-56.4924

>  <SCORE.INTER.CONST>
1

>  <SCORE.INTER.POLAR>
0

>  <SCORE.INTER.ROT>
3

>  <SCORE.INTER.SOLV>
8.99267

>  <SCORE.INTER.VDW>
-46.2592

>  <SCORE.INTER.norm>
-2.17279

>  <SCORE.INTRA>
0.251781

>  <SCORE.INTRA.DIHEDRAL>
0.000266376

>  <SCORE.INTRA.DIHEDRAL.0>
3.60016

>  <SCORE.INTRA.POLAR>
0

>  <SCORE.INTRA.POLAR.0>
0

>  <SCORE.INTRA.REPUL>
0

>  <SCORE.INTRA.REPUL.0>
0

>  <SCORE.INTRA.SOLV>
7.53339e-06

>  <SCORE.INTRA.SOLV.lig_0>
-10.9882

>  <SCORE.INTRA.VDW>
0.251644

>  <SCORE.INTRA.VDW.0>
1.84442

>  <SCORE.INTRA.norm>
0.00968387

>  <SCORE.RESTR>
0

>  <SCORE.RESTR.CAVITY>
0

>  <SCORE.RESTR.norm>
0

>  <SCORE.SYSTEM>
0

>  <SCORE.SYSTEM.CONST>
0

>  <SCORE.SYSTEM.DIHEDRAL>
0

>  <SCORE.SYSTEM.SOLV>
0

>  <SCORE.SYSTEM.norm>
0

>  <SCORE.heavy>
26

>  <SCORE.norm>
-2.1631

>  <RMSD>
0.743

$$$$
ligand
 OpenBabel02271912153D
libRbt.so/2013.1/901 2013/11/27
 26 29  0  0  0  0  0  0  0  0999 V2000
  112.2576  -79.4815  -87.1549 C   0  0  1  0  0  0  0  0  0  0  0  0
  112.7904  -80.7032  -87.5404 N   0  0  0  0  0  0  0  0  0  0  0  0
  112.3903  -79.0313  -85.7772 C   0  0  0  0  0  0  0  0  0  0  0  0
  111.3191  -74.3723  -80.7476 N   0  0  0  0  0  0  0  0  0  0  0  0
  111.9642  -77.3754  -84.1261 O   0  0  0  0  0  0  0  0  0  0  0  0
  111.8006  -77.7866  -85.5487 C   0  0  2  0  0  0  0  0  0  0  0  0
  111.4134  -76.2424  -83.9241 C   0  0  1  0  0  0  0  0  0  0  0  0
  111.6368  -75.9245  -82.5139 C   0  0  0  0  0  0  0  0  0  0  0  0
  111.0691  -74.6680  -82.0986 C   0  0  2  0  0  0  0  0  0  0  0  0
  110.3482  -73.8262  -82.9813 C   0  0  0  0  0  0  0  0  0  0  0  0
  110.1694  -74.1952  -84.3733 C   0  0  0  0  0  0  0  0  0  0  0  0
  110.7422  -75.4430  -84.8149 C   0  0  2  0  0  0  0  0  0  0  0  0
  110.5236  -75.7424  -86.2794 C   0  0  1  0  0  0  0  0  0  0  0  0
  111.1362  -76.9929  -86.4773 C   0  0  2  0  0  0  0  0  0  0  0  0
  111.0194  -77.4603  -87.8603 C   0  0  0  0  0  0  0  0  0  0  0  0
  111.6124  -78.7342  -88.1210 C   0  0  0  0  0  0  0  0  0  0  0  0
  109.8456  -74.8906  -87.1306 C   0  0  0  0  0  0  0  0  0  0  0  0
  108.7633  -75.2543  -87.9653 C   0  0  0  0  0  0  0  0  0  0  0  0
  108.0562  -74.4042  -88.8174 C   0  0  0  0  0  0  0  0  0  0  0  0
  108.4211  -72.9976  -88.8954 C   0  0  0  0  0  0  0  0  0  0  0  0
  109.5137  -72.6687  -88.0576 C   0  0  0  0  0  0  0  0  0  0  0  0
  110.2530  -73.4871  -87.1924 C   0  0  0  0  0  0  0  0  0  0  0  0
  112.9189  -81.0865  -88.9435 C   0  0  0  0  0  0  0  0  0  0  0  0
  113.2989  -81.7613  -86.6417 C   0  0  0  0  0  0  0  0  0  0  0  0
  111.9563  -75.1621  -79.6703 C   0  0  0  0  0  0  0  0  0  0  0  0
  110.9011  -73.0140  -80.2504 C   0  0  0  0  0  0  0  0  0  0  0  0
  1  2  1  6  0  0  0
  1  3  1  0  0  0  0
  1 16  1  0  0  0  0
  2 23  1  0  0  0  0
  2 24  1  0  0  0  0
  4 25  1  0  0  0  0
  4 26  1  0  0  0  0
  5  6  1  0  0  0  0
  6  3  1  1  0  0  0
  6 14  1  0  0  0  0
  7  5  1  6  0  0  0
  7  8  1  0  0  0  0
  7 12  1  0  0  0  0
  8  9  1  0  0  0  0
  9  4  1  6  0  0  0
  9 10  1  0  0  0  0
 10 11  1  0  0  0  0
 12 11  1  1  0  0  0
 12 13  1  0  0  0  0
 13 14  1  0  0  0  0
 13 17  1  1  0  0  0
 14 15  1  1  0  0  0
 15 16  1  0  0  0  0
 17 18  1  0  0  0  0
 17 22  1  0  0  0  0
 18 19  1  0  0  0  0
 19 20  1  0  0  0  0
 20 21  1  0  0  0  0
 21 22  1  0  0  0  0
M  END
>  <CHROM.1>
-167.79148515,-5.66678356,-127.66718644,111.07478375,-76.34121024,-85.44079191
-1.24672859,-1.04403574,1.07884112

>  <Name>
ligand

>  <RI>
0

>  <Rbt.Current_Directory>
/home/itssahil/PROJECTS/Mol_Feturizer/Test_systems_manuscript/rnas/1f1t

>  <Rbt.Executable>
rbdock ($Id: //depot/dev/client3/rdock/2013.1/src/exe/rbdock.cxx#4 $)

>  <Rbt.Library>
libRbt.so (2013.1, Build901 2013/11/27)

>  <Rbt.Parameter_File>
/export/apps/rDock/src/rDock_2013.1_src/data/scripts/dock_solv.prm

>  <Rbt.Receptor>
prm/pocket_docking_3.prm

>  <SCORE>
-55.7843

>  <SCORE.INTER>
-56.2117

>  <SCORE.INTER.CONST>
1

>  <SCORE.INTER.POLAR>
0

>  <SCORE.INTER.ROT>
3

>  <SCORE.INTER.SOLV>
8.86785

>  <SCORE.INTER.VDW>
-46.0304

>  <SCORE.INTER.norm>
-2.16199

>  <SCORE.INTRA>
0.427423

>  <SCORE.INTRA.DIHEDRAL>
-3.93494e-06

>  <SCORE.INTRA.DIHEDRAL.0>
3.60016

>  <SCORE.INTRA.POLAR>
0

>  <SCORE.INTRA.POLAR.0>
0

>  <SCORE.INTRA.REPUL>
0

>  <SCORE.INTRA.REPUL.0>
0

>  <SCORE.INTRA.SOLV>
6.5027e-05

>  <SCORE.INTRA.SOLV.lig_0>
-10.9882

>  <SCORE.INTRA.VDW>
0.427393

>  <SCORE.INTRA.VDW.0>
1.84442

>  <SCORE.INTRA.norm>
0.0164394

>  <SCORE.RESTR>
0

>  <SCORE.RESTR.CAVITY>
0

>  <SCORE.RESTR.norm>
0

>  <SCORE.SYSTEM>
0

>  <SCORE.SYSTEM.CONST>
0

>  <SCORE.SYSTEM.DIHEDRAL>
0

>  <SCORE.SYSTEM.SOLV>
0

>  <SCORE.SYSTEM.norm>
0

>  <SCORE.heavy>
26

>  <SCORE.norm>
-2.14555

>  <RMSD>
0.743

$$$$
ligand
 OpenBabel02271912153D
libRbt.so/2013.1/901 2013/11/27
 26 29  0  0  0  0  0  0  0  0999 V2000
  111.2463  -74.6126  -81.8926 C   0  0  1  0  0  0  0  0  0  0  0  0
  111.4232  -74.2715  -80.5594 N   0  0  0  0  0  0  0  0  0  0  0  0
  111.7464  -75.8852  -82.3912 C   0  0  0  0  0  0  0  0  0  0  0  0
  112.6935  -80.4972  -87.4886 N   0  0  0  0  0  0  0  0  0  0  0  0
  112.0256  -77.3926  -84.2077 O   0  0  0  0  0  0  0  0  0  0  0  0
  111.4929  -76.0785  -83.7505 C   0  0  2  0  0  0  0  0  0  0  0  0
  111.7988  -77.5560  -85.4526 C   0  0  1  0  0  0  0  0  0  0  0  0
  112.3448  -78.8681  -85.7990 C   0  0  0  0  0  0  0  0  0  0  0  0
  112.1852  -79.2224  -87.1856 C   0  0  2  0  0  0  0  0  0  0  0  0
  111.5644  -78.3646  -88.1270 C   0  0  0  0  0  0  0  0  0  0  0  0
  111.0344  -77.0775  -87.7169 C   0  0  0  0  0  0  0  0  0  0  0  0
  111.1703  -76.7079  -86.3293 C   0  0  2  0  0  0  0  0  0  0  0  0
  110.5782  -75.3615  -85.9849 C   0  0  1  0  0  0  0  0  0  0  0  0
  110.8410  -75.2033  -84.6122 C   0  0  2  0  0  0  0  0  0  0  0  0
  110.3388  -73.9306  -84.0897 C   0  0  0  0  0  0  0  0  0  0  0  0
  110.5879  -73.7060  -82.7005 C   0  0  0  0  0  0  0  0  0  0  0  0
  109.9472  -74.5550  -86.9129 C   0  0  0  0  0  0  0  0  0  0  0  0
  110.2859  -73.2118  -87.1985 C   0  0  0  0  0  0  0  0  0  0  0  0
  109.6713  -72.3887  -88.1438 C   0  0  0  0  0  0  0  0  0  0  0  0
  108.5722  -72.9081  -88.9437 C   0  0  0  0  0  0  0  0  0  0  0  0
  108.2507  -74.2497  -88.6261 C   0  0  0  0  0  0  0  0  0  0  0  0
  108.8358  -75.1090  -87.6858 C   0  0  0  0  0  0  0  0  0  0  0  0
  110.9923  -72.9833  -80.0235 C   0  0  0  0  0  0  0  0  0  0  0  0
  112.0367  -75.1153  -79.5119 C   0  0  0  0  0  0  0  0  0  0  0  0
  113.2532  -81.5623  -86.6269 C   0  0  0  0  0  0  0  0  0  0  0  0
  112.6765  -80.9206  -88.9334 C   0  0  0  0  0  0  0  0  0  0  0  0
  1  2  1  1  0  0  0
  1  3  1  0  0  0  0
  1 16  1  0  0  0  0
  2 23  1  0  0  0  0
  2 24  1  0  0  0  0
  4 25  1  0  0  0  0
  4 26  1  0  0  0  0
  5  6  1  0  0  0  0
  6  3  1  6  0  0  0
  6 14  1  0  0  0  0
  7  5  1  1  0  0  0
  7  8  1  0  0  0  0
  7 12  1  0  0  0  0
  8  9  1  0  0  0  0
  9  4  1  1  0  0  0
  9 10  1  0  0  0  0
 10 11  1  0  0  0  0
 12 11  1  6  0  0  0
 12 13  1  0  0  0  0
 13 14  1  0  0  0  0
 13 17  1  6  0  0  0
 14 15  1  6  0  0  0
 15 16  1  0  0  0  0
 17 18  1  0  0  0  0
 17 22  1  0  0  0  0
 18 19  1  0  0  0  0
 19 20  1  0  0  0  0
 20 21  1  0  0  0  0
 21 22  1  0  0  0  0
M  END
>  <CHROM.1>
177.27638892,5.66208930,-124.83260044,111.12772644,-76.15608968,-85.32784180
-1.82050927,1.07221077,-2.06653022

>  <Name>
ligand

>  <RI>
0

>  <Rbt.Current_Directory>
/home/itssahil/PROJECTS/Mol_Feturizer/Test_systems_manuscript/rnas/1f1t

>  <Rbt.Executable>
rbdock ($Id: //depot/dev/client3/rdock/2013.1/src/exe/rbdock.cxx#4 $)

>  <Rbt.Library>
libRbt.so (2013.1, Build901 2013/11/27)

>  <Rbt.Parameter_File>
/export/apps/rDock/src/rDock_2013.1_src/data/scripts/dock_solv.prm

>  <Rbt.Receptor>
prm/pocket_docking_4.prm

>  <SCORE>
-56.1149

>  <SCORE.INTER>
-56.6119

>  <SCORE.INTER.CONST>
1

>  <SCORE.INTER.POLAR>
0

>  <SCORE.INTER.ROT>
3

>  <SCORE.INTER.SOLV>
9.20303

>  <SCORE.INTER.VDW>
-46.4089

>  <SCORE.INTER.norm>
-2.17738

>  <SCORE.INTRA>
0.497049

>  <SCORE.INTRA.DIHEDRAL>
-9.12592e-06

>  <SCORE.INTRA.DIHEDRAL.0>
3.60016

>  <SCORE.INTRA.POLAR>
0

>  <SCORE.INTRA.POLAR.0>
0

>  <SCORE.INTRA.REPUL>
0

>  <SCORE.INTRA.REPUL.0>
0

>  <SCORE.INTRA.SOLV>
1.41336e-05

>  <SCORE.INTRA.SOLV.lig_0>
-10.9882

>  <SCORE.INTRA.VDW>
0.497046

>  <SCORE.INTRA.VDW.0>
1.84442

>  <SCORE.INTRA.norm>
0.0191173

>  <SCORE.RESTR>
0

>  <SCORE.RESTR.CAVITY>
0

>  <SCORE.RESTR.norm>
0

>  <SCORE.SYSTEM>
0

>  <SCORE.SYSTEM.CONST>
0

>  <SCORE.SYSTEM.DIHEDRAL>
0

>  <SCORE.SYSTEM.SOLV>
0

>  <SCORE.SYSTEM.norm>
0

>  <SCORE.heavy>
26

>  <SCORE.norm>
-2.15826

>  <RMSD>
0.743

$$$$
ligand
 OpenBabel02271912153D
libRbt.so/2013.1/901 2013/11/27
 26 29  0  0  0  0  0  0  0  0999 V2000
  112.2603  -79.4765  -87.1442 C   0  0  1  0  0  0  0  0  0  0  0  0
  112.7973  -80.6974  -87.5267 N   0  0  0  0  0  0  0  0  0  0  0  0
  112.3890  -79.0239  -85.7669 C   0  0  0  0  0  0  0  0  0  0  0  0
  111.2944  -74.3602  -80.7467 N   0  0  0  0  0  0  0  0  0  0  0  0
  111.9548  -77.3667  -84.1192 O   0  0  0  0  0  0  0  0  0  0  0  0
  111.7953  -77.7805  -85.5415 C   0  0  2  0  0  0  0  0  0  0  0  0
  111.4005  -76.2349  -83.9201 C   0  0  1  0  0  0  0  0  0  0  0  0
  111.6201  -75.9142  -82.5099 C   0  0  0  0  0  0  0  0  0  0  0  0
  111.0480  -74.6587  -82.0977 C   0  0  2  0  0  0  0  0  0  0  0  0
  110.3266  -73.8202  -82.9832 C   0  0  0  0  0  0  0  0  0  0  0  0
  110.1517  -74.1918  -84.3750 C   0  0  0  0  0  0  0  0  0  0  0  0
  110.7289  -75.4388  -84.8135 C   0  0  2  0  0  0  0  0  0  0  0  0
  110.5142  -75.7410  -86.2780 C   0  0  1  0  0  0  0  0  0  0  0  0
  111.1306  -76.9901  -86.4726 C   0  0  2  0  0  0  0  0  0  0  0  0
  111.0180  -77.4599  -87.8552 C   0  0  0  0  0  0  0  0  0  0  0  0
  111.6151  -78.7326  -88.1127 C   0  0  0  0  0  0  0  0  0  0  0  0
  109.8355  -74.8924  -87.1319 C   0  0  0  0  0  0  0  0  0  0  0  0
  108.7593  -75.2616  -87.9720 C   0  0  0  0  0  0  0  0  0  0  0  0
  108.0515  -74.4149  -88.8270 C   0  0  0  0  0  0  0  0  0  0  0  0
  108.4090  -73.0062  -88.9023 C   0  0  0  0  0  0  0  0  0  0  0  0
  109.4956  -72.6718  -88.0590 C   0  0  0  0  0  0  0  0  0  0  0  0
  110.2352  -73.4866  -87.1908 C   0  0  0  0  0  0  0  0  0  0  0  0
  112.9215  -81.0862  -88.9287 C   0  0  0  0  0  0  0  0  0  0  0  0
  113.3150  -81.7491  -86.6256 C   0  0  0  0  0  0  0  0  0  0  0  0
  111.9416  -75.1422  -79.6696 C   0  0  0  0  0  0  0  0  0  0  0  0
  110.8594  -73.0073  -80.2491 C   0  0  0  0  0  0  0  0  0  0  0  0
  1  2  1  6  0  0  0
  1  3  1  0  0  0  0
  1 16  1  0  0  0  0
  2 23  1  0  0  0  0
  2 24  1  0  0  0  0
  4 25  1  0  0  0  0
  4 26  1  0  0  0  0
  5  6  1  0  0  0  0
  6  3  1  1  0  0  0
  6 14  1  0  0  0  0
  7  5  1  6  0  0  0
  7  8  1  0  0  0  0
  7 12  1  0  0  0  0
  8  9  1  0  0  0  0
  9  4  1  6  0  0  0
  9 10  1  0  0  0  0
 10 11  1  0  0  0  0
 12 11  1  1  0  0  0
 12 13  1  0  0  0  0
 13 14  1  0  0  0  0
 13 17  1  1  0  0  0
 14 15  1  1  0  0  0
 15 16  1  0  0  0  0
 17 18  1  0  0  0  0
 17 22  1  0  0  0  0
 18 19  1  0  0  0  0
 19 20  1  0  0  0  0
 20 21  1  0  0  0  0
 21 22  1  0  0  0  0
M  END
>  <CHROM.1>
-168.21582981,-5.08253809,-127.92820944,111.06510009,-76.33703339,-85.43727269
-1.24061648,-1.04221635,1.08257222

>  <Name>
ligand

>  <RI>
0

>  <Rbt.Current_Directory>
/home/itssahil/PROJECTS/Mol_Feturizer/Test_systems_manuscript/rnas/1f1t

>  <Rbt.Executable>
rbdock ($Id: //depot/dev/client3/rdock/2013.1/src/exe/rbdock.cxx#4 $)

>  <Rbt.Library>
libRbt.so (2013.1, Build901 2013/11/27)

>  <Rbt.Parameter_File>
/export/apps/rDock/src/rDock_2013.1_src/data/scripts/dock_solv.prm

>  <Rbt.Receptor>
prm/pocket_docking_6.prm

>  <SCORE>
-55.7818

>  <SCORE.INTER>
-56.2348

>  <SCORE.INTER.CONST>
1

>  <SCORE.INTER.POLAR>
0

>  <SCORE.INTER.ROT>
3

>  <SCORE.INTER.SOLV>
8.887

>  <SCORE.INTER.VDW>
-46.0522

>  <SCORE.INTER.norm>
-2.16288

>  <SCORE.INTRA>
0.452955

>  <SCORE.INTRA.DIHEDRAL>
-3.61117e-07

>  <SCORE.INTRA.DIHEDRAL.0>
3.60016

>  <SCORE.INTRA.POLAR>
0

>  <SCORE.INTRA.POLAR.0>
0

>  <SCORE.INTRA.REPUL>
0

>  <SCORE.INTRA.REPUL.0>
0

>  <SCORE.INTRA.SOLV>
5.9632e-05

>  <SCORE.INTRA.SOLV.lig_0>
-10.9882

>  <SCORE.INTRA.VDW>
0.452925

>  <SCORE.INTRA.VDW.0>
1.84442

>  <SCORE.INTRA.norm>
0.0174213

>  <SCORE.RESTR>
0

>  <SCORE.RESTR.CAVITY>
0

>  <SCORE.RESTR.norm>
0

>  <SCORE.SYSTEM>
0

>  <SCORE.SYSTEM.CONST>
0

>  <SCORE.SYSTEM.DIHEDRAL>
0

>  <SCORE.SYSTEM.SOLV>
0

>  <SCORE.SYSTEM.norm>
0

>  <SCORE.heavy>
26

>  <SCORE.norm>
-2.14545

>  <RMSD>
0.743

$$$$
ligand
 OpenBabel02271912153D
libRbt.so/2013.1/901 2013/11/27
 26 29  0  0  0  0  0  0  0  0999 V2000
  112.2585  -79.4824  -87.1571 C   0  0  1  0  0  0  0  0  0  0  0  0
  112.7920  -80.7038  -87.5427 N   0  0  0  0  0  0  0  0  0  0  0  0
  112.3952  -79.0301  -85.7805 C   0  0  0  0  0  0  0  0  0  0  0  0
  111.3336  -74.3658  -80.7538 N   0  0  0  0  0  0  0  0  0  0  0  0
  111.9720  -77.3726  -84.1303 O   0  0  0  0  0  0  0  0  0  0  0  0
  111.8042  -77.7860  -85.5517 C   0  0  2  0  0  0  0  0  0  0  0  0
  111.4201  -76.2402  -83.9280 C   0  0  1  0  0  0  0  0  0  0  0  0
  111.6478  -75.9200  -82.5190 C   0  0  0  0  0  0  0  0  0  0  0  0
  111.0794  -74.6638  -82.1035 C   0  0  2  0  0  0  0  0  0  0  0  0
  110.3541  -73.8244  -82.9849 C   0  0  0  0  0  0  0  0  0  0  0  0
  110.1711  -74.1957  -84.3757 C   0  0  0  0  0  0  0  0  0  0  0  0
  110.7444  -75.4432  -84.8176 C   0  0  2  0  0  0  0  0  0  0  0  0
  110.5213  -75.7450  -86.2809 C   0  0  1  0  0  0  0  0  0  0  0  0
  111.1353  -76.9948  -86.4791 C   0  0  2  0  0  0  0  0  0  0  0  0
  111.0145  -77.4643  -87.8611 C   0  0  0  0  0  0  0  0  0  0  0  0
  111.6087  -78.7376  -88.1221 C   0  0  0  0  0  0  0  0  0  0  0  0
  109.8389  -74.8955  -87.1310 C   0  0  0  0  0  0  0  0  0  0  0  0
  108.7592  -75.2640  -87.9670 C   0  0  0  0  0  0  0  0  0  0  0  0
  108.0478  -74.4164  -88.8181 C   0  0  0  0  0  0  0  0  0  0  0  0
  108.4046  -73.0076  -88.8932 C   0  0  0  0  0  0  0  0  0  0  0  0
  109.4948  -72.6739  -88.0540 C   0  0  0  0  0  0  0  0  0  0  0  0
  110.2381  -73.4896  -87.1899 C   0  0  0  0  0  0  0  0  0  0  0  0
  112.9137  -81.0901  -88.9457 C   0  0  0  0  0  0  0  0  0  0  0  0
  113.3080  -81.7587  -86.6444 C   0  0  0  0  0  0  0  0  0  0  0  0
  111.9842  -75.1493  -79.6800 C   0  0  0  0  0  0  0  0  0  0  0  0
  110.9048  -73.0117  -80.2543 C   0  0  0  0  0  0  0  0  0  0  0  0
  1  2  1  6  0  0  0
  1  3  1  0  0  0  0
  1 16  1  0  0  0  0
  2 23  1  0  0  0  0
  2 24  1  0  0  0  0
  4 25  1  0  0  0  0
  4 26  1  0  0  0  0
  5  6  1  0  0  0  0
  6  3  1  1  0  0  0
  6 14  1  0  0  0  0
  7  5  1  6  0  0  0
  7  8  1  0  0  0  0
  7 12  1  0  0  0  0
  8  9  1  0  0  0  0
  9  4  1  6  0  0  0
  9 10  1  0  0  0  0
 10 11  1  0  0  0  0
 12 11  1  1  0  0  0
 12 13  1  0  0  0  0
 13 14  1  0  0  0  0
 13 17  1  1  0  0  0
 14 15  1  1  0  0  0
 15 16  1  0  0  0  0
 17 18  1  0  0  0  0
 17 22  1  0  0  0  0
 18 19  1  0  0  0  0
 19 20  1  0  0  0  0
 20 21  1  0  0  0  0
 21 22  1  0  0  0  0
M  END
>  <CHROM.1>
-167.92798389,-5.17812867,-128.05134562,111.07621185,-76.34176601,-85.44331172
-1.25119528,-1.04069909,1.07355657

>  <Name>
ligand

>  <RI>
0

>  <Rbt.Current_Directory>
/home/itssahil/PROJECTS/Mol_Feturizer/Test_systems_manuscript/rnas/1f1t

>  <Rbt.Executable>
rbdock ($Id: //depot/dev/client3/rdock/2013.1/src/exe/rbdock.cxx#4 $)

>  <Rbt.Library>
libRbt.so (2013.1, Build901 2013/11/27)

>  <Rbt.Parameter_File>
/export/apps/rDock/src/rDock_2013.1_src/data/scripts/dock_solv.prm

>  <Rbt.Receptor>
prm/pocket_docking_8.prm

>  <SCORE>
-55.7758

>  <SCORE.INTER>
-56.2248

>  <SCORE.INTER.CONST>
1

>  <SCORE.INTER.POLAR>
0

>  <SCORE.INTER.ROT>
3

>  <SCORE.INTER.SOLV>
8.86877

>  <SCORE.INTER.VDW>
-46.0395

>  <SCORE.INTER.norm>
-2.16249

>  <SCORE.INTRA>
0.449049

>  <SCORE.INTRA.DIHEDRAL>
-4.10053e-07

>  <SCORE.INTRA.DIHEDRAL.0>
3.60016

>  <SCORE.INTRA.POLAR>
0

>  <SCORE.INTRA.POLAR.0>
0

>  <SCORE.INTRA.REPUL>
0

>  <SCORE.INTRA.REPUL.0>
0

>  <SCORE.INTRA.SOLV>
6.27982e-05

>  <SCORE.INTRA.SOLV.lig_0>
-10.9882

>  <SCORE.INTRA.VDW>
0.449018

>  <SCORE.INTRA.VDW.0>
1.84442

>  <SCORE.INTRA.norm>
0.0172711

>  <SCORE.RESTR>
0

>  <SCORE.RESTR.CAVITY>
0

>  <SCORE.RESTR.norm>
0

>  <SCORE.SYSTEM>
0

>  <SCORE.SYSTEM.CONST>
0

>  <SCORE.SYSTEM.DIHEDRAL>
0

>  <SCORE.SYSTEM.SOLV>
0

>  <SCORE.SYSTEM.norm>
0

>  <SCORE.heavy>
26

>  <SCORE.norm>
-2.14522

>  <RMSD>
0.743

$$$$
ligand
 OpenBabel02271912153D
libRbt.so/2013.1/901 2013/11/27
 26 29  0  0  0  0  0  0  0  0999 V2000
  111.2159  -74.5484  -81.8786 C   0  0  1  0  0  0  0  0  0  0  0  0
  111.3819  -74.1949  -80.5472 N   0  0  0  0  0  0  0  0  0  0  0  0
  111.7260  -75.8227  -82.3627 C   0  0  0  0  0  0  0  0  0  0  0  0
  112.7318  -80.4735  -87.4133 N   0  0  0  0  0  0  0  0  0  0  0  0
  112.0254  -77.3442  -84.1641 O   0  0  0  0  0  0  0  0  0  0  0  0
  111.4828  -76.0291  -83.7219 C   0  0  2  0  0  0  0  0  0  0  0  0
  111.8080  -77.5196  -85.4090 C   0  0  1  0  0  0  0  0  0  0  0  0
  112.3631  -78.8317  -85.7404 C   0  0  0  0  0  0  0  0  0  0  0  0
  112.2148  -79.1989  -87.1249 C   0  0  2  0  0  0  0  0  0  0  0  0
  111.5961  -78.3525  -88.0779 C   0  0  0  0  0  0  0  0  0  0  0  0
  111.0566  -77.0647  -87.6825 C   0  0  0  0  0  0  0  0  0  0  0  0
  111.1811  -76.6824  -86.2974 C   0  0  2  0  0  0  0  0  0  0  0  0
  110.5797  -75.3362  -85.9686 C   0  0  1  0  0  0  0  0  0  0  0  0
  110.8323  -75.1647  -84.5956 C   0  0  2  0  0  0  0  0  0  0  0  0
  110.3200  -73.8902  -84.0876 C   0  0  0  0  0  0  0  0  0  0  0  0
  110.5584  -73.6523  -82.6988 C   0  0  0  0  0  0  0  0  0  0  0  0
  109.9509  -74.5411  -86.9079 C   0  0  0  0  0  0  0  0  0  0  0  0
  110.2746  -73.1939  -87.1921 C   0  0  0  0  0  0  0  0  0  0  0  0
  109.6622  -72.3820  -88.1485 C   0  0  0  0  0  0  0  0  0  0  0  0
  108.5823  -72.9189  -88.9628 C   0  0  0  0  0  0  0  0  0  0  0  0
  108.2754  -74.2642  -88.6464 C   0  0  0  0  0  0  0  0  0  0  0  0
  108.8589  -75.1127  -87.6954 C   0  0  0  0  0  0  0  0  0  0  0  0
  110.8993  -72.9235  -80.0152 C   0  0  0  0  0  0  0  0  0  0  0  0
  112.0326  -75.0083  -79.4980 C   0  0  0  0  0  0  0  0  0  0  0  0
  112.8693  -81.2128  -88.6880 C   0  0  0  0  0  0  0  0  0  0  0  0
  113.2751  -81.2743  -86.2598 C   0  0  0  0  0  0  0  0  0  0  0  0
  1  2  1  1  0  0  0
  1  3  1  0  0  0  0
  1 16  1  0  0  0  0
  2 23  1  0  0  0  0
  2 24  1  0  0  0  0
  4 25  1  0  0  0  0
  4 26  1  0  0  0  0
  5  6  1  0  0  0  0
  6  3  1  6  0  0  0
  6 14  1  0  0  0  0
  7  5  1  1  0  0  0
  7  8  1  0  0  0  0
  7 12  1  0  0  0  0
  8  9  1  0  0  0  0
  9  4  1  1  0  0  0
  9 10  1  0  0  0  0
 10 11  1  0  0  0  0
 12 11  1  6  0  0  0
 12 13  1  0  0  0  0
 13 14  1  0  0  0  0
 13 17  1  6  0  0  0
 14 15  1  6  0  0  0
 15 16  1  0  0  0  0
 17 18  1  0  0  0  0
 17 22  1  0  0  0  0
 18 19  1  0  0  0  0
 19 20  1  0  0  0  0
 20 21  1  0  0  0  0
 21 22  1  0  0  0  0
M  END
>  <CHROM.1>
179.44387208,-175.81676778,-125.59734958,111.13458679,-76.12444497,-85.28092583
-1.84927354,1.06953970,-2.06053452

>  <Name>
ligand

>  <RI>
0

>  <Rbt.Current_Directory>
/home/itssahil/PROJECTS/Mol_Feturizer/Test_systems_manuscript/rnas/1f1t

>  <Rbt.Executable>
rbdock ($Id: //depot/dev/client3/rdock/2013.1/src/exe/rbdock.cxx#4 $)

>  <Rbt.Library>
libRbt.so (2013.1, Build901 2013/11/27)

>  <Rbt.Parameter_File>
/export/apps/rDock/src/rDock_2013.1_src/data/scripts/dock_solv.prm

>  <Rbt.Receptor>
prm/pocket_docking_5.prm

>  <SCORE>
-53.3898

>  <SCORE.INTER>
-56.312

>  <SCORE.INTER.CONST>
1

>  <SCORE.INTER.POLAR>
0

>  <SCORE.INTER.ROT>
3

>  <SCORE.INTER.SOLV>
9.31519

>  <SCORE.INTER.VDW>
-46.2464

>  <SCORE.INTER.norm>
-2.16585

>  <SCORE.INTRA>
2.92225

>  <SCORE.INTRA.DIHEDRAL>
-0.000588583

>  <SCORE.INTRA.DIHEDRAL.0>
3.60016

>  <SCORE.INTRA.POLAR>
0

>  <SCORE.INTRA.POLAR.0>
0

>  <SCORE.INTRA.REPUL>
0

>  <SCORE.INTRA.REPUL.0>
0

>  <SCORE.INTRA.SOLV>
-0.000997361

>  <SCORE.INTRA.SOLV.lig_0>
-10.9882

>  <SCORE.INTRA.VDW>
2.92304

>  <SCORE.INTRA.VDW.0>
1.84442

>  <SCORE.INTRA.norm>
0.112394

>  <SCORE.RESTR>
0

>  <SCORE.RESTR.CAVITY>
0

>  <SCORE.RESTR.norm>
0

>  <SCORE.SYSTEM>
0

>  <SCORE.SYSTEM.CONST>
0

>  <SCORE.SYSTEM.DIHEDRAL>
0

>  <SCORE.SYSTEM.SOLV>
0

>  <SCORE.SYSTEM.norm>
0

>  <SCORE.heavy>
26

>  <SCORE.norm>
-2.05345

>  <RMSD>
0.744

$$$$
ligand
 OpenBabel02271912153D
libRbt.so/2013.1/901 2013/11/27
 26 29  0  0  0  0  0  0  0  0999 V2000
  111.2069  -74.7424  -82.0375 C   0  0  1  0  0  0  0  0  0  0  0  0
  111.3880  -74.3877  -80.7084 N   0  0  0  0  0  0  0  0  0  0  0  0
  111.7362  -76.0045  -82.5329 C   0  0  0  0  0  0  0  0  0  0  0  0
  112.7558  -80.6236  -87.6099 N   0  0  0  0  0  0  0  0  0  0  0  0
  112.0375  -77.5160  -84.3424 O   0  0  0  0  0  0  0  0  0  0  0  0
  111.4742  -76.2137  -83.8883 C   0  0  2  0  0  0  0  0  0  0  0  0
  111.8026  -77.6939  -85.5838 C   0  0  1  0  0  0  0  0  0  0  0  0
  112.3804  -78.9931  -85.9274 C   0  0  0  0  0  0  0  0  0  0  0  0
  112.2163  -79.3610  -87.3099 C   0  0  2  0  0  0  0  0  0  0  0  0
  111.5631  -78.5266  -88.2504 C   0  0  0  0  0  0  0  0  0  0  0  0
  111.0026  -77.2515  -87.8431 C   0  0  0  0  0  0  0  0  0  0  0  0
  111.1425  -76.8690  -86.4595 C   0  0  2  0  0  0  0  0  0  0  0  0
  110.5178  -75.5368  -86.1177 C   0  0  1  0  0  0  0  0  0  0  0  0
  110.7902  -75.3623  -84.7489 C   0  0  2  0  0  0  0  0  0  0  0  0
  110.2591  -74.1001  -84.2295 C   0  0  0  0  0  0  0  0  0  0  0  0
  110.5161  -73.8594  -82.8444 C   0  0  0  0  0  0  0  0  0  0  0  0
  109.8558  -74.7539  -87.0444 C   0  0  0  0  0  0  0  0  0  0  0  0
  108.7937  -75.1842  -87.8734 C   0  0  0  0  0  0  0  0  0  0  0  0
  108.1026  -74.4033  -88.8015 C   0  0  0  0  0  0  0  0  0  0  0  0
  108.4639  -73.0044  -88.9754 C   0  0  0  0  0  0  0  0  0  0  0  0
  109.5363  -72.6085  -88.1404 C   0  0  0  0  0  0  0  0  0  0  0  0
  110.2591  -73.3567  -87.2010 C   0  0  0  0  0  0  0  0  0  0  0  0
  110.9637  -73.0920  -80.1856 C   0  0  0  0  0  0  0  0  0  0  0  0
  112.0002  -75.2228  -79.6530 C   0  0  0  0  0  0  0  0  0  0  0  0
  113.0033  -81.3052  -88.9000 C   0  0  0  0  0  0  0  0  0  0  0  0
  113.1965  -81.4779  -86.4510 C   0  0  0  0  0  0  0  0  0  0  0  0
  1  2  1  1  0  0  0
  1  3  1  0  0  0  0
  1 16  1  0  0  0  0
  2 23  1  0  0  0  0
  2 24  1  0  0  0  0
  4 25  1  0  0  0  0
  4 26  1  0  0  0  0
  5  6  1  0  0  0  0
  6  3  1  6  0  0  0
  6 14  1  0  0  0  0
  7  5  1  1  0  0  0
  7  8  1  0  0  0  0
  7 12  1  0  0  0  0
  8  9  1  0  0  0  0
  9  4  1  1  0  0  0
  9 10  1  0  0  0  0
 10 11  1  0  0  0  0
 12 11  1  6  0  0  0
 12 13  1  0  0  0  0
 13 14  1  0  0  0  0
 13 17  1  6  0  0  0
 14 15  1  6  0  0  0
 15 16  1  0  0  0  0
 17 18  1  0  0  0  0
 17 22  1  0  0  0  0
 18 19  1  0  0  0  0
 19 20  1  0  0  0  0
 20 21  1  0  0  0  0
 21 22  1  0  0  0  0
M  END
>  <CHROM.1>
175.41175220,-169.20673977,53.34497091,111.10716572,-76.29782545,-85.43187130
-1.85965374,1.05031390,-2.06302048

>  <Name>
ligand

>  <RI>
0

>  <Rbt.Current_Directory>
/home/itssahil/PROJECTS/Mol_Feturizer/Test_systems_manuscript/rnas/1f1t

>  <Rbt.Executable>
rbdock ($Id: //depot/dev/client3/rdock/2013.1/src/exe/rbdock.cxx#4 $)

>  <Rbt.Library>
libRbt.so (2013.1, Build901 2013/11/27)

>  <Rbt.Parameter_File>
/export/apps/rDock/src/rDock_2013.1_src/data/scripts/dock_solv.prm

>  <Rbt.Receptor>
prm/pocket_docking_6.prm

>  <SCORE>
-53.2787

>  <SCORE.INTER>
-55.9296

>  <SCORE.INTER.CONST>
1

>  <SCORE.INTER.POLAR>
0

>  <SCORE.INTER.ROT>
3

>  <SCORE.INTER.SOLV>
8.95614

>  <SCORE.INTER.VDW>
-45.8718

>  <SCORE.INTER.norm>
-2.15114

>  <SCORE.INTRA>
2.65089

>  <SCORE.INTRA.DIHEDRAL>
-0.000259294

>  <SCORE.INTRA.DIHEDRAL.0>
3.60016

>  <SCORE.INTRA.POLAR>
0

>  <SCORE.INTRA.POLAR.0>
0

>  <SCORE.INTRA.REPUL>
0

>  <SCORE.INTRA.REPUL.0>
0

>  <SCORE.INTRA.SOLV>
-0.000967128

>  <SCORE.INTRA.SOLV.lig_0>
-10.9882

>  <SCORE.INTRA.VDW>
2.65151

>  <SCORE.INTRA.VDW.0>
1.84442

>  <SCORE.INTRA.norm>
0.101957

>  <SCORE.RESTR>
0

>  <SCORE.RESTR.CAVITY>
0

>  <SCORE.RESTR.norm>
0

>  <SCORE.SYSTEM>
0

>  <SCORE.SYSTEM.CONST>
0

>  <SCORE.SYSTEM.DIHEDRAL>
0

>  <SCORE.SYSTEM.SOLV>
0

>  <SCORE.SYSTEM.norm>
0

>  <SCORE.heavy>
26

>  <SCORE.norm>
-2.04918

>  <RMSD>
0.744

$$$$
ligand
 OpenBabel02271912153D
libRbt.so/2013.1/901 2013/11/27
 26 29  0  0  0  0  0  0  0  0999 V2000
  111.2526  -74.6154  -81.8845 C   0  0  1  0  0  0  0  0  0  0  0  0
  111.4321  -74.2764  -80.5511 N   0  0  0  0  0  0  0  0  0  0  0  0
  111.7512  -75.8875  -82.3860 C   0  0  0  0  0  0  0  0  0  0  0  0
  112.6865  -80.4919  -87.4924 N   0  0  0  0  0  0  0  0  0  0  0  0
  112.0262  -77.3921  -84.2054 O   0  0  0  0  0  0  0  0  0  0  0  0
  111.4950  -76.0785  -83.7451 C   0  0  2  0  0  0  0  0  0  0  0  0
  111.7970  -77.5535  -85.4501 C   0  0  1  0  0  0  0  0  0  0  0  0
  112.3418  -78.8653  -85.7996 C   0  0  0  0  0  0  0  0  0  0  0  0
  112.1794  -79.2174  -87.1864 C   0  0  2  0  0  0  0  0  0  0  0  0
  111.5572  -78.3578  -88.1254 C   0  0  0  0  0  0  0  0  0  0  0  0
  111.0285  -77.0712  -87.7122 C   0  0  0  0  0  0  0  0  0  0  0  0
  111.1672  -76.7038  -86.3244 C   0  0  2  0  0  0  0  0  0  0  0  0
  110.5764  -75.3577  -85.9767 C   0  0  1  0  0  0  0  0  0  0  0  0
  110.8419  -75.2017  -84.6043 C   0  0  2  0  0  0  0  0  0  0  0  0
  110.3412  -73.9296  -84.0788 C   0  0  0  0  0  0  0  0  0  0  0  0
  110.5930  -73.7073  -82.6898 C   0  0  0  0  0  0  0  0  0  0  0  0
  109.9439  -74.5495  -86.9023 C   0  0  0  0  0  0  0  0  0  0  0  0
  110.2533  -73.1926  -87.1547 C   0  0  0  0  0  0  0  0  0  0  0  0
  109.6373  -72.3671  -88.0969 C   0  0  0  0  0  0  0  0  0  0  0  0
  108.5689  -72.8986  -88.9298 C   0  0  0  0  0  0  0  0  0  0  0  0
  108.2760  -74.2540  -88.6450 C   0  0  0  0  0  0  0  0  0  0  0  0
  108.8637  -75.1164  -87.7091 C   0  0  0  0  0  0  0  0  0  0  0  0
  111.0461  -72.9710  -80.0228 C   0  0  0  0  0  0  0  0  0  0  0  0
  112.0055  -75.1391  -79.4961 C   0  0  0  0  0  0  0  0  0  0  0  0
  113.2701  -81.5489  -86.6364 C   0  0  0  0  0  0  0  0  0  0  0  0
  112.6394  -80.9248  -88.9337 C   0  0  0  0  0  0  0  0  0  0  0  0
  1  2  1  1  0  0  0
  1  3  1  0  0  0  0
  1 16  1  0  0  0  0
  2 23  1  0  0  0  0
  2 24  1  0  0  0  0
  4 25  1  0  0  0  0
  4 26  1  0  0  0  0
  5  6  1  0  0  0  0
  6  3  1  6  0  0  0
  6 14  1  0  0  0  0
  7  5  1  1  0  0  0
  7  8  1  0  0  0  0
  7 12  1  0  0  0  0
  8  9  1  0  0  0  0
  9  4  1  1  0  0  0
  9 10  1  0  0  0  0
 10 11  1  0  0  0  0
 12 11  1  6  0  0  0
 12 13  1  0  0  0  0
 13 14  1  0  0  0  0
 13 17  1  6  0  0  0
 14 15  1  6  0  0  0
 15 16  1  0  0  0  0
 17 18  1  0  0  0  0
 17 22  1  0  0  0  0
 18 19  1  0  0  0  0
 19 20  1  0  0  0  0
 20 21  1  0  0  0  0
 21 22  1  0  0  0  0
M  END
>  <CHROM.1>
175.05311308,4.37820916,-127.08142165,111.12695549,-76.15354635,-85.32211768
-1.81537194,1.07247600,-2.06965985

>  <Name>
ligand

>  <RI>
0

>  <Rbt.Current_Directory>
/home/itssahil/PROJECTS/Mol_Feturizer/Test_systems_manuscript/rnas/1f1t

>  <Rbt.Executable>
rbdock ($Id: //depot/dev/client3/rdock/2013.1/src/exe/rbdock.cxx#4 $)

>  <Rbt.Library>
libRbt.so (2013.1, Build901 2013/11/27)

>  <Rbt.Parameter_File>
/export/apps/rDock/src/rDock_2013.1_src/data/scripts/dock_solv.prm

>  <Rbt.Receptor>
prm/pocket_docking_6.prm

>  <SCORE>
-56.0956

>  <SCORE.INTER>
-56.651

>  <SCORE.INTER.CONST>
1

>  <SCORE.INTER.POLAR>
0

>  <SCORE.INTER.ROT>
3

>  <SCORE.INTER.SOLV>
9.21991

>  <SCORE.INTER.VDW>
-46.4406

>  <SCORE.INTER.norm>
-2.17888

>  <SCORE.INTRA>
0.555425

>  <SCORE.INTRA.DIHEDRAL>
1.67543e-06

>  <SCORE.INTRA.DIHEDRAL.0>
3.60016

>  <SCORE.INTRA.POLAR>
0

>  <SCORE.INTRA.POLAR.0>
0

>  <SCORE.INTRA.REPUL>
0

>  <SCORE.INTRA.REPUL.0>
0

>  <SCORE.INTRA.SOLV>
1.85055e-05

>  <SCORE.INTRA.SOLV.lig_0>
-10.9882

>  <SCORE.INTRA.VDW>
0.555415

>  <SCORE.INTRA.VDW.0>
1.84442

>  <SCORE.INTRA.norm>
0.0213625

>  <SCORE.RESTR>
0

>  <SCORE.RESTR.CAVITY>
0

>  <SCORE.RESTR.norm>
0

>  <SCORE.SYSTEM>
0

>  <SCORE.SYSTEM.CONST>
0

>  <SCORE.SYSTEM.DIHEDRAL>
0

>  <SCORE.SYSTEM.SOLV>
0

>  <SCORE.SYSTEM.norm>
0

>  <SCORE.heavy>
26

>  <SCORE.norm>
-2.15752

>  <RMSD>
0.744

$$$$
ligand
 OpenBabel02271912153D
libRbt.so/2013.1/901 2013/11/27
 26 29  0  0  0  0  0  0  0  0999 V2000
  111.2738  -74.6218  -81.8998 C   0  0  1  0  0  0  0  0  0  0  0  0
  111.4521  -74.2806  -80.5668 N   0  0  0  0  0  0  0  0  0  0  0  0
  111.7663  -75.8980  -82.3970 C   0  0  0  0  0  0  0  0  0  0  0  0
  112.6872  -80.5203  -87.4898 N   0  0  0  0  0  0  0  0  0  0  0  0
  112.0369  -77.4087  -84.2120 O   0  0  0  0  0  0  0  0  0  0  0  0
  111.5121  -76.0910  -83.7562 C   0  0  2  0  0  0  0  0  0  0  0  0
  111.8097  -77.5719  -85.4568 C   0  0  1  0  0  0  0  0  0  0  0  0
  112.3478  -78.8876  -85.8019 C   0  0  0  0  0  0  0  0  0  0  0  0
  112.1866  -79.2422  -87.1882 C   0  0  2  0  0  0  0  0  0  0  0  0
  111.5716  -78.3814  -88.1307 C   0  0  0  0  0  0  0  0  0  0  0  0
  111.0493  -77.0908  -87.7219 C   0  0  0  0  0  0  0  0  0  0  0  0
  111.1868  -76.7207  -86.3347 C   0  0  2  0  0  0  0  0  0  0  0  0
  110.6029  -75.3704  -85.9917 C   0  0  1  0  0  0  0  0  0  0  0  0
  110.8661  -75.2126  -84.6191 C   0  0  2  0  0  0  0  0  0  0  0  0
  110.3715  -73.9363  -84.0979 C   0  0  0  0  0  0  0  0  0  0  0  0
  110.6213  -73.7120  -82.7088 C   0  0  0  0  0  0  0  0  0  0  0  0
  109.9772  -74.5609  -86.9207 C   0  0  0  0  0  0  0  0  0  0  0  0
  110.3097  -73.2131  -87.1914 C   0  0  0  0  0  0  0  0  0  0  0  0
  109.7006  -72.3867  -88.1375 C   0  0  0  0  0  0  0  0  0  0  0  0
  108.6148  -72.9073  -88.9546 C   0  0  0  0  0  0  0  0  0  0  0  0
  108.2992  -74.2537  -88.6516 C   0  0  0  0  0  0  0  0  0  0  0  0
  108.8791  -75.1164  -87.7113 C   0  0  0  0  0  0  0  0  0  0  0  0
  112.0378  -75.2052  -79.6001 C   0  0  0  0  0  0  0  0  0  0  0  0
  111.1058  -72.9881  -79.9381 C   0  0  0  0  0  0  0  0  0  0  0  0
  113.2601  -81.5796  -86.6295 C   0  0  0  0  0  0  0  0  0  0  0  0
  112.6441  -80.9552  -88.9306 C   0  0  0  0  0  0  0  0  0  0  0  0
  1  2  1  1  0  0  0
  1  3  1  0  0  0  0
  1 16  1  0  0  0  0
  2 23  1  0  0  0  0
  2 24  1  0  0  0  0
  4 25  1  0  0  0  0
  4 26  1  0  0  0  0
  5  6  1  0  0  0  0
  6  3  1  6  0  0  0
  6 14  1  0  0  0  0
  7  5  1  1  0  0  0
  7  8  1  0  0  0  0
  7 12  1  0  0  0  0
  8  9  1  0  0  0  0
  9  4  1  1  0  0  0
  9 10  1  0  0  0  0
 10 11  1  0  0  0  0
 12 11  1  6  0  0  0
 12 13  1  0  0  0  0
 13 14  1  0  0  0  0
 13 17  1  6  0  0  0
 14 15  1  6  0  0  0
 15 16  1  0  0  0  0
 17 18  1  0  0  0  0
 17 22  1  0  0  0  0
 18 19  1  0  0  0  0
 19 20  1  0  0  0  0
 20 21  1  0  0  0  0
 21 22  1  0  0  0  0
M  END
>  <CHROM.1>
-4.63085952,4.52585628,-125.96018222,111.14964722,-76.17128887,-85.33320271
-1.81096395,1.07823208,-2.07405368

>  <Name>
ligand

>  <RI>
0

>  <Rbt.Current_Directory>
/home/itssahil/PROJECTS/Mol_Feturizer/Test_systems_manuscript/rnas/1f1t

>  <Rbt.Executable>
rbdock ($Id: //depot/dev/client3/rdock/2013.1/src/exe/rbdock.cxx#4 $)

>  <Rbt.Library>
libRbt.so (2013.1, Build901 2013/11/27)

>  <Rbt.Parameter_File>
/export/apps/rDock/src/rDock_2013.1_src/data/scripts/dock_solv.prm

>  <Rbt.Receptor>
prm/pocket_docking_7.prm

>  <SCORE>
-56.4249

>  <SCORE.INTER>
-56.6453

>  <SCORE.INTER.CONST>
1

>  <SCORE.INTER.POLAR>
0

>  <SCORE.INTER.ROT>
3

>  <SCORE.INTER.SOLV>
9.23795

>  <SCORE.INTER.VDW>
-46.4429

>  <SCORE.INTER.norm>
-2.17867

>  <SCORE.INTRA>
0.220464

>  <SCORE.INTRA.DIHEDRAL>
-1.52039e-05

>  <SCORE.INTRA.DIHEDRAL.0>
3.60016

>  <SCORE.INTRA.POLAR>
0

>  <SCORE.INTRA.POLAR.0>
0

>  <SCORE.INTRA.REPUL>
0

>  <SCORE.INTRA.REPUL.0>
0

>  <SCORE.INTRA.SOLV>
1.77915e-05

>  <SCORE.INTRA.SOLV.lig_0>
-10.9882

>  <SCORE.INTRA.VDW>
0.220463

>  <SCORE.INTRA.VDW.0>
1.84442

>  <SCORE.INTRA.norm>
0.00847939

>  <SCORE.RESTR>
0

>  <SCORE.RESTR.CAVITY>
0

>  <SCORE.RESTR.norm>
0

>  <SCORE.SYSTEM>
0

>  <SCORE.SYSTEM.CONST>
0

>  <SCORE.SYSTEM.DIHEDRAL>
0

>  <SCORE.SYSTEM.SOLV>
0

>  <SCORE.SYSTEM.norm>
0

>  <SCORE.heavy>
26

>  <SCORE.norm>
-2.17019

>  <RMSD>
0.744

$$$$
ligand
 OpenBabel02271912153D
libRbt.so/2013.1/901 2013/11/27
 26 29  0  0  0  0  0  0  0  0999 V2000
  112.2490  -79.4906  -87.1214 C   0  0  1  0  0  0  0  0  0  0  0  0
  112.7817  -80.7155  -87.4970 N   0  0  0  0  0  0  0  0  0  0  0  0
  112.3767  -79.0319  -85.7461 C   0  0  0  0  0  0  0  0  0  0  0  0
  111.2914  -74.3396  -80.7506 N   0  0  0  0  0  0  0  0  0  0  0  0
  111.9461  -77.3650  -84.1073 O   0  0  0  0  0  0  0  0  0  0  0  0
  111.7878  -77.7849  -85.5279 C   0  0  2  0  0  0  0  0  0  0  0  0
  111.3961  -76.2299  -83.9147 C   0  0  1  0  0  0  0  0  0  0  0  0
  111.6142  -75.9035  -82.5057 C   0  0  0  0  0  0  0  0  0  0  0  0
  111.0465  -74.6436  -82.1007 C   0  0  2  0  0  0  0  0  0  0  0  0
  110.3303  -73.8064  -82.9916 C   0  0  0  0  0  0  0  0  0  0  0  0
  110.1566  -74.1840  -84.3819 C   0  0  0  0  0  0  0  0  0  0  0  0
  110.7296  -75.4354  -84.8133 C   0  0  2  0  0  0  0  0  0  0  0  0
  110.5165  -75.7438  -86.2767 C   0  0  1  0  0  0  0  0  0  0  0  0
  111.1282  -76.9964  -86.4642 C   0  0  2  0  0  0  0  0  0  0  0  0
  111.0164  -77.4724  -87.8447 C   0  0  0  0  0  0  0  0  0  0  0  0
  111.6087  -78.7487  -88.0949 C   0  0  0  0  0  0  0  0  0  0  0  0
  109.8431  -74.8965  -87.1361 C   0  0  0  0  0  0  0  0  0  0  0  0
  108.7639  -75.2642  -87.9731 C   0  0  0  0  0  0  0  0  0  0  0  0
  108.0614  -74.4186  -88.8336 C   0  0  0  0  0  0  0  0  0  0  0  0
  108.4282  -73.0130  -88.9187 C   0  0  0  0  0  0  0  0  0  0  0  0
  109.5176  -72.6800  -88.0782 C   0  0  0  0  0  0  0  0  0  0  0  0
  110.2522  -73.4939  -87.2048 C   0  0  0  0  0  0  0  0  0  0  0  0
  113.2716  -81.6822  -86.5183 C   0  0  0  0  0  0  0  0  0  0  0  0
  112.9256  -81.2233  -88.8780 C   0  0  0  0  0  0  0  0  0  0  0  0
  111.9108  -75.1285  -79.6623 C   0  0  0  0  0  0  0  0  0  0  0  0
  110.8883  -72.9716  -80.2679 C   0  0  0  0  0  0  0  0  0  0  0  0
  1  2  1  6  0  0  0
  1  3  1  0  0  0  0
  1 16  1  0  0  0  0
  2 23  1  0  0  0  0
  2 24  1  0  0  0  0
  4 25  1  0  0  0  0
  4 26  1  0  0  0  0
  5  6  1  0  0  0  0
  6  3  1  1  0  0  0
  6 14  1  0  0  0  0
  7  5  1  6  0  0  0
  7  8  1  0  0  0  0
  7 12  1  0  0  0  0
  8  9  1  0  0  0  0
  9  4  1  6  0  0  0
  9 10  1  0  0  0  0
 10 11  1  0  0  0  0
 12 11  1  1  0  0  0
 12 13  1  0  0  0  0
 13 14  1  0  0  0  0
 13 17  1  1  0  0  0
 14 15  1  1  0  0  0
 15 16  1  0  0  0  0
 17 18  1  0  0  0  0
 17 22  1  0  0  0  0
 18 19  1  0  0  0  0
 19 20  1  0  0  0  0
 20 21  1  0  0  0  0
 21 22  1  0  0  0  0
M  END
>  <CHROM.1>
10.82070180,-6.38442661,-127.69012174,111.06344110,-76.33927136,-85.42805872
-1.24046668,-1.04764304,1.07572942

>  <Name>
ligand

>  <RI>
0

>  <Rbt.Current_Directory>
/home/itssahil/PROJECTS/Mol_Feturizer/Test_systems_manuscript/rnas/1f1t

>  <Rbt.Executable>
rbdock ($Id: //depot/dev/client3/rdock/2013.1/src/exe/rbdock.cxx#4 $)

>  <Rbt.Library>
libRbt.so (2013.1, Build901 2013/11/27)

>  <Rbt.Parameter_File>
/export/apps/rDock/src/rDock_2013.1_src/data/scripts/dock_solv.prm

>  <Rbt.Receptor>
prm/pocket_docking_7.prm

>  <SCORE>
-56.0003

>  <SCORE.INTER>
-56.1685

>  <SCORE.INTER.CONST>
1

>  <SCORE.INTER.POLAR>
0

>  <SCORE.INTER.ROT>
3

>  <SCORE.INTER.SOLV>
8.87861

>  <SCORE.INTER.VDW>
-46.0052

>  <SCORE.INTER.norm>
-2.16033

>  <SCORE.INTRA>
0.1682

>  <SCORE.INTRA.DIHEDRAL>
-1.87698e-05

>  <SCORE.INTRA.DIHEDRAL.0>
3.60016

>  <SCORE.INTRA.POLAR>
0

>  <SCORE.INTRA.POLAR.0>
0

>  <SCORE.INTRA.REPUL>
0

>  <SCORE.INTRA.REPUL.0>
0

>  <SCORE.INTRA.SOLV>
5.19982e-05

>  <SCORE.INTRA.SOLV.lig_0>
-10.9882

>  <SCORE.INTRA.VDW>
0.168184

>  <SCORE.INTRA.VDW.0>
1.84442

>  <SCORE.INTRA.norm>
0.00646924

>  <SCORE.RESTR>
0

>  <SCORE.RESTR.CAVITY>
0

>  <SCORE.RESTR.norm>
0

>  <SCORE.SYSTEM>
0

>  <SCORE.SYSTEM.CONST>
0

>  <SCORE.SYSTEM.DIHEDRAL>
0

>  <SCORE.SYSTEM.SOLV>
0

>  <SCORE.SYSTEM.norm>
0

>  <SCORE.heavy>
26

>  <SCORE.norm>
-2.15386

>  <RMSD>
0.744

$$$$
ligand
 OpenBabel02271912153D
libRbt.so/2013.1/901 2013/11/27
 26 29  0  0  0  0  0  0  0  0999 V2000
  111.2045  -74.6808  -81.9574 C   0  0  1  0  0  0  0  0  0  0  0  0
  111.3786  -74.3388  -80.6240 N   0  0  0  0  0  0  0  0  0  0  0  0
  111.7070  -75.9532  -82.4543 C   0  0  0  0  0  0  0  0  0  0  0  0
  112.6686  -80.5670  -87.5473 N   0  0  0  0  0  0  0  0  0  0  0  0
  111.9912  -77.4613  -84.2694 O   0  0  0  0  0  0  0  0  0  0  0  0
  111.4562  -76.1475  -83.8140 C   0  0  2  0  0  0  0  0  0  0  0  0
  111.7669  -77.6257  -85.5146 C   0  0  1  0  0  0  0  0  0  0  0  0
  112.3150  -78.9373  -85.8593 C   0  0  0  0  0  0  0  0  0  0  0  0
  112.1583  -79.2927  -87.2460 C   0  0  2  0  0  0  0  0  0  0  0  0
  111.5384  -78.4360  -88.1891 C   0  0  0  0  0  0  0  0  0  0  0  0
  111.0061  -77.1493  -87.7806 C   0  0  0  0  0  0  0  0  0  0  0  0
  111.1390  -76.7788  -86.3931 C   0  0  2  0  0  0  0  0  0  0  0  0
  110.5449  -75.4328  -86.0504 C   0  0  1  0  0  0  0  0  0  0  0  0
  110.8050  -75.2735  -84.6774 C   0  0  2  0  0  0  0  0  0  0  0  0
  110.3004  -74.0011  -84.1566 C   0  0  0  0  0  0  0  0  0  0  0  0
  110.5466  -73.7754  -82.7670 C   0  0  0  0  0  0  0  0  0  0  0  0
  109.9146  -74.6276  -86.9801 C   0  0  0  0  0  0  0  0  0  0  0  0
  110.2479  -73.2820  -87.2609 C   0  0  0  0  0  0  0  0  0  0  0  0
  109.6342  -72.4600  -88.2078 C   0  0  0  0  0  0  0  0  0  0  0  0
  108.5420  -72.9833  -89.0147 C   0  0  0  0  0  0  0  0  0  0  0  0
  108.2259  -74.3273  -88.7018 C   0  0  0  0  0  0  0  0  0  0  0  0
  108.8104  -75.1856  -87.7603 C   0  0  0  0  0  0  0  0  0  0  0  0
  112.0265  -75.2350  -79.6705 C   0  0  0  0  0  0  0  0  0  0  0  0
  110.9669  -73.0720  -79.9823 C   0  0  0  0  0  0  0  0  0  0  0  0
  113.2422  -81.6249  -86.6858 C   0  0  0  0  0  0  0  0  0  0  0  0
  112.6376  -80.9987  -88.9894 C   0  0  0  0  0  0  0  0  0  0  0  0
  1  2  1  1  0  0  0
  1  3  1  0  0  0  0
  1 16  1  0  0  0  0
  2 23  1  0  0  0  0
  2 24  1  0  0  0  0
  4 25  1  0  0  0  0
  4 26  1  0  0  0  0
  5  6  1  0  0  0  0
  6  3  1  6  0  0  0
  6 14  1  0  0  0  0
  7  5  1  1  0  0  0
  7  8  1  0  0  0  0
  7 12  1  0  0  0  0
  8  9  1  0  0  0  0
  9  4  1  1  0  0  0
  9 10  1  0  0  0  0
 10 11  1  0  0  0  0
 12 11  1  6  0  0  0
 12 13  1  0  0  0  0
 13 14  1  0  0  0  0
 13 17  1  6  0  0  0
 14 15  1  6  0  0  0
 15 16  1  0  0  0  0
 17 18  1  0  0  0  0
 17 22  1  0  0  0  0
 18 19  1  0  0  0  0
 19 20  1  0  0  0  0
 20 21  1  0  0  0  0
 21 22  1  0  0  0  0
M  END
>  <CHROM.1>
-1.68997748,4.85301497,-125.18159534,111.09652503,-76.22986234,-85.39142318
-1.82130619,1.07145313,-2.06462077

>  <Name>
ligand

>  <RI>
0

>  <Rbt.Current_Directory>
/home/itssahil/PROJECTS/Mol_Feturizer/Test_systems_manuscript/rnas/1f1t

>  <Rbt.Executable>
rbdock ($Id: //depot/dev/client3/rdock/2013.1/src/exe/rbdock.cxx#4 $)

>  <Rbt.Library>
libRbt.so (2013.1, Build901 2013/11/27)

>  <Rbt.Parameter_File>
/export/apps/rDock/src/rDock_2013.1_src/data/scripts/dock_solv.prm

>  <Rbt.Receptor>
prm/pocket_docking_8.prm

>  <SCORE>
-56.3729

>  <SCORE.INTER>
-56.588

>  <SCORE.INTER.CONST>
1

>  <SCORE.INTER.POLAR>
0

>  <SCORE.INTER.ROT>
3

>  <SCORE.INTER.SOLV>
9.06913

>  <SCORE.INTER.VDW>
-46.3484

>  <SCORE.INTER.norm>
-2.17646

>  <SCORE.INTRA>
0.215168

>  <SCORE.INTRA.DIHEDRAL>
-1.85157e-05

>  <SCORE.INTRA.DIHEDRAL.0>
3.60016

>  <SCORE.INTRA.POLAR>
0

>  <SCORE.INTRA.POLAR.0>
0

>  <SCORE.INTRA.REPUL>
0

>  <SCORE.INTRA.REPUL.0>
0

>  <SCORE.INTRA.SOLV>
9.4672e-06

>  <SCORE.INTRA.SOLV.lig_0>
-10.9882

>  <SCORE.INTRA.VDW>
0.215172

>  <SCORE.INTRA.VDW.0>
1.84442

>  <SCORE.INTRA.norm>
0.00827568

>  <SCORE.RESTR>
0

>  <SCORE.RESTR.CAVITY>
0

>  <SCORE.RESTR.norm>
0

>  <SCORE.SYSTEM>
0

>  <SCORE.SYSTEM.CONST>
0

>  <SCORE.SYSTEM.DIHEDRAL>
0

>  <SCORE.SYSTEM.SOLV>
0

>  <SCORE.SYSTEM.norm>
0

>  <SCORE.heavy>
26

>  <SCORE.norm>
-2.16819

>  <RMSD>
0.744

$$$$
ligand
 OpenBabel02271912153D
libRbt.so/2013.1/901 2013/11/27
 26 29  0  0  0  0  0  0  0  0999 V2000
  112.2584  -79.4802  -87.1589 C   0  0  1  0  0  0  0  0  0  0  0  0
  112.7908  -80.7020  -87.5448 N   0  0  0  0  0  0  0  0  0  0  0  0
  112.3920  -79.0302  -85.7813 C   0  0  0  0  0  0  0  0  0  0  0  0
  111.3245  -74.3714  -80.7507 N   0  0  0  0  0  0  0  0  0  0  0  0
  111.9671  -77.3743  -84.1298 O   0  0  0  0  0  0  0  0  0  0  0  0
  111.8026  -77.7854  -85.5523 C   0  0  2  0  0  0  0  0  0  0  0  0
  111.4166  -76.2413  -83.9274 C   0  0  1  0  0  0  0  0  0  0  0  0
  111.6409  -75.9235  -82.5173 C   0  0  0  0  0  0  0  0  0  0  0  0
  111.0736  -74.6670  -82.1016 C   0  0  2  0  0  0  0  0  0  0  0  0
  110.3522  -73.8250  -82.9838 C   0  0  0  0  0  0  0  0  0  0  0  0
  110.1724  -74.1939  -84.3757 C   0  0  0  0  0  0  0  0  0  0  0  0
  110.7449  -75.4418  -84.8178 C   0  0  2  0  0  0  0  0  0  0  0  0
  110.5253  -75.7411  -86.2821 C   0  0  1  0  0  0  0  0  0  0  0  0
  111.1377  -76.9917  -86.4804 C   0  0  2  0  0  0  0  0  0  0  0  0
  111.0199  -77.4589  -87.8634 C   0  0  0  0  0  0  0  0  0  0  0  0
  111.6126  -78.7329  -88.1246 C   0  0  0  0  0  0  0  0  0  0  0  0
  109.8468  -74.8892  -87.1328 C   0  0  0  0  0  0  0  0  0  0  0  0
  108.7646  -75.2531  -87.9677 C   0  0  0  0  0  0  0  0  0  0  0  0
  108.0570  -74.4029  -88.8194 C   0  0  0  0  0  0  0  0  0  0  0  0
  108.4212  -72.9960  -88.8966 C   0  0  0  0  0  0  0  0  0  0  0  0
  109.5136  -72.6670  -88.0586 C   0  0  0  0  0  0  0  0  0  0  0  0
  110.2533  -73.4855  -87.1939 C   0  0  0  0  0  0  0  0  0  0  0  0
  112.9073  -81.0902  -88.9477 C   0  0  0  0  0  0  0  0  0  0  0  0
  113.3106  -81.7554  -86.6470 C   0  0  0  0  0  0  0  0  0  0  0  0
  111.9611  -75.1618  -79.6736 C   0  0  0  0  0  0  0  0  0  0  0  0
  110.9084  -73.0124  -80.2537 C   0  0  0  0  0  0  0  0  0  0  0  0
  1  2  1  6  0  0  0
  1  3  1  0  0  0  0
  1 16  1  0  0  0  0
  2 23  1  0  0  0  0
  2 24  1  0  0  0  0
  4 25  1  0  0  0  0
  4 26  1  0  0  0  0
  5  6  1  0  0  0  0
  6  3  1  1  0  0  0
  6 14  1  0  0  0  0
  7  5  1  6  0  0  0
  7  8  1  0  0  0  0
  7 12  1  0  0  0  0
  8  9  1  0  0  0  0
  9  4  1  6  0  0  0
  9 10  1  0  0  0  0
 10 11  1  0  0  0  0
 12 11  1  1  0  0  0
 12 13  1  0  0  0  0
 13 14  1  0  0  0  0
 13 17  1  1  0  0  0
 14 15  1  1  0  0  0
 15 16  1  0  0  0  0
 17 18  1  0  0  0  0
 17 22  1  0  0  0  0
 18 19  1  0  0  0  0
 19 20  1  0  0  0  0
 20 21  1  0  0  0  0
 21 22  1  0  0  0  0
M  END
>  <CHROM.1>
-168.35622836,-5.73697416,-127.72698013,111.07693718,-76.34000707,-85.44389573
-1.24824379,-1.04366597,1.07757623

>  <Name>
ligand

>  <RI>
0

>  <Rbt.Current_Directory>
/home/itssahil/PROJECTS/Mol_Feturizer/Test_systems_manuscript/rnas/1f1t

>  <Rbt.Executable>
rbdock ($Id: //depot/dev/client3/rdock/2013.1/src/exe/rbdock.cxx#4 $)

>  <Rbt.Library>
libRbt.so (2013.1, Build901 2013/11/27)

>  <Rbt.Parameter_File>
/export/apps/rDock/src/rDock_2013.1_src/data/scripts/dock_solv.prm

>  <Rbt.Receptor>
prm/pocket_docking_3.prm

>  <SCORE>
-55.7743

>  <SCORE.INTER>
-56.2175

>  <SCORE.INTER.CONST>
1

>  <SCORE.INTER.POLAR>
0

>  <SCORE.INTER.ROT>
3

>  <SCORE.INTER.SOLV>
8.87738

>  <SCORE.INTER.VDW>
-46.0375

>  <SCORE.INTER.norm>
-2.16221

>  <SCORE.INTRA>
0.4432

>  <SCORE.INTRA.DIHEDRAL>
-3.95424e-06

>  <SCORE.INTRA.DIHEDRAL.0>
3.60016

>  <SCORE.INTRA.POLAR>
0

>  <SCORE.INTRA.POLAR.0>
0

>  <SCORE.INTRA.REPUL>
0

>  <SCORE.INTRA.REPUL.0>
0

>  <SCORE.INTRA.SOLV>
5.92047e-05

>  <SCORE.INTRA.SOLV.lig_0>
-10.9882

>  <SCORE.INTRA.VDW>
0.443172

>  <SCORE.INTRA.VDW.0>
1.84442

>  <SCORE.INTRA.norm>
0.0170461

>  <SCORE.RESTR>
0

>  <SCORE.RESTR.CAVITY>
0

>  <SCORE.RESTR.norm>
0

>  <SCORE.SYSTEM>
0

>  <SCORE.SYSTEM.CONST>
0

>  <SCORE.SYSTEM.DIHEDRAL>
0

>  <SCORE.SYSTEM.SOLV>
0

>  <SCORE.SYSTEM.norm>
0

>  <SCORE.heavy>
26

>  <SCORE.norm>
-2.14517

>  <RMSD>
0.745

$$$$
ligand
 OpenBabel02271912153D
libRbt.so/2013.1/901 2013/11/27
 26 29  0  0  0  0  0  0  0  0999 V2000
  112.2570  -79.4893  -87.1377 C   0  0  1  0  0  0  0  0  0  0  0  0
  112.7887  -80.7135  -87.5168 N   0  0  0  0  0  0  0  0  0  0  0  0
  112.3911  -79.0316  -85.7626 C   0  0  0  0  0  0  0  0  0  0  0  0
  111.3266  -74.3443  -80.7579 N   0  0  0  0  0  0  0  0  0  0  0  0
  111.9672  -77.3664  -84.1203 O   0  0  0  0  0  0  0  0  0  0  0  0
  111.8022  -77.7853  -85.5404 C   0  0  2  0  0  0  0  0  0  0  0  0
  111.4173  -76.2320  -83.9241 C   0  0  1  0  0  0  0  0  0  0  0  0
  111.6420  -75.9065  -82.5158 C   0  0  0  0  0  0  0  0  0  0  0  0
  111.0753  -74.6474  -82.1070 C   0  0  2  0  0  0  0  0  0  0  0  0
  110.3542  -73.8100  -82.9938 C   0  0  0  0  0  0  0  0  0  0  0  0
  110.1740  -74.1866  -84.3835 C   0  0  0  0  0  0  0  0  0  0  0  0
  110.7458  -75.4372  -84.8188 C   0  0  2  0  0  0  0  0  0  0  0  0
  110.5258  -75.7445  -86.2814 C   0  0  1  0  0  0  0  0  0  0  0  0
  111.1375  -76.9964  -86.4728 C   0  0  2  0  0  0  0  0  0  0  0  0
  111.0193  -77.4714  -87.8532 C   0  0  0  0  0  0  0  0  0  0  0  0
  111.6114  -78.7470  -88.1074 C   0  0  0  0  0  0  0  0  0  0  0  0
  109.8476  -74.8970  -87.1367 C   0  0  0  0  0  0  0  0  0  0  0  0
  108.7644  -75.2648  -87.9686 C   0  0  0  0  0  0  0  0  0  0  0  0
  108.0571  -74.4190  -88.8248 C   0  0  0  0  0  0  0  0  0  0  0  0
  108.4226  -73.0130  -88.9108 C   0  0  0  0  0  0  0  0  0  0  0  0
  109.5161  -72.6801  -88.0756 C   0  0  0  0  0  0  0  0  0  0  0  0
  110.2555  -73.4941  -87.2065 C   0  0  0  0  0  0  0  0  0  0  0  0
  113.2718  -81.6863  -86.5408 C   0  0  0  0  0  0  0  0  0  0  0  0
  112.9382  -81.2146  -88.8997 C   0  0  0  0  0  0  0  0  0  0  0  0
  111.9380  -75.1392  -79.6695 C   0  0  0  0  0  0  0  0  0  0  0  0
  110.9416  -72.9706  -80.2766 C   0  0  0  0  0  0  0  0  0  0  0  0
  1  2  1  6  0  0  0
  1  3  1  0  0  0  0
  1 16  1  0  0  0  0
  2 23  1  0  0  0  0
  2 24  1  0  0  0  0
  4 25  1  0  0  0  0
  4 26  1  0  0  0  0
  5  6  1  0  0  0  0
  6  3  1  1  0  0  0
  6 14  1  0  0  0  0
  7  5  1  6  0  0  0
  7  8  1  0  0  0  0
  7 12  1  0  0  0  0
  8  9  1  0  0  0  0
  9  4  1  6  0  0  0
  9 10  1  0  0  0  0
 10 11  1  0  0  0  0
 12 11  1  1  0  0  0
 12 13  1  0  0  0  0
 13 14  1  0  0  0  0
 13 17  1  1  0  0  0
 14 15  1  1  0  0  0
 15 16  1  0  0  0  0
 17 18  1  0  0  0  0
 17 22  1  0  0  0  0
 18 19  1  0  0  0  0
 19 20  1  0  0  0  0
 20 21  1  0  0  0  0
 21 22  1  0  0  0  0
M  END
>  <CHROM.1>
11.45234340,-7.17956509,-127.67369563,111.07742469,-76.34024319,-85.43592557
-1.24825222,-1.04507436,1.06984683

>  <Name>
ligand

>  <RI>
0

>  <Rbt.Current_Directory>
/home/itssahil/PROJECTS/Mol_Feturizer/Test_systems_manuscript/rnas/1f1t

>  <Rbt.Executable>
rbdock ($Id: //depot/dev/client3/rdock/2013.1/src/exe/rbdock.cxx#4 $)

>  <Rbt.Library>
libRbt.so (2013.1, Build901 2013/11/27)

>  <Rbt.Parameter_File>
/export/apps/rDock/src/rDock_2013.1_src/data/scripts/dock_solv.prm

>  <Rbt.Receptor>
prm/pocket_docking_4.prm

>  <SCORE>
-55.9768

>  <SCORE.INTER>
-56.1218

>  <SCORE.INTER.CONST>
1

>  <SCORE.INTER.POLAR>
0

>  <SCORE.INTER.ROT>
3

>  <SCORE.INTER.SOLV>
8.87557

>  <SCORE.INTER.VDW>
-45.9731

>  <SCORE.INTER.norm>
-2.15853

>  <SCORE.INTRA>
0.144958

>  <SCORE.INTRA.DIHEDRAL>
-2.31341e-05

>  <SCORE.INTRA.DIHEDRAL.0>
3.60016

>  <SCORE.INTRA.POLAR>
0

>  <SCORE.INTRA.POLAR.0>
0

>  <SCORE.INTRA.REPUL>
0

>  <SCORE.INTRA.REPUL.0>
0

>  <SCORE.INTRA.SOLV>
5.98963e-05

>  <SCORE.INTRA.SOLV.lig_0>
-10.9882

>  <SCORE.INTRA.VDW>
0.14494

>  <SCORE.INTRA.VDW.0>
1.84442

>  <SCORE.INTRA.norm>
0.0055753

>  <SCORE.RESTR>
0

>  <SCORE.RESTR.CAVITY>
0

>  <SCORE.RESTR.norm>
0

>  <SCORE.SYSTEM>
0

>  <SCORE.SYSTEM.CONST>
0

>  <SCORE.SYSTEM.DIHEDRAL>
0

>  <SCORE.SYSTEM.SOLV>
0

>  <SCORE.SYSTEM.norm>
0

>  <SCORE.heavy>
26

>  <SCORE.norm>
-2.15296

>  <RMSD>
0.745

$$$$
ligand
 OpenBabel02271912153D
libRbt.so/2013.1/901 2013/11/27
 26 29  0  0  0  0  0  0  0  0999 V2000
  111.1668  -74.6887  -82.0301 C   0  0  1  0  0  0  0  0  0  0  0  0
  111.3451  -74.3196  -80.7045 N   0  0  0  0  0  0  0  0  0  0  0  0
  111.6879  -75.9608  -82.5081 C   0  0  0  0  0  0  0  0  0  0  0  0
  112.6916  -80.6482  -87.5253 N   0  0  0  0  0  0  0  0  0  0  0  0
  111.9846  -77.4962  -84.2982 O   0  0  0  0  0  0  0  0  0  0  0  0
  111.4300  -76.1841  -83.8620 C   0  0  2  0  0  0  0  0  0  0  0  0
  111.7536  -77.6869  -85.5384 C   0  0  1  0  0  0  0  0  0  0  0  0
  112.3222  -78.9947  -85.8640 C   0  0  0  0  0  0  0  0  0  0  0  0
  112.1611  -79.3778  -87.2427 C   0  0  2  0  0  0  0  0  0  0  0  0
  111.5187  -78.5494  -88.1959 C   0  0  0  0  0  0  0  0  0  0  0  0
  110.9669  -77.2651  -87.8063 C   0  0  0  0  0  0  0  0  0  0  0  0
  111.1039  -76.8673  -86.4267 C   0  0  2  0  0  0  0  0  0  0  0  0
  110.4887  -75.5260  -86.1035 C   0  0  1  0  0  0  0  0  0  0  0  0
  110.7566  -75.3374  -84.7357 C   0  0  2  0  0  0  0  0  0  0  0  0
  110.2335  -74.0649  -84.2336 C   0  0  0  0  0  0  0  0  0  0  0  0
  110.4865  -73.8098  -82.8504 C   0  0  0  0  0  0  0  0  0  0  0  0
  109.8369  -74.7490  -87.0423 C   0  0  0  0  0  0  0  0  0  0  0  0
  108.7911  -75.1874  -87.8876 C   0  0  0  0  0  0  0  0  0  0  0  0
  108.1104  -74.4124  -88.8283 C   0  0  0  0  0  0  0  0  0  0  0  0
  108.4659  -73.0116  -88.9990 C   0  0  0  0  0  0  0  0  0  0  0  0
  109.5222  -72.6076  -88.1475 C   0  0  0  0  0  0  0  0  0  0  0  0
  110.2342  -73.3496  -87.1950 C   0  0  0  0  0  0  0  0  0  0  0  0
  111.9833  -75.2020  -79.7317 C   0  0  0  0  0  0  0  0  0  0  0  0
  110.9479  -73.0346  -80.0905 C   0  0  0  0  0  0  0  0  0  0  0  0
  113.2384  -81.7033  -86.6432 C   0  0  0  0  0  0  0  0  0  0  0  0
  112.7201  -81.0780  -88.9680 C   0  0  0  0  0  0  0  0  0  0  0  0
  1  2  1  1  0  0  0
  1  3  1  0  0  0  0
  1 16  1  0  0  0  0
  2 23  1  0  0  0  0
  2 24  1  0  0  0  0
  4 25  1  0  0  0  0
  4 26  1  0  0  0  0
  5  6  1  0  0  0  0
  6  3  1  6  0  0  0
  6 14  1  0  0  0  0
  7  5  1  1  0  0  0
  7  8  1  0  0  0  0
  7 12  1  0  0  0  0
  8  9  1  0  0  0  0
  9  4  1  1  0  0  0
  9 10  1  0  0  0  0
 10 11  1  0  0  0  0
 12 11  1  6  0  0  0
 12 13  1  0  0  0  0
 13 14  1  0  0  0  0
 13 17  1  6  0  0  0
 14 15  1  6  0  0  0
 15 16  1  0  0  0  0
 17 18  1  0  0  0  0
 17 22  1  0  0  0  0
 18 19  1  0  0  0  0
 19 20  1  0  0  0  0
 20 21  1  0  0  0  0
 21 22  1  0  0  0  0
M  END
>  <CHROM.1>
-3.42026833,7.83538235,52.13565329,111.06665527,-76.28438434,-85.42575661
-1.84349979,1.05778105,-2.07622225

>  <Name>
ligand

>  <RI>
0

>  <Rbt.Current_Directory>
/home/itssahil/PROJECTS/Mol_Feturizer/Test_systems_manuscript/rnas/1f1t

>  <Rbt.Executable>
rbdock ($Id: //depot/dev/client3/rdock/2013.1/src/exe/rbdock.cxx#4 $)

>  <Rbt.Library>
libRbt.so (2013.1, Build901 2013/11/27)

>  <Rbt.Parameter_File>
/export/apps/rDock/src/rDock_2013.1_src/data/scripts/dock_solv.prm

>  <Rbt.Receptor>
prm/pocket_docking_4.prm

>  <SCORE>
-56.2642

>  <SCORE.INTER>
-56.4321

>  <SCORE.INTER.CONST>
1

>  <SCORE.INTER.POLAR>
0

>  <SCORE.INTER.ROT>
3

>  <SCORE.INTER.SOLV>
8.92822

>  <SCORE.INTER.VDW>
-46.1974

>  <SCORE.INTER.norm>
-2.17046

>  <SCORE.INTRA>
0.167873

>  <SCORE.INTRA.DIHEDRAL>
0.000254542

>  <SCORE.INTRA.DIHEDRAL.0>
3.60016

>  <SCORE.INTRA.POLAR>
0

>  <SCORE.INTRA.POLAR.0>
0

>  <SCORE.INTRA.REPUL>
0

>  <SCORE.INTRA.REPUL.0>
0

>  <SCORE.INTRA.SOLV>
2.48629e-05

>  <SCORE.INTRA.SOLV.lig_0>
-10.9882

>  <SCORE.INTRA.VDW>
0.167734

>  <SCORE.INTRA.VDW.0>
1.84442

>  <SCORE.INTRA.norm>
0.00645667

>  <SCORE.RESTR>
0

>  <SCORE.RESTR.CAVITY>
0

>  <SCORE.RESTR.norm>
0

>  <SCORE.SYSTEM>
0

>  <SCORE.SYSTEM.CONST>
0

>  <SCORE.SYSTEM.DIHEDRAL>
0

>  <SCORE.SYSTEM.SOLV>
0

>  <SCORE.SYSTEM.norm>
0

>  <SCORE.heavy>
26

>  <SCORE.norm>
-2.16401

>  <RMSD>
0.745

$$$$
ligand
 OpenBabel02271912153D
libRbt.so/2013.1/901 2013/11/27
 26 29  0  0  0  0  0  0  0  0999 V2000
  112.1775  -79.3930  -87.1045 C   0  0  1  0  0  0  0  0  0  0  0  0
  112.6677  -80.6287  -87.5019 N   0  0  0  0  0  0  0  0  0  0  0  0
  112.2996  -78.9735  -85.7161 C   0  0  0  0  0  0  0  0  0  0  0  0
  111.3152  -74.3651  -80.6226 N   0  0  0  0  0  0  0  0  0  0  0  0
  111.9072  -77.3313  -84.0432 O   0  0  0  0  0  0  0  0  0  0  0  0
  111.7568  -77.7097  -85.4763 C   0  0  2  0  0  0  0  0  0  0  0  0
  111.3993  -76.1802  -83.8312 C   0  0  1  0  0  0  0  0  0  0  0  0
  111.6059  -75.8973  -82.4110 C   0  0  0  0  0  0  0  0  0  0  0  0
  111.0817  -74.6259  -81.9837 C   0  0  2  0  0  0  0  0  0  0  0  0
  110.4146  -73.7393  -82.8649 C   0  0  0  0  0  0  0  0  0  0  0  0
  110.2501  -74.0755  -84.2669 C   0  0  0  0  0  0  0  0  0  0  0  0
  110.7804  -75.3379  -84.7202 C   0  0  2  0  0  0  0  0  0  0  0  0
  110.5805  -75.6017  -86.1941 C   0  0  1  0  0  0  0  0  0  0  0  0
  111.1452  -76.8727  -86.4030 C   0  0  2  0  0  0  0  0  0  0  0  0
  111.0384  -77.3100  -87.7967 C   0  0  0  0  0  0  0  0  0  0  0  0
  111.5840  -78.6025  -88.0692 C   0  0  0  0  0  0  0  0  0  0  0  0
  109.9560  -74.7074  -87.0428 C   0  0  0  0  0  0  0  0  0  0  0  0
  110.2895  -73.3402  -87.1843 C   0  0  0  0  0  0  0  0  0  0  0  0
  109.6817  -72.4275  -88.0482 C   0  0  0  0  0  0  0  0  0  0  0  0
  108.5962  -72.8676  -88.9118 C   0  0  0  0  0  0  0  0  0  0  0  0
  108.2796  -74.2364  -88.7381 C   0  0  0  0  0  0  0  0  0  0  0  0
  108.8583  -75.1847  -87.8833 C   0  0  0  0  0  0  0  0  0  0  0  0
  112.6591  -81.0549  -88.8986 C   0  0  0  0  0  0  0  0  0  0  0  0
  113.2582  -81.6618  -86.6245 C   0  0  0  0  0  0  0  0  0  0  0  0
  111.9572  -75.1745  -79.5629 C   0  0  0  0  0  0  0  0  0  0  0  0
  110.8692  -73.0292  -80.0903 C   0  0  0  0  0  0  0  0  0  0  0  0
  1  2  1  6  0  0  0
  1  3  1  0  0  0  0
  1 16  1  0  0  0  0
  2 23  1  0  0  0  0
  2 24  1  0  0  0  0
  4 25  1  0  0  0  0
  4 26  1  0  0  0  0
  5  6  1  0  0  0  0
  6  3  1  1  0  0  0
  6 14  1  0  0  0  0
  7  5  1  6  0  0  0
  7  8  1  0  0  0  0
  7 12  1  0  0  0  0
  8  9  1  0  0  0  0
  9  4  1  6  0  0  0
  9 10  1  0  0  0  0
 10 11  1  0  0  0  0
 12 11  1  1  0  0  0
 12 13  1  0  0  0  0
 13 14  1  0  0  0  0
 13 17  1  1  0  0  0
 14 15  1  1  0  0  0
 15 16  1  0  0  0  0
 17 18  1  0  0  0  0
 17 22  1  0  0  0  0
 18 19  1  0  0  0  0
 19 20  1  0  0  0  0
 20 21  1  0  0  0  0
 21 22  1  0  0  0  0
M  END
>  <CHROM.1>
-175.38531481,-2.17827007,52.08483716,111.08073965,-76.25334667,-85.36667316
-1.26959898,-1.08289828,1.09004771

>  <Name>
ligand

>  <RI>
0

>  <Rbt.Current_Directory>
/home/itssahil/PROJECTS/Mol_Feturizer/Test_systems_manuscript/rnas/1f1t

>  <Rbt.Executable>
rbdock ($Id: //depot/dev/client3/rdock/2013.1/src/exe/rbdock.cxx#4 $)

>  <Rbt.Library>
libRbt.so (2013.1, Build901 2013/11/27)

>  <Rbt.Parameter_File>
/export/apps/rDock/src/rDock_2013.1_src/data/scripts/dock_solv.prm

>  <Rbt.Receptor>
prm/pocket_docking_7.prm

>  <SCORE>
-56.2178

>  <SCORE.INTER>
-56.7275

>  <SCORE.INTER.CONST>
1

>  <SCORE.INTER.POLAR>
0

>  <SCORE.INTER.ROT>
3

>  <SCORE.INTER.SOLV>
9.0013

>  <SCORE.INTER.VDW>
-46.4188

>  <SCORE.INTER.norm>
-2.18183

>  <SCORE.INTRA>
0.50978

>  <SCORE.INTRA.DIHEDRAL>
0.00028954

>  <SCORE.INTRA.DIHEDRAL.0>
3.60016

>  <SCORE.INTRA.POLAR>
0

>  <SCORE.INTRA.POLAR.0>
0

>  <SCORE.INTRA.REPUL>
0

>  <SCORE.INTRA.REPUL.0>
0

>  <SCORE.INTRA.SOLV>
5.93262e-06

>  <SCORE.INTRA.SOLV.lig_0>
-10.9882

>  <SCORE.INTRA.VDW>
0.509632

>  <SCORE.INTRA.VDW.0>
1.84442

>  <SCORE.INTRA.norm>
0.0196069

>  <SCORE.RESTR>
0

>  <SCORE.RESTR.CAVITY>
0

>  <SCORE.RESTR.norm>
0

>  <SCORE.SYSTEM>
0

>  <SCORE.SYSTEM.CONST>
0

>  <SCORE.SYSTEM.DIHEDRAL>
0

>  <SCORE.SYSTEM.SOLV>
0

>  <SCORE.SYSTEM.norm>
0

>  <SCORE.heavy>
26

>  <SCORE.norm>
-2.16222

>  <RMSD>
0.745

$$$$
ligand
 OpenBabel02271912153D
libRbt.so/2013.1/901 2013/11/27
 26 29  0  0  0  0  0  0  0  0999 V2000
  111.1829  -74.7129  -82.0245 C   0  0  1  0  0  0  0  0  0  0  0  0
  111.3526  -74.3493  -80.6963 N   0  0  0  0  0  0  0  0  0  0  0  0
  111.6992  -75.9870  -82.5024 C   0  0  0  0  0  0  0  0  0  0  0  0
  112.7127  -80.6650  -87.5263 N   0  0  0  0  0  0  0  0  0  0  0  0
  112.0004  -77.5187  -84.2949 O   0  0  0  0  0  0  0  0  0  0  0  0
  111.4512  -76.2041  -83.8591 C   0  0  2  0  0  0  0  0  0  0  0  0
  111.7785  -77.7038  -85.5376 C   0  0  1  0  0  0  0  0  0  0  0  0
  112.3408  -79.0145  -85.8627 C   0  0  0  0  0  0  0  0  0  0  0  0
  112.1886  -79.3919  -87.2440 C   0  0  2  0  0  0  0  0  0  0  0  0
  111.5600  -78.5560  -88.1999 C   0  0  0  0  0  0  0  0  0  0  0  0
  111.0139  -77.2692  -87.8107 C   0  0  0  0  0  0  0  0  0  0  0  0
  111.1421  -76.8768  -86.4287 C   0  0  2  0  0  0  0  0  0  0  0  0
  110.5334  -75.5323  -86.1062 C   0  0  1  0  0  0  0  0  0  0  0  0
  110.7911  -75.3500  -84.7356 C   0  0  2  0  0  0  0  0  0  0  0  0
  110.2726  -74.0755  -84.2338 C   0  0  0  0  0  0  0  0  0  0  0  0
  110.5158  -73.8267  -82.8477 C   0  0  0  0  0  0  0  0  0  0  0  0
  109.8950  -74.7477  -87.0479 C   0  0  0  0  0  0  0  0  0  0  0  0
  108.8763  -75.1849  -87.9263 C   0  0  0  0  0  0  0  0  0  0  0  0
  108.2090  -74.4027  -88.8707 C   0  0  0  0  0  0  0  0  0  0  0  0
  108.5502  -72.9948  -89.0090 C   0  0  0  0  0  0  0  0  0  0  0  0
  109.5797  -72.5920  -88.1247 C   0  0  0  0  0  0  0  0  0  0  0  0
  110.2775  -73.3410  -87.1672 C   0  0  0  0  0  0  0  0  0  0  0  0
  112.0133  -75.2226  -79.7303 C   0  0  0  0  0  0  0  0  0  0  0  0
  110.9236  -73.0793  -80.0726 C   0  0  0  0  0  0  0  0  0  0  0  0
  113.2619  -81.7193  -86.6447 C   0  0  0  0  0  0  0  0  0  0  0  0
  112.7295  -81.0995  -88.9678 C   0  0  0  0  0  0  0  0  0  0  0  0
  1  2  1  1  0  0  0
  1  3  1  0  0  0  0
  1 16  1  0  0  0  0
  2 23  1  0  0  0  0
  2 24  1  0  0  0  0
  4 25  1  0  0  0  0
  4 26  1  0  0  0  0
  5  6  1  0  0  0  0
  6  3  1  6  0  0  0
  6 14  1  0  0  0  0
  7  5  1  1  0  0  0
  7  8  1  0  0  0  0
  7 12  1  0  0  0  0
  8  9  1  0  0  0  0
  9  4  1  1  0  0  0
  9 10  1  0  0  0  0
 10 11  1  0  0  0  0
 12 11  1  6  0  0  0
 12 13  1  0  0  0  0
 13 14  1  0  0  0  0
 13 17  1  6  0  0  0
 14 15  1  6  0  0  0
 15 16  1  0  0  0  0
 17 18  1  0  0  0  0
 17 22  1  0  0  0  0
 18 19  1  0  0  0  0
 19 20  1  0  0  0  0
 20 21  1  0  0  0  0
 21 22  1  0  0  0  0
M  END
>  <CHROM.1>
-1.49932958,6.85852845,50.46221641,111.10003494,-76.29689299,-85.42599388
-1.85126106,1.06693183,-2.06648778

>  <Name>
ligand

>  <RI>
0

>  <Rbt.Current_Directory>
/home/itssahil/PROJECTS/Mol_Feturizer/Test_systems_manuscript/rnas/1f1t

>  <Rbt.Executable>
rbdock ($Id: //depot/dev/client3/rdock/2013.1/src/exe/rbdock.cxx#4 $)

>  <Rbt.Library>
libRbt.so (2013.1, Build901 2013/11/27)

>  <Rbt.Parameter_File>
/export/apps/rDock/src/rDock_2013.1_src/data/scripts/dock_solv.prm

>  <Rbt.Receptor>
prm/pocket_docking_3.prm

>  <SCORE>
-56.349

>  <SCORE.INTER>
-56.5845

>  <SCORE.INTER.CONST>
1

>  <SCORE.INTER.POLAR>
0

>  <SCORE.INTER.ROT>
3

>  <SCORE.INTER.SOLV>
8.98773

>  <SCORE.INTER.VDW>
-46.3189

>  <SCORE.INTER.norm>
-2.17633

>  <SCORE.INTRA>
0.235508

>  <SCORE.INTRA.DIHEDRAL>
0.000253948

>  <SCORE.INTRA.DIHEDRAL.0>
3.60016

>  <SCORE.INTRA.POLAR>
0

>  <SCORE.INTRA.POLAR.0>
0

>  <SCORE.INTRA.REPUL>
0

>  <SCORE.INTRA.REPUL.0>
0

>  <SCORE.INTRA.SOLV>
1.60255e-05

>  <SCORE.INTRA.SOLV.lig_0>
-10.9882

>  <SCORE.INTRA.VDW>
0.235373

>  <SCORE.INTRA.VDW.0>
1.84442

>  <SCORE.INTRA.norm>
0.00905802

>  <SCORE.RESTR>
0

>  <SCORE.RESTR.CAVITY>
0

>  <SCORE.RESTR.norm>
0

>  <SCORE.SYSTEM>
0

>  <SCORE.SYSTEM.CONST>
0

>  <SCORE.SYSTEM.DIHEDRAL>
0

>  <SCORE.SYSTEM.SOLV>
0

>  <SCORE.SYSTEM.norm>
0

>  <SCORE.heavy>
26

>  <SCORE.norm>
-2.16727

>  <RMSD>
0.746

$$$$
ligand
 OpenBabel02271912153D
libRbt.so/2013.1/901 2013/11/27
 26 29  0  0  0  0  0  0  0  0999 V2000
  111.2479  -74.6008  -81.9009 C   0  0  1  0  0  0  0  0  0  0  0  0
  111.4257  -74.2562  -80.5687 N   0  0  0  0  0  0  0  0  0  0  0  0
  111.7454  -75.8758  -82.3960 C   0  0  0  0  0  0  0  0  0  0  0  0
  112.6822  -80.5042  -87.4804 N   0  0  0  0  0  0  0  0  0  0  0  0
  112.0212  -77.3889  -84.2082 O   0  0  0  0  0  0  0  0  0  0  0  0
  111.4912  -76.0725  -83.7547 C   0  0  2  0  0  0  0  0  0  0  0  0
  111.7938  -77.5554  -85.4526 C   0  0  1  0  0  0  0  0  0  0  0  0
  112.3371  -78.8696  -85.7954 C   0  0  0  0  0  0  0  0  0  0  0  0
  112.1765  -79.2275  -87.1809 C   0  0  2  0  0  0  0  0  0  0  0  0
  111.5573  -78.3711  -88.1247 C   0  0  0  0  0  0  0  0  0  0  0  0
  111.0300  -77.0818  -87.7181 C   0  0  0  0  0  0  0  0  0  0  0  0
  111.1668  -76.7086  -86.3317 C   0  0  2  0  0  0  0  0  0  0  0  0
  110.5776  -75.3600  -85.9909 C   0  0  1  0  0  0  0  0  0  0  0  0
  110.8410  -75.1984  -84.6188 C   0  0  2  0  0  0  0  0  0  0  0  0
  110.3414  -73.9232  -84.0998 C   0  0  0  0  0  0  0  0  0  0  0  0
  110.5912  -73.6952  -82.7113 C   0  0  0  0  0  0  0  0  0  0  0  0
  109.9479  -74.5549  -86.9211 C   0  0  0  0  0  0  0  0  0  0  0  0
  110.2823  -73.2098  -87.2029 C   0  0  0  0  0  0  0  0  0  0  0  0
  109.6692  -72.3880  -88.1503 C   0  0  0  0  0  0  0  0  0  0  0  0
  108.5766  -72.9110  -88.9568 C   0  0  0  0  0  0  0  0  0  0  0  0
  108.2594  -74.2544  -88.6429 C   0  0  0  0  0  0  0  0  0  0  0  0
  108.8432  -75.1125  -87.7008 C   0  0  0  0  0  0  0  0  0  0  0  0
  112.0437  -75.1651  -79.6072 C   0  0  0  0  0  0  0  0  0  0  0  0
  111.0475  -72.9747  -79.9359 C   0  0  0  0  0  0  0  0  0  0  0  0
  113.2736  -81.5535  -86.6205 C   0  0  0  0  0  0  0  0  0  0  0  0
  112.6236  -80.9491  -88.9176 C   0  0  0  0  0  0  0  0  0  0  0  0
  1  2  1  1  0  0  0
  1  3  1  0  0  0  0
  1 16  1  0  0  0  0
  2 23  1  0  0  0  0
  2 24  1  0  0  0  0
  4 25  1  0  0  0  0
  4 26  1  0  0  0  0
  5  6  1  0  0  0  0
  6  3  1  6  0  0  0
  6 14  1  0  0  0  0
  7  5  1  1  0  0  0
  7  8  1  0  0  0  0
  7 12  1  0  0  0  0
  8  9  1  0  0  0  0
  9  4  1  1  0  0  0
  9 10  1  0  0  0  0
 10 11  1  0  0  0  0
 12 11  1  6  0  0  0
 12 13  1  0  0  0  0
 13 14  1  0  0  0  0
 13 17  1  6  0  0  0
 14 15  1  6  0  0  0
 15 16  1  0  0  0  0
 17 18  1  0  0  0  0
 17 22  1  0  0  0  0
 18 19  1  0  0  0  0
 19 20  1  0  0  0  0
 20 21  1  0  0  0  0
 21 22  1  0  0  0  0
M  END
>  <CHROM.1>
-3.20224804,3.75440478,-125.37644697,111.12788459,-76.15737117,-85.33114601
-1.81372922,1.07356773,-2.07363029

>  <Name>
ligand

>  <RI>
0

>  <Rbt.Current_Directory>
/home/itssahil/PROJECTS/Mol_Feturizer/Test_systems_manuscript/rnas/1f1t

>  <Rbt.Executable>
rbdock ($Id: //depot/dev/client3/rdock/2013.1/src/exe/rbdock.cxx#4 $)

>  <Rbt.Library>
libRbt.so (2013.1, Build901 2013/11/27)

>  <Rbt.Parameter_File>
/export/apps/rDock/src/rDock_2013.1_src/data/scripts/dock_solv.prm

>  <Rbt.Receptor>
prm/pocket_docking_5.prm

>  <SCORE>
-56.4238

>  <SCORE.INTER>
-56.6443

>  <SCORE.INTER.CONST>
1

>  <SCORE.INTER.POLAR>
0

>  <SCORE.INTER.ROT>
3

>  <SCORE.INTER.SOLV>
9.2422

>  <SCORE.INTER.VDW>
-46.4436

>  <SCORE.INTER.norm>
-2.17863

>  <SCORE.INTRA>
0.22046

>  <SCORE.INTRA.DIHEDRAL>
-1.42507e-05

>  <SCORE.INTRA.DIHEDRAL.0>
3.60016

>  <SCORE.INTRA.POLAR>
0

>  <SCORE.INTRA.POLAR.0>
0

>  <SCORE.INTRA.REPUL>
0

>  <SCORE.INTRA.REPUL.0>
0

>  <SCORE.INTRA.SOLV>
1.02383e-05

>  <SCORE.INTRA.SOLV.lig_0>
-10.9882

>  <SCORE.INTRA.VDW>
0.220462

>  <SCORE.INTRA.VDW.0>
1.84442

>  <SCORE.INTRA.norm>
0.00847922

>  <SCORE.RESTR>
0

>  <SCORE.RESTR.CAVITY>
0

>  <SCORE.RESTR.norm>
0

>  <SCORE.SYSTEM>
0

>  <SCORE.SYSTEM.CONST>
0

>  <SCORE.SYSTEM.DIHEDRAL>
0

>  <SCORE.SYSTEM.SOLV>
0

>  <SCORE.SYSTEM.norm>
0

>  <SCORE.heavy>
26

>  <SCORE.norm>
-2.17015

>  <RMSD>
0.746

$$$$
ligand
 OpenBabel02271912153D
libRbt.so/2013.1/901 2013/11/27
 26 29  0  0  0  0  0  0  0  0999 V2000
  111.2021  -74.7326  -82.0164 C   0  0  1  0  0  0  0  0  0  0  0  0
  111.3773  -74.3767  -80.6869 N   0  0  0  0  0  0  0  0  0  0  0  0
  111.7167  -76.0039  -82.5039 C   0  0  0  0  0  0  0  0  0  0  0  0
  112.7101  -80.6524  -87.5590 N   0  0  0  0  0  0  0  0  0  0  0  0
  112.0107  -77.5250  -84.3065 O   0  0  0  0  0  0  0  0  0  0  0  0
  111.4630  -76.2131  -83.8608 C   0  0  2  0  0  0  0  0  0  0  0  0
  111.7836  -77.7030  -85.5493 C   0  0  1  0  0  0  0  0  0  0  0  0
  112.3448  -79.0116  -85.8843 C   0  0  0  0  0  0  0  0  0  0  0  0
  112.1869  -79.3811  -87.2671 C   0  0  2  0  0  0  0  0  0  0  0  0
  111.5541  -78.5398  -88.2155 C   0  0  0  0  0  0  0  0  0  0  0  0
  111.0093  -77.2554  -87.8166 C   0  0  0  0  0  0  0  0  0  0  0  0
  111.1432  -76.8710  -86.4329 C   0  0  2  0  0  0  0  0  0  0  0  0
  110.5356  -75.5286  -86.1001 C   0  0  1  0  0  0  0  0  0  0  0  0
  110.7990  -75.3541  -84.7295 C   0  0  2  0  0  0  0  0  0  0  0  0
  110.2824  -74.0827  -84.2181 C   0  0  0  0  0  0  0  0  0  0  0  0
  110.5313  -73.8418  -82.8316 C   0  0  0  0  0  0  0  0  0  0  0  0
  109.8931  -74.7387  -87.0345 C   0  0  0  0  0  0  0  0  0  0  0  0
  108.8807  -75.1745  -87.9209 C   0  0  0  0  0  0  0  0  0  0  0  0
  108.2093  -74.3872  -88.8581 C   0  0  0  0  0  0  0  0  0  0  0  0
  108.5386  -72.9749  -88.9792 C   0  0  0  0  0  0  0  0  0  0  0  0
  109.5620  -72.5735  -88.0872 C   0  0  0  0  0  0  0  0  0  0  0  0
  110.2637  -73.3274  -87.1365 C   0  0  0  0  0  0  0  0  0  0  0  0
  110.8765  -73.1153  -80.1480 C   0  0  0  0  0  0  0  0  0  0  0  0
  112.0564  -75.1780  -79.6463 C   0  0  0  0  0  0  0  0  0  0  0  0
  113.2476  -81.7184  -86.6843 C   0  0  0  0  0  0  0  0  0  0  0  0
  112.7398  -81.0702  -89.0052 C   0  0  0  0  0  0  0  0  0  0  0  0
  1  2  1  1  0  0  0
  1  3  1  0  0  0  0
  1 16  1  0  0  0  0
  2 23  1  0  0  0  0
  2 24  1  0  0  0  0
  4 25  1  0  0  0  0
  4 26  1  0  0  0  0
  5  6  1  0  0  0  0
  6  3  1  6  0  0  0
  6 14  1  0  0  0  0
  7  5  1  1  0  0  0
  7  8  1  0  0  0  0
  7 12  1  0  0  0  0
  8  9  1  0  0  0  0
  9  4  1  1  0  0  0
  9 10  1  0  0  0  0
 10 11  1  0  0  0  0
 12 11  1  6  0  0  0
 12 13  1  0  0  0  0
 13 14  1  0  0  0  0
 13 17  1  6  0  0  0
 14 15  1  6  0  0  0
 15 16  1  0  0  0  0
 17 18  1  0  0  0  0
 17 22  1  0  0  0  0
 18 19  1  0  0  0  0
 19 20  1  0  0  0  0
 20 21  1  0  0  0  0
 21 22  1  0  0  0  0
M  END
>  <CHROM.1>
-179.80421689,7.74349233,49.75045085,111.10259702,-76.29358395,-85.42714636
-1.84762754,1.06440607,-2.06559565

>  <Name>
ligand

>  <RI>
0

>  <Rbt.Current_Directory>
/home/itssahil/PROJECTS/Mol_Feturizer/Test_systems_manuscript/rnas/1f1t

>  <Rbt.Executable>
rbdock ($Id: //depot/dev/client3/rdock/2013.1/src/exe/rbdock.cxx#4 $)

>  <Rbt.Library>
libRbt.so (2013.1, Build901 2013/11/27)

>  <Rbt.Parameter_File>
/export/apps/rDock/src/rDock_2013.1_src/data/scripts/dock_solv.prm

>  <Rbt.Receptor>
prm/pocket_docking_2.prm

>  <SCORE>
-55.9354

>  <SCORE.INTER>
-56.4885

>  <SCORE.INTER.CONST>
1

>  <SCORE.INTER.POLAR>
0

>  <SCORE.INTER.ROT>
3

>  <SCORE.INTER.SOLV>
8.96149

>  <SCORE.INTER.VDW>
-46.2462

>  <SCORE.INTER.norm>
-2.17263

>  <SCORE.INTRA>
0.553076

>  <SCORE.INTRA.DIHEDRAL>
0.000259544

>  <SCORE.INTRA.DIHEDRAL.0>
3.60016

>  <SCORE.INTRA.POLAR>
0

>  <SCORE.INTRA.POLAR.0>
0

>  <SCORE.INTRA.REPUL>
0

>  <SCORE.INTRA.REPUL.0>
0

>  <SCORE.INTRA.SOLV>
1.79665e-05

>  <SCORE.INTRA.SOLV.lig_0>
-10.9882

>  <SCORE.INTRA.VDW>
0.552937

>  <SCORE.INTRA.VDW.0>
1.84442

>  <SCORE.INTRA.norm>
0.0212722

>  <SCORE.RESTR>
0

>  <SCORE.RESTR.CAVITY>
0

>  <SCORE.RESTR.norm>
0

>  <SCORE.SYSTEM>
0

>  <SCORE.SYSTEM.CONST>
0

>  <SCORE.SYSTEM.DIHEDRAL>
0

>  <SCORE.SYSTEM.SOLV>
0

>  <SCORE.SYSTEM.norm>
0

>  <SCORE.heavy>
26

>  <SCORE.norm>
-2.15136

>  <RMSD>
0.747

$$$$
ligand
 OpenBabel02271912153D
libRbt.so/2013.1/901 2013/11/27
 26 29  0  0  0  0  0  0  0  0999 V2000
  111.2020  -74.6808  -82.0227 C   0  0  1  0  0  0  0  0  0  0  0  0
  111.3817  -74.3121  -80.6972 N   0  0  0  0  0  0  0  0  0  0  0  0
  111.7202  -75.9540  -82.5010 C   0  0  0  0  0  0  0  0  0  0  0  0
  112.7117  -80.6434  -87.5187 N   0  0  0  0  0  0  0  0  0  0  0  0
  112.0129  -77.4900  -84.2912 O   0  0  0  0  0  0  0  0  0  0  0  0
  111.4613  -76.1767  -83.8548 C   0  0  2  0  0  0  0  0  0  0  0  0
  111.7810  -77.6802  -85.5313 C   0  0  1  0  0  0  0  0  0  0  0  0
  112.3466  -78.9892  -85.8572 C   0  0  0  0  0  0  0  0  0  0  0  0
  112.1841  -79.3719  -87.2359 C   0  0  2  0  0  0  0  0  0  0  0  0
  111.5432  -78.5421  -88.1888 C   0  0  0  0  0  0  0  0  0  0  0  0
  110.9943  -77.2566  -87.7990 C   0  0  0  0  0  0  0  0  0  0  0  0
  111.1328  -76.8591  -86.4194 C   0  0  2  0  0  0  0  0  0  0  0  0
  110.5206  -75.5165  -86.0959 C   0  0  1  0  0  0  0  0  0  0  0  0
  110.7894  -75.3285  -84.7282 C   0  0  2  0  0  0  0  0  0  0  0  0
  110.2693  -74.0549  -84.2259 C   0  0  0  0  0  0  0  0  0  0  0  0
  110.5235  -73.8004  -82.8428 C   0  0  0  0  0  0  0  0  0  0  0  0
  109.8702  -74.7380  -87.0344 C   0  0  0  0  0  0  0  0  0  0  0  0
  108.8428  -75.1816  -87.8993 C   0  0  0  0  0  0  0  0  0  0  0  0
  108.1634  -74.4056  -88.8401 C   0  0  0  0  0  0  0  0  0  0  0  0
  108.5002  -72.9978  -88.9894 C   0  0  0  0  0  0  0  0  0  0  0  0
  109.5385  -72.5884  -88.1186 C   0  0  0  0  0  0  0  0  0  0  0  0
  110.2485  -73.3311  -87.1651 C   0  0  0  0  0  0  0  0  0  0  0  0
  110.9649  -73.0076  -80.1906 C   0  0  0  0  0  0  0  0  0  0  0  0
  111.9848  -75.1393  -79.6305 C   0  0  0  0  0  0  0  0  0  0  0  0
  113.2666  -81.6953  -86.6378 C   0  0  0  0  0  0  0  0  0  0  0  0
  112.7265  -81.0786  -88.9600 C   0  0  0  0  0  0  0  0  0  0  0  0
  1  2  1  1  0  0  0
  1  3  1  0  0  0  0
  1 16  1  0  0  0  0
  2 23  1  0  0  0  0
  2 24  1  0  0  0  0
  4 25  1  0  0  0  0
  4 26  1  0  0  0  0
  5  6  1  0  0  0  0
  6  3  1  6  0  0  0
  6 14  1  0  0  0  0
  7  5  1  1  0  0  0
  7  8  1  0  0  0  0
  7 12  1  0  0  0  0
  8  9  1  0  0  0  0
  9  4  1  1  0  0  0
  9 10  1  0  0  0  0
 10 11  1  0  0  0  0
 12 11  1  6  0  0  0
 12 13  1  0  0  0  0
 13 14  1  0  0  0  0
 13 17  1  6  0  0  0
 14 15  1  6  0  0  0
 15 16  1  0  0  0  0
 17 18  1  0  0  0  0
 17 22  1  0  0  0  0
 18 19  1  0  0  0  0
 19 20  1  0  0  0  0
 20 21  1  0  0  0  0
 21 22  1  0  0  0  0
M  END
>  <CHROM.1>
175.60955924,7.26176057,50.69263657,111.09431904,-76.27277164,-85.41885834
-1.84328271,1.05980944,-2.07836513

>  <Name>
ligand

>  <RI>
0

>  <Rbt.Current_Directory>
/home/itssahil/PROJECTS/Mol_Feturizer/Test_systems_manuscript/rnas/1f1t

>  <Rbt.Executable>
rbdock ($Id: //depot/dev/client3/rdock/2013.1/src/exe/rbdock.cxx#4 $)

>  <Rbt.Library>
libRbt.so (2013.1, Build901 2013/11/27)

>  <Rbt.Parameter_File>
/export/apps/rDock/src/rDock_2013.1_src/data/scripts/dock_solv.prm

>  <Rbt.Receptor>
prm/pocket_docking_3.prm

>  <SCORE>
-55.9349

>  <SCORE.INTER>
-56.443

>  <SCORE.INTER.CONST>
1

>  <SCORE.INTER.POLAR>
0

>  <SCORE.INTER.ROT>
3

>  <SCORE.INTER.SOLV>
8.96411

>  <SCORE.INTER.VDW>
-46.2167

>  <SCORE.INTER.norm>
-2.17089

>  <SCORE.INTRA>
0.508121

>  <SCORE.INTRA.DIHEDRAL>
0.000266034

>  <SCORE.INTRA.DIHEDRAL.0>
3.60016

>  <SCORE.INTRA.POLAR>
0

>  <SCORE.INTRA.POLAR.0>
0

>  <SCORE.INTRA.REPUL>
0

>  <SCORE.INTRA.REPUL.0>
0

>  <SCORE.INTRA.SOLV>
2.58645e-05

>  <SCORE.INTRA.SOLV.lig_0>
-10.9882

>  <SCORE.INTRA.VDW>
0.507975

>  <SCORE.INTRA.VDW.0>
1.84442

>  <SCORE.INTRA.norm>
0.0195431

>  <SCORE.RESTR>
0

>  <SCORE.RESTR.CAVITY>
0

>  <SCORE.RESTR.norm>
0

>  <SCORE.SYSTEM>
0

>  <SCORE.SYSTEM.CONST>
0

>  <SCORE.SYSTEM.DIHEDRAL>
0

>  <SCORE.SYSTEM.SOLV>
0

>  <SCORE.SYSTEM.norm>
0

>  <SCORE.heavy>
26

>  <SCORE.norm>
-2.15134

>  <RMSD>
0.747

$$$$
ligand
 OpenBabel02271912153D
libRbt.so/2013.1/901 2013/11/27
 26 29  0  0  0  0  0  0  0  0999 V2000
  112.2080  -79.4070  -87.1291 C   0  0  1  0  0  0  0  0  0  0  0  0
  112.7002  -80.6417  -87.5270 N   0  0  0  0  0  0  0  0  0  0  0  0
  112.3266  -78.9890  -85.7400 C   0  0  0  0  0  0  0  0  0  0  0  0
  111.3266  -74.3878  -80.6430 N   0  0  0  0  0  0  0  0  0  0  0  0
  111.9290  -77.3492  -84.0659 O   0  0  0  0  0  0  0  0  0  0  0  0
  111.7821  -77.7261  -85.4997 C   0  0  2  0  0  0  0  0  0  0  0  0
  111.4195  -76.1989  -83.8536 C   0  0  1  0  0  0  0  0  0  0  0  0
  111.6227  -75.9175  -82.4326 C   0  0  0  0  0  0  0  0  0  0  0  0
  111.0963  -74.6472  -82.0049 C   0  0  2  0  0  0  0  0  0  0  0  0
  110.4303  -73.7601  -82.8864 C   0  0  0  0  0  0  0  0  0  0  0  0
  110.2692  -74.0948  -84.2892 C   0  0  0  0  0  0  0  0  0  0  0  0
  110.8017  -75.3561  -84.7429 C   0  0  2  0  0  0  0  0  0  0  0  0
  110.6052  -75.6183  -86.2176 C   0  0  1  0  0  0  0  0  0  0  0  0
  111.1717  -76.8885  -86.4268 C   0  0  2  0  0  0  0  0  0  0  0  0
  111.0683  -77.3242  -87.8213 C   0  0  0  0  0  0  0  0  0  0  0  0
  111.6157  -78.6158  -88.0942 C   0  0  0  0  0  0  0  0  0  0  0  0
  109.9817  -74.7235  -87.0665 C   0  0  0  0  0  0  0  0  0  0  0  0
  110.3419  -73.3664  -87.2371 C   0  0  0  0  0  0  0  0  0  0  0  0
  109.7351  -72.4539  -88.1019 C   0  0  0  0  0  0  0  0  0  0  0  0
  108.6213  -72.8831  -88.9344 C   0  0  0  0  0  0  0  0  0  0  0  0
  108.2787  -74.2417  -88.7319 C   0  0  0  0  0  0  0  0  0  0  0  0
  108.8554  -75.1893  -87.8750 C   0  0  0  0  0  0  0  0  0  0  0  0
  113.2513  -81.6017  -86.5746 C   0  0  0  0  0  0  0  0  0  0  0  0
  112.7379  -81.1673  -88.9083 C   0  0  0  0  0  0  0  0  0  0  0  0
  111.9623  -75.2001  -79.5816 C   0  0  0  0  0  0  0  0  0  0  0  0
  110.8840  -73.0504  -80.1115 C   0  0  0  0  0  0  0  0  0  0  0  0
  1  2  1  6  0  0  0
  1  3  1  0  0  0  0
  1 16  1  0  0  0  0
  2 23  1  0  0  0  0
  2 24  1  0  0  0  0
  4 25  1  0  0  0  0
  4 26  1  0  0  0  0
  5  6  1  0  0  0  0
  6  3  1  1  0  0  0
  6 14  1  0  0  0  0
  7  5  1  6  0  0  0
  7  8  1  0  0  0  0
  7 12  1  0  0  0  0
  8  9  1  0  0  0  0
  9  4  1  6  0  0  0
  9 10  1  0  0  0  0
 10 11  1  0  0  0  0
 12 11  1  1  0  0  0
 12 13  1  0  0  0  0
 13 14  1  0  0  0  0
 13 17  1  1  0  0  0
 14 15  1  1  0  0  0
 15 16  1  0  0  0  0
 17 18  1  0  0  0  0
 17 22  1  0  0  0  0
 18 19  1  0  0  0  0
 19 20  1  0  0  0  0
 20 21  1  0  0  0  0
 21 22  1  0  0  0  0
M  END
>  <CHROM.1>
4.87141627,-2.45985748,54.23448454,111.10427080,-76.27169796,-85.38553295
-1.26267726,-1.08350492,1.09510027

>  <Name>
ligand

>  <RI>
0

>  <Rbt.Current_Directory>
/home/itssahil/PROJECTS/Mol_Feturizer/Test_systems_manuscript/rnas/1f1t

>  <Rbt.Executable>
rbdock ($Id: //depot/dev/client3/rdock/2013.1/src/exe/rbdock.cxx#4 $)

>  <Rbt.Library>
libRbt.so (2013.1, Build901 2013/11/27)

>  <Rbt.Parameter_File>
/export/apps/rDock/src/rDock_2013.1_src/data/scripts/dock_solv.prm

>  <Rbt.Receptor>
prm/pocket_docking_3.prm

>  <SCORE>
-56.4522

>  <SCORE.INTER>
-56.6064

>  <SCORE.INTER.CONST>
1

>  <SCORE.INTER.POLAR>
0

>  <SCORE.INTER.ROT>
3

>  <SCORE.INTER.SOLV>
9.03365

>  <SCORE.INTER.VDW>
-46.3488

>  <SCORE.INTER.norm>
-2.17717

>  <SCORE.INTRA>
0.154169

>  <SCORE.INTRA.DIHEDRAL>
0.000282065

>  <SCORE.INTRA.DIHEDRAL.0>
3.60016

>  <SCORE.INTRA.POLAR>
0

>  <SCORE.INTRA.POLAR.0>
0

>  <SCORE.INTRA.REPUL>
0

>  <SCORE.INTRA.REPUL.0>
0

>  <SCORE.INTRA.SOLV>
7.0264e-06

>  <SCORE.INTRA.SOLV.lig_0>
-10.9882

>  <SCORE.INTRA.VDW>
0.154024

>  <SCORE.INTRA.VDW.0>
1.84442

>  <SCORE.INTRA.norm>
0.00592956

>  <SCORE.RESTR>
0

>  <SCORE.RESTR.CAVITY>
0

>  <SCORE.RESTR.norm>
0

>  <SCORE.SYSTEM>
0

>  <SCORE.SYSTEM.CONST>
0

>  <SCORE.SYSTEM.DIHEDRAL>
0

>  <SCORE.SYSTEM.SOLV>
0

>  <SCORE.SYSTEM.norm>
0

>  <SCORE.heavy>
26

>  <SCORE.norm>
-2.17124

>  <RMSD>
0.747

$$$$
ligand
 OpenBabel02271912153D
libRbt.so/2013.1/901 2013/11/27
 26 29  0  0  0  0  0  0  0  0999 V2000
  111.1600  -74.6940  -82.0345 C   0  0  1  0  0  0  0  0  0  0  0  0
  111.3338  -74.3256  -80.7081 N   0  0  0  0  0  0  0  0  0  0  0  0
  111.6831  -75.9657  -82.5115 C   0  0  0  0  0  0  0  0  0  0  0  0
  112.7048  -80.6503  -87.5276 N   0  0  0  0  0  0  0  0  0  0  0  0
  111.9862  -77.5001  -84.3013 O   0  0  0  0  0  0  0  0  0  0  0  0
  111.4297  -76.1884  -83.8663 C   0  0  2  0  0  0  0  0  0  0  0  0
  111.7594  -77.6903  -85.5424 C   0  0  1  0  0  0  0  0  0  0  0  0
  112.3294  -78.9978  -85.8667 C   0  0  0  0  0  0  0  0  0  0  0  0
  112.1730  -79.3802  -87.2462 C   0  0  2  0  0  0  0  0  0  0  0  0
  111.5336  -78.5515  -88.2011 C   0  0  0  0  0  0  0  0  0  0  0  0
  110.9802  -77.2675  -87.8127 C   0  0  0  0  0  0  0  0  0  0  0  0
  111.1125  -76.8704  -86.4325 C   0  0  2  0  0  0  0  0  0  0  0  0
  110.4958  -75.5294  -86.1106 C   0  0  1  0  0  0  0  0  0  0  0  0
  110.7591  -75.3415  -84.7418 C   0  0  2  0  0  0  0  0  0  0  0  0
  110.2340  -74.0693  -84.2409 C   0  0  0  0  0  0  0  0  0  0  0  0
  110.4824  -73.8149  -82.8567 C   0  0  0  0  0  0  0  0  0  0  0  0
  109.8471  -74.7520  -87.0512 C   0  0  0  0  0  0  0  0  0  0  0  0
  108.7977  -75.1876  -87.8935 C   0  0  0  0  0  0  0  0  0  0  0  0
  108.1199  -74.4121  -88.8360 C   0  0  0  0  0  0  0  0  0  0  0  0
  108.4829  -73.0139  -89.0120 C   0  0  0  0  0  0  0  0  0  0  0  0
  109.5425  -72.6128  -88.1634 C   0  0  0  0  0  0  0  0  0  0  0  0
  110.2518  -73.3554  -87.2093 C   0  0  0  0  0  0  0  0  0  0  0  0
  111.9906  -75.1985  -79.7392 C   0  0  0  0  0  0  0  0  0  0  0  0
  110.9133  -73.0503  -80.0896 C   0  0  0  0  0  0  0  0  0  0  0  0
  113.2596  -81.7009  -86.6453 C   0  0  0  0  0  0  0  0  0  0  0  0
  112.7251  -81.0852  -88.9690 C   0  0  0  0  0  0  0  0  0  0  0  0
  1  2  1  1  0  0  0
  1  3  1  0  0  0  0
  1 16  1  0  0  0  0
  2 23  1  0  0  0  0
  2 24  1  0  0  0  0
  4 25  1  0  0  0  0
  4 26  1  0  0  0  0
  5  6  1  0  0  0  0
  6  3  1  6  0  0  0
  6 14  1  0  0  0  0
  7  5  1  1  0  0  0
  7  8  1  0  0  0  0
  7 12  1  0  0  0  0
  8  9  1  0  0  0  0
  9  4  1  1  0  0  0
  9 10  1  0  0  0  0
 10 11  1  0  0  0  0
 12 11  1  6  0  0  0
 12 13  1  0  0  0  0
 13 14  1  0  0  0  0
 13 17  1  6  0  0  0
 14 15  1  6  0  0  0
 15 16  1  0  0  0  0
 17 18  1  0  0  0  0
 17 22  1  0  0  0  0
 18 19  1  0  0  0  0
 19 20  1  0  0  0  0
 20 21  1  0  0  0  0
 21 22  1  0  0  0  0
M  END
>  <CHROM.1>
-2.28918129,7.22023830,52.61811296,111.07172191,-76.28799948,-85.43137222
-1.84946573,1.05870596,-2.07049497

>  <Name>
ligand

>  <RI>
0

>  <Rbt.Current_Directory>
/home/itssahil/PROJECTS/Mol_Feturizer/Test_systems_manuscript/rnas/1f1t

>  <Rbt.Executable>
rbdock ($Id: //depot/dev/client3/rdock/2013.1/src/exe/rbdock.cxx#4 $)

>  <Rbt.Library>
libRbt.so (2013.1, Build901 2013/11/27)

>  <Rbt.Parameter_File>
/export/apps/rDock/src/rDock_2013.1_src/data/scripts/dock_solv.prm

>  <Rbt.Receptor>
prm/pocket_docking_4.prm

>  <SCORE>
-56.2516

>  <SCORE.INTER>
-56.4221

>  <SCORE.INTER.CONST>
1

>  <SCORE.INTER.POLAR>
0

>  <SCORE.INTER.ROT>
3

>  <SCORE.INTER.SOLV>
8.95504

>  <SCORE.INTER.VDW>
-46.1998

>  <SCORE.INTER.norm>
-2.17008

>  <SCORE.INTRA>
0.170503

>  <SCORE.INTRA.DIHEDRAL>
0.0002597

>  <SCORE.INTRA.DIHEDRAL.0>
3.60016

>  <SCORE.INTRA.POLAR>
0

>  <SCORE.INTRA.POLAR.0>
0

>  <SCORE.INTRA.REPUL>
0

>  <SCORE.INTRA.REPUL.0>
0

>  <SCORE.INTRA.SOLV>
1.90417e-05

>  <SCORE.INTRA.SOLV.lig_0>
-10.9882

>  <SCORE.INTRA.VDW>
0.170363

>  <SCORE.INTRA.VDW.0>
1.84442

>  <SCORE.INTRA.norm>
0.00655779

>  <SCORE.RESTR>
0

>  <SCORE.RESTR.CAVITY>
0

>  <SCORE.RESTR.norm>
0

>  <SCORE.SYSTEM>
0

>  <SCORE.SYSTEM.CONST>
0

>  <SCORE.SYSTEM.DIHEDRAL>
0

>  <SCORE.SYSTEM.SOLV>
0

>  <SCORE.SYSTEM.norm>
0

>  <SCORE.heavy>
26

>  <SCORE.norm>
-2.16352

>  <RMSD>
0.747

$$$$
ligand
 OpenBabel02271912153D
libRbt.so/2013.1/901 2013/11/27
 26 29  0  0  0  0  0  0  0  0999 V2000
  111.2454  -74.6154  -81.8863 C   0  0  1  0  0  0  0  0  0  0  0  0
  111.4220  -74.2771  -80.5523 N   0  0  0  0  0  0  0  0  0  0  0  0
  111.7382  -75.8907  -82.3855 C   0  0  0  0  0  0  0  0  0  0  0  0
  112.6645  -80.5024  -87.4869 N   0  0  0  0  0  0  0  0  0  0  0  0
  112.0108  -77.3976  -84.2033 O   0  0  0  0  0  0  0  0  0  0  0  0
  111.4858  -76.0806  -83.7455 C   0  0  2  0  0  0  0  0  0  0  0  0
  111.7852  -77.5580  -85.4488 C   0  0  1  0  0  0  0  0  0  0  0  0
  112.3233  -78.8731  -85.7959 C   0  0  0  0  0  0  0  0  0  0  0  0
  112.1639  -79.2248  -87.1832 C   0  0  2  0  0  0  0  0  0  0  0  0
  111.5505  -78.3618  -88.1247 C   0  0  0  0  0  0  0  0  0  0  0  0
  111.0281  -77.0718  -87.7139 C   0  0  0  0  0  0  0  0  0  0  0  0
  111.1638  -76.7048  -86.3257 C   0  0  2  0  0  0  0  0  0  0  0  0
  110.5799  -75.3550  -85.9806 C   0  0  1  0  0  0  0  0  0  0  0  0
  110.8412  -75.2002  -84.6073 C   0  0  2  0  0  0  0  0  0  0  0  0
  110.3463  -73.9249  -84.0842 C   0  0  0  0  0  0  0  0  0  0  0  0
  110.5943  -73.7036  -82.6942 C   0  0  0  0  0  0  0  0  0  0  0  0
  109.9558  -74.5433  -86.9088 C   0  0  0  0  0  0  0  0  0  0  0  0
  110.2896  -73.1952  -87.1767 C   0  0  0  0  0  0  0  0  0  0  0  0
  109.6821  -72.3666  -88.1219 C   0  0  0  0  0  0  0  0  0  0  0  0
  108.5967  -72.8849  -88.9410 C   0  0  0  0  0  0  0  0  0  0  0  0
  108.2797  -74.2315  -88.6408 C   0  0  0  0  0  0  0  0  0  0  0  0
  108.8580  -75.0964  -87.7015 C   0  0  0  0  0  0  0  0  0  0  0  0
  112.0276  -75.1953  -79.5918 C   0  0  0  0  0  0  0  0  0  0  0  0
  111.0544  -72.9939  -79.9165 C   0  0  0  0  0  0  0  0  0  0  0  0
  113.2490  -81.5581  -86.6300 C   0  0  0  0  0  0  0  0  0  0  0  0
  112.6074  -80.9410  -88.9261 C   0  0  0  0  0  0  0  0  0  0  0  0
  1  2  1  1  0  0  0
  1  3  1  0  0  0  0
  1 16  1  0  0  0  0
  2 23  1  0  0  0  0
  2 24  1  0  0  0  0
  4 25  1  0  0  0  0
  4 26  1  0  0  0  0
  5  6  1  0  0  0  0
  6  3  1  6  0  0  0
  6 14  1  0  0  0  0
  7  5  1  1  0  0  0
  7  8  1  0  0  0  0
  7 12  1  0  0  0  0
  8  9  1  0  0  0  0
  9  4  1  1  0  0  0
  9 10  1  0  0  0  0
 10 11  1  0  0  0  0
 12 11  1  6  0  0  0
 12 13  1  0  0  0  0
 13 14  1  0  0  0  0
 13 17  1  6  0  0  0
 14 15  1  6  0  0  0
 15 16  1  0  0  0  0
 17 18  1  0  0  0  0
 17 22  1  0  0  0  0
 18 19  1  0  0  0  0
 19 20  1  0  0  0  0
 20 21  1  0  0  0  0
 21 22  1  0  0  0  0
M  END
>  <CHROM.1>
-3.53037220,3.77820260,-125.92146294,111.12537603,-76.15748541,-85.32309633
-1.81284133,1.07865497,-2.07034693

>  <Name>
ligand

>  <RI>
0

>  <Rbt.Current_Directory>
/home/itssahil/PROJECTS/Mol_Feturizer/Test_systems_manuscript/rnas/1f1t

>  <Rbt.Executable>
rbdock ($Id: //depot/dev/client3/rdock/2013.1/src/exe/rbdock.cxx#4 $)

>  <Rbt.Library>
libRbt.so (2013.1, Build901 2013/11/27)

>  <Rbt.Parameter_File>
/export/apps/rDock/src/rDock_2013.1_src/data/scripts/dock_solv.prm

>  <Rbt.Receptor>
prm/pocket_docking_4.prm

>  <SCORE>
-56.4656

>  <SCORE.INTER>
-56.6996

>  <SCORE.INTER.CONST>
1

>  <SCORE.INTER.POLAR>
0

>  <SCORE.INTER.ROT>
3

>  <SCORE.INTER.SOLV>
9.22042

>  <SCORE.INTER.VDW>
-46.4732

>  <SCORE.INTER.norm>
-2.18075

>  <SCORE.INTRA>
0.233997

>  <SCORE.INTRA.DIHEDRAL>
-1.29431e-05

>  <SCORE.INTRA.DIHEDRAL.0>
3.60016

>  <SCORE.INTRA.POLAR>
0

>  <SCORE.INTRA.POLAR.0>
0

>  <SCORE.INTRA.REPUL>
0

>  <SCORE.INTRA.REPUL.0>
0

>  <SCORE.INTRA.SOLV>
1.13948e-05

>  <SCORE.INTRA.SOLV.lig_0>
-10.9882

>  <SCORE.INTRA.VDW>
0.233998

>  <SCORE.INTRA.VDW.0>
1.84442

>  <SCORE.INTRA.norm>
0.00899989

>  <SCORE.RESTR>
0

>  <SCORE.RESTR.CAVITY>
0

>  <SCORE.RESTR.norm>
0

>  <SCORE.SYSTEM>
0

>  <SCORE.SYSTEM.CONST>
0

>  <SCORE.SYSTEM.DIHEDRAL>
0

>  <SCORE.SYSTEM.SOLV>
0

>  <SCORE.SYSTEM.norm>
0

>  <SCORE.heavy>
26

>  <SCORE.norm>
-2.17175

>  <RMSD>
0.747

$$$$
ligand
 OpenBabel02271912153D
libRbt.so/2013.1/901 2013/11/27
 26 29  0  0  0  0  0  0  0  0999 V2000
  111.1780  -74.6643  -82.0266 C   0  0  1  0  0  0  0  0  0  0  0  0
  111.3616  -74.2917  -80.7028 N   0  0  0  0  0  0  0  0  0  0  0  0
  111.7002  -75.9360  -82.5044 C   0  0  0  0  0  0  0  0  0  0  0  0
  112.6926  -80.6320  -87.5157 N   0  0  0  0  0  0  0  0  0  0  0  0
  111.9926  -77.4747  -84.2923 O   0  0  0  0  0  0  0  0  0  0  0  0
  111.4365  -76.1630  -83.8565 C   0  0  2  0  0  0  0  0  0  0  0  0
  111.7562  -77.6688  -85.5310 C   0  0  1  0  0  0  0  0  0  0  0  0
  112.3268  -78.9758  -85.8563 C   0  0  0  0  0  0  0  0  0  0  0  0
  112.1601  -79.3624  -87.2334 C   0  0  2  0  0  0  0  0  0  0  0  0
  111.5109  -78.5379  -88.1854 C   0  0  0  0  0  0  0  0  0  0  0  0
  110.9575  -77.2542  -87.7961 C   0  0  0  0  0  0  0  0  0  0  0  0
  111.1001  -76.8529  -86.4181 C   0  0  2  0  0  0  0  0  0  0  0  0
  110.4827  -75.5126  -86.0949 C   0  0  1  0  0  0  0  0  0  0  0  0
  110.7566  -75.3202  -84.7288 C   0  0  2  0  0  0  0  0  0  0  0  0
  110.2326  -74.0480  -84.2271 C   0  0  0  0  0  0  0  0  0  0  0  0
  110.4915  -73.7891  -82.8457 C   0  0  0  0  0  0  0  0  0  0  0  0
  109.8244  -74.7394  -87.0323 C   0  0  0  0  0  0  0  0  0  0  0  0
  108.7788  -75.1837  -87.8748 C   0  0  0  0  0  0  0  0  0  0  0  0
  108.0916  -74.4128  -88.8140 C   0  0  0  0  0  0  0  0  0  0  0  0
  108.4391  -73.0102  -88.9862 C   0  0  0  0  0  0  0  0  0  0  0  0
  109.4954  -72.6002  -88.1375 C   0  0  0  0  0  0  0  0  0  0  0  0
  110.2138  -73.3380  -87.1866 C   0  0  0  0  0  0  0  0  0  0  0  0
  110.9522  -72.9832  -80.2002 C   0  0  0  0  0  0  0  0  0  0  0  0
  111.9623  -75.1180  -79.6341 C   0  0  0  0  0  0  0  0  0  0  0  0
  113.2444  -81.6846  -86.6336 C   0  0  0  0  0  0  0  0  0  0  0  0
  112.7179  -81.0639  -88.9579 C   0  0  0  0  0  0  0  0  0  0  0  0
  1  2  1  1  0  0  0
  1  3  1  0  0  0  0
  1 16  1  0  0  0  0
  2 23  1  0  0  0  0
  2 24  1  0  0  0  0
  4 25  1  0  0  0  0
  4 26  1  0  0  0  0
  5  6  1  0  0  0  0
  6  3  1  6  0  0  0
  6 14  1  0  0  0  0
  7  5  1  1  0  0  0
  7  8  1  0  0  0  0
  7 12  1  0  0  0  0
  8  9  1  0  0  0  0
  9  4  1  1  0  0  0
  9 10  1  0  0  0  0
 10 11  1  0  0  0  0
 12 11  1  6  0  0  0
 12 13  1  0  0  0  0
 13 14  1  0  0  0  0
 13 17  1  6  0  0  0
 14 15  1  6  0  0  0
 15 16  1  0  0  0  0
 17 18  1  0  0  0  0
 17 22  1  0  0  0  0
 18 19  1  0  0  0  0
 19 20  1  0  0  0  0
 20 21  1  0  0  0  0
 21 22  1  0  0  0  0
M  END
>  <CHROM.1>
175.01304570,7.95507906,51.90926089,111.06343401,-76.26445779,-85.41882490
-1.84071556,1.05383426,-2.08267553

>  <Name>
ligand

>  <RI>
0

>  <Rbt.Current_Directory>
/home/itssahil/PROJECTS/Mol_Feturizer/Test_systems_manuscript/rnas/1f1t

>  <Rbt.Executable>
rbdock ($Id: //depot/dev/client3/rdock/2013.1/src/exe/rbdock.cxx#4 $)

>  <Rbt.Library>
libRbt.so (2013.1, Build901 2013/11/27)

>  <Rbt.Parameter_File>
/export/apps/rDock/src/rDock_2013.1_src/data/scripts/dock_solv.prm

>  <Rbt.Receptor>
prm/pocket_docking_5.prm

>  <SCORE>
-55.9154

>  <SCORE.INTER>
-56.3753

>  <SCORE.INTER.CONST>
1

>  <SCORE.INTER.POLAR>
0

>  <SCORE.INTER.ROT>
3

>  <SCORE.INTER.SOLV>
8.91798

>  <SCORE.INTER.VDW>
-46.1562

>  <SCORE.INTER.norm>
-2.16828

>  <SCORE.INTRA>
0.459849

>  <SCORE.INTRA.DIHEDRAL>
0.0002663

>  <SCORE.INTRA.DIHEDRAL.0>
3.60016

>  <SCORE.INTRA.POLAR>
0

>  <SCORE.INTRA.POLAR.0>
0

>  <SCORE.INTRA.REPUL>
0

>  <SCORE.INTRA.REPUL.0>
0

>  <SCORE.INTRA.SOLV>
3.14714e-05

>  <SCORE.INTRA.SOLV.lig_0>
-10.9882

>  <SCORE.INTRA.VDW>
0.4597

>  <SCORE.INTRA.VDW.0>
1.84442

>  <SCORE.INTRA.norm>
0.0176865

>  <SCORE.RESTR>
0

>  <SCORE.RESTR.CAVITY>
0

>  <SCORE.RESTR.norm>
0

>  <SCORE.SYSTEM>
0

>  <SCORE.SYSTEM.CONST>
0

>  <SCORE.SYSTEM.DIHEDRAL>
0

>  <SCORE.SYSTEM.SOLV>
0

>  <SCORE.SYSTEM.norm>
0

>  <SCORE.heavy>
26

>  <SCORE.norm>
-2.15059

>  <RMSD>
0.747

$$$$
ligand
 OpenBabel02271912153D
libRbt.so/2013.1/901 2013/11/27
 26 29  0  0  0  0  0  0  0  0999 V2000
  111.2639  -74.6147  -81.8995 C   0  0  1  0  0  0  0  0  0  0  0  0
  111.4425  -74.2727  -80.5667 N   0  0  0  0  0  0  0  0  0  0  0  0
  111.7588  -75.8900  -82.3966 C   0  0  0  0  0  0  0  0  0  0  0  0
  112.6861  -80.5120  -87.4885 N   0  0  0  0  0  0  0  0  0  0  0  0
  112.0314  -77.4007  -84.2113 O   0  0  0  0  0  0  0  0  0  0  0  0
  111.5042  -76.0839  -83.7556 C   0  0  2  0  0  0  0  0  0  0  0  0
  111.8037  -77.5648  -85.4559 C   0  0  1  0  0  0  0  0  0  0  0  0
  112.3444  -78.8794  -85.8009 C   0  0  0  0  0  0  0  0  0  0  0  0
  112.1830  -79.2349  -87.1869 C   0  0  2  0  0  0  0  0  0  0  0  0
  111.5654  -78.3757  -88.1293 C   0  0  0  0  0  0  0  0  0  0  0  0
  111.0407  -77.0860  -87.7206 C   0  0  0  0  0  0  0  0  0  0  0  0
  111.1783  -76.7153  -86.3336 C   0  0  2  0  0  0  0  0  0  0  0  0
  110.5918  -75.3660  -85.9906 C   0  0  1  0  0  0  0  0  0  0  0  0
  110.8556  -75.2072  -84.6182 C   0  0  2  0  0  0  0  0  0  0  0  0
  110.3586  -73.9319  -84.0972 C   0  0  0  0  0  0  0  0  0  0  0  0
  110.6090  -73.7065  -82.7083 C   0  0  0  0  0  0  0  0  0  0  0  0
  109.9637  -74.5582  -86.9195 C   0  0  0  0  0  0  0  0  0  0  0  0
  110.2895  -73.2081  -87.1869 C   0  0  0  0  0  0  0  0  0  0  0  0
  109.6779  -72.3832  -88.1327 C   0  0  0  0  0  0  0  0  0  0  0  0
  108.5968  -72.9082  -88.9532 C   0  0  0  0  0  0  0  0  0  0  0  0
  108.2879  -74.2568  -88.6535 C   0  0  0  0  0  0  0  0  0  0  0  0
  108.8705  -75.1182  -87.7136 C   0  0  0  0  0  0  0  0  0  0  0  0
  111.0184  -72.9815  -80.0327 C   0  0  0  0  0  0  0  0  0  0  0  0
  112.0514  -75.1183  -79.5179 C   0  0  0  0  0  0  0  0  0  0  0  0
  113.2884  -81.5583  -86.6325 C   0  0  0  0  0  0  0  0  0  0  0  0
  112.6109  -80.9614  -88.9236 C   0  0  0  0  0  0  0  0  0  0  0  0
  1  2  1  1  0  0  0
  1  3  1  0  0  0  0
  1 16  1  0  0  0  0
  2 23  1  0  0  0  0
  2 24  1  0  0  0  0
  4 25  1  0  0  0  0
  4 26  1  0  0  0  0
  5  6  1  0  0  0  0
  6  3  1  6  0  0  0
  6 14  1  0  0  0  0
  7  5  1  1  0  0  0
  7  8  1  0  0  0  0
  7 12  1  0  0  0  0
  8  9  1  0  0  0  0
  9  4  1  1  0  0  0
  9 10  1  0  0  0  0
 10 11  1  0  0  0  0
 12 11  1  6  0  0  0
 12 13  1  0  0  0  0
 13 14  1  0  0  0  0
 13 17  1  6  0  0  0
 14 15  1  6  0  0  0
 15 16  1  0  0  0  0
 17 18  1  0  0  0  0
 17 22  1  0  0  0  0
 18 19  1  0  0  0  0
 19 20  1  0  0  0  0
 20 21  1  0  0  0  0
 21 22  1  0  0  0  0
M  END
>  <CHROM.1>
177.19866102,3.01251158,-126.24605822,111.13805900,-76.16220444,-85.33277495
-1.81436774,1.07528008,-2.07343644

>  <Name>
ligand

>  <RI>
0

>  <Rbt.Current_Directory>
/home/itssahil/PROJECTS/Mol_Feturizer/Test_systems_manuscript/rnas/1f1t

>  <Rbt.Executable>
rbdock ($Id: //depot/dev/client3/rdock/2013.1/src/exe/rbdock.cxx#4 $)

>  <Rbt.Library>
libRbt.so (2013.1, Build901 2013/11/27)

>  <Rbt.Parameter_File>
/export/apps/rDock/src/rDock_2013.1_src/data/scripts/dock_solv.prm

>  <Rbt.Receptor>
prm/pocket_docking_5.prm

>  <SCORE>
-56.166

>  <SCORE.INTER>
-56.7229

>  <SCORE.INTER.CONST>
1

>  <SCORE.INTER.POLAR>
0

>  <SCORE.INTER.ROT>
3

>  <SCORE.INTER.SOLV>
9.23715

>  <SCORE.INTER.VDW>
-46.4943

>  <SCORE.INTER.norm>
-2.18165

>  <SCORE.INTRA>
0.556986

>  <SCORE.INTRA.DIHEDRAL>
3.39387e-06

>  <SCORE.INTRA.DIHEDRAL.0>
3.60016

>  <SCORE.INTRA.POLAR>
0

>  <SCORE.INTRA.POLAR.0>
0

>  <SCORE.INTRA.REPUL>
0

>  <SCORE.INTRA.REPUL.0>
0

>  <SCORE.INTRA.SOLV>
7.02253e-06

>  <SCORE.INTRA.SOLV.lig_0>
-10.9882

>  <SCORE.INTRA.VDW>
0.556981

>  <SCORE.INTRA.VDW.0>
1.84442

>  <SCORE.INTRA.norm>
0.0214226

>  <SCORE.RESTR>
0

>  <SCORE.RESTR.CAVITY>
0

>  <SCORE.RESTR.norm>
0

>  <SCORE.SYSTEM>
0

>  <SCORE.SYSTEM.CONST>
0

>  <SCORE.SYSTEM.DIHEDRAL>
0

>  <SCORE.SYSTEM.SOLV>
0

>  <SCORE.SYSTEM.norm>
0

>  <SCORE.heavy>
26

>  <SCORE.norm>
-2.16023

>  <RMSD>
0.747

$$$$
ligand
 OpenBabel02271912153D
libRbt.so/2013.1/901 2013/11/27
 26 29  0  0  0  0  0  0  0  0999 V2000
  111.2448  -74.6761  -81.9306 C   0  0  1  0  0  0  0  0  0  0  0  0
  111.4168  -74.3351  -80.5967 N   0  0  0  0  0  0  0  0  0  0  0  0
  111.7280  -75.9578  -82.4227 C   0  0  0  0  0  0  0  0  0  0  0  0
  112.6393  -80.5954  -87.5033 N   0  0  0  0  0  0  0  0  0  0  0  0
  111.9966  -77.4734  -84.2339 O   0  0  0  0  0  0  0  0  0  0  0  0
  111.4819  -76.1499  -83.7835 C   0  0  2  0  0  0  0  0  0  0  0  0
  111.7769  -77.6358  -85.4802 C   0  0  1  0  0  0  0  0  0  0  0  0
  112.3041  -78.9573  -85.8198 C   0  0  0  0  0  0  0  0  0  0  0  0
  112.1495  -79.3119  -87.2068 C   0  0  2  0  0  0  0  0  0  0  0  0
  111.5502  -78.4461  -88.1548 C   0  0  0  0  0  0  0  0  0  0  0  0
  111.0380  -77.1497  -87.7514 C   0  0  0  0  0  0  0  0  0  0  0  0
  111.1691  -76.7794  -86.3636 C   0  0  2  0  0  0  0  0  0  0  0  0
  110.5964  -75.4228  -86.0264 C   0  0  1  0  0  0  0  0  0  0  0  0
  110.8511  -75.2660  -84.6521 C   0  0  2  0  0  0  0  0  0  0  0  0
  110.3657  -73.9842  -84.1361 C   0  0  0  0  0  0  0  0  0  0  0  0
  110.6076  -73.7607  -82.7454 C   0  0  0  0  0  0  0  0  0  0  0  0
  109.9858  -74.6081  -86.9610 C   0  0  0  0  0  0  0  0  0  0  0  0
  110.3148  -73.2554  -87.2107 C   0  0  0  0  0  0  0  0  0  0  0  0
  109.7211  -72.4236  -88.1617 C   0  0  0  0  0  0  0  0  0  0  0  0
  108.6573  -72.9432  -89.0079 C   0  0  0  0  0  0  0  0  0  0  0  0
  108.3444  -74.2946  -88.7255 C   0  0  0  0  0  0  0  0  0  0  0  0
  108.9094  -75.1629  -87.7813 C   0  0  0  0  0  0  0  0  0  0  0  0
  110.9812  -73.0482  -80.0616 C   0  0  0  0  0  0  0  0  0  0  0  0
  112.0293  -75.1779  -79.5476 C   0  0  0  0  0  0  0  0  0  0  0  0
  113.2093  -81.6535  -86.6396 C   0  0  0  0  0  0  0  0  0  0  0  0
  112.5852  -81.0388  -88.9412 C   0  0  0  0  0  0  0  0  0  0  0  0
  1  2  1  1  0  0  0
  1  3  1  0  0  0  0
  1 16  1  0  0  0  0
  2 23  1  0  0  0  0
  2 24  1  0  0  0  0
  4 25  1  0  0  0  0
  4 26  1  0  0  0  0
  5  6  1  0  0  0  0
  6  3  1  6  0  0  0
  6 14  1  0  0  0  0
  7  5  1  1  0  0  0
  7  8  1  0  0  0  0
  7 12  1  0  0  0  0
  8  9  1  0  0  0  0
  9  4  1  1  0  0  0
  9 10  1  0  0  0  0
 10 11  1  0  0  0  0
 12 11  1  6  0  0  0
 12 13  1  0  0  0  0
 13 14  1  0  0  0  0
 13 17  1  6  0  0  0
 14 15  1  6  0  0  0
 15 16  1  0  0  0  0
 17 18  1  0  0  0  0
 17 22  1  0  0  0  0
 18 19  1  0  0  0  0
 19 20  1  0  0  0  0
 20 21  1  0  0  0  0
 21 22  1  0  0  0  0
M  END
>  <CHROM.1>
178.39234272,3.72161572,-127.40602416,111.12779308,-76.22500253,-85.36370177
-1.81719747,1.08977893,-2.07173301

>  <Name>
ligand

>  <RI>
0

>  <Rbt.Current_Directory>
/home/itssahil/PROJECTS/Mol_Feturizer/Test_systems_manuscript/rnas/1f1t

>  <Rbt.Executable>
rbdock ($Id: //depot/dev/client3/rdock/2013.1/src/exe/rbdock.cxx#4 $)

>  <Rbt.Library>
libRbt.so (2013.1, Build901 2013/11/27)

>  <Rbt.Parameter_File>
/export/apps/rDock/src/rDock_2013.1_src/data/scripts/dock_solv.prm

>  <Rbt.Receptor>
prm/pocket_docking_6.prm

>  <SCORE>
-56.1231

>  <SCORE.INTER>
-56.72

>  <SCORE.INTER.CONST>
1

>  <SCORE.INTER.POLAR>
0

>  <SCORE.INTER.ROT>
3

>  <SCORE.INTER.SOLV>
9.05602

>  <SCORE.INTER.VDW>
-46.432

>  <SCORE.INTER.norm>
-2.18154

>  <SCORE.INTRA>
0.596895

>  <SCORE.INTRA.DIHEDRAL>
5.00369e-06

>  <SCORE.INTRA.DIHEDRAL.0>
3.60016

>  <SCORE.INTRA.POLAR>
0

>  <SCORE.INTRA.POLAR.0>
0

>  <SCORE.INTRA.REPUL>
0

>  <SCORE.INTRA.REPUL.0>
0

>  <SCORE.INTRA.SOLV>
5.98487e-06

>  <SCORE.INTRA.SOLV.lig_0>
-10.9882

>  <SCORE.INTRA.VDW>
0.596889

>  <SCORE.INTRA.VDW.0>
1.84442

>  <SCORE.INTRA.norm>
0.0229575

>  <SCORE.RESTR>
0

>  <SCORE.RESTR.CAVITY>
0

>  <SCORE.RESTR.norm>
0

>  <SCORE.SYSTEM>
0

>  <SCORE.SYSTEM.CONST>
0

>  <SCORE.SYSTEM.DIHEDRAL>
0

>  <SCORE.SYSTEM.SOLV>
0

>  <SCORE.SYSTEM.norm>
0

>  <SCORE.heavy>
26

>  <SCORE.norm>
-2.15858

>  <RMSD>
0.747

$$$$
ligand
 OpenBabel02271912153D
libRbt.so/2013.1/901 2013/11/27
 26 29  0  0  0  0  0  0  0  0999 V2000
  112.2187  -79.3965  -87.1378 C   0  0  1  0  0  0  0  0  0  0  0  0
  112.7178  -80.6275  -87.5386 N   0  0  0  0  0  0  0  0  0  0  0  0
  112.3390  -78.9793  -85.7486 C   0  0  0  0  0  0  0  0  0  0  0  0
  111.3247  -74.3902  -80.6435 N   0  0  0  0  0  0  0  0  0  0  0  0
  111.9358  -77.3439  -84.0715 O   0  0  0  0  0  0  0  0  0  0  0  0
  111.7869  -77.7202  -85.5053 C   0  0  2  0  0  0  0  0  0  0  0  0
  111.4195  -76.1972  -83.8564 C   0  0  1  0  0  0  0  0  0  0  0  0
  111.6253  -75.9160  -82.4357 C   0  0  0  0  0  0  0  0  0  0  0  0
  111.0919  -74.6497  -82.0050 C   0  0  2  0  0  0  0  0  0  0  0  0
  110.4173  -73.7660  -82.8835 C   0  0  0  0  0  0  0  0  0  0  0  0
  110.2540  -74.1002  -84.2861 C   0  0  0  0  0  0  0  0  0  0  0  0
  110.7933  -75.3575  -84.7429 C   0  0  2  0  0  0  0  0  0  0  0  0
  110.5940  -75.6194  -86.2172 C   0  0  1  0  0  0  0  0  0  0  0  0
  111.1681  -76.8857  -86.4296 C   0  0  2  0  0  0  0  0  0  0  0  0
  111.0633  -77.3205  -87.8242 C   0  0  0  0  0  0  0  0  0  0  0  0
  111.6183  -78.6082  -88.1002 C   0  0  0  0  0  0  0  0  0  0  0  0
  109.9620  -74.7279  -87.0632 C   0  0  0  0  0  0  0  0  0  0  0  0
  110.2923  -73.3604  -87.2099 C   0  0  0  0  0  0  0  0  0  0  0  0
  109.6768  -72.4505  -88.0714 C   0  0  0  0  0  0  0  0  0  0  0  0
  108.5858  -72.8942  -88.9262 C   0  0  0  0  0  0  0  0  0  0  0  0
  108.2727  -74.2631  -88.7473 C   0  0  0  0  0  0  0  0  0  0  0  0
  108.8590  -75.2087  -87.8948 C   0  0  0  0  0  0  0  0  0  0  0  0
  112.7644  -81.0269  -88.9424 C   0  0  0  0  0  0  0  0  0  0  0  0
  113.2657  -81.6810  -86.6579 C   0  0  0  0  0  0  0  0  0  0  0  0
  111.9601  -75.2034  -79.5828 C   0  0  0  0  0  0  0  0  0  0  0  0
  110.8857  -73.0517  -80.1120 C   0  0  0  0  0  0  0  0  0  0  0  0
  1  2  1  6  0  0  0
  1  3  1  0  0  0  0
  1 16  1  0  0  0  0
  2 23  1  0  0  0  0
  2 24  1  0  0  0  0
  4 25  1  0  0  0  0
  4 26  1  0  0  0  0
  5  6  1  0  0  0  0
  6  3  1  1  0  0  0
  6 14  1  0  0  0  0
  7  5  1  6  0  0  0
  7  8  1  0  0  0  0
  7 12  1  0  0  0  0
  8  9  1  0  0  0  0
  9  4  1  6  0  0  0
  9 10  1  0  0  0  0
 10 11  1  0  0  0  0
 12 11  1  1  0  0  0
 12 13  1  0  0  0  0
 13 14  1  0  0  0  0
 13 17  1  1  0  0  0
 14 15  1  1  0  0  0
 15 16  1  0  0  0  0
 17 18  1  0  0  0  0
 17 22  1  0  0  0  0
 18 19  1  0  0  0  0
 19 20  1  0  0  0  0
 20 21  1  0  0  0  0
 21 22  1  0  0  0  0
M  END
>  <CHROM.1>
-172.66702031,-2.97639786,52.63966822,111.10010313,-76.26912257,-85.39170982
-1.26287316,-1.07668813,1.09835221

>  <Name>
ligand

>  <RI>
0

>  <Rbt.Current_Directory>
/home/itssahil/PROJECTS/Mol_Feturizer/Test_systems_manuscript/rnas/1f1t

>  <Rbt.Executable>
rbdock ($Id: //depot/dev/client3/rdock/2013.1/src/exe/rbdock.cxx#4 $)

>  <Rbt.Library>
libRbt.so (2013.1, Build901 2013/11/27)

>  <Rbt.Parameter_File>
/export/apps/rDock/src/rDock_2013.1_src/data/scripts/dock_solv.prm

>  <Rbt.Receptor>
prm/pocket_docking_6.prm

>  <SCORE>
-56.2304

>  <SCORE.INTER>
-56.6863

>  <SCORE.INTER.CONST>
1

>  <SCORE.INTER.POLAR>
0

>  <SCORE.INTER.ROT>
3

>  <SCORE.INTER.SOLV>
9.00281

>  <SCORE.INTER.VDW>
-46.3918

>  <SCORE.INTER.norm>
-2.18024

>  <SCORE.INTRA>
0.455802

>  <SCORE.INTRA.DIHEDRAL>
0.000289289

>  <SCORE.INTRA.DIHEDRAL.0>
3.60016

>  <SCORE.INTRA.POLAR>
0

>  <SCORE.INTRA.POLAR.0>
0

>  <SCORE.INTRA.REPUL>
0

>  <SCORE.INTRA.REPUL.0>
0

>  <SCORE.INTRA.SOLV>
2.02339e-05

>  <SCORE.INTRA.SOLV.lig_0>
-10.9882

>  <SCORE.INTRA.VDW>
0.455647

>  <SCORE.INTRA.VDW.0>
1.84442

>  <SCORE.INTRA.norm>
0.0175308

>  <SCORE.RESTR>
0

>  <SCORE.RESTR.CAVITY>
0

>  <SCORE.RESTR.norm>
0

>  <SCORE.SYSTEM>
0

>  <SCORE.SYSTEM.CONST>
0

>  <SCORE.SYSTEM.DIHEDRAL>
0

>  <SCORE.SYSTEM.SOLV>
0

>  <SCORE.SYSTEM.norm>
0

>  <SCORE.heavy>
26

>  <SCORE.norm>
-2.16271

>  <RMSD>
0.747

$$$$
ligand
 OpenBabel02271912153D
libRbt.so/2013.1/901 2013/11/27
 26 29  0  0  0  0  0  0  0  0999 V2000
  112.2131  -79.4080  -87.1423 C   0  0  1  0  0  0  0  0  0  0  0  0
  112.7077  -80.6406  -87.5437 N   0  0  0  0  0  0  0  0  0  0  0  0
  112.3304  -78.9940  -85.7519 C   0  0  0  0  0  0  0  0  0  0  0  0
  111.3200  -74.4097  -80.6417 N   0  0  0  0  0  0  0  0  0  0  0  0
  111.9291  -77.3599  -84.0732 O   0  0  0  0  0  0  0  0  0  0  0  0
  111.7835  -77.7327  -85.5082 C   0  0  2  0  0  0  0  0  0  0  0  0
  111.4175  -76.2111  -83.8576 C   0  0  1  0  0  0  0  0  0  0  0  0
  111.6196  -75.9336  -82.4357 C   0  0  0  0  0  0  0  0  0  0  0  0
  111.0908  -74.6655  -82.0046 C   0  0  2  0  0  0  0  0  0  0  0  0
  110.4236  -73.7769  -82.8837 C   0  0  0  0  0  0  0  0  0  0  0  0
  110.2636  -74.1077  -84.2875 C   0  0  0  0  0  0  0  0  0  0  0  0
  110.7986  -75.3667  -84.7448 C   0  0  2  0  0  0  0  0  0  0  0  0
  110.6033  -75.6249  -86.2203 C   0  0  1  0  0  0  0  0  0  0  0  0
  111.1721  -76.8935  -86.4331 C   0  0  2  0  0  0  0  0  0  0  0  0
  111.0701  -77.3252  -87.8288 C   0  0  0  0  0  0  0  0  0  0  0  0
  111.6199  -78.6150  -88.1053 C   0  0  0  0  0  0  0  0  0  0  0  0
  109.9786  -74.7287  -87.0668 C   0  0  0  0  0  0  0  0  0  0  0  0
  110.3204  -73.3642  -87.2148 C   0  0  0  0  0  0  0  0  0  0  0  0
  109.7123  -72.4498  -88.0768 C   0  0  0  0  0  0  0  0  0  0  0  0
  108.6174  -72.8850  -88.9309 C   0  0  0  0  0  0  0  0  0  0  0  0
  108.2927  -74.2510  -88.7509 C   0  0  0  0  0  0  0  0  0  0  0  0
  108.8713  -75.2009  -87.8977 C   0  0  0  0  0  0  0  0  0  0  0  0
  113.2271  -81.6170  -86.5902 C   0  0  0  0  0  0  0  0  0  0  0  0
  112.7786  -81.1481  -88.9305 C   0  0  0  0  0  0  0  0  0  0  0  0
  111.9651  -75.2201  -79.5847 C   0  0  0  0  0  0  0  0  0  0  0  0
  110.8644  -73.0793  -80.1039 C   0  0  0  0  0  0  0  0  0  0  0  0
  1  2  1  6  0  0  0
  1  3  1  0  0  0  0
  1 16  1  0  0  0  0
  2 23  1  0  0  0  0
  2 24  1  0  0  0  0
  4 25  1  0  0  0  0
  4 26  1  0  0  0  0
  5  6  1  0  0  0  0
  6  3  1  1  0  0  0
  6 14  1  0  0  0  0
  7  5  1  6  0  0  0
  7  8  1  0  0  0  0
  7 12  1  0  0  0  0
  8  9  1  0  0  0  0
  9  4  1  6  0  0  0
  9 10  1  0  0  0  0
 10 11  1  0  0  0  0
 12 11  1  1  0  0  0
 12 13  1  0  0  0  0
 13 14  1  0  0  0  0
 13 17  1  1  0  0  0
 14 15  1  1  0  0  0
 15 16  1  0  0  0  0
 17 18  1  0  0  0  0
 17 22  1  0  0  0  0
 18 19  1  0  0  0  0
 19 20  1  0  0  0  0
 20 21  1  0  0  0  0
 21 22  1  0  0  0  0
M  END
>  <CHROM.1>
6.54815452,-1.96177632,52.98162283,111.10311756,-76.27993751,-85.39008574
-1.25954352,-1.08259120,1.10103792

>  <Name>
ligand

>  <RI>
0

>  <Rbt.Current_Directory>
/home/itssahil/PROJECTS/Mol_Feturizer/Test_systems_manuscript/rnas/1f1t

>  <Rbt.Executable>
rbdock ($Id: //depot/dev/client3/rdock/2013.1/src/exe/rbdock.cxx#4 $)

>  <Rbt.Library>
libRbt.so (2013.1, Build901 2013/11/27)

>  <Rbt.Parameter_File>
/export/apps/rDock/src/rDock_2013.1_src/data/scripts/dock_solv.prm

>  <Rbt.Receptor>
prm/pocket_docking_6.prm

>  <SCORE>
-56.4276

>  <SCORE.INTER>
-56.5943

>  <SCORE.INTER.CONST>
1

>  <SCORE.INTER.POLAR>
0

>  <SCORE.INTER.ROT>
3

>  <SCORE.INTER.SOLV>
9.00919

>  <SCORE.INTER.VDW>
-46.3326

>  <SCORE.INTER.norm>
-2.1767

>  <SCORE.INTRA>
0.166716

>  <SCORE.INTRA.DIHEDRAL>
0.000279707

>  <SCORE.INTRA.DIHEDRAL.0>
3.60016

>  <SCORE.INTRA.POLAR>
0

>  <SCORE.INTRA.POLAR.0>
0

>  <SCORE.INTRA.REPUL>
0

>  <SCORE.INTRA.REPUL.0>
0

>  <SCORE.INTRA.SOLV>
1.51594e-05

>  <SCORE.INTRA.SOLV.lig_0>
-10.9882

>  <SCORE.INTRA.VDW>
0.166569

>  <SCORE.INTRA.VDW.0>
1.84442

>  <SCORE.INTRA.norm>
0.00641216

>  <SCORE.RESTR>
0

>  <SCORE.RESTR.CAVITY>
0

>  <SCORE.RESTR.norm>
0

>  <SCORE.SYSTEM>
0

>  <SCORE.SYSTEM.CONST>
0

>  <SCORE.SYSTEM.DIHEDRAL>
0

>  <SCORE.SYSTEM.SOLV>
0

>  <SCORE.SYSTEM.norm>
0

>  <SCORE.heavy>
26

>  <SCORE.norm>
-2.17029

>  <RMSD>
0.747

$$$$
ligand
 OpenBabel02271912153D
libRbt.so/2013.1/901 2013/11/27
 26 29  0  0  0  0  0  0  0  0999 V2000
  111.2636  -74.6984  -81.9461 C   0  0  1  0  0  0  0  0  0  0  0  0
  111.4396  -74.3616  -80.6117 N   0  0  0  0  0  0  0  0  0  0  0  0
  111.7550  -75.9739  -82.4461 C   0  0  0  0  0  0  0  0  0  0  0  0
  112.6793  -80.5823  -87.5509 N   0  0  0  0  0  0  0  0  0  0  0  0
  112.0271  -77.4796  -84.2651 O   0  0  0  0  0  0  0  0  0  0  0  0
  111.5035  -76.1623  -83.8065 C   0  0  2  0  0  0  0  0  0  0  0  0
  111.8023  -77.6385  -85.5110 C   0  0  1  0  0  0  0  0  0  0  0  0
  112.3389  -78.9541  -85.8588 C   0  0  0  0  0  0  0  0  0  0  0  0
  112.1802  -79.3042  -87.2465 C   0  0  2  0  0  0  0  0  0  0  0  0
  111.5687  -78.4395  -88.1878 C   0  0  0  0  0  0  0  0  0  0  0  0
  111.0477  -77.1492  -87.7762 C   0  0  0  0  0  0  0  0  0  0  0  0
  111.1828  -76.7837  -86.3875 C   0  0  2  0  0  0  0  0  0  0  0  0
  110.6004  -75.4334  -86.0417 C   0  0  1  0  0  0  0  0  0  0  0  0
  110.8608  -75.2802  -84.6681 C   0  0  2  0  0  0  0  0  0  0  0  0
  110.3673  -74.0047  -84.1441 C   0  0  0  0  0  0  0  0  0  0  0  0
  110.6144  -73.7850  -82.7538 C   0  0  0  0  0  0  0  0  0  0  0  0
  109.9781  -74.6200  -86.9697 C   0  0  0  0  0  0  0  0  0  0  0  0
  110.2776  -73.2567  -87.1981 C   0  0  0  0  0  0  0  0  0  0  0  0
  109.6719  -72.4255  -88.1421 C   0  0  0  0  0  0  0  0  0  0  0  0
  108.6268  -72.9576  -89.0037 C   0  0  0  0  0  0  0  0  0  0  0  0
  108.3432  -74.3197  -88.7426 C   0  0  0  0  0  0  0  0  0  0  0  0
  108.9211  -75.1879  -87.8060 C   0  0  0  0  0  0  0  0  0  0  0  0
  112.0869  -75.2624  -79.6621 C   0  0  0  0  0  0  0  0  0  0  0  0
  111.0309  -73.0964  -79.9649 C   0  0  0  0  0  0  0  0  0  0  0  0
  113.2370  -81.6499  -86.6911 C   0  0  0  0  0  0  0  0  0  0  0  0
  112.6524  -81.0068  -88.9953 C   0  0  0  0  0  0  0  0  0  0  0  0
  1  2  1  1  0  0  0
  1  3  1  0  0  0  0
  1 16  1  0  0  0  0
  2 23  1  0  0  0  0
  2 24  1  0  0  0  0
  4 25  1  0  0  0  0
  4 26  1  0  0  0  0
  5  6  1  0  0  0  0
  6  3  1  6  0  0  0
  6 14  1  0  0  0  0
  7  5  1  1  0  0  0
  7  8  1  0  0  0  0
  7 12  1  0  0  0  0
  8  9  1  0  0  0  0
  9  4  1  1  0  0  0
  9 10  1  0  0  0  0
 10 11  1  0  0  0  0
 12 11  1  6  0  0  0
 12 13  1  0  0  0  0
 13 14  1  0  0  0  0
 13 17  1  6  0  0  0
 14 15  1  6  0  0  0
 15 16  1  0  0  0  0
 17 18  1  0  0  0  0
 17 22  1  0  0  0  0
 18 19  1  0  0  0  0
 19 20  1  0  0  0  0
 20 21  1  0  0  0  0
 21 22  1  0  0  0  0
M  END
>  <CHROM.1>
-1.26543946,5.17356847,-128.65302162,111.14496661,-76.23708303,-85.38481278
-1.81365707,1.08001969,-2.06870904

>  <Name>
ligand

>  <RI>
0

>  <Rbt.Current_Directory>
/home/itssahil/PROJECTS/Mol_Feturizer/Test_systems_manuscript/rnas/1f1t

>  <Rbt.Executable>
rbdock ($Id: //depot/dev/client3/rdock/2013.1/src/exe/rbdock.cxx#4 $)

>  <Rbt.Library>
libRbt.so (2013.1, Build901 2013/11/27)

>  <Rbt.Parameter_File>
/export/apps/rDock/src/rDock_2013.1_src/data/scripts/dock_solv.prm

>  <Rbt.Receptor>
prm/pocket_docking_6.prm

>  <SCORE>
-56.3568

>  <SCORE.INTER>
-56.6837

>  <SCORE.INTER.CONST>
1

>  <SCORE.INTER.POLAR>
0

>  <SCORE.INTER.ROT>
3

>  <SCORE.INTER.SOLV>
9.11248

>  <SCORE.INTER.VDW>
-46.4266

>  <SCORE.INTER.norm>
-2.18014

>  <SCORE.INTRA>
0.326819

>  <SCORE.INTRA.DIHEDRAL>
-9.42671e-06

>  <SCORE.INTRA.DIHEDRAL.0>
3.60016

>  <SCORE.INTRA.POLAR>
0

>  <SCORE.INTRA.POLAR.0>
0

>  <SCORE.INTRA.REPUL>
0

>  <SCORE.INTRA.REPUL.0>
0

>  <SCORE.INTRA.SOLV>
9.75776e-06

>  <SCORE.INTRA.SOLV.lig_0>
-10.9882

>  <SCORE.INTRA.VDW>
0.326819

>  <SCORE.INTRA.VDW.0>
1.84442

>  <SCORE.INTRA.norm>
0.01257

>  <SCORE.RESTR>
0

>  <SCORE.RESTR.CAVITY>
0

>  <SCORE.RESTR.norm>
0

>  <SCORE.SYSTEM>
0

>  <SCORE.SYSTEM.CONST>
0

>  <SCORE.SYSTEM.DIHEDRAL>
0

>  <SCORE.SYSTEM.SOLV>
0

>  <SCORE.SYSTEM.norm>
0

>  <SCORE.heavy>
26

>  <SCORE.norm>
-2.16757

>  <RMSD>
0.747

$$$$
ligand
 OpenBabel02271912153D
libRbt.so/2013.1/901 2013/11/27
 26 29  0  0  0  0  0  0  0  0999 V2000
  111.1867  -74.7274  -82.0257 C   0  0  1  0  0  0  0  0  0  0  0  0
  111.3592  -74.3669  -80.6970 N   0  0  0  0  0  0  0  0  0  0  0  0
  111.7068  -75.9979  -82.5089 C   0  0  0  0  0  0  0  0  0  0  0  0
  112.7236  -80.6571  -87.5496 N   0  0  0  0  0  0  0  0  0  0  0  0
  112.0086  -77.5231  -84.3068 O   0  0  0  0  0  0  0  0  0  0  0  0
  111.4552  -76.2122  -83.8654 C   0  0  2  0  0  0  0  0  0  0  0  0
  111.7834  -77.7056  -85.5494 C   0  0  1  0  0  0  0  0  0  0  0  0
  112.3502  -79.0129  -85.8801 C   0  0  0  0  0  0  0  0  0  0  0  0
  112.1950  -79.3871  -87.2619 C   0  0  2  0  0  0  0  0  0  0  0  0
  111.5597  -78.5511  -88.2133 C   0  0  0  0  0  0  0  0  0  0  0  0
  111.0093  -77.2678  -87.8186 C   0  0  0  0  0  0  0  0  0  0  0  0
  111.1405  -76.8788  -86.4359 C   0  0  2  0  0  0  0  0  0  0  0  0
  110.5271  -75.5379  -86.1076 C   0  0  1  0  0  0  0  0  0  0  0  0
  110.7886  -75.3584  -84.7373 C   0  0  2  0  0  0  0  0  0  0  0  0
  110.2663  -74.0876  -84.2301 C   0  0  0  0  0  0  0  0  0  0  0  0
  110.5130  -73.8417  -82.8441 C   0  0  0  0  0  0  0  0  0  0  0  0
  109.8823  -74.7533  -87.0449 C   0  0  0  0  0  0  0  0  0  0  0  0
  108.8741  -75.1963  -87.9325 C   0  0  0  0  0  0  0  0  0  0  0  0
  108.2004  -74.4146  -88.8726 C   0  0  0  0  0  0  0  0  0  0  0  0
  108.5223  -73.0007  -88.9958 C   0  0  0  0  0  0  0  0  0  0  0  0
  109.5417  -72.5920  -88.1026 C   0  0  0  0  0  0  0  0  0  0  0  0
  110.2455  -73.3403  -87.1489 C   0  0  0  0  0  0  0  0  0  0  0  0
  110.8734  -73.0956  -80.1678 C   0  0  0  0  0  0  0  0  0  0  0  0
  112.0207  -75.1722  -79.6483 C   0  0  0  0  0  0  0  0  0  0  0  0
  113.2636  -81.7188  -86.6713 C   0  0  0  0  0  0  0  0  0  0  0  0
  112.7576  -81.0785  -88.9947 C   0  0  0  0  0  0  0  0  0  0  0  0
  1  2  1  1  0  0  0
  1  3  1  0  0  0  0
  1 16  1  0  0  0  0
  2 23  1  0  0  0  0
  2 24  1  0  0  0  0
  4 25  1  0  0  0  0
  4 26  1  0  0  0  0
  5  6  1  0  0  0  0
  6  3  1  6  0  0  0
  6 14  1  0  0  0  0
  7  5  1  1  0  0  0
  7  8  1  0  0  0  0
  7 12  1  0  0  0  0
  8  9  1  0  0  0  0
  9  4  1  1  0  0  0
  9 10  1  0  0  0  0
 10 11  1  0  0  0  0
 12 11  1  6  0  0  0
 12 13  1  0  0  0  0
 13 14  1  0  0  0  0
 13 17  1  6  0  0  0
 14 15  1  6  0  0  0
 15 16  1  0  0  0  0
 17 18  1  0  0  0  0
 17 22  1  0  0  0  0
 18 19  1  0  0  0  0
 19 20  1  0  0  0  0
 20 21  1  0  0  0  0
 21 22  1  0  0  0  0
M  END
>  <CHROM.1>
179.10140079,7.80262485,49.63460411,111.09661065,-76.29861020,-85.43192080
-1.85318022,1.06166958,-2.06369072

>  <Name>
ligand

>  <RI>
0

>  <Rbt.Current_Directory>
/home/itssahil/PROJECTS/Mol_Feturizer/Test_systems_manuscript/rnas/1f1t

>  <Rbt.Executable>
rbdock ($Id: //depot/dev/client3/rdock/2013.1/src/exe/rbdock.cxx#4 $)

>  <Rbt.Library>
libRbt.so (2013.1, Build901 2013/11/27)

>  <Rbt.Parameter_File>
/export/apps/rDock/src/rDock_2013.1_src/data/scripts/dock_solv.prm

>  <Rbt.Receptor>
prm/pocket_docking_7.prm

>  <SCORE>
-55.9516

>  <SCORE.INTER>
-56.5061

>  <SCORE.INTER.CONST>
1

>  <SCORE.INTER.POLAR>
0

>  <SCORE.INTER.ROT>
3

>  <SCORE.INTER.SOLV>
8.9541

>  <SCORE.INTER.VDW>
-46.2554

>  <SCORE.INTER.norm>
-2.17331

>  <SCORE.INTRA>
0.554556

>  <SCORE.INTRA.DIHEDRAL>
0.000258676

>  <SCORE.INTRA.DIHEDRAL.0>
3.60016

>  <SCORE.INTRA.POLAR>
0

>  <SCORE.INTRA.POLAR.0>
0

>  <SCORE.INTRA.REPUL>
0

>  <SCORE.INTRA.REPUL.0>
0

>  <SCORE.INTRA.SOLV>
1.88457e-05

>  <SCORE.INTRA.SOLV.lig_0>
-10.9882

>  <SCORE.INTRA.VDW>
0.554417

>  <SCORE.INTRA.VDW.0>
1.84442

>  <SCORE.INTRA.norm>
0.0213291

>  <SCORE.RESTR>
0

>  <SCORE.RESTR.CAVITY>
0

>  <SCORE.RESTR.norm>
0

>  <SCORE.SYSTEM>
0

>  <SCORE.SYSTEM.CONST>
0

>  <SCORE.SYSTEM.DIHEDRAL>
0

>  <SCORE.SYSTEM.SOLV>
0

>  <SCORE.SYSTEM.norm>
0

>  <SCORE.heavy>
26

>  <SCORE.norm>
-2.15198

>  <RMSD>
0.747

$$$$
ligand
 OpenBabel02271912153D
libRbt.so/2013.1/901 2013/11/27
 26 29  0  0  0  0  0  0  0  0999 V2000
  112.2367  -79.4964  -87.1183 C   0  0  1  0  0  0  0  0  0  0  0  0
  112.7668  -80.7230  -87.4920 N   0  0  0  0  0  0  0  0  0  0  0  0
  112.3684  -79.0343  -85.7444 C   0  0  0  0  0  0  0  0  0  0  0  0
  111.3017  -74.3278  -80.7583 N   0  0  0  0  0  0  0  0  0  0  0  0
  111.9441  -77.3626  -84.1089 O   0  0  0  0  0  0  0  0  0  0  0  0
  111.7817  -77.7860  -85.5280 C   0  0  2  0  0  0  0  0  0  0  0  0
  111.3961  -76.2264  -83.9179 C   0  0  1  0  0  0  0  0  0  0  0  0
  111.6181  -75.8966  -82.5102 C   0  0  0  0  0  0  0  0  0  0  0  0
  111.0531  -74.6349  -82.1071 C   0  0  2  0  0  0  0  0  0  0  0  0
  110.3359  -73.7990  -82.9984 C   0  0  0  0  0  0  0  0  0  0  0  0
  110.1583  -74.1799  -84.3873 C   0  0  0  0  0  0  0  0  0  0  0  0
  110.7285  -75.4332  -84.8169 C   0  0  2  0  0  0  0  0  0  0  0  0
  110.5115  -75.7450  -86.2790 C   0  0  1  0  0  0  0  0  0  0  0  0
  111.1210  -76.9989  -86.4647 C   0  0  2  0  0  0  0  0  0  0  0  0
  111.0051  -77.4783  -87.8438 C   0  0  0  0  0  0  0  0  0  0  0  0
  111.5951  -78.7560  -88.0921 C   0  0  0  0  0  0  0  0  0  0  0  0
  109.8371  -74.8990  -87.1389 C   0  0  0  0  0  0  0  0  0  0  0  0
  108.7629  -75.2700  -87.9809 C   0  0  0  0  0  0  0  0  0  0  0  0
  108.0595  -74.4258  -88.8419 C   0  0  0  0  0  0  0  0  0  0  0  0
  108.4198  -73.0181  -88.9223 C   0  0  0  0  0  0  0  0  0  0  0  0
  109.5043  -72.6819  -88.0769 C   0  0  0  0  0  0  0  0  0  0  0  0
  110.2396  -73.4942  -87.2027 C   0  0  0  0  0  0  0  0  0  0  0  0
  112.8546  -81.1379  -88.8893 C   0  0  0  0  0  0  0  0  0  0  0  0
  113.3113  -81.7562  -86.5855 C   0  0  0  0  0  0  0  0  0  0  0  0
  111.9507  -75.1029  -79.6774 C   0  0  0  0  0  0  0  0  0  0  0  0
  110.8674  -72.9718  -80.2687 C   0  0  0  0  0  0  0  0  0  0  0  0
  1  2  1  6  0  0  0
  1  3  1  0  0  0  0
  1 16  1  0  0  0  0
  2 23  1  0  0  0  0
  2 24  1  0  0  0  0
  4 25  1  0  0  0  0
  4 26  1  0  0  0  0
  5  6  1  0  0  0  0
  6  3  1  1  0  0  0
  6 14  1  0  0  0  0
  7  5  1  6  0  0  0
  7  8  1  0  0  0  0
  7 12  1  0  0  0  0
  8  9  1  0  0  0  0
  9  4  1  6  0  0  0
  9 10  1  0  0  0  0
 10 11  1  0  0  0  0
 12 11  1  1  0  0  0
 12 13  1  0  0  0  0
 13 14  1  0  0  0  0
 13 17  1  1  0  0  0
 14 15  1  1  0  0  0
 15 16  1  0  0  0  0
 17 18  1  0  0  0  0
 17 22  1  0  0  0  0
 18 19  1  0  0  0  0
 19 20  1  0  0  0  0
 20 21  1  0  0  0  0
 21 22  1  0  0  0  0
M  END
>  <CHROM.1>
-169.92518636,-4.75021527,-128.26929775,111.05930980,-76.33789789,-85.43411243
-1.24731053,-1.04630673,1.06938091

>  <Name>
ligand

>  <RI>
0

>  <Rbt.Current_Directory>
/home/itssahil/PROJECTS/Mol_Feturizer/Test_systems_manuscript/rnas/1f1t

>  <Rbt.Executable>
rbdock ($Id: //depot/dev/client3/rdock/2013.1/src/exe/rbdock.cxx#4 $)

>  <Rbt.Library>
libRbt.so (2013.1, Build901 2013/11/27)

>  <Rbt.Parameter_File>
/export/apps/rDock/src/rDock_2013.1_src/data/scripts/dock_solv.prm

>  <Rbt.Receptor>
prm/pocket_docking_7.prm

>  <SCORE>
-55.7485

>  <SCORE.INTER>
-56.2569

>  <SCORE.INTER.CONST>
1

>  <SCORE.INTER.POLAR>
0

>  <SCORE.INTER.ROT>
3

>  <SCORE.INTER.SOLV>
8.86398

>  <SCORE.INTER.VDW>
-46.0592

>  <SCORE.INTER.norm>
-2.16373

>  <SCORE.INTRA>
0.508377

>  <SCORE.INTRA.DIHEDRAL>
2.50737e-06

>  <SCORE.INTRA.DIHEDRAL.0>
3.60016

>  <SCORE.INTRA.POLAR>
0

>  <SCORE.INTRA.POLAR.0>
0

>  <SCORE.INTRA.REPUL>
0

>  <SCORE.INTRA.REPUL.0>
0

>  <SCORE.INTRA.SOLV>
4.27226e-05

>  <SCORE.INTRA.SOLV.lig_0>
-10.9882

>  <SCORE.INTRA.VDW>
0.508355

>  <SCORE.INTRA.VDW.0>
1.84442

>  <SCORE.INTRA.norm>
0.019553

>  <SCORE.RESTR>
0

>  <SCORE.RESTR.CAVITY>
0

>  <SCORE.RESTR.norm>
0

>  <SCORE.SYSTEM>
0

>  <SCORE.SYSTEM.CONST>
0

>  <SCORE.SYSTEM.DIHEDRAL>
0

>  <SCORE.SYSTEM.SOLV>
0

>  <SCORE.SYSTEM.norm>
0

>  <SCORE.heavy>
26

>  <SCORE.norm>
-2.14417

>  <RMSD>
0.747

$$$$
ligand
 OpenBabel02271912153D
libRbt.so/2013.1/901 2013/11/27
 26 29  0  0  0  0  0  0  0  0999 V2000
  112.2565  -79.4752  -87.1507 C   0  0  1  0  0  0  0  0  0  0  0  0
  112.7912  -80.6966  -87.5346 N   0  0  0  0  0  0  0  0  0  0  0  0
  112.3823  -79.0263  -85.7719 C   0  0  0  0  0  0  0  0  0  0  0  0
  111.2856  -74.3720  -80.7434 N   0  0  0  0  0  0  0  0  0  0  0  0
  111.9478  -77.3719  -84.1214 O   0  0  0  0  0  0  0  0  0  0  0  0
  111.7914  -77.7818  -85.5452 C   0  0  2  0  0  0  0  0  0  0  0  0
  111.3960  -76.2391  -83.9212 C   0  0  1  0  0  0  0  0  0  0  0  0
  111.6123  -75.9226  -82.5096 C   0  0  0  0  0  0  0  0  0  0  0  0
  111.0425  -74.6664  -82.0960 C   0  0  2  0  0  0  0  0  0  0  0  0
  110.3261  -73.8237  -82.9815 C   0  0  0  0  0  0  0  0  0  0  0  0
  110.1543  -74.1914  -84.3747 C   0  0  0  0  0  0  0  0  0  0  0  0
  110.7294  -75.4389  -84.8147 C   0  0  2  0  0  0  0  0  0  0  0  0
  110.5182  -75.7369  -86.2805 C   0  0  1  0  0  0  0  0  0  0  0  0
  111.1318  -76.9872  -86.4764 C   0  0  2  0  0  0  0  0  0  0  0  0
  111.0220  -77.4533  -87.8605 C   0  0  0  0  0  0  0  0  0  0  0  0
  111.6163  -78.7270  -88.1193 C   0  0  0  0  0  0  0  0  0  0  0  0
  109.8445  -74.8842  -87.1344 C   0  0  0  0  0  0  0  0  0  0  0  0
  108.7647  -75.2466  -87.9729 C   0  0  0  0  0  0  0  0  0  0  0  0
  108.0620  -74.3957  -88.8278 C   0  0  0  0  0  0  0  0  0  0  0  0
  108.4292  -72.9896  -88.9047 C   0  0  0  0  0  0  0  0  0  0  0  0
  109.5192  -72.6621  -88.0629 C   0  0  0  0  0  0  0  0  0  0  0  0
  110.2541  -73.4814  -87.1949 C   0  0  0  0  0  0  0  0  0  0  0  0
  112.9225  -81.0805  -88.9373 C   0  0  0  0  0  0  0  0  0  0  0  0
  113.2995  -81.7536  -86.6345 C   0  0  0  0  0  0  0  0  0  0  0  0
  111.9124  -75.1648  -79.6623 C   0  0  0  0  0  0  0  0  0  0  0  0
  110.8710  -73.0117  -80.2488 C   0  0  0  0  0  0  0  0  0  0  0  0
  1  2  1  6  0  0  0
  1  3  1  0  0  0  0
  1 16  1  0  0  0  0
  2 23  1  0  0  0  0
  2 24  1  0  0  0  0
  4 25  1  0  0  0  0
  4 26  1  0  0  0  0
  5  6  1  0  0  0  0
  6  3  1  1  0  0  0
  6 14  1  0  0  0  0
  7  5  1  6  0  0  0
  7  8  1  0  0  0  0
  7 12  1  0  0  0  0
  8  9  1  0  0  0  0
  9  4  1  6  0  0  0
  9 10  1  0  0  0  0
 10 11  1  0  0  0  0
 12 11  1  1  0  0  0
 12 13  1  0  0  0  0
 13 14  1  0  0  0  0
 13 17  1  1  0  0  0
 14 15  1  1  0  0  0
 15 16  1  0  0  0  0
 17 18  1  0  0  0  0
 17 22  1  0  0  0  0
 18 19  1  0  0  0  0
 19 20  1  0  0  0  0
 20 21  1  0  0  0  0
 21 22  1  0  0  0  0
M  END
>  <CHROM.1>
-168.01855647,-5.94846066,-127.53644224,111.06516149,-76.33648573,-85.43969133
-1.23796900,-1.04647155,1.08735101

>  <Name>
ligand

>  <RI>
0

>  <Rbt.Current_Directory>
/home/itssahil/PROJECTS/Mol_Feturizer/Test_systems_manuscript/rnas/1f1t

>  <Rbt.Executable>
rbdock ($Id: //depot/dev/client3/rdock/2013.1/src/exe/rbdock.cxx#4 $)

>  <Rbt.Library>
libRbt.so (2013.1, Build901 2013/11/27)

>  <Rbt.Parameter_File>
/export/apps/rDock/src/rDock_2013.1_src/data/scripts/dock_solv.prm

>  <Rbt.Receptor>
prm/pocket_docking_2.prm

>  <SCORE>
-55.771

>  <SCORE.INTER>
-56.1969

>  <SCORE.INTER.CONST>
1

>  <SCORE.INTER.POLAR>
0

>  <SCORE.INTER.ROT>
3

>  <SCORE.INTER.SOLV>
8.88117

>  <SCORE.INTER.VDW>
-46.025

>  <SCORE.INTER.norm>
-2.16142

>  <SCORE.INTRA>
0.425934

>  <SCORE.INTRA.DIHEDRAL>
-5.6709e-06

>  <SCORE.INTRA.DIHEDRAL.0>
3.60016

>  <SCORE.INTRA.POLAR>
0

>  <SCORE.INTRA.POLAR.0>
0

>  <SCORE.INTRA.REPUL>
0

>  <SCORE.INTRA.REPUL.0>
0

>  <SCORE.INTRA.SOLV>
6.30942e-05

>  <SCORE.INTRA.SOLV.lig_0>
-10.9882

>  <SCORE.INTRA.VDW>
0.425906

>  <SCORE.INTRA.VDW.0>
1.84442

>  <SCORE.INTRA.norm>
0.0163821

>  <SCORE.RESTR>
0

>  <SCORE.RESTR.CAVITY>
0

>  <SCORE.RESTR.norm>
0

>  <SCORE.SYSTEM>
0

>  <SCORE.SYSTEM.CONST>
0

>  <SCORE.SYSTEM.DIHEDRAL>
0

>  <SCORE.SYSTEM.SOLV>
0

>  <SCORE.SYSTEM.norm>
0

>  <SCORE.heavy>
26

>  <SCORE.norm>
-2.14504

>  <RMSD>
0.748

$$$$
ligand
 OpenBabel02271912153D
libRbt.so/2013.1/901 2013/11/27
 26 29  0  0  0  0  0  0  0  0999 V2000
  112.2342  -79.4901  -87.1480 C   0  0  1  0  0  0  0  0  0  0  0  0
  112.7599  -80.7158  -87.5306 N   0  0  0  0  0  0  0  0  0  0  0  0
  112.3687  -79.0379  -85.7711 C   0  0  0  0  0  0  0  0  0  0  0  0
  111.3220  -74.3623  -80.7518 N   0  0  0  0  0  0  0  0  0  0  0  0
  111.9514  -77.3761  -84.1237 O   0  0  0  0  0  0  0  0  0  0  0  0
  111.7863  -77.7892  -85.5456 C   0  0  2  0  0  0  0  0  0  0  0  0
  111.4073  -76.2394  -83.9244 C   0  0  1  0  0  0  0  0  0  0  0  0
  111.6316  -75.9200  -82.5147 C   0  0  0  0  0  0  0  0  0  0  0  0
  111.0712  -74.6592  -82.1024 C   0  0  2  0  0  0  0  0  0  0  0  0
  110.3560  -73.8149  -82.9873 C   0  0  0  0  0  0  0  0  0  0  0  0
  110.1759  -74.1857  -84.3786 C   0  0  0  0  0  0  0  0  0  0  0  0
  110.7415  -75.4378  -84.8173 C   0  0  2  0  0  0  0  0  0  0  0  0
  110.5222  -75.7389  -86.2813 C   0  0  1  0  0  0  0  0  0  0  0  0
  111.1274  -76.9935  -86.4762 C   0  0  2  0  0  0  0  0  0  0  0  0
  111.0087  -77.4629  -87.8584 C   0  0  0  0  0  0  0  0  0  0  0  0
  111.5942  -78.7409  -88.1161 C   0  0  0  0  0  0  0  0  0  0  0  0
  109.8498  -74.8847  -87.1348 C   0  0  0  0  0  0  0  0  0  0  0  0
  108.7634  -75.2428  -87.9665 C   0  0  0  0  0  0  0  0  0  0  0  0
  108.0619  -74.3901  -88.8208 C   0  0  0  0  0  0  0  0  0  0  0  0
  108.4382  -72.9869  -88.9046 C   0  0  0  0  0  0  0  0  0  0  0  0
  109.5347  -72.6637  -88.0696 C   0  0  0  0  0  0  0  0  0  0  0  0
  110.2685  -73.4849  -87.2024 C   0  0  0  0  0  0  0  0  0  0  0  0
  112.8509  -81.1188  -88.9312 C   0  0  0  0  0  0  0  0  0  0  0  0
  113.2963  -81.7595  -86.6313 C   0  0  0  0  0  0  0  0  0  0  0  0
  111.9515  -75.1546  -79.6718 C   0  0  0  0  0  0  0  0  0  0  0  0
  110.9144  -72.9994  -80.2584 C   0  0  0  0  0  0  0  0  0  0  0  0
  1  2  1  6  0  0  0
  1  3  1  0  0  0  0
  1 16  1  0  0  0  0
  2 23  1  0  0  0  0
  2 24  1  0  0  0  0
  4 25  1  0  0  0  0
  4 26  1  0  0  0  0
  5  6  1  0  0  0  0
  6  3  1  1  0  0  0
  6 14  1  0  0  0  0
  7  5  1  6  0  0  0
  7  8  1  0  0  0  0
  7 12  1  0  0  0  0
  8  9  1  0  0  0  0
  9  4  1  6  0  0  0
  9 10  1  0  0  0  0
 10 11  1  0  0  0  0
 12 11  1  1  0  0  0
 12 13  1  0  0  0  0
 13 14  1  0  0  0  0
 13 17  1  1  0  0  0
 14 15  1  1  0  0  0
 15 16  1  0  0  0  0
 17 18  1  0  0  0  0
 17 22  1  0  0  0  0
 18 19  1  0  0  0  0
 19 20  1  0  0  0  0
 20 21  1  0  0  0  0
 21 22  1  0  0  0  0
M  END
>  <CHROM.1>
-169.63174440,-5.79076211,-127.46779983,111.06911030,-76.33929962,-85.44116689
-1.25205967,-1.04923401,1.07216845

>  <Name>
ligand

>  <RI>
0

>  <Rbt.Current_Directory>
/home/itssahil/PROJECTS/Mol_Feturizer/Test_systems_manuscript/rnas/1f1t

>  <Rbt.Executable>
rbdock ($Id: //depot/dev/client3/rdock/2013.1/src/exe/rbdock.cxx#4 $)

>  <Rbt.Library>
libRbt.so (2013.1, Build901 2013/11/27)

>  <Rbt.Parameter_File>
/export/apps/rDock/src/rDock_2013.1_src/data/scripts/dock_solv.prm

>  <Rbt.Receptor>
prm/pocket_docking_2.prm

>  <SCORE>
-55.7898

>  <SCORE.INTER>
-56.2539

>  <SCORE.INTER.CONST>
1

>  <SCORE.INTER.POLAR>
0

>  <SCORE.INTER.ROT>
3

>  <SCORE.INTER.SOLV>
8.85662

>  <SCORE.INTER.VDW>
-46.0548

>  <SCORE.INTER.norm>
-2.16361

>  <SCORE.INTRA>
0.464158

>  <SCORE.INTRA.DIHEDRAL>
-4.8122e-06

>  <SCORE.INTRA.DIHEDRAL.0>
3.60016

>  <SCORE.INTRA.POLAR>
0

>  <SCORE.INTRA.POLAR.0>
0

>  <SCORE.INTRA.REPUL>
0

>  <SCORE.INTRA.REPUL.0>
0

>  <SCORE.INTRA.SOLV>
4.69255e-05

>  <SCORE.INTRA.SOLV.lig_0>
-10.9882

>  <SCORE.INTRA.VDW>
0.464137

>  <SCORE.INTRA.VDW.0>
1.84442

>  <SCORE.INTRA.norm>
0.0178522

>  <SCORE.RESTR>
0

>  <SCORE.RESTR.CAVITY>
0

>  <SCORE.RESTR.norm>
0

>  <SCORE.SYSTEM>
0

>  <SCORE.SYSTEM.CONST>
0

>  <SCORE.SYSTEM.DIHEDRAL>
0

>  <SCORE.SYSTEM.SOLV>
0

>  <SCORE.SYSTEM.norm>
0

>  <SCORE.heavy>
26

>  <SCORE.norm>
-2.14576

>  <RMSD>
0.748

$$$$
ligand
 OpenBabel02271912153D
libRbt.so/2013.1/901 2013/11/27
 26 29  0  0  0  0  0  0  0  0999 V2000
  111.1619  -74.7073  -82.0302 C   0  0  1  0  0  0  0  0  0  0  0  0
  111.3290  -74.3445  -80.7014 N   0  0  0  0  0  0  0  0  0  0  0  0
  111.6839  -75.9788  -82.5090 C   0  0  0  0  0  0  0  0  0  0  0  0
  112.7206  -80.6471  -87.5372 N   0  0  0  0  0  0  0  0  0  0  0  0
  111.9928  -77.5072  -84.3029 O   0  0  0  0  0  0  0  0  0  0  0  0
  111.4378  -76.1954  -83.8662 C   0  0  2  0  0  0  0  0  0  0  0  0
  111.7727  -77.6919  -85.5461 C   0  0  1  0  0  0  0  0  0  0  0  0
  112.3406  -78.9999  -85.8721 C   0  0  0  0  0  0  0  0  0  0  0  0
  112.1911  -79.3764  -87.2539 C   0  0  2  0  0  0  0  0  0  0  0  0
  111.5599  -78.5421  -88.2094 C   0  0  0  0  0  0  0  0  0  0  0  0
  111.0082  -77.2579  -87.8193 C   0  0  0  0  0  0  0  0  0  0  0  0
  111.1336  -76.8665  -86.4368 C   0  0  2  0  0  0  0  0  0  0  0  0
  110.5192  -75.5249  -86.1133 C   0  0  1  0  0  0  0  0  0  0  0  0
  110.7750  -75.3430  -84.7423 C   0  0  2  0  0  0  0  0  0  0  0  0
  110.2509  -74.0712  -84.2396 C   0  0  0  0  0  0  0  0  0  0  0  0
  110.4919  -73.8229  -82.8529 C   0  0  0  0  0  0  0  0  0  0  0  0
  109.8784  -74.7419  -87.0547 C   0  0  0  0  0  0  0  0  0  0  0  0
  108.8571  -75.1804  -87.9295 C   0  0  0  0  0  0  0  0  0  0  0  0
  108.1874  -74.3998  -88.8734 C   0  0  0  0  0  0  0  0  0  0  0  0
  108.5286  -72.9923  -89.0153 C   0  0  0  0  0  0  0  0  0  0  0  0
  109.5606  -72.5881  -88.1347 C   0  0  0  0  0  0  0  0  0  0  0  0
  110.2610  -73.3355  -87.1778 C   0  0  0  0  0  0  0  0  0  0  0  0
  112.0057  -75.2097  -79.7393 C   0  0  0  0  0  0  0  0  0  0  0  0
  110.8815  -73.0830  -80.0735 C   0  0  0  0  0  0  0  0  0  0  0  0
  112.9063  -81.3721  -88.8140 C   0  0  0  0  0  0  0  0  0  0  0  0
  113.2225  -81.4599  -86.3733 C   0  0  0  0  0  0  0  0  0  0  0  0
  1  2  1  1  0  0  0
  1  3  1  0  0  0  0
  1 16  1  0  0  0  0
  2 23  1  0  0  0  0
  2 24  1  0  0  0  0
  4 25  1  0  0  0  0
  4 26  1  0  0  0  0
  5  6  1  0  0  0  0
  6  3  1  6  0  0  0
  6 14  1  0  0  0  0
  7  5  1  1  0  0  0
  7  8  1  0  0  0  0
  7 12  1  0  0  0  0
  8  9  1  0  0  0  0
  9  4  1  1  0  0  0
  9 10  1  0  0  0  0
 10 11  1  0  0  0  0
 12 11  1  6  0  0  0
 12 13  1  0  0  0  0
 13 14  1  0  0  0  0
 13 17  1  6  0  0  0
 14 15  1  6  0  0  0
 15 16  1  0  0  0  0
 17 18  1  0  0  0  0
 17 22  1  0  0  0  0
 18 19  1  0  0  0  0
 19 20  1  0  0  0  0
 20 21  1  0  0  0  0
 21 22  1  0  0  0  0
M  END
>  <CHROM.1>
-0.79827939,-173.25255868,50.82929064,111.09365034,-76.29023110,-85.41324710
-1.86876538,1.06346372,-2.06120772

>  <Name>
ligand

>  <RI>
0

>  <Rbt.Current_Directory>
/home/itssahil/PROJECTS/Mol_Feturizer/Test_systems_manuscript/rnas/1f1t

>  <Rbt.Executable>
rbdock ($Id: //depot/dev/client3/rdock/2013.1/src/exe/rbdock.cxx#4 $)

>  <Rbt.Library>
libRbt.so (2013.1, Build901 2013/11/27)

>  <Rbt.Parameter_File>
/export/apps/rDock/src/rDock_2013.1_src/data/scripts/dock_solv.prm

>  <Rbt.Receptor>
prm/pocket_docking_4.prm

>  <SCORE>
-53.7431

>  <SCORE.INTER>
-56.3226

>  <SCORE.INTER.CONST>
1

>  <SCORE.INTER.POLAR>
0

>  <SCORE.INTER.ROT>
3

>  <SCORE.INTER.SOLV>
9.02594

>  <SCORE.INTER.VDW>
-46.157

>  <SCORE.INTER.norm>
-2.16625

>  <SCORE.INTRA>
2.57945

>  <SCORE.INTRA.DIHEDRAL>
-0.000308927

>  <SCORE.INTRA.DIHEDRAL.0>
3.60016

>  <SCORE.INTRA.POLAR>
0

>  <SCORE.INTRA.POLAR.0>
0

>  <SCORE.INTRA.REPUL>
0

>  <SCORE.INTRA.REPUL.0>
0

>  <SCORE.INTRA.SOLV>
-0.000992176

>  <SCORE.INTRA.SOLV.lig_0>
-10.9882

>  <SCORE.INTRA.VDW>
2.5801

>  <SCORE.INTRA.VDW.0>
1.84442

>  <SCORE.INTRA.norm>
0.0992096

>  <SCORE.RESTR>
0

>  <SCORE.RESTR.CAVITY>
0

>  <SCORE.RESTR.norm>
0

>  <SCORE.SYSTEM>
0

>  <SCORE.SYSTEM.CONST>
0

>  <SCORE.SYSTEM.DIHEDRAL>
0

>  <SCORE.SYSTEM.SOLV>
0

>  <SCORE.SYSTEM.norm>
0

>  <SCORE.heavy>
26

>  <SCORE.norm>
-2.06704

>  <RMSD>
0.748

$$$$
ligand
 OpenBabel02271912153D
libRbt.so/2013.1/901 2013/11/27
 26 29  0  0  0  0  0  0  0  0999 V2000
  112.2472  -79.4770  -87.1592 C   0  0  1  0  0  0  0  0  0  0  0  0
  112.7762  -80.7004  -87.5450 N   0  0  0  0  0  0  0  0  0  0  0  0
  112.3788  -79.0289  -85.7808 C   0  0  0  0  0  0  0  0  0  0  0  0
  111.3150  -74.3715  -80.7481 N   0  0  0  0  0  0  0  0  0  0  0  0
  111.9556  -77.3732  -84.1287 O   0  0  0  0  0  0  0  0  0  0  0  0
  111.7933  -77.7822  -85.5520 C   0  0  2  0  0  0  0  0  0  0  0  0
  111.4087  -76.2384  -83.9266 C   0  0  1  0  0  0  0  0  0  0  0  0
  111.6304  -75.9229  -82.5155 C   0  0  0  0  0  0  0  0  0  0  0  0
  111.0666  -74.6648  -82.1000 C   0  0  2  0  0  0  0  0  0  0  0  0
  110.3506  -73.8193  -82.9832 C   0  0  0  0  0  0  0  0  0  0  0  0
  110.1731  -74.1861  -84.3759 C   0  0  0  0  0  0  0  0  0  0  0  0
  110.7422  -75.4356  -84.8178 C   0  0  2  0  0  0  0  0  0  0  0  0
  110.5254  -75.7325  -86.2830 C   0  0  1  0  0  0  0  0  0  0  0  0
  111.1337  -76.9851  -86.4811 C   0  0  2  0  0  0  0  0  0  0  0  0
  111.0179  -77.4505  -87.8649 C   0  0  0  0  0  0  0  0  0  0  0  0
  111.6067  -78.7263  -88.1258 C   0  0  0  0  0  0  0  0  0  0  0  0
  109.8522  -74.8773  -87.1347 C   0  0  0  0  0  0  0  0  0  0  0  0
  108.7676  -75.2352  -87.9689 C   0  0  0  0  0  0  0  0  0  0  0  0
  108.0654  -74.3814  -88.8215 C   0  0  0  0  0  0  0  0  0  0  0  0
  108.4385  -72.9771  -88.9004 C   0  0  0  0  0  0  0  0  0  0  0  0
  109.5332  -72.6540  -88.0629 C   0  0  0  0  0  0  0  0  0  0  0  0
  110.2678  -73.4763  -87.1974 C   0  0  0  0  0  0  0  0  0  0  0  0
  113.2954  -81.6621  -86.5766 C   0  0  0  0  0  0  0  0  0  0  0  0
  112.8877  -81.2111  -88.9279 C   0  0  0  0  0  0  0  0  0  0  0  0
  111.9553  -75.1613  -79.6727 C   0  0  0  0  0  0  0  0  0  0  0  0
  110.8911  -73.0162  -80.2476 C   0  0  0  0  0  0  0  0  0  0  0  0
  1  2  1  6  0  0  0
  1  3  1  0  0  0  0
  1 16  1  0  0  0  0
  2 23  1  0  0  0  0
  2 24  1  0  0  0  0
  4 25  1  0  0  0  0
  4 26  1  0  0  0  0
  5  6  1  0  0  0  0
  6  3  1  1  0  0  0
  6 14  1  0  0  0  0
  7  5  1  6  0  0  0
  7  8  1  0  0  0  0
  7 12  1  0  0  0  0
  8  9  1  0  0  0  0
  9  4  1  6  0  0  0
  9 10  1  0  0  0  0
 10 11  1  0  0  0  0
 12 11  1  1  0  0  0
 12 13  1  0  0  0  0
 13 14  1  0  0  0  0
 13 17  1  1  0  0  0
 14 15  1  1  0  0  0
 15 16  1  0  0  0  0
 17 18  1  0  0  0  0
 17 22  1  0  0  0  0
 18 19  1  0  0  0  0
 19 20  1  0  0  0  0
 20 21  1  0  0  0  0
 21 22  1  0  0  0  0
M  END
>  <CHROM.1>
9.31412607,-5.19141242,-127.46869756,111.07251533,-76.33566166,-85.43991850
-1.24663058,-1.04798455,1.07782593

>  <Name>
ligand

>  <RI>
0

>  <Rbt.Current_Directory>
/home/itssahil/PROJECTS/Mol_Feturizer/Test_systems_manuscript/rnas/1f1t

>  <Rbt.Executable>
rbdock ($Id: //depot/dev/client3/rdock/2013.1/src/exe/rbdock.cxx#4 $)

>  <Rbt.Library>
libRbt.so (2013.1, Build901 2013/11/27)

>  <Rbt.Parameter_File>
/export/apps/rDock/src/rDock_2013.1_src/data/scripts/dock_solv.prm

>  <Rbt.Receptor>
prm/pocket_docking_4.prm

>  <SCORE>
-55.9842

>  <SCORE.INTER>
-56.1858

>  <SCORE.INTER.CONST>
1

>  <SCORE.INTER.POLAR>
0

>  <SCORE.INTER.ROT>
3

>  <SCORE.INTER.SOLV>
8.90477

>  <SCORE.INTER.VDW>
-46.0255

>  <SCORE.INTER.norm>
-2.16099

>  <SCORE.INTRA>
0.201635

>  <SCORE.INTRA.DIHEDRAL>
-1.40262e-05

>  <SCORE.INTRA.DIHEDRAL.0>
3.60016

>  <SCORE.INTRA.POLAR>
0

>  <SCORE.INTRA.POLAR.0>
0

>  <SCORE.INTRA.REPUL>
0

>  <SCORE.INTRA.REPUL.0>
0

>  <SCORE.INTRA.SOLV>
3.66532e-05

>  <SCORE.INTRA.SOLV.lig_0>
-10.9882

>  <SCORE.INTRA.VDW>
0.201623

>  <SCORE.INTRA.VDW.0>
1.84442

>  <SCORE.INTRA.norm>
0.00775518

>  <SCORE.RESTR>
0

>  <SCORE.RESTR.CAVITY>
0

>  <SCORE.RESTR.norm>
0

>  <SCORE.SYSTEM>
0

>  <SCORE.SYSTEM.CONST>
0

>  <SCORE.SYSTEM.DIHEDRAL>
0

>  <SCORE.SYSTEM.SOLV>
0

>  <SCORE.SYSTEM.norm>
0

>  <SCORE.heavy>
26

>  <SCORE.norm>
-2.15324

>  <RMSD>
0.748

$$$$
ligand
 OpenBabel02271912153D
libRbt.so/2013.1/901 2013/11/27
 26 29  0  0  0  0  0  0  0  0999 V2000
  111.2550  -74.6007  -81.8948 C   0  0  1  0  0  0  0  0  0  0  0  0
  111.4339  -74.2578  -80.5623 N   0  0  0  0  0  0  0  0  0  0  0  0
  111.7517  -75.8753  -82.3918 C   0  0  0  0  0  0  0  0  0  0  0  0
  112.6833  -80.4978  -87.4824 N   0  0  0  0  0  0  0  0  0  0  0  0
  112.0257  -77.3863  -84.2060 O   0  0  0  0  0  0  0  0  0  0  0  0
  111.4965  -76.0702  -83.7505 C   0  0  2  0  0  0  0  0  0  0  0  0
  111.7974  -77.5512  -85.4505 C   0  0  1  0  0  0  0  0  0  0  0  0
  112.3400  -78.8651  -85.7952 C   0  0  0  0  0  0  0  0  0  0  0  0
  112.1783  -79.2214  -87.1811 C   0  0  2  0  0  0  0  0  0  0  0  0
  111.5588  -78.3636  -88.1234 C   0  0  0  0  0  0  0  0  0  0  0  0
  111.0321  -77.0746  -87.7149 C   0  0  0  0  0  0  0  0  0  0  0  0
  111.1701  -76.7031  -86.3281 C   0  0  2  0  0  0  0  0  0  0  0  0
  110.5816  -75.3547  -85.9853 C   0  0  1  0  0  0  0  0  0  0  0  0
  110.8460  -75.1949  -84.6131 C   0  0  2  0  0  0  0  0  0  0  0  0
  110.3472  -73.9201  -84.0923 C   0  0  0  0  0  0  0  0  0  0  0  0
  110.5980  -73.6938  -82.7036 C   0  0  0  0  0  0  0  0  0  0  0  0
  109.9516  -74.5482  -86.9141 C   0  0  0  0  0  0  0  0  0  0  0  0
  110.2747  -73.1976  -87.1820 C   0  0  0  0  0  0  0  0  0  0  0  0
  109.6612  -72.3741  -88.1277 C   0  0  0  0  0  0  0  0  0  0  0  0
  108.5806  -72.9013  -88.9476 C   0  0  0  0  0  0  0  0  0  0  0  0
  108.2743  -74.2504  -88.6474 C   0  0  0  0  0  0  0  0  0  0  0  0
  108.8589  -75.1104  -87.7075 C   0  0  0  0  0  0  0  0  0  0  0  0
  112.0209  -75.1808  -79.5949 C   0  0  0  0  0  0  0  0  0  0  0  0
  111.0868  -72.9649  -79.9349 C   0  0  0  0  0  0  0  0  0  0  0  0
  113.2589  -81.5553  -86.6218 C   0  0  0  0  0  0  0  0  0  0  0  0
  112.6430  -80.9326  -88.9234 C   0  0  0  0  0  0  0  0  0  0  0  0
  1  2  1  1  0  0  0
  1  3  1  0  0  0  0
  1 16  1  0  0  0  0
  2 23  1  0  0  0  0
  2 24  1  0  0  0  0
  4 25  1  0  0  0  0
  4 26  1  0  0  0  0
  5  6  1  0  0  0  0
  6  3  1  6  0  0  0
  6 14  1  0  0  0  0
  7  5  1  1  0  0  0
  7  8  1  0  0  0  0
  7 12  1  0  0  0  0
  8  9  1  0  0  0  0
  9  4  1  1  0  0  0
  9 10  1  0  0  0  0
 10 11  1  0  0  0  0
 12 11  1  6  0  0  0
 12 13  1  0  0  0  0
 13 14  1  0  0  0  0
 13 17  1  6  0  0  0
 14 15  1  6  0  0  0
 15 16  1  0  0  0  0
 17 18  1  0  0  0  0
 17 22  1  0  0  0  0
 18 19  1  0  0  0  0
 19 20  1  0  0  0  0
 20 21  1  0  0  0  0
 21 22  1  0  0  0  0
M  END
>  <CHROM.1>
-4.80520473,4.66965359,-126.25945269,111.13226793,-76.15303358,-85.32697410
-1.81238975,1.07440534,-2.07351439

>  <Name>
ligand

>  <RI>
0

>  <Rbt.Current_Directory>
/home/itssahil/PROJECTS/Mol_Feturizer/Test_systems_manuscript/rnas/1f1t

>  <Rbt.Executable>
rbdock ($Id: //depot/dev/client3/rdock/2013.1/src/exe/rbdock.cxx#4 $)

>  <Rbt.Library>
libRbt.so (2013.1, Build901 2013/11/27)

>  <Rbt.Parameter_File>
/export/apps/rDock/src/rDock_2013.1_src/data/scripts/dock_solv.prm

>  <Rbt.Receptor>
prm/pocket_docking_5.prm

>  <SCORE>
-56.4345

>  <SCORE.INTER>
-56.6612

>  <SCORE.INTER.CONST>
1

>  <SCORE.INTER.POLAR>
0

>  <SCORE.INTER.ROT>
3

>  <SCORE.INTER.SOLV>
9.24272

>  <SCORE.INTER.VDW>
-46.4551

>  <SCORE.INTER.norm>
-2.17928

>  <SCORE.INTRA>
0.226768

>  <SCORE.INTRA.DIHEDRAL>
-1.49106e-05

>  <SCORE.INTRA.DIHEDRAL.0>
3.60016

>  <SCORE.INTRA.POLAR>
0

>  <SCORE.INTRA.POLAR.0>
0

>  <SCORE.INTRA.REPUL>
0

>  <SCORE.INTRA.REPUL.0>
0

>  <SCORE.INTRA.SOLV>
1.90018e-05

>  <SCORE.INTRA.SOLV.lig_0>
-10.9882

>  <SCORE.INTRA.VDW>
0.226766

>  <SCORE.INTRA.VDW.0>
1.84442

>  <SCORE.INTRA.norm>
0.00872185

>  <SCORE.RESTR>
0

>  <SCORE.RESTR.CAVITY>
0

>  <SCORE.RESTR.norm>
0

>  <SCORE.SYSTEM>
0

>  <SCORE.SYSTEM.CONST>
0

>  <SCORE.SYSTEM.DIHEDRAL>
0

>  <SCORE.SYSTEM.SOLV>
0

>  <SCORE.SYSTEM.norm>
0

>  <SCORE.heavy>
26

>  <SCORE.norm>
-2.17056

>  <RMSD>
0.748

$$$$
ligand
 OpenBabel02271912153D
libRbt.so/2013.1/901 2013/11/27
 26 29  0  0  0  0  0  0  0  0999 V2000
  112.2236  -79.3978  -87.1436 C   0  0  1  0  0  0  0  0  0  0  0  0
  112.7230  -80.6292  -87.5426 N   0  0  0  0  0  0  0  0  0  0  0  0
  112.3509  -78.9751  -85.7566 C   0  0  0  0  0  0  0  0  0  0  0  0
  111.3560  -74.3691  -80.6630 N   0  0  0  0  0  0  0  0  0  0  0  0
  111.9539  -77.3343  -84.0834 O   0  0  0  0  0  0  0  0  0  0  0  0
  111.7975  -77.7163  -85.5149 C   0  0  2  0  0  0  0  0  0  0  0  0
  111.4363  -76.1879  -83.8695 C   0  0  1  0  0  0  0  0  0  0  0  0
  111.6496  -75.9009  -82.4512 C   0  0  0  0  0  0  0  0  0  0  0  0
  111.1159  -74.6341  -82.0222 C   0  0  2  0  0  0  0  0  0  0  0  0
  110.4345  -73.7552  -82.9000 C   0  0  0  0  0  0  0  0  0  0  0  0
  110.2639  -74.0950  -84.3004 C   0  0  0  0  0  0  0  0  0  0  0  0
  110.8033  -75.3529  -84.7556 C   0  0  2  0  0  0  0  0  0  0  0  0
  110.5961  -75.6207  -86.2278 C   0  0  1  0  0  0  0  0  0  0  0  0
  111.1717  -76.8866  -86.4387 C   0  0  2  0  0  0  0  0  0  0  0  0
  111.0598  -77.3268  -87.8310 C   0  0  0  0  0  0  0  0  0  0  0  0
  111.6160  -78.6144  -88.1054 C   0  0  0  0  0  0  0  0  0  0  0  0
  109.9574  -74.7337  -87.0735 C   0  0  0  0  0  0  0  0  0  0  0  0
  110.2659  -73.3598  -87.2069 C   0  0  0  0  0  0  0  0  0  0  0  0
  109.6435  -72.4540  -88.0678 C   0  0  0  0  0  0  0  0  0  0  0  0
  108.5686  -72.9096  -88.9366 C   0  0  0  0  0  0  0  0  0  0  0  0
  108.2769  -74.2849  -88.7708 C   0  0  0  0  0  0  0  0  0  0  0  0
  108.8709  -75.2269  -87.9194 C   0  0  0  0  0  0  0  0  0  0  0  0
  112.7936  -81.0204  -88.9477 C   0  0  0  0  0  0  0  0  0  0  0  0
  113.2483  -81.6912  -86.6583 C   0  0  0  0  0  0  0  0  0  0  0  0
  111.0659  -73.1829  -79.8269 C   0  0  0  0  0  0  0  0  0  0  0  0
  112.0088  -75.4577  -79.8532 C   0  0  0  0  0  0  0  0  0  0  0  0
  1  2  1  6  0  0  0
  1  3  1  0  0  0  0
  1 16  1  0  0  0  0
  2 23  1  0  0  0  0
  2 24  1  0  0  0  0
  4 25  1  0  0  0  0
  4 26  1  0  0  0  0
  5  6  1  0  0  0  0
  6  3  1  1  0  0  0
  6 14  1  0  0  0  0
  7  5  1  6  0  0  0
  7  8  1  0  0  0  0
  7 12  1  0  0  0  0
  8  9  1  0  0  0  0
  9  4  1  6  0  0  0
  9 10  1  0  0  0  0
 10 11  1  0  0  0  0
 12 11  1  1  0  0  0
 12 13  1  0  0  0  0
 13 14  1  0  0  0  0
 13 17  1  1  0  0  0
 14 15  1  1  0  0  0
 15 16  1  0  0  0  0
 17 18  1  0  0  0  0
 17 22  1  0  0  0  0
 18 19  1  0  0  0  0
 19 20  1  0  0  0  0
 20 21  1  0  0  0  0
 21 22  1  0  0  0  0
M  END
>  <CHROM.1>
-171.09471219,176.00609295,51.25554267,111.11571724,-76.28584894,-85.40032226
-1.28086714,-1.07372939,1.09064884

>  <Name>
ligand

>  <RI>
0

>  <Rbt.Current_Directory>
/home/itssahil/PROJECTS/Mol_Feturizer/Test_systems_manuscript/rnas/1f1t

>  <Rbt.Executable>
rbdock ($Id: //depot/dev/client3/rdock/2013.1/src/exe/rbdock.cxx#4 $)

>  <Rbt.Library>
libRbt.so (2013.1, Build901 2013/11/27)

>  <Rbt.Parameter_File>
/export/apps/rDock/src/rDock_2013.1_src/data/scripts/dock_solv.prm

>  <Rbt.Receptor>
prm/pocket_docking_6.prm

>  <SCORE>
-53.7843

>  <SCORE.INTER>
-56.5968

>  <SCORE.INTER.CONST>
1

>  <SCORE.INTER.POLAR>
0

>  <SCORE.INTER.ROT>
3

>  <SCORE.INTER.SOLV>
9.00147

>  <SCORE.INTER.VDW>
-46.3317

>  <SCORE.INTER.norm>
-2.1768

>  <SCORE.INTRA>
2.8125

>  <SCORE.INTRA.DIHEDRAL>
-0.000305141

>  <SCORE.INTRA.DIHEDRAL.0>
3.60016

>  <SCORE.INTRA.POLAR>
0

>  <SCORE.INTRA.POLAR.0>
0

>  <SCORE.INTRA.REPUL>
0

>  <SCORE.INTRA.REPUL.0>
0

>  <SCORE.INTRA.SOLV>
-0.000954438

>  <SCORE.INTRA.SOLV.lig_0>
-10.9882

>  <SCORE.INTRA.VDW>
2.81312

>  <SCORE.INTRA.VDW.0>
1.84442

>  <SCORE.INTRA.norm>
0.108173

>  <SCORE.RESTR>
0

>  <SCORE.RESTR.CAVITY>
0

>  <SCORE.RESTR.norm>
0

>  <SCORE.SYSTEM>
0

>  <SCORE.SYSTEM.CONST>
0

>  <SCORE.SYSTEM.DIHEDRAL>
0

>  <SCORE.SYSTEM.SOLV>
0

>  <SCORE.SYSTEM.norm>
0

>  <SCORE.heavy>
26

>  <SCORE.norm>
-2.06863

>  <RMSD>
0.748

$$$$
ligand
 OpenBabel02271912153D
libRbt.so/2013.1/901 2013/11/27
 26 29  0  0  0  0  0  0  0  0999 V2000
  112.2224  -79.3967  -87.1482 C   0  0  1  0  0  0  0  0  0  0  0  0
  112.7238  -80.6264  -87.5504 N   0  0  0  0  0  0  0  0  0  0  0  0
  112.3470  -78.9783  -85.7598 C   0  0  0  0  0  0  0  0  0  0  0  0
  111.3388  -74.3896  -80.6532 N   0  0  0  0  0  0  0  0  0  0  0  0
  111.9454  -77.3433  -84.0819 O   0  0  0  0  0  0  0  0  0  0  0  0
  111.7919  -77.7208  -85.5149 C   0  0  2  0  0  0  0  0  0  0  0  0
  111.4263  -76.1981  -83.8653 C   0  0  1  0  0  0  0  0  0  0  0  0
  111.6370  -75.9154  -82.4457 C   0  0  0  0  0  0  0  0  0  0  0  0
  111.1013  -74.6505  -82.0136 C   0  0  2  0  0  0  0  0  0  0  0  0
  110.4204  -73.7695  -82.8898 C   0  0  0  0  0  0  0  0  0  0  0  0
  110.2524  -74.1051  -84.2915 C   0  0  0  0  0  0  0  0  0  0  0  0
  110.7939  -75.3609  -84.7498 C   0  0  2  0  0  0  0  0  0  0  0  0
  110.5895  -75.6242  -86.2232 C   0  0  1  0  0  0  0  0  0  0  0  0
  111.1668  -76.8888  -86.4371 C   0  0  2  0  0  0  0  0  0  0  0  0
  111.0577  -77.3248  -87.8311 C   0  0  0  0  0  0  0  0  0  0  0  0
  111.6157  -78.6109  -88.1086 C   0  0  0  0  0  0  0  0  0  0  0  0
  109.9513  -74.7352  -87.0671 C   0  0  0  0  0  0  0  0  0  0  0  0
  110.2617  -73.3616  -87.1992 C   0  0  0  0  0  0  0  0  0  0  0  0
  109.6398  -72.4538  -88.0582 C   0  0  0  0  0  0  0  0  0  0  0  0
  108.5634  -72.9067  -88.9265 C   0  0  0  0  0  0  0  0  0  0  0  0
  108.2698  -74.2818  -88.7622 C   0  0  0  0  0  0  0  0  0  0  0  0
  108.8632  -75.2257  -87.9126 C   0  0  0  0  0  0  0  0  0  0  0  0
  112.7523  -81.0325  -88.9527 C   0  0  0  0  0  0  0  0  0  0  0  0
  113.2919  -81.6717  -86.6727 C   0  0  0  0  0  0  0  0  0  0  0  0
  111.9749  -75.2029  -79.5929 C   0  0  0  0  0  0  0  0  0  0  0  0
  110.9053  -73.0489  -80.1225 C   0  0  0  0  0  0  0  0  0  0  0  0
  1  2  1  6  0  0  0
  1  3  1  0  0  0  0
  1 16  1  0  0  0  0
  2 23  1  0  0  0  0
  2 24  1  0  0  0  0
  4 25  1  0  0  0  0
  4 26  1  0  0  0  0
  5  6  1  0  0  0  0
  6  3  1  1  0  0  0
  6 14  1  0  0  0  0
  7  5  1  6  0  0  0
  7  8  1  0  0  0  0
  7 12  1  0  0  0  0
  8  9  1  0  0  0  0
  9  4  1  6  0  0  0
  9 10  1  0  0  0  0
 10 11  1  0  0  0  0
 12 11  1  1  0  0  0
 12 13  1  0  0  0  0
 13 14  1  0  0  0  0
 13 17  1  1  0  0  0
 14 15  1  1  0  0  0
 15 16  1  0  0  0  0
 17 18  1  0  0  0  0
 17 22  1  0  0  0  0
 18 19  1  0  0  0  0
 19 20  1  0  0  0  0
 20 21  1  0  0  0  0
 21 22  1  0  0  0  0
M  END
>  <CHROM.1>
-173.36978279,-3.33839396,51.49393694,111.10119554,-76.27185673,-85.39946750
-1.26799704,-1.07207274,1.09332875

>  <Name>
ligand

>  <RI>
0

>  <Rbt.Current_Directory>
/home/itssahil/PROJECTS/Mol_Feturizer/Test_systems_manuscript/rnas/1f1t

>  <Rbt.Executable>
rbdock ($Id: //depot/dev/client3/rdock/2013.1/src/exe/rbdock.cxx#4 $)

>  <Rbt.Library>
libRbt.so (2013.1, Build901 2013/11/27)

>  <Rbt.Parameter_File>
/export/apps/rDock/src/rDock_2013.1_src/data/scripts/dock_solv.prm

>  <Rbt.Receptor>
prm/pocket_docking_8.prm

>  <SCORE>
-56.2371

>  <SCORE.INTER>
-56.7311

>  <SCORE.INTER.CONST>
1

>  <SCORE.INTER.POLAR>
0

>  <SCORE.INTER.ROT>
3

>  <SCORE.INTER.SOLV>
9.01215

>  <SCORE.INTER.VDW>
-46.4248

>  <SCORE.INTER.norm>
-2.18197

>  <SCORE.INTRA>
0.494022

>  <SCORE.INTRA.DIHEDRAL>
0.000284518

>  <SCORE.INTRA.DIHEDRAL.0>
3.60016

>  <SCORE.INTRA.POLAR>
0

>  <SCORE.INTRA.POLAR.0>
0

>  <SCORE.INTRA.REPUL>
0

>  <SCORE.INTRA.REPUL.0>
0

>  <SCORE.INTRA.SOLV>
1.61625e-05

>  <SCORE.INTRA.SOLV.lig_0>
-10.9882

>  <SCORE.INTRA.VDW>
0.493872

>  <SCORE.INTRA.VDW.0>
1.84442

>  <SCORE.INTRA.norm>
0.0190009

>  <SCORE.RESTR>
0

>  <SCORE.RESTR.CAVITY>
0

>  <SCORE.RESTR.norm>
0

>  <SCORE.SYSTEM>
0

>  <SCORE.SYSTEM.CONST>
0

>  <SCORE.SYSTEM.DIHEDRAL>
0

>  <SCORE.SYSTEM.SOLV>
0

>  <SCORE.SYSTEM.norm>
0

>  <SCORE.heavy>
26

>  <SCORE.norm>
-2.16296

>  <RMSD>
0.748

$$$$
ligand
 OpenBabel02271912153D
libRbt.so/2013.1/901 2013/11/27
 26 29  0  0  0  0  0  0  0  0999 V2000
  111.1988  -74.6818  -81.9473 C   0  0  1  0  0  0  0  0  0  0  0  0
  111.3649  -74.3399  -80.6129 N   0  0  0  0  0  0  0  0  0  0  0  0
  111.6935  -75.9593  -82.4388 C   0  0  0  0  0  0  0  0  0  0  0  0
  112.6543  -80.5874  -87.5190 N   0  0  0  0  0  0  0  0  0  0  0  0
  111.9787  -77.4720  -84.2499 O   0  0  0  0  0  0  0  0  0  0  0  0
  111.4521  -76.1528  -83.8003 C   0  0  2  0  0  0  0  0  0  0  0  0
  111.7632  -77.6356  -85.4968 C   0  0  1  0  0  0  0  0  0  0  0  0
  112.3019  -78.9526  -85.8356 C   0  0  0  0  0  0  0  0  0  0  0  0
  112.1534  -79.3080  -87.2232 C   0  0  2  0  0  0  0  0  0  0  0  0
  111.5493  -78.4467  -88.1722 C   0  0  0  0  0  0  0  0  0  0  0  0
  111.0257  -77.1547  -87.7695 C   0  0  0  0  0  0  0  0  0  0  0  0
  111.1505  -76.7839  -86.3813 C   0  0  2  0  0  0  0  0  0  0  0  0
  110.5660  -75.4321  -86.0449 C   0  0  1  0  0  0  0  0  0  0  0  0
  110.8162  -75.2737  -84.6700 C   0  0  2  0  0  0  0  0  0  0  0  0
  110.3192  -73.9961  -84.1546 C   0  0  0  0  0  0  0  0  0  0  0  0
  110.5560  -73.7712  -82.7633 C   0  0  0  0  0  0  0  0  0  0  0  0
  109.9510  -74.6221  -86.9806 C   0  0  0  0  0  0  0  0  0  0  0  0
  110.2632  -73.2640  -87.2226 C   0  0  0  0  0  0  0  0  0  0  0  0
  109.6649  -72.4365  -88.1745 C   0  0  0  0  0  0  0  0  0  0  0  0
  108.6144  -72.9671  -89.0304 C   0  0  0  0  0  0  0  0  0  0  0  0
  108.3181  -74.3239  -88.7557 C   0  0  0  0  0  0  0  0  0  0  0  0
  108.8882  -75.1882  -87.8109 C   0  0  0  0  0  0  0  0  0  0  0  0
  112.0086  -75.2356  -79.6560 C   0  0  0  0  0  0  0  0  0  0  0  0
  110.9482  -73.0738  -79.9732 C   0  0  0  0  0  0  0  0  0  0  0  0
  113.2179  -81.6466  -86.6526 C   0  0  0  0  0  0  0  0  0  0  0  0
  112.6229  -81.0239  -88.9596 C   0  0  0  0  0  0  0  0  0  0  0  0
  1  2  1  1  0  0  0
  1  3  1  0  0  0  0
  1 16  1  0  0  0  0
  2 23  1  0  0  0  0
  2 24  1  0  0  0  0
  4 25  1  0  0  0  0
  4 26  1  0  0  0  0
  5  6  1  0  0  0  0
  6  3  1  6  0  0  0
  6 14  1  0  0  0  0
  7  5  1  1  0  0  0
  7  8  1  0  0  0  0
  7 12  1  0  0  0  0
  8  9  1  0  0  0  0
  9  4  1  1  0  0  0
  9 10  1  0  0  0  0
 10 11  1  0  0  0  0
 12 11  1  6  0  0  0
 12 13  1  0  0  0  0
 13 14  1  0  0  0  0
 13 17  1  6  0  0  0
 14 15  1  6  0  0  0
 15 16  1  0  0  0  0
 17 18  1  0  0  0  0
 17 22  1  0  0  0  0
 18 19  1  0  0  0  0
 19 20  1  0  0  0  0
 20 21  1  0  0  0  0
 21 22  1  0  0  0  0
M  END
>  <CHROM.1>
-1.06764416,4.46041229,-127.87926763,111.10514885,-76.23353173,-85.38083540
-1.82700078,1.08355814,-2.06077059

>  <Name>
ligand

>  <RI>
0

>  <Rbt.Current_Directory>
/home/itssahil/PROJECTS/Mol_Feturizer/Test_systems_manuscript/rnas/1f1t

>  <Rbt.Executable>
rbdock ($Id: //depot/dev/client3/rdock/2013.1/src/exe/rbdock.cxx#4 $)

>  <Rbt.Library>
libRbt.so (2013.1, Build901 2013/11/27)

>  <Rbt.Parameter_File>
/export/apps/rDock/src/rDock_2013.1_src/data/scripts/dock_solv.prm

>  <Rbt.Receptor>
prm/pocket_docking_5.prm

>  <SCORE>
-56.4096

>  <SCORE.INTER>
-56.715

>  <SCORE.INTER.CONST>
1

>  <SCORE.INTER.POLAR>
0

>  <SCORE.INTER.ROT>
3

>  <SCORE.INTER.SOLV>
9.06265

>  <SCORE.INTER.VDW>
-46.4309

>  <SCORE.INTER.norm>
-2.18134

>  <SCORE.INTRA>
0.305374

>  <SCORE.INTRA.DIHEDRAL>
-9.43366e-06

>  <SCORE.INTRA.DIHEDRAL.0>
3.60016

>  <SCORE.INTRA.POLAR>
0

>  <SCORE.INTRA.POLAR.0>
0

>  <SCORE.INTRA.REPUL>
0

>  <SCORE.INTRA.REPUL.0>
0

>  <SCORE.INTRA.SOLV>
7.36833e-06

>  <SCORE.INTRA.SOLV.lig_0>
-10.9882

>  <SCORE.INTRA.VDW>
0.305375

>  <SCORE.INTRA.VDW.0>
1.84442

>  <SCORE.INTRA.norm>
0.0117452

>  <SCORE.RESTR>
0

>  <SCORE.RESTR.CAVITY>
0

>  <SCORE.RESTR.norm>
0

>  <SCORE.SYSTEM>
0

>  <SCORE.SYSTEM.CONST>
0

>  <SCORE.SYSTEM.DIHEDRAL>
0

>  <SCORE.SYSTEM.SOLV>
0

>  <SCORE.SYSTEM.norm>
0

>  <SCORE.heavy>
26

>  <SCORE.norm>
-2.1696

>  <RMSD>
0.749

$$$$
ligand
 OpenBabel02271912153D
libRbt.so/2013.1/901 2013/11/27
 26 29  0  0  0  0  0  0  0  0999 V2000
  112.2449  -79.4718  -87.1438 C   0  0  1  0  0  0  0  0  0  0  0  0
  112.7731  -80.6965  -87.5264 N   0  0  0  0  0  0  0  0  0  0  0  0
  112.3731  -79.0222  -85.7655 C   0  0  0  0  0  0  0  0  0  0  0  0
  111.3018  -74.3566  -80.7420 N   0  0  0  0  0  0  0  0  0  0  0  0
  111.9476  -77.3637  -84.1168 O   0  0  0  0  0  0  0  0  0  0  0  0
  111.7889  -77.7742  -85.5401 C   0  0  2  0  0  0  0  0  0  0  0  0
  111.4020  -76.2277  -83.9178 C   0  0  1  0  0  0  0  0  0  0  0  0
  111.6200  -75.9108  -82.5065 C   0  0  0  0  0  0  0  0  0  0  0  0
  111.0570  -74.6512  -82.0942 C   0  0  2  0  0  0  0  0  0  0  0  0
  110.3450  -73.8057  -82.9806 C   0  0  0  0  0  0  0  0  0  0  0  0
  110.1711  -74.1740  -84.3734 C   0  0  0  0  0  0  0  0  0  0  0  0
  110.7395  -75.4249  -84.8120 C   0  0  2  0  0  0  0  0  0  0  0  0
  110.5266  -75.7234  -86.2775 C   0  0  1  0  0  0  0  0  0  0  0  0
  111.1335  -76.9772  -86.4721 C   0  0  2  0  0  0  0  0  0  0  0  0
  111.0211  -77.4442  -87.8557 C   0  0  0  0  0  0  0  0  0  0  0  0
  111.6086  -78.7213  -88.1132 C   0  0  0  0  0  0  0  0  0  0  0  0
  109.8574  -74.8681  -87.1323 C   0  0  0  0  0  0  0  0  0  0  0  0
  108.7745  -75.2252  -87.9691 C   0  0  0  0  0  0  0  0  0  0  0  0
  108.0762  -74.3714  -88.8248 C   0  0  0  0  0  0  0  0  0  0  0  0
  108.4522  -72.9679  -88.9046 C   0  0  0  0  0  0  0  0  0  0  0  0
  109.5450  -72.6456  -88.0645 C   0  0  0  0  0  0  0  0  0  0  0  0
  110.2757  -73.4680  -87.1958 C   0  0  0  0  0  0  0  0  0  0  0  0
  113.2965  -81.6539  -86.5560 C   0  0  0  0  0  0  0  0  0  0  0  0
  112.8794  -81.2131  -88.9076 C   0  0  0  0  0  0  0  0  0  0  0  0
  111.9426  -75.1439  -79.6651 C   0  0  0  0  0  0  0  0  0  0  0  0
  110.8723  -73.0026  -80.2428 C   0  0  0  0  0  0  0  0  0  0  0  0
  1  2  1  6  0  0  0
  1  3  1  0  0  0  0
  1 16  1  0  0  0  0
  2 23  1  0  0  0  0
  2 24  1  0  0  0  0
  4 25  1  0  0  0  0
  4 26  1  0  0  0  0
  5  6  1  0  0  0  0
  6  3  1  1  0  0  0
  6 14  1  0  0  0  0
  7  5  1  6  0  0  0
  7  8  1  0  0  0  0
  7 12  1  0  0  0  0
  8  9  1  0  0  0  0
  9  4  1  6  0  0  0
  9 10  1  0  0  0  0
 10 11  1  0  0  0  0
 12 11  1  1  0  0  0
 12 13  1  0  0  0  0
 13 14  1  0  0  0  0
 13 17  1  1  0  0  0
 14 15  1  1  0  0  0
 15 16  1  0  0  0  0
 17 18  1  0  0  0  0
 17 22  1  0  0  0  0
 18 19  1  0  0  0  0
 19 20  1  0  0  0  0
 20 21  1  0  0  0  0
 21 22  1  0  0  0  0
M  END
>  <CHROM.1>
8.86553986,-4.89335646,-127.45174751,111.07016854,-76.32637205,-85.43198839
-1.24295703,-1.05062614,1.07973261

>  <Name>
ligand

>  <RI>
0

>  <Rbt.Current_Directory>
/home/itssahil/PROJECTS/Mol_Feturizer/Test_systems_manuscript/rnas/1f1t

>  <Rbt.Executable>
rbdock ($Id: //depot/dev/client3/rdock/2013.1/src/exe/rbdock.cxx#4 $)

>  <Rbt.Library>
libRbt.so (2013.1, Build901 2013/11/27)

>  <Rbt.Parameter_File>
/export/apps/rDock/src/rDock_2013.1_src/data/scripts/dock_solv.prm

>  <Rbt.Receptor>
prm/pocket_docking_5.prm

>  <SCORE>
-56.0215

>  <SCORE.INTER>
-56.233

>  <SCORE.INTER.CONST>
1

>  <SCORE.INTER.POLAR>
0

>  <SCORE.INTER.ROT>
3

>  <SCORE.INTER.SOLV>
8.9222

>  <SCORE.INTER.VDW>
-46.0627

>  <SCORE.INTER.norm>
-2.16281

>  <SCORE.INTRA>
0.211528

>  <SCORE.INTRA.DIHEDRAL>
-1.2896e-05

>  <SCORE.INTRA.DIHEDRAL.0>
3.60016

>  <SCORE.INTRA.POLAR>
0

>  <SCORE.INTRA.POLAR.0>
0

>  <SCORE.INTRA.REPUL>
0

>  <SCORE.INTRA.REPUL.0>
0

>  <SCORE.INTRA.SOLV>
3.26747e-05

>  <SCORE.INTRA.SOLV.lig_0>
-10.9882

>  <SCORE.INTRA.VDW>
0.211518

>  <SCORE.INTRA.VDW.0>
1.84442

>  <SCORE.INTRA.norm>
0.00813569

>  <SCORE.RESTR>
0

>  <SCORE.RESTR.CAVITY>
0

>  <SCORE.RESTR.norm>
0

>  <SCORE.SYSTEM>
0

>  <SCORE.SYSTEM.CONST>
0

>  <SCORE.SYSTEM.DIHEDRAL>
0

>  <SCORE.SYSTEM.SOLV>
0

>  <SCORE.SYSTEM.norm>
0

>  <SCORE.heavy>
26

>  <SCORE.norm>
-2.15467

>  <RMSD>
0.749

$$$$
ligand
 OpenBabel02271912153D
libRbt.so/2013.1/901 2013/11/27
 26 29  0  0  0  0  0  0  0  0999 V2000
  112.2435  -79.4709  -87.1345 C   0  0  1  0  0  0  0  0  0  0  0  0
  112.7741  -80.6953  -87.5147 N   0  0  0  0  0  0  0  0  0  0  0  0
  112.3732  -79.0170  -85.7577 C   0  0  0  0  0  0  0  0  0  0  0  0
  111.2994  -74.3401  -80.7453 N   0  0  0  0  0  0  0  0  0  0  0  0
  111.9466  -77.3551  -84.1128 O   0  0  0  0  0  0  0  0  0  0  0  0
  111.7862  -77.7700  -85.5347 C   0  0  2  0  0  0  0  0  0  0  0  0
  111.3983  -76.2199  -83.9159 C   0  0  1  0  0  0  0  0  0  0  0  0
  111.6182  -75.8985  -82.5060 C   0  0  0  0  0  0  0  0  0  0  0  0
  111.0527  -74.6392  -82.0962 C   0  0  2  0  0  0  0  0  0  0  0  0
  110.3368  -73.7980  -82.9836 C   0  0  0  0  0  0  0  0  0  0  0  0
  110.1612  -74.1707  -84.3750 C   0  0  0  0  0  0  0  0  0  0  0  0
  110.7320  -75.4214  -84.8112 C   0  0  2  0  0  0  0  0  0  0  0  0
  110.5170  -75.7246  -86.2754 C   0  0  1  0  0  0  0  0  0  0  0  0
  111.1268  -76.9774  -86.4676 C   0  0  2  0  0  0  0  0  0  0  0  0
  111.0129  -77.4485  -87.8497 C   0  0  0  0  0  0  0  0  0  0  0  0
  111.6033  -78.7248  -88.1048 C   0  0  0  0  0  0  0  0  0  0  0  0
  109.8439  -74.8735  -87.1312 C   0  0  0  0  0  0  0  0  0  0  0  0
  108.7635  -75.2369  -87.9685 C   0  0  0  0  0  0  0  0  0  0  0  0
  108.0613  -74.3874  -88.8253 C   0  0  0  0  0  0  0  0  0  0  0  0
  108.4299  -72.9820  -88.9060 C   0  0  0  0  0  0  0  0  0  0  0  0
  109.5205  -72.6534  -88.0654 C   0  0  0  0  0  0  0  0  0  0  0  0
  110.2549  -73.4712  -87.1955 C   0  0  0  0  0  0  0  0  0  0  0  0
  113.2575  -81.6688  -86.5395 C   0  0  0  0  0  0  0  0  0  0  0  0
  112.9219  -81.1959  -88.8979 C   0  0  0  0  0  0  0  0  0  0  0  0
  111.9298  -75.1290  -79.6633 C   0  0  0  0  0  0  0  0  0  0  0  0
  110.8851  -72.9786  -80.2539 C   0  0  0  0  0  0  0  0  0  0  0  0
  1  2  1  6  0  0  0
  1  3  1  0  0  0  0
  1 16  1  0  0  0  0
  2 23  1  0  0  0  0
  2 24  1  0  0  0  0
  4 25  1  0  0  0  0
  4 26  1  0  0  0  0
  5  6  1  0  0  0  0
  6  3  1  1  0  0  0
  6 14  1  0  0  0  0
  7  5  1  6  0  0  0
  7  8  1  0  0  0  0
  7 12  1  0  0  0  0
  8  9  1  0  0  0  0
  9  4  1  6  0  0  0
  9 10  1  0  0  0  0
 10 11  1  0  0  0  0
 12 11  1  1  0  0  0
 12 13  1  0  0  0  0
 13 14  1  0  0  0  0
 13 17  1  1  0  0  0
 14 15  1  1  0  0  0
 15 16  1  0  0  0  0
 17 18  1  0  0  0  0
 17 22  1  0  0  0  0
 18 19  1  0  0  0  0
 19 20  1  0  0  0  0
 20 21  1  0  0  0  0
 21 22  1  0  0  0  0
M  END
>  <CHROM.1>
11.13514450,-5.74170246,-127.69371781,111.06385046,-76.32372720,-85.42924548
-1.24323087,-1.04827123,1.07672355

>  <Name>
ligand

>  <RI>
0

>  <Rbt.Current_Directory>
/home/itssahil/PROJECTS/Mol_Feturizer/Test_systems_manuscript/rnas/1f1t

>  <Rbt.Executable>
rbdock ($Id: //depot/dev/client3/rdock/2013.1/src/exe/rbdock.cxx#4 $)

>  <Rbt.Library>
libRbt.so (2013.1, Build901 2013/11/27)

>  <Rbt.Parameter_File>
/export/apps/rDock/src/rDock_2013.1_src/data/scripts/dock_solv.prm

>  <Rbt.Receptor>
prm/pocket_docking_7.prm

>  <SCORE>
-55.9396

>  <SCORE.INTER>
-56.1083

>  <SCORE.INTER.CONST>
1

>  <SCORE.INTER.POLAR>
0

>  <SCORE.INTER.ROT>
3

>  <SCORE.INTER.SOLV>
8.8852

>  <SCORE.INTER.VDW>
-45.9673

>  <SCORE.INTER.norm>
-2.15801

>  <SCORE.INTRA>
0.168713

>  <SCORE.INTRA.DIHEDRAL>
-1.54733e-05

>  <SCORE.INTRA.DIHEDRAL.0>
3.60016

>  <SCORE.INTRA.POLAR>
0

>  <SCORE.INTRA.POLAR.0>
0

>  <SCORE.INTRA.REPUL>
0

>  <SCORE.INTRA.REPUL.0>
0

>  <SCORE.INTRA.SOLV>
5.38344e-05

>  <SCORE.INTRA.SOLV.lig_0>
-10.9882

>  <SCORE.INTRA.VDW>
0.168694

>  <SCORE.INTRA.VDW.0>
1.84442

>  <SCORE.INTRA.norm>
0.00648898

>  <SCORE.RESTR>
0

>  <SCORE.RESTR.CAVITY>
0

>  <SCORE.RESTR.norm>
0

>  <SCORE.SYSTEM>
0

>  <SCORE.SYSTEM.CONST>
0

>  <SCORE.SYSTEM.DIHEDRAL>
0

>  <SCORE.SYSTEM.SOLV>
0

>  <SCORE.SYSTEM.norm>
0

>  <SCORE.heavy>
26

>  <SCORE.norm>
-2.15152

>  <RMSD>
0.749

$$$$
ligand
 OpenBabel02271912153D
libRbt.so/2013.1/901 2013/11/27
 26 29  0  0  0  0  0  0  0  0999 V2000
  111.2495  -74.6288  -81.8893 C   0  0  1  0  0  0  0  0  0  0  0  0
  111.4219  -74.2919  -80.5544 N   0  0  0  0  0  0  0  0  0  0  0  0
  111.7439  -75.9036  -82.3882 C   0  0  0  0  0  0  0  0  0  0  0  0
  112.6867  -80.5101  -87.4914 N   0  0  0  0  0  0  0  0  0  0  0  0
  112.0224  -77.4086  -84.2067 O   0  0  0  0  0  0  0  0  0  0  0  0
  111.4960  -76.0921  -83.7492 C   0  0  2  0  0  0  0  0  0  0  0  0
  111.8009  -77.5677  -85.4531 C   0  0  1  0  0  0  0  0  0  0  0  0
  112.3401  -78.8825  -85.7998 C   0  0  0  0  0  0  0  0  0  0  0  0
  112.1852  -79.2327  -87.1880 C   0  0  2  0  0  0  0  0  0  0  0  0
  111.5749  -78.3687  -88.1306 C   0  0  0  0  0  0  0  0  0  0  0  0
  111.0511  -77.0792  -87.7202 C   0  0  0  0  0  0  0  0  0  0  0  0
  111.1823  -76.7136  -86.3311 C   0  0  2  0  0  0  0  0  0  0  0  0
  110.5974  -75.3641  -85.9865 C   0  0  1  0  0  0  0  0  0  0  0  0
  110.8542  -75.2107  -84.6122 C   0  0  2  0  0  0  0  0  0  0  0  0
  110.3577  -73.9360  -84.0894 C   0  0  0  0  0  0  0  0  0  0  0  0
  110.6012  -73.7161  -82.6984 C   0  0  0  0  0  0  0  0  0  0  0  0
  109.9762  -74.5515  -86.9159 C   0  0  0  0  0  0  0  0  0  0  0  0
  110.2670  -73.1849  -87.1360 C   0  0  0  0  0  0  0  0  0  0  0  0
  109.6624  -72.3543  -88.0812 C   0  0  0  0  0  0  0  0  0  0  0  0
  108.6284  -72.8906  -88.9535 C   0  0  0  0  0  0  0  0  0  0  0  0
  108.3532  -74.2560  -88.7005 C   0  0  0  0  0  0  0  0  0  0  0  0
  108.9303  -75.1238  -87.7631 C   0  0  0  0  0  0  0  0  0  0  0  0
  112.0615  -75.1950  -79.6017 C   0  0  0  0  0  0  0  0  0  0  0  0
  111.0163  -73.0245  -79.9100 C   0  0  0  0  0  0  0  0  0  0  0  0
  113.2566  -81.5717  -86.6320 C   0  0  0  0  0  0  0  0  0  0  0  0
  112.6486  -80.9410  -88.9335 C   0  0  0  0  0  0  0  0  0  0  0  0
  1  2  1  1  0  0  0
  1  3  1  0  0  0  0
  1 16  1  0  0  0  0
  2 23  1  0  0  0  0
  2 24  1  0  0  0  0
  4 25  1  0  0  0  0
  4 26  1  0  0  0  0
  5  6  1  0  0  0  0
  6  3  1  6  0  0  0
  6 14  1  0  0  0  0
  7  5  1  1  0  0  0
  7  8  1  0  0  0  0
  7 12  1  0  0  0  0
  8  9  1  0  0  0  0
  9  4  1  1  0  0  0
  9 10  1  0  0  0  0
 10 11  1  0  0  0  0
 12 11  1  6  0  0  0
 12 13  1  0  0  0  0
 13 14  1  0  0  0  0
 13 17  1  6  0  0  0
 14 15  1  6  0  0  0
 15 16  1  0  0  0  0
 17 18  1  0  0  0  0
 17 22  1  0  0  0  0
 18 19  1  0  0  0  0
 19 20  1  0  0  0  0
 20 21  1  0  0  0  0
 21 22  1  0  0  0  0
M  END
>  <CHROM.1>
-1.61003601,4.45069026,-129.19356970,111.14131995,-76.16725086,-85.32844485
-1.81909704,1.08003251,-2.06385487

>  <Name>
ligand

>  <RI>
0

>  <Rbt.Current_Directory>
/home/itssahil/PROJECTS/Mol_Feturizer/Test_systems_manuscript/rnas/1f1t

>  <Rbt.Executable>
rbdock ($Id: //depot/dev/client3/rdock/2013.1/src/exe/rbdock.cxx#4 $)

>  <Rbt.Library>
libRbt.so (2013.1, Build901 2013/11/27)

>  <Rbt.Parameter_File>
/export/apps/rDock/src/rDock_2013.1_src/data/scripts/dock_solv.prm

>  <Rbt.Receptor>
prm/pocket_docking_7.prm

>  <SCORE>
-56.3936

>  <SCORE.INTER>
-56.7454

>  <SCORE.INTER.CONST>
1

>  <SCORE.INTER.POLAR>
0

>  <SCORE.INTER.ROT>
3

>  <SCORE.INTER.SOLV>
9.25235

>  <SCORE.INTER.VDW>
-46.5144

>  <SCORE.INTER.norm>
-2.18251

>  <SCORE.INTRA>
0.351788

>  <SCORE.INTRA.DIHEDRAL>
-4.63123e-06

>  <SCORE.INTRA.DIHEDRAL.0>
3.60016

>  <SCORE.INTRA.POLAR>
0

>  <SCORE.INTRA.POLAR.0>
0

>  <SCORE.INTRA.REPUL>
0

>  <SCORE.INTRA.REPUL.0>
0

>  <SCORE.INTRA.SOLV>
8.15606e-06

>  <SCORE.INTRA.SOLV.lig_0>
-10.9882

>  <SCORE.INTRA.VDW>
0.351786

>  <SCORE.INTRA.VDW.0>
1.84442

>  <SCORE.INTRA.norm>
0.0135303

>  <SCORE.RESTR>
0

>  <SCORE.RESTR.CAVITY>
0

>  <SCORE.RESTR.norm>
0

>  <SCORE.SYSTEM>
0

>  <SCORE.SYSTEM.CONST>
0

>  <SCORE.SYSTEM.DIHEDRAL>
0

>  <SCORE.SYSTEM.SOLV>
0

>  <SCORE.SYSTEM.norm>
0

>  <SCORE.heavy>
26

>  <SCORE.norm>
-2.16898

>  <RMSD>
0.749

$$$$
ligand
 OpenBabel02271912153D
libRbt.so/2013.1/901 2013/11/27
 26 29  0  0  0  0  0  0  0  0999 V2000
  111.1824  -74.6969  -82.0413 C   0  0  1  0  0  0  0  0  0  0  0  0
  111.3626  -74.3285  -80.7158 N   0  0  0  0  0  0  0  0  0  0  0  0
  111.7035  -75.9683  -82.5211 C   0  0  0  0  0  0  0  0  0  0  0  0
  112.7021  -80.6517  -87.5430 N   0  0  0  0  0  0  0  0  0  0  0  0
  111.9984  -77.5023  -84.3126 O   0  0  0  0  0  0  0  0  0  0  0  0
  111.4436  -76.1908  -83.8747 C   0  0  2  0  0  0  0  0  0  0  0  0
  111.7655  -77.6924  -85.5526 C   0  0  1  0  0  0  0  0  0  0  0  0
  112.3344  -78.9996  -85.8800 C   0  0  0  0  0  0  0  0  0  0  0  0
  112.1713  -79.3818  -87.2587 C   0  0  2  0  0  0  0  0  0  0  0  0
  111.5269  -78.5532  -88.2104 C   0  0  0  0  0  0  0  0  0  0  0  0
  110.9749  -77.2695  -87.8190 C   0  0  0  0  0  0  0  0  0  0  0  0
  111.1139  -76.8725  -86.4394 C   0  0  2  0  0  0  0  0  0  0  0  0
  110.4983  -75.5319  -86.1142 C   0  0  1  0  0  0  0  0  0  0  0  0
  110.7683  -75.3440  -84.7467 C   0  0  2  0  0  0  0  0  0  0  0  0
  110.2453  -74.0721  -84.2430 C   0  0  0  0  0  0  0  0  0  0  0  0
  110.5003  -73.8179  -82.8600 C   0  0  0  0  0  0  0  0  0  0  0  0
  109.8447  -74.7545  -87.0515 C   0  0  0  0  0  0  0  0  0  0  0  0
  108.7948  -75.1918  -87.8923 C   0  0  0  0  0  0  0  0  0  0  0  0
  108.1121  -74.4165  -88.8313 C   0  0  0  0  0  0  0  0  0  0  0  0
  108.4698  -73.0167  -89.0051 C   0  0  0  0  0  0  0  0  0  0  0  0
  109.5301  -72.6138  -88.1581 C   0  0  0  0  0  0  0  0  0  0  0  0
  110.2442  -73.3562  -87.2074 C   0  0  0  0  0  0  0  0  0  0  0  0
  111.9932  -75.2154  -79.7421 C   0  0  0  0  0  0  0  0  0  0  0  0
  110.9749  -73.0402  -80.1028 C   0  0  0  0  0  0  0  0  0  0  0  0
  113.2644  -81.7011  -86.6638 C   0  0  0  0  0  0  0  0  0  0  0  0
  112.7123  -81.0878  -88.9841 C   0  0  0  0  0  0  0  0  0  0  0  0
  1  2  1  1  0  0  0
  1  3  1  0  0  0  0
  1 16  1  0  0  0  0
  2 23  1  0  0  0  0
  2 24  1  0  0  0  0
  4 25  1  0  0  0  0
  4 26  1  0  0  0  0
  5  6  1  0  0  0  0
  6  3  1  6  0  0  0
  6 14  1  0  0  0  0
  7  5  1  1  0  0  0
  7  8  1  0  0  0  0
  7 12  1  0  0  0  0
  8  9  1  0  0  0  0
  9  4  1  1  0  0  0
  9 10  1  0  0  0  0
 10 11  1  0  0  0  0
 12 11  1  6  0  0  0
 12 13  1  0  0  0  0
 13 14  1  0  0  0  0
 13 17  1  6  0  0  0
 14 15  1  6  0  0  0
 15 16  1  0  0  0  0
 17 18  1  0  0  0  0
 17 22  1  0  0  0  0
 18 19  1  0  0  0  0
 19 20  1  0  0  0  0
 20 21  1  0  0  0  0
 21 22  1  0  0  0  0
M  END
>  <CHROM.1>
-3.92204839,7.06844776,52.35952796,111.07775399,-76.29038363,-85.43795250
-1.84082850,1.05653951,-2.07788152

>  <Name>
ligand

>  <RI>
0

>  <Rbt.Current_Directory>
/home/itssahil/PROJECTS/Mol_Feturizer/Test_systems_manuscript/rnas/1f1t

>  <Rbt.Executable>
rbdock ($Id: //depot/dev/client3/rdock/2013.1/src/exe/rbdock.cxx#4 $)

>  <Rbt.Library>
libRbt.so (2013.1, Build901 2013/11/27)

>  <Rbt.Parameter_File>
/export/apps/rDock/src/rDock_2013.1_src/data/scripts/dock_solv.prm

>  <Rbt.Receptor>
prm/pocket_docking_8.prm

>  <SCORE>
-56.268

>  <SCORE.INTER>
-56.4358

>  <SCORE.INTER.CONST>
1

>  <SCORE.INTER.POLAR>
0

>  <SCORE.INTER.ROT>
3

>  <SCORE.INTER.SOLV>
8.9507

>  <SCORE.INTER.VDW>
-46.2075

>  <SCORE.INTER.norm>
-2.17061

>  <SCORE.INTRA>
0.167783

>  <SCORE.INTRA.DIHEDRAL>
0.000259823

>  <SCORE.INTRA.DIHEDRAL.0>
3.60016

>  <SCORE.INTRA.POLAR>
0

>  <SCORE.INTRA.POLAR.0>
0

>  <SCORE.INTRA.REPUL>
0

>  <SCORE.INTRA.REPUL.0>
0

>  <SCORE.INTRA.SOLV>
2.3506e-05

>  <SCORE.INTRA.SOLV.lig_0>
-10.9882

>  <SCORE.INTRA.VDW>
0.167642

>  <SCORE.INTRA.VDW.0>
1.84442

>  <SCORE.INTRA.norm>
0.0064532

>  <SCORE.RESTR>
0

>  <SCORE.RESTR.CAVITY>
0

>  <SCORE.RESTR.norm>
0

>  <SCORE.SYSTEM>
0

>  <SCORE.SYSTEM.CONST>
0

>  <SCORE.SYSTEM.DIHEDRAL>
0

>  <SCORE.SYSTEM.SOLV>
0

>  <SCORE.SYSTEM.norm>
0

>  <SCORE.heavy>
26

>  <SCORE.norm>
-2.16416

>  <RMSD>
0.749

$$$$
ligand
 OpenBabel02271912153D
libRbt.so/2013.1/901 2013/11/27
 26 29  0  0  0  0  0  0  0  0999 V2000
  111.2546  -74.7215  -81.9425 C   0  0  1  0  0  0  0  0  0  0  0  0
  111.4253  -74.3899  -80.6061 N   0  0  0  0  0  0  0  0  0  0  0  0
  111.7449  -75.9966  -82.4447 C   0  0  0  0  0  0  0  0  0  0  0  0
  112.6804  -80.5894  -87.5615 N   0  0  0  0  0  0  0  0  0  0  0  0
  112.0214  -77.4966  -84.2678 O   0  0  0  0  0  0  0  0  0  0  0  0
  111.4994  -76.1795  -83.8070 C   0  0  2  0  0  0  0  0  0  0  0  0
  111.8021  -77.6505  -85.5152 C   0  0  1  0  0  0  0  0  0  0  0  0
  112.3366  -78.9663  -85.8652 C   0  0  0  0  0  0  0  0  0  0  0  0
  112.1835  -79.3111  -87.2549 C   0  0  2  0  0  0  0  0  0  0  0  0
  111.5790  -78.4413  -88.1960 C   0  0  0  0  0  0  0  0  0  0  0  0
  111.0596  -77.1510  -87.7823 C   0  0  0  0  0  0  0  0  0  0  0  0
  111.1891  -76.7907  -86.3917 C   0  0  2  0  0  0  0  0  0  0  0  0
  110.6090  -75.4400  -86.0438 C   0  0  1  0  0  0  0  0  0  0  0  0
  110.8633  -75.2924  -84.6684 C   0  0  2  0  0  0  0  0  0  0  0  0
  110.3708  -74.0174  -84.1423 C   0  0  0  0  0  0  0  0  0  0  0  0
  110.6120  -73.8034  -82.7500 C   0  0  0  0  0  0  0  0  0  0  0  0
  109.9934  -74.6216  -86.9718 C   0  0  0  0  0  0  0  0  0  0  0  0
  110.2953  -73.2574  -87.1915 C   0  0  0  0  0  0  0  0  0  0  0  0
  109.6965  -72.4211  -88.1354 C   0  0  0  0  0  0  0  0  0  0  0  0
  108.6567  -72.9481  -89.0065 C   0  0  0  0  0  0  0  0  0  0  0  0
  108.3705  -74.3113  -88.7540 C   0  0  0  0  0  0  0  0  0  0  0  0
  108.9415  -75.1846  -87.8180 C   0  0  0  0  0  0  0  0  0  0  0  0
  110.9519  -73.1239  -80.0535 C   0  0  0  0  0  0  0  0  0  0  0  0
  112.0725  -75.2238  -79.5710 C   0  0  0  0  0  0  0  0  0  0  0  0
  113.2456  -81.6557  -86.7047 C   0  0  0  0  0  0  0  0  0  0  0  0
  112.6418  -81.0161  -89.0049 C   0  0  0  0  0  0  0  0  0  0  0  0
  1  2  1  1  0  0  0
  1  3  1  0  0  0  0
  1 16  1  0  0  0  0
  2 23  1  0  0  0  0
  2 24  1  0  0  0  0
  4 25  1  0  0  0  0
  4 26  1  0  0  0  0
  5  6  1  0  0  0  0
  6  3  1  6  0  0  0
  6 14  1  0  0  0  0
  7  5  1  1  0  0  0
  7  8  1  0  0  0  0
  7 12  1  0  0  0  0
  8  9  1  0  0  0  0
  9  4  1  1  0  0  0
  9 10  1  0  0  0  0
 10 11  1  0  0  0  0
 12 11  1  6  0  0  0
 12 13  1  0  0  0  0
 13 14  1  0  0  0  0
 13 17  1  6  0  0  0
 14 15  1  6  0  0  0
 15 16  1  0  0  0  0
 17 18  1  0  0  0  0
 17 22  1  0  0  0  0
 18 19  1  0  0  0  0
 19 20  1  0  0  0  0
 20 21  1  0  0  0  0
 21 22  1  0  0  0  0
M  END
>  <CHROM.1>
-179.99925992,4.35672913,-128.83311478,111.14536877,-76.24432571,-85.38770083
-1.82268001,1.08436411,-2.05905847

>  <Name>
ligand

>  <RI>
0

>  <Rbt.Current_Directory>
/home/itssahil/PROJECTS/Mol_Feturizer/Test_systems_manuscript/rnas/1f1t

>  <Rbt.Executable>
rbdock ($Id: //depot/dev/client3/rdock/2013.1/src/exe/rbdock.cxx#4 $)

>  <Rbt.Library>
libRbt.so (2013.1, Build901 2013/11/27)

>  <Rbt.Parameter_File>
/export/apps/rDock/src/rDock_2013.1_src/data/scripts/dock_solv.prm

>  <Rbt.Receptor>
prm/pocket_docking_3.prm

>  <SCORE>
-56.115

>  <SCORE.INTER>
-56.7618

>  <SCORE.INTER.CONST>
1

>  <SCORE.INTER.POLAR>
0

>  <SCORE.INTER.ROT>
3

>  <SCORE.INTER.SOLV>
9.0956

>  <SCORE.INTER.VDW>
-46.473

>  <SCORE.INTER.norm>
-2.18314

>  <SCORE.INTRA>
0.646755

>  <SCORE.INTRA.DIHEDRAL>
7.94552e-06

>  <SCORE.INTRA.DIHEDRAL.0>
3.60016

>  <SCORE.INTRA.POLAR>
0

>  <SCORE.INTRA.POLAR.0>
0

>  <SCORE.INTRA.REPUL>
0

>  <SCORE.INTRA.REPUL.0>
0

>  <SCORE.INTRA.SOLV>
6.07579e-06

>  <SCORE.INTRA.SOLV.lig_0>
-10.9882

>  <SCORE.INTRA.VDW>
0.646748

>  <SCORE.INTRA.VDW.0>
1.84442

>  <SCORE.INTRA.norm>
0.0248752

>  <SCORE.RESTR>
0

>  <SCORE.RESTR.CAVITY>
0

>  <SCORE.RESTR.norm>
0

>  <SCORE.SYSTEM>
0

>  <SCORE.SYSTEM.CONST>
0

>  <SCORE.SYSTEM.DIHEDRAL>
0

>  <SCORE.SYSTEM.SOLV>
0

>  <SCORE.SYSTEM.norm>
0

>  <SCORE.heavy>
26

>  <SCORE.norm>
-2.15827

>  <RMSD>
0.750

$$$$
ligand
 OpenBabel02271912153D
libRbt.so/2013.1/901 2013/11/27
 26 29  0  0  0  0  0  0  0  0999 V2000
  111.1896  -74.6939  -82.0198 C   0  0  1  0  0  0  0  0  0  0  0  0
  111.3616  -74.3288  -80.6923 N   0  0  0  0  0  0  0  0  0  0  0  0
  111.7062  -75.9681  -82.4974 C   0  0  0  0  0  0  0  0  0  0  0  0
  112.7139  -80.6503  -87.5186 N   0  0  0  0  0  0  0  0  0  0  0  0
  112.0052  -77.5012  -84.2890 O   0  0  0  0  0  0  0  0  0  0  0  0
  111.4555  -76.1868  -83.8534 C   0  0  2  0  0  0  0  0  0  0  0  0
  111.7809  -77.6879  -85.5311 C   0  0  1  0  0  0  0  0  0  0  0  0
  112.3438  -78.9983  -85.8559 C   0  0  0  0  0  0  0  0  0  0  0  0
  112.1892  -79.3774  -87.2365 C   0  0  2  0  0  0  0  0  0  0  0  0
  111.5577  -78.5431  -88.1920 C   0  0  0  0  0  0  0  0  0  0  0  0
  111.0111  -77.2564  -87.8030 C   0  0  0  0  0  0  0  0  0  0  0  0
  111.1417  -76.8624  -86.4217 C   0  0  2  0  0  0  0  0  0  0  0  0
  110.5324  -75.5183  -86.0993 C   0  0  1  0  0  0  0  0  0  0  0  0
  110.7927  -75.3343  -84.7294 C   0  0  2  0  0  0  0  0  0  0  0  0
  110.2740  -74.0598  -84.2279 C   0  0  0  0  0  0  0  0  0  0  0  0
  110.5198  -73.8093  -82.8425 C   0  0  0  0  0  0  0  0  0  0  0  0
  109.8912  -74.7353  -87.0405 C   0  0  0  0  0  0  0  0  0  0  0  0
  108.8701  -75.1740  -87.9152 C   0  0  0  0  0  0  0  0  0  0  0  0
  108.2000  -74.3935  -88.8590 C   0  0  0  0  0  0  0  0  0  0  0  0
  108.5407  -72.9858  -89.0007 C   0  0  0  0  0  0  0  0  0  0  0  0
  109.5726  -72.5814  -88.1200 C   0  0  0  0  0  0  0  0  0  0  0  0
  110.2733  -73.3287  -87.1633 C   0  0  0  0  0  0  0  0  0  0  0  0
  110.9238  -73.0333  -80.1801 C   0  0  0  0  0  0  0  0  0  0  0  0
  111.9762  -75.1515  -79.6287 C   0  0  0  0  0  0  0  0  0  0  0  0
  113.2677  -81.7023  -86.6372 C   0  0  0  0  0  0  0  0  0  0  0  0
  112.7262  -81.0870  -88.9594 C   0  0  0  0  0  0  0  0  0  0  0  0
  1  2  1  1  0  0  0
  1  3  1  0  0  0  0
  1 16  1  0  0  0  0
  2 23  1  0  0  0  0
  2 24  1  0  0  0  0
  4 25  1  0  0  0  0
  4 26  1  0  0  0  0
  5  6  1  0  0  0  0
  6  3  1  6  0  0  0
  6 14  1  0  0  0  0
  7  5  1  1  0  0  0
  7  8  1  0  0  0  0
  7 12  1  0  0  0  0
  8  9  1  0  0  0  0
  9  4  1  1  0  0  0
  9 10  1  0  0  0  0
 10 11  1  0  0  0  0
 12 11  1  6  0  0  0
 12 13  1  0  0  0  0
 13 14  1  0  0  0  0
 13 17  1  6  0  0  0
 14 15  1  6  0  0  0
 15 16  1  0  0  0  0
 17 18  1  0  0  0  0
 17 22  1  0  0  0  0
 18 19  1  0  0  0  0
 19 20  1  0  0  0  0
 20 21  1  0  0  0  0
 21 22  1  0  0  0  0
M  END
>  <CHROM.1>
176.76874854,6.76460407,50.54045970,111.09859019,-76.27821316,-85.42005653
-1.85149524,1.06581183,-2.06906291

>  <Name>
ligand

>  <RI>
0

>  <Rbt.Current_Directory>
/home/itssahil/PROJECTS/Mol_Feturizer/Test_systems_manuscript/rnas/1f1t

>  <Rbt.Executable>
rbdock ($Id: //depot/dev/client3/rdock/2013.1/src/exe/rbdock.cxx#4 $)

>  <Rbt.Library>
libRbt.so (2013.1, Build901 2013/11/27)

>  <Rbt.Parameter_File>
/export/apps/rDock/src/rDock_2013.1_src/data/scripts/dock_solv.prm

>  <Rbt.Receptor>
prm/pocket_docking_3.prm

>  <SCORE>
-56.0218

>  <SCORE.INTER>
-56.5506

>  <SCORE.INTER.CONST>
1

>  <SCORE.INTER.POLAR>
0

>  <SCORE.INTER.ROT>
3

>  <SCORE.INTER.SOLV>
8.97706

>  <SCORE.INTER.VDW>
-46.2927

>  <SCORE.INTER.norm>
-2.17502

>  <SCORE.INTRA>
0.528776

>  <SCORE.INTRA.DIHEDRAL>
0.000268274

>  <SCORE.INTRA.DIHEDRAL.0>
3.60016

>  <SCORE.INTRA.POLAR>
0

>  <SCORE.INTRA.POLAR.0>
0

>  <SCORE.INTRA.REPUL>
0

>  <SCORE.INTRA.REPUL.0>
0

>  <SCORE.INTRA.SOLV>
1.95967e-05

>  <SCORE.INTRA.SOLV.lig_0>
-10.9882

>  <SCORE.INTRA.VDW>
0.528632

>  <SCORE.INTRA.VDW.0>
1.84442

>  <SCORE.INTRA.norm>
0.0203375

>  <SCORE.RESTR>
0

>  <SCORE.RESTR.CAVITY>
0

>  <SCORE.RESTR.norm>
0

>  <SCORE.SYSTEM>
0

>  <SCORE.SYSTEM.CONST>
0

>  <SCORE.SYSTEM.DIHEDRAL>
0

>  <SCORE.SYSTEM.SOLV>
0

>  <SCORE.SYSTEM.norm>
0

>  <SCORE.heavy>
26

>  <SCORE.norm>
-2.15468

>  <RMSD>
0.750

$$$$
ligand
 OpenBabel02271912153D
libRbt.so/2013.1/901 2013/11/27
 26 29  0  0  0  0  0  0  0  0999 V2000
  111.2418  -74.5227  -81.8900 C   0  0  1  0  0  0  0  0  0  0  0  0
  111.4142  -74.1626  -80.5612 N   0  0  0  0  0  0  0  0  0  0  0  0
  111.7510  -75.7986  -82.3707 C   0  0  0  0  0  0  0  0  0  0  0  0
  112.7363  -80.4723  -87.4042 N   0  0  0  0  0  0  0  0  0  0  0  0
  112.0428  -77.3284  -84.1663 O   0  0  0  0  0  0  0  0  0  0  0  0
  111.5009  -76.0118  -83.7276 C   0  0  2  0  0  0  0  0  0  0  0  0
  111.8192  -77.5100  -85.4093 C   0  0  1  0  0  0  0  0  0  0  0  0
  112.3743  -78.8230  -85.7372 C   0  0  0  0  0  0  0  0  0  0  0  0
  112.2192  -79.1969  -87.1191 C   0  0  2  0  0  0  0  0  0  0  0  0
  111.5945  -78.3559  -88.0730 C   0  0  0  0  0  0  0  0  0  0  0  0
  111.0555  -77.0669  -87.6810 C   0  0  0  0  0  0  0  0  0  0  0  0
  111.1866  -76.6778  -86.2983 C   0  0  2  0  0  0  0  0  0  0  0  0
  110.5853  -75.3308  -85.9729 C   0  0  1  0  0  0  0  0  0  0  0  0
  110.8448  -75.1525  -84.6021 C   0  0  2  0  0  0  0  0  0  0  0  0
  110.3335  -73.8762  -84.0975 C   0  0  0  0  0  0  0  0  0  0  0  0
  110.5789  -73.6313  -82.7110 C   0  0  0  0  0  0  0  0  0  0  0  0
  109.9506  -74.5409  -86.9127 C   0  0  0  0  0  0  0  0  0  0  0  0
  110.2867  -73.2023  -87.2219 C   0  0  0  0  0  0  0  0  0  0  0  0
  109.6684  -72.3962  -88.1793 C   0  0  0  0  0  0  0  0  0  0  0  0
  108.5677  -72.9304  -88.9671 C   0  0  0  0  0  0  0  0  0  0  0  0
  108.2490  -74.2668  -88.6260 C   0  0  0  0  0  0  0  0  0  0  0  0
  108.8378  -75.1093  -87.6730 C   0  0  0  0  0  0  0  0  0  0  0  0
  110.9946  -72.8613  -80.0484 C   0  0  0  0  0  0  0  0  0  0  0  0
  112.0117  -74.9966  -79.4967 C   0  0  0  0  0  0  0  0  0  0  0  0
  112.8871  -81.2093  -88.6788 C   0  0  0  0  0  0  0  0  0  0  0  0
  113.2638  -81.2770  -86.2461 C   0  0  0  0  0  0  0  0  0  0  0  0
  1  2  1  1  0  0  0
  1  3  1  0  0  0  0
  1 16  1  0  0  0  0
  2 23  1  0  0  0  0
  2 24  1  0  0  0  0
  4 25  1  0  0  0  0
  4 26  1  0  0  0  0
  5  6  1  0  0  0  0
  6  3  1  6  0  0  0
  6 14  1  0  0  0  0
  7  5  1  1  0  0  0
  7  8  1  0  0  0  0
  7 12  1  0  0  0  0
  8  9  1  0  0  0  0
  9  4  1  1  0  0  0
  9 10  1  0  0  0  0
 10 11  1  0  0  0  0
 12 11  1  6  0  0  0
 12 13  1  0  0  0  0
 13 14  1  0  0  0  0
 13 17  1  6  0  0  0
 14 15  1  6  0  0  0
 15 16  1  0  0  0  0
 17 18  1  0  0  0  0
 17 22  1  0  0  0  0
 18 19  1  0  0  0  0
 19 20  1  0  0  0  0
 20 21  1  0  0  0  0
 21 22  1  0  0  0  0
M  END
>  <CHROM.1>
176.21806741,-174.73927108,-124.39312723,111.14449472,-76.11506512,-85.28418754
-1.84130185,1.06730455,-2.07227457

>  <Name>
ligand

>  <RI>
0

>  <Rbt.Current_Directory>
/home/itssahil/PROJECTS/Mol_Feturizer/Test_systems_manuscript/rnas/1f1t

>  <Rbt.Executable>
rbdock ($Id: //depot/dev/client3/rdock/2013.1/src/exe/rbdock.cxx#4 $)

>  <Rbt.Library>
libRbt.so (2013.1, Build901 2013/11/27)

>  <Rbt.Parameter_File>
/export/apps/rDock/src/rDock_2013.1_src/data/scripts/dock_solv.prm

>  <Rbt.Receptor>
prm/pocket_docking_7.prm

>  <SCORE>
-53.502

>  <SCORE.INTER>
-56.3539

>  <SCORE.INTER.CONST>
1

>  <SCORE.INTER.POLAR>
0

>  <SCORE.INTER.ROT>
3

>  <SCORE.INTER.SOLV>
9.34751

>  <SCORE.INTER.VDW>
-46.2851

>  <SCORE.INTER.norm>
-2.16746

>  <SCORE.INTRA>
2.85195

>  <SCORE.INTRA.DIHEDRAL>
-0.000587383

>  <SCORE.INTRA.DIHEDRAL.0>
3.60016

>  <SCORE.INTRA.POLAR>
0

>  <SCORE.INTRA.POLAR.0>
0

>  <SCORE.INTRA.REPUL>
0

>  <SCORE.INTRA.REPUL.0>
0

>  <SCORE.INTRA.SOLV>
-0.000988631

>  <SCORE.INTRA.SOLV.lig_0>
-10.9882

>  <SCORE.INTRA.VDW>
2.85273

>  <SCORE.INTRA.VDW.0>
1.84442

>  <SCORE.INTRA.norm>
0.10969

>  <SCORE.RESTR>
0

>  <SCORE.RESTR.CAVITY>
0

>  <SCORE.RESTR.norm>
0

>  <SCORE.SYSTEM>
0

>  <SCORE.SYSTEM.CONST>
0

>  <SCORE.SYSTEM.DIHEDRAL>
0

>  <SCORE.SYSTEM.SOLV>
0

>  <SCORE.SYSTEM.norm>
0

>  <SCORE.heavy>
26

>  <SCORE.norm>
-2.05777

>  <RMSD>
0.750

$$$$
ligand
 OpenBabel02271912153D
libRbt.so/2013.1/901 2013/11/27
 26 29  0  0  0  0  0  0  0  0999 V2000
  111.1967  -74.6878  -82.0254 C   0  0  1  0  0  0  0  0  0  0  0  0
  111.3761  -74.3222  -80.6990 N   0  0  0  0  0  0  0  0  0  0  0  0
  111.7137  -75.9606  -82.5062 C   0  0  0  0  0  0  0  0  0  0  0  0
  112.7025  -80.6406  -87.5332 N   0  0  0  0  0  0  0  0  0  0  0  0
  112.0056  -77.4932  -84.2994 O   0  0  0  0  0  0  0  0  0  0  0  0
  111.4552  -76.1801  -83.8606 C   0  0  2  0  0  0  0  0  0  0  0  0
  111.7741  -77.6805  -85.5401 C   0  0  1  0  0  0  0  0  0  0  0  0
  112.3384  -78.9895  -85.8684 C   0  0  0  0  0  0  0  0  0  0  0  0
  112.1762  -79.3690  -87.2480 C   0  0  2  0  0  0  0  0  0  0  0  0
  111.5368  -78.5364  -88.1995 C   0  0  0  0  0  0  0  0  0  0  0  0
  110.9892  -77.2511  -87.8072 C   0  0  0  0  0  0  0  0  0  0  0  0
  111.1274  -76.8567  -86.4268 C   0  0  2  0  0  0  0  0  0  0  0  0
  110.5165  -75.5141  -86.1007 C   0  0  1  0  0  0  0  0  0  0  0  0
  110.7848  -75.3294  -84.7325 C   0  0  2  0  0  0  0  0  0  0  0  0
  110.2660  -74.0562  -84.2278 C   0  0  0  0  0  0  0  0  0  0  0  0
  110.5196  -73.8049  -82.8440 C   0  0  0  0  0  0  0  0  0  0  0  0
  109.8676  -74.7329  -87.0380 C   0  0  0  0  0  0  0  0  0  0  0  0
  108.8488  -75.1767  -87.9130 C   0  0  0  0  0  0  0  0  0  0  0  0
  108.1709  -74.3981  -88.8527 C   0  0  0  0  0  0  0  0  0  0  0  0
  108.4998  -72.9871  -88.9895 C   0  0  0  0  0  0  0  0  0  0  0  0
  109.5296  -72.5775  -88.1087 C   0  0  0  0  0  0  0  0  0  0  0  0
  110.2378  -73.3228  -87.1559 C   0  0  0  0  0  0  0  0  0  0  0  0
  111.9996  -75.2138  -79.7251 C   0  0  0  0  0  0  0  0  0  0  0  0
  110.9943  -73.0325  -80.0852 C   0  0  0  0  0  0  0  0  0  0  0  0
  113.2321  -81.7052  -86.6521 C   0  0  0  0  0  0  0  0  0  0  0  0
  112.7461  -81.0603  -88.9785 C   0  0  0  0  0  0  0  0  0  0  0  0
  1  2  1  1  0  0  0
  1  3  1  0  0  0  0
  1 16  1  0  0  0  0
  2 23  1  0  0  0  0
  2 24  1  0  0  0  0
  4 25  1  0  0  0  0
  4 26  1  0  0  0  0
  5  6  1  0  0  0  0
  6  3  1  6  0  0  0
  6 14  1  0  0  0  0
  7  5  1  1  0  0  0
  7  8  1  0  0  0  0
  7 12  1  0  0  0  0
  8  9  1  0  0  0  0
  9  4  1  1  0  0  0
  9 10  1  0  0  0  0
 10 11  1  0  0  0  0
 12 11  1  6  0  0  0
 12 13  1  0  0  0  0
 13 14  1  0  0  0  0
 13 17  1  6  0  0  0
 14 15  1  6  0  0  0
 15 16  1  0  0  0  0
 17 18  1  0  0  0  0
 17 22  1  0  0  0  0
 18 19  1  0  0  0  0
 19 20  1  0  0  0  0
 20 21  1  0  0  0  0
 21 22  1  0  0  0  0
M  END
>  <CHROM.1>
-4.02197223,8.59968679,50.06182989,111.09166994,-76.27582409,-85.42437252
-1.84079841,1.06099620,-2.07664884

>  <Name>
ligand

>  <RI>
0

>  <Rbt.Current_Directory>
/home/itssahil/PROJECTS/Mol_Feturizer/Test_systems_manuscript/rnas/1f1t

>  <Rbt.Executable>
rbdock ($Id: //depot/dev/client3/rdock/2013.1/src/exe/rbdock.cxx#4 $)

>  <Rbt.Library>
libRbt.so (2013.1, Build901 2013/11/27)

>  <Rbt.Parameter_File>
/export/apps/rDock/src/rDock_2013.1_src/data/scripts/dock_solv.prm

>  <Rbt.Receptor>
prm/pocket_docking_3.prm

>  <SCORE>
-56.1764

>  <SCORE.INTER>
-56.3859

>  <SCORE.INTER.CONST>
1

>  <SCORE.INTER.POLAR>
0

>  <SCORE.INTER.ROT>
3

>  <SCORE.INTER.SOLV>
8.96507

>  <SCORE.INTER.VDW>
-46.1789

>  <SCORE.INTER.norm>
-2.16869

>  <SCORE.INTRA>
0.209493

>  <SCORE.INTRA.DIHEDRAL>
0.000241875

>  <SCORE.INTRA.DIHEDRAL.0>
3.60016

>  <SCORE.INTRA.POLAR>
0

>  <SCORE.INTRA.POLAR.0>
0

>  <SCORE.INTRA.REPUL>
0

>  <SCORE.INTRA.REPUL.0>
0

>  <SCORE.INTRA.SOLV>
3.04857e-05

>  <SCORE.INTRA.SOLV.lig_0>
-10.9882

>  <SCORE.INTRA.VDW>
0.209356

>  <SCORE.INTRA.VDW.0>
1.84442

>  <SCORE.INTRA.norm>
0.00805741

>  <SCORE.RESTR>
0

>  <SCORE.RESTR.CAVITY>
0

>  <SCORE.RESTR.norm>
0

>  <SCORE.SYSTEM>
0

>  <SCORE.SYSTEM.CONST>
0

>  <SCORE.SYSTEM.DIHEDRAL>
0

>  <SCORE.SYSTEM.SOLV>
0

>  <SCORE.SYSTEM.norm>
0

>  <SCORE.heavy>
26

>  <SCORE.norm>
-2.16063

>  <RMSD>
0.751

$$$$
ligand
 OpenBabel02271912153D
libRbt.so/2013.1/901 2013/11/27
 26 29  0  0  0  0  0  0  0  0999 V2000
  112.2542  -79.4588  -87.1497 C   0  0  1  0  0  0  0  0  0  0  0  0
  112.7862  -80.6812  -87.5345 N   0  0  0  0  0  0  0  0  0  0  0  0
  112.3794  -79.0121  -85.7702 C   0  0  0  0  0  0  0  0  0  0  0  0
  111.2888  -74.3613  -80.7372 N   0  0  0  0  0  0  0  0  0  0  0  0
  111.9473  -77.3587  -84.1182 O   0  0  0  0  0  0  0  0  0  0  0  0
  111.7915  -77.7663  -85.5427 C   0  0  2  0  0  0  0  0  0  0  0  0
  111.3983  -76.2246  -83.9172 C   0  0  1  0  0  0  0  0  0  0  0  0
  111.6136  -75.9105  -82.5049 C   0  0  0  0  0  0  0  0  0  0  0  0
  111.0466  -74.6534  -82.0904 C   0  0  2  0  0  0  0  0  0  0  0  0
  110.3335  -73.8077  -82.9757 C   0  0  0  0  0  0  0  0  0  0  0  0
  110.1625  -74.1731  -84.3696 C   0  0  0  0  0  0  0  0  0  0  0  0
  110.7348  -75.4215  -84.8104 C   0  0  2  0  0  0  0  0  0  0  0  0
  110.5247  -75.7171  -86.2769 C   0  0  1  0  0  0  0  0  0  0  0  0
  111.1352  -76.9688  -86.4737 C   0  0  2  0  0  0  0  0  0  0  0  0
  111.0258  -77.4328  -87.8585 C   0  0  0  0  0  0  0  0  0  0  0  0
  111.6171  -78.7077  -88.1182 C   0  0  0  0  0  0  0  0  0  0  0  0
  109.8542  -74.8616  -87.1305 C   0  0  0  0  0  0  0  0  0  0  0  0
  108.7749  -75.2202  -87.9712 C   0  0  0  0  0  0  0  0  0  0  0  0
  108.0754  -74.3663  -88.8259 C   0  0  0  0  0  0  0  0  0  0  0  0
  108.4460  -72.9610  -88.9002 C   0  0  0  0  0  0  0  0  0  0  0  0
  109.5355  -72.6373  -88.0562 C   0  0  0  0  0  0  0  0  0  0  0  0
  110.2672  -73.4596  -87.1883 C   0  0  0  0  0  0  0  0  0  0  0  0
  113.2952  -81.6466  -86.5645 C   0  0  0  0  0  0  0  0  0  0  0  0
  112.9109  -81.1872  -88.9181 C   0  0  0  0  0  0  0  0  0  0  0  0
  111.9187  -75.1544  -79.6581 C   0  0  0  0  0  0  0  0  0  0  0  0
  110.8693  -73.0037  -80.2392 C   0  0  0  0  0  0  0  0  0  0  0  0
  1  2  1  6  0  0  0
  1  3  1  0  0  0  0
  1 16  1  0  0  0  0
  2 23  1  0  0  0  0
  2 24  1  0  0  0  0
  4 25  1  0  0  0  0
  4 26  1  0  0  0  0
  5  6  1  0  0  0  0
  6  3  1  1  0  0  0
  6 14  1  0  0  0  0
  7  5  1  6  0  0  0
  7  8  1  0  0  0  0
  7 12  1  0  0  0  0
  8  9  1  0  0  0  0
  9  4  1  6  0  0  0
  9 10  1  0  0  0  0
 10 11  1  0  0  0  0
 12 11  1  1  0  0  0
 12 13  1  0  0  0  0
 13 14  1  0  0  0  0
 13 17  1  1  0  0  0
 14 15  1  1  0  0  0
 15 16  1  0  0  0  0
 17 18  1  0  0  0  0
 17 22  1  0  0  0  0
 18 19  1  0  0  0  0
 19 20  1  0  0  0  0
 20 21  1  0  0  0  0
 21 22  1  0  0  0  0
M  END
>  <CHROM.1>
9.67275247,-5.57335086,-127.56294677,111.06879409,-76.32057027,-85.43210081
-1.23794201,-1.04928936,1.08645453

>  <Name>
ligand

>  <RI>
0

>  <Rbt.Current_Directory>
/home/itssahil/PROJECTS/Mol_Feturizer/Test_systems_manuscript/rnas/1f1t

>  <Rbt.Executable>
rbdock ($Id: //depot/dev/client3/rdock/2013.1/src/exe/rbdock.cxx#4 $)

>  <Rbt.Library>
libRbt.so (2013.1, Build901 2013/11/27)

>  <Rbt.Parameter_File>
/export/apps/rDock/src/rDock_2013.1_src/data/scripts/dock_solv.prm

>  <Rbt.Receptor>
prm/pocket_docking_5.prm

>  <SCORE>
-55.9868

>  <SCORE.INTER>
-56.1814

>  <SCORE.INTER.CONST>
1

>  <SCORE.INTER.POLAR>
0

>  <SCORE.INTER.ROT>
3

>  <SCORE.INTER.SOLV>
8.93892

>  <SCORE.INTER.VDW>
-46.0339

>  <SCORE.INTER.norm>
-2.16082

>  <SCORE.INTRA>
0.194693

>  <SCORE.INTRA.DIHEDRAL>
-1.53748e-05

>  <SCORE.INTRA.DIHEDRAL.0>
3.60016

>  <SCORE.INTRA.POLAR>
0

>  <SCORE.INTRA.POLAR.0>
0

>  <SCORE.INTRA.REPUL>
0

>  <SCORE.INTRA.REPUL.0>
0

>  <SCORE.INTRA.SOLV>
4.02225e-05

>  <SCORE.INTRA.SOLV.lig_0>
-10.9882

>  <SCORE.INTRA.VDW>
0.19468

>  <SCORE.INTRA.VDW.0>
1.84442

>  <SCORE.INTRA.norm>
0.00748819

>  <SCORE.RESTR>
0

>  <SCORE.RESTR.CAVITY>
0

>  <SCORE.RESTR.norm>
0

>  <SCORE.SYSTEM>
0

>  <SCORE.SYSTEM.CONST>
0

>  <SCORE.SYSTEM.DIHEDRAL>
0

>  <SCORE.SYSTEM.SOLV>
0

>  <SCORE.SYSTEM.norm>
0

>  <SCORE.heavy>
26

>  <SCORE.norm>
-2.15334

>  <RMSD>
0.751

$$$$
ligand
 OpenBabel02271912153D
libRbt.so/2013.1/901 2013/11/27
 26 29  0  0  0  0  0  0  0  0999 V2000
  111.2119  -74.6596  -81.9386 C   0  0  1  0  0  0  0  0  0  0  0  0
  111.3788  -74.3170  -80.6044 N   0  0  0  0  0  0  0  0  0  0  0  0
  111.7079  -75.9366  -82.4300 C   0  0  0  0  0  0  0  0  0  0  0  0
  112.6705  -80.5651  -87.5095 N   0  0  0  0  0  0  0  0  0  0  0  0
  111.9935  -77.4495  -84.2409 O   0  0  0  0  0  0  0  0  0  0  0  0
  111.4656  -76.1309  -83.7912 C   0  0  2  0  0  0  0  0  0  0  0  0
  111.7771  -77.6138  -85.4875 C   0  0  1  0  0  0  0  0  0  0  0  0
  112.3173  -78.9303  -85.8264 C   0  0  0  0  0  0  0  0  0  0  0  0
  112.1681  -79.2863  -87.2137 C   0  0  2  0  0  0  0  0  0  0  0  0
  111.5618  -78.4262  -88.1625 C   0  0  0  0  0  0  0  0  0  0  0  0
  111.0368  -77.1348  -87.7597 C   0  0  0  0  0  0  0  0  0  0  0  0
  111.1624  -76.7633  -86.3717 C   0  0  2  0  0  0  0  0  0  0  0  0
  110.5763  -75.4122  -86.0353 C   0  0  1  0  0  0  0  0  0  0  0  0
  110.8276  -75.2530  -84.6606 C   0  0  2  0  0  0  0  0  0  0  0  0
  110.3292  -73.9759  -84.1453 C   0  0  0  0  0  0  0  0  0  0  0  0
  110.5671  -73.7502  -82.7543 C   0  0  0  0  0  0  0  0  0  0  0  0
  109.9593  -74.6034  -86.9707 C   0  0  0  0  0  0  0  0  0  0  0  0
  110.2690  -73.2448  -87.2131 C   0  0  0  0  0  0  0  0  0  0  0  0
  109.6686  -72.4185  -88.1647 C   0  0  0  0  0  0  0  0  0  0  0  0
  108.6184  -72.9511  -89.0199 C   0  0  0  0  0  0  0  0  0  0  0  0
  108.3247  -74.3083  -88.7448 C   0  0  0  0  0  0  0  0  0  0  0  0
  108.8969  -75.1715  -87.8002 C   0  0  0  0  0  0  0  0  0  0  0  0
  112.0406  -75.2039  -79.6518 C   0  0  0  0  0  0  0  0  0  0  0  0
  110.9455  -73.0584  -79.9610 C   0  0  0  0  0  0  0  0  0  0  0  0
  113.2667  -81.6103  -86.6478 C   0  0  0  0  0  0  0  0  0  0  0  0
  112.6017  -81.0179  -88.9438 C   0  0  0  0  0  0  0  0  0  0  0  0
  1  2  1  1  0  0  0
  1  3  1  0  0  0  0
  1 16  1  0  0  0  0
  2 23  1  0  0  0  0
  2 24  1  0  0  0  0
  4 25  1  0  0  0  0
  4 26  1  0  0  0  0
  5  6  1  0  0  0  0
  6  3  1  6  0  0  0
  6 14  1  0  0  0  0
  7  5  1  1  0  0  0
  7  8  1  0  0  0  0
  7 12  1  0  0  0  0
  8  9  1  0  0  0  0
  9  4  1  1  0  0  0
  9 10  1  0  0  0  0
 10 11  1  0  0  0  0
 12 11  1  6  0  0  0
 12 13  1  0  0  0  0
 13 14  1  0  0  0  0
 13 17  1  6  0  0  0
 14 15  1  6  0  0  0
 15 16  1  0  0  0  0
 17 18  1  0  0  0  0
 17 22  1  0  0  0  0
 18 19  1  0  0  0  0
 19 20  1  0  0  0  0
 20 21  1  0  0  0  0
 21 22  1  0  0  0  0
M  END
>  <CHROM.1>
-0.22957469,2.73512322,-127.90585541,111.11693643,-76.21277267,-85.37136620
-1.82569772,1.08124259,-2.06243349

>  <Name>
ligand

>  <RI>
0

>  <Rbt.Current_Directory>
/home/itssahil/PROJECTS/Mol_Feturizer/Test_systems_manuscript/rnas/1f1t

>  <Rbt.Executable>
rbdock ($Id: //depot/dev/client3/rdock/2013.1/src/exe/rbdock.cxx#4 $)

>  <Rbt.Library>
libRbt.so (2013.1, Build901 2013/11/27)

>  <Rbt.Parameter_File>
/export/apps/rDock/src/rDock_2013.1_src/data/scripts/dock_solv.prm

>  <Rbt.Receptor>
prm/pocket_docking_5.prm

>  <SCORE>
-56.3482

>  <SCORE.INTER>
-56.6663

>  <SCORE.INTER.CONST>
1

>  <SCORE.INTER.POLAR>
0

>  <SCORE.INTER.ROT>
3

>  <SCORE.INTER.SOLV>
9.1495

>  <SCORE.INTER.VDW>
-46.4274

>  <SCORE.INTER.norm>
-2.17947

>  <SCORE.INTRA>
0.318063

>  <SCORE.INTRA.DIHEDRAL>
-4.478e-06

>  <SCORE.INTRA.DIHEDRAL.0>
3.60016

>  <SCORE.INTRA.POLAR>
0

>  <SCORE.INTRA.POLAR.0>
0

>  <SCORE.INTRA.REPUL>
0

>  <SCORE.INTRA.REPUL.0>
0

>  <SCORE.INTRA.SOLV>
2.428e-06

>  <SCORE.INTRA.SOLV.lig_0>
-10.9882

>  <SCORE.INTRA.VDW>
0.318064

>  <SCORE.INTRA.VDW.0>
1.84442

>  <SCORE.INTRA.norm>
0.0122332

>  <SCORE.RESTR>
0

>  <SCORE.RESTR.CAVITY>
0

>  <SCORE.RESTR.norm>
0

>  <SCORE.SYSTEM>
0

>  <SCORE.SYSTEM.CONST>
0

>  <SCORE.SYSTEM.DIHEDRAL>
0

>  <SCORE.SYSTEM.SOLV>
0

>  <SCORE.SYSTEM.norm>
0

>  <SCORE.heavy>
26

>  <SCORE.norm>
-2.16724

>  <RMSD>
0.751

$$$$
ligand
 OpenBabel02271912153D
libRbt.so/2013.1/901 2013/11/27
 26 29  0  0  0  0  0  0  0  0999 V2000
  111.2559  -74.6815  -81.9482 C   0  0  1  0  0  0  0  0  0  0  0  0
  111.4297  -74.3405  -80.6145 N   0  0  0  0  0  0  0  0  0  0  0  0
  111.7429  -75.9611  -82.4421 C   0  0  0  0  0  0  0  0  0  0  0  0
  112.6603  -80.5927  -87.5271 N   0  0  0  0  0  0  0  0  0  0  0  0
  112.0131  -77.4747  -84.2547 O   0  0  0  0  0  0  0  0  0  0  0  0
  111.4943  -76.1534  -83.8024 C   0  0  2  0  0  0  0  0  0  0  0  0
  111.7912  -77.6373  -85.5005 C   0  0  1  0  0  0  0  0  0  0  0  0
  112.3227  -78.9566  -85.8420 C   0  0  0  0  0  0  0  0  0  0  0  0
  112.1663  -79.3112  -87.2288 C   0  0  2  0  0  0  0  0  0  0  0  0
  111.5614  -78.4473  -88.1750 C   0  0  0  0  0  0  0  0  0  0  0  0
  111.0451  -77.1530  -87.7697 C   0  0  0  0  0  0  0  0  0  0  0  0
  111.1780  -76.7829  -86.3820 C   0  0  2  0  0  0  0  0  0  0  0  0
  110.6009  -75.4287  -86.0429 C   0  0  1  0  0  0  0  0  0  0  0  0
  110.8581  -75.2716  -84.6691 C   0  0  2  0  0  0  0  0  0  0  0  0
  110.3689  -73.9919  -84.1513 C   0  0  0  0  0  0  0  0  0  0  0  0
  110.6132  -73.7681  -82.7611 C   0  0  0  0  0  0  0  0  0  0  0  0
  109.9849  -74.6159  -86.9756 C   0  0  0  0  0  0  0  0  0  0  0  0
  110.3067  -73.2612  -87.2240 C   0  0  0  0  0  0  0  0  0  0  0  0
  109.7075  -72.4312  -88.1732 C   0  0  0  0  0  0  0  0  0  0  0  0
  108.6453  -72.9552  -89.0187 C   0  0  0  0  0  0  0  0  0  0  0  0
  108.3398  -74.3086  -88.7377 C   0  0  0  0  0  0  0  0  0  0  0  0
  108.9104  -75.1752  -87.7953 C   0  0  0  0  0  0  0  0  0  0  0  0
  110.9535  -73.0726  -80.0687 C   0  0  0  0  0  0  0  0  0  0  0  0
  112.0833  -75.1652  -79.5761 C   0  0  0  0  0  0  0  0  0  0  0  0
  113.2320  -81.6508  -86.6646 C   0  0  0  0  0  0  0  0  0  0  0  0
  112.6100  -81.0332  -88.9659 C   0  0  0  0  0  0  0  0  0  0  0  0
  1  2  1  1  0  0  0
  1  3  1  0  0  0  0
  1 16  1  0  0  0  0
  2 23  1  0  0  0  0
  2 24  1  0  0  0  0
  4 25  1  0  0  0  0
  4 26  1  0  0  0  0
  5  6  1  0  0  0  0
  6  3  1  6  0  0  0
  6 14  1  0  0  0  0
  7  5  1  1  0  0  0
  7  8  1  0  0  0  0
  7 12  1  0  0  0  0
  8  9  1  0  0  0  0
  9  4  1  1  0  0  0
  9 10  1  0  0  0  0
 10 11  1  0  0  0  0
 12 11  1  6  0  0  0
 12 13  1  0  0  0  0
 13 14  1  0  0  0  0
 13 17  1  6  0  0  0
 14 15  1  6  0  0  0
 15 16  1  0  0  0  0
 17 18  1  0  0  0  0
 17 22  1  0  0  0  0
 18 19  1  0  0  0  0
 19 20  1  0  0  0  0
 20 21  1  0  0  0  0
 21 22  1  0  0  0  0
M  END
>  <CHROM.1>
-179.68058704,3.97543332,-127.51122258,111.13688133,-76.22918024,-85.38181310
-1.81709836,1.08464703,-2.07126410

>  <Name>
ligand

>  <RI>
0

>  <Rbt.Current_Directory>
/home/itssahil/PROJECTS/Mol_Feturizer/Test_systems_manuscript/rnas/1f1t

>  <Rbt.Executable>
rbdock ($Id: //depot/dev/client3/rdock/2013.1/src/exe/rbdock.cxx#4 $)

>  <Rbt.Library>
libRbt.so (2013.1, Build901 2013/11/27)

>  <Rbt.Parameter_File>
/export/apps/rDock/src/rDock_2013.1_src/data/scripts/dock_solv.prm

>  <Rbt.Receptor>
prm/pocket_docking_4.prm

>  <SCORE>
-56.1391

>  <SCORE.INTER>
-56.7414

>  <SCORE.INTER.CONST>
1

>  <SCORE.INTER.POLAR>
0

>  <SCORE.INTER.ROT>
3

>  <SCORE.INTER.SOLV>
9.08939

>  <SCORE.INTER.VDW>
-46.4574

>  <SCORE.INTER.norm>
-2.18236

>  <SCORE.INTRA>
0.602305

>  <SCORE.INTRA.DIHEDRAL>
4.60279e-06

>  <SCORE.INTRA.DIHEDRAL.0>
3.60016

>  <SCORE.INTRA.POLAR>
0

>  <SCORE.INTRA.POLAR.0>
0

>  <SCORE.INTRA.REPUL>
0

>  <SCORE.INTRA.REPUL.0>
0

>  <SCORE.INTRA.SOLV>
5.0162e-06

>  <SCORE.INTRA.SOLV.lig_0>
-10.9882

>  <SCORE.INTRA.VDW>
0.6023

>  <SCORE.INTRA.VDW.0>
1.84442

>  <SCORE.INTRA.norm>
0.0231656

>  <SCORE.RESTR>
0

>  <SCORE.RESTR.CAVITY>
0

>  <SCORE.RESTR.norm>
0

>  <SCORE.SYSTEM>
0

>  <SCORE.SYSTEM.CONST>
0

>  <SCORE.SYSTEM.DIHEDRAL>
0

>  <SCORE.SYSTEM.SOLV>
0

>  <SCORE.SYSTEM.norm>
0

>  <SCORE.heavy>
26

>  <SCORE.norm>
-2.1592

>  <RMSD>
0.752

$$$$
ligand
 OpenBabel02271912153D
libRbt.so/2013.1/901 2013/11/27
 26 29  0  0  0  0  0  0  0  0999 V2000
  112.2435  -79.4691  -87.1404 C   0  0  1  0  0  0  0  0  0  0  0  0
  112.7725  -80.6937  -87.5218 N   0  0  0  0  0  0  0  0  0  0  0  0
  112.3715  -79.0179  -85.7625 C   0  0  0  0  0  0  0  0  0  0  0  0
  111.2972  -74.3480  -80.7437 N   0  0  0  0  0  0  0  0  0  0  0  0
  111.9450  -77.3581  -84.1155 O   0  0  0  0  0  0  0  0  0  0  0  0
  111.7864  -77.7702  -85.5384 C   0  0  2  0  0  0  0  0  0  0  0  0
  111.3985  -76.2223  -83.9175 C   0  0  1  0  0  0  0  0  0  0  0  0
  111.6164  -75.9038  -82.5066 C   0  0  0  0  0  0  0  0  0  0  0  0
  111.0525  -74.6442  -82.0956 C   0  0  2  0  0  0  0  0  0  0  0  0
  110.3398  -73.8001  -82.9828 C   0  0  0  0  0  0  0  0  0  0  0  0
  110.1660  -74.1700  -84.3751 C   0  0  0  0  0  0  0  0  0  0  0  0
  110.7353  -75.4209  -84.8126 C   0  0  2  0  0  0  0  0  0  0  0  0
  110.5225  -75.7211  -86.2777 C   0  0  1  0  0  0  0  0  0  0  0  0
  111.1303  -76.9746  -86.4711 C   0  0  2  0  0  0  0  0  0  0  0  0
  111.0180  -77.4431  -87.8542 C   0  0  0  0  0  0  0  0  0  0  0  0
  111.6065  -78.7200  -88.1105 C   0  0  0  0  0  0  0  0  0  0  0  0
  109.8525  -74.8671  -87.1332 C   0  0  0  0  0  0  0  0  0  0  0  0
  108.7729  -75.2270  -87.9731 C   0  0  0  0  0  0  0  0  0  0  0  0
  108.0739  -74.3747  -88.8297 C   0  0  0  0  0  0  0  0  0  0  0  0
  108.4453  -72.9698  -88.9072 C   0  0  0  0  0  0  0  0  0  0  0  0
  109.5350  -72.6448  -88.0640 C   0  0  0  0  0  0  0  0  0  0  0  0
  110.2663  -73.4655  -87.1943 C   0  0  0  0  0  0  0  0  0  0  0  0
  112.8615  -81.0992  -88.9218 C   0  0  0  0  0  0  0  0  0  0  0  0
  113.3147  -81.7338  -86.6218 C   0  0  0  0  0  0  0  0  0  0  0  0
  111.9177  -75.1427  -79.6602 C   0  0  0  0  0  0  0  0  0  0  0  0
  110.8926  -72.9834  -80.2527 C   0  0  0  0  0  0  0  0  0  0  0  0
  1  2  1  6  0  0  0
  1  3  1  0  0  0  0
  1 16  1  0  0  0  0
  2 23  1  0  0  0  0
  2 24  1  0  0  0  0
  4 25  1  0  0  0  0
  4 26  1  0  0  0  0
  5  6  1  0  0  0  0
  6  3  1  1  0  0  0
  6 14  1  0  0  0  0
  7  5  1  6  0  0  0
  7  8  1  0  0  0  0
  7 12  1  0  0  0  0
  8  9  1  0  0  0  0
  9  4  1  6  0  0  0
  9 10  1  0  0  0  0
 10 11  1  0  0  0  0
 12 11  1  1  0  0  0
 12 13  1  0  0  0  0
 13 14  1  0  0  0  0
 13 17  1  1  0  0  0
 14 15  1  1  0  0  0
 15 16  1  0  0  0  0
 17 18  1  0  0  0  0
 17 22  1  0  0  0  0
 18 19  1  0  0  0  0
 19 20  1  0  0  0  0
 20 21  1  0  0  0  0
 21 22  1  0  0  0  0
M  END
>  <CHROM.1>
-170.05991283,-6.11926552,-127.69253280,111.06676418,-76.32141337,-85.43575609
-1.24364069,-1.04995301,1.08029902

>  <Name>
ligand

>  <RI>
0

>  <Rbt.Current_Directory>
/home/itssahil/PROJECTS/Mol_Feturizer/Test_systems_manuscript/rnas/1f1t

>  <Rbt.Executable>
rbdock ($Id: //depot/dev/client3/rdock/2013.1/src/exe/rbdock.cxx#4 $)

>  <Rbt.Library>
libRbt.so (2013.1, Build901 2013/11/27)

>  <Rbt.Parameter_File>
/export/apps/rDock/src/rDock_2013.1_src/data/scripts/dock_solv.prm

>  <Rbt.Receptor>
prm/pocket_docking_4.prm

>  <SCORE>
-55.7487

>  <SCORE.INTER>
-56.2266

>  <SCORE.INTER.CONST>
1

>  <SCORE.INTER.POLAR>
0

>  <SCORE.INTER.ROT>
3

>  <SCORE.INTER.SOLV>
8.90275

>  <SCORE.INTER.VDW>
-46.052

>  <SCORE.INTER.norm>
-2.16256

>  <SCORE.INTRA>
0.477833

>  <SCORE.INTRA.DIHEDRAL>
-5.62622e-06

>  <SCORE.INTRA.DIHEDRAL.0>
3.60016

>  <SCORE.INTRA.POLAR>
0

>  <SCORE.INTRA.POLAR.0>
0

>  <SCORE.INTRA.REPUL>
0

>  <SCORE.INTRA.REPUL.0>
0

>  <SCORE.INTRA.SOLV>
4.36918e-05

>  <SCORE.INTRA.SOLV.lig_0>
-10.9882

>  <SCORE.INTRA.VDW>
0.477814

>  <SCORE.INTRA.VDW.0>
1.84442

>  <SCORE.INTRA.norm>
0.0183782

>  <SCORE.RESTR>
0

>  <SCORE.RESTR.CAVITY>
0

>  <SCORE.RESTR.norm>
0

>  <SCORE.SYSTEM>
0

>  <SCORE.SYSTEM.CONST>
0

>  <SCORE.SYSTEM.DIHEDRAL>
0

>  <SCORE.SYSTEM.SOLV>
0

>  <SCORE.SYSTEM.norm>
0

>  <SCORE.heavy>
26

>  <SCORE.norm>
-2.14418

>  <RMSD>
0.753

$$$$
ligand
 OpenBabel02271912153D
libRbt.so/2013.1/901 2013/11/27
 26 29  0  0  0  0  0  0  0  0999 V2000
  111.2569  -74.6097  -81.9012 C   0  0  1  0  0  0  0  0  0  0  0  0
  111.4334  -74.2674  -80.5682 N   0  0  0  0  0  0  0  0  0  0  0  0
  111.7504  -75.8861  -82.3968 C   0  0  0  0  0  0  0  0  0  0  0  0
  112.6792  -80.5121  -87.4848 N   0  0  0  0  0  0  0  0  0  0  0  0
  112.0238  -77.3982  -84.2102 O   0  0  0  0  0  0  0  0  0  0  0  0
  111.4981  -76.0802  -83.7562 C   0  0  2  0  0  0  0  0  0  0  0  0
  111.7983  -77.5623  -85.4553 C   0  0  1  0  0  0  0  0  0  0  0  0
  112.3371  -78.8782  -85.7986 C   0  0  0  0  0  0  0  0  0  0  0  0
  112.1779  -79.2339  -87.1848 C   0  0  2  0  0  0  0  0  0  0  0  0
  111.5639  -78.3740  -88.1288 C   0  0  0  0  0  0  0  0  0  0  0  0
  111.0407  -77.0832  -87.7217 C   0  0  0  0  0  0  0  0  0  0  0  0
  111.1763  -76.7120  -86.3346 C   0  0  2  0  0  0  0  0  0  0  0  0
  110.5916  -75.3616  -85.9934 C   0  0  1  0  0  0  0  0  0  0  0  0
  110.8529  -75.2026  -84.6205 C   0  0  2  0  0  0  0  0  0  0  0  0
  110.3573  -73.9261  -84.1011 C   0  0  0  0  0  0  0  0  0  0  0  0
  110.6052  -73.7006  -82.7118 C   0  0  0  0  0  0  0  0  0  0  0  0
  109.9669  -74.5529  -86.9239 C   0  0  0  0  0  0  0  0  0  0  0  0
  110.2987  -73.2049  -87.1944 C   0  0  0  0  0  0  0  0  0  0  0  0
  109.6907  -72.3794  -88.1419 C   0  0  0  0  0  0  0  0  0  0  0  0
  108.6068  -72.9013  -88.9609 C   0  0  0  0  0  0  0  0  0  0  0  0
  108.2919  -74.2478  -88.6580 C   0  0  0  0  0  0  0  0  0  0  0  0
  108.8708  -75.1097  -87.7164 C   0  0  0  0  0  0  0  0  0  0  0  0
  111.0346  -72.9652  -80.0414 C   0  0  0  0  0  0  0  0  0  0  0  0
  112.0155  -75.1231  -79.5124 C   0  0  0  0  0  0  0  0  0  0  0  0
  113.2555  -81.5688  -86.6235 C   0  0  0  0  0  0  0  0  0  0  0  0
  112.6329  -80.9504  -88.9245 C   0  0  0  0  0  0  0  0  0  0  0  0
  1  2  1  1  0  0  0
  1  3  1  0  0  0  0
  1 16  1  0  0  0  0
  2 23  1  0  0  0  0
  2 24  1  0  0  0  0
  4 25  1  0  0  0  0
  4 26  1  0  0  0  0
  5  6  1  0  0  0  0
  6  3  1  6  0  0  0
  6 14  1  0  0  0  0
  7  5  1  1  0  0  0
  7  8  1  0  0  0  0
  7 12  1  0  0  0  0
  8  9  1  0  0  0  0
  9  4  1  1  0  0  0
  9 10  1  0  0  0  0
 10 11  1  0  0  0  0
 12 11  1  6  0  0  0
 12 13  1  0  0  0  0
 13 14  1  0  0  0  0
 13 17  1  6  0  0  0
 14 15  1  6  0  0  0
 15 16  1  0  0  0  0
 17 18  1  0  0  0  0
 17 22  1  0  0  0  0
 18 19  1  0  0  0  0
 19 20  1  0  0  0  0
 20 21  1  0  0  0  0
 21 22  1  0  0  0  0
M  END
>  <CHROM.1>
175.96735094,4.28202247,-126.01497863,111.13521719,-76.15834706,-85.33413568
-1.81679147,1.07855750,-2.07162788

>  <Name>
ligand

>  <RI>
0

>  <Rbt.Current_Directory>
/home/itssahil/PROJECTS/Mol_Feturizer/Test_systems_manuscript/rnas/1f1t

>  <Rbt.Executable>
rbdock ($Id: //depot/dev/client3/rdock/2013.1/src/exe/rbdock.cxx#4 $)

>  <Rbt.Library>
libRbt.so (2013.1, Build901 2013/11/27)

>  <Rbt.Parameter_File>
/export/apps/rDock/src/rDock_2013.1_src/data/scripts/dock_solv.prm

>  <Rbt.Receptor>
prm/pocket_docking_4.prm

>  <SCORE>
-56.1707

>  <SCORE.INTER>
-56.7028

>  <SCORE.INTER.CONST>
1

>  <SCORE.INTER.POLAR>
0

>  <SCORE.INTER.ROT>
3

>  <SCORE.INTER.SOLV>
9.21444

>  <SCORE.INTER.VDW>
-46.4734

>  <SCORE.INTER.norm>
-2.18088

>  <SCORE.INTRA>
0.532162

>  <SCORE.INTRA.DIHEDRAL>
-9.51487e-07

>  <SCORE.INTRA.DIHEDRAL.0>
3.60016

>  <SCORE.INTRA.POLAR>
0

>  <SCORE.INTRA.POLAR.0>
0

>  <SCORE.INTRA.REPUL>
0

>  <SCORE.INTRA.REPUL.0>
0

>  <SCORE.INTRA.SOLV>
1.42802e-05

>  <SCORE.INTRA.SOLV.lig_0>
-10.9882

>  <SCORE.INTRA.VDW>
0.532155

>  <SCORE.INTRA.VDW.0>
1.84442

>  <SCORE.INTRA.norm>
0.0204678

>  <SCORE.RESTR>
0

>  <SCORE.RESTR.CAVITY>
0

>  <SCORE.RESTR.norm>
0

>  <SCORE.SYSTEM>
0

>  <SCORE.SYSTEM.CONST>
0

>  <SCORE.SYSTEM.DIHEDRAL>
0

>  <SCORE.SYSTEM.SOLV>
0

>  <SCORE.SYSTEM.norm>
0

>  <SCORE.heavy>
26

>  <SCORE.norm>
-2.16041

>  <RMSD>
0.753

$$$$
ligand
 OpenBabel02271912153D
libRbt.so/2013.1/901 2013/11/27
 26 29  0  0  0  0  0  0  0  0999 V2000
  111.1723  -74.7048  -82.0366 C   0  0  1  0  0  0  0  0  0  0  0  0
  111.3494  -74.3421  -80.7091 N   0  0  0  0  0  0  0  0  0  0  0  0
  111.6952  -75.9739  -82.5207 C   0  0  0  0  0  0  0  0  0  0  0  0
  112.7072  -80.6350  -87.5606 N   0  0  0  0  0  0  0  0  0  0  0  0
  111.9947  -77.5000  -84.3182 O   0  0  0  0  0  0  0  0  0  0  0  0
  111.4382  -76.1907  -83.8758 C   0  0  2  0  0  0  0  0  0  0  0  0
  111.7646  -77.6848  -85.5595 C   0  0  1  0  0  0  0  0  0  0  0  0
  112.3350  -78.9903  -85.8912 C   0  0  0  0  0  0  0  0  0  0  0  0
  112.1750  -79.3667  -87.2720 C   0  0  2  0  0  0  0  0  0  0  0  0
  111.5321  -78.5343  -88.2214 C   0  0  0  0  0  0  0  0  0  0  0  0
  110.9785  -77.2527  -87.8257 C   0  0  0  0  0  0  0  0  0  0  0  0
  111.1144  -76.8615  -86.4441 C   0  0  2  0  0  0  0  0  0  0  0  0
  110.4973  -75.5227  -86.1145 C   0  0  1  0  0  0  0  0  0  0  0  0
  110.7643  -75.3405  -84.7456 C   0  0  2  0  0  0  0  0  0  0  0  0
  110.2394  -74.0712  -84.2375 C   0  0  0  0  0  0  0  0  0  0  0  0
  110.4914  -73.8227  -82.8529 C   0  0  0  0  0  0  0  0  0  0  0  0
  109.8451  -74.7417  -87.0497 C   0  0  0  0  0  0  0  0  0  0  0  0
  108.8148  -75.1827  -87.9125 C   0  0  0  0  0  0  0  0  0  0  0  0
  108.1337  -74.4042  -88.8500 C   0  0  0  0  0  0  0  0  0  0  0  0
  108.4715  -72.9965  -88.9976 C   0  0  0  0  0  0  0  0  0  0  0  0
  109.5127  -72.5898  -88.1290 C   0  0  0  0  0  0  0  0  0  0  0  0
  110.2246  -73.3350  -87.1789 C   0  0  0  0  0  0  0  0  0  0  0  0
  110.9237  -73.0432  -80.1954 C   0  0  0  0  0  0  0  0  0  0  0  0
  111.9583  -75.1708  -79.6469 C   0  0  0  0  0  0  0  0  0  0  0  0
  112.8930  -81.3548  -88.8403 C   0  0  0  0  0  0  0  0  0  0  0  0
  113.2125  -81.4508  -86.4004 C   0  0  0  0  0  0  0  0  0  0  0  0
  1  2  1  1  0  0  0
  1  3  1  0  0  0  0
  1 16  1  0  0  0  0
  2 23  1  0  0  0  0
  2 24  1  0  0  0  0
  4 25  1  0  0  0  0
  4 26  1  0  0  0  0
  5  6  1  0  0  0  0
  6  3  1  6  0  0  0
  6 14  1  0  0  0  0
  7  5  1  1  0  0  0
  7  8  1  0  0  0  0
  7 12  1  0  0  0  0
  8  9  1  0  0  0  0
  9  4  1  1  0  0  0
  9 10  1  0  0  0  0
 10 11  1  0  0  0  0
 12 11  1  6  0  0  0
 12 13  1  0  0  0  0
 13 14  1  0  0  0  0
 13 17  1  6  0  0  0
 14 15  1  6  0  0  0
 15 16  1  0  0  0  0
 17 18  1  0  0  0  0
 17 22  1  0  0  0  0
 18 19  1  0  0  0  0
 19 20  1  0  0  0  0
 20 21  1  0  0  0  0
 21 22  1  0  0  0  0
M  END
>  <CHROM.1>
175.81723799,-172.77843470,51.06856099,111.07830679,-76.28272079,-85.42044092
-1.86021976,1.05724488,-2.06977172

>  <Name>
ligand

>  <RI>
0

>  <Rbt.Current_Directory>
/home/itssahil/PROJECTS/Mol_Feturizer/Test_systems_manuscript/rnas/1f1t

>  <Rbt.Executable>
rbdock ($Id: //depot/dev/client3/rdock/2013.1/src/exe/rbdock.cxx#4 $)

>  <Rbt.Library>
libRbt.so (2013.1, Build901 2013/11/27)

>  <Rbt.Parameter_File>
/export/apps/rDock/src/rDock_2013.1_src/data/scripts/dock_solv.prm

>  <Rbt.Receptor>
prm/pocket_docking_6.prm

>  <SCORE>
-53.3015

>  <SCORE.INTER>
-56.1451

>  <SCORE.INTER.CONST>
1

>  <SCORE.INTER.POLAR>
0

>  <SCORE.INTER.ROT>
3

>  <SCORE.INTER.SOLV>
8.95061

>  <SCORE.INTER.VDW>
-46.0136

>  <SCORE.INTER.norm>
-2.15943

>  <SCORE.INTRA>
2.84359

>  <SCORE.INTRA.DIHEDRAL>
-0.000291944

>  <SCORE.INTRA.DIHEDRAL.0>
3.60016

>  <SCORE.INTRA.POLAR>
0

>  <SCORE.INTRA.POLAR.0>
0

>  <SCORE.INTRA.REPUL>
0

>  <SCORE.INTRA.REPUL.0>
0

>  <SCORE.INTRA.SOLV>
-0.000982579

>  <SCORE.INTRA.SOLV.lig_0>
-10.9882

>  <SCORE.INTRA.VDW>
2.84422

>  <SCORE.INTRA.VDW.0>
1.84442

>  <SCORE.INTRA.norm>
0.109369

>  <SCORE.RESTR>
0

>  <SCORE.RESTR.CAVITY>
0

>  <SCORE.RESTR.norm>
0

>  <SCORE.SYSTEM>
0

>  <SCORE.SYSTEM.CONST>
0

>  <SCORE.SYSTEM.DIHEDRAL>
0

>  <SCORE.SYSTEM.SOLV>
0

>  <SCORE.SYSTEM.norm>
0

>  <SCORE.heavy>
26

>  <SCORE.norm>
-2.05006

>  <RMSD>
0.753

$$$$
ligand
 OpenBabel02271912153D
libRbt.so/2013.1/901 2013/11/27
 26 29  0  0  0  0  0  0  0  0999 V2000
  112.1899  -79.4124  -87.0368 C   0  0  1  0  0  0  0  0  0  0  0  0
  112.7155  -80.6432  -87.4030 N   0  0  0  0  0  0  0  0  0  0  0  0
  112.3151  -78.9466  -85.6636 C   0  0  0  0  0  0  0  0  0  0  0  0
  111.2421  -74.2178  -80.6999 N   0  0  0  0  0  0  0  0  0  0  0  0
  111.8895  -77.2672  -84.0363 O   0  0  0  0  0  0  0  0  0  0  0  0
  111.7340  -77.6943  -85.4551 C   0  0  2  0  0  0  0  0  0  0  0  0
  111.3467  -76.1272  -83.8526 C   0  0  1  0  0  0  0  0  0  0  0  0
  111.5612  -75.7941  -82.4446 C   0  0  0  0  0  0  0  0  0  0  0  0
  111.0007  -74.5279  -82.0493 C   0  0  2  0  0  0  0  0  0  0  0  0
  110.2942  -73.6909  -82.9480 C   0  0  0  0  0  0  0  0  0  0  0  0
  110.1237  -74.0754  -84.3369 C   0  0  0  0  0  0  0  0  0  0  0  0
  110.6896  -75.3332  -84.7586 C   0  0  2  0  0  0  0  0  0  0  0  0
  110.4804  -75.6486  -86.2211 C   0  0  1  0  0  0  0  0  0  0  0  0
  111.0840  -76.9065  -86.3987 C   0  0  2  0  0  0  0  0  0  0  0  0
  110.9746  -77.3898  -87.7769 C   0  0  0  0  0  0  0  0  0  0  0  0
  111.5589  -78.6716  -88.0172 C   0  0  0  0  0  0  0  0  0  0  0  0
  109.8166  -74.8016  -87.0882 C   0  0  0  0  0  0  0  0  0  0  0  0
  108.7240  -75.1611  -87.9112 C   0  0  0  0  0  0  0  0  0  0  0  0
  108.0310  -74.3152  -88.7791 C   0  0  0  0  0  0  0  0  0  0  0  0
  108.4241  -72.9184  -88.8885 C   0  0  0  0  0  0  0  0  0  0  0  0
  109.5263  -72.5938  -88.0616 C   0  0  0  0  0  0  0  0  0  0  0  0
  110.2521  -73.4084  -87.1815 C   0  0  0  0  0  0  0  0  0  0  0  0
  112.7609  -81.0855  -88.7939 C   0  0  0  0  0  0  0  0  0  0  0  0
  113.2955  -81.6549  -86.4942 C   0  0  0  0  0  0  0  0  0  0  0  0
  111.8894  -74.9888  -79.6150 C   0  0  0  0  0  0  0  0  0  0  0  0
  110.8004  -72.8628  -80.2142 C   0  0  0  0  0  0  0  0  0  0  0  0
  1  2  1  6  0  0  0
  1  3  1  0  0  0  0
  1 16  1  0  0  0  0
  2 23  1  0  0  0  0
  2 24  1  0  0  0  0
  4 25  1  0  0  0  0
  4 26  1  0  0  0  0
  5  6  1  0  0  0  0
  6  3  1  1  0  0  0
  6 14  1  0  0  0  0
  7  5  1  6  0  0  0
  7  8  1  0  0  0  0
  7 12  1  0  0  0  0
  8  9  1  0  0  0  0
  9  4  1  6  0  0  0
  9 10  1  0  0  0  0
 10 11  1  0  0  0  0
 12 11  1  1  0  0  0
 12 13  1  0  0  0  0
 13 14  1  0  0  0  0
 13 17  1  1  0  0  0
 14 15  1  1  0  0  0
 15 16  1  0  0  0  0
 17 18  1  0  0  0  0
 17 22  1  0  0  0  0
 18 19  1  0  0  0  0
 19 20  1  0  0  0  0
 20 21  1  0  0  0  0
 21 22  1  0  0  0  0
M  END
>  <CHROM.1>
-172.44309229,-4.18092978,-126.56925606,111.01937197,-76.24189314,-85.37081545
-1.24179324,-1.05374152,1.07092749

>  <Name>
ligand

>  <RI>
0

>  <Rbt.Current_Directory>
/home/itssahil/PROJECTS/Mol_Feturizer/Test_systems_manuscript/rnas/1f1t

>  <Rbt.Executable>
rbdock ($Id: //depot/dev/client3/rdock/2013.1/src/exe/rbdock.cxx#4 $)

>  <Rbt.Library>
libRbt.so (2013.1, Build901 2013/11/27)

>  <Rbt.Parameter_File>
/export/apps/rDock/src/rDock_2013.1_src/data/scripts/dock_solv.prm

>  <Rbt.Receptor>
prm/pocket_docking_3.prm

>  <SCORE>
-55.6646

>  <SCORE.INTER>
-56.1691

>  <SCORE.INTER.CONST>
1

>  <SCORE.INTER.POLAR>
0

>  <SCORE.INTER.ROT>
3

>  <SCORE.INTER.SOLV>
8.96436

>  <SCORE.INTER.VDW>
-46.0342

>  <SCORE.INTER.norm>
-2.16035

>  <SCORE.INTRA>
0.5045

>  <SCORE.INTRA.DIHEDRAL>
-3.8313e-07

>  <SCORE.INTRA.DIHEDRAL.0>
3.60016

>  <SCORE.INTRA.POLAR>
0

>  <SCORE.INTRA.POLAR.0>
0

>  <SCORE.INTRA.REPUL>
0

>  <SCORE.INTRA.REPUL.0>
0

>  <SCORE.INTRA.SOLV>
2.2593e-05

>  <SCORE.INTRA.SOLV.lig_0>
-10.9882

>  <SCORE.INTRA.VDW>
0.504489

>  <SCORE.INTRA.VDW.0>
1.84442

>  <SCORE.INTRA.norm>
0.0194039

>  <SCORE.RESTR>
0

>  <SCORE.RESTR.CAVITY>
0

>  <SCORE.RESTR.norm>
0

>  <SCORE.SYSTEM>
0

>  <SCORE.SYSTEM.CONST>
0

>  <SCORE.SYSTEM.DIHEDRAL>
0

>  <SCORE.SYSTEM.SOLV>
0

>  <SCORE.SYSTEM.norm>
0

>  <SCORE.heavy>
26

>  <SCORE.norm>
-2.14095

>  <RMSD>
0.754

$$$$
ligand
 OpenBabel02271912153D
libRbt.so/2013.1/901 2013/11/27
 26 29  0  0  0  0  0  0  0  0999 V2000
  111.1713  -74.6994  -82.0486 C   0  0  1  0  0  0  0  0  0  0  0  0
  111.3486  -74.3360  -80.7214 N   0  0  0  0  0  0  0  0  0  0  0  0
  111.7081  -75.9615  -82.5360 C   0  0  0  0  0  0  0  0  0  0  0  0
  112.7597  -80.6045  -87.5844 N   0  0  0  0  0  0  0  0  0  0  0  0
  112.0201  -77.4819  -84.3362 O   0  0  0  0  0  0  0  0  0  0  0  0
  111.4491  -76.1800  -83.8904 C   0  0  2  0  0  0  0  0  0  0  0  0
  111.7879  -77.6682  -85.5768 C   0  0  1  0  0  0  0  0  0  0  0  0
  112.3731  -78.9663  -85.9120 C   0  0  0  0  0  0  0  0  0  0  0  0
  112.2130  -79.3431  -87.2926 C   0  0  2  0  0  0  0  0  0  0  0  0
  111.5567  -78.5177  -88.2389 C   0  0  0  0  0  0  0  0  0  0  0  0
  110.9888  -77.2433  -87.8398 C   0  0  0  0  0  0  0  0  0  0  0  0
  111.1247  -76.8520  -86.4583 C   0  0  2  0  0  0  0  0  0  0  0  0
  110.4924  -75.5212  -86.1251 C   0  0  1  0  0  0  0  0  0  0  0  0
  110.7618  -75.3372  -84.7569 C   0  0  2  0  0  0  0  0  0  0  0  0
  110.2232  -74.0749  -84.2457 C   0  0  0  0  0  0  0  0  0  0  0  0
  110.4769  -73.8249  -82.8616 C   0  0  0  0  0  0  0  0  0  0  0  0
  109.8274  -74.7473  -87.0572 C   0  0  0  0  0  0  0  0  0  0  0  0
  108.7845  -75.1944  -87.9015 C   0  0  0  0  0  0  0  0  0  0  0  0
  108.0906  -74.4229  -88.8355 C   0  0  0  0  0  0  0  0  0  0  0  0
  108.4274  -73.0167  -88.9994 C   0  0  0  0  0  0  0  0  0  0  0  0
  109.4812  -72.6039  -88.1491 C   0  0  0  0  0  0  0  0  0  0  0  0
  110.2061  -73.3421  -87.2033 C   0  0  0  0  0  0  0  0  0  0  0  0
  111.9906  -75.2205  -79.7530 C   0  0  0  0  0  0  0  0  0  0  0  0
  110.9467  -73.0555  -80.1012 C   0  0  0  0  0  0  0  0  0  0  0  0
  112.9987  -81.2985  -88.8696 C   0  0  0  0  0  0  0  0  0  0  0  0
  113.2202  -81.4421  -86.4211 C   0  0  0  0  0  0  0  0  0  0  0  0
  1  2  1  1  0  0  0
  1  3  1  0  0  0  0
  1 16  1  0  0  0  0
  2 23  1  0  0  0  0
  2 24  1  0  0  0  0
  4 25  1  0  0  0  0
  4 26  1  0  0  0  0
  5  6  1  0  0  0  0
  6  3  1  6  0  0  0
  6 14  1  0  0  0  0
  7  5  1  1  0  0  0
  7  8  1  0  0  0  0
  7 12  1  0  0  0  0
  8  9  1  0  0  0  0
  9  4  1  1  0  0  0
  9 10  1  0  0  0  0
 10 11  1  0  0  0  0
 12 11  1  6  0  0  0
 12 13  1  0  0  0  0
 13 14  1  0  0  0  0
 13 17  1  6  0  0  0
 14 15  1  6  0  0  0
 15 16  1  0  0  0  0
 17 18  1  0  0  0  0
 17 22  1  0  0  0  0
 18 19  1  0  0  0  0
 19 20  1  0  0  0  0
 20 21  1  0  0  0  0
 21 22  1  0  0  0  0
M  END
>  <CHROM.1>
-3.99549117,-170.00016019,52.17999974,111.08731377,-76.27839211,-85.43334489
-1.86380853,1.04556460,-2.06363408

>  <Name>
ligand

>  <RI>
0

>  <Rbt.Current_Directory>
/home/itssahil/PROJECTS/Mol_Feturizer/Test_systems_manuscript/rnas/1f1t

>  <Rbt.Executable>
rbdock ($Id: //depot/dev/client3/rdock/2013.1/src/exe/rbdock.cxx#4 $)

>  <Rbt.Library>
libRbt.so (2013.1, Build901 2013/11/27)

>  <Rbt.Parameter_File>
/export/apps/rDock/src/rDock_2013.1_src/data/scripts/dock_solv.prm

>  <Rbt.Receptor>
prm/pocket_docking_5.prm

>  <SCORE>
-53.6119

>  <SCORE.INTER>
-56.028

>  <SCORE.INTER.CONST>
1

>  <SCORE.INTER.POLAR>
0

>  <SCORE.INTER.ROT>
3

>  <SCORE.INTER.SOLV>
9.01891

>  <SCORE.INTER.VDW>
-45.9583

>  <SCORE.INTER.norm>
-2.15492

>  <SCORE.INTRA>
2.41611

>  <SCORE.INTRA.DIHEDRAL>
-0.000282572

>  <SCORE.INTRA.DIHEDRAL.0>
3.60016

>  <SCORE.INTRA.POLAR>
0

>  <SCORE.INTRA.POLAR.0>
0

>  <SCORE.INTRA.REPUL>
0

>  <SCORE.INTRA.REPUL.0>
0

>  <SCORE.INTRA.SOLV>
-0.00097295

>  <SCORE.INTRA.SOLV.lig_0>
-10.9882

>  <SCORE.INTRA.VDW>
2.41674

>  <SCORE.INTRA.VDW.0>
1.84442

>  <SCORE.INTRA.norm>
0.0929274

>  <SCORE.RESTR>
0

>  <SCORE.RESTR.CAVITY>
0

>  <SCORE.RESTR.norm>
0

>  <SCORE.SYSTEM>
0

>  <SCORE.SYSTEM.CONST>
0

>  <SCORE.SYSTEM.DIHEDRAL>
0

>  <SCORE.SYSTEM.SOLV>
0

>  <SCORE.SYSTEM.norm>
0

>  <SCORE.heavy>
26

>  <SCORE.norm>
-2.062

>  <RMSD>
0.754

$$$$
ligand
 OpenBabel02271912153D
libRbt.so/2013.1/901 2013/11/27
 26 29  0  0  0  0  0  0  0  0999 V2000
  112.2111  -79.3785  -87.0514 C   0  0  1  0  0  0  0  0  0  0  0  0
  112.7107  -80.6174  -87.4265 N   0  0  0  0  0  0  0  0  0  0  0  0
  112.3336  -78.9313  -85.6718 C   0  0  0  0  0  0  0  0  0  0  0  0
  111.3242  -74.2342  -80.6649 N   0  0  0  0  0  0  0  0  0  0  0  0
  111.9319  -77.2606  -84.0296 O   0  0  0  0  0  0  0  0  0  0  0  0
  111.7806  -77.6678  -85.4546 C   0  0  2  0  0  0  0  0  0  0  0  0
  111.4148  -76.1100  -83.8382 C   0  0  1  0  0  0  0  0  0  0  0  0
  111.6229  -75.7980  -82.4243 C   0  0  0  0  0  0  0  0  0  0  0  0
  111.0891  -74.5232  -82.0201 C   0  0  2  0  0  0  0  0  0  0  0  0
  110.4120  -73.6593  -82.9161 C   0  0  0  0  0  0  0  0  0  0  0  0
  110.2463  -74.0239  -84.3108 C   0  0  0  0  0  0  0  0  0  0  0  0
  110.7861  -75.2902  -84.7414 C   0  0  2  0  0  0  0  0  0  0  0  0
  110.5843  -75.5840  -86.2094 C   0  0  1  0  0  0  0  0  0  0  0  0
  111.1593  -76.8540  -86.3955 C   0  0  2  0  0  0  0  0  0  0  0  0
  111.0522  -77.3189  -87.7802 C   0  0  0  0  0  0  0  0  0  0  0  0
  111.6081  -78.6117  -88.0294 C   0  0  0  0  0  0  0  0  0  0  0  0
  109.9498  -74.7115  -87.0732 C   0  0  0  0  0  0  0  0  0  0  0  0
  110.2710  -73.3445  -87.2418 C   0  0  0  0  0  0  0  0  0  0  0  0
  109.6529  -72.4538  -88.1213 C   0  0  0  0  0  0  0  0  0  0  0  0
  108.5690  -72.9197  -88.9732 C   0  0  0  0  0  0  0  0  0  0  0  0
  108.2647  -74.2876  -88.7724 C   0  0  0  0  0  0  0  0  0  0  0  0
  108.8539  -75.2144  -87.9013 C   0  0  0  0  0  0  0  0  0  0  0  0
  112.7257  -81.0598  -88.8181 C   0  0  0  0  0  0  0  0  0  0  0  0
  113.2897  -81.6386  -86.5278 C   0  0  0  0  0  0  0  0  0  0  0  0
  111.0166  -73.0397  -79.8471 C   0  0  0  0  0  0  0  0  0  0  0  0
  111.9917  -75.3010  -79.8383 C   0  0  0  0  0  0  0  0  0  0  0  0
  1  2  1  6  0  0  0
  1  3  1  0  0  0  0
  1 16  1  0  0  0  0
  2 23  1  0  0  0  0
  2 24  1  0  0  0  0
  4 25  1  0  0  0  0
  4 26  1  0  0  0  0
  5  6  1  0  0  0  0
  6  3  1  1  0  0  0
  6 14  1  0  0  0  0
  7  5  1  6  0  0  0
  7  8  1  0  0  0  0
  7 12  1  0  0  0  0
  8  9  1  0  0  0  0
  9  4  1  6  0  0  0
  9 10  1  0  0  0  0
 10 11  1  0  0  0  0
 12 11  1  1  0  0  0
 12 13  1  0  0  0  0
 13 14  1  0  0  0  0
 13 17  1  1  0  0  0
 14 15  1  1  0  0  0
 15 16  1  0  0  0  0
 17 18  1  0  0  0  0
 17 22  1  0  0  0  0
 18 19  1  0  0  0  0
 19 20  1  0  0  0  0
 20 21  1  0  0  0  0
 21 22  1  0  0  0  0
M  END
>  <CHROM.1>
-174.16745977,176.90838987,52.07319140,111.09990318,-76.23484314,-85.36817896
-1.27615589,-1.07525141,1.07678540

>  <Name>
ligand

>  <RI>
0

>  <Rbt.Current_Directory>
/home/itssahil/PROJECTS/Mol_Feturizer/Test_systems_manuscript/rnas/1f1t

>  <Rbt.Executable>
rbdock ($Id: //depot/dev/client3/rdock/2013.1/src/exe/rbdock.cxx#4 $)

>  <Rbt.Library>
libRbt.so (2013.1, Build901 2013/11/27)

>  <Rbt.Parameter_File>
/export/apps/rDock/src/rDock_2013.1_src/data/scripts/dock_solv.prm

>  <Rbt.Receptor>
prm/pocket_docking_8.prm

>  <SCORE>
-53.7259

>  <SCORE.INTER>
-56.5852

>  <SCORE.INTER.CONST>
1

>  <SCORE.INTER.POLAR>
0

>  <SCORE.INTER.ROT>
3

>  <SCORE.INTER.SOLV>
9.09392

>  <SCORE.INTER.VDW>
-46.3548

>  <SCORE.INTER.norm>
-2.17635

>  <SCORE.INTRA>
2.85935

>  <SCORE.INTRA.DIHEDRAL>
-0.000304565

>  <SCORE.INTRA.DIHEDRAL.0>
3.60016

>  <SCORE.INTRA.POLAR>
0

>  <SCORE.INTRA.POLAR.0>
0

>  <SCORE.INTRA.REPUL>
0

>  <SCORE.INTRA.REPUL.0>
0

>  <SCORE.INTRA.SOLV>
-0.000977086

>  <SCORE.INTRA.SOLV.lig_0>
-10.9882

>  <SCORE.INTRA.VDW>
2.86

>  <SCORE.INTRA.VDW.0>
1.84442

>  <SCORE.INTRA.norm>
0.109975

>  <SCORE.RESTR>
0

>  <SCORE.RESTR.CAVITY>
0

>  <SCORE.RESTR.norm>
0

>  <SCORE.SYSTEM>
0

>  <SCORE.SYSTEM.CONST>
0

>  <SCORE.SYSTEM.DIHEDRAL>
0

>  <SCORE.SYSTEM.SOLV>
0

>  <SCORE.SYSTEM.norm>
0

>  <SCORE.heavy>
26

>  <SCORE.norm>
-2.06638

>  <RMSD>
0.754

$$$$
ligand
 OpenBabel02271912153D
libRbt.so/2013.1/901 2013/11/27
 26 29  0  0  0  0  0  0  0  0999 V2000
  112.2012  -79.4485  -86.9995 C   0  0  1  0  0  0  0  0  0  0  0  0
  112.7327  -80.6825  -87.3461 N   0  0  0  0  0  0  0  0  0  0  0  0
  112.3166  -78.9641  -85.6319 C   0  0  0  0  0  0  0  0  0  0  0  0
  111.1991  -74.1729  -80.7384 N   0  0  0  0  0  0  0  0  0  0  0  0
  111.8760  -77.2645  -84.0298 O   0  0  0  0  0  0  0  0  0  0  0  0
  111.7305  -77.7109  -85.4437 C   0  0  2  0  0  0  0  0  0  0  0  0
  111.3286  -76.1238  -83.8647 C   0  0  1  0  0  0  0  0  0  0  0  0
  111.5335  -75.7713  -82.4599 C   0  0  0  0  0  0  0  0  0  0  0  0
  110.9669  -74.5017  -82.0849 C   0  0  2  0  0  0  0  0  0  0  0  0
  110.2633  -73.6789  -82.9991 C   0  0  0  0  0  0  0  0  0  0  0  0
  110.1025  -74.0824  -84.3837 C   0  0  0  0  0  0  0  0  0  0  0  0
  110.6747  -75.3440  -84.7852 C   0  0  2  0  0  0  0  0  0  0  0  0
  110.4755  -75.6795  -86.2445 C   0  0  1  0  0  0  0  0  0  0  0  0
  111.0839  -76.9378  -86.4017 C   0  0  2  0  0  0  0  0  0  0  0  0
  110.9844  -77.4397  -87.7739 C   0  0  0  0  0  0  0  0  0  0  0  0
  111.5740  -78.7228  -87.9936 C   0  0  0  0  0  0  0  0  0  0  0  0
  109.8144  -74.8462  -87.1269 C   0  0  0  0  0  0  0  0  0  0  0  0
  108.7622  -75.2327  -87.9893 C   0  0  0  0  0  0  0  0  0  0  0  0
  108.0721  -74.4014  -88.8734 C   0  0  0  0  0  0  0  0  0  0  0  0
  108.4238  -72.9918  -88.9584 C   0  0  0  0  0  0  0  0  0  0  0  0
  109.4866  -72.6400  -88.0920 C   0  0  0  0  0  0  0  0  0  0  0  0
  110.2080  -73.4391  -87.1943 C   0  0  0  0  0  0  0  0  0  0  0  0
  113.2686  -81.6049  -86.3490 C   0  0  0  0  0  0  0  0  0  0  0  0
  112.8310  -81.2435  -88.7104 C   0  0  0  0  0  0  0  0  0  0  0  0
  110.8699  -72.9637  -79.9512 C   0  0  0  0  0  0  0  0  0  0  0  0
  111.8891  -75.2046  -79.8860 C   0  0  0  0  0  0  0  0  0  0  0  0
  1  2  1  6  0  0  0
  1  3  1  0  0  0  0
  1 16  1  0  0  0  0
  2 23  1  0  0  0  0
  2 24  1  0  0  0  0
  4 25  1  0  0  0  0
  4 26  1  0  0  0  0
  5  6  1  0  0  0  0
  6  3  1  1  0  0  0
  6 14  1  0  0  0  0
  7  5  1  6  0  0  0
  7  8  1  0  0  0  0
  7 12  1  0  0  0  0
  8  9  1  0  0  0  0
  9  4  1  6  0  0  0
  9 10  1  0  0  0  0
 10 11  1  0  0  0  0
 12 11  1  1  0  0  0
 12 13  1  0  0  0  0
 13 14  1  0  0  0  0
 13 17  1  1  0  0  0
 14 15  1  1  0  0  0
 15 16  1  0  0  0  0
 17 18  1  0  0  0  0
 17 22  1  0  0  0  0
 18 19  1  0  0  0  0
 19 20  1  0  0  0  0
 20 21  1  0  0  0  0
 21 22  1  0  0  0  0
M  END
>  <CHROM.1>
7.75184275,176.46604724,-129.17807419,111.01821005,-76.28021423,-85.37532938
-1.23601358,-1.05488021,1.07132082

>  <Name>
ligand

>  <RI>
0

>  <Rbt.Current_Directory>
/home/itssahil/PROJECTS/Mol_Feturizer/Test_systems_manuscript/rnas/1f1t

>  <Rbt.Executable>
rbdock ($Id: //depot/dev/client3/rdock/2013.1/src/exe/rbdock.cxx#4 $)

>  <Rbt.Library>
libRbt.so (2013.1, Build901 2013/11/27)

>  <Rbt.Parameter_File>
/export/apps/rDock/src/rDock_2013.1_src/data/scripts/dock_solv.prm

>  <Rbt.Receptor>
prm/pocket_docking_3.prm

>  <SCORE>
-53.5922

>  <SCORE.INTER>
-56.2561

>  <SCORE.INTER.CONST>
1

>  <SCORE.INTER.POLAR>
0

>  <SCORE.INTER.ROT>
3

>  <SCORE.INTER.SOLV>
8.99676

>  <SCORE.INTER.VDW>
-46.103

>  <SCORE.INTER.norm>
-2.1637

>  <SCORE.INTRA>
2.66389

>  <SCORE.INTRA.DIHEDRAL>
-0.000591505

>  <SCORE.INTRA.DIHEDRAL.0>
3.60016

>  <SCORE.INTRA.POLAR>
0

>  <SCORE.INTRA.POLAR.0>
0

>  <SCORE.INTRA.REPUL>
0

>  <SCORE.INTRA.REPUL.0>
0

>  <SCORE.INTRA.SOLV>
-0.000964503

>  <SCORE.INTRA.SOLV.lig_0>
-10.9882

>  <SCORE.INTRA.VDW>
2.66467

>  <SCORE.INTRA.VDW.0>
1.84442

>  <SCORE.INTRA.norm>
0.102457

>  <SCORE.RESTR>
0

>  <SCORE.RESTR.CAVITY>
0

>  <SCORE.RESTR.norm>
0

>  <SCORE.SYSTEM>
0

>  <SCORE.SYSTEM.CONST>
0

>  <SCORE.SYSTEM.DIHEDRAL>
0

>  <SCORE.SYSTEM.SOLV>
0

>  <SCORE.SYSTEM.norm>
0

>  <SCORE.heavy>
26

>  <SCORE.norm>
-2.06124

>  <RMSD>
0.755

$$$$
ligand
 OpenBabel02271912153D
libRbt.so/2013.1/901 2013/11/27
 26 29  0  0  0  0  0  0  0  0999 V2000
  112.2021  -79.4345  -87.0389 C   0  0  1  0  0  0  0  0  0  0  0  0
  112.7362  -80.6650  -87.3937 N   0  0  0  0  0  0  0  0  0  0  0  0
  112.3300  -78.9522  -85.6716 C   0  0  0  0  0  0  0  0  0  0  0  0
  111.2414  -74.1766  -80.7565 N   0  0  0  0  0  0  0  0  0  0  0  0
  111.8982  -77.2581  -84.0613 O   0  0  0  0  0  0  0  0  0  0  0  0
  111.7396  -77.7025  -85.4745 C   0  0  2  0  0  0  0  0  0  0  0  0
  111.3468  -76.1206  -83.8879 C   0  0  1  0  0  0  0  0  0  0  0  0
  111.5652  -75.7698  -82.4848 C   0  0  0  0  0  0  0  0  0  0  0  0
  110.9962  -74.5039  -82.1011 C   0  0  2  0  0  0  0  0  0  0  0  0
  110.2784  -73.6830  -83.0058 C   0  0  0  0  0  0  0  0  0  0  0  0
  110.1045  -74.0845  -84.3893 C   0  0  0  0  0  0  0  0  0  0  0  0
  110.6788  -75.3424  -84.7996 C   0  0  2  0  0  0  0  0  0  0  0  0
  110.4653  -75.6760  -86.2574 C   0  0  1  0  0  0  0  0  0  0  0  0
  111.0785  -76.9308  -86.4237 C   0  0  2  0  0  0  0  0  0  0  0  0
  110.9665  -77.4305  -87.7959 C   0  0  0  0  0  0  0  0  0  0  0  0
  111.5604  -78.7101  -88.0245 C   0  0  0  0  0  0  0  0  0  0  0  0
  109.7903  -74.8444  -87.1307 C   0  0  0  0  0  0  0  0  0  0  0  0
  108.6774  -75.2140  -87.9215 C   0  0  0  0  0  0  0  0  0  0  0  0
  107.9733  -74.3832  -88.7950 C   0  0  0  0  0  0  0  0  0  0  0  0
  108.3757  -72.9930  -88.9469 C   0  0  0  0  0  0  0  0  0  0  0  0
  109.4980  -72.6584  -88.1516 C   0  0  0  0  0  0  0  0  0  0  0  0
  110.2355  -73.4578  -87.2673 C   0  0  0  0  0  0  0  0  0  0  0  0
  112.8054  -81.1102  -88.7827 C   0  0  0  0  0  0  0  0  0  0  0  0
  113.3032  -81.6736  -86.4734 C   0  0  0  0  0  0  0  0  0  0  0  0
  110.9352  -72.9613  -79.9692 C   0  0  0  0  0  0  0  0  0  0  0  0
  111.9210  -75.2171  -79.9066 C   0  0  0  0  0  0  0  0  0  0  0  0
  1  2  1  6  0  0  0
  1  3  1  0  0  0  0
  1 16  1  0  0  0  0
  2 23  1  0  0  0  0
  2 24  1  0  0  0  0
  4 25  1  0  0  0  0
  4 26  1  0  0  0  0
  5  6  1  0  0  0  0
  6  3  1  1  0  0  0
  6 14  1  0  0  0  0
  7  5  1  6  0  0  0
  7  8  1  0  0  0  0
  7 12  1  0  0  0  0
  8  9  1  0  0  0  0
  9  4  1  6  0  0  0
  9 10  1  0  0  0  0
 10 11  1  0  0  0  0
 12 11  1  1  0  0  0
 12 13  1  0  0  0  0
 13 14  1  0  0  0  0
 13 17  1  1  0  0  0
 14 15  1  1  0  0  0
 15 16  1  0  0  0  0
 17 18  1  0  0  0  0
 17 22  1  0  0  0  0
 18 19  1  0  0  0  0
 19 20  1  0  0  0  0
 20 21  1  0  0  0  0
 21 22  1  0  0  0  0
M  END
>  <CHROM.1>
-171.06575227,175.25912416,-125.02172937,111.02096263,-76.27452073,-85.39992128
-1.25029403,-1.04549617,1.06348115

>  <Name>
ligand

>  <RI>
0

>  <Rbt.Current_Directory>
/home/itssahil/PROJECTS/Mol_Feturizer/Test_systems_manuscript/rnas/1f1t

>  <Rbt.Executable>
rbdock ($Id: //depot/dev/client3/rdock/2013.1/src/exe/rbdock.cxx#4 $)

>  <Rbt.Library>
libRbt.so (2013.1, Build901 2013/11/27)

>  <Rbt.Parameter_File>
/export/apps/rDock/src/rDock_2013.1_src/data/scripts/dock_solv.prm

>  <Rbt.Receptor>
prm/pocket_docking_4.prm

>  <SCORE>
-53.3517

>  <SCORE.INTER>
-56.1241

>  <SCORE.INTER.CONST>
1

>  <SCORE.INTER.POLAR>
0

>  <SCORE.INTER.ROT>
3

>  <SCORE.INTER.SOLV>
8.96878

>  <SCORE.INTER.VDW>
-46.0057

>  <SCORE.INTER.norm>
-2.15862

>  <SCORE.INTRA>
2.7724

>  <SCORE.INTRA.DIHEDRAL>
-0.000587568

>  <SCORE.INTRA.DIHEDRAL.0>
3.60016

>  <SCORE.INTRA.POLAR>
0

>  <SCORE.INTRA.POLAR.0>
0

>  <SCORE.INTRA.REPUL>
0

>  <SCORE.INTRA.REPUL.0>
0

>  <SCORE.INTRA.SOLV>
-0.00095148

>  <SCORE.INTRA.SOLV.lig_0>
-10.9882

>  <SCORE.INTRA.VDW>
2.77316

>  <SCORE.INTRA.VDW.0>
1.84442

>  <SCORE.INTRA.norm>
0.106631

>  <SCORE.RESTR>
0

>  <SCORE.RESTR.CAVITY>
0

>  <SCORE.RESTR.norm>
0

>  <SCORE.SYSTEM>
0

>  <SCORE.SYSTEM.CONST>
0

>  <SCORE.SYSTEM.DIHEDRAL>
0

>  <SCORE.SYSTEM.SOLV>
0

>  <SCORE.SYSTEM.norm>
0

>  <SCORE.heavy>
26

>  <SCORE.norm>
-2.05199

>  <RMSD>
0.755

$$$$
ligand
 OpenBabel02271912153D
libRbt.so/2013.1/901 2013/11/27
 26 29  0  0  0  0  0  0  0  0999 V2000
  111.1907  -74.6959  -82.0265 C   0  0  1  0  0  0  0  0  0  0  0  0
  111.3653  -74.3316  -80.6991 N   0  0  0  0  0  0  0  0  0  0  0  0
  111.7072  -75.9693  -82.5061 C   0  0  0  0  0  0  0  0  0  0  0  0
  112.7077  -80.6472  -87.5327 N   0  0  0  0  0  0  0  0  0  0  0  0
  112.0035  -77.5010  -84.2994 O   0  0  0  0  0  0  0  0  0  0  0  0
  111.4539  -76.1872  -83.8617 C   0  0  2  0  0  0  0  0  0  0  0  0
  111.7768  -77.6869  -85.5411 C   0  0  1  0  0  0  0  0  0  0  0  0
  112.3399  -78.9967  -85.8681 C   0  0  0  0  0  0  0  0  0  0  0  0
  112.1827  -79.3749  -87.2486 C   0  0  2  0  0  0  0  0  0  0  0  0
  111.5487  -78.5404  -88.2022 C   0  0  0  0  0  0  0  0  0  0  0  0
  111.0019  -77.2543  -87.8111 C   0  0  0  0  0  0  0  0  0  0  0  0
  111.1352  -76.8613  -86.4298 C   0  0  2  0  0  0  0  0  0  0  0  0
  110.5256  -75.5177  -86.1052 C   0  0  1  0  0  0  0  0  0  0  0  0
  110.7887  -75.3345  -84.7357 C   0  0  2  0  0  0  0  0  0  0  0  0
  110.2701  -74.0607  -84.2322 C   0  0  0  0  0  0  0  0  0  0  0  0
  110.5186  -73.8110  -82.8472 C   0  0  0  0  0  0  0  0  0  0  0  0
  109.8820  -74.7345  -87.0445 C   0  0  0  0  0  0  0  0  0  0  0  0
  108.8648  -75.1753  -87.9229 C   0  0  0  0  0  0  0  0  0  0  0  0
  108.1923  -74.3947  -88.8648 C   0  0  0  0  0  0  0  0  0  0  0  0
  108.5256  -72.9846  -89.0003 C   0  0  0  0  0  0  0  0  0  0  0  0
  109.5537  -72.5781  -88.1161 C   0  0  0  0  0  0  0  0  0  0  0  0
  110.2567  -73.3255  -87.1610 C   0  0  0  0  0  0  0  0  0  0  0  0
  110.9321  -73.0348  -80.1862 C   0  0  0  0  0  0  0  0  0  0  0  0
  111.9784  -75.1564  -79.6363 C   0  0  0  0  0  0  0  0  0  0  0  0
  113.2435  -81.7084  -86.6512 C   0  0  0  0  0  0  0  0  0  0  0  0
  112.7421  -81.0721  -88.9767 C   0  0  0  0  0  0  0  0  0  0  0  0
  1  2  1  1  0  0  0
  1  3  1  0  0  0  0
  1 16  1  0  0  0  0
  2 23  1  0  0  0  0
  2 24  1  0  0  0  0
  4 25  1  0  0  0  0
  4 26  1  0  0  0  0
  5  6  1  0  0  0  0
  6  3  1  6  0  0  0
  6 14  1  0  0  0  0
  7  5  1  1  0  0  0
  7  8  1  0  0  0  0
  7 12  1  0  0  0  0
  8  9  1  0  0  0  0
  9  4  1  1  0  0  0
  9 10  1  0  0  0  0
 10 11  1  0  0  0  0
 12 11  1  6  0  0  0
 12 13  1  0  0  0  0
 13 14  1  0  0  0  0
 13 17  1  6  0  0  0
 14 15  1  6  0  0  0
 15 16  1  0  0  0  0
 17 18  1  0  0  0  0
 17 22  1  0  0  0  0
 18 19  1  0  0  0  0
 19 20  1  0  0  0  0
 20 21  1  0  0  0  0
 21 22  1  0  0  0  0
M  END
>  <CHROM.1>
176.54005317,7.92906411,50.14352188,111.09388668,-76.27768041,-85.42768925
-1.84904956,1.06448850,-2.07046917

>  <Name>
ligand

>  <RI>
0

>  <Rbt.Current_Directory>
/home/itssahil/PROJECTS/Mol_Feturizer/Test_systems_manuscript/rnas/1f1t

>  <Rbt.Executable>
rbdock ($Id: //depot/dev/client3/rdock/2013.1/src/exe/rbdock.cxx#4 $)

>  <Rbt.Library>
libRbt.so (2013.1, Build901 2013/11/27)

>  <Rbt.Parameter_File>
/export/apps/rDock/src/rDock_2013.1_src/data/scripts/dock_solv.prm

>  <Rbt.Receptor>
prm/pocket_docking_7.prm

>  <SCORE>
-55.9514

>  <SCORE.INTER>
-56.4755

>  <SCORE.INTER.CONST>
1

>  <SCORE.INTER.POLAR>
0

>  <SCORE.INTER.ROT>
3

>  <SCORE.INTER.SOLV>
8.95451

>  <SCORE.INTER.VDW>
-46.2352

>  <SCORE.INTER.norm>
-2.17214

>  <SCORE.INTRA>
0.524106

>  <SCORE.INTRA.DIHEDRAL>
0.000259915

>  <SCORE.INTRA.DIHEDRAL.0>
3.60016

>  <SCORE.INTRA.POLAR>
0

>  <SCORE.INTRA.POLAR.0>
0

>  <SCORE.INTRA.REPUL>
0

>  <SCORE.INTRA.REPUL.0>
0

>  <SCORE.INTRA.SOLV>
2.51134e-05

>  <SCORE.INTRA.SOLV.lig_0>
-10.9882

>  <SCORE.INTRA.VDW>
0.523964

>  <SCORE.INTRA.VDW.0>
1.84442

>  <SCORE.INTRA.norm>
0.0201579

>  <SCORE.RESTR>
0

>  <SCORE.RESTR.CAVITY>
0

>  <SCORE.RESTR.norm>
0

>  <SCORE.SYSTEM>
0

>  <SCORE.SYSTEM.CONST>
0

>  <SCORE.SYSTEM.DIHEDRAL>
0

>  <SCORE.SYSTEM.SOLV>
0

>  <SCORE.SYSTEM.norm>
0

>  <SCORE.heavy>
26

>  <SCORE.norm>
-2.15198

>  <RMSD>
0.756

$$$$
ligand
 OpenBabel02271912153D
libRbt.so/2013.1/901 2013/11/27
 26 29  0  0  0  0  0  0  0  0999 V2000
  111.1927  -74.7204  -82.0443 C   0  0  1  0  0  0  0  0  0  0  0  0
  111.3776  -74.3599  -80.7173 N   0  0  0  0  0  0  0  0  0  0  0  0
  111.7153  -75.9874  -82.5343 C   0  0  0  0  0  0  0  0  0  0  0  0
  112.7051  -80.6366  -87.5896 N   0  0  0  0  0  0  0  0  0  0  0  0
  112.0066  -77.5094  -84.3366 O   0  0  0  0  0  0  0  0  0  0  0  0
  111.4501  -76.2022  -83.8881 C   0  0  2  0  0  0  0  0  0  0  0  0
  111.7689  -77.6923  -85.5768 C   0  0  1  0  0  0  0  0  0  0  0  0
  112.3400  -78.9959  -85.9147 C   0  0  0  0  0  0  0  0  0  0  0  0
  112.1720  -79.3699  -87.2951 C   0  0  2  0  0  0  0  0  0  0  0  0
  111.5212  -78.5372  -88.2388 C   0  0  0  0  0  0  0  0  0  0  0  0
  110.9674  -77.2575  -87.8370 C   0  0  0  0  0  0  0  0  0  0  0  0
  111.1113  -76.8688  -86.4556 C   0  0  2  0  0  0  0  0  0  0  0  0
  110.4934  -75.5319  -86.1194 C   0  0  1  0  0  0  0  0  0  0  0  0
  110.7688  -75.3518  -84.7519 C   0  0  2  0  0  0  0  0  0  0  0  0
  110.2444  -74.0846  -84.2380 C   0  0  0  0  0  0  0  0  0  0  0  0
  110.5047  -73.8382  -82.8546 C   0  0  0  0  0  0  0  0  0  0  0  0
  109.8336  -74.7505  -87.0490 C   0  0  0  0  0  0  0  0  0  0  0  0
  108.7807  -75.1852  -87.8874 C   0  0  0  0  0  0  0  0  0  0  0  0
  108.0919  -74.4060  -88.8187 C   0  0  0  0  0  0  0  0  0  0  0  0
  108.4456  -73.0043  -88.9858 C   0  0  0  0  0  0  0  0  0  0  0  0
  109.5089  -72.6040  -88.1413 C   0  0  0  0  0  0  0  0  0  0  0  0
  110.2292  -73.3503  -87.1984 C   0  0  0  0  0  0  0  0  0  0  0  0
  110.9498  -73.0640  -80.1977 C   0  0  0  0  0  0  0  0  0  0  0  0
  111.9976  -75.1883  -79.6613 C   0  0  0  0  0  0  0  0  0  0  0  0
  113.2465  -81.7021  -86.7168 C   0  0  0  0  0  0  0  0  0  0  0  0
  112.7435  -81.0487  -89.0373 C   0  0  0  0  0  0  0  0  0  0  0  0
  1  2  1  1  0  0  0
  1  3  1  0  0  0  0
  1 16  1  0  0  0  0
  2 23  1  0  0  0  0
  2 24  1  0  0  0  0
  4 25  1  0  0  0  0
  4 26  1  0  0  0  0
  5  6  1  0  0  0  0
  6  3  1  6  0  0  0
  6 14  1  0  0  0  0
  7  5  1  1  0  0  0
  7  8  1  0  0  0  0
  7 12  1  0  0  0  0
  8  9  1  0  0  0  0
  9  4  1  1  0  0  0
  9 10  1  0  0  0  0
 10 11  1  0  0  0  0
 12 11  1  6  0  0  0
 12 13  1  0  0  0  0
 13 14  1  0  0  0  0
 13 17  1  6  0  0  0
 14 15  1  6  0  0  0
 15 16  1  0  0  0  0
 17 18  1  0  0  0  0
 17 22  1  0  0  0  0
 18 19  1  0  0  0  0
 19 20  1  0  0  0  0
 20 21  1  0  0  0  0
 21 22  1  0  0  0  0
M  END
>  <CHROM.1>
175.94937758,8.63555864,52.39780598,111.07553279,-76.28946165,-85.45099826
-1.83987480,1.05254881,-2.07413163

>  <Name>
ligand

>  <RI>
0

>  <Rbt.Current_Directory>
/home/itssahil/PROJECTS/Mol_Feturizer/Test_systems_manuscript/rnas/1f1t

>  <Rbt.Executable>
rbdock ($Id: //depot/dev/client3/rdock/2013.1/src/exe/rbdock.cxx#4 $)

>  <Rbt.Library>
libRbt.so (2013.1, Build901 2013/11/27)

>  <Rbt.Parameter_File>
/export/apps/rDock/src/rDock_2013.1_src/data/scripts/dock_solv.prm

>  <Rbt.Receptor>
prm/pocket_docking_2.prm

>  <SCORE>
-55.9048

>  <SCORE.INTER>
-56.3528

>  <SCORE.INTER.CONST>
1

>  <SCORE.INTER.POLAR>
0

>  <SCORE.INTER.ROT>
3

>  <SCORE.INTER.SOLV>
8.91547

>  <SCORE.INTER.VDW>
-46.1403

>  <SCORE.INTER.norm>
-2.16741

>  <SCORE.INTRA>
0.448017

>  <SCORE.INTRA.DIHEDRAL>
0.000263592

>  <SCORE.INTRA.DIHEDRAL.0>
3.60016

>  <SCORE.INTRA.POLAR>
0

>  <SCORE.INTRA.POLAR.0>
0

>  <SCORE.INTRA.REPUL>
0

>  <SCORE.INTRA.REPUL.0>
0

>  <SCORE.INTRA.SOLV>
3.04579e-05

>  <SCORE.INTRA.SOLV.lig_0>
-10.9882

>  <SCORE.INTRA.VDW>
0.44787

>  <SCORE.INTRA.VDW.0>
1.84442

>  <SCORE.INTRA.norm>
0.0172314

>  <SCORE.RESTR>
0

>  <SCORE.RESTR.CAVITY>
0

>  <SCORE.RESTR.norm>
0

>  <SCORE.SYSTEM>
0

>  <SCORE.SYSTEM.CONST>
0

>  <SCORE.SYSTEM.DIHEDRAL>
0

>  <SCORE.SYSTEM.SOLV>
0

>  <SCORE.SYSTEM.norm>
0

>  <SCORE.heavy>
26

>  <SCORE.norm>
-2.15018

>  <RMSD>
0.757

$$$$
ligand
 OpenBabel02271912153D
libRbt.so/2013.1/901 2013/11/27
 26 29  0  0  0  0  0  0  0  0999 V2000
  112.2292  -79.4802  -87.1369 C   0  0  1  0  0  0  0  0  0  0  0  0
  112.7511  -80.7088  -87.5158 N   0  0  0  0  0  0  0  0  0  0  0  0
  112.3583  -79.0278  -85.7596 C   0  0  0  0  0  0  0  0  0  0  0  0
  111.3065  -74.3437  -80.7493 N   0  0  0  0  0  0  0  0  0  0  0  0
  111.9399  -77.3628  -84.1156 O   0  0  0  0  0  0  0  0  0  0  0  0
  111.7807  -77.7761  -85.5381 C   0  0  2  0  0  0  0  0  0  0  0  0
  111.4002  -76.2233  -83.9201 C   0  0  1  0  0  0  0  0  0  0  0  0
  111.6183  -75.9041  -82.5094 C   0  0  0  0  0  0  0  0  0  0  0  0
  111.0617  -74.6404  -82.1010 C   0  0  2  0  0  0  0  0  0  0  0  0
  110.3554  -73.7932  -82.9904 C   0  0  0  0  0  0  0  0  0  0  0  0
  110.1812  -74.1640  -84.3825 C   0  0  0  0  0  0  0  0  0  0  0  0
  110.7432  -75.4192  -84.8172 C   0  0  2  0  0  0  0  0  0  0  0  0
  110.5305  -75.7202  -86.2822 C   0  0  1  0  0  0  0  0  0  0  0  0
  111.1307  -76.9779  -86.4729 C   0  0  2  0  0  0  0  0  0  0  0  0
  111.0174  -77.4477  -87.8554 C   0  0  0  0  0  0  0  0  0  0  0  0
  111.5982  -78.7287  -88.1090 C   0  0  0  0  0  0  0  0  0  0  0  0
  109.8670  -74.8635  -87.1399 C   0  0  0  0  0  0  0  0  0  0  0  0
  108.7742  -75.2134  -87.9668 C   0  0  0  0  0  0  0  0  0  0  0  0
  108.0816  -74.3577  -88.8253 C   0  0  0  0  0  0  0  0  0  0  0  0
  108.4753  -72.9599  -88.9194 C   0  0  0  0  0  0  0  0  0  0  0  0
  109.5777  -72.6450  -88.0890 C   0  0  0  0  0  0  0  0  0  0  0  0
  110.3031  -73.4695  -87.2180 C   0  0  0  0  0  0  0  0  0  0  0  0
  113.2501  -81.6746  -86.5409 C   0  0  0  0  0  0  0  0  0  0  0  0
  112.8737  -81.2216  -88.8970 C   0  0  0  0  0  0  0  0  0  0  0  0
  111.9460  -75.1299  -79.6707 C   0  0  0  0  0  0  0  0  0  0  0  0
  110.8787  -72.9882  -80.2526 C   0  0  0  0  0  0  0  0  0  0  0  0
  1  2  1  6  0  0  0
  1  3  1  0  0  0  0
  1 16  1  0  0  0  0
  2 23  1  0  0  0  0
  2 24  1  0  0  0  0
  4 25  1  0  0  0  0
  4 26  1  0  0  0  0
  5  6  1  0  0  0  0
  6  3  1  1  0  0  0
  6 14  1  0  0  0  0
  7  5  1  6  0  0  0
  7  8  1  0  0  0  0
  7 12  1  0  0  0  0
  8  9  1  0  0  0  0
  9  4  1  6  0  0  0
  9 10  1  0  0  0  0
 10 11  1  0  0  0  0
 12 11  1  1  0  0  0
 12 13  1  0  0  0  0
 13 14  1  0  0  0  0
 13 17  1  1  0  0  0
 14 15  1  1  0  0  0
 15 16  1  0  0  0  0
 17 18  1  0  0  0  0
 17 22  1  0  0  0  0
 18 19  1  0  0  0  0
 19 20  1  0  0  0  0
 20 21  1  0  0  0  0
 21 22  1  0  0  0  0
M  END
>  <CHROM.1>
9.78669609,-4.64726199,-126.74902773,111.06973816,-76.32405829,-85.43457286
-1.24547827,-1.05626387,1.07507598

>  <Name>
ligand

>  <RI>
0

>  <Rbt.Current_Directory>
/home/itssahil/PROJECTS/Mol_Feturizer/Test_systems_manuscript/rnas/1f1t

>  <Rbt.Executable>
rbdock ($Id: //depot/dev/client3/rdock/2013.1/src/exe/rbdock.cxx#4 $)

>  <Rbt.Library>
libRbt.so (2013.1, Build901 2013/11/27)

>  <Rbt.Parameter_File>
/export/apps/rDock/src/rDock_2013.1_src/data/scripts/dock_solv.prm

>  <Rbt.Receptor>
prm/pocket_docking_7.prm

>  <SCORE>
-55.9649

>  <SCORE.INTER>
-56.139

>  <SCORE.INTER.CONST>
1

>  <SCORE.INTER.POLAR>
0

>  <SCORE.INTER.ROT>
3

>  <SCORE.INTER.SOLV>
8.88299

>  <SCORE.INTER.VDW>
-45.987

>  <SCORE.INTER.norm>
-2.15919

>  <SCORE.INTRA>
0.174148

>  <SCORE.INTRA.DIHEDRAL>
-1.39144e-05

>  <SCORE.INTRA.DIHEDRAL.0>
3.60016

>  <SCORE.INTRA.POLAR>
0

>  <SCORE.INTRA.POLAR.0>
0

>  <SCORE.INTRA.REPUL>
0

>  <SCORE.INTRA.REPUL.0>
0

>  <SCORE.INTRA.SOLV>
3.98677e-05

>  <SCORE.INTRA.SOLV.lig_0>
-10.9882

>  <SCORE.INTRA.VDW>
0.174135

>  <SCORE.INTRA.VDW.0>
1.84442

>  <SCORE.INTRA.norm>
0.006698

>  <SCORE.RESTR>
0

>  <SCORE.RESTR.CAVITY>
0

>  <SCORE.RESTR.norm>
0

>  <SCORE.SYSTEM>
0

>  <SCORE.SYSTEM.CONST>
0

>  <SCORE.SYSTEM.DIHEDRAL>
0

>  <SCORE.SYSTEM.SOLV>
0

>  <SCORE.SYSTEM.norm>
0

>  <SCORE.heavy>
26

>  <SCORE.norm>
-2.15249

>  <RMSD>
0.757

$$$$
ligand
 OpenBabel02271912153D
libRbt.so/2013.1/901 2013/11/27
 26 29  0  0  0  0  0  0  0  0999 V2000
  111.1838  -74.7040  -82.0303 C   0  0  1  0  0  0  0  0  0  0  0  0
  111.3549  -74.3428  -80.7016 N   0  0  0  0  0  0  0  0  0  0  0  0
  111.7022  -75.9759  -82.5117 C   0  0  0  0  0  0  0  0  0  0  0  0
  112.7179  -80.6412  -87.5471 N   0  0  0  0  0  0  0  0  0  0  0  0
  112.0039  -77.5032  -84.3079 O   0  0  0  0  0  0  0  0  0  0  0  0
  111.4524  -76.1908  -83.8685 C   0  0  2  0  0  0  0  0  0  0  0  0
  111.7804  -77.6862  -85.5507 C   0  0  1  0  0  0  0  0  0  0  0  0
  112.3451  -78.9949  -85.8794 C   0  0  0  0  0  0  0  0  0  0  0  0
  112.1915  -79.3698  -87.2613 C   0  0  2  0  0  0  0  0  0  0  0  0
  111.5595  -78.5333  -88.2144 C   0  0  0  0  0  0  0  0  0  0  0  0
  111.0111  -77.2485  -87.8216 C   0  0  0  0  0  0  0  0  0  0  0  0
  111.1406  -76.8587  -86.4390 C   0  0  2  0  0  0  0  0  0  0  0  0
  110.5295  -75.5163  -86.1127 C   0  0  1  0  0  0  0  0  0  0  0  0
  110.7890  -75.3363  -84.7421 C   0  0  2  0  0  0  0  0  0  0  0  0
  110.2685  -74.0640  -84.2368 C   0  0  0  0  0  0  0  0  0  0  0  0
  110.5134  -73.8175  -82.8506 C   0  0  0  0  0  0  0  0  0  0  0  0
  109.8878  -74.7312  -87.0517 C   0  0  0  0  0  0  0  0  0  0  0  0
  108.8676  -75.1684  -87.9283 C   0  0  0  0  0  0  0  0  0  0  0  0
  108.1970  -74.3857  -88.8699 C   0  0  0  0  0  0  0  0  0  0  0  0
  108.5361  -72.9772  -89.0070 C   0  0  0  0  0  0  0  0  0  0  0  0
  109.5671  -72.5743  -88.1246 C   0  0  0  0  0  0  0  0  0  0  0  0
  110.2683  -73.3238  -87.1700 C   0  0  0  0  0  0  0  0  0  0  0  0
  112.0143  -75.2189  -79.7373 C   0  0  0  0  0  0  0  0  0  0  0  0
  110.9287  -73.0729  -80.0758 C   0  0  0  0  0  0  0  0  0  0  0  0
  113.2631  -81.6995  -86.6678 C   0  0  0  0  0  0  0  0  0  0  0  0
  112.7428  -81.0684  -88.9906 C   0  0  0  0  0  0  0  0  0  0  0  0
  1  2  1  1  0  0  0
  1  3  1  0  0  0  0
  1 16  1  0  0  0  0
  2 23  1  0  0  0  0
  2 24  1  0  0  0  0
  4 25  1  0  0  0  0
  4 26  1  0  0  0  0
  5  6  1  0  0  0  0
  6  3  1  6  0  0  0
  6 14  1  0  0  0  0
  7  5  1  1  0  0  0
  7  8  1  0  0  0  0
  7 12  1  0  0  0  0
  8  9  1  0  0  0  0
  9  4  1  1  0  0  0
  9 10  1  0  0  0  0
 10 11  1  0  0  0  0
 12 11  1  6  0  0  0
 12 13  1  0  0  0  0
 13 14  1  0  0  0  0
 13 17  1  6  0  0  0
 14 15  1  6  0  0  0
 15 16  1  0  0  0  0
 17 18  1  0  0  0  0
 17 22  1  0  0  0  0
 18 19  1  0  0  0  0
 19 20  1  0  0  0  0
 20 21  1  0  0  0  0
 21 22  1  0  0  0  0
M  END
>  <CHROM.1>
-1.75066800,7.30363714,50.54415493,111.09902792,-76.28101806,-85.43501680
-1.85074667,1.06436989,-2.06480721

>  <Name>
ligand

>  <RI>
0

>  <Rbt.Current_Directory>
/home/itssahil/PROJECTS/Mol_Feturizer/Test_systems_manuscript/rnas/1f1t

>  <Rbt.Executable>
rbdock ($Id: //depot/dev/client3/rdock/2013.1/src/exe/rbdock.cxx#4 $)

>  <Rbt.Library>
libRbt.so (2013.1, Build901 2013/11/27)

>  <Rbt.Parameter_File>
/export/apps/rDock/src/rDock_2013.1_src/data/scripts/dock_solv.prm

>  <Rbt.Receptor>
prm/pocket_docking_3.prm

>  <SCORE>
-56.3546

>  <SCORE.INTER>
-56.5816

>  <SCORE.INTER.CONST>
1

>  <SCORE.INTER.POLAR>
0

>  <SCORE.INTER.ROT>
3

>  <SCORE.INTER.SOLV>
9.01377

>  <SCORE.INTER.VDW>
-46.3256

>  <SCORE.INTER.norm>
-2.17621

>  <SCORE.INTRA>
0.226973

>  <SCORE.INTRA.DIHEDRAL>
0.000251795

>  <SCORE.INTRA.DIHEDRAL.0>
3.60016

>  <SCORE.INTRA.POLAR>
0

>  <SCORE.INTRA.POLAR.0>
0

>  <SCORE.INTRA.REPUL>
0

>  <SCORE.INTRA.REPUL.0>
0

>  <SCORE.INTRA.SOLV>
1.82375e-05

>  <SCORE.INTRA.SOLV.lig_0>
-10.9882

>  <SCORE.INTRA.VDW>
0.226838

>  <SCORE.INTRA.VDW.0>
1.84442

>  <SCORE.INTRA.norm>
0.00872972

>  <SCORE.RESTR>
0

>  <SCORE.RESTR.CAVITY>
0

>  <SCORE.RESTR.norm>
0

>  <SCORE.SYSTEM>
0

>  <SCORE.SYSTEM.CONST>
0

>  <SCORE.SYSTEM.DIHEDRAL>
0

>  <SCORE.SYSTEM.SOLV>
0

>  <SCORE.SYSTEM.norm>
0

>  <SCORE.heavy>
26

>  <SCORE.norm>
-2.16748

>  <RMSD>
0.758

$$$$
ligand
 OpenBabel02271912153D
libRbt.so/2013.1/901 2013/11/27
 26 29  0  0  0  0  0  0  0  0999 V2000
  112.1966  -79.4271  -87.0276 C   0  0  1  0  0  0  0  0  0  0  0  0
  112.7269  -80.6593  -87.3819 N   0  0  0  0  0  0  0  0  0  0  0  0
  112.3224  -78.9464  -85.6596 C   0  0  0  0  0  0  0  0  0  0  0  0
  111.2383  -74.1705  -80.7436 N   0  0  0  0  0  0  0  0  0  0  0  0
  111.8926  -77.2518  -84.0491 O   0  0  0  0  0  0  0  0  0  0  0  0
  111.7363  -77.6945  -85.4631 C   0  0  2  0  0  0  0  0  0  0  0  0
  111.3452  -76.1124  -83.8764 C   0  0  1  0  0  0  0  0  0  0  0  0
  111.5609  -75.7636  -82.4723 C   0  0  0  0  0  0  0  0  0  0  0  0
  110.9957  -74.4958  -82.0892 C   0  0  2  0  0  0  0  0  0  0  0  0
  110.2838  -73.6713  -82.9953 C   0  0  0  0  0  0  0  0  0  0  0  0
  110.1123  -74.0710  -84.3797 C   0  0  0  0  0  0  0  0  0  0  0  0
  110.6828  -75.3308  -84.7893 C   0  0  2  0  0  0  0  0  0  0  0  0
  110.4723  -75.6624  -86.2480 C   0  0  1  0  0  0  0  0  0  0  0  0
  111.0811  -76.9195  -86.4136 C   0  0  2  0  0  0  0  0  0  0  0  0
  110.9711  -77.4176  -87.7864 C   0  0  0  0  0  0  0  0  0  0  0  0
  111.5606  -78.6993  -88.0145 C   0  0  0  0  0  0  0  0  0  0  0  0
  109.8031  -74.8274  -87.1226 C   0  0  0  0  0  0  0  0  0  0  0  0
  108.7220  -75.2048  -87.9528 C   0  0  0  0  0  0  0  0  0  0  0  0
  108.0238  -74.3714  -88.8284 C   0  0  0  0  0  0  0  0  0  0  0  0
  108.3978  -72.9693  -88.9390 C   0  0  0  0  0  0  0  0  0  0  0  0
  109.4889  -72.6268  -88.1047 C   0  0  0  0  0  0  0  0  0  0  0  0
  110.2194  -73.4284  -87.2168 C   0  0  0  0  0  0  0  0  0  0  0  0
  112.7899  -81.1075  -88.7702 C   0  0  0  0  0  0  0  0  0  0  0  0
  113.2955  -81.6671  -86.4616 C   0  0  0  0  0  0  0  0  0  0  0  0
  110.9235  -72.9596  -79.9531 C   0  0  0  0  0  0  0  0  0  0  0  0
  111.9248  -75.2087  -79.8964 C   0  0  0  0  0  0  0  0  0  0  0  0
  1  2  1  6  0  0  0
  1  3  1  0  0  0  0
  1 16  1  0  0  0  0
  2 23  1  0  0  0  0
  2 24  1  0  0  0  0
  4 25  1  0  0  0  0
  4 26  1  0  0  0  0
  5  6  1  0  0  0  0
  6  3  1  1  0  0  0
  6 14  1  0  0  0  0
  7  5  1  6  0  0  0
  7  8  1  0  0  0  0
  7 12  1  0  0  0  0
  8  9  1  0  0  0  0
  9  4  1  6  0  0  0
  9 10  1  0  0  0  0
 10 11  1  0  0  0  0
 12 11  1  1  0  0  0
 12 13  1  0  0  0  0
 13 14  1  0  0  0  0
 13 17  1  1  0  0  0
 14 15  1  1  0  0  0
 15 16  1  0  0  0  0
 17 18  1  0  0  0  0
 17 22  1  0  0  0  0
 18 19  1  0  0  0  0
 19 20  1  0  0  0  0
 20 21  1  0  0  0  0
 21 22  1  0  0  0  0
M  END
>  <CHROM.1>
-171.50317899,175.90514767,-127.46809796,111.02286854,-76.26374527,-85.38918117
-1.24975976,-1.04981353,1.06455933

>  <Name>
ligand

>  <RI>
0

>  <Rbt.Current_Directory>
/home/itssahil/PROJECTS/Mol_Feturizer/Test_systems_manuscript/rnas/1f1t

>  <Rbt.Executable>
rbdock ($Id: //depot/dev/client3/rdock/2013.1/src/exe/rbdock.cxx#4 $)

>  <Rbt.Library>
libRbt.so (2013.1, Build901 2013/11/27)

>  <Rbt.Parameter_File>
/export/apps/rDock/src/rDock_2013.1_src/data/scripts/dock_solv.prm

>  <Rbt.Receptor>
prm/pocket_docking_4.prm

>  <SCORE>
-53.3413

>  <SCORE.INTER>
-56.2132

>  <SCORE.INTER.CONST>
1

>  <SCORE.INTER.POLAR>
0

>  <SCORE.INTER.ROT>
3

>  <SCORE.INTER.SOLV>
8.97286

>  <SCORE.INTER.VDW>
-46.0664

>  <SCORE.INTER.norm>
-2.16205

>  <SCORE.INTRA>
2.87189

>  <SCORE.INTRA.DIHEDRAL>
-0.000583236

>  <SCORE.INTRA.DIHEDRAL.0>
3.60016

>  <SCORE.INTRA.POLAR>
0

>  <SCORE.INTRA.POLAR.0>
0

>  <SCORE.INTRA.REPUL>
0

>  <SCORE.INTRA.REPUL.0>
0

>  <SCORE.INTRA.SOLV>
-0.000957205

>  <SCORE.INTRA.SOLV.lig_0>
-10.9882

>  <SCORE.INTRA.VDW>
2.87266

>  <SCORE.INTRA.VDW.0>
1.84442

>  <SCORE.INTRA.norm>
0.110457

>  <SCORE.RESTR>
0

>  <SCORE.RESTR.CAVITY>
0

>  <SCORE.RESTR.norm>
0

>  <SCORE.SYSTEM>
0

>  <SCORE.SYSTEM.CONST>
0

>  <SCORE.SYSTEM.DIHEDRAL>
0

>  <SCORE.SYSTEM.SOLV>
0

>  <SCORE.SYSTEM.norm>
0

>  <SCORE.heavy>
26

>  <SCORE.norm>
-2.05159

>  <RMSD>
0.758

$$$$
ligand
 OpenBabel02271912153D
libRbt.so/2013.1/901 2013/11/27
 26 29  0  0  0  0  0  0  0  0999 V2000
  111.2453  -74.6180  -81.8958 C   0  0  1  0  0  0  0  0  0  0  0  0
  111.4168  -74.2797  -80.5611 N   0  0  0  0  0  0  0  0  0  0  0  0
  111.7342  -75.8960  -82.3918 C   0  0  0  0  0  0  0  0  0  0  0  0
  112.6637  -80.5153  -87.4857 N   0  0  0  0  0  0  0  0  0  0  0  0
  112.0087  -77.4053  -84.2073 O   0  0  0  0  0  0  0  0  0  0  0  0
  111.4879  -76.0855  -83.7530 C   0  0  2  0  0  0  0  0  0  0  0  0
  111.7887  -77.5653  -85.4539 C   0  0  1  0  0  0  0  0  0  0  0  0
  112.3220  -78.8834  -85.7975 C   0  0  0  0  0  0  0  0  0  0  0  0
  112.1680  -79.2350  -87.1854 C   0  0  2  0  0  0  0  0  0  0  0  0
  111.5637  -78.3695  -88.1305 C   0  0  0  0  0  0  0  0  0  0  0  0
  111.0456  -77.0767  -87.7231 C   0  0  0  0  0  0  0  0  0  0  0  0
  111.1760  -76.7096  -86.3344 C   0  0  2  0  0  0  0  0  0  0  0  0
  110.5971  -75.3566  -85.9931 C   0  0  1  0  0  0  0  0  0  0  0  0
  110.8522  -75.2023  -84.6186 C   0  0  2  0  0  0  0  0  0  0  0  0
  110.3610  -73.9243  -84.0987 C   0  0  0  0  0  0  0  0  0  0  0  0
  110.6029  -73.7034  -82.7076 C   0  0  0  0  0  0  0  0  0  0  0  0
  109.9818  -74.5424  -86.9250 C   0  0  0  0  0  0  0  0  0  0  0  0
  110.2977  -73.1847  -87.1647 C   0  0  0  0  0  0  0  0  0  0  0  0
  109.6991  -72.3531  -88.1128 C   0  0  0  0  0  0  0  0  0  0  0  0
  108.6442  -72.8783  -88.9667 C   0  0  0  0  0  0  0  0  0  0  0  0
  108.3444  -74.2347  -88.6942 C   0  0  0  0  0  0  0  0  0  0  0  0
  108.9146  -75.1031  -87.7532 C   0  0  0  0  0  0  0  0  0  0  0  0
  112.0060  -75.2031  -79.5955 C   0  0  0  0  0  0  0  0  0  0  0  0
  111.0589  -72.9918  -79.9295 C   0  0  0  0  0  0  0  0  0  0  0  0
  113.2830  -81.5544  -86.6330 C   0  0  0  0  0  0  0  0  0  0  0  0
  112.5583  -80.9776  -88.9148 C   0  0  0  0  0  0  0  0  0  0  0  0
  1  2  1  1  0  0  0
  1  3  1  0  0  0  0
  1 16  1  0  0  0  0
  2 23  1  0  0  0  0
  2 24  1  0  0  0  0
  4 25  1  0  0  0  0
  4 26  1  0  0  0  0
  5  6  1  0  0  0  0
  6  3  1  6  0  0  0
  6 14  1  0  0  0  0
  7  5  1  1  0  0  0
  7  8  1  0  0  0  0
  7 12  1  0  0  0  0
  8  9  1  0  0  0  0
  9  4  1  1  0  0  0
  9 10  1  0  0  0  0
 10 11  1  0  0  0  0
 12 11  1  6  0  0  0
 12 13  1  0  0  0  0
 13 14  1  0  0  0  0
 13 17  1  6  0  0  0
 14 15  1  6  0  0  0
 15 16  1  0  0  0  0
 17 18  1  0  0  0  0
 17 22  1  0  0  0  0
 18 19  1  0  0  0  0
 19 20  1  0  0  0  0
 20 21  1  0  0  0  0
 21 22  1  0  0  0  0
M  END
>  <CHROM.1>
-3.87645748,1.24610847,-127.88223958,111.13507965,-76.16168011,-85.33242341
-1.81576542,1.08532563,-2.06865381

>  <Name>
ligand

>  <RI>
0

>  <Rbt.Current_Directory>
/home/itssahil/PROJECTS/Mol_Feturizer/Test_systems_manuscript/rnas/1f1t

>  <Rbt.Executable>
rbdock ($Id: //depot/dev/client3/rdock/2013.1/src/exe/rbdock.cxx#4 $)

>  <Rbt.Library>
libRbt.so (2013.1, Build901 2013/11/27)

>  <Rbt.Parameter_File>
/export/apps/rDock/src/rDock_2013.1_src/data/scripts/dock_solv.prm

>  <Rbt.Receptor>
prm/pocket_docking_5.prm

>  <SCORE>
-56.4375

>  <SCORE.INTER>
-56.7426

>  <SCORE.INTER.CONST>
1

>  <SCORE.INTER.POLAR>
0

>  <SCORE.INTER.ROT>
3

>  <SCORE.INTER.SOLV>
9.2698

>  <SCORE.INTER.VDW>
-46.5184

>  <SCORE.INTER.norm>
-2.18241

>  <SCORE.INTRA>
0.305183

>  <SCORE.INTRA.DIHEDRAL>
-2.1398e-06

>  <SCORE.INTRA.DIHEDRAL.0>
3.60016

>  <SCORE.INTRA.POLAR>
0

>  <SCORE.INTRA.POLAR.0>
0

>  <SCORE.INTRA.REPUL>
0

>  <SCORE.INTRA.REPUL.0>
0

>  <SCORE.INTRA.SOLV>
7.70217e-06

>  <SCORE.INTRA.SOLV.lig_0>
-10.9882

>  <SCORE.INTRA.VDW>
0.30518

>  <SCORE.INTRA.VDW.0>
1.84442

>  <SCORE.INTRA.norm>
0.0117378

>  <SCORE.RESTR>
0

>  <SCORE.RESTR.CAVITY>
0

>  <SCORE.RESTR.norm>
0

>  <SCORE.SYSTEM>
0

>  <SCORE.SYSTEM.CONST>
0

>  <SCORE.SYSTEM.DIHEDRAL>
0

>  <SCORE.SYSTEM.SOLV>
0

>  <SCORE.SYSTEM.norm>
0

>  <SCORE.heavy>
26

>  <SCORE.norm>
-2.17067

>  <RMSD>
0.759

$$$$
ligand
 OpenBabel02271912153D
libRbt.so/2013.1/901 2013/11/27
 26 29  0  0  0  0  0  0  0  0999 V2000
  111.2907  -74.6700  -81.9610 C   0  0  1  0  0  0  0  0  0  0  0  0
  111.4743  -74.3279  -80.6289 N   0  0  0  0  0  0  0  0  0  0  0  0
  111.7802  -75.9471  -82.4589 C   0  0  0  0  0  0  0  0  0  0  0  0
  112.6780  -80.5746  -87.5511 N   0  0  0  0  0  0  0  0  0  0  0  0
  112.0427  -77.4596  -84.2736 O   0  0  0  0  0  0  0  0  0  0  0  0
  111.5209  -76.1409  -83.8170 C   0  0  2  0  0  0  0  0  0  0  0  0
  111.8108  -77.6235  -85.5174 C   0  0  1  0  0  0  0  0  0  0  0  0
  112.3464  -78.9401  -85.8633 C   0  0  0  0  0  0  0  0  0  0  0  0
  112.1798  -79.2957  -87.2487 C   0  0  2  0  0  0  0  0  0  0  0  0
  111.5622  -78.4351  -88.1897 C   0  0  0  0  0  0  0  0  0  0  0  0
  111.0427  -77.1435  -87.7802 C   0  0  0  0  0  0  0  0  0  0  0  0
  111.1856  -76.7725  -86.3937 C   0  0  2  0  0  0  0  0  0  0  0  0
  110.6043  -75.4213  -86.0497 C   0  0  1  0  0  0  0  0  0  0  0  0
  110.8726  -75.2626  -84.6782 C   0  0  2  0  0  0  0  0  0  0  0  0
  110.3812  -73.9854  -84.1564 C   0  0  0  0  0  0  0  0  0  0  0  0
  110.6363  -73.7602  -82.7684 C   0  0  0  0  0  0  0  0  0  0  0  0
  109.9761  -74.6119  -86.9772 C   0  0  0  0  0  0  0  0  0  0  0  0
  110.2674  -73.2471  -87.2067 C   0  0  0  0  0  0  0  0  0  0  0  0
  109.6557  -72.4199  -88.1503 C   0  0  0  0  0  0  0  0  0  0  0  0
  108.6123  -72.9583  -89.0101 C   0  0  0  0  0  0  0  0  0  0  0  0
  108.3369  -74.3219  -88.7478 C   0  0  0  0  0  0  0  0  0  0  0  0
  108.9210  -75.1863  -87.8117 C   0  0  0  0  0  0  0  0  0  0  0  0
  112.1381  -75.2198  -79.6823 C   0  0  0  0  0  0  0  0  0  0  0  0
  111.0586  -73.0651  -79.9821 C   0  0  0  0  0  0  0  0  0  0  0  0
  113.2067  -81.6530  -86.6864 C   0  0  0  0  0  0  0  0  0  0  0  0
  112.6850  -80.9871  -88.9991 C   0  0  0  0  0  0  0  0  0  0  0  0
  1  2  1  1  0  0  0
  1  3  1  0  0  0  0
  1 16  1  0  0  0  0
  2 23  1  0  0  0  0
  2 24  1  0  0  0  0
  4 25  1  0  0  0  0
  4 26  1  0  0  0  0
  5  6  1  0  0  0  0
  6  3  1  6  0  0  0
  6 14  1  0  0  0  0
  7  5  1  1  0  0  0
  7  8  1  0  0  0  0
  7 12  1  0  0  0  0
  8  9  1  0  0  0  0
  9  4  1  1  0  0  0
  9 10  1  0  0  0  0
 10 11  1  0  0  0  0
 12 11  1  6  0  0  0
 12 13  1  0  0  0  0
 13 14  1  0  0  0  0
 13 17  1  6  0  0  0
 14 15  1  6  0  0  0
 15 16  1  0  0  0  0
 17 18  1  0  0  0  0
 17 22  1  0  0  0  0
 18 19  1  0  0  0  0
 19 20  1  0  0  0  0
 20 21  1  0  0  0  0
 21 22  1  0  0  0  0
M  END
>  <CHROM.1>
-0.72580605,7.13828277,-129.07771302,111.15364449,-76.22192813,-85.39301987
-1.80472384,1.07683524,-2.08034088

>  <Name>
ligand

>  <RI>
0

>  <Rbt.Current_Directory>
/home/itssahil/PROJECTS/Mol_Feturizer/Test_systems_manuscript/rnas/1f1t

>  <Rbt.Executable>
rbdock ($Id: //depot/dev/client3/rdock/2013.1/src/exe/rbdock.cxx#4 $)

>  <Rbt.Library>
libRbt.so (2013.1, Build901 2013/11/27)

>  <Rbt.Parameter_File>
/export/apps/rDock/src/rDock_2013.1_src/data/scripts/dock_solv.prm

>  <Rbt.Receptor>
prm/pocket_docking_6.prm

>  <SCORE>
-56.3608

>  <SCORE.INTER>
-56.6846

>  <SCORE.INTER.CONST>
1

>  <SCORE.INTER.POLAR>
0

>  <SCORE.INTER.ROT>
3

>  <SCORE.INTER.SOLV>
9.13405

>  <SCORE.INTER.VDW>
-46.4344

>  <SCORE.INTER.norm>
-2.18018

>  <SCORE.INTRA>
0.323836

>  <SCORE.INTRA.DIHEDRAL>
-1.74129e-05

>  <SCORE.INTRA.DIHEDRAL.0>
3.60016

>  <SCORE.INTRA.POLAR>
0

>  <SCORE.INTRA.POLAR.0>
0

>  <SCORE.INTRA.REPUL>
0

>  <SCORE.INTRA.REPUL.0>
0

>  <SCORE.INTRA.SOLV>
1.61236e-05

>  <SCORE.INTRA.SOLV.lig_0>
-10.9882

>  <SCORE.INTRA.VDW>
0.323836

>  <SCORE.INTRA.VDW.0>
1.84442

>  <SCORE.INTRA.norm>
0.0124552

>  <SCORE.RESTR>
0

>  <SCORE.RESTR.CAVITY>
0

>  <SCORE.RESTR.norm>
0

>  <SCORE.SYSTEM>
0

>  <SCORE.SYSTEM.CONST>
0

>  <SCORE.SYSTEM.DIHEDRAL>
0

>  <SCORE.SYSTEM.SOLV>
0

>  <SCORE.SYSTEM.norm>
0

>  <SCORE.heavy>
26

>  <SCORE.norm>
-2.16772

>  <RMSD>
0.759

$$$$
ligand
 OpenBabel02271912153D
libRbt.so/2013.1/901 2013/11/27
 26 29  0  0  0  0  0  0  0  0999 V2000
  111.2373  -74.6173  -81.8890 C   0  0  1  0  0  0  0  0  0  0  0  0
  111.4082  -74.2804  -80.5539 N   0  0  0  0  0  0  0  0  0  0  0  0
  111.7254  -75.8954  -82.3857 C   0  0  0  0  0  0  0  0  0  0  0  0
  112.6540  -80.5112  -87.4830 N   0  0  0  0  0  0  0  0  0  0  0  0
  111.9996  -77.4034  -84.2024 O   0  0  0  0  0  0  0  0  0  0  0  0
  111.4798  -76.0835  -83.7472 C   0  0  2  0  0  0  0  0  0  0  0  0
  111.7803  -77.5621  -85.4493 C   0  0  1  0  0  0  0  0  0  0  0  0
  112.3126  -78.8804  -85.7936 C   0  0  0  0  0  0  0  0  0  0  0  0
  112.1592  -79.2307  -87.1819 C   0  0  2  0  0  0  0  0  0  0  0  0
  111.5564  -78.3638  -88.1267 C   0  0  0  0  0  0  0  0  0  0  0  0
  111.0393  -77.0709  -87.7186 C   0  0  0  0  0  0  0  0  0  0  0  0
  111.1691  -76.7050  -86.3295 C   0  0  2  0  0  0  0  0  0  0  0  0
  110.5913  -75.3519  -85.9874 C   0  0  1  0  0  0  0  0  0  0  0  0
  110.8455  -75.1990  -84.6125 C   0  0  2  0  0  0  0  0  0  0  0  0
  110.3552  -73.9209  -84.0919 C   0  0  0  0  0  0  0  0  0  0  0  0
  110.5964  -73.7014  -82.7005 C   0  0  0  0  0  0  0  0  0  0  0  0
  109.9773  -74.5362  -86.9190 C   0  0  0  0  0  0  0  0  0  0  0  0
  110.2938  -73.1783  -87.1565 C   0  0  0  0  0  0  0  0  0  0  0  0
  109.6967  -72.3453  -88.1043 C   0  0  0  0  0  0  0  0  0  0  0  0
  108.6428  -72.8691  -88.9602 C   0  0  0  0  0  0  0  0  0  0  0  0
  108.3423  -74.2258  -88.6900 C   0  0  0  0  0  0  0  0  0  0  0  0
  108.9111  -75.0956  -87.7494 C   0  0  0  0  0  0  0  0  0  0  0  0
  110.9359  -73.0117  -80.0065 C   0  0  0  0  0  0  0  0  0  0  0  0
  112.0547  -75.1107  -79.5154 C   0  0  0  0  0  0  0  0  0  0  0  0
  113.2806  -81.5477  -86.6325 C   0  0  0  0  0  0  0  0  0  0  0  0
  112.5383  -80.9769  -88.9102 C   0  0  0  0  0  0  0  0  0  0  0  0
  1  2  1  1  0  0  0
  1  3  1  0  0  0  0
  1 16  1  0  0  0  0
  2 23  1  0  0  0  0
  2 24  1  0  0  0  0
  4 25  1  0  0  0  0
  4 26  1  0  0  0  0
  5  6  1  0  0  0  0
  6  3  1  6  0  0  0
  6 14  1  0  0  0  0
  7  5  1  1  0  0  0
  7  8  1  0  0  0  0
  7 12  1  0  0  0  0
  8  9  1  0  0  0  0
  9  4  1  1  0  0  0
  9 10  1  0  0  0  0
 10 11  1  0  0  0  0
 12 11  1  6  0  0  0
 12 13  1  0  0  0  0
 13 14  1  0  0  0  0
 13 17  1  6  0  0  0
 14 15  1  6  0  0  0
 15 16  1  0  0  0  0
 17 18  1  0  0  0  0
 17 22  1  0  0  0  0
 18 19  1  0  0  0  0
 19 20  1  0  0  0  0
 20 21  1  0  0  0  0
 21 22  1  0  0  0  0
M  END
>  <CHROM.1>
-179.94775146,0.73452932,-127.94370616,111.12535095,-76.15460402,-85.32752950
-1.81937911,1.08518091,-2.06651245

>  <Name>
ligand

>  <RI>
0

>  <Rbt.Current_Directory>
/home/itssahil/PROJECTS/Mol_Feturizer/Test_systems_manuscript/rnas/1f1t

>  <Rbt.Executable>
rbdock ($Id: //depot/dev/client3/rdock/2013.1/src/exe/rbdock.cxx#4 $)

>  <Rbt.Library>
libRbt.so (2013.1, Build901 2013/11/27)

>  <Rbt.Parameter_File>
/export/apps/rDock/src/rDock_2013.1_src/data/scripts/dock_solv.prm

>  <Rbt.Receptor>
prm/pocket_docking_4.prm

>  <SCORE>
-56.1208

>  <SCORE.INTER>
-56.7503

>  <SCORE.INTER.CONST>
1

>  <SCORE.INTER.POLAR>
0

>  <SCORE.INTER.ROT>
3

>  <SCORE.INTER.SOLV>
9.24665

>  <SCORE.INTER.VDW>
-46.5158

>  <SCORE.INTER.norm>
-2.18271

>  <SCORE.INTRA>
0.629574

>  <SCORE.INTRA.DIHEDRAL>
1.19176e-05

>  <SCORE.INTRA.DIHEDRAL.0>
3.60016

>  <SCORE.INTRA.POLAR>
0

>  <SCORE.INTRA.POLAR.0>
0

>  <SCORE.INTRA.REPUL>
0

>  <SCORE.INTRA.REPUL.0>
0

>  <SCORE.INTRA.SOLV>
-1.07752e-06

>  <SCORE.INTRA.SOLV.lig_0>
-10.9882

>  <SCORE.INTRA.VDW>
0.629569

>  <SCORE.INTRA.VDW.0>
1.84442

>  <SCORE.INTRA.norm>
0.0242144

>  <SCORE.RESTR>
0

>  <SCORE.RESTR.CAVITY>
0

>  <SCORE.RESTR.norm>
0

>  <SCORE.SYSTEM>
0

>  <SCORE.SYSTEM.CONST>
0

>  <SCORE.SYSTEM.DIHEDRAL>
0

>  <SCORE.SYSTEM.SOLV>
0

>  <SCORE.SYSTEM.norm>
0

>  <SCORE.heavy>
26

>  <SCORE.norm>
-2.15849

>  <RMSD>
0.760

$$$$
ligand
 OpenBabel02271912153D
libRbt.so/2013.1/901 2013/11/27
 26 29  0  0  0  0  0  0  0  0999 V2000
  112.2242  -79.4344  -87.0441 C   0  0  1  0  0  0  0  0  0  0  0  0
  112.7635  -80.6630  -87.3973 N   0  0  0  0  0  0  0  0  0  0  0  0
  112.3535  -78.9479  -85.6785 C   0  0  0  0  0  0  0  0  0  0  0  0
  111.2548  -74.1651  -80.7725 N   0  0  0  0  0  0  0  0  0  0  0  0
  111.9177  -77.2518  -84.0713 O   0  0  0  0  0  0  0  0  0  0  0  0
  111.7573  -77.7007  -85.4828 C   0  0  2  0  0  0  0  0  0  0  0  0
  111.3610  -76.1167  -83.8993 C   0  0  1  0  0  0  0  0  0  0  0  0
  111.5818  -75.7611  -82.4976 C   0  0  0  0  0  0  0  0  0  0  0  0
  111.0073  -74.4971  -82.1155 C   0  0  2  0  0  0  0  0  0  0  0  0
  110.2828  -73.6823  -83.0203 C   0  0  0  0  0  0  0  0  0  0  0  0
  110.1068  -74.0883  -84.4023 C   0  0  0  0  0  0  0  0  0  0  0  0
  110.6864  -75.3443  -84.8110 C   0  0  2  0  0  0  0  0  0  0  0  0
  110.4704  -75.6828  -86.2673 C   0  0  1  0  0  0  0  0  0  0  0  0
  111.0895  -76.9349  -86.4321 C   0  0  2  0  0  0  0  0  0  0  0  0
  110.9761  -77.4387  -87.8026 C   0  0  0  0  0  0  0  0  0  0  0  0
  111.5759  -78.7159  -88.0297 C   0  0  0  0  0  0  0  0  0  0  0  0
  109.7886  -74.8569  -87.1408 C   0  0  0  0  0  0  0  0  0  0  0  0
  108.6999  -75.2445  -87.9562 C   0  0  0  0  0  0  0  0  0  0  0  0
  107.9891  -74.4203  -88.8304 C   0  0  0  0  0  0  0  0  0  0  0  0
  108.3567  -73.0178  -88.9558 C   0  0  0  0  0  0  0  0  0  0  0  0
  109.4556  -72.6650  -88.1361 C   0  0  0  0  0  0  0  0  0  0  0  0
  110.1987  -73.4572  -87.2501 C   0  0  0  0  0  0  0  0  0  0  0  0
  113.2902  -81.5946  -86.4037 C   0  0  0  0  0  0  0  0  0  0  0  0
  112.8799  -81.2092  -88.7663 C   0  0  0  0  0  0  0  0  0  0  0  0
  110.9448  -72.9493  -79.9876 C   0  0  0  0  0  0  0  0  0  0  0  0
  111.9419  -75.2000  -79.9219 C   0  0  0  0  0  0  0  0  0  0  0  0
  1  2  1  6  0  0  0
  1  3  1  0  0  0  0
  1 16  1  0  0  0  0
  2 23  1  0  0  0  0
  2 24  1  0  0  0  0
  4 25  1  0  0  0  0
  4 26  1  0  0  0  0
  5  6  1  0  0  0  0
  6  3  1  1  0  0  0
  6 14  1  0  0  0  0
  7  5  1  6  0  0  0
  7  8  1  0  0  0  0
  7 12  1  0  0  0  0
  8  9  1  0  0  0  0
  9  4  1  6  0  0  0
  9 10  1  0  0  0  0
 10 11  1  0  0  0  0
 12 11  1  1  0  0  0
 12 13  1  0  0  0  0
 13 14  1  0  0  0  0
 13 17  1  1  0  0  0
 14 15  1  1  0  0  0
 15 16  1  0  0  0  0
 17 18  1  0  0  0  0
 17 22  1  0  0  0  0
 18 19  1  0  0  0  0
 19 20  1  0  0  0  0
 20 21  1  0  0  0  0
 21 22  1  0  0  0  0
M  END
>  <CHROM.1>
9.42662785,175.24708764,-126.97812920,111.03136399,-76.27739096,-85.40553692
-1.24919895,-1.04022747,1.05951491

>  <Name>
ligand

>  <RI>
0

>  <Rbt.Current_Directory>
/home/itssahil/PROJECTS/Mol_Feturizer/Test_systems_manuscript/rnas/1f1t

>  <Rbt.Executable>
rbdock ($Id: //depot/dev/client3/rdock/2013.1/src/exe/rbdock.cxx#4 $)

>  <Rbt.Library>
libRbt.so (2013.1, Build901 2013/11/27)

>  <Rbt.Parameter_File>
/export/apps/rDock/src/rDock_2013.1_src/data/scripts/dock_solv.prm

>  <Rbt.Receptor>
prm/pocket_docking_6.prm

>  <SCORE>
-53.6044

>  <SCORE.INTER>
-56.135

>  <SCORE.INTER.CONST>
1

>  <SCORE.INTER.POLAR>
0

>  <SCORE.INTER.ROT>
3

>  <SCORE.INTER.SOLV>
8.99483

>  <SCORE.INTER.VDW>
-46.0216

>  <SCORE.INTER.norm>
-2.15904

>  <SCORE.INTRA>
2.53066

>  <SCORE.INTRA.DIHEDRAL>
-0.000594558

>  <SCORE.INTRA.DIHEDRAL.0>
3.60016

>  <SCORE.INTRA.POLAR>
0

>  <SCORE.INTRA.POLAR.0>
0

>  <SCORE.INTRA.REPUL>
0

>  <SCORE.INTRA.REPUL.0>
0

>  <SCORE.INTRA.SOLV>
-0.000947655

>  <SCORE.INTRA.SOLV.lig_0>
-10.9882

>  <SCORE.INTRA.VDW>
2.53143

>  <SCORE.INTRA.VDW.0>
1.84442

>  <SCORE.INTRA.norm>
0.0973332

>  <SCORE.RESTR>
0

>  <SCORE.RESTR.CAVITY>
0

>  <SCORE.RESTR.norm>
0

>  <SCORE.SYSTEM>
0

>  <SCORE.SYSTEM.CONST>
0

>  <SCORE.SYSTEM.DIHEDRAL>
0

>  <SCORE.SYSTEM.SOLV>
0

>  <SCORE.SYSTEM.norm>
0

>  <SCORE.heavy>
26

>  <SCORE.norm>
-2.06171

>  <RMSD>
0.760

$$$$
ligand
 OpenBabel02271912153D
libRbt.so/2013.1/901 2013/11/27
 26 29  0  0  0  0  0  0  0  0999 V2000
  111.1722  -74.6798  -82.0552 C   0  0  1  0  0  0  0  0  0  0  0  0
  111.3484  -74.3076  -80.7302 N   0  0  0  0  0  0  0  0  0  0  0  0
  111.6991  -75.9505  -82.5309 C   0  0  0  0  0  0  0  0  0  0  0  0
  112.7250  -80.6421  -87.5395 N   0  0  0  0  0  0  0  0  0  0  0  0
  112.0032  -77.4877  -84.3182 O   0  0  0  0  0  0  0  0  0  0  0  0
  111.4425  -76.1772  -83.8845 C   0  0  2  0  0  0  0  0  0  0  0  0
  111.7733  -77.6816  -85.5581 C   0  0  1  0  0  0  0  0  0  0  0  0
  112.3479  -78.9875  -85.8812 C   0  0  0  0  0  0  0  0  0  0  0  0
  112.1888  -79.3736  -87.2593 C   0  0  2  0  0  0  0  0  0  0  0  0
  111.5431  -78.5498  -88.2142 C   0  0  0  0  0  0  0  0  0  0  0  0
  110.9854  -77.2672  -87.8270 C   0  0  0  0  0  0  0  0  0  0  0  0
  111.1203  -76.8664  -86.4481 C   0  0  2  0  0  0  0  0  0  0  0  0
  110.4990  -75.5273  -86.1274 C   0  0  1  0  0  0  0  0  0  0  0  0
  110.7657  -75.3351  -84.7598 C   0  0  2  0  0  0  0  0  0  0  0  0
  110.2368  -74.0640  -84.2602 C   0  0  0  0  0  0  0  0  0  0  0  0
  110.4883  -73.8054  -82.8773 C   0  0  0  0  0  0  0  0  0  0  0  0
  109.8442  -74.7548  -87.0677 C   0  0  0  0  0  0  0  0  0  0  0  0
  108.8157  -75.2051  -87.9279 C   0  0  0  0  0  0  0  0  0  0  0  0
  108.1319  -74.4352  -88.8705 C   0  0  0  0  0  0  0  0  0  0  0  0
  108.4645  -73.0271  -89.0270 C   0  0  0  0  0  0  0  0  0  0  0  0
  109.5039  -72.6110  -88.1607 C   0  0  0  0  0  0  0  0  0  0  0  0
  110.2183  -73.3475  -87.2058 C   0  0  0  0  0  0  0  0  0  0  0  0
  111.9970  -75.1825  -79.7575 C   0  0  0  0  0  0  0  0  0  0  0  0
  110.9388  -73.0262  -80.1170 C   0  0  0  0  0  0  0  0  0  0  0  0
  113.2832  -81.6901  -86.6561 C   0  0  0  0  0  0  0  0  0  0  0  0
  112.7474  -81.0781  -88.9805 C   0  0  0  0  0  0  0  0  0  0  0  0
  1  2  1  1  0  0  0
  1  3  1  0  0  0  0
  1 16  1  0  0  0  0
  2 23  1  0  0  0  0
  2 24  1  0  0  0  0
  4 25  1  0  0  0  0
  4 26  1  0  0  0  0
  5  6  1  0  0  0  0
  6  3  1  6  0  0  0
  6 14  1  0  0  0  0
  7  5  1  1  0  0  0
  7  8  1  0  0  0  0
  7 12  1  0  0  0  0
  8  9  1  0  0  0  0
  9  4  1  1  0  0  0
  9 10  1  0  0  0  0
 10 11  1  0  0  0  0
 12 11  1  6  0  0  0
 12 13  1  0  0  0  0
 13 14  1  0  0  0  0
 13 17  1  6  0  0  0
 14 15  1  6  0  0  0
 15 16  1  0  0  0  0
 17 18  1  0  0  0  0
 17 22  1  0  0  0  0
 18 19  1  0  0  0  0
 19 20  1  0  0  0  0
 20 21  1  0  0  0  0
 21 22  1  0  0  0  0
M  END
>  <CHROM.1>
-3.06778309,7.43722501,51.02308958,111.07994856,-76.28193512,-85.44803208
-1.84811966,1.05378140,-2.07413396

>  <Name>
ligand

>  <RI>
0

>  <Rbt.Current_Directory>
/home/itssahil/PROJECTS/Mol_Feturizer/Test_systems_manuscript/rnas/1f1t

>  <Rbt.Executable>
rbdock ($Id: //depot/dev/client3/rdock/2013.1/src/exe/rbdock.cxx#4 $)

>  <Rbt.Library>
libRbt.so (2013.1, Build901 2013/11/27)

>  <Rbt.Parameter_File>
/export/apps/rDock/src/rDock_2013.1_src/data/scripts/dock_solv.prm

>  <Rbt.Receptor>
prm/pocket_docking_5.prm

>  <SCORE>
-56.2063

>  <SCORE.INTER>
-56.4113

>  <SCORE.INTER.CONST>
1

>  <SCORE.INTER.POLAR>
0

>  <SCORE.INTER.ROT>
3

>  <SCORE.INTER.SOLV>
8.98701

>  <SCORE.INTER.VDW>
-46.2032

>  <SCORE.INTER.norm>
-2.16966

>  <SCORE.INTRA>
0.20492

>  <SCORE.INTRA.DIHEDRAL>
0.000252938

>  <SCORE.INTRA.DIHEDRAL.0>
3.60016

>  <SCORE.INTRA.POLAR>
0

>  <SCORE.INTRA.POLAR.0>
0

>  <SCORE.INTRA.REPUL>
0

>  <SCORE.INTRA.REPUL.0>
0

>  <SCORE.INTRA.SOLV>
2.20444e-05

>  <SCORE.INTRA.SOLV.lig_0>
-10.9882

>  <SCORE.INTRA.VDW>
0.204783

>  <SCORE.INTRA.VDW.0>
1.84442

>  <SCORE.INTRA.norm>
0.00788154

>  <SCORE.RESTR>
0

>  <SCORE.RESTR.CAVITY>
0

>  <SCORE.RESTR.norm>
0

>  <SCORE.SYSTEM>
0

>  <SCORE.SYSTEM.CONST>
0

>  <SCORE.SYSTEM.DIHEDRAL>
0

>  <SCORE.SYSTEM.SOLV>
0

>  <SCORE.SYSTEM.norm>
0

>  <SCORE.heavy>
26

>  <SCORE.norm>
-2.16178

>  <RMSD>
0.761

$$$$
ligand
 OpenBabel02271912153D
libRbt.so/2013.1/901 2013/11/27
 26 29  0  0  0  0  0  0  0  0999 V2000
  111.2521  -74.6118  -81.9053 C   0  0  1  0  0  0  0  0  0  0  0  0
  111.4256  -74.2703  -80.5717 N   0  0  0  0  0  0  0  0  0  0  0  0
  111.7425  -75.8900  -82.3994 C   0  0  0  0  0  0  0  0  0  0  0  0
  112.6705  -80.5190  -87.4848 N   0  0  0  0  0  0  0  0  0  0  0  0
  112.0161  -77.4029  -84.2121 O   0  0  0  0  0  0  0  0  0  0  0  0
  111.4939  -76.0830  -83.7596 C   0  0  2  0  0  0  0  0  0  0  0  0
  111.7940  -77.5661  -85.4579 C   0  0  1  0  0  0  0  0  0  0  0  0
  112.3291  -78.8839  -85.7995 C   0  0  0  0  0  0  0  0  0  0  0  0
  112.1730  -79.2390  -87.1863 C   0  0  2  0  0  0  0  0  0  0  0  0
  111.5653  -78.3767  -88.1322 C   0  0  0  0  0  0  0  0  0  0  0  0
  111.0456  -77.0840  -87.7267 C   0  0  0  0  0  0  0  0  0  0  0  0
  111.1780  -76.7135  -86.3391 C   0  0  2  0  0  0  0  0  0  0  0  0
  110.5973  -75.3609  -85.9997 C   0  0  1  0  0  0  0  0  0  0  0  0
  110.8548  -75.2030  -84.6260 C   0  0  2  0  0  0  0  0  0  0  0  0
  110.3622  -73.9247  -84.1080 C   0  0  0  0  0  0  0  0  0  0  0  0
  110.6065  -73.7003  -82.7179 C   0  0  0  0  0  0  0  0  0  0  0  0
  109.9786  -74.5498  -86.9321 C   0  0  0  0  0  0  0  0  0  0  0  0
  110.2823  -73.1884  -87.1661 C   0  0  0  0  0  0  0  0  0  0  0  0
  109.6803  -72.3598  -88.1147 C   0  0  0  0  0  0  0  0  0  0  0  0
  108.6349  -72.8927  -88.9754 C   0  0  0  0  0  0  0  0  0  0  0  0
  108.3471  -74.2528  -88.7086 C   0  0  0  0  0  0  0  0  0  0  0  0
  108.9211  -75.1185  -87.7674 C   0  0  0  0  0  0  0  0  0  0  0  0
  111.0002  -72.9790  -80.0390 C   0  0  0  0  0  0  0  0  0  0  0  0
  112.0299  -75.1166  -79.5208 C   0  0  0  0  0  0  0  0  0  0  0  0
  113.2526  -81.5726  -86.6237 C   0  0  0  0  0  0  0  0  0  0  0  0
  112.6123  -80.9634  -88.9222 C   0  0  0  0  0  0  0  0  0  0  0  0
  1  2  1  1  0  0  0
  1  3  1  0  0  0  0
  1 16  1  0  0  0  0
  2 23  1  0  0  0  0
  2 24  1  0  0  0  0
  4 25  1  0  0  0  0
  4 26  1  0  0  0  0
  5  6  1  0  0  0  0
  6  3  1  6  0  0  0
  6 14  1  0  0  0  0
  7  5  1  1  0  0  0
  7  8  1  0  0  0  0
  7 12  1  0  0  0  0
  8  9  1  0  0  0  0
  9  4  1  1  0  0  0
  9 10  1  0  0  0  0
 10 11  1  0  0  0  0
 12 11  1  6  0  0  0
 12 13  1  0  0  0  0
 13 14  1  0  0  0  0
 13 17  1  6  0  0  0
 14 15  1  6  0  0  0
 15 16  1  0  0  0  0
 17 18  1  0  0  0  0
 17 22  1  0  0  0  0
 18 19  1  0  0  0  0
 19 20  1  0  0  0  0
 20 21  1  0  0  0  0
 21 22  1  0  0  0  0
M  END
>  <CHROM.1>
177.49599775,3.57681640,-128.56117459,111.13602550,-76.15979828,-85.33894844
-1.81856416,1.08298825,-2.07009292

>  <Name>
ligand

>  <RI>
0

>  <Rbt.Current_Directory>
/home/itssahil/PROJECTS/Mol_Feturizer/Test_systems_manuscript/rnas/1f1t

>  <Rbt.Executable>
rbdock ($Id: //depot/dev/client3/rdock/2013.1/src/exe/rbdock.cxx#4 $)

>  <Rbt.Library>
libRbt.so (2013.1, Build901 2013/11/27)

>  <Rbt.Parameter_File>
/export/apps/rDock/src/rDock_2013.1_src/data/scripts/dock_solv.prm

>  <Rbt.Receptor>
prm/pocket_docking_2.prm

>  <SCORE>
-56.1814

>  <SCORE.INTER>
-56.8152

>  <SCORE.INTER.CONST>
1

>  <SCORE.INTER.POLAR>
0

>  <SCORE.INTER.ROT>
3

>  <SCORE.INTER.SOLV>
9.22746

>  <SCORE.INTER.VDW>
-46.5526

>  <SCORE.INTER.norm>
-2.1852

>  <SCORE.INTRA>
0.633798

>  <SCORE.INTRA.DIHEDRAL>
9.31511e-06

>  <SCORE.INTRA.DIHEDRAL.0>
3.60016

>  <SCORE.INTRA.POLAR>
0

>  <SCORE.INTRA.POLAR.0>
0

>  <SCORE.INTRA.REPUL>
0

>  <SCORE.INTRA.REPUL.0>
0

>  <SCORE.INTRA.SOLV>
7.53046e-06

>  <SCORE.INTRA.SOLV.lig_0>
-10.9882

>  <SCORE.INTRA.VDW>
0.633789

>  <SCORE.INTRA.VDW.0>
1.84442

>  <SCORE.INTRA.norm>
0.0243768

>  <SCORE.RESTR>
0

>  <SCORE.RESTR.CAVITY>
0

>  <SCORE.RESTR.norm>
0

>  <SCORE.SYSTEM>
0

>  <SCORE.SYSTEM.CONST>
0

>  <SCORE.SYSTEM.DIHEDRAL>
0

>  <SCORE.SYSTEM.SOLV>
0

>  <SCORE.SYSTEM.norm>
0

>  <SCORE.heavy>
26

>  <SCORE.norm>
-2.16082

>  <RMSD>
0.762

$$$$
ligand
 OpenBabel02271912153D
libRbt.so/2013.1/901 2013/11/27
 26 29  0  0  0  0  0  0  0  0999 V2000
  111.1884  -74.6829  -81.9465 C   0  0  1  0  0  0  0  0  0  0  0  0
  111.3551  -74.3449  -80.6112 N   0  0  0  0  0  0  0  0  0  0  0  0
  111.6773  -75.9617  -82.4405 C   0  0  0  0  0  0  0  0  0  0  0  0
  112.6196  -80.5827  -87.5306 N   0  0  0  0  0  0  0  0  0  0  0  0
  111.9565  -77.4715  -84.2549 O   0  0  0  0  0  0  0  0  0  0  0  0
  111.4361  -76.1509  -83.8027 C   0  0  2  0  0  0  0  0  0  0  0  0
  111.7412  -77.6313  -85.5023 C   0  0  1  0  0  0  0  0  0  0  0  0
  112.2738  -78.9501  -85.8438 C   0  0  0  0  0  0  0  0  0  0  0  0
  112.1247  -79.3016  -87.2322 C   0  0  2  0  0  0  0  0  0  0  0  0
  111.5255  -78.4352  -88.1798 C   0  0  0  0  0  0  0  0  0  0  0  0
  111.0079  -77.1416  -87.7745 C   0  0  0  0  0  0  0  0  0  0  0  0
  111.1334  -76.7746  -86.3853 C   0  0  2  0  0  0  0  0  0  0  0  0
  110.5552  -75.4207  -86.0464 C   0  0  1  0  0  0  0  0  0  0  0  0
  110.8051  -75.2667  -84.6708 C   0  0  2  0  0  0  0  0  0  0  0  0
  110.3139  -73.9879  -84.1529 C   0  0  0  0  0  0  0  0  0  0  0  0
  110.5507  -73.7673  -82.7609 C   0  0  0  0  0  0  0  0  0  0  0  0
  109.9449  -74.6056  -86.9807 C   0  0  0  0  0  0  0  0  0  0  0  0
  110.2742  -73.2528  -87.2298 C   0  0  0  0  0  0  0  0  0  0  0  0
  109.6807  -72.4205  -88.1806 C   0  0  0  0  0  0  0  0  0  0  0  0
  108.6169  -72.9396  -89.0271 C   0  0  0  0  0  0  0  0  0  0  0  0
  108.3037  -74.2910  -88.7452 C   0  0  0  0  0  0  0  0  0  0  0  0
  108.8684  -75.1598  -87.8013 C   0  0  0  0  0  0  0  0  0  0  0  0
  110.8706  -73.0808  -80.0637 C   0  0  0  0  0  0  0  0  0  0  0  0
  112.0086  -75.1694  -79.5725 C   0  0  0  0  0  0  0  0  0  0  0  0
  113.1778  -81.6465  -86.6662 C   0  0  0  0  0  0  0  0  0  0  0  0
  112.5866  -81.0160  -88.9722 C   0  0  0  0  0  0  0  0  0  0  0  0
  1  2  1  1  0  0  0
  1  3  1  0  0  0  0
  1 16  1  0  0  0  0
  2 23  1  0  0  0  0
  2 24  1  0  0  0  0
  4 25  1  0  0  0  0
  4 26  1  0  0  0  0
  5  6  1  0  0  0  0
  6  3  1  6  0  0  0
  6 14  1  0  0  0  0
  7  5  1  1  0  0  0
  7  8  1  0  0  0  0
  7 12  1  0  0  0  0
  8  9  1  0  0  0  0
  9  4  1  1  0  0  0
  9 10  1  0  0  0  0
 10 11  1  0  0  0  0
 12 11  1  6  0  0  0
 12 13  1  0  0  0  0
 13 14  1  0  0  0  0
 13 17  1  6  0  0  0
 14 15  1  6  0  0  0
 15 16  1  0  0  0  0
 17 18  1  0  0  0  0
 17 22  1  0  0  0  0
 18 19  1  0  0  0  0
 19 20  1  0  0  0  0
 20 21  1  0  0  0  0
 21 22  1  0  0  0  0
M  END
>  <CHROM.1>
-179.35645716,4.43322385,-127.11019939,111.08715968,-76.22294827,-85.38409986
-1.82707823,1.08769831,-2.06019398

>  <Name>
ligand

>  <RI>
0

>  <Rbt.Current_Directory>
/home/itssahil/PROJECTS/Mol_Feturizer/Test_systems_manuscript/rnas/1f1t

>  <Rbt.Executable>
rbdock ($Id: //depot/dev/client3/rdock/2013.1/src/exe/rbdock.cxx#4 $)

>  <Rbt.Library>
libRbt.so (2013.1, Build901 2013/11/27)

>  <Rbt.Parameter_File>
/export/apps/rDock/src/rDock_2013.1_src/data/scripts/dock_solv.prm

>  <Rbt.Receptor>
prm/pocket_docking_3.prm

>  <SCORE>
-56.0746

>  <SCORE.INTER>
-56.66

>  <SCORE.INTER.CONST>
1

>  <SCORE.INTER.POLAR>
0

>  <SCORE.INTER.ROT>
3

>  <SCORE.INTER.SOLV>
9.01549

>  <SCORE.INTER.VDW>
-46.3785

>  <SCORE.INTER.norm>
-2.17923

>  <SCORE.INTRA>
0.585438

>  <SCORE.INTRA.DIHEDRAL>
1.82022e-06

>  <SCORE.INTRA.DIHEDRAL.0>
3.60016

>  <SCORE.INTRA.POLAR>
0

>  <SCORE.INTRA.POLAR.0>
0

>  <SCORE.INTRA.REPUL>
0

>  <SCORE.INTRA.REPUL.0>
0

>  <SCORE.INTRA.SOLV>
6.31522e-06

>  <SCORE.INTRA.SOLV.lig_0>
-10.9882

>  <SCORE.INTRA.VDW>
0.585433

>  <SCORE.INTRA.VDW.0>
1.84442

>  <SCORE.INTRA.norm>
0.0225168

>  <SCORE.RESTR>
0

>  <SCORE.RESTR.CAVITY>
0

>  <SCORE.RESTR.norm>
0

>  <SCORE.SYSTEM>
0

>  <SCORE.SYSTEM.CONST>
0

>  <SCORE.SYSTEM.DIHEDRAL>
0

>  <SCORE.SYSTEM.SOLV>
0

>  <SCORE.SYSTEM.norm>
0

>  <SCORE.heavy>
26

>  <SCORE.norm>
-2.15671

>  <RMSD>
0.762

$$$$
ligand
 OpenBabel02271912153D
libRbt.so/2013.1/901 2013/11/27
 26 29  0  0  0  0  0  0  0  0999 V2000
  111.1579  -74.6996  -82.0487 C   0  0  1  0  0  0  0  0  0  0  0  0
  111.3379  -74.3337  -80.7224 N   0  0  0  0  0  0  0  0  0  0  0  0
  111.6844  -75.9674  -82.5322 C   0  0  0  0  0  0  0  0  0  0  0  0
  112.6991  -80.6337  -87.5668 N   0  0  0  0  0  0  0  0  0  0  0  0
  111.9844  -77.4956  -84.3278 O   0  0  0  0  0  0  0  0  0  0  0  0
  111.4240  -76.1878  -83.8861 C   0  0  2  0  0  0  0  0  0  0  0  0
  111.7510  -77.6837  -85.5680 C   0  0  1  0  0  0  0  0  0  0  0  0
  112.3256  -78.9874  -85.8993 C   0  0  0  0  0  0  0  0  0  0  0  0
  112.1627  -79.3670  -87.2788 C   0  0  2  0  0  0  0  0  0  0  0  0
  111.5134  -78.5390  -88.2276 C   0  0  0  0  0  0  0  0  0  0  0  0
  110.9559  -77.2589  -87.8325 C   0  0  0  0  0  0  0  0  0  0  0  0
  111.0946  -76.8647  -86.4520 C   0  0  2  0  0  0  0  0  0  0  0  0
  110.4732  -75.5277  -86.1229 C   0  0  1  0  0  0  0  0  0  0  0  0
  110.7438  -75.3420  -84.7552 C   0  0  2  0  0  0  0  0  0  0  0  0
  110.2155  -74.0738  -84.2477 C   0  0  0  0  0  0  0  0  0  0  0  0
  110.4709  -73.8218  -82.8644 C   0  0  0  0  0  0  0  0  0  0  0  0
  109.8149  -74.7511  -87.0575 C   0  0  0  0  0  0  0  0  0  0  0  0
  108.7802  -75.1966  -87.9127 C   0  0  0  0  0  0  0  0  0  0  0  0
  108.0929  -74.4225  -88.8493 C   0  0  0  0  0  0  0  0  0  0  0  0
  108.4283  -73.0149  -89.0043 C   0  0  0  0  0  0  0  0  0  0  0  0
  109.4739  -72.6037  -88.1431 C   0  0  0  0  0  0  0  0  0  0  0  0
  110.1919  -73.3445  -87.1942 C   0  0  0  0  0  0  0  0  0  0  0  0
  110.8867  -73.0454  -80.2041 C   0  0  0  0  0  0  0  0  0  0  0  0
  111.9748  -75.1489  -79.6661 C   0  0  0  0  0  0  0  0  0  0  0  0
  113.2795  -81.6771  -86.6923 C   0  0  0  0  0  0  0  0  0  0  0  0
  112.6948  -81.0729  -89.0070 C   0  0  0  0  0  0  0  0  0  0  0  0
  1  2  1  1  0  0  0
  1  3  1  0  0  0  0
  1 16  1  0  0  0  0
  2 23  1  0  0  0  0
  2 24  1  0  0  0  0
  4 25  1  0  0  0  0
  4 26  1  0  0  0  0
  5  6  1  0  0  0  0
  6  3  1  6  0  0  0
  6 14  1  0  0  0  0
  7  5  1  1  0  0  0
  7  8  1  0  0  0  0
  7 12  1  0  0  0  0
  8  9  1  0  0  0  0
  9  4  1  1  0  0  0
  9 10  1  0  0  0  0
 10 11  1  0  0  0  0
 12 11  1  6  0  0  0
 12 13  1  0  0  0  0
 13 14  1  0  0  0  0
 13 17  1  6  0  0  0
 14 15  1  6  0  0  0
 15 16  1  0  0  0  0
 17 18  1  0  0  0  0
 17 22  1  0  0  0  0
 18 19  1  0  0  0  0
 19 20  1  0  0  0  0
 20 21  1  0  0  0  0
 21 22  1  0  0  0  0
M  END
>  <CHROM.1>
176.95988417,6.36605088,51.31656760,111.05402495,-76.28185965,-85.44956021
-1.84609283,1.05157815,-2.07277746

>  <Name>
ligand

>  <RI>
0

>  <Rbt.Current_Directory>
/home/itssahil/PROJECTS/Mol_Feturizer/Test_systems_manuscript/rnas/1f1t

>  <Rbt.Executable>
rbdock ($Id: //depot/dev/client3/rdock/2013.1/src/exe/rbdock.cxx#4 $)

>  <Rbt.Library>
libRbt.so (2013.1, Build901 2013/11/27)

>  <Rbt.Parameter_File>
/export/apps/rDock/src/rDock_2013.1_src/data/scripts/dock_solv.prm

>  <Rbt.Receptor>
prm/pocket_docking_6.prm

>  <SCORE>
-55.9028

>  <SCORE.INTER>
-56.4159

>  <SCORE.INTER.CONST>
1

>  <SCORE.INTER.POLAR>
0

>  <SCORE.INTER.ROT>
3

>  <SCORE.INTER.SOLV>
8.93178

>  <SCORE.INTER.VDW>
-46.1878

>  <SCORE.INTER.norm>
-2.16984

>  <SCORE.INTRA>
0.513089

>  <SCORE.INTRA.DIHEDRAL>
0.000273316

>  <SCORE.INTRA.DIHEDRAL.0>
3.60016

>  <SCORE.INTRA.POLAR>
0

>  <SCORE.INTRA.POLAR.0>
0

>  <SCORE.INTRA.REPUL>
0

>  <SCORE.INTRA.REPUL.0>
0

>  <SCORE.INTRA.SOLV>
1.751e-05

>  <SCORE.INTRA.SOLV.lig_0>
-10.9882

>  <SCORE.INTRA.VDW>
0.512944

>  <SCORE.INTRA.VDW.0>
1.84442

>  <SCORE.INTRA.norm>
0.0197342

>  <SCORE.RESTR>
0

>  <SCORE.RESTR.CAVITY>
0

>  <SCORE.RESTR.norm>
0

>  <SCORE.SYSTEM>
0

>  <SCORE.SYSTEM.CONST>
0

>  <SCORE.SYSTEM.DIHEDRAL>
0

>  <SCORE.SYSTEM.SOLV>
0

>  <SCORE.SYSTEM.norm>
0

>  <SCORE.heavy>
26

>  <SCORE.norm>
-2.15011

>  <RMSD>
0.762

$$$$
ligand
 OpenBabel02271912153D
libRbt.so/2013.1/901 2013/11/27
 26 29  0  0  0  0  0  0  0  0999 V2000
  111.1769  -74.7092  -82.0303 C   0  0  1  0  0  0  0  0  0  0  0  0
  111.3482  -74.3496  -80.7012 N   0  0  0  0  0  0  0  0  0  0  0  0
  111.6918  -75.9824  -82.5123 C   0  0  0  0  0  0  0  0  0  0  0  0
  112.6967  -80.6469  -87.5504 N   0  0  0  0  0  0  0  0  0  0  0  0
  111.9900  -77.5092  -84.3094 O   0  0  0  0  0  0  0  0  0  0  0  0
  111.4422  -76.1955  -83.8693 C   0  0  2  0  0  0  0  0  0  0  0  0
  111.7667  -77.6906  -85.5524 C   0  0  1  0  0  0  0  0  0  0  0  0
  112.3277  -79.0008  -85.8818 C   0  0  0  0  0  0  0  0  0  0  0  0
  112.1739  -79.3742  -87.2640 C   0  0  2  0  0  0  0  0  0  0  0  0
  111.5449  -78.5352  -88.2169 C   0  0  0  0  0  0  0  0  0  0  0  0
  111.0001  -77.2490  -87.8235 C   0  0  0  0  0  0  0  0  0  0  0  0
  111.1300  -76.8606  -86.4405 C   0  0  2  0  0  0  0  0  0  0  0  0
  110.5226  -75.5167  -86.1136 C   0  0  1  0  0  0  0  0  0  0  0  0
  110.7818  -75.3384  -84.7427 C   0  0  2  0  0  0  0  0  0  0  0  0
  110.2648  -74.0649  -84.2368 C   0  0  0  0  0  0  0  0  0  0  0  0
  110.5095  -73.8202  -82.8502 C   0  0  0  0  0  0  0  0  0  0  0  0
  109.8838  -74.7289  -87.0524 C   0  0  0  0  0  0  0  0  0  0  0  0
  108.8498  -75.1576  -87.9170 C   0  0  0  0  0  0  0  0  0  0  0  0
  108.1821  -74.3719  -88.8582 C   0  0  0  0  0  0  0  0  0  0  0  0
  108.5398  -72.9693  -89.0080 C   0  0  0  0  0  0  0  0  0  0  0  0
  109.5841  -72.5751  -88.1374 C   0  0  0  0  0  0  0  0  0  0  0  0
  110.2830  -73.3279  -87.1837 C   0  0  0  0  0  0  0  0  0  0  0  0
  110.8991  -73.0611  -80.1812 C   0  0  0  0  0  0  0  0  0  0  0  0
  111.9728  -75.1720  -79.6432 C   0  0  0  0  0  0  0  0  0  0  0  0
  113.2271  -81.7122  -86.6706 C   0  0  0  0  0  0  0  0  0  0  0  0
  112.7346  -81.0673  -88.9957 C   0  0  0  0  0  0  0  0  0  0  0  0
  1  2  1  1  0  0  0
  1  3  1  0  0  0  0
  1 16  1  0  0  0  0
  2 23  1  0  0  0  0
  2 24  1  0  0  0  0
  4 25  1  0  0  0  0
  4 26  1  0  0  0  0
  5  6  1  0  0  0  0
  6  3  1  6  0  0  0
  6 14  1  0  0  0  0
  7  5  1  1  0  0  0
  7  8  1  0  0  0  0
  7 12  1  0  0  0  0
  8  9  1  0  0  0  0
  9  4  1  1  0  0  0
  9 10  1  0  0  0  0
 10 11  1  0  0  0  0
 12 11  1  6  0  0  0
 12 13  1  0  0  0  0
 13 14  1  0  0  0  0
 13 17  1  6  0  0  0
 14 15  1  6  0  0  0
 15 16  1  0  0  0  0
 17 18  1  0  0  0  0
 17 22  1  0  0  0  0
 18 19  1  0  0  0  0
 19 20  1  0  0  0  0
 20 21  1  0  0  0  0
 21 22  1  0  0  0  0
M  END
>  <CHROM.1>
177.44507201,7.93003373,51.48417210,111.08707456,-76.28012603,-85.43682454
-1.85247081,1.06790710,-2.06415061

>  <Name>
ligand

>  <RI>
0

>  <Rbt.Current_Directory>
/home/itssahil/PROJECTS/Mol_Feturizer/Test_systems_manuscript/rnas/1f1t

>  <Rbt.Executable>
rbdock ($Id: //depot/dev/client3/rdock/2013.1/src/exe/rbdock.cxx#4 $)

>  <Rbt.Library>
libRbt.so (2013.1, Build901 2013/11/27)

>  <Rbt.Parameter_File>
/export/apps/rDock/src/rDock_2013.1_src/data/scripts/dock_solv.prm

>  <Rbt.Receptor>
prm/pocket_docking_4.prm

>  <SCORE>
-55.9634

>  <SCORE.INTER>
-56.4567

>  <SCORE.INTER.CONST>
1

>  <SCORE.INTER.POLAR>
0

>  <SCORE.INTER.ROT>
3

>  <SCORE.INTER.SOLV>
8.94873

>  <SCORE.INTER.VDW>
-46.2207

>  <SCORE.INTER.norm>
-2.17141

>  <SCORE.INTRA>
0.49323

>  <SCORE.INTRA.DIHEDRAL>
0.000265138

>  <SCORE.INTRA.DIHEDRAL.0>
3.60016

>  <SCORE.INTRA.POLAR>
0

>  <SCORE.INTRA.POLAR.0>
0

>  <SCORE.INTRA.REPUL>
0

>  <SCORE.INTRA.REPUL.0>
0

>  <SCORE.INTRA.SOLV>
2.24149e-05

>  <SCORE.INTRA.SOLV.lig_0>
-10.9882

>  <SCORE.INTRA.VDW>
0.493086

>  <SCORE.INTRA.VDW.0>
1.84442

>  <SCORE.INTRA.norm>
0.0189704

>  <SCORE.RESTR>
0

>  <SCORE.RESTR.CAVITY>
0

>  <SCORE.RESTR.norm>
0

>  <SCORE.SYSTEM>
0

>  <SCORE.SYSTEM.CONST>
0

>  <SCORE.SYSTEM.DIHEDRAL>
0

>  <SCORE.SYSTEM.SOLV>
0

>  <SCORE.SYSTEM.norm>
0

>  <SCORE.heavy>
26

>  <SCORE.norm>
-2.15244

>  <RMSD>
0.763

$$$$
ligand
 OpenBabel02271912153D
libRbt.so/2013.1/901 2013/11/27
 26 29  0  0  0  0  0  0  0  0999 V2000
  112.2029  -79.4366  -87.0321 C   0  0  1  0  0  0  0  0  0  0  0  0
  112.7346  -80.6675  -87.3890 N   0  0  0  0  0  0  0  0  0  0  0  0
  112.3282  -78.9587  -85.6630 C   0  0  0  0  0  0  0  0  0  0  0  0
  111.2386  -74.1947  -80.7368 N   0  0  0  0  0  0  0  0  0  0  0  0
  111.8964  -77.2682  -84.0489 O   0  0  0  0  0  0  0  0  0  0  0  0
  111.7406  -77.7080  -85.4638 C   0  0  2  0  0  0  0  0  0  0  0  0
  111.3476  -76.1297  -83.8737 C   0  0  1  0  0  0  0  0  0  0  0  0
  111.5630  -75.7837  -82.4689 C   0  0  0  0  0  0  0  0  0  0  0  0
  110.9963  -74.5174  -82.0830 C   0  0  2  0  0  0  0  0  0  0  0  0
  110.2833  -73.6919  -82.9873 C   0  0  0  0  0  0  0  0  0  0  0  0
  110.1122  -74.0888  -84.3726 C   0  0  0  0  0  0  0  0  0  0  0  0
  110.6843  -75.3470  -84.7849 C   0  0  2  0  0  0  0  0  0  0  0  0
  110.4741  -75.6757  -86.2443 C   0  0  1  0  0  0  0  0  0  0  0  0
  111.0843  -76.9317  -86.4126 C   0  0  2  0  0  0  0  0  0  0  0  0
  110.9749  -77.4270  -87.7866 C   0  0  0  0  0  0  0  0  0  0  0  0
  111.5659  -78.7076  -88.0173 C   0  0  0  0  0  0  0  0  0  0  0  0
  109.8039  -74.8397  -87.1171 C   0  0  0  0  0  0  0  0  0  0  0  0
  108.7240  -75.2169  -87.9490 C   0  0  0  0  0  0  0  0  0  0  0  0
  108.0247  -74.3824  -88.8228 C   0  0  0  0  0  0  0  0  0  0  0  0
  108.3961  -72.9794  -88.9294 C   0  0  0  0  0  0  0  0  0  0  0  0
  109.4860  -72.6370  -88.0935 C   0  0  0  0  0  0  0  0  0  0  0  0
  110.2175  -73.4397  -87.2073 C   0  0  0  0  0  0  0  0  0  0  0  0
  112.8059  -81.1091  -88.7791 C   0  0  0  0  0  0  0  0  0  0  0  0
  113.2969  -81.6800  -86.4701 C   0  0  0  0  0  0  0  0  0  0  0  0
  111.8610  -74.9664  -79.6379 C   0  0  0  0  0  0  0  0  0  0  0  0
  110.8283  -72.8226  -80.2721 C   0  0  0  0  0  0  0  0  0  0  0  0
  1  2  1  6  0  0  0
  1  3  1  0  0  0  0
  1 16  1  0  0  0  0
  2 23  1  0  0  0  0
  2 24  1  0  0  0  0
  4 25  1  0  0  0  0
  4 26  1  0  0  0  0
  5  6  1  0  0  0  0
  6  3  1  1  0  0  0
  6 14  1  0  0  0  0
  7  5  1  6  0  0  0
  7  8  1  0  0  0  0
  7 12  1  0  0  0  0
  8  9  1  0  0  0  0
  9  4  1  6  0  0  0
  9 10  1  0  0  0  0
 10 11  1  0  0  0  0
 12 11  1  1  0  0  0
 12 13  1  0  0  0  0
 13 14  1  0  0  0  0
 13 17  1  1  0  0  0
 14 15  1  1  0  0  0
 15 16  1  0  0  0  0
 17 18  1  0  0  0  0
 17 22  1  0  0  0  0
 18 19  1  0  0  0  0
 19 20  1  0  0  0  0
 20 21  1  0  0  0  0
 21 22  1  0  0  0  0
M  END
>  <CHROM.1>
-171.10180523,-5.99848571,-127.53088833,111.01819675,-76.25876803,-85.39019476
-1.23990187,-1.04877467,1.06420978

>  <Name>
ligand

>  <RI>
0

>  <Rbt.Current_Directory>
/home/itssahil/PROJECTS/Mol_Feturizer/Test_systems_manuscript/rnas/1f1t

>  <Rbt.Executable>
rbdock ($Id: //depot/dev/client3/rdock/2013.1/src/exe/rbdock.cxx#4 $)

>  <Rbt.Library>
libRbt.so (2013.1, Build901 2013/11/27)

>  <Rbt.Parameter_File>
/export/apps/rDock/src/rDock_2013.1_src/data/scripts/dock_solv.prm

>  <Rbt.Receptor>
prm/pocket_docking_6.prm

>  <SCORE>
-55.7277

>  <SCORE.INTER>
-56.2228

>  <SCORE.INTER.CONST>
1

>  <SCORE.INTER.POLAR>
0

>  <SCORE.INTER.ROT>
3

>  <SCORE.INTER.SOLV>
8.92398

>  <SCORE.INTER.VDW>
-46.0565

>  <SCORE.INTER.norm>
-2.16242

>  <SCORE.INTRA>
0.495116

>  <SCORE.INTRA.DIHEDRAL>
-5.37586e-06

>  <SCORE.INTRA.DIHEDRAL.0>
3.60016

>  <SCORE.INTRA.POLAR>
0

>  <SCORE.INTRA.POLAR.0>
0

>  <SCORE.INTRA.REPUL>
0

>  <SCORE.INTRA.REPUL.0>
0

>  <SCORE.INTRA.SOLV>
3.4843e-05

>  <SCORE.INTRA.SOLV.lig_0>
-10.9882

>  <SCORE.INTRA.VDW>
0.495101

>  <SCORE.INTRA.VDW.0>
1.84442

>  <SCORE.INTRA.norm>
0.0190429

>  <SCORE.RESTR>
0

>  <SCORE.RESTR.CAVITY>
0

>  <SCORE.RESTR.norm>
0

>  <SCORE.SYSTEM>
0

>  <SCORE.SYSTEM.CONST>
0

>  <SCORE.SYSTEM.DIHEDRAL>
0

>  <SCORE.SYSTEM.SOLV>
0

>  <SCORE.SYSTEM.norm>
0

>  <SCORE.heavy>
26

>  <SCORE.norm>
-2.14337

>  <RMSD>
0.763

$$$$
ligand
 OpenBabel02271912153D
libRbt.so/2013.1/901 2013/11/27
 26 29  0  0  0  0  0  0  0  0999 V2000
  111.1842  -74.7474  -82.0370 C   0  0  1  0  0  0  0  0  0  0  0  0
  111.3554  -74.3951  -80.7059 N   0  0  0  0  0  0  0  0  0  0  0  0
  111.7083  -76.0132  -82.5284 C   0  0  0  0  0  0  0  0  0  0  0  0
  112.7399  -80.6361  -87.5994 N   0  0  0  0  0  0  0  0  0  0  0  0
  112.0149  -77.5256  -84.3362 O   0  0  0  0  0  0  0  0  0  0  0  0
  111.4576  -76.2192  -83.8864 C   0  0  2  0  0  0  0  0  0  0  0  0
  111.7905  -77.7006  -85.5800 C   0  0  1  0  0  0  0  0  0  0  0  0
  112.3612  -79.0040  -85.9191 C   0  0  0  0  0  0  0  0  0  0  0  0
  112.2075  -79.3695  -87.3035 C   0  0  2  0  0  0  0  0  0  0  0  0
  111.5699  -78.5292  -88.2495 C   0  0  0  0  0  0  0  0  0  0  0  0
  111.0157  -77.2501  -87.8465 C   0  0  0  0  0  0  0  0  0  0  0  0
  111.1453  -76.8699  -86.4612 C   0  0  2  0  0  0  0  0  0  0  0  0
  110.5280  -75.5330  -86.1242 C   0  0  1  0  0  0  0  0  0  0  0  0
  110.7886  -75.3617  -84.7527 C   0  0  2  0  0  0  0  0  0  0  0  0
  110.2625  -74.0958  -84.2373 C   0  0  0  0  0  0  0  0  0  0  0  0
  110.5081  -73.8583  -82.8496 C   0  0  0  0  0  0  0  0  0  0  0  0
  109.8810  -74.7441  -87.0565 C   0  0  0  0  0  0  0  0  0  0  0  0
  108.8639  -75.1808  -87.9370 C   0  0  0  0  0  0  0  0  0  0  0  0
  108.1881  -74.3946  -88.8720 C   0  0  0  0  0  0  0  0  0  0  0  0
  108.5174  -72.9826  -88.9968 C   0  0  0  0  0  0  0  0  0  0  0  0
  109.5455  -72.5803  -88.1107 C   0  0  0  0  0  0  0  0  0  0  0  0
  110.2517  -73.3332  -87.1625 C   0  0  0  0  0  0  0  0  0  0  0  0
  110.8801  -73.1217  -80.1721 C   0  0  0  0  0  0  0  0  0  0  0  0
  112.0052  -75.2120  -79.6588 C   0  0  0  0  0  0  0  0  0  0  0  0
  113.2739  -81.7059  -86.7272 C   0  0  0  0  0  0  0  0  0  0  0  0
  112.7862  -81.0431  -89.0483 C   0  0  0  0  0  0  0  0  0  0  0  0
  1  2  1  1  0  0  0
  1  3  1  0  0  0  0
  1 16  1  0  0  0  0
  2 23  1  0  0  0  0
  2 24  1  0  0  0  0
  4 25  1  0  0  0  0
  4 26  1  0  0  0  0
  5  6  1  0  0  0  0
  6  3  1  6  0  0  0
  6 14  1  0  0  0  0
  7  5  1  1  0  0  0
  7  8  1  0  0  0  0
  7 12  1  0  0  0  0
  8  9  1  0  0  0  0
  9  4  1  1  0  0  0
  9 10  1  0  0  0  0
 10 11  1  0  0  0  0
 12 11  1  6  0  0  0
 12 13  1  0  0  0  0
 13 14  1  0  0  0  0
 13 17  1  6  0  0  0
 14 15  1  6  0  0  0
 15 16  1  0  0  0  0
 17 18  1  0  0  0  0
 17 22  1  0  0  0  0
 18 19  1  0  0  0  0
 19 20  1  0  0  0  0
 20 21  1  0  0  0  0
 21 22  1  0  0  0  0
M  END
>  <CHROM.1>
178.33920634,8.30889737,50.38012545,111.09977265,-76.29635586,-85.45355847
-1.85669698,1.05958514,-2.05394579

>  <Name>
ligand

>  <RI>
0

>  <Rbt.Current_Directory>
/home/itssahil/PROJECTS/Mol_Feturizer/Test_systems_manuscript/rnas/1f1t

>  <Rbt.Executable>
rbdock ($Id: //depot/dev/client3/rdock/2013.1/src/exe/rbdock.cxx#4 $)

>  <Rbt.Library>
libRbt.so (2013.1, Build901 2013/11/27)

>  <Rbt.Parameter_File>
/export/apps/rDock/src/rDock_2013.1_src/data/scripts/dock_solv.prm

>  <Rbt.Receptor>
prm/pocket_docking_7.prm

>  <SCORE>
-55.9436

>  <SCORE.INTER>
-56.467

>  <SCORE.INTER.CONST>
1

>  <SCORE.INTER.POLAR>
0

>  <SCORE.INTER.ROT>
3

>  <SCORE.INTER.SOLV>
8.98754

>  <SCORE.INTER.VDW>
-46.2405

>  <SCORE.INTER.norm>
-2.17181

>  <SCORE.INTRA>
0.523342

>  <SCORE.INTRA.DIHEDRAL>
0.000258548

>  <SCORE.INTRA.DIHEDRAL.0>
3.60016

>  <SCORE.INTRA.POLAR>
0

>  <SCORE.INTRA.POLAR.0>
0

>  <SCORE.INTRA.REPUL>
0

>  <SCORE.INTRA.REPUL.0>
0

>  <SCORE.INTRA.SOLV>
2.21536e-05

>  <SCORE.INTRA.SOLV.lig_0>
-10.9882

>  <SCORE.INTRA.VDW>
0.523201

>  <SCORE.INTRA.VDW.0>
1.84442

>  <SCORE.INTRA.norm>
0.0201285

>  <SCORE.RESTR>
0

>  <SCORE.RESTR.CAVITY>
0

>  <SCORE.RESTR.norm>
0

>  <SCORE.SYSTEM>
0

>  <SCORE.SYSTEM.CONST>
0

>  <SCORE.SYSTEM.DIHEDRAL>
0

>  <SCORE.SYSTEM.SOLV>
0

>  <SCORE.SYSTEM.norm>
0

>  <SCORE.heavy>
26

>  <SCORE.norm>
-2.15168

>  <RMSD>
0.763

$$$$
ligand
 OpenBabel02271912153D
libRbt.so/2013.1/901 2013/11/27
 26 29  0  0  0  0  0  0  0  0999 V2000
  112.2262  -79.4354  -87.0523 C   0  0  1  0  0  0  0  0  0  0  0  0
  112.7627  -80.6651  -87.4062 N   0  0  0  0  0  0  0  0  0  0  0  0
  112.3507  -78.9530  -85.6848 C   0  0  0  0  0  0  0  0  0  0  0  0
  111.2454  -74.1792  -80.7715 N   0  0  0  0  0  0  0  0  0  0  0  0
  111.9132  -77.2595  -84.0753 O   0  0  0  0  0  0  0  0  0  0  0  0
  111.7580  -77.7041  -85.4887 C   0  0  2  0  0  0  0  0  0  0  0  0
  111.3598  -76.1229  -83.9029 C   0  0  1  0  0  0  0  0  0  0  0  0
  111.5750  -75.7718  -82.4993 C   0  0  0  0  0  0  0  0  0  0  0  0
  111.0033  -74.5068  -82.1166 C   0  0  2  0  0  0  0  0  0  0  0  0
  110.2862  -73.6869  -83.0227 C   0  0  0  0  0  0  0  0  0  0  0  0
  110.1155  -74.0886  -84.4066 C   0  0  0  0  0  0  0  0  0  0  0  0
  110.6925  -75.3456  -84.8158 C   0  0  2  0  0  0  0  0  0  0  0  0
  110.4824  -75.6795  -86.2741 C   0  0  1  0  0  0  0  0  0  0  0  0
  111.0977  -76.9334  -86.4392 C   0  0  2  0  0  0  0  0  0  0  0  0
  110.9892  -77.4331  -87.8116 C   0  0  0  0  0  0  0  0  0  0  0  0
  111.5853  -78.7119  -88.0392 C   0  0  0  0  0  0  0  0  0  0  0  0
  109.8079  -74.8488  -87.1487 C   0  0  0  0  0  0  0  0  0  0  0  0
  108.7040  -75.2229  -87.9498 C   0  0  0  0  0  0  0  0  0  0  0  0
  108.0004  -74.3933  -88.8248 C   0  0  0  0  0  0  0  0  0  0  0  0
  108.3935  -72.9994  -88.9670 C   0  0  0  0  0  0  0  0  0  0  0  0
  109.5070  -72.6602  -88.1614 C   0  0  0  0  0  0  0  0  0  0  0  0
  110.2436  -73.4582  -87.2752 C   0  0  0  0  0  0  0  0  0  0  0  0
  113.2872  -81.5984  -86.4131 C   0  0  0  0  0  0  0  0  0  0  0  0
  112.8780  -81.2107  -88.7754 C   0  0  0  0  0  0  0  0  0  0  0  0
  110.9397  -72.9628  -79.9859 C   0  0  0  0  0  0  0  0  0  0  0  0
  111.9203  -75.2207  -79.9191 C   0  0  0  0  0  0  0  0  0  0  0  0
  1  2  1  6  0  0  0
  1  3  1  0  0  0  0
  1 16  1  0  0  0  0
  2 23  1  0  0  0  0
  2 24  1  0  0  0  0
  4 25  1  0  0  0  0
  4 26  1  0  0  0  0
  5  6  1  0  0  0  0
  6  3  1  1  0  0  0
  6 14  1  0  0  0  0
  7  5  1  6  0  0  0
  7  8  1  0  0  0  0
  7 12  1  0  0  0  0
  8  9  1  0  0  0  0
  9  4  1  6  0  0  0
  9 10  1  0  0  0  0
 10 11  1  0  0  0  0
 12 11  1  1  0  0  0
 12 13  1  0  0  0  0
 13 14  1  0  0  0  0
 13 17  1  1  0  0  0
 14 15  1  1  0  0  0
 15 16  1  0  0  0  0
 17 18  1  0  0  0  0
 17 22  1  0  0  0  0
 18 19  1  0  0  0  0
 19 20  1  0  0  0  0
 20 21  1  0  0  0  0
 21 22  1  0  0  0  0
M  END
>  <CHROM.1>
9.11666466,175.03764603,-125.57386002,111.03710170,-76.27838618,-85.41133061
-1.24410948,-1.04589066,1.06666290

>  <Name>
ligand

>  <RI>
0

>  <Rbt.Current_Directory>
/home/itssahil/PROJECTS/Mol_Feturizer/Test_systems_manuscript/rnas/1f1t

>  <Rbt.Executable>
rbdock ($Id: //depot/dev/client3/rdock/2013.1/src/exe/rbdock.cxx#4 $)

>  <Rbt.Library>
libRbt.so (2013.1, Build901 2013/11/27)

>  <Rbt.Parameter_File>
/export/apps/rDock/src/rDock_2013.1_src/data/scripts/dock_solv.prm

>  <Rbt.Receptor>
prm/pocket_docking_5.prm

>  <SCORE>
-53.6357

>  <SCORE.INTER>
-56.1229

>  <SCORE.INTER.CONST>
1

>  <SCORE.INTER.POLAR>
0

>  <SCORE.INTER.ROT>
3

>  <SCORE.INTER.SOLV>
8.99764

>  <SCORE.INTER.VDW>
-46.0145

>  <SCORE.INTER.norm>
-2.15857

>  <SCORE.INTRA>
2.48726

>  <SCORE.INTRA.DIHEDRAL>
-0.000597602

>  <SCORE.INTRA.DIHEDRAL.0>
3.60016

>  <SCORE.INTRA.POLAR>
0

>  <SCORE.INTRA.POLAR.0>
0

>  <SCORE.INTRA.REPUL>
0

>  <SCORE.INTRA.REPUL.0>
0

>  <SCORE.INTRA.SOLV>
-0.000949343

>  <SCORE.INTRA.SOLV.lig_0>
-10.9882

>  <SCORE.INTRA.VDW>
2.48803

>  <SCORE.INTRA.VDW.0>
1.84442

>  <SCORE.INTRA.norm>
0.0956637

>  <SCORE.RESTR>
0

>  <SCORE.RESTR.CAVITY>
0

>  <SCORE.RESTR.norm>
0

>  <SCORE.SYSTEM>
0

>  <SCORE.SYSTEM.CONST>
0

>  <SCORE.SYSTEM.DIHEDRAL>
0

>  <SCORE.SYSTEM.SOLV>
0

>  <SCORE.SYSTEM.norm>
0

>  <SCORE.heavy>
26

>  <SCORE.norm>
-2.06291

>  <RMSD>
0.764

$$$$
ligand
 OpenBabel02271912153D
libRbt.so/2013.1/901 2013/11/27
 26 29  0  0  0  0  0  0  0  0999 V2000
  111.1828  -74.7002  -82.0375 C   0  0  1  0  0  0  0  0  0  0  0  0
  111.3569  -74.3385  -80.7093 N   0  0  0  0  0  0  0  0  0  0  0  0
  111.6969  -75.9740  -82.5187 C   0  0  0  0  0  0  0  0  0  0  0  0
  112.6917  -80.6458  -87.5521 N   0  0  0  0  0  0  0  0  0  0  0  0
  111.9915  -77.5034  -84.3143 O   0  0  0  0  0  0  0  0  0  0  0  0
  111.4444  -76.1891  -83.8750 C   0  0  2  0  0  0  0  0  0  0  0  0
  111.7655  -77.6867  -85.5565 C   0  0  1  0  0  0  0  0  0  0  0  0
  112.3261  -78.9972  -85.8852 C   0  0  0  0  0  0  0  0  0  0  0  0
  112.1693  -79.3727  -87.2665 C   0  0  2  0  0  0  0  0  0  0  0  0
  111.5381  -78.5352  -88.2192 C   0  0  0  0  0  0  0  0  0  0  0  0
  110.9939  -77.2486  -87.8266 C   0  0  0  0  0  0  0  0  0  0  0  0
  111.1267  -76.8581  -86.4445 C   0  0  2  0  0  0  0  0  0  0  0  0
  110.5198  -75.5138  -86.1182 C   0  0  1  0  0  0  0  0  0  0  0  0
  110.7820  -75.3334  -84.7482 C   0  0  2  0  0  0  0  0  0  0  0  0
  110.2658  -74.0593  -84.2430 C   0  0  0  0  0  0  0  0  0  0  0  0
  110.5135  -73.8125  -82.8573 C   0  0  0  0  0  0  0  0  0  0  0  0
  109.8789  -74.7275  -87.0568 C   0  0  0  0  0  0  0  0  0  0  0  0
  108.8459  -75.1588  -87.9214 C   0  0  0  0  0  0  0  0  0  0  0  0
  108.1760  -74.3747  -88.8623 C   0  0  0  0  0  0  0  0  0  0  0  0
  108.5300  -72.9711  -89.0120 C   0  0  0  0  0  0  0  0  0  0  0  0
  109.5734  -72.5743  -88.1414 C   0  0  0  0  0  0  0  0  0  0  0  0
  110.2744  -73.3255  -87.1879 C   0  0  0  0  0  0  0  0  0  0  0  0
  111.9887  -75.2278  -79.7386 C   0  0  0  0  0  0  0  0  0  0  0  0
  110.9610  -73.0556  -80.0903 C   0  0  0  0  0  0  0  0  0  0  0  0
  113.2763  -81.6870  -86.6778 C   0  0  0  0  0  0  0  0  0  0  0  0
  112.6639  -81.0959  -88.9887 C   0  0  0  0  0  0  0  0  0  0  0  0
  1  2  1  1  0  0  0
  1  3  1  0  0  0  0
  1 16  1  0  0  0  0
  2 23  1  0  0  0  0
  2 24  1  0  0  0  0
  4 25  1  0  0  0  0
  4 26  1  0  0  0  0
  5  6  1  0  0  0  0
  6  3  1  6  0  0  0
  6 14  1  0  0  0  0
  7  5  1  1  0  0  0
  7  8  1  0  0  0  0
  7 12  1  0  0  0  0
  8  9  1  0  0  0  0
  9  4  1  1  0  0  0
  9 10  1  0  0  0  0
 10 11  1  0  0  0  0
 12 11  1  6  0  0  0
 12 13  1  0  0  0  0
 13 14  1  0  0  0  0
 13 17  1  6  0  0  0
 14 15  1  6  0  0  0
 15 16  1  0  0  0  0
 17 18  1  0  0  0  0
 17 22  1  0  0  0  0
 18 19  1  0  0  0  0
 19 20  1  0  0  0  0
 20 21  1  0  0  0  0
 21 22  1  0  0  0  0
M  END
>  <CHROM.1>
-3.14340834,4.97644893,51.27757260,111.08796463,-76.27974954,-85.44083752
-1.84383437,1.06618088,-2.07165924

>  <Name>
ligand

>  <RI>
0

>  <Rbt.Current_Directory>
/home/itssahil/PROJECTS/Mol_Feturizer/Test_systems_manuscript/rnas/1f1t

>  <Rbt.Executable>
rbdock ($Id: //depot/dev/client3/rdock/2013.1/src/exe/rbdock.cxx#4 $)

>  <Rbt.Library>
libRbt.so (2013.1, Build901 2013/11/27)

>  <Rbt.Parameter_File>
/export/apps/rDock/src/rDock_2013.1_src/data/scripts/dock_solv.prm

>  <Rbt.Receptor>
prm/pocket_docking_5.prm

>  <SCORE>
-56.2984

>  <SCORE.INTER>
-56.5214

>  <SCORE.INTER.CONST>
1

>  <SCORE.INTER.POLAR>
0

>  <SCORE.INTER.ROT>
3

>  <SCORE.INTER.SOLV>
9.00688

>  <SCORE.INTER.VDW>
-46.2832

>  <SCORE.INTER.norm>
-2.1739

>  <SCORE.INTRA>
0.222985

>  <SCORE.INTRA.DIHEDRAL>
0.000265965

>  <SCORE.INTRA.DIHEDRAL.0>
3.60016

>  <SCORE.INTRA.POLAR>
0

>  <SCORE.INTRA.POLAR.0>
0

>  <SCORE.INTRA.REPUL>
0

>  <SCORE.INTRA.REPUL.0>
0

>  <SCORE.INTRA.SOLV>
1.34462e-05

>  <SCORE.INTRA.SOLV.lig_0>
-10.9882

>  <SCORE.INTRA.VDW>
0.222845

>  <SCORE.INTRA.VDW.0>
1.84442

>  <SCORE.INTRA.norm>
0.00857633

>  <SCORE.RESTR>
0

>  <SCORE.RESTR.CAVITY>
0

>  <SCORE.RESTR.norm>
0

>  <SCORE.SYSTEM>
0

>  <SCORE.SYSTEM.CONST>
0

>  <SCORE.SYSTEM.DIHEDRAL>
0

>  <SCORE.SYSTEM.SOLV>
0

>  <SCORE.SYSTEM.norm>
0

>  <SCORE.heavy>
26

>  <SCORE.norm>
-2.16532

>  <RMSD>
0.764

$$$$
ligand
 OpenBabel02271912153D
libRbt.so/2013.1/901 2013/11/27
 26 29  0  0  0  0  0  0  0  0999 V2000
  111.1528  -74.6810  -82.0515 C   0  0  1  0  0  0  0  0  0  0  0  0
  111.3323  -74.3122  -80.7260 N   0  0  0  0  0  0  0  0  0  0  0  0
  111.6820  -75.9487  -82.5326 C   0  0  0  0  0  0  0  0  0  0  0  0
  112.7057  -80.6227  -87.5581 N   0  0  0  0  0  0  0  0  0  0  0  0
  111.9848  -77.4798  -84.3253 O   0  0  0  0  0  0  0  0  0  0  0  0
  111.4218  -76.1723  -83.8860 C   0  0  2  0  0  0  0  0  0  0  0  0
  111.7516  -77.6708  -85.5650 C   0  0  1  0  0  0  0  0  0  0  0  0
  112.3290  -78.9740  -85.8938 C   0  0  0  0  0  0  0  0  0  0  0  0
  112.1666  -79.3566  -87.2725 C   0  0  2  0  0  0  0  0  0  0  0  0
  111.5154  -78.5319  -88.2229 C   0  0  0  0  0  0  0  0  0  0  0  0
  110.9552  -77.2521  -87.8302 C   0  0  0  0  0  0  0  0  0  0  0  0
  111.0934  -76.8549  -86.4505 C   0  0  2  0  0  0  0  0  0  0  0  0
  110.4691  -75.5186  -86.1239 C   0  0  1  0  0  0  0  0  0  0  0  0
  110.7396  -75.3296  -84.7567 C   0  0  2  0  0  0  0  0  0  0  0  0
  110.2086  -74.0616  -84.2516 C   0  0  0  0  0  0  0  0  0  0  0  0
  110.4638  -73.8063  -82.8688 C   0  0  0  0  0  0  0  0  0  0  0  0
  109.8089  -74.7453  -87.0599 C   0  0  0  0  0  0  0  0  0  0  0  0
  108.7784  -75.1959  -87.9174 C   0  0  0  0  0  0  0  0  0  0  0  0
  108.0893  -74.4253  -88.8555 C   0  0  0  0  0  0  0  0  0  0  0  0
  108.4180  -73.0160  -89.0097 C   0  0  0  0  0  0  0  0  0  0  0  0
  109.4596  -72.5996  -88.1463 C   0  0  0  0  0  0  0  0  0  0  0  0
  110.1793  -73.3368  -87.1958 C   0  0  0  0  0  0  0  0  0  0  0  0
  111.9820  -75.1900  -79.7567 C   0  0  0  0  0  0  0  0  0  0  0  0
  110.9253  -73.0318  -80.1088 C   0  0  0  0  0  0  0  0  0  0  0  0
  113.2331  -81.6879  -86.6764 C   0  0  0  0  0  0  0  0  0  0  0  0
  112.7689  -81.0346  -89.0050 C   0  0  0  0  0  0  0  0  0  0  0  0
  1  2  1  1  0  0  0
  1  3  1  0  0  0  0
  1 16  1  0  0  0  0
  2 23  1  0  0  0  0
  2 24  1  0  0  0  0
  4 25  1  0  0  0  0
  4 26  1  0  0  0  0
  5  6  1  0  0  0  0
  6  3  1  6  0  0  0
  6 14  1  0  0  0  0
  7  5  1  1  0  0  0
  7  8  1  0  0  0  0
  7 12  1  0  0  0  0
  8  9  1  0  0  0  0
  9  4  1  1  0  0  0
  9 10  1  0  0  0  0
 10 11  1  0  0  0  0
 12 11  1  6  0  0  0
 12 13  1  0  0  0  0
 13 14  1  0  0  0  0
 13 17  1  6  0  0  0
 14 15  1  6  0  0  0
 15 16  1  0  0  0  0
 17 18  1  0  0  0  0
 17 22  1  0  0  0  0
 18 19  1  0  0  0  0
 19 20  1  0  0  0  0
 20 21  1  0  0  0  0
 21 22  1  0  0  0  0
M  END
>  <CHROM.1>
-3.30678362,9.52095711,51.07488305,111.05479125,-76.27333810,-85.44871007
-1.84649030,1.05011086,-2.07251410

>  <Name>
ligand

>  <RI>
0

>  <Rbt.Current_Directory>
/home/itssahil/PROJECTS/Mol_Feturizer/Test_systems_manuscript/rnas/1f1t

>  <Rbt.Executable>
rbdock ($Id: //depot/dev/client3/rdock/2013.1/src/exe/rbdock.cxx#4 $)

>  <Rbt.Library>
libRbt.so (2013.1, Build901 2013/11/27)

>  <Rbt.Parameter_File>
/export/apps/rDock/src/rDock_2013.1_src/data/scripts/dock_solv.prm

>  <Rbt.Receptor>
prm/pocket_docking_3.prm

>  <SCORE>
-56.2563

>  <SCORE.INTER>
-56.4288

>  <SCORE.INTER.CONST>
1

>  <SCORE.INTER.POLAR>
0

>  <SCORE.INTER.ROT>
3

>  <SCORE.INTER.SOLV>
8.9398

>  <SCORE.INTER.VDW>
-46.1992

>  <SCORE.INTER.norm>
-2.17034

>  <SCORE.INTRA>
0.172561

>  <SCORE.INTRA.DIHEDRAL>
0.000239306

>  <SCORE.INTRA.DIHEDRAL.0>
3.60016

>  <SCORE.INTRA.POLAR>
0

>  <SCORE.INTRA.POLAR.0>
0

>  <SCORE.INTRA.REPUL>
0

>  <SCORE.INTRA.REPUL.0>
0

>  <SCORE.INTRA.SOLV>
3.23615e-05

>  <SCORE.INTRA.SOLV.lig_0>
-10.9882

>  <SCORE.INTRA.VDW>
0.172426

>  <SCORE.INTRA.VDW.0>
1.84442

>  <SCORE.INTRA.norm>
0.00663698

>  <SCORE.RESTR>
0

>  <SCORE.RESTR.CAVITY>
0

>  <SCORE.RESTR.norm>
0

>  <SCORE.SYSTEM>
0

>  <SCORE.SYSTEM.CONST>
0

>  <SCORE.SYSTEM.DIHEDRAL>
0

>  <SCORE.SYSTEM.SOLV>
0

>  <SCORE.SYSTEM.norm>
0

>  <SCORE.heavy>
26

>  <SCORE.norm>
-2.1637

>  <RMSD>
0.765

$$$$
ligand
 OpenBabel02271912153D
libRbt.so/2013.1/901 2013/11/27
 26 29  0  0  0  0  0  0  0  0999 V2000
  111.2409  -74.6848  -81.9694 C   0  0  1  0  0  0  0  0  0  0  0  0
  111.4108  -74.3454  -80.6348 N   0  0  0  0  0  0  0  0  0  0  0  0
  111.7409  -75.9581  -82.4663 C   0  0  0  0  0  0  0  0  0  0  0  0
  112.7065  -80.5674  -87.5626 N   0  0  0  0  0  0  0  0  0  0  0  0
  112.0270  -77.4644  -84.2826 O   0  0  0  0  0  0  0  0  0  0  0  0
  111.4948  -76.1495  -83.8272 C   0  0  2  0  0  0  0  0  0  0  0  0
  111.8071  -77.6260  -85.5290 C   0  0  1  0  0  0  0  0  0  0  0  0
  112.3519  -78.9391  -85.8735 C   0  0  0  0  0  0  0  0  0  0  0  0
  112.1996  -79.2917  -87.2613 C   0  0  2  0  0  0  0  0  0  0  0  0
  111.5865  -78.4314  -88.2056 C   0  0  0  0  0  0  0  0  0  0  0  0
  111.0571  -77.1435  -87.7972 C   0  0  0  0  0  0  0  0  0  0  0  0
  111.1858  -76.7756  -86.4086 C   0  0  2  0  0  0  0  0  0  0  0  0
  110.5950  -75.4281  -86.0662 C   0  0  1  0  0  0  0  0  0  0  0  0
  110.8502  -75.2718  -84.6919 C   0  0  2  0  0  0  0  0  0  0  0  0
  110.3480  -73.9985  -84.1711 C   0  0  0  0  0  0  0  0  0  0  0  0
  110.5895  -73.7758  -82.7802 C   0  0  0  0  0  0  0  0  0  0  0  0
  109.9713  -74.6191  -86.9972 C   0  0  0  0  0  0  0  0  0  0  0  0
  110.2703  -73.2569  -87.2324 C   0  0  0  0  0  0  0  0  0  0  0  0
  109.6632  -72.4303  -88.1795 C   0  0  0  0  0  0  0  0  0  0  0  0
  108.6169  -72.9666  -89.0372 C   0  0  0  0  0  0  0  0  0  0  0  0
  108.3339  -74.3275  -88.7692 C   0  0  0  0  0  0  0  0  0  0  0  0
  108.9132  -75.1912  -87.8293 C   0  0  0  0  0  0  0  0  0  0  0  0
  112.0180  -75.2601  -79.6721 C   0  0  0  0  0  0  0  0  0  0  0  0
  111.0337  -73.0643  -80.0005 C   0  0  0  0  0  0  0  0  0  0  0  0
  113.2535  -81.6369  -86.6981 C   0  0  0  0  0  0  0  0  0  0  0  0
  112.7033  -80.9866  -89.0087 C   0  0  0  0  0  0  0  0  0  0  0  0
  1  2  1  1  0  0  0
  1  3  1  0  0  0  0
  1 16  1  0  0  0  0
  2 23  1  0  0  0  0
  2 24  1  0  0  0  0
  4 25  1  0  0  0  0
  4 26  1  0  0  0  0
  5  6  1  0  0  0  0
  6  3  1  6  0  0  0
  6 14  1  0  0  0  0
  7  5  1  1  0  0  0
  7  8  1  0  0  0  0
  7 12  1  0  0  0  0
  8  9  1  0  0  0  0
  9  4  1  1  0  0  0
  9 10  1  0  0  0  0
 10 11  1  0  0  0  0
 12 11  1  6  0  0  0
 12 13  1  0  0  0  0
 13 14  1  0  0  0  0
 13 17  1  6  0  0  0
 14 15  1  6  0  0  0
 15 16  1  0  0  0  0
 17 18  1  0  0  0  0
 17 22  1  0  0  0  0
 18 19  1  0  0  0  0
 19 20  1  0  0  0  0
 20 21  1  0  0  0  0
 21 22  1  0  0  0  0
M  END
>  <CHROM.1>
-3.43663625,5.95704843,-128.20221035,111.14176507,-76.22804282,-85.40657659
-1.82546890,1.07765575,-2.05938541

>  <Name>
ligand

>  <RI>
0

>  <Rbt.Current_Directory>
/home/itssahil/PROJECTS/Mol_Feturizer/Test_systems_manuscript/rnas/1f1t

>  <Rbt.Executable>
rbdock ($Id: //depot/dev/client3/rdock/2013.1/src/exe/rbdock.cxx#4 $)

>  <Rbt.Library>
libRbt.so (2013.1, Build901 2013/11/27)

>  <Rbt.Parameter_File>
/export/apps/rDock/src/rDock_2013.1_src/data/scripts/dock_solv.prm

>  <Rbt.Receptor>
prm/pocket_docking_7.prm

>  <SCORE>
-56.3501

>  <SCORE.INTER>
-56.642

>  <SCORE.INTER.CONST>
1

>  <SCORE.INTER.POLAR>
0

>  <SCORE.INTER.ROT>
3

>  <SCORE.INTER.SOLV>
9.14778

>  <SCORE.INTER.VDW>
-46.4106

>  <SCORE.INTER.norm>
-2.17854

>  <SCORE.INTRA>
0.29187

>  <SCORE.INTRA.DIHEDRAL>
-1.43845e-05

>  <SCORE.INTRA.DIHEDRAL.0>
3.60016

>  <SCORE.INTRA.POLAR>
0

>  <SCORE.INTRA.POLAR.0>
0

>  <SCORE.INTRA.REPUL>
0

>  <SCORE.INTRA.REPUL.0>
0

>  <SCORE.INTRA.SOLV>
1.76065e-05

>  <SCORE.INTRA.SOLV.lig_0>
-10.9882

>  <SCORE.INTRA.VDW>
0.291868

>  <SCORE.INTRA.VDW.0>
1.84442

>  <SCORE.INTRA.norm>
0.0112258

>  <SCORE.RESTR>
0

>  <SCORE.RESTR.CAVITY>
0

>  <SCORE.RESTR.norm>
0

>  <SCORE.SYSTEM>
0

>  <SCORE.SYSTEM.CONST>
0

>  <SCORE.SYSTEM.DIHEDRAL>
0

>  <SCORE.SYSTEM.SOLV>
0

>  <SCORE.SYSTEM.norm>
0

>  <SCORE.heavy>
26

>  <SCORE.norm>
-2.16731

>  <RMSD>
0.765

$$$$
ligand
 OpenBabel02271912153D
libRbt.so/2013.1/901 2013/11/27
 26 29  0  0  0  0  0  0  0  0999 V2000
  111.1619  -74.6828  -82.0478 C   0  0  1  0  0  0  0  0  0  0  0  0
  111.3353  -74.3161  -80.7209 N   0  0  0  0  0  0  0  0  0  0  0  0
  111.6852  -75.9538  -82.5263 C   0  0  0  0  0  0  0  0  0  0  0  0
  112.7088  -80.6315  -87.5485 N   0  0  0  0  0  0  0  0  0  0  0  0
  111.9890  -77.4858  -84.3181 O   0  0  0  0  0  0  0  0  0  0  0  0
  111.4322  -76.1747  -83.8815 C   0  0  2  0  0  0  0  0  0  0  0  0
  111.7625  -77.6743  -85.5595 C   0  0  1  0  0  0  0  0  0  0  0  0
  112.3328  -78.9813  -85.8855 C   0  0  0  0  0  0  0  0  0  0  0  0
  112.1768  -79.3618  -87.2655 C   0  0  2  0  0  0  0  0  0  0  0  0
  111.5374  -78.5320  -88.2195 C   0  0  0  0  0  0  0  0  0  0  0  0
  110.9837  -77.2486  -87.8294 C   0  0  0  0  0  0  0  0  0  0  0  0
  111.1157  -76.8533  -86.4486 C   0  0  2  0  0  0  0  0  0  0  0  0
  110.4987  -75.5129  -86.1251 C   0  0  1  0  0  0  0  0  0  0  0  0
  110.7616  -75.3267  -84.7560 C   0  0  2  0  0  0  0  0  0  0  0  0
  110.2362  -74.0553  -84.2535 C   0  0  0  0  0  0  0  0  0  0  0  0
  110.4842  -73.8027  -82.8689 C   0  0  0  0  0  0  0  0  0  0  0  0
  109.8500  -74.7344  -87.0648 C   0  0  0  0  0  0  0  0  0  0  0  0
  108.7960  -75.1669  -87.9029 C   0  0  0  0  0  0  0  0  0  0  0  0
  108.1183  -74.3902  -88.8443 C   0  0  0  0  0  0  0  0  0  0  0  0
  108.4865  -72.9938  -89.0239 C   0  0  0  0  0  0  0  0  0  0  0  0
  109.5506  -72.5957  -88.1795 C   0  0  0  0  0  0  0  0  0  0  0  0
  110.2600  -73.3397  -87.2266 C   0  0  0  0  0  0  0  0  0  0  0  0
  111.9759  -75.1976  -79.7488 C   0  0  0  0  0  0  0  0  0  0  0  0
  110.9301  -73.0348  -80.1047 C   0  0  0  0  0  0  0  0  0  0  0  0
  113.2609  -81.6845  -86.6672 C   0  0  0  0  0  0  0  0  0  0  0  0
  112.7329  -81.0629  -88.9908 C   0  0  0  0  0  0  0  0  0  0  0  0
  1  2  1  1  0  0  0
  1  3  1  0  0  0  0
  1 16  1  0  0  0  0
  2 23  1  0  0  0  0
  2 24  1  0  0  0  0
  4 25  1  0  0  0  0
  4 26  1  0  0  0  0
  5  6  1  0  0  0  0
  6  3  1  6  0  0  0
  6 14  1  0  0  0  0
  7  5  1  1  0  0  0
  7  8  1  0  0  0  0
  7 12  1  0  0  0  0
  8  9  1  0  0  0  0
  9  4  1  1  0  0  0
  9 10  1  0  0  0  0
 10 11  1  0  0  0  0
 12 11  1  6  0  0  0
 12 13  1  0  0  0  0
 13 14  1  0  0  0  0
 13 17  1  6  0  0  0
 14 15  1  6  0  0  0
 15 16  1  0  0  0  0
 17 18  1  0  0  0  0
 17 22  1  0  0  0  0
 18 19  1  0  0  0  0
 19 20  1  0  0  0  0
 20 21  1  0  0  0  0
 21 22  1  0  0  0  0
M  END
>  <CHROM.1>
-3.13473760,7.37944036,52.98339332,111.07462342,-76.27230017,-85.44681758
-1.85010481,1.05901781,-2.06852732

>  <Name>
ligand

>  <RI>
0

>  <Rbt.Current_Directory>
/home/itssahil/PROJECTS/Mol_Feturizer/Test_systems_manuscript/rnas/1f1t

>  <Rbt.Executable>
rbdock ($Id: //depot/dev/client3/rdock/2013.1/src/exe/rbdock.cxx#4 $)

>  <Rbt.Library>
libRbt.so (2013.1, Build901 2013/11/27)

>  <Rbt.Parameter_File>
/export/apps/rDock/src/rDock_2013.1_src/data/scripts/dock_solv.prm

>  <Rbt.Receptor>
prm/pocket_docking_4.prm

>  <SCORE>
-56.2338

>  <SCORE.INTER>
-56.3884

>  <SCORE.INTER.CONST>
1

>  <SCORE.INTER.POLAR>
0

>  <SCORE.INTER.ROT>
3

>  <SCORE.INTER.SOLV>
8.98776

>  <SCORE.INTER.VDW>
-46.1882

>  <SCORE.INTER.norm>
-2.16879

>  <SCORE.INTRA>
0.154633

>  <SCORE.INTRA.DIHEDRAL>
0.000259964

>  <SCORE.INTRA.DIHEDRAL.0>
3.60016

>  <SCORE.INTRA.POLAR>
0

>  <SCORE.INTRA.POLAR.0>
0

>  <SCORE.INTRA.REPUL>
0

>  <SCORE.INTRA.REPUL.0>
0

>  <SCORE.INTRA.SOLV>
2.20142e-05

>  <SCORE.INTRA.SOLV.lig_0>
-10.9882

>  <SCORE.INTRA.VDW>
0.154492

>  <SCORE.INTRA.VDW.0>
1.84442

>  <SCORE.INTRA.norm>
0.00594743

>  <SCORE.RESTR>
0

>  <SCORE.RESTR.CAVITY>
0

>  <SCORE.RESTR.norm>
0

>  <SCORE.SYSTEM>
0

>  <SCORE.SYSTEM.CONST>
0

>  <SCORE.SYSTEM.DIHEDRAL>
0

>  <SCORE.SYSTEM.SOLV>
0

>  <SCORE.SYSTEM.norm>
0

>  <SCORE.heavy>
26

>  <SCORE.norm>
-2.16284

>  <RMSD>
0.766

$$$$
ligand
 OpenBabel02271912153D
libRbt.so/2013.1/901 2013/11/27
 26 29  0  0  0  0  0  0  0  0999 V2000
  111.1521  -74.7016  -82.0501 C   0  0  1  0  0  0  0  0  0  0  0  0
  111.3259  -74.3377  -80.7225 N   0  0  0  0  0  0  0  0  0  0  0  0
  111.6744  -75.9720  -82.5313 C   0  0  0  0  0  0  0  0  0  0  0  0
  112.6938  -80.6404  -87.5630 N   0  0  0  0  0  0  0  0  0  0  0  0
  111.9768  -77.5006  -84.3262 O   0  0  0  0  0  0  0  0  0  0  0  0
  111.4211  -76.1899  -83.8869 C   0  0  2  0  0  0  0  0  0  0  0  0
  111.7501  -77.6865  -85.5679 C   0  0  1  0  0  0  0  0  0  0  0  0
  112.3193  -78.9932  -85.8966 C   0  0  0  0  0  0  0  0  0  0  0  0
  112.1629  -79.3709  -87.2773 C   0  0  2  0  0  0  0  0  0  0  0  0
  111.5242  -78.5385  -88.2296 C   0  0  0  0  0  0  0  0  0  0  0  0
  110.9715  -77.2555  -87.8370 C   0  0  0  0  0  0  0  0  0  0  0  0
  111.1039  -76.8631  -86.4554 C   0  0  2  0  0  0  0  0  0  0  0  0
  110.4880  -75.5228  -86.1291 C   0  0  1  0  0  0  0  0  0  0  0  0
  110.7512  -75.3396  -84.7596 C   0  0  2  0  0  0  0  0  0  0  0  0
  110.2269  -74.0688  -84.2545 C   0  0  0  0  0  0  0  0  0  0  0  0
  110.4752  -73.8192  -82.8694 C   0  0  0  0  0  0  0  0  0  0  0  0
  109.8399  -74.7418  -87.0672 C   0  0  0  0  0  0  0  0  0  0  0  0
  108.7835  -75.1710  -87.9040 C   0  0  0  0  0  0  0  0  0  0  0  0
  108.1064  -74.3918  -88.8438 C   0  0  0  0  0  0  0  0  0  0  0  0
  108.4779  -72.9962  -89.0228 C   0  0  0  0  0  0  0  0  0  0  0  0
  109.5444  -72.6015  -88.1797 C   0  0  0  0  0  0  0  0  0  0  0  0
  110.2533  -73.3481  -87.2285 C   0  0  0  0  0  0  0  0  0  0  0  0
  111.9686  -75.2204  -79.7530 C   0  0  0  0  0  0  0  0  0  0  0  0
  110.9191  -73.0584  -80.1030 C   0  0  0  0  0  0  0  0  0  0  0  0
  113.2392  -81.6982  -86.6832 C   0  0  0  0  0  0  0  0  0  0  0  0
  112.7246  -81.0658  -89.0070 C   0  0  0  0  0  0  0  0  0  0  0  0
  1  2  1  1  0  0  0
  1  3  1  0  0  0  0
  1 16  1  0  0  0  0
  2 23  1  0  0  0  0
  2 24  1  0  0  0  0
  4 25  1  0  0  0  0
  4 26  1  0  0  0  0
  5  6  1  0  0  0  0
  6  3  1  6  0  0  0
  6 14  1  0  0  0  0
  7  5  1  1  0  0  0
  7  8  1  0  0  0  0
  7 12  1  0  0  0  0
  8  9  1  0  0  0  0
  9  4  1  1  0  0  0
  9 10  1  0  0  0  0
 10 11  1  0  0  0  0
 12 11  1  6  0  0  0
 12 13  1  0  0  0  0
 13 14  1  0  0  0  0
 13 17  1  6  0  0  0
 14 15  1  6  0  0  0
 15 16  1  0  0  0  0
 17 18  1  0  0  0  0
 17 22  1  0  0  0  0
 18 19  1  0  0  0  0
 19 20  1  0  0  0  0
 20 21  1  0  0  0  0
 21 22  1  0  0  0  0
M  END
>  <CHROM.1>
-2.99013604,7.71446275,53.13120023,111.06344926,-76.28404942,-85.45240303
-1.84940990,1.05974283,-2.06707094

>  <Name>
ligand

>  <RI>
0

>  <Rbt.Current_Directory>
/home/itssahil/PROJECTS/Mol_Feturizer/Test_systems_manuscript/rnas/1f1t

>  <Rbt.Executable>
rbdock ($Id: //depot/dev/client3/rdock/2013.1/src/exe/rbdock.cxx#4 $)

>  <Rbt.Library>
libRbt.so (2013.1, Build901 2013/11/27)

>  <Rbt.Parameter_File>
/export/apps/rDock/src/rDock_2013.1_src/data/scripts/dock_solv.prm

>  <Rbt.Receptor>
prm/pocket_docking_6.prm

>  <SCORE>
-56.2664

>  <SCORE.INTER>
-56.4142

>  <SCORE.INTER.CONST>
1

>  <SCORE.INTER.POLAR>
0

>  <SCORE.INTER.ROT>
3

>  <SCORE.INTER.SOLV>
8.95146

>  <SCORE.INTER.VDW>
-46.1933

>  <SCORE.INTER.norm>
-2.16978

>  <SCORE.INTRA>
0.147838

>  <SCORE.INTRA.DIHEDRAL>
0.000258407

>  <SCORE.INTRA.DIHEDRAL.0>
3.60016

>  <SCORE.INTRA.POLAR>
0

>  <SCORE.INTRA.POLAR.0>
0

>  <SCORE.INTRA.REPUL>
0

>  <SCORE.INTRA.REPUL.0>
0

>  <SCORE.INTRA.SOLV>
2.29706e-05

>  <SCORE.INTRA.SOLV.lig_0>
-10.9882

>  <SCORE.INTRA.VDW>
0.147697

>  <SCORE.INTRA.VDW.0>
1.84442

>  <SCORE.INTRA.norm>
0.00568607

>  <SCORE.RESTR>
0

>  <SCORE.RESTR.CAVITY>
0

>  <SCORE.RESTR.norm>
0

>  <SCORE.SYSTEM>
0

>  <SCORE.SYSTEM.CONST>
0

>  <SCORE.SYSTEM.DIHEDRAL>
0

>  <SCORE.SYSTEM.SOLV>
0

>  <SCORE.SYSTEM.norm>
0

>  <SCORE.heavy>
26

>  <SCORE.norm>
-2.16409

>  <RMSD>
0.766

$$$$
ligand
 OpenBabel02271912153D
libRbt.so/2013.1/901 2013/11/27
 26 29  0  0  0  0  0  0  0  0999 V2000
  111.1680  -74.6980  -82.0466 C   0  0  1  0  0  0  0  0  0  0  0  0
  111.3461  -74.3338  -80.7197 N   0  0  0  0  0  0  0  0  0  0  0  0
  111.6863  -75.9698  -82.5285 C   0  0  0  0  0  0  0  0  0  0  0  0
  112.6823  -80.6429  -87.5605 N   0  0  0  0  0  0  0  0  0  0  0  0
  111.9807  -77.4999  -84.3234 O   0  0  0  0  0  0  0  0  0  0  0  0
  111.4290  -76.1878  -83.8834 C   0  0  2  0  0  0  0  0  0  0  0  0
  111.7502  -77.6859  -85.5645 C   0  0  1  0  0  0  0  0  0  0  0  0
  112.3158  -78.9941  -85.8940 C   0  0  0  0  0  0  0  0  0  0  0  0
  112.1549  -79.3721  -87.2741 C   0  0  2  0  0  0  0  0  0  0  0  0
  111.5154  -78.5389  -88.2251 C   0  0  0  0  0  0  0  0  0  0  0  0
  110.9665  -77.2545  -87.8317 C   0  0  0  0  0  0  0  0  0  0  0  0
  111.1034  -76.8617  -86.4506 C   0  0  2  0  0  0  0  0  0  0  0  0
  110.4913  -75.5199  -86.1234 C   0  0  1  0  0  0  0  0  0  0  0  0
  110.7585  -75.3366  -84.7548 C   0  0  2  0  0  0  0  0  0  0  0  0
  110.2383  -74.0644  -84.2489 C   0  0  0  0  0  0  0  0  0  0  0  0
  110.4907  -73.8146  -82.8646 C   0  0  0  0  0  0  0  0  0  0  0  0
  109.8424  -74.7380  -87.0602 C   0  0  0  0  0  0  0  0  0  0  0  0
  108.7882  -75.1676  -87.8996 C   0  0  0  0  0  0  0  0  0  0  0  0
  108.1102  -74.3876  -88.8381 C   0  0  0  0  0  0  0  0  0  0  0  0
  108.4783  -72.9905  -89.0128 C   0  0  0  0  0  0  0  0  0  0  0  0
  109.5427  -72.5954  -88.1672 C   0  0  0  0  0  0  0  0  0  0  0  0
  110.2523  -73.3428  -87.2171 C   0  0  0  0  0  0  0  0  0  0  0  0
  110.9040  -73.0416  -80.2029 C   0  0  0  0  0  0  0  0  0  0  0  0
  111.9719  -75.1544  -79.6611 C   0  0  0  0  0  0  0  0  0  0  0  0
  113.2461  -81.6934  -86.6836 C   0  0  0  0  0  0  0  0  0  0  0  0
  112.6863  -81.0789  -89.0016 C   0  0  0  0  0  0  0  0  0  0  0  0
  1  2  1  1  0  0  0
  1  3  1  0  0  0  0
  1 16  1  0  0  0  0
  2 23  1  0  0  0  0
  2 24  1  0  0  0  0
  4 25  1  0  0  0  0
  4 26  1  0  0  0  0
  5  6  1  0  0  0  0
  6  3  1  6  0  0  0
  6 14  1  0  0  0  0
  7  5  1  1  0  0  0
  7  8  1  0  0  0  0
  7 12  1  0  0  0  0
  8  9  1  0  0  0  0
  9  4  1  1  0  0  0
  9 10  1  0  0  0  0
 10 11  1  0  0  0  0
 12 11  1  6  0  0  0
 12 13  1  0  0  0  0
 13 14  1  0  0  0  0
 13 17  1  6  0  0  0
 14 15  1  6  0  0  0
 15 16  1  0  0  0  0
 17 18  1  0  0  0  0
 17 22  1  0  0  0  0
 18 19  1  0  0  0  0
 19 20  1  0  0  0  0
 20 21  1  0  0  0  0
 21 22  1  0  0  0  0
M  END
>  <CHROM.1>
176.91131319,6.67352501,52.73107324,111.06407453,-76.27870824,-85.44836512
-1.84504116,1.06031463,-2.07328501

>  <Name>
ligand

>  <RI>
0

>  <Rbt.Current_Directory>
/home/itssahil/PROJECTS/Mol_Feturizer/Test_systems_manuscript/rnas/1f1t

>  <Rbt.Executable>
rbdock ($Id: //depot/dev/client3/rdock/2013.1/src/exe/rbdock.cxx#4 $)

>  <Rbt.Library>
libRbt.so (2013.1, Build901 2013/11/27)

>  <Rbt.Parameter_File>
/export/apps/rDock/src/rDock_2013.1_src/data/scripts/dock_solv.prm

>  <Rbt.Receptor>
prm/pocket_docking_2.prm

>  <SCORE>
-55.9518

>  <SCORE.INTER>
-56.4247

>  <SCORE.INTER.CONST>
1

>  <SCORE.INTER.POLAR>
0

>  <SCORE.INTER.ROT>
3

>  <SCORE.INTER.SOLV>
8.92594

>  <SCORE.INTER.VDW>
-46.1918

>  <SCORE.INTER.norm>
-2.17018

>  <SCORE.INTRA>
0.472963

>  <SCORE.INTRA.DIHEDRAL>
0.000276542

>  <SCORE.INTRA.DIHEDRAL.0>
3.60016

>  <SCORE.INTRA.POLAR>
0

>  <SCORE.INTRA.POLAR.0>
0

>  <SCORE.INTRA.REPUL>
0

>  <SCORE.INTRA.REPUL.0>
0

>  <SCORE.INTRA.SOLV>
1.88037e-05

>  <SCORE.INTRA.SOLV.lig_0>
-10.9882

>  <SCORE.INTRA.VDW>
0.472815

>  <SCORE.INTRA.VDW.0>
1.84442

>  <SCORE.INTRA.norm>
0.0181909

>  <SCORE.RESTR>
0

>  <SCORE.RESTR.CAVITY>
0

>  <SCORE.RESTR.norm>
0

>  <SCORE.SYSTEM>
0

>  <SCORE.SYSTEM.CONST>
0

>  <SCORE.SYSTEM.DIHEDRAL>
0

>  <SCORE.SYSTEM.SOLV>
0

>  <SCORE.SYSTEM.norm>
0

>  <SCORE.heavy>
26

>  <SCORE.norm>
-2.15199

>  <RMSD>
0.767

$$$$
ligand
 OpenBabel02271912153D
libRbt.so/2013.1/901 2013/11/27
 26 29  0  0  0  0  0  0  0  0999 V2000
  112.2239  -79.4354  -87.0460 C   0  0  1  0  0  0  0  0  0  0  0  0
  112.7596  -80.6659  -87.3984 N   0  0  0  0  0  0  0  0  0  0  0  0
  112.3491  -78.9513  -85.6791 C   0  0  0  0  0  0  0  0  0  0  0  0
  111.2482  -74.1705  -80.7717 N   0  0  0  0  0  0  0  0  0  0  0  0
  111.9131  -77.2555  -84.0716 O   0  0  0  0  0  0  0  0  0  0  0  0
  111.7573  -77.7018  -85.4845 C   0  0  2  0  0  0  0  0  0  0  0  0
  111.3605  -76.1183  -83.9006 C   0  0  1  0  0  0  0  0  0  0  0  0
  111.5763  -75.7656  -82.4975 C   0  0  0  0  0  0  0  0  0  0  0  0
  111.0055  -74.4997  -82.1163 C   0  0  2  0  0  0  0  0  0  0  0  0
  110.2887  -73.6805  -83.0232 C   0  0  0  0  0  0  0  0  0  0  0  0
  110.1174  -74.0839  -84.4066 C   0  0  0  0  0  0  0  0  0  0  0  0
  110.6934  -75.3418  -84.8143 C   0  0  2  0  0  0  0  0  0  0  0  0
  110.4828  -75.6774  -86.2721 C   0  0  1  0  0  0  0  0  0  0  0  0
  111.0972  -76.9319  -86.4358 C   0  0  2  0  0  0  0  0  0  0  0  0
  110.9880  -77.4333  -87.8075 C   0  0  0  0  0  0  0  0  0  0  0  0
  111.5833  -78.7128  -88.0336 C   0  0  0  0  0  0  0  0  0  0  0  0
  109.8086  -74.8474  -87.1476 C   0  0  0  0  0  0  0  0  0  0  0  0
  108.7384  -75.2353  -87.9870 C   0  0  0  0  0  0  0  0  0  0  0  0
  108.0352  -74.4072  -88.8638 C   0  0  0  0  0  0  0  0  0  0  0  0
  108.3912  -72.9999  -88.9655 C   0  0  0  0  0  0  0  0  0  0  0  0
  109.4720  -72.6467  -88.1221 C   0  0  0  0  0  0  0  0  0  0  0  0
  110.2069  -73.4426  -87.2327 C   0  0  0  0  0  0  0  0  0  0  0  0
  113.2586  -81.6098  -86.4022 C   0  0  0  0  0  0  0  0  0  0  0  0
  112.8983  -81.2022  -88.7691 C   0  0  0  0  0  0  0  0  0  0  0  0
  110.9579  -72.9468  -79.9917 C   0  0  0  0  0  0  0  0  0  0  0  0
  111.9049  -75.2186  -79.9131 C   0  0  0  0  0  0  0  0  0  0  0  0
  1  2  1  6  0  0  0
  1  3  1  0  0  0  0
  1 16  1  0  0  0  0
  2 23  1  0  0  0  0
  2 24  1  0  0  0  0
  4 25  1  0  0  0  0
  4 26  1  0  0  0  0
  5  6  1  0  0  0  0
  6  3  1  1  0  0  0
  6 14  1  0  0  0  0
  7  5  1  6  0  0  0
  7  8  1  0  0  0  0
  7 12  1  0  0  0  0
  8  9  1  0  0  0  0
  9  4  1  6  0  0  0
  9 10  1  0  0  0  0
 10 11  1  0  0  0  0
 12 11  1  1  0  0  0
 12 13  1  0  0  0  0
 13 14  1  0  0  0  0
 13 17  1  1  0  0  0
 14 15  1  1  0  0  0
 15 16  1  0  0  0  0
 17 18  1  0  0  0  0
 17 22  1  0  0  0  0
 18 19  1  0  0  0  0
 19 20  1  0  0  0  0
 20 21  1  0  0  0  0
 21 22  1  0  0  0  0
M  END
>  <CHROM.1>
10.40216868,174.19524857,-128.23958578,111.03674812,-76.27562933,-85.40842141
-1.24507350,-1.04679532,1.06446636

>  <Name>
ligand

>  <RI>
0

>  <Rbt.Current_Directory>
/home/itssahil/PROJECTS/Mol_Feturizer/Test_systems_manuscript/rnas/1f1t

>  <Rbt.Executable>
rbdock ($Id: //depot/dev/client3/rdock/2013.1/src/exe/rbdock.cxx#4 $)

>  <Rbt.Library>
libRbt.so (2013.1, Build901 2013/11/27)

>  <Rbt.Parameter_File>
/export/apps/rDock/src/rDock_2013.1_src/data/scripts/dock_solv.prm

>  <Rbt.Receptor>
prm/pocket_docking_2.prm

>  <SCORE>
-53.606

>  <SCORE.INTER>
-56.1322

>  <SCORE.INTER.CONST>
1

>  <SCORE.INTER.POLAR>
0

>  <SCORE.INTER.ROT>
3

>  <SCORE.INTER.SOLV>
8.97471

>  <SCORE.INTER.VDW>
-46.013

>  <SCORE.INTER.norm>
-2.15893

>  <SCORE.INTRA>
2.5261

>  <SCORE.INTRA.DIHEDRAL>
-0.000585646

>  <SCORE.INTRA.DIHEDRAL.0>
3.60016

>  <SCORE.INTRA.POLAR>
0

>  <SCORE.INTRA.POLAR.0>
0

>  <SCORE.INTRA.REPUL>
0

>  <SCORE.INTRA.REPUL.0>
0

>  <SCORE.INTRA.SOLV>
-0.000934808

>  <SCORE.INTRA.SOLV.lig_0>
-10.9882

>  <SCORE.INTRA.VDW>
2.52686

>  <SCORE.INTRA.VDW.0>
1.84442

>  <SCORE.INTRA.norm>
0.0971578

>  <SCORE.RESTR>
0

>  <SCORE.RESTR.CAVITY>
0

>  <SCORE.RESTR.norm>
0

>  <SCORE.SYSTEM>
0

>  <SCORE.SYSTEM.CONST>
0

>  <SCORE.SYSTEM.DIHEDRAL>
0

>  <SCORE.SYSTEM.SOLV>
0

>  <SCORE.SYSTEM.norm>
0

>  <SCORE.heavy>
26

>  <SCORE.norm>
-2.06177

>  <RMSD>
0.769

$$$$
ligand
 OpenBabel02271912153D
libRbt.so/2013.1/901 2013/11/27
 26 29  0  0  0  0  0  0  0  0999 V2000
  111.1583  -74.7025  -82.0452 C   0  0  1  0  0  0  0  0  0  0  0  0
  111.3363  -74.3405  -80.7176 N   0  0  0  0  0  0  0  0  0  0  0  0
  111.6811  -75.9712  -82.5304 C   0  0  0  0  0  0  0  0  0  0  0  0
  112.6902  -80.6294  -87.5735 N   0  0  0  0  0  0  0  0  0  0  0  0
  111.9796  -77.4963  -84.3289 O   0  0  0  0  0  0  0  0  0  0  0  0
  111.4232  -76.1873  -83.8854 C   0  0  2  0  0  0  0  0  0  0  0  0
  111.7486  -77.6805  -85.5701 C   0  0  1  0  0  0  0  0  0  0  0  0
  112.3189  -78.9857  -85.9030 C   0  0  0  0  0  0  0  0  0  0  0  0
  112.1581  -79.3613  -87.2838 C   0  0  2  0  0  0  0  0  0  0  0  0
  111.5144  -78.5285  -88.2324 C   0  0  0  0  0  0  0  0  0  0  0  0
  110.9609  -77.2471  -87.8355 C   0  0  0  0  0  0  0  0  0  0  0  0
  111.0977  -76.8568  -86.4538 C   0  0  2  0  0  0  0  0  0  0  0  0
  110.4807  -75.5182  -86.1230 C   0  0  1  0  0  0  0  0  0  0  0  0
  110.7485  -75.3368  -84.7543 C   0  0  2  0  0  0  0  0  0  0  0  0
  110.2238  -74.0677  -84.2451 C   0  0  0  0  0  0  0  0  0  0  0  0
  110.4768  -73.8200  -82.8605 C   0  0  0  0  0  0  0  0  0  0  0  0
  109.8277  -74.7368  -87.0574 C   0  0  0  0  0  0  0  0  0  0  0  0
  108.7934  -75.1761  -87.9162 C   0  0  0  0  0  0  0  0  0  0  0  0
  108.1115  -74.3971  -88.8528 C   0  0  0  0  0  0  0  0  0  0  0  0
  108.4529  -72.9906  -89.0036 C   0  0  0  0  0  0  0  0  0  0  0  0
  109.4980  -72.5856  -88.1389 C   0  0  0  0  0  0  0  0  0  0  0  0
  110.2108  -73.3314  -87.1900 C   0  0  0  0  0  0  0  0  0  0  0  0
  110.8846  -73.0535  -80.1962 C   0  0  0  0  0  0  0  0  0  0  0  0
  111.9714  -75.1588  -79.6627 C   0  0  0  0  0  0  0  0  0  0  0  0
  113.2365  -81.6895  -86.6971 C   0  0  0  0  0  0  0  0  0  0  0  0
  112.7215  -81.0501  -89.0189 C   0  0  0  0  0  0  0  0  0  0  0  0
  1  2  1  1  0  0  0
  1  3  1  0  0  0  0
  1 16  1  0  0  0  0
  2 23  1  0  0  0  0
  2 24  1  0  0  0  0
  4 25  1  0  0  0  0
  4 26  1  0  0  0  0
  5  6  1  0  0  0  0
  6  3  1  6  0  0  0
  6 14  1  0  0  0  0
  7  5  1  1  0  0  0
  7  8  1  0  0  0  0
  7 12  1  0  0  0  0
  8  9  1  0  0  0  0
  9  4  1  1  0  0  0
  9 10  1  0  0  0  0
 10 11  1  0  0  0  0
 12 11  1  6  0  0  0
 12 13  1  0  0  0  0
 13 14  1  0  0  0  0
 13 17  1  6  0  0  0
 14 15  1  6  0  0  0
 15 16  1  0  0  0  0
 17 18  1  0  0  0  0
 17 22  1  0  0  0  0
 18 19  1  0  0  0  0
 19 20  1  0  0  0  0
 20 21  1  0  0  0  0
 21 22  1  0  0  0  0
M  END
>  <CHROM.1>
177.17885979,7.95230817,51.32367922,111.05708369,-76.27609328,-85.45011552
-1.84770728,1.05645331,-2.06888217

>  <Name>
ligand

>  <RI>
0

>  <Rbt.Current_Directory>
/home/itssahil/PROJECTS/Mol_Feturizer/Test_systems_manuscript/rnas/1f1t

>  <Rbt.Executable>
rbdock ($Id: //depot/dev/client3/rdock/2013.1/src/exe/rbdock.cxx#4 $)

>  <Rbt.Library>
libRbt.so (2013.1, Build901 2013/11/27)

>  <Rbt.Parameter_File>
/export/apps/rDock/src/rDock_2013.1_src/data/scripts/dock_solv.prm

>  <Rbt.Receptor>
prm/pocket_docking_3.prm

>  <SCORE>
-55.9509

>  <SCORE.INTER>
-56.4464

>  <SCORE.INTER.CONST>
1

>  <SCORE.INTER.POLAR>
0

>  <SCORE.INTER.ROT>
3

>  <SCORE.INTER.SOLV>
8.92232

>  <SCORE.INTER.VDW>
-46.2051

>  <SCORE.INTER.norm>
-2.17102

>  <SCORE.INTRA>
0.495506

>  <SCORE.INTRA.DIHEDRAL>
0.0002644

>  <SCORE.INTRA.DIHEDRAL.0>
3.60016

>  <SCORE.INTRA.POLAR>
0

>  <SCORE.INTRA.POLAR.0>
0

>  <SCORE.INTRA.REPUL>
0

>  <SCORE.INTRA.REPUL.0>
0

>  <SCORE.INTRA.SOLV>
2.32296e-05

>  <SCORE.INTRA.SOLV.lig_0>
-10.9882

>  <SCORE.INTRA.VDW>
0.495362

>  <SCORE.INTRA.VDW.0>
1.84442

>  <SCORE.INTRA.norm>
0.0190579

>  <SCORE.RESTR>
0

>  <SCORE.RESTR.CAVITY>
0

>  <SCORE.RESTR.norm>
0

>  <SCORE.SYSTEM>
0

>  <SCORE.SYSTEM.CONST>
0

>  <SCORE.SYSTEM.DIHEDRAL>
0

>  <SCORE.SYSTEM.SOLV>
0

>  <SCORE.SYSTEM.norm>
0

>  <SCORE.heavy>
26

>  <SCORE.norm>
-2.15196

>  <RMSD>
0.769

$$$$
ligand
 OpenBabel02271912153D
libRbt.so/2013.1/901 2013/11/27
 26 29  0  0  0  0  0  0  0  0999 V2000
  111.2362  -74.6809  -81.9759 C   0  0  1  0  0  0  0  0  0  0  0  0
  111.4092  -74.3395  -80.6422 N   0  0  0  0  0  0  0  0  0  0  0  0
  111.7333  -75.9558  -82.4715 C   0  0  0  0  0  0  0  0  0  0  0  0
  112.6824  -80.5753  -87.5618 N   0  0  0  0  0  0  0  0  0  0  0  0
  112.0137  -77.4657  -84.2858 O   0  0  0  0  0  0  0  0  0  0  0  0
  111.4843  -76.1492  -83.8317 C   0  0  2  0  0  0  0  0  0  0  0  0
  111.7911  -77.6291  -85.5315 C   0  0  1  0  0  0  0  0  0  0  0  0
  112.3334  -78.9436  -85.8748 C   0  0  0  0  0  0  0  0  0  0  0  0
  112.1778  -79.2984  -87.2617 C   0  0  2  0  0  0  0  0  0  0  0  0
  111.5641  -78.4389  -88.2062 C   0  0  0  0  0  0  0  0  0  0  0  0
  111.0374  -77.1495  -87.7991 C   0  0  0  0  0  0  0  0  0  0  0  0
  111.1693  -76.7793  -86.4113 C   0  0  2  0  0  0  0  0  0  0  0  0
  110.5811  -75.4304  -86.0701 C   0  0  1  0  0  0  0  0  0  0  0  0
  110.8392  -75.2721  -84.6966 C   0  0  2  0  0  0  0  0  0  0  0  0
  110.3398  -73.9971  -84.1770 C   0  0  0  0  0  0  0  0  0  0  0  0
  110.5844  -73.7724  -82.7870 C   0  0  0  0  0  0  0  0  0  0  0  0
  109.9567  -74.6222  -87.0012 C   0  0  0  0  0  0  0  0  0  0  0  0
  110.2632  -73.2632  -87.2456 C   0  0  0  0  0  0  0  0  0  0  0  0
  109.6554  -72.4375  -88.1931 C   0  0  0  0  0  0  0  0  0  0  0  0
  108.6000  -72.9713  -89.0410 C   0  0  0  0  0  0  0  0  0  0  0  0
  108.3098  -74.3288  -88.7640 C   0  0  0  0  0  0  0  0  0  0  0  0
  108.8894  -75.1915  -87.8235 C   0  0  0  0  0  0  0  0  0  0  0  0
  111.0148  -73.0353  -80.1169 C   0  0  0  0  0  0  0  0  0  0  0  0
  111.9828  -75.1980  -79.5841 C   0  0  0  0  0  0  0  0  0  0  0  0
  113.2458  -81.6372  -86.6985 C   0  0  0  0  0  0  0  0  0  0  0  0
  112.6562  -81.0054  -89.0045 C   0  0  0  0  0  0  0  0  0  0  0  0
  1  2  1  1  0  0  0
  1  3  1  0  0  0  0
  1 16  1  0  0  0  0
  2 23  1  0  0  0  0
  2 24  1  0  0  0  0
  4 25  1  0  0  0  0
  4 26  1  0  0  0  0
  5  6  1  0  0  0  0
  6  3  1  6  0  0  0
  6 14  1  0  0  0  0
  7  5  1  1  0  0  0
  7  8  1  0  0  0  0
  7 12  1  0  0  0  0
  8  9  1  0  0  0  0
  9  4  1  1  0  0  0
  9 10  1  0  0  0  0
 10 11  1  0  0  0  0
 12 11  1  6  0  0  0
 12 13  1  0  0  0  0
 13 14  1  0  0  0  0
 13 17  1  6  0  0  0
 14 15  1  6  0  0  0
 15 16  1  0  0  0  0
 17 18  1  0  0  0  0
 17 22  1  0  0  0  0
 18 19  1  0  0  0  0
 19 20  1  0  0  0  0
 20 21  1  0  0  0  0
 21 22  1  0  0  0  0
M  END
>  <CHROM.1>
175.54820006,5.03865442,-127.75622288,111.12534945,-76.22657979,-85.41066466
-1.82301586,1.07826890,-2.06521607

>  <Name>
ligand

>  <RI>
0

>  <Rbt.Current_Directory>
/home/itssahil/PROJECTS/Mol_Feturizer/Test_systems_manuscript/rnas/1f1t

>  <Rbt.Executable>
rbdock ($Id: //depot/dev/client3/rdock/2013.1/src/exe/rbdock.cxx#4 $)

>  <Rbt.Library>
libRbt.so (2013.1, Build901 2013/11/27)

>  <Rbt.Parameter_File>
/export/apps/rDock/src/rDock_2013.1_src/data/scripts/dock_solv.prm

>  <Rbt.Receptor>
prm/pocket_docking_7.prm

>  <SCORE>
-56.1271

>  <SCORE.INTER>
-56.7056

>  <SCORE.INTER.CONST>
1

>  <SCORE.INTER.POLAR>
0

>  <SCORE.INTER.ROT>
3

>  <SCORE.INTER.SOLV>
9.09082

>  <SCORE.INTER.VDW>
-46.434

>  <SCORE.INTER.norm>
-2.18098

>  <SCORE.INTRA>
0.578456

>  <SCORE.INTRA.DIHEDRAL>
1.41304e-06

>  <SCORE.INTRA.DIHEDRAL.0>
3.60016

>  <SCORE.INTRA.POLAR>
0

>  <SCORE.INTRA.POLAR.0>
0

>  <SCORE.INTRA.REPUL>
0

>  <SCORE.INTRA.REPUL.0>
0

>  <SCORE.INTRA.SOLV>
1.82018e-05

>  <SCORE.INTRA.SOLV.lig_0>
-10.9882

>  <SCORE.INTRA.VDW>
0.578446

>  <SCORE.INTRA.VDW.0>
1.84442

>  <SCORE.INTRA.norm>
0.0222483

>  <SCORE.RESTR>
0

>  <SCORE.RESTR.CAVITY>
0

>  <SCORE.RESTR.norm>
0

>  <SCORE.SYSTEM>
0

>  <SCORE.SYSTEM.CONST>
0

>  <SCORE.SYSTEM.DIHEDRAL>
0

>  <SCORE.SYSTEM.SOLV>
0

>  <SCORE.SYSTEM.norm>
0

>  <SCORE.heavy>
26

>  <SCORE.norm>
-2.15874

>  <RMSD>
0.769

$$$$
ligand
 OpenBabel02271912153D
libRbt.so/2013.1/901 2013/11/27
 26 29  0  0  0  0  0  0  0  0999 V2000
  112.2322  -79.4345  -87.0435 C   0  0  1  0  0  0  0  0  0  0  0  0
  112.7679  -80.6651  -87.3954 N   0  0  0  0  0  0  0  0  0  0  0  0
  112.3502  -78.9534  -85.6749 C   0  0  0  0  0  0  0  0  0  0  0  0
  111.2286  -74.1811  -80.7639 N   0  0  0  0  0  0  0  0  0  0  0  0
  111.9077  -77.2603  -84.0664 O   0  0  0  0  0  0  0  0  0  0  0  0
  111.7594  -77.7033  -85.4811 C   0  0  2  0  0  0  0  0  0  0  0  0
  111.3560  -76.1225  -83.8962 C   0  0  1  0  0  0  0  0  0  0  0  0
  111.5641  -75.7731  -82.4911 C   0  0  0  0  0  0  0  0  0  0  0  0
  110.9933  -74.5071  -82.1106 C   0  0  2  0  0  0  0  0  0  0  0  0
  110.2831  -73.6848  -83.0200 C   0  0  0  0  0  0  0  0  0  0  0  0
  110.1192  -74.0849  -84.4052 C   0  0  0  0  0  0  0  0  0  0  0  0
  110.6955  -75.3429  -84.8122 C   0  0  2  0  0  0  0  0  0  0  0  0
  110.4928  -75.6751  -86.2718 C   0  0  1  0  0  0  0  0  0  0  0  0
  111.1062  -76.9303  -86.4346 C   0  0  2  0  0  0  0  0  0  0  0  0
  111.0041  -77.4287  -87.8080 C   0  0  0  0  0  0  0  0  0  0  0  0
  111.5986  -78.7086  -88.0333 C   0  0  0  0  0  0  0  0  0  0  0  0
  109.8252  -74.8421  -87.1495 C   0  0  0  0  0  0  0  0  0  0  0  0
  108.7631  -75.2278  -88.0003 C   0  0  0  0  0  0  0  0  0  0  0  0
  108.0664  -74.3969  -88.8795 C   0  0  0  0  0  0  0  0  0  0  0  0
  108.4211  -72.9885  -88.9715 C   0  0  0  0  0  0  0  0  0  0  0  0
  109.4936  -72.6375  -88.1168 C   0  0  0  0  0  0  0  0  0  0  0  0
  110.2219  -73.4363  -87.2245 C   0  0  0  0  0  0  0  0  0  0  0  0
  113.2978  -81.5943  -86.4014 C   0  0  0  0  0  0  0  0  0  0  0  0
  112.8768  -81.2157  -88.7631 C   0  0  0  0  0  0  0  0  0  0  0  0
  110.9256  -72.9628  -79.9802 C   0  0  0  0  0  0  0  0  0  0  0  0
  111.8911  -75.2271  -79.9071 C   0  0  0  0  0  0  0  0  0  0  0  0
  1  2  1  6  0  0  0
  1  3  1  0  0  0  0
  1 16  1  0  0  0  0
  2 23  1  0  0  0  0
  2 24  1  0  0  0  0
  4 25  1  0  0  0  0
  4 26  1  0  0  0  0
  5  6  1  0  0  0  0
  6  3  1  1  0  0  0
  6 14  1  0  0  0  0
  7  5  1  6  0  0  0
  7  8  1  0  0  0  0
  7 12  1  0  0  0  0
  8  9  1  0  0  0  0
  9  4  1  6  0  0  0
  9 10  1  0  0  0  0
 10 11  1  0  0  0  0
 12 11  1  1  0  0  0
 12 13  1  0  0  0  0
 13 14  1  0  0  0  0
 13 17  1  1  0  0  0
 14 15  1  1  0  0  0
 15 16  1  0  0  0  0
 17 18  1  0  0  0  0
 17 22  1  0  0  0  0
 18 19  1  0  0  0  0
 19 20  1  0  0  0  0
 20 21  1  0  0  0  0
 21 22  1  0  0  0  0
M  END
>  <CHROM.1>
8.44011946,174.78899947,-128.53742579,111.04089165,-76.27605651,-85.40621336
-1.23734890,-1.05029566,1.07315936

>  <Name>
ligand

>  <RI>
0

>  <Rbt.Current_Directory>
/home/itssahil/PROJECTS/Mol_Feturizer/Test_systems_manuscript/rnas/1f1t

>  <Rbt.Executable>
rbdock ($Id: //depot/dev/client3/rdock/2013.1/src/exe/rbdock.cxx#4 $)

>  <Rbt.Library>
libRbt.so (2013.1, Build901 2013/11/27)

>  <Rbt.Parameter_File>
/export/apps/rDock/src/rDock_2013.1_src/data/scripts/dock_solv.prm

>  <Rbt.Receptor>
prm/pocket_docking_8.prm

>  <SCORE>
-53.6139

>  <SCORE.INTER>
-56.2031

>  <SCORE.INTER.CONST>
1

>  <SCORE.INTER.POLAR>
0

>  <SCORE.INTER.ROT>
3

>  <SCORE.INTER.SOLV>
9.01671

>  <SCORE.INTER.VDW>
-46.0743

>  <SCORE.INTER.norm>
-2.16166

>  <SCORE.INTRA>
2.58919

>  <SCORE.INTRA.DIHEDRAL>
-0.00058763

>  <SCORE.INTRA.DIHEDRAL.0>
3.60016

>  <SCORE.INTRA.POLAR>
0

>  <SCORE.INTRA.POLAR.0>
0

>  <SCORE.INTRA.REPUL>
0

>  <SCORE.INTRA.REPUL.0>
0

>  <SCORE.INTRA.SOLV>
-0.000953515

>  <SCORE.INTRA.SOLV.lig_0>
-10.9882

>  <SCORE.INTRA.VDW>
2.58996

>  <SCORE.INTRA.VDW.0>
1.84442

>  <SCORE.INTRA.norm>
0.0995844

>  <SCORE.RESTR>
0

>  <SCORE.RESTR.CAVITY>
0

>  <SCORE.RESTR.norm>
0

>  <SCORE.SYSTEM>
0

>  <SCORE.SYSTEM.CONST>
0

>  <SCORE.SYSTEM.DIHEDRAL>
0

>  <SCORE.SYSTEM.SOLV>
0

>  <SCORE.SYSTEM.norm>
0

>  <SCORE.heavy>
26

>  <SCORE.norm>
-2.06207

>  <RMSD>
0.769

$$$$
ligand
 OpenBabel02271912153D
libRbt.so/2013.1/901 2013/11/27
 26 29  0  0  0  0  0  0  0  0999 V2000
  112.2339  -79.4308  -87.0483 C   0  0  1  0  0  0  0  0  0  0  0  0
  112.7700  -80.6609  -87.4012 N   0  0  0  0  0  0  0  0  0  0  0  0
  112.3511  -78.9511  -85.6792 C   0  0  0  0  0  0  0  0  0  0  0  0
  111.2264  -74.1841  -80.7638 N   0  0  0  0  0  0  0  0  0  0  0  0
  111.9076  -77.2597  -84.0692 O   0  0  0  0  0  0  0  0  0  0  0  0
  111.7599  -77.7014  -85.4844 C   0  0  2  0  0  0  0  0  0  0  0  0
  111.3555  -76.1223  -83.8980 C   0  0  1  0  0  0  0  0  0  0  0  0
  111.5630  -75.7743  -82.4925 C   0  0  0  0  0  0  0  0  0  0  0  0
  110.9917  -74.5087  -82.1109 C   0  0  2  0  0  0  0  0  0  0  0  0
  110.2817  -73.6856  -83.0198 C   0  0  0  0  0  0  0  0  0  0  0  0
  110.1185  -74.0844  -84.4054 C   0  0  0  0  0  0  0  0  0  0  0  0
  110.6953  -75.3419  -84.8135 C   0  0  2  0  0  0  0  0  0  0  0  0
  110.4933  -75.6726  -86.2736 C   0  0  1  0  0  0  0  0  0  0  0  0
  111.1070  -76.9275  -86.4374 C   0  0  2  0  0  0  0  0  0  0  0  0
  111.0056  -77.4245  -87.8113 C   0  0  0  0  0  0  0  0  0  0  0  0
  111.6005  -78.7041  -88.0377 C   0  0  0  0  0  0  0  0  0  0  0  0
  109.8258  -74.8389  -87.1507 C   0  0  0  0  0  0  0  0  0  0  0  0
  108.7504  -75.2190  -87.9871 C   0  0  0  0  0  0  0  0  0  0  0  0
  108.0539  -74.3870  -88.8654 C   0  0  0  0  0  0  0  0  0  0  0  0
  108.4236  -72.9835  -88.9723 C   0  0  0  0  0  0  0  0  0  0  0  0
  109.5091  -72.6382  -88.1318 C   0  0  0  0  0  0  0  0  0  0  0  0
  110.2377  -73.4383  -87.2410 C   0  0  0  0  0  0  0  0  0  0  0  0
  113.2821  -81.5992  -86.4064 C   0  0  0  0  0  0  0  0  0  0  0  0
  112.8966  -81.2023  -88.7712 C   0  0  0  0  0  0  0  0  0  0  0  0
  110.8959  -72.9786  -79.9714 C   0  0  0  0  0  0  0  0  0  0  0  0
  111.9213  -75.2169  -79.9168 C   0  0  0  0  0  0  0  0  0  0  0  0
  1  2  1  6  0  0  0
  1  3  1  0  0  0  0
  1 16  1  0  0  0  0
  2 23  1  0  0  0  0
  2 24  1  0  0  0  0
  4 25  1  0  0  0  0
  4 26  1  0  0  0  0
  5  6  1  0  0  0  0
  6  3  1  1  0  0  0
  6 14  1  0  0  0  0
  7  5  1  6  0  0  0
  7  8  1  0  0  0  0
  7 12  1  0  0  0  0
  8  9  1  0  0  0  0
  9  4  1  6  0  0  0
  9 10  1  0  0  0  0
 10 11  1  0  0  0  0
 12 11  1  1  0  0  0
 12 13  1  0  0  0  0
 13 14  1  0  0  0  0
 13 17  1  1  0  0  0
 14 15  1  1  0  0  0
 15 16  1  0  0  0  0
 17 18  1  0  0  0  0
 17 22  1  0  0  0  0
 18 19  1  0  0  0  0
 19 20  1  0  0  0  0
 20 21  1  0  0  0  0
 21 22  1  0  0  0  0
M  END
>  <CHROM.1>
9.34311929,176.35671837,-127.48656025,111.04150099,-76.27423395,-85.40849965
-1.23592242,-1.05005157,1.07543210

>  <Name>
ligand

>  <RI>
0

>  <Rbt.Current_Directory>
/home/itssahil/PROJECTS/Mol_Feturizer/Test_systems_manuscript/rnas/1f1t

>  <Rbt.Executable>
rbdock ($Id: //depot/dev/client3/rdock/2013.1/src/exe/rbdock.cxx#4 $)

>  <Rbt.Library>
libRbt.so (2013.1, Build901 2013/11/27)

>  <Rbt.Parameter_File>
/export/apps/rDock/src/rDock_2013.1_src/data/scripts/dock_solv.prm

>  <Rbt.Receptor>
prm/pocket_docking_8.prm

>  <SCORE>
-53.6509

>  <SCORE.INTER>
-56.2256

>  <SCORE.INTER.CONST>
1

>  <SCORE.INTER.POLAR>
0

>  <SCORE.INTER.ROT>
3

>  <SCORE.INTER.SOLV>
9.01115

>  <SCORE.INTER.VDW>
-46.0875

>  <SCORE.INTER.norm>
-2.16252

>  <SCORE.INTRA>
2.57469

>  <SCORE.INTRA.DIHEDRAL>
-0.000596917

>  <SCORE.INTRA.DIHEDRAL.0>
3.60016

>  <SCORE.INTRA.POLAR>
0

>  <SCORE.INTRA.POLAR.0>
0

>  <SCORE.INTRA.REPUL>
0

>  <SCORE.INTRA.REPUL.0>
0

>  <SCORE.INTRA.SOLV>
-0.000952293

>  <SCORE.INTRA.SOLV.lig_0>
-10.9882

>  <SCORE.INTRA.VDW>
2.57546

>  <SCORE.INTRA.VDW.0>
1.84442

>  <SCORE.INTRA.norm>
0.0990265

>  <SCORE.RESTR>
0

>  <SCORE.RESTR.CAVITY>
0

>  <SCORE.RESTR.norm>
0

>  <SCORE.SYSTEM>
0

>  <SCORE.SYSTEM.CONST>
0

>  <SCORE.SYSTEM.DIHEDRAL>
0

>  <SCORE.SYSTEM.SOLV>
0

>  <SCORE.SYSTEM.norm>
0

>  <SCORE.heavy>
26

>  <SCORE.norm>
-2.0635

>  <RMSD>
0.770

$$$$
ligand
 OpenBabel02271912153D
libRbt.so/2013.1/901 2013/11/27
 26 29  0  0  0  0  0  0  0  0999 V2000
  112.2279  -79.4377  -87.0441 C   0  0  1  0  0  0  0  0  0  0  0  0
  112.7623  -80.6690  -87.3955 N   0  0  0  0  0  0  0  0  0  0  0  0
  112.3473  -78.9558  -85.6759 C   0  0  0  0  0  0  0  0  0  0  0  0
  111.2331  -74.1792  -80.7674 N   0  0  0  0  0  0  0  0  0  0  0  0
  111.9073  -77.2612  -84.0683 O   0  0  0  0  0  0  0  0  0  0  0  0
  111.7576  -77.7051  -85.4825 C   0  0  2  0  0  0  0  0  0  0  0  0
  111.3567  -76.1228  -83.8985 C   0  0  1  0  0  0  0  0  0  0  0  0
  111.5661  -75.7727  -82.4938 C   0  0  0  0  0  0  0  0  0  0  0  0
  110.9966  -74.5059  -82.1137 C   0  0  2  0  0  0  0  0  0  0  0  0
  110.2865  -73.6836  -83.0232 C   0  0  0  0  0  0  0  0  0  0  0  0
  110.1213  -74.0846  -84.4080 C   0  0  0  0  0  0  0  0  0  0  0  0
  110.6963  -75.3433  -84.8145 C   0  0  2  0  0  0  0  0  0  0  0  0
  110.4923  -75.6763  -86.2738 C   0  0  1  0  0  0  0  0  0  0  0  0
  111.1044  -76.9322  -86.4362 C   0  0  2  0  0  0  0  0  0  0  0  0
  111.0010  -77.4314  -87.8091 C   0  0  0  0  0  0  0  0  0  0  0  0
  111.5942  -78.7120  -88.0340 C   0  0  0  0  0  0  0  0  0  0  0  0
  109.8247  -74.8434  -87.1516 C   0  0  0  0  0  0  0  0  0  0  0  0
  108.7625  -75.2290  -88.0021 C   0  0  0  0  0  0  0  0  0  0  0  0
  108.0659  -74.3981  -88.8814 C   0  0  0  0  0  0  0  0  0  0  0  0
  108.4209  -72.9898  -88.9739 C   0  0  0  0  0  0  0  0  0  0  0  0
  109.4936  -72.6389  -88.1194 C   0  0  0  0  0  0  0  0  0  0  0  0
  110.2218  -73.4377  -87.2270 C   0  0  0  0  0  0  0  0  0  0  0  0
  113.2653  -81.6103  -86.3989 C   0  0  0  0  0  0  0  0  0  0  0  0
  112.8957  -81.2088  -88.7654 C   0  0  0  0  0  0  0  0  0  0  0  0
  110.9088  -72.9702  -79.9779 C   0  0  0  0  0  0  0  0  0  0  0  0
  111.9231  -75.2134  -79.9181 C   0  0  0  0  0  0  0  0  0  0  0  0
  1  2  1  6  0  0  0
  1  3  1  0  0  0  0
  1 16  1  0  0  0  0
  2 23  1  0  0  0  0
  2 24  1  0  0  0  0
  4 25  1  0  0  0  0
  4 26  1  0  0  0  0
  5  6  1  0  0  0  0
  6  3  1  1  0  0  0
  6 14  1  0  0  0  0
  7  5  1  6  0  0  0
  7  8  1  0  0  0  0
  7 12  1  0  0  0  0
  8  9  1  0  0  0  0
  9  4  1  6  0  0  0
  9 10  1  0  0  0  0
 10 11  1  0  0  0  0
 12 11  1  1  0  0  0
 12 13  1  0  0  0  0
 13 14  1  0  0  0  0
 13 17  1  1  0  0  0
 14 15  1  1  0  0  0
 15 16  1  0  0  0  0
 17 18  1  0  0  0  0
 17 22  1  0  0  0  0
 18 19  1  0  0  0  0
 19 20  1  0  0  0  0
 20 21  1  0  0  0  0
 21 22  1  0  0  0  0
M  END
>  <CHROM.1>
9.81344141,176.12476678,-128.59077800,111.04058733,-76.27708641,-85.40820864
-1.23890158,-1.05058733,1.07110605

>  <Name>
ligand

>  <RI>
0

>  <Rbt.Current_Directory>
/home/itssahil/PROJECTS/Mol_Feturizer/Test_systems_manuscript/rnas/1f1t

>  <Rbt.Executable>
rbdock ($Id: //depot/dev/client3/rdock/2013.1/src/exe/rbdock.cxx#4 $)

>  <Rbt.Library>
libRbt.so (2013.1, Build901 2013/11/27)

>  <Rbt.Parameter_File>
/export/apps/rDock/src/rDock_2013.1_src/data/scripts/dock_solv.prm

>  <Rbt.Receptor>
prm/pocket_docking_6.prm

>  <SCORE>
-53.6375

>  <SCORE.INTER>
-56.2377

>  <SCORE.INTER.CONST>
1

>  <SCORE.INTER.POLAR>
0

>  <SCORE.INTER.ROT>
3

>  <SCORE.INTER.SOLV>
8.98985

>  <SCORE.INTER.VDW>
-46.0884

>  <SCORE.INTER.norm>
-2.16299

>  <SCORE.INTRA>
2.60015

>  <SCORE.INTRA.DIHEDRAL>
-0.000592314

>  <SCORE.INTRA.DIHEDRAL.0>
3.60016

>  <SCORE.INTRA.POLAR>
0

>  <SCORE.INTRA.POLAR.0>
0

>  <SCORE.INTRA.REPUL>
0

>  <SCORE.INTRA.REPUL.0>
0

>  <SCORE.INTRA.SOLV>
-0.000947584

>  <SCORE.INTRA.SOLV.lig_0>
-10.9882

>  <SCORE.INTRA.VDW>
2.60092

>  <SCORE.INTRA.VDW.0>
1.84442

>  <SCORE.INTRA.norm>
0.100006

>  <SCORE.RESTR>
0

>  <SCORE.RESTR.CAVITY>
0

>  <SCORE.RESTR.norm>
0

>  <SCORE.SYSTEM>
0

>  <SCORE.SYSTEM.CONST>
0

>  <SCORE.SYSTEM.DIHEDRAL>
0

>  <SCORE.SYSTEM.SOLV>
0

>  <SCORE.SYSTEM.norm>
0

>  <SCORE.heavy>
26

>  <SCORE.norm>
-2.06298

>  <RMSD>
0.771

$$$$
ligand
 OpenBabel02271912153D
libRbt.so/2013.1/901 2013/11/27
 26 29  0  0  0  0  0  0  0  0999 V2000
  111.1992  -74.7008  -82.0370 C   0  0  1  0  0  0  0  0  0  0  0  0
  111.3801  -74.3421  -80.7089 N   0  0  0  0  0  0  0  0  0  0  0  0
  111.7083  -75.9748  -82.5229 C   0  0  0  0  0  0  0  0  0  0  0  0
  112.6701  -80.6392  -87.5696 N   0  0  0  0  0  0  0  0  0  0  0  0
  111.9915  -77.5014  -84.3227 O   0  0  0  0  0  0  0  0  0  0  0  0
  111.4493  -76.1868  -83.8784 C   0  0  2  0  0  0  0  0  0  0  0  0
  111.7596  -77.6819  -85.5643 C   0  0  1  0  0  0  0  0  0  0  0  0
  112.3156  -78.9930  -85.8979 C   0  0  0  0  0  0  0  0  0  0  0  0
  112.1519  -79.3655  -87.2792 C   0  0  2  0  0  0  0  0  0  0  0  0
  111.5183  -78.5248  -88.2275 C   0  0  0  0  0  0  0  0  0  0  0  0
  110.9788  -77.2377  -87.8300 C   0  0  0  0  0  0  0  0  0  0  0  0
  111.1186  -76.8502  -86.4477 C   0  0  2  0  0  0  0  0  0  0  0  0
  110.5162  -75.5051  -86.1162 C   0  0  1  0  0  0  0  0  0  0  0  0
  110.7849  -75.3280  -84.7471 C   0  0  2  0  0  0  0  0  0  0  0  0
  110.2739  -74.0537  -84.2372 C   0  0  0  0  0  0  0  0  0  0  0  0
  110.5283  -73.8101  -82.8521 C   0  0  0  0  0  0  0  0  0  0  0  0
  109.8729  -74.7156  -87.0505 C   0  0  0  0  0  0  0  0  0  0  0  0
  108.8427  -75.1458  -87.9189 C   0  0  0  0  0  0  0  0  0  0  0  0
  108.1704  -74.3586  -88.8555 C   0  0  0  0  0  0  0  0  0  0  0  0
  108.5184  -72.9525  -88.9957 C   0  0  0  0  0  0  0  0  0  0  0  0
  109.5592  -72.5568  -88.1215 C   0  0  0  0  0  0  0  0  0  0  0  0
  110.2624  -73.3110  -87.1721 C   0  0  0  0  0  0  0  0  0  0  0  0
  110.9418  -73.0508  -80.1866 C   0  0  0  0  0  0  0  0  0  0  0  0
  112.0054  -75.1683  -79.6543 C   0  0  0  0  0  0  0  0  0  0  0  0
  113.2224  -81.6982  -86.6956 C   0  0  0  0  0  0  0  0  0  0  0  0
  112.6757  -81.0686  -89.0128 C   0  0  0  0  0  0  0  0  0  0  0  0
  1  2  1  1  0  0  0
  1  3  1  0  0  0  0
  1 16  1  0  0  0  0
  2 23  1  0  0  0  0
  2 24  1  0  0  0  0
  4 25  1  0  0  0  0
  4 26  1  0  0  0  0
  5  6  1  0  0  0  0
  6  3  1  6  0  0  0
  6 14  1  0  0  0  0
  7  5  1  1  0  0  0
  7  8  1  0  0  0  0
  7 12  1  0  0  0  0
  8  9  1  0  0  0  0
  9  4  1  1  0  0  0
  9 10  1  0  0  0  0
 10 11  1  0  0  0  0
 12 11  1  6  0  0  0
 12 13  1  0  0  0  0
 13 14  1  0  0  0  0
 13 17  1  6  0  0  0
 14 15  1  6  0  0  0
 15 16  1  0  0  0  0
 17 18  1  0  0  0  0
 17 22  1  0  0  0  0
 18 19  1  0  0  0  0
 19 20  1  0  0  0  0
 20 21  1  0  0  0  0
 21 22  1  0  0  0  0
M  END
>  <CHROM.1>
177.20006110,6.90200917,50.72079606,111.08332709,-76.27010483,-85.44344701
-1.83771823,1.06637142,-2.07679743

>  <Name>
ligand

>  <RI>
0

>  <Rbt.Current_Directory>
/home/itssahil/PROJECTS/Mol_Feturizer/Test_systems_manuscript/rnas/1f1t

>  <Rbt.Executable>
rbdock ($Id: //depot/dev/client3/rdock/2013.1/src/exe/rbdock.cxx#4 $)

>  <Rbt.Library>
libRbt.so (2013.1, Build901 2013/11/27)

>  <Rbt.Parameter_File>
/export/apps/rDock/src/rDock_2013.1_src/data/scripts/dock_solv.prm

>  <Rbt.Receptor>
prm/pocket_docking_2.prm

>  <SCORE>
-55.9844

>  <SCORE.INTER>
-56.5096

>  <SCORE.INTER.CONST>
1

>  <SCORE.INTER.POLAR>
0

>  <SCORE.INTER.ROT>
3

>  <SCORE.INTER.SOLV>
8.94844

>  <SCORE.INTER.VDW>
-46.2559

>  <SCORE.INTER.norm>
-2.17345

>  <SCORE.INTRA>
0.52525

>  <SCORE.INTRA.DIHEDRAL>
0.000268267

>  <SCORE.INTRA.DIHEDRAL.0>
3.60016

>  <SCORE.INTRA.POLAR>
0

>  <SCORE.INTRA.POLAR.0>
0

>  <SCORE.INTRA.REPUL>
0

>  <SCORE.INTRA.REPUL.0>
0

>  <SCORE.INTRA.SOLV>
1.88366e-05

>  <SCORE.INTRA.SOLV.lig_0>
-10.9882

>  <SCORE.INTRA.VDW>
0.525107

>  <SCORE.INTRA.VDW.0>
1.84442

>  <SCORE.INTRA.norm>
0.0202019

>  <SCORE.RESTR>
0

>  <SCORE.RESTR.CAVITY>
0

>  <SCORE.RESTR.norm>
0

>  <SCORE.SYSTEM>
0

>  <SCORE.SYSTEM.CONST>
0

>  <SCORE.SYSTEM.DIHEDRAL>
0

>  <SCORE.SYSTEM.SOLV>
0

>  <SCORE.SYSTEM.norm>
0

>  <SCORE.heavy>
26

>  <SCORE.norm>
-2.15325

>  <RMSD>
0.773

$$$$
ligand
 OpenBabel02271912153D
libRbt.so/2013.1/901 2013/11/27
 26 29  0  0  0  0  0  0  0  0999 V2000
  111.1916  -74.7398  -82.0472 C   0  0  1  0  0  0  0  0  0  0  0  0
  111.3698  -74.3879  -80.7169 N   0  0  0  0  0  0  0  0  0  0  0  0
  111.7099  -76.0070  -82.5409 C   0  0  0  0  0  0  0  0  0  0  0  0
  112.7057  -80.6332  -87.6162 N   0  0  0  0  0  0  0  0  0  0  0  0
  112.0042  -77.5204  -84.3500 O   0  0  0  0  0  0  0  0  0  0  0  0
  111.4524  -76.2126  -83.8977 C   0  0  2  0  0  0  0  0  0  0  0  0
  111.7736  -77.6950  -85.5927 C   0  0  1  0  0  0  0  0  0  0  0  0
  112.3393  -78.9999  -85.9343 C   0  0  0  0  0  0  0  0  0  0  0  0
  112.1782  -79.3651  -87.3179 C   0  0  2  0  0  0  0  0  0  0  0  0
  111.5384  -78.5232  -88.2611 C   0  0  0  0  0  0  0  0  0  0  0  0
  110.9895  -77.2426  -87.8556 C   0  0  0  0  0  0  0  0  0  0  0  0
  111.1265  -76.8626  -86.4710 C   0  0  2  0  0  0  0  0  0  0  0  0
  110.5143  -75.5240  -86.1313 C   0  0  1  0  0  0  0  0  0  0  0  0
  110.7817  -75.3533  -84.7610 C   0  0  2  0  0  0  0  0  0  0  0  0
  110.2614  -74.0860  -84.2433 C   0  0  0  0  0  0  0  0  0  0  0  0
  110.5141  -73.8490  -82.8568 C   0  0  0  0  0  0  0  0  0  0  0  0
  109.8651  -74.7335  -87.0606 C   0  0  0  0  0  0  0  0  0  0  0  0
  108.8458  -75.1686  -87.9393 C   0  0  0  0  0  0  0  0  0  0  0  0
  108.1677  -74.3808  -88.8712 C   0  0  0  0  0  0  0  0  0  0  0  0
  108.4970  -72.9686  -88.9946 C   0  0  0  0  0  0  0  0  0  0  0  0
  109.5274  -72.5679  -88.1104 C   0  0  0  0  0  0  0  0  0  0  0  0
  110.2358  -73.3225  -87.1652 C   0  0  0  0  0  0  0  0  0  0  0  0
  110.9085  -73.1094  -80.1832 C   0  0  0  0  0  0  0  0  0  0  0  0
  112.0144  -75.2100  -79.6707 C   0  0  0  0  0  0  0  0  0  0  0  0
  113.2528  -81.6991  -86.7474 C   0  0  0  0  0  0  0  0  0  0  0  0
  112.7300  -81.0466  -89.0637 C   0  0  0  0  0  0  0  0  0  0  0  0
  1  2  1  1  0  0  0
  1  3  1  0  0  0  0
  1 16  1  0  0  0  0
  2 23  1  0  0  0  0
  2 24  1  0  0  0  0
  4 25  1  0  0  0  0
  4 26  1  0  0  0  0
  5  6  1  0  0  0  0
  6  3  1  6  0  0  0
  6 14  1  0  0  0  0
  7  5  1  1  0  0  0
  7  8  1  0  0  0  0
  7 12  1  0  0  0  0
  8  9  1  0  0  0  0
  9  4  1  1  0  0  0
  9 10  1  0  0  0  0
 10 11  1  0  0  0  0
 12 11  1  6  0  0  0
 12 13  1  0  0  0  0
 13 14  1  0  0  0  0
 13 17  1  6  0  0  0
 14 15  1  6  0  0  0
 15 16  1  0  0  0  0
 17 18  1  0  0  0  0
 17 22  1  0  0  0  0
 18 19  1  0  0  0  0
 19 20  1  0  0  0  0
 20 21  1  0  0  0  0
 21 22  1  0  0  0  0
M  END
>  <CHROM.1>
177.91236133,7.63843239,50.16771235,111.08704093,-76.28890719,-85.46314804
-1.84536791,1.05977716,-2.06398731

>  <Name>
ligand

>  <RI>
0

>  <Rbt.Current_Directory>
/home/itssahil/PROJECTS/Mol_Feturizer/Test_systems_manuscript/rnas/1f1t

>  <Rbt.Executable>
rbdock ($Id: //depot/dev/client3/rdock/2013.1/src/exe/rbdock.cxx#4 $)

>  <Rbt.Library>
libRbt.so (2013.1, Build901 2013/11/27)

>  <Rbt.Parameter_File>
/export/apps/rDock/src/rDock_2013.1_src/data/scripts/dock_solv.prm

>  <Rbt.Receptor>
prm/pocket_docking_4.prm

>  <SCORE>
-55.9692

>  <SCORE.INTER>
-56.5056

>  <SCORE.INTER.CONST>
1

>  <SCORE.INTER.POLAR>
0

>  <SCORE.INTER.ROT>
3

>  <SCORE.INTER.SOLV>
8.96462

>  <SCORE.INTER.VDW>
-46.2586

>  <SCORE.INTER.norm>
-2.17329

>  <SCORE.INTRA>
0.536388

>  <SCORE.INTRA.DIHEDRAL>
0.000261871

>  <SCORE.INTRA.DIHEDRAL.0>
3.60016

>  <SCORE.INTRA.POLAR>
0

>  <SCORE.INTRA.POLAR.0>
0

>  <SCORE.INTRA.REPUL>
0

>  <SCORE.INTRA.REPUL.0>
0

>  <SCORE.INTRA.SOLV>
2.00619e-05

>  <SCORE.INTRA.SOLV.lig_0>
-10.9882

>  <SCORE.INTRA.VDW>
0.536247

>  <SCORE.INTRA.VDW.0>
1.84442

>  <SCORE.INTRA.norm>
0.0206303

>  <SCORE.RESTR>
0

>  <SCORE.RESTR.CAVITY>
0

>  <SCORE.RESTR.norm>
0

>  <SCORE.SYSTEM>
0

>  <SCORE.SYSTEM.CONST>
0

>  <SCORE.SYSTEM.DIHEDRAL>
0

>  <SCORE.SYSTEM.SOLV>
0

>  <SCORE.SYSTEM.norm>
0

>  <SCORE.heavy>
26

>  <SCORE.norm>
-2.15266

>  <RMSD>
0.774

$$$$
ligand
 OpenBabel02271912153D
libRbt.so/2013.1/901 2013/11/27
 26 29  0  0  0  0  0  0  0  0999 V2000
  112.2072  -79.4360  -87.0545 C   0  0  1  0  0  0  0  0  0  0  0  0
  112.7406  -80.6671  -87.4081 N   0  0  0  0  0  0  0  0  0  0  0  0
  112.3324  -78.9538  -85.6870 C   0  0  0  0  0  0  0  0  0  0  0  0
  111.2378  -74.1767  -80.7746 N   0  0  0  0  0  0  0  0  0  0  0  0
  111.8988  -77.2591  -84.0778 O   0  0  0  0  0  0  0  0  0  0  0  0
  111.7430  -77.7033  -85.4913 C   0  0  2  0  0  0  0  0  0  0  0  0
  111.3484  -76.1209  -83.9057 C   0  0  1  0  0  0  0  0  0  0  0  0
  111.5638  -75.7704  -82.5021 C   0  0  0  0  0  0  0  0  0  0  0  0
  110.9954  -74.5038  -82.1197 C   0  0  2  0  0  0  0  0  0  0  0  0
  110.2809  -73.6820  -83.0262 C   0  0  0  0  0  0  0  0  0  0  0  0
  110.1098  -74.0833  -84.4102 C   0  0  0  0  0  0  0  0  0  0  0  0
  110.6835  -75.3419  -84.8190 C   0  0  2  0  0  0  0  0  0  0  0  0
  110.4732  -75.6753  -86.2773 C   0  0  1  0  0  0  0  0  0  0  0  0
  111.0852  -76.9309  -86.4422 C   0  0  2  0  0  0  0  0  0  0  0  0
  110.9759  -77.4305  -87.8145 C   0  0  0  0  0  0  0  0  0  0  0  0
  111.5688  -78.7108  -88.0417 C   0  0  0  0  0  0  0  0  0  0  0  0
  109.8013  -74.8429  -87.1523 C   0  0  0  0  0  0  0  0  0  0  0  0
  108.7192  -75.2232  -87.9798 C   0  0  0  0  0  0  0  0  0  0  0  0
  108.0183  -74.3924  -88.8558 C   0  0  0  0  0  0  0  0  0  0  0  0
  108.3903  -72.9901  -88.9698 C   0  0  0  0  0  0  0  0  0  0  0  0
  109.4825  -72.6446  -88.1382 C   0  0  0  0  0  0  0  0  0  0  0  0
  110.2157  -73.4436  -87.2500 C   0  0  0  0  0  0  0  0  0  0  0  0
  112.8107  -81.1134  -88.7967 C   0  0  0  0  0  0  0  0  0  0  0  0
  113.3061  -81.6755  -86.4865 C   0  0  0  0  0  0  0  0  0  0  0  0
  110.9437  -72.9557  -79.9917 C   0  0  0  0  0  0  0  0  0  0  0  0
  111.8988  -75.2244  -79.9187 C   0  0  0  0  0  0  0  0  0  0  0  0
  1  2  1  6  0  0  0
  1  3  1  0  0  0  0
  1 16  1  0  0  0  0
  2 23  1  0  0  0  0
  2 24  1  0  0  0  0
  4 25  1  0  0  0  0
  4 26  1  0  0  0  0
  5  6  1  0  0  0  0
  6  3  1  1  0  0  0
  6 14  1  0  0  0  0
  7  5  1  6  0  0  0
  7  8  1  0  0  0  0
  7 12  1  0  0  0  0
  8  9  1  0  0  0  0
  9  4  1  6  0  0  0
  9 10  1  0  0  0  0
 10 11  1  0  0  0  0
 12 11  1  1  0  0  0
 12 13  1  0  0  0  0
 13 14  1  0  0  0  0
 13 17  1  1  0  0  0
 14 15  1  1  0  0  0
 15 16  1  0  0  0  0
 17 18  1  0  0  0  0
 17 22  1  0  0  0  0
 18 19  1  0  0  0  0
 19 20  1  0  0  0  0
 20 21  1  0  0  0  0
 21 22  1  0  0  0  0
M  END
>  <CHROM.1>
-171.16851111,174.52744387,-127.33894198,111.02554824,-76.27453761,-85.41822994
-1.24771777,-1.04783368,1.06556195

>  <Name>
ligand

>  <RI>
0

>  <Rbt.Current_Directory>
/home/itssahil/PROJECTS/Mol_Feturizer/Test_systems_manuscript/rnas/1f1t

>  <Rbt.Executable>
rbdock ($Id: //depot/dev/client3/rdock/2013.1/src/exe/rbdock.cxx#4 $)

>  <Rbt.Library>
libRbt.so (2013.1, Build901 2013/11/27)

>  <Rbt.Parameter_File>
/export/apps/rDock/src/rDock_2013.1_src/data/scripts/dock_solv.prm

>  <Rbt.Receptor>
prm/pocket_docking_6.prm

>  <SCORE>
-53.3617

>  <SCORE.INTER>
-56.1874

>  <SCORE.INTER.CONST>
1

>  <SCORE.INTER.POLAR>
0

>  <SCORE.INTER.ROT>
3

>  <SCORE.INTER.SOLV>
8.96812

>  <SCORE.INTER.VDW>
-46.0476

>  <SCORE.INTER.norm>
-2.16105

>  <SCORE.INTRA>
2.82575

>  <SCORE.INTRA.DIHEDRAL>
-0.000578176

>  <SCORE.INTRA.DIHEDRAL.0>
3.60016

>  <SCORE.INTRA.POLAR>
0

>  <SCORE.INTRA.POLAR.0>
0

>  <SCORE.INTRA.REPUL>
0

>  <SCORE.INTRA.REPUL.0>
0

>  <SCORE.INTRA.SOLV>
-0.000949303

>  <SCORE.INTRA.SOLV.lig_0>
-10.9882

>  <SCORE.INTRA.VDW>
2.82652

>  <SCORE.INTRA.VDW.0>
1.84442

>  <SCORE.INTRA.norm>
0.108683

>  <SCORE.RESTR>
0

>  <SCORE.RESTR.CAVITY>
0

>  <SCORE.RESTR.norm>
0

>  <SCORE.SYSTEM>
0

>  <SCORE.SYSTEM.CONST>
0

>  <SCORE.SYSTEM.DIHEDRAL>
0

>  <SCORE.SYSTEM.SOLV>
0

>  <SCORE.SYSTEM.norm>
0

>  <SCORE.heavy>
26

>  <SCORE.norm>
-2.05237

>  <RMSD>
0.774

$$$$
ligand
 OpenBabel02271912153D
libRbt.so/2013.1/901 2013/11/27
 26 29  0  0  0  0  0  0  0  0999 V2000
  112.2083  -79.4437  -87.0450 C   0  0  1  0  0  0  0  0  0  0  0  0
  112.7381  -80.6771  -87.3961 N   0  0  0  0  0  0  0  0  0  0  0  0
  112.3353  -78.9590  -85.6785 C   0  0  0  0  0  0  0  0  0  0  0  0
  111.2558  -74.1684  -80.7759 N   0  0  0  0  0  0  0  0  0  0  0  0
  111.9070  -77.2596  -84.0728 O   0  0  0  0  0  0  0  0  0  0  0  0
  111.7495  -77.7064  -85.4853 C   0  0  2  0  0  0  0  0  0  0  0  0
  111.3598  -76.1195  -83.9030 C   0  0  1  0  0  0  0  0  0  0  0  0
  111.5768  -75.7666  -82.5001 C   0  0  0  0  0  0  0  0  0  0  0  0
  111.0120  -74.4976  -82.1203 C   0  0  2  0  0  0  0  0  0  0  0  0
  110.2996  -73.6757  -83.0283 C   0  0  0  0  0  0  0  0  0  0  0  0
  110.1269  -74.0795  -84.4113 C   0  0  0  0  0  0  0  0  0  0  0  0
  110.6969  -75.3405  -84.8177 C   0  0  2  0  0  0  0  0  0  0  0  0
  110.4852  -75.6765  -86.2752 C   0  0  1  0  0  0  0  0  0  0  0  0
  111.0936  -76.9341  -86.4376 C   0  0  2  0  0  0  0  0  0  0  0  0
  110.9825  -77.4362  -87.8089 C   0  0  0  0  0  0  0  0  0  0  0  0
  111.5716  -78.7188  -88.0336 C   0  0  0  0  0  0  0  0  0  0  0  0
  109.8155  -74.8440  -87.1518 C   0  0  0  0  0  0  0  0  0  0  0  0
  108.7642  -75.2344  -88.0137 C   0  0  0  0  0  0  0  0  0  0  0  0
  108.0655  -74.4042  -88.8920 C   0  0  0  0  0  0  0  0  0  0  0  0
  108.4058  -72.9915  -88.9706 C   0  0  0  0  0  0  0  0  0  0  0  0
  109.4678  -72.6356  -88.1050 C   0  0  0  0  0  0  0  0  0  0  0  0
  110.1977  -73.4335  -87.2130 C   0  0  0  0  0  0  0  0  0  0  0  0
  112.8011  -81.1288  -88.7833 C   0  0  0  0  0  0  0  0  0  0  0  0
  113.3061  -81.6827  -86.4732 C   0  0  0  0  0  0  0  0  0  0  0  0
  110.9523  -72.9504  -79.9918 C   0  0  0  0  0  0  0  0  0  0  0  0
  111.9299  -75.2097  -79.9225 C   0  0  0  0  0  0  0  0  0  0  0  0
  1  2  1  6  0  0  0
  1  3  1  0  0  0  0
  1 16  1  0  0  0  0
  2 23  1  0  0  0  0
  2 24  1  0  0  0  0
  4 25  1  0  0  0  0
  4 26  1  0  0  0  0
  5  6  1  0  0  0  0
  6  3  1  1  0  0  0
  6 14  1  0  0  0  0
  7  5  1  6  0  0  0
  7  8  1  0  0  0  0
  7 12  1  0  0  0  0
  8  9  1  0  0  0  0
  9  4  1  6  0  0  0
  9 10  1  0  0  0  0
 10 11  1  0  0  0  0
 12 11  1  1  0  0  0
 12 13  1  0  0  0  0
 13 14  1  0  0  0  0
 13 17  1  1  0  0  0
 14 15  1  1  0  0  0
 15 16  1  0  0  0  0
 17 18  1  0  0  0  0
 17 22  1  0  0  0  0
 18 19  1  0  0  0  0
 19 20  1  0  0  0  0
 20 21  1  0  0  0  0
 21 22  1  0  0  0  0
M  END
>  <CHROM.1>
-171.44109579,175.28689739,-129.79316839,111.03590787,-76.27539351,-85.41482521
-1.25157171,-1.04963482,1.05994582

>  <Name>
ligand

>  <RI>
0

>  <Rbt.Current_Directory>
/home/itssahil/PROJECTS/Mol_Feturizer/Test_systems_manuscript/rnas/1f1t

>  <Rbt.Executable>
rbdock ($Id: //depot/dev/client3/rdock/2013.1/src/exe/rbdock.cxx#4 $)

>  <Rbt.Library>
libRbt.so (2013.1, Build901 2013/11/27)

>  <Rbt.Parameter_File>
/export/apps/rDock/src/rDock_2013.1_src/data/scripts/dock_solv.prm

>  <Rbt.Receptor>
prm/pocket_docking_4.prm

>  <SCORE>
-53.3469

>  <SCORE.INTER>
-56.2884

>  <SCORE.INTER.CONST>
1

>  <SCORE.INTER.POLAR>
0

>  <SCORE.INTER.ROT>
3

>  <SCORE.INTER.SOLV>
8.96569

>  <SCORE.INTER.VDW>
-46.1142

>  <SCORE.INTER.norm>
-2.16494

>  <SCORE.INTRA>
2.94152

>  <SCORE.INTRA.DIHEDRAL>
-0.000572468

>  <SCORE.INTRA.DIHEDRAL.0>
3.60016

>  <SCORE.INTRA.POLAR>
0

>  <SCORE.INTRA.POLAR.0>
0

>  <SCORE.INTRA.REPUL>
0

>  <SCORE.INTRA.REPUL.0>
0

>  <SCORE.INTRA.SOLV>
-0.000954467

>  <SCORE.INTRA.SOLV.lig_0>
-10.9882

>  <SCORE.INTRA.VDW>
2.94228

>  <SCORE.INTRA.VDW.0>
1.84442

>  <SCORE.INTRA.norm>
0.113135

>  <SCORE.RESTR>
0

>  <SCORE.RESTR.CAVITY>
0

>  <SCORE.RESTR.norm>
0

>  <SCORE.SYSTEM>
0

>  <SCORE.SYSTEM.CONST>
0

>  <SCORE.SYSTEM.DIHEDRAL>
0

>  <SCORE.SYSTEM.SOLV>
0

>  <SCORE.SYSTEM.norm>
0

>  <SCORE.heavy>
26

>  <SCORE.norm>
-2.0518

>  <RMSD>
0.775

$$$$
ligand
 OpenBabel02271912153D
libRbt.so/2013.1/901 2013/11/27
 26 29  0  0  0  0  0  0  0  0999 V2000
  111.1833  -74.7368  -82.0585 C   0  0  1  0  0  0  0  0  0  0  0  0
  111.3625  -74.3819  -80.7292 N   0  0  0  0  0  0  0  0  0  0  0  0
  111.7101  -76.0006  -82.5522 C   0  0  0  0  0  0  0  0  0  0  0  0
  112.7278  -80.6250  -87.6247 N   0  0  0  0  0  0  0  0  0  0  0  0
  112.0111  -77.5139  -84.3603 O   0  0  0  0  0  0  0  0  0  0  0  0
  111.4504  -76.2098  -83.9080 C   0  0  2  0  0  0  0  0  0  0  0  0
  111.7784  -77.6917  -85.6021 C   0  0  1  0  0  0  0  0  0  0  0  0
  112.3533  -78.9926  -85.9438 C   0  0  0  0  0  0  0  0  0  0  0  0
  112.1911  -79.3608  -87.3265 C   0  0  2  0  0  0  0  0  0  0  0  0
  111.5423  -78.5250  -88.2688 C   0  0  0  0  0  0  0  0  0  0  0  0
  110.9845  -77.2482  -87.8634 C   0  0  0  0  0  0  0  0  0  0  0  0
  111.1224  -76.8654  -86.4796 C   0  0  2  0  0  0  0  0  0  0  0  0
  110.5007  -75.5313  -86.1398 C   0  0  1  0  0  0  0  0  0  0  0  0
  110.7706  -75.3568  -84.7705 C   0  0  2  0  0  0  0  0  0  0  0  0
  110.2419  -74.0929  -84.2529 C   0  0  0  0  0  0  0  0  0  0  0  0
  110.4966  -73.8523  -82.8673 C   0  0  0  0  0  0  0  0  0  0  0  0
  109.8428  -74.7470  -87.0683 C   0  0  0  0  0  0  0  0  0  0  0  0
  108.8072  -75.1850  -87.9262 C   0  0  0  0  0  0  0  0  0  0  0  0
  108.1203  -74.4032  -88.8568 C   0  0  0  0  0  0  0  0  0  0  0  0
  108.4573  -72.9949  -89.0015 C   0  0  0  0  0  0  0  0  0  0  0  0
  109.5039  -72.5913  -88.1379 C   0  0  0  0  0  0  0  0  0  0  0  0
  110.2215  -73.3399  -87.1949 C   0  0  0  0  0  0  0  0  0  0  0  0
  110.9522  -73.0799  -80.2108 C   0  0  0  0  0  0  0  0  0  0  0  0
  111.9590  -75.2227  -79.6695 C   0  0  0  0  0  0  0  0  0  0  0  0
  113.2411  -81.7052  -86.7529 C   0  0  0  0  0  0  0  0  0  0  0  0
  112.8048  -81.0162  -89.0766 C   0  0  0  0  0  0  0  0  0  0  0  0
  1  2  1  1  0  0  0
  1  3  1  0  0  0  0
  1 16  1  0  0  0  0
  2 23  1  0  0  0  0
  2 24  1  0  0  0  0
  4 25  1  0  0  0  0
  4 26  1  0  0  0  0
  5  6  1  0  0  0  0
  6  3  1  6  0  0  0
  6 14  1  0  0  0  0
  7  5  1  1  0  0  0
  7  8  1  0  0  0  0
  7 12  1  0  0  0  0
  8  9  1  0  0  0  0
  9  4  1  1  0  0  0
  9 10  1  0  0  0  0
 10 11  1  0  0  0  0
 12 11  1  6  0  0  0
 12 13  1  0  0  0  0
 13 14  1  0  0  0  0
 13 17  1  6  0  0  0
 14 15  1  6  0  0  0
 15 16  1  0  0  0  0
 17 18  1  0  0  0  0
 17 22  1  0  0  0  0
 18 19  1  0  0  0  0
 19 20  1  0  0  0  0
 20 21  1  0  0  0  0
 21 22  1  0  0  0  0
M  END
>  <CHROM.1>
174.81998824,10.16008180,51.42390624,111.08197660,-76.29061241,-85.47256904
-1.84906591,1.05323136,-2.06170669

>  <Name>
ligand

>  <RI>
0

>  <Rbt.Current_Directory>
/home/itssahil/PROJECTS/Mol_Feturizer/Test_systems_manuscript/rnas/1f1t

>  <Rbt.Executable>
rbdock ($Id: //depot/dev/client3/rdock/2013.1/src/exe/rbdock.cxx#4 $)

>  <Rbt.Library>
libRbt.so (2013.1, Build901 2013/11/27)

>  <Rbt.Parameter_File>
/export/apps/rDock/src/rDock_2013.1_src/data/scripts/dock_solv.prm

>  <Rbt.Receptor>
prm/pocket_docking_2.prm

>  <SCORE>
-55.8634

>  <SCORE.INTER>
-56.3007

>  <SCORE.INTER.CONST>
1

>  <SCORE.INTER.POLAR>
0

>  <SCORE.INTER.ROT>
3

>  <SCORE.INTER.SOLV>
8.93693

>  <SCORE.INTER.VDW>
-46.1128

>  <SCORE.INTER.norm>
-2.16541

>  <SCORE.INTRA>
0.43735

>  <SCORE.INTRA.DIHEDRAL>
0.000248971

>  <SCORE.INTRA.DIHEDRAL.0>
3.60016

>  <SCORE.INTRA.POLAR>
0

>  <SCORE.INTRA.POLAR.0>
0

>  <SCORE.INTRA.REPUL>
0

>  <SCORE.INTRA.REPUL.0>
0

>  <SCORE.INTRA.SOLV>
4.30815e-05

>  <SCORE.INTRA.SOLV.lig_0>
-10.9882

>  <SCORE.INTRA.VDW>
0.437204

>  <SCORE.INTRA.VDW.0>
1.84442

>  <SCORE.INTRA.norm>
0.0168211

>  <SCORE.RESTR>
0

>  <SCORE.RESTR.CAVITY>
0

>  <SCORE.RESTR.norm>
0

>  <SCORE.SYSTEM>
0

>  <SCORE.SYSTEM.CONST>
0

>  <SCORE.SYSTEM.DIHEDRAL>
0

>  <SCORE.SYSTEM.SOLV>
0

>  <SCORE.SYSTEM.norm>
0

>  <SCORE.heavy>
26

>  <SCORE.norm>
-2.14859

>  <RMSD>
0.776

$$$$
ligand
 OpenBabel02271912153D
libRbt.so/2013.1/901 2013/11/27
 26 29  0  0  0  0  0  0  0  0999 V2000
  111.1859  -74.7302  -82.0492 C   0  0  1  0  0  0  0  0  0  0  0  0
  111.3604  -74.3767  -80.7189 N   0  0  0  0  0  0  0  0  0  0  0  0
  111.7020  -75.9999  -82.5390 C   0  0  0  0  0  0  0  0  0  0  0  0
  112.7014  -80.6374  -87.6031 N   0  0  0  0  0  0  0  0  0  0  0  0
  111.9980  -77.5171  -84.3445 O   0  0  0  0  0  0  0  0  0  0  0  0
  111.4488  -76.2068  -83.8964 C   0  0  2  0  0  0  0  0  0  0  0  0
  111.7714  -77.6929  -85.5878 C   0  0  1  0  0  0  0  0  0  0  0  0
  112.3341  -79.0003  -85.9253 C   0  0  0  0  0  0  0  0  0  0  0  0
  112.1769  -79.3672  -87.3089 C   0  0  2  0  0  0  0  0  0  0  0  0
  111.5434  -78.5247  -88.2557 C   0  0  0  0  0  0  0  0  0  0  0  0
  110.9970  -77.2417  -87.8543 C   0  0  0  0  0  0  0  0  0  0  0  0
  111.1303  -76.8599  -86.4699 C   0  0  2  0  0  0  0  0  0  0  0  0
  110.5211  -75.5188  -86.1345 C   0  0  1  0  0  0  0  0  0  0  0  0
  110.7840  -75.3468  -84.7636 C   0  0  2  0  0  0  0  0  0  0  0  0
  110.2659  -74.0769  -84.2498 C   0  0  0  0  0  0  0  0  0  0  0  0
  110.5143  -73.8385  -82.8628 C   0  0  0  0  0  0  0  0  0  0  0  0
  109.8779  -74.7277  -87.0675 C   0  0  0  0  0  0  0  0  0  0  0  0
  108.8375  -75.1525  -87.9264 C   0  0  0  0  0  0  0  0  0  0  0  0
  108.1654  -74.3634  -88.8615 C   0  0  0  0  0  0  0  0  0  0  0  0
  108.5249  -72.9612  -89.0107 C   0  0  0  0  0  0  0  0  0  0  0  0
  109.5757  -72.5710  -88.1460 C   0  0  0  0  0  0  0  0  0  0  0  0
  110.2791  -73.3273  -87.1984 C   0  0  0  0  0  0  0  0  0  0  0  0
  110.9316  -73.0823  -80.1965 C   0  0  0  0  0  0  0  0  0  0  0  0
  111.9692  -75.2120  -79.6618 C   0  0  0  0  0  0  0  0  0  0  0  0
  113.2617  -81.6950  -86.7326 C   0  0  0  0  0  0  0  0  0  0  0  0
  112.7057  -81.0638  -89.0471 C   0  0  0  0  0  0  0  0  0  0  0  0
  1  2  1  1  0  0  0
  1  3  1  0  0  0  0
  1 16  1  0  0  0  0
  2 23  1  0  0  0  0
  2 24  1  0  0  0  0
  4 25  1  0  0  0  0
  4 26  1  0  0  0  0
  5  6  1  0  0  0  0
  6  3  1  6  0  0  0
  6 14  1  0  0  0  0
  7  5  1  1  0  0  0
  7  8  1  0  0  0  0
  7 12  1  0  0  0  0
  8  9  1  0  0  0  0
  9  4  1  1  0  0  0
  9 10  1  0  0  0  0
 10 11  1  0  0  0  0
 12 11  1  6  0  0  0
 12 13  1  0  0  0  0
 13 14  1  0  0  0  0
 13 17  1  6  0  0  0
 14 15  1  6  0  0  0
 15 16  1  0  0  0  0
 17 18  1  0  0  0  0
 17 22  1  0  0  0  0
 18 19  1  0  0  0  0
 19 20  1  0  0  0  0
 20 21  1  0  0  0  0
 21 22  1  0  0  0  0
M  END
>  <CHROM.1>
176.33476852,6.51221217,51.83050980,111.08901195,-76.28450093,-85.46319339
-1.84818989,1.06482909,-2.06300299

>  <Name>
ligand

>  <RI>
0

>  <Rbt.Current_Directory>
/home/itssahil/PROJECTS/Mol_Feturizer/Test_systems_manuscript/rnas/1f1t

>  <Rbt.Executable>
rbdock ($Id: //depot/dev/client3/rdock/2013.1/src/exe/rbdock.cxx#4 $)

>  <Rbt.Library>
libRbt.so (2013.1, Build901 2013/11/27)

>  <Rbt.Parameter_File>
/export/apps/rDock/src/rDock_2013.1_src/data/scripts/dock_solv.prm

>  <Rbt.Receptor>
prm/pocket_docking_4.prm

>  <SCORE>
-55.9983

>  <SCORE.INTER>
-56.4911

>  <SCORE.INTER.CONST>
1

>  <SCORE.INTER.POLAR>
0

>  <SCORE.INTER.ROT>
3

>  <SCORE.INTER.SOLV>
8.97889

>  <SCORE.INTER.VDW>
-46.2537

>  <SCORE.INTER.norm>
-2.17273

>  <SCORE.INTRA>
0.492849

>  <SCORE.INTRA.DIHEDRAL>
0.000274368

>  <SCORE.INTRA.DIHEDRAL.0>
3.60016

>  <SCORE.INTRA.POLAR>
0

>  <SCORE.INTRA.POLAR.0>
0

>  <SCORE.INTRA.REPUL>
0

>  <SCORE.INTRA.REPUL.0>
0

>  <SCORE.INTRA.SOLV>
2.01124e-05

>  <SCORE.INTRA.SOLV.lig_0>
-10.9882

>  <SCORE.INTRA.VDW>
0.492702

>  <SCORE.INTRA.VDW.0>
1.84442

>  <SCORE.INTRA.norm>
0.0189557

>  <SCORE.RESTR>
0

>  <SCORE.RESTR.CAVITY>
0

>  <SCORE.RESTR.norm>
0

>  <SCORE.SYSTEM>
0

>  <SCORE.SYSTEM.CONST>
0

>  <SCORE.SYSTEM.DIHEDRAL>
0

>  <SCORE.SYSTEM.SOLV>
0

>  <SCORE.SYSTEM.norm>
0

>  <SCORE.heavy>
26

>  <SCORE.norm>
-2.15378

>  <RMSD>
0.778

$$$$
ligand
 OpenBabel02271912153D
libRbt.so/2013.1/901 2013/11/27
 26 29  0  0  0  0  0  0  0  0999 V2000
  111.1173  -74.6782  -82.0596 C   0  0  1  0  0  0  0  0  0  0  0  0
  111.2890  -74.3108  -80.7327 N   0  0  0  0  0  0  0  0  0  0  0  0
  111.6450  -75.9475  -82.5379 C   0  0  0  0  0  0  0  0  0  0  0  0
  112.6857  -80.6221  -87.5594 N   0  0  0  0  0  0  0  0  0  0  0  0
  111.9544  -77.4786  -84.3295 O   0  0  0  0  0  0  0  0  0  0  0  0
  111.3932  -76.1693  -83.8932 C   0  0  2  0  0  0  0  0  0  0  0  0
  111.7290  -77.6679  -85.5710 C   0  0  1  0  0  0  0  0  0  0  0  0
  112.3037  -78.9731  -85.8966 C   0  0  0  0  0  0  0  0  0  0  0  0
  112.1494  -79.3542  -87.2767 C   0  0  2  0  0  0  0  0  0  0  0  0
  111.5078  -78.5264  -88.2310 C   0  0  0  0  0  0  0  0  0  0  0  0
  110.9497  -77.2449  -87.8412 C   0  0  0  0  0  0  0  0  0  0  0  0
  111.0799  -76.8490  -86.4604 C   0  0  2  0  0  0  0  0  0  0  0  0
  110.4584  -75.5106  -86.1372 C   0  0  1  0  0  0  0  0  0  0  0  0
  110.7202  -75.3235  -84.7680 C   0  0  2  0  0  0  0  0  0  0  0  0
  110.1905  -74.0538  -84.2658 C   0  0  0  0  0  0  0  0  0  0  0  0
  110.4371  -73.8003  -82.8811 C   0  0  0  0  0  0  0  0  0  0  0  0
  109.8076  -74.7343  -87.0772 C   0  0  0  0  0  0  0  0  0  0  0  0
  108.7659  -75.1746  -87.9266 C   0  0  0  0  0  0  0  0  0  0  0  0
  108.0861  -74.4004  -88.8686 C   0  0  0  0  0  0  0  0  0  0  0  0
  108.4380  -72.9984  -89.0363 C   0  0  0  0  0  0  0  0  0  0  0  0
  109.4902  -72.5923  -88.1807 C   0  0  0  0  0  0  0  0  0  0  0  0
  110.2012  -73.3335  -87.2267 C   0  0  0  0  0  0  0  0  0  0  0  0
  111.9124  -75.1988  -79.7554 C   0  0  0  0  0  0  0  0  0  0  0  0
  110.8984  -73.0226  -80.1214 C   0  0  0  0  0  0  0  0  0  0  0  0
  113.2531  -81.6678  -86.6791 C   0  0  0  0  0  0  0  0  0  0  0  0
  112.6969  -81.0602  -88.9999 C   0  0  0  0  0  0  0  0  0  0  0  0
  1  2  1  1  0  0  0
  1  3  1  0  0  0  0
  1 16  1  0  0  0  0
  2 23  1  0  0  0  0
  2 24  1  0  0  0  0
  4 25  1  0  0  0  0
  4 26  1  0  0  0  0
  5  6  1  0  0  0  0
  6  3  1  6  0  0  0
  6 14  1  0  0  0  0
  7  5  1  1  0  0  0
  7  8  1  0  0  0  0
  7 12  1  0  0  0  0
  8  9  1  0  0  0  0
  9  4  1  1  0  0  0
  9 10  1  0  0  0  0
 10 11  1  0  0  0  0
 12 11  1  6  0  0  0
 12 13  1  0  0  0  0
 13 14  1  0  0  0  0
 13 17  1  6  0  0  0
 14 15  1  6  0  0  0
 15 16  1  0  0  0  0
 17 18  1  0  0  0  0
 17 22  1  0  0  0  0
 18 19  1  0  0  0  0
 19 20  1  0  0  0  0
 20 21  1  0  0  0  0
 21 22  1  0  0  0  0
M  END
>  <CHROM.1>
-4.15510829,6.68054782,52.19320360,111.03627526,-76.26819546,-85.45852270
-1.85345421,1.05652871,-2.06580244

>  <Name>
ligand

>  <RI>
0

>  <Rbt.Current_Directory>
/home/itssahil/PROJECTS/Mol_Feturizer/Test_systems_manuscript/rnas/1f1t

>  <Rbt.Executable>
rbdock ($Id: //depot/dev/client3/rdock/2013.1/src/exe/rbdock.cxx#4 $)

>  <Rbt.Library>
libRbt.so (2013.1, Build901 2013/11/27)

>  <Rbt.Parameter_File>
/export/apps/rDock/src/rDock_2013.1_src/data/scripts/dock_solv.prm

>  <Rbt.Receptor>
prm/pocket_docking_3.prm

>  <SCORE>
-56.1724

>  <SCORE.INTER>
-56.3468

>  <SCORE.INTER.CONST>
1

>  <SCORE.INTER.POLAR>
0

>  <SCORE.INTER.ROT>
3

>  <SCORE.INTER.SOLV>
8.96303

>  <SCORE.INTER.VDW>
-46.1522

>  <SCORE.INTER.norm>
-2.16718

>  <SCORE.INTRA>
0.174444

>  <SCORE.INTRA.DIHEDRAL>
0.000261397

>  <SCORE.INTRA.DIHEDRAL.0>
3.60016

>  <SCORE.INTRA.POLAR>
0

>  <SCORE.INTRA.POLAR.0>
0

>  <SCORE.INTRA.REPUL>
0

>  <SCORE.INTRA.REPUL.0>
0

>  <SCORE.INTRA.SOLV>
2.29205e-05

>  <SCORE.INTRA.SOLV.lig_0>
-10.9882

>  <SCORE.INTRA.VDW>
0.174302

>  <SCORE.INTRA.VDW.0>
1.84442

>  <SCORE.INTRA.norm>
0.0067094

>  <SCORE.RESTR>
0

>  <SCORE.RESTR.CAVITY>
0

>  <SCORE.RESTR.norm>
0

>  <SCORE.SYSTEM>
0

>  <SCORE.SYSTEM.CONST>
0

>  <SCORE.SYSTEM.DIHEDRAL>
0

>  <SCORE.SYSTEM.SOLV>
0

>  <SCORE.SYSTEM.norm>
0

>  <SCORE.heavy>
26

>  <SCORE.norm>
-2.16048

>  <RMSD>
0.781

$$$$
ligand
 OpenBabel02271912153D
libRbt.so/2013.1/901 2013/11/27
 26 29  0  0  0  0  0  0  0  0999 V2000
  111.1852  -74.7322  -82.0658 C   0  0  1  0  0  0  0  0  0  0  0  0
  111.3637  -74.3771  -80.7364 N   0  0  0  0  0  0  0  0  0  0  0  0
  111.7077  -75.9985  -82.5577 C   0  0  0  0  0  0  0  0  0  0  0  0
  112.7150  -80.6306  -87.6252 N   0  0  0  0  0  0  0  0  0  0  0  0
  112.0056  -77.5143  -84.3642 O   0  0  0  0  0  0  0  0  0  0  0  0
  111.4495  -76.2075  -83.9138 C   0  0  2  0  0  0  0  0  0  0  0  0
  111.7743  -77.6920  -85.6063 C   0  0  1  0  0  0  0  0  0  0  0  0
  112.3443  -78.9955  -85.9461 C   0  0  0  0  0  0  0  0  0  0  0  0
  112.1831  -79.3639  -87.3288 C   0  0  2  0  0  0  0  0  0  0  0  0
  111.5393  -78.5262  -88.2728 C   0  0  0  0  0  0  0  0  0  0  0  0
  110.9861  -77.2468  -87.8692 C   0  0  0  0  0  0  0  0  0  0  0  0
  111.1233  -76.8636  -86.4855 C   0  0  2  0  0  0  0  0  0  0  0  0
  110.5065  -75.5267  -86.1476 C   0  0  1  0  0  0  0  0  0  0  0  0
  110.7747  -75.3524  -84.7780 C   0  0  2  0  0  0  0  0  0  0  0  0
  110.2504  -74.0860  -84.2622 C   0  0  0  0  0  0  0  0  0  0  0  0
  110.5037  -73.8454  -82.8764 C   0  0  0  0  0  0  0  0  0  0  0  0
  109.8535  -74.7404  -87.0778 C   0  0  0  0  0  0  0  0  0  0  0  0
  108.8039  -75.1693  -87.9232 C   0  0  0  0  0  0  0  0  0  0  0  0
  108.1218  -74.3851  -88.8552 C   0  0  0  0  0  0  0  0  0  0  0  0
  108.4800  -72.9837  -89.0155 C   0  0  0  0  0  0  0  0  0  0  0  0
  109.5400  -72.5892  -88.1642 C   0  0  0  0  0  0  0  0  0  0  0  0
  110.2535  -73.3407  -87.2203 C   0  0  0  0  0  0  0  0  0  0  0  0
  110.9225  -73.0881  -80.2109 C   0  0  0  0  0  0  0  0  0  0  0  0
  111.9889  -75.2054  -79.6834 C   0  0  0  0  0  0  0  0  0  0  0  0
  113.2526  -81.6992  -86.7537 C   0  0  0  0  0  0  0  0  0  0  0  0
  112.7564  -81.0391  -89.0737 C   0  0  0  0  0  0  0  0  0  0  0  0
  1  2  1  1  0  0  0
  1  3  1  0  0  0  0
  1 16  1  0  0  0  0
  2 23  1  0  0  0  0
  2 24  1  0  0  0  0
  4 25  1  0  0  0  0
  4 26  1  0  0  0  0
  5  6  1  0  0  0  0
  6  3  1  6  0  0  0
  6 14  1  0  0  0  0
  7  5  1  1  0  0  0
  7  8  1  0  0  0  0
  7 12  1  0  0  0  0
  8  9  1  0  0  0  0
  9  4  1  1  0  0  0
  9 10  1  0  0  0  0
 10 11  1  0  0  0  0
 12 11  1  6  0  0  0
 12 13  1  0  0  0  0
 13 14  1  0  0  0  0
 13 17  1  6  0  0  0
 14 15  1  6  0  0  0
 15 16  1  0  0  0  0
 17 18  1  0  0  0  0
 17 22  1  0  0  0  0
 18 19  1  0  0  0  0
 19 20  1  0  0  0  0
 20 21  1  0  0  0  0
 21 22  1  0  0  0  0
M  END
>  <CHROM.1>
176.64183115,8.44713849,52.43098698,111.08324683,-76.28809665,-85.47894192
-1.84743934,1.05682144,-2.06375961

>  <Name>
ligand

>  <RI>
0

>  <Rbt.Current_Directory>
/home/itssahil/PROJECTS/Mol_Feturizer/Test_systems_manuscript/rnas/1f1t

>  <Rbt.Executable>
rbdock ($Id: //depot/dev/client3/rdock/2013.1/src/exe/rbdock.cxx#4 $)

>  <Rbt.Library>
libRbt.so (2013.1, Build901 2013/11/27)

>  <Rbt.Parameter_File>
/export/apps/rDock/src/rDock_2013.1_src/data/scripts/dock_solv.prm

>  <Rbt.Receptor>
prm/pocket_docking_5.prm

>  <SCORE>
-55.936

>  <SCORE.INTER>
-56.392

>  <SCORE.INTER.CONST>
1

>  <SCORE.INTER.POLAR>
0

>  <SCORE.INTER.ROT>
3

>  <SCORE.INTER.SOLV>
8.95707

>  <SCORE.INTER.VDW>
-46.1803

>  <SCORE.INTER.norm>
-2.16892

>  <SCORE.INTRA>
0.455978

>  <SCORE.INTRA.DIHEDRAL>
0.000265011

>  <SCORE.INTRA.DIHEDRAL.0>
3.60016

>  <SCORE.INTRA.POLAR>
0

>  <SCORE.INTRA.POLAR.0>
0

>  <SCORE.INTRA.REPUL>
0

>  <SCORE.INTRA.REPUL.0>
0

>  <SCORE.INTRA.SOLV>
2.70827e-05

>  <SCORE.INTRA.SOLV.lig_0>
-10.9882

>  <SCORE.INTRA.VDW>
0.455832

>  <SCORE.INTRA.VDW.0>
1.84442

>  <SCORE.INTRA.norm>
0.0175376

>  <SCORE.RESTR>
0

>  <SCORE.RESTR.CAVITY>
0

>  <SCORE.RESTR.norm>
0

>  <SCORE.SYSTEM>
0

>  <SCORE.SYSTEM.CONST>
0

>  <SCORE.SYSTEM.DIHEDRAL>
0

>  <SCORE.SYSTEM.SOLV>
0

>  <SCORE.SYSTEM.norm>
0

>  <SCORE.heavy>
26

>  <SCORE.norm>
-2.15138

>  <RMSD>
0.783

$$$$
ligand
 OpenBabel02271912153D
libRbt.so/2013.1/901 2013/11/27
 26 29  0  0  0  0  0  0  0  0999 V2000
  111.2309  -74.6977  -81.9837 C   0  0  1  0  0  0  0  0  0  0  0  0
  111.4074  -74.3643  -80.6484 N   0  0  0  0  0  0  0  0  0  0  0  0
  111.7232  -75.9714  -82.4875 C   0  0  0  0  0  0  0  0  0  0  0  0
  112.6483  -80.5650  -87.6054 N   0  0  0  0  0  0  0  0  0  0  0  0
  111.9954  -77.4718  -84.3107 O   0  0  0  0  0  0  0  0  0  0  0  0
  111.4711  -76.1562  -83.8482 C   0  0  2  0  0  0  0  0  0  0  0  0
  111.7701  -77.6275  -85.5569 C   0  0  1  0  0  0  0  0  0  0  0  0
  112.3076  -78.9417  -85.9086 C   0  0  0  0  0  0  0  0  0  0  0  0
  112.1484  -79.2882  -87.2972 C   0  0  2  0  0  0  0  0  0  0  0  0
  111.5356  -78.4214  -88.2357 C   0  0  0  0  0  0  0  0  0  0  0  0
  111.0138  -77.1327  -87.8204 C   0  0  0  0  0  0  0  0  0  0  0  0
  111.1494  -76.7708  -86.4308 C   0  0  2  0  0  0  0  0  0  0  0  0
  110.5661  -75.4219  -86.0809 C   0  0  1  0  0  0  0  0  0  0  0  0
  110.8272  -75.2723  -84.7070 C   0  0  2  0  0  0  0  0  0  0  0  0
  110.3328  -73.9986  -84.1793 C   0  0  0  0  0  0  0  0  0  0  0  0
  110.5806  -73.7826  -82.7885 C   0  0  0  0  0  0  0  0  0  0  0  0
  109.9426  -74.6065  -87.0063 C   0  0  0  0  0  0  0  0  0  0  0  0
  110.2582  -73.2494  -87.2491 C   0  0  0  0  0  0  0  0  0  0  0  0
  109.6514  -72.4166  -88.1909 C   0  0  0  0  0  0  0  0  0  0  0  0
  108.5869  -72.9399  -89.0339 C   0  0  0  0  0  0  0  0  0  0  0  0
  108.2876  -74.2959  -88.7586 C   0  0  0  0  0  0  0  0  0  0  0  0
  108.8660  -75.1654  -87.8236 C   0  0  0  0  0  0  0  0  0  0  0  0
  110.9706  -73.0818  -80.1038 C   0  0  0  0  0  0  0  0  0  0  0  0
  112.0262  -75.2119  -79.6070 C   0  0  0  0  0  0  0  0  0  0  0  0
  113.2112  -81.6330  -86.7493 C   0  0  0  0  0  0  0  0  0  0  0  0
  112.6166  -80.9874  -89.0502 C   0  0  0  0  0  0  0  0  0  0  0  0
  1  2  1  1  0  0  0
  1  3  1  0  0  0  0
  1 16  1  0  0  0  0
  2 23  1  0  0  0  0
  2 24  1  0  0  0  0
  4 25  1  0  0  0  0
  4 26  1  0  0  0  0
  5  6  1  0  0  0  0
  6  3  1  6  0  0  0
  6 14  1  0  0  0  0
  7  5  1  1  0  0  0
  7  8  1  0  0  0  0
  7 12  1  0  0  0  0
  8  9  1  0  0  0  0
  9  4  1  1  0  0  0
  9 10  1  0  0  0  0
 10 11  1  0  0  0  0
 12 11  1  6  0  0  0
 12 13  1  0  0  0  0
 13 14  1  0  0  0  0
 13 17  1  6  0  0  0
 14 15  1  6  0  0  0
 15 16  1  0  0  0  0
 17 18  1  0  0  0  0
 17 22  1  0  0  0  0
 18 19  1  0  0  0  0
 19 20  1  0  0  0  0
 20 21  1  0  0  0  0
 21 22  1  0  0  0  0
M  END
>  <CHROM.1>
177.99282597,4.96627150,-127.35950909,111.10885271,-76.22361720,-85.42688117
-1.81666900,1.07927661,-2.06514863

>  <Name>
ligand

>  <RI>
0

>  <Rbt.Current_Directory>
/home/itssahil/PROJECTS/Mol_Feturizer/Test_systems_manuscript/rnas/1f1t

>  <Rbt.Executable>
rbdock ($Id: //depot/dev/client3/rdock/2013.1/src/exe/rbdock.cxx#4 $)

>  <Rbt.Library>
libRbt.so (2013.1, Build901 2013/11/27)

>  <Rbt.Parameter_File>
/export/apps/rDock/src/rDock_2013.1_src/data/scripts/dock_solv.prm

>  <Rbt.Receptor>
prm/pocket_docking_4.prm

>  <SCORE>
-56.1351

>  <SCORE.INTER>
-56.7196

>  <SCORE.INTER.CONST>
1

>  <SCORE.INTER.POLAR>
0

>  <SCORE.INTER.ROT>
3

>  <SCORE.INTER.SOLV>
9.06671

>  <SCORE.INTER.VDW>
-46.4353

>  <SCORE.INTER.norm>
-2.18152

>  <SCORE.INTRA>
0.584525

>  <SCORE.INTRA.DIHEDRAL>
5.70846e-07

>  <SCORE.INTRA.DIHEDRAL.0>
3.60016

>  <SCORE.INTRA.POLAR>
0

>  <SCORE.INTRA.POLAR.0>
0

>  <SCORE.INTRA.REPUL>
0

>  <SCORE.INTRA.REPUL.0>
0

>  <SCORE.INTRA.SOLV>
1.01877e-05

>  <SCORE.INTRA.SOLV.lig_0>
-10.9882

>  <SCORE.INTRA.VDW>
0.58452

>  <SCORE.INTRA.VDW.0>
1.84442

>  <SCORE.INTRA.norm>
0.0224817

>  <SCORE.RESTR>
0

>  <SCORE.RESTR.CAVITY>
0

>  <SCORE.RESTR.norm>
0

>  <SCORE.SYSTEM>
0

>  <SCORE.SYSTEM.CONST>
0

>  <SCORE.SYSTEM.DIHEDRAL>
0

>  <SCORE.SYSTEM.SOLV>
0

>  <SCORE.SYSTEM.norm>
0

>  <SCORE.heavy>
26

>  <SCORE.norm>
-2.15904

>  <RMSD>
0.784

$$$$
ligand
 OpenBabel02271912153D
libRbt.so/2013.1/901 2013/11/27
 26 29  0  0  0  0  0  0  0  0999 V2000
  111.1566  -74.6812  -82.0660 C   0  0  1  0  0  0  0  0  0  0  0  0
  111.3289  -74.3154  -80.7387 N   0  0  0  0  0  0  0  0  0  0  0  0
  111.6757  -75.9543  -82.5438 C   0  0  0  0  0  0  0  0  0  0  0  0
  112.6898  -80.6353  -87.5648 N   0  0  0  0  0  0  0  0  0  0  0  0
  111.9766  -77.4872  -84.3352 O   0  0  0  0  0  0  0  0  0  0  0  0
  111.4244  -76.1739  -83.8995 C   0  0  2  0  0  0  0  0  0  0  0  0
  111.7518  -77.6746  -85.5771 C   0  0  1  0  0  0  0  0  0  0  0  0
  112.3174  -78.9838  -85.9022 C   0  0  0  0  0  0  0  0  0  0  0  0
  112.1624  -79.3635  -87.2826 C   0  0  2  0  0  0  0  0  0  0  0  0
  111.5284  -78.5308  -88.2376 C   0  0  0  0  0  0  0  0  0  0  0  0
  110.9791  -77.2453  -87.8485 C   0  0  0  0  0  0  0  0  0  0  0  0
  111.1100  -76.8508  -86.4673 C   0  0  2  0  0  0  0  0  0  0  0  0
  110.4979  -75.5079  -86.1448 C   0  0  1  0  0  0  0  0  0  0  0  0
  110.7590  -75.3230  -84.7751 C   0  0  2  0  0  0  0  0  0  0  0  0
  110.2378  -74.0496  -84.2734 C   0  0  0  0  0  0  0  0  0  0  0  0
  110.4841  -73.7982  -82.8883 C   0  0  0  0  0  0  0  0  0  0  0  0
  109.8542  -74.7265  -87.0856 C   0  0  0  0  0  0  0  0  0  0  0  0
  108.8161  -75.1612  -87.9421 C   0  0  0  0  0  0  0  0  0  0  0  0
  108.1434  -74.3819  -88.8851 C   0  0  0  0  0  0  0  0  0  0  0  0
  108.5000  -72.9803  -89.0460 C   0  0  0  0  0  0  0  0  0  0  0  0
  109.5485  -72.5800  -88.1833 C   0  0  0  0  0  0  0  0  0  0  0  0
  110.2524  -73.3263  -87.2281 C   0  0  0  0  0  0  0  0  0  0  0  0
  111.9801  -75.1925  -79.7697 C   0  0  0  0  0  0  0  0  0  0  0  0
  110.9122  -73.0394  -80.1191 C   0  0  0  0  0  0  0  0  0  0  0  0
  113.2325  -81.6921  -86.6822 C   0  0  0  0  0  0  0  0  0  0  0  0
  112.7191  -81.0647  -89.0076 C   0  0  0  0  0  0  0  0  0  0  0  0
  1  2  1  1  0  0  0
  1  3  1  0  0  0  0
  1 16  1  0  0  0  0
  2 23  1  0  0  0  0
  2 24  1  0  0  0  0
  4 25  1  0  0  0  0
  4 26  1  0  0  0  0
  5  6  1  0  0  0  0
  6  3  1  6  0  0  0
  6 14  1  0  0  0  0
  7  5  1  1  0  0  0
  7  8  1  0  0  0  0
  7 12  1  0  0  0  0
  8  9  1  0  0  0  0
  9  4  1  1  0  0  0
  9 10  1  0  0  0  0
 10 11  1  0  0  0  0
 12 11  1  6  0  0  0
 12 13  1  0  0  0  0
 13 14  1  0  0  0  0
 13 17  1  6  0  0  0
 14 15  1  6  0  0  0
 15 16  1  0  0  0  0
 17 18  1  0  0  0  0
 17 22  1  0  0  0  0
 18 19  1  0  0  0  0
 19 20  1  0  0  0  0
 20 21  1  0  0  0  0
 21 22  1  0  0  0  0
M  END
>  <CHROM.1>
-2.29641215,7.57231530,51.79911026,111.06930306,-76.26971913,-85.46538423
-1.84965537,1.06319637,-2.06891467

>  <Name>
ligand

>  <RI>
0

>  <Rbt.Current_Directory>
/home/itssahil/PROJECTS/Mol_Feturizer/Test_systems_manuscript/rnas/1f1t

>  <Rbt.Executable>
rbdock ($Id: //depot/dev/client3/rdock/2013.1/src/exe/rbdock.cxx#4 $)

>  <Rbt.Library>
libRbt.so (2013.1, Build901 2013/11/27)

>  <Rbt.Parameter_File>
/export/apps/rDock/src/rDock_2013.1_src/data/scripts/dock_solv.prm

>  <Rbt.Receptor>
prm/pocket_docking_5.prm

>  <SCORE>
-56.2863

>  <SCORE.INTER>
-56.4733

>  <SCORE.INTER.CONST>
1

>  <SCORE.INTER.POLAR>
0

>  <SCORE.INTER.ROT>
3

>  <SCORE.INTER.SOLV>
8.97994

>  <SCORE.INTER.VDW>
-46.2422

>  <SCORE.INTER.norm>
-2.17205

>  <SCORE.INTRA>
0.186943

>  <SCORE.INTRA.DIHEDRAL>
0.000254919

>  <SCORE.INTRA.DIHEDRAL.0>
3.60016

>  <SCORE.INTRA.POLAR>
0

>  <SCORE.INTRA.POLAR.0>
0

>  <SCORE.INTRA.REPUL>
0

>  <SCORE.INTRA.REPUL.0>
0

>  <SCORE.INTRA.SOLV>
2.05068e-05

>  <SCORE.INTRA.SOLV.lig_0>
-10.9882

>  <SCORE.INTRA.VDW>
0.186805

>  <SCORE.INTRA.VDW.0>
1.84442

>  <SCORE.INTRA.norm>
0.00719011

>  <SCORE.RESTR>
0

>  <SCORE.RESTR.CAVITY>
0

>  <SCORE.RESTR.norm>
0

>  <SCORE.SYSTEM>
0

>  <SCORE.SYSTEM.CONST>
0

>  <SCORE.SYSTEM.DIHEDRAL>
0

>  <SCORE.SYSTEM.SOLV>
0

>  <SCORE.SYSTEM.norm>
0

>  <SCORE.heavy>
26

>  <SCORE.norm>
-2.16486

>  <RMSD>
0.787

$$$$
ligand
 OpenBabel02271912153D
libRbt.so/2013.1/901 2013/11/27
 26 29  0  0  0  0  0  0  0  0999 V2000
  112.2369  -79.4942  -87.1251 C   0  0  1  0  0  0  0  0  0  0  0  0
  112.7701  -80.7224  -87.4890 N   0  0  0  0  0  0  0  0  0  0  0  0
  112.3567  -79.0263  -85.7521 C   0  0  0  0  0  0  0  0  0  0  0  0
  111.2472  -74.2986  -80.7955 N   0  0  0  0  0  0  0  0  0  0  0  0
  111.9183  -77.3477  -84.1274 O   0  0  0  0  0  0  0  0  0  0  0  0
  111.7682  -77.7771  -85.5461 C   0  0  2  0  0  0  0  0  0  0  0  0
  111.3688  -76.2106  -83.9460 C   0  0  1  0  0  0  0  0  0  0  0  0
  111.5786  -75.8748  -82.5379 C   0  0  0  0  0  0  0  0  0  0  0  0
  111.0102  -74.6114  -82.1450 C   0  0  2  0  0  0  0  0  0  0  0  0
  110.3009  -73.7793  -83.0461 C   0  0  0  0  0  0  0  0  0  0  0  0
  110.1353  -74.1661  -84.4348 C   0  0  0  0  0  0  0  0  0  0  0  0
  110.7091  -75.4212  -84.8542 C   0  0  2  0  0  0  0  0  0  0  0  0
  110.5047  -75.7392  -86.3167 C   0  0  1  0  0  0  0  0  0  0  0  0
  111.1157  -76.9939  -86.4918 C   0  0  2  0  0  0  0  0  0  0  0  0
  111.0118  -77.4791  -87.8698 C   0  0  0  0  0  0  0  0  0  0  0  0
  111.6038  -78.7579  -88.1076 C   0  0  0  0  0  0  0  0  0  0  0  0
  109.8379  -74.8968  -87.1860 C   0  0  0  0  0  0  0  0  0  0  0  0
  108.8072  -75.2826  -88.0744 C   0  0  0  0  0  0  0  0  0  0  0  0
  108.1115  -74.4429  -88.9459 C   0  0  0  0  0  0  0  0  0  0  0  0
  108.4325  -73.0241  -88.9874 C   0  0  0  0  0  0  0  0  0  0  0  0
  109.4746  -72.6728  -88.0959 C   0  0  0  0  0  0  0  0  0  0  0  0
  110.2007  -73.4800  -87.2094 C   0  0  0  0  0  0  0  0  0  0  0  0
  113.2812  -81.6701  -86.5027 C   0  0  0  0  0  0  0  0  0  0  0  0
  112.8942  -81.2524  -88.8636 C   0  0  0  0  0  0  0  0  0  0  0  0
  111.8624  -75.0795  -79.6991 C   0  0  0  0  0  0  0  0  0  0  0  0
  110.8384  -72.9286  -80.3234 C   0  0  0  0  0  0  0  0  0  0  0  0
  1  2  1  6  0  0  0
  1  3  1  0  0  0  0
  1 16  1  0  0  0  0
  2 23  1  0  0  0  0
  2 24  1  0  0  0  0
  4 25  1  0  0  0  0
  4 26  1  0  0  0  0
  5  6  1  0  0  0  0
  6  3  1  1  0  0  0
  6 14  1  0  0  0  0
  7  5  1  6  0  0  0
  7  8  1  0  0  0  0
  7 12  1  0  0  0  0
  8  9  1  0  0  0  0
  9  4  1  6  0  0  0
  9 10  1  0  0  0  0
 10 11  1  0  0  0  0
 12 11  1  1  0  0  0
 12 13  1  0  0  0  0
 13 14  1  0  0  0  0
 13 17  1  1  0  0  0
 14 15  1  1  0  0  0
 15 16  1  0  0  0  0
 17 18  1  0  0  0  0
 17 22  1  0  0  0  0
 18 19  1  0  0  0  0
 19 20  1  0  0  0  0
 20 21  1  0  0  0  0
 21 22  1  0  0  0  0
M  END
>  <CHROM.1>
9.35284234,-6.16240105,-130.95922940,111.04498121,-76.32973138,-85.46029221
-1.23186629,-1.05116770,1.07625431

>  <Name>
ligand

>  <RI>
0

>  <Rbt.Current_Directory>
/home/itssahil/PROJECTS/Mol_Feturizer/Test_systems_manuscript/rnas/1f1t

>  <Rbt.Executable>
rbdock ($Id: //depot/dev/client3/rdock/2013.1/src/exe/rbdock.cxx#4 $)

>  <Rbt.Library>
libRbt.so (2013.1, Build901 2013/11/27)

>  <Rbt.Parameter_File>
/export/apps/rDock/src/rDock_2013.1_src/data/scripts/dock_solv.prm

>  <Rbt.Receptor>
prm/pocket_docking_3.prm

>  <SCORE>
-55.9819

>  <SCORE.INTER>
-56.3072

>  <SCORE.INTER.CONST>
1

>  <SCORE.INTER.POLAR>
0

>  <SCORE.INTER.ROT>
3

>  <SCORE.INTER.SOLV>
8.88467

>  <SCORE.INTER.VDW>
-46.0997

>  <SCORE.INTER.norm>
-2.16566

>  <SCORE.INTRA>
0.325366

>  <SCORE.INTRA.DIHEDRAL>
-5.10771e-06

>  <SCORE.INTRA.DIHEDRAL.0>
3.60016

>  <SCORE.INTRA.POLAR>
0

>  <SCORE.INTRA.POLAR.0>
0

>  <SCORE.INTRA.REPUL>
0

>  <SCORE.INTRA.REPUL.0>
0

>  <SCORE.INTRA.SOLV>
3.86023e-05

>  <SCORE.INTRA.SOLV.lig_0>
-10.9882

>  <SCORE.INTRA.VDW>
0.325349

>  <SCORE.INTRA.VDW.0>
1.84442

>  <SCORE.INTRA.norm>
0.0125141

>  <SCORE.RESTR>
0

>  <SCORE.RESTR.CAVITY>
0

>  <SCORE.RESTR.norm>
0

>  <SCORE.SYSTEM>
0

>  <SCORE.SYSTEM.CONST>
0

>  <SCORE.SYSTEM.DIHEDRAL>
0

>  <SCORE.SYSTEM.SOLV>
0

>  <SCORE.SYSTEM.norm>
0

>  <SCORE.heavy>
26

>  <SCORE.norm>
-2.15315

>  <RMSD>
0.788

$$$$
ligand
 OpenBabel02271912153D
libRbt.so/2013.1/901 2013/11/27
 26 29  0  0  0  0  0  0  0  0999 V2000
  111.1649  -74.6806  -82.0747 C   0  0  1  0  0  0  0  0  0  0  0  0
  111.3463  -74.3147  -80.7486 N   0  0  0  0  0  0  0  0  0  0  0  0
  111.6898  -75.9490  -82.5584 C   0  0  0  0  0  0  0  0  0  0  0  0
  112.6960  -80.6169  -87.5931 N   0  0  0  0  0  0  0  0  0  0  0  0
  111.9868  -77.4777  -84.3541 O   0  0  0  0  0  0  0  0  0  0  0  0
  111.4281  -76.1693  -83.9121 C   0  0  2  0  0  0  0  0  0  0  0  0
  111.7523  -77.6657  -85.5941 C   0  0  1  0  0  0  0  0  0  0  0  0
  112.3254  -78.9701  -85.9256 C   0  0  0  0  0  0  0  0  0  0  0  0
  112.1611  -79.3497  -87.3049 C   0  0  2  0  0  0  0  0  0  0  0  0
  111.5118  -78.5212  -88.2534 C   0  0  0  0  0  0  0  0  0  0  0  0
  110.9558  -77.2405  -87.8579 C   0  0  0  0  0  0  0  0  0  0  0  0
  111.0960  -76.8462  -86.4777 C   0  0  2  0  0  0  0  0  0  0  0  0
  110.4761  -75.5086  -86.1482 C   0  0  1  0  0  0  0  0  0  0  0  0
  110.7480  -75.3229  -84.7808 C   0  0  2  0  0  0  0  0  0  0  0  0
  110.2213  -74.0542  -84.2731 C   0  0  0  0  0  0  0  0  0  0  0  0
  110.4781  -73.8022  -82.8900 C   0  0  0  0  0  0  0  0  0  0  0  0
  109.8178  -74.7315  -87.0824 C   0  0  0  0  0  0  0  0  0  0  0  0
  108.7759  -75.1737  -87.9305 C   0  0  0  0  0  0  0  0  0  0  0  0
  108.0886  -74.3990  -88.8666 C   0  0  0  0  0  0  0  0  0  0  0  0
  108.4320  -72.9942  -89.0288 C   0  0  0  0  0  0  0  0  0  0  0  0
  109.4847  -72.5863  -88.1747 C   0  0  0  0  0  0  0  0  0  0  0  0
  110.2030  -73.3279  -87.2266 C   0  0  0  0  0  0  0  0  0  0  0  0
  111.9844  -75.2005  -79.7789 C   0  0  0  0  0  0  0  0  0  0  0  0
  110.9527  -73.0303  -80.1312 C   0  0  0  0  0  0  0  0  0  0  0  0
  113.2194  -81.6859  -86.7136 C   0  0  0  0  0  0  0  0  0  0  0  0
  112.7586  -81.0257  -89.0409 C   0  0  0  0  0  0  0  0  0  0  0  0
  1  2  1  1  0  0  0
  1  3  1  0  0  0  0
  1 16  1  0  0  0  0
  2 23  1  0  0  0  0
  2 24  1  0  0  0  0
  4 25  1  0  0  0  0
  4 26  1  0  0  0  0
  5  6  1  0  0  0  0
  6  3  1  6  0  0  0
  6 14  1  0  0  0  0
  7  5  1  1  0  0  0
  7  8  1  0  0  0  0
  7 12  1  0  0  0  0
  8  9  1  0  0  0  0
  9  4  1  1  0  0  0
  9 10  1  0  0  0  0
 10 11  1  0  0  0  0
 12 11  1  6  0  0  0
 12 13  1  0  0  0  0
 13 14  1  0  0  0  0
 13 17  1  6  0  0  0
 14 15  1  6  0  0  0
 15 16  1  0  0  0  0
 17 18  1  0  0  0  0
 17 22  1  0  0  0  0
 18 19  1  0  0  0  0
 19 20  1  0  0  0  0
 20 21  1  0  0  0  0
 21 22  1  0  0  0  0
M  END
>  <CHROM.1>
-3.79742068,9.59123364,51.76923314,111.05997209,-76.26634040,-85.47482923
-1.84246639,1.05278315,-2.07407015

>  <Name>
ligand

>  <RI>
0

>  <Rbt.Current_Directory>
/home/itssahil/PROJECTS/Mol_Feturizer/Test_systems_manuscript/rnas/1f1t

>  <Rbt.Executable>
rbdock ($Id: //depot/dev/client3/rdock/2013.1/src/exe/rbdock.cxx#4 $)

>  <Rbt.Library>
libRbt.so (2013.1, Build901 2013/11/27)

>  <Rbt.Parameter_File>
/export/apps/rDock/src/rDock_2013.1_src/data/scripts/dock_solv.prm

>  <Rbt.Receptor>
prm/pocket_docking_3.prm

>  <SCORE>
-56.2347

>  <SCORE.INTER>
-56.3838

>  <SCORE.INTER.CONST>
1

>  <SCORE.INTER.POLAR>
0

>  <SCORE.INTER.ROT>
3

>  <SCORE.INTER.SOLV>
8.95427

>  <SCORE.INTER.VDW>
-46.174

>  <SCORE.INTER.norm>
-2.16861

>  <SCORE.INTRA>
0.149105

>  <SCORE.INTRA.DIHEDRAL>
0.000241339

>  <SCORE.INTRA.DIHEDRAL.0>
3.60016

>  <SCORE.INTRA.POLAR>
0

>  <SCORE.INTRA.POLAR.0>
0

>  <SCORE.INTRA.REPUL>
0

>  <SCORE.INTRA.REPUL.0>
0

>  <SCORE.INTRA.SOLV>
3.44394e-05

>  <SCORE.INTRA.SOLV.lig_0>
-10.9882

>  <SCORE.INTRA.VDW>
0.148967

>  <SCORE.INTRA.VDW.0>
1.84442

>  <SCORE.INTRA.norm>
0.00573479

>  <SCORE.RESTR>
0

>  <SCORE.RESTR.CAVITY>
0

>  <SCORE.RESTR.norm>
0

>  <SCORE.SYSTEM>
0

>  <SCORE.SYSTEM.CONST>
0

>  <SCORE.SYSTEM.DIHEDRAL>
0

>  <SCORE.SYSTEM.SOLV>
0

>  <SCORE.SYSTEM.norm>
0

>  <SCORE.heavy>
26

>  <SCORE.norm>
-2.16287

>  <RMSD>
0.789

$$$$
ligand
 OpenBabel02271912153D
libRbt.so/2013.1/901 2013/11/27
 26 29  0  0  0  0  0  0  0  0999 V2000
  111.1532  -74.6456  -82.0987 C   0  0  1  0  0  0  0  0  0  0  0  0
  111.3302  -74.2654  -80.7760 N   0  0  0  0  0  0  0  0  0  0  0  0
  111.6753  -75.9214  -82.5657 C   0  0  0  0  0  0  0  0  0  0  0  0
  112.6854  -80.6498  -87.5429 N   0  0  0  0  0  0  0  0  0  0  0  0
  111.9743  -77.4715  -84.3427 O   0  0  0  0  0  0  0  0  0  0  0  0
  111.4187  -76.1560  -83.9180 C   0  0  2  0  0  0  0  0  0  0  0  0
  111.7444  -77.6726  -85.5815 C   0  0  1  0  0  0  0  0  0  0  0  0
  112.3139  -78.9828  -85.8957 C   0  0  0  0  0  0  0  0  0  0  0  0
  112.1542  -79.3773  -87.2714 C   0  0  2  0  0  0  0  0  0  0  0  0
  111.5123  -78.5571  -88.2320 C   0  0  0  0  0  0  0  0  0  0  0  0
  110.9596  -77.2698  -87.8536 C   0  0  0  0  0  0  0  0  0  0  0  0
  111.0953  -76.8605  -86.4772 C   0  0  2  0  0  0  0  0  0  0  0  0
  110.4792  -75.5169  -86.1656 C   0  0  1  0  0  0  0  0  0  0  0  0
  110.7458  -75.3168  -84.7992 C   0  0  2  0  0  0  0  0  0  0  0  0
  110.2218  -74.0404  -84.3082 C   0  0  0  0  0  0  0  0  0  0  0  0
  110.4735  -73.7738  -82.9269 C   0  0  0  0  0  0  0  0  0  0  0  0
  109.8281  -74.7479  -87.1115 C   0  0  0  0  0  0  0  0  0  0  0  0
  108.8160  -75.2061  -87.9868 C   0  0  0  0  0  0  0  0  0  0  0  0
  108.1360  -74.4400  -88.9352 C   0  0  0  0  0  0  0  0  0  0  0  0
  108.4549  -73.0277  -89.0818 C   0  0  0  0  0  0  0  0  0  0  0  0
  109.4782  -72.6036  -88.2004 C   0  0  0  0  0  0  0  0  0  0  0  0
  110.1883  -73.3360  -87.2391 C   0  0  0  0  0  0  0  0  0  0  0  0
  112.0046  -75.1227  -79.8052 C   0  0  0  0  0  0  0  0  0  0  0  0
  110.8964  -72.9916  -80.1638 C   0  0  0  0  0  0  0  0  0  0  0  0
  113.2126  -81.7057  -86.6499 C   0  0  0  0  0  0  0  0  0  0  0  0
  112.7384  -81.0814  -88.9844 C   0  0  0  0  0  0  0  0  0  0  0  0
  1  2  1  1  0  0  0
  1  3  1  0  0  0  0
  1 16  1  0  0  0  0
  2 23  1  0  0  0  0
  2 24  1  0  0  0  0
  4 25  1  0  0  0  0
  4 26  1  0  0  0  0
  5  6  1  0  0  0  0
  6  3  1  6  0  0  0
  6 14  1  0  0  0  0
  7  5  1  1  0  0  0
  7  8  1  0  0  0  0
  7 12  1  0  0  0  0
  8  9  1  0  0  0  0
  9  4  1  1  0  0  0
  9 10  1  0  0  0  0
 10 11  1  0  0  0  0
 12 11  1  6  0  0  0
 12 13  1  0  0  0  0
 13 14  1  0  0  0  0
 13 17  1  6  0  0  0
 14 15  1  6  0  0  0
 15 16  1  0  0  0  0
 17 18  1  0  0  0  0
 17 22  1  0  0  0  0
 18 19  1  0  0  0  0
 19 20  1  0  0  0  0
 20 21  1  0  0  0  0
 21 22  1  0  0  0  0
M  END
>  <CHROM.1>
-1.49083348,8.91989657,49.74794667,111.05675730,-76.26925500,-85.48096142
-1.84613068,1.05724476,-2.08248822

>  <Name>
ligand

>  <RI>
0

>  <Rbt.Current_Directory>
/home/itssahil/PROJECTS/Mol_Feturizer/Test_systems_manuscript/rnas/1f1t

>  <Rbt.Executable>
rbdock ($Id: //depot/dev/client3/rdock/2013.1/src/exe/rbdock.cxx#4 $)

>  <Rbt.Library>
libRbt.so (2013.1, Build901 2013/11/27)

>  <Rbt.Parameter_File>
/export/apps/rDock/src/rDock_2013.1_src/data/scripts/dock_solv.prm

>  <Rbt.Receptor>
prm/pocket_docking_2.prm

>  <SCORE>
-56.243

>  <SCORE.INTER>
-56.4724

>  <SCORE.INTER.CONST>
1

>  <SCORE.INTER.POLAR>
0

>  <SCORE.INTER.ROT>
3

>  <SCORE.INTER.SOLV>
8.94344

>  <SCORE.INTER.VDW>
-46.2294

>  <SCORE.INTER.norm>
-2.17201

>  <SCORE.INTRA>
0.229382

>  <SCORE.INTRA.DIHEDRAL>
0.000238223

>  <SCORE.INTRA.DIHEDRAL.0>
3.60016

>  <SCORE.INTRA.POLAR>
0

>  <SCORE.INTRA.POLAR.0>
0

>  <SCORE.INTRA.REPUL>
0

>  <SCORE.INTRA.REPUL.0>
0

>  <SCORE.INTRA.SOLV>
2.49339e-05

>  <SCORE.INTRA.SOLV.lig_0>
-10.9882

>  <SCORE.INTRA.VDW>
0.22925

>  <SCORE.INTRA.VDW.0>
1.84442

>  <SCORE.INTRA.norm>
0.00882238

>  <SCORE.RESTR>
0

>  <SCORE.RESTR.CAVITY>
0

>  <SCORE.RESTR.norm>
0

>  <SCORE.SYSTEM>
0

>  <SCORE.SYSTEM.CONST>
0

>  <SCORE.SYSTEM.DIHEDRAL>
0

>  <SCORE.SYSTEM.SOLV>
0

>  <SCORE.SYSTEM.norm>
0

>  <SCORE.heavy>
26

>  <SCORE.norm>
-2.16319

>  <RMSD>
0.801

$$$$
ligand
 OpenBabel02271912153D
libRbt.so/2013.1/901 2013/11/27
 26 29  0  0  0  0  0  0  0  0999 V2000
  112.2279  -79.4536  -87.1226 C   0  0  1  0  0  0  0  0  0  0  0  0
  112.7530  -80.6849  -87.4877 N   0  0  0  0  0  0  0  0  0  0  0  0
  112.3456  -78.9905  -85.7478 C   0  0  0  0  0  0  0  0  0  0  0  0
  111.2522  -74.2683  -80.7824 N   0  0  0  0  0  0  0  0  0  0  0  0
  111.9135  -77.3131  -84.1201 O   0  0  0  0  0  0  0  0  0  0  0  0
  111.7660  -77.7373  -85.5407 C   0  0  2  0  0  0  0  0  0  0  0  0
  111.3721  -76.1722  -83.9378 C   0  0  1  0  0  0  0  0  0  0  0  0
  111.5786  -75.8421  -82.5278 C   0  0  0  0  0  0  0  0  0  0  0  0
  111.0185  -74.5754  -82.1337 C   0  0  2  0  0  0  0  0  0  0  0  0
  110.3195  -73.7352  -83.0354 C   0  0  0  0  0  0  0  0  0  0  0  0
  110.1568  -74.1167  -84.4260 C   0  0  0  0  0  0  0  0  0  0  0  0
  110.7225  -75.3751  -84.8464 C   0  0  2  0  0  0  0  0  0  0  0  0
  110.5218  -75.6874  -86.3108 C   0  0  1  0  0  0  0  0  0  0  0  0
  111.1237  -76.9464  -86.4869 C   0  0  2  0  0  0  0  0  0  0  0  0
  111.0218  -77.4268  -87.8666 C   0  0  0  0  0  0  0  0  0  0  0  0
  111.6048  -78.7096  -88.1056 C   0  0  0  0  0  0  0  0  0  0  0  0
  109.8653  -74.8374  -87.1805 C   0  0  0  0  0  0  0  0  0  0  0  0
  108.7916  -75.1984  -88.0274 C   0  0  0  0  0  0  0  0  0  0  0  0
  108.1060  -74.3498  -88.8984 C   0  0  0  0  0  0  0  0  0  0  0  0
  108.4867  -72.9479  -88.9851 C   0  0  0  0  0  0  0  0  0  0  0  0
  109.5703  -72.6217  -88.1345 C   0  0  0  0  0  0  0  0  0  0  0  0
  110.2881  -73.4389  -87.2503 C   0  0  0  0  0  0  0  0  0  0  0  0
  112.8577  -81.1015  -88.8833 C   0  0  0  0  0  0  0  0  0  0  0  0
  113.2756  -81.7219  -86.5727 C   0  0  0  0  0  0  0  0  0  0  0  0
  111.8742  -75.0498  -79.6903 C   0  0  0  0  0  0  0  0  0  0  0  0
  110.8307  -72.9048  -80.3024 C   0  0  0  0  0  0  0  0  0  0  0  0
  1  2  1  6  0  0  0
  1  3  1  0  0  0  0
  1 16  1  0  0  0  0
  2 23  1  0  0  0  0
  2 24  1  0  0  0  0
  4 25  1  0  0  0  0
  4 26  1  0  0  0  0
  5  6  1  0  0  0  0
  6  3  1  1  0  0  0
  6 14  1  0  0  0  0
  7  5  1  6  0  0  0
  7  8  1  0  0  0  0
  7 12  1  0  0  0  0
  8  9  1  0  0  0  0
  9  4  1  6  0  0  0
  9 10  1  0  0  0  0
 10 11  1  0  0  0  0
 12 11  1  1  0  0  0
 12 13  1  0  0  0  0
 13 14  1  0  0  0  0
 13 17  1  1  0  0  0
 14 15  1  1  0  0  0
 15 16  1  0  0  0  0
 17 18  1  0  0  0  0
 17 22  1  0  0  0  0
 18 19  1  0  0  0  0
 19 20  1  0  0  0  0
 20 21  1  0  0  0  0
 21 22  1  0  0  0  0
M  END
>  <CHROM.1>
-169.81457380,-5.14749478,-127.69633839,111.05418019,-76.28331900,-85.45814255
-1.23199099,-1.05958567,1.08127458

>  <Name>
ligand

>  <RI>
0

>  <Rbt.Current_Directory>
/home/itssahil/PROJECTS/Mol_Feturizer/Test_systems_manuscript/rnas/1f1t

>  <Rbt.Executable>
rbdock ($Id: //depot/dev/client3/rdock/2013.1/src/exe/rbdock.cxx#4 $)

>  <Rbt.Library>
libRbt.so (2013.1, Build901 2013/11/27)

>  <Rbt.Parameter_File>
/export/apps/rDock/src/rDock_2013.1_src/data/scripts/dock_solv.prm

>  <Rbt.Receptor>
prm/pocket_docking_2.prm

>  <SCORE>
-55.6509

>  <SCORE.INTER>
-56.1332

>  <SCORE.INTER.CONST>
1

>  <SCORE.INTER.POLAR>
0

>  <SCORE.INTER.ROT>
3

>  <SCORE.INTER.SOLV>
8.92401

>  <SCORE.INTER.VDW>
-45.9968

>  <SCORE.INTER.norm>
-2.15897

>  <SCORE.INTRA>
0.482297

>  <SCORE.INTRA.DIHEDRAL>
-1.10838e-06

>  <SCORE.INTRA.DIHEDRAL.0>
3.60016

>  <SCORE.INTRA.POLAR>
0

>  <SCORE.INTRA.POLAR.0>
0

>  <SCORE.INTRA.REPUL>
0

>  <SCORE.INTRA.REPUL.0>
0

>  <SCORE.INTRA.SOLV>
4.42487e-05

>  <SCORE.INTRA.SOLV.lig_0>
-10.9882

>  <SCORE.INTRA.VDW>
0.482276

>  <SCORE.INTRA.VDW.0>
1.84442

>  <SCORE.INTRA.norm>
0.0185499

>  <SCORE.RESTR>
0

>  <SCORE.RESTR.CAVITY>
0

>  <SCORE.RESTR.norm>
0

>  <SCORE.SYSTEM>
0

>  <SCORE.SYSTEM.CONST>
0

>  <SCORE.SYSTEM.DIHEDRAL>
0

>  <SCORE.SYSTEM.SOLV>
0

>  <SCORE.SYSTEM.norm>
0

>  <SCORE.heavy>
26

>  <SCORE.norm>
-2.14042

>  <RMSD>
0.802

$$$$
ligand
 OpenBabel02271912153D
libRbt.so/2013.1/901 2013/11/27
 26 29  0  0  0  0  0  0  0  0999 V2000
  111.1449  -74.6690  -82.1056 C   0  0  1  0  0  0  0  0  0  0  0  0
  111.3228  -74.2965  -80.7809 N   0  0  0  0  0  0  0  0  0  0  0  0
  111.6776  -75.9364  -82.5835 C   0  0  0  0  0  0  0  0  0  0  0  0
  112.7156  -80.6195  -87.5976 N   0  0  0  0  0  0  0  0  0  0  0  0
  111.9852  -77.4709  -84.3724 O   0  0  0  0  0  0  0  0  0  0  0  0
  111.4185  -76.1638  -83.9364 C   0  0  2  0  0  0  0  0  0  0  0  0
  111.7530  -77.6654  -85.6118 C   0  0  1  0  0  0  0  0  0  0  0  0
  112.3339  -78.9679  -85.9373 C   0  0  0  0  0  0  0  0  0  0  0  0
  112.1732  -79.3541  -87.3152 C   0  0  2  0  0  0  0  0  0  0  0  0
  111.5202  -78.5334  -88.2678 C   0  0  0  0  0  0  0  0  0  0  0  0
  110.9566  -77.2542  -87.8783 C   0  0  0  0  0  0  0  0  0  0  0  0
  111.0931  -76.8533  -86.4995 C   0  0  2  0  0  0  0  0  0  0  0  0
  110.4653  -75.5179  -86.1763 C   0  0  1  0  0  0  0  0  0  0  0  0
  110.7346  -75.3250  -84.8094 C   0  0  2  0  0  0  0  0  0  0  0  0
  110.2001  -74.0571  -84.3076 C   0  0  0  0  0  0  0  0  0  0  0  0
  110.4540  -73.7979  -82.9253 C   0  0  0  0  0  0  0  0  0  0  0  0
  109.8035  -74.7485  -87.1145 C   0  0  0  0  0  0  0  0  0  0  0  0
  108.7890  -75.2089  -87.9858 C   0  0  0  0  0  0  0  0  0  0  0  0
  108.0984  -74.4425  -88.9263 C   0  0  0  0  0  0  0  0  0  0  0  0
  108.4075  -73.0276  -89.0681 C   0  0  0  0  0  0  0  0  0  0  0  0
  109.4336  -72.6013  -88.1909 C   0  0  0  0  0  0  0  0  0  0  0  0
  110.1541  -73.3338  -87.2375 C   0  0  0  0  0  0  0  0  0  0  0  0
  111.9556  -75.1787  -79.8043 C   0  0  0  0  0  0  0  0  0  0  0  0
  110.9303  -73.0079  -80.1716 C   0  0  0  0  0  0  0  0  0  0  0  0
  113.2508  -81.6789  -86.7135 C   0  0  0  0  0  0  0  0  0  0  0  0
  112.7741  -81.0376  -89.0428 C   0  0  0  0  0  0  0  0  0  0  0  0
  1  2  1  1  0  0  0
  1  3  1  0  0  0  0
  1 16  1  0  0  0  0
  2 23  1  0  0  0  0
  2 24  1  0  0  0  0
  4 25  1  0  0  0  0
  4 26  1  0  0  0  0
  5  6  1  0  0  0  0
  6  3  1  6  0  0  0
  6 14  1  0  0  0  0
  7  5  1  1  0  0  0
  7  8  1  0  0  0  0
  7 12  1  0  0  0  0
  8  9  1  0  0  0  0
  9  4  1  1  0  0  0
  9 10  1  0  0  0  0
 10 11  1  0  0  0  0
 12 11  1  6  0  0  0
 12 13  1  0  0  0  0
 13 14  1  0  0  0  0
 13 17  1  6  0  0  0
 14 15  1  6  0  0  0
 15 16  1  0  0  0  0
 17 18  1  0  0  0  0
 17 22  1  0  0  0  0
 18 19  1  0  0  0  0
 19 20  1  0  0  0  0
 20 21  1  0  0  0  0
 21 22  1  0  0  0  0
M  END
>  <CHROM.1>
-4.28263460,9.21350045,50.02701313,111.05233327,-76.26956303,-85.49898627
-1.84953106,1.04828443,-2.07234924

>  <Name>
ligand

>  <RI>
0

>  <Rbt.Current_Directory>
/home/itssahil/PROJECTS/Mol_Feturizer/Test_systems_manuscript/rnas/1f1t

>  <Rbt.Executable>
rbdock ($Id: //depot/dev/client3/rdock/2013.1/src/exe/rbdock.cxx#4 $)

>  <Rbt.Library>
libRbt.so (2013.1, Build901 2013/11/27)

>  <Rbt.Parameter_File>
/export/apps/rDock/src/rDock_2013.1_src/data/scripts/dock_solv.prm

>  <Rbt.Receptor>
prm/pocket_docking_3.prm

>  <SCORE>
-56.2003

>  <SCORE.INTER>
-56.3995

>  <SCORE.INTER.CONST>
1

>  <SCORE.INTER.POLAR>
0

>  <SCORE.INTER.ROT>
3

>  <SCORE.INTER.SOLV>
8.97176

>  <SCORE.INTER.VDW>
-46.1902

>  <SCORE.INTER.norm>
-2.16921

>  <SCORE.INTRA>
0.199175

>  <SCORE.INTRA.DIHEDRAL>
0.000237478

>  <SCORE.INTRA.DIHEDRAL.0>
3.60016

>  <SCORE.INTRA.POLAR>
0

>  <SCORE.INTRA.POLAR.0>
0

>  <SCORE.INTRA.REPUL>
0

>  <SCORE.INTRA.REPUL.0>
0

>  <SCORE.INTRA.SOLV>
3.44726e-05

>  <SCORE.INTRA.SOLV.lig_0>
-10.9882

>  <SCORE.INTRA.VDW>
0.199039

>  <SCORE.INTRA.VDW.0>
1.84442

>  <SCORE.INTRA.norm>
0.00766058

>  <SCORE.RESTR>
0

>  <SCORE.RESTR.CAVITY>
0

>  <SCORE.RESTR.norm>
0

>  <SCORE.SYSTEM>
0

>  <SCORE.SYSTEM.CONST>
0

>  <SCORE.SYSTEM.DIHEDRAL>
0

>  <SCORE.SYSTEM.SOLV>
0

>  <SCORE.SYSTEM.norm>
0

>  <SCORE.heavy>
26

>  <SCORE.norm>
-2.16155

>  <RMSD>
0.808

$$$$
ligand
 OpenBabel02271912153D
libRbt.so/2013.1/901 2013/11/27
 26 29  0  0  0  0  0  0  0  0999 V2000
  111.1474  -74.6230  -82.0927 C   0  0  1  0  0  0  0  0  0  0  0  0
  111.3231  -74.2454  -80.7692 N   0  0  0  0  0  0  0  0  0  0  0  0
  111.6675  -75.8991  -82.5611 C   0  0  0  0  0  0  0  0  0  0  0  0
  112.6752  -80.6214  -87.5446 N   0  0  0  0  0  0  0  0  0  0  0  0
  111.9659  -77.4469  -84.3402 O   0  0  0  0  0  0  0  0  0  0  0  0
  111.4125  -76.1309  -83.9141 C   0  0  2  0  0  0  0  0  0  0  0  0
  111.7376  -77.6454  -85.5797 C   0  0  1  0  0  0  0  0  0  0  0  0
  112.3047  -78.9563  -85.8952 C   0  0  0  0  0  0  0  0  0  0  0  0
  112.1463  -79.3482  -87.2717 C   0  0  2  0  0  0  0  0  0  0  0  0
  111.5076  -78.5251  -88.2320 C   0  0  0  0  0  0  0  0  0  0  0  0
  110.9571  -77.2373  -87.8522 C   0  0  0  0  0  0  0  0  0  0  0  0
  111.0915  -76.8306  -86.4750 C   0  0  2  0  0  0  0  0  0  0  0  0
  110.4778  -75.4861  -86.1621 C   0  0  1  0  0  0  0  0  0  0  0  0
  110.7427  -75.2889  -84.7950 C   0  0  2  0  0  0  0  0  0  0  0  0
  110.2206  -74.0122  -84.3026 C   0  0  0  0  0  0  0  0  0  0  0  0
  110.4707  -73.7484  -82.9205 C   0  0  0  0  0  0  0  0  0  0  0  0
  109.8297  -74.7142  -87.1077 C   0  0  0  0  0  0  0  0  0  0  0  0
  108.7924  -75.1592  -87.9599 C   0  0  0  0  0  0  0  0  0  0  0  0
  108.1154  -74.3895  -88.9075 C   0  0  0  0  0  0  0  0  0  0  0  0
  108.4658  -72.9875  -89.0788 C   0  0  0  0  0  0  0  0  0  0  0  0
  109.5136  -72.5767  -88.2201 C   0  0  0  0  0  0  0  0  0  0  0  0
  110.2217  -73.3133  -87.2606 C   0  0  0  0  0  0  0  0  0  0  0  0
  111.9536  -75.1241  -79.7880 C   0  0  0  0  0  0  0  0  0  0  0  0
  110.9304  -72.9542  -80.1657 C   0  0  0  0  0  0  0  0  0  0  0  0
  113.2470  -81.6588  -86.6574 C   0  0  0  0  0  0  0  0  0  0  0  0
  112.6715  -81.0763  -88.9799 C   0  0  0  0  0  0  0  0  0  0  0  0
  1  2  1  1  0  0  0
  1  3  1  0  0  0  0
  1 16  1  0  0  0  0
  2 23  1  0  0  0  0
  2 24  1  0  0  0  0
  4 25  1  0  0  0  0
  4 26  1  0  0  0  0
  5  6  1  0  0  0  0
  6  3  1  6  0  0  0
  6 14  1  0  0  0  0
  7  5  1  1  0  0  0
  7  8  1  0  0  0  0
  7 12  1  0  0  0  0
  8  9  1  0  0  0  0
  9  4  1  1  0  0  0
  9 10  1  0  0  0  0
 10 11  1  0  0  0  0
 12 11  1  6  0  0  0
 12 13  1  0  0  0  0
 13 14  1  0  0  0  0
 13 17  1  6  0  0  0
 14 15  1  6  0  0  0
 15 16  1  0  0  0  0
 17 18  1  0  0  0  0
 17 22  1  0  0  0  0
 18 19  1  0  0  0  0
 19 20  1  0  0  0  0
 20 21  1  0  0  0  0
 21 22  1  0  0  0  0
M  END
>  <CHROM.1>
-3.61886431,6.18810486,51.60454587,111.05244685,-76.24109342,-85.47788791
-1.84516012,1.06021648,-2.08157209

>  <Name>
ligand

>  <RI>
0

>  <Rbt.Current_Directory>
/home/itssahil/PROJECTS/Mol_Feturizer/Test_systems_manuscript/rnas/1f1t

>  <Rbt.Executable>
rbdock ($Id: //depot/dev/client3/rdock/2013.1/src/exe/rbdock.cxx#4 $)

>  <Rbt.Library>
libRbt.so (2013.1, Build901 2013/11/27)

>  <Rbt.Parameter_File>
/export/apps/rDock/src/rDock_2013.1_src/data/scripts/dock_solv.prm

>  <Rbt.Receptor>
prm/pocket_docking_7.prm

>  <SCORE>
-56.2718

>  <SCORE.INTER>
-56.4712

>  <SCORE.INTER.CONST>
1

>  <SCORE.INTER.POLAR>
0

>  <SCORE.INTER.ROT>
3

>  <SCORE.INTER.SOLV>
9.01408

>  <SCORE.INTER.VDW>
-46.2522

>  <SCORE.INTER.norm>
-2.17197

>  <SCORE.INTRA>
0.199462

>  <SCORE.INTRA.DIHEDRAL>
0.00026183

>  <SCORE.INTRA.DIHEDRAL.0>
3.60016

>  <SCORE.INTRA.POLAR>
0

>  <SCORE.INTRA.POLAR.0>
0

>  <SCORE.INTRA.REPUL>
0

>  <SCORE.INTRA.REPUL.0>
0

>  <SCORE.INTRA.SOLV>
1.90581e-05

>  <SCORE.INTRA.SOLV.lig_0>
-10.9882

>  <SCORE.INTRA.VDW>
0.199321

>  <SCORE.INTRA.VDW.0>
1.84442

>  <SCORE.INTRA.norm>
0.00767161

>  <SCORE.RESTR>
0

>  <SCORE.RESTR.CAVITY>
0

>  <SCORE.RESTR.norm>
0

>  <SCORE.SYSTEM>
0

>  <SCORE.SYSTEM.CONST>
0

>  <SCORE.SYSTEM.DIHEDRAL>
0

>  <SCORE.SYSTEM.SOLV>
0

>  <SCORE.SYSTEM.norm>
0

>  <SCORE.heavy>
26

>  <SCORE.norm>
-2.1643

>  <RMSD>
0.812

$$$$
ligand
 OpenBabel02271912153D
libRbt.so/2013.1/901 2013/11/27
 26 29  0  0  0  0  0  0  0  0999 V2000
  111.1754  -74.7105  -82.1005 C   0  0  1  0  0  0  0  0  0  0  0  0
  111.3611  -74.3551  -80.7722 N   0  0  0  0  0  0  0  0  0  0  0  0
  111.7065  -75.9709  -82.5982 C   0  0  0  0  0  0  0  0  0  0  0  0
  112.7187  -80.5870  -87.6793 N   0  0  0  0  0  0  0  0  0  0  0  0
  112.0047  -77.4816  -84.4089 O   0  0  0  0  0  0  0  0  0  0  0  0
  111.4393  -76.1810  -83.9524 C   0  0  2  0  0  0  0  0  0  0  0  0
  111.7650  -77.6602  -85.6493 C   0  0  1  0  0  0  0  0  0  0  0  0
  112.3454  -78.9576  -85.9953 C   0  0  0  0  0  0  0  0  0  0  0  0
  112.1765  -79.3261  -87.3771 C   0  0  2  0  0  0  0  0  0  0  0  0
  111.5166  -78.4938  -88.3148 C   0  0  0  0  0  0  0  0  0  0  0  0
  110.9539  -77.2205  -87.9052 C   0  0  0  0  0  0  0  0  0  0  0  0
  111.0986  -76.8375  -86.5222 C   0  0  2  0  0  0  0  0  0  0  0  0
  110.4712  -75.5072  -86.1777 C   0  0  1  0  0  0  0  0  0  0  0  0
  110.7489  -75.3318  -84.8101 C   0  0  2  0  0  0  0  0  0  0  0  0
  110.2160  -74.0713  -84.2884 C   0  0  0  0  0  0  0  0  0  0  0  0
  110.4783  -73.8297  -82.9045 C   0  0  0  0  0  0  0  0  0  0  0  0
  109.8027  -74.7265  -87.1015 C   0  0  0  0  0  0  0  0  0  0  0  0
  108.7411  -75.1613  -87.9288 C   0  0  0  0  0  0  0  0  0  0  0  0
  108.0436  -74.3826  -88.8540 C   0  0  0  0  0  0  0  0  0  0  0  0
  108.3967  -72.9815  -89.0264 C   0  0  0  0  0  0  0  0  0  0  0  0
  109.4688  -72.5810  -88.1932 C   0  0  0  0  0  0  0  0  0  0  0  0
  110.1979  -73.3268  -87.2567 C   0  0  0  0  0  0  0  0  0  0  0  0
  110.9798  -73.0424  -80.2589 C   0  0  0  0  0  0  0  0  0  0  0  0
  111.9371  -75.2056  -79.7088 C   0  0  0  0  0  0  0  0  0  0  0  0
  113.2147  -81.6774  -86.8103 C   0  0  0  0  0  0  0  0  0  0  0  0
  112.8241  -80.9614  -89.1339 C   0  0  0  0  0  0  0  0  0  0  0  0
  1  2  1  1  0  0  0
  1  3  1  0  0  0  0
  1 16  1  0  0  0  0
  2 23  1  0  0  0  0
  2 24  1  0  0  0  0
  4 25  1  0  0  0  0
  4 26  1  0  0  0  0
  5  6  1  0  0  0  0
  6  3  1  6  0  0  0
  6 14  1  0  0  0  0
  7  5  1  1  0  0  0
  7  8  1  0  0  0  0
  7 12  1  0  0  0  0
  8  9  1  0  0  0  0
  9  4  1  1  0  0  0
  9 10  1  0  0  0  0
 10 11  1  0  0  0  0
 12 11  1  6  0  0  0
 12 13  1  0  0  0  0
 13 14  1  0  0  0  0
 13 17  1  6  0  0  0
 14 15  1  6  0  0  0
 15 16  1  0  0  0  0
 17 18  1  0  0  0  0
 17 22  1  0  0  0  0
 18 19  1  0  0  0  0
 19 20  1  0  0  0  0
 20 21  1  0  0  0  0
 21 22  1  0  0  0  0
M  END
>  <CHROM.1>
173.10535477,11.81946609,53.13884981,111.06177640,-76.26319883,-85.51481617
-1.84415312,1.04596448,-2.06519934

>  <Name>
ligand

>  <RI>
0

>  <Rbt.Current_Directory>
/home/itssahil/PROJECTS/Mol_Feturizer/Test_systems_manuscript/rnas/1f1t

>  <Rbt.Executable>
rbdock ($Id: //depot/dev/client3/rdock/2013.1/src/exe/rbdock.cxx#4 $)

>  <Rbt.Library>
libRbt.so (2013.1, Build901 2013/11/27)

>  <Rbt.Parameter_File>
/export/apps/rDock/src/rDock_2013.1_src/data/scripts/dock_solv.prm

>  <Rbt.Receptor>
prm/pocket_docking_2.prm

>  <SCORE>
-55.8893

>  <SCORE.INTER>
-56.2295

>  <SCORE.INTER.CONST>
1

>  <SCORE.INTER.POLAR>
0

>  <SCORE.INTER.ROT>
3

>  <SCORE.INTER.SOLV>
8.9401

>  <SCORE.INTER.VDW>
-46.0663

>  <SCORE.INTER.norm>
-2.16267

>  <SCORE.INTRA>
0.340183

>  <SCORE.INTRA.DIHEDRAL>
0.00024041

>  <SCORE.INTRA.DIHEDRAL.0>
3.60016

>  <SCORE.INTRA.POLAR>
0

>  <SCORE.INTRA.POLAR.0>
0

>  <SCORE.INTRA.REPUL>
0

>  <SCORE.INTRA.REPUL.0>
0

>  <SCORE.INTRA.SOLV>
6.23331e-05

>  <SCORE.INTRA.SOLV.lig_0>
-10.9882

>  <SCORE.INTRA.VDW>
0.340031

>  <SCORE.INTRA.VDW.0>
1.84442

>  <SCORE.INTRA.norm>
0.0130839

>  <SCORE.RESTR>
0

>  <SCORE.RESTR.CAVITY>
0

>  <SCORE.RESTR.norm>
0

>  <SCORE.SYSTEM>
0

>  <SCORE.SYSTEM.CONST>
0

>  <SCORE.SYSTEM.DIHEDRAL>
0

>  <SCORE.SYSTEM.SOLV>
0

>  <SCORE.SYSTEM.norm>
0

>  <SCORE.heavy>
26

>  <SCORE.norm>
-2.14959

>  <RMSD>
0.818

$$$$
ligand
 OpenBabel02271912153D
libRbt.so/2013.1/901 2013/11/27
 26 29  0  0  0  0  0  0  0  0999 V2000
  111.1385  -74.5831  -82.1197 C   0  0  1  0  0  0  0  0  0  0  0  0
  111.3163  -74.1918  -80.8005 N   0  0  0  0  0  0  0  0  0  0  0  0
  111.6705  -75.8575  -82.5793 C   0  0  0  0  0  0  0  0  0  0  0  0
  112.7069  -80.6126  -87.5256 N   0  0  0  0  0  0  0  0  0  0  0  0
  111.9776  -77.4177  -84.3460 O   0  0  0  0  0  0  0  0  0  0  0  0
  111.4116  -76.1042  -83.9289 C   0  0  2  0  0  0  0  0  0  0  0  0
  111.7456  -77.6298  -85.5826 C   0  0  1  0  0  0  0  0  0  0  0  0
  112.3258  -78.9371  -85.8892 C   0  0  0  0  0  0  0  0  0  0  0  0
  112.1652  -79.3430  -87.2614 C   0  0  2  0  0  0  0  0  0  0  0  0
  111.5129  -78.5356  -88.2259 C   0  0  0  0  0  0  0  0  0  0  0  0
  110.9499  -77.2506  -87.8549 C   0  0  0  0  0  0  0  0  0  0  0  0
  111.0863  -76.8302  -86.4819 C   0  0  2  0  0  0  0  0  0  0  0  0
  110.4592  -75.4899  -86.1780 C   0  0  1  0  0  0  0  0  0  0  0  0
  110.7284  -75.2776  -84.8140 C   0  0  2  0  0  0  0  0  0  0  0  0
  110.1945  -74.0024  -84.3305 C   0  0  0  0  0  0  0  0  0  0  0  0
  110.4482  -73.7235  -82.9520 C   0  0  0  0  0  0  0  0  0  0  0  0
  109.7981  -74.7336  -87.1272 C   0  0  0  0  0  0  0  0  0  0  0  0
  108.7364  -75.1871  -87.9443 C   0  0  0  0  0  0  0  0  0  0  0  0
  108.0463  -74.4328  -88.8949 C   0  0  0  0  0  0  0  0  0  0  0  0
  108.4083  -73.0395  -89.1086 C   0  0  0  0  0  0  0  0  0  0  0  0
  109.4803  -72.6203  -88.2845 C   0  0  0  0  0  0  0  0  0  0  0  0
  110.2021  -73.3416  -87.3235 C   0  0  0  0  0  0  0  0  0  0  0  0
  110.8921  -72.8816  -80.3151 C   0  0  0  0  0  0  0  0  0  0  0  0
  111.9244  -74.9980  -79.7206 C   0  0  0  0  0  0  0  0  0  0  0  0
  112.9036  -81.3531  -88.7918 C   0  0  0  0  0  0  0  0  0  0  0  0
  113.2120  -81.4050  -86.3491 C   0  0  0  0  0  0  0  0  0  0  0  0
  1  2  1  1  0  0  0
  1  3  1  0  0  0  0
  1 16  1  0  0  0  0
  2 23  1  0  0  0  0
  2 24  1  0  0  0  0
  4 25  1  0  0  0  0
  4 26  1  0  0  0  0
  5  6  1  0  0  0  0
  6  3  1  6  0  0  0
  6 14  1  0  0  0  0
  7  5  1  1  0  0  0
  7  8  1  0  0  0  0
  7 12  1  0  0  0  0
  8  9  1  0  0  0  0
  9  4  1  1  0  0  0
  9 10  1  0  0  0  0
 10 11  1  0  0  0  0
 12 11  1  6  0  0  0
 12 13  1  0  0  0  0
 13 14  1  0  0  0  0
 13 17  1  6  0  0  0
 14 15  1  6  0  0  0
 15 16  1  0  0  0  0
 17 18  1  0  0  0  0
 17 22  1  0  0  0  0
 18 19  1  0  0  0  0
 19 20  1  0  0  0  0
 20 21  1  0  0  0  0
 21 22  1  0  0  0  0
M  END
>  <CHROM.1>
175.25811073,-172.29816746,53.49016054,111.04855272,-76.23082442,-85.47051876
-1.86357797,1.04925041,-2.08701424

>  <Name>
ligand

>  <RI>
0

>  <Rbt.Current_Directory>
/home/itssahil/PROJECTS/Mol_Feturizer/Test_systems_manuscript/rnas/1f1t

>  <Rbt.Executable>
rbdock ($Id: //depot/dev/client3/rdock/2013.1/src/exe/rbdock.cxx#4 $)

>  <Rbt.Library>
libRbt.so (2013.1, Build901 2013/11/27)

>  <Rbt.Parameter_File>
/export/apps/rDock/src/rDock_2013.1_src/data/scripts/dock_solv.prm

>  <Rbt.Receptor>
prm/pocket_docking_6.prm

>  <SCORE>
-53.2797

>  <SCORE.INTER>
-56.0417

>  <SCORE.INTER.CONST>
1

>  <SCORE.INTER.POLAR>
0

>  <SCORE.INTER.ROT>
3

>  <SCORE.INTER.SOLV>
9.02754

>  <SCORE.INTER.VDW>
-45.9703

>  <SCORE.INTER.norm>
-2.15545

>  <SCORE.INTRA>
2.76192

>  <SCORE.INTRA.DIHEDRAL>
-0.000281171

>  <SCORE.INTRA.DIHEDRAL.0>
3.60016

>  <SCORE.INTRA.POLAR>
0

>  <SCORE.INTRA.POLAR.0>
0

>  <SCORE.INTRA.REPUL>
0

>  <SCORE.INTRA.REPUL.0>
0

>  <SCORE.INTRA.SOLV>
-0.00097874

>  <SCORE.INTRA.SOLV.lig_0>
-10.9882

>  <SCORE.INTRA.VDW>
2.76255

>  <SCORE.INTRA.VDW.0>
1.84442

>  <SCORE.INTRA.norm>
0.106228

>  <SCORE.RESTR>
0

>  <SCORE.RESTR.CAVITY>
0

>  <SCORE.RESTR.norm>
0

>  <SCORE.SYSTEM>
0

>  <SCORE.SYSTEM.CONST>
0

>  <SCORE.SYSTEM.DIHEDRAL>
0

>  <SCORE.SYSTEM.SOLV>
0

>  <SCORE.SYSTEM.norm>
0

>  <SCORE.heavy>
26

>  <SCORE.norm>
-2.04922

>  <RMSD>
0.819

$$$$
ligand
 OpenBabel02271912153D
libRbt.so/2013.1/901 2013/11/27
 26 29  0  0  0  0  0  0  0  0999 V2000
  111.1227  -74.6018  -82.1328 C   0  0  1  0  0  0  0  0  0  0  0  0
  111.2936  -74.2210  -80.8096 N   0  0  0  0  0  0  0  0  0  0  0  0
  111.6514  -75.8755  -82.5982 C   0  0  0  0  0  0  0  0  0  0  0  0
  112.6972  -80.5996  -87.5720 N   0  0  0  0  0  0  0  0  0  0  0  0
  111.9625  -77.4243  -84.3741 O   0  0  0  0  0  0  0  0  0  0  0  0
  111.4003  -76.1110  -83.9512 C   0  0  2  0  0  0  0  0  0  0  0  0
  111.7378  -77.6262  -85.6137 C   0  0  1  0  0  0  0  0  0  0  0  0
  112.3134  -78.9342  -85.9260 C   0  0  0  0  0  0  0  0  0  0  0  0
  112.1600  -79.3293  -87.3023 C   0  0  2  0  0  0  0  0  0  0  0  0
  111.5182  -78.5116  -88.2651 C   0  0  0  0  0  0  0  0  0  0  0  0
  110.9591  -77.2265  -87.8884 C   0  0  0  0  0  0  0  0  0  0  0  0
  111.0885  -76.8168  -86.5116 C   0  0  2  0  0  0  0  0  0  0  0  0
  110.4660  -75.4756  -86.2021 C   0  0  1  0  0  0  0  0  0  0  0  0
  110.7271  -75.2746  -84.8348 C   0  0  2  0  0  0  0  0  0  0  0  0
  110.1964  -74.0002  -84.3455 C   0  0  0  0  0  0  0  0  0  0  0  0
  110.4423  -73.7327  -82.9634 C   0  0  0  0  0  0  0  0  0  0  0  0
  109.8150  -74.7091  -87.1501 C   0  0  0  0  0  0  0  0  0  0  0  0
  108.7582  -75.1520  -87.9792 C   0  0  0  0  0  0  0  0  0  0  0  0
  108.0782  -74.3873  -88.9288 C   0  0  0  0  0  0  0  0  0  0  0  0
  108.4468  -72.9937  -89.1281 C   0  0  0  0  0  0  0  0  0  0  0  0
  109.5138  -72.5852  -88.2923 C   0  0  0  0  0  0  0  0  0  0  0  0
  110.2256  -73.3170  -87.3317 C   0  0  0  0  0  0  0  0  0  0  0  0
  110.8903  -72.9051  -80.3218 C   0  0  0  0  0  0  0  0  0  0  0  0
  111.8735  -75.0448  -79.7275 C   0  0  0  0  0  0  0  0  0  0  0  0
  113.2694  -81.6340  -86.6815 C   0  0  0  0  0  0  0  0  0  0  0  0
  112.7040  -81.0546  -89.0073 C   0  0  0  0  0  0  0  0  0  0  0  0
  1  2  1  1  0  0  0
  1  3  1  0  0  0  0
  1 16  1  0  0  0  0
  2 23  1  0  0  0  0
  2 24  1  0  0  0  0
  4 25  1  0  0  0  0
  4 26  1  0  0  0  0
  5  6  1  0  0  0  0
  6  3  1  6  0  0  0
  6 14  1  0  0  0  0
  7  5  1  1  0  0  0
  7  8  1  0  0  0  0
  7 12  1  0  0  0  0
  8  9  1  0  0  0  0
  9  4  1  1  0  0  0
  9 10  1  0  0  0  0
 10 11  1  0  0  0  0
 12 11  1  6  0  0  0
 12 13  1  0  0  0  0
 13 14  1  0  0  0  0
 13 17  1  6  0  0  0
 14 15  1  6  0  0  0
 15 16  1  0  0  0  0
 17 18  1  0  0  0  0
 17 22  1  0  0  0  0
 18 19  1  0  0  0  0
 19 20  1  0  0  0  0
 20 21  1  0  0  0  0
 21 22  1  0  0  0  0
M  END
>  <CHROM.1>
174.35505316,6.42557436,53.37421718,111.04170801,-76.22249528,-85.51639671
-1.85772033,1.05685009,-2.07374176

>  <Name>
ligand

>  <RI>
0

>  <Rbt.Current_Directory>
/home/itssahil/PROJECTS/Mol_Feturizer/Test_systems_manuscript/rnas/1f1t

>  <Rbt.Executable>
rbdock ($Id: //depot/dev/client3/rdock/2013.1/src/exe/rbdock.cxx#4 $)

>  <Rbt.Library>
libRbt.so (2013.1, Build901 2013/11/27)

>  <Rbt.Parameter_File>
/export/apps/rDock/src/rDock_2013.1_src/data/scripts/dock_solv.prm

>  <Rbt.Receptor>
prm/pocket_docking_4.prm

>  <SCORE>
-55.8838

>  <SCORE.INTER>
-56.3177

>  <SCORE.INTER.CONST>
1

>  <SCORE.INTER.POLAR>
0

>  <SCORE.INTER.ROT>
3

>  <SCORE.INTER.SOLV>
9.03688

>  <SCORE.INTER.VDW>
-46.1574

>  <SCORE.INTER.norm>
-2.16606

>  <SCORE.INTRA>
0.433837

>  <SCORE.INTRA.DIHEDRAL>
0.000279539

>  <SCORE.INTRA.DIHEDRAL.0>
3.60016

>  <SCORE.INTRA.POLAR>
0

>  <SCORE.INTRA.POLAR.0>
0

>  <SCORE.INTRA.REPUL>
0

>  <SCORE.INTRA.REPUL.0>
0

>  <SCORE.INTRA.SOLV>
2.86618e-05

>  <SCORE.INTRA.SOLV.lig_0>
-10.9882

>  <SCORE.INTRA.VDW>
0.433683

>  <SCORE.INTRA.VDW.0>
1.84442

>  <SCORE.INTRA.norm>
0.016686

>  <SCORE.RESTR>
0

>  <SCORE.RESTR.CAVITY>
0

>  <SCORE.RESTR.norm>
0

>  <SCORE.SYSTEM>
0

>  <SCORE.SYSTEM.CONST>
0

>  <SCORE.SYSTEM.DIHEDRAL>
0

>  <SCORE.SYSTEM.SOLV>
0

>  <SCORE.SYSTEM.norm>
0

>  <SCORE.heavy>
26

>  <SCORE.norm>
-2.14938

>  <RMSD>
0.850

$$$$
ligand
 OpenBabel02271912153D
libRbt.so/2013.1/901 2013/11/27
 26 29  0  0  0  0  0  0  0  0999 V2000
  112.3420  -77.5830  -81.2949 C   0  0  1  0  0  0  0  0  0  0  0  0
  112.6947  -77.7202  -79.9600 N   0  0  0  0  0  0  0  0  0  0  0  0
  112.8041  -78.5557  -82.2739 C   0  0  0  0  0  0  0  0  0  0  0  0
  113.1588  -80.9901  -88.7623 N   0  0  0  0  0  0  0  0  0  0  0  0
  112.8687  -79.3008  -84.5301 O   0  0  0  0  0  0  0  0  0  0  0  0
  112.3674  -78.2774  -83.5705 C   0  0  2  0  0  0  0  0  0  0  0  0
  112.4738  -79.0327  -85.7134 C   0  0  1  0  0  0  0  0  0  0  0  0
  113.0039  -80.0922  -86.5714 C   0  0  0  0  0  0  0  0  0  0  0  0
  112.6611  -79.9472  -87.9624 C   0  0  2  0  0  0  0  0  0  0  0  0
  111.8890  -78.8640  -88.4504 C   0  0  0  0  0  0  0  0  0  0  0  0
  111.3845  -77.8490  -87.5443 C   0  0  0  0  0  0  0  0  0  0  0  0
  111.7034  -77.9820  -86.1440 C   0  0  2  0  0  0  0  0  0  0  0  0
  111.1266  -76.8933  -85.2699 C   0  0  1  0  0  0  0  0  0  0  0  0
  111.5753  -77.2084  -83.9747 C   0  0  2  0  0  0  0  0  0  0  0  0
  111.1145  -76.2442  -82.9732 C   0  0  0  0  0  0  0  0  0  0  0  0
  111.5500  -76.5042  -81.6371 C   0  0  0  0  0  0  0  0  0  0  0  0
  110.3477  -75.8635  -85.7626 C   0  0  0  0  0  0  0  0  0  0  0  0
  109.0541  -75.5210  -85.3045 C   0  0  0  0  0  0  0  0  0  0  0  0
  108.2610  -74.4743  -85.7782 C   0  0  0  0  0  0  0  0  0  0  0  0
  108.7610  -73.6183  -86.8435 C   0  0  0  0  0  0  0  0  0  0  0  0
  110.0518  -73.9940  -87.2869 C   0  0  0  0  0  0  0  0  0  0  0  0
  110.8793  -75.0354  -86.8448 C   0  0  0  0  0  0  0  0  0  0  0  0
  113.9177  -77.1367  -79.4159 C   0  0  0  0  0  0  0  0  0  0  0  0
  111.9263  -78.4349  -78.9185 C   0  0  0  0  0  0  0  0  0  0  0  0
  113.5546  -81.0324  -90.1877 C   0  0  0  0  0  0  0  0  0  0  0  0
  113.3648  -82.3274  -88.1017 C   0  0  0  0  0  0  0  0  0  0  0  0
  1  2  1  1  0  0  0
  1  3  1  0  0  0  0
  1 16  1  0  0  0  0
  2 23  1  0  0  0  0
  2 24  1  0  0  0  0
  4 25  1  0  0  0  0
  4 26  1  0  0  0  0
  5  6  1  0  0  0  0
  6  3  1  6  0  0  0
  6 14  1  0  0  0  0
  7  5  1  1  0  0  0
  7  8  1  0  0  0  0
  7 12  1  0  0  0  0
  8  9  1  0  0  0  0
  9  4  1  1  0  0  0
  9 10  1  0  0  0  0
 10 11  1  0  0  0  0
 12 11  1  6  0  0  0
 12 13  1  0  0  0  0
 13 14  1  0  0  0  0
 13 17  1  6  0  0  0
 14 15  1  6  0  0  0
 15 16  1  0  0  0  0
 17 18  1  0  0  0  0
 17 22  1  0  0  0  0
 18 19  1  0  0  0  0
 19 20  1  0  0  0  0
 20 21  1  0  0  0  0
 21 22  1  0  0  0  0
M  END
>  <CHROM.1>
88.88609639,-151.42459167,125.30442357,111.80600900,-77.82327412,-84.99488791
-1.66241603,0.97994730,-1.82991275

>  <Name>
ligand

>  <RI>
0

>  <Rbt.Current_Directory>
/home/itssahil/PROJECTS/Mol_Feturizer/Test_systems_manuscript/rnas/1f1t

>  <Rbt.Executable>
rbdock ($Id: //depot/dev/client3/rdock/2013.1/src/exe/rbdock.cxx#4 $)

>  <Rbt.Library>
libRbt.so (2013.1, Build901 2013/11/27)

>  <Rbt.Parameter_File>
/export/apps/rDock/src/rDock_2013.1_src/data/scripts/dock_solv.prm

>  <Rbt.Receptor>
prm/pocket_docking_8.prm

>  <SCORE>
-41.9228

>  <SCORE.INTER>
-41.0123

>  <SCORE.INTER.CONST>
1

>  <SCORE.INTER.POLAR>
0

>  <SCORE.INTER.ROT>
3

>  <SCORE.INTER.SOLV>
8.63982

>  <SCORE.INTER.VDW>
-35.8215

>  <SCORE.INTER.norm>
-1.5774

>  <SCORE.INTRA>
-0.910487

>  <SCORE.INTRA.DIHEDRAL>
-0.000328177

>  <SCORE.INTRA.DIHEDRAL.0>
3.60016

>  <SCORE.INTRA.POLAR>
0

>  <SCORE.INTRA.POLAR.0>
0

>  <SCORE.INTRA.REPUL>
0

>  <SCORE.INTRA.REPUL.0>
0

>  <SCORE.INTRA.SOLV>
6.15401e-05

>  <SCORE.INTRA.SOLV.lig_0>
-10.9882

>  <SCORE.INTRA.VDW>
-0.910354

>  <SCORE.INTRA.VDW.0>
1.84442

>  <SCORE.INTRA.norm>
-0.0350187

>  <SCORE.RESTR>
0

>  <SCORE.RESTR.CAVITY>
0

>  <SCORE.RESTR.norm>
0

>  <SCORE.SYSTEM>
0

>  <SCORE.SYSTEM.CONST>
0

>  <SCORE.SYSTEM.DIHEDRAL>
0

>  <SCORE.SYSTEM.SOLV>
0

>  <SCORE.SYSTEM.norm>
0

>  <SCORE.heavy>
26

>  <SCORE.norm>
-1.61241

>  <RMSD>
2.063

$$$$
ligand
 OpenBabel02271912153D
libRbt.so/2013.1/901 2013/11/27
 26 29  0  0  0  0  0  0  0  0999 V2000
  111.8929  -77.8792  -85.8642 C   0  0  1  0  0  0  0  0  0  0  0  0
  111.9487  -78.5507  -87.0772 N   0  0  0  0  0  0  0  0  0  0  0  0
  112.2315  -78.5741  -84.6310 C   0  0  0  0  0  0  0  0  0  0  0  0
  113.0652  -78.7308  -77.7440 N   0  0  0  0  0  0  0  0  0  0  0  0
  112.4797  -78.5237  -82.2676 O   0  0  0  0  0  0  0  0  0  0  0  0
  112.1239  -77.7641  -83.4989 C   0  0  2  0  0  0  0  0  0  0  0  0
  112.3684  -77.7790  -81.2376 C   0  0  1  0  0  0  0  0  0  0  0  0
  112.7470  -78.6062  -80.0921 C   0  0  0  0  0  0  0  0  0  0  0  0
  112.6719  -77.9245  -78.8259 C   0  0  2  0  0  0  0  0  0  0  0  0
  112.2547  -76.5756  -78.7077 C   0  0  0  0  0  0  0  0  0  0  0  0
  111.9007  -75.8057  -79.8857 C   0  0  0  0  0  0  0  0  0  0  0  0
  111.9826  -76.4641  -81.1664 C   0  0  2  0  0  0  0  0  0  0  0  0
  111.6127  -75.5874  -82.3397 C   0  0  1  0  0  0  0  0  0  0  0  0
  111.7409  -76.4279  -83.4601 C   0  0  2  0  0  0  0  0  0  0  0  0
  111.4110  -75.7444  -84.7126 C   0  0  0  0  0  0  0  0  0  0  0  0
  111.5101  -76.5522  -85.8874 C   0  0  0  0  0  0  0  0  0  0  0  0
  111.2404  -74.2634  -82.2044 C   0  0  0  0  0  0  0  0  0  0  0  0
  111.3337  -73.2772  -83.2140 C   0  0  0  0  0  0  0  0  0  0  0  0
  110.9466  -71.9407  -83.1005 C   0  0  0  0  0  0  0  0  0  0  0  0
  110.3847  -71.4585  -81.8477 C   0  0  0  0  0  0  0  0  0  0  0  0
  110.3155  -72.4658  -80.8556 C   0  0  0  0  0  0  0  0  0  0  0  0
  110.6947  -73.8135  -80.9241 C   0  0  0  0  0  0  0  0  0  0  0  0
  112.4986  -79.8984  -87.1943 C   0  0  0  0  0  0  0  0  0  0  0  0
  111.4766  -78.0436  -88.3832 C   0  0  0  0  0  0  0  0  0  0  0  0
  114.3439  -78.8291  -77.0054 C   0  0  0  0  0  0  0  0  0  0  0  0
  112.0375  -79.6746  -77.1783 C   0  0  0  0  0  0  0  0  0  0  0  0
  1  2  1  6  0  0  0
  1  3  1  0  0  0  0
  1 16  1  0  0  0  0
  2 23  1  0  0  0  0
  2 24  1  0  0  0  0
  4 25  1  0  0  0  0
  4 26  1  0  0  0  0
  5  6  1  0  0  0  0
  6  3  1  1  0  0  0
  6 14  1  0  0  0  0
  7  5  1  6  0  0  0
  7  8  1  0  0  0  0
  7 12  1  0  0  0  0
  8  9  1  0  0  0  0
  9  4  1  6  0  0  0
  9 10  1  0  0  0  0
 10 11  1  0  0  0  0
 12 11  1  1  0  0  0
 12 13  1  0  0  0  0
 13 14  1  0  0  0  0
 13 17  1  1  0  0  0
 14 15  1  1  0  0  0
 15 16  1  0  0  0  0
 17 18  1  0  0  0  0
 17 22  1  0  0  0  0
 18 19  1  0  0  0  0
 19 20  1  0  0  0  0
 20 21  1  0  0  0  0
 21 22  1  0  0  0  0
M  END
>  <CHROM.1>
-7.83207385,98.59496769,156.57507184,111.93260455,-76.72290321,-82.28817263
-1.94278846,-1.26887512,1.23796544

>  <Name>
ligand

>  <RI>
0

>  <Rbt.Current_Directory>
/home/itssahil/PROJECTS/Mol_Feturizer/Test_systems_manuscript/rnas/1f1t

>  <Rbt.Executable>
rbdock ($Id: //depot/dev/client3/rdock/2013.1/src/exe/rbdock.cxx#4 $)

>  <Rbt.Library>
libRbt.so (2013.1, Build901 2013/11/27)

>  <Rbt.Parameter_File>
/export/apps/rDock/src/rDock_2013.1_src/data/scripts/dock_solv.prm

>  <Rbt.Receptor>
prm/pocket_docking_8.prm

>  <SCORE>
-37.4613

>  <SCORE.INTER>
-38.3922

>  <SCORE.INTER.CONST>
1

>  <SCORE.INTER.POLAR>
0

>  <SCORE.INTER.ROT>
3

>  <SCORE.INTER.SOLV>
6.87112

>  <SCORE.INTER.VDW>
-33.4852

>  <SCORE.INTER.norm>
-1.47662

>  <SCORE.INTRA>
0.930327

>  <SCORE.INTRA.DIHEDRAL>
1.6721e-05

>  <SCORE.INTRA.DIHEDRAL.0>
3.60016

>  <SCORE.INTRA.POLAR>
0

>  <SCORE.INTRA.POLAR.0>
0

>  <SCORE.INTRA.REPUL>
0

>  <SCORE.INTRA.REPUL.0>
0

>  <SCORE.INTRA.SOLV>
0.000271703

>  <SCORE.INTRA.SOLV.lig_0>
-10.9882

>  <SCORE.INTRA.VDW>
0.930183

>  <SCORE.INTRA.VDW.0>
1.84442

>  <SCORE.INTRA.norm>
0.0357818

>  <SCORE.RESTR>
0.000522987

>  <SCORE.RESTR.CAVITY>
0.000522987

>  <SCORE.RESTR.norm>
2.01149e-05

>  <SCORE.SYSTEM>
0

>  <SCORE.SYSTEM.CONST>
0

>  <SCORE.SYSTEM.DIHEDRAL>
0

>  <SCORE.SYSTEM.SOLV>
0

>  <SCORE.SYSTEM.norm>
0

>  <SCORE.heavy>
26

>  <SCORE.norm>
-1.44082

>  <RMSD>
4.208

$$$$
ligand
 OpenBabel02271912153D
libRbt.so/2013.1/901 2013/11/27
 26 29  0  0  0  0  0  0  0  0999 V2000
  108.5880  -75.0948  -87.6510 C   0  0  1  0  0  0  0  0  0  0  0  0
  107.7448  -74.4809  -88.5662 N   0  0  0  0  0  0  0  0  0  0  0  0
  108.7679  -74.5190  -86.3265 C   0  0  0  0  0  0  0  0  0  0  0  0
  111.5942  -74.5506  -79.9892 N   0  0  0  0  0  0  0  0  0  0  0  0
  109.7956  -74.6182  -84.1855 O   0  0  0  0  0  0  0  0  0  0  0  0
  109.6473  -75.2508  -85.5262 C   0  0  2  0  0  0  0  0  0  0  0  0
  110.6086  -75.2874  -83.4651 C   0  0  1  0  0  0  0  0  0  0  0  0
  110.6767  -74.5979  -82.1769 C   0  0  0  0  0  0  0  0  0  0  0  0
  111.5657  -75.2153  -81.2271 C   0  0  2  0  0  0  0  0  0  0  0  0
  112.3144  -76.3803  -81.5267 C   0  0  0  0  0  0  0  0  0  0  0  0
  112.1948  -77.0227  -82.8223 C   0  0  0  0  0  0  0  0  0  0  0  0
  111.2988  -76.4297  -83.7845 C   0  0  2  0  0  0  0  0  0  0  0  0
  111.2221  -77.1694  -85.0994 C   0  0  1  0  0  0  0  0  0  0  0  0
  110.3240  -76.4144  -85.8750 C   0  0  2  0  0  0  0  0  0  0  0  0
  110.1242  -76.9820  -87.2102 C   0  0  0  0  0  0  0  0  0  0  0  0
  109.2302  -76.2503  -88.0515 C   0  0  0  0  0  0  0  0  0  0  0  0
  111.9366  -78.3237  -85.3585 C   0  0  0  0  0  0  0  0  0  0  0  0
  112.3212  -78.7807  -86.6406 C   0  0  0  0  0  0  0  0  0  0  0  0
  113.0571  -79.9337  -86.9193 C   0  0  0  0  0  0  0  0  0  0  0  0
  113.5004  -80.7860  -85.8261 C   0  0  0  0  0  0  0  0  0  0  0  0
  113.0901  -80.3075  -84.5585 C   0  0  0  0  0  0  0  0  0  0  0  0
  112.3501  -79.1622  -84.2337 C   0  0  0  0  0  0  0  0  0  0  0  0
  106.3719  -74.9298  -88.7799 C   0  0  0  0  0  0  0  0  0  0  0  0
  108.0759  -73.3243  -89.4255 C   0  0  0  0  0  0  0  0  0  0  0  0
  111.9364  -75.0216  -78.6285 C   0  0  0  0  0  0  0  0  0  0  0  0
  111.2385  -73.0876  -79.9839 C   0  0  0  0  0  0  0  0  0  0  0  0
  1  2  1  1  0  0  0
  1  3  1  0  0  0  0
  1 16  1  0  0  0  0
  2 23  1  0  0  0  0
  2 24  1  0  0  0  0
  4 25  1  0  0  0  0
  4 26  1  0  0  0  0
  5  6  1  0  0  0  0
  6  3  1  6  0  0  0
  6 14  1  0  0  0  0
  7  5  1  1  0  0  0
  7  8  1  0  0  0  0
  7 12  1  0  0  0  0
  8  9  1  0  0  0  0
  9  4  1  1  0  0  0
  9 10  1  0  0  0  0
 10 11  1  0  0  0  0
 12 11  1  6  0  0  0
 12 13  1  0  0  0  0
 13 14  1  0  0  0  0
 13 17  1  6  0  0  0
 14 15  1  6  0  0  0
 15 16  1  0  0  0  0
 17 18  1  0  0  0  0
 17 22  1  0  0  0  0
 18 19  1  0  0  0  0
 19 20  1  0  0  0  0
 20 21  1  0  0  0  0
 21 22  1  0  0  0  0
M  END
>  <CHROM.1>
-98.23022756,155.46662438,-154.64352466,110.67936994,-76.18234934,-84.72990389
2.28255804,0.87945416,-2.12458920

>  <Name>
ligand

>  <RI>
0

>  <Rbt.Current_Directory>
/home/itssahil/PROJECTS/Mol_Feturizer/Test_systems_manuscript/rnas/1f1t

>  <Rbt.Executable>
rbdock ($Id: //depot/dev/client3/rdock/2013.1/src/exe/rbdock.cxx#4 $)

>  <Rbt.Library>
libRbt.so (2013.1, Build901 2013/11/27)

>  <Rbt.Parameter_File>
/export/apps/rDock/src/rDock_2013.1_src/data/scripts/dock_solv.prm

>  <Rbt.Receptor>
prm/pocket_docking_2.prm

>  <SCORE>
-41.6295

>  <SCORE.INTER>
-43.5699

>  <SCORE.INTER.CONST>
1

>  <SCORE.INTER.POLAR>
0

>  <SCORE.INTER.ROT>
3

>  <SCORE.INTER.SOLV>
8.72904

>  <SCORE.INTER.VDW>
-37.5563

>  <SCORE.INTER.norm>
-1.67577

>  <SCORE.INTRA>
1.54415

>  <SCORE.INTRA.DIHEDRAL>
-0.000200919

>  <SCORE.INTRA.DIHEDRAL.0>
3.60016

>  <SCORE.INTRA.POLAR>
0

>  <SCORE.INTRA.POLAR.0>
0

>  <SCORE.INTRA.REPUL>
0

>  <SCORE.INTRA.REPUL.0>
0

>  <SCORE.INTRA.SOLV>
6.36185e-05

>  <SCORE.INTRA.SOLV.lig_0>
-10.9882

>  <SCORE.INTRA.VDW>
1.54422

>  <SCORE.INTRA.VDW.0>
1.84442

>  <SCORE.INTRA.norm>
0.0593904

>  <SCORE.RESTR>
0.396337

>  <SCORE.RESTR.CAVITY>
0.396337

>  <SCORE.RESTR.norm>
0.0152437

>  <SCORE.SYSTEM>
0

>  <SCORE.SYSTEM.CONST>
0

>  <SCORE.SYSTEM.DIHEDRAL>
0

>  <SCORE.SYSTEM.SOLV>
0

>  <SCORE.SYSTEM.norm>
0

>  <SCORE.heavy>
26

>  <SCORE.norm>
-1.60113

>  <RMSD>
5.213

$$$$
ligand
 OpenBabel02271912153D
libRbt.so/2013.1/901 2013/11/27
 26 29  0  0  0  0  0  0  0  0999 V2000
  109.7775  -74.3870  -86.9632 C   0  0  1  0  0  0  0  0  0  0  0  0
  109.1887  -73.6161  -87.9552 N   0  0  0  0  0  0  0  0  0  0  0  0
  109.8390  -73.8914  -85.5961 C   0  0  0  0  0  0  0  0  0  0  0  0
  111.6242  -74.5843  -78.9265 N   0  0  0  0  0  0  0  0  0  0  0  0
  110.4996  -74.2246  -83.3373 O   0  0  0  0  0  0  0  0  0  0  0  0
  110.4627  -74.7808  -84.7189 C   0  0  2  0  0  0  0  0  0  0  0  0
  111.0803  -75.0389  -82.5451 C   0  0  1  0  0  0  0  0  0  0  0  0
  111.0557  -74.4118  -81.2237 C   0  0  0  0  0  0  0  0  0  0  0  0
  111.6835  -75.1948  -80.1910 C   0  0  2  0  0  0  0  0  0  0  0  0
  112.2811  -76.4544  -80.4436 C   0  0  0  0  0  0  0  0  0  0  0  0
  112.2638  -77.0264  -81.7771 C   0  0  0  0  0  0  0  0  0  0  0  0
  111.6274  -76.2659  -82.8245 C   0  0  2  0  0  0  0  0  0  0  0  0
  111.6399  -76.9402  -84.1763 C   0  0  1  0  0  0  0  0  0  0  0  0
  110.9977  -76.0258  -85.0306 C   0  0  2  0  0  0  0  0  0  0  0  0
  110.9196  -76.5098  -86.4106 C   0  0  0  0  0  0  0  0  0  0  0  0
  110.2880  -75.6169  -87.3305 C   0  0  0  0  0  0  0  0  0  0  0  0
  112.1995  -78.1850  -84.3934 C   0  0  0  0  0  0  0  0  0  0  0  0
  112.6014  -79.0916  -83.3849 C   0  0  0  0  0  0  0  0  0  0  0  0
  113.1517  -80.3587  -83.5858 C   0  0  0  0  0  0  0  0  0  0  0  0
  113.3531  -80.8489  -84.9411 C   0  0  0  0  0  0  0  0  0  0  0  0
  112.9518  -79.9146  -85.9260 C   0  0  0  0  0  0  0  0  0  0  0  0
  112.4006  -78.6352  -85.7705 C   0  0  0  0  0  0  0  0  0  0  0  0
  109.7585  -72.3443  -88.3913 C   0  0  0  0  0  0  0  0  0  0  0  0
  107.9558  -73.9416  -88.7035 C   0  0  0  0  0  0  0  0  0  0  0  0
  111.4119  -73.1760  -78.5241 C   0  0  0  0  0  0  0  0  0  0  0  0
  111.7812  -75.4752  -77.7229 C   0  0  0  0  0  0  0  0  0  0  0  0
  1  2  1  1  0  0  0
  1  3  1  0  0  0  0
  1 16  1  0  0  0  0
  2 23  1  0  0  0  0
  2 24  1  0  0  0  0
  4 25  1  0  0  0  0
  4 26  1  0  0  0  0
  5  6  1  0  0  0  0
  6  3  1  6  0  0  0
  6 14  1  0  0  0  0
  7  5  1  1  0  0  0
  7  8  1  0  0  0  0
  7 12  1  0  0  0  0
  8  9  1  0  0  0  0
  9  4  1  1  0  0  0
  9 10  1  0  0  0  0
 10 11  1  0  0  0  0
 12 11  1  6  0  0  0
 12 13  1  0  0  0  0
 13 14  1  0  0  0  0
 13 17  1  6  0  0  0
 14 15  1  6  0  0  0
 15 16  1  0  0  0  0
 17 18  1  0  0  0  0
 17 22  1  0  0  0  0
 18 19  1  0  0  0  0
 19 20  1  0  0  0  0
 20 21  1  0  0  0  0
 21 22  1  0  0  0  0
M  END
>  <CHROM.1>
65.96351868,-20.57336030,12.34318217,111.20425758,-75.90739200,-83.84527574
2.17332616,1.09324196,-1.99557403

>  <Name>
ligand

>  <RI>
0

>  <Rbt.Current_Directory>
/home/itssahil/PROJECTS/Mol_Feturizer/Test_systems_manuscript/rnas/1f1t

>  <Rbt.Executable>
rbdock ($Id: //depot/dev/client3/rdock/2013.1/src/exe/rbdock.cxx#4 $)

>  <Rbt.Library>
libRbt.so (2013.1, Build901 2013/11/27)

>  <Rbt.Parameter_File>
/export/apps/rDock/src/rDock_2013.1_src/data/scripts/dock_solv.prm

>  <Rbt.Receptor>
prm/pocket_docking_5.prm

>  <SCORE>
-46.8035

>  <SCORE.INTER>
-47.2366

>  <SCORE.INTER.CONST>
1

>  <SCORE.INTER.POLAR>
0

>  <SCORE.INTER.ROT>
3

>  <SCORE.INTER.SOLV>
8.79836

>  <SCORE.INTER.VDW>
-40.0239

>  <SCORE.INTER.norm>
-1.81679

>  <SCORE.INTRA>
0.433152

>  <SCORE.INTRA.DIHEDRAL>
-0.000132984

>  <SCORE.INTRA.DIHEDRAL.0>
3.60016

>  <SCORE.INTRA.POLAR>
0

>  <SCORE.INTRA.POLAR.0>
0

>  <SCORE.INTRA.REPUL>
0

>  <SCORE.INTRA.REPUL.0>
0

>  <SCORE.INTRA.SOLV>
0.000927688

>  <SCORE.INTRA.SOLV.lig_0>
-10.9882

>  <SCORE.INTRA.VDW>
0.432755

>  <SCORE.INTRA.VDW.0>
1.84442

>  <SCORE.INTRA.norm>
0.0166597

>  <SCORE.RESTR>
0

>  <SCORE.RESTR.CAVITY>
0

>  <SCORE.RESTR.norm>
0

>  <SCORE.SYSTEM>
0

>  <SCORE.SYSTEM.CONST>
0

>  <SCORE.SYSTEM.DIHEDRAL>
0

>  <SCORE.SYSTEM.SOLV>
0

>  <SCORE.SYSTEM.norm>
0

>  <SCORE.heavy>
26

>  <SCORE.norm>
-1.80013

>  <RMSD>
5.311

$$$$
ligand
 OpenBabel02271912153D
libRbt.so/2013.1/901 2013/11/27
 26 29  0  0  0  0  0  0  0  0999 V2000
  111.5945  -75.0401  -80.1651 C   0  0  1  0  0  0  0  0  0  0  0  0
  111.6034  -74.5114  -78.8823 N   0  0  0  0  0  0  0  0  0  0  0  0
  111.0051  -74.2840  -81.2602 C   0  0  0  0  0  0  0  0  0  0  0  0
  109.2904  -73.5509  -87.9440 N   0  0  0  0  0  0  0  0  0  0  0  0
  110.4548  -74.1356  -83.5678 O   0  0  0  0  0  0  0  0  0  0  0  0
  111.0719  -74.9515  -82.4847 C   0  0  2  0  0  0  0  0  0  0  0  0
  110.5109  -74.7575  -84.6804 C   0  0  1  0  0  0  0  0  0  0  0  0
  109.8954  -73.8766  -85.6728 C   0  0  0  0  0  0  0  0  0  0  0  0
  109.8620  -74.4252  -87.0038 C   0  0  2  0  0  0  0  0  0  0  0  0
  110.3710  -75.7108  -87.3135 C   0  0  0  0  0  0  0  0  0  0  0  0
  110.9786  -76.5327  -86.2835 C   0  0  0  0  0  0  0  0  0  0  0  0
  111.0360  -75.9972  -84.9455 C   0  0  2  0  0  0  0  0  0  0  0  0
  111.6976  -76.9097  -83.9397 C   0  0  1  0  0  0  0  0  0  0  0  0
  111.6226  -76.2055  -82.7244 C   0  0  2  0  0  0  0  0  0  0  0  0
  112.2173  -76.9476  -81.6106 C   0  0  0  0  0  0  0  0  0  0  0  0
  112.1595  -76.2878  -80.3442 C   0  0  0  0  0  0  0  0  0  0  0  0
  112.2175  -78.1467  -84.2706 C   0  0  0  0  0  0  0  0  0  0  0  0
  112.4129  -78.6300  -85.5854 C   0  0  0  0  0  0  0  0  0  0  0  0
  112.9523  -79.8684  -85.9379 C   0  0  0  0  0  0  0  0  0  0  0  0
  113.3737  -80.7923  -84.8956 C   0  0  0  0  0  0  0  0  0  0  0  0
  113.1547  -80.2840  -83.5927 C   0  0  0  0  0  0  0  0  0  0  0  0
  112.6146  -79.0535  -83.1939 C   0  0  0  0  0  0  0  0  0  0  0  0
  111.8454  -75.3382  -77.7032 C   0  0  0  0  0  0  0  0  0  0  0  0
  111.3901  -73.0952  -78.5155 C   0  0  0  0  0  0  0  0  0  0  0  0
  109.7643  -72.2668  -88.5069 C   0  0  0  0  0  0  0  0  0  0  0  0
  107.9631  -73.9458  -88.5348 C   0  0  0  0  0  0  0  0  0  0  0  0
  1  2  1  6  0  0  0
  1  3  1  0  0  0  0
  1 16  1  0  0  0  0
  2 23  1  0  0  0  0
  2 24  1  0  0  0  0
  4 25  1  0  0  0  0
  4 26  1  0  0  0  0
  5  6  1  0  0  0  0
  6  3  1  1  0  0  0
  6 14  1  0  0  0  0
  7  5  1  6  0  0  0
  7  8  1  0  0  0  0
  7 12  1  0  0  0  0
  8  9  1  0  0  0  0
  9  4  1  6  0  0  0
  9 10  1  0  0  0  0
 10 11  1  0  0  0  0
 12 11  1  1  0  0  0
 12 13  1  0  0  0  0
 13 14  1  0  0  0  0
 13 17  1  1  0  0  0
 14 15  1  1  0  0  0
 15 16  1  0  0  0  0
 17 18  1  0  0  0  0
 17 22  1  0  0  0  0
 18 19  1  0  0  0  0
 19 20  1  0  0  0  0
 20 21  1  0  0  0  0
 21 22  1  0  0  0  0
M  END
>  <CHROM.1>
163.40195059,69.07388836,11.33449264,111.21430243,-75.85241780,-83.80234830
0.98134543,-1.09925531,1.14864679

>  <Name>
ligand

>  <RI>
0

>  <Rbt.Current_Directory>
/home/itssahil/PROJECTS/Mol_Feturizer/Test_systems_manuscript/rnas/1f1t

>  <Rbt.Executable>
rbdock ($Id: //depot/dev/client3/rdock/2013.1/src/exe/rbdock.cxx#4 $)

>  <Rbt.Library>
libRbt.so (2013.1, Build901 2013/11/27)

>  <Rbt.Parameter_File>
/export/apps/rDock/src/rDock_2013.1_src/data/scripts/dock_solv.prm

>  <Rbt.Receptor>
prm/pocket_docking_8.prm

>  <SCORE>
-46.2219

>  <SCORE.INTER>
-47.2806

>  <SCORE.INTER.CONST>
1

>  <SCORE.INTER.POLAR>
0

>  <SCORE.INTER.ROT>
3

>  <SCORE.INTER.SOLV>
8.99681

>  <SCORE.INTER.VDW>
-40.1193

>  <SCORE.INTER.norm>
-1.81848

>  <SCORE.INTRA>
1.05867

>  <SCORE.INTRA.DIHEDRAL>
-0.00054804

>  <SCORE.INTRA.DIHEDRAL.0>
3.60016

>  <SCORE.INTRA.POLAR>
0

>  <SCORE.INTRA.POLAR.0>
0

>  <SCORE.INTRA.REPUL>
0

>  <SCORE.INTRA.REPUL.0>
0

>  <SCORE.INTRA.SOLV>
0.00037784

>  <SCORE.INTRA.SOLV.lig_0>
-10.9882

>  <SCORE.INTRA.VDW>
1.05876

>  <SCORE.INTRA.VDW.0>
1.84442

>  <SCORE.INTRA.norm>
0.0407183

>  <SCORE.RESTR>
0

>  <SCORE.RESTR.CAVITY>
0

>  <SCORE.RESTR.norm>
0

>  <SCORE.SYSTEM>
0

>  <SCORE.SYSTEM.CONST>
0

>  <SCORE.SYSTEM.DIHEDRAL>
0

>  <SCORE.SYSTEM.SOLV>
0

>  <SCORE.SYSTEM.norm>
0

>  <SCORE.heavy>
26

>  <SCORE.norm>
-1.77776

>  <RMSD>
5.321

$$$$
ligand
 OpenBabel02271912153D
libRbt.so/2013.1/901 2013/11/27
 26 29  0  0  0  0  0  0  0  0999 V2000
  109.9429  -74.2967  -86.8512 C   0  0  1  0  0  0  0  0  0  0  0  0
  109.3696  -73.4975  -87.8300 N   0  0  0  0  0  0  0  0  0  0  0  0
  110.0284  -73.8191  -85.4790 C   0  0  0  0  0  0  0  0  0  0  0  0
  111.8397  -74.6413  -78.8312 N   0  0  0  0  0  0  0  0  0  0  0  0
  110.6950  -74.1976  -83.2291 O   0  0  0  0  0  0  0  0  0  0  0  0
  110.6323  -74.7362  -84.6167 C   0  0  2  0  0  0  0  0  0  0  0  0
  111.2575  -75.0375  -82.4506 C   0  0  1  0  0  0  0  0  0  0  0  0
  111.2603  -74.4255  -81.1220 C   0  0  0  0  0  0  0  0  0  0  0  0
  111.8724  -75.2383  -80.1031 C   0  0  2  0  0  0  0  0  0  0  0  0
  112.4316  -76.5115  -80.3746 C   0  0  0  0  0  0  0  0  0  0  0  0
  112.3884  -77.0671  -81.7144 C   0  0  0  0  0  0  0  0  0  0  0  0
  111.7669  -76.2764  -82.7483 C   0  0  2  0  0  0  0  0  0  0  0  0
  111.7504  -76.9348  -84.1078 C   0  0  1  0  0  0  0  0  0  0  0  0
  111.1289  -75.9924  -84.9467 C   0  0  2  0  0  0  0  0  0  0  0  0
  111.0271  -76.4578  -86.3316 C   0  0  0  0  0  0  0  0  0  0  0  0
  110.4151  -75.5363  -87.2365 C   0  0  0  0  0  0  0  0  0  0  0  0
  112.2723  -78.1927  -84.3433 C   0  0  0  0  0  0  0  0  0  0  0  0
  112.6503  -79.1241  -83.3483 C   0  0  0  0  0  0  0  0  0  0  0  0
  113.1623  -80.4041  -83.5679 C   0  0  0  0  0  0  0  0  0  0  0  0
  113.3450  -80.8818  -84.9303 C   0  0  0  0  0  0  0  0  0  0  0  0
  112.9684  -79.9230  -85.9013 C   0  0  0  0  0  0  0  0  0  0  0  0
  112.4558  -78.6301  -85.7269 C   0  0  0  0  0  0  0  0  0  0  0  0
  108.1108  -73.8494  -88.4810 C   0  0  0  0  0  0  0  0  0  0  0  0
  109.9051  -72.2185  -88.3430 C   0  0  0  0  0  0  0  0  0  0  0  0
  111.1460  -73.4339  -78.3299 C   0  0  0  0  0  0  0  0  0  0  0  0
  112.6185  -75.3154  -77.7330 C   0  0  0  0  0  0  0  0  0  0  0  0
  1  2  1  1  0  0  0
  1  3  1  0  0  0  0
  1 16  1  0  0  0  0
  2 23  1  0  0  0  0
  2 24  1  0  0  0  0
  4 25  1  0  0  0  0
  4 26  1  0  0  0  0
  5  6  1  0  0  0  0
  6  3  1  6  0  0  0
  6 14  1  0  0  0  0
  7  5  1  1  0  0  0
  7  8  1  0  0  0  0
  7 12  1  0  0  0  0
  8  9  1  0  0  0  0
  9  4  1  1  0  0  0
  9 10  1  0  0  0  0
 10 11  1  0  0  0  0
 12 11  1  6  0  0  0
 12 13  1  0  0  0  0
 13 14  1  0  0  0  0
 13 17  1  6  0  0  0
 14 15  1  6  0  0  0
 15 16  1  0  0  0  0
 17 18  1  0  0  0  0
 17 22  1  0  0  0  0
 18 19  1  0  0  0  0
 19 20  1  0  0  0  0
 20 21  1  0  0  0  0
 21 22  1  0  0  0  0
M  END
>  <CHROM.1>
-112.78558858,9.18191305,12.59223361,111.34870386,-75.89471487,-83.76204455
2.21787923,1.10493943,-2.02255935

>  <Name>
ligand

>  <RI>
0

>  <Rbt.Current_Directory>
/home/itssahil/PROJECTS/Mol_Feturizer/Test_systems_manuscript/rnas/1f1t

>  <Rbt.Executable>
rbdock ($Id: //depot/dev/client3/rdock/2013.1/src/exe/rbdock.cxx#4 $)

>  <Rbt.Library>
libRbt.so (2013.1, Build901 2013/11/27)

>  <Rbt.Parameter_File>
/export/apps/rDock/src/rDock_2013.1_src/data/scripts/dock_solv.prm

>  <Rbt.Receptor>
prm/pocket_docking_6.prm

>  <SCORE>
-46.536

>  <SCORE.INTER>
-47.2439

>  <SCORE.INTER.CONST>
1

>  <SCORE.INTER.POLAR>
0

>  <SCORE.INTER.ROT>
3

>  <SCORE.INTER.SOLV>
9.01612

>  <SCORE.INTER.VDW>
-40.1013

>  <SCORE.INTER.norm>
-1.81707

>  <SCORE.INTRA>
0.707902

>  <SCORE.INTRA.DIHEDRAL>
-1.7751e-05

>  <SCORE.INTRA.DIHEDRAL.0>
3.60016

>  <SCORE.INTRA.POLAR>
0

>  <SCORE.INTRA.POLAR.0>
0

>  <SCORE.INTRA.REPUL>
0

>  <SCORE.INTRA.REPUL.0>
0

>  <SCORE.INTRA.SOLV>
0.000881578

>  <SCORE.INTRA.SOLV.lig_0>
-10.9882

>  <SCORE.INTRA.VDW>
0.70747

>  <SCORE.INTRA.VDW.0>
1.84442

>  <SCORE.INTRA.norm>
0.027227

>  <SCORE.RESTR>
0

>  <SCORE.RESTR.CAVITY>
0

>  <SCORE.RESTR.norm>
0

>  <SCORE.SYSTEM>
0

>  <SCORE.SYSTEM.CONST>
0

>  <SCORE.SYSTEM.DIHEDRAL>
0

>  <SCORE.SYSTEM.SOLV>
0

>  <SCORE.SYSTEM.norm>
0

>  <SCORE.heavy>
26

>  <SCORE.norm>
-1.78985

>  <RMSD>
5.339

$$$$
ligand
 OpenBabel02271912153D
libRbt.so/2013.1/901 2013/11/27
 26 29  0  0  0  0  0  0  0  0999 V2000
  109.6753  -75.1568  -87.1397 C   0  0  1  0  0  0  0  0  0  0  0  0
  108.9236  -74.2773  -87.9055 N   0  0  0  0  0  0  0  0  0  0  0  0
  109.9950  -74.8292  -85.7580 C   0  0  0  0  0  0  0  0  0  0  0  0
  112.9724  -76.3051  -79.6665 N   0  0  0  0  0  0  0  0  0  0  0  0
  111.0571  -75.4263  -83.7172 O   0  0  0  0  0  0  0  0  0  0  0  0
  110.7582  -75.8120  -85.1248 C   0  0  2  0  0  0  0  0  0  0  0  0
  111.7634  -76.3247  -83.1499 C   0  0  1  0  0  0  0  0  0  0  0  0
  111.9916  -75.8620  -81.7812 C   0  0  0  0  0  0  0  0  0  0  0  0
  112.7889  -76.7580  -80.9842 C   0  0  2  0  0  0  0  0  0  0  0  0
  113.3130  -77.9722  -81.4927 C   0  0  0  0  0  0  0  0  0  0  0  0
  113.0420  -78.3792  -82.8590 C   0  0  0  0  0  0  0  0  0  0  0  0
  112.2331  -77.5039  -83.6713 C   0  0  2  0  0  0  0  0  0  0  0  0
  111.9867  -78.0100  -85.0732 C   0  0  1  0  0  0  0  0  0  0  0  0
  111.2099  -77.0052  -85.6776 C   0  0  2  0  0  0  0  0  0  0  0  0
  110.8717  -77.3199  -87.0674 C   0  0  0  0  0  0  0  0  0  0  0  0
  110.0929  -76.3284  -87.7404 C   0  0  0  0  0  0  0  0  0  0  0  0
  112.4801  -79.2142  -85.5383 C   0  0  0  0  0  0  0  0  0  0  0  0
  112.6345  -79.5675  -86.8990 C   0  0  0  0  0  0  0  0  0  0  0  0
  113.1468  -80.7713  -87.3862 C   0  0  0  0  0  0  0  0  0  0  0  0
  113.5818  -81.7986  -86.4517 C   0  0  0  0  0  0  0  0  0  0  0  0
  113.4038  -81.4189  -85.0996 C   0  0  0  0  0  0  0  0  0  0  0  0
  112.8919  -80.2276  -84.5672 C   0  0  0  0  0  0  0  0  0  0  0  0
  109.3644  -72.9120  -88.1774 C   0  0  0  0  0  0  0  0  0  0  0  0
  107.6234  -74.5642  -88.5483 C   0  0  0  0  0  0  0  0  0  0  0  0
  112.2612  -75.2788  -78.8720 C   0  0  0  0  0  0  0  0  0  0  0  0
  114.0644  -76.9559  -78.8597 C   0  0  0  0  0  0  0  0  0  0  0  0
  1  2  1  1  0  0  0
  1  3  1  0  0  0  0
  1 16  1  0  0  0  0
  2 23  1  0  0  0  0
  2 24  1  0  0  0  0
  4 25  1  0  0  0  0
  4 26  1  0  0  0  0
  5  6  1  0  0  0  0
  6  3  1  6  0  0  0
  6 14  1  0  0  0  0
  7  5  1  1  0  0  0
  7  8  1  0  0  0  0
  7 12  1  0  0  0  0
  8  9  1  0  0  0  0
  9  4  1  1  0  0  0
  9 10  1  0  0  0  0
 10 11  1  0  0  0  0
 12 11  1  6  0  0  0
 12 13  1  0  0  0  0
 13 14  1  0  0  0  0
 13 17  1  6  0  0  0
 14 15  1  6  0  0  0
 15 16  1  0  0  0  0
 17 18  1  0  0  0  0
 17 22  1  0  0  0  0
 18 19  1  0  0  0  0
 19 20  1  0  0  0  0
 20 21  1  0  0  0  0
 21 22  1  0  0  0  0
M  END
>  <CHROM.1>
60.04726669,16.50003078,-160.18196493,111.64889419,-77.02896370,-84.52959496
2.50974229,0.99213978,-2.14992801

>  <Name>
ligand

>  <RI>
0

>  <Rbt.Current_Directory>
/home/itssahil/PROJECTS/Mol_Feturizer/Test_systems_manuscript/rnas/1f1t

>  <Rbt.Executable>
rbdock ($Id: //depot/dev/client3/rdock/2013.1/src/exe/rbdock.cxx#4 $)

>  <Rbt.Library>
libRbt.so (2013.1, Build901 2013/11/27)

>  <Rbt.Parameter_File>
/export/apps/rDock/src/rDock_2013.1_src/data/scripts/dock_solv.prm

>  <Rbt.Receptor>
prm/pocket_docking_3.prm

>  <SCORE>
-43.5596

>  <SCORE.INTER>
-44.787

>  <SCORE.INTER.CONST>
1

>  <SCORE.INTER.POLAR>
0

>  <SCORE.INTER.ROT>
3

>  <SCORE.INTER.SOLV>
6.52634

>  <SCORE.INTER.VDW>
-37.6334

>  <SCORE.INTER.norm>
-1.72258

>  <SCORE.INTRA>
1.22733

>  <SCORE.INTRA.DIHEDRAL>
0.00012906

>  <SCORE.INTRA.DIHEDRAL.0>
3.60016

>  <SCORE.INTRA.POLAR>
0

>  <SCORE.INTRA.POLAR.0>
0

>  <SCORE.INTRA.REPUL>
0

>  <SCORE.INTRA.REPUL.0>
0

>  <SCORE.INTRA.SOLV>
0.000919428

>  <SCORE.INTRA.SOLV.lig_0>
-10.9882

>  <SCORE.INTRA.VDW>
1.22681

>  <SCORE.INTRA.VDW.0>
1.84442

>  <SCORE.INTRA.norm>
0.047205

>  <SCORE.RESTR>
0

>  <SCORE.RESTR.CAVITY>
0

>  <SCORE.RESTR.norm>
0

>  <SCORE.SYSTEM>
0

>  <SCORE.SYSTEM.CONST>
0

>  <SCORE.SYSTEM.DIHEDRAL>
0

>  <SCORE.SYSTEM.SOLV>
0

>  <SCORE.SYSTEM.norm>
0

>  <SCORE.heavy>
26

>  <SCORE.norm>
-1.67537

>  <RMSD>
5.377

$$$$
ligand
 OpenBabel02271912153D
libRbt.so/2013.1/901 2013/11/27
 26 29  0  0  0  0  0  0  0  0999 V2000
  112.3682  -77.4073  -80.9332 C   0  0  1  0  0  0  0  0  0  0  0  0
  112.5378  -77.1680  -79.5770 N   0  0  0  0  0  0  0  0  0  0  0  0
  111.6209  -76.4635  -81.7512 C   0  0  0  0  0  0  0  0  0  0  0  0
  109.0092  -74.3934  -87.8376 N   0  0  0  0  0  0  0  0  0  0  0  0
  110.7629  -75.8488  -83.8809 O   0  0  0  0  0  0  0  0  0  0  0  0
  111.5373  -76.8469  -83.0912 C   0  0  2  0  0  0  0  0  0  0  0  0
  110.6826  -76.2123  -85.1013 C   0  0  1  0  0  0  0  0  0  0  0  0
  109.9205  -75.1704  -85.7892 C   0  0  0  0  0  0  0  0  0  0  0  0
  109.7207  -75.4200  -87.1933 C   0  0  2  0  0  0  0  0  0  0  0  0
  110.2113  -76.5810  -87.8405 C   0  0  0  0  0  0  0  0  0  0  0  0
  110.9694  -77.5740  -87.1023 C   0  0  0  0  0  0  0  0  0  0  0  0
  111.1942  -77.3375  -85.6974 C   0  0  2  0  0  0  0  0  0  0  0  0
  112.0045  -78.4108  -85.0092 C   0  0  1  0  0  0  0  0  0  0  0  0
  112.0780  -77.9901  -83.6691 C   0  0  2  0  0  0  0  0  0  0  0  0
  112.8327  -78.9240  -82.8305 C   0  0  0  0  0  0  0  0  0  0  0  0
  112.9311  -78.5567  -81.4529 C   0  0  0  0  0  0  0  0  0  0  0  0
  112.5020  -79.5193  -85.6677 C   0  0  0  0  0  0  0  0  0  0  0  0
  112.9296  -80.7177  -85.0501 C   0  0  0  0  0  0  0  0  0  0  0  0
  113.4179  -81.8526  -85.7001 C   0  0  0  0  0  0  0  0  0  0  0  0
  113.5178  -81.8629  -87.1519 C   0  0  0  0  0  0  0  0  0  0  0  0
  113.0933  -80.6463  -87.7381 C   0  0  0  0  0  0  0  0  0  0  0  0
  112.6018  -79.4847  -87.1266 C   0  0  0  0  0  0  0  0  0  0  0  0
  111.6945  -77.7993  -78.5657 C   0  0  0  0  0  0  0  0  0  0  0  0
  113.5536  -76.2875  -78.9617 C   0  0  0  0  0  0  0  0  0  0  0  0
  109.3538  -72.9801  -88.1101 C   0  0  0  0  0  0  0  0  0  0  0  0
  107.6502  -74.7366  -88.3874 C   0  0  0  0  0  0  0  0  0  0  0  0
  1  2  1  6  0  0  0
  1  3  1  0  0  0  0
  1 16  1  0  0  0  0
  2 23  1  0  0  0  0
  2 24  1  0  0  0  0
  4 25  1  0  0  0  0
  4 26  1  0  0  0  0
  5  6  1  0  0  0  0
  6  3  1  1  0  0  0
  6 14  1  0  0  0  0
  7  5  1  6  0  0  0
  7  8  1  0  0  0  0
  7 12  1  0  0  0  0
  8  9  1  0  0  0  0
  9  4  1  6  0  0  0
  9 10  1  0  0  0  0
 10 11  1  0  0  0  0
 12 11  1  1  0  0  0
 12 13  1  0  0  0  0
 13 14  1  0  0  0  0
 13 17  1  1  0  0  0
 14 15  1  1  0  0  0
 15 16  1  0  0  0  0
 17 18  1  0  0  0  0
 17 22  1  0  0  0  0
 18 19  1  0  0  0  0
 19 20  1  0  0  0  0
 20 21  1  0  0  0  0
 21 22  1  0  0  0  0
M  END
>  <CHROM.1>
98.38773942,66.20243312,-161.28784007,111.50959610,-77.42802772,-84.59924640
0.79555580,-1.01579215,1.18175583

>  <Name>
ligand

>  <RI>
0

>  <Rbt.Current_Directory>
/home/itssahil/PROJECTS/Mol_Feturizer/Test_systems_manuscript/rnas/1f1t

>  <Rbt.Executable>
rbdock ($Id: //depot/dev/client3/rdock/2013.1/src/exe/rbdock.cxx#4 $)

>  <Rbt.Library>
libRbt.so (2013.1, Build901 2013/11/27)

>  <Rbt.Parameter_File>
/export/apps/rDock/src/rDock_2013.1_src/data/scripts/dock_solv.prm

>  <Rbt.Receptor>
prm/pocket_docking_3.prm

>  <SCORE>
-44.5824

>  <SCORE.INTER>
-44.2399

>  <SCORE.INTER.CONST>
1

>  <SCORE.INTER.POLAR>
0

>  <SCORE.INTER.ROT>
3

>  <SCORE.INTER.SOLV>
6.24855

>  <SCORE.INTER.VDW>
-37.1761

>  <SCORE.INTER.norm>
-1.70153

>  <SCORE.INTRA>
-0.344279

>  <SCORE.INTRA.DIHEDRAL>
-0.000355027

>  <SCORE.INTRA.DIHEDRAL.0>
3.60016

>  <SCORE.INTRA.POLAR>
0

>  <SCORE.INTRA.POLAR.0>
0

>  <SCORE.INTRA.REPUL>
0

>  <SCORE.INTRA.REPUL.0>
0

>  <SCORE.INTRA.SOLV>
0.001114

>  <SCORE.INTRA.SOLV.lig_0>
-10.9882

>  <SCORE.INTRA.VDW>
-0.344659

>  <SCORE.INTRA.VDW.0>
1.84442

>  <SCORE.INTRA.norm>
-0.0132415

>  <SCORE.RESTR>
0.00182082

>  <SCORE.RESTR.CAVITY>
0.00182082

>  <SCORE.RESTR.norm>
7.00316e-05

>  <SCORE.SYSTEM>
0

>  <SCORE.SYSTEM.CONST>
0

>  <SCORE.SYSTEM.DIHEDRAL>
0

>  <SCORE.SYSTEM.SOLV>
0

>  <SCORE.SYSTEM.norm>
0

>  <SCORE.heavy>
26

>  <SCORE.norm>
-1.71471

>  <RMSD>
5.421

$$$$
ligand
 OpenBabel02271912153D
libRbt.so/2013.1/901 2013/11/27
 26 29  0  0  0  0  0  0  0  0999 V2000
  109.6023  -75.3575  -87.2368 C   0  0  1  0  0  0  0  0  0  0  0  0
  108.8772  -74.4124  -87.9482 N   0  0  0  0  0  0  0  0  0  0  0  0
  109.8244  -75.1816  -85.8092 C   0  0  0  0  0  0  0  0  0  0  0  0
  112.4472  -77.2760  -79.7359 N   0  0  0  0  0  0  0  0  0  0  0  0
  110.7703  -75.9840  -83.7816 O   0  0  0  0  0  0  0  0  0  0  0  0
  110.5722  -76.2143  -85.2401 C   0  0  2  0  0  0  0  0  0  0  0  0
  111.4632  -76.9265  -83.2723 C   0  0  1  0  0  0  0  0  0  0  0  0
  111.5913  -76.6167  -81.8485 C   0  0  0  0  0  0  0  0  0  0  0  0
  112.3603  -77.5809  -81.1051 C   0  0  2  0  0  0  0  0  0  0  0  0
  112.9484  -78.7193  -81.7098 C   0  0  0  0  0  0  0  0  0  0  0  0
  112.7761  -78.9749  -83.1278 C   0  0  0  0  0  0  0  0  0  0  0  0
  111.9971  -78.0298  -83.8895 C   0  0  2  0  0  0  0  0  0  0  0  0
  111.8542  -78.3792  -85.3522 C   0  0  1  0  0  0  0  0  0  0  0  0
  111.0904  -77.3283  -85.8911 C   0  0  2  0  0  0  0  0  0  0  0  0
  110.8500  -77.4908  -87.3267 C   0  0  0  0  0  0  0  0  0  0  0  0
  110.0889  -76.4454  -87.9352 C   0  0  0  0  0  0  0  0  0  0  0  0
  112.4087  -79.5133  -85.9146 C   0  0  0  0  0  0  0  0  0  0  0  0
  113.0537  -80.5514  -85.2027 C   0  0  0  0  0  0  0  0  0  0  0  0
  113.6034  -81.7110  -85.7521 C   0  0  0  0  0  0  0  0  0  0  0  0
  113.5349  -81.9286  -87.1893 C   0  0  0  0  0  0  0  0  0  0  0  0
  112.8943  -80.8676  -87.8733 C   0  0  0  0  0  0  0  0  0  0  0  0
  112.3335  -79.6878  -87.3649 C   0  0  0  0  0  0  0  0  0  0  0  0
  107.5839  -74.7194  -88.5528 C   0  0  0  0  0  0  0  0  0  0  0  0
  109.2685  -73.0076  -88.1917 C   0  0  0  0  0  0  0  0  0  0  0  0
  112.9205  -76.0664  -79.0265 C   0  0  0  0  0  0  0  0  0  0  0  0
  111.9716  -78.3238  -78.7649 C   0  0  0  0  0  0  0  0  0  0  0  0
  1  2  1  1  0  0  0
  1  3  1  0  0  0  0
  1 16  1  0  0  0  0
  2 23  1  0  0  0  0
  2 24  1  0  0  0  0
  4 25  1  0  0  0  0
  4 26  1  0  0  0  0
  5  6  1  0  0  0  0
  6  3  1  6  0  0  0
  6 14  1  0  0  0  0
  7  5  1  1  0  0  0
  7  8  1  0  0  0  0
  7 12  1  0  0  0  0
  8  9  1  0  0  0  0
  9  4  1  1  0  0  0
  9 10  1  0  0  0  0
 10 11  1  0  0  0  0
 12 11  1  6  0  0  0
 12 13  1  0  0  0  0
 13 14  1  0  0  0  0
 13 17  1  6  0  0  0
 14 15  1  6  0  0  0
 15 16  1  0  0  0  0
 17 18  1  0  0  0  0
 17 22  1  0  0  0  0
 18 19  1  0  0  0  0
 19 20  1  0  0  0  0
 20 21  1  0  0  0  0
 21 22  1  0  0  0  0
M  END
>  <CHROM.1>
-114.19832325,-55.64116578,6.71492385,111.43113894,-77.47311425,-84.74260872
2.36556911,1.01363948,-1.94173855

>  <Name>
ligand

>  <RI>
0

>  <Rbt.Current_Directory>
/home/itssahil/PROJECTS/Mol_Feturizer/Test_systems_manuscript/rnas/1f1t

>  <Rbt.Executable>
rbdock ($Id: //depot/dev/client3/rdock/2013.1/src/exe/rbdock.cxx#4 $)

>  <Rbt.Library>
libRbt.so (2013.1, Build901 2013/11/27)

>  <Rbt.Parameter_File>
/export/apps/rDock/src/rDock_2013.1_src/data/scripts/dock_solv.prm

>  <Rbt.Receptor>
prm/pocket_docking_6.prm

>  <SCORE>
-46.218

>  <SCORE.INTER>
-45.8841

>  <SCORE.INTER.CONST>
1

>  <SCORE.INTER.POLAR>
0

>  <SCORE.INTER.ROT>
3

>  <SCORE.INTER.SOLV>
6.33479

>  <SCORE.INTER.VDW>
-38.301

>  <SCORE.INTER.norm>
-1.76477

>  <SCORE.INTRA>
-0.333926

>  <SCORE.INTRA.DIHEDRAL>
-0.000600213

>  <SCORE.INTRA.DIHEDRAL.0>
3.60016

>  <SCORE.INTRA.POLAR>
0

>  <SCORE.INTRA.POLAR.0>
0

>  <SCORE.INTRA.REPUL>
0

>  <SCORE.INTRA.REPUL.0>
0

>  <SCORE.INTRA.SOLV>
0.00108626

>  <SCORE.INTRA.SOLV.lig_0>
-10.9882

>  <SCORE.INTRA.VDW>
-0.334169

>  <SCORE.INTRA.VDW.0>
1.84442

>  <SCORE.INTRA.norm>
-0.0128433

>  <SCORE.RESTR>
0

>  <SCORE.RESTR.CAVITY>
0

>  <SCORE.RESTR.norm>
0

>  <SCORE.SYSTEM>
0

>  <SCORE.SYSTEM.CONST>
0

>  <SCORE.SYSTEM.DIHEDRAL>
0

>  <SCORE.SYSTEM.SOLV>
0

>  <SCORE.SYSTEM.norm>
0

>  <SCORE.heavy>
26

>  <SCORE.norm>
-1.77762

>  <RMSD>
5.445

$$$$
ligand
 OpenBabel02271912153D
libRbt.so/2013.1/901 2013/11/27
 26 29  0  0  0  0  0  0  0  0999 V2000
  109.6326  -75.3966  -87.2530 C   0  0  1  0  0  0  0  0  0  0  0  0
  108.9109  -74.4648  -87.9852 N   0  0  0  0  0  0  0  0  0  0  0  0
  109.8507  -75.1926  -85.8285 C   0  0  0  0  0  0  0  0  0  0  0  0
  112.4529  -77.1692  -79.7070 N   0  0  0  0  0  0  0  0  0  0  0  0
  110.7896  -75.9557  -83.7826 O   0  0  0  0  0  0  0  0  0  0  0  0
  110.5954  -76.2147  -85.2368 C   0  0  2  0  0  0  0  0  0  0  0  0
  111.4797  -76.8889  -83.2526 C   0  0  1  0  0  0  0  0  0  0  0  0
  111.6040  -76.5509  -81.8348 C   0  0  0  0  0  0  0  0  0  0  0  0
  112.3696  -77.5011  -81.0702 C   0  0  2  0  0  0  0  0  0  0  0  0
  112.9579  -78.6522  -81.6503 C   0  0  0  0  0  0  0  0  0  0  0  0
  112.7893  -78.9357  -83.0634 C   0  0  0  0  0  0  0  0  0  0  0  0
  112.0138  -78.0049  -83.8461 C   0  0  2  0  0  0  0  0  0  0  0  0
  111.8748  -78.3832  -85.3019 C   0  0  1  0  0  0  0  0  0  0  0  0
  111.1140  -77.3422  -85.8640 C   0  0  2  0  0  0  0  0  0  0  0  0
  110.8776  -77.5329  -87.2967 C   0  0  0  0  0  0  0  0  0  0  0  0
  110.1198  -76.4988  -87.9282 C   0  0  0  0  0  0  0  0  0  0  0  0
  112.4294  -79.5289  -85.8401 C   0  0  0  0  0  0  0  0  0  0  0  0
  112.6168  -79.7806  -87.2192 C   0  0  0  0  0  0  0  0  0  0  0  0
  113.1905  -80.9235  -87.7791 C   0  0  0  0  0  0  0  0  0  0  0  0
  113.6614  -81.9916  -86.9100 C   0  0  0  0  0  0  0  0  0  0  0  0
  113.4493  -81.7140  -85.5381 C   0  0  0  0  0  0  0  0  0  0  0  0
  112.8759  -80.5867  -84.9339 C   0  0  0  0  0  0  0  0  0  0  0  0
  107.6545  -74.8025  -88.6484 C   0  0  0  0  0  0  0  0  0  0  0  0
  109.2702  -73.0464  -88.1967 C   0  0  0  0  0  0  0  0  0  0  0  0
  112.9194  -75.9439  -79.0207 C   0  0  0  0  0  0  0  0  0  0  0  0
  111.9805  -78.2000  -78.7164 C   0  0  0  0  0  0  0  0  0  0  0  0
  1  2  1  1  0  0  0
  1  3  1  0  0  0  0
  1 16  1  0  0  0  0
  2 23  1  0  0  0  0
  2 24  1  0  0  0  0
  4 25  1  0  0  0  0
  4 26  1  0  0  0  0
  5  6  1  0  0  0  0
  6  3  1  6  0  0  0
  6 14  1  0  0  0  0
  7  5  1  1  0  0  0
  7  8  1  0  0  0  0
  7 12  1  0  0  0  0
  8  9  1  0  0  0  0
  9  4  1  1  0  0  0
  9 10  1  0  0  0  0
 10 11  1  0  0  0  0
 12 11  1  6  0  0  0
 12 13  1  0  0  0  0
 13 14  1  0  0  0  0
 13 17  1  6  0  0  0
 14 15  1  6  0  0  0
 15 16  1  0  0  0  0
 17 18  1  0  0  0  0
 17 22  1  0  0  0  0
 18 19  1  0  0  0  0
 19 20  1  0  0  0  0
 20 21  1  0  0  0  0
 21 22  1  0  0  0  0
M  END
>  <CHROM.1>
-117.60700363,-55.28999960,-163.81922612,111.46101620,-77.46799794,-84.69469799
2.36938705,1.01566951,-1.94977875

>  <Name>
ligand

>  <RI>
0

>  <Rbt.Current_Directory>
/home/itssahil/PROJECTS/Mol_Feturizer/Test_systems_manuscript/rnas/1f1t

>  <Rbt.Executable>
rbdock ($Id: //depot/dev/client3/rdock/2013.1/src/exe/rbdock.cxx#4 $)

>  <Rbt.Library>
libRbt.so (2013.1, Build901 2013/11/27)

>  <Rbt.Parameter_File>
/export/apps/rDock/src/rDock_2013.1_src/data/scripts/dock_solv.prm

>  <Rbt.Receptor>
prm/pocket_docking_4.prm

>  <SCORE>
-44.6467

>  <SCORE.INTER>
-45.1313

>  <SCORE.INTER.CONST>
1

>  <SCORE.INTER.POLAR>
0

>  <SCORE.INTER.ROT>
3

>  <SCORE.INTER.SOLV>
6.35211

>  <SCORE.INTER.VDW>
-37.8049

>  <SCORE.INTER.norm>
-1.73582

>  <SCORE.INTRA>
0.484618

>  <SCORE.INTRA.DIHEDRAL>
-0.000349487

>  <SCORE.INTRA.DIHEDRAL.0>
3.60016

>  <SCORE.INTRA.POLAR>
0

>  <SCORE.INTRA.POLAR.0>
0

>  <SCORE.INTRA.REPUL>
0

>  <SCORE.INTRA.REPUL.0>
0

>  <SCORE.INTRA.SOLV>
0.00108317

>  <SCORE.INTRA.SOLV.lig_0>
-10.9882

>  <SCORE.INTRA.VDW>
0.484251

>  <SCORE.INTRA.VDW.0>
1.84442

>  <SCORE.INTRA.norm>
0.0186392

>  <SCORE.RESTR>
0

>  <SCORE.RESTR.CAVITY>
0

>  <SCORE.RESTR.norm>
0

>  <SCORE.SYSTEM>
0

>  <SCORE.SYSTEM.CONST>
0

>  <SCORE.SYSTEM.DIHEDRAL>
0

>  <SCORE.SYSTEM.SOLV>
0

>  <SCORE.SYSTEM.norm>
0

>  <SCORE.heavy>
26

>  <SCORE.norm>
-1.71718

>  <RMSD>
5.446

$$$$
ligand
 OpenBabel02271912153D
libRbt.so/2013.1/901 2013/11/27
 26 29  0  0  0  0  0  0  0  0999 V2000
  109.6532  -75.3740  -87.2418 C   0  0  1  0  0  0  0  0  0  0  0  0
  108.9460  -74.4286  -87.9707 N   0  0  0  0  0  0  0  0  0  0  0  0
  109.8440  -75.1961  -85.8099 C   0  0  0  0  0  0  0  0  0  0  0  0
  112.3276  -77.2850  -79.6765 N   0  0  0  0  0  0  0  0  0  0  0  0
  110.7432  -75.9967  -83.7605 O   0  0  0  0  0  0  0  0  0  0  0  0
  110.5769  -76.2292  -85.2227 C   0  0  2  0  0  0  0  0  0  0  0  0
  111.4228  -76.9397  -83.2344 C   0  0  1  0  0  0  0  0  0  0  0  0
  111.5199  -76.6277  -81.8086 C   0  0  0  0  0  0  0  0  0  0  0  0
  112.2704  -77.5920  -81.0468 C   0  0  2  0  0  0  0  0  0  0  0  0
  112.8694  -78.7328  -81.6363 C   0  0  0  0  0  0  0  0  0  0  0  0
  112.7279  -78.9905  -83.0573 C   0  0  0  0  0  0  0  0  0  0  0  0
  111.9679  -78.0452  -83.8377 C   0  0  2  0  0  0  0  0  0  0  0  0
  111.8567  -78.3969  -85.3026 C   0  0  1  0  0  0  0  0  0  0  0  0
  111.1072  -77.3454  -85.8601 C   0  0  2  0  0  0  0  0  0  0  0  0
  110.8982  -77.5100  -87.3003 C   0  0  0  0  0  0  0  0  0  0  0  0
  110.1530  -76.4641  -87.9274 C   0  0  0  0  0  0  0  0  0  0  0  0
  112.4212  -79.5331  -85.8507 C   0  0  0  0  0  0  0  0  0  0  0  0
  112.6011  -79.7756  -87.2324 C   0  0  0  0  0  0  0  0  0  0  0  0
  113.1846  -80.9086  -87.8024 C   0  0  0  0  0  0  0  0  0  0  0  0
  113.6751  -81.9750  -86.9422 C   0  0  0  0  0  0  0  0  0  0  0  0
  113.4700  -81.7070  -85.5674 C   0  0  0  0  0  0  0  0  0  0  0  0
  112.8875  -80.5897  -84.9532 C   0  0  0  0  0  0  0  0  0  0  0  0
  109.3802  -73.0378  -88.0665 C   0  0  0  0  0  0  0  0  0  0  0  0
  107.7049  -74.6622  -88.7394 C   0  0  0  0  0  0  0  0  0  0  0  0
  111.9054  -78.0471  -78.4801 C   0  0  0  0  0  0  0  0  0  0  0  0
  112.9336  -75.9616  -79.2913 C   0  0  0  0  0  0  0  0  0  0  0  0
  1  2  1  1  0  0  0
  1  3  1  0  0  0  0
  1 16  1  0  0  0  0
  2 23  1  0  0  0  0
  2 24  1  0  0  0  0
  4 25  1  0  0  0  0
  4 26  1  0  0  0  0
  5  6  1  0  0  0  0
  6  3  1  6  0  0  0
  6 14  1  0  0  0  0
  7  5  1  1  0  0  0
  7  8  1  0  0  0  0
  7 12  1  0  0  0  0
  8  9  1  0  0  0  0
  9  4  1  1  0  0  0
  9 10  1  0  0  0  0
 10 11  1  0  0  0  0
 12 11  1  6  0  0  0
 12 13  1  0  0  0  0
 13 14  1  0  0  0  0
 13 17  1  6  0  0  0
 14 15  1  6  0  0  0
 15 16  1  0  0  0  0
 17 18  1  0  0  0  0
 17 22  1  0  0  0  0
 18 19  1  0  0  0  0
 19 20  1  0  0  0  0
 20 21  1  0  0  0  0
 21 22  1  0  0  0  0
M  END
>  <CHROM.1>
60.86391761,121.97121818,-165.67659246,111.44519184,-77.47175266,-84.69106552
2.34373847,1.02227546,-1.92035304

>  <Name>
ligand

>  <RI>
0

>  <Rbt.Current_Directory>
/home/itssahil/PROJECTS/Mol_Feturizer/Test_systems_manuscript/rnas/1f1t

>  <Rbt.Executable>
rbdock ($Id: //depot/dev/client3/rdock/2013.1/src/exe/rbdock.cxx#4 $)

>  <Rbt.Library>
libRbt.so (2013.1, Build901 2013/11/27)

>  <Rbt.Parameter_File>
/export/apps/rDock/src/rDock_2013.1_src/data/scripts/dock_solv.prm

>  <Rbt.Receptor>
prm/pocket_docking_5.prm

>  <SCORE>
-43.4962

>  <SCORE.INTER>
-44.4787

>  <SCORE.INTER.CONST>
1

>  <SCORE.INTER.POLAR>
0

>  <SCORE.INTER.ROT>
3

>  <SCORE.INTER.SOLV>
6.58182

>  <SCORE.INTER.VDW>
-37.4464

>  <SCORE.INTER.norm>
-1.71072

>  <SCORE.INTRA>
0.982512

>  <SCORE.INTRA.DIHEDRAL>
0.000265196

>  <SCORE.INTRA.DIHEDRAL.0>
3.60016

>  <SCORE.INTRA.POLAR>
0

>  <SCORE.INTRA.POLAR.0>
0

>  <SCORE.INTRA.REPUL>
0

>  <SCORE.INTRA.REPUL.0>
0

>  <SCORE.INTRA.SOLV>
0.000783582

>  <SCORE.INTRA.SOLV.lig_0>
-10.9882

>  <SCORE.INTRA.VDW>
0.981988

>  <SCORE.INTRA.VDW.0>
1.84442

>  <SCORE.INTRA.norm>
0.0377889

>  <SCORE.RESTR>
0

>  <SCORE.RESTR.CAVITY>
0

>  <SCORE.RESTR.norm>
0

>  <SCORE.SYSTEM>
0

>  <SCORE.SYSTEM.CONST>
0

>  <SCORE.SYSTEM.DIHEDRAL>
0

>  <SCORE.SYSTEM.SOLV>
0

>  <SCORE.SYSTEM.norm>
0

>  <SCORE.heavy>
26

>  <SCORE.norm>
-1.67293

>  <RMSD>
5.448

$$$$
ligand
 OpenBabel02271912153D
libRbt.so/2013.1/901 2013/11/27
 26 29  0  0  0  0  0  0  0  0999 V2000
  109.5200  -75.3700  -87.2736 C   0  0  1  0  0  0  0  0  0  0  0  0
  108.7789  -74.4240  -87.9671 N   0  0  0  0  0  0  0  0  0  0  0  0
  109.7665  -75.2008  -85.8492 C   0  0  0  0  0  0  0  0  0  0  0  0
  112.5037  -77.3169  -79.8341 N   0  0  0  0  0  0  0  0  0  0  0  0
  110.7510  -76.0101  -83.8428 O   0  0  0  0  0  0  0  0  0  0  0  0
  110.5282  -76.2335  -85.2988 C   0  0  2  0  0  0  0  0  0  0  0  0
  111.4564  -76.9526  -83.3508 C   0  0  1  0  0  0  0  0  0  0  0  0
  111.6082  -76.6498  -81.9278 C   0  0  0  0  0  0  0  0  0  0  0  0
  112.3939  -77.6148  -81.2032 C   0  0  2  0  0  0  0  0  0  0  0  0
  112.9757  -78.7477  -81.8241 C   0  0  0  0  0  0  0  0  0  0  0  0
  112.7794  -78.9965  -83.2402 C   0  0  0  0  0  0  0  0  0  0  0  0
  111.9835  -78.0504  -83.9831 C   0  0  2  0  0  0  0  0  0  0  0  0
  111.8163  -78.3927  -85.4449 C   0  0  1  0  0  0  0  0  0  0  0  0
  111.0392  -77.3420  -85.9648 C   0  0  2  0  0  0  0  0  0  0  0  0
  110.7742  -77.4979  -87.3967 C   0  0  0  0  0  0  0  0  0  0  0  0
  109.9985  -76.4523  -87.9862 C   0  0  0  0  0  0  0  0  0  0  0  0
  112.3652  -79.5216  -86.0230 C   0  0  0  0  0  0  0  0  0  0  0  0
  112.9851  -80.5833  -85.3238 C   0  0  0  0  0  0  0  0  0  0  0  0
  113.5287  -81.7380  -85.8895 C   0  0  0  0  0  0  0  0  0  0  0  0
  113.4807  -81.9235  -87.3320 C   0  0  0  0  0  0  0  0  0  0  0  0
  112.8651  -80.8395  -88.0028 C   0  0  0  0  0  0  0  0  0  0  0  0
  112.3114  -79.6637  -87.4778 C   0  0  0  0  0  0  0  0  0  0  0  0
  107.4548  -74.7185  -88.5077 C   0  0  0  0  0  0  0  0  0  0  0  0
  109.1815  -73.0300  -88.2509 C   0  0  0  0  0  0  0  0  0  0  0  0
  113.1083  -76.1679  -79.1238 C   0  0  0  0  0  0  0  0  0  0  0  0
  111.9007  -78.2983  -78.8645 C   0  0  0  0  0  0  0  0  0  0  0  0
  1  2  1  1  0  0  0
  1  3  1  0  0  0  0
  1 16  1  0  0  0  0
  2 23  1  0  0  0  0
  2 24  1  0  0  0  0
  4 25  1  0  0  0  0
  4 26  1  0  0  0  0
  5  6  1  0  0  0  0
  6  3  1  6  0  0  0
  6 14  1  0  0  0  0
  7  5  1  1  0  0  0
  7  8  1  0  0  0  0
  7 12  1  0  0  0  0
  8  9  1  0  0  0  0
  9  4  1  1  0  0  0
  9 10  1  0  0  0  0
 10 11  1  0  0  0  0
 12 11  1  6  0  0  0
 12 13  1  0  0  0  0
 13 14  1  0  0  0  0
 13 17  1  6  0  0  0
 14 15  1  6  0  0  0
 15 16  1  0  0  0  0
 17 18  1  0  0  0  0
 17 22  1  0  0  0  0
 18 19  1  0  0  0  0
 19 20  1  0  0  0  0
 20 21  1  0  0  0  0
 21 22  1  0  0  0  0
M  END
>  <CHROM.1>
-111.88045226,-62.73698243,9.07057096,111.39970090,-77.49059259,-84.82331529
2.38835321,1.00277451,-1.95630731

>  <Name>
ligand

>  <RI>
0

>  <Rbt.Current_Directory>
/home/itssahil/PROJECTS/Mol_Feturizer/Test_systems_manuscript/rnas/1f1t

>  <Rbt.Executable>
rbdock ($Id: //depot/dev/client3/rdock/2013.1/src/exe/rbdock.cxx#4 $)

>  <Rbt.Library>
libRbt.so (2013.1, Build901 2013/11/27)

>  <Rbt.Parameter_File>
/export/apps/rDock/src/rDock_2013.1_src/data/scripts/dock_solv.prm

>  <Rbt.Receptor>
prm/pocket_docking_4.prm

>  <SCORE>
-46.3498

>  <SCORE.INTER>
-45.7187

>  <SCORE.INTER.CONST>
1

>  <SCORE.INTER.POLAR>
0

>  <SCORE.INTER.ROT>
3

>  <SCORE.INTER.SOLV>
6.29149

>  <SCORE.INTER.VDW>
-38.1763

>  <SCORE.INTER.norm>
-1.75841

>  <SCORE.INTRA>
-0.63118

>  <SCORE.INTRA.DIHEDRAL>
-0.000596492

>  <SCORE.INTRA.DIHEDRAL.0>
3.60016

>  <SCORE.INTRA.POLAR>
0

>  <SCORE.INTRA.POLAR.0>
0

>  <SCORE.INTRA.REPUL>
0

>  <SCORE.INTRA.REPUL.0>
0

>  <SCORE.INTRA.SOLV>
0.00109192

>  <SCORE.INTRA.SOLV.lig_0>
-10.9882

>  <SCORE.INTRA.VDW>
-0.631428

>  <SCORE.INTRA.VDW.0>
1.84442

>  <SCORE.INTRA.norm>
-0.0242761

>  <SCORE.RESTR>
0

>  <SCORE.RESTR.CAVITY>
0

>  <SCORE.RESTR.norm>
0

>  <SCORE.SYSTEM>
0

>  <SCORE.SYSTEM.CONST>
0

>  <SCORE.SYSTEM.DIHEDRAL>
0

>  <SCORE.SYSTEM.SOLV>
0

>  <SCORE.SYSTEM.norm>
0

>  <SCORE.heavy>
26

>  <SCORE.norm>
-1.78269

>  <RMSD>
5.452

$$$$
ligand
 OpenBabel02271912153D
libRbt.so/2013.1/901 2013/11/27
 26 29  0  0  0  0  0  0  0  0999 V2000
  113.1687  -77.2441  -81.0256 C   0  0  1  0  0  0  0  0  0  0  0  0
  113.4968  -76.9627  -79.7071 N   0  0  0  0  0  0  0  0  0  0  0  0
  112.3863  -76.2923  -81.8003 C   0  0  0  0  0  0  0  0  0  0  0  0
  109.2379  -74.3154  -87.6595 N   0  0  0  0  0  0  0  0  0  0  0  0
  111.3344  -75.7130  -83.8516 O   0  0  0  0  0  0  0  0  0  0  0  0
  112.1379  -76.7216  -83.1054 C   0  0  2  0  0  0  0  0  0  0  0  0
  111.1033  -76.1182  -85.0392 C   0  0  1  0  0  0  0  0  0  0  0  0
  110.3254  -75.0626  -85.6874 C   0  0  0  0  0  0  0  0  0  0  0  0
  109.9615  -75.3545  -87.0498 C   0  0  2  0  0  0  0  0  0  0  0  0
  110.3185  -76.5651  -87.6936 C   0  0  0  0  0  0  0  0  0  0  0  0
  111.1004  -77.5697  -86.9971 C   0  0  0  0  0  0  0  0  0  0  0  0
  111.4885  -77.2923  -85.6359 C   0  0  2  0  0  0  0  0  0  0  0  0
  112.3127  -78.3819  -84.9912 C   0  0  1  0  0  0  0  0  0  0  0  0
  112.5530  -77.9147  -83.6865 C   0  0  2  0  0  0  0  0  0  0  0  0
  113.3455  -78.8562  -82.8925 C   0  0  0  0  0  0  0  0  0  0  0  0
  113.6119  -78.4423  -81.5508 C   0  0  0  0  0  0  0  0  0  0  0  0
  112.6780  -79.5410  -85.6492 C   0  0  0  0  0  0  0  0  0  0  0  0
  112.9959  -80.7717  -85.0289 C   0  0  0  0  0  0  0  0  0  0  0  0
  113.3496  -81.9560  -85.6779 C   0  0  0  0  0  0  0  0  0  0  0  0
  113.4123  -81.9886  -87.1314 C   0  0  0  0  0  0  0  0  0  0  0  0
  113.1002  -80.7398  -87.7206 C   0  0  0  0  0  0  0  0  0  0  0  0
  112.7451  -79.5290  -87.1103 C   0  0  0  0  0  0  0  0  0  0  0  0
  112.5179  -76.4409  -78.7575 C   0  0  0  0  0  0  0  0  0  0  0  0
  114.8208  -77.1439  -79.0746 C   0  0  0  0  0  0  0  0  0  0  0  0
  109.5861  -72.9027  -87.9306 C   0  0  0  0  0  0  0  0  0  0  0  0
  107.8575  -74.6409  -88.1650 C   0  0  0  0  0  0  0  0  0  0  0  0
  1  2  1  6  0  0  0
  1  3  1  0  0  0  0
  1 16  1  0  0  0  0
  2 23  1  0  0  0  0
  2 24  1  0  0  0  0
  4 25  1  0  0  0  0
  4 26  1  0  0  0  0
  5  6  1  0  0  0  0
  6  3  1  1  0  0  0
  6 14  1  0  0  0  0
  7  5  1  6  0  0  0
  7  8  1  0  0  0  0
  7 12  1  0  0  0  0
  8  9  1  0  0  0  0
  9  4  1  6  0  0  0
  9 10  1  0  0  0  0
 10 11  1  0  0  0  0
 12 11  1  1  0  0  0
 12 13  1  0  0  0  0
 13 14  1  0  0  0  0
 13 17  1  1  0  0  0
 14 15  1  1  0  0  0
 15 16  1  0  0  0  0
 17 18  1  0  0  0  0
 17 22  1  0  0  0  0
 18 19  1  0  0  0  0
 19 20  1  0  0  0  0
 20 21  1  0  0  0  0
 21 22  1  0  0  0  0
M  END
>  <CHROM.1>
45.48849832,60.48789093,-155.43648405,111.91705713,-77.35600823,-84.57615952
0.57775811,-1.00130200,0.96258352

>  <Name>
ligand

>  <RI>
0

>  <Rbt.Current_Directory>
/home/itssahil/PROJECTS/Mol_Feturizer/Test_systems_manuscript/rnas/1f1t

>  <Rbt.Executable>
rbdock ($Id: //depot/dev/client3/rdock/2013.1/src/exe/rbdock.cxx#4 $)

>  <Rbt.Library>
libRbt.so (2013.1, Build901 2013/11/27)

>  <Rbt.Parameter_File>
/export/apps/rDock/src/rDock_2013.1_src/data/scripts/dock_solv.prm

>  <Rbt.Receptor>
prm/pocket_docking_7.prm

>  <SCORE>
-45.6473

>  <SCORE.INTER>
-45.3747

>  <SCORE.INTER.CONST>
1

>  <SCORE.INTER.POLAR>
0

>  <SCORE.INTER.ROT>
3

>  <SCORE.INTER.SOLV>
6.36797

>  <SCORE.INTER.VDW>
-37.9725

>  <SCORE.INTER.norm>
-1.74518

>  <SCORE.INTRA>
-0.272614

>  <SCORE.INTRA.DIHEDRAL>
-0.000404502

>  <SCORE.INTRA.DIHEDRAL.0>
3.60016

>  <SCORE.INTRA.POLAR>
0

>  <SCORE.INTRA.POLAR.0>
0

>  <SCORE.INTRA.REPUL>
0

>  <SCORE.INTRA.REPUL.0>
0

>  <SCORE.INTRA.SOLV>
0.00096472

>  <SCORE.INTRA.SOLV.lig_0>
-10.9882

>  <SCORE.INTRA.VDW>
-0.272895

>  <SCORE.INTRA.VDW.0>
1.84442

>  <SCORE.INTRA.norm>
-0.0104852

>  <SCORE.RESTR>
0

>  <SCORE.RESTR.CAVITY>
0

>  <SCORE.RESTR.norm>
0

>  <SCORE.SYSTEM>
0

>  <SCORE.SYSTEM.CONST>
0

>  <SCORE.SYSTEM.DIHEDRAL>
0

>  <SCORE.SYSTEM.SOLV>
0

>  <SCORE.SYSTEM.norm>
0

>  <SCORE.heavy>
26

>  <SCORE.norm>
-1.75567

>  <RMSD>
5.460

$$$$
ligand
 OpenBabel02271912153D
libRbt.so/2013.1/901 2013/11/27
 26 29  0  0  0  0  0  0  0  0999 V2000
  112.2742  -77.6746  -81.1942 C   0  0  1  0  0  0  0  0  0  0  0  0
  112.4429  -77.4896  -79.8295 N   0  0  0  0  0  0  0  0  0  0  0  0
  111.5311  -76.6968  -81.9753 C   0  0  0  0  0  0  0  0  0  0  0  0
  108.9339  -74.3796  -87.9783 N   0  0  0  0  0  0  0  0  0  0  0  0
  110.6778  -75.9957  -84.0800 O   0  0  0  0  0  0  0  0  0  0  0  0
  111.4478  -77.0268  -83.3294 C   0  0  2  0  0  0  0  0  0  0  0  0
  110.5978  -76.3106  -85.3139 C   0  0  1  0  0  0  0  0  0  0  0  0
  109.8400  -75.2398  -85.9610 C   0  0  0  0  0  0  0  0  0  0  0  0
  109.6411  -75.4331  -87.3741 C   0  0  2  0  0  0  0  0  0  0  0  0
  110.1285  -76.5694  -88.0660 C   0  0  0  0  0  0  0  0  0  0  0  0
  110.8823  -77.5933  -87.3667 C   0  0  0  0  0  0  0  0  0  0  0  0
  111.1062  -77.4132  -85.9532 C   0  0  2  0  0  0  0  0  0  0  0  0
  111.9120  -78.5156  -85.3070 C   0  0  1  0  0  0  0  0  0  0  0  0
  111.9853  -78.1483  -83.9513 C   0  0  2  0  0  0  0  0  0  0  0  0
  112.7358  -79.1170  -83.1493 C   0  0  0  0  0  0  0  0  0  0  0  0
  112.8338  -78.8046  -81.7582 C   0  0  0  0  0  0  0  0  0  0  0  0
  112.4065  -79.5990  -86.0081 C   0  0  0  0  0  0  0  0  0  0  0  0
  112.3804  -79.7481  -87.4144 C   0  0  0  0  0  0  0  0  0  0  0  0
  112.8903  -80.8264  -88.1396 C   0  0  0  0  0  0  0  0  0  0  0  0
  113.5227  -81.9321  -87.4358 C   0  0  0  0  0  0  0  0  0  0  0  0
  113.5226  -81.7577  -86.0309 C   0  0  0  0  0  0  0  0  0  0  0  0
  113.0205  -80.6979  -85.2632 C   0  0  0  0  0  0  0  0  0  0  0  0
  113.1775  -76.3511  -79.2850 C   0  0  0  0  0  0  0  0  0  0  0  0
  111.9257  -78.3637  -78.7551 C   0  0  0  0  0  0  0  0  0  0  0  0
  109.3010  -72.9688  -88.2338 C   0  0  0  0  0  0  0  0  0  0  0  0
  107.5528  -74.6834  -88.4951 C   0  0  0  0  0  0  0  0  0  0  0  0
  1  2  1  6  0  0  0
  1  3  1  0  0  0  0
  1 16  1  0  0  0  0
  2 23  1  0  0  0  0
  2 24  1  0  0  0  0
  4 25  1  0  0  0  0
  4 26  1  0  0  0  0
  5  6  1  0  0  0  0
  6  3  1  1  0  0  0
  6 14  1  0  0  0  0
  7  5  1  6  0  0  0
  7  8  1  0  0  0  0
  7 12  1  0  0  0  0
  8  9  1  0  0  0  0
  9  4  1  6  0  0  0
  9 10  1  0  0  0  0
 10 11  1  0  0  0  0
 12 11  1  1  0  0  0
 12 13  1  0  0  0  0
 13 14  1  0  0  0  0
 13 17  1  1  0  0  0
 14 15  1  1  0  0  0
 15 16  1  0  0  0  0
 17 18  1  0  0  0  0
 17 22  1  0  0  0  0
 18 19  1  0  0  0  0
 19 20  1  0  0  0  0
 20 21  1  0  0  0  0
 21 22  1  0  0  0  0
M  END
>  <CHROM.1>
-62.99347760,68.50272939,8.29579142,111.43169540,-77.55039738,-84.84321766
0.77295570,-1.01850935,1.21538218

>  <Name>
ligand

>  <RI>
0

>  <Rbt.Current_Directory>
/home/itssahil/PROJECTS/Mol_Feturizer/Test_systems_manuscript/rnas/1f1t

>  <Rbt.Executable>
rbdock ($Id: //depot/dev/client3/rdock/2013.1/src/exe/rbdock.cxx#4 $)

>  <Rbt.Library>
libRbt.so (2013.1, Build901 2013/11/27)

>  <Rbt.Parameter_File>
/export/apps/rDock/src/rDock_2013.1_src/data/scripts/dock_solv.prm

>  <Rbt.Receptor>
prm/pocket_docking_5.prm

>  <SCORE>
-46.0293

>  <SCORE.INTER>
-45.4127

>  <SCORE.INTER.CONST>
1

>  <SCORE.INTER.POLAR>
0

>  <SCORE.INTER.ROT>
3

>  <SCORE.INTER.SOLV>
6.47954

>  <SCORE.INTER.VDW>
-38.035

>  <SCORE.INTER.norm>
-1.74664

>  <SCORE.INTRA>
-0.616647

>  <SCORE.INTRA.DIHEDRAL>
-0.000561247

>  <SCORE.INTRA.DIHEDRAL.0>
3.60016

>  <SCORE.INTRA.POLAR>
0

>  <SCORE.INTRA.POLAR.0>
0

>  <SCORE.INTRA.REPUL>
0

>  <SCORE.INTRA.REPUL.0>
0

>  <SCORE.INTRA.SOLV>
0.0010995

>  <SCORE.INTRA.SOLV.lig_0>
-10.9882

>  <SCORE.INTRA.VDW>
-0.616916

>  <SCORE.INTRA.VDW.0>
1.84442

>  <SCORE.INTRA.norm>
-0.0237172

>  <SCORE.RESTR>
0

>  <SCORE.RESTR.CAVITY>
0

>  <SCORE.RESTR.norm>
0

>  <SCORE.SYSTEM>
0

>  <SCORE.SYSTEM.CONST>
0

>  <SCORE.SYSTEM.DIHEDRAL>
0

>  <SCORE.SYSTEM.SOLV>
0

>  <SCORE.SYSTEM.norm>
0

>  <SCORE.heavy>
26

>  <SCORE.norm>
-1.77036

>  <RMSD>
5.468

$$$$
ligand
 OpenBabel02271912153D
libRbt.so/2013.1/901 2013/11/27
 26 29  0  0  0  0  0  0  0  0999 V2000
  113.1305  -77.4729  -81.3803 C   0  0  1  0  0  0  0  0  0  0  0  0
  113.4771  -77.2261  -80.0596 N   0  0  0  0  0  0  0  0  0  0  0  0
  112.2964  -76.5246  -82.1037 C   0  0  0  0  0  0  0  0  0  0  0  0
  108.9477  -74.4622  -87.8206 N   0  0  0  0  0  0  0  0  0  0  0  0
  111.1785  -75.9133  -84.1103 O   0  0  0  0  0  0  0  0  0  0  0  0
  112.0351  -76.9166  -83.4180 C   0  0  2  0  0  0  0  0  0  0  0  0
  110.9364  -76.2847  -85.3066 C   0  0  1  0  0  0  0  0  0  0  0  0
  110.1057  -75.2371  -85.8999 C   0  0  0  0  0  0  0  0  0  0  0  0
  109.7228  -75.4941  -87.2641 C   0  0  2  0  0  0  0  0  0  0  0  0
  110.1100  -76.6668  -87.9586 C   0  0  0  0  0  0  0  0  0  0  0  0
  110.9438  -77.6652  -87.3153 C   0  0  0  0  0  0  0  0  0  0  0  0
  111.3515  -77.4216  -85.9534 C   0  0  2  0  0  0  0  0  0  0  0  0
  112.2295  -78.5013  -85.3658 C   0  0  1  0  0  0  0  0  0  0  0  0
  112.4812  -78.0719  -84.0503 C   0  0  2  0  0  0  0  0  0  0  0  0
  113.3255  -79.0102  -83.3076 C   0  0  0  0  0  0  0  0  0  0  0  0
  113.6061  -78.6342  -81.9577 C   0  0  0  0  0  0  0  0  0  0  0  0
  112.6228  -79.6218  -86.0727 C   0  0  0  0  0  0  0  0  0  0  0  0
  112.9715  -80.8697  -85.5056 C   0  0  0  0  0  0  0  0  0  0  0  0
  113.3539  -82.0160  -86.2047 C   0  0  0  0  0  0  0  0  0  0  0  0
  113.4162  -81.9848  -87.6583 C   0  0  0  0  0  0  0  0  0  0  0  0
  113.0729  -80.7200  -88.1935 C   0  0  0  0  0  0  0  0  0  0  0  0
  112.6884  -79.5455  -87.5319 C   0  0  0  0  0  0  0  0  0  0  0  0
  114.8477  -77.3692  -79.5766 C   0  0  0  0  0  0  0  0  0  0  0  0
  112.5657  -76.7906  -78.9801 C   0  0  0  0  0  0  0  0  0  0  0  0
  107.5855  -74.4588  -88.3990 C   0  0  0  0  0  0  0  0  0  0  0  0
  109.5518  -73.0833  -87.8459 C   0  0  0  0  0  0  0  0  0  0  0  0
  1  2  1  6  0  0  0
  1  3  1  0  0  0  0
  1 16  1  0  0  0  0
  2 23  1  0  0  0  0
  2 24  1  0  0  0  0
  4 25  1  0  0  0  0
  4 26  1  0  0  0  0
  5  6  1  0  0  0  0
  6  3  1  1  0  0  0
  6 14  1  0  0  0  0
  7  5  1  6  0  0  0
  7  8  1  0  0  0  0
  7 12  1  0  0  0  0
  8  9  1  0  0  0  0
  9  4  1  6  0  0  0
  9 10  1  0  0  0  0
 10 11  1  0  0  0  0
 12 11  1  1  0  0  0
 12 13  1  0  0  0  0
 13 14  1  0  0  0  0
 13 17  1  1  0  0  0
 14 15  1  1  0  0  0
 15 16  1  0  0  0  0
 17 18  1  0  0  0  0
 17 22  1  0  0  0  0
 18 19  1  0  0  0  0
 19 20  1  0  0  0  0
 20 21  1  0  0  0  0
 21 22  1  0  0  0  0
M  END
>  <CHROM.1>
-132.99985168,-121.06292359,-153.95977479,111.82477598,-77.49262938,-84.90183378
0.57419132,-0.96638526,0.99999254

>  <Name>
ligand

>  <RI>
0

>  <Rbt.Current_Directory>
/home/itssahil/PROJECTS/Mol_Feturizer/Test_systems_manuscript/rnas/1f1t

>  <Rbt.Executable>
rbdock ($Id: //depot/dev/client3/rdock/2013.1/src/exe/rbdock.cxx#4 $)

>  <Rbt.Library>
libRbt.so (2013.1, Build901 2013/11/27)

>  <Rbt.Parameter_File>
/export/apps/rDock/src/rDock_2013.1_src/data/scripts/dock_solv.prm

>  <Rbt.Receptor>
prm/pocket_docking_8.prm

>  <SCORE>
-44.9558

>  <SCORE.INTER>
-44.9651

>  <SCORE.INTER.CONST>
1

>  <SCORE.INTER.POLAR>
0

>  <SCORE.INTER.ROT>
3

>  <SCORE.INTER.SOLV>
6.02334

>  <SCORE.INTER.VDW>
-37.5845

>  <SCORE.INTER.norm>
-1.72943

>  <SCORE.INTRA>
0.00933962

>  <SCORE.INTRA.DIHEDRAL>
0.000173664

>  <SCORE.INTRA.DIHEDRAL.0>
3.60016

>  <SCORE.INTRA.POLAR>
0

>  <SCORE.INTRA.POLAR.0>
0

>  <SCORE.INTRA.REPUL>
0

>  <SCORE.INTRA.REPUL.0>
0

>  <SCORE.INTRA.SOLV>
0.000472972

>  <SCORE.INTRA.SOLV.lig_0>
-10.9882

>  <SCORE.INTRA.VDW>
0.0090163

>  <SCORE.INTRA.VDW.0>
1.84442

>  <SCORE.INTRA.norm>
0.000359216

>  <SCORE.RESTR>
0

>  <SCORE.RESTR.CAVITY>
0

>  <SCORE.RESTR.norm>
0

>  <SCORE.SYSTEM>
0

>  <SCORE.SYSTEM.CONST>
0

>  <SCORE.SYSTEM.DIHEDRAL>
0

>  <SCORE.SYSTEM.SOLV>
0

>  <SCORE.SYSTEM.norm>
0

>  <SCORE.heavy>
26

>  <SCORE.norm>
-1.72907

>  <RMSD>
5.483

$$$$
ligand
 OpenBabel02271912153D
libRbt.so/2013.1/901 2013/11/27
 26 29  0  0  0  0  0  0  0  0999 V2000
  113.4250  -77.2306  -81.0671 C   0  0  1  0  0  0  0  0  0  0  0  0
  113.8035  -76.9441  -79.7634 N   0  0  0  0  0  0  0  0  0  0  0  0
  112.6403  -76.2677  -81.8258 C   0  0  0  0  0  0  0  0  0  0  0  0
  109.3468  -74.2732  -87.5986 N   0  0  0  0  0  0  0  0  0  0  0  0
  111.5349  -75.6835  -83.8473 O   0  0  0  0  0  0  0  0  0  0  0  0
  112.3383  -76.7039  -83.1173 C   0  0  2  0  0  0  0  0  0  0  0  0
  111.2547  -76.0947  -85.0222 C   0  0  1  0  0  0  0  0  0  0  0  0
  110.4812  -75.0270  -85.6557 C   0  0  0  0  0  0  0  0  0  0  0  0
  110.0652  -75.3235  -87.0020 C   0  0  2  0  0  0  0  0  0  0  0  0
  110.3714  -76.5488  -87.6442 C   0  0  0  0  0  0  0  0  0  0  0  0
  111.1517  -77.5652  -86.9632 C   0  0  0  0  0  0  0  0  0  0  0  0
  111.5915  -77.2837  -85.6187 C   0  0  2  0  0  0  0  0  0  0  0  0
  112.4103  -78.3866  -84.9899 C   0  0  1  0  0  0  0  0  0  0  0  0
  112.7051  -77.9125  -83.6989 C   0  0  2  0  0  0  0  0  0  0  0  0
  113.5008  -78.8650  -82.9215 C   0  0  0  0  0  0  0  0  0  0  0  0
  113.8216  -78.4444  -81.5939 C   0  0  0  0  0  0  0  0  0  0  0  0
  112.7256  -79.5607  -85.6471 C   0  0  0  0  0  0  0  0  0  0  0  0
  113.0106  -80.7986  -85.0250 C   0  0  0  0  0  0  0  0  0  0  0  0
  113.3136  -81.9974  -85.6730 C   0  0  0  0  0  0  0  0  0  0  0  0
  113.3528  -82.0393  -87.1271 C   0  0  0  0  0  0  0  0  0  0  0  0
  113.0746  -80.7834  -87.7181 C   0  0  0  0  0  0  0  0  0  0  0  0
  112.7705  -79.5581  -87.1090 C   0  0  0  0  0  0  0  0  0  0  0  0
  115.1571  -77.1925  -79.2752 C   0  0  0  0  0  0  0  0  0  0  0  0
  112.9465  -76.3612  -78.7090 C   0  0  0  0  0  0  0  0  0  0  0  0
  109.7076  -72.8629  -87.8655 C   0  0  0  0  0  0  0  0  0  0  0  0
  107.9579  -74.5809  -88.0918 C   0  0  0  0  0  0  0  0  0  0  0  0
  1  2  1  6  0  0  0
  1  3  1  0  0  0  0
  1 16  1  0  0  0  0
  2 23  1  0  0  0  0
  2 24  1  0  0  0  0
  4 25  1  0  0  0  0
  4 26  1  0  0  0  0
  5  6  1  0  0  0  0
  6  3  1  1  0  0  0
  6 14  1  0  0  0  0
  7  5  1  6  0  0  0
  7  8  1  0  0  0  0
  7 12  1  0  0  0  0
  8  9  1  0  0  0  0
  9  4  1  6  0  0  0
  9 10  1  0  0  0  0
 10 11  1  0  0  0  0
 12 11  1  1  0  0  0
 12 13  1  0  0  0  0
 13 14  1  0  0  0  0
 13 17  1  1  0  0  0
 14 15  1  1  0  0  0
 15 16  1  0  0  0  0
 17 18  1  0  0  0  0
 17 22  1  0  0  0  0
 18 19  1  0  0  0  0
 19 20  1  0  0  0  0
 20 21  1  0  0  0  0
 21 22  1  0  0  0  0
M  END
>  <CHROM.1>
-135.22223231,58.71067002,-154.22192020,112.05788596,-77.34788829,-84.57442956
0.49883179,-1.00024523,0.88552044

>  <Name>
ligand

>  <RI>
0

>  <Rbt.Current_Directory>
/home/itssahil/PROJECTS/Mol_Feturizer/Test_systems_manuscript/rnas/1f1t

>  <Rbt.Executable>
rbdock ($Id: //depot/dev/client3/rdock/2013.1/src/exe/rbdock.cxx#4 $)

>  <Rbt.Library>
libRbt.so (2013.1, Build901 2013/11/27)

>  <Rbt.Parameter_File>
/export/apps/rDock/src/rDock_2013.1_src/data/scripts/dock_solv.prm

>  <Rbt.Receptor>
prm/pocket_docking_7.prm

>  <SCORE>
-45.3801

>  <SCORE.INTER>
-45.1189

>  <SCORE.INTER.CONST>
1

>  <SCORE.INTER.POLAR>
0

>  <SCORE.INTER.ROT>
3

>  <SCORE.INTER.SOLV>
6.75574

>  <SCORE.INTER.VDW>
-37.9312

>  <SCORE.INTER.norm>
-1.73534

>  <SCORE.INTRA>
-0.261235

>  <SCORE.INTRA.DIHEDRAL>
-0.000422753

>  <SCORE.INTRA.DIHEDRAL.0>
3.60016

>  <SCORE.INTRA.POLAR>
0

>  <SCORE.INTRA.POLAR.0>
0

>  <SCORE.INTRA.REPUL>
0

>  <SCORE.INTRA.REPUL.0>
0

>  <SCORE.INTRA.SOLV>
0.000827431

>  <SCORE.INTRA.SOLV.lig_0>
-10.9882

>  <SCORE.INTRA.VDW>
-0.261437

>  <SCORE.INTRA.VDW.0>
1.84442

>  <SCORE.INTRA.norm>
-0.0100475

>  <SCORE.RESTR>
0

>  <SCORE.RESTR.CAVITY>
0

>  <SCORE.RESTR.norm>
0

>  <SCORE.SYSTEM>
0

>  <SCORE.SYSTEM.CONST>
0

>  <SCORE.SYSTEM.DIHEDRAL>
0

>  <SCORE.SYSTEM.SOLV>
0

>  <SCORE.SYSTEM.norm>
0

>  <SCORE.heavy>
26

>  <SCORE.norm>
-1.74539

>  <RMSD>
5.493

$$$$
ligand
 OpenBabel02271912153D
libRbt.so/2013.1/901 2013/11/27
 26 29  0  0  0  0  0  0  0  0999 V2000
  110.0476  -75.3112  -87.0546 C   0  0  1  0  0  0  0  0  0  0  0  0
  109.3104  -74.3594  -87.7443 N   0  0  0  0  0  0  0  0  0  0  0  0
  110.4664  -75.0554  -85.6843 C   0  0  0  0  0  0  0  0  0  0  0  0
  113.6899  -76.9367  -79.8345 N   0  0  0  0  0  0  0  0  0  0  0  0
  111.6042  -75.7920  -83.7317 O   0  0  0  0  0  0  0  0  0  0  0  0
  111.2008  -76.1061  -85.1311 C   0  0  2  0  0  0  0  0  0  0  0  0
  112.2834  -76.7527  -83.2381 C   0  0  1  0  0  0  0  0  0  0  0  0
  112.6191  -76.3559  -81.8707 C   0  0  0  0  0  0  0  0  0  0  0  0
  113.4024  -77.3282  -81.1533 C   0  0  2  0  0  0  0  0  0  0  0  0
  113.8181  -78.5526  -81.7326 C   0  0  0  0  0  0  0  0  0  0  0  0
  113.4436  -78.8912  -83.0930 C   0  0  0  0  0  0  0  0  0  0  0  0
  112.6465  -77.9383  -83.8258 C   0  0  2  0  0  0  0  0  0  0  0  0
  112.2882  -78.3759  -85.2266 C   0  0  1  0  0  0  0  0  0  0  0  0
  111.5433  -77.3035  -85.7495 C   0  0  2  0  0  0  0  0  0  0  0  0
  111.1063  -77.5450  -87.1264 C   0  0  0  0  0  0  0  0  0  0  0  0
  110.3546  -76.4832  -87.7180 C   0  0  0  0  0  0  0  0  0  0  0  0
  112.6764  -79.5901  -85.7603 C   0  0  0  0  0  0  0  0  0  0  0  0
  113.0403  -80.7357  -85.0150 C   0  0  0  0  0  0  0  0  0  0  0  0
  113.4179  -81.9742  -85.5368 C   0  0  0  0  0  0  0  0  0  0  0  0
  113.4577  -82.1653  -86.9789 C   0  0  0  0  0  0  0  0  0  0  0  0
  113.0995  -80.9981  -87.6954 C   0  0  0  0  0  0  0  0  0  0  0  0
  112.7191  -79.7375  -87.2149 C   0  0  0  0  0  0  0  0  0  0  0  0
  108.0660  -74.6901  -88.4331 C   0  0  0  0  0  0  0  0  0  0  0  0
  109.6399  -72.9247  -87.8814 C   0  0  0  0  0  0  0  0  0  0  0  0
  112.8528  -76.2983  -78.7943 C   0  0  0  0  0  0  0  0  0  0  0  0
  115.0806  -77.2046  -79.3235 C   0  0  0  0  0  0  0  0  0  0  0  0
  1  2  1  1  0  0  0
  1  3  1  0  0  0  0
  1 16  1  0  0  0  0
  2 23  1  0  0  0  0
  2 24  1  0  0  0  0
  4 25  1  0  0  0  0
  4 26  1  0  0  0  0
  5  6  1  0  0  0  0
  6  3  1  6  0  0  0
  6 14  1  0  0  0  0
  7  5  1  1  0  0  0
  7  8  1  0  0  0  0
  7 12  1  0  0  0  0
  8  9  1  0  0  0  0
  9  4  1  1  0  0  0
  9 10  1  0  0  0  0
 10 11  1  0  0  0  0
 12 11  1  6  0  0  0
 12 13  1  0  0  0  0
 13 14  1  0  0  0  0
 13 17  1  6  0  0  0
 14 15  1  6  0  0  0
 15 16  1  0  0  0  0
 17 18  1  0  0  0  0
 17 22  1  0  0  0  0
 18 19  1  0  0  0  0
 19 20  1  0  0  0  0
 20 21  1  0  0  0  0
 21 22  1  0  0  0  0
M  END
>  <CHROM.1>
-129.15882229,42.40793385,22.13864799,112.03551862,-77.39111557,-84.65027559
2.64277028,1.00398861,-2.24913791

>  <Name>
ligand

>  <RI>
0

>  <Rbt.Current_Directory>
/home/itssahil/PROJECTS/Mol_Feturizer/Test_systems_manuscript/rnas/1f1t

>  <Rbt.Executable>
rbdock ($Id: //depot/dev/client3/rdock/2013.1/src/exe/rbdock.cxx#4 $)

>  <Rbt.Library>
libRbt.so (2013.1, Build901 2013/11/27)

>  <Rbt.Parameter_File>
/export/apps/rDock/src/rDock_2013.1_src/data/scripts/dock_solv.prm

>  <Rbt.Receptor>
prm/pocket_docking_4.prm

>  <SCORE>
-45.6829

>  <SCORE.INTER>
-45.1636

>  <SCORE.INTER.CONST>
1

>  <SCORE.INTER.POLAR>
0

>  <SCORE.INTER.ROT>
3

>  <SCORE.INTER.SOLV>
6.65394

>  <SCORE.INTER.VDW>
-37.927

>  <SCORE.INTER.norm>
-1.73706

>  <SCORE.INTRA>
-0.519327

>  <SCORE.INTRA.DIHEDRAL>
-0.00040512

>  <SCORE.INTRA.DIHEDRAL.0>
3.60016

>  <SCORE.INTRA.POLAR>
0

>  <SCORE.INTRA.POLAR.0>
0

>  <SCORE.INTRA.REPUL>
0

>  <SCORE.INTRA.REPUL.0>
0

>  <SCORE.INTRA.SOLV>
0.000948608

>  <SCORE.INTRA.SOLV.lig_0>
-10.9882

>  <SCORE.INTRA.VDW>
-0.519598

>  <SCORE.INTRA.VDW.0>
1.84442

>  <SCORE.INTRA.norm>
-0.0199741

>  <SCORE.RESTR>
0

>  <SCORE.RESTR.CAVITY>
0

>  <SCORE.RESTR.norm>
0

>  <SCORE.SYSTEM>
0

>  <SCORE.SYSTEM.CONST>
0

>  <SCORE.SYSTEM.DIHEDRAL>
0

>  <SCORE.SYSTEM.SOLV>
0

>  <SCORE.SYSTEM.norm>
0

>  <SCORE.heavy>
26

>  <SCORE.norm>
-1.75703

>  <RMSD>
5.506

$$$$
ligand
 OpenBabel02271912153D
libRbt.so/2013.1/901 2013/11/27
 26 29  0  0  0  0  0  0  0  0999 V2000
  113.3333  -77.2899  -81.0986 C   0  0  1  0  0  0  0  0  0  0  0  0
  113.6963  -77.0207  -79.7867 N   0  0  0  0  0  0  0  0  0  0  0  0
  112.5573  -76.3172  -81.8536 C   0  0  0  0  0  0  0  0  0  0  0  0
  109.3317  -74.2467  -87.6380 N   0  0  0  0  0  0  0  0  0  0  0  0
  111.4757  -75.7063  -83.8801 O   0  0  0  0  0  0  0  0  0  0  0  0
  112.2706  -76.7362  -83.1542 C   0  0  2  0  0  0  0  0  0  0  0  0
  111.2095  -76.1020  -85.0635 C   0  0  1  0  0  0  0  0  0  0  0  0
  110.4432  -75.0261  -85.6919 C   0  0  0  0  0  0  0  0  0  0  0  0
  110.0433  -75.3047  -87.0469 C   0  0  2  0  0  0  0  0  0  0  0  0
  110.3572  -76.5214  -87.7016 C   0  0  0  0  0  0  0  0  0  0  0  0
  111.1297  -77.5467  -87.0249 C   0  0  0  0  0  0  0  0  0  0  0  0
  111.5535  -77.2830  -85.6717 C   0  0  2  0  0  0  0  0  0  0  0  0
  112.3651  -78.3940  -85.0479 C   0  0  1  0  0  0  0  0  0  0  0  0
  112.6446  -77.9370  -83.7474 C   0  0  2  0  0  0  0  0  0  0  0  0
  113.4312  -78.8997  -82.9733 C   0  0  0  0  0  0  0  0  0  0  0  0
  113.7363  -78.4966  -81.6366 C   0  0  0  0  0  0  0  0  0  0  0  0
  112.6883  -79.5594  -85.7168 C   0  0  0  0  0  0  0  0  0  0  0  0
  112.6619  -79.7348  -87.1200 C   0  0  0  0  0  0  0  0  0  0  0  0
  113.0016  -80.8982  -87.8129 C   0  0  0  0  0  0  0  0  0  0  0  0
  113.4336  -82.0752  -87.0741 C   0  0  0  0  0  0  0  0  0  0  0  0
  113.4382  -81.8706  -85.6734 C   0  0  0  0  0  0  0  0  0  0  0  0
  113.1026  -80.7258  -84.9375 C   0  0  0  0  0  0  0  0  0  0  0  0
  115.0607  -77.2130  -79.3034 C   0  0  0  0  0  0  0  0  0  0  0  0
  112.8104  -76.5118  -78.7181 C   0  0  0  0  0  0  0  0  0  0  0  0
  109.7028  -72.8382  -87.9003 C   0  0  0  0  0  0  0  0  0  0  0  0
  107.9394  -74.5418  -88.1293 C   0  0  0  0  0  0  0  0  0  0  0  0
  1  2  1  6  0  0  0
  1  3  1  0  0  0  0
  1 16  1  0  0  0  0
  2 23  1  0  0  0  0
  2 24  1  0  0  0  0
  4 25  1  0  0  0  0
  4 26  1  0  0  0  0
  5  6  1  0  0  0  0
  6  3  1  1  0  0  0
  6 14  1  0  0  0  0
  7  5  1  6  0  0  0
  7  8  1  0  0  0  0
  7 12  1  0  0  0  0
  8  9  1  0  0  0  0
  9  4  1  6  0  0  0
  9 10  1  0  0  0  0
 10 11  1  0  0  0  0
 12 11  1  1  0  0  0
 12 13  1  0  0  0  0
 13 14  1  0  0  0  0
 13 17  1  1  0  0  0
 14 15  1  1  0  0  0
 15 16  1  0  0  0  0
 17 18  1  0  0  0  0
 17 22  1  0  0  0  0
 18 19  1  0  0  0  0
 19 20  1  0  0  0  0
 20 21  1  0  0  0  0
 21 22  1  0  0  0  0
M  END
>  <CHROM.1>
-132.12120639,59.77470388,18.92959054,112.01648743,-77.36779067,-84.60628818
0.50125912,-1.00508414,0.91463118

>  <Name>
ligand

>  <RI>
0

>  <Rbt.Current_Directory>
/home/itssahil/PROJECTS/Mol_Feturizer/Test_systems_manuscript/rnas/1f1t

>  <Rbt.Executable>
rbdock ($Id: //depot/dev/client3/rdock/2013.1/src/exe/rbdock.cxx#4 $)

>  <Rbt.Library>
libRbt.so (2013.1, Build901 2013/11/27)

>  <Rbt.Parameter_File>
/export/apps/rDock/src/rDock_2013.1_src/data/scripts/dock_solv.prm

>  <Rbt.Receptor>
prm/pocket_docking_6.prm

>  <SCORE>
-46.3023

>  <SCORE.INTER>
-45.6779

>  <SCORE.INTER.CONST>
1

>  <SCORE.INTER.POLAR>
0

>  <SCORE.INTER.ROT>
3

>  <SCORE.INTER.SOLV>
6.65721

>  <SCORE.INTER.VDW>
-38.271

>  <SCORE.INTER.norm>
-1.75684

>  <SCORE.INTRA>
-0.624358

>  <SCORE.INTRA.DIHEDRAL>
-0.000547417

>  <SCORE.INTRA.DIHEDRAL.0>
3.60016

>  <SCORE.INTRA.POLAR>
0

>  <SCORE.INTRA.POLAR.0>
0

>  <SCORE.INTRA.REPUL>
0

>  <SCORE.INTRA.REPUL.0>
0

>  <SCORE.INTRA.SOLV>
0.000895121

>  <SCORE.INTRA.SOLV.lig_0>
-10.9882

>  <SCORE.INTRA.VDW>
-0.624531

>  <SCORE.INTRA.VDW.0>
1.84442

>  <SCORE.INTRA.norm>
-0.0240138

>  <SCORE.RESTR>
0

>  <SCORE.RESTR.CAVITY>
0

>  <SCORE.RESTR.norm>
0

>  <SCORE.SYSTEM>
0

>  <SCORE.SYSTEM.CONST>
0

>  <SCORE.SYSTEM.DIHEDRAL>
0

>  <SCORE.SYSTEM.SOLV>
0

>  <SCORE.SYSTEM.norm>
0

>  <SCORE.heavy>
26

>  <SCORE.norm>
-1.78086

>  <RMSD>
5.510

$$$$
ligand
 OpenBabel02271912153D
libRbt.so/2013.1/901 2013/11/27
 26 29  0  0  0  0  0  0  0  0999 V2000
  109.9005  -75.2724  -86.9727 C   0  0  1  0  0  0  0  0  0  0  0  0
  109.1378  -74.3271  -87.6436 N   0  0  0  0  0  0  0  0  0  0  0  0
  110.3314  -75.0229  -85.6051 C   0  0  0  0  0  0  0  0  0  0  0  0
  113.6598  -76.9045  -79.8144 N   0  0  0  0  0  0  0  0  0  0  0  0
  111.5061  -75.7584  -83.6741 O   0  0  0  0  0  0  0  0  0  0  0  0
  111.0914  -76.0656  -85.0717 C   0  0  2  0  0  0  0  0  0  0  0  0
  112.2087  -76.7115  -83.1987 C   0  0  1  0  0  0  0  0  0  0  0  0
  112.5538  -76.3226  -81.8314 C   0  0  0  0  0  0  0  0  0  0  0  0
  113.3633  -77.2877  -81.1336 C   0  0  2  0  0  0  0  0  0  0  0  0
  113.7939  -78.4984  -81.7305 C   0  0  0  0  0  0  0  0  0  0  0  0
  113.4089  -78.8299  -83.0898 C   0  0  0  0  0  0  0  0  0  0  0  0
  112.5859  -77.8843  -83.8030 C   0  0  2  0  0  0  0  0  0  0  0  0
  112.2183  -78.3141  -85.2038 C   0  0  1  0  0  0  0  0  0  0  0  0
  111.4478  -77.2502  -85.7066 C   0  0  2  0  0  0  0  0  0  0  0  0
  110.9985  -77.4856  -87.0805 C   0  0  0  0  0  0  0  0  0  0  0  0
  110.2205  -76.4318  -87.6519 C   0  0  0  0  0  0  0  0  0  0  0  0
  112.6219  -79.5155  -85.7547 C   0  0  0  0  0  0  0  0  0  0  0  0
  112.7672  -79.7771  -87.1371 C   0  0  0  0  0  0  0  0  0  0  0  0
  113.1900  -80.9779  -87.7099 C   0  0  0  0  0  0  0  0  0  0  0  0
  113.5297  -82.1036  -86.8525 C   0  0  0  0  0  0  0  0  0  0  0  0
  113.3631  -81.8133  -85.4770 C   0  0  0  0  0  0  0  0  0  0  0  0
  112.9390  -80.6283  -84.8600 C   0  0  0  0  0  0  0  0  0  0  0  0
  109.6099  -72.9631  -87.8648 C   0  0  0  0  0  0  0  0  0  0  0  0
  107.7942  -74.5355  -88.2242 C   0  0  0  0  0  0  0  0  0  0  0  0
  112.8514  -76.2099  -78.7875 C   0  0  0  0  0  0  0  0  0  0  0  0
  115.0267  -77.2509  -79.2865 C   0  0  0  0  0  0  0  0  0  0  0  0
  1  2  1  1  0  0  0
  1  3  1  0  0  0  0
  1 16  1  0  0  0  0
  2 23  1  0  0  0  0
  2 24  1  0  0  0  0
  4 25  1  0  0  0  0
  4 26  1  0  0  0  0
  5  6  1  0  0  0  0
  6  3  1  6  0  0  0
  6 14  1  0  0  0  0
  7  5  1  1  0  0  0
  7  8  1  0  0  0  0
  7 12  1  0  0  0  0
  8  9  1  0  0  0  0
  9  4  1  1  0  0  0
  9 10  1  0  0  0  0
 10 11  1  0  0  0  0
 12 11  1  6  0  0  0
 12 13  1  0  0  0  0
 13 14  1  0  0  0  0
 13 17  1  6  0  0  0
 14 15  1  6  0  0  0
 15 16  1  0  0  0  0
 17 18  1  0  0  0  0
 17 22  1  0  0  0  0
 18 19  1  0  0  0  0
 19 20  1  0  0  0  0
 20 21  1  0  0  0  0
 21 22  1  0  0  0  0
M  END
>  <CHROM.1>
58.82245829,37.66435709,-154.74966180,111.96644608,-77.34321149,-84.59644569
2.65605323,0.98404351,-2.23151470

>  <Name>
ligand

>  <RI>
0

>  <Rbt.Current_Directory>
/home/itssahil/PROJECTS/Mol_Feturizer/Test_systems_manuscript/rnas/1f1t

>  <Rbt.Executable>
rbdock ($Id: //depot/dev/client3/rdock/2013.1/src/exe/rbdock.cxx#4 $)

>  <Rbt.Library>
libRbt.so (2013.1, Build901 2013/11/27)

>  <Rbt.Parameter_File>
/export/apps/rDock/src/rDock_2013.1_src/data/scripts/dock_solv.prm

>  <Rbt.Receptor>
prm/pocket_docking_8.prm

>  <SCORE>
-44.9762

>  <SCORE.INTER>
-44.8265

>  <SCORE.INTER.CONST>
1

>  <SCORE.INTER.POLAR>
0

>  <SCORE.INTER.ROT>
3

>  <SCORE.INTER.SOLV>
6.50185

>  <SCORE.INTER.VDW>
-37.6516

>  <SCORE.INTER.norm>
-1.7241

>  <SCORE.INTRA>
-0.149687

>  <SCORE.INTRA.DIHEDRAL>
-0.000222952

>  <SCORE.INTRA.DIHEDRAL.0>
3.60016

>  <SCORE.INTRA.POLAR>
0

>  <SCORE.INTRA.POLAR.0>
0

>  <SCORE.INTRA.REPUL>
0

>  <SCORE.INTRA.REPUL.0>
0

>  <SCORE.INTRA.SOLV>
0.00107331

>  <SCORE.INTRA.SOLV.lig_0>
-10.9882

>  <SCORE.INTRA.VDW>
-0.150112

>  <SCORE.INTRA.VDW.0>
1.84442

>  <SCORE.INTRA.norm>
-0.0057572

>  <SCORE.RESTR>
0

>  <SCORE.RESTR.CAVITY>
0

>  <SCORE.RESTR.norm>
0

>  <SCORE.SYSTEM>
0

>  <SCORE.SYSTEM.CONST>
0

>  <SCORE.SYSTEM.DIHEDRAL>
0

>  <SCORE.SYSTEM.SOLV>
0

>  <SCORE.SYSTEM.norm>
0

>  <SCORE.heavy>
26

>  <SCORE.norm>
-1.72985

>  <RMSD>
5.510

$$$$
ligand
 OpenBabel02271912153D
libRbt.so/2013.1/901 2013/11/27
 26 29  0  0  0  0  0  0  0  0999 V2000
  112.3544  -79.6867  -86.1555 C   0  0  1  0  0  0  0  0  0  0  0  0
  112.9832  -80.9001  -86.3950 N   0  0  0  0  0  0  0  0  0  0  0  0
  111.4889  -79.1024  -87.1694 C   0  0  0  0  0  0  0  0  0  0  0  0
  107.2569  -74.0899  -89.4313 N   0  0  0  0  0  0  0  0  0  0  0  0
  110.0606  -77.3291  -87.8513 O   0  0  0  0  0  0  0  0  0  0  0  0
  110.9345  -77.8820  -86.7788 C   0  0  2  0  0  0  0  0  0  0  0  0
  109.5669  -76.2094  -87.4901 C   0  0  1  0  0  0  0  0  0  0  0  0
  108.7230  -75.7585  -88.5965 C   0  0  0  0  0  0  0  0  0  0  0  0
  108.0825  -74.4895  -88.3664 C   0  0  2  0  0  0  0  0  0  0  0  0
  108.2690  -73.7440  -87.1760 C   0  0  0  0  0  0  0  0  0  0  0  0
  109.1133  -74.2519  -86.1107 C   0  0  0  0  0  0  0  0  0  0  0  0
  109.7535  -75.5283  -86.3135 C   0  0  2  0  0  0  0  0  0  0  0  0
  110.6003  -75.9897  -85.1507 C   0  0  1  0  0  0  0  0  0  0  0  0
  111.1335  -77.2213  -85.5716 C   0  0  2  0  0  0  0  0  0  0  0  0
  112.0025  -77.8290  -84.5614 C   0  0  0  0  0  0  0  0  0  0  0  0
  112.5858  -79.0784  -84.9371 C   0  0  0  0  0  0  0  0  0  0  0  0
  110.7417  -75.2616  -83.9846 C   0  0  0  0  0  0  0  0  0  0  0  0
  111.9270  -75.1584  -83.2199 C   0  0  0  0  0  0  0  0  0  0  0  0
  112.0925  -74.4143  -82.0503 C   0  0  0  0  0  0  0  0  0  0  0  0
  110.9738  -73.6495  -81.5200 C   0  0  0  0  0  0  0  0  0  0  0  0
  109.8008  -73.7828  -82.3011 C   0  0  0  0  0  0  0  0  0  0  0  0
  109.5892  -74.5190  -83.4751 C   0  0  0  0  0  0  0  0  0  0  0  0
  113.4272  -81.7720  -85.3111 C   0  0  0  0  0  0  0  0  0  0  0  0
  113.2842  -81.4860  -87.7186 C   0  0  0  0  0  0  0  0  0  0  0  0
  107.5578  -73.3840  -90.6967 C   0  0  0  0  0  0  0  0  0  0  0  0
  105.7931  -74.4283  -89.3331 C   0  0  0  0  0  0  0  0  0  0  0  0
  1  2  1  1  0  0  0
  1  3  1  0  0  0  0
  1 16  1  0  0  0  0
  2 23  1  0  0  0  0
  2 24  1  0  0  0  0
  4 25  1  0  0  0  0
  4 26  1  0  0  0  0
  5  6  1  0  0  0  0
  6  3  1  6  0  0  0
  6 14  1  0  0  0  0
  7  5  1  1  0  0  0
  7  8  1  0  0  0  0
  7 12  1  0  0  0  0
  8  9  1  0  0  0  0
  9  4  1  1  0  0  0
  9 10  1  0  0  0  0
 10 11  1  0  0  0  0
 12 11  1  6  0  0  0
 12 13  1  0  0  0  0
 13 14  1  0  0  0  0
 13 17  1  6  0  0  0
 14 15  1  6  0  0  0
 15 16  1  0  0  0  0
 17 18  1  0  0  0  0
 17 22  1  0  0  0  0
 18 19  1  0  0  0  0
 19 20  1  0  0  0  0
 20 21  1  0  0  0  0
 21 22  1  0  0  0  0
M  END
>  <CHROM.1>
-156.31819823,-84.48355095,-143.26857549,110.36758676,-76.49381460,-86.18782891
0.20665979,0.88882414,-2.24772593

>  <Name>
ligand

>  <RI>
0

>  <Rbt.Current_Directory>
/home/itssahil/PROJECTS/Mol_Feturizer/Test_systems_manuscript/rnas/1f1t

>  <Rbt.Executable>
rbdock ($Id: //depot/dev/client3/rdock/2013.1/src/exe/rbdock.cxx#4 $)

>  <Rbt.Library>
libRbt.so (2013.1, Build901 2013/11/27)

>  <Rbt.Parameter_File>
/export/apps/rDock/src/rDock_2013.1_src/data/scripts/dock_solv.prm

>  <Rbt.Receptor>
prm/pocket_docking_8.prm

>  <SCORE>
-43.7703

>  <SCORE.INTER>
-43.0966

>  <SCORE.INTER.CONST>
1

>  <SCORE.INTER.POLAR>
0

>  <SCORE.INTER.ROT>
3

>  <SCORE.INTER.SOLV>
9.83744

>  <SCORE.INTER.VDW>
-37.6102

>  <SCORE.INTER.norm>
-1.65756

>  <SCORE.INTRA>
-0.776939

>  <SCORE.INTRA.DIHEDRAL>
-0.000286845

>  <SCORE.INTRA.DIHEDRAL.0>
3.60016

>  <SCORE.INTRA.POLAR>
0

>  <SCORE.INTRA.POLAR.0>
0

>  <SCORE.INTRA.REPUL>
0

>  <SCORE.INTRA.REPUL.0>
0

>  <SCORE.INTRA.SOLV>
0.000466038

>  <SCORE.INTRA.SOLV.lig_0>
-10.9882

>  <SCORE.INTRA.VDW>
-0.777029

>  <SCORE.INTRA.VDW.0>
1.84442

>  <SCORE.INTRA.norm>
-0.0298823

>  <SCORE.RESTR>
0.103232

>  <SCORE.RESTR.CAVITY>
0.103232

>  <SCORE.RESTR.norm>
0.00397047

>  <SCORE.SYSTEM>
0

>  <SCORE.SYSTEM.CONST>
0

>  <SCORE.SYSTEM.DIHEDRAL>
0

>  <SCORE.SYSTEM.SOLV>
0

>  <SCORE.SYSTEM.norm>
0

>  <SCORE.heavy>
26

>  <SCORE.norm>
-1.68347

>  <RMSD>
5.511

$$$$
ligand
 OpenBabel02271912153D
libRbt.so/2013.1/901 2013/11/27
 26 29  0  0  0  0  0  0  0  0999 V2000
  109.6547  -75.4468  -87.2946 C   0  0  1  0  0  0  0  0  0  0  0  0
  108.8610  -74.4987  -87.9243 N   0  0  0  0  0  0  0  0  0  0  0  0
  110.0558  -75.2562  -85.9086 C   0  0  0  0  0  0  0  0  0  0  0  0
  113.3836  -77.3159  -80.1784 N   0  0  0  0  0  0  0  0  0  0  0  0
  111.2350  -76.0481  -84.0028 O   0  0  0  0  0  0  0  0  0  0  0  0
  110.8529  -76.2939  -85.4216 C   0  0  2  0  0  0  0  0  0  0  0  0
  111.9715  -76.9956  -83.5696 C   0  0  1  0  0  0  0  0  0  0  0  0
  112.2809  -76.6695  -82.1776 C   0  0  0  0  0  0  0  0  0  0  0  0
  113.1219  -77.6369  -81.5214 C   0  0  2  0  0  0  0  0  0  0  0  0
  113.6125  -78.7930  -82.1775 C   0  0  0  0  0  0  0  0  0  0  0  0
  113.2608  -79.0639  -83.5590 C   0  0  0  0  0  0  0  0  0  0  0  0
  112.4073  -78.1157  -84.2318 C   0  0  2  0  0  0  0  0  0  0  0  0
  112.0778  -78.4816  -85.6599 C   0  0  1  0  0  0  0  0  0  0  0  0
  111.2688  -77.4249  -86.1153 C   0  0  2  0  0  0  0  0  0  0  0  0
  110.8488  -77.6020  -87.5071 C   0  0  0  0  0  0  0  0  0  0  0  0
  110.0338  -76.5518  -88.0318 C   0  0  0  0  0  0  0  0  0  0  0  0
  112.5404  -79.6321  -86.2700 C   0  0  0  0  0  0  0  0  0  0  0  0
  113.0119  -80.7844  -85.5989 C   0  0  0  0  0  0  0  0  0  0  0  0
  113.4660  -81.9607  -86.1982 C   0  0  0  0  0  0  0  0  0  0  0  0
  113.4770  -82.0709  -87.6492 C   0  0  0  0  0  0  0  0  0  0  0  0
  113.0104  -80.8983  -88.2904 C   0  0  0  0  0  0  0  0  0  0  0  0
  112.5506  -79.6980  -87.7311 C   0  0  0  0  0  0  0  0  0  0  0  0
  109.2908  -73.1132  -88.0912 C   0  0  0  0  0  0  0  0  0  0  0  0
  107.5219  -74.7241  -88.5089 C   0  0  0  0  0  0  0  0  0  0  0  0
  112.5050  -76.8121  -79.0993 C   0  0  0  0  0  0  0  0  0  0  0  0
  114.7914  -77.5158  -79.6836 C   0  0  0  0  0  0  0  0  0  0  0  0
  1  2  1  1  0  0  0
  1  3  1  0  0  0  0
  1 16  1  0  0  0  0
  2 23  1  0  0  0  0
  2 24  1  0  0  0  0
  4 25  1  0  0  0  0
  4 26  1  0  0  0  0
  5  6  1  0  0  0  0
  6  3  1  6  0  0  0
  6 14  1  0  0  0  0
  7  5  1  1  0  0  0
  7  8  1  0  0  0  0
  7 12  1  0  0  0  0
  8  9  1  0  0  0  0
  9  4  1  1  0  0  0
  9 10  1  0  0  0  0
 10 11  1  0  0  0  0
 12 11  1  6  0  0  0
 12 13  1  0  0  0  0
 13 14  1  0  0  0  0
 13 17  1  6  0  0  0
 14 15  1  6  0  0  0
 15 16  1  0  0  0  0
 17 18  1  0  0  0  0
 17 22  1  0  0  0  0
 18 19  1  0  0  0  0
 19 20  1  0  0  0  0
 20 21  1  0  0  0  0
 21 22  1  0  0  0  0
M  END
>  <CHROM.1>
60.36466622,43.10175153,20.07903903,111.76752015,-77.55130913,-85.02143820
2.57629808,0.95646352,-2.12585883

>  <Name>
ligand

>  <RI>
0

>  <Rbt.Current_Directory>
/home/itssahil/PROJECTS/Mol_Feturizer/Test_systems_manuscript/rnas/1f1t

>  <Rbt.Executable>
rbdock ($Id: //depot/dev/client3/rdock/2013.1/src/exe/rbdock.cxx#4 $)

>  <Rbt.Library>
libRbt.so (2013.1, Build901 2013/11/27)

>  <Rbt.Parameter_File>
/export/apps/rDock/src/rDock_2013.1_src/data/scripts/dock_solv.prm

>  <Rbt.Receptor>
prm/pocket_docking_6.prm

>  <SCORE>
-46.1955

>  <SCORE.INTER>
-45.4536

>  <SCORE.INTER.CONST>
1

>  <SCORE.INTER.POLAR>
0

>  <SCORE.INTER.ROT>
3

>  <SCORE.INTER.SOLV>
5.89957

>  <SCORE.INTER.VDW>
-37.8689

>  <SCORE.INTER.norm>
-1.74821

>  <SCORE.INTRA>
-0.741922

>  <SCORE.INTRA.DIHEDRAL>
-0.000415605

>  <SCORE.INTRA.DIHEDRAL.0>
3.60016

>  <SCORE.INTRA.POLAR>
0

>  <SCORE.INTRA.POLAR.0>
0

>  <SCORE.INTRA.REPUL>
0

>  <SCORE.INTRA.REPUL.0>
0

>  <SCORE.INTRA.SOLV>
0.00107924

>  <SCORE.INTRA.SOLV.lig_0>
-10.9882

>  <SCORE.INTRA.VDW>
-0.742254

>  <SCORE.INTRA.VDW.0>
1.84442

>  <SCORE.INTRA.norm>
-0.0285355

>  <SCORE.RESTR>
0

>  <SCORE.RESTR.CAVITY>
0

>  <SCORE.RESTR.norm>
0

>  <SCORE.SYSTEM>
0

>  <SCORE.SYSTEM.CONST>
0

>  <SCORE.SYSTEM.DIHEDRAL>
0

>  <SCORE.SYSTEM.SOLV>
0

>  <SCORE.SYSTEM.norm>
0

>  <SCORE.heavy>
26

>  <SCORE.norm>
-1.77675

>  <RMSD>
5.514

$$$$
ligand
 OpenBabel02271912153D
libRbt.so/2013.1/901 2013/11/27
 26 29  0  0  0  0  0  0  0  0999 V2000
  109.9200  -75.2832  -86.9745 C   0  0  1  0  0  0  0  0  0  0  0  0
  109.1560  -74.3372  -87.6428 N   0  0  0  0  0  0  0  0  0  0  0  0
  110.3589  -75.0326  -85.6096 C   0  0  0  0  0  0  0  0  0  0  0  0
  113.7140  -76.9130  -79.8340 N   0  0  0  0  0  0  0  0  0  0  0  0
  111.5423  -75.7679  -83.6838 O   0  0  0  0  0  0  0  0  0  0  0  0
  111.1192  -76.0763  -85.0787 C   0  0  2  0  0  0  0  0  0  0  0  0
  112.2450  -76.7219  -83.2107 C   0  0  1  0  0  0  0  0  0  0  0  0
  112.5985  -76.3317  -81.8460 C   0  0  0  0  0  0  0  0  0  0  0  0
  113.4094  -77.2976  -81.1510 C   0  0  2  0  0  0  0  0  0  0  0  0
  113.8338  -78.5104  -81.7482 C   0  0  0  0  0  0  0  0  0  0  0  0
  113.4407  -78.8431  -83.1049 C   0  0  0  0  0  0  0  0  0  0  0  0
  112.6161  -77.8966  -83.8151 C   0  0  2  0  0  0  0  0  0  0  0  0
  112.2399  -78.3277  -85.2132 C   0  0  1  0  0  0  0  0  0  0  0  0
  111.4693  -77.2628  -85.7135 C   0  0  2  0  0  0  0  0  0  0  0  0
  111.0119  -77.4993  -87.0846 C   0  0  0  0  0  0  0  0  0  0  0  0
  110.2335  -76.4445  -87.6536 C   0  0  0  0  0  0  0  0  0  0  0  0
  112.6376  -79.5311  -85.7644 C   0  0  0  0  0  0  0  0  0  0  0  0
  112.7751  -79.7951  -87.1471 C   0  0  0  0  0  0  0  0  0  0  0  0
  113.1919  -80.9979  -87.7202 C   0  0  0  0  0  0  0  0  0  0  0  0
  113.5330  -82.1232  -86.8628 C   0  0  0  0  0  0  0  0  0  0  0  0
  113.3742  -81.8303  -85.4869 C   0  0  0  0  0  0  0  0  0  0  0  0
  112.9564  -80.6433  -84.8696 C   0  0  0  0  0  0  0  0  0  0  0  0
  109.6066  -72.9596  -87.8203 C   0  0  0  0  0  0  0  0  0  0  0  0
  107.8318  -74.5575  -88.2624 C   0  0  0  0  0  0  0  0  0  0  0  0
  112.9105  -76.2211  -78.8015 C   0  0  0  0  0  0  0  0  0  0  0  0
  115.0858  -77.2544  -79.3159 C   0  0  0  0  0  0  0  0  0  0  0  0
  1  2  1  1  0  0  0
  1  3  1  0  0  0  0
  1 16  1  0  0  0  0
  2 23  1  0  0  0  0
  2 24  1  0  0  0  0
  4 25  1  0  0  0  0
  4 26  1  0  0  0  0
  5  6  1  0  0  0  0
  6  3  1  6  0  0  0
  6 14  1  0  0  0  0
  7  5  1  1  0  0  0
  7  8  1  0  0  0  0
  7 12  1  0  0  0  0
  8  9  1  0  0  0  0
  9  4  1  1  0  0  0
  9 10  1  0  0  0  0
 10 11  1  0  0  0  0
 12 11  1  6  0  0  0
 12 13  1  0  0  0  0
 13 14  1  0  0  0  0
 13 17  1  6  0  0  0
 14 15  1  6  0  0  0
 15 16  1  0  0  0  0
 17 18  1  0  0  0  0
 17 22  1  0  0  0  0
 18 19  1  0  0  0  0
 19 20  1  0  0  0  0
 20 21  1  0  0  0  0
 21 22  1  0  0  0  0
M  END
>  <CHROM.1>
56.22903088,38.03350174,-154.72958780,111.99369357,-77.35519884,-84.60604135
2.66646384,0.98265402,-2.24254382

>  <Name>
ligand

>  <RI>
0

>  <Rbt.Current_Directory>
/home/itssahil/PROJECTS/Mol_Feturizer/Test_systems_manuscript/rnas/1f1t

>  <Rbt.Executable>
rbdock ($Id: //depot/dev/client3/rdock/2013.1/src/exe/rbdock.cxx#4 $)

>  <Rbt.Library>
libRbt.so (2013.1, Build901 2013/11/27)

>  <Rbt.Parameter_File>
/export/apps/rDock/src/rDock_2013.1_src/data/scripts/dock_solv.prm

>  <Rbt.Receptor>
prm/pocket_docking_6.prm

>  <SCORE>
-44.99

>  <SCORE.INTER>
-44.8941

>  <SCORE.INTER.CONST>
1

>  <SCORE.INTER.POLAR>
0

>  <SCORE.INTER.ROT>
3

>  <SCORE.INTER.SOLV>
6.56487

>  <SCORE.INTER.VDW>
-37.7177

>  <SCORE.INTER.norm>
-1.7267

>  <SCORE.INTRA>
-0.0959528

>  <SCORE.INTRA.DIHEDRAL>
-0.000228576

>  <SCORE.INTRA.DIHEDRAL.0>
3.60016

>  <SCORE.INTRA.POLAR>
0

>  <SCORE.INTRA.POLAR.0>
0

>  <SCORE.INTRA.REPUL>
0

>  <SCORE.INTRA.REPUL.0>
0

>  <SCORE.INTRA.SOLV>
0.00107084

>  <SCORE.INTRA.SOLV.lig_0>
-10.9882

>  <SCORE.INTRA.VDW>
-0.096374

>  <SCORE.INTRA.VDW.0>
1.84442

>  <SCORE.INTRA.norm>
-0.00369049

>  <SCORE.RESTR>
0

>  <SCORE.RESTR.CAVITY>
0

>  <SCORE.RESTR.norm>
0

>  <SCORE.SYSTEM>
0

>  <SCORE.SYSTEM.CONST>
0

>  <SCORE.SYSTEM.DIHEDRAL>
0

>  <SCORE.SYSTEM.SOLV>
0

>  <SCORE.SYSTEM.norm>
0

>  <SCORE.heavy>
26

>  <SCORE.norm>
-1.73039

>  <RMSD>
5.518

$$$$
ligand
 OpenBabel02271912153D
libRbt.so/2013.1/901 2013/11/27
 26 29  0  0  0  0  0  0  0  0999 V2000
  109.6421  -75.4541  -87.2947 C   0  0  1  0  0  0  0  0  0  0  0  0
  108.8433  -74.5075  -87.9199 N   0  0  0  0  0  0  0  0  0  0  0  0
  110.0692  -75.2518  -85.9181 C   0  0  0  0  0  0  0  0  0  0  0  0
  113.4858  -77.2737  -80.2269 N   0  0  0  0  0  0  0  0  0  0  0  0
  111.2772  -76.0316  -84.0254 O   0  0  0  0  0  0  0  0  0  0  0  0
  110.8683  -76.2896  -85.4346 C   0  0  2  0  0  0  0  0  0  0  0  0
  112.0154  -76.9794  -83.5956 C   0  0  1  0  0  0  0  0  0  0  0  0
  112.3517  -76.6410  -82.2128 C   0  0  0  0  0  0  0  0  0  0  0  0
  113.1981  -77.6070  -81.5616 C   0  0  2  0  0  0  0  0  0  0  0  0
  113.6696  -78.7729  -82.2141 C   0  0  0  0  0  0  0  0  0  0  0  0
  113.2915  -79.0559  -83.5862 C   0  0  0  0  0  0  0  0  0  0  0  0
  112.4322  -78.1091  -84.2537 C   0  0  2  0  0  0  0  0  0  0  0  0
  112.0748  -78.4876  -85.6718 C   0  0  1  0  0  0  0  0  0  0  0  0
  111.2646  -77.4305  -86.1237 C   0  0  2  0  0  0  0  0  0  0  0  0
  110.8186  -77.6192  -87.5059 C   0  0  0  0  0  0  0  0  0  0  0  0
  110.0009  -76.5691  -88.0268 C   0  0  0  0  0  0  0  0  0  0  0  0
  112.5192  -79.6474  -86.2779 C   0  0  0  0  0  0  0  0  0  0  0  0
  113.0750  -80.7624  -85.6085 C   0  0  0  0  0  0  0  0  0  0  0  0
  113.5125  -81.9477  -86.2023 C   0  0  0  0  0  0  0  0  0  0  0  0
  113.4102  -82.1100  -87.6449 C   0  0  0  0  0  0  0  0  0  0  0  0
  112.8610  -80.9734  -88.2856 C   0  0  0  0  0  0  0  0  0  0  0  0
  112.4140  -79.7657  -87.7320 C   0  0  0  0  0  0  0  0  0  0  0  0
  109.2608  -73.1163  -88.0705 C   0  0  0  0  0  0  0  0  0  0  0  0
  107.5102  -74.7398  -88.5154 C   0  0  0  0  0  0  0  0  0  0  0  0
  112.6355  -76.7297  -79.1446 C   0  0  0  0  0  0  0  0  0  0  0  0
  114.8938  -77.5059  -79.7465 C   0  0  0  0  0  0  0  0  0  0  0  0
  1  2  1  1  0  0  0
  1  3  1  0  0  0  0
  1 16  1  0  0  0  0
  2 23  1  0  0  0  0
  2 24  1  0  0  0  0
  4 25  1  0  0  0  0
  4 26  1  0  0  0  0
  5  6  1  0  0  0  0
  6  3  1  6  0  0  0
  6 14  1  0  0  0  0
  7  5  1  1  0  0  0
  7  8  1  0  0  0  0
  7 12  1  0  0  0  0
  8  9  1  0  0  0  0
  9  4  1  1  0  0  0
  9 10  1  0  0  0  0
 10 11  1  0  0  0  0
 12 11  1  6  0  0  0
 12 13  1  0  0  0  0
 13 14  1  0  0  0  0
 13 17  1  6  0  0  0
 14 15  1  6  0  0  0
 15 16  1  0  0  0  0
 17 18  1  0  0  0  0
 17 22  1  0  0  0  0
 18 19  1  0  0  0  0
 19 20  1  0  0  0  0
 20 21  1  0  0  0  0
 21 22  1  0  0  0  0
M  END
>  <CHROM.1>
58.33373862,41.80183195,15.76869229,111.78122608,-77.54932414,-85.03720656
2.61030374,0.95146871,-2.16479107

>  <Name>
ligand

>  <RI>
0

>  <Rbt.Current_Directory>
/home/itssahil/PROJECTS/Mol_Feturizer/Test_systems_manuscript/rnas/1f1t

>  <Rbt.Executable>
rbdock ($Id: //depot/dev/client3/rdock/2013.1/src/exe/rbdock.cxx#4 $)

>  <Rbt.Library>
libRbt.so (2013.1, Build901 2013/11/27)

>  <Rbt.Parameter_File>
/export/apps/rDock/src/rDock_2013.1_src/data/scripts/dock_solv.prm

>  <Rbt.Receptor>
prm/pocket_docking_8.prm

>  <SCORE>
-46.0516

>  <SCORE.INTER>
-45.7147

>  <SCORE.INTER.CONST>
1

>  <SCORE.INTER.POLAR>
0

>  <SCORE.INTER.ROT>
3

>  <SCORE.INTER.SOLV>
5.92482

>  <SCORE.INTER.VDW>
-38.0514

>  <SCORE.INTER.norm>
-1.75826

>  <SCORE.INTRA>
-0.339999

>  <SCORE.INTRA.DIHEDRAL>
-0.000426945

>  <SCORE.INTRA.DIHEDRAL.0>
3.60016

>  <SCORE.INTRA.POLAR>
0

>  <SCORE.INTRA.POLAR.0>
0

>  <SCORE.INTRA.REPUL>
0

>  <SCORE.INTRA.REPUL.0>
0

>  <SCORE.INTRA.SOLV>
0.00107606

>  <SCORE.INTRA.SOLV.lig_0>
-10.9882

>  <SCORE.INTRA.VDW>
-0.340324

>  <SCORE.INTRA.VDW.0>
1.84442

>  <SCORE.INTRA.norm>
-0.0130769

>  <SCORE.RESTR>
0.00309924

>  <SCORE.RESTR.CAVITY>
0.00309924

>  <SCORE.RESTR.norm>
0.000119201

>  <SCORE.SYSTEM>
0

>  <SCORE.SYSTEM.CONST>
0

>  <SCORE.SYSTEM.DIHEDRAL>
0

>  <SCORE.SYSTEM.SOLV>
0

>  <SCORE.SYSTEM.norm>
0

>  <SCORE.heavy>
26

>  <SCORE.norm>
-1.77122

>  <RMSD>
5.522

$$$$
ligand
 OpenBabel02271912153D
libRbt.so/2013.1/901 2013/11/27
 26 29  0  0  0  0  0  0  0  0999 V2000
  109.6815  -75.4334  -87.2761 C   0  0  1  0  0  0  0  0  0  0  0  0
  108.8874  -74.4810  -87.8986 N   0  0  0  0  0  0  0  0  0  0  0  0
  110.0929  -75.2470  -85.8925 C   0  0  0  0  0  0  0  0  0  0  0  0
  113.4515  -77.3306  -80.1891 N   0  0  0  0  0  0  0  0  0  0  0  0
  111.2819  -76.0471  -83.9963 O   0  0  0  0  0  0  0  0  0  0  0  0
  110.8891  -76.2888  -85.4129 C   0  0  2  0  0  0  0  0  0  0  0  0
  112.0175  -76.9984  -83.5699 C   0  0  1  0  0  0  0  0  0  0  0  0
  112.3378  -76.6762  -82.1795 C   0  0  0  0  0  0  0  0  0  0  0  0
  113.1793  -77.6481  -81.5308 C   0  0  2  0  0  0  0  0  0  0  0  0
  113.6606  -78.8050  -82.1922 C   0  0  0  0  0  0  0  0  0  0  0  0
  113.2982  -79.0721  -83.5717 C   0  0  0  0  0  0  0  0  0  0  0  0
  112.4441  -78.1191  -84.2370 C   0  0  2  0  0  0  0  0  0  0  0  0
  112.1032  -78.4811  -85.6635 C   0  0  1  0  0  0  0  0  0  0  0  0
  111.2956  -77.4203  -86.1114 C   0  0  2  0  0  0  0  0  0  0  0  0
  110.8652  -77.5931  -87.5006 C   0  0  0  0  0  0  0  0  0  0  0  0
  110.0509  -76.5386  -88.0178 C   0  0  0  0  0  0  0  0  0  0  0  0
  112.5569  -79.6325  -86.2787 C   0  0  0  0  0  0  0  0  0  0  0  0
  113.0392  -80.7834  -85.6132 C   0  0  0  0  0  0  0  0  0  0  0  0
  113.4846  -81.9605  -86.2174 C   0  0  0  0  0  0  0  0  0  0  0  0
  113.4731  -82.0731  -87.6683 C   0  0  0  0  0  0  0  0  0  0  0  0
  112.9961  -80.9017  -88.3041 C   0  0  0  0  0  0  0  0  0  0  0  0
  112.5444  -79.7008  -87.7398 C   0  0  0  0  0  0  0  0  0  0  0  0
  109.3208  -73.0964  -88.0639 C   0  0  0  0  0  0  0  0  0  0  0  0
  107.5444  -74.7003  -88.4765 C   0  0  0  0  0  0  0  0  0  0  0  0
  112.5766  -76.8524  -79.0954 C   0  0  0  0  0  0  0  0  0  0  0  0
  114.8695  -77.5044  -79.7136 C   0  0  0  0  0  0  0  0  0  0  0  0
  1  2  1  1  0  0  0
  1  3  1  0  0  0  0
  1 16  1  0  0  0  0
  2 23  1  0  0  0  0
  2 24  1  0  0  0  0
  4 25  1  0  0  0  0
  4 26  1  0  0  0  0
  5  6  1  0  0  0  0
  6  3  1  6  0  0  0
  6 14  1  0  0  0  0
  7  5  1  1  0  0  0
  7  8  1  0  0  0  0
  7 12  1  0  0  0  0
  8  9  1  0  0  0  0
  9  4  1  1  0  0  0
  9 10  1  0  0  0  0
 10 11  1  0  0  0  0
 12 11  1  6  0  0  0
 12 13  1  0  0  0  0
 13 14  1  0  0  0  0
 13 17  1  6  0  0  0
 14 15  1  6  0  0  0
 15 16  1  0  0  0  0
 17 18  1  0  0  0  0
 17 22  1  0  0  0  0
 18 19  1  0  0  0  0
 19 20  1  0  0  0  0
 20 21  1  0  0  0  0
 21 22  1  0  0  0  0
M  END
>  <CHROM.1>
60.25007371,44.59700016,19.48599339,111.80121507,-77.55050440,-85.02127656
2.59009382,0.95614872,-2.13595258

>  <Name>
ligand

>  <RI>
0

>  <Rbt.Current_Directory>
/home/itssahil/PROJECTS/Mol_Feturizer/Test_systems_manuscript/rnas/1f1t

>  <Rbt.Executable>
rbdock ($Id: //depot/dev/client3/rdock/2013.1/src/exe/rbdock.cxx#4 $)

>  <Rbt.Library>
libRbt.so (2013.1, Build901 2013/11/27)

>  <Rbt.Parameter_File>
/export/apps/rDock/src/rDock_2013.1_src/data/scripts/dock_solv.prm

>  <Rbt.Receptor>
prm/pocket_docking_5.prm

>  <SCORE>
-46.1452

>  <SCORE.INTER>
-45.4052

>  <SCORE.INTER.CONST>
1

>  <SCORE.INTER.POLAR>
0

>  <SCORE.INTER.ROT>
3

>  <SCORE.INTER.SOLV>
5.9405

>  <SCORE.INTER.VDW>
-37.8503

>  <SCORE.INTER.norm>
-1.74636

>  <SCORE.INTRA>
-0.739956

>  <SCORE.INTRA.DIHEDRAL>
-0.000437381

>  <SCORE.INTRA.DIHEDRAL.0>
3.60016

>  <SCORE.INTRA.POLAR>
0

>  <SCORE.INTRA.POLAR.0>
0

>  <SCORE.INTRA.REPUL>
0

>  <SCORE.INTRA.REPUL.0>
0

>  <SCORE.INTRA.SOLV>
0.00108033

>  <SCORE.INTRA.SOLV.lig_0>
-10.9882

>  <SCORE.INTRA.VDW>
-0.740278

>  <SCORE.INTRA.VDW.0>
1.84442

>  <SCORE.INTRA.norm>
-0.0284598

>  <SCORE.RESTR>
0

>  <SCORE.RESTR.CAVITY>
0

>  <SCORE.RESTR.norm>
0

>  <SCORE.SYSTEM>
0

>  <SCORE.SYSTEM.CONST>
0

>  <SCORE.SYSTEM.DIHEDRAL>
0

>  <SCORE.SYSTEM.SOLV>
0

>  <SCORE.SYSTEM.norm>
0

>  <SCORE.heavy>
26

>  <SCORE.norm>
-1.77481

>  <RMSD>
5.523

$$$$
ligand
 OpenBabel02271912153D
libRbt.so/2013.1/901 2013/11/27
 26 29  0  0  0  0  0  0  0  0999 V2000
  109.7096  -75.4234  -87.2562 C   0  0  1  0  0  0  0  0  0  0  0  0
  108.9232  -74.4766  -87.8969 N   0  0  0  0  0  0  0  0  0  0  0  0
  110.1288  -75.2102  -85.8788 C   0  0  0  0  0  0  0  0  0  0  0  0
  113.4886  -77.2011  -80.1431 N   0  0  0  0  0  0  0  0  0  0  0  0
  111.3170  -75.9803  -83.9697 O   0  0  0  0  0  0  0  0  0  0  0  0
  110.9157  -76.2496  -85.3790 C   0  0  2  0  0  0  0  0  0  0  0  0
  112.0442  -76.9297  -83.5249 C   0  0  1  0  0  0  0  0  0  0  0  0
  112.3737  -76.5797  -82.1434 C   0  0  0  0  0  0  0  0  0  0  0  0
  113.2074  -77.5459  -81.4763 C   0  0  2  0  0  0  0  0  0  0  0  0
  113.6736  -78.7225  -82.1133 C   0  0  0  0  0  0  0  0  0  0  0  0
  113.3026  -79.0166  -83.4850 C   0  0  0  0  0  0  0  0  0  0  0  0
  112.4559  -78.0697  -84.1683 C   0  0  2  0  0  0  0  0  0  0  0  0
  112.1052  -78.4600  -85.5848 C   0  0  1  0  0  0  0  0  0  0  0  0
  111.3071  -77.4009  -86.0534 C   0  0  2  0  0  0  0  0  0  0  0  0
  110.8691  -77.6002  -87.4366 C   0  0  0  0  0  0  0  0  0  0  0  0
  110.0641  -76.5489  -87.9742 C   0  0  0  0  0  0  0  0  0  0  0  0
  112.5440  -79.6297  -86.1758 C   0  0  0  0  0  0  0  0  0  0  0  0
  112.6883  -79.8429  -87.5665 C   0  0  0  0  0  0  0  0  0  0  0  0
  113.1461  -81.0106  -88.1794 C   0  0  0  0  0  0  0  0  0  0  0  0
  113.5279  -82.1510  -87.3598 C   0  0  0  0  0  0  0  0  0  0  0  0
  113.3612  -81.9096  -85.9749 C   0  0  0  0  0  0  0  0  0  0  0  0
  112.9031  -80.7590  -85.3184 C   0  0  0  0  0  0  0  0  0  0  0  0
  109.3684  -73.0994  -88.0903 C   0  0  0  0  0  0  0  0  0  0  0  0
  107.5777  -74.6957  -88.4691 C   0  0  0  0  0  0  0  0  0  0  0  0
  112.6412  -76.6179  -79.0792 C   0  0  0  0  0  0  0  0  0  0  0  0
  114.8838  -77.4652  -79.6424 C   0  0  0  0  0  0  0  0  0  0  0  0
  1  2  1  1  0  0  0
  1  3  1  0  0  0  0
  1 16  1  0  0  0  0
  2 23  1  0  0  0  0
  2 24  1  0  0  0  0
  4 25  1  0  0  0  0
  4 26  1  0  0  0  0
  5  6  1  0  0  0  0
  6  3  1  6  0  0  0
  6 14  1  0  0  0  0
  7  5  1  1  0  0  0
  7  8  1  0  0  0  0
  7 12  1  0  0  0  0
  8  9  1  0  0  0  0
  9  4  1  1  0  0  0
  9 10  1  0  0  0  0
 10 11  1  0  0  0  0
 12 11  1  6  0  0  0
 12 13  1  0  0  0  0
 13 14  1  0  0  0  0
 13 17  1  6  0  0  0
 14 15  1  6  0  0  0
 15 16  1  0  0  0  0
 17 18  1  0  0  0  0
 17 22  1  0  0  0  0
 18 19  1  0  0  0  0
 19 20  1  0  0  0  0
 20 21  1  0  0  0  0
 21 22  1  0  0  0  0
M  END
>  <CHROM.1>
59.99566147,40.63035081,-155.42170758,111.82467423,-77.51787955,-84.94520962
2.62058187,0.96340618,-2.16770874

>  <Name>
ligand

>  <RI>
0

>  <Rbt.Current_Directory>
/home/itssahil/PROJECTS/Mol_Feturizer/Test_systems_manuscript/rnas/1f1t

>  <Rbt.Executable>
rbdock ($Id: //depot/dev/client3/rdock/2013.1/src/exe/rbdock.cxx#4 $)

>  <Rbt.Library>
libRbt.so (2013.1, Build901 2013/11/27)

>  <Rbt.Parameter_File>
/export/apps/rDock/src/rDock_2013.1_src/data/scripts/dock_solv.prm

>  <Rbt.Receptor>
prm/pocket_docking_6.prm

>  <SCORE>
-44.9884

>  <SCORE.INTER>
-44.8138

>  <SCORE.INTER.CONST>
1

>  <SCORE.INTER.POLAR>
0

>  <SCORE.INTER.ROT>
3

>  <SCORE.INTER.SOLV>
6.09796

>  <SCORE.INTER.VDW>
-37.5085

>  <SCORE.INTER.norm>
-1.72361

>  <SCORE.INTRA>
-0.174529

>  <SCORE.INTRA.DIHEDRAL>
-0.000259223

>  <SCORE.INTRA.DIHEDRAL.0>
3.60016

>  <SCORE.INTRA.POLAR>
0

>  <SCORE.INTRA.POLAR.0>
0

>  <SCORE.INTRA.REPUL>
0

>  <SCORE.INTRA.REPUL.0>
0

>  <SCORE.INTRA.SOLV>
0.00107687

>  <SCORE.INTRA.SOLV.lig_0>
-10.9882

>  <SCORE.INTRA.VDW>
-0.174938

>  <SCORE.INTRA.VDW.0>
1.84442

>  <SCORE.INTRA.norm>
-0.00671267

>  <SCORE.RESTR>
0

>  <SCORE.RESTR.CAVITY>
0

>  <SCORE.RESTR.norm>
0

>  <SCORE.SYSTEM>
0

>  <SCORE.SYSTEM.CONST>
0

>  <SCORE.SYSTEM.DIHEDRAL>
0

>  <SCORE.SYSTEM.SOLV>
0

>  <SCORE.SYSTEM.norm>
0

>  <SCORE.heavy>
26

>  <SCORE.norm>
-1.73032

>  <RMSD>
5.524

$$$$
ligand
 OpenBabel02271912153D
libRbt.so/2013.1/901 2013/11/27
 26 29  0  0  0  0  0  0  0  0999 V2000
  112.3328  -79.5523  -86.1761 C   0  0  1  0  0  0  0  0  0  0  0  0
  112.9652  -80.7675  -86.3968 N   0  0  0  0  0  0  0  0  0  0  0  0
  111.4129  -79.0192  -87.1701 C   0  0  0  0  0  0  0  0  0  0  0  0
  107.0145  -74.1492  -89.4257 N   0  0  0  0  0  0  0  0  0  0  0  0
  109.9312  -77.2908  -87.8533 O   0  0  0  0  0  0  0  0  0  0  0  0
  110.8619  -77.7901  -86.8026 C   0  0  2  0  0  0  0  0  0  0  0  0
  109.4408  -76.1628  -87.5140 C   0  0  1  0  0  0  0  0  0  0  0  0
  108.5398  -75.7664  -88.5959 C   0  0  0  0  0  0  0  0  0  0  0  0
  107.8946  -74.4962  -88.3864 C   0  0  2  0  0  0  0  0  0  0  0  0
  108.1274  -73.7011  -87.2369 C   0  0  0  0  0  0  0  0  0  0  0  0
  109.0276  -74.1562  -86.1937 C   0  0  0  0  0  0  0  0  0  0  0  0
  109.6740  -75.4327  -86.3757 C   0  0  2  0  0  0  0  0  0  0  0  0
  110.5806  -75.8373  -85.2372 C   0  0  1  0  0  0  0  0  0  0  0  0
  111.1092  -77.0789  -85.6336 C   0  0  2  0  0  0  0  0  0  0  0  0
  112.0327  -77.6357  -84.6425 C   0  0  0  0  0  0  0  0  0  0  0  0
  112.6136  -78.8928  -84.9954 C   0  0  0  0  0  0  0  0  0  0  0  0
  110.7675  -75.0610  -84.1091 C   0  0  0  0  0  0  0  0  0  0  0  0
  110.8069  -75.5414  -82.7794 C   0  0  0  0  0  0  0  0  0  0  0  0
  111.0119  -74.7750  -81.6307 C   0  0  0  0  0  0  0  0  0  0  0  0
  111.2121  -73.3385  -81.7507 C   0  0  0  0  0  0  0  0  0  0  0  0
  111.1558  -72.8885  -83.0916 C   0  0  0  0  0  0  0  0  0  0  0  0
  110.9491  -73.6187  -84.2702 C   0  0  0  0  0  0  0  0  0  0  0  0
  113.4473  -81.6025  -85.3001 C   0  0  0  0  0  0  0  0  0  0  0  0
  113.2338  -81.3910  -87.7101 C   0  0  0  0  0  0  0  0  0  0  0  0
  105.5515  -74.3179  -89.5721 C   0  0  0  0  0  0  0  0  0  0  0  0
  107.6050  -73.4628  -90.6287 C   0  0  0  0  0  0  0  0  0  0  0  0
  1  2  1  1  0  0  0
  1  3  1  0  0  0  0
  1 16  1  0  0  0  0
  2 23  1  0  0  0  0
  2 24  1  0  0  0  0
  4 25  1  0  0  0  0
  4 26  1  0  0  0  0
  5  6  1  0  0  0  0
  6  3  1  6  0  0  0
  6 14  1  0  0  0  0
  7  5  1  1  0  0  0
  7  8  1  0  0  0  0
  7 12  1  0  0  0  0
  8  9  1  0  0  0  0
  9  4  1  1  0  0  0
  9 10  1  0  0  0  0
 10 11  1  0  0  0  0
 12 11  1  6  0  0  0
 12 13  1  0  0  0  0
 13 14  1  0  0  0  0
 13 17  1  6  0  0  0
 14 15  1  6  0  0  0
 15 16  1  0  0  0  0
 17 18  1  0  0  0  0
 17 22  1  0  0  0  0
 18 19  1  0  0  0  0
 19 20  1  0  0  0  0
 20 21  1  0  0  0  0
 21 22  1  0  0  0  0
M  END
>  <CHROM.1>
-155.06680157,95.71652096,137.05243803,110.33365137,-76.37386117,-86.25471486
0.25091930,0.87766435,-2.33039450

>  <Name>
ligand

>  <RI>
0

>  <Rbt.Current_Directory>
/home/itssahil/PROJECTS/Mol_Feturizer/Test_systems_manuscript/rnas/1f1t

>  <Rbt.Executable>
rbdock ($Id: //depot/dev/client3/rdock/2013.1/src/exe/rbdock.cxx#4 $)

>  <Rbt.Library>
libRbt.so (2013.1, Build901 2013/11/27)

>  <Rbt.Parameter_File>
/export/apps/rDock/src/rDock_2013.1_src/data/scripts/dock_solv.prm

>  <Rbt.Receptor>
prm/pocket_docking_7.prm

>  <SCORE>
-43.3267

>  <SCORE.INTER>
-42.0167

>  <SCORE.INTER.CONST>
1

>  <SCORE.INTER.POLAR>
0

>  <SCORE.INTER.ROT>
3

>  <SCORE.INTER.SOLV>
9.51623

>  <SCORE.INTER.VDW>
-36.7832

>  <SCORE.INTER.norm>
-1.61603

>  <SCORE.INTRA>
-1.30998

>  <SCORE.INTRA.DIHEDRAL>
-0.000165616

>  <SCORE.INTRA.DIHEDRAL.0>
3.60016

>  <SCORE.INTRA.POLAR>
0

>  <SCORE.INTRA.POLAR.0>
0

>  <SCORE.INTRA.REPUL>
0

>  <SCORE.INTRA.REPUL.0>
0

>  <SCORE.INTRA.SOLV>
0.000488915

>  <SCORE.INTRA.SOLV.lig_0>
-10.9882

>  <SCORE.INTRA.VDW>
-1.31014

>  <SCORE.INTRA.VDW.0>
1.84442

>  <SCORE.INTRA.norm>
-0.0503837

>  <SCORE.RESTR>
0

>  <SCORE.RESTR.CAVITY>
0

>  <SCORE.RESTR.norm>
0

>  <SCORE.SYSTEM>
0

>  <SCORE.SYSTEM.CONST>
0

>  <SCORE.SYSTEM.DIHEDRAL>
0

>  <SCORE.SYSTEM.SOLV>
0

>  <SCORE.SYSTEM.norm>
0

>  <SCORE.heavy>
26

>  <SCORE.norm>
-1.66641

>  <RMSD>
5.526

$$$$
ligand
 OpenBabel02271912153D
libRbt.so/2013.1/901 2013/11/27
 26 29  0  0  0  0  0  0  0  0999 V2000
  112.9413  -77.7173  -81.4986 C   0  0  1  0  0  0  0  0  0  0  0  0
  113.2585  -77.5299  -80.1609 N   0  0  0  0  0  0  0  0  0  0  0  0
  112.1138  -76.7427  -82.1942 C   0  0  0  0  0  0  0  0  0  0  0  0
  108.8649  -74.4412  -87.8774 N   0  0  0  0  0  0  0  0  0  0  0  0
  111.0319  -76.0469  -84.1930 O   0  0  0  0  0  0  0  0  0  0  0  0
  111.8830  -77.0748  -83.5305 C   0  0  2  0  0  0  0  0  0  0  0  0
  110.8176  -76.3638  -85.4102 C   0  0  1  0  0  0  0  0  0  0  0  0
  109.9901  -75.2961  -85.9712 C   0  0  0  0  0  0  0  0  0  0  0  0
  109.6375  -75.4919  -87.3536 C   0  0  2  0  0  0  0  0  0  0  0  0
  110.0492  -76.6278  -88.0937 C   0  0  0  0  0  0  0  0  0  0  0  0
  110.8784  -77.6486  -87.4805 C   0  0  0  0  0  0  0  0  0  0  0  0
  111.2559  -77.4658  -86.1005 C   0  0  2  0  0  0  0  0  0  0  0  0
  112.1312  -78.5649  -85.5457 C   0  0  1  0  0  0  0  0  0  0  0  0
  112.3522  -78.1956  -84.2067 C   0  0  2  0  0  0  0  0  0  0  0  0
  113.1893  -79.1610  -83.4911 C   0  0  0  0  0  0  0  0  0  0  0  0
  113.4388  -78.8464  -82.1195 C   0  0  0  0  0  0  0  0  0  0  0  0
  112.5489  -79.6480  -86.2958 C   0  0  0  0  0  0  0  0  0  0  0  0
  112.5593  -79.7129  -87.7086 C   0  0  0  0  0  0  0  0  0  0  0  0
  112.9936  -80.7909  -88.4821 C   0  0  0  0  0  0  0  0  0  0  0  0
  113.4962  -81.9896  -87.8276 C   0  0  0  0  0  0  0  0  0  0  0  0
  113.4619  -81.8970  -86.4154 C   0  0  0  0  0  0  0  0  0  0  0  0
  113.0323  -80.8405  -85.6005 C   0  0  0  0  0  0  0  0  0  0  0  0
  112.2361  -77.4829  -79.1194 C   0  0  0  0  0  0  0  0  0  0  0  0
  114.6146  -77.3647  -79.5957 C   0  0  0  0  0  0  0  0  0  0  0  0
  107.4889  -74.4096  -88.4213 C   0  0  0  0  0  0  0  0  0  0  0  0
  109.4895  -73.0714  -87.9004 C   0  0  0  0  0  0  0  0  0  0  0  0
  1  2  1  6  0  0  0
  1  3  1  0  0  0  0
  1 16  1  0  0  0  0
  2 23  1  0  0  0  0
  2 24  1  0  0  0  0
  4 25  1  0  0  0  0
  4 26  1  0  0  0  0
  5  6  1  0  0  0  0
  6  3  1  1  0  0  0
  6 14  1  0  0  0  0
  7  5  1  6  0  0  0
  7  8  1  0  0  0  0
  7 12  1  0  0  0  0
  8  9  1  0  0  0  0
  9  4  1  6  0  0  0
  9 10  1  0  0  0  0
 10 11  1  0  0  0  0
 12 11  1  1  0  0  0
 12 13  1  0  0  0  0
 13 14  1  0  0  0  0
 13 17  1  1  0  0  0
 14 15  1  1  0  0  0
 15 16  1  0  0  0  0
 17 18  1  0  0  0  0
 17 22  1  0  0  0  0
 18 19  1  0  0  0  0
 19 20  1  0  0  0  0
 20 21  1  0  0  0  0
 21 22  1  0  0  0  0
M  END
>  <CHROM.1>
61.94574958,-117.52647436,18.76282344,111.71348113,-77.59051909,-85.02711779
0.60200473,-0.96925046,1.08127314

>  <Name>
ligand

>  <RI>
0

>  <Rbt.Current_Directory>
/home/itssahil/PROJECTS/Mol_Feturizer/Test_systems_manuscript/rnas/1f1t

>  <Rbt.Executable>
rbdock ($Id: //depot/dev/client3/rdock/2013.1/src/exe/rbdock.cxx#4 $)

>  <Rbt.Library>
libRbt.so (2013.1, Build901 2013/11/27)

>  <Rbt.Parameter_File>
/export/apps/rDock/src/rDock_2013.1_src/data/scripts/dock_solv.prm

>  <Rbt.Receptor>
prm/pocket_docking_5.prm

>  <SCORE>
-46.374

>  <SCORE.INTER>
-45.5219

>  <SCORE.INTER.CONST>
1

>  <SCORE.INTER.POLAR>
0

>  <SCORE.INTER.ROT>
3

>  <SCORE.INTER.SOLV>
5.726

>  <SCORE.INTER.VDW>
-37.8566

>  <SCORE.INTER.norm>
-1.75084

>  <SCORE.INTRA>
-0.852173

>  <SCORE.INTRA.DIHEDRAL>
6.1882e-05

>  <SCORE.INTRA.DIHEDRAL.0>
3.60016

>  <SCORE.INTRA.POLAR>
0

>  <SCORE.INTRA.POLAR.0>
0

>  <SCORE.INTRA.REPUL>
0

>  <SCORE.INTRA.REPUL.0>
0

>  <SCORE.INTRA.SOLV>
0.000787959

>  <SCORE.INTRA.SOLV.lig_0>
-10.9882

>  <SCORE.INTRA.VDW>
-0.852597

>  <SCORE.INTRA.VDW.0>
1.84442

>  <SCORE.INTRA.norm>
-0.0327759

>  <SCORE.RESTR>
0

>  <SCORE.RESTR.CAVITY>
0

>  <SCORE.RESTR.norm>
0

>  <SCORE.SYSTEM>
0

>  <SCORE.SYSTEM.CONST>
0

>  <SCORE.SYSTEM.DIHEDRAL>
0

>  <SCORE.SYSTEM.SOLV>
0

>  <SCORE.SYSTEM.norm>
0

>  <SCORE.heavy>
26

>  <SCORE.norm>
-1.78362

>  <RMSD>
5.528

$$$$
ligand
 OpenBabel02271912153D
libRbt.so/2013.1/901 2013/11/27
 26 29  0  0  0  0  0  0  0  0999 V2000
  112.3336  -79.7004  -86.2165 C   0  0  1  0  0  0  0  0  0  0  0  0
  112.9593  -80.9128  -86.4686 N   0  0  0  0  0  0  0  0  0  0  0  0
  111.4616  -79.1084  -87.2203 C   0  0  0  0  0  0  0  0  0  0  0  0
  107.2196  -74.0761  -89.4187 N   0  0  0  0  0  0  0  0  0  0  0  0
  110.0306  -77.3290  -87.8803 O   0  0  0  0  0  0  0  0  0  0  0  0
  110.9114  -77.8900  -86.8177 C   0  0  2  0  0  0  0  0  0  0  0  0
  109.5408  -76.2111  -87.5081 C   0  0  1  0  0  0  0  0  0  0  0  0
  108.6896  -75.7519  -88.6055 C   0  0  0  0  0  0  0  0  0  0  0  0
  108.0522  -74.4837  -88.3623 C   0  0  2  0  0  0  0  0  0  0  0  0
  108.2479  -73.7465  -87.1683 C   0  0  0  0  0  0  0  0  0  0  0  0
  109.0991  -74.2625  -86.1123 C   0  0  0  0  0  0  0  0  0  0  0  0
  109.7364  -75.5382  -86.3283 C   0  0  2  0  0  0  0  0  0  0  0  0
  110.5908  -76.0084  -85.1746 C   0  0  1  0  0  0  0  0  0  0  0  0
  111.1196  -77.2377  -85.6075 C   0  0  2  0  0  0  0  0  0  0  0  0
  111.9950  -77.8531  -84.6075 C   0  0  0  0  0  0  0  0  0  0  0  0
  112.5742  -79.1006  -84.9957 C   0  0  0  0  0  0  0  0  0  0  0  0
  110.7412  -75.2883  -84.0046 C   0  0  0  0  0  0  0  0  0  0  0  0
  109.7503  -74.4736  -83.4089 C   0  0  0  0  0  0  0  0  0  0  0  0
  109.8789  -73.7538  -82.2197 C   0  0  0  0  0  0  0  0  0  0  0  0
  111.1288  -73.8100  -81.4765 C   0  0  0  0  0  0  0  0  0  0  0  0
  112.1024  -74.6236  -82.1042 C   0  0  0  0  0  0  0  0  0  0  0  0
  112.0184  -75.3581  -83.2951 C   0  0  0  0  0  0  0  0  0  0  0  0
  113.2075  -81.3914  -87.8256 C   0  0  0  0  0  0  0  0  0  0  0  0
  113.4614  -81.8678  -85.4578 C   0  0  0  0  0  0  0  0  0  0  0  0
  107.5156  -73.3804  -90.6909 C   0  0  0  0  0  0  0  0  0  0  0  0
  105.7521  -74.3914  -89.3008 C   0  0  0  0  0  0  0  0  0  0  0  0
  1  2  1  1  0  0  0
  1  3  1  0  0  0  0
  1 16  1  0  0  0  0
  2 23  1  0  0  0  0
  2 24  1  0  0  0  0
  4 25  1  0  0  0  0
  4 26  1  0  0  0  0
  5  6  1  0  0  0  0
  6  3  1  6  0  0  0
  6 14  1  0  0  0  0
  7  5  1  1  0  0  0
  7  8  1  0  0  0  0
  7 12  1  0  0  0  0
  8  9  1  0  0  0  0
  9  4  1  1  0  0  0
  9 10  1  0  0  0  0
 10 11  1  0  0  0  0
 12 11  1  6  0  0  0
 12 13  1  0  0  0  0
 13 14  1  0  0  0  0
 13 17  1  6  0  0  0
 14 15  1  6  0  0  0
 15 16  1  0  0  0  0
 17 18  1  0  0  0  0
 17 22  1  0  0  0  0
 18 19  1  0  0  0  0
 19 20  1  0  0  0  0
 20 21  1  0  0  0  0
 21 22  1  0  0  0  0
M  END
>  <CHROM.1>
23.59094105,-83.40001991,33.22446757,110.36652737,-76.51522881,-86.21255562
0.20130890,0.88459667,-2.24838247

>  <Name>
ligand

>  <RI>
0

>  <Rbt.Current_Directory>
/home/itssahil/PROJECTS/Mol_Feturizer/Test_systems_manuscript/rnas/1f1t

>  <Rbt.Executable>
rbdock ($Id: //depot/dev/client3/rdock/2013.1/src/exe/rbdock.cxx#4 $)

>  <Rbt.Library>
libRbt.so (2013.1, Build901 2013/11/27)

>  <Rbt.Parameter_File>
/export/apps/rDock/src/rDock_2013.1_src/data/scripts/dock_solv.prm

>  <Rbt.Receptor>
prm/pocket_docking_7.prm

>  <SCORE>
-44.2623

>  <SCORE.INTER>
-43.1088

>  <SCORE.INTER.CONST>
1

>  <SCORE.INTER.POLAR>
0

>  <SCORE.INTER.ROT>
3

>  <SCORE.INTER.SOLV>
9.68004

>  <SCORE.INTER.VDW>
-37.5659

>  <SCORE.INTER.norm>
-1.65803

>  <SCORE.INTRA>
-1.15348

>  <SCORE.INTRA.DIHEDRAL>
-0.000233819

>  <SCORE.INTRA.DIHEDRAL.0>
3.60016

>  <SCORE.INTRA.POLAR>
0

>  <SCORE.INTRA.POLAR.0>
0

>  <SCORE.INTRA.REPUL>
0

>  <SCORE.INTRA.REPUL.0>
0

>  <SCORE.INTRA.SOLV>
0.000479647

>  <SCORE.INTRA.SOLV.lig_0>
-10.9882

>  <SCORE.INTRA.VDW>
-1.1536

>  <SCORE.INTRA.VDW.0>
1.84442

>  <SCORE.INTRA.norm>
-0.0443647

>  <SCORE.RESTR>
0

>  <SCORE.RESTR.CAVITY>
0

>  <SCORE.RESTR.norm>
0

>  <SCORE.SYSTEM>
0

>  <SCORE.SYSTEM.CONST>
0

>  <SCORE.SYSTEM.DIHEDRAL>
0

>  <SCORE.SYSTEM.SOLV>
0

>  <SCORE.SYSTEM.norm>
0

>  <SCORE.heavy>
26

>  <SCORE.norm>
-1.7024

>  <RMSD>
5.528

$$$$
ligand
 OpenBabel02271912153D
libRbt.so/2013.1/901 2013/11/27
 26 29  0  0  0  0  0  0  0  0999 V2000
  112.3715  -79.5737  -86.2592 C   0  0  1  0  0  0  0  0  0  0  0  0
  112.9912  -80.7943  -86.4857 N   0  0  0  0  0  0  0  0  0  0  0  0
  111.4433  -79.0347  -87.2422 C   0  0  0  0  0  0  0  0  0  0  0  0
  107.0561  -74.1329  -89.4500 N   0  0  0  0  0  0  0  0  0  0  0  0
  109.9671  -77.2954  -87.9095 O   0  0  0  0  0  0  0  0  0  0  0  0
  110.9071  -77.8006  -86.8698 C   0  0  2  0  0  0  0  0  0  0  0  0
  109.4903  -76.1630  -87.5659 C   0  0  1  0  0  0  0  0  0  0  0  0
  108.5787  -75.7610  -88.6369 C   0  0  0  0  0  0  0  0  0  0  0  0
  107.9465  -74.4853  -88.4214 C   0  0  2  0  0  0  0  0  0  0  0  0
  108.2006  -73.6902  -87.2764 C   0  0  0  0  0  0  0  0  0  0  0  0
  109.1103  -74.1509  -86.2440 C   0  0  0  0  0  0  0  0  0  0  0  0
  109.7439  -75.4329  -86.4320 C   0  0  2  0  0  0  0  0  0  0  0  0
  110.6618  -75.8429  -85.3044 C   0  0  1  0  0  0  0  0  0  0  0  0
  111.1751  -77.0895  -85.7053 C   0  0  2  0  0  0  0  0  0  0  0  0
  112.1067  -77.6521  -84.7252 C   0  0  0  0  0  0  0  0  0  0  0  0
  112.6728  -78.9145  -85.0833 C   0  0  0  0  0  0  0  0  0  0  0  0
  110.8694  -75.0663  -84.1802 C   0  0  0  0  0  0  0  0  0  0  0  0
  111.0184  -73.6599  -84.1702 C   0  0  0  0  0  0  0  0  0  0  0  0
  111.2112  -72.8584  -83.0435 C   0  0  0  0  0  0  0  0  0  0  0  0
  111.2713  -73.4726  -81.7256 C   0  0  0  0  0  0  0  0  0  0  0  0
  111.1303  -74.8804  -81.7712 C   0  0  0  0  0  0  0  0  0  0  0  0
  110.9398  -75.7229  -82.8751 C   0  0  0  0  0  0  0  0  0  0  0  0
  113.4828  -81.6302  -85.3939 C   0  0  0  0  0  0  0  0  0  0  0  0
  113.2356  -81.4234  -87.8011 C   0  0  0  0  0  0  0  0  0  0  0  0
  105.5935  -74.3123  -89.5881 C   0  0  0  0  0  0  0  0  0  0  0  0
  107.6320  -73.4264  -90.6484 C   0  0  0  0  0  0  0  0  0  0  0  0
  1  2  1  1  0  0  0
  1  3  1  0  0  0  0
  1 16  1  0  0  0  0
  2 23  1  0  0  0  0
  2 24  1  0  0  0  0
  4 25  1  0  0  0  0
  4 26  1  0  0  0  0
  5  6  1  0  0  0  0
  6  3  1  6  0  0  0
  6 14  1  0  0  0  0
  7  5  1  1  0  0  0
  7  8  1  0  0  0  0
  7 12  1  0  0  0  0
  8  9  1  0  0  0  0
  9  4  1  1  0  0  0
  9 10  1  0  0  0  0
 10 11  1  0  0  0  0
 12 11  1  6  0  0  0
 12 13  1  0  0  0  0
 13 14  1  0  0  0  0
 13 17  1  6  0  0  0
 14 15  1  6  0  0  0
 15 16  1  0  0  0  0
 17 18  1  0  0  0  0
 17 22  1  0  0  0  0
 18 19  1  0  0  0  0
 19 20  1  0  0  0  0
 20 21  1  0  0  0  0
 21 22  1  0  0  0  0
M  END
>  <CHROM.1>
-155.18467497,94.41726301,-40.67223126,110.38994030,-76.39367376,-86.30613179
0.25588202,0.87749519,-2.33365469

>  <Name>
ligand

>  <RI>
0

>  <Rbt.Current_Directory>
/home/itssahil/PROJECTS/Mol_Feturizer/Test_systems_manuscript/rnas/1f1t

>  <Rbt.Executable>
rbdock ($Id: //depot/dev/client3/rdock/2013.1/src/exe/rbdock.cxx#4 $)

>  <Rbt.Library>
libRbt.so (2013.1, Build901 2013/11/27)

>  <Rbt.Parameter_File>
/export/apps/rDock/src/rDock_2013.1_src/data/scripts/dock_solv.prm

>  <Rbt.Receptor>
prm/pocket_docking_5.prm

>  <SCORE>
-43.9386

>  <SCORE.INTER>
-42.5385

>  <SCORE.INTER.CONST>
1

>  <SCORE.INTER.POLAR>
0

>  <SCORE.INTER.ROT>
3

>  <SCORE.INTER.SOLV>
9.50603

>  <SCORE.INTER.VDW>
-37.1277

>  <SCORE.INTER.norm>
-1.6361

>  <SCORE.INTRA>
-1.40009

>  <SCORE.INTRA.DIHEDRAL>
-2.51997e-06

>  <SCORE.INTRA.DIHEDRAL.0>
3.60016

>  <SCORE.INTRA.POLAR>
0

>  <SCORE.INTRA.POLAR.0>
0

>  <SCORE.INTRA.REPUL>
0

>  <SCORE.INTRA.REPUL.0>
0

>  <SCORE.INTRA.SOLV>
0.000488453

>  <SCORE.INTRA.SOLV.lig_0>
-10.9882

>  <SCORE.INTRA.VDW>
-1.40033

>  <SCORE.INTRA.VDW.0>
1.84442

>  <SCORE.INTRA.norm>
-0.0538495

>  <SCORE.RESTR>
0

>  <SCORE.RESTR.CAVITY>
0

>  <SCORE.RESTR.norm>
0

>  <SCORE.SYSTEM>
0

>  <SCORE.SYSTEM.CONST>
0

>  <SCORE.SYSTEM.DIHEDRAL>
0

>  <SCORE.SYSTEM.SOLV>
0

>  <SCORE.SYSTEM.norm>
0

>  <SCORE.heavy>
26

>  <SCORE.norm>
-1.68994

>  <RMSD>
5.531

$$$$
ligand
 OpenBabel02271912153D
libRbt.so/2013.1/901 2013/11/27
 26 29  0  0  0  0  0  0  0  0999 V2000
  113.0187  -77.7269  -81.5027 C   0  0  1  0  0  0  0  0  0  0  0  0
  113.3469  -77.5424  -80.1673 N   0  0  0  0  0  0  0  0  0  0  0  0
  112.1972  -76.7436  -82.1932 C   0  0  0  0  0  0  0  0  0  0  0  0
  108.9354  -74.4090  -87.8555 N   0  0  0  0  0  0  0  0  0  0  0  0
  111.1095  -76.0369  -84.1850 O   0  0  0  0  0  0  0  0  0  0  0  0
  111.9538  -77.0737  -83.5278 C   0  0  2  0  0  0  0  0  0  0  0  0
  110.8836  -76.3518  -85.4006 C   0  0  1  0  0  0  0  0  0  0  0  0
  110.0640  -75.2754  -85.9565 C   0  0  0  0  0  0  0  0  0  0  0  0
  109.7000  -75.4679  -87.3364 C   0  0  2  0  0  0  0  0  0  0  0  0
  110.0943  -76.6084  -88.0788 C   0  0  0  0  0  0  0  0  0  0  0  0
  110.9165  -77.6380  -87.4707 C   0  0  0  0  0  0  0  0  0  0  0  0
  111.3052  -77.4588  -86.0933 C   0  0  2  0  0  0  0  0  0  0  0  0
  112.1722  -78.5672  -85.5439 C   0  0  1  0  0  0  0  0  0  0  0  0
  112.4062  -78.1998  -84.2066 C   0  0  2  0  0  0  0  0  0  0  0  0
  113.2375  -79.1740  -83.4962 C   0  0  0  0  0  0  0  0  0  0  0  0
  113.4997  -78.8616  -82.1265 C   0  0  0  0  0  0  0  0  0  0  0  0
  112.5730  -79.6550  -86.2963 C   0  0  0  0  0  0  0  0  0  0  0  0
  112.5775  -79.7190  -87.7092 C   0  0  0  0  0  0  0  0  0  0  0  0
  112.9949  -80.8019  -88.4850 C   0  0  0  0  0  0  0  0  0  0  0  0
  113.4842  -82.0075  -87.8333 C   0  0  0  0  0  0  0  0  0  0  0  0
  113.4563  -81.9156  -86.4209 C   0  0  0  0  0  0  0  0  0  0  0  0
  113.0434  -80.8543  -85.6036 C   0  0  0  0  0  0  0  0  0  0  0  0
  114.7290  -77.3908  -79.7210 C   0  0  0  0  0  0  0  0  0  0  0  0
  112.4007  -77.4633  -79.0341 C   0  0  0  0  0  0  0  0  0  0  0  0
  109.2729  -72.9937  -88.1262 C   0  0  0  0  0  0  0  0  0  0  0  0
  107.5116  -74.7111  -88.2409 C   0  0  0  0  0  0  0  0  0  0  0  0
  1  2  1  6  0  0  0
  1  3  1  0  0  0  0
  1 16  1  0  0  0  0
  2 23  1  0  0  0  0
  2 24  1  0  0  0  0
  4 25  1  0  0  0  0
  4 26  1  0  0  0  0
  5  6  1  0  0  0  0
  6  3  1  1  0  0  0
  6 14  1  0  0  0  0
  7  5  1  6  0  0  0
  7  8  1  0  0  0  0
  7 12  1  0  0  0  0
  8  9  1  0  0  0  0
  9  4  1  6  0  0  0
  9 10  1  0  0  0  0
 10 11  1  0  0  0  0
 12 11  1  1  0  0  0
 12 13  1  0  0  0  0
 13 14  1  0  0  0  0
 13 17  1  1  0  0  0
 14 15  1  1  0  0  0
 15 16  1  0  0  0  0
 17 18  1  0  0  0  0
 17 22  1  0  0  0  0
 18 19  1  0  0  0  0
 19 20  1  0  0  0  0
 20 21  1  0  0  0  0
 21 22  1  0  0  0  0
M  END
>  <CHROM.1>
-117.88562352,66.93825929,18.98609115,111.75695202,-77.60052362,-85.02834213
0.58599852,-0.96575300,1.06372165

>  <Name>
ligand

>  <RI>
0

>  <Rbt.Current_Directory>
/home/itssahil/PROJECTS/Mol_Feturizer/Test_systems_manuscript/rnas/1f1t

>  <Rbt.Executable>
rbdock ($Id: //depot/dev/client3/rdock/2013.1/src/exe/rbdock.cxx#4 $)

>  <Rbt.Library>
libRbt.so (2013.1, Build901 2013/11/27)

>  <Rbt.Parameter_File>
/export/apps/rDock/src/rDock_2013.1_src/data/scripts/dock_solv.prm

>  <Rbt.Receptor>
prm/pocket_docking_6.prm

>  <SCORE>
-46.3687

>  <SCORE.INTER>
-45.1712

>  <SCORE.INTER.CONST>
1

>  <SCORE.INTER.POLAR>
0

>  <SCORE.INTER.ROT>
3

>  <SCORE.INTER.SOLV>
5.79538

>  <SCORE.INTER.VDW>
-37.6459

>  <SCORE.INTER.norm>
-1.73735

>  <SCORE.INTRA>
-1.19746

>  <SCORE.INTRA.DIHEDRAL>
-0.000529629

>  <SCORE.INTRA.DIHEDRAL.0>
3.60016

>  <SCORE.INTRA.POLAR>
0

>  <SCORE.INTRA.POLAR.0>
0

>  <SCORE.INTRA.REPUL>
0

>  <SCORE.INTRA.REPUL.0>
0

>  <SCORE.INTRA.SOLV>
0.00110115

>  <SCORE.INTRA.SOLV.lig_0>
-10.9882

>  <SCORE.INTRA.VDW>
-1.19774

>  <SCORE.INTRA.VDW.0>
1.84442

>  <SCORE.INTRA.norm>
-0.046056

>  <SCORE.RESTR>
0

>  <SCORE.RESTR.CAVITY>
0

>  <SCORE.RESTR.norm>
0

>  <SCORE.SYSTEM>
0

>  <SCORE.SYSTEM.CONST>
0

>  <SCORE.SYSTEM.DIHEDRAL>
0

>  <SCORE.SYSTEM.SOLV>
0

>  <SCORE.SYSTEM.norm>
0

>  <SCORE.heavy>
26

>  <SCORE.norm>
-1.78341

>  <RMSD>
5.539

$$$$
ligand
 OpenBabel02271912153D
libRbt.so/2013.1/901 2013/11/27
 26 29  0  0  0  0  0  0  0  0999 V2000
  109.6791  -75.4388  -87.3080 C   0  0  1  0  0  0  0  0  0  0  0  0
  108.8855  -74.4770  -87.9165 N   0  0  0  0  0  0  0  0  0  0  0  0
  110.0975  -75.2686  -85.9244 C   0  0  0  0  0  0  0  0  0  0  0  0
  113.4751  -77.4249  -80.2593 N   0  0  0  0  0  0  0  0  0  0  0  0
  111.2925  -76.0932  -84.0423 O   0  0  0  0  0  0  0  0  0  0  0  0
  110.8923  -76.3183  -85.4597 C   0  0  2  0  0  0  0  0  0  0  0  0
  112.0267  -77.0515  -83.6296 C   0  0  1  0  0  0  0  0  0  0  0  0
  112.3545  -76.7453  -82.2373 C   0  0  0  0  0  0  0  0  0  0  0  0
  113.1956  -77.7271  -81.6031 C   0  0  2  0  0  0  0  0  0  0  0  0
  113.6700  -78.8784  -82.2791 C   0  0  0  0  0  0  0  0  0  0  0  0
  113.3003  -79.1294  -83.6597 C   0  0  0  0  0  0  0  0  0  0  0  0
  112.4464  -78.1664  -84.3107 C   0  0  2  0  0  0  0  0  0  0  0  0
  112.0978  -78.5118  -85.7394 C   0  0  1  0  0  0  0  0  0  0  0  0
  111.2917  -77.4436  -86.1722 C   0  0  2  0  0  0  0  0  0  0  0  0
  110.8544  -77.6000  -87.5612 C   0  0  0  0  0  0  0  0  0  0  0  0
  110.0414  -76.5372  -88.0632 C   0  0  0  0  0  0  0  0  0  0  0  0
  112.5447  -79.6580  -86.3691 C   0  0  0  0  0  0  0  0  0  0  0  0
  113.0269  -80.8174  -85.7182 C   0  0  0  0  0  0  0  0  0  0  0  0
  113.4655  -81.9893  -86.3371 C   0  0  0  0  0  0  0  0  0  0  0  0
  113.4461  -82.0867  -87.7890 C   0  0  0  0  0  0  0  0  0  0  0  0
  112.9694  -80.9073  -88.4100 C   0  0  0  0  0  0  0  0  0  0  0  0
  112.5243  -79.7109  -87.8307 C   0  0  0  0  0  0  0  0  0  0  0  0
  109.3357  -73.0998  -88.0978 C   0  0  0  0  0  0  0  0  0  0  0  0
  107.5265  -74.6784  -88.4628 C   0  0  0  0  0  0  0  0  0  0  0  0
  112.6026  -76.9782  -79.1504 C   0  0  0  0  0  0  0  0  0  0  0  0
  114.9003  -77.5813  -79.7995 C   0  0  0  0  0  0  0  0  0  0  0  0
  1  2  1  1  0  0  0
  1  3  1  0  0  0  0
  1 16  1  0  0  0  0
  2 23  1  0  0  0  0
  2 24  1  0  0  0  0
  4 25  1  0  0  0  0
  4 26  1  0  0  0  0
  5  6  1  0  0  0  0
  6  3  1  6  0  0  0
  6 14  1  0  0  0  0
  7  5  1  1  0  0  0
  7  8  1  0  0  0  0
  7 12  1  0  0  0  0
  8  9  1  0  0  0  0
  9  4  1  1  0  0  0
  9 10  1  0  0  0  0
 10 11  1  0  0  0  0
 12 11  1  6  0  0  0
 12 13  1  0  0  0  0
 13 14  1  0  0  0  0
 13 17  1  6  0  0  0
 14 15  1  6  0  0  0
 15 16  1  0  0  0  0
 17 18  1  0  0  0  0
 17 22  1  0  0  0  0
 18 19  1  0  0  0  0
 19 20  1  0  0  0  0
 20 21  1  0  0  0  0
 21 22  1  0  0  0  0
M  END
>  <CHROM.1>
61.75572852,45.83010536,19.44134181,111.80197002,-77.58700742,-85.08596349
2.59961794,0.95647421,-2.13298172

>  <Name>
ligand

>  <RI>
0

>  <Rbt.Current_Directory>
/home/itssahil/PROJECTS/Mol_Feturizer/Test_systems_manuscript/rnas/1f1t

>  <Rbt.Executable>
rbdock ($Id: //depot/dev/client3/rdock/2013.1/src/exe/rbdock.cxx#4 $)

>  <Rbt.Library>
libRbt.so (2013.1, Build901 2013/11/27)

>  <Rbt.Parameter_File>
/export/apps/rDock/src/rDock_2013.1_src/data/scripts/dock_solv.prm

>  <Rbt.Receptor>
prm/pocket_docking_5.prm

>  <SCORE>
-46.2273

>  <SCORE.INTER>
-45.4173

>  <SCORE.INTER.CONST>
1

>  <SCORE.INTER.POLAR>
0

>  <SCORE.INTER.ROT>
3

>  <SCORE.INTER.SOLV>
5.92338

>  <SCORE.INTER.VDW>
-37.8527

>  <SCORE.INTER.norm>
-1.74682

>  <SCORE.INTRA>
-0.809976

>  <SCORE.INTRA.DIHEDRAL>
-0.000451358

>  <SCORE.INTRA.DIHEDRAL.0>
3.60016

>  <SCORE.INTRA.POLAR>
0

>  <SCORE.INTRA.POLAR.0>
0

>  <SCORE.INTRA.REPUL>
0

>  <SCORE.INTRA.REPUL.0>
0

>  <SCORE.INTRA.SOLV>
0.00108289

>  <SCORE.INTRA.SOLV.lig_0>
-10.9882

>  <SCORE.INTRA.VDW>
-0.810292

>  <SCORE.INTRA.VDW.0>
1.84442

>  <SCORE.INTRA.norm>
-0.0311529

>  <SCORE.RESTR>
0

>  <SCORE.RESTR.CAVITY>
0

>  <SCORE.RESTR.norm>
0

>  <SCORE.SYSTEM>
0

>  <SCORE.SYSTEM.CONST>
0

>  <SCORE.SYSTEM.DIHEDRAL>
0

>  <SCORE.SYSTEM.SOLV>
0

>  <SCORE.SYSTEM.norm>
0

>  <SCORE.heavy>
26

>  <SCORE.norm>
-1.77797

>  <RMSD>
5.540

$$$$
ligand
 OpenBabel02271912153D
libRbt.so/2013.1/901 2013/11/27
 26 29  0  0  0  0  0  0  0  0999 V2000
  112.3132  -79.5713  -86.1395 C   0  0  1  0  0  0  0  0  0  0  0  0
  112.9669  -80.7723  -86.3751 N   0  0  0  0  0  0  0  0  0  0  0  0
  111.4093  -79.0256  -87.1412 C   0  0  0  0  0  0  0  0  0  0  0  0
  106.9984  -74.1584  -89.3785 N   0  0  0  0  0  0  0  0  0  0  0  0
  109.9204  -77.3000  -87.8162 O   0  0  0  0  0  0  0  0  0  0  0  0
  110.8333  -77.8133  -86.7566 C   0  0  2  0  0  0  0  0  0  0  0  0
  109.4071  -76.1873  -87.4607 C   0  0  1  0  0  0  0  0  0  0  0  0
  108.5259  -75.7758  -88.5534 C   0  0  0  0  0  0  0  0  0  0  0  0
  107.8589  -74.5197  -88.3277 C   0  0  2  0  0  0  0  0  0  0  0  0
  108.0545  -73.7506  -87.1540 C   0  0  0  0  0  0  0  0  0  0  0  0
  108.9364  -74.2198  -86.1015 C   0  0  0  0  0  0  0  0  0  0  0  0
  109.6041  -75.4828  -86.2998 C   0  0  2  0  0  0  0  0  0  0  0  0
  110.4897  -75.9038  -85.1506 C   0  0  1  0  0  0  0  0  0  0  0  0
  111.0440  -77.1282  -85.5650 C   0  0  2  0  0  0  0  0  0  0  0  0
  111.9519  -77.6974  -84.5666 C   0  0  0  0  0  0  0  0  0  0  0  0
  112.5578  -78.9377  -84.9367 C   0  0  0  0  0  0  0  0  0  0  0  0
  110.6400  -75.1535  -83.9998 C   0  0  0  0  0  0  0  0  0  0  0  0
  109.6361  -74.3561  -83.4027 C   0  0  0  0  0  0  0  0  0  0  0  0
  109.7650  -73.6064  -82.2322 C   0  0  0  0  0  0  0  0  0  0  0  0
  111.0299  -73.6080  -81.5125 C   0  0  0  0  0  0  0  0  0  0  0  0
  112.0159  -74.4057  -82.1414 C   0  0  0  0  0  0  0  0  0  0  0  0
  111.9320  -75.1688  -83.3141 C   0  0  0  0  0  0  0  0  0  0  0  0
  113.4837  -81.6012  -85.2897 C   0  0  0  0  0  0  0  0  0  0  0  0
  113.2271  -81.3853  -87.6950 C   0  0  0  0  0  0  0  0  0  0  0  0
  105.5400  -74.3345  -89.5592 C   0  0  0  0  0  0  0  0  0  0  0  0
  107.6089  -73.4442  -90.5550 C   0  0  0  0  0  0  0  0  0  0  0  0
  1  2  1  1  0  0  0
  1  3  1  0  0  0  0
  1 16  1  0  0  0  0
  2 23  1  0  0  0  0
  2 24  1  0  0  0  0
  4 25  1  0  0  0  0
  4 26  1  0  0  0  0
  5  6  1  0  0  0  0
  6  3  1  6  0  0  0
  6 14  1  0  0  0  0
  7  5  1  1  0  0  0
  7  8  1  0  0  0  0
  7 12  1  0  0  0  0
  8  9  1  0  0  0  0
  9  4  1  1  0  0  0
  9 10  1  0  0  0  0
 10 11  1  0  0  0  0
 12 11  1  6  0  0  0
 12 13  1  0  0  0  0
 13 14  1  0  0  0  0
 13 17  1  6  0  0  0
 14 15  1  6  0  0  0
 15 16  1  0  0  0  0
 17 18  1  0  0  0  0
 17 22  1  0  0  0  0
 18 19  1  0  0  0  0
 19 20  1  0  0  0  0
 20 21  1  0  0  0  0
 21 22  1  0  0  0  0
M  END
>  <CHROM.1>
-157.64696960,96.17966712,33.48941498,110.27764283,-76.43111812,-86.17860817
0.18949505,0.86371907,-2.26244709

>  <Name>
ligand

>  <RI>
0

>  <Rbt.Current_Directory>
/home/itssahil/PROJECTS/Mol_Feturizer/Test_systems_manuscript/rnas/1f1t

>  <Rbt.Executable>
rbdock ($Id: //depot/dev/client3/rdock/2013.1/src/exe/rbdock.cxx#4 $)

>  <Rbt.Library>
libRbt.so (2013.1, Build901 2013/11/27)

>  <Rbt.Parameter_File>
/export/apps/rDock/src/rDock_2013.1_src/data/scripts/dock_solv.prm

>  <Rbt.Receptor>
prm/pocket_docking_8.prm

>  <SCORE>
-42.6174

>  <SCORE.INTER>
-41.8341

>  <SCORE.INTER.CONST>
1

>  <SCORE.INTER.POLAR>
0

>  <SCORE.INTER.ROT>
3

>  <SCORE.INTER.SOLV>
9.732

>  <SCORE.INTER.VDW>
-36.7334

>  <SCORE.INTER.norm>
-1.609

>  <SCORE.INTRA>
-0.873035

>  <SCORE.INTRA.DIHEDRAL>
-3.3691e-05

>  <SCORE.INTRA.DIHEDRAL.0>
3.60016

>  <SCORE.INTRA.POLAR>
0

>  <SCORE.INTRA.POLAR.0>
0

>  <SCORE.INTRA.REPUL>
0

>  <SCORE.INTRA.REPUL.0>
0

>  <SCORE.INTRA.SOLV>
0.000457372

>  <SCORE.INTRA.SOLV.lig_0>
-10.9882

>  <SCORE.INTRA.VDW>
-0.873246

>  <SCORE.INTRA.VDW.0>
1.84442

>  <SCORE.INTRA.norm>
-0.0335783

>  <SCORE.RESTR>
0.0897159

>  <SCORE.RESTR.CAVITY>
0.0897159

>  <SCORE.RESTR.norm>
0.00345061

>  <SCORE.SYSTEM>
0

>  <SCORE.SYSTEM.CONST>
0

>  <SCORE.SYSTEM.DIHEDRAL>
0

>  <SCORE.SYSTEM.SOLV>
0

>  <SCORE.SYSTEM.norm>
0

>  <SCORE.heavy>
26

>  <SCORE.norm>
-1.63913

>  <RMSD>
5.540

$$$$
ligand
 OpenBabel02271912153D
libRbt.so/2013.1/901 2013/11/27
 26 29  0  0  0  0  0  0  0  0999 V2000
  113.1366  -77.8156  -81.6155 C   0  0  1  0  0  0  0  0  0  0  0  0
  113.4938  -77.6526  -80.2847 N   0  0  0  0  0  0  0  0  0  0  0  0
  112.2973  -76.8235  -82.2709 C   0  0  0  0  0  0  0  0  0  0  0  0
  108.9046  -74.4043  -87.8196 N   0  0  0  0  0  0  0  0  0  0  0  0
  111.1639  -76.0868  -84.2260 O   0  0  0  0  0  0  0  0  0  0  0  0
  112.0254  -77.1318  -83.6052 C   0  0  2  0  0  0  0  0  0  0  0  0
  110.9120  -76.3820  -85.4415 C   0  0  1  0  0  0  0  0  0  0  0  0
  110.0773  -75.2989  -85.9609 C   0  0  0  0  0  0  0  0  0  0  0  0
  109.6834  -75.4693  -87.3354 C   0  0  2  0  0  0  0  0  0  0  0  0
  110.0644  -76.5960  -88.1055 C   0  0  0  0  0  0  0  0  0  0  0  0
  110.9026  -77.6330  -87.5331 C   0  0  0  0  0  0  0  0  0  0  0  0
  111.3212  -77.4759  -86.1619 C   0  0  2  0  0  0  0  0  0  0  0  0
  112.2032  -78.5906  -85.6505 C   0  0  1  0  0  0  0  0  0  0  0  0
  112.4657  -78.2449  -84.3127 C   0  0  2  0  0  0  0  0  0  0  0  0
  113.3152  -79.2284  -83.6373 C   0  0  0  0  0  0  0  0  0  0  0  0
  113.6068  -78.9382  -82.2687 C   0  0  0  0  0  0  0  0  0  0  0  0
  112.5902  -79.6643  -86.4298 C   0  0  0  0  0  0  0  0  0  0  0  0
  112.9620  -80.9395  -85.9440 C   0  0  0  0  0  0  0  0  0  0  0  0
  113.3384  -82.0396  -86.7167 C   0  0  0  0  0  0  0  0  0  0  0  0
  113.3682  -81.9236  -88.1670 C   0  0  0  0  0  0  0  0  0  0  0  0
  113.0023  -80.6333  -88.6201 C   0  0  0  0  0  0  0  0  0  0  0  0
  112.6227  -79.5030  -87.8832 C   0  0  0  0  0  0  0  0  0  0  0  0
  114.8795  -77.4481  -79.8719 C   0  0  0  0  0  0  0  0  0  0  0  0
  112.5775  -77.6494  -79.1244 C   0  0  0  0  0  0  0  0  0  0  0  0
  109.2449  -72.9960  -88.1218 C   0  0  0  0  0  0  0  0  0  0  0  0
  107.4573  -74.6898  -88.1207 C   0  0  0  0  0  0  0  0  0  0  0  0
  1  2  1  6  0  0  0
  1  3  1  0  0  0  0
  1 16  1  0  0  0  0
  2 23  1  0  0  0  0
  2 24  1  0  0  0  0
  4 25  1  0  0  0  0
  4 26  1  0  0  0  0
  5  6  1  0  0  0  0
  6  3  1  1  0  0  0
  6 14  1  0  0  0  0
  7  5  1  6  0  0  0
  7  8  1  0  0  0  0
  7 12  1  0  0  0  0
  8  9  1  0  0  0  0
  9  4  1  6  0  0  0
  9 10  1  0  0  0  0
 10 11  1  0  0  0  0
 12 11  1  1  0  0  0
 12 13  1  0  0  0  0
 13 14  1  0  0  0  0
 13 17  1  1  0  0  0
 14 15  1  1  0  0  0
 15 16  1  0  0  0  0
 17 18  1  0  0  0  0
 17 22  1  0  0  0  0
 18 19  1  0  0  0  0
 19 20  1  0  0  0  0
 20 21  1  0  0  0  0
 21 22  1  0  0  0  0
M  END
>  <CHROM.1>
-115.26264811,69.58473438,-154.97189748,111.78698721,-77.62587358,-85.12497975
0.57081144,-0.95482956,1.05470499

>  <Name>
ligand

>  <RI>
0

>  <Rbt.Current_Directory>
/home/itssahil/PROJECTS/Mol_Feturizer/Test_systems_manuscript/rnas/1f1t

>  <Rbt.Executable>
rbdock ($Id: //depot/dev/client3/rdock/2013.1/src/exe/rbdock.cxx#4 $)

>  <Rbt.Library>
libRbt.so (2013.1, Build901 2013/11/27)

>  <Rbt.Parameter_File>
/export/apps/rDock/src/rDock_2013.1_src/data/scripts/dock_solv.prm

>  <Rbt.Receptor>
prm/pocket_docking_7.prm

>  <SCORE>
-45.3493

>  <SCORE.INTER>
-44.3857

>  <SCORE.INTER.CONST>
1

>  <SCORE.INTER.POLAR>
0

>  <SCORE.INTER.ROT>
3

>  <SCORE.INTER.SOLV>
5.82113

>  <SCORE.INTER.VDW>
-37.1308

>  <SCORE.INTER.norm>
-1.70714

>  <SCORE.INTRA>
-0.963643

>  <SCORE.INTRA.DIHEDRAL>
-0.000383712

>  <SCORE.INTRA.DIHEDRAL.0>
3.60016

>  <SCORE.INTRA.POLAR>
0

>  <SCORE.INTRA.POLAR.0>
0

>  <SCORE.INTRA.REPUL>
0

>  <SCORE.INTRA.REPUL.0>
0

>  <SCORE.INTRA.SOLV>
0.00110451

>  <SCORE.INTRA.SOLV.lig_0>
-10.9882

>  <SCORE.INTRA.VDW>
-0.964004

>  <SCORE.INTRA.VDW.0>
1.84442

>  <SCORE.INTRA.norm>
-0.0370632

>  <SCORE.RESTR>
0

>  <SCORE.RESTR.CAVITY>
0

>  <SCORE.RESTR.norm>
0

>  <SCORE.SYSTEM>
0

>  <SCORE.SYSTEM.CONST>
0

>  <SCORE.SYSTEM.DIHEDRAL>
0

>  <SCORE.SYSTEM.SOLV>
0

>  <SCORE.SYSTEM.norm>
0

>  <SCORE.heavy>
26

>  <SCORE.norm>
-1.74421

>  <RMSD>
5.546

$$$$
ligand
 OpenBabel02271912153D
libRbt.so/2013.1/901 2013/11/27
 26 29  0  0  0  0  0  0  0  0999 V2000
  113.1249  -77.8334  -81.6832 C   0  0  1  0  0  0  0  0  0  0  0  0
  113.4876  -77.6816  -80.3526 N   0  0  0  0  0  0  0  0  0  0  0  0
  112.2766  -76.8398  -82.3247 C   0  0  0  0  0  0  0  0  0  0  0  0
  108.8431  -74.3855  -87.8327 N   0  0  0  0  0  0  0  0  0  0  0  0
  111.1295  -76.0903  -84.2669 O   0  0  0  0  0  0  0  0  0  0  0  0
  112.0001  -77.1364  -83.6607 C   0  0  2  0  0  0  0  0  0  0  0  0
  110.8736  -76.3749  -85.4841 C   0  0  1  0  0  0  0  0  0  0  0  0
  110.0299  -75.2916  -85.9886 C   0  0  0  0  0  0  0  0  0  0  0  0
  109.6305  -75.4507  -87.3629 C   0  0  2  0  0  0  0  0  0  0  0  0
  110.0144  -76.5673  -88.1461 C   0  0  0  0  0  0  0  0  0  0  0  0
  110.8616  -77.6049  -87.5881 C   0  0  0  0  0  0  0  0  0  0  0  0
  111.2858  -77.4590  -86.2174 C   0  0  2  0  0  0  0  0  0  0  0  0
  112.1769  -78.5735  -85.7214 C   0  0  1  0  0  0  0  0  0  0  0  0
  112.4437  -78.2397  -84.3814 C   0  0  2  0  0  0  0  0  0  0  0  0
  113.3023  -79.2247  -83.7200 C   0  0  0  0  0  0  0  0  0  0  0  0
  113.5987  -78.9466  -82.3499 C   0  0  0  0  0  0  0  0  0  0  0  0
  112.5665  -79.6370  -86.5133 C   0  0  0  0  0  0  0  0  0  0  0  0
  112.9171  -80.9245  -86.0443 C   0  0  0  0  0  0  0  0  0  0  0  0
  113.2958  -82.0143  -86.8303 C   0  0  0  0  0  0  0  0  0  0  0  0
  113.3517  -81.8726  -88.2775 C   0  0  0  0  0  0  0  0  0  0  0  0
  113.0065  -80.5708  -88.7134 C   0  0  0  0  0  0  0  0  0  0  0  0
  112.6256  -79.4500  -87.9628 C   0  0  0  0  0  0  0  0  0  0  0  0
  112.5005  -77.6550  -79.2768 C   0  0  0  0  0  0  0  0  0  0  0  0
  114.8627  -77.5385  -79.8289 C   0  0  0  0  0  0  0  0  0  0  0  0
  109.1839  -72.9851  -88.1688 C   0  0  0  0  0  0  0  0  0  0  0  0
  107.3827  -74.6617  -88.0735 C   0  0  0  0  0  0  0  0  0  0  0  0
  1  2  1  6  0  0  0
  1  3  1  0  0  0  0
  1 16  1  0  0  0  0
  2 23  1  0  0  0  0
  2 24  1  0  0  0  0
  4 25  1  0  0  0  0
  4 26  1  0  0  0  0
  5  6  1  0  0  0  0
  6  3  1  1  0  0  0
  6 14  1  0  0  0  0
  7  5  1  6  0  0  0
  7  8  1  0  0  0  0
  7 12  1  0  0  0  0
  8  9  1  0  0  0  0
  9  4  1  6  0  0  0
  9 10  1  0  0  0  0
 10 11  1  0  0  0  0
 12 11  1  1  0  0  0
 12 13  1  0  0  0  0
 13 14  1  0  0  0  0
 13 17  1  1  0  0  0
 14 15  1  1  0  0  0
 15 16  1  0  0  0  0
 17 18  1  0  0  0  0
 17 22  1  0  0  0  0
 18 19  1  0  0  0  0
 19 20  1  0  0  0  0
 20 21  1  0  0  0  0
 21 22  1  0  0  0  0
M  END
>  <CHROM.1>
61.68658289,72.14107839,-153.34999161,111.75357549,-77.61749421,-85.18264785
0.57202845,-0.94753525,1.06809529

>  <Name>
ligand

>  <RI>
0

>  <Rbt.Current_Directory>
/home/itssahil/PROJECTS/Mol_Feturizer/Test_systems_manuscript/rnas/1f1t

>  <Rbt.Executable>
rbdock ($Id: //depot/dev/client3/rdock/2013.1/src/exe/rbdock.cxx#4 $)

>  <Rbt.Library>
libRbt.so (2013.1, Build901 2013/11/27)

>  <Rbt.Parameter_File>
/export/apps/rDock/src/rDock_2013.1_src/data/scripts/dock_solv.prm

>  <Rbt.Receptor>
prm/pocket_docking_8.prm

>  <SCORE>
-45.4897

>  <SCORE.INTER>
-44.2963

>  <SCORE.INTER.CONST>
1

>  <SCORE.INTER.POLAR>
0

>  <SCORE.INTER.ROT>
3

>  <SCORE.INTER.SOLV>
5.8578

>  <SCORE.INTER.VDW>
-37.0835

>  <SCORE.INTER.norm>
-1.70371

>  <SCORE.INTRA>
-1.20091

>  <SCORE.INTRA.DIHEDRAL>
-0.000361618

>  <SCORE.INTRA.DIHEDRAL.0>
3.60016

>  <SCORE.INTRA.POLAR>
0

>  <SCORE.INTRA.POLAR.0>
0

>  <SCORE.INTRA.REPUL>
0

>  <SCORE.INTRA.REPUL.0>
0

>  <SCORE.INTRA.SOLV>
0.00109951

>  <SCORE.INTRA.SOLV.lig_0>
-10.9882

>  <SCORE.INTRA.VDW>
-1.20128

>  <SCORE.INTRA.VDW.0>
1.84442

>  <SCORE.INTRA.norm>
-0.0461889

>  <SCORE.RESTR>
0.0075885

>  <SCORE.RESTR.CAVITY>
0.0075885

>  <SCORE.RESTR.norm>
0.000291865

>  <SCORE.SYSTEM>
0

>  <SCORE.SYSTEM.CONST>
0

>  <SCORE.SYSTEM.DIHEDRAL>
0

>  <SCORE.SYSTEM.SOLV>
0

>  <SCORE.SYSTEM.norm>
0

>  <SCORE.heavy>
26

>  <SCORE.norm>
-1.7496

>  <RMSD>
5.546

$$$$
ligand
 OpenBabel02271912153D
libRbt.so/2013.1/901 2013/11/27
 26 29  0  0  0  0  0  0  0  0999 V2000
  107.9482  -74.6248  -88.4192 C   0  0  1  0  0  0  0  0  0  0  0  0
  107.1081  -74.1562  -89.4191 N   0  0  0  0  0  0  0  0  0  0  0  0
  108.6474  -75.8900  -88.5891 C   0  0  0  0  0  0  0  0  0  0  0  0
  112.9798  -80.8205  -86.3371 N   0  0  0  0  0  0  0  0  0  0  0  0
  110.1396  -77.5242  -87.7218 O   0  0  0  0  0  0  0  0  0  0  0  0
  109.4499  -76.2231  -87.4962 C   0  0  2  0  0  0  0  0  0  0  0  0
  110.8620  -77.8256  -86.7142 C   0  0  1  0  0  0  0  0  0  0  0  0
  111.5003  -79.1019  -87.0356 C   0  0  0  0  0  0  0  0  0  0  0  0
  112.3578  -79.6075  -85.9951 C   0  0  2  0  0  0  0  0  0  0  0  0
  112.5506  -78.9286  -84.7664 C   0  0  0  0  0  0  0  0  0  0  0  0
  111.8945  -77.6594  -84.5127 C   0  0  0  0  0  0  0  0  0  0  0  0
  111.0421  -77.1268  -85.5470 C   0  0  2  0  0  0  0  0  0  0  0  0
  110.4120  -75.7963  -85.2081 C   0  0  1  0  0  0  0  0  0  0  0  0
  109.6216  -75.4864  -86.3294 C   0  0  2  0  0  0  0  0  0  0  0  0
  108.9147  -74.2124  -86.1805 C   0  0  0  0  0  0  0  0  0  0  0  0
  108.0833  -73.8487  -87.2846 C   0  0  0  0  0  0  0  0  0  0  0  0
  110.6403  -75.1352  -84.0161 C   0  0  0  0  0  0  0  0  0  0  0  0
  109.6800  -74.3885  -83.2945 C   0  0  0  0  0  0  0  0  0  0  0  0
  109.8882  -73.7295  -82.0816 C   0  0  0  0  0  0  0  0  0  0  0  0
  111.1982  -73.7819  -81.4501 C   0  0  0  0  0  0  0  0  0  0  0  0
  112.1386  -74.5264  -82.2021 C   0  0  0  0  0  0  0  0  0  0  0  0
  111.9750  -75.1985  -83.4213 C   0  0  0  0  0  0  0  0  0  0  0  0
  105.6664  -74.3866  -89.3935 C   0  0  0  0  0  0  0  0  0  0  0  0
  107.5107  -73.3780  -90.6099 C   0  0  0  0  0  0  0  0  0  0  0  0
  113.2864  -81.4319  -87.6496 C   0  0  0  0  0  0  0  0  0  0  0  0
  113.4586  -81.6924  -85.2068 C   0  0  0  0  0  0  0  0  0  0  0  0
  1  2  1  6  0  0  0
  1  3  1  0  0  0  0
  1 16  1  0  0  0  0
  2 23  1  0  0  0  0
  2 24  1  0  0  0  0
  4 25  1  0  0  0  0
  4 26  1  0  0  0  0
  5  6  1  0  0  0  0
  6  3  1  1  0  0  0
  6 14  1  0  0  0  0
  7  5  1  6  0  0  0
  7  8  1  0  0  0  0
  7 12  1  0  0  0  0
  8  9  1  0  0  0  0
  9  4  1  6  0  0  0
  9 10  1  0  0  0  0
 10 11  1  0  0  0  0
 12 11  1  1  0  0  0
 12 13  1  0  0  0  0
 13 14  1  0  0  0  0
 13 17  1  1  0  0  0
 14 15  1  1  0  0  0
 15 16  1  0  0  0  0
 17 18  1  0  0  0  0
 17 22  1  0  0  0  0
 18 19  1  0  0  0  0
 19 20  1  0  0  0  0
 20 21  1  0  0  0  0
 21 22  1  0  0  0  0
M  END
>  <CHROM.1>
95.72352600,23.36649016,-143.12546058,110.32507614,-76.47762921,-86.15569356
2.97287989,-0.87381803,0.87821950

>  <Name>
ligand

>  <RI>
0

>  <Rbt.Current_Directory>
/home/itssahil/PROJECTS/Mol_Feturizer/Test_systems_manuscript/rnas/1f1t

>  <Rbt.Executable>
rbdock ($Id: //depot/dev/client3/rdock/2013.1/src/exe/rbdock.cxx#4 $)

>  <Rbt.Library>
libRbt.so (2013.1, Build901 2013/11/27)

>  <Rbt.Parameter_File>
/export/apps/rDock/src/rDock_2013.1_src/data/scripts/dock_solv.prm

>  <Rbt.Receptor>
prm/pocket_docking_4.prm

>  <SCORE>
-42.748

>  <SCORE.INTER>
-41.547

>  <SCORE.INTER.CONST>
1

>  <SCORE.INTER.POLAR>
0

>  <SCORE.INTER.ROT>
3

>  <SCORE.INTER.SOLV>
9.69275

>  <SCORE.INTER.VDW>
-36.5289

>  <SCORE.INTER.norm>
-1.59796

>  <SCORE.INTRA>
-1.26081

>  <SCORE.INTRA.DIHEDRAL>
-0.0001045

>  <SCORE.INTRA.DIHEDRAL.0>
3.60016

>  <SCORE.INTRA.POLAR>
0

>  <SCORE.INTRA.POLAR.0>
0

>  <SCORE.INTRA.REPUL>
0

>  <SCORE.INTRA.REPUL.0>
0

>  <SCORE.INTRA.SOLV>
0.00100344

>  <SCORE.INTRA.SOLV.lig_0>
-10.9882

>  <SCORE.INTRA.VDW>
-1.26126

>  <SCORE.INTRA.VDW.0>
1.84442

>  <SCORE.INTRA.norm>
-0.0484926

>  <SCORE.RESTR>
0.0598433

>  <SCORE.RESTR.CAVITY>
0.0598433

>  <SCORE.RESTR.norm>
0.00230166

>  <SCORE.SYSTEM>
0

>  <SCORE.SYSTEM.CONST>
0

>  <SCORE.SYSTEM.DIHEDRAL>
0

>  <SCORE.SYSTEM.SOLV>
0

>  <SCORE.SYSTEM.norm>
0

>  <SCORE.heavy>
26

>  <SCORE.norm>
-1.64415

>  <RMSD>
5.550

$$$$
ligand
 OpenBabel02271912153D
libRbt.so/2013.1/901 2013/11/27
 26 29  0  0  0  0  0  0  0  0999 V2000
  112.3037  -79.4528  -86.0848 C   0  0  1  0  0  0  0  0  0  0  0  0
  112.9273  -80.6789  -86.2662 N   0  0  0  0  0  0  0  0  0  0  0  0
  111.4050  -78.9348  -87.1058 C   0  0  0  0  0  0  0  0  0  0  0  0
  107.0918  -74.0782  -89.5472 N   0  0  0  0  0  0  0  0  0  0  0  0
  109.9517  -77.2091  -87.8537 O   0  0  0  0  0  0  0  0  0  0  0  0
  110.8606  -77.6920  -86.7766 C   0  0  2  0  0  0  0  0  0  0  0  0
  109.4673  -76.0687  -87.5493 C   0  0  1  0  0  0  0  0  0  0  0  0
  108.5875  -75.6896  -88.6547 C   0  0  0  0  0  0  0  0  0  0  0  0
  107.9518  -74.4086  -88.4858 C   0  0  2  0  0  0  0  0  0  0  0  0
  108.1744  -73.5885  -87.3521 C   0  0  0  0  0  0  0  0  0  0  0  0
  109.0533  -74.0271  -86.2839 C   0  0  0  0  0  0  0  0  0  0  0  0
  109.6897  -75.3137  -86.4251 C   0  0  2  0  0  0  0  0  0  0  0  0
  110.5740  -75.6996  -85.2628 C   0  0  1  0  0  0  0  0  0  0  0  0
  111.0964  -76.9554  -85.6210 C   0  0  2  0  0  0  0  0  0  0  0  0
  111.9985  -77.4971  -84.6022 C   0  0  0  0  0  0  0  0  0  0  0  0
  112.5723  -78.7679  -84.9157 C   0  0  0  0  0  0  0  0  0  0  0  0
  110.7508  -74.8984  -84.1507 C   0  0  0  0  0  0  0  0  0  0  0  0
  110.9156  -73.4938  -84.1687 C   0  0  0  0  0  0  0  0  0  0  0  0
  111.0777  -72.6674  -83.0553 C   0  0  0  0  0  0  0  0  0  0  0  0
  111.0841  -73.2502  -81.7219 C   0  0  0  0  0  0  0  0  0  0  0  0
  110.9286  -74.6572  -81.7390 C   0  0  0  0  0  0  0  0  0  0  0  0
  110.7675  -75.5240  -82.8287 C   0  0  0  0  0  0  0  0  0  0  0  0
  113.1811  -81.2323  -87.5935 C   0  0  0  0  0  0  0  0  0  0  0  0
  113.4216  -81.5778  -85.2016 C   0  0  0  0  0  0  0  0  0  0  0  0
  107.3451  -73.4229  -90.8498 C   0  0  0  0  0  0  0  0  0  0  0  0
  105.6399  -74.4480  -89.3987 C   0  0  0  0  0  0  0  0  0  0  0  0
  1  2  1  1  0  0  0
  1  3  1  0  0  0  0
  1 16  1  0  0  0  0
  2 23  1  0  0  0  0
  2 24  1  0  0  0  0
  4 25  1  0  0  0  0
  4 26  1  0  0  0  0
  5  6  1  0  0  0  0
  6  3  1  6  0  0  0
  6 14  1  0  0  0  0
  7  5  1  1  0  0  0
  7  8  1  0  0  0  0
  7 12  1  0  0  0  0
  8  9  1  0  0  0  0
  9  4  1  1  0  0  0
  9 10  1  0  0  0  0
 10 11  1  0  0  0  0
 12 11  1  6  0  0  0
 12 13  1  0  0  0  0
 13 14  1  0  0  0  0
 13 17  1  6  0  0  0
 14 15  1  6  0  0  0
 15 16  1  0  0  0  0
 17 18  1  0  0  0  0
 17 22  1  0  0  0  0
 18 19  1  0  0  0  0
 19 20  1  0  0  0  0
 20 21  1  0  0  0  0
 21 22  1  0  0  0  0
M  END
>  <CHROM.1>
25.55074625,-86.30914274,-41.35307416,110.31442556,-76.28101394,-86.25373335
0.23073059,0.88788665,-2.33615368

>  <Name>
ligand

>  <RI>
0

>  <Rbt.Current_Directory>
/home/itssahil/PROJECTS/Mol_Feturizer/Test_systems_manuscript/rnas/1f1t

>  <Rbt.Executable>
rbdock ($Id: //depot/dev/client3/rdock/2013.1/src/exe/rbdock.cxx#4 $)

>  <Rbt.Library>
libRbt.so (2013.1, Build901 2013/11/27)

>  <Rbt.Parameter_File>
/export/apps/rDock/src/rDock_2013.1_src/data/scripts/dock_solv.prm

>  <Rbt.Receptor>
prm/pocket_docking_8.prm

>  <SCORE>
-44.757

>  <SCORE.INTER>
-43.0977

>  <SCORE.INTER.CONST>
1

>  <SCORE.INTER.POLAR>
0

>  <SCORE.INTER.ROT>
3

>  <SCORE.INTER.SOLV>
9.39163

>  <SCORE.INTER.VDW>
-37.4623

>  <SCORE.INTER.norm>
-1.6576

>  <SCORE.INTRA>
-1.70718

>  <SCORE.INTRA.DIHEDRAL>
-0.000123668

>  <SCORE.INTRA.DIHEDRAL.0>
3.60016

>  <SCORE.INTRA.POLAR>
0

>  <SCORE.INTRA.POLAR.0>
0

>  <SCORE.INTRA.REPUL>
0

>  <SCORE.INTRA.REPUL.0>
0

>  <SCORE.INTRA.SOLV>
0.000520495

>  <SCORE.INTRA.SOLV.lig_0>
-10.9882

>  <SCORE.INTRA.VDW>
-1.70737

>  <SCORE.INTRA.VDW.0>
1.84442

>  <SCORE.INTRA.norm>
-0.0656606

>  <SCORE.RESTR>
0.0479151

>  <SCORE.RESTR.CAVITY>
0.0479151

>  <SCORE.RESTR.norm>
0.00184289

>  <SCORE.SYSTEM>
0

>  <SCORE.SYSTEM.CONST>
0

>  <SCORE.SYSTEM.DIHEDRAL>
0

>  <SCORE.SYSTEM.SOLV>
0

>  <SCORE.SYSTEM.norm>
0

>  <SCORE.heavy>
26

>  <SCORE.norm>
-1.72142

>  <RMSD>
5.553

$$$$
ligand
 OpenBabel02271912153D
libRbt.so/2013.1/901 2013/11/27
 26 29  0  0  0  0  0  0  0  0999 V2000
  109.6229  -75.4872  -87.3341 C   0  0  1  0  0  0  0  0  0  0  0  0
  108.8167  -74.4810  -87.8467 N   0  0  0  0  0  0  0  0  0  0  0  0
  110.0773  -75.4237  -85.9529 C   0  0  0  0  0  0  0  0  0  0  0  0
  113.5933  -78.0098  -80.5584 N   0  0  0  0  0  0  0  0  0  0  0  0
  111.3179  -76.3908  -84.1709 O   0  0  0  0  0  0  0  0  0  0  0  0
  110.8807  -76.5066  -85.5904 C   0  0  2  0  0  0  0  0  0  0  0  0
  112.0597  -77.3786  -83.8517 C   0  0  1  0  0  0  0  0  0  0  0  0
  112.4241  -77.1800  -82.4491 C   0  0  0  0  0  0  0  0  0  0  0  0
  113.2784  -78.2082  -81.9136 C   0  0  2  0  0  0  0  0  0  0  0  0
  113.7316  -79.3050  -82.6876 C   0  0  0  0  0  0  0  0  0  0  0  0
  113.3258  -79.4494  -84.0733 C   0  0  0  0  0  0  0  0  0  0  0  0
  112.4583  -78.4386  -84.6266 C   0  0  2  0  0  0  0  0  0  0  0  0
  112.0719  -78.6736  -86.0680 C   0  0  1  0  0  0  0  0  0  0  0  0
  111.2581  -77.5746  -86.3969 C   0  0  2  0  0  0  0  0  0  0  0  0
  110.7847  -77.6240  -87.7819 C   0  0  0  0  0  0  0  0  0  0  0  0
  109.9622  -76.5251  -88.1801 C   0  0  0  0  0  0  0  0  0  0  0  0
  112.4989  -79.7688  -86.7947 C   0  0  0  0  0  0  0  0  0  0  0  0
  113.0173  -80.9656  -86.2475 C   0  0  0  0  0  0  0  0  0  0  0  0
  113.4367  -82.0874  -86.9649 C   0  0  0  0  0  0  0  0  0  0  0  0
  113.3546  -82.0840  -88.4179 C   0  0  0  0  0  0  0  0  0  0  0  0
  112.8429  -80.8692  -88.9340 C   0  0  0  0  0  0  0  0  0  0  0  0
  112.4152  -79.7205  -88.2541 C   0  0  0  0  0  0  0  0  0  0  0  0
  109.2894  -73.1075  -87.9961 C   0  0  0  0  0  0  0  0  0  0  0  0
  107.4208  -74.6264  -88.3116 C   0  0  0  0  0  0  0  0  0  0  0  0
  114.8379  -77.5630  -79.8939 C   0  0  0  0  0  0  0  0  0  0  0  0
  112.5024  -78.2652  -79.5526 C   0  0  0  0  0  0  0  0  0  0  0  0
  1  2  1  1  0  0  0
  1  3  1  0  0  0  0
  1 16  1  0  0  0  0
  2 23  1  0  0  0  0
  2 24  1  0  0  0  0
  4 25  1  0  0  0  0
  4 26  1  0  0  0  0
  5  6  1  0  0  0  0
  6  3  1  6  0  0  0
  6 14  1  0  0  0  0
  7  5  1  1  0  0  0
  7  8  1  0  0  0  0
  7 12  1  0  0  0  0
  8  9  1  0  0  0  0
  9  4  1  1  0  0  0
  9 10  1  0  0  0  0
 10 11  1  0  0  0  0
 12 11  1  6  0  0  0
 12 13  1  0  0  0  0
 13 14  1  0  0  0  0
 13 17  1  6  0  0  0
 14 15  1  6  0  0  0
 15 16  1  0  0  0  0
 17 18  1  0  0  0  0
 17 22  1  0  0  0  0
 18 19  1  0  0  0  0
 19 20  1  0  0  0  0
 20 21  1  0  0  0  0
 21 22  1  0  0  0  0
M  END
>  <CHROM.1>
64.88699878,-106.09899558,18.20589382,111.77574494,-77.80021569,-85.33393463
2.62140237,0.95233896,-2.08148702

>  <Name>
ligand

>  <RI>
0

>  <Rbt.Current_Directory>
/home/itssahil/PROJECTS/Mol_Feturizer/Test_systems_manuscript/rnas/1f1t

>  <Rbt.Executable>
rbdock ($Id: //depot/dev/client3/rdock/2013.1/src/exe/rbdock.cxx#4 $)

>  <Rbt.Library>
libRbt.so (2013.1, Build901 2013/11/27)

>  <Rbt.Parameter_File>
/export/apps/rDock/src/rDock_2013.1_src/data/scripts/dock_solv.prm

>  <Rbt.Receptor>
prm/pocket_docking_8.prm

>  <SCORE>
-46.5646

>  <SCORE.INTER>
-45.3585

>  <SCORE.INTER.CONST>
1

>  <SCORE.INTER.POLAR>
0

>  <SCORE.INTER.ROT>
3

>  <SCORE.INTER.SOLV>
6.23259

>  <SCORE.INTER.VDW>
-37.9165

>  <SCORE.INTER.norm>
-1.74456

>  <SCORE.INTRA>
-1.20612

>  <SCORE.INTRA.DIHEDRAL>
-1.43175e-05

>  <SCORE.INTRA.DIHEDRAL.0>
3.60016

>  <SCORE.INTRA.POLAR>
0

>  <SCORE.INTRA.POLAR.0>
0

>  <SCORE.INTRA.REPUL>
0

>  <SCORE.INTRA.REPUL.0>
0

>  <SCORE.INTRA.SOLV>
0.00107264

>  <SCORE.INTRA.SOLV.lig_0>
-10.9882

>  <SCORE.INTRA.VDW>
-1.20665

>  <SCORE.INTRA.VDW.0>
1.84442

>  <SCORE.INTRA.norm>
-0.0463892

>  <SCORE.RESTR>
0

>  <SCORE.RESTR.CAVITY>
0

>  <SCORE.RESTR.norm>
0

>  <SCORE.SYSTEM>
0

>  <SCORE.SYSTEM.CONST>
0

>  <SCORE.SYSTEM.DIHEDRAL>
0

>  <SCORE.SYSTEM.SOLV>
0

>  <SCORE.SYSTEM.norm>
0

>  <SCORE.heavy>
26

>  <SCORE.norm>
-1.79095

>  <RMSD>
5.645

$$$$
ligand
 OpenBabel02271912153D
libRbt.so/2013.1/901 2013/11/27
 26 29  0  0  0  0  0  0  0  0999 V2000
  109.6283  -75.4558  -87.3251 C   0  0  1  0  0  0  0  0  0  0  0  0
  108.8281  -74.4447  -87.8375 N   0  0  0  0  0  0  0  0  0  0  0  0
  110.0886  -75.3919  -85.9458 C   0  0  0  0  0  0  0  0  0  0  0  0
  113.6050  -77.9903  -80.5576 N   0  0  0  0  0  0  0  0  0  0  0  0
  111.3284  -76.3637  -84.1659 O   0  0  0  0  0  0  0  0  0  0  0  0
  110.8848  -76.4800  -85.5834 C   0  0  2  0  0  0  0  0  0  0  0  0
  112.0636  -77.3564  -83.8468 C   0  0  1  0  0  0  0  0  0  0  0  0
  112.4351  -77.1567  -82.4461 C   0  0  0  0  0  0  0  0  0  0  0  0
  113.2833  -78.1900  -81.9110 C   0  0  2  0  0  0  0  0  0  0  0  0
  113.7250  -79.2926  -82.6836 C   0  0  0  0  0  0  0  0  0  0  0  0
  113.3126  -79.4377  -84.0673 C   0  0  0  0  0  0  0  0  0  0  0  0
  112.4509  -78.4217  -84.6202 C   0  0  2  0  0  0  0  0  0  0  0  0
  112.0571  -78.6577  -86.0594 C   0  0  1  0  0  0  0  0  0  0  0  0
  111.2508  -77.5532  -86.3883 C   0  0  2  0  0  0  0  0  0  0  0  0
  110.7716  -77.6028  -87.7713 C   0  0  0  0  0  0  0  0  0  0  0  0
  109.9562  -76.4987  -88.1695 C   0  0  0  0  0  0  0  0  0  0  0  0
  112.4728  -79.7582  -86.7846 C   0  0  0  0  0  0  0  0  0  0  0  0
  113.0313  -80.9376  -86.2391 C   0  0  0  0  0  0  0  0  0  0  0  0
  113.4401  -82.0647  -86.9543 C   0  0  0  0  0  0  0  0  0  0  0  0
  113.3010  -82.0869  -88.4027 C   0  0  0  0  0  0  0  0  0  0  0  0
  112.7502  -80.8889  -88.9178 C   0  0  0  0  0  0  0  0  0  0  0  0
  112.3312  -79.7356  -88.2402 C   0  0  0  0  0  0  0  0  0  0  0  0
  107.4242  -74.6613  -88.1756 C   0  0  0  0  0  0  0  0  0  0  0  0
  109.2397  -73.0498  -88.1034 C   0  0  0  0  0  0  0  0  0  0  0  0
  112.7717  -78.0189  -79.3348 C   0  0  0  0  0  0  0  0  0  0  0  0
  115.0465  -77.7094  -80.2258 C   0  0  0  0  0  0  0  0  0  0  0  0
  1  2  1  1  0  0  0
  1  3  1  0  0  0  0
  1 16  1  0  0  0  0
  2 23  1  0  0  0  0
  2 24  1  0  0  0  0
  4 25  1  0  0  0  0
  4 26  1  0  0  0  0
  5  6  1  0  0  0  0
  6  3  1  6  0  0  0
  6 14  1  0  0  0  0
  7  5  1  1  0  0  0
  7  8  1  0  0  0  0
  7 12  1  0  0  0  0
  8  9  1  0  0  0  0
  9  4  1  1  0  0  0
  9 10  1  0  0  0  0
 10 11  1  0  0  0  0
 12 11  1  6  0  0  0
 12 13  1  0  0  0  0
 13 14  1  0  0  0  0
 13 17  1  6  0  0  0
 14 15  1  6  0  0  0
 15 16  1  0  0  0  0
 17 18  1  0  0  0  0
 17 22  1  0  0  0  0
 18 19  1  0  0  0  0
 19 20  1  0  0  0  0
 20 21  1  0  0  0  0
 21 22  1  0  0  0  0
M  END
>  <CHROM.1>
-111.09465041,66.88144625,15.64473750,111.78710243,-77.78006246,-85.33124305
2.64960268,0.94882709,-2.10608300

>  <Name>
ligand

>  <RI>
0

>  <Rbt.Current_Directory>
/home/itssahil/PROJECTS/Mol_Feturizer/Test_systems_manuscript/rnas/1f1t

>  <Rbt.Executable>
rbdock ($Id: //depot/dev/client3/rdock/2013.1/src/exe/rbdock.cxx#4 $)

>  <Rbt.Library>
libRbt.so (2013.1, Build901 2013/11/27)

>  <Rbt.Parameter_File>
/export/apps/rDock/src/rDock_2013.1_src/data/scripts/dock_solv.prm

>  <Rbt.Receptor>
prm/pocket_docking_8.prm

>  <SCORE>
-46.4506

>  <SCORE.INTER>
-45.3362

>  <SCORE.INTER.CONST>
1

>  <SCORE.INTER.POLAR>
0

>  <SCORE.INTER.ROT>
3

>  <SCORE.INTER.SOLV>
6.30899

>  <SCORE.INTER.VDW>
-37.9271

>  <SCORE.INTER.norm>
-1.7437

>  <SCORE.INTRA>
-1.11438

>  <SCORE.INTRA.DIHEDRAL>
-0.000550194

>  <SCORE.INTRA.DIHEDRAL.0>
3.60016

>  <SCORE.INTRA.POLAR>
0

>  <SCORE.INTRA.POLAR.0>
0

>  <SCORE.INTRA.REPUL>
0

>  <SCORE.INTRA.REPUL.0>
0

>  <SCORE.INTRA.SOLV>
0.00110667

>  <SCORE.INTRA.SOLV.lig_0>
-10.9882

>  <SCORE.INTRA.VDW>
-1.11466

>  <SCORE.INTRA.VDW.0>
1.84442

>  <SCORE.INTRA.norm>
-0.0428609

>  <SCORE.RESTR>
0

>  <SCORE.RESTR.CAVITY>
0

>  <SCORE.RESTR.norm>
0

>  <SCORE.SYSTEM>
0

>  <SCORE.SYSTEM.CONST>
0

>  <SCORE.SYSTEM.DIHEDRAL>
0

>  <SCORE.SYSTEM.SOLV>
0

>  <SCORE.SYSTEM.norm>
0

>  <SCORE.heavy>
26

>  <SCORE.norm>
-1.78656

>  <RMSD>
5.647

$$$$
ligand
 OpenBabel02271912153D
libRbt.so/2013.1/901 2013/11/27
 26 29  0  0  0  0  0  0  0  0999 V2000
  109.6904  -75.4702  -87.2534 C   0  0  1  0  0  0  0  0  0  0  0  0
  108.8832  -74.4717  -87.7795 N   0  0  0  0  0  0  0  0  0  0  0  0
  110.1702  -75.3720  -85.8828 C   0  0  0  0  0  0  0  0  0  0  0  0
  113.7621  -77.8368  -80.4816 N   0  0  0  0  0  0  0  0  0  0  0  0
  111.4349  -76.2997  -84.0969 O   0  0  0  0  0  0  0  0  0  0  0  0
  110.9712  -76.4513  -85.5046 C   0  0  2  0  0  0  0  0  0  0  0  0
  112.1744  -77.2846  -83.7634 C   0  0  1  0  0  0  0  0  0  0  0  0
  112.5657  -77.0500  -82.3736 C   0  0  0  0  0  0  0  0  0  0  0  0
  113.4212  -78.0702  -81.8249 C   0  0  2  0  0  0  0  0  0  0  0  0
  113.8515  -79.1920  -82.5758 C   0  0  0  0  0  0  0  0  0  0  0  0
  113.4195  -79.3715  -83.9495 C   0  0  0  0  0  0  0  0  0  0  0  0
  112.5503  -78.3691  -84.5153 C   0  0  2  0  0  0  0  0  0  0  0  0
  112.1361  -78.6409  -85.9424 C   0  0  1  0  0  0  0  0  0  0  0  0
  111.3254  -77.5445  -86.2874 C   0  0  2  0  0  0  0  0  0  0  0  0
  110.8266  -77.6284  -87.6618 C   0  0  0  0  0  0  0  0  0  0  0  0
  110.0060  -76.5341  -88.0759 C   0  0  0  0  0  0  0  0  0  0  0  0
  112.5411  -79.7595  -86.6456 C   0  0  0  0  0  0  0  0  0  0  0  0
  112.6356  -79.8543  -88.0536 C   0  0  0  0  0  0  0  0  0  0  0  0
  113.0590  -80.9693  -88.7792 C   0  0  0  0  0  0  0  0  0  0  0  0
  113.4555  -82.1786  -88.0735 C   0  0  0  0  0  0  0  0  0  0  0  0
  113.3388  -82.0550  -86.6682 C   0  0  0  0  0  0  0  0  0  0  0  0
  112.9163  -80.9609  -85.9005 C   0  0  0  0  0  0  0  0  0  0  0  0
  109.3613  -73.1048  -87.9671 C   0  0  0  0  0  0  0  0  0  0  0  0
  107.4809  -74.6202  -88.2235 C   0  0  0  0  0  0  0  0  0  0  0  0
  112.9322  -77.7349  -79.2605 C   0  0  0  0  0  0  0  0  0  0  0  0
  115.2235  -77.6689  -80.1605 C   0  0  0  0  0  0  0  0  0  0  0  0
  1  2  1  1  0  0  0
  1  3  1  0  0  0  0
  1 16  1  0  0  0  0
  2 23  1  0  0  0  0
  2 24  1  0  0  0  0
  4 25  1  0  0  0  0
  4 26  1  0  0  0  0
  5  6  1  0  0  0  0
  6  3  1  6  0  0  0
  6 14  1  0  0  0  0
  7  5  1  1  0  0  0
  7  8  1  0  0  0  0
  7 12  1  0  0  0  0
  8  9  1  0  0  0  0
  9  4  1  1  0  0  0
  9 10  1  0  0  0  0
 10 11  1  0  0  0  0
 12 11  1  6  0  0  0
 12 13  1  0  0  0  0
 13 14  1  0  0  0  0
 13 17  1  6  0  0  0
 14 15  1  6  0  0  0
 15 16  1  0  0  0  0
 17 18  1  0  0  0  0
 17 22  1  0  0  0  0
 18 19  1  0  0  0  0
 19 20  1  0  0  0  0
 20 21  1  0  0  0  0
 21 22  1  0  0  0  0
M  END
>  <CHROM.1>
64.45294214,61.63773359,-154.79699080,111.89028556,-77.74999030,-85.21709773
2.68393176,0.94413612,-2.14320234

>  <Name>
ligand

>  <RI>
0

>  <Rbt.Current_Directory>
/home/itssahil/PROJECTS/Mol_Feturizer/Test_systems_manuscript/rnas/1f1t

>  <Rbt.Executable>
rbdock ($Id: //depot/dev/client3/rdock/2013.1/src/exe/rbdock.cxx#4 $)

>  <Rbt.Library>
libRbt.so (2013.1, Build901 2013/11/27)

>  <Rbt.Parameter_File>
/export/apps/rDock/src/rDock_2013.1_src/data/scripts/dock_solv.prm

>  <Rbt.Receptor>
prm/pocket_docking_6.prm

>  <SCORE>
-45.4178

>  <SCORE.INTER>
-44.4809

>  <SCORE.INTER.CONST>
1

>  <SCORE.INTER.POLAR>
0

>  <SCORE.INTER.ROT>
3

>  <SCORE.INTER.SOLV>
6.16366

>  <SCORE.INTER.VDW>
-37.3085

>  <SCORE.INTER.norm>
-1.7108

>  <SCORE.INTRA>
-0.936911

>  <SCORE.INTRA.DIHEDRAL>
-0.000406813

>  <SCORE.INTRA.DIHEDRAL.0>
3.60016

>  <SCORE.INTRA.POLAR>
0

>  <SCORE.INTRA.POLAR.0>
0

>  <SCORE.INTRA.REPUL>
0

>  <SCORE.INTRA.REPUL.0>
0

>  <SCORE.INTRA.SOLV>
0.00109745

>  <SCORE.INTRA.SOLV.lig_0>
-10.9882

>  <SCORE.INTRA.VDW>
-0.937257

>  <SCORE.INTRA.VDW.0>
1.84442

>  <SCORE.INTRA.norm>
-0.0360351

>  <SCORE.RESTR>
0

>  <SCORE.RESTR.CAVITY>
0

>  <SCORE.RESTR.norm>
0

>  <SCORE.SYSTEM>
0

>  <SCORE.SYSTEM.CONST>
0

>  <SCORE.SYSTEM.DIHEDRAL>
0

>  <SCORE.SYSTEM.SOLV>
0

>  <SCORE.SYSTEM.norm>
0

>  <SCORE.heavy>
26

>  <SCORE.norm>
-1.74684

>  <RMSD>
5.649

$$$$
ligand
 OpenBabel02271912153D
libRbt.so/2013.1/901 2013/11/27
 26 29  0  0  0  0  0  0  0  0999 V2000
  109.6554  -75.4812  -87.3126 C   0  0  1  0  0  0  0  0  0  0  0  0
  108.8538  -74.4726  -87.8276 N   0  0  0  0  0  0  0  0  0  0  0  0
  110.1140  -75.4140  -85.9329 C   0  0  0  0  0  0  0  0  0  0  0  0
  113.6293  -77.9961  -80.5360 N   0  0  0  0  0  0  0  0  0  0  0  0
  111.3537  -76.3803  -84.1498 O   0  0  0  0  0  0  0  0  0  0  0  0
  110.9119  -76.5000  -85.5676 C   0  0  2  0  0  0  0  0  0  0  0  0
  112.0905  -77.3710  -83.8281 C   0  0  1  0  0  0  0  0  0  0  0  0
  112.4599  -77.1681  -82.4274 C   0  0  0  0  0  0  0  0  0  0  0  0
  113.3095  -78.1988  -81.8895 C   0  0  2  0  0  0  0  0  0  0  0  0
  113.7542  -79.3018  -82.6597 C   0  0  0  0  0  0  0  0  0  0  0  0
  113.3438  -79.4502  -84.0436 C   0  0  0  0  0  0  0  0  0  0  0  0
  112.4807  -78.4369  -84.5992 C   0  0  2  0  0  0  0  0  0  0  0  0
  112.0890  -78.6762  -86.0384 C   0  0  1  0  0  0  0  0  0  0  0  0
  111.2809  -77.5739  -86.3702 C   0  0  2  0  0  0  0  0  0  0  0  0
  110.8034  -77.6268  -87.7537 C   0  0  0  0  0  0  0  0  0  0  0  0
  109.9864  -76.5250  -88.1547 C   0  0  0  0  0  0  0  0  0  0  0  0
  112.5077  -79.7772  -86.7612 C   0  0  0  0  0  0  0  0  0  0  0  0
  113.0185  -80.9753  -86.2099 C   0  0  0  0  0  0  0  0  0  0  0  0
  113.4292  -82.1028  -86.9233 C   0  0  0  0  0  0  0  0  0  0  0  0
  113.3454  -82.1047  -88.3761 C   0  0  0  0  0  0  0  0  0  0  0  0
  112.8415  -80.8885  -88.8966 C   0  0  0  0  0  0  0  0  0  0  0  0
  112.4225  -79.7341  -88.2207 C   0  0  0  0  0  0  0  0  0  0  0  0
  107.4512  -74.6931  -88.1686 C   0  0  0  0  0  0  0  0  0  0  0  0
  109.2625  -73.0769  -88.0940 C   0  0  0  0  0  0  0  0  0  0  0  0
  112.7888  -77.9899  -79.3179 C   0  0  0  0  0  0  0  0  0  0  0  0
  115.0764  -77.7532  -80.1985 C   0  0  0  0  0  0  0  0  0  0  0  0
  1  2  1  1  0  0  0
  1  3  1  0  0  0  0
  1 16  1  0  0  0  0
  2 23  1  0  0  0  0
  2 24  1  0  0  0  0
  4 25  1  0  0  0  0
  4 26  1  0  0  0  0
  5  6  1  0  0  0  0
  6  3  1  6  0  0  0
  6 14  1  0  0  0  0
  7  5  1  1  0  0  0
  7  8  1  0  0  0  0
  7 12  1  0  0  0  0
  8  9  1  0  0  0  0
  9  4  1  1  0  0  0
  9 10  1  0  0  0  0
 10 11  1  0  0  0  0
 12 11  1  6  0  0  0
 12 13  1  0  0  0  0
 13 14  1  0  0  0  0
 13 17  1  6  0  0  0
 14 15  1  6  0  0  0
 15 16  1  0  0  0  0
 17 18  1  0  0  0  0
 17 22  1  0  0  0  0
 18 19  1  0  0  0  0
 19 20  1  0  0  0  0
 20 21  1  0  0  0  0
 21 22  1  0  0  0  0
M  END
>  <CHROM.1>
-111.17773081,65.07330958,18.31456162,111.81686440,-77.79787956,-85.31225893
2.64526050,0.94799088,-2.10331612

>  <Name>
ligand

>  <RI>
0

>  <Rbt.Current_Directory>
/home/itssahil/PROJECTS/Mol_Feturizer/Test_systems_manuscript/rnas/1f1t

>  <Rbt.Executable>
rbdock ($Id: //depot/dev/client3/rdock/2013.1/src/exe/rbdock.cxx#4 $)

>  <Rbt.Library>
libRbt.so (2013.1, Build901 2013/11/27)

>  <Rbt.Parameter_File>
/export/apps/rDock/src/rDock_2013.1_src/data/scripts/dock_solv.prm

>  <Rbt.Receptor>
prm/pocket_docking_5.prm

>  <SCORE>
-46.3467

>  <SCORE.INTER>
-45.082

>  <SCORE.INTER.CONST>
1

>  <SCORE.INTER.POLAR>
0

>  <SCORE.INTER.ROT>
3

>  <SCORE.INTER.SOLV>
6.31643

>  <SCORE.INTER.VDW>
-37.7602

>  <SCORE.INTER.norm>
-1.73392

>  <SCORE.INTRA>
-1.26465

>  <SCORE.INTRA.DIHEDRAL>
-0.000542278

>  <SCORE.INTRA.DIHEDRAL.0>
3.60016

>  <SCORE.INTRA.POLAR>
0

>  <SCORE.INTRA.POLAR.0>
0

>  <SCORE.INTRA.REPUL>
0

>  <SCORE.INTRA.REPUL.0>
0

>  <SCORE.INTRA.SOLV>
0.00110571

>  <SCORE.INTRA.SOLV.lig_0>
-10.9882

>  <SCORE.INTRA.VDW>
-1.26493

>  <SCORE.INTRA.VDW.0>
1.84442

>  <SCORE.INTRA.norm>
-0.0486403

>  <SCORE.RESTR>
0

>  <SCORE.RESTR.CAVITY>
0

>  <SCORE.RESTR.norm>
0

>  <SCORE.SYSTEM>
0

>  <SCORE.SYSTEM.CONST>
0

>  <SCORE.SYSTEM.DIHEDRAL>
0

>  <SCORE.SYSTEM.SOLV>
0

>  <SCORE.SYSTEM.norm>
0

>  <SCORE.heavy>
26

>  <SCORE.norm>
-1.78256

>  <RMSD>
5.650

$$$$
ligand
 OpenBabel02271912153D
libRbt.so/2013.1/901 2013/11/27
 26 29  0  0  0  0  0  0  0  0999 V2000
  113.4126  -78.0858  -81.8588 C   0  0  1  0  0  0  0  0  0  0  0  0
  113.8401  -77.9635  -80.5444 N   0  0  0  0  0  0  0  0  0  0  0  0
  112.5695  -77.0566  -82.4490 C   0  0  0  0  0  0  0  0  0  0  0  0
  108.9728  -74.4190  -87.7648 N   0  0  0  0  0  0  0  0  0  0  0  0
  111.3609  -76.2445  -84.3277 O   0  0  0  0  0  0  0  0  0  0  0  0
  112.2230  -77.3263  -83.7744 C   0  0  2  0  0  0  0  0  0  0  0  0
  111.0407  -76.5044  -85.5351 C   0  0  1  0  0  0  0  0  0  0  0  0
  110.2114  -75.3877  -85.9878 C   0  0  0  0  0  0  0  0  0  0  0  0
  109.7449  -75.5154  -87.3441 C   0  0  2  0  0  0  0  0  0  0  0  0
  110.0557  -76.6334  -88.1571 C   0  0  0  0  0  0  0  0  0  0  0  0
  110.8925  -77.7054  -87.6508 C   0  0  0  0  0  0  0  0  0  0  0  0
  111.3831  -77.5916  -86.2992 C   0  0  2  0  0  0  0  0  0  0  0  0
  112.2583  -78.7410  -85.8578 C   0  0  1  0  0  0  0  0  0  0  0  0
  112.5966  -78.4338  -84.5275 C   0  0  2  0  0  0  0  0  0  0  0  0
  113.4512  -79.4550  -83.9178 C   0  0  0  0  0  0  0  0  0  0  0  0
  113.8184  -79.2048  -82.5595 C   0  0  0  0  0  0  0  0  0  0  0  0
  112.5762  -79.8060  -86.6791 C   0  0  0  0  0  0  0  0  0  0  0  0
  112.5177  -79.7989  -88.0922 C   0  0  0  0  0  0  0  0  0  0  0  0
  112.8514  -80.8587  -88.9374 C   0  0  0  0  0  0  0  0  0  0  0  0
  113.3118  -82.1160  -88.3673 C   0  0  0  0  0  0  0  0  0  0  0  0
  113.3481  -82.0942  -86.9523 C   0  0  0  0  0  0  0  0  0  0  0  0
  113.0197  -81.0582  -86.0670 C   0  0  0  0  0  0  0  0  0  0  0  0
  115.2385  -77.7195  -80.2020 C   0  0  0  0  0  0  0  0  0  0  0  0
  112.9934  -78.0461  -79.3352 C   0  0  0  0  0  0  0  0  0  0  0  0
  109.3336  -73.0099  -88.0378 C   0  0  0  0  0  0  0  0  0  0  0  0
  107.5085  -74.6632  -88.0165 C   0  0  0  0  0  0  0  0  0  0  0  0
  1  2  1  6  0  0  0
  1  3  1  0  0  0  0
  1 16  1  0  0  0  0
  2 23  1  0  0  0  0
  2 24  1  0  0  0  0
  4 25  1  0  0  0  0
  4 26  1  0  0  0  0
  5  6  1  0  0  0  0
  6  3  1  1  0  0  0
  6 14  1  0  0  0  0
  7  5  1  6  0  0  0
  7  8  1  0  0  0  0
  7 12  1  0  0  0  0
  8  9  1  0  0  0  0
  9  4  1  6  0  0  0
  9 10  1  0  0  0  0
 10 11  1  0  0  0  0
 12 11  1  1  0  0  0
 12 13  1  0  0  0  0
 13 14  1  0  0  0  0
 13 17  1  1  0  0  0
 14 15  1  1  0  0  0
 15 16  1  0  0  0  0
 17 18  1  0  0  0  0
 17 22  1  0  0  0  0
 18 19  1  0  0  0  0
 19 20  1  0  0  0  0
 20 21  1  0  0  0  0
 21 22  1  0  0  0  0
M  END
>  <CHROM.1>
-111.23513125,68.78580820,21.07416784,111.90546382,-77.78675147,-85.27567702
0.45689169,-0.95125028,0.99702265

>  <Name>
ligand

>  <RI>
0

>  <Rbt.Current_Directory>
/home/itssahil/PROJECTS/Mol_Feturizer/Test_systems_manuscript/rnas/1f1t

>  <Rbt.Executable>
rbdock ($Id: //depot/dev/client3/rdock/2013.1/src/exe/rbdock.cxx#4 $)

>  <Rbt.Library>
libRbt.so (2013.1, Build901 2013/11/27)

>  <Rbt.Parameter_File>
/export/apps/rDock/src/rDock_2013.1_src/data/scripts/dock_solv.prm

>  <Rbt.Receptor>
prm/pocket_docking_7.prm

>  <SCORE>
-46.184

>  <SCORE.INTER>
-44.6477

>  <SCORE.INTER.CONST>
1

>  <SCORE.INTER.POLAR>
0

>  <SCORE.INTER.ROT>
3

>  <SCORE.INTER.SOLV>
6.58077

>  <SCORE.INTER.VDW>
-37.5588

>  <SCORE.INTER.norm>
-1.71722

>  <SCORE.INTRA>
-1.53624

>  <SCORE.INTRA.DIHEDRAL>
-0.000503123

>  <SCORE.INTRA.DIHEDRAL.0>
3.60016

>  <SCORE.INTRA.POLAR>
0

>  <SCORE.INTRA.POLAR.0>
0

>  <SCORE.INTRA.REPUL>
0

>  <SCORE.INTRA.REPUL.0>
0

>  <SCORE.INTRA.SOLV>
0.00110739

>  <SCORE.INTRA.SOLV.lig_0>
-10.9882

>  <SCORE.INTRA.VDW>
-1.53654

>  <SCORE.INTRA.VDW.0>
1.84442

>  <SCORE.INTRA.norm>
-0.059086

>  <SCORE.RESTR>
0

>  <SCORE.RESTR.CAVITY>
0

>  <SCORE.RESTR.norm>
0

>  <SCORE.SYSTEM>
0

>  <SCORE.SYSTEM.CONST>
0

>  <SCORE.SYSTEM.DIHEDRAL>
0

>  <SCORE.SYSTEM.SOLV>
0

>  <SCORE.SYSTEM.norm>
0

>  <SCORE.heavy>
26

>  <SCORE.norm>
-1.77631

>  <RMSD>
5.660

$$$$
ligand
 OpenBabel02271912153D
libRbt.so/2013.1/901 2013/11/27
 26 29  0  0  0  0  0  0  0  0999 V2000
  109.6625  -75.4786  -87.2595 C   0  0  1  0  0  0  0  0  0  0  0  0
  108.8547  -74.4665  -87.7577 N   0  0  0  0  0  0  0  0  0  0  0  0
  110.1401  -75.4195  -85.8859 C   0  0  0  0  0  0  0  0  0  0  0  0
  113.7275  -78.0346  -80.5527 N   0  0  0  0  0  0  0  0  0  0  0  0
  111.4035  -76.3967  -84.1256 O   0  0  0  0  0  0  0  0  0  0  0  0
  110.9421  -76.5081  -85.5378 C   0  0  2  0  0  0  0  0  0  0  0  0
  112.1439  -77.3898  -83.8196 C   0  0  1  0  0  0  0  0  0  0  0  0
  112.5328  -77.1950  -82.4230 C   0  0  0  0  0  0  0  0  0  0  0  0
  113.3889  -78.2294  -81.9027 C   0  0  2  0  0  0  0  0  0  0  0  0
  113.8220  -79.3284  -82.6851 C   0  0  0  0  0  0  0  0  0  0  0  0
  113.3923  -79.4687  -84.0641 C   0  0  0  0  0  0  0  0  0  0  0  0
  112.5226  -78.4516  -84.6020 C   0  0  2  0  0  0  0  0  0  0  0  0
  112.1108  -78.6825  -86.0370 C   0  0  1  0  0  0  0  0  0  0  0  0
  111.2991  -77.5778  -86.3513 C   0  0  2  0  0  0  0  0  0  0  0  0
  110.8025  -77.6225  -87.7284 C   0  0  0  0  0  0  0  0  0  0  0  0
  109.9809  -76.5179  -88.1119 C   0  0  0  0  0  0  0  0  0  0  0  0
  112.5185  -79.7798  -86.7717 C   0  0  0  0  0  0  0  0  0  0  0  0
  112.9988  -80.9960  -86.2328 C   0  0  0  0  0  0  0  0  0  0  0  0
  113.3981  -82.1197  -86.9586 C   0  0  0  0  0  0  0  0  0  0  0  0
  113.3344  -82.0970  -88.4123 C   0  0  0  0  0  0  0  0  0  0  0  0
  112.8608  -80.8633  -88.9199 C   0  0  0  0  0  0  0  0  0  0  0  0
  112.4544  -79.7119  -88.2313 C   0  0  0  0  0  0  0  0  0  0  0  0
  107.4416  -74.6780  -88.0592 C   0  0  0  0  0  0  0  0  0  0  0  0
  109.2664  -73.0754  -88.0424 C   0  0  0  0  0  0  0  0  0  0  0  0
  112.9034  -78.0317  -79.3234 C   0  0  0  0  0  0  0  0  0  0  0  0
  115.1798  -77.7983  -80.2334 C   0  0  0  0  0  0  0  0  0  0  0  0
  1  2  1  1  0  0  0
  1  3  1  0  0  0  0
  1 16  1  0  0  0  0
  2 23  1  0  0  0  0
  2 24  1  0  0  0  0
  4 25  1  0  0  0  0
  4 26  1  0  0  0  0
  5  6  1  0  0  0  0
  6  3  1  6  0  0  0
  6 14  1  0  0  0  0
  7  5  1  1  0  0  0
  7  8  1  0  0  0  0
  7 12  1  0  0  0  0
  8  9  1  0  0  0  0
  9  4  1  1  0  0  0
  9 10  1  0  0  0  0
 10 11  1  0  0  0  0
 12 11  1  6  0  0  0
 12 13  1  0  0  0  0
 13 14  1  0  0  0  0
 13 17  1  6  0  0  0
 14 15  1  6  0  0  0
 15 16  1  0  0  0  0
 17 18  1  0  0  0  0
 17 22  1  0  0  0  0
 18 19  1  0  0  0  0
 19 20  1  0  0  0  0
 20 21  1  0  0  0  0
 21 22  1  0  0  0  0
M  END
>  <CHROM.1>
-110.11601811,64.91844633,20.29765748,111.84969605,-77.80794808,-85.30228952
2.66530474,0.94192131,-2.11326064

>  <Name>
ligand

>  <RI>
0

>  <Rbt.Current_Directory>
/home/itssahil/PROJECTS/Mol_Feturizer/Test_systems_manuscript/rnas/1f1t

>  <Rbt.Executable>
rbdock ($Id: //depot/dev/client3/rdock/2013.1/src/exe/rbdock.cxx#4 $)

>  <Rbt.Library>
libRbt.so (2013.1, Build901 2013/11/27)

>  <Rbt.Parameter_File>
/export/apps/rDock/src/rDock_2013.1_src/data/scripts/dock_solv.prm

>  <Rbt.Receptor>
prm/pocket_docking_6.prm

>  <SCORE>
-46.2603

>  <SCORE.INTER>
-44.828

>  <SCORE.INTER.CONST>
1

>  <SCORE.INTER.POLAR>
0

>  <SCORE.INTER.ROT>
3

>  <SCORE.INTER.SOLV>
6.47274

>  <SCORE.INTER.VDW>
-37.6429

>  <SCORE.INTER.norm>
-1.72415

>  <SCORE.INTRA>
-1.43626

>  <SCORE.INTRA.DIHEDRAL>
-0.000529312

>  <SCORE.INTRA.DIHEDRAL.0>
3.60016

>  <SCORE.INTRA.POLAR>
0

>  <SCORE.INTRA.POLAR.0>
0

>  <SCORE.INTRA.REPUL>
0

>  <SCORE.INTRA.REPUL.0>
0

>  <SCORE.INTRA.SOLV>
0.0011064

>  <SCORE.INTRA.SOLV.lig_0>
-10.9882

>  <SCORE.INTRA.VDW>
-1.43654

>  <SCORE.INTRA.VDW.0>
1.84442

>  <SCORE.INTRA.norm>
-0.0552406

>  <SCORE.RESTR>
0.00394817

>  <SCORE.RESTR.CAVITY>
0.00394817

>  <SCORE.RESTR.norm>
0.000151853

>  <SCORE.SYSTEM>
0

>  <SCORE.SYSTEM.CONST>
0

>  <SCORE.SYSTEM.DIHEDRAL>
0

>  <SCORE.SYSTEM.SOLV>
0

>  <SCORE.SYSTEM.norm>
0

>  <SCORE.heavy>
26

>  <SCORE.norm>
-1.77924

>  <RMSD>
5.663

$$$$
ligand
 OpenBabel02271912153D
libRbt.so/2013.1/901 2013/11/27
 26 29  0  0  0  0  0  0  0  0999 V2000
  109.6547  -75.4718  -87.3201 C   0  0  1  0  0  0  0  0  0  0  0  0
  108.8507  -74.4585  -87.8221 N   0  0  0  0  0  0  0  0  0  0  0  0
  110.1237  -75.4148  -85.9435 C   0  0  0  0  0  0  0  0  0  0  0  0
  113.6760  -78.0393  -80.5914 N   0  0  0  0  0  0  0  0  0  0  0  0
  111.3754  -76.3952  -84.1766 O   0  0  0  0  0  0  0  0  0  0  0  0
  110.9228  -76.5044  -85.5918 C   0  0  2  0  0  0  0  0  0  0  0  0
  112.1132  -77.3891  -83.8673 C   0  0  1  0  0  0  0  0  0  0  0  0
  112.4935  -77.1965  -82.4681 C   0  0  0  0  0  0  0  0  0  0  0  0
  113.3457  -78.2321  -81.9438 C   0  0  2  0  0  0  0  0  0  0  0  0
  113.7829  -79.3304  -82.7249 C   0  0  0  0  0  0  0  0  0  0  0  0
  113.3618  -79.4686  -84.1067 C   0  0  0  0  0  0  0  0  0  0  0  0
  112.4961  -78.4502  -84.6487 C   0  0  2  0  0  0  0  0  0  0  0  0
  112.0931  -78.6789  -86.0866 C   0  0  1  0  0  0  0  0  0  0  0  0
  111.2841  -77.5732  -86.4045 C   0  0  2  0  0  0  0  0  0  0  0  0
  110.7961  -77.6159  -87.7848 C   0  0  0  0  0  0  0  0  0  0  0  0
  109.9777  -76.5101  -88.1719 C   0  0  0  0  0  0  0  0  0  0  0  0
  112.5047  -79.7755  -86.8201 C   0  0  0  0  0  0  0  0  0  0  0  0
  113.0104  -80.9812  -86.2807 C   0  0  0  0  0  0  0  0  0  0  0  0
  113.4140  -82.1042  -87.0051 C   0  0  0  0  0  0  0  0  0  0  0  0
  113.3272  -82.0926  -88.4577 C   0  0  0  0  0  0  0  0  0  0  0  0
  112.8285  -80.8692  -88.9661 C   0  0  0  0  0  0  0  0  0  0  0  0
  112.4168  -79.7188  -88.2790 C   0  0  0  0  0  0  0  0  0  0  0  0
  107.4441  -74.6735  -88.1499 C   0  0  0  0  0  0  0  0  0  0  0  0
  109.2605  -73.0626  -88.0857 C   0  0  0  0  0  0  0  0  0  0  0  0
  112.8501  -78.0718  -79.3638 C   0  0  0  0  0  0  0  0  0  0  0  0
  115.1200  -77.7626  -80.2672 C   0  0  0  0  0  0  0  0  0  0  0  0
  1  2  1  1  0  0  0
  1  3  1  0  0  0  0
  1 16  1  0  0  0  0
  2 23  1  0  0  0  0
  2 24  1  0  0  0  0
  4 25  1  0  0  0  0
  4 26  1  0  0  0  0
  5  6  1  0  0  0  0
  6  3  1  6  0  0  0
  6 14  1  0  0  0  0
  7  5  1  1  0  0  0
  7  8  1  0  0  0  0
  7 12  1  0  0  0  0
  8  9  1  0  0  0  0
  9  4  1  1  0  0  0
  9 10  1  0  0  0  0
 10 11  1  0  0  0  0
 12 11  1  6  0  0  0
 12 13  1  0  0  0  0
 13 14  1  0  0  0  0
 13 17  1  6  0  0  0
 14 15  1  6  0  0  0
 15 16  1  0  0  0  0
 17 18  1  0  0  0  0
 17 22  1  0  0  0  0
 18 19  1  0  0  0  0
 19 20  1  0  0  0  0
 20 21  1  0  0  0  0
 21 22  1  0  0  0  0
M  END
>  <CHROM.1>
-110.97695228,66.73544498,18.71248605,111.82778182,-77.80498845,-85.35236706
2.65747274,0.94573739,-2.10676134

>  <Name>
ligand

>  <RI>
0

>  <Rbt.Current_Directory>
/home/itssahil/PROJECTS/Mol_Feturizer/Test_systems_manuscript/rnas/1f1t

>  <Rbt.Executable>
rbdock ($Id: //depot/dev/client3/rdock/2013.1/src/exe/rbdock.cxx#4 $)

>  <Rbt.Library>
libRbt.so (2013.1, Build901 2013/11/27)

>  <Rbt.Parameter_File>
/export/apps/rDock/src/rDock_2013.1_src/data/scripts/dock_solv.prm

>  <Rbt.Receptor>
prm/pocket_docking_8.prm

>  <SCORE>
-46.4511

>  <SCORE.INTER>
-45.1253

>  <SCORE.INTER.CONST>
1

>  <SCORE.INTER.POLAR>
0

>  <SCORE.INTER.ROT>
3

>  <SCORE.INTER.SOLV>
6.47733

>  <SCORE.INTER.VDW>
-37.8426

>  <SCORE.INTER.norm>
-1.73559

>  <SCORE.INTRA>
-1.32582

>  <SCORE.INTRA.DIHEDRAL>
-0.000531868

>  <SCORE.INTRA.DIHEDRAL.0>
3.60016

>  <SCORE.INTRA.POLAR>
0

>  <SCORE.INTRA.POLAR.0>
0

>  <SCORE.INTRA.REPUL>
0

>  <SCORE.INTRA.REPUL.0>
0

>  <SCORE.INTRA.SOLV>
0.00110669

>  <SCORE.INTRA.SOLV.lig_0>
-10.9882

>  <SCORE.INTRA.VDW>
-1.32611

>  <SCORE.INTRA.VDW.0>
1.84442

>  <SCORE.INTRA.norm>
-0.0509931

>  <SCORE.RESTR>
0

>  <SCORE.RESTR.CAVITY>
0

>  <SCORE.RESTR.norm>
0

>  <SCORE.SYSTEM>
0

>  <SCORE.SYSTEM.CONST>
0

>  <SCORE.SYSTEM.DIHEDRAL>
0

>  <SCORE.SYSTEM.SOLV>
0

>  <SCORE.SYSTEM.norm>
0

>  <SCORE.heavy>
26

>  <SCORE.norm>
-1.78658

>  <RMSD>
5.663

$$$$
ligand
 OpenBabel02271912153D
libRbt.so/2013.1/901 2013/11/27
 26 29  0  0  0  0  0  0  0  0999 V2000
  109.6507  -75.4626  -87.3298 C   0  0  1  0  0  0  0  0  0  0  0  0
  108.8490  -74.4459  -87.8286 N   0  0  0  0  0  0  0  0  0  0  0  0
  110.1285  -75.4056  -85.9562 C   0  0  0  0  0  0  0  0  0  0  0  0
  113.6996  -78.0393  -80.6213 N   0  0  0  0  0  0  0  0  0  0  0  0
  111.3858  -76.3895  -84.1952 O   0  0  0  0  0  0  0  0  0  0  0  0
  110.9239  -76.4988  -85.6074 C   0  0  2  0  0  0  0  0  0  0  0  0
  112.1202  -77.3868  -83.8887 C   0  0  1  0  0  0  0  0  0  0  0  0
  112.5102  -77.1936  -82.4922 C   0  0  0  0  0  0  0  0  0  0  0  0
  113.3600  -78.2329  -81.9712 C   0  0  2  0  0  0  0  0  0  0  0  0
  113.7865  -79.3349  -82.7530 C   0  0  0  0  0  0  0  0  0  0  0  0
  113.3562  -79.4733  -84.1319 C   0  0  0  0  0  0  0  0  0  0  0  0
  112.4926  -78.4513  -84.6704 C   0  0  2  0  0  0  0  0  0  0  0  0
  112.0796  -78.6805  -86.1053 C   0  0  1  0  0  0  0  0  0  0  0  0
  111.2745  -77.5710  -86.4204 C   0  0  2  0  0  0  0  0  0  0  0  0
  110.7778  -77.6136  -87.7975 C   0  0  0  0  0  0  0  0  0  0  0  0
  109.9629  -76.5042  -88.1817 C   0  0  0  0  0  0  0  0  0  0  0  0
  112.4807  -79.7806  -86.8394 C   0  0  0  0  0  0  0  0  0  0  0  0
  113.0428  -80.9634  -86.3052 C   0  0  0  0  0  0  0  0  0  0  0  0
  113.4371  -82.0900  -87.0292 C   0  0  0  0  0  0  0  0  0  0  0  0
  113.2770  -82.1078  -88.4755 C   0  0  0  0  0  0  0  0  0  0  0  0
  112.7232  -80.9065  -88.9794 C   0  0  0  0  0  0  0  0  0  0  0  0
  112.3181  -79.7535  -88.2928 C   0  0  0  0  0  0  0  0  0  0  0  0
  107.4424  -74.6572  -88.1591 C   0  0  0  0  0  0  0  0  0  0  0  0
  109.2615  -73.0497  -88.0862 C   0  0  0  0  0  0  0  0  0  0  0  0
  112.8787  -78.0512  -79.3899 C   0  0  0  0  0  0  0  0  0  0  0  0
  115.1498  -77.7869  -80.3046 C   0  0  0  0  0  0  0  0  0  0  0  0
  1  2  1  1  0  0  0
  1  3  1  0  0  0  0
  1 16  1  0  0  0  0
  2 23  1  0  0  0  0
  2 24  1  0  0  0  0
  4 25  1  0  0  0  0
  4 26  1  0  0  0  0
  5  6  1  0  0  0  0
  6  3  1  6  0  0  0
  6 14  1  0  0  0  0
  7  5  1  1  0  0  0
  7  8  1  0  0  0  0
  7 12  1  0  0  0  0
  8  9  1  0  0  0  0
  9  4  1  1  0  0  0
  9 10  1  0  0  0  0
 10 11  1  0  0  0  0
 12 11  1  6  0  0  0
 12 13  1  0  0  0  0
 13 14  1  0  0  0  0
 13 17  1  6  0  0  0
 14 15  1  6  0  0  0
 15 16  1  0  0  0  0
 17 18  1  0  0  0  0
 17 22  1  0  0  0  0
 18 19  1  0  0  0  0
 19 20  1  0  0  0  0
 20 21  1  0  0  0  0
 21 22  1  0  0  0  0
M  END
>  <CHROM.1>
-111.55523640,65.99209990,15.50867681,111.82297062,-77.80423794,-85.37095988
2.67246117,0.94631865,-2.12111863

>  <Name>
ligand

>  <RI>
0

>  <Rbt.Current_Directory>
/home/itssahil/PROJECTS/Mol_Feturizer/Test_systems_manuscript/rnas/1f1t

>  <Rbt.Executable>
rbdock ($Id: //depot/dev/client3/rdock/2013.1/src/exe/rbdock.cxx#4 $)

>  <Rbt.Library>
libRbt.so (2013.1, Build901 2013/11/27)

>  <Rbt.Parameter_File>
/export/apps/rDock/src/rDock_2013.1_src/data/scripts/dock_solv.prm

>  <Rbt.Receptor>
prm/pocket_docking_5.prm

>  <SCORE>
-46.3791

>  <SCORE.INTER>
-45.2972

>  <SCORE.INTER.CONST>
1

>  <SCORE.INTER.POLAR>
0

>  <SCORE.INTER.ROT>
3

>  <SCORE.INTER.SOLV>
6.54183

>  <SCORE.INTER.VDW>
-37.9788

>  <SCORE.INTER.norm>
-1.7422

>  <SCORE.INTRA>
-1.08192

>  <SCORE.INTRA.DIHEDRAL>
-0.000555575

>  <SCORE.INTRA.DIHEDRAL.0>
3.60016

>  <SCORE.INTRA.POLAR>
0

>  <SCORE.INTRA.POLAR.0>
0

>  <SCORE.INTRA.REPUL>
0

>  <SCORE.INTRA.REPUL.0>
0

>  <SCORE.INTRA.SOLV>
0.0011059

>  <SCORE.INTRA.SOLV.lig_0>
-10.9882

>  <SCORE.INTRA.VDW>
-1.08219

>  <SCORE.INTRA.VDW.0>
1.84442

>  <SCORE.INTRA.norm>
-0.0416122

>  <SCORE.RESTR>
0

>  <SCORE.RESTR.CAVITY>
0

>  <SCORE.RESTR.norm>
0

>  <SCORE.SYSTEM>
0

>  <SCORE.SYSTEM.CONST>
0

>  <SCORE.SYSTEM.DIHEDRAL>
0

>  <SCORE.SYSTEM.SOLV>
0

>  <SCORE.SYSTEM.norm>
0

>  <SCORE.heavy>
26

>  <SCORE.norm>
-1.78381

>  <RMSD>
5.667

$$$$
ligand
 OpenBabel02271912153D
libRbt.so/2013.1/901 2013/11/27
 26 29  0  0  0  0  0  0  0  0999 V2000
  109.6389  -75.5099  -87.2493 C   0  0  1  0  0  0  0  0  0  0  0  0
  108.8231  -74.5019  -87.7429 N   0  0  0  0  0  0  0  0  0  0  0  0
  110.1194  -75.4511  -85.8767 C   0  0  0  0  0  0  0  0  0  0  0  0
  113.7373  -78.0557  -80.5589 N   0  0  0  0  0  0  0  0  0  0  0  0
  111.3936  -76.4243  -84.1219 O   0  0  0  0  0  0  0  0  0  0  0  0
  110.9296  -76.5351  -85.5333 C   0  0  2  0  0  0  0  0  0  0  0  0
  112.1414  -77.4131  -83.8203 C   0  0  1  0  0  0  0  0  0  0  0  0
  112.5324  -77.2194  -82.4242 C   0  0  0  0  0  0  0  0  0  0  0  0
  113.3967  -78.2493  -81.9086 C   0  0  2  0  0  0  0  0  0  0  0  0
  113.8353  -79.3433  -82.6949 C   0  0  0  0  0  0  0  0  0  0  0  0
  113.4033  -79.4829  -84.0732 C   0  0  0  0  0  0  0  0  0  0  0  0
  112.5253  -78.4704  -84.6064 C   0  0  2  0  0  0  0  0  0  0  0  0
  112.1117  -78.7003  -86.0410 C   0  0  1  0  0  0  0  0  0  0  0  0
  111.2918  -77.6003  -86.3505 C   0  0  2  0  0  0  0  0  0  0  0  0
  110.7922  -77.6449  -87.7265 C   0  0  0  0  0  0  0  0  0  0  0  0
  109.9622  -76.5447  -88.1052 C   0  0  0  0  0  0  0  0  0  0  0  0
  112.5250  -79.7929  -86.7795 C   0  0  0  0  0  0  0  0  0  0  0  0
  113.0318  -81.0005  -86.2455 C   0  0  0  0  0  0  0  0  0  0  0  0
  113.4372  -82.1196  -86.9749 C   0  0  0  0  0  0  0  0  0  0  0  0
  113.3513  -82.1012  -88.4275 C   0  0  0  0  0  0  0  0  0  0  0  0
  112.8515  -80.8759  -88.9304 C   0  0  0  0  0  0  0  0  0  0  0  0
  112.4380  -79.7294  -88.2382 C   0  0  0  0  0  0  0  0  0  0  0  0
  107.3983  -74.7065  -87.9890 C   0  0  0  0  0  0  0  0  0  0  0  0
  109.2370  -73.1221  -88.0755 C   0  0  0  0  0  0  0  0  0  0  0  0
  112.9254  -78.1112  -79.3228 C   0  0  0  0  0  0  0  0  0  0  0  0
  115.1785  -77.7500  -80.2486 C   0  0  0  0  0  0  0  0  0  0  0  0
  1  2  1  1  0  0  0
  1  3  1  0  0  0  0
  1 16  1  0  0  0  0
  2 23  1  0  0  0  0
  2 24  1  0  0  0  0
  4 25  1  0  0  0  0
  4 26  1  0  0  0  0
  5  6  1  0  0  0  0
  6  3  1  6  0  0  0
  6 14  1  0  0  0  0
  7  5  1  1  0  0  0
  7  8  1  0  0  0  0
  7 12  1  0  0  0  0
  8  9  1  0  0  0  0
  9  4  1  1  0  0  0
  9 10  1  0  0  0  0
 10 11  1  0  0  0  0
 12 11  1  6  0  0  0
 12 13  1  0  0  0  0
 13 14  1  0  0  0  0
 13 17  1  6  0  0  0
 14 15  1  6  0  0  0
 15 16  1  0  0  0  0
 17 18  1  0  0  0  0
 17 22  1  0  0  0  0
 18 19  1  0  0  0  0
 19 20  1  0  0  0  0
 20 21  1  0  0  0  0
 21 22  1  0  0  0  0
M  END
>  <CHROM.1>
-107.51161546,67.55153690,19.38604792,111.84628620,-77.82901241,-85.30331349
2.66265961,0.93506060,-2.10881347

>  <Name>
ligand

>  <RI>
0

>  <Rbt.Current_Directory>
/home/itssahil/PROJECTS/Mol_Feturizer/Test_systems_manuscript/rnas/1f1t

>  <Rbt.Executable>
rbdock ($Id: //depot/dev/client3/rdock/2013.1/src/exe/rbdock.cxx#4 $)

>  <Rbt.Library>
libRbt.so (2013.1, Build901 2013/11/27)

>  <Rbt.Parameter_File>
/export/apps/rDock/src/rDock_2013.1_src/data/scripts/dock_solv.prm

>  <Rbt.Receptor>
prm/pocket_docking_6.prm

>  <SCORE>
-46.3016

>  <SCORE.INTER>
-44.8514

>  <SCORE.INTER.CONST>
1

>  <SCORE.INTER.POLAR>
0

>  <SCORE.INTER.ROT>
3

>  <SCORE.INTER.SOLV>
6.49736

>  <SCORE.INTER.VDW>
-37.6667

>  <SCORE.INTER.norm>
-1.72505

>  <SCORE.INTRA>
-1.45015

>  <SCORE.INTRA.DIHEDRAL>
-0.000522108

>  <SCORE.INTRA.DIHEDRAL.0>
3.60016

>  <SCORE.INTRA.POLAR>
0

>  <SCORE.INTRA.POLAR.0>
0

>  <SCORE.INTRA.REPUL>
0

>  <SCORE.INTRA.REPUL.0>
0

>  <SCORE.INTRA.SOLV>
0.00110945

>  <SCORE.INTRA.SOLV.lig_0>
-10.9882

>  <SCORE.INTRA.VDW>
-1.45045

>  <SCORE.INTRA.VDW.0>
1.84442

>  <SCORE.INTRA.norm>
-0.0557751

>  <SCORE.RESTR>
0

>  <SCORE.RESTR.CAVITY>
0

>  <SCORE.RESTR.norm>
0

>  <SCORE.SYSTEM>
0

>  <SCORE.SYSTEM.CONST>
0

>  <SCORE.SYSTEM.DIHEDRAL>
0

>  <SCORE.SYSTEM.SOLV>
0

>  <SCORE.SYSTEM.norm>
0

>  <SCORE.heavy>
26

>  <SCORE.norm>
-1.78083

>  <RMSD>
5.670

$$$$
ligand
 OpenBabel02271912153D
libRbt.so/2013.1/901 2013/11/27
 26 29  0  0  0  0  0  0  0  0999 V2000
  110.6780  -71.6044  -82.4317 C   0  0  1  0  0  0  0  0  0  0  0  0
  110.2922  -70.2827  -82.6029 N   0  0  0  0  0  0  0  0  0  0  0  0
  110.7750  -72.4896  -83.5830 C   0  0  0  0  0  0  0  0  0  0  0  0
  112.1250  -78.6699  -86.4347 N   0  0  0  0  0  0  0  0  0  0  0  0
  111.2536  -74.6471  -84.4581 O   0  0  0  0  0  0  0  0  0  0  0  0
  111.1718  -73.7850  -83.2458 C   0  0  2  0  0  0  0  0  0  0  0  0
  111.6064  -75.8310  -84.1393 C   0  0  1  0  0  0  0  0  0  0  0  0
  111.6681  -76.5898  -85.3884 C   0  0  0  0  0  0  0  0  0  0  0  0
  112.0470  -77.9687  -85.2192 C   0  0  2  0  0  0  0  0  0  0  0  0
  112.3214  -78.5356  -83.9500 C   0  0  0  0  0  0  0  0  0  0  0  0
  112.2514  -77.7255  -82.7481 C   0  0  0  0  0  0  0  0  0  0  0  0
  111.8878  -76.3375  -82.8954 C   0  0  2  0  0  0  0  0  0  0  0  0
  111.8541  -75.5637  -81.5985 C   0  0  1  0  0  0  0  0  0  0  0  0
  111.4624  -74.2661  -81.9740 C   0  0  2  0  0  0  0  0  0  0  0  0
  111.3656  -73.3579  -80.8291 C   0  0  0  0  0  0  0  0  0  0  0  0
  110.9582  -72.0253  -81.1463 C   0  0  0  0  0  0  0  0  0  0  0  0
  112.1581  -76.1290  -80.3745 C   0  0  0  0  0  0  0  0  0  0  0  0
  111.5639  -75.7807  -79.1392 C   0  0  0  0  0  0  0  0  0  0  0  0
  111.8459  -76.3527  -77.8973 C   0  0  0  0  0  0  0  0  0  0  0  0
  112.8360  -77.4150  -77.8028 C   0  0  0  0  0  0  0  0  0  0  0  0
  113.4195  -77.7318  -79.0531 C   0  0  0  0  0  0  0  0  0  0  0  0
  113.1707  -77.1830  -80.3187 C   0  0  0  0  0  0  0  0  0  0  0  0
  111.1207  -69.3186  -83.3215 C   0  0  0  0  0  0  0  0  0  0  0  0
  109.0390  -69.6649  -82.1195 C   0  0  0  0  0  0  0  0  0  0  0  0
  111.6469  -78.3352  -87.7948 C   0  0  0  0  0  0  0  0  0  0  0  0
  112.8258  -80.0024  -86.4181 C   0  0  0  0  0  0  0  0  0  0  0  0
  1  2  1  6  0  0  0
  1  3  1  0  0  0  0
  1 16  1  0  0  0  0
  2 23  1  0  0  0  0
  2 24  1  0  0  0  0
  4 25  1  0  0  0  0
  4 26  1  0  0  0  0
  5  6  1  0  0  0  0
  6  3  1  1  0  0  0
  6 14  1  0  0  0  0
  7  5  1  6  0  0  0
  7  8  1  0  0  0  0
  7 12  1  0  0  0  0
  8  9  1  0  0  0  0
  9  4  1  6  0  0  0
  9 10  1  0  0  0  0
 10 11  1  0  0  0  0
 12 11  1  1  0  0  0
 12 13  1  0  0  0  0
 13 14  1  0  0  0  0
 13 17  1  1  0  0  0
 14 15  1  1  0  0  0
 15 16  1  0  0  0  0
 17 18  1  0  0  0  0
 17 22  1  0  0  0  0
 18 19  1  0  0  0  0
 19 20  1  0  0  0  0
 20 21  1  0  0  0  0
 21 22  1  0  0  0  0
M  END
>  <CHROM.1>
-66.55417369,-13.59083841,-146.44018631,111.63809981,-75.23949095,-82.70367594
2.39748057,-1.27494573,1.20192689

>  <Name>
ligand

>  <RI>
0

>  <Rbt.Current_Directory>
/home/itssahil/PROJECTS/Mol_Feturizer/Test_systems_manuscript/rnas/1f1t

>  <Rbt.Executable>
rbdock ($Id: //depot/dev/client3/rdock/2013.1/src/exe/rbdock.cxx#4 $)

>  <Rbt.Library>
libRbt.so (2013.1, Build901 2013/11/27)

>  <Rbt.Parameter_File>
/export/apps/rDock/src/rDock_2013.1_src/data/scripts/dock_solv.prm

>  <Rbt.Receptor>
prm/pocket_docking_5.prm

>  <SCORE>
-26.2115

>  <SCORE.INTER>
-29.1189

>  <SCORE.INTER.CONST>
1

>  <SCORE.INTER.POLAR>
0

>  <SCORE.INTER.ROT>
3

>  <SCORE.INTER.SOLV>
11.765

>  <SCORE.INTER.VDW>
-28.9342

>  <SCORE.INTER.norm>
-1.11996

>  <SCORE.INTRA>
-0.548242

>  <SCORE.INTRA.DIHEDRAL>
5.13118e-05

>  <SCORE.INTRA.DIHEDRAL.0>
3.60016

>  <SCORE.INTRA.POLAR>
0

>  <SCORE.INTRA.POLAR.0>
0

>  <SCORE.INTRA.REPUL>
0

>  <SCORE.INTRA.REPUL.0>
0

>  <SCORE.INTRA.SOLV>
0.000881533

>  <SCORE.INTRA.SOLV.lig_0>
-10.9882

>  <SCORE.INTRA.VDW>
-0.548709

>  <SCORE.INTRA.VDW.0>
1.84442

>  <SCORE.INTRA.norm>
-0.0210862

>  <SCORE.RESTR>
3.45557

>  <SCORE.RESTR.CAVITY>
3.45557

>  <SCORE.RESTR.norm>
0.132907

>  <SCORE.SYSTEM>
0

>  <SCORE.SYSTEM.CONST>
0

>  <SCORE.SYSTEM.DIHEDRAL>
0

>  <SCORE.SYSTEM.SOLV>
0

>  <SCORE.SYSTEM.norm>
0

>  <SCORE.heavy>
26

>  <SCORE.norm>
-1.00814

>  <RMSD>
5.674

$$$$
ligand
 OpenBabel02271912153D
libRbt.so/2013.1/901 2013/11/27
 26 29  0  0  0  0  0  0  0  0999 V2000
  113.5883  -78.0552  -81.8925 C   0  0  1  0  0  0  0  0  0  0  0  0
  114.0647  -77.9204  -80.5963 N   0  0  0  0  0  0  0  0  0  0  0  0
  112.7686  -77.0057  -82.4799 C   0  0  0  0  0  0  0  0  0  0  0  0
  109.1049  -74.3444  -87.7378 N   0  0  0  0  0  0  0  0  0  0  0  0
  111.5313  -76.1877  -84.3372 O   0  0  0  0  0  0  0  0  0  0  0  0
  112.3666  -77.2914  -83.7861 C   0  0  2  0  0  0  0  0  0  0  0  0
  111.1600  -76.4620  -85.5267 C   0  0  1  0  0  0  0  0  0  0  0  0
  110.3623  -75.3224  -85.9792 C   0  0  0  0  0  0  0  0  0  0  0  0
  109.8453  -75.4620  -87.3159 C   0  0  2  0  0  0  0  0  0  0  0  0
  110.0823  -76.6106  -88.1109 C   0  0  0  0  0  0  0  0  0  0  0  0
  110.8911  -77.7046  -87.6061 C   0  0  0  0  0  0  0  0  0  0  0  0
  111.4315  -77.5799  -86.2746 C   0  0  2  0  0  0  0  0  0  0  0  0
  112.2733  -78.7543  -85.8340 C   0  0  1  0  0  0  0  0  0  0  0  0
  112.6688  -78.4308  -84.5236 C   0  0  2  0  0  0  0  0  0  0  0  0
  113.5010  -79.4723  -83.9173 C   0  0  0  0  0  0  0  0  0  0  0  0
  113.9240  -79.2062  -82.5784 C   0  0  0  0  0  0  0  0  0  0  0  0
  112.5193  -79.8505  -86.6389 C   0  0  0  0  0  0  0  0  0  0  0  0
  112.2686  -79.9210  -88.0291 C   0  0  0  0  0  0  0  0  0  0  0  0
  112.5268  -81.0127  -88.8600 C   0  0  0  0  0  0  0  0  0  0  0  0
  113.1111  -82.2215  -88.2988 C   0  0  0  0  0  0  0  0  0  0  0  0
  113.3390  -82.1228  -86.9051 C   0  0  0  0  0  0  0  0  0  0  0  0
  113.0924  -81.0526  -86.0341 C   0  0  0  0  0  0  0  0  0  0  0  0
  115.4823  -77.7235  -80.3065 C   0  0  0  0  0  0  0  0  0  0  0  0
  113.2573  -77.9429  -79.3581 C   0  0  0  0  0  0  0  0  0  0  0  0
  109.4887  -72.9287  -87.9347 C   0  0  0  0  0  0  0  0  0  0  0  0
  107.6565  -74.5674  -88.0831 C   0  0  0  0  0  0  0  0  0  0  0  0
  1  2  1  6  0  0  0
  1  3  1  0  0  0  0
  1 16  1  0  0  0  0
  2 23  1  0  0  0  0
  2 24  1  0  0  0  0
  4 25  1  0  0  0  0
  4 26  1  0  0  0  0
  5  6  1  0  0  0  0
  6  3  1  1  0  0  0
  6 14  1  0  0  0  0
  7  5  1  6  0  0  0
  7  8  1  0  0  0  0
  7 12  1  0  0  0  0
  8  9  1  0  0  0  0
  9  4  1  6  0  0  0
  9 10  1  0  0  0  0
 10 11  1  0  0  0  0
 12 11  1  1  0  0  0
 12 13  1  0  0  0  0
 13 14  1  0  0  0  0
 13 17  1  1  0  0  0
 14 15  1  1  0  0  0
 15 16  1  0  0  0  0
 17 18  1  0  0  0  0
 17 22  1  0  0  0  0
 18 19  1  0  0  0  0
 19 20  1  0  0  0  0
 20 21  1  0  0  0  0
 21 22  1  0  0  0  0
M  END
>  <CHROM.1>
-111.06642347,62.13209998,13.43324187,111.98120817,-77.77253020,-85.26601234
0.36728344,-0.96319575,0.89710728

>  <Name>
ligand

>  <RI>
0

>  <Rbt.Current_Directory>
/home/itssahil/PROJECTS/Mol_Feturizer/Test_systems_manuscript/rnas/1f1t

>  <Rbt.Executable>
rbdock ($Id: //depot/dev/client3/rdock/2013.1/src/exe/rbdock.cxx#4 $)

>  <Rbt.Library>
libRbt.so (2013.1, Build901 2013/11/27)

>  <Rbt.Parameter_File>
/export/apps/rDock/src/rDock_2013.1_src/data/scripts/dock_solv.prm

>  <Rbt.Receptor>
prm/pocket_docking_7.prm

>  <SCORE>
-46.2872

>  <SCORE.INTER>
-45.387

>  <SCORE.INTER.CONST>
1

>  <SCORE.INTER.POLAR>
0

>  <SCORE.INTER.ROT>
3

>  <SCORE.INTER.SOLV>
6.97032

>  <SCORE.INTER.VDW>
-38.1814

>  <SCORE.INTER.norm>
-1.74565

>  <SCORE.INTRA>
-0.900262

>  <SCORE.INTRA.DIHEDRAL>
-0.000579139

>  <SCORE.INTRA.DIHEDRAL.0>
3.60016

>  <SCORE.INTRA.POLAR>
0

>  <SCORE.INTRA.POLAR.0>
0

>  <SCORE.INTRA.REPUL>
0

>  <SCORE.INTRA.REPUL.0>
0

>  <SCORE.INTRA.SOLV>
0.00110413

>  <SCORE.INTRA.SOLV.lig_0>
-10.9882

>  <SCORE.INTRA.VDW>
-0.900524

>  <SCORE.INTRA.VDW.0>
1.84442

>  <SCORE.INTRA.norm>
-0.0346255

>  <SCORE.RESTR>
0

>  <SCORE.RESTR.CAVITY>
0

>  <SCORE.RESTR.norm>
0

>  <SCORE.SYSTEM>
0

>  <SCORE.SYSTEM.CONST>
0

>  <SCORE.SYSTEM.DIHEDRAL>
0

>  <SCORE.SYSTEM.SOLV>
0

>  <SCORE.SYSTEM.norm>
0

>  <SCORE.heavy>
26

>  <SCORE.norm>
-1.78028

>  <RMSD>
5.678

$$$$
ligand
 OpenBabel02271912153D
libRbt.so/2013.1/901 2013/11/27
 26 29  0  0  0  0  0  0  0  0999 V2000
  109.6746  -75.4858  -87.2737 C   0  0  1  0  0  0  0  0  0  0  0  0
  108.8629  -74.4656  -87.7486 N   0  0  0  0  0  0  0  0  0  0  0  0
  110.1713  -75.4443  -85.9062 C   0  0  0  0  0  0  0  0  0  0  0  0
  113.8242  -78.1324  -80.6544 N   0  0  0  0  0  0  0  0  0  0  0  0
  111.4559  -76.4458  -84.1752 O   0  0  0  0  0  0  0  0  0  0  0  0
  110.9749  -76.5391  -85.5821 C   0  0  2  0  0  0  0  0  0  0  0  0
  112.1977  -77.4444  -83.8913 C   0  0  1  0  0  0  0  0  0  0  0  0
  112.6063  -77.2674  -82.4980 C   0  0  0  0  0  0  0  0  0  0  0  0
  113.4666  -78.3102  -82.0019 C   0  0  2  0  0  0  0  0  0  0  0  0
  113.8857  -79.4009  -82.8032 C   0  0  0  0  0  0  0  0  0  0  0  0
  113.4368  -79.5236  -84.1777 C   0  0  0  0  0  0  0  0  0  0  0  0
  112.5625  -78.4979  -84.6914 C   0  0  2  0  0  0  0  0  0  0  0  0
  112.1305  -78.7105  -86.1232 C   0  0  1  0  0  0  0  0  0  0  0  0
  111.3176  -77.5999  -86.4132 C   0  0  2  0  0  0  0  0  0  0  0  0
  110.8020  -77.6270  -87.7838 C   0  0  0  0  0  0  0  0  0  0  0  0
  109.9783  -76.5156  -88.1427 C   0  0  0  0  0  0  0  0  0  0  0  0
  112.5249  -79.8000  -86.8765 C   0  0  0  0  0  0  0  0  0  0  0  0
  112.5801  -79.8447  -88.2891 C   0  0  0  0  0  0  0  0  0  0  0  0
  112.9922  -80.9295  -89.0650 C   0  0  0  0  0  0  0  0  0  0  0  0
  113.4190  -82.1589  -88.4137 C   0  0  0  0  0  0  0  0  0  0  0  0
  113.3413  -82.0856  -87.0021 C   0  0  0  0  0  0  0  0  0  0  0  0
  112.9315  -81.0230  -86.1849 C   0  0  0  0  0  0  0  0  0  0  0  0
  107.4434  -74.6675  -88.0251 C   0  0  0  0  0  0  0  0  0  0  0  0
  109.2764  -73.0744  -88.0300 C   0  0  0  0  0  0  0  0  0  0  0  0
  113.0238  -78.1808  -79.4106 C   0  0  0  0  0  0  0  0  0  0  0  0
  115.2742  -77.8567  -80.3567 C   0  0  0  0  0  0  0  0  0  0  0  0
  1  2  1  1  0  0  0
  1  3  1  0  0  0  0
  1 16  1  0  0  0  0
  2 23  1  0  0  0  0
  2 24  1  0  0  0  0
  4 25  1  0  0  0  0
  4 26  1  0  0  0  0
  5  6  1  0  0  0  0
  6  3  1  6  0  0  0
  6 14  1  0  0  0  0
  7  5  1  1  0  0  0
  7  8  1  0  0  0  0
  7 12  1  0  0  0  0
  8  9  1  0  0  0  0
  9  4  1  1  0  0  0
  9 10  1  0  0  0  0
 10 11  1  0  0  0  0
 12 11  1  6  0  0  0
 12 13  1  0  0  0  0
 13 14  1  0  0  0  0
 13 17  1  6  0  0  0
 14 15  1  6  0  0  0
 15 16  1  0  0  0  0
 17 18  1  0  0  0  0
 17 22  1  0  0  0  0
 18 19  1  0  0  0  0
 19 20  1  0  0  0  0
 20 21  1  0  0  0  0
 21 22  1  0  0  0  0
M  END
>  <CHROM.1>
-109.72472694,66.96578733,-155.95120108,111.89176224,-77.85112105,-85.35883368
2.70132211,0.93762507,-2.11676477

>  <Name>
ligand

>  <RI>
0

>  <Rbt.Current_Directory>
/home/itssahil/PROJECTS/Mol_Feturizer/Test_systems_manuscript/rnas/1f1t

>  <Rbt.Executable>
rbdock ($Id: //depot/dev/client3/rdock/2013.1/src/exe/rbdock.cxx#4 $)

>  <Rbt.Library>
libRbt.so (2013.1, Build901 2013/11/27)

>  <Rbt.Parameter_File>
/export/apps/rDock/src/rDock_2013.1_src/data/scripts/dock_solv.prm

>  <Rbt.Receptor>
prm/pocket_docking_7.prm

>  <SCORE>
-45.3608

>  <SCORE.INTER>
-44.4482

>  <SCORE.INTER.CONST>
1

>  <SCORE.INTER.POLAR>
0

>  <SCORE.INTER.ROT>
3

>  <SCORE.INTER.SOLV>
6.80478

>  <SCORE.INTER.VDW>
-37.5004

>  <SCORE.INTER.norm>
-1.70955

>  <SCORE.INTRA>
-0.912558

>  <SCORE.INTRA.DIHEDRAL>
-0.000392432

>  <SCORE.INTRA.DIHEDRAL.0>
3.60016

>  <SCORE.INTRA.POLAR>
0

>  <SCORE.INTRA.POLAR.0>
0

>  <SCORE.INTRA.REPUL>
0

>  <SCORE.INTRA.REPUL.0>
0

>  <SCORE.INTRA.SOLV>
0.0011077

>  <SCORE.INTRA.SOLV.lig_0>
-10.9882

>  <SCORE.INTRA.VDW>
-0.912916

>  <SCORE.INTRA.VDW.0>
1.84442

>  <SCORE.INTRA.norm>
-0.0350984

>  <SCORE.RESTR>
0

>  <SCORE.RESTR.CAVITY>
0

>  <SCORE.RESTR.norm>
0

>  <SCORE.SYSTEM>
0

>  <SCORE.SYSTEM.CONST>
0

>  <SCORE.SYSTEM.DIHEDRAL>
0

>  <SCORE.SYSTEM.SOLV>
0

>  <SCORE.SYSTEM.norm>
0

>  <SCORE.heavy>
26

>  <SCORE.norm>
-1.74465

>  <RMSD>
5.709

$$$$
