@<TRIPOS>MOLECULE
1f1t_rdock.pdb
 821 919 0 0 0
SMALL
GASTEIGER

@<TRIPOS>ATOM
      1  C5'      127.4310  -77.3240  -96.0810 C.3     1  G1          0.2141
      2  O5'      127.4950  -76.0300  -95.4770 O.3     1  G1         -0.2176
      3  C4'      128.3540  -78.3030  -95.3940 C.3     1  G1          0.1802
      4  O4'      129.6220  -77.6500  -95.1510 O.3     1  G1         -0.3306
      5  C3'      127.9240  -78.7370  -94.0060 C.3     1  G1          0.1861
      6  O3'      126.9520  -79.7700  -94.0250 O.3     1  G1         -0.3112
      7  C2'      129.2310  -79.1910  -93.3950 C.3     1  G1          0.2309
      8  O2'      129.5790  -80.4820  -93.8690 O.3     1  G1         -0.2156
      9  C1'      130.1660  -78.0940  -93.9180 C.3     1  G1          0.2408
     10  N1       131.9370  -76.1180  -89.5440 N.ar    1  G1         -0.1709
     11  C2       131.9490  -77.4170  -89.9660 C.ar    1  G1          0.2606
     12  N2       132.5280  -78.2920  -89.1290 N.pl3   1  G1         -0.0859
     13  N3       131.4290  -77.8330  -91.1160 N.ar    1  G1         -0.1918
     14  C4       130.8830  -76.8190  -91.8200 C.ar    1  G1          0.1723
     15  C5       130.8120  -75.4860  -91.4810 C.ar    1  G1          0.1748
     16  C6       131.3820  -75.0590  -90.2420 C.ar    1  G1          0.3023
     17  O6       131.4350  -73.9270  -89.7670 O.2     1  G1         -0.2633
     18  N7       130.1690  -74.7600  -92.4740 N.ar    1  G1         -0.2173
     19  C8       129.8720  -75.6450  -93.3850 C.ar    1  G1          0.1817
     20  N9       130.2920  -76.9110  -93.0670 N.ar    1  G1         -0.2693
     21  P        125.9190  -79.8880  -92.7940 P.3     2  G2          0.2141
     22  C5'      127.5300  -81.6050  -91.7690 C.3     2  G2          0.1812
     23  O5'      126.8790  -80.3700  -91.6310 O.3     2  G2         -0.3114
     24  C4'      128.4220  -81.8210  -90.6060 C.3     2  G2          0.1773
     25  O4'      129.4950  -80.8280  -90.6540 O.3     2  G2         -0.3307
     26  C3'      127.7740  -81.5390  -89.2680 C.3     2  G2          0.1860
     27  O3'      126.8000  -82.4930  -88.8380 O.3     2  G2         -0.3112
     28  C2'      129.0170  -81.3660  -88.4150 C.3     2  G2          0.2309
     29  O2'      129.7010  -82.6020  -88.2410 O.3     2  G2         -0.2156
     30  C1'      129.8130  -80.4230  -89.3290 C.3     2  G2          0.2408
     31  N1       130.3610  -76.2090  -86.6300 N.ar    2  G2         -0.1709
     32  C2       130.9930  -77.4210  -86.5300 C.ar    2  G2          0.2606
     33  N2       131.9140  -77.5290  -85.5670 N.pl3   2  G2         -0.0859
     34  N3       130.7480  -78.4500  -87.3110 N.ar    2  G2         -0.1918
     35  C4       129.8080  -78.1760  -88.2220 C.ar    2  G2          0.1723
     36  C5       129.1140  -77.0010  -88.4280 C.ar    2  G2          0.1748
     37  C6       129.3940  -75.8880  -87.5660 C.ar    2  G2          0.3023
     38  O6       128.9070  -74.7530  -87.5670 O.2     2  G2         -0.2633
     39  N7       128.2340  -77.1290  -89.5020 N.ar    2  G2         -0.2173
     40  C8       128.4120  -78.3600  -89.9100 C.ar    2  G2          0.1817
     41  N9       129.3590  -79.0430  -89.1700 N.ar    2  G2         -0.2693
     42  OP1      124.9650  -81.0130  -93.1190 O.2     2  G2         -0.5172
     43  OP2      125.3850  -78.5290  -92.4200 O.co2   2  G2         -0.4373
     44  P        125.3150  -81.9550  -88.4200 P.3     3  A3          0.2141
     45  C5'      126.1190  -82.6850  -86.0660 C.3     3  A3          0.1812
     46  O5'      125.4250  -81.7320  -86.8450 O.3     3  A3         -0.3114
     47  C4'      126.9180  -81.9980  -84.9990 C.3     3  A3          0.1773
     48  O4'      127.7560  -80.9850  -85.6100 O.3     3  A3         -0.3307
     49  C3'      126.0950  -81.2120  -84.0050 C.3     3  A3          0.1860
     50  O3'      125.5130  -82.0650  -83.0380 O.3     3  A3         -0.3112
     51  C2'      127.1310  -80.2550  -83.4410 C.3     3  A3          0.2309
     52  O2'      127.9990  -80.8430  -82.4940 O.3     3  A3         -0.2156
     53  C1'      127.9000  -79.8950  -84.7130 C.3     3  A3          0.2408
     54  N1       127.4240  -74.8410  -84.3240 N.ar    3  A3         -0.2040
     55  C2       128.0600  -75.7560  -83.5880 C.ar    3  A3          0.2016
     56  N3       128.1500  -77.0650  -83.7660 N.ar    3  A3         -0.2048
     57  C4       127.4760  -77.4370  -84.8610 C.ar    3  A3          0.1692
     58  C5       126.7740  -76.6260  -85.7260 C.ar    3  A3          0.1518
     59  C6       126.7540  -75.2490  -85.4280 C.ar    3  A3          0.1919
     60  N6       126.1090  -74.3330  -86.1670 N.pl3   3  A3         -0.1054
     61  N7       126.2030  -77.3770  -86.7480 N.ar    3  A3         -0.2193
     62  C8       126.5680  -78.6030  -86.4750 C.ar    3  A3          0.1816
     63  N9       127.3350  -78.7070  -85.3430 N.ar    3  A3         -0.2693
     64  OP1      124.2780  -83.0090  -88.7110 O.3     3  A3         -0.4373
     65  OP2      125.1580  -80.5910  -89.0130 O.co2   3  A3         -0.5172
     66  P        123.9450  -81.9380  -82.7460 P.3     4  5BU4        0.2141
     67  C5'      124.6760  -81.0860  -80.4320 C.3     4  5BU4        0.1812
     68  O5'      123.8850  -80.8670  -81.5790 O.3     4  5BU4       -0.3114
     69  C4'      124.9280  -79.8050  -79.6990 C.3     4  5BU4        0.1773
     70  O4'      125.7710  -78.9250  -80.4730 O.3     4  5BU4       -0.3307
     71  C3'      123.7290  -78.9450  -79.3670 C.3     4  5BU4        0.1860
     72  O3'      123.0340  -79.4590  -78.2370 O.3     4  5BU4       -0.3112
     73  C2'      124.4180  -77.6330  -79.0210 C.3     4  5BU4        0.2309
     74  O2'      124.9490  -77.7000  -77.7060 O.3     4  5BU4       -0.2156
     75  C1'      125.5240  -77.5830  -80.0880 C.3     4  5BU4        0.2420
     76  N1       125.0660  -76.8670  -81.2810 N.ar    4  5BU4       -0.2529
     77  C2       125.1460  -75.4950  -81.2940 C.ar    4  5BU4        0.3546
     78  O2       125.6570  -74.8580  -80.3820 O.2     4  5BU4       -0.2443
     79  N3       124.6030  -74.9020  -82.4090 N.ar    4  5BU4       -0.1526
     80  C4       124.0160  -75.5460  -83.4830 C.ar    4  5BU4        0.2907
     81  O4       123.5010  -74.9070  -84.4020 O.2     4  5BU4       -0.2645
     82  C5       124.0270  -76.9410  -83.3970 C.ar    4  5BU4        0.1098
     83  C6       124.5360  -77.5490  -82.3380 C.ar    4  5BU4        0.0935
     84  OP1      123.5160  -83.2450  -82.2110 O.co2   4  5BU4       -0.5172
     85  OP2      123.2920  -81.3790  -83.9580 O.3     4  5BU4       -0.4373
     86 BR        123.3910  -77.9420  -84.8430 Br      4  5BU4       -0.0424
     87  P        121.5060  -79.0100  -77.9720 P.3     5  C5          0.2141
     88  C5'      122.2870  -76.9780  -76.5520 C.3     5  C5          0.1812
     89  O5'      121.6270  -77.4420  -77.7130 O.3     5  C5         -0.3114
     90  C4'      122.1730  -75.4880  -76.4490 C.3     5  C5          0.1773
     91  O4'      123.0070  -74.8580  -77.4520 O.3     5  C5         -0.3307
     92  C3'      120.8000  -74.8530  -76.6390 C.3     5  C5          0.1860
     93  O3'      120.1140  -74.9450  -75.4100 O.3     5  C5         -0.3112
     94  C2'      121.2130  -73.4130  -76.8860 C.3     5  C5          0.2309
     95  O2'      121.6530  -72.7670  -75.7130 O.3     5  C5         -0.2156
     96  C1'      122.4540  -73.5990  -77.7630 C.3     5  C5          0.2420
     97  N1       122.0250  -73.5990  -79.1480 N.ar    5  C5         -0.2535
     98  C2       121.8460  -72.3880  -79.7240 C.ar    5  C5          0.3532
     99  O2       122.1230  -71.4020  -79.0540 O.2     5  C5         -0.2443
    100  N3       121.3690  -72.3020  -80.9730 N.ar    5  C5         -0.1739
    101  C4       121.0650  -73.4110  -81.6340 C.ar    5  C5          0.1759
    102  N4       120.5700  -73.2830  -82.8460 N.pl3   5  C5         -0.1070
    103  C5       121.2580  -74.7020  -81.0660 C.ar    5  C5          0.0566
    104  C6       121.7550  -74.7500  -79.8320 C.ar    5  C5          0.0850
    105  OP1      121.1350  -79.6230  -76.6500 O.3     5  C5         -0.4373
    106  OP2      120.6110  -79.2220  -79.1610 O.co2   5  C5         -0.5172
    107  P        118.5230  -75.1120  -75.3580 P.3     6  C6          0.2141
    108  C5'      118.6000  -72.5170  -74.9710 C.3     6  C6          0.1812
    109  O5'      118.0160  -73.6340  -75.6540 O.3     6  C6         -0.3114
    110  C4'      118.0270  -71.2170  -75.4780 C.3     6  C6          0.1773
    111  O4'      118.7630  -70.7210  -76.6280 O.3     6  C6         -0.3307
    112  C3'      116.5920  -71.2780  -75.9530 C.3     6  C6          0.1860
    113  O3'      115.7020  -71.2640  -74.8370 O.3     6  C6         -0.3112
    114  C2'      116.5250  -70.0310  -76.8170 C.3     6  C6          0.2309
    115  O2'      116.4480  -68.8750  -76.0090 O.3     6  C6         -0.2156
    116  C1'      117.8850  -70.0740  -77.5120 C.3     6  C6          0.2420
    117  N1       117.8390  -70.8480  -78.7600 N.ar    6  C6         -0.2535
    118  C2       117.3800  -70.2250  -79.9360 C.ar    6  C6          0.3532
    119  O2       117.1040  -69.0270  -79.9160 O.2     6  C6         -0.2443
    120  N3       117.2420  -70.9550  -81.0590 N.ar    6  C6         -0.1739
    121  C4       117.5360  -72.2510  -81.0480 C.ar    6  C6          0.1759
    122  N4       117.3280  -72.9430  -82.1630 N.pl3   6  C6         -0.1070
    123  C5       118.0400  -72.8970  -79.8840 C.ar    6  C6          0.0566
    124  C6       118.1870  -72.1620  -78.7760 C.ar    6  C6          0.0850
    125  OP1      118.2810  -75.4460  -73.9450 O.3     6  C6         -0.4373
    126  OP2      118.0110  -76.0280  -76.3850 O.co2   6  C6         -0.5172
    127  P        114.1120  -71.4930  -75.0370 P.3     7  C7          0.2141
    128  C5'      113.0920  -69.3780  -76.2660 C.3     7  C7          0.1812
    129  O5'      113.6950  -70.6580  -76.3380 O.3     7  C7         -0.3114
    130  C4'      112.6380  -68.9550  -77.6360 C.3     7  C7          0.1773
    131  O4'      113.7670  -69.0490  -78.5440 O.3     7  C7         -0.3307
    132  C3'      111.5770  -69.8250  -78.2900 C.3     7  C7          0.1860
    133  O3'      110.2890  -69.3840  -77.8430 O.3     7  C7         -0.3112
    134  C2'      111.8260  -69.5410  -79.7800 C.3     7  C7          0.2309
    135  O2'      111.3750  -68.3210  -80.3580 O.3     7  C7         -0.2156
    136  C1'      113.3400  -69.4810  -79.8180 C.3     7  C7          0.2420
    137  N1       113.8710  -70.8180  -80.0680 N.ar    7  C7         -0.2535
    138  C2       113.7630  -71.3310  -81.3320 C.ar    7  C7          0.3532
    139  O2       113.2740  -70.6260  -82.1940 O.2     7  C7         -0.2443
    140  N3       114.1920  -72.5880  -81.5850 N.ar    7  C7         -0.1739
    141  C4       114.7340  -73.3110  -80.6010 C.ar    7  C7          0.1759
    142  N4       115.1620  -74.5370  -80.8750 N.pl3   7  C7         -0.1070
    143  C5       114.8700  -72.7990  -79.2890 C.ar    7  C7          0.0566
    144  C6       114.4340  -71.5550  -79.0670 C.ar    7  C7          0.0850
    145  OP1      113.7310  -70.8620  -73.7610 O.3     7  C7         -0.4373
    146  OP2      113.6510  -72.8780  -75.3220 O.co2   7  C7         -0.5172
    147  P        109.2230  -70.4220  -77.2110 P.3     8  G8          0.2141
    148  C5'      108.0180  -70.6680  -79.4970 C.3     8  G8          0.1812
    149  O5'      108.7570  -71.2800  -78.4530 O.3     8  G8         -0.3114
    150  C4'      106.9980  -71.6440  -80.0010 C.3     8  G8          0.1773
    151  O4'      107.6560  -72.8320  -80.4190 O.3     8  G8         -0.3307
    152  C3'      105.9390  -72.0270  -78.9800 C.3     8  G8          0.1860
    153  O3'      104.7460  -71.7290  -79.7200 O.3     8  G8         -0.3112
    154  C2'      106.0890  -73.5290  -78.7880 C.3     8  G8          0.2309
    155  O2'      104.8780  -74.2470  -78.6950 O.3     8  G8         -0.2156
    156  C1'      106.8780  -73.9110  -80.0380 C.3     8  G8          0.2408
    157  N1       107.9930  -77.5930  -83.1630 N.ar    8  G8         -0.1709
    158  C2       107.1650  -76.5230  -83.3210 C.ar    8  G8          0.2606
    159  N2       106.5360  -76.4250  -84.4840 N.pl3   8  G8         -0.0859
    160  N3       106.9680  -75.6140  -82.3920 N.ar    8  G8         -0.1918
    161  C4       107.6710  -75.8790  -81.2760 C.ar    8  G8          0.1723
    162  C5       108.5290  -76.9170  -81.0170 C.ar    8  G8          0.1748
    163  C6       108.7410  -77.8820  -82.0250 C.ar    8  G8          0.3023
    164  O6       109.4750  -78.8880  -82.0020 O.2     8  G8         -0.2633
    165  N7       109.0630  -76.8020  -79.7420 N.ar    8  G8         -0.2173
    166  C8       108.5160  -75.7180  -79.2690 C.ar    8  G8          0.1817
    167  N9       107.6650  -75.1220  -80.1580 N.ar    8  G8         -0.2693
    168  OP1      108.0610  -69.5730  -76.8670 O.2     8  G8         -0.5172
    169  OP2      109.8460  -71.2720  -76.1610 O.co2   8  G8         -0.4373
    170  P        103.2990  -71.8480  -79.0470 P.3     9  A9          0.2141
    171  C5'      100.9850  -71.5160  -80.2900 C.3     9  A9          0.1812
    172  O5'      102.3420  -71.0930  -80.0870 O.3     9  A9         -0.3114
    173  C4'      100.7580  -71.7820  -81.7500 C.3     9  A9          0.1773
    174  O4'      101.0830  -70.5680  -82.4550 O.3     9  A9         -0.3307
    175  C3'      101.7280  -72.8490  -82.2330 C.3     9  A9          0.1860
    176  O3'      101.1030  -74.1030  -82.4700 O.3     9  A9         -0.3112
    177  C2'      102.2140  -72.3750  -83.5980 C.3     9  A9          0.2309
    178  O2'      101.7050  -73.0850  -84.7180 O.3     9  A9         -0.2156
    179  C1'      101.9050  -70.8690  -83.5690 C.3     9  A9          0.2408
    180  N1       105.3550  -68.1310  -86.1220 N.ar    9  A9         -0.2040
    181  C2       104.1710  -68.6300  -86.4730 C.ar    9  A9          0.2016
    182  N3       103.2960  -69.2960  -85.7410 N.ar    9  A9         -0.2048
    183  C4       103.7560  -69.4480  -84.4910 C.ar    9  A9          0.1692
    184  C5       104.9470  -68.9880  -83.9870 C.ar    9  A9          0.1518
    185  C6       105.7760  -68.2930  -84.8610 C.ar    9  A9          0.1919
    186  N6       106.9550  -67.7800  -84.5170 N.pl3   9  A9         -0.1054
    187  N7       105.0780  -69.3340  -82.6520 N.ar    9  A9         -0.2193
    188  C8       103.9790  -69.9940  -82.3890 C.ar    9  A9          0.1816
    189  N9       103.1500  -70.1190  -83.4640 N.ar    9  A9         -0.2693
    190  OP1      103.4680  -71.0860  -77.7830 O.3     9  A9         -0.4373
    191  OP2      102.8000  -73.2510  -78.9950 O.co2   9  A9         -0.5172
    192  P         99.4980  -74.2130  -82.6820 P.3    10  C10         0.2141
    193  C5'       99.8540  -75.4160  -84.9740 C.3    10  C10         0.1812
    194  O5'       99.3870  -75.4940  -83.6270 O.3    10  C10        -0.3114
    195  C4'      100.9780  -76.3840  -85.2170 C.3    10  C10         0.1773
    196  O4'      102.2080  -75.9410  -84.6060 O.3    10  C10        -0.3307
    197  C3'      100.7810  -77.7710  -84.6410 C.3    10  C10         0.1860
    198  O3'       99.9750  -78.5480  -85.4870 O.3    10  C10        -0.3112
    199  C2'      102.1930  -78.3330  -84.6280 C.3    10  C10         0.2309
    200  O2'      102.6130  -78.8620  -85.8630 O.3    10  C10        -0.2156
    201  C1'      103.0200  -77.0830  -84.3640 C.3    10  C10         0.2420
    202  N1       103.5100  -77.0730  -82.9970 N.ar   10  C10        -0.2535
    203  C2       104.3700  -78.0750  -82.6090 C.ar   10  C10         0.3532
    204  O2       104.6390  -78.9660  -83.4120 O.2    10  C10        -0.2443
    205  N3       104.8920  -78.0510  -81.3740 N.ar   10  C10        -0.1739
    206  C4       104.5750  -77.0650  -80.5500 C.ar   10  C10         0.1759
    207  N4       105.1350  -77.0420  -79.3690 N.pl3  10  C10        -0.1070
    208  C5       103.6750  -76.0520  -80.9110 C.ar   10  C10         0.0566
    209  C6       103.1620  -76.0940  -82.1310 C.ar   10  C10         0.0850
    210  OP1       98.9560  -73.0400  -83.4380 O.2    10  C10        -0.5172
    211  OP2       98.9530  -74.5420  -81.3400 O.co2  10  C10        -0.4373
    212  P         99.0600  -79.7050  -84.8570 P.3    11  5BU11       0.2141
    213  C5'      100.6630  -81.5960  -85.7740 C.3    11  5BU11       0.1812
    214  O5'      100.0760  -80.9330  -84.6630 O.3    11  5BU11      -0.3114
    215  C4'      101.6800  -82.6060  -85.3030 C.3    11  5BU11       0.1773
    216  O4'      102.8010  -81.9570  -84.6560 O.3    11  5BU11      -0.3307
    217  C3'      101.2070  -83.5360  -84.2220 C.3    11  5BU11       0.1860
    218  O3'      100.3920  -84.5560  -84.7680 O.3    11  5BU11      -0.3112
    219  C2'      102.5190  -84.0810  -83.7080 C.3    11  5BU11       0.2309
    220  O2'      103.0480  -84.9350  -84.6870 O.3    11  5BU11      -0.2156
    221  C1'      103.3470  -82.8120  -83.6730 C.3    11  5BU11       0.2420
    222  N1       103.2610  -82.1040  -82.3980 N.ar   11  5BU11      -0.2529
    223  C2       104.0390  -82.5290  -81.3470 C.ar   11  5BU11       0.3546
    224  O2       104.7400  -83.4980  -81.3980 O.2    11  5BU11      -0.2443
    225  N3       103.9590  -81.7660  -80.2260 N.ar   11  5BU11      -0.1526
    226  C4       103.2010  -80.6600  -80.0540 C.ar   11  5BU11       0.2907
    227  O4       103.2660  -80.0360  -79.0160 O.2    11  5BU11      -0.2645
    228  C5       102.4160  -80.3120  -81.1480 C.ar   11  5BU11       0.1098
    229  C6       102.4550  -81.0270  -82.2650 C.ar   11  5BU11       0.0935
    230  OP1       98.0590  -80.0160  -85.9340 O.co2  11  5BU11      -0.5172
    231  OP2       98.5810  -79.3260  -83.4760 O.3    11  5BU11      -0.4373
    232 BR        101.2730  -78.8440  -80.9960 Br     11  5BU11      -0.0424
    233  P         99.2180  -85.1760  -83.8610 P.3    12  G12         0.2141
    234  C5'      100.7320  -87.2480  -83.3820 C.3    12  G12         0.1812
    235  O5'      100.0080  -86.1450  -82.8590 O.3    12  G12        -0.3114
    236  C4'      101.5820  -87.8940  -82.3320 C.3    12  G12         0.1773
    237  O4'      102.6470  -87.0030  -81.8970 O.3    12  G12        -0.3307
    238  C3'      100.8960  -88.2820  -81.0460 C.3    12  G12         0.1860
    239  O3'      100.1840  -89.4990  -81.2070 O.3    12  G12        -0.3112
    240  C2'      102.1060  -88.4760  -80.1420 C.3    12  G12         0.2309
    241  O2'      102.8160  -89.6430  -80.5260 O.3    12  G12        -0.2156
    242  C1'      102.9480  -87.2610  -80.5260 C.3    12  G12         0.2408
    243  N1       103.4460  -84.5540  -76.2540 N.ar   12  G12        -0.1709
    244  C2       104.0490  -85.7180  -76.5820 C.ar   12  G12         0.2606
    245  N2       104.8730  -86.2020  -75.6550 N.pl3  12  G12        -0.0859
    246  N3       103.8640  -86.3500  -77.7280 N.ar   12  G12        -0.1918
    247  C4       103.0050  -85.6900  -78.5180 C.ar   12  G12         0.1723
    248  C5       102.3580  -84.5010  -78.2680 C.ar   12  G12         0.1748
    249  C6       102.5690  -83.8520  -77.0630 C.ar   12  G12         0.3023
    250  O6       102.0820  -82.7760  -76.6770 O.2    12  G12        -0.2633
    251  N7       101.5410  -84.1460  -79.3250 N.ar   12  G12        -0.2173
    252  C8       101.7010  -85.1080  -80.1890 C.ar   12  G12         0.1817
    253  N9       102.5760  -86.0770  -79.7650 N.ar   12  G12        -0.2693
    254  OP1       98.4390  -85.9420  -84.8590 O.2    12  G12        -0.5172
    255  OP2       98.5610  -84.0820  -83.1030 O.co2  12  G12        -0.4373
    256  P         98.8560  -89.7680  -80.3230 P.3    13  G13         0.2141
    257  C5'      100.2280  -90.8920  -78.4670 C.3    13  G13         0.1812
    258  O5'       99.3730  -89.8400  -78.8290 O.3    13  G13        -0.3114
    259  C4'      100.6700  -90.7240  -77.0450 C.3    13  G13         0.1773
    260  O4'      101.4820  -89.5260  -76.9240 O.3    13  G13        -0.3307
    261  C3'       99.5270  -90.4110  -76.1080 C.3    13  G13         0.1860
    262  O3'       98.7760  -91.5250  -75.7190 O.3    13  G13        -0.3112
    263  C2'      100.2660  -89.8700  -74.9210 C.3    13  G13         0.2309
    264  O2'      100.8000  -90.9530  -74.1720 O.3    13  G13        -0.2156
    265  C1'      101.3100  -88.9930  -75.6250 C.3    13  G13         0.2408
    266  N1       100.7760  -84.5230  -73.3280 N.ar   13  G13        -0.1709
    267  C2       101.4190  -85.6460  -72.9030 C.ar   13  G13         0.2606
    268  N2       101.9650  -85.5760  -71.7070 N.pl3  13  G13        -0.0859
    269  N3       101.5160  -86.7560  -73.6080 N.ar   13  G13        -0.1918
    270  C4       100.9000  -86.6490  -74.8030 C.ar   13  G13         0.1723
    271  C5       100.2360  -85.5710  -75.3290 C.ar   13  G13         0.1748
    272  C6       100.1420  -84.3860  -74.5590 C.ar   13  G13         0.3023
    273  O6        99.5830  -83.3140  -74.8540 O.2    13  G13        -0.2633
    274  N7        99.7400  -85.8640  -76.5890 N.ar   13  G13        -0.2173
    275  C8       100.1040  -87.1040  -76.7980 C.ar   13  G13         0.1817
    276  N9       100.7990  -87.6380  -75.7490 N.ar   13  G13        -0.2693
    277  OP1       98.3410  -91.1190  -80.6910 O.2    13  G13        -0.5172
    278  OP2       97.9740  -88.5680  -80.4910 O.co2  13  G13        -0.4373
    279  P         97.2230  -91.3120  -75.3570 P.3    14  C14         0.2141
    280  C5'       98.0860  -91.4110  -72.8630 C.3    14  C14         0.1812
    281  O5'       97.2320  -90.8100  -73.8370 O.3    14  C14        -0.3114
    282  C4'       98.1340  -90.5640  -71.6120 C.3    14  C14         0.1773
    283  O4'       98.9760  -89.3980  -71.8110 O.3    14  C14        -0.3307
    284  C3'       96.8300  -89.9650  -71.1460 C.3    14  C14         0.1860
    285  O3'       96.0780  -90.9340  -70.4410 O.3    14  C14        -0.3112
    286  C2'       97.3480  -88.8760  -70.2180 C.3    14  C14         0.2309
    287  O2'       97.9500  -89.4280  -69.0690 O.3    14  C14        -0.2156
    288  C1'       98.4970  -88.3120  -71.0350 C.3    14  C14         0.2420
    289  N1        98.0590  -87.2170  -71.9200 N.ar   14  C14        -0.2535
    290  C2        97.9980  -85.9220  -71.3950 C.ar   14  C14         0.3532
    291  O2        98.3570  -85.7350  -70.2320 O.2    14  C14        -0.2443
    292  N3        97.5530  -84.9130  -72.1640 N.ar   14  C14        -0.1739
    293  C4        97.1710  -85.1560  -73.4100 C.ar   14  C14         0.1759
    294  N4        96.6770  -84.1410  -74.1150 N.pl3  14  C14        -0.1070
    295  C5        97.2580  -86.4580  -73.9860 C.ar   14  C14         0.0566
    296  C6        97.7010  -87.4470  -73.2150 C.ar   14  C14         0.0850
    297  OP1       96.5820  -92.6530  -75.4890 O.3    14  C14        -0.4373
    298  OP2       96.7440  -90.1900  -76.2120 O.co2  14  C14        -0.5172
    299  P         94.4710  -90.7690  -70.2780 P.3    15  G15         0.2141
    300  C5'       93.3130  -88.4010  -70.2680 C.3    15  G15         0.1812
    301  O5'       94.2600  -89.3040  -69.6760 O.3    15  G15        -0.3114
    302  C4'       93.3540  -87.0550  -69.5740 C.3    15  G15         0.1773
    303  O4'       94.5260  -86.2830  -69.9980 O.3    15  G15        -0.3307
    304  C3'       92.1820  -86.1460  -69.8980 C.3    15  G15         0.1860
    305  O3'       91.0640  -86.5270  -69.0880 O.3    15  G15        -0.3112
    306  C2'       92.7610  -84.7730  -69.5600 C.3    15  G15         0.2309
    307  O2'       92.7400  -84.4460  -68.1830 O.3    15  G15        -0.2156
    308  C1'       94.1860  -84.9130  -70.0910 C.3    15  G15         0.2408
    309  N1        93.4290  -81.2930  -73.5160 N.ar   15  G15        -0.1709
    310  C2        93.5700  -81.1860  -72.1650 C.ar   15  G15         0.2606
    311  N2        93.4310  -79.9790  -71.6780 N.pl3  15  G15        -0.0859
    312  N3        93.8200  -82.2020  -71.3640 N.ar   15  G15        -0.1918
    313  C4        93.8870  -83.3710  -72.0390 C.ar   15  G15         0.1723
    314  C5        93.7470  -83.5920  -73.3910 C.ar   15  G15         0.1748
    315  C6        93.5170  -82.4860  -74.2380 C.ar   15  G15         0.3023
    316  O6        93.4110  -82.4730  -75.4640 O.2    15  G15        -0.2633
    317  N7        93.8610  -84.9390  -73.6810 N.ar   15  G15        -0.2173
    318  C8        94.0730  -85.5000  -72.5230 C.ar   15  G15         0.1817
    319  N9        94.0750  -84.6070  -71.4930 N.ar   15  G15        -0.2693
    320  OP1       94.1560  -91.7610  -69.2190 O.3    15  G15        -0.4373
    321  OP2       93.7240  -90.8160  -71.5900 O.co2  15  G15        -0.5172
    322  P         89.7370  -85.6000  -69.0130 P.3    16  A16         0.2141
    323  C5'       89.1340  -83.5040  -70.4410 C.3    16  A16         0.1812
    324  O5'       90.1130  -84.2520  -69.7690 O.3    16  A16        -0.3114
    325  C4'       89.6010  -83.2670  -71.8390 C.3    16  A16         0.1773
    326  O4'       90.5800  -84.2520  -72.1600 O.3    16  A16        -0.3307
    327  C3'       88.4820  -83.3530  -72.8500 C.3    16  A16         0.1860
    328  O3'       88.1180  -82.0070  -73.1920 O.3    16  A16        -0.3112
    329  C2'       88.9920  -84.2800  -73.9630 C.3    16  A16         0.2309
    330  O2'       89.1050  -83.8140  -75.2880 O.3    16  A16        -0.2156
    331  C1'       90.3650  -84.7020  -73.4580 C.3    16  A16         0.2408
    332  N1        91.6850  -88.6390  -76.3550 N.ar   16  A16        -0.2040
    333  C2        91.4310  -87.3530  -76.6400 C.ar   16  A16         0.2016
    334  N3        91.0590  -86.3780  -75.8290 N.ar   16  A16        -0.2048
    335  C4        90.9390  -86.8430  -74.5730 C.ar   16  A16         0.1692
    336  C5        91.1700  -88.1340  -74.1220 C.ar   16  A16         0.1518
    337  C6        91.5660  -89.0670  -75.0690 C.ar   16  A16         0.1919
    338  N6        91.8360  -90.3500  -74.7770 N.pl3  16  A16        -0.1054
    339  N7        90.9530  -88.2240  -72.7560 N.ar   16  A16        -0.2193
    340  C8        90.5980  -87.0070  -72.4180 C.ar   16  A16         0.1816
    341  N9        90.5970  -86.1220  -73.4670 N.ar   16  A16        -0.2693
    342  OP1       89.5600  -85.2570  -67.5820 O.3    16  A16        -0.4373
    343  OP2       88.6340  -86.2730  -69.7690 O.co2  16  A16        -0.5172
    344  P         89.2510  -81.0060  -73.7450 P.3    17  G17         0.2141
    345  C5'       88.7680  -78.6000  -72.9570 C.3    17  G17         0.1812
    346  O5'       89.3480  -79.8570  -72.6600 O.3    17  G17        -0.3114
    347  C4'       88.9120  -77.6830  -71.7930 C.3    17  G17         0.1773
    348  O4'       88.5240  -78.3860  -70.5860 O.3    17  G17        -0.3307
    349  C3'       90.3220  -77.2440  -71.4740 C.3    17  G17         0.1860
    350  O3'       90.6950  -76.1970  -72.3460 O.3    17  G17        -0.3112
    351  C2'       90.1440  -76.7430  -70.0520 C.3    17  G17         0.2309
    352  O2'       89.4590  -75.5080  -70.0570 O.3    17  G17        -0.2156
    353  C1'       89.2180  -77.8280  -69.4840 C.3    17  G17         0.2408
    354  N1        91.3880  -79.0100  -65.1590 N.ar   17  G17        -0.1709
    355  C2        90.7180  -77.8790  -65.5410 C.ar   17  G17         0.2606
    356  N2        90.6230  -76.9080  -64.6580 N.pl3  17  G17        -0.0859
    357  N3        90.1740  -77.7180  -66.7110 N.ar   17  G17        -0.1918
    358  C4        90.3570  -78.7880  -67.5010 C.ar   17  G17         0.1723
    359  C5        91.0010  -79.9680  -67.2270 C.ar   17  G17         0.1748
    360  C6        91.5750  -80.1390  -65.9570 C.ar   17  G17         0.3023
    361  O6        92.1860  -81.1310  -65.5070 O.2    17  G17        -0.2633
    362  N7        90.9660  -80.8100  -68.3150 N.ar   17  G17        -0.2173
    363  C8        90.3160  -80.1250  -69.2180 C.ar   17  G17         0.1817
    364  N9        89.9300  -78.8880  -68.7750 N.ar   17  G17        -0.2693
    365  OP1       88.7780  -80.2690  -74.9440 O.2    17  G17        -0.5172
    366  OP2       90.5290  -81.7660  -73.7770 O.co2  17  G17        -0.4373
    367  P         92.2120  -76.0860  -72.8490 P.3    18  A18         0.2141
    368  C5'       92.7710  -74.2320  -71.0680 C.3    18  A18         0.1812
    369  O5'       92.9820  -75.5560  -71.5560 O.3    18  A18        -0.3114
    370  C4'       93.3660  -74.0790  -69.6860 C.3    18  A18         0.1773
    371  O4'       92.6280  -74.8910  -68.7430 O.3    18  A18        -0.3307
    372  C3'       94.8060  -74.5180  -69.4870 C.3    18  A18         0.1860
    373  O3'       95.5930  -73.4190  -69.7690 O.3    18  A18        -0.3112
    374  C2'       94.8640  -74.6990  -67.9870 C.3    18  A18         0.2309
    375  O2'       94.9740  -73.4420  -67.3200 O.3    18  A18        -0.2156
    376  C1'       93.5000  -75.3510  -67.7230 C.3    18  A18         0.2408
    377  N1        94.8690  -79.7500  -65.5640 N.ar   18  A18        -0.2040
    378  C2        94.7540  -78.5280  -65.0710 C.ar   18  A18         0.2016
    379  N3        94.3550  -77.4240  -65.6710 N.ar   18  A18        -0.2048
    380  C4        94.0370  -77.6740  -66.9440 C.ar   18  A18         0.1692
    381  C5        94.0940  -78.8810  -67.5860 C.ar   18  A18         0.1518
    382  C6        94.5360  -79.9550  -66.8570 C.ar   18  A18         0.1919
    383  N6        94.6390  -81.1660  -67.3740 N.pl3  18  A18        -0.1054
    384  N7        93.6580  -78.7680  -68.8880 N.ar   18  A18        -0.2193
    385  C8        93.3670  -77.5050  -69.0020 C.ar   18  A18         0.1816
    386  N9        93.6080  -76.7860  -67.8750 N.ar   18  A18        -0.2693
    387  OP1       92.1900  -75.0220  -73.9160 O.2    18  A18        -0.5172
    388  OP2       92.7420  -77.4740  -73.1530 O.co2  18  A18        -0.4373
    389  P         97.0790  -73.6120  -70.2620 P.3    19  G19         0.2141
    390  C5'       98.8900  -74.9660  -69.0350 C.3    19  G19         0.1812
    391  O5'       97.8800  -73.9960  -68.9680 O.3    19  G19        -0.3114
    392  C4'       98.7030  -75.9490  -67.9170 C.3    19  G19         0.1773
    393  O4'       97.3750  -76.5540  -68.0090 O.3    19  G19        -0.3307
    394  C3'       99.6880  -77.0950  -67.9580 C.3    19  G19         0.1860
    395  O3'      100.8220  -76.7630  -67.1800 O.3    19  G19        -0.3112
    396  C2'       98.9110  -78.1890  -67.2760 C.3    19  G19         0.2309
    397  O2'       98.9830  -77.8460  -65.9150 O.3    19  G19        -0.2156
    398  C1'       97.4960  -77.9460  -67.8230 C.3    19  G19         0.2408
    399  N1        97.2850  -82.2140  -70.5780 N.ar   19  G19        -0.1709
    400  C2        97.6730  -82.0550  -69.3090 C.ar   19  G19         0.2606
    401  N2        98.0550  -83.1330  -68.7130 N.pl3  19  G19        -0.0859
    402  N3        97.6930  -80.9130  -68.6700 N.ar   19  G19        -0.1918
    403  C4        97.2910  -79.9020  -69.4580 C.ar   19  G19         0.1723
    404  C5        96.8850  -79.9650  -70.7700 C.ar   19  G19         0.1748
    405  C6        96.8620  -81.2100  -71.4060 C.ar   19  G19         0.3023
    406  O6        96.5210  -81.4750  -72.5350 O.2    19  G19        -0.2633
    407  N7        96.5530  -78.7000  -71.2470 N.ar   19  G19        -0.2173
    408  C8        96.7530  -77.9080  -70.2290 C.ar   19  G19         0.1817
    409  N9        97.2010  -78.5660  -69.1090 N.ar   19  G19        -0.2693
    410  OP1       97.4430  -72.2480  -70.6940 O.3    19  G19        -0.4373
    411  OP2       97.2700  -74.7320  -71.1730 O.co2  19  G19        -0.5172
    412  P        102.2870  -77.1300  -67.7320 P.3    20  C20         0.2141
    413  C5'      102.1740  -79.3430  -66.3840 C.3    20  C20         0.1812
    414  O5'      102.3680  -78.7150  -67.6310 O.3    20  C20        -0.3114
    415  C4'      102.4900  -80.7930  -66.5040 C.3    20  C20         0.1773
    416  O4'      101.3270  -81.5200  -66.9820 O.3    20  C20        -0.3307
    417  C3'      103.5260  -81.0820  -67.5580 C.3    20  C20         0.1860
    418  O3'      104.7960  -80.7770  -67.0610 O.3    20  C20        -0.3112
    419  C2'      103.2470  -82.5580  -67.8320 C.3    20  C20         0.2309
    420  O2'      103.5590  -83.4090  -66.7510 O.3    20  C20        -0.2156
    421  C1'      101.7260  -82.5180  -67.9110 C.3    20  C20         0.2420
    422  N1       101.2790  -82.0790  -69.2230 N.ar   20  C20        -0.2535
    423  C2       101.1730  -82.9990  -70.2230 C.ar   20  C20         0.3532
    424  O2       101.4610  -84.1660  -69.9810 O.2    20  C20        -0.2443
    425  N3       100.7440  -82.6100  -71.4440 N.ar   20  C20        -0.1739
    426  C4       100.4110  -81.3500  -71.6460 C.ar   20  C20         0.1759
    427  N4        99.9370  -81.0210  -72.8360 N.pl3  20  C20        -0.1070
    428  C5       100.5320  -80.3750  -70.6280 C.ar   20  C20         0.0566
    429  C6       100.9670  -80.7770  -69.4440 C.ar   20  C20         0.0850
    430  OP1      103.3520  -76.4700  -66.9090 O.3    20  C20        -0.4373
    431  OP2      102.2230  -76.8690  -69.1710 O.co2  20  C20        -0.5172
    432  P        106.0940  -81.2930  -67.8370 P.3    21  C21         0.2141
    433  C5'      107.1690  -83.6390  -68.0920 C.3    21  C21         0.1812
    434  O5'      106.0280  -82.8910  -67.7780 O.3    21  C21        -0.3114
    435  C4'      106.8100  -84.8110  -68.9260 C.3    21  C21         0.1773
    436  O4'      105.4830  -84.6570  -69.4320 O.3    21  C21        -0.3307
    437  C3'      107.5970  -84.8300  -70.2000 C.3    21  C21         0.1860
    438  O3'      108.9160  -85.2120  -69.9790 O.3    21  C21        -0.3112
    439  C2'      106.7780  -85.7020  -71.1280 C.3    21  C21         0.2309
    440  O2'      106.9550  -87.0860  -70.9750 O.3    21  C21        -0.2156
    441  C1'      105.3800  -85.2890  -70.7170 C.3    21  C21         0.2420
    442  N1       104.8130  -84.3180  -71.6450 N.ar   21  C21        -0.2535
    443  C2       104.4860  -84.7200  -72.9010 C.ar   21  C21         0.3532
    444  O2       104.7670  -85.8380  -73.2310 O.2    21  C21        -0.2443
    445  N3       103.8660  -83.8750  -73.7270 N.ar   21  C21        -0.1739
    446  C4       103.5890  -82.6420  -73.3220 C.ar   21  C21         0.1759
    447  N4       102.9520  -81.8450  -74.1380 N.pl3  21  C21        -0.1070
    448  C5       103.9560  -82.1780  -72.0480 C.ar   21  C21         0.0566
    449  C6       104.5740  -83.0390  -71.2430 C.ar   21  C21         0.0850
    450  OP1      107.2050  -80.7170  -67.0020 O.3    21  C21        -0.4373
    451  OP2      106.0360  -81.0120  -69.3000 O.co2  21  C21        -0.5172
    452  P        110.0540  -84.2620  -70.5410 P.3    22  A22         0.2141
    453  C5'      110.0300  -86.1570  -72.3120 C.3    22  A22         0.1812
    454  O5'      110.0230  -84.7520  -72.0540 O.3    22  A22        -0.3114
    455  C4'      109.6400  -86.4610  -73.7440 C.3    22  A22         0.1773
    456  O4'      108.2610  -86.0590  -74.0180 O.3    22  A22        -0.3307
    457  C3'      110.3970  -85.6810  -74.7820 C.3    22  A22         0.1860
    458  O3'      111.7210  -86.0880  -74.9530 O.3    22  A22        -0.3112
    459  C2'      109.5310  -85.8390  -76.0180 C.3    22  A22         0.2309
    460  O2'      109.7490  -87.0710  -76.7010 O.3    22  A22        -0.2156
    461  C1'      108.1300  -85.7530  -75.3980 C.3    22  A22         0.2408
    462  N1       105.3640  -82.9440  -78.6280 N.ar   22  A22        -0.2040
    463  C2       106.0530  -84.0780  -78.7710 C.ar   22  A22         0.2016
    464  N3       106.8060  -84.7240  -77.8890 N.ar   22  A22        -0.2048
    465  C4       106.8150  -84.0720  -76.7100 C.ar   22  A22         0.1692
    466  C5       106.1750  -82.8900  -76.4090 C.ar   22  A22         0.1518
    467  C6       105.4090  -82.3050  -77.4340 C.ar   22  A22         0.1919
    468  N6       104.7350  -81.1530  -77.2950 N.pl3  22  A22        -0.1054
    469  N7       106.4540  -82.4980  -75.1110 N.ar   22  A22        -0.2193
    470  C8       107.2180  -83.4570  -74.6520 C.ar   22  A22         0.1816
    471  N9       107.4420  -84.4630  -75.5540 N.ar   22  A22        -0.2693
    472  OP1      111.3810  -84.6150  -69.9980 O.3    22  A22        -0.4373
    473  OP2      109.5060  -82.8970  -70.2650 O.co2  22  A22        -0.5172
    474  P        112.8130  -84.9400  -75.1660 P.3    23  G23         0.2141
    475  C5'      112.4000  -85.3660  -77.7270 C.3    23  G23         0.1812
    476  O5'      112.5200  -84.4410  -76.6590 O.3    23  G23        -0.3114
    477  C4'      111.9400  -84.6780  -79.0190 C.3    23  G23         0.1773
    478  O4'      110.5070  -84.5500  -79.0950 O.3    23  G23        -0.3307
    479  C3'      112.4730  -83.3110  -79.4130 C.3    23  G23         0.1860
    480  O3'      113.7650  -83.4490  -79.9860 O.3    23  G23        -0.3112
    481  C2'      111.4790  -82.8930  -80.4980 C.3    23  G23         0.2309
    482  O2'      111.8110  -83.2820  -81.8210 O.3    23  G23        -0.2156
    483  C1'      110.1780  -83.5500  -80.0270 C.3    23  G23         0.2408
    484  N1       106.6150  -80.0370  -80.5110 N.ar   23  G23        -0.1709
    485  C2       106.9990  -80.9940  -81.3840 C.ar   23  G23         0.2606
    486  N2       106.3820  -80.9650  -82.5610 N.pl3  23  G23        -0.0859
    487  N3       107.9100  -81.9100  -81.1290 N.ar   23  G23        -0.1918
    488  C4       108.4010  -81.7830  -79.8920 C.ar   23  G23         0.1723
    489  C5       108.0790  -80.8620  -78.9420 C.ar   23  G23         0.1748
    490  C6       107.1120  -79.8860  -79.2490 C.ar   23  G23         0.3023
    491  O6       106.7110  -78.9850  -78.5710 O.2    23  G23        -0.2633
    492  N7       108.8240  -81.0680  -77.7840 N.ar   23  G23        -0.2173
    493  C8       109.5760  -82.0890  -78.0630 C.ar   23  G23         0.1817
    494  N9       109.3970  -82.5390  -79.3420 N.ar   23  G23        -0.2693
    495  OP1      114.1860  -85.5180  -75.0360 O.2    23  G23        -0.5172
    496  OP2      112.3880  -83.8080  -74.2600 O.co2  23  G23        -0.4373
    497  P        114.6480  -82.1570  -80.3140 P.3    24  G24         0.2141
    498  C5'      115.1310  -82.8400  -82.8110 C.3    24  G24         0.1812
    499  O5'      115.6250  -82.6510  -81.4830 O.3    24  G24        -0.3114
    500  C4'      116.0510  -83.7460  -83.6070 C.3    24  G24         0.1773
    501  O4'      115.8830  -83.4830  -85.0030 O.3    24  G24        -0.3307
    502  C3'      117.5090  -83.5310  -83.2400 C.3    24  G24         0.1860
    503  O3'      118.2110  -84.7270  -82.7510 O.3    24  G24        -0.3112
    504  C2'      118.1990  -83.0100  -84.5120 C.3    24  G24         0.2309
    505  O2'      119.3620  -83.7070  -84.8820 O.3    24  G24        -0.2156
    506  C1'      117.1220  -83.1920  -85.5750 C.3    24  G24         0.2408
    507  N1       115.6340  -78.5110  -86.9290 N.ar   24  G24        -0.1709
    508  C2       115.9180  -78.9580  -85.6970 C.ar   24  G24         0.2606
    509  N2       115.6800  -78.0910  -84.7070 N.pl3  24  G24        -0.0859
    510  N3       116.3890  -80.1590  -85.4380 N.ar   24  G24        -0.1918
    511  C4       116.5410  -80.8940  -86.5590 C.ar   24  G24         0.1723
    512  C5       116.2790  -80.5230  -87.8480 C.ar   24  G24         0.1748
    513  C6       115.7820  -79.2320  -88.0960 C.ar   24  G24         0.3023
    514  O6       115.4740  -78.7190  -89.1870 O.2    24  G24        -0.2633
    515  N7       116.5460  -81.5670  -88.7250 N.ar   24  G24        -0.2173
    516  C8       116.9430  -82.5420  -87.9620 C.ar   24  G24         0.1817
    517  N9       116.9120  -82.2300  -86.6390 N.ar   24  G24        -0.2693
    518  OP1      115.3970  -81.8780  -79.0810 O.3    24  G24        -0.4373
    519  OP2      113.7420  -81.1090  -80.8630 O.co2  24  G24        -0.5172
    520  P        117.4600  -86.1760  -82.4670 P.3    25  5BU25       0.2141
    521  C5'      115.0120  -87.0690  -82.6540 C.3    25  5BU25       0.1812
    522  O5'      115.8810  -85.9780  -82.3590 O.3    25  5BU25      -0.3114
    523  C4'      113.5900  -86.5950  -82.8210 C.3    25  5BU25       0.1773
    524  O4'      113.5830  -85.3480  -83.5390 O.3    25  5BU25      -0.3307
    525  C3'      112.7650  -87.5290  -83.6880 C.3    25  5BU25       0.1860
    526  O3'      112.1670  -88.5260  -82.8980 O.3    25  5BU25      -0.3112
    527  C2'      111.7350  -86.6000  -84.2700 C.3    25  5BU25       0.2309
    528  O2'      110.7840  -86.2830  -83.2770 O.3    25  5BU25      -0.2156
    529  C1'      112.6070  -85.3860  -84.5740 C.3    25  5BU25       0.2420
    530  N1       113.3290  -85.4820  -85.8500 N.ar   25  5BU25      -0.2529
    531  C2       112.6590  -85.2300  -87.0210 C.ar   25  5BU25       0.3546
    532  O2       111.5040  -84.8830  -87.0730 O.2    25  5BU25      -0.2443
    533  N3       113.4080  -85.3930  -88.1500 N.ar   25  5BU25      -0.1526
    534  C4       114.7280  -85.7500  -88.2140 C.ar   25  5BU25       0.2907
    535  O4       115.2950  -85.8510  -89.2960 O.2    25  5BU25      -0.2645
    536  C5       115.3330  -85.9600  -86.9810 C.ar   25  5BU25       0.1098
    537  C6       114.6410  -85.8270  -85.8610 C.ar   25  5BU25       0.0935
    538  OP1      117.9590  -86.5860  -81.1110 O.co2  25  5BU25      -0.5172
    539  OP2      117.5690  -87.1180  -83.6020 O.3    25  5BU25      -0.4373
    540 BR        117.1610  -86.4150  -86.9440 Br     25  5BU25      -0.0424
    541  P        112.6640  -90.0430  -83.0380 P.3    26  A26         0.2141
    542  C5'      111.4960  -91.6030  -84.7420 C.3    26  A26         0.1812
    543  O5'      111.3690  -90.7660  -83.6070 O.3    26  A26        -0.3114
    544  C4'      110.4320  -91.2940  -85.7630 C.3    26  A26         0.1773
    545  O4'      109.1460  -91.3420  -85.1020 O.3    26  A26        -0.3307
    546  C3'      110.4770  -89.9390  -86.4400 C.3    26  A26         0.1860
    547  O3'      111.3550  -90.0350  -87.5600 O.3    26  A26        -0.3112
    548  C2'      109.0210  -89.7850  -86.8790 C.3    26  A26         0.2309
    549  O2'      108.6900  -90.5490  -88.0230 O.3    26  A26        -0.2156
    550  C1'      108.2810  -90.3940  -85.6870 C.3    26  A26         0.2408
    551  N1       105.3160  -86.4360  -84.4190 N.ar   26  A26        -0.2040
    552  C2       105.3620  -87.2070  -85.5120 C.ar   26  A26         0.2016
    553  N3       106.1470  -88.2470  -85.7690 N.ar   26  A26        -0.2048
    554  C4       106.9740  -88.4710  -84.7380 C.ar   26  A26         0.1692
    555  C5       107.0350  -87.7700  -83.5540 C.ar   26  A26         0.1518
    556  C6       106.1540  -86.7060  -83.4020 C.ar   26  A26         0.1919
    557  N6       106.0990  -85.9510  -82.3120 N.pl3  26  A26        -0.1054
    558  N7       108.0130  -88.2940  -82.7230 N.ar   26  A26        -0.2193
    559  C8       108.5170  -89.2810  -83.4220 C.ar   26  A26         0.1816
    560  N9       107.9400  -89.4300  -84.6540 N.ar   26  A26        -0.2693
    561  OP1      112.9960  -90.4930  -81.6590 O.3    26  A26        -0.4373
    562  OP2      113.7010  -90.1200  -84.1120 O.co2  26  A26        -0.5172
    563  P        112.0860  -88.7160  -88.1520 P.3    27  A27         0.2141
    564  C5'      110.1330  -88.0010  -89.8070 C.3    27  A27         0.1812
    565  O5'      110.8840  -87.7550  -88.6180 O.3    27  A27        -0.3114
    566  C4'      109.0070  -86.9980  -89.9540 C.3    27  A27         0.1773
    567  O4'      107.9990  -87.2130  -88.9360 O.3    27  A27        -0.3307
    568  C3'      109.3660  -85.5350  -89.8010 C.3    27  A27         0.1860
    569  O3'      109.8890  -85.0200  -91.0130 O.3    27  A27        -0.3112
    570  C2'      108.0160  -84.9100  -89.4590 C.3    27  A27         0.2309
    571  O2'      107.1390  -84.6840  -90.5610 O.3    27  A27        -0.2156
    572  C1'      107.4380  -85.9730  -88.5340 C.3    27  A27         0.2408
    573  N1       107.0570  -82.9450  -84.3830 N.ar   27  A27        -0.2040
    574  C2       106.3890  -82.9500  -85.5420 C.ar   27  A27         0.2016
    575  N3       106.5120  -83.7690  -86.5810 N.ar   27  A27        -0.2048
    576  C4       107.4510  -84.7050  -86.3340 C.ar   27  A27         0.1692
    577  C5       108.2040  -84.8400  -85.1790 C.ar   27  A27         0.1518
    578  C6       107.9970  -83.8940  -84.1670 C.ar   27  A27         0.1919
    579  N6       108.6860  -83.8770  -83.0100 N.pl3  27  A27        -0.1054
    580  N7       109.0520  -85.9320  -85.2730 N.ar   27  A27        -0.2193
    581  C8       108.8190  -86.4150  -86.4620 C.ar   27  A27         0.1816
    582  N9       107.8730  -85.7160  -87.1700 N.ar   27  A27        -0.2693
    583  OP1      112.8340  -89.1160  -89.3740 O.2    27  A27        -0.5172
    584  OP2      112.8460  -88.1110  -87.0140 O.co2  27  A27        -0.4373
    585  P        110.9660  -83.8200  -90.9740 P.3    28  C28         0.2141
    586  C5'      109.0450  -82.0120  -91.3040 C.3    28  C28         0.1812
    587  O5'      110.1350  -82.5220  -90.5250 O.3    28  C28        -0.3114
    588  C4'      108.3720  -80.8120  -90.6100 C.3    28  C28         0.1773
    589  O4'      107.8410  -81.2040  -89.3100 O.3    28  C28        -0.3307
    590  C3'      109.2090  -79.5650  -90.3220 C.3    28  C28         0.1860
    591  O3'      109.2190  -78.7010  -91.4600 O.3    28  C28        -0.3112
    592  C2'      108.4490  -78.9010  -89.1710 C.3    28  C28         0.2309
    593  O2'      107.3570  -78.1090  -89.5690 O.3    28  C28        -0.2156
    594  C1'      107.8560  -80.0970  -88.4340 C.3    28  C28         0.2420
    595  N1       108.5610  -80.4510  -87.1920 N.ar   28  C28        -0.2535
    596  C2       108.4000  -79.6150  -86.0970 C.ar   28  C28         0.3532
    597  O2       107.6580  -78.6340  -86.2170 O.2    28  C28        -0.2443
    598  N3       109.0510  -79.8980  -84.9410 N.ar   28  C28        -0.1739
    599  C4       109.8220  -80.9800  -84.8600 C.ar   28  C28         0.1759
    600  N4       110.4510  -81.2200  -83.7080 N.pl3  28  C28        -0.1070
    601  C5       109.9930  -81.8620  -85.9570 C.ar   28  C28         0.0566
    602  C6       109.3540  -81.5600  -87.1000 C.ar   28  C28         0.0850
    603  OP1      111.4040  -83.5870  -92.3710 O.2    28  C28        -0.5172
    604  OP2      111.9790  -84.2250  -89.9400 O.co2  28  C28        -0.4373
    605  P        110.6220  -78.2240  -92.0930 P.3    29  G29         0.2141
    606  C5'      110.0880  -75.6990  -91.3230 C.3    29  G29         0.1812
    607  O5'      111.0090  -76.8370  -91.3810 O.3    29  G29        -0.3114
    608  C4'      110.8080  -74.4660  -90.7860 C.3    29  G29         0.1773
    609  O4'      111.4230  -74.8440  -89.5560 O.3    29  G29        -0.3307
    610  C3'      111.9220  -73.9300  -91.6930 C.3    29  G29         0.1860
    611  O3'      111.7220  -72.5300  -92.0010 O.3    29  G29        -0.3112
    612  C2'      113.1780  -73.8930  -90.8200 C.3    29  G29         0.2309
    613  O2'      113.8250  -72.6480  -90.8800 O.3    29  G29        -0.2156
    614  C1'      112.6000  -74.1320  -89.4340 C.3    29  G29         0.2408
    615  N1       113.8980  -73.1600  -84.7010 N.ar   29  G29        -0.1709
    616  C2       113.2630  -72.3620  -85.6260 C.ar   29  G29         0.2606
    617  N2       112.8750  -71.1290  -85.2260 N.pl3  29  G29        -0.0859
    618  N3       113.0280  -72.7360  -86.8680 N.ar   29  G29        -0.1918
    619  C4       113.4900  -73.9760  -87.1210 C.ar   29  G29         0.1723
    620  C5       114.1410  -74.8400  -86.2820 C.ar   29  G29         0.1748
    621  C6       114.3930  -74.4370  -84.9550 C.ar   29  G29         0.3023
    622  O6       114.9870  -75.0620  -84.0610 O.2    29  G29        -0.2633
    623  N7       114.4460  -76.0230  -86.9380 N.ar   29  G29        -0.2173
    624  C8       113.9720  -75.8570  -88.1460 C.ar   29  G29         0.1817
    625  N9       113.3510  -74.6470  -88.3060 N.ar   29  G29        -0.2693
    626  OP1      110.3880  -77.9390  -93.5410 O.2    29  G29        -0.5172
    627  OP2      111.6450  -79.2120  -91.6800 O.co2  29  G29        -0.4373
    628  P        110.5040  -72.0120  -92.9310 P.3    30  A30         0.2141
    629  C5'      109.2790  -69.9930  -91.7450 C.3    30  A30         0.1812
    630  O5'      109.4300  -71.4130  -91.9230 O.3    30  A30        -0.3114
    631  C4'      107.9520  -69.6830  -91.0870 C.3    30  A30         0.1773
    632  O4'      107.6210  -70.6190  -90.0470 O.3    30  A30        -0.3307
    633  C3'      107.8660  -68.3160  -90.4410 C.3    30  A30         0.1860
    634  O3'      106.9440  -67.5760  -91.2190 O.3    30  A30        -0.3112
    635  C2'      107.0780  -68.5270  -89.1420 C.3    30  A30         0.2309
    636  O2'      105.9290  -67.7030  -89.1160 O.3    30  A30        -0.2156
    637  C1'      106.6760  -70.0010  -89.2340 C.3    30  A30         0.2408
    638  N1       108.6000  -70.8400  -84.6590 N.ar   30  A30        -0.2040
    639  C2       108.9630  -70.0370  -85.6650 C.ar   30  A30         0.2016
    640  N3       108.4010  -69.8660  -86.8420 N.ar   30  A30        -0.2048
    641  C4       107.3300  -70.6440  -86.9330 C.ar   30  A30         0.1692
    642  C5       106.8350  -71.5230  -85.9930 C.ar   30  A30         0.1518
    643  C6       107.5160  -71.6170  -84.8130 C.ar   30  A30         0.1919
    644  N6       107.1670  -72.4350  -83.8230 N.pl3  30  A30        -0.1054
    645  N7       105.7160  -72.1790  -86.4690 N.ar   30  A30        -0.2193
    646  C8       105.5640  -71.6820  -87.6690 C.ar   30  A30         0.1816
    647  N9       106.5180  -70.7500  -88.0050 N.ar   30  A30        -0.2693
    648  OP1      109.8310  -73.1520  -93.5720 O.3    30  A30        -0.4373
    649  OP2      111.0200  -70.8850  -93.7780 O.co2  30  A30        -0.5172
    650  P        107.4280  -66.7770  -92.4940 P.3    31  A31         0.2141
    651  C5'      107.4360  -64.5290  -91.0850 C.3    31  A31         0.1812
    652  O5'      108.1150  -65.4470  -91.9410 O.3    31  A31        -0.3114
    653  C4'      108.4200  -63.9160  -90.0960 C.3    31  A31         0.1773
    654  O4'      108.7090  -64.8400  -89.0120 O.3    31  A31        -0.3307
    655  C3'      109.7640  -63.5100  -90.6840 C.3    31  A31         0.1860
    656  O3'      109.6210  -62.1550  -91.0690 O.3    31  A31        -0.3112
    657  C2'      110.6950  -63.6100  -89.4840 C.3    31  A31         0.2309
    658  O2'      110.6360  -62.4510  -88.6870 O.3    31  A31        -0.2156
    659  C1'      110.0890  -64.7890  -88.7020 C.3    31  A31         0.2408
    660  N1       111.7850  -69.2990  -86.8710 N.ar   31  A31        -0.2040
    661  C2       111.1820  -68.2730  -86.2930 C.ar   31  A31         0.2016
    662  N3       110.7300  -67.1440  -86.8230 N.ar   31  A31        -0.2048
    663  C4       110.9660  -67.1150  -88.1280 C.ar   31  A31         0.1692
    664  C5       111.5710  -68.0980  -88.8670 C.ar   31  A31         0.1518
    665  C6       111.9930  -69.2450  -88.1880 C.ar   31  A31         0.1919
    666  N6       112.5830  -70.2730  -88.7700 N.pl3  31  A31        -0.1054
    667  N7       111.6410  -67.7300  -90.1970 N.ar   31  A31        -0.2193
    668  C8       111.0860  -66.5410  -90.2260 C.ar   31  A31         0.1816
    669  N9       110.6780  -66.1010  -89.0060 N.ar   31  A31        -0.2693
    670  OP1      106.1950  -66.4780  -93.2650 O.2    31  A31        -0.5172
    671  OP2      108.5140  -67.5600  -93.1060 O.co2  31  A31        -0.4373
    672  P        110.1510  -61.6680  -92.4820 P.3    32  5BU32       0.2141
    673  C5'      112.5400  -61.9630  -93.5050 C.3    32  5BU32       0.1812
    674  O5'      111.7250  -61.8400  -92.3600 O.3    32  5BU32      -0.3114
    675  C4'      113.9750  -61.8740  -93.1000 C.3    32  5BU32       0.1773
    676  O4'      114.1740  -60.5560  -92.5640 O.3    32  5BU32      -0.3307
    677  C3'      114.3620  -62.7970  -91.9690 C.3    32  5BU32       0.1860
    678  O3'      114.7440  -64.0720  -92.4540 O.3    32  5BU32      -0.3112
    679  C2'      115.5070  -62.0420  -91.3280 C.3    32  5BU32       0.2309
    680  O2'      116.6770  -62.1230  -92.0770 O.3    32  5BU32      -0.2156
    681  C1'      115.0300  -60.6060  -91.4550 C.3    32  5BU32       0.2420
    682  N1       114.3140  -60.1260  -90.2700 N.ar   32  5BU32      -0.2529
    683  C2       115.0600  -59.9550  -89.1750 C.ar   32  5BU32       0.3546
    684  O2       116.2500  -60.1650  -89.1840 O.2    32  5BU32      -0.2443
    685  N3       114.3860  -59.5330  -88.0650 N.ar   32  5BU32      -0.1526
    686  C4       113.0570  -59.2630  -87.9650 C.ar   32  5BU32       0.2907
    687  O4       112.5640  -58.8950  -86.8940 O.2    32  5BU32      -0.2645
    688  C5       112.3520  -59.4470  -89.1390 C.ar   32  5BU32       0.1098
    689  C6       112.9750  -59.8670  -90.2430 C.ar   32  5BU32       0.0935
    690  OP1      109.8370  -60.2240  -92.6030 O.co2  32  5BU32      -0.5172
    691  OP2      109.5880  -62.6170  -93.4580 O.3    32  5BU32      -0.4373
    692 BR        110.5110  -59.0520  -89.1400 Br     32  5BU32      -0.0424
    693  P        113.7560  -65.3180  -92.2100 P.3    33  G33         0.2141
    694  C5'      114.9810  -65.3400  -89.9540 C.3    33  G33         0.1812
    695  O5'      113.7530  -65.3590  -90.6280 O.3    33  G33        -0.3114
    696  C4'      114.7580  -64.9640  -88.5440 C.3    33  G33         0.1773
    697  O4'      113.8570  -65.9330  -87.9530 O.3    33  G33        -0.3307
    698  C3'      116.0080  -65.0100  -87.6950 C.3    33  G33         0.1860
    699  O3'      116.6840  -63.7880  -87.8510 O.3    33  G33        -0.3112
    700  C2'      115.4120  -65.1870  -86.3070 C.3    33  G33         0.2309
    701  O2'      114.9490  -63.9750  -85.7360 O.3    33  G33        -0.2156
    702  C1'      114.2450  -66.1470  -86.6090 C.3    33  G33         0.2408
    703  N1       116.1280  -69.4440  -83.4080 N.ar   33  G33        -0.1709
    704  C2       115.6840  -68.1760  -83.2220 C.ar   33  G33         0.2606
    705  N2       115.8140  -67.6630  -82.0460 N.pl3  33  G33        -0.0859
    706  N3       115.1640  -67.4470  -84.1430 N.ar   33  G33        -0.1918
    707  C4       115.1500  -68.0670  -85.3340 C.ar   33  G33         0.1723
    708  C5       115.5770  -69.3250  -85.6560 C.ar   33  G33         0.1748
    709  C6       116.1150  -70.1250  -84.6180 C.ar   33  G33         0.3023
    710  O6       116.5430  -71.2760  -84.6680 O.2    33  G33        -0.2633
    711  N7       115.3840  -69.5710  -87.0040 N.ar   33  G33        -0.2173
    712  C8       114.8610  -68.4680  -87.4620 C.ar   33  G33         0.1817
    713  N9       114.7160  -67.5150  -86.4960 N.ar   33  G33        -0.2693
    714  OP1      114.3610  -66.6180  -92.5640 O.3    33  G33        -0.4373
    715  OP2      112.3670  -65.0320  -92.6820 O.co2  33  G33        -0.5172
    716  P        118.2760  -63.7330  -87.7020 P.3    34  G34         0.2141
    717  C5'      118.0670  -62.9910  -85.1980 C.3    34  G34         0.1812
    718  O5'      118.5100  -63.9650  -86.1370 O.3    34  G34        -0.3114
    719  C4'      118.5650  -63.3230  -83.8260 C.3    34  G34         0.1773
    720  O4'      117.8800  -64.4790  -83.2790 O.3    34  G34        -0.3307
    721  C3'      120.0130  -63.7130  -83.8240 C.3    34  G34         0.1860
    722  O3'      120.7920  -62.5520  -83.7890 O.3    34  G34        -0.3112
    723  C2'      120.1360  -64.5360  -82.5550 C.3    34  G34         0.2309
    724  O2'      120.3310  -63.7790  -81.3800 O.3    34  G34        -0.2156
    725  C1'      118.7940  -65.2580  -82.5380 C.3    34  G34         0.2408
    726  N1       120.2760  -70.0300  -82.1720 N.ar   34  G34        -0.1709
    727  C2       120.2680  -69.0610  -81.2300 C.ar   34  G34         0.2606
    728  N2       120.6890  -69.4240  -80.0530 N.pl3  34  G34        -0.0859
    729  N3       119.8650  -67.8420  -81.4370 N.ar   34  G34        -0.1918
    730  C4       119.4360  -67.6750  -82.6960 C.ar   34  G34         0.1723
    731  C5       119.3880  -68.5920  -83.7070 C.ar   34  G34         0.1748
    732  C6       119.8390  -69.8790  -83.4600 C.ar   34  G34         0.3023
    733  O6       119.8770  -70.8170  -84.1990 O.2    34  G34        -0.2633
    734  N7       118.8600  -68.0270  -84.8560 N.ar   34  G34        -0.2173
    735  C8       118.6090  -66.7930  -84.5200 C.ar   34  G34         0.1817
    736  N9       118.9360  -66.5230  -83.2240 N.ar   34  G34        -0.2693
    737  OP1      118.7140  -62.3570  -88.0390 O.3    34  G34        -0.4373
    738  OP2      118.8840  -64.8840  -88.4480 O.co2  34  G34        -0.5172
    739  P        122.3560  -62.6560  -84.0570 P.3    35  A35         0.2141
    740  C5'      124.1280  -64.2070  -82.8910 C.3    35  A35         0.1812
    741  O5'      122.7960  -63.7480  -82.9830 O.3    35  A35        -0.3114
    742  C4'      124.2420  -65.2410  -81.8040 C.3    35  A35         0.1773
    743  O4'      123.2140  -66.2280  -81.9750 O.3    35  A35        -0.3307
    744  C3'      125.5120  -66.0570  -81.8470 C.3    35  A35         0.1860
    745  O3'      126.5940  -65.4460  -81.1960 O.3    35  A35        -0.3112
    746  C2'      125.1500  -67.3210  -81.1230 C.3    35  A35         0.2309
    747  O2'      125.3000  -67.1290  -79.7620 O.3    35  A35        -0.2156
    748  C1'      123.6870  -67.4630  -81.4950 C.3    35  A35         0.2408
    749  N1       124.1250  -72.3820  -82.7240 N.ar   35  A35        -0.2040
    750  C2       124.5340  -71.6930  -81.6640 C.ar   35  A35         0.2016
    751  N3       124.4290  -70.3960  -81.4210 N.ar   35  A35        -0.2048
    752  C4       123.8150  -69.7770  -82.4410 C.ar   35  A35         0.1692
    753  C5       123.3520  -70.3470  -83.5920 C.ar   35  A35         0.1518
    754  C6       123.5170  -71.7200  -83.7330 C.ar   35  A35         0.1919
    755  N6       123.1100  -72.4050  -84.7970 N.pl3  35  A35        -0.1054
    756  N7       122.7820  -69.3910  -84.4040 N.ar   35  A35        -0.2193
    757  C8       122.9170  -68.2910  -83.7320 C.ar   35  A35         0.1816
    758  N9       123.4960  -68.4550  -82.5300 N.ar   35  A35        -0.2693
    759  OP1      122.8420  -61.2980  -83.6990 O.3    35  A35        -0.4373
    760  OP2      122.5590  -63.1900  -85.4280 O.co2  35  A35        -0.5172
    761  P        128.0490  -65.6630  -81.8040 P.3    36  5BU36       0.2141
    762  C5'      128.9360  -67.1650  -79.8700 C.3    36  5BU36       0.1812
    763  O5'      128.5290  -67.0540  -81.2190 O.3    36  5BU36      -0.3114
    764  C4'      129.1550  -68.6060  -79.5260 C.3    36  5BU36       0.1773
    765  O4'      127.9860  -69.3490  -79.9680 O.3    36  5BU36      -0.3307
    766  C3'      130.2540  -69.3000  -80.2950 C.3    36  5BU36       0.1860
    767  O3'      131.5600  -69.0220  -79.8210 O.3    36  5BU36      -0.3112
    768  C2'      129.8650  -70.7590  -80.1190 C.3    36  5BU36       0.2309
    769  O2'      130.1060  -71.2120  -78.7980 O.3    36  5BU36      -0.2156
    770  C1'      128.3600  -70.6650  -80.3230 C.3    36  5BU36       0.2420
    771  N1       127.9520  -70.8840  -81.7070 N.ar   36  5BU36      -0.2529
    772  C2       128.0320  -72.1490  -82.1910 C.ar   36  5BU36       0.3546
    773  O2       128.5140  -73.0460  -81.5620 O.2    36  5BU36      -0.2443
    774  N3       127.5430  -72.3160  -83.4450 N.ar   36  5BU36      -0.1526
    775  C4       127.0310  -71.3430  -84.2440 C.ar   36  5BU36       0.2907
    776  O4       126.6030  -71.6150  -85.3560 O.2    36  5BU36      -0.2645
    777  C5       127.0390  -70.0710  -83.6870 C.ar   36  5BU36       0.1098
    778  C6       127.4860  -69.8750  -82.4650 C.ar   36  5BU36       0.0935
    779  OP1      128.8540  -64.5330  -81.3150 O.co2  36  5BU36      -0.5172
    780  OP2      127.9130  -65.9170  -83.2750 O.3    36  5BU36      -0.4373
    781 BR        126.4410  -68.6400  -84.7210 Br     36  5BU36      -0.0424
    782  P        132.7880  -69.1920  -80.8340 P.3    37  C37         0.2141
    783  C5'      133.4500  -71.6090  -80.0410 C.3    37  C37         0.1812
    784  O5'      132.9510  -70.7640  -81.0620 O.3    37  C37        -0.3114
    785  C4'      133.3440  -73.0290  -80.4870 C.3    37  C37         0.1773
    786  O4'      132.0130  -73.2210  -81.0280 O.3    37  C37        -0.3307
    787  C3'      134.1820  -73.3990  -81.6900 C.3    37  C37         0.1860
    788  O3'      135.5520  -73.5280  -81.3780 O.3    37  C37        -0.3112
    789  C2'      133.4880  -74.6700  -82.1800 C.3    37  C37         0.2309
    790  O2'      133.7090  -75.8470  -81.4160 O.3    37  C37        -0.2156
    791  C1'      132.0390  -74.2610  -82.0040 C.3    37  C37         0.2420
    792  N1       131.4550  -73.7690  -83.2470 N.ar   37  C37        -0.2535
    793  C2       131.0100  -74.7100  -84.1460 C.ar   37  C37         0.3532
    794  O2       131.2570  -75.8920  -83.9040 O.2    37  C37        -0.2443
    795  N3       130.3320  -74.3150  -85.2600 N.ar   37  C37        -0.1739
    796  C4       130.1380  -73.0100  -85.4870 C.ar   37  C37         0.1759
    797  N4       129.4420  -72.6590  -86.5660 N.pl3  37  C37        -0.1070
    798  C5       130.6520  -72.0060  -84.6010 C.ar   37  C37         0.0566
    799  C6       131.3030  -72.4310  -83.5000 C.ar   37  C37         0.0850
    800  OP1      133.9700  -68.5750  -80.1770 O.3    37  C37        -0.4373
    801  OP2      132.3520  -68.7460  -82.1890 O.co2  37  C37        -0.5172
    802  P        136.5960  -72.5640  -82.1220 P.3    38  C38         0.2141
    803  C5'      137.6440  -74.9080  -82.4830 C.3    38  C38         0.1813
    804  O5'      137.5430  -73.5680  -82.9110 O.3    38  C38        -0.3114
    805  C4'      136.9910  -75.8380  -83.4710 C.3    38  C38         0.1801
    806  O4'      135.5830  -75.5400  -83.6000 O.3    38  C38        -0.3306
    807  C3'      137.4590  -75.7780  -84.9140 C.3    38  C38         0.2161
    808  O3'      138.7800  -76.3280  -85.1030 O.3    38  C38        -0.2175
    809  C2'      136.3180  -76.5120  -85.6450 C.3    38  C38         0.2338
    810  O2'      136.3530  -77.9240  -85.8320 O.3    38  C38        -0.2155
    811  C1'      135.1050  -76.1290  -84.7970 C.3    38  C38         0.2421
    812  N1       134.3760  -75.1390  -85.5580 N.ar   38  C38        -0.2535
    813  C2       133.7000  -75.5710  -86.7150 C.ar   38  C38         0.3532
    814  O2       133.7030  -76.8020  -86.9810 O.2    38  C38        -0.2443
    815  N3       133.0740  -74.6430  -87.5110 N.ar   38  C38        -0.1739
    816  C4       133.1160  -73.3430  -87.1740 C.ar   38  C38         0.1759
    817  N4       132.5210  -72.4540  -87.9800 N.pl3  38  C38        -0.1070
    818  C5       133.7790  -72.8910  -85.9810 C.ar   38  C38         0.0566
    819  C6       134.3800  -73.8190  -85.2020 C.ar   38  C38         0.0850
    820  OP1      137.3420  -71.7250  -81.1170 O.3    38  C38        -0.4373
    821  OP2      135.8110  -71.9050  -83.2100 O.co2  38  C38        -0.5172
@<TRIPOS>BOND
     1    50    66    1
     2    66    68    1
     3    66    84    2
     4    66    85    1
     5    67    69    1
     6    67    68    1
     7    69    70    1
     8    69    71    1
     9    70    75    1
    10    71    72    1
    11    71    73    1
    12    72    87    1
    13    73    74    1
    14    73    75    1
    15    75    76    1
    16    76    77   ar
    17    76    83   ar
    18    77    78    2
    19    77    79   ar
    20    79    80   ar
    21    80    81    2
    22    80    82   ar
    23    82    83   ar
    24    82    86    1
    25   198   212    1
    26   212   214    1
    27   212   230    2
    28   212   231    1
    29   213   215    1
    30   213   214    1
    31   215   216    1
    32   215   217    1
    33   216   221    1
    34   217   218    1
    35   217   219    1
    36   218   233    1
    37   219   220    1
    38   219   221    1
    39   221   222    1
    40   222   223   ar
    41   222   229   ar
    42   223   224    2
    43   223   225   ar
    44   225   226   ar
    45   226   227    2
    46   226   228   ar
    47   228   229   ar
    48   228   232    1
    49   503   520    1
    50   520   522    1
    51   520   538    2
    52   520   539    1
    53   521   523    1
    54   521   522    1
    55   523   524    1
    56   523   525    1
    57   524   529    1
    58   525   526    1
    59   525   527    1
    60   526   541    1
    61   527   528    1
    62   527   529    1
    63   529   530    1
    64   530   531   ar
    65   530   537   ar
    66   531   532    2
    67   531   533   ar
    68   533   534   ar
    69   534   535    2
    70   534   536   ar
    71   536   537   ar
    72   536   540    1
    73   656   672    1
    74   672   674    1
    75   672   690    2
    76   672   691    1
    77   673   675    1
    78   673   674    1
    79   675   676    1
    80   675   677    1
    81   676   681    1
    82   677   678    1
    83   677   679    1
    84   678   693    1
    85   679   680    1
    86   679   681    1
    87   681   682    1
    88   682   683   ar
    89   682   689   ar
    90   683   684    2
    91   683   685   ar
    92   685   686   ar
    93   686   687    2
    94   686   688   ar
    95   688   689   ar
    96   688   692    1
    97   745   761    1
    98   761   763    1
    99   761   779    2
   100   761   780    1
   101   762   764    1
   102   762   763    1
   103   764   765    1
   104   764   766    1
   105   765   770    1
   106   766   767    1
   107   766   768    1
   108   767   782    1
   109   768   769    1
   110   768   770    1
   111   770   771    1
   112   771   772   ar
   113   771   778   ar
   114   772   773    2
   115   772   774   ar
   116   774   775   ar
   117   775   776    2
   118   775   777   ar
   119   777   778   ar
   120   777   781    1
   121     1     2    1
   122     1     3    1
   123     3     4    1
   124     3     5    1
   125     4     9    1
   126     6     5    1
   127     6    21    1
   128     5     7    1
   129     9     7    1
   130     9    20    1
   131     8     7    1
   132   649   628    2
   133   648   628    1
   134   626   605    2
   135    19    20   ar
   136    19    18   ar
   137   670   650    2
   138    42    21    2
   139   671   650    1
   140    20    14   ar
   141   628   611    1
   142   628   630    1
   143    21    43    1
   144    21    23    1
   145   715   693    2
   146   714   693    1
   147   650   652    1
   148   650   634    1
   149    18    15   ar
   150   603   585    2
   151   693   695    1
   152   605   627    1
   153   605   591    1
   154   605   607    1
   155   611   610    1
   156   652   651    1
   157   630   629    1
   158    14    15   ar
   159    14    13   ar
   160    22    23    1
   161    22    24    1
   162   629   631    1
   163   610   612    1
   164   610   608    1
   165    15    16   ar
   166   591   590    1
   167   607   606    1
   168   606   608    1
   169   586   588    1
   170   586   587    1
   171   634   633    1
   172    13    11   ar
   173   631   633    1
   174   631   632    1
   175   651   653    1
   176   656   655    1
   177   569   585    1
   178   569   568    1
   179   585   587    1
   180   585   604    1
   181   613   612    1
   182   612   614    1
   183   608   609    1
   184   655   653    1
   185   655   657    1
   186    25    24    1
   187    25    30    1
   188   695   694    1
   189   588   590    1
   190   588   589    1
   191    24    26    1
   192   571   570    1
   193   633   635    1
   194   590   592    1
   195    16    17    2
   196    16    10   ar
   197   668   667   ar
   198   668   669   ar
   199   667   664   ar
   200   653   654    1
   201   632   637    1
   202    11    10   ar
   203    11    12    1
   204   566   564    1
   205   566   568    1
   206   566   567    1
   207   694   696    1
   208    40    39   ar
   209    40    41   ar
   210   564   565    1
   211   568   570    1
   212   593   592    1
   213   609   614    1
   214    39    36   ar
   215   657   659    1
   216   657   658    1
   217   570   572    1
   218   614   625    1
   219   583   563    2
   220    30    41    1
   221    30    28    1
   222   589   594    1
   223    26    27    1
   224    26    28    1
   225   637   635    1
   226   637   647    1
   227   514   513    2
   228   592   594    1
   229    41    35   ar
   230   635   636    1
   231    65    44    2
   232   654   659    1
   233   669   659    1
   234   669   663   ar
   235   567   572    1
   236   664   665   ar
   237   664   663   ar
   238    27    44    1
   239   666   665    1
   240   515   516   ar
   241   515   512   ar
   242    64    44    1
   243   565   563    1
   244   696   697    1
   245   696   698    1
   246   572   582    1
   247   738   716    2
   248   594   595    1
   249    36    35   ar
   250    36    37   ar
   251    44    46    1
   252    28    29    1
   253   625   624   ar
   254   625   619   ar
   255    35    34   ar
   256   665   660   ar
   257   563   547    1
   258   563   584    1
   259   624   623   ar
   260   663   662   ar
   261   513   512   ar
   262   513   507   ar
   263   737   716    1
   264   549   548    1
   265   647   646   ar
   266   647   641   ar
   267   817   816    1
   268   516   517   ar
   269   697   702    1
   270   699   716    1
   271   699   698    1
   272   512   511   ar
   273   716   718    1
   274   698   700    1
   275   646   645   ar
   276    38    37    2
   277    37    31   ar
   278   547   546    1
   279   815   816   ar
   280   815   813   ar
   281   712   711   ar
   282   712   713   ar
   283    34    32   ar
   284   595   602   ar
   285   595   596   ar
   286   816   818   ar
   287   582   581   ar
   288   582   576   ar
   289   619   618   ar
   290   619   620   ar
   291   602   601   ar
   292   711   708   ar
   293   814   813    2
   294   623   620   ar
   295   641   640   ar
   296   641   642   ar
   297   507   508   ar
   298   548   546    1
   299   548   550    1
   300   660   661   ar
   301   618   616   ar
   302    46    45    1
   303   640   639   ar
   304   662   661   ar
   305    61    62   ar
   306    61    58   ar
   307   813   812   ar
   308   517   511   ar
   309   517   506    1
   310    31    32   ar
   311   702   713    1
   312   702   700    1
   313   575   576   ar
   314   575   574   ar
   315   797   796    1
   316   511   510   ar
   317    32    33    1
   318   713   707   ar
   319    62    63   ar
   320   181   180   ar
   321   181   182   ar
   322   645   642   ar
   323   581   580   ar
   324   546   544    1
   325   576   577   ar
   326   700   701    1
   327   620   621   ar
   328   597   596    2
   329    60    59    1
   330   718   717    1
   331   180   185   ar
   332   596   598   ar
   333    45    47    1
   334   642   643   ar
   335   818   819   ar
   336   601   599   ar
   337   200   199    1
   338   810   809    1
   339   553   552   ar
   340   553   554   ar
   341   544   545    1
   342   544   542    1
   343   182   183   ar
   344    58    59   ar
   345    58    57   ar
   346   508   510   ar
   347   508   509    1
   348   550   545    1
   349   550   560    1
   350   639   638   ar
   351   708   707   ar
   352   708   709   ar
   353   809   807    1
   354   809   811    1
   355   616   617    1
   356   616   615   ar
   357    48    47    1
   358    48    53    1
   359   506   501    1
   360   506   504    1
   361   812   819   ar
   362   812   811    1
   363   574   573   ar
   364   552   551   ar
   365   796   795   ar
   366   796   798   ar
   367   198   197    1
   368   760   739    2
   369    59    54   ar
   370    63    57   ar
   371    63    53    1
   372   707   706   ar
   373   580   577   ar
   374   795   793   ar
   375   195   193    1
   376   195   197    1
   377   195   196    1
   378   717   719    1
   379   577   578   ar
   380   808   807    1
   381   501   500    1
   382    47    49    1
   383   193   194    1
   384   621   615   ar
   385   621   622    2
   386   598   599   ar
   387   807   805    1
   388   505   504    1
   389    57    56   ar
   390   185   186    1
   391   185   184   ar
   392   599   600    1
   393   254   233    2
   394   734   735   ar
   395   734   731   ar
   396   643   638   ar
   397   643   644    1
   398   755   754    1
   399   811   806    1
   400   542   543    1
   401   554   560   ar
   402   554   555   ar
   403   178   177    1
   404    53    51    1
   405   710   709    2
   406   560   559   ar
   407   197   199    1
   408   199   201    1
   409   709   703   ar
   410   196   201    1
   411   798   799   ar
   412   735   736   ar
   413   504   502    1
   414   183   184   ar
   415   183   189   ar
   416   159   158    1
   417   551   556   ar
   418   756   757   ar
   419   756   753   ar
   420   573   578   ar
   421   201   202    1
   422    54    55   ar
   423   733   732    2
   424   578   579    1
   425   793   794    2
   426   793   792   ar
   427   706   704   ar
   428   562   541    2
   429   739   722    1
   430   739   759    1
   431   739   741    1
   432    49    51    1
   433    49    50    1
   434   184   187   ar
   435   233   255    1
   436   233   235    1
   437   719   721    1
   438   719   720    1
   439   721   722    1
   440   721   723    1
   441    56    55   ar
   442   754   753   ar
   443   754   749   ar
   444   757   758   ar
   445   731   732   ar
   446   731   730   ar
   447   194   192    1
   448   500   502    1
   449   500   498    1
   450   543   541    1
   451   806   805    1
   452   177   179    1
   453   177   175    1
   454   753   752   ar
   455   179   189    1
   456   179   174    1
   457   555   556   ar
   458   555   558   ar
   459   799   792   ar
   460   805   803    1
   461   189   188   ar
   462   732   726   ar
   463    51    52    1
   464   210   192    2
   465   559   558   ar
   466   204   203    2
   467   703   704   ar
   468   556   557    1
   469   234   235    1
   470   234   236    1
   471   158   157   ar
   472   158   160   ar
   473   720   725    1
   474   792   791    1
   475   502   503    1
   476   736   730   ar
   477   736   725    1
   478   704   705    1
   479   821   802    2
   480   157   163   ar
   481   541   561    1
   482   202   203   ar
   483   202   209   ar
   484   741   740    1
   485   804   803    1
   486   804   802    1
   487   740   742    1
   488   102   101    1
   489   498   499    1
   490   749   750   ar
   491   730   729   ar
   492   192   176    1
   493   192   211    1
   494   187   188   ar
   495   203   205   ar
   496   486   485    1
   497   723   725    1
   498   723   724    1
   499   758   752   ar
   500   758   748    1
   501   176   175    1
   502   174   173    1
   503   752   751   ar
   504   160   161   ar
   505   236   237    1
   506   236   238    1
   507   175   173    1
   508   139   138    2
   509   801   782    2
   510   789   791    1
   511   789   787    1
   512   789   790    1
   513   726   727   ar
   514   122   121    1
   515   209   208   ar
   516   802   788    1
   517   802   820    1
   518   163   164    2
   519   163   162   ar
   520   791   786    1
   521   743   742    1
   522   743   748    1
   523   237   242    1
   524   744   742    1
   525   744   745    1
   526   744   746    1
   527   482   481    1
   528   173   171    1
   529   787   788    1
   530   787   785    1
   531   750   751   ar
   532   101   103   ar
   533   101   100   ar
   534   140   138   ar
   535   140   141   ar
   536   748   746    1
   537   499   497    1
   538   729   727   ar
   539   485   487   ar
   540   485   484   ar
   541   205   206   ar
   542   138   137   ar
   543   161   162   ar
   544   161   167   ar
   545   727   728    1
   546   239   238    1
   547   239   256    1
   548   487   488   ar
   549   746   747    1
   550   103   104   ar
   551   784   782    1
   552   784   783    1
   553   120   121   ar
   554   120   118   ar
   555   121   123   ar
   556   238   240    1
   557   786   785    1
   558   162   165   ar
   559   100    98   ar
   560   208   206   ar
   561   142   141    1
   562   519   497    2
   563   782   800    1
   564   277   256    2
   565   141   143   ar
   566   206   207    1
   567   242   240    1
   568   242   253    1
   569   241   240    1
   570   484   490   ar
   571   481   483    1
   572   481   479    1
   573   278   256    1
   574   785   783    1
   575   151   156    1
   576   151   150    1
   577   135   134    1
   578   256   258    1
   579   497   480    1
   580   497   518    1
   581   171   172    1
   582   252   253   ar
   583   252   251   ar
   584   167   156    1
   585   167   166   ar
   586   172   170    1
   587   137   136    1
   588   137   144   ar
   589   156   154    1
   590   483   494    1
   591   483   478    1
   592   150   148    1
   593   150   152    1
   594   480   479    1
   595   118   119    2
   596   118   117   ar
   597   488   494   ar
   598   488   489   ar
   599   123   124   ar
   600   104    97   ar
   601   136   134    1
   602   136   131    1
   603   134   132    1
   604   253   247   ar
   605   165   166   ar
   606    98    97   ar
   607    98    99    2
   608   153   170    1
   609   153   152    1
   610   148   149    1
   611   479   477    1
   612   494   493   ar
   613   251   248   ar
   614   143   144   ar
   615   490   489   ar
   616   490   491    2
   617   106    87    2
   618    97    96    1
   619   478   477    1
   620   170   191    2
   621   170   190    1
   622   477   475    1
   623   152   154    1
   624   489   492   ar
   625   258   257    1
   626   154   155    1
   627   124   117   ar
   628   463   462   ar
   629   463   464   ar
   630   117   116    1
   631   462   467   ar
   632   131   130    1
   633   247   248   ar
   634   247   246   ar
   635   257   259    1
   636   149   147    1
   637   132   133    1
   638   132   130    1
   639   248   249   ar
   640   493   492   ar
   641    87    89    1
   642    87   105    1
   643   464   465   ar
   644   133   147    1
   645    96    91    1
   646    96    94    1
   647   246   244   ar
   648   475   476    1
   649    89    88    1
   650   130   128    1
   651   116   114    1
   652   116   111    1
   653    91    90    1
   654   467   468    1
   655   467   466   ar
   656   147   168    2
   657   147   169    1
   658   249   250    2
   659   249   243   ar
   660   259   260    1
   661   259   261    1
   662   260   265    1
   663    94    92    1
   664    94    95    1
   665   114   115    1
   666   114   112    1
   667   275   274   ar
   668   275   276   ar
   669   465   466   ar
   670   465   471   ar
   671   460   459    1
   672   476   474    1
   673   333   332   ar
   674   333   334   ar
   675    92    90    1
   676    92    93    1
   677   111   110    1
   678   274   271   ar
   679   244   243   ar
   680   244   245    1
   681    88    90    1
   682   466   469   ar
   683   126   107    2
   684   332   337   ar
   685   129   128    1
   686   129   127    1
   687   298   279    2
   688   261   262    1
   689   261   263    1
   690   459   461    1
   691   459   457    1
   692   112   110    1
   693   112   113    1
   694   334   335   ar
   695   276   265    1
   696   276   270   ar
   697   262   279    1
   698   109   107    1
   699   109   108    1
   700   265   263    1
   701   471   461    1
   702   471   470   ar
   703   297   279    1
   704   110   108    1
   705   316   315    2
   706    93   107    1
   707   461   456    1
   708   107   125    1
   709   279   281    1
   710   271   270   ar
   711   271   272   ar
   712   146   127    2
   713   330   329    1
   714   474   495    2
   715   474   458    1
   716   474   496    1
   717   469   470   ar
   718   337   338    1
   719   337   336   ar
   720   127   113    1
   721   127   145    1
   722   458   457    1
   723   365   344    2
   724   263   264    1
   725   273   272    2
   726   270   269   ar
   727   457   455    1
   728   335   336   ar
   729   335   341   ar
   730   272   266   ar
   731   315   309   ar
   732   315   314   ar
   733   447   446    1
   734   336   339   ar
   735   294   293    1
   736   456   455    1
   737   295   293   ar
   738   295   296   ar
   739   329   331    1
   740   329   327    1
   741   387   367    2
   742   281   280    1
   743   366   344    1
   744   344   328    1
   745   344   346    1
   746   455   453    1
   747   445   446   ar
   748   445   443   ar
   749   317   314   ar
   750   317   318   ar
   751   269   267   ar
   752   309   310   ar
   753   341   331    1
   754   341   340   ar
   755   331   326    1
   756   293   292   ar
   757   314   313   ar
   758   266   267   ar
   759   446   448   ar
   760   444   443    2
   761   296   289   ar
   762   328   327    1
   763   388   367    1
   764   345   346    1
   765   345   347    1
   766   267   268    1
   767   443   442   ar
   768   280   282    1
   769   327   325    1
   770   367   350    1
   771   367   369    1
   772   427   426    1
   773   339   340   ar
   774   406   405    2
   775   318   319   ar
   776   350   349    1
   777   453   454    1
   778   310   311    1
   779   310   312   ar
   780   292   290   ar
   781   326   325    1
   782   454   452    1
   783   448   449   ar
   784   313   319   ar
   785   313   312   ar
   786   289   290   ar
   787   289   288    1
   788   325   323    1
   789   283   282    1
   790   283   288    1
   791   347   349    1
   792   347   348    1
   793   426   425   ar
   794   426   428   ar
   795   442   449   ar
   796   442   441    1
   797   282   284    1
   798   321   299    2
   799   369   368    1
   800   319   308    1
   801   349   351    1
   802   425   423   ar
   803   405   404   ar
   804   405   399   ar
   805   290   291    2
   806   407   404   ar
   807   407   408   ar
   808   411   389    2
   809   284   285    1
   810   284   286    1
   811   439   440    1
   812   439   441    1
   813   439   437    1
   814   368   370    1
   815   288   286    1
   816   404   403   ar
   817   441   436    1
   818   410   389    1
   819   428   429   ar
   820   348   353    1
   821   399   400   ar
   822   452   473    2
   823   452   472    1
   824   452   438    1
   825   285   299    1
   826   323   324    1
   827   299   301    1
   828   299   320    1
   829   300   301    1
   830   300   302    1
   831   389   373    1
   832   389   391    1
   833   408   409   ar
   834   423   424    2
   835   423   422   ar
   836   286   287    1
   837   437   438    1
   838   437   435    1
   839   308   303    1
   840   308   306    1
   841   352   351    1
   842   351   353    1
   843   303   302    1
   844   304   302    1
   845   304   306    1
   846   304   305    1
   847   373   372    1
   848   343   322    2
   849   324   322    1
   850   370   372    1
   851   370   371    1
   852   306   307    1
   853   372   374    1
   854   353   364    1
   855   403   409   ar
   856   403   402   ar
   857   429   422   ar
   858   436   435    1
   859   400   401    1
   860   400   402   ar
   861   451   432    2
   862   422   421    1
   863   363   364   ar
   864   363   362   ar
   865   431   412    2
   866   409   398    1
   867   305   322    1
   868   390   391    1
   869   390   392    1
   870   322   342    1
   871   385   384   ar
   872   385   386   ar
   873   435   433    1
   874   384   381   ar
   875   364   358   ar
   876   371   376    1
   877   362   359   ar
   878   433   434    1
   879   393   392    1
   880   393   398    1
   881   374   376    1
   882   374   375    1
   883   394   392    1
   884   394   396    1
   885   394   395    1
   886   421   419    1
   887   421   416    1
   888   386   376    1
   889   386   380   ar
   890   432   434    1
   891   432   418    1
   892   432   450    1
   893   419   417    1
   894   419   420    1
   895   398   396    1
   896   412   414    1
   897   412   395    1
   898   412   430    1
   899   414   413    1
   900   381   380   ar
   901   381   382   ar
   902   417   418    1
   903   417   415    1
   904   358   359   ar
   905   358   357   ar
   906   383   382    1
   907   396   397    1
   908   359   360   ar
   909   416   415    1
   910   380   379   ar
   911   382   377   ar
   912   357   355   ar
   913   415   413    1
   914   360   361    2
   915   360   354   ar
   916   379   378   ar
   917   377   378   ar
   918   355   354   ar
   919   355   356    1
