lig.pdb
 OpenBabel03051820513D

 78 81  0  0  1  0  0  0  0  0999 V2000
   -2.4550    7.7050    9.7440 C   0  0  2  0  0  0  0  0  0  0  0  0
   -2.5800    7.2720   11.2420 C   0  0  1  0  0  0  0  0  0  0  0  0
   -1.2040    7.0420   11.9330 C   0  0  0  0  0  0  0  0  0  0  0  0
   -0.2890    6.1410   11.0670 C   0  0  1  0  0  0  0  0  0  0  0  0
   -0.1330    6.7510    9.6560 C   0  0  1  0  0  0  0  0  0  0  0  0
    0.8180    5.8920    8.7800 C   0  0  1  0  0  0  0  0  0  0  0  0
    2.1810    5.6640    9.4990 C   0  0  1  0  0  0  0  0  0  0  0  0
    1.9930    5.1270   10.9490 C   0  0  2  0  0  0  0  0  0  0  0  0
    3.7620    5.4950    7.6320 C   0  0  0  0  0  0  0  0  0  0  0  0
   -1.4380    6.9270    9.0330 O   0  0  0  0  0  0  0  0  0  0  0  0
    1.0090    5.9140   11.6880 O   0  0  0  0  0  0  0  0  0  0  0  0
   -3.3490    8.2880   11.9930 N   0  0  0  0  0  0  0  0  0  0  0  0
    3.0170    4.7630    8.6790 N   0  0  0  0  0  0  0  0  0  0  0  0
    0.2130    4.6570    8.4190 O   0  0  0  0  0  0  0  0  0  0  0  0
    3.2720    5.0880   11.6470 O   0  0  0  0  0  0  0  0  0  0  0  0
   -2.1770    9.1340    9.6290 O   0  0  0  0  0  0  0  0  0  0  0  0
    3.7260    3.8140   12.1990 C   0  0  2  0  0  0  0  0  0  0  0  0
    4.7710    4.0370   13.3290 C   0  0  1  0  0  0  0  0  0  0  0  0
    6.1270    4.5510   12.7660 C   0  0  2  0  0  0  0  0  0  0  0  0
    6.6500    3.6260   11.6290 C   0  0  1  0  0  0  0  0  0  0  0  0
    5.5640    3.4020   10.5400 C   0  0  1  0  0  0  0  0  0  0  0  0
    6.0210    2.3750    9.4710 C   0  0  0  0  0  0  0  0  0  0  0  0
    4.3080    2.9800   11.1530 O   0  0  0  0  0  0  0  0  0  0  0  0
    7.9040    4.1470   11.0420 N   0  0  0  0  0  0  0  0  0  0  0  0
    4.2490    4.9100   14.3290 O   0  0  0  0  0  0  0  0  0  0  0  0
    7.0960    4.6890   13.8030 O   0  0  0  0  0  0  0  0  0  0  0  0
    5.6940    2.8270    8.1610 O   0  0  0  0  0  0  0  0  0  0  0  0
   -3.0860    9.9380    8.8220 C   0  0  1  0  0  0  0  0  0  0  0  0
   -3.5150   11.2410    9.5530 C   0  0  1  0  0  0  0  0  0  0  0  0
   -4.5580   12.0350    8.7170 C   0  0  2  0  0  0  0  0  0  0  0  0
   -4.0630   12.3210    7.2620 C   0  0  1  0  0  0  0  0  0  0  0  0
   -3.5010   11.0530    6.5520 C   0  0  0  0  0  0  0  0  0  0  0  0
   -2.4760   10.2760    7.4320 C   0  0  2  0  0  0  0  0  0  0  0  0
   -5.1340   12.9450    6.4560 N   0  0  0  0  0  0  0  0  0  0  0  0
   -2.0320    9.0640    6.7100 N   0  0  0  0  0  0  0  0  0  0  0  0
   -4.0230   10.9500   10.8510 O   0  0  0  0  0  0  0  0  0  0  0  0
   -4.9010   13.2520    9.3750 O   0  0  0  0  0  0  0  0  0  0  0  0
   -3.4360    7.5030    9.2790 H   0  0  0  0  0  0  0  0  0  0  0  0
   -3.1440    6.3230   11.2760 H   0  0  0  0  0  0  0  0  0  0  0  0
   -1.3550    6.5800   12.9250 H   0  0  0  0  0  0  0  0  0  0  0  0
   -0.7090    8.0120   12.1170 H   0  0  0  0  0  0  0  0  0  0  0  0
   -0.8070    5.1730   10.9480 H   0  0  0  0  0  0  0  0  0  0  0  0
    0.3440    7.7400    9.7800 H   0  0  0  0  0  0  0  0  0  0  0  0
    1.0280    6.4730    7.8640 H   0  0  0  0  0  0  0  0  0  0  0  0
    2.6970    6.6390    9.5640 H   0  0  0  0  0  0  0  0  0  0  0  0
    1.6350    4.0840   10.8690 H   0  0  0  0  0  0  0  0  0  0  0  0
    3.1560    6.3300    7.2400 H   0  0  0  0  0  0  0  0  0  0  0  0
    4.7010    5.9060    8.0430 H   0  0  0  0  0  0  0  0  0  0  0  0
    4.0130    4.8200    6.7930 H   0  0  0  0  0  0  0  0  0  0  0  0
   -2.8490    9.1830   11.9840 H   0  0  0  0  0  0  0  0  0  0  0  0
   -3.4160    8.0200   12.9790 H   0  0  0  0  0  0  0  0  0  0  0  0
    3.6670    4.2460    9.2760 H   0  0  0  0  0  0  0  0  0  0  0  0
    0.2680    4.6060    7.4620 H   0  0  0  0  0  0  0  0  0  0  0  0
    2.8480    3.2660   12.5870 H   0  0  0  0  0  0  0  0  0  0  0  0
    4.9570    3.0600   13.8080 H   0  0  0  0  0  0  0  0  0  0  0  0
    5.9380    5.5420   12.3170 H   0  0  0  0  0  0  0  0  0  0  0  0
    6.8780    2.6430   12.0780 H   0  0  0  0  0  0  0  0  0  0  0  0
    5.3810    4.3720   10.0440 H   0  0  0  0  0  0  0  0  0  0  0  0
    5.5460    1.3960    9.6620 H   0  0  0  0  0  0  0  0  0  0  0  0
    7.1090    2.2070    9.5510 H   0  0  0  0  0  0  0  0  0  0  0  0
    8.4270    3.3840   10.5970 H   0  0  0  0  0  0  0  0  0  0  0  0
    7.6900    4.8110   10.2890 H   0  0  0  0  0  0  0  0  0  0  0  0
    3.4180    4.5220   14.6110 H   0  0  0  0  0  0  0  0  0  0  0  0
    7.2430    3.8060   14.1450 H   0  0  0  0  0  0  0  0  0  0  0  0
    6.3370    2.4250    7.5740 H   0  0  0  0  0  0  0  0  0  0  0  0
   -4.0050    9.3560    8.6340 H   0  0  0  0  0  0  0  0  0  0  0  0
   -2.6210   11.8760    9.6750 H   0  0  0  0  0  0  0  0  0  0  0  0
   -5.4720   11.4200    8.6510 H   0  0  0  0  0  0  0  0  0  0  0  0
   -3.2500   13.0600    7.3380 H   0  0  0  0  0  0  0  0  0  0  0  0
   -4.3350   10.3830    6.2780 H   0  0  0  0  0  0  0  0  0  0  0  0
   -3.0230   11.3440    5.5990 H   0  0  0  0  0  0  0  0  0  0  0  0
   -1.5900   10.9160    7.5970 H   0  0  0  0  0  0  0  0  0  0  0  0
   -5.8710   13.3080    7.0710 H   0  0  0  0  0  0  0  0  0  0  0  0
   -5.5870   12.2380    5.8670 H   0  0  0  0  0  0  0  0  0  0  0  0
   -2.5550    8.2450    7.0410 H   0  0  0  0  0  0  0  0  0  0  0  0
   -1.0480    8.8680    6.9240 H   0  0  0  0  0  0  0  0  0  0  0  0
   -4.5190   10.1330   10.7650 H   0  0  0  0  0  0  0  0  0  0  0  0
   -5.5420   13.6860    8.8090 H   0  0  0  0  0  0  0  0  0  0  0  0
  1 38  1  6  0  0  0
  1  2  1  0  0  0  0
  2 39  1  1  0  0  0
  2  3  1  0  0  0  0
  2 12  1  0  0  0  0
  3 41  1  0  0  0  0
  3 40  1  0  0  0  0
  4 42  1  6  0  0  0
  4 11  1  0  0  0  0
  4  3  1  0  0  0  0
  5 43  1  1  0  0  0
  5  4  1  0  0  0  0
  6 44  1  6  0  0  0
  6  7  1  0  0  0  0
  6  5  1  0  0  0  0
  7 45  1  1  0  0  0
  7  8  1  0  0  0  0
  8 46  1  6  0  0  0
  8 15  1  0  0  0  0
  8 11  1  0  0  0  0
  9 48  1  0  0  0  0
  9 13  1  0  0  0  0
 10  5  1  0  0  0  0
 10  1  1  0  0  0  0
 12 51  1  0  0  0  0
 13 52  1  0  0  0  0
 13  7  1  0  0  0  0
 14  6  1  0  0  0  0
 15 17  1  0  0  0  0
 16  1  1  0  0  0  0
 17 54  1  1  0  0  0
 17 18  1  0  0  0  0
 18 55  1  1  0  0  0
 18 25  1  0  0  0  0
 19 56  1  6  0  0  0
 19 18  1  0  0  0  0
 19 26  1  0  0  0  0
 20 57  1  1  0  0  0
 20 19  1  0  0  0  0
 21 58  1  6  0  0  0
 21 23  1  0  0  0  0
 21 20  1  0  0  0  0
 22 60  1  0  0  0  0
 22 59  1  0  0  0  0
 22 21  1  0  0  0  0
 23 17  1  0  0  0  0
 24 20  1  0  0  0  0
 25 63  1  0  0  0  0
 26 64  1  0  0  0  0
 27 22  1  0  0  0  0
 28 66  1  6  0  0  0
 28 29  1  0  0  0  0
 28 16  1  0  0  0  0
 29 67  1  1  0  0  0
 29 36  1  0  0  0  0
 30 68  1  6  0  0  0
 30 37  1  0  0  0  0
 30 29  1  0  0  0  0
 31 69  1  1  0  0  0
 31 30  1  0  0  0  0
 32 31  1  0  0  0  0
 32 33  1  0  0  0  0
 33 72  1  1  0  0  0
 33 28  1  0  0  0  0
 34 73  1  0  0  0  0
 34 31  1  0  0  0  0
 35 76  1  0  0  0  0
 35 75  1  0  0  0  0
 35 33  1  0  0  0  0
 47  9  1  0  0  0  0
 49  9  1  0  0  0  0
 50 12  1  0  0  0  0
 53 14  1  0  0  0  0
 61 24  1  0  0  0  0
 62 24  1  0  0  0  0
 65 27  1  0  0  0  0
 70 32  1  0  0  0  0
 71 32  1  0  0  0  0
 74 34  1  0  0  0  0
 77 36  1  0  0  0  0
 78 37  1  0  0  0  0
M  END
$$$$
