lig.pdb
 OpenBabel11021811453D
libRbt.so/2013.1/901 2013/11/27
 37 40  0  0  0  0  0  0  0  0999 V2000
   -2.3827    7.5481    9.1637 C   0  0  2  0  0  0  0  0  0  0  0  0
   -2.5888    7.1650   10.6663 C   0  0  1  0  0  0  0  0  0  0  0  0
   -1.2524    6.9674   11.4400 C   0  0  0  0  0  0  0  0  0  0  0  0
   -0.2865    6.0437   10.6572 C   0  0  1  0  0  0  0  0  0  0  0  0
   -0.0550    6.6068    9.2371 C   0  0  1  0  0  0  0  0  0  0  0  0
    0.9473    5.7250    8.4449 C   0  0  1  0  0  0  0  0  0  0  0  0
    2.2692    5.5302    9.2458 C   0  0  1  0  0  0  0  0  0  0  0  0
    2.0032    5.0411   10.7005 C   0  0  2  0  0  0  0  0  0  0  0  0
    4.2541    5.3209    7.8209 C   0  0  0  0  0  0  0  0  0  0  0  0
   -1.3241    6.7532    8.5370 O   0  0  0  0  0  0  0  0  0  0  0  0
    0.9760    5.8462   11.3566 O   0  0  0  0  0  0  0  0  0  0  0  0
   -3.4031    8.2007   11.3385 N   0  0  0  0  0  0  0  0  0  0  0  0
    3.1537    4.6076    8.5045 N   0  0  0  0  0  0  0  0  0  0  0  0
    0.3690    4.4746    8.0931 O   0  0  0  0  0  0  0  0  0  0  0  0
    3.2416    5.0340   11.4693 O   0  0  0  0  0  0  0  0  0  0  0  0
   -2.1053    8.9742    9.0157 O   0  0  0  0  0  0  0  0  0  0  0  0
    3.7810    3.7498   11.9096 C   0  0  2  0  0  0  0  0  0  0  0  0
    4.7790    3.9389   13.0872 C   0  0  1  0  0  0  0  0  0  0  0  0
    6.1033    4.6068   12.6180 C   0  0  2  0  0  0  0  0  0  0  0  0
    6.7231    3.8405   11.4137 C   0  0  1  0  0  0  0  0  0  0  0  0
    5.6833    3.6433   10.2755 C   0  0  1  0  0  0  0  0  0  0  0  0
    6.2437    2.7640    9.1270 C   0  0  0  0  0  0  0  0  0  0  0  0
    4.4504    3.0693   10.8063 O   0  0  0  0  0  0  0  0  0  0  0  0
    7.9457    4.5100   10.9182 N   0  0  0  0  0  0  0  0  0  0  0  0
    4.1675    4.6672   14.1503 O   0  0  0  0  0  0  0  0  0  0  0  0
    7.0344    4.7149   13.6926 O   0  0  0  0  0  0  0  0  0  0  0  0
    6.0042    1.3838    9.3817 O   0  0  0  0  0  0  0  0  0  0  0  0
   -3.0378    9.7671    8.2247 C   0  0  1  0  0  0  0  0  0  0  0  0
   -3.5131   11.0364    8.9857 C   0  0  1  0  0  0  0  0  0  0  0  0
   -4.5791   11.8155    8.1648 C   0  0  2  0  0  0  0  0  0  0  0  0
   -4.0886   12.1539    6.7196 C   0  0  1  0  0  0  0  0  0  0  0  0
   -3.4816   10.9235    5.9811 C   0  0  0  0  0  0  0  0  0  0  0  0
   -2.4343   10.1597    6.8463 C   0  0  2  0  0  0  0  0  0  0  0  0
   -5.1770   12.7615    5.9243 N   0  0  0  0  0  0  0  0  0  0  0  0
   -1.9471    8.9816    6.0966 N   0  0  0  0  0  0  0  0  0  0  0  0
   -4.0159   10.6964   10.2738 O   0  0  0  0  0  0  0  0  0  0  0  0
   -4.9653   13.0036    8.8511 O   0  0  0  0  0  0  0  0  0  0  0  0
  1  2  1  0  0  0  0
  1 16  1  1  0  0  0
  2  3  1  0  0  0  0
  2 12  1  1  0  0  0
  4 11  1  1  0  0  0
  4  3  1  0  0  0  0
  5  4  1  0  0  0  0
  5 10  1  6  0  0  0
  6  7  1  0  0  0  0
  6  5  1  0  0  0  0
  6 14  1  1  0  0  0
  7  8  1  0  0  0  0
  7 13  1  6  0  0  0
  8 15  1  1  0  0  0
  8 11  1  0  0  0  0
  9 13  1  0  0  0  0
 10  1  1  0  0  0  0
 17 15  1  6  0  0  0
 17 18  1  0  0  0  0
 18 25  1  1  0  0  0
 19 18  1  0  0  0  0
 19 26  1  1  0  0  0
 20 19  1  0  0  0  0
 20 24  1  6  0  0  0
 21 23  1  0  0  0  0
 21 20  1  0  0  0  0
 21 22  1  6  0  0  0
 23 17  1  0  0  0  0
 27 22  1  0  0  0  0
 28 29  1  0  0  0  0
 28 16  1  1  0  0  0
 29 36  1  1  0  0  0
 30 37  1  1  0  0  0
 30 29  1  0  0  0  0
 31 30  1  0  0  0  0
 31 34  1  6  0  0  0
 32 31  1  0  0  0  0
 32 33  1  0  0  0  0
 33 28  1  0  0  0  0
 33 35  1  6  0  0  0
M  END
>  <CHROM.1>
149.31941402,-113.46277825,103.88485693,48.04008664,-160.41881649,-119.16077304
-56.94879365,179.21980787,88.14091291,73.10336245,-58.71825090,128.92240130
179.74978170,-159.81611552,178.59425126,-75.18278991,0.82063077,6.80375098
9.72381706,2.87105652,0.64382255,-1.56765793

>  <Name>
lig.pdb

>  <RI>
0

>  <Rbt.Current_Directory>
/home/itssahil/PROJECTS/Mol_Feturizer/New_Systems/rnas/2m4q

>  <Rbt.Executable>
rbdock ($Id: //depot/dev/client3/rdock/2013.1/src/exe/rbdock.cxx#4 $)

>  <Rbt.Library>
libRbt.so (2013.1, Build901 2013/11/27)

>  <Rbt.Parameter_File>
/export/apps/rDock/src/rDock_2013.1_src/data/scripts/dock_solv.prm

>  <Rbt.Receptor>
prm/pocket_docking_2.prm

>  <SCORE>
-41.1583

>  <SCORE.INTER>
-30.4717

>  <SCORE.INTER.CONST>
1

>  <SCORE.INTER.POLAR>
-4.04118

>  <SCORE.INTER.ROT>
10

>  <SCORE.INTER.SOLV>
17.9087

>  <SCORE.INTER.VDW>
-23.0801

>  <SCORE.INTER.norm>
-0.823559

>  <SCORE.INTRA>
-10.7056

>  <SCORE.INTRA.DIHEDRAL>
-13.2999

>  <SCORE.INTRA.DIHEDRAL.0>
44.8331

>  <SCORE.INTRA.POLAR>
-0.836119

>  <SCORE.INTRA.POLAR.0>
-0.108895

>  <SCORE.INTRA.REPUL>
-0.00756305

>  <SCORE.INTRA.REPUL.0>
0.00912235

>  <SCORE.INTRA.SOLV>
-0.20843

>  <SCORE.INTRA.SOLV.lig_0>
-53.9067

>  <SCORE.INTRA.VDW>
-1.07081

>  <SCORE.INTRA.VDW.0>
-2.93492

>  <SCORE.INTRA.norm>
-0.28934

>  <SCORE.RESTR>
0.0189355

>  <SCORE.RESTR.CAVITY>
0.0189355

>  <SCORE.RESTR.norm>
0.000511769

>  <SCORE.SYSTEM>
0

>  <SCORE.SYSTEM.CONST>
0

>  <SCORE.SYSTEM.DIHEDRAL>
0

>  <SCORE.SYSTEM.SOLV>
0

>  <SCORE.SYSTEM.norm>
0

>  <SCORE.heavy>
37

>  <SCORE.norm>
-1.11239

>  <RMSD>
0.567

$$$$
lig.pdb
 OpenBabel11021811453D
libRbt.so/2013.1/901 2013/11/27
 37 40  0  0  0  0  0  0  0  0999 V2000
   -2.2490    7.4767    9.3878 C   0  0  2  0  0  0  0  0  0  0  0  0
   -2.4516    6.9140   10.8333 C   0  0  1  0  0  0  0  0  0  0  0  0
   -1.1161    6.7104   11.6072 C   0  0  0  0  0  0  0  0  0  0  0  0
   -0.0843    5.9410   10.7457 C   0  0  1  0  0  0  0  0  0  0  0  0
    0.1313    6.6744    9.4029 C   0  0  1  0  0  0  0  0  0  0  0  0
    1.1969    5.9498    8.5374 C   0  0  1  0  0  0  0  0  0  0  0  0
    2.5173    5.7450    9.3383 C   0  0  1  0  0  0  0  0  0  0  0  0
    2.2623    5.0791   10.7231 C   0  0  2  0  0  0  0  0  0  0  0  0
    4.3363    5.8383    7.6962 C   0  0  0  0  0  0  0  0  0  0  0  0
   -1.1348    6.8229    8.6978 O   0  0  0  0  0  0  0  0  0  0  0  0
    1.1783    5.7415   11.4442 O   0  0  0  0  0  0  0  0  0  0  0  0
   -3.3375    7.8161   11.6008 N   0  0  0  0  0  0  0  0  0  0  0  0
    3.4672    4.9671    8.5164 N   0  0  0  0  0  0  0  0  0  0  0  0
    0.7020    4.7149    8.0355 O   0  0  0  0  0  0  0  0  0  0  0  0
    3.4881    5.0591   11.5115 O   0  0  0  0  0  0  0  0  0  0  0  0
   -2.0584    8.9244    9.4068 O   0  0  0  0  0  0  0  0  0  0  0  0
    3.8043    3.8561   12.2775 C   0  0  2  0  0  0  0  0  0  0  0  0
    4.9161    4.1401   13.3273 C   0  0  1  0  0  0  0  0  0  0  0  0
    6.2999    4.3659   12.6536 C   0  0  2  0  0  0  0  0  0  0  0  0
    6.6557    3.1933   11.6943 C   0  0  1  0  0  0  0  0  0  0  0  0
    5.5049    2.9210   10.6858 C   0  0  1  0  0  0  0  0  0  0  0  0
    5.7856    1.6695    9.8131 C   0  0  0  0  0  0  0  0  0  0  0  0
    4.2337    2.7809   11.3899 O   0  0  0  0  0  0  0  0  0  0  0  0
    7.9383    3.4348   10.9977 N   0  0  0  0  0  0  0  0  0  0  0  0
    4.5490    5.2374   14.1614 O   0  0  0  0  0  0  0  0  0  0  0  0
    7.3219    4.5602   13.6289 O   0  0  0  0  0  0  0  0  0  0  0  0
    5.3735    0.4820   10.4820 O   0  0  0  0  0  0  0  0  0  0  0  0
   -2.9696    9.7379    8.6119 C   0  0  1  0  0  0  0  0  0  0  0  0
   -3.4024   11.0285    9.3624 C   0  0  1  0  0  0  0  0  0  0  0  0
   -4.4476   11.8320    8.5383 C   0  0  2  0  0  0  0  0  0  0  0  0
   -3.9532   12.1414    7.0879 C   0  0  1  0  0  0  0  0  0  0  0  0
   -3.3875   10.8859    6.3589 C   0  0  0  0  0  0  0  0  0  0  0  0
   -2.3604   10.0987    7.2273 C   0  0  2  0  0  0  0  0  0  0  0  0
   -5.0259   12.7745    6.2913 N   0  0  0  0  0  0  0  0  0  0  0  0
   -1.9128    8.8990    6.4871 N   0  0  0  0  0  0  0  0  0  0  0  0
   -3.9098   10.7164   10.6558 O   0  0  0  0  0  0  0  0  0  0  0  0
   -4.7942   13.0380    9.2146 O   0  0  0  0  0  0  0  0  0  0  0  0
  1  2  1  0  0  0  0
  1 16  1  1  0  0  0
  2  3  1  0  0  0  0
  2 12  1  1  0  0  0
  4 11  1  1  0  0  0
  4  3  1  0  0  0  0
  5  4  1  0  0  0  0
  5 10  1  6  0  0  0
  6  7  1  0  0  0  0
  6  5  1  0  0  0  0
  6 14  1  1  0  0  0
  7  8  1  0  0  0  0
  7 13  1  6  0  0  0
  8 15  1  1  0  0  0
  8 11  1  0  0  0  0
  9 13  1  0  0  0  0
 10  1  1  0  0  0  0
 17 15  1  6  0  0  0
 17 18  1  0  0  0  0
 18 25  1  6  0  0  0
 19 18  1  0  0  0  0
 19 26  1  1  0  0  0
 20 19  1  0  0  0  0
 20 24  1  6  0  0  0
 21 23  1  0  0  0  0
 21 20  1  0  0  0  0
 21 22  1  1  0  0  0
 23 17  1  0  0  0  0
 27 22  1  0  0  0  0
 28 29  1  0  0  0  0
 28 16  1  1  0  0  0
 29 36  1  1  0  0  0
 30 37  1  1  0  0  0
 30 29  1  0  0  0  0
 31 30  1  0  0  0  0
 31 34  1  6  0  0  0
 32 31  1  0  0  0  0
 32 33  1  0  0  0  0
 33 28  1  0  0  0  0
 33 35  1  6  0  0  0
M  END
>  <CHROM.1>
28.67974833,-138.44201994,90.79345607,48.37724534,-165.07578210,-123.51403250
177.19587253,-175.89533245,84.90411175,-172.76896815,-174.20275441,138.93685284
-171.58396146,-163.84489261,-75.61233336,61.24426378,0.91588941,6.69591266
9.97289387,2.92712087,0.68630333,-1.64572478

>  <Name>
lig.pdb

>  <RI>
0

>  <Rbt.Current_Directory>
/home/itssahil/PROJECTS/Mol_Feturizer/New_Systems/rnas/2m4q

>  <Rbt.Executable>
rbdock ($Id: //depot/dev/client3/rdock/2013.1/src/exe/rbdock.cxx#4 $)

>  <Rbt.Library>
libRbt.so (2013.1, Build901 2013/11/27)

>  <Rbt.Parameter_File>
/export/apps/rDock/src/rDock_2013.1_src/data/scripts/dock_solv.prm

>  <Rbt.Receptor>
prm/pocket_docking_2.prm

>  <SCORE>
-38.2925

>  <SCORE.INTER>
-26.3803

>  <SCORE.INTER.CONST>
1

>  <SCORE.INTER.POLAR>
-3.53044

>  <SCORE.INTER.ROT>
10

>  <SCORE.INTER.SOLV>
16.4074

>  <SCORE.INTER.VDW>
-21.5545

>  <SCORE.INTER.norm>
-0.71298

>  <SCORE.INTRA>
-12.4916

>  <SCORE.INTRA.DIHEDRAL>
-17.8788

>  <SCORE.INTRA.DIHEDRAL.0>
44.8331

>  <SCORE.INTRA.POLAR>
-0.683525

>  <SCORE.INTRA.POLAR.0>
-0.108895

>  <SCORE.INTRA.REPUL>
-0.00698656

>  <SCORE.INTRA.REPUL.0>
0.00912235

>  <SCORE.INTRA.SOLV>
-0.615311

>  <SCORE.INTRA.SOLV.lig_0>
-53.9067

>  <SCORE.INTRA.VDW>
-0.88561

>  <SCORE.INTRA.VDW.0>
-2.93492

>  <SCORE.INTRA.norm>
-0.33761

>  <SCORE.RESTR>
0.579344

>  <SCORE.RESTR.CAVITY>
0.579344

>  <SCORE.RESTR.norm>
0.015658

>  <SCORE.SYSTEM>
0

>  <SCORE.SYSTEM.CONST>
0

>  <SCORE.SYSTEM.DIHEDRAL>
0

>  <SCORE.SYSTEM.SOLV>
0

>  <SCORE.SYSTEM.norm>
0

>  <SCORE.heavy>
37

>  <SCORE.norm>
-1.03493

>  <RMSD>
0.689

$$$$
lig.pdb
 OpenBabel11021811453D
libRbt.so/2013.1/901 2013/11/27
 37 40  0  0  0  0  0  0  0  0999 V2000
   -2.3399    7.5138    9.1581 C   0  0  2  0  0  0  0  0  0  0  0  0
   -2.6257    7.1133   10.6430 C   0  0  1  0  0  0  0  0  0  0  0  0
   -1.3322    6.9011   11.4831 C   0  0  0  0  0  0  0  0  0  0  0  0
   -0.3297    5.9832   10.7406 C   0  0  1  0  0  0  0  0  0  0  0  0
   -0.0223    6.5626    9.3416 C   0  0  1  0  0  0  0  0  0  0  0  0
    1.0171    5.6865    8.5921 C   0  0  1  0  0  0  0  0  0  0  0  0
    2.2946    5.4769    9.4585 C   0  0  1  0  0  0  0  0  0  0  0  0
    1.9513    4.9713   10.8913 C   0  0  2  0  0  0  0  0  0  0  0  0
    4.5667    5.1369    8.6007 C   0  0  0  0  0  0  0  0  0  0  0  0
   -1.2526    6.7224    8.5780 O   0  0  0  0  0  0  0  0  0  0  0  0
    0.8938    5.7723   11.5026 O   0  0  0  0  0  0  0  0  0  0  0  0
   -3.4707    8.1440   11.2844 N   0  0  0  0  0  0  0  0  0  0  0  0
    3.2137    4.5598    8.7533 N   0  0  0  0  0  0  0  0  0  0  0  0
    0.4540    4.4427    8.1952 O   0  0  0  0  0  0  0  0  0  0  0  0
    3.1477    4.9500   11.7236 O   0  0  0  0  0  0  0  0  0  0  0  0
   -2.0505    8.9404    9.0424 O   0  0  0  0  0  0  0  0  0  0  0  0
    3.4719    3.7227   12.4465 C   0  0  2  0  0  0  0  0  0  0  0  0
    4.5342    3.9901   13.5504 C   0  0  1  0  0  0  0  0  0  0  0  0
    5.9348    4.2868   12.9418 C   0  0  2  0  0  0  0  0  0  0  0  0
    6.3622    3.1704   11.9453 C   0  0  1  0  0  0  0  0  0  0  0  0
    5.2589    2.9115   10.8817 C   0  0  1  0  0  0  0  0  0  0  0  0
    5.6105    1.7103    9.9653 C   0  0  0  0  0  0  0  0  0  0  0  0
    3.9671    2.7024   11.5288 O   0  0  0  0  0  0  0  0  0  0  0  0
    7.6619    3.4809   11.3107 N   0  0  0  0  0  0  0  0  0  0  0  0
    4.1025    5.0368   14.4181 O   0  0  0  0  0  0  0  0  0  0  0  0
    6.9129    4.4655   13.9639 O   0  0  0  0  0  0  0  0  0  0  0  0
    5.1019    0.4948   10.5050 O   0  0  0  0  0  0  0  0  0  0  0  0
   -2.9538    9.7515    8.2361 C   0  0  1  0  0  0  0  0  0  0  0  0
   -3.3337   11.0805    8.9472 C   0  0  1  0  0  0  0  0  0  0  0  0
   -4.3717   11.8846    8.1146 C   0  0  2  0  0  0  0  0  0  0  0  0
   -3.8982   12.1268    6.6446 C   0  0  1  0  0  0  0  0  0  0  0  0
   -3.3840   10.8297    5.9512 C   0  0  0  0  0  0  0  0  0  0  0  0
   -2.3627   10.0440    6.8277 C   0  0  2  0  0  0  0  0  0  0  0  0
   -4.9681   12.7623    5.8462 N   0  0  0  0  0  0  0  0  0  0  0  0
   -1.9652    8.8058    6.1234 N   0  0  0  0  0  0  0  0  0  0  0  0
   -3.8234   10.8303   10.2606 O   0  0  0  0  0  0  0  0  0  0  0  0
   -4.6694   13.1238    8.7530 O   0  0  0  0  0  0  0  0  0  0  0  0
  1  2  1  0  0  0  0
  1 16  1  1  0  0  0
  2  3  1  0  0  0  0
  2 12  1  1  0  0  0
  4 11  1  1  0  0  0
  4  3  1  0  0  0  0
  5  4  1  0  0  0  0
  5 10  1  6  0  0  0
  6  7  1  0  0  0  0
  6  5  1  0  0  0  0
  6 14  1  1  0  0  0
  7  8  1  0  0  0  0
  7 13  1  6  0  0  0
  8 15  1  1  0  0  0
  8 11  1  0  0  0  0
  9 13  1  0  0  0  0
 10  1  1  0  0  0  0
 17 15  1  6  0  0  0
 17 18  1  0  0  0  0
 18 25  1  6  0  0  0
 19 18  1  0  0  0  0
 19 26  1  1  0  0  0
 20 19  1  0  0  0  0
 20 24  1  6  0  0  0
 21 23  1  0  0  0  0
 21 20  1  0  0  0  0
 21 22  1  1  0  0  0
 23 17  1  0  0  0  0
 27 22  1  0  0  0  0
 28 29  1  0  0  0  0
 28 16  1  1  0  0  0
 29 36  1  1  0  0  0
 30 37  1  1  0  0  0
 30 29  1  0  0  0  0
 31 30  1  0  0  0  0
 31 34  1  6  0  0  0
 32 31  1  0  0  0  0
 32 33  1  0  0  0  0
 33 28  1  0  0  0  0
 33 35  1  6  0  0  0
M  END
>  <CHROM.1>
-85.28691084,-128.47867963,126.20569263,55.30213257,-164.99514066,-117.91220262
-56.80753128,65.76620082,90.24244806,67.71644720,65.46857558,134.61473652
-24.59882515,58.59238519,54.53842312,-68.61692367,0.75949158,6.63640804,9.94636645
2.92102554,0.72809107,-1.71527310

>  <Name>
lig.pdb

>  <RI>
0

>  <Rbt.Current_Directory>
/home/itssahil/PROJECTS/Mol_Feturizer/New_Systems/rnas/2m4q

>  <Rbt.Executable>
rbdock ($Id: //depot/dev/client3/rdock/2013.1/src/exe/rbdock.cxx#4 $)

>  <Rbt.Library>
libRbt.so (2013.1, Build901 2013/11/27)

>  <Rbt.Parameter_File>
/export/apps/rDock/src/rDock_2013.1_src/data/scripts/dock_solv.prm

>  <Rbt.Receptor>
prm/pocket_docking_2.prm

>  <SCORE>
-40.0763

>  <SCORE.INTER>
-31.1998

>  <SCORE.INTER.CONST>
1

>  <SCORE.INTER.POLAR>
-4.10637

>  <SCORE.INTER.ROT>
10

>  <SCORE.INTER.SOLV>
17.4201

>  <SCORE.INTER.VDW>
-23.1853

>  <SCORE.INTER.norm>
-0.843239

>  <SCORE.INTRA>
-9.44014

>  <SCORE.INTRA.DIHEDRAL>
-12.3592

>  <SCORE.INTRA.DIHEDRAL.0>
44.8331

>  <SCORE.INTRA.POLAR>
-0.561823

>  <SCORE.INTRA.POLAR.0>
-0.108895

>  <SCORE.INTRA.REPUL>
-0.00912235

>  <SCORE.INTRA.REPUL.0>
0.00912235

>  <SCORE.INTRA.SOLV>
-0.523132

>  <SCORE.INTRA.SOLV.lig_0>
-53.9067

>  <SCORE.INTRA.VDW>
-1.04318

>  <SCORE.INTRA.VDW.0>
-2.93492

>  <SCORE.INTRA.norm>
-0.255139

>  <SCORE.RESTR>
0.56367

>  <SCORE.RESTR.CAVITY>
0.56367

>  <SCORE.RESTR.norm>
0.0152343

>  <SCORE.SYSTEM>
0

>  <SCORE.SYSTEM.CONST>
0

>  <SCORE.SYSTEM.DIHEDRAL>
0

>  <SCORE.SYSTEM.SOLV>
0

>  <SCORE.SYSTEM.norm>
0

>  <SCORE.heavy>
37

>  <SCORE.norm>
-1.08314

>  <RMSD>
0.796

$$$$
lig.pdb
 OpenBabel11021811453D
libRbt.so/2013.1/901 2013/11/27
 37 40  0  0  0  0  0  0  0  0999 V2000
   -2.4676    7.4842    9.8040 C   0  0  2  0  0  0  0  0  0  0  0  0
   -2.5770    7.0362   11.2988 C   0  0  1  0  0  0  0  0  0  0  0  0
   -1.1937    6.8481   11.9878 C   0  0  0  0  0  0  0  0  0  0  0  0
   -0.2489    5.9852   11.1150 C   0  0  1  0  0  0  0  0  0  0  0  0
   -0.1144    6.6106    9.7085 C   0  0  1  0  0  0  0  0  0  0  0  0
    0.8649    5.7909    8.8260 C   0  0  1  0  0  0  0  0  0  0  0  0
    2.2352    5.6042    9.5430 C   0  0  1  0  0  0  0  0  0  0  0  0
    2.0663    5.0505   10.9890 C   0  0  2  0  0  0  0  0  0  0  0  0
    4.5227    5.1383    8.7921 C   0  0  0  0  0  0  0  0  0  0  0  0
   -1.4250    6.7466    9.0871 O   0  0  0  0  0  0  0  0  0  0  0  0
    1.0564    5.7980   11.7340 O   0  0  0  0  0  0  0  0  0  0  0  0
   -3.3798    8.0198   12.0575 N   0  0  0  0  0  0  0  0  0  0  0  0
    3.1010    4.7383    8.7162 N   0  0  0  0  0  0  0  0  0  0  0  0
    0.3021    4.5387    8.4560 O   0  0  0  0  0  0  0  0  0  0  0  0
    3.3462    5.0499   11.6864 O   0  0  0  0  0  0  0  0  0  0  0  0
   -2.2385    8.9227    9.6995 O   0  0  0  0  0  0  0  0  0  0  0  0
    3.5729    4.0488   12.7258 C   0  0  2  0  0  0  0  0  0  0  0  0
    4.4965    4.6073   13.8455 C   0  0  1  0  0  0  0  0  0  0  0  0
    5.9620    4.7766   13.3520 C   0  0  2  0  0  0  0  0  0  0  0  0
    6.4988    3.4580   12.7234 C   0  0  1  0  0  0  0  0  0  0  0  0
    5.5299    2.9169   11.6353 C   0  0  1  0  0  0  0  0  0  0  0  0
    5.9812    1.5342   11.0959 C   0  0  0  0  0  0  0  0  0  0  0  0
    4.1683    2.8445   12.1569 O   0  0  0  0  0  0  0  0  0  0  0  0
    7.8675    3.6318   12.1895 N   0  0  0  0  0  0  0  0  0  0  0  0
    3.9705    5.8262   14.3673 O   0  0  0  0  0  0  0  0  0  0  0  0
    6.8113    5.2268   14.4053 O   0  0  0  0  0  0  0  0  0  0  0  0
    4.9925    0.9782   10.2353 O   0  0  0  0  0  0  0  0  0  0  0  0
   -3.1094    9.6846    8.8136 C   0  0  1  0  0  0  0  0  0  0  0  0
   -3.6832   10.9505    9.5096 C   0  0  1  0  0  0  0  0  0  0  0  0
   -4.6839   11.6952    8.5816 C   0  0  2  0  0  0  0  0  0  0  0  0
   -4.0664   12.0294    7.1849 C   0  0  1  0  0  0  0  0  0  0  0  0
   -3.3646   10.8057    6.5232 C   0  0  0  0  0  0  0  0  0  0  0  0
   -2.3871   10.0764    7.4934 C   0  0  2  0  0  0  0  0  0  0  0  0
   -5.0879   12.6024    6.2825 N   0  0  0  0  0  0  0  0  0  0  0  0
   -1.8046    8.9020    6.8085 N   0  0  0  0  0  0  0  0  0  0  0  0
   -4.2979   10.6128   10.7488 O   0  0  0  0  0  0  0  0  0  0  0  0
   -5.1600   12.8812    9.2127 O   0  0  0  0  0  0  0  0  0  0  0  0
  1  2  1  0  0  0  0
  1 16  1  1  0  0  0
  2  3  1  0  0  0  0
  2 12  1  1  0  0  0
  4 11  1  1  0  0  0
  4  3  1  0  0  0  0
  5  4  1  0  0  0  0
  5 10  1  6  0  0  0
  6  7  1  0  0  0  0
  6  5  1  0  0  0  0
  6 14  1  1  0  0  0
  7  8  1  0  0  0  0
  7 13  1  6  0  0  0
  8 15  1  1  0  0  0
  8 11  1  0  0  0  0
  9 13  1  0  0  0  0
 10  1  1  0  0  0  0
 17 15  1  6  0  0  0
 17 18  1  0  0  0  0
 18 25  1  6  0  0  0
 19 18  1  0  0  0  0
 19 26  1  1  0  0  0
 20 19  1  0  0  0  0
 20 24  1  6  0  0  0
 21 23  1  0  0  0  0
 21 20  1  0  0  0  0
 21 22  1  1  0  0  0
 23 17  1  0  0  0  0
 27 22  1  0  0  0  0
 28 29  1  0  0  0  0
 28 16  1  1  0  0  0
 29 36  1  1  0  0  0
 30 37  1  1  0  0  0
 30 29  1  0  0  0  0
 31 30  1  0  0  0  0
 31 34  1  6  0  0  0
 32 31  1  0  0  0  0
 32 33  1  0  0  0  0
 33 28  1  0  0  0  0
 33 35  1  6  0  0  0
M  END
>  <CHROM.1>
-108.75165052,-151.06879839,144.59948676,60.52452865,-147.87292575,-129.10878610
62.48013609,-58.40150642,172.29155473,-52.47011612,-178.64597825,130.96855075
43.13157375,-67.51468638,179.66748676,-24.91956378,0.72247226,6.73370599
10.38193262,2.98243526,0.69744307,-1.79735598

>  <Name>
lig.pdb

>  <RI>
0

>  <Rbt.Current_Directory>
/home/itssahil/PROJECTS/Mol_Feturizer/New_Systems/rnas/2m4q

>  <Rbt.Executable>
rbdock ($Id: //depot/dev/client3/rdock/2013.1/src/exe/rbdock.cxx#4 $)

>  <Rbt.Library>
libRbt.so (2013.1, Build901 2013/11/27)

>  <Rbt.Parameter_File>
/export/apps/rDock/src/rDock_2013.1_src/data/scripts/dock_solv.prm

>  <Rbt.Receptor>
prm/pocket_docking_2.prm

>  <SCORE>
-35.4406

>  <SCORE.INTER>
-19.3763

>  <SCORE.INTER.CONST>
1

>  <SCORE.INTER.POLAR>
-2.08931

>  <SCORE.INTER.ROT>
10

>  <SCORE.INTER.SOLV>
16.7434

>  <SCORE.INTER.VDW>
-21.801

>  <SCORE.INTER.norm>
-0.523685

>  <SCORE.INTRA>
-16.2482

>  <SCORE.INTRA.DIHEDRAL>
-16.6453

>  <SCORE.INTRA.DIHEDRAL.0>
44.8331

>  <SCORE.INTRA.POLAR>
-1.79791

>  <SCORE.INTRA.POLAR.0>
-0.108895

>  <SCORE.INTRA.REPUL>
-0.00912235

>  <SCORE.INTRA.REPUL.0>
0.00912235

>  <SCORE.INTRA.SOLV>
-1.25788

>  <SCORE.INTRA.SOLV.lig_0>
-53.9067

>  <SCORE.INTRA.VDW>
-1.13814

>  <SCORE.INTRA.VDW.0>
-2.93492

>  <SCORE.INTRA.norm>
-0.439141

>  <SCORE.RESTR>
0.183952

>  <SCORE.RESTR.CAVITY>
0.183952

>  <SCORE.RESTR.norm>
0.00497168

>  <SCORE.SYSTEM>
0

>  <SCORE.SYSTEM.CONST>
0

>  <SCORE.SYSTEM.DIHEDRAL>
0

>  <SCORE.SYSTEM.SOLV>
0

>  <SCORE.SYSTEM.norm>
0

>  <SCORE.heavy>
37

>  <SCORE.norm>
-0.957854

>  <RMSD>
0.800

$$$$
lig.pdb
 OpenBabel11021811453D
libRbt.so/2013.1/901 2013/11/27
 37 40  0  0  0  0  0  0  0  0999 V2000
   -2.2684    7.6699    8.9822 C   0  0  2  0  0  0  0  0  0  0  0  0
   -2.5504    7.1593   10.4338 C   0  0  1  0  0  0  0  0  0  0  0  0
   -1.2549    6.8962   11.2561 C   0  0  0  0  0  0  0  0  0  0  0  0
   -0.2456    6.0431   10.4484 C   0  0  1  0  0  0  0  0  0  0  0  0
    0.0566    6.7259    9.0957 C   0  0  1  0  0  0  0  0  0  0  0  0
    1.1025    5.9153    8.2840 C   0  0  1  0  0  0  0  0  0  0  0  0
    2.3820    5.6527    9.1329 C   0  0  1  0  0  0  0  0  0  0  0  0
    2.0433    5.0406   10.5246 C   0  0  2  0  0  0  0  0  0  0  0  0
    4.1329    5.5803    7.4173 C   0  0  0  0  0  0  0  0  0  0  0  0
   -1.1752    6.9317    8.3457 O   0  0  0  0  0  0  0  0  0  0  0  0
    0.9799    5.7864   11.1930 O   0  0  0  0  0  0  0  0  0  0  0  0
   -3.4031    8.1335   11.1490 N   0  0  0  0  0  0  0  0  0  0  0  0
    3.3079    4.7970    8.3623 N   0  0  0  0  0  0  0  0  0  0  0  0
    0.5489    4.6997    7.7969 O   0  0  0  0  0  0  0  0  0  0  0  0
    3.2402    4.9677   11.3533 O   0  0  0  0  0  0  0  0  0  0  0  0
   -1.9902    9.1034    8.9716 O   0  0  0  0  0  0  0  0  0  0  0  0
    3.4220    3.8011   12.2136 C   0  0  2  0  0  0  0  0  0  0  0  0
    4.1410    4.1909   13.5364 C   0  0  1  0  0  0  0  0  0  0  0  0
    5.6362    4.5466   13.2959 C   0  0  2  0  0  0  0  0  0  0  0  0
    6.3657    3.4121   12.5196 C   0  0  1  0  0  0  0  0  0  0  0  0
    5.5963    3.0303   11.2243 C   0  0  1  0  0  0  0  0  0  0  0  0
    6.2358    1.8102   10.5109 C   0  0  0  0  0  0  0  0  0  0  0  0
    4.1914    2.7707   11.5247 O   0  0  0  0  0  0  0  0  0  0  0  0
    7.7700    3.7738   12.2268 N   0  0  0  0  0  0  0  0  0  0  0  0
    3.4448    5.2492   14.1920 O   0  0  0  0  0  0  0  0  0  0  0  0
    6.3000    4.8384   14.5237 O   0  0  0  0  0  0  0  0  0  0  0  0
    5.4761    1.4366    9.3661 O   0  0  0  0  0  0  0  0  0  0  0  0
   -2.8554    9.9553    8.1656 C   0  0  1  0  0  0  0  0  0  0  0  0
   -3.0354   11.3645    8.7965 C   0  0  1  0  0  0  0  0  0  0  0  0
   -4.0369   12.2230    7.9736 C   0  0  2  0  0  0  0  0  0  0  0  0
   -3.6475   12.3084    6.4620 C   0  0  1  0  0  0  0  0  0  0  0  0
   -3.3297   10.9167    5.8377 C   0  0  0  0  0  0  0  0  0  0  0  0
   -2.3395   10.0813    6.7040 C   0  0  2  0  0  0  0  0  0  0  0  0
   -4.6965   13.0059    5.6880 N   0  0  0  0  0  0  0  0  0  0  0  0
   -2.1317    8.7605    6.0718 N   0  0  0  0  0  0  0  0  0  0  0  0
   -3.4531   11.2623   10.1539 O   0  0  0  0  0  0  0  0  0  0  0  0
   -4.1504   13.5288    8.5336 O   0  0  0  0  0  0  0  0  0  0  0  0
  1  2  1  0  0  0  0
  1 16  1  1  0  0  0
  2  3  1  0  0  0  0
  2 12  1  1  0  0  0
  4 11  1  1  0  0  0
  4  3  1  0  0  0  0
  5  4  1  0  0  0  0
  5 10  1  6  0  0  0
  6  7  1  0  0  0  0
  6  5  1  0  0  0  0
  6 14  1  1  0  0  0
  7  8  1  0  0  0  0
  7 13  1  6  0  0  0
  8 15  1  1  0  0  0
  8 11  1  0  0  0  0
  9 13  1  0  0  0  0
 10  1  1  0  0  0  0
 17 15  1  6  0  0  0
 17 18  1  0  0  0  0
 18 25  1  6  0  0  0
 19 18  1  0  0  0  0
 19 26  1  1  0  0  0
 20 19  1  0  0  0  0
 20 24  1  6  0  0  0
 21 23  1  0  0  0  0
 21 20  1  0  0  0  0
 21 22  1  1  0  0  0
 23 17  1  0  0  0  0
 27 22  1  0  0  0  0
 28 29  1  0  0  0  0
 28 16  1  1  0  0  0
 29 36  1  1  0  0  0
 30 37  1  1  0  0  0
 30 29  1  0  0  0  0
 31 30  1  0  0  0  0
 31 34  1  6  0  0  0
 32 31  1  0  0  0  0
 32 33  1  0  0  0  0
 33 28  1  0  0  0  0
 33 35  1  6  0  0  0
M  END
>  <CHROM.1>
158.37997090,-141.70203130,83.26210905,-173.18427358,-145.93215449,-121.30235496
-57.72656888,176.30914147,177.03199566,176.54782129,168.71346990,147.30712361
61.89652943,64.12924125,171.07327258,-55.71721131,0.83472179,6.84179483,9.80277934
2.91387707,0.74413793,-1.73638553

>  <Name>
lig.pdb

>  <RI>
0

>  <Rbt.Current_Directory>
/home/itssahil/PROJECTS/Mol_Feturizer/New_Systems/rnas/2m4q

>  <Rbt.Executable>
rbdock ($Id: //depot/dev/client3/rdock/2013.1/src/exe/rbdock.cxx#4 $)

>  <Rbt.Library>
libRbt.so (2013.1, Build901 2013/11/27)

>  <Rbt.Parameter_File>
/export/apps/rDock/src/rDock_2013.1_src/data/scripts/dock_solv.prm

>  <Rbt.Receptor>
prm/pocket_docking_2.prm

>  <SCORE>
-41.4957

>  <SCORE.INTER>
-25.6769

>  <SCORE.INTER.CONST>
1

>  <SCORE.INTER.POLAR>
-3.25914

>  <SCORE.INTER.ROT>
10

>  <SCORE.INTER.SOLV>
16.3094

>  <SCORE.INTER.VDW>
-21.9572

>  <SCORE.INTER.norm>
-0.69397

>  <SCORE.INTRA>
-15.9584

>  <SCORE.INTRA.DIHEDRAL>
-20.9944

>  <SCORE.INTRA.DIHEDRAL.0>
44.8331

>  <SCORE.INTRA.POLAR>
-1.10309

>  <SCORE.INTRA.POLAR.0>
-0.108895

>  <SCORE.INTRA.REPUL>
-0.00912235

>  <SCORE.INTRA.REPUL.0>
0.00912235

>  <SCORE.INTRA.SOLV>
-1.49007

>  <SCORE.INTRA.SOLV.lig_0>
-53.9067

>  <SCORE.INTRA.VDW>
-0.920027

>  <SCORE.INTRA.VDW.0>
-2.93492

>  <SCORE.INTRA.norm>
-0.431307

>  <SCORE.RESTR>
0.139521

>  <SCORE.RESTR.CAVITY>
0.139521

>  <SCORE.RESTR.norm>
0.00377084

>  <SCORE.SYSTEM>
0

>  <SCORE.SYSTEM.CONST>
0

>  <SCORE.SYSTEM.DIHEDRAL>
0

>  <SCORE.SYSTEM.SOLV>
0

>  <SCORE.SYSTEM.norm>
0

>  <SCORE.heavy>
37

>  <SCORE.norm>
-1.12151

>  <RMSD>
0.823

$$$$
lig.pdb
 OpenBabel11021811453D
libRbt.so/2013.1/901 2013/11/27
 37 40  0  0  0  0  0  0  0  0999 V2000
   -2.2700    7.5586    9.0039 C   0  0  2  0  0  0  0  0  0  0  0  0
   -2.4960    7.0941   10.4805 C   0  0  1  0  0  0  0  0  0  0  0  0
   -1.1707    6.8963   11.2730 C   0  0  0  0  0  0  0  0  0  0  0  0
   -0.1613    6.0417   10.4669 C   0  0  1  0  0  0  0  0  0  0  0  0
    0.0828    6.6825    9.0823 C   0  0  1  0  0  0  0  0  0  0  0  0
    1.1274    5.8713    8.2696 C   0  0  1  0  0  0  0  0  0  0  0  0
    2.4376    5.6746    9.0891 C   0  0  1  0  0  0  0  0  0  0  0  0
    2.1561    5.1050   10.5113 C   0  0  2  0  0  0  0  0  0  0  0  0
    4.7002    5.4343    8.1745 C   0  0  0  0  0  0  0  0  0  0  0  0
   -1.1752    6.8274    8.3622 O   0  0  0  0  0  0  0  0  0  0  0  0
    1.0916    5.8457   11.1837 O   0  0  0  0  0  0  0  0  0  0  0  0
   -3.3549    8.0704   11.1852 N   0  0  0  0  0  0  0  0  0  0  0  0
    3.3647    4.8166    8.3227 N   0  0  0  0  0  0  0  0  0  0  0  0
    0.5945    4.6242    7.8429 O   0  0  0  0  0  0  0  0  0  0  0  0
    3.3777    5.0947   11.3063 O   0  0  0  0  0  0  0  0  0  0  0  0
   -2.0326    8.9978    8.9337 O   0  0  0  0  0  0  0  0  0  0  0  0
    3.5878    3.9970   12.2469 C   0  0  2  0  0  0  0  0  0  0  0  0
    4.3714    4.4795   13.5006 C   0  0  1  0  0  0  0  0  0  0  0  0
    5.8572    4.7949   13.1647 C   0  0  2  0  0  0  0  0  0  0  0  0
    6.5385    3.5932   12.4480 C   0  0  1  0  0  0  0  0  0  0  0  0
    5.7059    3.1214   11.2234 C   0  0  1  0  0  0  0  0  0  0  0  0
    6.2993    1.8405   10.5803 C   0  0  0  0  0  0  0  0  0  0  0  0
    4.3140    2.9052   11.6072 O   0  0  0  0  0  0  0  0  0  0  0  0
    7.9311    3.9117   12.0638 N   0  0  0  0  0  0  0  0  0  0  0  0
    3.7171    5.5954   14.1016 O   0  0  0  0  0  0  0  0  0  0  0  0
    6.5804    5.1732   14.3341 O   0  0  0  0  0  0  0  0  0  0  0  0
    5.4930    1.3987    9.4931 O   0  0  0  0  0  0  0  0  0  0  0  0
   -2.9184    9.7900    8.0901 C   0  0  1  0  0  0  0  0  0  0  0  0
   -3.2451   11.1707    8.7250 C   0  0  1  0  0  0  0  0  0  0  0  0
   -4.2662   11.9589    7.8571 C   0  0  2  0  0  0  0  0  0  0  0  0
   -3.8033   12.0979    6.3705 C   0  0  1  0  0  0  0  0  0  0  0  0
   -3.3410   10.7455    5.7499 C   0  0  0  0  0  0  0  0  0  0  0  0
   -2.3355    9.9788    6.6608 C   0  0  2  0  0  0  0  0  0  0  0  0
   -4.8613   12.7211    5.5470 N   0  0  0  0  0  0  0  0  0  0  0  0
   -1.9881    8.6884    6.0270 N   0  0  0  0  0  0  0  0  0  0  0  0
   -3.7265   11.0151   10.0561 O   0  0  0  0  0  0  0  0  0  0  0  0
   -4.5147   13.2430    8.4239 O   0  0  0  0  0  0  0  0  0  0  0  0
  1  2  1  0  0  0  0
  1 16  1  1  0  0  0
  2  3  1  0  0  0  0
  2 12  1  1  0  0  0
  4 11  1  1  0  0  0
  4  3  1  0  0  0  0
  5  4  1  0  0  0  0
  5 10  1  6  0  0  0
  6  7  1  0  0  0  0
  6  5  1  0  0  0  0
  6 14  1  1  0  0  0
  7  8  1  0  0  0  0
  7 13  1  6  0  0  0
  8 15  1  1  0  0  0
  8 11  1  0  0  0  0
  9 13  1  0  0  0  0
 10  1  1  0  0  0  0
 17 15  1  6  0  0  0
 17 18  1  0  0  0  0
 18 25  1  6  0  0  0
 19 18  1  0  0  0  0
 19 26  1  1  0  0  0
 20 19  1  0  0  0  0
 20 24  1  6  0  0  0
 21 23  1  0  0  0  0
 21 20  1  0  0  0  0
 21 22  1  1  0  0  0
 23 17  1  0  0  0  0
 27 22  1  0  0  0  0
 28 29  1  0  0  0  0
 28 16  1  1  0  0  0
 29 36  1  1  0  0  0
 30 37  1  1  0  0  0
 30 29  1  0  0  0  0
 31 30  1  0  0  0  0
 31 34  1  6  0  0  0
 32 31  1  0  0  0  0
 32 33  1  0  0  0  0
 33 28  1  0  0  0  0
 33 35  1  6  0  0  0
M  END
>  <CHROM.1>
159.52526802,-144.45900658,127.31503882,45.28781859,-147.09339711,-123.19519485
-55.30564593,64.34775831,177.80777509,166.35891177,-54.68787312,142.06969687
35.00568602,63.83614818,-170.54208772,-51.51142340,0.87609729,6.82649485
9.79170945,2.93489449,0.71370824,-1.78070000

>  <Name>
lig.pdb

>  <RI>
0

>  <Rbt.Current_Directory>
/home/itssahil/PROJECTS/Mol_Feturizer/New_Systems/rnas/2m4q

>  <Rbt.Executable>
rbdock ($Id: //depot/dev/client3/rdock/2013.1/src/exe/rbdock.cxx#4 $)

>  <Rbt.Library>
libRbt.so (2013.1, Build901 2013/11/27)

>  <Rbt.Parameter_File>
/export/apps/rDock/src/rDock_2013.1_src/data/scripts/dock_solv.prm

>  <Rbt.Receptor>
prm/pocket_docking_2.prm

>  <SCORE>
-45.2591

>  <SCORE.INTER>
-29.9832

>  <SCORE.INTER.CONST>
1

>  <SCORE.INTER.POLAR>
-4.35819

>  <SCORE.INTER.ROT>
10

>  <SCORE.INTER.SOLV>
15.9821

>  <SCORE.INTER.VDW>
-21.0555

>  <SCORE.INTER.norm>
-0.810357

>  <SCORE.INTRA>
-15.496

>  <SCORE.INTRA.DIHEDRAL>
-15.9242

>  <SCORE.INTRA.DIHEDRAL.0>
44.8331

>  <SCORE.INTRA.POLAR>
-1.70301

>  <SCORE.INTRA.POLAR.0>
-0.108895

>  <SCORE.INTRA.REPUL>
-0.00912235

>  <SCORE.INTRA.REPUL.0>
0.00912235

>  <SCORE.INTRA.SOLV>
-1.47033

>  <SCORE.INTRA.SOLV.lig_0>
-53.9067

>  <SCORE.INTRA.VDW>
-0.962918

>  <SCORE.INTRA.VDW.0>
-2.93492

>  <SCORE.INTRA.norm>
-0.418811

>  <SCORE.RESTR>
0.220077

>  <SCORE.RESTR.CAVITY>
0.220077

>  <SCORE.RESTR.norm>
0.00594801

>  <SCORE.SYSTEM>
0

>  <SCORE.SYSTEM.CONST>
0

>  <SCORE.SYSTEM.DIHEDRAL>
0

>  <SCORE.SYSTEM.SOLV>
0

>  <SCORE.SYSTEM.norm>
0

>  <SCORE.heavy>
37

>  <SCORE.norm>
-1.22322

>  <RMSD>
0.831

$$$$
lig.pdb
 OpenBabel11021811453D
libRbt.so/2013.1/901 2013/11/27
 37 40  0  0  0  0  0  0  0  0999 V2000
   -2.1878    7.7098    8.8327 C   0  0  2  0  0  0  0  0  0  0  0  0
   -2.4872    7.0461   10.2172 C   0  0  1  0  0  0  0  0  0  0  0  0
   -1.2090    6.8023   11.0720 C   0  0  0  0  0  0  0  0  0  0  0  0
   -0.1055    6.1048   10.2385 C   0  0  1  0  0  0  0  0  0  0  0  0
    0.1967    6.9318    8.9688 C   0  0  1  0  0  0  0  0  0  0  0  0
    1.3334    6.2796    8.1369 C   0  0  1  0  0  0  0  0  0  0  0  0
    2.5946    6.0327    9.0174 C   0  0  1  0  0  0  0  0  0  0  0  0
    2.2490    5.2697   10.3306 C   0  0  2  0  0  0  0  0  0  0  0  0
    4.8646    6.1019    8.0922 C   0  0  0  0  0  0  0  0  0  0  0  0
   -1.0165    7.1165    8.1838 O   0  0  0  0  0  0  0  0  0  0  0  0
    1.1054    5.8697   11.0133 O   0  0  0  0  0  0  0  0  0  0  0  0
   -3.4402    7.8839   10.9770 N   0  0  0  0  0  0  0  0  0  0  0  0
    3.6136    5.3231    8.2167 N   0  0  0  0  0  0  0  0  0  0  0  0
    0.8951    5.0779    7.5163 O   0  0  0  0  0  0  0  0  0  0  0  0
    3.4140    5.2070   11.2043 O   0  0  0  0  0  0  0  0  0  0  0  0
   -2.0208    9.1545    8.9649 O   0  0  0  0  0  0  0  0  0  0  0  0
    3.7905    3.9147   11.7719 C   0  0  2  0  0  0  0  0  0  0  0  0
    4.7983    4.0928   12.9430 C   0  0  1  0  0  0  0  0  0  0  0  0
    6.1964    4.5480   12.4352 C   0  0  2  0  0  0  0  0  0  0  0  0
    6.7242    3.6014   11.3184 C   0  0  1  0  0  0  0  0  0  0  0  0
    5.6738    3.4241   10.1867 C   0  0  1  0  0  0  0  0  0  0  0  0
    6.1286    2.3783    9.1351 C   0  0  0  0  0  0  0  0  0  0  0  0
    4.3774    3.0564   10.7485 O   0  0  0  0  0  0  0  0  0  0  0  0
    8.0218    4.0680   10.7827 N   0  0  0  0  0  0  0  0  0  0  0  0
    4.2748    4.9874   13.9228 O   0  0  0  0  0  0  0  0  0  0  0  0
    7.1284    4.6444   13.5102 O   0  0  0  0  0  0  0  0  0  0  0  0
    6.1570    1.0712    9.6990 O   0  0  0  0  0  0  0  0  0  0  0  0
   -2.9038   10.0126    8.1852 C   0  0  1  0  0  0  0  0  0  0  0  0
   -3.1098   11.3990    8.8571 C   0  0  1  0  0  0  0  0  0  0  0  0
   -4.1291   12.2616    8.0608 C   0  0  2  0  0  0  0  0  0  0  0  0
   -3.7442   12.3985    6.5519 C   0  0  1  0  0  0  0  0  0  0  0  0
   -3.4007   11.0320    5.8869 C   0  0  0  0  0  0  0  0  0  0  0  0
   -2.3930   10.1910    6.7272 C   0  0  2  0  0  0  0  0  0  0  0  0
   -4.8079   13.0978    5.7999 N   0  0  0  0  0  0  0  0  0  0  0  0
   -2.1609    8.8935    6.0565 N   0  0  0  0  0  0  0  0  0  0  0  0
   -3.5230   11.2494   10.2115 O   0  0  0  0  0  0  0  0  0  0  0  0
   -4.2668   13.5482    8.6588 O   0  0  0  0  0  0  0  0  0  0  0  0
  1  2  1  0  0  0  0
  1 16  1  1  0  0  0
  2  3  1  0  0  0  0
  2 12  1  1  0  0  0
  4 11  1  1  0  0  0
  4  3  1  0  0  0  0
  5  4  1  0  0  0  0
  5 10  1  6  0  0  0
  6  7  1  0  0  0  0
  6  5  1  0  0  0  0
  6 14  1  1  0  0  0
  7  8  1  0  0  0  0
  7 13  1  6  0  0  0
  8 15  1  1  0  0  0
  8 11  1  0  0  0  0
  9 13  1  0  0  0  0
 10  1  1  0  0  0  0
 17 15  1  6  0  0  0
 17 18  1  0  0  0  0
 18 25  1  1  0  0  0
 19 18  1  0  0  0  0
 19 26  1  1  0  0  0
 20 19  1  0  0  0  0
 20 24  1  6  0  0  0
 21 23  1  0  0  0  0
 21 20  1  0  0  0  0
 21 22  1  6  0  0  0
 23 17  1  0  0  0  0
 27 22  1  0  0  0  0
 28 29  1  0  0  0  0
 28 16  1  1  0  0  0
 29 36  1  1  0  0  0
 30 37  1  1  0  0  0
 30 29  1  0  0  0  0
 31 30  1  0  0  0  0
 31 34  1  6  0  0  0
 32 31  1  0  0  0  0
 32 33  1  0  0  0  0
 33 28  1  0  0  0  0
 33 35  1  6  0  0  0
M  END
>  <CHROM.1>
44.11605223,-130.71023525,119.45524293,154.28864852,-165.23418217,-122.15836511
179.01314088,63.45834984,67.64313094,-64.76348321,-175.84036993,153.13602643
-178.22641227,65.86754446,-58.24581097,-57.12543228,1.02221427,6.95714465
9.54425326,2.88165915,0.67904060,-1.59290800

>  <Name>
lig.pdb

>  <RI>
0

>  <Rbt.Current_Directory>
/home/itssahil/PROJECTS/Mol_Feturizer/New_Systems/rnas/2m4q

>  <Rbt.Executable>
rbdock ($Id: //depot/dev/client3/rdock/2013.1/src/exe/rbdock.cxx#4 $)

>  <Rbt.Library>
libRbt.so (2013.1, Build901 2013/11/27)

>  <Rbt.Parameter_File>
/export/apps/rDock/src/rDock_2013.1_src/data/scripts/dock_solv.prm

>  <Rbt.Receptor>
prm/pocket_docking_2.prm

>  <SCORE>
-37.2693

>  <SCORE.INTER>
-22.8251

>  <SCORE.INTER.CONST>
1

>  <SCORE.INTER.POLAR>
-3.23092

>  <SCORE.INTER.ROT>
10

>  <SCORE.INTER.SOLV>
15.3706

>  <SCORE.INTER.VDW>
-19.8371

>  <SCORE.INTER.norm>
-0.616893

>  <SCORE.INTRA>
-15.0062

>  <SCORE.INTRA.DIHEDRAL>
-20.4915

>  <SCORE.INTRA.DIHEDRAL.0>
44.8331

>  <SCORE.INTRA.POLAR>
-0.892795

>  <SCORE.INTRA.POLAR.0>
-0.108895

>  <SCORE.INTRA.REPUL>
-0.00873038

>  <SCORE.INTRA.REPUL.0>
0.00912235

>  <SCORE.INTRA.SOLV>
-0.429963

>  <SCORE.INTRA.SOLV.lig_0>
-53.9067

>  <SCORE.INTRA.VDW>
-1.46636

>  <SCORE.INTRA.VDW.0>
-2.93492

>  <SCORE.INTRA.norm>
-0.405574

>  <SCORE.RESTR>
0.561942

>  <SCORE.RESTR.CAVITY>
0.561942

>  <SCORE.RESTR.norm>
0.0151876

>  <SCORE.SYSTEM>
0

>  <SCORE.SYSTEM.CONST>
0

>  <SCORE.SYSTEM.DIHEDRAL>
0

>  <SCORE.SYSTEM.SOLV>
0

>  <SCORE.SYSTEM.norm>
0

>  <SCORE.heavy>
37

>  <SCORE.norm>
-1.00728

>  <RMSD>
0.848

$$$$
lig.pdb
 OpenBabel11021811453D
libRbt.so/2013.1/901 2013/11/27
 37 40  0  0  0  0  0  0  0  0999 V2000
   -2.0891    7.7089    8.9488 C   0  0  2  0  0  0  0  0  0  0  0  0
   -2.4675    7.2148   10.3840 C   0  0  1  0  0  0  0  0  0  0  0  0
   -1.2291    6.8777   11.2652 C   0  0  0  0  0  0  0  0  0  0  0  0
   -0.2334    5.9686   10.5029 C   0  0  1  0  0  0  0  0  0  0  0  0
    0.1703    6.6335    9.1679 C   0  0  1  0  0  0  0  0  0  0  0  0
    1.2051    5.7647    8.4036 C   0  0  1  0  0  0  0  0  0  0  0  0
    2.4264    5.4290    9.3106 C   0  0  1  0  0  0  0  0  0  0  0  0
    1.9884    4.8369   10.6831 C   0  0  2  0  0  0  0  0  0  0  0  0
    4.4147    5.2576    7.8855 C   0  0  0  0  0  0  0  0  0  0  0  0
   -1.0112    6.9097    8.3618 O   0  0  0  0  0  0  0  0  0  0  0  0
    0.9392    5.6420   11.3032 O   0  0  0  0  0  0  0  0  0  0  0  0
   -3.2957    8.2359   11.0615 N   0  0  0  0  0  0  0  0  0  0  0  0
    3.3369    4.5221    8.5815 N   0  0  0  0  0  0  0  0  0  0  0  0
    0.6064    4.5829    7.8874 O   0  0  0  0  0  0  0  0  0  0  0  0
    3.1391    4.6953   11.5666 O   0  0  0  0  0  0  0  0  0  0  0  0
   -1.7293    9.1242    8.9555 O   0  0  0  0  0  0  0  0  0  0  0  0
    3.6482    3.3533   11.8380 C   0  0  2  0  0  0  0  0  0  0  0  0
    4.3989    3.3068   13.1993 C   0  0  1  0  0  0  0  0  0  0  0  0
    5.7536    4.0688   13.1361 C   0  0  2  0  0  0  0  0  0  0  0  0
    6.6233    3.5706   11.9456 C   0  0  1  0  0  0  0  0  0  0  0  0
    5.8248    3.6007   10.6126 C   0  0  1  0  0  0  0  0  0  0  0  0
    6.6313    2.9800    9.4418 C   0  0  0  0  0  0  0  0  0  0  0  0
    4.5436    2.9189   10.7713 O   0  0  0  0  0  0  0  0  0  0  0  0
    7.8831    4.3386   11.8378 N   0  0  0  0  0  0  0  0  0  0  0  0
    3.5654    3.7967   14.2480 O   0  0  0  0  0  0  0  0  0  0  0  0
    6.4617    3.9635   14.3693 O   0  0  0  0  0  0  0  0  0  0  0  0
    6.8965    1.6021    9.6830 O   0  0  0  0  0  0  0  0  0  0  0  0
   -2.6079   10.0497    8.2515 C   0  0  1  0  0  0  0  0  0  0  0  0
   -2.7269   11.4131    8.9885 C   0  0  1  0  0  0  0  0  0  0  0  0
   -3.7421   12.3493    8.2742 C   0  0  2  0  0  0  0  0  0  0  0  0
   -3.4161   12.5355    6.7567 C   0  0  1  0  0  0  0  0  0  0  0  0
   -3.1586   11.1861    6.0214 C   0  0  0  0  0  0  0  0  0  0  0  0
   -2.1523   10.2701    6.7810 C   0  0  2  0  0  0  0  0  0  0  0  0
   -4.4805   13.3085    6.0818 N   0  0  0  0  0  0  0  0  0  0  0  0
   -2.0034    8.9944    6.0478 N   0  0  0  0  0  0  0  0  0  0  0  0
   -3.0882   11.2220   10.3525 O   0  0  0  0  0  0  0  0  0  0  0  0
   -3.8003   13.6134    8.9302 O   0  0  0  0  0  0  0  0  0  0  0  0
  1  2  1  0  0  0  0
  1 16  1  1  0  0  0
  2  3  1  0  0  0  0
  2 12  1  1  0  0  0
  4 11  1  1  0  0  0
  4  3  1  0  0  0  0
  5  4  1  0  0  0  0
  5 10  1  6  0  0  0
  6  7  1  0  0  0  0
  6  5  1  0  0  0  0
  6 14  1  1  0  0  0
  7  8  1  0  0  0  0
  7 13  1  6  0  0  0
  8 15  1  1  0  0  0
  8 11  1  0  0  0  0
  9 13  1  0  0  0  0
 10  1  1  0  0  0  0
 17 15  1  6  0  0  0
 17 18  1  0  0  0  0
 18 25  1  1  0  0  0
 19 18  1  0  0  0  0
 19 26  1  1  0  0  0
 20 19  1  0  0  0  0
 20 24  1  6  0  0  0
 21 23  1  0  0  0  0
 21 20  1  0  0  0  0
 21 22  1  6  0  0  0
 23 17  1  0  0  0  0
 27 22  1  0  0  0  0
 28 29  1  0  0  0  0
 28 16  1  1  0  0  0
 29 36  1  1  0  0  0
 30 37  1  1  0  0  0
 30 29  1  0  0  0  0
 31 30  1  0  0  0  0
 31 34  1  6  0  0  0
 32 31  1  0  0  0  0
 32 33  1  0  0  0  0
 33 28  1  0  0  0  0
 33 35  1  6  0  0  0
M  END
>  <CHROM.1>
70.56000149,-107.55803699,94.37578188,-57.54185649,-154.98220878,-113.55757612
61.96564639,58.81188906,63.09544460,-179.10340509,171.55706768,143.43293912
90.24835822,60.72814523,-64.48331701,156.37766682,1.03141824,6.79101779,9.79793980
2.78141473,0.69621000,-1.47725208

>  <Name>
lig.pdb

>  <RI>
0

>  <Rbt.Current_Directory>
/home/itssahil/PROJECTS/Mol_Feturizer/New_Systems/rnas/2m4q

>  <Rbt.Executable>
rbdock ($Id: //depot/dev/client3/rdock/2013.1/src/exe/rbdock.cxx#4 $)

>  <Rbt.Library>
libRbt.so (2013.1, Build901 2013/11/27)

>  <Rbt.Parameter_File>
/export/apps/rDock/src/rDock_2013.1_src/data/scripts/dock_solv.prm

>  <Rbt.Receptor>
prm/pocket_docking_3.prm

>  <SCORE>
-36.8274

>  <SCORE.INTER>
-23.5868

>  <SCORE.INTER.CONST>
1

>  <SCORE.INTER.POLAR>
-3.51164

>  <SCORE.INTER.ROT>
10

>  <SCORE.INTER.SOLV>
14.2995

>  <SCORE.INTER.VDW>
-19.0522

>  <SCORE.INTER.norm>
-0.63748

>  <SCORE.INTRA>
-13.2406

>  <SCORE.INTRA.DIHEDRAL>
-17.002

>  <SCORE.INTRA.DIHEDRAL.0>
44.8331

>  <SCORE.INTRA.POLAR>
-0.980395

>  <SCORE.INTRA.POLAR.0>
-0.108895

>  <SCORE.INTRA.REPUL>
-0.00912235

>  <SCORE.INTRA.REPUL.0>
0.00912235

>  <SCORE.INTRA.SOLV>
-0.369089

>  <SCORE.INTRA.SOLV.lig_0>
-53.9067

>  <SCORE.INTRA.VDW>
-1.17614

>  <SCORE.INTRA.VDW.0>
-2.93492

>  <SCORE.INTRA.norm>
-0.357855

>  <SCORE.RESTR>
0

>  <SCORE.RESTR.CAVITY>
0

>  <SCORE.RESTR.norm>
0

>  <SCORE.SYSTEM>
0

>  <SCORE.SYSTEM.CONST>
0

>  <SCORE.SYSTEM.DIHEDRAL>
0

>  <SCORE.SYSTEM.SOLV>
0

>  <SCORE.SYSTEM.norm>
0

>  <SCORE.heavy>
37

>  <SCORE.norm>
-0.995335

>  <RMSD>
0.849

$$$$
lig.pdb
 OpenBabel11021811453D
libRbt.so/2013.1/901 2013/11/27
 37 40  0  0  0  0  0  0  0  0999 V2000
   -2.5628    7.6252    9.5186 C   0  0  2  0  0  0  0  0  0  0  0  0
   -2.8340    7.1764   10.9924 C   0  0  1  0  0  0  0  0  0  0  0  0
   -1.5323    6.9203   11.8071 C   0  0  0  0  0  0  0  0  0  0  0  0
   -0.5505    6.0175   11.0198 C   0  0  1  0  0  0  0  0  0  0  0  0
   -0.2545    6.6418    9.6378 C   0  0  1  0  0  0  0  0  0  0  0  0
    0.7646    5.7806    8.8445 C   0  0  1  0  0  0  0  0  0  0  0  0
    2.0507    5.5263    9.6859 C   0  0  1  0  0  0  0  0  0  0  0  0
    1.7201    4.9749   11.1046 C   0  0  2  0  0  0  0  0  0  0  0  0
    4.3069    5.1913    8.7850 C   0  0  0  0  0  0  0  0  0  0  0  0
   -1.4926    6.8422    8.8968 O   0  0  0  0  0  0  0  0  0  0  0  0
    0.6802    5.7662   11.7576 O   0  0  0  0  0  0  0  0  0  0  0  0
   -3.6583    8.1937   11.6805 N   0  0  0  0  0  0  0  0  0  0  0  0
    2.9496    4.6239    8.9369 N   0  0  0  0  0  0  0  0  0  0  0  0
    0.1817    4.5579    8.4122 O   0  0  0  0  0  0  0  0  0  0  0  0
    2.9269    4.9110   11.9196 O   0  0  0  0  0  0  0  0  0  0  0  0
   -2.2580    9.0516    9.4487 O   0  0  0  0  0  0  0  0  0  0  0  0
    3.1210    3.7521   12.7875 C   0  0  2  0  0  0  0  0  0  0  0  0
    4.1264    4.0733   13.9297 C   0  0  1  0  0  0  0  0  0  0  0  0
    5.5797    4.2175   13.3939 C   0  0  2  0  0  0  0  0  0  0  0  0
    5.9937    2.9760   12.5518 C   0  0  1  0  0  0  0  0  0  0  0  0
    4.9456    2.6701   11.4457 C   0  0  1  0  0  0  0  0  0  0  0  0
    5.2732    1.3576   10.6865 C   0  0  0  0  0  0  0  0  0  0  0  0
    3.6040    2.6104   12.0183 O   0  0  0  0  0  0  0  0  0  0  0  0
    7.3492    3.1372   11.9816 N   0  0  0  0  0  0  0  0  0  0  0  0
    3.7116    5.2319   14.6510 O   0  0  0  0  0  0  0  0  0  0  0  0
    6.5005    4.4469   14.4583 O   0  0  0  0  0  0  0  0  0  0  0  0
    6.4888    1.4842    9.9560 O   0  0  0  0  0  0  0  0  0  0  0  0
   -2.9776    9.8505    8.4648 C   0  0  1  0  0  0  0  0  0  0  0  0
   -3.5878   11.1350    9.0925 C   0  0  1  0  0  0  0  0  0  0  0  0
   -4.4312   11.9218    8.0501 C   0  0  2  0  0  0  0  0  0  0  0  0
   -3.6262   12.2375    6.7477 C   0  0  1  0  0  0  0  0  0  0  0  0
   -2.8919   10.9901    6.1709 C   0  0  0  0  0  0  0  0  0  0  0  0
   -2.0764   10.2193    7.2523 C   0  0  2  0  0  0  0  0  0  0  0  0
   -4.5000   12.8534    5.7264 N   0  0  0  0  0  0  0  0  0  0  0  0
   -1.4555    9.0259    6.6376 N   0  0  0  0  0  0  0  0  0  0  0  0
   -4.3699   10.8163   10.2390 O   0  0  0  0  0  0  0  0  0  0  0  0
   -4.9393   13.1229    8.6253 O   0  0  0  0  0  0  0  0  0  0  0  0
  1  2  1  0  0  0  0
  1 16  1  1  0  0  0
  2  3  1  0  0  0  0
  2 12  1  1  0  0  0
  4 11  1  1  0  0  0
  4  3  1  0  0  0  0
  5  4  1  0  0  0  0
  5 10  1  6  0  0  0
  6  7  1  0  0  0  0
  6  5  1  0  0  0  0
  6 14  1  1  0  0  0
  7  8  1  0  0  0  0
  7 13  1  6  0  0  0
  8 15  1  1  0  0  0
  8 11  1  0  0  0  0
  9 13  1  0  0  0  0
 10  1  1  0  0  0  0
 17 15  1  6  0  0  0
 17 18  1  0  0  0  0
 18 25  1  6  0  0  0
 19 18  1  0  0  0  0
 19 26  1  1  0  0  0
 20 19  1  0  0  0  0
 20 24  1  6  0  0  0
 21 23  1  0  0  0  0
 21 20  1  0  0  0  0
 21 22  1  1  0  0  0
 23 17  1  0  0  0  0
 27 22  1  0  0  0  0
 28 29  1  0  0  0  0
 28 16  1  1  0  0  0
 29 36  1  1  0  0  0
 30 37  1  1  0  0  0
 30 29  1  0  0  0  0
 31 30  1  0  0  0  0
 31 34  1  6  0  0  0
 32 31  1  0  0  0  0
 32 33  1  0  0  0  0
 33 28  1  0  0  0  0
 33 35  1  6  0  0  0
M  END
>  <CHROM.1>
-88.55765952,-139.60107776,126.13922639,171.78046375,-158.96867674,-130.82045557
64.89990045,-54.34733075,-65.41635381,-160.34265629,-163.42524845,130.38450154
43.14706226,57.77008005,53.07832735,83.05700435,0.62748911,6.68981994,10.21474935
2.76001988,0.68944702,-1.48875123

>  <Name>
lig.pdb

>  <RI>
0

>  <Rbt.Current_Directory>
/home/itssahil/PROJECTS/Mol_Feturizer/New_Systems/rnas/2m4q

>  <Rbt.Executable>
rbdock ($Id: //depot/dev/client3/rdock/2013.1/src/exe/rbdock.cxx#4 $)

>  <Rbt.Library>
libRbt.so (2013.1, Build901 2013/11/27)

>  <Rbt.Parameter_File>
/export/apps/rDock/src/rDock_2013.1_src/data/scripts/dock_solv.prm

>  <Rbt.Receptor>
prm/pocket_docking_2.prm

>  <SCORE>
-36.3271

>  <SCORE.INTER>
-18.7031

>  <SCORE.INTER.CONST>
1

>  <SCORE.INTER.POLAR>
-1.92158

>  <SCORE.INTER.ROT>
10

>  <SCORE.INTER.SOLV>
16.1486

>  <SCORE.INTER.VDW>
-21.713

>  <SCORE.INTER.norm>
-0.505489

>  <SCORE.INTRA>
-17.6259

>  <SCORE.INTRA.DIHEDRAL>
-15.8236

>  <SCORE.INTRA.DIHEDRAL.0>
44.8331

>  <SCORE.INTRA.POLAR>
-2.58321

>  <SCORE.INTRA.POLAR.0>
-0.108895

>  <SCORE.INTRA.REPUL>
-0.00912235

>  <SCORE.INTRA.REPUL.0>
0.00912235

>  <SCORE.INTRA.SOLV>
-0.18239

>  <SCORE.INTRA.SOLV.lig_0>
-53.9067

>  <SCORE.INTRA.VDW>
-0.79438

>  <SCORE.INTRA.VDW.0>
-2.93492

>  <SCORE.INTRA.norm>
-0.476375

>  <SCORE.RESTR>
0.00188923

>  <SCORE.RESTR.CAVITY>
0.00188923

>  <SCORE.RESTR.norm>
5.10603e-05

>  <SCORE.SYSTEM>
0

>  <SCORE.SYSTEM.CONST>
0

>  <SCORE.SYSTEM.DIHEDRAL>
0

>  <SCORE.SYSTEM.SOLV>
0

>  <SCORE.SYSTEM.norm>
0

>  <SCORE.heavy>
37

>  <SCORE.norm>
-0.981813

>  <RMSD>
0.853

$$$$
lig.pdb
 OpenBabel11021811453D
libRbt.so/2013.1/901 2013/11/27
 37 40  0  0  0  0  0  0  0  0999 V2000
   -2.0472    7.7805    8.9879 C   0  0  2  0  0  0  0  0  0  0  0  0
   -2.4298    7.1547   10.3696 C   0  0  1  0  0  0  0  0  0  0  0  0
   -1.1942    6.7956   11.2459 C   0  0  0  0  0  0  0  0  0  0  0  0
   -0.1484    5.9930   10.4328 C   0  0  1  0  0  0  0  0  0  0  0  0
    0.2507    6.7816    9.1655 C   0  0  1  0  0  0  0  0  0  0  0  0
    1.3339    6.0209    8.3544 C   0  0  1  0  0  0  0  0  0  0  0  0
    2.5519    5.6604    9.2562 C   0  0  1  0  0  0  0  0  0  0  0  0
    2.1149    4.9399   10.5662 C   0  0  2  0  0  0  0  0  0  0  0  0
    4.3702    5.6934    7.6110 C   0  0  0  0  0  0  0  0  0  0  0  0
   -0.9269    7.0761    8.3601 O   0  0  0  0  0  0  0  0  0  0  0  0
    1.0224    5.6485   11.2280 O   0  0  0  0  0  0  0  0  0  0  0  0
   -3.3115    8.0825   11.1109 N   0  0  0  0  0  0  0  0  0  0  0  0
    3.5120    4.8539    8.4746 N   0  0  0  0  0  0  0  0  0  0  0  0
    0.7939    4.8629    7.7308 O   0  0  0  0  0  0  0  0  0  0  0  0
    3.2547    4.7718   11.4590 O   0  0  0  0  0  0  0  0  0  0  0  0
   -1.7465    9.2036    9.1180 O   0  0  0  0  0  0  0  0  0  0  0  0
    3.3781    3.5211   12.2035 C   0  0  2  0  0  0  0  0  0  0  0  0
    4.0608    3.7574   13.5808 C   0  0  1  0  0  0  0  0  0  0  0  0
    5.5716    4.0932   13.4245 C   0  0  2  0  0  0  0  0  0  0  0  0
    6.2991    3.0214   12.5620 C   0  0  1  0  0  0  0  0  0  0  0  0
    5.5653    2.7916   11.2114 C   0  0  1  0  0  0  0  0  0  0  0  0
    6.1986    1.6309   10.4001 C   0  0  0  0  0  0  0  0  0  0  0  0
    4.1450    2.5429   11.4396 O   0  0  0  0  0  0  0  0  0  0  0  0
    7.7210    3.3709   12.3515 N   0  0  0  0  0  0  0  0  0  0  0  0
    3.3688    4.7645   14.3166 O   0  0  0  0  0  0  0  0  0  0  0  0
    6.2000    4.2432   14.6957 O   0  0  0  0  0  0  0  0  0  0  0  0
    5.5651    1.4936    9.1323 O   0  0  0  0  0  0  0  0  0  0  0  0
   -2.7714   10.1530    8.7029 C   0  0  1  0  0  0  0  0  0  0  0  0
   -2.9602   11.2954    9.7400 C   0  0  1  0  0  0  0  0  0  0  0  0
   -4.1225   12.2414    9.3261 C   0  0  2  0  0  0  0  0  0  0  0  0
   -3.9516   12.7965    7.8747 C   0  0  1  0  0  0  0  0  0  0  0  0
   -3.6269   11.6835    6.8337 C   0  0  0  0  0  0  0  0  0  0  0  0
   -2.4714   10.7459    7.2969 C   0  0  2  0  0  0  0  0  0  0  0  0
   -5.1429   13.5701    7.4646 N   0  0  0  0  0  0  0  0  0  0  0  0
   -2.2615    9.6910    6.2818 N   0  0  0  0  0  0  0  0  0  0  0  0
   -3.1791   10.7654   11.0434 O   0  0  0  0  0  0  0  0  0  0  0  0
   -4.2482   13.3127   10.2579 O   0  0  0  0  0  0  0  0  0  0  0  0
  1  2  1  0  0  0  0
  1 16  1  1  0  0  0
  2  3  1  0  0  0  0
  2 12  1  1  0  0  0
  4 11  1  1  0  0  0
  4  3  1  0  0  0  0
  5  4  1  0  0  0  0
  5 10  1  6  0  0  0
  6  7  1  0  0  0  0
  6  5  1  0  0  0  0
  6 14  1  1  0  0  0
  7  8  1  0  0  0  0
  7 13  1  6  0  0  0
  8 15  1  1  0  0  0
  8 11  1  0  0  0  0
  9 13  1  0  0  0  0
 10  1  1  0  0  0  0
 17 15  1  6  0  0  0
 17 18  1  0  0  0  0
 18 25  1  6  0  0  0
 19 18  1  0  0  0  0
 19 26  1  1  0  0  0
 20 19  1  0  0  0  0
 20 24  1  6  0  0  0
 21 23  1  0  0  0  0
 21 20  1  0  0  0  0
 21 22  1  1  0  0  0
 23 17  1  0  0  0  0
 27 22  1  0  0  0  0
 28 29  1  0  0  0  0
 28 16  1  1  0  0  0
 29 36  1  1  0  0  0
 30 37  1  1  0  0  0
 30 29  1  0  0  0  0
 31 30  1  0  0  0  0
 31 34  1  6  0  0  0
 32 31  1  0  0  0  0
 32 33  1  0  0  0  0
 33 28  1  0  0  0  0
 33 35  1  6  0  0  0
M  END
>  <CHROM.1>
-75.10577415,-140.38912356,80.85570109,40.59172013,-148.18116151,-102.03061393
-165.59120846,61.26858838,-176.34249825,172.54279084,173.93803448,134.61887449
-177.67976624,54.81920212,99.08212350,173.47073129,0.85292010,6.82370912
10.11877801,-2.97559761,-0.75804318,1.43967060

>  <Name>
lig.pdb

>  <RI>
0

>  <Rbt.Current_Directory>
/home/itssahil/PROJECTS/Mol_Feturizer/New_Systems/rnas/2m4q

>  <Rbt.Executable>
rbdock ($Id: //depot/dev/client3/rdock/2013.1/src/exe/rbdock.cxx#4 $)

>  <Rbt.Library>
libRbt.so (2013.1, Build901 2013/11/27)

>  <Rbt.Parameter_File>
/export/apps/rDock/src/rDock_2013.1_src/data/scripts/dock_solv.prm

>  <Rbt.Receptor>
prm/pocket_docking_2.prm

>  <SCORE>
-36.2311

>  <SCORE.INTER>
-25.8077

>  <SCORE.INTER.CONST>
1

>  <SCORE.INTER.POLAR>
-4.16068

>  <SCORE.INTER.ROT>
10

>  <SCORE.INTER.SOLV>
16.0466

>  <SCORE.INTER.VDW>
-18.9517

>  <SCORE.INTER.norm>
-0.697505

>  <SCORE.INTRA>
-10.5364

>  <SCORE.INTRA.DIHEDRAL>
-17.275

>  <SCORE.INTRA.DIHEDRAL.0>
44.8331

>  <SCORE.INTRA.POLAR>
-0.465722

>  <SCORE.INTRA.POLAR.0>
-0.108895

>  <SCORE.INTRA.REPUL>
0.0611063

>  <SCORE.INTRA.REPUL.0>
0.00912235

>  <SCORE.INTRA.SOLV>
-0.808529

>  <SCORE.INTRA.SOLV.lig_0>
-53.9067

>  <SCORE.INTRA.VDW>
-0.216721

>  <SCORE.INTRA.VDW.0>
-2.93492

>  <SCORE.INTRA.norm>
-0.284767

>  <SCORE.RESTR>
0.112998

>  <SCORE.RESTR.CAVITY>
0.112998

>  <SCORE.RESTR.norm>
0.003054

>  <SCORE.SYSTEM>
0

>  <SCORE.SYSTEM.CONST>
0

>  <SCORE.SYSTEM.DIHEDRAL>
0

>  <SCORE.SYSTEM.SOLV>
0

>  <SCORE.SYSTEM.norm>
0

>  <SCORE.heavy>
37

>  <SCORE.norm>
-0.979218

>  <RMSD>
0.864

$$$$
lig.pdb
 OpenBabel11021811453D
libRbt.so/2013.1/901 2013/11/27
 37 40  0  0  0  0  0  0  0  0999 V2000
   -2.1735    7.7754    8.7801 C   0  0  2  0  0  0  0  0  0  0  0  0
   -2.4656    7.1273   10.1736 C   0  0  1  0  0  0  0  0  0  0  0  0
   -1.1776    6.8301   10.9962 C   0  0  0  0  0  0  0  0  0  0  0  0
   -0.1268    6.0845   10.1366 C   0  0  1  0  0  0  0  0  0  0  0  0
    0.1780    6.8957    8.8574 C   0  0  1  0  0  0  0  0  0  0  0  0
    1.2640    6.1939    7.9985 C   0  0  1  0  0  0  0  0  0  0  0  0
    2.5355    5.8943    8.8471 C   0  0  1  0  0  0  0  0  0  0  0  0
    2.1912    5.1490   10.1708 C   0  0  2  0  0  0  0  0  0  0  0  0
    4.9016    5.4204    8.4104 C   0  0  0  0  0  0  0  0  0  0  0  0
   -1.0458    7.1312    8.1031 O   0  0  0  0  0  0  0  0  0  0  0  0
    1.0923    5.7987   10.8808 O   0  0  0  0  0  0  0  0  0  0  0  0
   -3.3620    8.0066   10.9553 N   0  0  0  0  0  0  0  0  0  0  0  0
    3.5023    5.1403    8.0226 N   0  0  0  0  0  0  0  0  0  0  0  0
    0.7587    5.0112    7.3925 O   0  0  0  0  0  0  0  0  0  0  0  0
    3.3744    5.0375   11.0147 O   0  0  0  0  0  0  0  0  0  0  0  0
   -1.9412    9.2118    8.9042 O   0  0  0  0  0  0  0  0  0  0  0  0
    3.5643    3.8144   11.7905 C   0  0  2  0  0  0  0  0  0  0  0  0
    4.3349    4.1052   13.1097 C   0  0  1  0  0  0  0  0  0  0  0  0
    5.8272    4.4522   12.8403 C   0  0  2  0  0  0  0  0  0  0  0  0
    6.5091    3.3596   11.9667 C   0  0  1  0  0  0  0  0  0  0  0  0
    5.6892    3.0757   10.6773 C   0  0  1  0  0  0  0  0  0  0  0  0
    6.2818    1.8950    9.8641 C   0  0  0  0  0  0  0  0  0  0  0  0
    4.2909    2.8192   11.0094 O   0  0  0  0  0  0  0  0  0  0  0  0
    7.9089    3.7174   11.6488 N   0  0  0  0  0  0  0  0  0  0  0  0
    3.6807    5.1292   13.8567 O   0  0  0  0  0  0  0  0  0  0  0  0
    6.5377    4.6524   14.0603 O   0  0  0  0  0  0  0  0  0  0  0  0
    7.5119    2.2679    9.2516 O   0  0  0  0  0  0  0  0  0  0  0  0
   -2.8318   10.1072    8.1769 C   0  0  1  0  0  0  0  0  0  0  0  0
   -3.0469   11.4506    8.9287 C   0  0  1  0  0  0  0  0  0  0  0  0
   -4.0739   12.3505    8.1854 C   0  0  2  0  0  0  0  0  0  0  0  0
   -3.6926   12.5779    6.6865 C   0  0  1  0  0  0  0  0  0  0  0  0
   -3.3402   11.2550    5.9426 C   0  0  0  0  0  0  0  0  0  0  0  0
   -2.3249   10.3741    6.7312 C   0  0  2  0  0  0  0  0  0  0  0  0
   -4.7627   13.3119    5.9779 N   0  0  0  0  0  0  0  0  0  0  0  0
   -2.0844    9.1196    5.9857 N   0  0  0  0  0  0  0  0  0  0  0  0
   -3.4566   11.2192   10.2726 O   0  0  0  0  0  0  0  0  0  0  0  0
   -4.2201   13.5989    8.8575 O   0  0  0  0  0  0  0  0  0  0  0  0
  1  2  1  0  0  0  0
  1 16  1  1  0  0  0
  2  3  1  0  0  0  0
  2 12  1  1  0  0  0
  4 11  1  1  0  0  0
  4  3  1  0  0  0  0
  5  4  1  0  0  0  0
  5 10  1  6  0  0  0
  6  7  1  0  0  0  0
  6  5  1  0  0  0  0
  6 14  1  1  0  0  0
  7  8  1  0  0  0  0
  7 13  1  6  0  0  0
  8 15  1  1  0  0  0
  8 11  1  0  0  0  0
  9 13  1  0  0  0  0
 10  1  1  0  0  0  0
 17 15  1  6  0  0  0
 17 18  1  0  0  0  0
 18 25  1  6  0  0  0
 19 18  1  0  0  0  0
 19 26  1  1  0  0  0
 20 19  1  0  0  0  0
 20 24  1  6  0  0  0
 21 23  1  0  0  0  0
 21 20  1  0  0  0  0
 21 22  1  1  0  0  0
 23 17  1  0  0  0  0
 27 22  1  0  0  0  0
 28 29  1  0  0  0  0
 28 16  1  1  0  0  0
 29 36  1  1  0  0  0
 30 37  1  1  0  0  0
 30 29  1  0  0  0  0
 31 30  1  0  0  0  0
 31 34  1  6  0  0  0
 32 31  1  0  0  0  0
 32 33  1  0  0  0  0
 33 28  1  0  0  0  0
 33 35  1  6  0  0  0
M  END
>  <CHROM.1>
69.45814629,-142.87831576,149.65910083,157.05439324,-149.65258472,-120.33884446
60.38372625,-178.60714488,-71.21052626,-164.09412919,-69.38462372,147.85888055
-173.08645170,176.49227294,-57.93212759,-55.57217754,0.99673416,6.95383910
9.61821272,2.86745815,0.69345717,-1.58571838

>  <Name>
lig.pdb

>  <RI>
0

>  <Rbt.Current_Directory>
/home/itssahil/PROJECTS/Mol_Feturizer/New_Systems/rnas/2m4q

>  <Rbt.Executable>
rbdock ($Id: //depot/dev/client3/rdock/2013.1/src/exe/rbdock.cxx#4 $)

>  <Rbt.Library>
libRbt.so (2013.1, Build901 2013/11/27)

>  <Rbt.Parameter_File>
/export/apps/rDock/src/rDock_2013.1_src/data/scripts/dock_solv.prm

>  <Rbt.Receptor>
prm/pocket_docking_2.prm

>  <SCORE>
-34.9541

>  <SCORE.INTER>
-17.5234

>  <SCORE.INTER.CONST>
1

>  <SCORE.INTER.POLAR>
-2.16088

>  <SCORE.INTER.ROT>
10

>  <SCORE.INTER.SOLV>
14.3362

>  <SCORE.INTER.VDW>
-19.5247

>  <SCORE.INTER.norm>
-0.473604

>  <SCORE.INTRA>
-17.5503

>  <SCORE.INTRA.DIHEDRAL>
-19.5251

>  <SCORE.INTRA.DIHEDRAL.0>
44.8331

>  <SCORE.INTRA.POLAR>
-1.92338

>  <SCORE.INTRA.POLAR.0>
-0.108895

>  <SCORE.INTRA.REPUL>
-0.00912235

>  <SCORE.INTRA.REPUL.0>
0.00912235

>  <SCORE.INTRA.SOLV>
-0.351752

>  <SCORE.INTRA.SOLV.lig_0>
-53.9067

>  <SCORE.INTRA.VDW>
-1.02679

>  <SCORE.INTRA.VDW.0>
-2.93492

>  <SCORE.INTRA.norm>
-0.474332

>  <SCORE.RESTR>
0.119515

>  <SCORE.RESTR.CAVITY>
0.119515

>  <SCORE.RESTR.norm>
0.00323014

>  <SCORE.SYSTEM>
0

>  <SCORE.SYSTEM.CONST>
0

>  <SCORE.SYSTEM.DIHEDRAL>
0

>  <SCORE.SYSTEM.SOLV>
0

>  <SCORE.SYSTEM.norm>
0

>  <SCORE.heavy>
37

>  <SCORE.norm>
-0.944707

>  <RMSD>
0.879

$$$$
lig.pdb
 OpenBabel11021811453D
libRbt.so/2013.1/901 2013/11/27
 37 40  0  0  0  0  0  0  0  0999 V2000
   -2.0060    7.8585    9.1217 C   0  0  2  0  0  0  0  0  0  0  0  0
   -2.3505    7.2178   10.5066 C   0  0  1  0  0  0  0  0  0  0  0  0
   -1.0912    6.8478   11.3439 C   0  0  0  0  0  0  0  0  0  0  0  0
   -0.0697    6.0533   10.4929 C   0  0  1  0  0  0  0  0  0  0  0  0
    0.2947    6.8554    9.2236 C   0  0  1  0  0  0  0  0  0  0  0  0
    1.3537    6.1028    8.3741 C   0  0  1  0  0  0  0  0  0  0  0  0
    2.5961    5.7311    9.2372 C   0  0  1  0  0  0  0  0  0  0  0  0
    2.1951    4.9965   10.5509 C   0  0  2  0  0  0  0  0  0  0  0  0
    4.9436    5.1863    8.7834 C   0  0  0  0  0  0  0  0  0  0  0  0
   -0.9048    7.1600    8.4550 O   0  0  0  0  0  0  0  0  0  0  0  0
    1.1225    5.6988   11.2510 O   0  0  0  0  0  0  0  0  0  0  0  0
   -3.2098    8.1382   11.2827 N   0  0  0  0  0  0  0  0  0  0  0  0
    3.5328    4.9324    8.4200 N   0  0  0  0  0  0  0  0  0  0  0  0
    0.7949    4.9522    7.7531 O   0  0  0  0  0  0  0  0  0  0  0  0
    3.3593    4.8174   11.4094 O   0  0  0  0  0  0  0  0  0  0  0  0
   -1.7000    9.2797    9.2590 O   0  0  0  0  0  0  0  0  0  0  0  0
    3.4520    3.6010   12.2130 C   0  0  2  0  0  0  0  0  0  0  0  0
    4.1908    3.8740   13.5540 C   0  0  1  0  0  0  0  0  0  0  0  0
    5.7089    4.1314   13.3330 C   0  0  2  0  0  0  0  0  0  0  0  0
    6.3583    2.9853   12.5043 C   0  0  1  0  0  0  0  0  0  0  0  0
    5.5696    2.7226   11.1910 C   0  0  1  0  0  0  0  0  0  0  0  0
    6.1226    1.4949   10.4209 C   0  0  0  0  0  0  0  0  0  0  0  0
    4.1482    2.5515   11.4766 O   0  0  0  0  0  0  0  0  0  0  0  0
    7.7864    3.2578   12.2312 N   0  0  0  0  0  0  0  0  0  0  0  0
    3.5698    4.9475   14.2587 O   0  0  0  0  0  0  0  0  0  0  0  0
    6.3861    4.3153   14.5744 O   0  0  0  0  0  0  0  0  0  0  0  0
    5.5374    1.4027    9.1261 O   0  0  0  0  0  0  0  0  0  0  0  0
   -2.7139   10.2352    8.8311 C   0  0  1  0  0  0  0  0  0  0  0  0
   -2.8749   11.4045    9.8426 C   0  0  1  0  0  0  0  0  0  0  0  0
   -4.0262   12.3588    9.4171 C   0  0  2  0  0  0  0  0  0  0  0  0
   -3.8606   12.8769    7.9515 C   0  0  1  0  0  0  0  0  0  0  0  0
   -3.5632   11.7348    6.9342 C   0  0  0  0  0  0  0  0  0  0  0  0
   -2.4181   10.7902    7.4088 C   0  0  2  0  0  0  0  0  0  0  0  0
   -5.0436   13.6594    7.5342 N   0  0  0  0  0  0  0  0  0  0  0  0
   -2.2343    9.7085    6.4170 N   0  0  0  0  0  0  0  0  0  0  0  0
   -3.0896   10.9088   11.1601 O   0  0  0  0  0  0  0  0  0  0  0  0
   -4.1263   13.4535   10.3244 O   0  0  0  0  0  0  0  0  0  0  0  0
  1  2  1  0  0  0  0
  1 16  1  1  0  0  0
  2  3  1  0  0  0  0
  2 12  1  1  0  0  0
  4 11  1  1  0  0  0
  4  3  1  0  0  0  0
  5  4  1  0  0  0  0
  5 10  1  6  0  0  0
  6  7  1  0  0  0  0
  6  5  1  0  0  0  0
  6 14  1  1  0  0  0
  7  8  1  0  0  0  0
  7 13  1  6  0  0  0
  8 15  1  1  0  0  0
  8 11  1  0  0  0  0
  9 13  1  0  0  0  0
 10  1  1  0  0  0  0
 17 15  1  6  0  0  0
 17 18  1  0  0  0  0
 18 25  1  6  0  0  0
 19 18  1  0  0  0  0
 19 26  1  1  0  0  0
 20 19  1  0  0  0  0
 20 24  1  6  0  0  0
 21 23  1  0  0  0  0
 21 20  1  0  0  0  0
 21 22  1  1  0  0  0
 23 17  1  0  0  0  0
 27 22  1  0  0  0  0
 28 29  1  0  0  0  0
 28 16  1  1  0  0  0
 29 36  1  1  0  0  0
 30 37  1  1  0  0  0
 30 29  1  0  0  0  0
 31 30  1  0  0  0  0
 31 34  1  6  0  0  0
 32 31  1  0  0  0  0
 32 33  1  0  0  0  0
 33 28  1  0  0  0  0
 33 35  1  6  0  0  0
M  END
>  <CHROM.1>
-44.73969321,-144.89543133,146.82657522,-64.00156240,-147.86405118,-104.53691105
-176.37490917,177.59261297,-170.45606853,179.48499002,167.10514199,136.71128514
179.45364410,-173.56419042,-25.85650250,167.40758373,0.93309603,6.86016229
10.18464220,-3.04825172,-0.76771068,1.35411630

>  <Name>
lig.pdb

>  <RI>
0

>  <Rbt.Current_Directory>
/home/itssahil/PROJECTS/Mol_Feturizer/New_Systems/rnas/2m4q

>  <Rbt.Executable>
rbdock ($Id: //depot/dev/client3/rdock/2013.1/src/exe/rbdock.cxx#4 $)

>  <Rbt.Library>
libRbt.so (2013.1, Build901 2013/11/27)

>  <Rbt.Parameter_File>
/export/apps/rDock/src/rDock_2013.1_src/data/scripts/dock_solv.prm

>  <Rbt.Receptor>
prm/pocket_docking_2.prm

>  <SCORE>
-31.938

>  <SCORE.INTER>
-19.1471

>  <SCORE.INTER.CONST>
1

>  <SCORE.INTER.POLAR>
-2.73691

>  <SCORE.INTER.ROT>
10

>  <SCORE.INTER.SOLV>
14.7413

>  <SCORE.INTER.VDW>
-18.8221

>  <SCORE.INTER.norm>
-0.517489

>  <SCORE.INTRA>
-12.807

>  <SCORE.INTRA.DIHEDRAL>
-18.9586

>  <SCORE.INTRA.DIHEDRAL.0>
44.8331

>  <SCORE.INTRA.POLAR>
-0.96606

>  <SCORE.INTRA.POLAR.0>
-0.108895

>  <SCORE.INTRA.REPUL>
0.0959442

>  <SCORE.INTRA.REPUL.0>
0.00912235

>  <SCORE.INTRA.SOLV>
-0.748656

>  <SCORE.INTRA.SOLV.lig_0>
-53.9067

>  <SCORE.INTRA.VDW>
-0.148498

>  <SCORE.INTRA.VDW.0>
-2.93492

>  <SCORE.INTRA.norm>
-0.346135

>  <SCORE.RESTR>
0.0160976

>  <SCORE.RESTR.CAVITY>
0.0160976

>  <SCORE.RESTR.norm>
0.000435071

>  <SCORE.SYSTEM>
0

>  <SCORE.SYSTEM.CONST>
0

>  <SCORE.SYSTEM.DIHEDRAL>
0

>  <SCORE.SYSTEM.SOLV>
0

>  <SCORE.SYSTEM.norm>
0

>  <SCORE.heavy>
37

>  <SCORE.norm>
-0.863189

>  <RMSD>
0.896

$$$$
lig.pdb
 OpenBabel11021811453D
libRbt.so/2013.1/901 2013/11/27
 37 40  0  0  0  0  0  0  0  0999 V2000
   -2.0786    7.4104    8.9696 C   0  0  2  0  0  0  0  0  0  0  0  0
   -2.3120    6.8975   10.4289 C   0  0  1  0  0  0  0  0  0  0  0  0
   -0.9905    6.6705   11.2201 C   0  0  0  0  0  0  0  0  0  0  0  0
    0.0206    5.8410   10.3903 C   0  0  1  0  0  0  0  0  0  0  0  0
    0.2720    6.5270    9.0288 C   0  0  1  0  0  0  0  0  0  0  0  0
    1.3185    5.7410    8.1941 C   0  0  1  0  0  0  0  0  0  0  0  0
    2.6246    5.5142    9.0122 C   0  0  1  0  0  0  0  0  0  0  0  0
    2.3358    4.8982   10.4134 C   0  0  2  0  0  0  0  0  0  0  0  0
    4.4173    5.4935    7.3389 C   0  0  0  0  0  0  0  0  0  0  0  0
   -0.9825    6.6986    8.3085 O   0  0  0  0  0  0  0  0  0  0  0  0
    1.2699    5.6184   11.1054 O   0  0  0  0  0  0  0  0  0  0  0  0
   -3.1719    7.8518   11.1621 N   0  0  0  0  0  0  0  0  0  0  0  0
    3.5533    4.6802    8.2215 N   0  0  0  0  0  0  0  0  0  0  0  0
    0.7848    4.5099    7.7237 O   0  0  0  0  0  0  0  0  0  0  0  0
    3.5539    4.8588   11.2128 O   0  0  0  0  0  0  0  0  0  0  0  0
   -1.8379    8.8506    8.9484 O   0  0  0  0  0  0  0  0  0  0  0  0
    3.7224    3.7707   12.1728 C   0  0  2  0  0  0  0  0  0  0  0  0
    4.5489    4.2374   13.4048 C   0  0  1  0  0  0  0  0  0  0  0  0
    6.0434    4.4697   13.0411 C   0  0  2  0  0  0  0  0  0  0  0  0
    6.6515    3.2206   12.3397 C   0  0  1  0  0  0  0  0  0  0  0  0
    5.7772    2.7677   11.1372 C   0  0  1  0  0  0  0  0  0  0  0  0
    6.2946    1.4456   10.5122 C   0  0  0  0  0  0  0  0  0  0  0  0
    4.3822    2.6307   11.5454 O   0  0  0  0  0  0  0  0  0  0  0  0
    8.0525    3.4598   11.9289 N   0  0  0  0  0  0  0  0  0  0  0  0
    3.9615    5.3971   13.9919 O   0  0  0  0  0  0  0  0  0  0  0  0
    6.8029    4.8337   14.1918 O   0  0  0  0  0  0  0  0  0  0  0  0
    5.4845    1.0552    9.4083 O   0  0  0  0  0  0  0  0  0  0  0  0
   -2.6485    9.6596    8.0471 C   0  0  1  0  0  0  0  0  0  0  0  0
   -3.2453   10.9048    8.7610 C   0  0  1  0  0  0  0  0  0  0  0  0
   -4.1832   11.7001    7.8097 C   0  0  2  0  0  0  0  0  0  0  0  0
   -3.4843   12.0810    6.4643 C   0  0  1  0  0  0  0  0  0  0  0  0
   -2.7611   10.8748    5.7934 C   0  0  0  0  0  0  0  0  0  0  0  0
   -1.8485   10.0935    6.7861 C   0  0  2  0  0  0  0  0  0  0  0  0
   -4.4466   12.7040    5.5305 N   0  0  0  0  0  0  0  0  0  0  0  0
   -1.2426    8.9393    6.0876 N   0  0  0  0  0  0  0  0  0  0  0  0
   -3.9327   10.5266    9.9492 O   0  0  0  0  0  0  0  0  0  0  0  0
   -4.6799   12.8666    8.4610 O   0  0  0  0  0  0  0  0  0  0  0  0
  1  2  1  0  0  0  0
  1 16  1  1  0  0  0
  2  3  1  0  0  0  0
  2 12  1  1  0  0  0
  4 11  1  1  0  0  0
  4  3  1  0  0  0  0
  5  4  1  0  0  0  0
  5 10  1  6  0  0  0
  6  7  1  0  0  0  0
  6  5  1  0  0  0  0
  6 14  1  1  0  0  0
  7  8  1  0  0  0  0
  7 13  1  6  0  0  0
  8 15  1  1  0  0  0
  8 11  1  0  0  0  0
  9 13  1  0  0  0  0
 10  1  1  0  0  0  0
 17 15  1  6  0  0  0
 17 18  1  0  0  0  0
 18 25  1  6  0  0  0
 19 18  1  0  0  0  0
 19 26  1  1  0  0  0
 20 19  1  0  0  0  0
 20 24  1  6  0  0  0
 21 23  1  0  0  0  0
 21 20  1  0  0  0  0
 21 22  1  1  0  0  0
 23 17  1  0  0  0  0
 27 22  1  0  0  0  0
 28 29  1  0  0  0  0
 28 16  1  1  0  0  0
 29 36  1  1  0  0  0
 30 37  1  1  0  0  0
 30 29  1  0  0  0  0
 31 30  1  0  0  0  0
 31 34  1  6  0  0  0
 32 31  1  0  0  0  0
 32 33  1  0  0  0  0
 33 28  1  0  0  0  0
 33 35  1  6  0  0  0
M  END
>  <CHROM.1>
159.04158552,-147.91482786,88.22659929,46.29461334,-148.49120666,-127.97195287
178.77951595,62.61433801,-179.61381275,-54.97463500,159.12775106,131.69302743
45.73668396,-144.25180708,173.69771366,113.41843231,1.04355061,6.63115806
9.72038015,2.85799352,0.70238735,-1.64452593

>  <Name>
lig.pdb

>  <RI>
0

>  <Rbt.Current_Directory>
/home/itssahil/PROJECTS/Mol_Feturizer/New_Systems/rnas/2m4q

>  <Rbt.Executable>
rbdock ($Id: //depot/dev/client3/rdock/2013.1/src/exe/rbdock.cxx#4 $)

>  <Rbt.Library>
libRbt.so (2013.1, Build901 2013/11/27)

>  <Rbt.Parameter_File>
/export/apps/rDock/src/rDock_2013.1_src/data/scripts/dock_solv.prm

>  <Rbt.Receptor>
prm/pocket_docking_3.prm

>  <SCORE>
-44.4736

>  <SCORE.INTER>
-33.5654

>  <SCORE.INTER.CONST>
1

>  <SCORE.INTER.POLAR>
-4.69716

>  <SCORE.INTER.ROT>
10

>  <SCORE.INTER.SOLV>
17.9042

>  <SCORE.INTER.VDW>
-22.9544

>  <SCORE.INTER.norm>
-0.907172

>  <SCORE.INTRA>
-10.9082

>  <SCORE.INTRA.DIHEDRAL>
-10.7003

>  <SCORE.INTRA.DIHEDRAL.0>
44.8331

>  <SCORE.INTRA.POLAR>
-1.66907

>  <SCORE.INTRA.POLAR.0>
-0.108895

>  <SCORE.INTRA.REPUL>
0.096209

>  <SCORE.INTRA.REPUL.0>
0.00912235

>  <SCORE.INTRA.SOLV>
-1.19416

>  <SCORE.INTRA.SOLV.lig_0>
-53.9067

>  <SCORE.INTRA.VDW>
0.232793

>  <SCORE.INTRA.VDW.0>
-2.93492

>  <SCORE.INTRA.norm>
-0.294816

>  <SCORE.RESTR>
0

>  <SCORE.RESTR.CAVITY>
0

>  <SCORE.RESTR.norm>
0

>  <SCORE.SYSTEM>
0

>  <SCORE.SYSTEM.CONST>
0

>  <SCORE.SYSTEM.DIHEDRAL>
0

>  <SCORE.SYSTEM.SOLV>
0

>  <SCORE.SYSTEM.norm>
0

>  <SCORE.heavy>
37

>  <SCORE.norm>
-1.20199

>  <RMSD>
0.917

$$$$
lig.pdb
 OpenBabel11021811453D
libRbt.so/2013.1/901 2013/11/27
 37 40  0  0  0  0  0  0  0  0999 V2000
   -3.0753    8.2180   10.6000 C   0  0  2  0  0  0  0  0  0  0  0  0
   -2.9744    7.9040   12.1292 C   0  0  1  0  0  0  0  0  0  0  0  0
   -1.5190    7.6227   12.6049 C   0  0  0  0  0  0  0  0  0  0  0  0
   -0.8187    6.5965   11.6800 C   0  0  1  0  0  0  0  0  0  0  0  0
   -0.8637    7.0905   10.2167 C   0  0  1  0  0  0  0  0  0  0  0  0
   -0.1271    6.1027    9.2726 C   0  0  1  0  0  0  0  0  0  0  0  0
    1.3203    5.8263    9.7778 C   0  0  1  0  0  0  0  0  0  0  0  0
    1.3448    5.4101   11.2786 C   0  0  2  0  0  0  0  0  0  0  0  0
    2.9814    5.3940    8.0263 C   0  0  0  0  0  0  0  0  0  0  0  0
   -2.2412    7.3177    9.8008 O   0  0  0  0  0  0  0  0  0  0  0  0
    0.5484    6.3189   12.0993 O   0  0  0  0  0  0  0  0  0  0  0  0
   -3.5432    9.0255   12.9079 N   0  0  0  0  0  0  0  0  0  0  0  0
    1.9505    4.8092    8.9109 N   0  0  0  0  0  0  0  0  0  0  0  0
   -0.8586    4.8933    9.1180 O   0  0  0  0  0  0  0  0  0  0  0  0
    2.7177    5.3264   11.7611 O   0  0  0  0  0  0  0  0  0  0  0  0
   -2.7333    9.6105   10.3234 O   0  0  0  0  0  0  0  0  0  0  0  0
    3.2521    4.0146   12.1181 C   0  0  2  0  0  0  0  0  0  0  0  0
    4.3958    4.1445   13.1639 C   0  0  1  0  0  0  0  0  0  0  0  0
    5.6790    4.7641   12.5397 C   0  0  2  0  0  0  0  0  0  0  0  0
    6.1109    3.9909   11.2601 C   0  0  1  0  0  0  0  0  0  0  0  0
    4.9304    3.8540   10.2586 C   0  0  1  0  0  0  0  0  0  0  0  0
    5.3056    2.9696    9.0407 C   0  0  0  0  0  0  0  0  0  0  0  0
    3.7494    3.3235   10.9335 O   0  0  0  0  0  0  0  0  0  0  0  0
    7.2901    4.6167   10.6226 N   0  0  0  0  0  0  0  0  0  0  0  0
    3.9528    4.8815   14.3019 O   0  0  0  0  0  0  0  0  0  0  0  0
    6.7401    4.8176   13.4908 O   0  0  0  0  0  0  0  0  0  0  0  0
    5.5888    1.6357    9.4505 O   0  0  0  0  0  0  0  0  0  0  0  0
   -3.2896   10.2186    9.1214 C   0  0  1  0  0  0  0  0  0  0  0  0
   -3.7302   11.6894    9.3641 C   0  0  1  0  0  0  0  0  0  0  0  0
   -4.4082   12.2872    8.0992 C   0  0  2  0  0  0  0  0  0  0  0  0
   -3.5153   12.1511    6.8233 C   0  0  1  0  0  0  0  0  0  0  0  0
   -2.9486   10.7126    6.6298 C   0  0  0  0  0  0  0  0  0  0  0  0
   -2.2973   10.1438    7.9263 C   0  0  2  0  0  0  0  0  0  0  0  0
   -4.2492   12.5946    5.6188 N   0  0  0  0  0  0  0  0  0  0  0  0
   -1.8334    8.7622    7.6744 N   0  0  0  0  0  0  0  0  0  0  0  0
   -4.5948   11.7797   10.4919 O   0  0  0  0  0  0  0  0  0  0  0  0
   -4.7580   13.6513    8.3195 O   0  0  0  0  0  0  0  0  0  0  0  0
  1  2  1  0  0  0  0
  1 16  1  1  0  0  0
  2  3  1  0  0  0  0
  2 12  1  1  0  0  0
  4 11  1  1  0  0  0
  4  3  1  0  0  0  0
  5  4  1  0  0  0  0
  5 10  1  6  0  0  0
  6  7  1  0  0  0  0
  6  5  1  0  0  0  0
  6 14  1  1  0  0  0
  7  8  1  0  0  0  0
  7 13  1  6  0  0  0
  8 15  1  1  0  0  0
  8 11  1  0  0  0  0
  9 13  1  0  0  0  0
 10  1  1  0  0  0  0
 17 15  1  6  0  0  0
 17 18  1  0  0  0  0
 18 25  1  1  0  0  0
 19 18  1  0  0  0  0
 19 26  1  1  0  0  0
 20 19  1  0  0  0  0
 20 24  1  6  0  0  0
 21 23  1  0  0  0  0
 21 20  1  0  0  0  0
 21 22  1  6  0  0  0
 23 17  1  0  0  0  0
 27 22  1  0  0  0  0
 28 29  1  0  0  0  0
 28 16  1  1  0  0  0
 29 36  1  1  0  0  0
 30 37  1  1  0  0  0
 30 29  1  0  0  0  0
 31 30  1  0  0  0  0
 31 34  1  6  0  0  0
 32 31  1  0  0  0  0
 32 33  1  0  0  0  0
 33 28  1  0  0  0  0
 33 35  1  6  0  0  0
M  END
>  <CHROM.1>
-46.86290044,-112.46354212,107.28826470,154.38760974,-154.33067053,-154.73322278
62.23533368,-177.93972109,63.51676190,-179.80233688,-63.46529658,140.36467841
177.22486641,-85.02529216,-60.20702143,-176.06333037,0.38972392,7.13721378
10.21681026,2.80503493,0.64996716,-1.40317312

>  <Name>
lig.pdb

>  <RI>
0

>  <Rbt.Current_Directory>
/home/itssahil/PROJECTS/Mol_Feturizer/New_Systems/rnas/2m4q

>  <Rbt.Executable>
rbdock ($Id: //depot/dev/client3/rdock/2013.1/src/exe/rbdock.cxx#4 $)

>  <Rbt.Library>
libRbt.so (2013.1, Build901 2013/11/27)

>  <Rbt.Parameter_File>
/export/apps/rDock/src/rDock_2013.1_src/data/scripts/dock_solv.prm

>  <Rbt.Receptor>
prm/pocket_docking_2.prm

>  <SCORE>
-36.0515

>  <SCORE.INTER>
-22.9432

>  <SCORE.INTER.CONST>
1

>  <SCORE.INTER.POLAR>
-3.27353

>  <SCORE.INTER.ROT>
10

>  <SCORE.INTER.SOLV>
15.4772

>  <SCORE.INTER.VDW>
-19.8095

>  <SCORE.INTER.norm>
-0.620088

>  <SCORE.INTRA>
-13.1494

>  <SCORE.INTRA.DIHEDRAL>
-18.4996

>  <SCORE.INTRA.DIHEDRAL.0>
44.8331

>  <SCORE.INTRA.POLAR>
-0.593796

>  <SCORE.INTRA.POLAR.0>
-0.108895

>  <SCORE.INTRA.REPUL>
-0.00912235

>  <SCORE.INTRA.REPUL.0>
0.00912235

>  <SCORE.INTRA.SOLV>
-0.584688

>  <SCORE.INTRA.SOLV.lig_0>
-53.9067

>  <SCORE.INTRA.VDW>
-1.54278

>  <SCORE.INTRA.VDW.0>
-2.93492

>  <SCORE.INTRA.norm>
-0.35539

>  <SCORE.RESTR>
0.0412096

>  <SCORE.RESTR.CAVITY>
0.0412096

>  <SCORE.RESTR.norm>
0.00111377

>  <SCORE.SYSTEM>
0

>  <SCORE.SYSTEM.CONST>
0

>  <SCORE.SYSTEM.DIHEDRAL>
0

>  <SCORE.SYSTEM.SOLV>
0

>  <SCORE.SYSTEM.norm>
0

>  <SCORE.heavy>
37

>  <SCORE.norm>
-0.974364

>  <RMSD>
0.923

$$$$
lig.pdb
 OpenBabel11021811453D
libRbt.so/2013.1/901 2013/11/27
 37 40  0  0  0  0  0  0  0  0999 V2000
   -2.1353    7.5182    8.9674 C   0  0  2  0  0  0  0  0  0  0  0  0
   -2.3435    7.0066   10.4310 C   0  0  1  0  0  0  0  0  0  0  0  0
   -1.0097    6.8069   11.2087 C   0  0  0  0  0  0  0  0  0  0  0  0
    0.0076    5.9931   10.3710 C   0  0  1  0  0  0  0  0  0  0  0  0
    0.2318    6.6785    9.0045 C   0  0  1  0  0  0  0  0  0  0  0  0
    1.2836    5.9088    8.1613 C   0  0  1  0  0  0  0  0  0  0  0  0
    2.6024    5.7092    8.9661 C   0  0  1  0  0  0  0  0  0  0  0  0
    2.3400    5.0932   10.3725 C   0  0  2  0  0  0  0  0  0  0  0  0
    4.4462    5.7206    7.3493 C   0  0  0  0  0  0  0  0  0  0  0  0
   -1.0334    6.8243    8.2972 O   0  0  0  0  0  0  0  0  0  0  0  0
    1.2685    5.7963   11.0734 O   0  0  0  0  0  0  0  0  0  0  0  0
   -3.2130    7.9475   11.1700 N   0  0  0  0  0  0  0  0  0  0  0  0
    3.5378    4.8895    8.1684 N   0  0  0  0  0  0  0  0  0  0  0  0
    0.7677    4.6664    7.7011 O   0  0  0  0  0  0  0  0  0  0  0  0
    3.5671    5.0792   11.1589 O   0  0  0  0  0  0  0  0  0  0  0  0
   -1.9214    8.9625    8.9385 O   0  0  0  0  0  0  0  0  0  0  0  0
    3.8284    3.9302   12.0222 C   0  0  2  0  0  0  0  0  0  0  0  0
    4.9833    4.2331   13.0188 C   0  0  1  0  0  0  0  0  0  0  0  0
    6.3600    4.3097   12.2986 C   0  0  2  0  0  0  0  0  0  0  0  0
    6.6166    3.0372   11.4403 C   0  0  1  0  0  0  0  0  0  0  0  0
    5.4247    2.7519   10.4846 C   0  0  1  0  0  0  0  0  0  0  0  0
    5.6037    1.4134    9.7213 C   0  0  0  0  0  0  0  0  0  0  0  0
    4.1664    2.7560   11.2251 O   0  0  0  0  0  0  0  0  0  0  0  0
    7.8927    3.1339   10.6981 N   0  0  0  0  0  0  0  0  0  0  0  0
    4.7075    5.4206   13.7593 O   0  0  0  0  0  0  0  0  0  0  0  0
    7.4178    4.5227   13.2310 O   0  0  0  0  0  0  0  0  0  0  0  0
    5.2289    0.3094   10.5387 O   0  0  0  0  0  0  0  0  0  0  0  0
   -2.8640    9.7716    8.1764 C   0  0  1  0  0  0  0  0  0  0  0  0
   -3.1644   11.1274    8.8750 C   0  0  1  0  0  0  0  0  0  0  0  0
   -4.2434   11.9318    8.0966 C   0  0  2  0  0  0  0  0  0  0  0  0
   -3.8727   12.1238    6.5901 C   0  0  1  0  0  0  0  0  0  0  0  0
   -3.4365   10.7974    5.8986 C   0  0  0  0  0  0  0  0  0  0  0  0
   -2.3706   10.0130    6.7215 C   0  0  2  0  0  0  0  0  0  0  0  0
   -4.9845   12.7615    5.8529 N   0  0  0  0  0  0  0  0  0  0  0  0
   -2.0504    8.7477    6.0259 N   0  0  0  0  0  0  0  0  0  0  0  0
   -3.5627   10.9235   10.2268 O   0  0  0  0  0  0  0  0  0  0  0  0
   -4.4688   13.1940    8.7192 O   0  0  0  0  0  0  0  0  0  0  0  0
  1  2  1  0  0  0  0
  1 16  1  1  0  0  0
  2  3  1  0  0  0  0
  2 12  1  1  0  0  0
  4 11  1  1  0  0  0
  4  3  1  0  0  0  0
  5  4  1  0  0  0  0
  5 10  1  6  0  0  0
  6  7  1  0  0  0  0
  6  5  1  0  0  0  0
  6 14  1  1  0  0  0
  7  8  1  0  0  0  0
  7 13  1  6  0  0  0
  8 15  1  1  0  0  0
  8 11  1  0  0  0  0
  9 13  1  0  0  0  0
 10  1  1  0  0  0  0
 17 15  1  6  0  0  0
 17 18  1  0  0  0  0
 18 25  1  6  0  0  0
 19 18  1  0  0  0  0
 19 26  1  1  0  0  0
 20 19  1  0  0  0  0
 20 24  1  6  0  0  0
 21 23  1  0  0  0  0
 21 20  1  0  0  0  0
 21 22  1  1  0  0  0
 23 17  1  0  0  0  0
 27 22  1  0  0  0  0
 28 29  1  0  0  0  0
 28 16  1  1  0  0  0
 29 36  1  1  0  0  0
 30 37  1  1  0  0  0
 30 29  1  0  0  0  0
 31 30  1  0  0  0  0
 31 34  1  6  0  0  0
 32 31  1  0  0  0  0
 32 33  1  0  0  0  0
 33 28  1  0  0  0  0
 33 35  1  6  0  0  0
M  END
>  <CHROM.1>
154.14001845,-141.88785653,92.51882367,39.57713779,-166.57953418,-120.31950232
61.31087798,-177.41273587,80.61080868,64.13630637,-64.47859714,142.50931936
39.86455037,-60.28360153,-67.44408092,-46.96939745,0.98746472,6.68043350
9.61682338,2.97156412,0.71724487,-1.74121608

>  <Name>
lig.pdb

>  <RI>
0

>  <Rbt.Current_Directory>
/home/itssahil/PROJECTS/Mol_Feturizer/New_Systems/rnas/2m4q

>  <Rbt.Executable>
rbdock ($Id: //depot/dev/client3/rdock/2013.1/src/exe/rbdock.cxx#4 $)

>  <Rbt.Library>
libRbt.so (2013.1, Build901 2013/11/27)

>  <Rbt.Parameter_File>
/export/apps/rDock/src/rDock_2013.1_src/data/scripts/dock_solv.prm

>  <Rbt.Receptor>
prm/pocket_docking_2.prm

>  <SCORE>
-42.4292

>  <SCORE.INTER>
-27.6235

>  <SCORE.INTER.CONST>
1

>  <SCORE.INTER.POLAR>
-3.50054

>  <SCORE.INTER.ROT>
10

>  <SCORE.INTER.SOLV>
17.726

>  <SCORE.INTER.VDW>
-22.9225

>  <SCORE.INTER.norm>
-0.746582

>  <SCORE.INTRA>
-15.64

>  <SCORE.INTRA.DIHEDRAL>
-18.526

>  <SCORE.INTRA.DIHEDRAL.0>
44.8331

>  <SCORE.INTRA.POLAR>
-1.45138

>  <SCORE.INTRA.POLAR.0>
-0.108895

>  <SCORE.INTRA.REPUL>
-0.00912235

>  <SCORE.INTRA.REPUL.0>
0.00912235

>  <SCORE.INTRA.SOLV>
-1.21783

>  <SCORE.INTRA.SOLV.lig_0>
-53.9067

>  <SCORE.INTRA.VDW>
-0.787815

>  <SCORE.INTRA.VDW.0>
-2.93492

>  <SCORE.INTRA.norm>
-0.422703

>  <SCORE.RESTR>
0.834371

>  <SCORE.RESTR.CAVITY>
0.834371

>  <SCORE.RESTR.norm>
0.0225506

>  <SCORE.SYSTEM>
0

>  <SCORE.SYSTEM.CONST>
0

>  <SCORE.SYSTEM.DIHEDRAL>
0

>  <SCORE.SYSTEM.SOLV>
0

>  <SCORE.SYSTEM.norm>
0

>  <SCORE.heavy>
37

>  <SCORE.norm>
-1.14673

>  <RMSD>
0.934

$$$$
lig.pdb
 OpenBabel11021811453D
libRbt.so/2013.1/901 2013/11/27
 37 40  0  0  0  0  0  0  0  0999 V2000
   -2.0414    7.6287    8.6330 C   0  0  2  0  0  0  0  0  0  0  0  0
   -2.3763    6.9861   10.0194 C   0  0  1  0  0  0  0  0  0  0  0  0
   -1.1117    6.6380   10.8580 C   0  0  0  0  0  0  0  0  0  0  0  0
   -0.0774    5.8576   10.0093 C   0  0  1  0  0  0  0  0  0  0  0  0
    0.2747    6.6623    8.7382 C   0  0  1  0  0  0  0  0  0  0  0  0
    1.3458    5.9244    7.8909 C   0  0  1  0  0  0  0  0  0  0  0  0
    2.5936    5.5745    8.7553 C   0  0  1  0  0  0  0  0  0  0  0  0
    2.2038    4.8369   10.0707 C   0  0  2  0  0  0  0  0  0  0  0  0
    4.5986    5.6360    7.3447 C   0  0  0  0  0  0  0  0  0  0  0  0
   -0.9290    6.9461    7.9684 O   0  0  0  0  0  0  0  0  0  0  0  0
    1.1200    5.5238   10.7687 O   0  0  0  0  0  0  0  0  0  0  0  0
   -3.2503    7.8946   10.7929 N   0  0  0  0  0  0  0  0  0  0  0  0
    3.5431    4.7887    7.9405 N   0  0  0  0  0  0  0  0  0  0  0  0
    0.8055    4.7637    7.2725 O   0  0  0  0  0  0  0  0  0  0  0  0
    3.3704    4.6783   10.9301 O   0  0  0  0  0  0  0  0  0  0  0  0
   -1.7580    9.0549    8.7670 O   0  0  0  0  0  0  0  0  0  0  0  0
    3.8570    3.3280   11.2021 C   0  0  2  0  0  0  0  0  0  0  0  0
    4.5889    3.2651   12.5729 C   0  0  1  0  0  0  0  0  0  0  0  0
    5.9549    4.0082   12.5309 C   0  0  2  0  0  0  0  0  0  0  0  0
    6.8332    3.5029   11.3497 C   0  0  1  0  0  0  0  0  0  0  0  0
    6.0528    3.5500   10.0065 C   0  0  1  0  0  0  0  0  0  0  0  0
    6.8659    2.9231    8.8436 C   0  0  0  0  0  0  0  0  0  0  0  0
    4.7602    2.8857   10.1453 O   0  0  0  0  0  0  0  0  0  0  0  0
    8.1049    4.2536   11.2620 N   0  0  0  0  0  0  0  0  0  0  0  0
    3.7486    3.7622   13.6128 O   0  0  0  0  0  0  0  0  0  0  0  0
    6.6451    3.8876   13.7729 O   0  0  0  0  0  0  0  0  0  0  0  0
    6.2614    3.2139    7.5877 O   0  0  0  0  0  0  0  0  0  0  0  0
   -2.7427    9.9932    8.2436 C   0  0  1  0  0  0  0  0  0  0  0  0
   -2.7412   11.3355    9.0275 C   0  0  1  0  0  0  0  0  0  0  0  0
   -3.8624   12.2838    8.5168 C   0  0  2  0  0  0  0  0  0  0  0  0
   -3.7919   12.5129    6.9720 C   0  0  1  0  0  0  0  0  0  0  0  0
   -3.6567   11.1856    6.1672 C   0  0  0  0  0  0  0  0  0  0  0  0
   -2.5368   10.2562    6.7247 C   0  0  2  0  0  0  0  0  0  0  0  0
   -4.9548   13.2968    6.5037 N   0  0  0  0  0  0  0  0  0  0  0  0
   -2.5084    9.0016    5.9420 N   0  0  0  0  0  0  0  0  0  0  0  0
   -2.8718   11.1053   10.4266 O   0  0  0  0  0  0  0  0  0  0  0  0
   -3.8140   13.5294    9.2081 O   0  0  0  0  0  0  0  0  0  0  0  0
  1  2  1  0  0  0  0
  1 16  1  1  0  0  0
  2  3  1  0  0  0  0
  2 12  1  1  0  0  0
  4 11  1  1  0  0  0
  4  3  1  0  0  0  0
  5  4  1  0  0  0  0
  5 10  1  6  0  0  0
  6  7  1  0  0  0  0
  6  5  1  0  0  0  0
  6 14  1  1  0  0  0
  7  8  1  0  0  0  0
  7 13  1  6  0  0  0
  8 15  1  1  0  0  0
  8 11  1  0  0  0  0
  9 13  1  0  0  0  0
 10  1  1  0  0  0  0
 17 15  1  6  0  0  0
 17 18  1  0  0  0  0
 18 25  1  1  0  0  0
 19 18  1  0  0  0  0
 19 26  1  1  0  0  0
 20 19  1  0  0  0  0
 20 24  1  6  0  0  0
 21 23  1  0  0  0  0
 21 20  1  0  0  0  0
 21 22  1  6  0  0  0
 23 17  1  0  0  0  0
 27 22  1  0  0  0  0
 28 29  1  0  0  0  0
 28 16  1  1  0  0  0
 29 36  1  1  0  0  0
 30 37  1  1  0  0  0
 30 29  1  0  0  0  0
 31 30  1  0  0  0  0
 31 34  1  6  0  0  0
 32 31  1  0  0  0  0
 32 33  1  0  0  0  0
 33 28  1  0  0  0  0
 33 35  1  6  0  0  0
M  END
>  <CHROM.1>
165.03101054,-114.77051890,96.29896158,27.53880092,-152.79909245,-109.09824239
-53.72294800,177.49653314,-168.26297835,-179.62428807,-90.89486012,150.67931578
-178.05389461,-177.04924713,-173.71869413,-47.06840764,1.06260394,6.82362720
9.40063200,-2.87071148,-0.67695057,1.62777516

>  <Name>
lig.pdb

>  <RI>
0

>  <Rbt.Current_Directory>
/home/itssahil/PROJECTS/Mol_Feturizer/New_Systems/rnas/2m4q

>  <Rbt.Executable>
rbdock ($Id: //depot/dev/client3/rdock/2013.1/src/exe/rbdock.cxx#4 $)

>  <Rbt.Library>
libRbt.so (2013.1, Build901 2013/11/27)

>  <Rbt.Parameter_File>
/export/apps/rDock/src/rDock_2013.1_src/data/scripts/dock_solv.prm

>  <Rbt.Receptor>
prm/pocket_docking_2.prm

>  <SCORE>
-36.4324

>  <SCORE.INTER>
-28.6615

>  <SCORE.INTER.CONST>
1

>  <SCORE.INTER.POLAR>
-4.22934

>  <SCORE.INTER.ROT>
10

>  <SCORE.INTER.SOLV>
17.2226

>  <SCORE.INTER.VDW>
-21.0174

>  <SCORE.INTER.norm>
-0.774636

>  <SCORE.INTRA>
-7.77581

>  <SCORE.INTRA.DIHEDRAL>
-13.3057

>  <SCORE.INTRA.DIHEDRAL.0>
44.8331

>  <SCORE.INTRA.POLAR>
-1.22872

>  <SCORE.INTRA.POLAR.0>
-0.108895

>  <SCORE.INTRA.REPUL>
0.697219

>  <SCORE.INTRA.REPUL.0>
0.00912235

>  <SCORE.INTRA.SOLV>
-0.283612

>  <SCORE.INTRA.SOLV.lig_0>
-53.9067

>  <SCORE.INTRA.VDW>
-0.289629

>  <SCORE.INTRA.VDW.0>
-2.93492

>  <SCORE.INTRA.norm>
-0.210157

>  <SCORE.RESTR>
0.00494951

>  <SCORE.RESTR.CAVITY>
0.00494951

>  <SCORE.RESTR.norm>
0.000133771

>  <SCORE.SYSTEM>
0

>  <SCORE.SYSTEM.CONST>
0

>  <SCORE.SYSTEM.DIHEDRAL>
0

>  <SCORE.SYSTEM.SOLV>
0

>  <SCORE.SYSTEM.norm>
0

>  <SCORE.heavy>
37

>  <SCORE.norm>
-0.984659

>  <RMSD>
0.970

$$$$
lig.pdb
 OpenBabel11021811453D
libRbt.so/2013.1/901 2013/11/27
 37 40  0  0  0  0  0  0  0  0999 V2000
   -2.5903    8.0910   10.2262 C   0  0  2  0  0  0  0  0  0  0  0  0
   -2.7918    7.5336   11.6740 C   0  0  1  0  0  0  0  0  0  0  0  0
   -1.4566    7.1528   12.3781 C   0  0  0  0  0  0  0  0  0  0  0  0
   -0.5716    6.2757   11.4581 C   0  0  1  0  0  0  0  0  0  0  0  0
   -0.3310    6.9991   10.1141 C   0  0  1  0  0  0  0  0  0  0  0  0
    0.5929    6.1623    9.1890 C   0  0  1  0  0  0  0  0  0  0  0  0
    1.9144    5.7818    9.9208 C   0  0  1  0  0  0  0  0  0  0  0  0
    1.6451    5.1295   11.3095 C   0  0  2  0  0  0  0  0  0  0  0  0
    4.1682    5.1725    9.1706 C   0  0  0  0  0  0  0  0  0  0  0  0
   -1.6010    7.3155    9.4746 O   0  0  0  0  0  0  0  0  0  0  0  0
    0.6884    5.9093   12.0907 O   0  0  0  0  0  0  0  0  0  0  0  0
   -3.5202    8.5258   12.4941 N   0  0  0  0  0  0  0  0  0  0  0  0
    2.7191    4.9057    9.0444 N   0  0  0  0  0  0  0  0  0  0  0  0
   -0.0759    5.0071    8.6992 O   0  0  0  0  0  0  0  0  0  0  0  0
    2.8953    4.9442   12.0356 O   0  0  0  0  0  0  0  0  0  0  0  0
   -2.2198    9.5033   10.2511 O   0  0  0  0  0  0  0  0  0  0  0  0
    3.0684    3.7279   12.8259 C   0  0  2  0  0  0  0  0  0  0  0  0
    4.0664    3.9607   13.9957 C   0  0  1  0  0  0  0  0  0  0  0  0
    5.5262    4.1233   13.4834 C   0  0  2  0  0  0  0  0  0  0  0  0
    5.9344    2.9359   12.5640 C   0  0  1  0  0  0  0  0  0  0  0  0
    4.8935    2.7165   11.4309 C   0  0  1  0  0  0  0  0  0  0  0  0
    5.2138    1.4537   10.5887 C   0  0  0  0  0  0  0  0  0  0  0  0
    3.5460    2.6344   11.9865 O   0  0  0  0  0  0  0  0  0  0  0  0
    7.2970    3.1188   12.0176 N   0  0  0  0  0  0  0  0  0  0  0  0
    3.6577    5.0734   14.7890 O   0  0  0  0  0  0  0  0  0  0  0  0
    6.4394    4.2706   14.5686 O   0  0  0  0  0  0  0  0  0  0  0  0
    6.4595    1.5966    9.9141 O   0  0  0  0  0  0  0  0  0  0  0  0
   -3.0810   10.4420    9.5432 C   0  0  1  0  0  0  0  0  0  0  0  0
   -3.2465   11.7785   10.3195 C   0  0  1  0  0  0  0  0  0  0  0  0
   -4.2440   12.7267    9.5962 C   0  0  2  0  0  0  0  0  0  0  0  0
   -3.8599   12.9674    8.1001 C   0  0  1  0  0  0  0  0  0  0  0  0
   -3.5563   11.6464    7.3315 C   0  0  0  0  0  0  0  0  0  0  0  0
   -2.5698   10.7168    8.1004 C   0  0  2  0  0  0  0  0  0  0  0  0
   -4.9060   13.7506    7.4087 N   0  0  0  0  0  0  0  0  0  0  0  0
   -2.3757    9.4681    7.3320 N   0  0  0  0  0  0  0  0  0  0  0  0
   -3.6597   11.5376   11.6607 O   0  0  0  0  0  0  0  0  0  0  0  0
   -4.3442   13.9673   10.2908 O   0  0  0  0  0  0  0  0  0  0  0  0
  1  2  1  0  0  0  0
  1 16  1  1  0  0  0
  2  3  1  0  0  0  0
  2 12  1  1  0  0  0
  4 11  1  1  0  0  0
  4  3  1  0  0  0  0
  5  4  1  0  0  0  0
  5 10  1  6  0  0  0
  6  7  1  0  0  0  0
  6  5  1  0  0  0  0
  6 14  1  1  0  0  0
  7  8  1  0  0  0  0
  7 13  1  6  0  0  0
  8 15  1  1  0  0  0
  8 11  1  0  0  0  0
  9 13  1  0  0  0  0
 10  1  1  0  0  0  0
 17 15  1  6  0  0  0
 17 18  1  0  0  0  0
 18 25  1  6  0  0  0
 19 18  1  0  0  0  0
 19 26  1  1  0  0  0
 20 19  1  0  0  0  0
 20 24  1  6  0  0  0
 21 23  1  0  0  0  0
 21 20  1  0  0  0  0
 21 22  1  1  0  0  0
 23 17  1  0  0  0  0
 27 22  1  0  0  0  0
 28 29  1  0  0  0  0
 28 16  1  1  0  0  0
 29 36  1  1  0  0  0
 30 37  1  1  0  0  0
 30 29  1  0  0  0  0
 31 30  1  0  0  0  0
 31 34  1  6  0  0  0
 32 31  1  0  0  0  0
 32 33  1  0  0  0  0
 33 28  1  0  0  0  0
 33 35  1  6  0  0  0
M  END
>  <CHROM.1>
-30.56360662,-141.43350425,143.52631948,-58.53295072,-153.63031195,-121.78839017
64.70361878,-58.43429485,-63.47509707,85.81340877,-166.11041299,141.10951952
176.53061113,-74.12860629,93.59410813,163.51789246,0.55927809,6.99188711
10.76061501,2.98410988,0.77191511,-1.66812960

>  <Name>
lig.pdb

>  <RI>
0

>  <Rbt.Current_Directory>
/home/itssahil/PROJECTS/Mol_Feturizer/New_Systems/rnas/2m4q

>  <Rbt.Executable>
rbdock ($Id: //depot/dev/client3/rdock/2013.1/src/exe/rbdock.cxx#4 $)

>  <Rbt.Library>
libRbt.so (2013.1, Build901 2013/11/27)

>  <Rbt.Parameter_File>
/export/apps/rDock/src/rDock_2013.1_src/data/scripts/dock_solv.prm

>  <Rbt.Receptor>
prm/pocket_docking_2.prm

>  <SCORE>
-37.6015

>  <SCORE.INTER>
-23.1648

>  <SCORE.INTER.CONST>
1

>  <SCORE.INTER.POLAR>
-3.92838

>  <SCORE.INTER.ROT>
10

>  <SCORE.INTER.SOLV>
13.6854

>  <SCORE.INTER.VDW>
-17.1771

>  <SCORE.INTER.norm>
-0.626077

>  <SCORE.INTRA>
-14.7081

>  <SCORE.INTRA.DIHEDRAL>
-16.5649

>  <SCORE.INTRA.DIHEDRAL.0>
44.8331

>  <SCORE.INTRA.POLAR>
-1.77757

>  <SCORE.INTRA.POLAR.0>
-0.108895

>  <SCORE.INTRA.REPUL>
-0.00912235

>  <SCORE.INTRA.REPUL.0>
0.00912235

>  <SCORE.INTRA.SOLV>
-0.0812937

>  <SCORE.INTRA.SOLV.lig_0>
-53.9067

>  <SCORE.INTRA.VDW>
-0.295638

>  <SCORE.INTRA.VDW.0>
-2.93492

>  <SCORE.INTRA.norm>
-0.397515

>  <SCORE.RESTR>
0.271431

>  <SCORE.RESTR.CAVITY>
0.271431

>  <SCORE.RESTR.norm>
0.00733599

>  <SCORE.SYSTEM>
0

>  <SCORE.SYSTEM.CONST>
0

>  <SCORE.SYSTEM.DIHEDRAL>
0

>  <SCORE.SYSTEM.SOLV>
0

>  <SCORE.SYSTEM.norm>
0

>  <SCORE.heavy>
37

>  <SCORE.norm>
-1.01626

>  <RMSD>
1.015

$$$$
lig.pdb
 OpenBabel11021811453D
libRbt.so/2013.1/901 2013/11/27
 37 40  0  0  0  0  0  0  0  0999 V2000
   -2.3762    7.2761   10.3016 C   0  0  2  0  0  0  0  0  0  0  0  0
   -2.1652    6.7186   11.7479 C   0  0  1  0  0  0  0  0  0  0  0  0
   -0.6652    6.5758   12.1397 C   0  0  0  0  0  0  0  0  0  0  0  0
    0.1323    5.8410   11.0338 C   0  0  1  0  0  0  0  0  0  0  0  0
   -0.0460    6.5705    9.6835 C   0  0  1  0  0  0  0  0  0  0  0  0
    0.7812    5.8818    8.5650 C   0  0  1  0  0  0  0  0  0  0  0  0
    2.2738    5.7376    8.9868 C   0  0  1  0  0  0  0  0  0  0  0  0
    2.4225    5.0743   10.3883 C   0  0  2  0  0  0  0  0  0  0  0  0
    4.4112    5.4289    7.8248 C   0  0  0  0  0  0  0  0  0  0  0  0
   -1.4586    6.6616    9.3395 O   0  0  0  0  0  0  0  0  0  0  0  0
    1.5420    5.6988   11.3723 O   0  0  0  0  0  0  0  0  0  0  0  0
   -2.8526    7.5910   12.7246 N   0  0  0  0  0  0  0  0  0  0  0  0
    3.0033    4.9913    7.9409 N   0  0  0  0  0  0  0  0  0  0  0  0
    0.2223    4.6236    8.2097 O   0  0  0  0  0  0  0  0  0  0  0  0
    3.8131    5.1107   10.8235 O   0  0  0  0  0  0  0  0  0  0  0  0
   -2.2472    8.7304   10.2725 O   0  0  0  0  0  0  0  0  0  0  0  0
    4.2009    4.3138   11.9848 C   0  0  2  0  0  0  0  0  0  0  0  0
    5.6179    4.7126   12.4863 C   0  0  1  0  0  0  0  0  0  0  0  0
    6.7286    4.2532   11.4988 C   0  0  2  0  0  0  0  0  0  0  0  0
    6.6027    2.7356   11.1782 C   0  0  1  0  0  0  0  0  0  0  0  0
    5.1638    2.3748   10.7146 C   0  0  1  0  0  0  0  0  0  0  0  0
    4.9851    0.8459   10.5223 C   0  0  0  0  0  0  0  0  0  0  0  0
    4.1796    2.8914   11.6611 O   0  0  0  0  0  0  0  0  0  0  0  0
    7.6130    2.3069   10.1862 N   0  0  0  0  0  0  0  0  0  0  0  0
    5.6834    6.1147   12.7402 O   0  0  0  0  0  0  0  0  0  0  0  0
    8.0260    4.5665   12.0010 O   0  0  0  0  0  0  0  0  0  0  0  0
    5.5594    0.4190    9.2914 O   0  0  0  0  0  0  0  0  0  0  0  0
   -3.0443    9.4615    9.2957 C   0  0  1  0  0  0  0  0  0  0  0  0
   -3.5285   10.8314    9.8482 C   0  0  1  0  0  0  0  0  0  0  0  0
   -4.4555   11.5508    8.8284 C   0  0  2  0  0  0  0  0  0  0  0  0
   -3.7944   11.6937    7.4190 C   0  0  1  0  0  0  0  0  0  0  0  0
   -3.1798   10.3596    6.8991 C   0  0  0  0  0  0  0  0  0  0  0  0
   -2.2753    9.6613    7.9588 C   0  0  2  0  0  0  0  0  0  0  0  0
   -4.7559   12.2470    6.4415 N   0  0  0  0  0  0  0  0  0  0  0  0
   -1.7755    8.3828    7.4083 N   0  0  0  0  0  0  0  0  0  0  0  0
   -4.1849   10.6688   11.1013 O   0  0  0  0  0  0  0  0  0  0  0  0
   -4.8477   12.8274    9.3266 O   0  0  0  0  0  0  0  0  0  0  0  0
  1  2  1  0  0  0  0
  1 16  1  1  0  0  0
  2  3  1  0  0  0  0
  2 12  1  1  0  0  0
  4 11  1  1  0  0  0
  4  3  1  0  0  0  0
  5  4  1  0  0  0  0
  5 10  1  6  0  0  0
  6  7  1  0  0  0  0
  6  5  1  0  0  0  0
  6 14  1  1  0  0  0
  7  8  1  0  0  0  0
  7 13  1  6  0  0  0
  8 15  1  1  0  0  0
  8 11  1  0  0  0  0
  9 13  1  0  0  0  0
 10  1  1  0  0  0  0
 17 15  1  6  0  0  0
 17 18  1  0  0  0  0
 18 25  1  6  0  0  0
 19 18  1  0  0  0  0
 19 26  1  1  0  0  0
 20 19  1  0  0  0  0
 20 24  1  6  0  0  0
 21 23  1  0  0  0  0
 21 20  1  0  0  0  0
 21 22  1  1  0  0  0
 23 17  1  0  0  0  0
 27 22  1  0  0  0  0
 28 29  1  0  0  0  0
 28 16  1  1  0  0  0
 29 36  1  1  0  0  0
 30 37  1  1  0  0  0
 30 29  1  0  0  0  0
 31 30  1  0  0  0  0
 31 34  1  6  0  0  0
 32 31  1  0  0  0  0
 32 33  1  0  0  0  0
 33 28  1  0  0  0  0
 33 35  1  6  0  0  0
M  END
>  <CHROM.1>
-171.25047504,-168.25916442,147.73043125,-173.84404701,-167.49900890,-148.54256234
-179.21419155,-64.85107913,-78.11308112,-49.17619616,57.82971782,144.57659183
167.75777109,-69.93665890,-62.85524386,-177.73669392,0.98378071,6.52491413
10.00660583,3.02256668,0.66132369,-1.64088786

>  <Name>
lig.pdb

>  <RI>
0

>  <Rbt.Current_Directory>
/home/itssahil/PROJECTS/Mol_Feturizer/New_Systems/rnas/2m4q

>  <Rbt.Executable>
rbdock ($Id: //depot/dev/client3/rdock/2013.1/src/exe/rbdock.cxx#4 $)

>  <Rbt.Library>
libRbt.so (2013.1, Build901 2013/11/27)

>  <Rbt.Parameter_File>
/export/apps/rDock/src/rDock_2013.1_src/data/scripts/dock_solv.prm

>  <Rbt.Receptor>
prm/pocket_docking_2.prm

>  <SCORE>
-32.9724

>  <SCORE.INTER>
-16.3415

>  <SCORE.INTER.CONST>
1

>  <SCORE.INTER.POLAR>
-1.47654

>  <SCORE.INTER.ROT>
10

>  <SCORE.INTER.SOLV>
19.317

>  <SCORE.INTER.VDW>
-22.6782

>  <SCORE.INTER.norm>
-0.441661

>  <SCORE.INTRA>
-17.7384

>  <SCORE.INTRA.DIHEDRAL>
-30.262

>  <SCORE.INTRA.DIHEDRAL.0>
44.8331

>  <SCORE.INTRA.POLAR>
-0.762541

>  <SCORE.INTRA.POLAR.0>
-0.108895

>  <SCORE.INTRA.REPUL>
0.284996

>  <SCORE.INTRA.REPUL.0>
0.00912235

>  <SCORE.INTRA.SOLV>
-1.26718

>  <SCORE.INTRA.SOLV.lig_0>
-53.9067

>  <SCORE.INTRA.VDW>
-0.806119

>  <SCORE.INTRA.VDW.0>
-2.93492

>  <SCORE.INTRA.norm>
-0.479415

>  <SCORE.RESTR>
1.10741

>  <SCORE.RESTR.CAVITY>
1.10741

>  <SCORE.RESTR.norm>
0.0299299

>  <SCORE.SYSTEM>
0

>  <SCORE.SYSTEM.CONST>
0

>  <SCORE.SYSTEM.DIHEDRAL>
0

>  <SCORE.SYSTEM.SOLV>
0

>  <SCORE.SYSTEM.norm>
0

>  <SCORE.heavy>
37

>  <SCORE.norm>
-0.891147

>  <RMSD>
1.106

$$$$
lig.pdb
 OpenBabel11021811453D
libRbt.so/2013.1/901 2013/11/27
 37 40  0  0  0  0  0  0  0  0999 V2000
   -2.3498    7.5876    9.2788 C   0  0  2  0  0  0  0  0  0  0  0  0
   -2.6545    7.1222   10.7409 C   0  0  1  0  0  0  0  0  0  0  0  0
   -1.3732    6.9171   11.6011 C   0  0  0  0  0  0  0  0  0  0  0  0
   -0.3271    6.0590   10.8472 C   0  0  1  0  0  0  0  0  0  0  0  0
   -0.0083    6.7005    9.4782 C   0  0  1  0  0  0  0  0  0  0  0  0
    1.0735    5.8855    8.7197 C   0  0  1  0  0  0  0  0  0  0  0  0
    2.3382    5.6815    9.6060 C   0  0  1  0  0  0  0  0  0  0  0  0
    1.9805    5.1114   11.0107 C   0  0  2  0  0  0  0  0  0  0  0  0
    4.6958    5.0782    9.3028 C   0  0  0  0  0  0  0  0  0  0  0  0
   -1.2264    6.8522    8.6938 O   0  0  0  0  0  0  0  0  0  0  0  0
    0.8859    5.8561   11.6279 O   0  0  0  0  0  0  0  0  0  0  0  0
   -3.5444    8.1015   11.4015 N   0  0  0  0  0  0  0  0  0  0  0  0
    3.3001    4.8203    8.8875 N   0  0  0  0  0  0  0  0  0  0  0  0
    0.5577    4.6414    8.2638 O   0  0  0  0  0  0  0  0  0  0  0  0
    3.1590    5.0944   11.8682 O   0  0  0  0  0  0  0  0  0  0  0  0
   -2.1025    9.0257    9.2234 O   0  0  0  0  0  0  0  0  0  0  0  0
    3.1653    4.2042   13.0264 C   0  0  2  0  0  0  0  0  0  0  0  0
    4.2093    4.6691   14.0810 C   0  0  1  0  0  0  0  0  0  0  0  0
    5.6669    4.4345   13.5906 C   0  0  2  0  0  0  0  0  0  0  0  0
    5.8766    2.9606   13.1373 C   0  0  1  0  0  0  0  0  0  0  0  0
    4.7928    2.5267   12.1113 C   0  0  1  0  0  0  0  0  0  0  0  0
    4.9059    1.0216   11.7532 C   0  0  0  0  0  0  0  0  0  0  0  0
    3.4590    2.8344   12.6190 O   0  0  0  0  0  0  0  0  0  0  0  0
    7.2403    2.7475   12.6049 N   0  0  0  0  0  0  0  0  0  0  0  0
    3.9856    6.0312   14.4408 O   0  0  0  0  0  0  0  0  0  0  0  0
    6.6128    4.8039   14.5917 O   0  0  0  0  0  0  0  0  0  0  0  0
    5.2720    0.8512   10.3878 O   0  0  0  0  0  0  0  0  0  0  0  0
   -2.9538    9.8263    8.3526 C   0  0  1  0  0  0  0  0  0  0  0  0
   -3.4307   11.1329    9.0466 C   0  0  1  0  0  0  0  0  0  0  0  0
   -4.4137   11.9234    8.1378 C   0  0  2  0  0  0  0  0  0  0  0  0
   -3.8206   12.2024    6.7186 C   0  0  1  0  0  0  0  0  0  0  0  0
   -3.2124   10.9309    6.0545 C   0  0  0  0  0  0  0  0  0  0  0  0
   -2.2503   10.1576    7.0058 C   0  0  2  0  0  0  0  0  0  0  0  0
   -4.8337   12.8230    5.8387 N   0  0  0  0  0  0  0  0  0  0  0  0
   -1.7590    8.9421    6.3214 N   0  0  0  0  0  0  0  0  0  0  0  0
   -4.0261   10.8482   10.3083 O   0  0  0  0  0  0  0  0  0  0  0  0
   -4.7999   13.1436    8.7653 O   0  0  0  0  0  0  0  0  0  0  0  0
  1  2  1  0  0  0  0
  1 16  1  1  0  0  0
  2  3  1  0  0  0  0
  2 12  1  1  0  0  0
  4 11  1  1  0  0  0
  4  3  1  0  0  0  0
  5  4  1  0  0  0  0
  5 10  1  6  0  0  0
  6  7  1  0  0  0  0
  6  5  1  0  0  0  0
  6 14  1  1  0  0  0
  7  8  1  0  0  0  0
  7 13  1  6  0  0  0
  8 15  1  1  0  0  0
  8 11  1  0  0  0  0
  9 13  1  0  0  0  0
 10  1  1  0  0  0  0
 17 15  1  6  0  0  0
 17 18  1  0  0  0  0
 18 25  1  6  0  0  0
 19 18  1  0  0  0  0
 19 26  1  1  0  0  0
 20 19  1  0  0  0  0
 20 24  1  6  0  0  0
 21 23  1  0  0  0  0
 21 20  1  0  0  0  0
 21 22  1  1  0  0  0
 23 17  1  0  0  0  0
 27 22  1  0  0  0  0
 28 29  1  0  0  0  0
 28 16  1  1  0  0  0
 29 36  1  1  0  0  0
 30 37  1  1  0  0  0
 30 29  1  0  0  0  0
 31 30  1  0  0  0  0
 31 34  1  6  0  0  0
 32 31  1  0  0  0  0
 32 33  1  0  0  0  0
 33 28  1  0  0  0  0
 33 35  1  6  0  0  0
M  END
>  <CHROM.1>
159.58188184,-159.32659373,152.98749336,178.88433686,-159.26220144,-122.21567787
172.18704914,68.98319407,-114.12746884,-50.46828307,-65.35837843,135.43110363
42.71769999,-62.08701521,-69.74393861,-33.86917931,0.67638521,6.73159661
10.27288572,-2.92627856,-0.76358868,1.34101383

>  <Name>
lig.pdb

>  <RI>
0

>  <Rbt.Current_Directory>
/home/itssahil/PROJECTS/Mol_Feturizer/New_Systems/rnas/2m4q

>  <Rbt.Executable>
rbdock ($Id: //depot/dev/client3/rdock/2013.1/src/exe/rbdock.cxx#4 $)

>  <Rbt.Library>
libRbt.so (2013.1, Build901 2013/11/27)

>  <Rbt.Parameter_File>
/export/apps/rDock/src/rDock_2013.1_src/data/scripts/dock_solv.prm

>  <Rbt.Receptor>
prm/pocket_docking_2.prm

>  <SCORE>
-39.5581

>  <SCORE.INTER>
-24.4481

>  <SCORE.INTER.CONST>
1

>  <SCORE.INTER.POLAR>
-3.22841

>  <SCORE.INTER.ROT>
10

>  <SCORE.INTER.SOLV>
15.6813

>  <SCORE.INTER.VDW>
-21.0311

>  <SCORE.INTER.norm>
-0.66076

>  <SCORE.INTRA>
-15.97

>  <SCORE.INTRA.DIHEDRAL>
-17.3505

>  <SCORE.INTRA.DIHEDRAL.0>
44.8331

>  <SCORE.INTRA.POLAR>
-1.62945

>  <SCORE.INTRA.POLAR.0>
-0.108895

>  <SCORE.INTRA.REPUL>
0.0020238

>  <SCORE.INTRA.REPUL.0>
0.00912235

>  <SCORE.INTRA.SOLV>
-1.20881

>  <SCORE.INTRA.SOLV.lig_0>
-53.9067

>  <SCORE.INTRA.VDW>
-1.16028

>  <SCORE.INTRA.VDW.0>
-2.93492

>  <SCORE.INTRA.norm>
-0.431621

>  <SCORE.RESTR>
0.859942

>  <SCORE.RESTR.CAVITY>
0.859942

>  <SCORE.RESTR.norm>
0.0232417

>  <SCORE.SYSTEM>
0

>  <SCORE.SYSTEM.CONST>
0

>  <SCORE.SYSTEM.DIHEDRAL>
0

>  <SCORE.SYSTEM.SOLV>
0

>  <SCORE.SYSTEM.norm>
0

>  <SCORE.heavy>
37

>  <SCORE.norm>
-1.06914

>  <RMSD>
1.126

$$$$
lig.pdb
 OpenBabel11021811453D
libRbt.so/2013.1/901 2013/11/27
 37 40  0  0  0  0  0  0  0  0999 V2000
   -3.1807    8.3038   11.2195 C   0  0  2  0  0  0  0  0  0  0  0  0
   -2.9578    7.9685   12.7312 C   0  0  1  0  0  0  0  0  0  0  0  0
   -1.4732    7.6552   13.0796 C   0  0  0  0  0  0  0  0  0  0  0  0
   -0.8724    6.6287   12.0875 C   0  0  1  0  0  0  0  0  0  0  0  0
   -1.0306    7.1421   10.6389 C   0  0  1  0  0  0  0  0  0  0  0  0
   -0.3945    6.1536    9.6251 C   0  0  1  0  0  0  0  0  0  0  0  0
    1.0847    5.8450   10.0036 C   0  0  1  0  0  0  0  0  0  0  0  0
    1.2272    5.4092   11.4923 C   0  0  2  0  0  0  0  0  0  0  0  0
    2.3439    5.4385    7.9389 C   0  0  0  0  0  0  0  0  0  0  0  0
   -2.4336    7.3992   10.3429 O   0  0  0  0  0  0  0  0  0  0  0  0
    0.5197    6.3214   12.3872 O   0  0  0  0  0  0  0  0  0  0  0  0
   -3.4381    9.0899   13.5675 N   0  0  0  0  0  0  0  0  0  0  0  0
    1.6208    4.8281    9.0754 N   0  0  0  0  0  0  0  0  0  0  0  0
   -1.1590    4.9595    9.5189 O   0  0  0  0  0  0  0  0  0  0  0  0
    2.6339    5.2949   11.8566 O   0  0  0  0  0  0  0  0  0  0  0  0
   -2.8369    9.6935   10.9308 O   0  0  0  0  0  0  0  0  0  0  0  0
    3.2752    3.9862   11.7577 C   0  0  2  0  0  0  0  0  0  0  0  0
    4.4303    3.8521   12.7904 C   0  0  1  0  0  0  0  0  0  0  0  0
    5.6471    4.7444   12.4123 C   0  0  2  0  0  0  0  0  0  0  0  0
    6.1063    4.4777   10.9495 C   0  0  1  0  0  0  0  0  0  0  0  0
    4.9162    4.5876    9.9560 C   0  0  1  0  0  0  0  0  0  0  0  0
    5.3287    4.1914    8.5141 C   0  0  0  0  0  0  0  0  0  0  0  0
    3.7956    3.7704   10.4119 O   0  0  0  0  0  0  0  0  0  0  0  0
    7.2188    5.3720   10.5605 N   0  0  0  0  0  0  0  0  0  0  0  0
    3.9595    4.1309   14.1077 O   0  0  0  0  0  0  0  0  0  0  0  0
    6.7234    4.5632   13.3300 O   0  0  0  0  0  0  0  0  0  0  0  0
    5.6845    2.8143    8.4487 O   0  0  0  0  0  0  0  0  0  0  0  0
   -3.5451   10.3541    9.8419 C   0  0  1  0  0  0  0  0  0  0  0  0
   -3.8782   11.8347   10.1783 C   0  0  1  0  0  0  0  0  0  0  0  0
   -4.7168   12.4916    9.0459 C   0  0  2  0  0  0  0  0  0  0  0  0
   -4.0385   12.3526    7.6442 C   0  0  1  0  0  0  0  0  0  0  0  0
   -3.5721   10.8979    7.3375 C   0  0  0  0  0  0  0  0  0  0  0  0
   -2.7537   10.2702    8.5058 C   0  0  2  0  0  0  0  0  0  0  0  0
   -4.9297   12.8561    6.5773 N   0  0  0  0  0  0  0  0  0  0  0  0
   -2.3952    8.8780    8.1584 N   0  0  0  0  0  0  0  0  0  0  0  0
   -4.5533   11.9307   11.4283 O   0  0  0  0  0  0  0  0  0  0  0  0
   -4.9683   13.8626    9.3440 O   0  0  0  0  0  0  0  0  0  0  0  0
  1  2  1  0  0  0  0
  1 16  1  1  0  0  0
  2  3  1  0  0  0  0
  2 12  1  1  0  0  0
  4 11  1  1  0  0  0
  4  3  1  0  0  0  0
  5  4  1  0  0  0  0
  5 10  1  6  0  0  0
  6  7  1  0  0  0  0
  6  5  1  0  0  0  0
  6 14  1  1  0  0  0
  7  8  1  0  0  0  0
  7 13  1  6  0  0  0
  8 15  1  1  0  0  0
  8 11  1  0  0  0  0
  9 13  1  0  0  0  0
 10  1  1  0  0  0  0
 17 15  1  6  0  0  0
 17 18  1  0  0  0  0
 18 25  1  1  0  0  0
 19 18  1  0  0  0  0
 19 26  1  1  0  0  0
 20 19  1  0  0  0  0
 20 24  1  6  0  0  0
 21 23  1  0  0  0  0
 21 20  1  0  0  0  0
 21 22  1  6  0  0  0
 23 17  1  0  0  0  0
 27 22  1  0  0  0  0
 28 29  1  0  0  0  0
 28 16  1  1  0  0  0
 29 36  1  1  0  0  0
 30 37  1  1  0  0  0
 30 29  1  0  0  0  0
 31 30  1  0  0  0  0
 31 34  1  6  0  0  0
 32 31  1  0  0  0  0
 32 33  1  0  0  0  0
 33 28  1  0  0  0  0
 33 35  1  6  0  0  0
M  END
>  <CHROM.1>
78.15544650,-94.14666522,94.74526066,148.35186750,-151.13518960,-150.77242414
179.92519158,61.51312375,65.25197834,-51.47892469,-58.53331402,141.12475573
-176.17037645,-153.22502634,177.89822100,-6.17915408,0.22929163,7.29856942
10.48963334,2.85698583,0.62550318,-1.33784763

>  <Name>
lig.pdb

>  <RI>
0

>  <Rbt.Current_Directory>
/home/itssahil/PROJECTS/Mol_Feturizer/New_Systems/rnas/2m4q

>  <Rbt.Executable>
rbdock ($Id: //depot/dev/client3/rdock/2013.1/src/exe/rbdock.cxx#4 $)

>  <Rbt.Library>
libRbt.so (2013.1, Build901 2013/11/27)

>  <Rbt.Parameter_File>
/export/apps/rDock/src/rDock_2013.1_src/data/scripts/dock_solv.prm

>  <Rbt.Receptor>
prm/pocket_docking_3.prm

>  <SCORE>
-36.7917

>  <SCORE.INTER>
-21.3382

>  <SCORE.INTER.CONST>
1

>  <SCORE.INTER.POLAR>
-2.87379

>  <SCORE.INTER.ROT>
10

>  <SCORE.INTER.SOLV>
16.2358

>  <SCORE.INTER.VDW>
-20.3248

>  <SCORE.INTER.norm>
-0.576707

>  <SCORE.INTRA>
-15.4536

>  <SCORE.INTRA.DIHEDRAL>
-16.3991

>  <SCORE.INTRA.DIHEDRAL.0>
44.8331

>  <SCORE.INTRA.POLAR>
-1.99965

>  <SCORE.INTRA.POLAR.0>
-0.108895

>  <SCORE.INTRA.REPUL>
-0.00912235

>  <SCORE.INTRA.REPUL.0>
0.00912235

>  <SCORE.INTRA.SOLV>
0.335531

>  <SCORE.INTRA.SOLV.lig_0>
-53.9067

>  <SCORE.INTRA.VDW>
-0.577367

>  <SCORE.INTRA.VDW.0>
-2.93492

>  <SCORE.INTRA.norm>
-0.417664

>  <SCORE.RESTR>
0

>  <SCORE.RESTR.CAVITY>
0

>  <SCORE.RESTR.norm>
0

>  <SCORE.SYSTEM>
0

>  <SCORE.SYSTEM.CONST>
0

>  <SCORE.SYSTEM.DIHEDRAL>
0

>  <SCORE.SYSTEM.SOLV>
0

>  <SCORE.SYSTEM.norm>
0

>  <SCORE.heavy>
37

>  <SCORE.norm>
-0.994371

>  <RMSD>
1.237

$$$$
lig.pdb
 OpenBabel11021811453D
libRbt.so/2013.1/901 2013/11/27
 37 40  0  0  0  0  0  0  0  0999 V2000
   -2.1319    7.3930    8.9395 C   0  0  2  0  0  0  0  0  0  0  0  0
   -2.4456    6.8841   10.3850 C   0  0  1  0  0  0  0  0  0  0  0  0
   -1.1683    6.6162   11.2339 C   0  0  0  0  0  0  0  0  0  0  0  0
   -0.1459    5.7589   10.4473 C   0  0  1  0  0  0  0  0  0  0  0  0
    0.1866    6.4400    9.1009 C   0  0  1  0  0  0  0  0  0  0  0  0
    1.2457    5.6251    8.3111 C   0  0  1  0  0  0  0  0  0  0  0  0
    2.5065    5.3578    9.1861 C   0  0  1  0  0  0  0  0  0  0  0  0
    2.1370    4.7476   10.5708 C   0  0  2  0  0  0  0  0  0  0  0  0
    4.2079    5.2598    7.4227 C   0  0  0  0  0  0  0  0  0  0  0  0
   -1.0288    6.6504    8.3257 O   0  0  0  0  0  0  0  0  0  0  0  0
    1.0629    5.4977   11.2169 O   0  0  0  0  0  0  0  0  0  0  0  0
   -3.3090    7.8618   11.0823 N   0  0  0  0  0  0  0  0  0  0  0  0
    3.4447    4.4983    8.4350 N   0  0  0  0  0  0  0  0  0  0  0  0
    0.6975    4.4115    7.8130 O   0  0  0  0  0  0  0  0  0  0  0  0
    3.3163    4.6703   11.4239 O   0  0  0  0  0  0  0  0  0  0  0  0
   -1.8480    8.8254    8.9341 O   0  0  0  0  0  0  0  0  0  0  0  0
    4.0654    3.4169   11.4653 C   0  0  2  0  0  0  0  0  0  0  0  0
    4.2432    2.9220   12.9289 C   0  0  1  0  0  0  0  0  0  0  0  0
    5.2342    3.8198   13.7239 C   0  0  2  0  0  0  0  0  0  0  0  0
    6.5849    3.9730   12.9663 C   0  0  1  0  0  0  0  0  0  0  0  0
    6.3594    4.4350   11.4996 C   0  0  1  0  0  0  0  0  0  0  0  0
    7.6836    4.4611   10.6920 C   0  0  0  0  0  0  0  0  0  0  0  0
    5.3745    3.5808   10.8426 O   0  0  0  0  0  0  0  0  0  0  0  0
    7.5067    4.8815   13.6829 N   0  0  0  0  0  0  0  0  0  0  0  0
    2.9787    2.8240   13.5818 O   0  0  0  0  0  0  0  0  0  0  0  0
    5.4387    3.3182   15.0430 O   0  0  0  0  0  0  0  0  0  0  0  0
    7.4792    3.9808    9.3672 O   0  0  0  0  0  0  0  0  0  0  0  0
   -2.8082    9.7038    8.2779 C   0  0  1  0  0  0  0  0  0  0  0  0
   -3.1167   10.9674    9.1290 C   0  0  1  0  0  0  0  0  0  0  0  0
   -4.2134   11.8411    8.4574 C   0  0  2  0  0  0  0  0  0  0  0  0
   -3.8613   12.2079    6.9791 C   0  0  1  0  0  0  0  0  0  0  0  0
   -3.4173   10.9743    6.1371 C   0  0  0  0  0  0  0  0  0  0  0  0
   -2.3334   10.1151    6.8553 C   0  0  2  0  0  0  0  0  0  0  0  0
   -4.9884   12.9108    6.3297 N   0  0  0  0  0  0  0  0  0  0  0  0
   -2.0061    8.9413    6.0173 N   0  0  0  0  0  0  0  0  0  0  0  0
   -3.4979   10.6062   10.4525 O   0  0  0  0  0  0  0  0  0  0  0  0
   -4.4467   13.0215    9.2217 O   0  0  0  0  0  0  0  0  0  0  0  0
  1  2  1  0  0  0  0
  1 16  1  1  0  0  0
  2  3  1  0  0  0  0
  2 12  1  1  0  0  0
  4 11  1  1  0  0  0
  4  3  1  0  0  0  0
  5  4  1  0  0  0  0
  5 10  1  6  0  0  0
  6  7  1  0  0  0  0
  6  5  1  0  0  0  0
  6 14  1  1  0  0  0
  7  8  1  0  0  0  0
  7 13  1  6  0  0  0
  8 15  1  1  0  0  0
  8 11  1  0  0  0  0
  9 13  1  0  0  0  0
 10  1  1  0  0  0  0
 17 15  1  1  0  0  0
 17 18  1  0  0  0  0
 18 25  1  1  0  0  0
 19 18  1  0  0  0  0
 19 26  1  1  0  0  0
 20 19  1  0  0  0  0
 20 24  1  1  0  0  0
 21 23  1  0  0  0  0
 21 20  1  0  0  0  0
 21 22  1  6  0  0  0
 23 17  1  0  0  0  0
 27 22  1  0  0  0  0
 28 29  1  0  0  0  0
 28 16  1  1  0  0  0
 29 36  1  1  0  0  0
 30 37  1  1  0  0  0
 30 29  1  0  0  0  0
 31 30  1  0  0  0  0
 31 34  1  6  0  0  0
 32 31  1  0  0  0  0
 32 33  1  0  0  0  0
 33 28  1  0  0  0  0
 33 35  1  6  0  0  0
M  END
>  <CHROM.1>
165.93242570,-95.09694140,78.22639576,47.05547602,-126.60384166,-112.20775686
-68.64677269,66.04863112,140.16570483,55.05127765,57.39215589,135.22765520
-50.52578838,63.70857797,172.27273986,156.07561338,0.96199549,6.73170477
9.92326739,2.67364043,0.56761279,-1.33304277

>  <Name>
lig.pdb

>  <RI>
0

>  <Rbt.Current_Directory>
/home/itssahil/PROJECTS/Mol_Feturizer/New_Systems/rnas/2m4q

>  <Rbt.Executable>
rbdock ($Id: //depot/dev/client3/rdock/2013.1/src/exe/rbdock.cxx#4 $)

>  <Rbt.Library>
libRbt.so (2013.1, Build901 2013/11/27)

>  <Rbt.Parameter_File>
/export/apps/rDock/src/rDock_2013.1_src/data/scripts/dock_solv.prm

>  <Rbt.Receptor>
prm/pocket_docking_2.prm

>  <SCORE>
-41.3736

>  <SCORE.INTER>
-33.2111

>  <SCORE.INTER.CONST>
1

>  <SCORE.INTER.POLAR>
-5.0449

>  <SCORE.INTER.ROT>
10

>  <SCORE.INTER.SOLV>
16.2559

>  <SCORE.INTER.VDW>
-21.0097

>  <SCORE.INTER.norm>
-0.897598

>  <SCORE.INTRA>
-8.79099

>  <SCORE.INTRA.DIHEDRAL>
-12.5539

>  <SCORE.INTRA.DIHEDRAL.0>
44.8331

>  <SCORE.INTRA.POLAR>
-0.781267

>  <SCORE.INTRA.POLAR.0>
-0.108895

>  <SCORE.INTRA.REPUL>
-0.00912235

>  <SCORE.INTRA.REPUL.0>
0.00912235

>  <SCORE.INTRA.SOLV>
-0.610858

>  <SCORE.INTRA.SOLV.lig_0>
-53.9067

>  <SCORE.INTRA.VDW>
0.493333

>  <SCORE.INTRA.VDW.0>
-2.93492

>  <SCORE.INTRA.norm>
-0.237594

>  <SCORE.RESTR>
0.628551

>  <SCORE.RESTR.CAVITY>
0.628551

>  <SCORE.RESTR.norm>
0.0169879

>  <SCORE.SYSTEM>
0

>  <SCORE.SYSTEM.CONST>
0

>  <SCORE.SYSTEM.DIHEDRAL>
0

>  <SCORE.SYSTEM.SOLV>
0

>  <SCORE.SYSTEM.norm>
0

>  <SCORE.heavy>
37

>  <SCORE.norm>
-1.1182

>  <RMSD>
1.250

$$$$
lig.pdb
 OpenBabel11021811453D
libRbt.so/2013.1/901 2013/11/27
 37 40  0  0  0  0  0  0  0  0999 V2000
   -2.0910    7.5721    8.7745 C   0  0  2  0  0  0  0  0  0  0  0  0
   -2.3206    7.1984   10.2761 C   0  0  1  0  0  0  0  0  0  0  0  0
   -0.9971    6.9535   11.0586 C   0  0  0  0  0  0  0  0  0  0  0  0
   -0.0602    5.9946   10.2829 C   0  0  1  0  0  0  0  0  0  0  0  0
    0.2006    6.5474    8.8638 C   0  0  1  0  0  0  0  0  0  0  0  0
    1.1753    5.6290    8.0789 C   0  0  1  0  0  0  0  0  0  0  0  0
    2.4842    5.3875    8.8884 C   0  0  1  0  0  0  0  0  0  0  0  0
    2.1914    4.9100   10.3418 C   0  0  2  0  0  0  0  0  0  0  0  0
    4.3652    5.1182    7.3382 C   0  0  0  0  0  0  0  0  0  0  0  0
   -1.0579    6.7388    8.1554 O   0  0  0  0  0  0  0  0  0  0  0  0
    1.1898    5.7524   10.9906 O   0  0  0  0  0  0  0  0  0  0  0  0
   -3.1012    8.2636   10.9421 N   0  0  0  0  0  0  0  0  0  0  0  0
    3.3395    4.4326    8.1537 N   0  0  0  0  0  0  0  0  0  0  0  0
    0.5545    4.4000    7.7245 O   0  0  0  0  0  0  0  0  0  0  0  0
    3.4237    4.8590   11.1186 O   0  0  0  0  0  0  0  0  0  0  0  0
   -1.7614    8.9871    8.6271 O   0  0  0  0  0  0  0  0  0  0  0  0
    3.4519    4.0396   12.3276 C   0  0  2  0  0  0  0  0  0  0  0  0
    4.6502    4.4311   13.2384 C   0  0  1  0  0  0  0  0  0  0  0  0
    6.0095    3.9942   12.6210 C   0  0  2  0  0  0  0  0  0  0  0  0
    5.9978    2.4831   12.2491 C   0  0  1  0  0  0  0  0  0  0  0  0
    4.7670    2.1287   11.3687 C   0  0  1  0  0  0  0  0  0  0  0  0
    4.6665    0.6037   11.1031 C   0  0  0  0  0  0  0  0  0  0  0  0
    3.5402    2.6240   11.9859 O   0  0  0  0  0  0  0  0  0  0  0  0
    7.2625    2.0767   11.5980 N   0  0  0  0  0  0  0  0  0  0  0  0
    4.6252    5.8279   13.5263 O   0  0  0  0  0  0  0  0  0  0  0  0
    7.0940    4.3000   13.4950 O   0  0  0  0  0  0  0  0  0  0  0  0
    5.6336    0.1913   10.1429 O   0  0  0  0  0  0  0  0  0  0  0  0
   -2.5858    9.7844    7.7279 C   0  0  1  0  0  0  0  0  0  0  0  0
   -2.7620   11.2417    8.2391 C   0  0  1  0  0  0  0  0  0  0  0  0
   -3.7220   12.0463    7.3181 C   0  0  2  0  0  0  0  0  0  0  0  0
   -3.2828   12.0057    5.8183 C   0  0  1  0  0  0  0  0  0  0  0  0
   -2.9687   10.5643    5.3168 C   0  0  0  0  0  0  0  0  0  0  0  0
   -2.0211    9.7864    6.2789 C   0  0  2  0  0  0  0  0  0  0  0  0
   -4.2946   12.6544    4.9570 N   0  0  0  0  0  0  0  0  0  0  0  0
   -1.8155    8.4167    5.7603 N   0  0  0  0  0  0  0  0  0  0  0  0
   -3.2248   11.2539    9.5857 O   0  0  0  0  0  0  0  0  0  0  0  0
   -3.8313   13.3941    7.7690 O   0  0  0  0  0  0  0  0  0  0  0  0
  1  2  1  0  0  0  0
  1 16  1  1  0  0  0
  2  3  1  0  0  0  0
  2 12  1  1  0  0  0
  4 11  1  1  0  0  0
  4  3  1  0  0  0  0
  5  4  1  0  0  0  0
  5 10  1  6  0  0  0
  6  7  1  0  0  0  0
  6  5  1  0  0  0  0
  6 14  1  1  0  0  0
  7  8  1  0  0  0  0
  7 13  1  6  0  0  0
  8 15  1  1  0  0  0
  8 11  1  0  0  0  0
  9 13  1  0  0  0  0
 10  1  1  0  0  0  0
 17 15  1  6  0  0  0
 17 18  1  0  0  0  0
 18 25  1  6  0  0  0
 19 18  1  0  0  0  0
 19 26  1  1  0  0  0
 20 19  1  0  0  0  0
 20 24  1  6  0  0  0
 21 23  1  0  0  0  0
 21 20  1  0  0  0  0
 21 22  1  1  0  0  0
 23 17  1  0  0  0  0
 27 22  1  0  0  0  0
 28 29  1  0  0  0  0
 28 16  1  1  0  0  0
 29 36  1  1  0  0  0
 30 37  1  1  0  0  0
 30 29  1  0  0  0  0
 31 30  1  0  0  0  0
 31 34  1  6  0  0  0
 32 31  1  0  0  0  0
 32 33  1  0  0  0  0
 33 28  1  0  0  0  0
 33 35  1  6  0  0  0
M  END
>  <CHROM.1>
80.32768059,-160.02747594,96.61628019,-44.74866490,-162.77955068,-124.86629681
-52.90526147,-170.62666523,-75.13681762,-53.57676101,-172.20446468,145.37848062
171.64888156,-177.95774636,-10.07595235,-56.73816606,0.96691704,6.54909682
9.52605092,3.01758178,0.81724460,-1.90860848

>  <Name>
lig.pdb

>  <RI>
0

>  <Rbt.Current_Directory>
/home/itssahil/PROJECTS/Mol_Feturizer/New_Systems/rnas/2m4q

>  <Rbt.Executable>
rbdock ($Id: //depot/dev/client3/rdock/2013.1/src/exe/rbdock.cxx#4 $)

>  <Rbt.Library>
libRbt.so (2013.1, Build901 2013/11/27)

>  <Rbt.Parameter_File>
/export/apps/rDock/src/rDock_2013.1_src/data/scripts/dock_solv.prm

>  <Rbt.Receptor>
prm/pocket_docking_7.prm

>  <SCORE>
-44.7879

>  <SCORE.INTER>
-28.3019

>  <SCORE.INTER.CONST>
1

>  <SCORE.INTER.POLAR>
-3.31081

>  <SCORE.INTER.ROT>
10

>  <SCORE.INTER.SOLV>
19.0359

>  <SCORE.INTER.VDW>
-24.4439

>  <SCORE.INTER.norm>
-0.764917

>  <SCORE.INTRA>
-16.4859

>  <SCORE.INTRA.DIHEDRAL>
-21.8652

>  <SCORE.INTRA.DIHEDRAL.0>
44.8331

>  <SCORE.INTRA.POLAR>
-1.42674

>  <SCORE.INTRA.POLAR.0>
-0.108895

>  <SCORE.INTRA.REPUL>
-0.00912235

>  <SCORE.INTRA.REPUL.0>
0.00912235

>  <SCORE.INTRA.SOLV>
-0.934017

>  <SCORE.INTRA.SOLV.lig_0>
-53.9067

>  <SCORE.INTRA.VDW>
-0.189784

>  <SCORE.INTRA.VDW.0>
-2.93492

>  <SCORE.INTRA.norm>
-0.445566

>  <SCORE.RESTR>
0

>  <SCORE.RESTR.CAVITY>
0

>  <SCORE.RESTR.norm>
0

>  <SCORE.SYSTEM>
0

>  <SCORE.SYSTEM.CONST>
0

>  <SCORE.SYSTEM.DIHEDRAL>
0

>  <SCORE.SYSTEM.SOLV>
0

>  <SCORE.SYSTEM.norm>
0

>  <SCORE.heavy>
37

>  <SCORE.norm>
-1.21048

>  <RMSD>
1.356

$$$$
lig.pdb
 OpenBabel11021811453D
libRbt.so/2013.1/901 2013/11/27
 37 40  0  0  0  0  0  0  0  0999 V2000
   -2.4384    7.7108    8.9777 C   0  0  2  0  0  0  0  0  0  0  0  0
   -2.6482    7.2469   10.4568 C   0  0  1  0  0  0  0  0  0  0  0  0
   -1.3137    7.0227   11.2267 C   0  0  0  0  0  0  0  0  0  0  0  0
   -0.3339    6.1517   10.4019 C   0  0  1  0  0  0  0  0  0  0  0  0
   -0.1012    6.7913    9.0148 C   0  0  1  0  0  0  0  0  0  0  0  0
    0.9146    5.9630    8.1830 C   0  0  1  0  0  0  0  0  0  0  0  0
    2.2343    5.7401    8.9800 C   0  0  1  0  0  0  0  0  0  0  0  0
    1.9661    5.1722   10.4054 C   0  0  2  0  0  0  0  0  0  0  0  0
    4.5538    5.2415    8.3595 C   0  0  0  0  0  0  0  0  0  0  0  0
   -1.3681    6.9612    8.3161 O   0  0  0  0  0  0  0  0  0  0  0  0
    0.9270    5.9308   11.0971 O   0  0  0  0  0  0  0  0  0  0  0  0
   -3.4770    8.2372   11.1780 N   0  0  0  0  0  0  0  0  0  0  0  0
    3.1325    4.8671    8.1963 N   0  0  0  0  0  0  0  0  0  0  0  0
    0.3516    4.7270    7.7625 O   0  0  0  0  0  0  0  0  0  0  0  0
    3.2005    5.1375   11.1799 O   0  0  0  0  0  0  0  0  0  0  0  0
   -2.1756    9.1456    8.9067 O   0  0  0  0  0  0  0  0  0  0  0  0
    3.2276    4.3548   12.4130 C   0  0  2  0  0  0  0  0  0  0  0  0
    4.2481    4.9466   13.4264 C   0  0  1  0  0  0  0  0  0  0  0  0
    5.7161    4.7181   12.9652 C   0  0  2  0  0  0  0  0  0  0  0  0
    5.9776    3.2175   12.6462 C   0  0  1  0  0  0  0  0  0  0  0  0
    4.9162    2.6579   11.6584 C   0  0  1  0  0  0  0  0  0  0  0  0
    5.0815    1.1315   11.4366 C   0  0  0  0  0  0  0  0  0  0  0  0
    3.5694    2.9648   12.1308 O   0  0  0  0  0  0  0  0  0  0  0  0
    7.3514    3.0037   12.1408 N   0  0  0  0  0  0  0  0  0  0  0  0
    3.9770    6.3270   13.6621 O   0  0  0  0  0  0  0  0  0  0  0  0
    6.6420    5.2067   13.9333 O   0  0  0  0  0  0  0  0  0  0  0  0
    3.9687    0.4186   11.9665 O   0  0  0  0  0  0  0  0  0  0  0  0
   -2.8162    9.8993    7.8365 C   0  0  1  0  0  0  0  0  0  0  0  0
   -3.4877   11.1991    8.3618 C   0  0  1  0  0  0  0  0  0  0  0  0
   -4.2466   11.9372    7.2232 C   0  0  2  0  0  0  0  0  0  0  0  0
   -3.3373   12.2136    5.9820 C   0  0  1  0  0  0  0  0  0  0  0  0
   -2.5468   10.9542    5.5164 C   0  0  0  0  0  0  0  0  0  0  0  0
   -1.8191   10.2332    6.6908 C   0  0  2  0  0  0  0  0  0  0  0  0
   -4.1270   12.7815    4.8684 N   0  0  0  0  0  0  0  0  0  0  0  0
   -1.1388    9.0251    6.1759 N   0  0  0  0  0  0  0  0  0  0  0  0
   -4.3610   10.9142    9.4497 O   0  0  0  0  0  0  0  0  0  0  0  0
   -4.8113   13.1529    7.7079 O   0  0  0  0  0  0  0  0  0  0  0  0
  1  2  1  0  0  0  0
  1 16  1  1  0  0  0
  2  3  1  0  0  0  0
  2 12  1  1  0  0  0
  4 11  1  1  0  0  0
  4  3  1  0  0  0  0
  5  4  1  0  0  0  0
  5 10  1  6  0  0  0
  6  7  1  0  0  0  0
  6  5  1  0  0  0  0
  6 14  1  1  0  0  0
  7  8  1  0  0  0  0
  7 13  1  6  0  0  0
  8 15  1  1  0  0  0
  8 11  1  0  0  0  0
  9 13  1  0  0  0  0
 10  1  1  0  0  0  0
 17 15  1  6  0  0  0
 17 18  1  0  0  0  0
 18 25  1  6  0  0  0
 19 18  1  0  0  0  0
 19 26  1  1  0  0  0
 20 19  1  0  0  0  0
 20 24  1  6  0  0  0
 21 23  1  0  0  0  0
 21 20  1  0  0  0  0
 21 22  1  1  0  0  0
 23 17  1  0  0  0  0
 27 22  1  0  0  0  0
 28 29  1  0  0  0  0
 28 16  1  1  0  0  0
 29 36  1  1  0  0  0
 30 37  1  1  0  0  0
 30 29  1  0  0  0  0
 31 30  1  0  0  0  0
 31 34  1  6  0  0  0
 32 31  1  0  0  0  0
 32 33  1  0  0  0  0
 33 28  1  0  0  0  0
 33 35  1  6  0  0  0
M  END
>  <CHROM.1>
154.99213870,-165.70272658,144.33002399,-168.42469981,-151.61620097,-138.75975405
-55.81110898,-62.88254585,113.43173457,-64.84753607,67.05366729,132.37816314
178.03967686,-76.74070424,-66.29791915,115.76962372,0.69709871,6.83663702
9.76903959,2.74166898,0.72465471,-1.56924322

>  <Name>
lig.pdb

>  <RI>
0

>  <Rbt.Current_Directory>
/home/itssahil/PROJECTS/Mol_Feturizer/New_Systems/rnas/2m4q

>  <Rbt.Executable>
rbdock ($Id: //depot/dev/client3/rdock/2013.1/src/exe/rbdock.cxx#4 $)

>  <Rbt.Library>
libRbt.so (2013.1, Build901 2013/11/27)

>  <Rbt.Parameter_File>
/export/apps/rDock/src/rDock_2013.1_src/data/scripts/dock_solv.prm

>  <Rbt.Receptor>
prm/pocket_docking_3.prm

>  <SCORE>
-44.0533

>  <SCORE.INTER>
-31.5357

>  <SCORE.INTER.CONST>
1

>  <SCORE.INTER.POLAR>
-4.38472

>  <SCORE.INTER.ROT>
10

>  <SCORE.INTER.SOLV>
16.4661

>  <SCORE.INTER.VDW>
-22.1635

>  <SCORE.INTER.norm>
-0.852317

>  <SCORE.INTRA>
-12.5558

>  <SCORE.INTRA.DIHEDRAL>
-16.0262

>  <SCORE.INTRA.DIHEDRAL.0>
44.8331

>  <SCORE.INTRA.POLAR>
-1.12627

>  <SCORE.INTRA.POLAR.0>
-0.108895

>  <SCORE.INTRA.REPUL>
-0.00912235

>  <SCORE.INTRA.REPUL.0>
0.00912235

>  <SCORE.INTRA.SOLV>
-1.24464

>  <SCORE.INTRA.SOLV.lig_0>
-53.9067

>  <SCORE.INTRA.VDW>
-0.0454393

>  <SCORE.INTRA.VDW.0>
-2.93492

>  <SCORE.INTRA.norm>
-0.339346

>  <SCORE.RESTR>
0.0382825

>  <SCORE.RESTR.CAVITY>
0.0382825

>  <SCORE.RESTR.norm>
0.00103466

>  <SCORE.SYSTEM>
0

>  <SCORE.SYSTEM.CONST>
0

>  <SCORE.SYSTEM.DIHEDRAL>
0

>  <SCORE.SYSTEM.SOLV>
0

>  <SCORE.SYSTEM.norm>
0

>  <SCORE.heavy>
37

>  <SCORE.norm>
-1.19063

>  <RMSD>
1.375

$$$$
lig.pdb
 OpenBabel11021811453D
libRbt.so/2013.1/901 2013/11/27
 37 40  0  0  0  0  0  0  0  0999 V2000
   -2.0605    7.6852    8.7553 C   0  0  2  0  0  0  0  0  0  0  0  0
   -2.4732    6.9797   10.0891 C   0  0  1  0  0  0  0  0  0  0  0  0
   -1.2588    6.6047   10.9883 C   0  0  0  0  0  0  0  0  0  0  0  0
   -0.1665    5.8702   10.1720 C   0  0  1  0  0  0  0  0  0  0  0  0
    0.2547    6.7327    8.9612 C   0  0  1  0  0  0  0  0  0  0  0  0
    1.3832    6.0409    8.1503 C   0  0  1  0  0  0  0  0  0  0  0  0
    2.5792    5.6628    9.0741 C   0  0  1  0  0  0  0  0  0  0  0  0
    2.1170    4.8651   10.3296 C   0  0  2  0  0  0  0  0  0  0  0  0
    4.5399    5.8254    7.6103 C   0  0  0  0  0  0  0  0  0  0  0  0
   -0.9025    7.0409    8.1316 O   0  0  0  0  0  0  0  0  0  0  0  0
    0.9855    5.5124   10.9886 O   0  0  0  0  0  0  0  0  0  0  0  0
   -3.4023    7.8467   10.8459 N   0  0  0  0  0  0  0  0  0  0  0  0
    3.5849    4.9208    8.2861 N   0  0  0  0  0  0  0  0  0  0  0  0
    0.8938    4.9045    7.4500 O   0  0  0  0  0  0  0  0  0  0  0  0
    3.2303    4.6777   11.2517 O   0  0  0  0  0  0  0  0  0  0  0  0
   -1.8004    9.1063    8.9683 O   0  0  0  0  0  0  0  0  0  0  0  0
    3.8974    3.3785   11.2836 C   0  0  2  0  0  0  0  0  0  0  0  0
    4.1685    2.9271   12.7470 C   0  0  1  0  0  0  0  0  0  0  0  0
    5.2804    3.7840   13.4173 C   0  0  2  0  0  0  0  0  0  0  0  0
    6.5677    3.8168   12.5435 C   0  0  1  0  0  0  0  0  0  0  0  0
    6.2469    4.2386   11.0824 C   0  0  1  0  0  0  0  0  0  0  0  0
    7.4953    4.1446   10.1665 C   0  0  0  0  0  0  0  0  0  0  0  0
    5.1557    3.4298   10.5472 O   0  0  0  0  0  0  0  0  0  0  0  0
    7.6048    4.6862   13.1412 N   0  0  0  0  0  0  0  0  0  0  0  0
    2.9614    2.9396   13.5069 O   0  0  0  0  0  0  0  0  0  0  0  0
    5.5651    3.3187   14.7348 O   0  0  0  0  0  0  0  0  0  0  0  0
    8.5364    4.9930   10.6395 O   0  0  0  0  0  0  0  0  0  0  0  0
   -2.6495   10.0624    8.2692 C   0  0  1  0  0  0  0  0  0  0  0  0
   -2.6987   11.4361    8.9950 C   0  0  1  0  0  0  0  0  0  0  0  0
   -3.6840   12.4086    8.2875 C   0  0  2  0  0  0  0  0  0  0  0  0
   -3.3741   12.5674    6.7635 C   0  0  1  0  0  0  0  0  0  0  0  0
   -3.1861   11.2018    6.0371 C   0  0  0  0  0  0  0  0  0  0  0  0
   -2.2081   10.2502    6.7899 C   0  0  2  0  0  0  0  0  0  0  0  0
   -4.4149   13.3794    6.0977 N   0  0  0  0  0  0  0  0  0  0  0  0
   -2.1253    8.9628    6.0666 N   0  0  0  0  0  0  0  0  0  0  0  0
   -3.0464   11.2726   10.3661 O   0  0  0  0  0  0  0  0  0  0  0  0
   -3.6778   13.6798    8.9324 O   0  0  0  0  0  0  0  0  0  0  0  0
  1  2  1  0  0  0  0
  1 16  1  1  0  0  0
  2  3  1  0  0  0  0
  2 12  1  1  0  0  0
  4 11  1  1  0  0  0
  4  3  1  0  0  0  0
  5  4  1  0  0  0  0
  5 10  1  6  0  0  0
  6  7  1  0  0  0  0
  6  5  1  0  0  0  0
  6 14  1  1  0  0  0
  7  8  1  0  0  0  0
  7 13  1  6  0  0  0
  8 15  1  1  0  0  0
  8 11  1  0  0  0  0
  9 13  1  0  0  0  0
 10  1  1  0  0  0  0
 17 15  1  1  0  0  0
 17 18  1  0  0  0  0
 18 25  1  1  0  0  0
 19 18  1  0  0  0  0
 19 26  1  1  0  0  0
 20 19  1  0  0  0  0
 20 24  1  1  0  0  0
 21 23  1  0  0  0  0
 21 20  1  0  0  0  0
 21 22  1  6  0  0  0
 23 17  1  0  0  0  0
 27 22  1  0  0  0  0
 28 29  1  0  0  0  0
 28 16  1  1  0  0  0
 29 36  1  1  0  0  0
 30 37  1  1  0  0  0
 30 29  1  0  0  0  0
 31 30  1  0  0  0  0
 31 34  1  6  0  0  0
 32 31  1  0  0  0  0
 32 33  1  0  0  0  0
 33 28  1  0  0  0  0
 33 35  1  6  0  0  0
M  END
>  <CHROM.1>
50.62985968,-101.98863385,86.91454454,151.23499633,-136.45245452,-117.65867464
-68.62440271,-63.06839126,-59.95832842,-176.43123759,-179.46463047,155.73545795
-59.72100287,-59.39878360,62.40672947,-58.34385984,1.10572489,6.95140307
9.76901235,2.54692477,0.47954657,-1.09438353

>  <Name>
lig.pdb

>  <RI>
0

>  <Rbt.Current_Directory>
/home/itssahil/PROJECTS/Mol_Feturizer/New_Systems/rnas/2m4q

>  <Rbt.Executable>
rbdock ($Id: //depot/dev/client3/rdock/2013.1/src/exe/rbdock.cxx#4 $)

>  <Rbt.Library>
libRbt.so (2013.1, Build901 2013/11/27)

>  <Rbt.Parameter_File>
/export/apps/rDock/src/rDock_2013.1_src/data/scripts/dock_solv.prm

>  <Rbt.Receptor>
prm/pocket_docking_2.prm

>  <SCORE>
-37.0993

>  <SCORE.INTER>
-20.4822

>  <SCORE.INTER.CONST>
1

>  <SCORE.INTER.POLAR>
-2.91694

>  <SCORE.INTER.ROT>
10

>  <SCORE.INTER.SOLV>
13.5282

>  <SCORE.INTER.VDW>
-18.7078

>  <SCORE.INTER.norm>
-0.553574

>  <SCORE.INTRA>
-17.8656

>  <SCORE.INTRA.DIHEDRAL>
-18.1152

>  <SCORE.INTRA.DIHEDRAL.0>
44.8331

>  <SCORE.INTRA.POLAR>
-2.36037

>  <SCORE.INTRA.POLAR.0>
-0.108895

>  <SCORE.INTRA.REPUL>
-0.00912235

>  <SCORE.INTRA.REPUL.0>
0.00912235

>  <SCORE.INTRA.SOLV>
0.161338

>  <SCORE.INTRA.SOLV.lig_0>
-53.9067

>  <SCORE.INTRA.VDW>
-0.817801

>  <SCORE.INTRA.VDW.0>
-2.93492

>  <SCORE.INTRA.norm>
-0.482854

>  <SCORE.RESTR>
1.24854

>  <SCORE.RESTR.CAVITY>
1.24854

>  <SCORE.RESTR.norm>
0.0337443

>  <SCORE.SYSTEM>
0

>  <SCORE.SYSTEM.CONST>
0

>  <SCORE.SYSTEM.DIHEDRAL>
0

>  <SCORE.SYSTEM.SOLV>
0

>  <SCORE.SYSTEM.norm>
0

>  <SCORE.heavy>
37

>  <SCORE.norm>
-1.00268

>  <RMSD>
1.389

$$$$
lig.pdb
 OpenBabel11021811453D
libRbt.so/2013.1/901 2013/11/27
 37 40  0  0  0  0  0  0  0  0999 V2000
   -3.0639    8.2360   10.6353 C   0  0  2  0  0  0  0  0  0  0  0  0
   -2.9582    7.9188   12.1635 C   0  0  1  0  0  0  0  0  0  0  0  0
   -1.5011    7.6373   12.6342 C   0  0  0  0  0  0  0  0  0  0  0  0
   -0.8031    6.6135   11.7050 C   0  0  1  0  0  0  0  0  0  0  0  0
   -0.8528    7.1106   10.2428 C   0  0  1  0  0  0  0  0  0  0  0  0
   -0.1185    6.1252    9.2944 C   0  0  1  0  0  0  0  0  0  0  0  0
    1.3307    5.8486    9.7946 C   0  0  1  0  0  0  0  0  0  0  0  0
    1.3600    5.4293   11.2945 C   0  0  2  0  0  0  0  0  0  0  0  0
    3.2804    5.2708    8.4241 C   0  0  0  0  0  0  0  0  0  0  0  0
   -2.2317    7.3379    9.8316 O   0  0  0  0  0  0  0  0  0  0  0  0
    0.5655    6.3359   12.1195 O   0  0  0  0  0  0  0  0  0  0  0  0
   -3.5252    9.0383   12.9462 N   0  0  0  0  0  0  0  0  0  0  0  0
    1.9589    4.8338    8.9237 N   0  0  0  0  0  0  0  0  0  0  0  0
   -0.8497    4.9157    9.1395 O   0  0  0  0  0  0  0  0  0  0  0  0
    2.7343    5.3454   11.7726 O   0  0  0  0  0  0  0  0  0  0  0  0
   -2.7236    9.6292   10.3605 O   0  0  0  0  0  0  0  0  0  0  0  0
    3.2380    4.0499   12.2219 C   0  0  2  0  0  0  0  0  0  0  0  0
    3.5525    4.0719   13.7448 C   0  0  1  0  0  0  0  0  0  0  0  0
    4.8047    4.9387   14.0617 C   0  0  2  0  0  0  0  0  0  0  0  0
    6.0227    4.5037   13.1962 C   0  0  1  0  0  0  0  0  0  0  0  0
    5.6555    4.4617   11.6867 C   0  0  1  0  0  0  0  0  0  0  0  0
    6.8165    3.8997   10.8250 C   0  0  0  0  0  0  0  0  0  0  0  0
    4.4391    3.6812   11.4803 O   0  0  0  0  0  0  0  0  0  0  0  0
    7.1973    5.3687   13.4424 N   0  0  0  0  0  0  0  0  0  0  0  0
    2.4116    4.5007   14.4858 O   0  0  0  0  0  0  0  0  0  0  0  0
    5.1209    4.8979   15.4516 O   0  0  0  0  0  0  0  0  0  0  0  0
    8.0030    4.6645   11.0118 O   0  0  0  0  0  0  0  0  0  0  0  0
   -3.2941   10.2433    9.1683 C   0  0  1  0  0  0  0  0  0  0  0  0
   -3.7200   11.7169    9.4202 C   0  0  1  0  0  0  0  0  0  0  0  0
   -4.4133   12.3217    8.1669 C   0  0  2  0  0  0  0  0  0  0  0  0
   -3.5414   12.1812    6.8769 C   0  0  1  0  0  0  0  0  0  0  0  0
   -2.9884   10.7389    6.6724 C   0  0  0  0  0  0  0  0  0  0  0  0
   -2.3211   10.1632    7.9577 C   0  0  2  0  0  0  0  0  0  0  0  0
   -4.2908   12.6321    5.6848 N   0  0  0  0  0  0  0  0  0  0  0  0
   -1.8714    8.7787    7.6965 N   0  0  0  0  0  0  0  0  0  0  0  0
   -4.5662   11.8118   10.5614 O   0  0  0  0  0  0  0  0  0  0  0  0
   -4.7496   13.6880    8.3947 O   0  0  0  0  0  0  0  0  0  0  0  0
  1  2  1  0  0  0  0
  1 16  1  1  0  0  0
  2  3  1  0  0  0  0
  2 12  1  1  0  0  0
  4 11  1  1  0  0  0
  4  3  1  0  0  0  0
  5  4  1  0  0  0  0
  5 10  1  6  0  0  0
  6  7  1  0  0  0  0
  6  5  1  0  0  0  0
  6 14  1  1  0  0  0
  7  8  1  0  0  0  0
  7 13  1  6  0  0  0
  8 15  1  1  0  0  0
  8 11  1  0  0  0  0
  9 13  1  0  0  0  0
 10  1  1  0  0  0  0
 17 15  1  6  0  0  0
 17 18  1  0  0  0  0
 18 25  1  1  0  0  0
 19 18  1  0  0  0  0
 19 26  1  1  0  0  0
 20 19  1  0  0  0  0
 20 24  1  6  0  0  0
 21 23  1  0  0  0  0
 21 20  1  0  0  0  0
 21 22  1  6  0  0  0
 23 17  1  0  0  0  0
 27 22  1  0  0  0  0
 28 29  1  0  0  0  0
 28 16  1  1  0  0  0
 29 36  1  1  0  0  0
 30 37  1  1  0  0  0
 30 29  1  0  0  0  0
 31 30  1  0  0  0  0
 31 34  1  6  0  0  0
 32 31  1  0  0  0  0
 32 33  1  0  0  0  0
 33 28  1  0  0  0  0
 33 35  1  6  0  0  0
M  END
>  <CHROM.1>
-138.50804080,-117.07555725,128.67513606,-72.46849984,-114.49047008,-154.16338597
66.91765242,-175.20510775,-57.06521680,75.84679171,-74.17231031,140.78824633
62.15039670,-89.83958631,-54.67999984,178.09583087,0.40548873,7.31793170
10.65607059,2.65264259,0.54314674,-1.30250055

>  <Name>
lig.pdb

>  <RI>
0

>  <Rbt.Current_Directory>
/home/itssahil/PROJECTS/Mol_Feturizer/New_Systems/rnas/2m4q

>  <Rbt.Executable>
rbdock ($Id: //depot/dev/client3/rdock/2013.1/src/exe/rbdock.cxx#4 $)

>  <Rbt.Library>
libRbt.so (2013.1, Build901 2013/11/27)

>  <Rbt.Parameter_File>
/export/apps/rDock/src/rDock_2013.1_src/data/scripts/dock_solv.prm

>  <Rbt.Receptor>
prm/pocket_docking_2.prm

>  <SCORE>
-27.5308

>  <SCORE.INTER>
-19.1274

>  <SCORE.INTER.CONST>
1

>  <SCORE.INTER.POLAR>
-3.05445

>  <SCORE.INTER.ROT>
10

>  <SCORE.INTER.SOLV>
12.8345

>  <SCORE.INTER.VDW>
-17.1149

>  <SCORE.INTER.norm>
-0.516957

>  <SCORE.INTRA>
-8.54648

>  <SCORE.INTRA.DIHEDRAL>
-12.0458

>  <SCORE.INTRA.DIHEDRAL.0>
44.8331

>  <SCORE.INTRA.POLAR>
-0.499939

>  <SCORE.INTRA.POLAR.0>
-0.108895

>  <SCORE.INTRA.REPUL>
-0.00912235

>  <SCORE.INTRA.REPUL.0>
0.00912235

>  <SCORE.INTRA.SOLV>
-0.661112

>  <SCORE.INTRA.SOLV.lig_0>
-53.9067

>  <SCORE.INTRA.VDW>
-0.447643

>  <SCORE.INTRA.VDW.0>
-2.93492

>  <SCORE.INTRA.norm>
-0.230986

>  <SCORE.RESTR>
0.143137

>  <SCORE.RESTR.CAVITY>
0.143137

>  <SCORE.RESTR.norm>
0.00386855

>  <SCORE.SYSTEM>
0

>  <SCORE.SYSTEM.CONST>
0

>  <SCORE.SYSTEM.DIHEDRAL>
0

>  <SCORE.SYSTEM.SOLV>
0

>  <SCORE.SYSTEM.norm>
0

>  <SCORE.heavy>
37

>  <SCORE.norm>
-0.744074

>  <RMSD>
1.431

$$$$
lig.pdb
 OpenBabel11021811453D
libRbt.so/2013.1/901 2013/11/27
 37 40  0  0  0  0  0  0  0  0999 V2000
   -2.9879    8.8397   10.7846 C   0  0  2  0  0  0  0  0  0  0  0  0
   -2.5949    8.9023   12.2975 C   0  0  1  0  0  0  0  0  0  0  0  0
   -1.0857    8.6183   12.5535 C   0  0  0  0  0  0  0  0  0  0  0  0
   -0.6256    7.3389   11.8116 C   0  0  1  0  0  0  0  0  0  0  0  0
   -0.9437    7.4613   10.3046 C   0  0  1  0  0  0  0  0  0  0  0  0
   -0.4503    6.2111    9.5279 C   0  0  1  0  0  0  0  0  0  0  0  0
    1.0571    5.9398    9.8121 C   0  0  1  0  0  0  0  0  0  0  0  0
    1.3657    5.9034   11.3384 C   0  0  2  0  0  0  0  0  0  0  0  0
    1.8585    4.9210    7.7303 C   0  0  0  0  0  0  0  0  0  0  0  0
   -2.3667    7.7008   10.1049 O   0  0  0  0  0  0  0  0  0  0  0  0
    0.7860    7.0525   12.0293 O   0  0  0  0  0  0  0  0  0  0  0  0
   -2.9519   10.2262   12.8519 N   0  0  0  0  0  0  0  0  0  0  0  0
    1.4607    4.6896    9.1358 N   0  0  0  0  0  0  0  0  0  0  0  0
   -1.2445    5.0704    9.8274 O   0  0  0  0  0  0  0  0  0  0  0  0
    2.8031    5.8193   11.5651 O   0  0  0  0  0  0  0  0  0  0  0  0
   -2.6543   10.0861   10.1006 O   0  0  0  0  0  0  0  0  0  0  0  0
    3.4222    4.4977   11.6289 C   0  0  2  0  0  0  0  0  0  0  0  0
    4.7051    4.5251   12.5076 C   0  0  1  0  0  0  0  0  0  0  0  0
    5.8624    5.2986   11.8130 C   0  0  2  0  0  0  0  0  0  0  0  0
    6.1205    4.7538   10.3782 C   0  0  1  0  0  0  0  0  0  0  0  0
    4.8080    4.7108    9.5469 C   0  0  1  0  0  0  0  0  0  0  0  0
    5.0224    4.0440    8.1628 C   0  0  0  0  0  0  0  0  0  0  0  0
    3.7568    4.0229   10.2906 O   0  0  0  0  0  0  0  0  0  0  0  0
    7.1727    5.5301    9.6864 N   0  0  0  0  0  0  0  0  0  0  0  0
    4.4160    5.0552   13.7998 O   0  0  0  0  0  0  0  0  0  0  0  0
    7.0516    5.2607   12.5988 O   0  0  0  0  0  0  0  0  0  0  0  0
    5.4277    2.6871    8.3109 O   0  0  0  0  0  0  0  0  0  0  0  0
   -3.3521   10.3834    8.8562 C   0  0  1  0  0  0  0  0  0  0  0  0
   -3.9108   11.8338    8.8348 C   0  0  1  0  0  0  0  0  0  0  0  0
   -4.7331   12.0985    7.5421 C   0  0  2  0  0  0  0  0  0  0  0  0
   -3.9271   11.7670    6.2443 C   0  0  1  0  0  0  0  0  0  0  0  0
   -3.2427   10.3682    6.2957 C   0  0  0  0  0  0  0  0  0  0  0  0
   -2.4474   10.1363    7.6156 C   0  0  2  0  0  0  0  0  0  0  0  0
   -4.7859   11.8897    5.0470 N   0  0  0  0  0  0  0  0  0  0  0  0
   -1.8746    8.7727    7.6079 N   0  0  0  0  0  0  0  0  0  0  0  0
   -4.6951   12.0918    9.9949 O   0  0  0  0  0  0  0  0  0  0  0  0
   -5.1932   13.4472    7.5123 O   0  0  0  0  0  0  0  0  0  0  0  0
  1  2  1  0  0  0  0
  1 16  1  6  0  0  0
  2  3  1  0  0  0  0
  2 12  1  6  0  0  0
  4 11  1  6  0  0  0
  4  3  1  0  0  0  0
  5  4  1  0  0  0  0
  5 10  1  1  0  0  0
  6  7  1  0  0  0  0
  6  5  1  0  0  0  0
  6 14  1  1  0  0  0
  7  8  1  0  0  0  0
  7 13  1  1  0  0  0
  8 15  1  6  0  0  0
  8 11  1  0  0  0  0
  9 13  1  0  0  0  0
 10  1  1  0  0  0  0
 17 15  1  6  0  0  0
 17 18  1  0  0  0  0
 18 25  1  1  0  0  0
 19 18  1  0  0  0  0
 19 26  1  1  0  0  0
 20 19  1  0  0  0  0
 20 24  1  6  0  0  0
 21 23  1  0  0  0  0
 21 20  1  0  0  0  0
 21 22  1  6  0  0  0
 23 17  1  0  0  0  0
 27 22  1  0  0  0  0
 28 29  1  0  0  0  0
 28 16  1  1  0  0  0
 29 36  1  1  0  0  0
 30 37  1  6  0  0  0
 30 29  1  0  0  0  0
 31 30  1  0  0  0  0
 31 34  1  6  0  0  0
 32 31  1  0  0  0  0
 32 33  1  0  0  0  0
 33 28  1  0  0  0  0
 33 35  1  6  0  0  0
M  END
>  <CHROM.1>
171.69224215,-88.69971460,85.82530538,-66.08339549,-152.73763090,-158.84690963
-57.60242434,-60.30817694,62.35886614,58.80658965,176.52181795,131.75145993
62.26065301,-71.91391529,174.37656042,-175.72193297,0.32273297,7.50184636
9.90078811,2.92773225,0.63720226,-1.57477207

>  <Name>
lig.pdb

>  <RI>
0

>  <Rbt.Current_Directory>
/home/itssahil/PROJECTS/Mol_Feturizer/New_Systems/rnas/2m4q

>  <Rbt.Executable>
rbdock ($Id: //depot/dev/client3/rdock/2013.1/src/exe/rbdock.cxx#4 $)

>  <Rbt.Library>
libRbt.so (2013.1, Build901 2013/11/27)

>  <Rbt.Parameter_File>
/export/apps/rDock/src/rDock_2013.1_src/data/scripts/dock_solv.prm

>  <Rbt.Receptor>
prm/pocket_docking_3.prm

>  <SCORE>
-42.4

>  <SCORE.INTER>
-24.8589

>  <SCORE.INTER.CONST>
1

>  <SCORE.INTER.POLAR>
-3.66218

>  <SCORE.INTER.ROT>
10

>  <SCORE.INTER.SOLV>
14.8933

>  <SCORE.INTER.VDW>
-19.5964

>  <SCORE.INTER.norm>
-0.671862

>  <SCORE.INTRA>
-17.5411

>  <SCORE.INTRA.DIHEDRAL>
-27.1959

>  <SCORE.INTRA.DIHEDRAL.0>
44.8331

>  <SCORE.INTRA.POLAR>
-0.897769

>  <SCORE.INTRA.POLAR.0>
-0.108895

>  <SCORE.INTRA.REPUL>
-0.00912235

>  <SCORE.INTRA.REPUL.0>
0.00912235

>  <SCORE.INTRA.SOLV>
-0.142073

>  <SCORE.INTRA.SOLV.lig_0>
-53.9067

>  <SCORE.INTRA.VDW>
-0.774061

>  <SCORE.INTRA.VDW.0>
-2.93492

>  <SCORE.INTRA.norm>
-0.474083

>  <SCORE.RESTR>
0

>  <SCORE.RESTR.CAVITY>
0

>  <SCORE.RESTR.norm>
0

>  <SCORE.SYSTEM>
0

>  <SCORE.SYSTEM.CONST>
0

>  <SCORE.SYSTEM.DIHEDRAL>
0

>  <SCORE.SYSTEM.SOLV>
0

>  <SCORE.SYSTEM.norm>
0

>  <SCORE.heavy>
37

>  <SCORE.norm>
-1.14595

>  <RMSD>
1.455

$$$$
lig.pdb
 OpenBabel11021811453D
libRbt.so/2013.1/901 2013/11/27
 37 40  0  0  0  0  0  0  0  0999 V2000
   -2.6705    8.1066   11.2307 C   0  0  2  0  0  0  0  0  0  0  0  0
   -2.5297    7.6372   12.7163 C   0  0  1  0  0  0  0  0  0  0  0  0
   -1.0744    7.2394   13.1006 C   0  0  0  0  0  0  0  0  0  0  0  0
   -0.4638    6.2776   12.0512 C   0  0  1  0  0  0  0  0  0  0  0  0
   -0.5370    6.9166   10.6464 C   0  0  1  0  0  0  0  0  0  0  0  0
    0.1112    5.9932    9.5802 C   0  0  1  0  0  0  0  0  0  0  0  0
    1.5598    5.5977    9.9947 C   0  0  1  0  0  0  0  0  0  0  0  0
    1.6180    5.0333   11.4453 C   0  0  2  0  0  0  0  0  0  0  0  0
    2.9837    5.3041    8.0198 C   0  0  0  0  0  0  0  0  0  0  0  0
   -1.9151    7.2509   10.3130 O   0  0  0  0  0  0  0  0  0  0  0  0
    0.9014    5.8934   12.3836 O   0  0  0  0  0  0  0  0  0  0  0  0
   -3.0095    8.7018   13.6240 N   0  0  0  0  0  0  0  0  0  0  0  0
    2.1032    4.6427    9.0068 N   0  0  0  0  0  0  0  0  0  0  0  0
   -0.6881    4.8422    9.3391 O   0  0  0  0  0  0  0  0  0  0  0  0
    3.0015    4.8353   11.8591 O   0  0  0  0  0  0  0  0  0  0  0  0
   -2.2663    9.5014   11.0772 O   0  0  0  0  0  0  0  0  0  0  0  0
    3.2665    3.9986   13.0269 C   0  0  2  0  0  0  0  0  0  0  0  0
    4.5791    4.4343   13.7382 C   0  0  1  0  0  0  0  0  0  0  0  0
    5.8368    4.0755   12.8960 C   0  0  2  0  0  0  0  0  0  0  0  0
    5.8339    2.5720   12.4946 C   0  0  1  0  0  0  0  0  0  0  0  0
    4.4926    2.1713   11.8194 C   0  0  1  0  0  0  0  0  0  0  0  0
    4.4204    0.6477   11.5370 C   0  0  0  0  0  0  0  0  0  0  0  0
    3.3627    2.5950   12.6412 O   0  0  0  0  0  0  0  0  0  0  0  0
    6.9914    2.2395   11.6354 N   0  0  0  0  0  0  0  0  0  0  0  0
    4.5373    5.8233   14.0601 O   0  0  0  0  0  0  0  0  0  0  0  0
    7.0352    4.4205   13.5876 O   0  0  0  0  0  0  0  0  0  0  0  0
    5.3691    0.2703   10.5447 O   0  0  0  0  0  0  0  0  0  0  0  0
   -3.0222   10.3269   10.1439 C   0  0  1  0  0  0  0  0  0  0  0  0
   -3.0643   11.8162   10.5869 C   0  0  1  0  0  0  0  0  0  0  0  0
   -3.9547   12.6600    9.6317 C   0  0  2  0  0  0  0  0  0  0  0  0
   -3.5309   12.5109    8.1344 C   0  0  1  0  0  0  0  0  0  0  0  0
   -3.3500   11.0255    7.6999 C   0  0  0  0  0  0  0  0  0  0  0  0
   -2.4693   10.2113    8.6949 C   0  0  2  0  0  0  0  0  0  0  0  0
   -4.4865   13.2069    7.2463 N   0  0  0  0  0  0  0  0  0  0  0  0
   -2.3902    8.8061    8.2404 N   0  0  0  0  0  0  0  0  0  0  0  0
   -3.5152   11.9319   11.9326 O   0  0  0  0  0  0  0  0  0  0  0  0
   -3.9403   14.0315   10.0196 O   0  0  0  0  0  0  0  0  0  0  0  0
  1  2  1  0  0  0  0
  1 16  1  1  0  0  0
  2  3  1  0  0  0  0
  2 12  1  1  0  0  0
  4 11  1  1  0  0  0
  4  3  1  0  0  0  0
  5  4  1  0  0  0  0
  5 10  1  6  0  0  0
  6  7  1  0  0  0  0
  6  5  1  0  0  0  0
  6 14  1  1  0  0  0
  7  8  1  0  0  0  0
  7 13  1  6  0  0  0
  8 15  1  1  0  0  0
  8 11  1  0  0  0  0
  9 13  1  0  0  0  0
 10  1  1  0  0  0  0
 17 15  1  6  0  0  0
 17 18  1  0  0  0  0
 18 25  1  6  0  0  0
 19 18  1  0  0  0  0
 19 26  1  1  0  0  0
 20 19  1  0  0  0  0
 20 24  1  6  0  0  0
 21 23  1  0  0  0  0
 21 20  1  0  0  0  0
 21 22  1  1  0  0  0
 23 17  1  0  0  0  0
 27 22  1  0  0  0  0
 28 29  1  0  0  0  0
 28 16  1  1  0  0  0
 29 36  1  1  0  0  0
 30 37  1  1  0  0  0
 30 29  1  0  0  0  0
 31 30  1  0  0  0  0
 31 34  1  6  0  0  0
 32 31  1  0  0  0  0
 32 33  1  0  0  0  0
 33 28  1  0  0  0  0
 33 35  1  6  0  0  0
M  END
>  <CHROM.1>
174.73879667,-164.14699371,99.14942478,-62.72387610,-151.62674089,-142.71549028
61.05078920,-176.13363504,-67.15926657,-166.59334541,177.71467219,148.99616928
62.77771363,-76.59478671,172.66000948,65.96092690,0.54488806,6.83925829,11.00244541
-3.11476828,0.80821442,-1.88025476

>  <Name>
lig.pdb

>  <RI>
0

>  <Rbt.Current_Directory>
/home/itssahil/PROJECTS/Mol_Feturizer/New_Systems/rnas/2m4q

>  <Rbt.Executable>
rbdock ($Id: //depot/dev/client3/rdock/2013.1/src/exe/rbdock.cxx#4 $)

>  <Rbt.Library>
libRbt.so (2013.1, Build901 2013/11/27)

>  <Rbt.Parameter_File>
/export/apps/rDock/src/rDock_2013.1_src/data/scripts/dock_solv.prm

>  <Rbt.Receptor>
prm/pocket_docking_3.prm

>  <SCORE>
-48.0185

>  <SCORE.INTER>
-28.3934

>  <SCORE.INTER.CONST>
1

>  <SCORE.INTER.POLAR>
-4.54348

>  <SCORE.INTER.ROT>
10

>  <SCORE.INTER.SOLV>
15.7636

>  <SCORE.INTER.VDW>
-19.3052

>  <SCORE.INTER.norm>
-0.767389

>  <SCORE.INTRA>
-19.8972

>  <SCORE.INTRA.DIHEDRAL>
-27.3485

>  <SCORE.INTRA.DIHEDRAL.0>
44.8331

>  <SCORE.INTRA.POLAR>
-1.60027

>  <SCORE.INTRA.POLAR.0>
-0.108895

>  <SCORE.INTRA.REPUL>
-0.00912235

>  <SCORE.INTRA.REPUL.0>
0.00912235

>  <SCORE.INTRA.SOLV>
-0.93171

>  <SCORE.INTRA.SOLV.lig_0>
-53.9067

>  <SCORE.INTRA.VDW>
-0.270585

>  <SCORE.INTRA.VDW.0>
-2.93492

>  <SCORE.INTRA.norm>
-0.537762

>  <SCORE.RESTR>
0.272121

>  <SCORE.RESTR.CAVITY>
0.272121

>  <SCORE.RESTR.norm>
0.00735463

>  <SCORE.SYSTEM>
0

>  <SCORE.SYSTEM.CONST>
0

>  <SCORE.SYSTEM.DIHEDRAL>
0

>  <SCORE.SYSTEM.SOLV>
0

>  <SCORE.SYSTEM.norm>
0

>  <SCORE.heavy>
37

>  <SCORE.norm>
-1.2978

>  <RMSD>
1.458

$$$$
lig.pdb
 OpenBabel11021811453D
libRbt.so/2013.1/901 2013/11/27
 37 40  0  0  0  0  0  0  0  0999 V2000
   -2.1744    7.4799    8.7393 C   0  0  2  0  0  0  0  0  0  0  0  0
   -2.4603    6.9669   10.1892 C   0  0  1  0  0  0  0  0  0  0  0  0
   -1.1674    6.7175   11.0198 C   0  0  0  0  0  0  0  0  0  0  0  0
   -0.1441    5.8748   10.2189 C   0  0  1  0  0  0  0  0  0  0  0  0
    0.1596    6.5603    8.8679 C   0  0  1  0  0  0  0  0  0  0  0  0
    1.2190    5.7605    8.0633 C   0  0  1  0  0  0  0  0  0  0  0  0
    2.4958    5.5115    8.9203 C   0  0  1  0  0  0  0  0  0  0  0  0
    2.1547    4.8964   10.3101 C   0  0  2  0  0  0  0  0  0  0  0  0
    4.4086    5.4700    7.3863 C   0  0  0  0  0  0  0  0  0  0  0  0
   -1.0695    6.7530    8.1100 O   0  0  0  0  0  0  0  0  0  0  0  0
    1.0792    5.6312   10.9714 O   0  0  0  0  0  0  0  0  0  0  0  0
   -3.3276    7.9323   10.8985 N   0  0  0  0  0  0  0  0  0  0  0  0
    3.4354    4.6653    8.1560 N   0  0  0  0  0  0  0  0  0  0  0  0
    0.6813    4.5390    7.5730 O   0  0  0  0  0  0  0  0  0  0  0  0
    3.3469    4.8362   11.1464 O   0  0  0  0  0  0  0  0  0  0  0  0
   -1.9112    8.9163    8.7299 O   0  0  0  0  0  0  0  0  0  0  0  0
    3.3152    4.0034   12.3462 C   0  0  2  0  0  0  0  0  0  0  0  0
    4.3693    4.4819   13.3847 C   0  0  1  0  0  0  0  0  0  0  0  0
    5.8202    4.1727   12.9167 C   0  0  2  0  0  0  0  0  0  0  0  0
    5.9801    2.6721   12.5364 C   0  0  1  0  0  0  0  0  0  0  0  0
    4.8873    2.2274   11.5247 C   0  0  1  0  0  0  0  0  0  0  0  0
    4.9489    0.7037   11.2403 C   0  0  0  0  0  0  0  0  0  0  0  0
    3.5625    2.6061   12.0074 O   0  0  0  0  0  0  0  0  0  0  0  0
    7.3383    2.3858   12.0248 N   0  0  0  0  0  0  0  0  0  0  0  0
    4.1920    5.8668   13.6769 O   0  0  0  0  0  0  0  0  0  0  0  0
    6.7731    4.5566   13.9057 O   0  0  0  0  0  0  0  0  0  0  0  0
    4.6111   -0.0435   12.4043 O   0  0  0  0  0  0  0  0  0  0  0  0
   -2.6252    9.7293    7.7536 C   0  0  1  0  0  0  0  0  0  0  0  0
   -3.3106   10.9596    8.4114 C   0  0  1  0  0  0  0  0  0  0  0  0
   -4.1455   11.7585    7.3711 C   0  0  2  0  0  0  0  0  0  0  0  0
   -3.3056   12.1630    6.1163 C   0  0  1  0  0  0  0  0  0  0  0  0
   -2.4997   10.9723    5.5159 C   0  0  0  0  0  0  0  0  0  0  0  0
   -1.6947   10.1867    6.5946 C   0  0  2  0  0  0  0  0  0  0  0  0
   -4.1647   12.7891    5.0887 N   0  0  0  0  0  0  0  0  0  0  0  0
   -1.0029    9.0471    5.9542 N   0  0  0  0  0  0  0  0  0  0  0  0
   -4.1217   10.5599    9.5113 O   0  0  0  0  0  0  0  0  0  0  0  0
   -4.7237   12.9119    7.9769 O   0  0  0  0  0  0  0  0  0  0  0  0
  1  2  1  0  0  0  0
  1 16  1  1  0  0  0
  2  3  1  0  0  0  0
  2 12  1  1  0  0  0
  4 11  1  1  0  0  0
  4  3  1  0  0  0  0
  5  4  1  0  0  0  0
  5 10  1  6  0  0  0
  6  7  1  0  0  0  0
  6  5  1  0  0  0  0
  6 14  1  1  0  0  0
  7  8  1  0  0  0  0
  7 13  1  6  0  0  0
  8 15  1  1  0  0  0
  8 11  1  0  0  0  0
  9 13  1  0  0  0  0
 10  1  1  0  0  0  0
 17 15  1  6  0  0  0
 17 18  1  0  0  0  0
 18 25  1  6  0  0  0
 19 18  1  0  0  0  0
 19 26  1  1  0  0  0
 20 19  1  0  0  0  0
 20 24  1  6  0  0  0
 21 23  1  0  0  0  0
 21 20  1  0  0  0  0
 21 22  1  1  0  0  0
 23 17  1  0  0  0  0
 27 22  1  0  0  0  0
 28 29  1  0  0  0  0
 28 16  1  1  0  0  0
 29 36  1  1  0  0  0
 30 37  1  1  0  0  0
 30 29  1  0  0  0  0
 31 30  1  0  0  0  0
 31 34  1  6  0  0  0
 32 31  1  0  0  0  0
 32 33  1  0  0  0  0
 33 28  1  0  0  0  0
 33 35  1  6  0  0  0
M  END
>  <CHROM.1>
165.46317454,-165.16482167,92.78762860,-47.79849083,-156.75686862,-131.43000595
64.39078780,-173.04056440,66.34992345,62.83251558,-161.11257733,129.51168958
45.27051119,-178.30226233,112.62776563,104.94590940,0.85140355,6.55586647
9.69137962,2.67608394,0.71205285,-1.45904744

>  <Name>
lig.pdb

>  <RI>
3.87352e+07

>  <Rbt.Current_Directory>
/home/itssahil/PROJECTS/Mol_Feturizer/New_Systems/rnas/2m4q

>  <Rbt.Executable>
rbdock ($Id: //depot/dev/client3/rdock/2013.1/src/exe/rbdock.cxx#4 $)

>  <Rbt.Library>
libRbt.so (2013.1, Build901 2013/11/27)

>  <Rbt.Parameter_File>
/export/apps/rDock/src/rDock_2013.1_src/data/scripts/dock_solv.prm

>  <Rbt.Receptor>
prm/pocket_docking_4.prm

>  <SCORE>
-44.2127

>  <SCORE.INTER>
-29.3312

>  <SCORE.INTER.CONST>
1

>  <SCORE.INTER.POLAR>
-3.76811

>  <SCORE.INTER.ROT>
10

>  <SCORE.INTER.SOLV>
18.3595

>  <SCORE.INTER.VDW>
-23.3803

>  <SCORE.INTER.norm>
-0.792735

>  <SCORE.INTRA>
-14.8815

>  <SCORE.INTRA.DIHEDRAL>
-17.8072

>  <SCORE.INTRA.DIHEDRAL.0>
44.8331

>  <SCORE.INTRA.POLAR>
-1.82485

>  <SCORE.INTRA.POLAR.0>
-0.108895

>  <SCORE.INTRA.REPUL>
-0.00912235

>  <SCORE.INTRA.REPUL.0>
0.00912235

>  <SCORE.INTRA.SOLV>
-1.09492

>  <SCORE.INTRA.SOLV.lig_0>
-53.9067

>  <SCORE.INTRA.VDW>
0.819652

>  <SCORE.INTRA.VDW.0>
-2.93492

>  <SCORE.INTRA.norm>
-0.402203

>  <SCORE.RESTR>
0

>  <SCORE.RESTR.CAVITY>
0

>  <SCORE.RESTR.norm>
0

>  <SCORE.SYSTEM>
0

>  <SCORE.SYSTEM.CONST>
0

>  <SCORE.SYSTEM.DIHEDRAL>
0

>  <SCORE.SYSTEM.SOLV>
0

>  <SCORE.SYSTEM.norm>
0

>  <SCORE.heavy>
37

>  <SCORE.norm>
-1.19494

>  <RMSD>
1.460

$$$$
lig.pdb
 OpenBabel11021811453D
libRbt.so/2013.1/901 2013/11/27
 37 40  0  0  0  0  0  0  0  0999 V2000
   -2.4215    7.3069   10.3639 C   0  0  2  0  0  0  0  0  0  0  0  0
   -2.1779    6.7292   11.7971 C   0  0  1  0  0  0  0  0  0  0  0  0
   -0.6702    6.5442   12.1380 C   0  0  0  0  0  0  0  0  0  0  0  0
    0.0715    5.8007   10.9995 C   0  0  1  0  0  0  0  0  0  0  0  0
   -0.1318    6.5484    9.6628 C   0  0  1  0  0  0  0  0  0  0  0  0
    0.6403    5.8503    8.5111 C   0  0  1  0  0  0  0  0  0  0  0  0
    2.1417    5.6637    8.8822 C   0  0  1  0  0  0  0  0  0  0  0  0
    2.3188    4.9823   10.2717 C   0  0  2  0  0  0  0  0  0  0  0  0
    4.2596    5.2254    7.7264 C   0  0  0  0  0  0  0  0  0  0  0  0
   -1.5521    6.6791    9.3663 O   0  0  0  0  0  0  0  0  0  0  0  0
    1.4874    5.6190   11.2901 O   0  0  0  0  0  0  0  0  0  0  0  0
   -2.8102    7.6088   12.8042 N   0  0  0  0  0  0  0  0  0  0  0  0
    2.8170    4.9098    7.8058 N   0  0  0  0  0  0  0  0  0  0  0  0
    0.0377    4.6106    8.1625 O   0  0  0  0  0  0  0  0  0  0  0  0
    3.7234    4.9787   10.6612 O   0  0  0  0  0  0  0  0  0  0  0  0
   -2.2560    8.7577   10.3443 O   0  0  0  0  0  0  0  0  0  0  0  0
    4.3725    3.6951   10.9160 C   0  0  2  0  0  0  0  0  0  0  0  0
    4.1724    3.2529   12.3935 C   0  0  1  0  0  0  0  0  0  0  0  0
    4.9946    4.1362   13.3752 C   0  0  2  0  0  0  0  0  0  0  0  0
    6.4924    4.1964   12.9568 C   0  0  1  0  0  0  0  0  0  0  0  0
    6.6451    4.6079   11.4658 C   0  0  1  0  0  0  0  0  0  0  0  0
    8.1220    4.5403   10.9962 C   0  0  0  0  0  0  0  0  0  0  0  0
    5.7985    3.7733   10.6183 O   0  0  0  0  0  0  0  0  0  0  0  0
    7.2665    5.0903   13.8457 N   0  0  0  0  0  0  0  0  0  0  0  0
    2.7861    3.2396   12.7292 O   0  0  0  0  0  0  0  0  0  0  0  0
    4.8543    3.6802   14.7190 O   0  0  0  0  0  0  0  0  0  0  0  0
    8.6048    3.2013   11.0319 O   0  0  0  0  0  0  0  0  0  0  0  0
   -3.0384    9.5156    9.3761 C   0  0  1  0  0  0  0  0  0  0  0  0
   -3.5001   10.8859    9.9464 C   0  0  1  0  0  0  0  0  0  0  0  0
   -4.4126   11.6350    8.9348 C   0  0  2  0  0  0  0  0  0  0  0  0
   -3.7462   11.7855    7.5287 C   0  0  1  0  0  0  0  0  0  0  0  0
   -3.1535   10.4483    6.9918 C   0  0  0  0  0  0  0  0  0  0  0  0
   -2.2633    9.7202    8.0435 C   0  0  2  0  0  0  0  0  0  0  0  0
   -4.6960   12.3685    6.5570 N   0  0  0  0  0  0  0  0  0  0  0  0
   -1.7844    8.4409    7.4766 N   0  0  0  0  0  0  0  0  0  0  0  0
   -4.1618   10.7176   11.1960 O   0  0  0  0  0  0  0  0  0  0  0  0
   -4.7838   12.9112    9.4496 O   0  0  0  0  0  0  0  0  0  0  0  0
  1  2  1  0  0  0  0
  1 16  1  1  0  0  0
  2  3  1  0  0  0  0
  2 12  1  1  0  0  0
  4 11  1  1  0  0  0
  4  3  1  0  0  0  0
  5  4  1  0  0  0  0
  5 10  1  6  0  0  0
  6  7  1  0  0  0  0
  6  5  1  0  0  0  0
  6 14  1  1  0  0  0
  7  8  1  0  0  0  0
  7 13  1  6  0  0  0
  8 15  1  1  0  0  0
  8 11  1  0  0  0  0
  9 13  1  0  0  0  0
 10  1  1  0  0  0  0
 17 15  1  1  0  0  0
 17 18  1  0  0  0  0
 18 25  1  1  0  0  0
 19 18  1  0  0  0  0
 19 26  1  1  0  0  0
 20 19  1  0  0  0  0
 20 24  1  1  0  0  0
 21 23  1  0  0  0  0
 21 20  1  0  0  0  0
 21 22  1  6  0  0  0
 23 17  1  0  0  0  0
 27 22  1  0  0  0  0
 28 29  1  0  0  0  0
 28 16  1  1  0  0  0
 29 36  1  1  0  0  0
 30 37  1  1  0  0  0
 30 29  1  0  0  0  0
 31 30  1  0  0  0  0
 31 34  1  6  0  0  0
 32 31  1  0  0  0  0
 32 33  1  0  0  0  0
 33 28  1  0  0  0  0
 33 35  1  6  0  0  0
M  END
>  <CHROM.1>
-174.86136946,-120.98105606,152.78705827,-174.98750362,-87.18856720,-150.18711229
-177.02265870,-177.38873492,64.57280508,179.79747318,-59.37084788,143.88276330
171.58682922,-159.39852099,169.95444990,-176.77535514,0.93785756,6.73846360
10.32845345,2.78527918,0.55040970,-1.37222011

>  <Name>
lig.pdb

>  <RI>
0

>  <Rbt.Current_Directory>
/home/itssahil/PROJECTS/Mol_Feturizer/New_Systems/rnas/2m4q

>  <Rbt.Executable>
rbdock ($Id: //depot/dev/client3/rdock/2013.1/src/exe/rbdock.cxx#4 $)

>  <Rbt.Library>
libRbt.so (2013.1, Build901 2013/11/27)

>  <Rbt.Parameter_File>
/export/apps/rDock/src/rDock_2013.1_src/data/scripts/dock_solv.prm

>  <Rbt.Receptor>
prm/pocket_docking_2.prm

>  <SCORE>
-29.6013

>  <SCORE.INTER>
-18.9777

>  <SCORE.INTER.CONST>
1

>  <SCORE.INTER.POLAR>
-2.29355

>  <SCORE.INTER.ROT>
10

>  <SCORE.INTER.SOLV>
15.8532

>  <SCORE.INTER.VDW>
-20.5577

>  <SCORE.INTER.norm>
-0.512912

>  <SCORE.INTRA>
-11.1339

>  <SCORE.INTRA.DIHEDRAL>
-22.197

>  <SCORE.INTRA.DIHEDRAL.0>
44.8331

>  <SCORE.INTRA.POLAR>
-0.0580058

>  <SCORE.INTRA.POLAR.0>
-0.108895

>  <SCORE.INTRA.REPUL>
0.236283

>  <SCORE.INTRA.REPUL.0>
0.00912235

>  <SCORE.INTRA.SOLV>
-0.553699

>  <SCORE.INTRA.SOLV.lig_0>
-53.9067

>  <SCORE.INTRA.VDW>
-0.742766

>  <SCORE.INTRA.VDW.0>
-2.93492

>  <SCORE.INTRA.norm>
-0.300916

>  <SCORE.RESTR>
0.510362

>  <SCORE.RESTR.CAVITY>
0.510362

>  <SCORE.RESTR.norm>
0.0137936

>  <SCORE.SYSTEM>
0

>  <SCORE.SYSTEM.CONST>
0

>  <SCORE.SYSTEM.DIHEDRAL>
0

>  <SCORE.SYSTEM.SOLV>
0

>  <SCORE.SYSTEM.norm>
0

>  <SCORE.heavy>
37

>  <SCORE.norm>
-0.800035

>  <RMSD>
1.466

$$$$
lig.pdb
 OpenBabel11021811453D
libRbt.so/2013.1/901 2013/11/27
 37 40  0  0  0  0  0  0  0  0999 V2000
   -3.1178    8.2347   10.8582 C   0  0  2  0  0  0  0  0  0  0  0  0
   -3.0160    7.9629   12.3953 C   0  0  1  0  0  0  0  0  0  0  0  0
   -1.5600    7.6972   12.8783 C   0  0  0  0  0  0  0  0  0  0  0  0
   -0.8581    6.6473   11.9816 C   0  0  1  0  0  0  0  0  0  0  0  0
   -0.9042    7.1010   10.5053 C   0  0  1  0  0  0  0  0  0  0  0  0
   -0.1660    6.0890    9.5885 C   0  0  1  0  0  0  0  0  0  0  0  0
    1.2820    5.8291   10.1008 C   0  0  1  0  0  0  0  0  0  0  0  0
    1.3075    5.4542   11.6124 C   0  0  2  0  0  0  0  0  0  0  0  0
    2.4584    5.3454    8.0041 C   0  0  0  0  0  0  0  0  0  0  0  0
   -2.2822    7.3143   10.0837 O   0  0  0  0  0  0  0  0  0  0  0  0
    0.5096    6.3837   12.4081 O   0  0  0  0  0  0  0  0  0  0  0  0
   -3.5867    9.1043   13.1431 N   0  0  0  0  0  0  0  0  0  0  0  0
    1.9139    4.7899    9.2619 N   0  0  0  0  0  0  0  0  0  0  0  0
   -0.8954    4.8746    9.4673 O   0  0  0  0  0  0  0  0  0  0  0  0
    2.6806    5.3862   12.0967 O   0  0  0  0  0  0  0  0  0  0  0  0
   -2.7783    9.6197   10.5434 O   0  0  0  0  0  0  0  0  0  0  0  0
    2.9563    4.6101   13.3031 C   0  0  2  0  0  0  0  0  0  0  0  0
    4.2466    5.1161   14.0086 C   0  0  1  0  0  0  0  0  0  0  0  0
    5.5245    4.7590   13.1967 C   0  0  2  0  0  0  0  0  0  0  0  0
    5.5713    3.2399   12.8621 C   0  0  1  0  0  0  0  0  0  0  0  0
    4.2507    2.7695   12.1909 C   0  0  1  0  0  0  0  0  0  0  0  0
    4.2274    1.2335   11.9754 C   0  0  0  0  0  0  0  0  0  0  0  0
    3.0989    3.1944   12.9809 O   0  0  0  0  0  0  0  0  0  0  0  0
    6.7485    2.9053   12.0310 N   0  0  0  0  0  0  0  0  0  0  0  0
    4.1595    6.5160   14.2683 O   0  0  0  0  0  0  0  0  0  0  0  0
    6.7037    5.1702   13.8851 O   0  0  0  0  0  0  0  0  0  0  0  0
    5.1295    0.8526   10.9418 O   0  0  0  0  0  0  0  0  0  0  0  0
   -3.3212   10.1880    9.3161 C   0  0  1  0  0  0  0  0  0  0  0  0
   -3.7521   11.6698    9.5022 C   0  0  1  0  0  0  0  0  0  0  0  0
   -4.4164   12.2265    8.2114 C   0  0  2  0  0  0  0  0  0  0  0  0
   -3.5154   12.0376    6.9480 C   0  0  1  0  0  0  0  0  0  0  0  0
   -2.9585   10.5888    6.8109 C   0  0  0  0  0  0  0  0  0  0  0  0
   -2.3209   10.0625    8.1319 C   0  0  2  0  0  0  0  0  0  0  0  0
   -4.2372   12.4426    5.7228 N   0  0  0  0  0  0  0  0  0  0  0  0
   -1.8659    8.6693    7.9337 N   0  0  0  0  0  0  0  0  0  0  0  0
   -4.6240   11.8075   10.6195 O   0  0  0  0  0  0  0  0  0  0  0  0
   -4.7572   13.6002    8.3797 O   0  0  0  0  0  0  0  0  0  0  0  0
  1  2  1  0  0  0  0
  1 16  1  1  0  0  0
  2  3  1  0  0  0  0
  2 12  1  1  0  0  0
  4 11  1  1  0  0  0
  4  3  1  0  0  0  0
  5  4  1  0  0  0  0
  5 10  1  6  0  0  0
  6  7  1  0  0  0  0
  6  5  1  0  0  0  0
  6 14  1  1  0  0  0
  7  8  1  0  0  0  0
  7 13  1  6  0  0  0
  8 15  1  1  0  0  0
  8 11  1  0  0  0  0
  9 13  1  0  0  0  0
 10  1  1  0  0  0  0
 17 15  1  6  0  0  0
 17 18  1  0  0  0  0
 18 25  1  6  0  0  0
 19 18  1  0  0  0  0
 19 26  1  1  0  0  0
 20 19  1  0  0  0  0
 20 24  1  6  0  0  0
 21 23  1  0  0  0  0
 21 20  1  0  0  0  0
 21 22  1  1  0  0  0
 23 17  1  0  0  0  0
 27 22  1  0  0  0  0
 28 29  1  0  0  0  0
 28 16  1  1  0  0  0
 29 36  1  1  0  0  0
 30 37  1  1  0  0  0
 30 29  1  0  0  0  0
 31 30  1  0  0  0  0
 31 34  1  6  0  0  0
 32 31  1  0  0  0  0
 32 33  1  0  0  0  0
 33 28  1  0  0  0  0
 33 35  1  6  0  0  0
M  END
>  <CHROM.1>
-61.30272332,-158.43274149,81.88750640,-69.34480581,-155.42084146,-155.54275655
-55.63027359,-166.50888673,-71.40762251,8.79002337,52.15642151,141.20644599
59.42267180,-85.95151380,173.07852510,-178.58585857,0.24456205,7.06168095
10.76760044,2.89395693,0.75224516,-1.67553831

>  <Name>
lig.pdb

>  <RI>
0

>  <Rbt.Current_Directory>
/home/itssahil/PROJECTS/Mol_Feturizer/New_Systems/rnas/2m4q

>  <Rbt.Executable>
rbdock ($Id: //depot/dev/client3/rdock/2013.1/src/exe/rbdock.cxx#4 $)

>  <Rbt.Library>
libRbt.so (2013.1, Build901 2013/11/27)

>  <Rbt.Parameter_File>
/export/apps/rDock/src/rDock_2013.1_src/data/scripts/dock_solv.prm

>  <Rbt.Receptor>
prm/pocket_docking_3.prm

>  <SCORE>
-38.1422

>  <SCORE.INTER>
-22.9564

>  <SCORE.INTER.CONST>
1

>  <SCORE.INTER.POLAR>
-3.54816

>  <SCORE.INTER.ROT>
10

>  <SCORE.INTER.SOLV>
15.0125

>  <SCORE.INTER.VDW>
-18.7479

>  <SCORE.INTER.norm>
-0.620444

>  <SCORE.INTRA>
-15.1858

>  <SCORE.INTRA.DIHEDRAL>
-23.8927

>  <SCORE.INTRA.DIHEDRAL.0>
44.8331

>  <SCORE.INTRA.POLAR>
-0.747504

>  <SCORE.INTRA.POLAR.0>
-0.108895

>  <SCORE.INTRA.REPUL>
-0.00912235

>  <SCORE.INTRA.REPUL.0>
0.00912235

>  <SCORE.INTRA.SOLV>
-1.09755

>  <SCORE.INTRA.SOLV.lig_0>
-53.9067

>  <SCORE.INTRA.VDW>
-0.103543

>  <SCORE.INTRA.VDW.0>
-2.93492

>  <SCORE.INTRA.norm>
-0.410427

>  <SCORE.RESTR>
0

>  <SCORE.RESTR.CAVITY>
0

>  <SCORE.RESTR.norm>
0

>  <SCORE.SYSTEM>
0

>  <SCORE.SYSTEM.CONST>
0

>  <SCORE.SYSTEM.DIHEDRAL>
0

>  <SCORE.SYSTEM.SOLV>
0

>  <SCORE.SYSTEM.norm>
0

>  <SCORE.heavy>
37

>  <SCORE.norm>
-1.03087

>  <RMSD>
1.472

$$$$
lig.pdb
 OpenBabel11021811453D
libRbt.so/2013.1/901 2013/11/27
 37 40  0  0  0  0  0  0  0  0999 V2000
   -2.0523    7.2551   10.1581 C   0  0  2  0  0  0  0  0  0  0  0  0
   -1.9882    6.3927   11.4616 C   0  0  1  0  0  0  0  0  0  0  0  0
   -0.5372    6.0075   11.8740 C   0  0  0  0  0  0  0  0  0  0  0  0
    0.2500    5.4318   10.6708 C   0  0  1  0  0  0  0  0  0  0  0  0
    0.2296    6.4381    9.4985 C   0  0  1  0  0  0  0  0  0  0  0  0
    1.0517    5.9065    8.2938 C   0  0  1  0  0  0  0  0  0  0  0  0
    2.4934    5.5146    8.7349 C   0  0  1  0  0  0  0  0  0  0  0  0
    2.4878    4.5654    9.9699 C   0  0  2  0  0  0  0  0  0  0  0  0
    4.6757    5.0479    7.7184 C   0  0  0  0  0  0  0  0  0  0  0  0
   -1.1428    6.7536    9.1254 O   0  0  0  0  0  0  0  0  0  0  0  0
    1.6147    5.0681   11.0276 O   0  0  0  0  0  0  0  0  0  0  0  0
   -2.6443    7.1166   12.5721 N   0  0  0  0  0  0  0  0  0  0  0  0
    3.2082    4.9229    7.5851 N   0  0  0  0  0  0  0  0  0  0  0  0
    0.3931    4.8178    7.6593 O   0  0  0  0  0  0  0  0  0  0  0  0
    3.8454    4.3576   10.4581 O   0  0  0  0  0  0  0  0  0  0  0  0
   -1.7773    8.6610   10.4412 O   0  0  0  0  0  0  0  0  0  0  0  0
    4.0459    3.4766   11.6059 C   0  0  2  0  0  0  0  0  0  0  0  0
    4.1633    4.2952   12.9230 C   0  0  1  0  0  0  0  0  0  0  0  0
    5.5008    5.0866   12.9919 C   0  0  2  0  0  0  0  0  0  0  0  0
    6.7203    4.1511   12.7475 C   0  0  1  0  0  0  0  0  0  0  0  0
    6.5461    3.3274   11.4411 C   0  0  1  0  0  0  0  0  0  0  0  0
    7.6866    2.2926   11.2542 C   0  0  0  0  0  0  0  0  0  0  0  0
    5.2451    2.6652   11.4265 O   0  0  0  0  0  0  0  0  0  0  0  0
    7.9907    4.9090   12.7427 N   0  0  0  0  0  0  0  0  0  0  0  0
    3.0338    5.1515   13.0831 O   0  0  0  0  0  0  0  0  0  0  0  0
    5.6255    5.7804   14.2314 O   0  0  0  0  0  0  0  0  0  0  0  0
    7.4625    1.4944   10.0966 O   0  0  0  0  0  0  0  0  0  0  0  0
   -2.7812    9.6406   10.0454 C   0  0  1  0  0  0  0  0  0  0  0  0
   -2.9081   10.7938   11.0799 C   0  0  1  0  0  0  0  0  0  0  0  0
   -4.0493   11.7744   10.6886 C   0  0  2  0  0  0  0  0  0  0  0  0
   -3.8962   12.3162    9.2302 C   0  0  1  0  0  0  0  0  0  0  0  0
   -3.6327   11.1880    8.1883 C   0  0  0  0  0  0  0  0  0  0  0  0
   -2.4968   10.2163    8.6290 C   0  0  2  0  0  0  0  0  0  0  0  0
   -5.0720   13.1254    8.8444 N   0  0  0  0  0  0  0  0  0  0  0  0
   -2.3454    9.1499    7.6155 N   0  0  0  0  0  0  0  0  0  0  0  0
   -3.1119   10.2780   12.3913 O   0  0  0  0  0  0  0  0  0  0  0  0
   -4.1180   12.8541   11.6167 O   0  0  0  0  0  0  0  0  0  0  0  0
  1  2  1  0  0  0  0
  1 16  1  1  0  0  0
  2  3  1  0  0  0  0
  2 12  1  1  0  0  0
  4 11  1  1  0  0  0
  4  3  1  0  0  0  0
  5  4  1  0  0  0  0
  5 10  1  6  0  0  0
  6  7  1  0  0  0  0
  6  5  1  0  0  0  0
  6 14  1  1  0  0  0
  7  8  1  0  0  0  0
  7 13  1  6  0  0  0
  8 15  1  1  0  0  0
  8 11  1  0  0  0  0
  9 13  1  0  0  0  0
 10  1  1  0  0  0  0
 17 15  1  6  0  0  0
 17 18  1  0  0  0  0
 18 25  1  6  0  0  0
 19 18  1  0  0  0  0
 19 26  1  1  0  0  0
 20 19  1  0  0  0  0
 20 24  1  6  0  0  0
 21 23  1  0  0  0  0
 21 20  1  0  0  0  0
 21 22  1  1  0  0  0
 23 17  1  0  0  0  0
 27 22  1  0  0  0  0
 28 29  1  0  0  0  0
 28 16  1  1  0  0  0
 29 36  1  1  0  0  0
 30 37  1  1  0  0  0
 30 29  1  0  0  0  0
 31 30  1  0  0  0  0
 31 34  1  6  0  0  0
 32 31  1  0  0  0  0
 32 33  1  0  0  0  0
 33 28  1  0  0  0  0
 33 35  1  6  0  0  0
M  END
>  <CHROM.1>
-41.31003144,-179.14903758,155.93790859,-55.12400080,-97.56319280,-123.61774375
60.62286524,64.78179449,176.38485453,-56.67385152,-56.35521653,142.80063002
-65.49020268,178.08251352,113.73724052,64.53662069,1.08778816,6.70106660
10.56674445,3.04164027,-0.65344918,1.20855071

>  <Name>
lig.pdb

>  <RI>
0

>  <Rbt.Current_Directory>
/home/itssahil/PROJECTS/Mol_Feturizer/New_Systems/rnas/2m4q

>  <Rbt.Executable>
rbdock ($Id: //depot/dev/client3/rdock/2013.1/src/exe/rbdock.cxx#4 $)

>  <Rbt.Library>
libRbt.so (2013.1, Build901 2013/11/27)

>  <Rbt.Parameter_File>
/export/apps/rDock/src/rDock_2013.1_src/data/scripts/dock_solv.prm

>  <Rbt.Receptor>
prm/pocket_docking_3.prm

>  <SCORE>
-36.3314

>  <SCORE.INTER>
-20.3644

>  <SCORE.INTER.CONST>
1

>  <SCORE.INTER.POLAR>
-2.37508

>  <SCORE.INTER.ROT>
10

>  <SCORE.INTER.SOLV>
15.1438

>  <SCORE.INTER.VDW>
-20.9739

>  <SCORE.INTER.norm>
-0.550389

>  <SCORE.INTRA>
-15.967

>  <SCORE.INTRA.DIHEDRAL>
-23.0956

>  <SCORE.INTRA.DIHEDRAL.0>
44.8331

>  <SCORE.INTRA.POLAR>
-1.3335

>  <SCORE.INTRA.POLAR.0>
-0.108895

>  <SCORE.INTRA.REPUL>
-0.00912235

>  <SCORE.INTRA.REPUL.0>
0.00912235

>  <SCORE.INTRA.SOLV>
-0.460057

>  <SCORE.INTRA.SOLV.lig_0>
-53.9067

>  <SCORE.INTRA.VDW>
0.390305

>  <SCORE.INTRA.VDW.0>
-2.93492

>  <SCORE.INTRA.norm>
-0.431541

>  <SCORE.RESTR>
0

>  <SCORE.RESTR.CAVITY>
0

>  <SCORE.RESTR.norm>
0

>  <SCORE.SYSTEM>
0

>  <SCORE.SYSTEM.CONST>
0

>  <SCORE.SYSTEM.DIHEDRAL>
0

>  <SCORE.SYSTEM.SOLV>
0

>  <SCORE.SYSTEM.norm>
0

>  <SCORE.heavy>
37

>  <SCORE.norm>
-0.98193

>  <RMSD>
1.479

$$$$
lig.pdb
 OpenBabel11021811453D
libRbt.so/2013.1/901 2013/11/27
 37 40  0  0  0  0  0  0  0  0999 V2000
   -1.9642    7.4115    8.9979 C   0  0  2  0  0  0  0  0  0  0  0  0
   -2.2571    6.8829   10.4408 C   0  0  1  0  0  0  0  0  0  0  0  0
   -0.9676    6.5684   11.2545 C   0  0  0  0  0  0  0  0  0  0  0  0
    0.0153    5.7020   10.4286 C   0  0  1  0  0  0  0  0  0  0  0  0
    0.3334    6.4005    9.0876 C   0  0  1  0  0  0  0  0  0  0  0  0
    1.3541    5.5756    8.2584 C   0  0  1  0  0  0  0  0  0  0  0  0
    2.6277    5.2616    9.0987 C   0  0  1  0  0  0  0  0  0  0  0  0
    2.2751    4.6342   10.4801 C   0  0  2  0  0  0  0  0  0  0  0  0
    4.2791    5.1551    7.2889 C   0  0  0  0  0  0  0  0  0  0  0  0
   -0.8938    6.6545    8.3450 O   0  0  0  0  0  0  0  0  0  0  0  0
    1.2347    5.3974   11.1649 O   0  0  0  0  0  0  0  0  0  0  0  0
   -3.0802    7.8676   11.1759 N   0  0  0  0  0  0  0  0  0  0  0  0
    3.5272    4.3943    8.3102 N   0  0  0  0  0  0  0  0  0  0  0  0
    0.7652    4.3851    7.7510 O   0  0  0  0  0  0  0  0  0  0  0  0
    3.4714    4.5125   11.3039 O   0  0  0  0  0  0  0  0  0  0  0  0
   -1.6457    8.8366    9.0124 O   0  0  0  0  0  0  0  0  0  0  0  0
    4.3004    3.3187   11.1566 C   0  0  2  0  0  0  0  0  0  0  0  0
    4.5640    2.6496   12.5355 C   0  0  1  0  0  0  0  0  0  0  0  0
    5.5242    3.5011   13.4146 C   0  0  2  0  0  0  0  0  0  0  0  0
    6.8331    3.8447   12.6461 C   0  0  1  0  0  0  0  0  0  0  0  0
    6.5240    4.4785   11.2611 C   0  0  1  0  0  0  0  0  0  0  0  0
    7.8128    4.7009   10.4270 C   0  0  0  0  0  0  0  0  0  0  0  0
    5.5722    3.6523   10.5244 O   0  0  0  0  0  0  0  0  0  0  0  0
    7.7207    4.7123   13.4511 N   0  0  0  0  0  0  0  0  0  0  0  0
    3.3336    2.3803   13.2051 O   0  0  0  0  0  0  0  0  0  0  0  0
    5.8095    2.8461   14.6487 O   0  0  0  0  0  0  0  0  0  0  0  0
    8.3907    3.4570   10.0450 O   0  0  0  0  0  0  0  0  0  0  0  0
   -2.4408    9.7170    8.1658 C   0  0  1  0  0  0  0  0  0  0  0  0
   -2.4998   11.1656    8.7264 C   0  0  1  0  0  0  0  0  0  0  0  0
   -3.4303   12.0631    7.8628 C   0  0  2  0  0  0  0  0  0  0  0  0
   -3.0423   12.0413    6.3486 C   0  0  1  0  0  0  0  0  0  0  0  0
   -2.8444   10.5989    5.7936 C   0  0  0  0  0  0  0  0  0  0  0  0
   -1.9231    9.7275    6.6994 C   0  0  2  0  0  0  0  0  0  0  0  0
   -4.0333   12.7849    5.5417 N   0  0  0  0  0  0  0  0  0  0  0  0
   -1.8290    8.3645    6.1332 N   0  0  0  0  0  0  0  0  0  0  0  0
   -2.9181   11.1655   10.0875 O   0  0  0  0  0  0  0  0  0  0  0  0
   -3.4320   13.3998    8.3577 O   0  0  0  0  0  0  0  0  0  0  0  0
  1  2  1  0  0  0  0
  1 16  1  1  0  0  0
  2  3  1  0  0  0  0
  2 12  1  1  0  0  0
  4 11  1  1  0  0  0
  4  3  1  0  0  0  0
  5  4  1  0  0  0  0
  5 10  1  6  0  0  0
  6  7  1  0  0  0  0
  6  5  1  0  0  0  0
  6 14  1  1  0  0  0
  7  8  1  0  0  0  0
  7 13  1  6  0  0  0
  8 15  1  1  0  0  0
  8 11  1  0  0  0  0
  9 13  1  0  0  0  0
 10  1  1  0  0  0  0
 17 15  1  1  0  0  0
 17 18  1  0  0  0  0
 18 25  1  1  0  0  0
 19 18  1  0  0  0  0
 19 26  1  1  0  0  0
 20 19  1  0  0  0  0
 20 24  1  1  0  0  0
 21 23  1  0  0  0  0
 21 20  1  0  0  0  0
 21 22  1  6  0  0  0
 23 17  1  0  0  0  0
 27 22  1  0  0  0  0
 28 29  1  0  0  0  0
 28 16  1  1  0  0  0
 29 36  1  1  0  0  0
 30 37  1  1  0  0  0
 30 29  1  0  0  0  0
 31 30  1  0  0  0  0
 31 34  1  6  0  0  0
 32 31  1  0  0  0  0
 32 33  1  0  0  0  0
 33 28  1  0  0  0  0
 33 35  1  6  0  0  0
M  END
>  <CHROM.1>
154.31645728,-86.15149399,77.86847348,47.95511525,-128.00226872,-124.68245238
-64.36569754,63.32588793,67.59227204,-174.93655803,-61.07688111,152.87876582
-178.76956112,-173.41636337,74.31969830,162.35281524,1.29053021,6.64730499
9.73585545,2.56204523,0.50772659,-1.16248025

>  <Name>
lig.pdb

>  <RI>
3.87352e+07

>  <Rbt.Current_Directory>
/home/itssahil/PROJECTS/Mol_Feturizer/New_Systems/rnas/2m4q

>  <Rbt.Executable>
rbdock ($Id: //depot/dev/client3/rdock/2013.1/src/exe/rbdock.cxx#4 $)

>  <Rbt.Library>
libRbt.so (2013.1, Build901 2013/11/27)

>  <Rbt.Parameter_File>
/export/apps/rDock/src/rDock_2013.1_src/data/scripts/dock_solv.prm

>  <Rbt.Receptor>
prm/pocket_docking_4.prm

>  <SCORE>
-44.1718

>  <SCORE.INTER>
-32.0357

>  <SCORE.INTER.CONST>
1

>  <SCORE.INTER.POLAR>
-5.06098

>  <SCORE.INTER.ROT>
10

>  <SCORE.INTER.SOLV>
14.3481

>  <SCORE.INTER.VDW>
-19.5365

>  <SCORE.INTER.norm>
-0.865829

>  <SCORE.INTRA>
-12.1361

>  <SCORE.INTRA.DIHEDRAL>
-21.0723

>  <SCORE.INTRA.DIHEDRAL.0>
44.8331

>  <SCORE.INTRA.POLAR>
-0.986277

>  <SCORE.INTRA.POLAR.0>
-0.108895

>  <SCORE.INTRA.REPUL>
0.313545

>  <SCORE.INTRA.REPUL.0>
0.00912235

>  <SCORE.INTRA.SOLV>
-0.736917

>  <SCORE.INTRA.SOLV.lig_0>
-53.9067

>  <SCORE.INTRA.VDW>
0.554162

>  <SCORE.INTRA.VDW.0>
-2.93492

>  <SCORE.INTRA.norm>
-0.328002

>  <SCORE.RESTR>
0

>  <SCORE.RESTR.CAVITY>
0

>  <SCORE.RESTR.norm>
0

>  <SCORE.SYSTEM>
0

>  <SCORE.SYSTEM.CONST>
0

>  <SCORE.SYSTEM.DIHEDRAL>
0

>  <SCORE.SYSTEM.SOLV>
0

>  <SCORE.SYSTEM.norm>
0

>  <SCORE.heavy>
37

>  <SCORE.norm>
-1.19383

>  <RMSD>
1.484

$$$$
lig.pdb
 OpenBabel11021811453D
libRbt.so/2013.1/901 2013/11/27
 37 40  0  0  0  0  0  0  0  0999 V2000
   -2.1170    7.3713    9.2532 C   0  0  2  0  0  0  0  0  0  0  0  0
   -2.3279    6.7953   10.6923 C   0  0  1  0  0  0  0  0  0  0  0  0
   -0.9940    6.5184   11.4459 C   0  0  0  0  0  0  0  0  0  0  0  0
   -0.0089    5.7167   10.5594 C   0  0  1  0  0  0  0  0  0  0  0  0
    0.2239    6.4610    9.2256 C   0  0  1  0  0  0  0  0  0  0  0  0
    1.2447    5.7025    8.3355 C   0  0  1  0  0  0  0  0  0  0  0  0
    2.5638    5.4248    9.1162 C   0  0  1  0  0  0  0  0  0  0  0  0
    2.2952    4.7490   10.4936 C   0  0  2  0  0  0  0  0  0  0  0  0
    4.8878    4.9729    8.4769 C   0  0  0  0  0  0  0  0  0  0  0  0
   -1.0424    6.6785    8.5390 O   0  0  0  0  0  0  0  0  0  0  0  0
    1.2515    5.4485   11.2387 O   0  0  0  0  0  0  0  0  0  0  0  0
   -3.1622    7.7244   11.4848 N   0  0  0  0  0  0  0  0  0  0  0  0
    3.4672    4.6177    8.2703 N   0  0  0  0  0  0  0  0  0  0  0  0
    0.6877    4.4999    7.8208 O   0  0  0  0  0  0  0  0  0  0  0  0
    3.5281    4.6603   11.2660 O   0  0  0  0  0  0  0  0  0  0  0  0
   -1.8601    8.8083    9.2923 O   0  0  0  0  0  0  0  0  0  0  0  0
    3.5989    3.6913   12.3568 C   0  0  2  0  0  0  0  0  0  0  0  0
    4.7806    4.0154   13.3145 C   0  0  1  0  0  0  0  0  0  0  0  0
    6.1568    3.7277   12.6487 C   0  0  2  0  0  0  0  0  0  0  0  0
    6.2145    2.2797   12.0813 C   0  0  1  0  0  0  0  0  0  0  0  0
    4.9987    1.9869   11.1585 C   0  0  1  0  0  0  0  0  0  0  0  0
    4.9688    0.5070   10.6944 C   0  0  0  0  0  0  0  0  0  0  0  0
    3.7521    2.3386   11.8321 O   0  0  0  0  0  0  0  0  0  0  0  0
    7.4946    2.0223   11.3859 N   0  0  0  0  0  0  0  0  0  0  0  0
    4.6911    5.3595   13.7835 O   0  0  0  0  0  0  0  0  0  0  0  0
    7.2287    3.9665   13.5583 O   0  0  0  0  0  0  0  0  0  0  0  0
    6.2147    0.1316   10.1163 O   0  0  0  0  0  0  0  0  0  0  0  0
   -2.1496    9.5810    8.0910 C   0  0  1  0  0  0  0  0  0  0  0  0
   -2.9583   10.8698    8.4093 C   0  0  1  0  0  0  0  0  0  0  0  0
   -3.3396   11.6280    7.1067 C   0  0  2  0  0  0  0  0  0  0  0  0
   -2.0974   11.9289    6.2065 C   0  0  1  0  0  0  0  0  0  0  0  0
   -1.1939   10.6795    5.9820 C   0  0  0  0  0  0  0  0  0  0  0  0
   -0.8533    9.9377    7.3096 C   0  0  2  0  0  0  0  0  0  0  0  0
   -2.5145   12.5163    4.9153 N   0  0  0  0  0  0  0  0  0  0  0  0
   -0.0401    8.7404    7.0055 N   0  0  0  0  0  0  0  0  0  0  0  0
   -4.1195   10.5634    9.1745 O   0  0  0  0  0  0  0  0  0  0  0  0
   -4.0336   12.8336    7.4174 O   0  0  0  0  0  0  0  0  0  0  0  0
  1  2  1  0  0  0  0
  1 16  1  1  0  0  0
  2  3  1  0  0  0  0
  2 12  1  1  0  0  0
  4 11  1  1  0  0  0
  4  3  1  0  0  0  0
  5  4  1  0  0  0  0
  5 10  1  6  0  0  0
  6  7  1  0  0  0  0
  6  5  1  0  0  0  0
  6 14  1  1  0  0  0
  7  8  1  0  0  0  0
  7 13  1  6  0  0  0
  8 15  1  1  0  0  0
  8 11  1  0  0  0  0
  9 13  1  0  0  0  0
 10  1  1  0  0  0  0
 17 15  1  6  0  0  0
 17 18  1  0  0  0  0
 18 25  1  6  0  0  0
 19 18  1  0  0  0  0
 19 26  1  1  0  0  0
 20 19  1  0  0  0  0
 20 24  1  6  0  0  0
 21 23  1  0  0  0  0
 21 20  1  0  0  0  0
 21 22  1  1  0  0  0
 23 17  1  0  0  0  0
 27 22  1  0  0  0  0
 28 29  1  0  0  0  0
 28 16  1  1  0  0  0
 29 36  1  6  0  0  0
 30 37  1  1  0  0  0
 30 29  1  0  0  0  0
 31 30  1  0  0  0  0
 31 34  1  6  0  0  0
 32 31  1  0  0  0  0
 32 33  1  0  0  0  0
 33 28  1  0  0  0  0
 33 35  1  6  0  0  0
M  END
>  <CHROM.1>
43.59832481,-159.86646989,145.02564068,47.32545179,-163.17897797,-156.78323566
-177.70784448,-173.89203922,-52.62800952,-44.34178426,-71.43144208,132.60985677
65.28081238,63.88398539,64.99681420,126.44819401,1.25397029,6.35511686,9.73957932
2.55908455,0.62342825,-1.20065568

>  <Name>
lig.pdb

>  <RI>
0

>  <Rbt.Current_Directory>
/home/itssahil/PROJECTS/Mol_Feturizer/New_Systems/rnas/2m4q

>  <Rbt.Executable>
rbdock ($Id: //depot/dev/client3/rdock/2013.1/src/exe/rbdock.cxx#4 $)

>  <Rbt.Library>
libRbt.so (2013.1, Build901 2013/11/27)

>  <Rbt.Parameter_File>
/export/apps/rDock/src/rDock_2013.1_src/data/scripts/dock_solv.prm

>  <Rbt.Receptor>
prm/pocket_docking_3.prm

>  <SCORE>
-39.5899

>  <SCORE.INTER>
-23.3826

>  <SCORE.INTER.CONST>
1

>  <SCORE.INTER.POLAR>
-3.05615

>  <SCORE.INTER.ROT>
10

>  <SCORE.INTER.SOLV>
16.5358

>  <SCORE.INTER.VDW>
-21.1799

>  <SCORE.INTER.norm>
-0.631962

>  <SCORE.INTRA>
-16.3178

>  <SCORE.INTRA.DIHEDRAL>
-26.0622

>  <SCORE.INTRA.DIHEDRAL.0>
44.8331

>  <SCORE.INTRA.POLAR>
-0.783489

>  <SCORE.INTRA.POLAR.0>
-0.108895

>  <SCORE.INTRA.REPUL>
-0.00694382

>  <SCORE.INTRA.REPUL.0>
0.00912235

>  <SCORE.INTRA.SOLV>
-0.458857

>  <SCORE.INTRA.SOLV.lig_0>
-53.9067

>  <SCORE.INTRA.VDW>
-0.35867

>  <SCORE.INTRA.VDW.0>
-2.93492

>  <SCORE.INTRA.norm>
-0.44102

>  <SCORE.RESTR>
0.110486

>  <SCORE.RESTR.CAVITY>
0.110486

>  <SCORE.RESTR.norm>
0.0029861

>  <SCORE.SYSTEM>
0

>  <SCORE.SYSTEM.CONST>
0

>  <SCORE.SYSTEM.DIHEDRAL>
0

>  <SCORE.SYSTEM.SOLV>
0

>  <SCORE.SYSTEM.norm>
0

>  <SCORE.heavy>
37

>  <SCORE.norm>
-1.07

>  <RMSD>
1.490

$$$$
lig.pdb
 OpenBabel11021811453D
libRbt.so/2013.1/901 2013/11/27
 37 40  0  0  0  0  0  0  0  0999 V2000
   -3.0935    8.1856   10.8877 C   0  0  2  0  0  0  0  0  0  0  0  0
   -2.9567    7.8780   12.4153 C   0  0  1  0  0  0  0  0  0  0  0  0
   -1.4915    7.5909   12.8565 C   0  0  0  0  0  0  0  0  0  0  0  0
   -0.8196    6.5567   11.9194 C   0  0  1  0  0  0  0  0  0  0  0  0
   -0.8980    7.0443   10.4554 C   0  0  1  0  0  0  0  0  0  0  0  0
   -0.1901    6.0483    9.4980 C   0  0  1  0  0  0  0  0  0  0  0  0
    1.2679    5.7664    9.9688 C   0  0  1  0  0  0  0  0  0  0  0  0
    1.3271    5.3568   11.4705 C   0  0  2  0  0  0  0  0  0  0  0  0
    2.6786    5.3432    8.0080 C   0  0  0  0  0  0  0  0  0  0  0  0
   -2.2841    7.2772   10.0724 O   0  0  0  0  0  0  0  0  0  0  0  0
    0.5559    6.2736   12.3063 O   0  0  0  0  0  0  0  0  0  0  0  0
   -3.5002    9.0060   13.2025 N   0  0  0  0  0  0  0  0  0  0  0  0
    1.8712    4.7420    9.0914 N   0  0  0  0  0  0  0  0  0  0  0  0
   -0.9315    4.8422    9.3671 O   0  0  0  0  0  0  0  0  0  0  0  0
    2.7109    5.2679   11.9195 O   0  0  0  0  0  0  0  0  0  0  0  0
   -2.7510    9.5749   10.5962 O   0  0  0  0  0  0  0  0  0  0  0  0
    3.0099    4.4615   13.1003 C   0  0  2  0  0  0  0  0  0  0  0  0
    4.2274    5.0396   13.8763 C   0  0  1  0  0  0  0  0  0  0  0  0
    5.5583    4.8290   13.0990 C   0  0  2  0  0  0  0  0  0  0  0  0
    5.7456    3.3365   12.6998 C   0  0  1  0  0  0  0  0  0  0  0  0
    4.4939    2.7898   11.9584 C   0  0  1  0  0  0  0  0  0  0  0  0
    4.6088    1.2691   11.6748 C   0  0  0  0  0  0  0  0  0  0  0  0
    3.2835    3.0793   12.7217 O   0  0  0  0  0  0  0  0  0  0  0  0
    6.9750    3.1409   11.9005 N   0  0  0  0  0  0  0  0  0  0  0  0
    4.0125    6.4135   14.1938 O   0  0  0  0  0  0  0  0  0  0  0  0
    6.6737    5.3042   13.8496 O   0  0  0  0  0  0  0  0  0  0  0  0
    5.0461    0.5684   12.8346 O   0  0  0  0  0  0  0  0  0  0  0  0
   -3.3444   10.1849    9.4131 C   0  0  1  0  0  0  0  0  0  0  0  0
   -3.7378   11.6685    9.6589 C   0  0  1  0  0  0  0  0  0  0  0  0
   -4.4558   12.2707    8.4183 C   0  0  2  0  0  0  0  0  0  0  0  0
   -3.6234   12.0998    7.1062 C   0  0  1  0  0  0  0  0  0  0  0  0
   -3.1012   10.6458    6.9038 C   0  0  0  0  0  0  0  0  0  0  0  0
   -2.4077   10.0736    8.1768 C   0  0  2  0  0  0  0  0  0  0  0  0
   -4.3984   12.5497    5.9302 N   0  0  0  0  0  0  0  0  0  0  0  0
   -1.9893    8.6785    7.9199 N   0  0  0  0  0  0  0  0  0  0  0  0
   -4.5495   11.7915   10.8223 O   0  0  0  0  0  0  0  0  0  0  0  0
   -4.7621   13.6452    8.6389 O   0  0  0  0  0  0  0  0  0  0  0  0
  1  2  1  0  0  0  0
  1 16  1  1  0  0  0
  2  3  1  0  0  0  0
  2 12  1  1  0  0  0
  4 11  1  1  0  0  0
  4  3  1  0  0  0  0
  5  4  1  0  0  0  0
  5 10  1  6  0  0  0
  6  7  1  0  0  0  0
  6  5  1  0  0  0  0
  6 14  1  1  0  0  0
  7  8  1  0  0  0  0
  7 13  1  6  0  0  0
  8 15  1  1  0  0  0
  8 11  1  0  0  0  0
  9 13  1  0  0  0  0
 10  1  1  0  0  0  0
 17 15  1  6  0  0  0
 17 18  1  0  0  0  0
 18 25  1  6  0  0  0
 19 18  1  0  0  0  0
 19 26  1  1  0  0  0
 20 19  1  0  0  0  0
 20 24  1  6  0  0  0
 21 23  1  0  0  0  0
 21 20  1  0  0  0  0
 21 22  1  1  0  0  0
 23 17  1  0  0  0  0
 27 22  1  0  0  0  0
 28 29  1  0  0  0  0
 28 16  1  1  0  0  0
 29 36  1  1  0  0  0
 30 37  1  1  0  0  0
 30 29  1  0  0  0  0
 31 30  1  0  0  0  0
 31 34  1  6  0  0  0
 32 31  1  0  0  0  0
 32 33  1  0  0  0  0
 33 28  1  0  0  0  0
 33 35  1  6  0  0  0
M  END
>  <CHROM.1>
167.40413243,-158.37999683,96.07037995,131.04318249,-148.99953674,-154.10701292
62.89431652,-59.34803330,46.62700451,175.73188314,-173.31161082,141.57346331
178.91383350,-91.80658906,179.66189366,-175.71049057,0.25709033,7.03555227
10.79459975,2.88885647,0.74777455,-1.65657430

>  <Name>
lig.pdb

>  <RI>
0

>  <Rbt.Current_Directory>
/home/itssahil/PROJECTS/Mol_Feturizer/New_Systems/rnas/2m4q

>  <Rbt.Executable>
rbdock ($Id: //depot/dev/client3/rdock/2013.1/src/exe/rbdock.cxx#4 $)

>  <Rbt.Library>
libRbt.so (2013.1, Build901 2013/11/27)

>  <Rbt.Parameter_File>
/export/apps/rDock/src/rDock_2013.1_src/data/scripts/dock_solv.prm

>  <Rbt.Receptor>
prm/pocket_docking_6.prm

>  <SCORE>
-42.7403

>  <SCORE.INTER>
-32.6218

>  <SCORE.INTER.CONST>
1

>  <SCORE.INTER.POLAR>
-5.19076

>  <SCORE.INTER.ROT>
10

>  <SCORE.INTER.SOLV>
15.1804

>  <SCORE.INTER.VDW>
-19.7721

>  <SCORE.INTER.norm>
-0.88167

>  <SCORE.INTRA>
-10.1185

>  <SCORE.INTRA.DIHEDRAL>
-17.3067

>  <SCORE.INTRA.DIHEDRAL.0>
44.8331

>  <SCORE.INTRA.POLAR>
0.108895

>  <SCORE.INTRA.POLAR.0>
-0.108895

>  <SCORE.INTRA.REPUL>
-0.00912235

>  <SCORE.INTRA.REPUL.0>
0.00912235

>  <SCORE.INTRA.SOLV>
-1.07363

>  <SCORE.INTRA.SOLV.lig_0>
-53.9067

>  <SCORE.INTRA.VDW>
-1.25298

>  <SCORE.INTRA.VDW.0>
-2.93492

>  <SCORE.INTRA.norm>
-0.273474

>  <SCORE.RESTR>
0

>  <SCORE.RESTR.CAVITY>
0

>  <SCORE.RESTR.norm>
0

>  <SCORE.SYSTEM>
0

>  <SCORE.SYSTEM.CONST>
0

>  <SCORE.SYSTEM.DIHEDRAL>
0

>  <SCORE.SYSTEM.SOLV>
0

>  <SCORE.SYSTEM.norm>
0

>  <SCORE.heavy>
37

>  <SCORE.norm>
-1.15514

>  <RMSD>
1.497

$$$$
lig.pdb
 OpenBabel11021811453D
libRbt.so/2013.1/901 2013/11/27
 37 40  0  0  0  0  0  0  0  0999 V2000
   -2.2987    7.8612    9.0914 C   0  0  2  0  0  0  0  0  0  0  0  0
   -2.4791    7.1024   10.4474 C   0  0  1  0  0  0  0  0  0  0  0  0
   -1.1298    6.6989   11.1111 C   0  0  0  0  0  0  0  0  0  0  0  0
   -0.1939    6.0022   10.0924 C   0  0  1  0  0  0  0  0  0  0  0  0
    0.0161    6.9132    8.8622 C   0  0  1  0  0  0  0  0  0  0  0  0
    0.9887    6.2591    7.8445 C   0  0  1  0  0  0  0  0  0  0  0  0
    2.3241    5.8514    8.5354 C   0  0  1  0  0  0  0  0  0  0  0  0
    2.0815    5.0033    9.8191 C   0  0  2  0  0  0  0  0  0  0  0  0
    4.6188    5.3474    7.8324 C   0  0  0  0  0  0  0  0  0  0  0  0
   -1.2650    7.2475    8.2547 O   0  0  0  0  0  0  0  0  0  0  0  0
    1.0799    5.6188   10.6861 O   0  0  0  0  0  0  0  0  0  0  0  0
   -3.2641    7.9346   11.3848 N   0  0  0  0  0  0  0  0  0  0  0  0
    3.1795    5.1457    7.5590 N   0  0  0  0  0  0  0  0  0  0  0  0
    0.3852    5.1482    7.1939 O   0  0  0  0  0  0  0  0  0  0  0  0
    3.3353    4.7859   10.5299 O   0  0  0  0  0  0  0  0  0  0  0  0
   -2.0038    9.2742    9.3124 O   0  0  0  0  0  0  0  0  0  0  0  0
    3.2886    4.5610   11.9725 C   0  0  2  0  0  0  0  0  0  0  0  0
    4.4813    5.2604   12.6845 C   0  0  1  0  0  0  0  0  0  0  0  0
    5.8317    4.5527   12.3753 C   0  0  2  0  0  0  0  0  0  0  0  0
    5.7504    3.0290   12.6815 C   0  0  1  0  0  0  0  0  0  0  0  0
    4.5264    2.3774   11.9796 C   0  0  1  0  0  0  0  0  0  0  0  0
    4.3531    0.8898   12.3838 C   0  0  0  0  0  0  0  0  0  0  0  0
    3.3114    3.1329   12.2700 O   0  0  0  0  0  0  0  0  0  0  0  0
    7.0088    2.3380   12.3244 N   0  0  0  0  0  0  0  0  0  0  0  0
    4.5220    6.6462   12.3492 O   0  0  0  0  0  0  0  0  0  0  0  0
    6.9073    5.1630   13.0851 O   0  0  0  0  0  0  0  0  0  0  0  0
    3.0354    0.4354   12.0929 O   0  0  0  0  0  0  0  0  0  0  0  0
   -2.9596   10.2524    8.8087 C   0  0  1  0  0  0  0  0  0  0  0  0
   -3.0145   11.5245    9.7003 C   0  0  1  0  0  0  0  0  0  0  0  0
   -4.1074   12.5114    9.2017 C   0  0  2  0  0  0  0  0  0  0  0  0
   -3.9427   12.8689    7.6888 C   0  0  1  0  0  0  0  0  0  0  0  0
   -3.7501   11.6135    6.7861 C   0  0  0  0  0  0  0  0  0  0  0  0
   -2.6615   10.6414    7.3328 C   0  0  2  0  0  0  0  0  0  0  0  0
   -5.0788   13.6884    7.2160 N   0  0  0  0  0  0  0  0  0  0  0  0
   -2.5774    9.4566    6.4516 N   0  0  0  0  0  0  0  0  0  0  0  0
   -3.2302   11.1781   11.0645 O   0  0  0  0  0  0  0  0  0  0  0  0
   -4.1092   13.6949    9.9961 O   0  0  0  0  0  0  0  0  0  0  0  0
  1  2  1  0  0  0  0
  1 16  1  1  0  0  0
  2  3  1  0  0  0  0
  2 12  1  1  0  0  0
  4 11  1  1  0  0  0
  4  3  1  0  0  0  0
  5  4  1  0  0  0  0
  5 10  1  6  0  0  0
  6  7  1  0  0  0  0
  6  5  1  0  0  0  0
  6 14  1  1  0  0  0
  7  8  1  0  0  0  0
  7 13  1  6  0  0  0
  8 15  1  1  0  0  0
  8 11  1  0  0  0  0
  9 13  1  0  0  0  0
 10  1  1  0  0  0  0
 17 15  1  6  0  0  0
 17 18  1  0  0  0  0
 18 25  1  6  0  0  0
 19 18  1  0  0  0  0
 19 26  1  1  0  0  0
 20 19  1  0  0  0  0
 20 24  1  6  0  0  0
 21 23  1  0  0  0  0
 21 20  1  0  0  0  0
 21 22  1  1  0  0  0
 23 17  1  0  0  0  0
 27 22  1  0  0  0  0
 28 29  1  0  0  0  0
 28 16  1  1  0  0  0
 29 36  1  1  0  0  0
 30 37  1  1  0  0  0
 30 29  1  0  0  0  0
 31 30  1  0  0  0  0
 31 34  1  6  0  0  0
 32 31  1  0  0  0  0
 32 33  1  0  0  0  0
 33 28  1  0  0  0  0
 33 35  1  6  0  0  0
M  END
>  <CHROM.1>
154.66284645,153.36389085,149.88933898,-62.30052077,-141.81239467,-117.52514146
67.61369093,-176.18883532,161.47328757,-176.93584782,62.90398532,148.17250012
59.38078563,-68.31794718,104.32507974,-49.74495849,0.63922244,6.95905863
9.99407439,3.06361208,-0.79977599,1.08364294

>  <Name>
lig.pdb

>  <RI>
0

>  <Rbt.Current_Directory>
/home/itssahil/PROJECTS/Mol_Feturizer/New_Systems/rnas/2m4q

>  <Rbt.Executable>
rbdock ($Id: //depot/dev/client3/rdock/2013.1/src/exe/rbdock.cxx#4 $)

>  <Rbt.Library>
libRbt.so (2013.1, Build901 2013/11/27)

>  <Rbt.Parameter_File>
/export/apps/rDock/src/rDock_2013.1_src/data/scripts/dock_solv.prm

>  <Rbt.Receptor>
prm/pocket_docking_3.prm

>  <SCORE>
-47.5118

>  <SCORE.INTER>
-34.4715

>  <SCORE.INTER.CONST>
1

>  <SCORE.INTER.POLAR>
-4.9033

>  <SCORE.INTER.ROT>
10

>  <SCORE.INTER.SOLV>
16.9275

>  <SCORE.INTER.VDW>
-22.5458

>  <SCORE.INTER.norm>
-0.931661

>  <SCORE.INTRA>
-13.5052

>  <SCORE.INTRA.DIHEDRAL>
-19.2299

>  <SCORE.INTRA.DIHEDRAL.0>
44.8331

>  <SCORE.INTRA.POLAR>
-0.871006

>  <SCORE.INTRA.POLAR.0>
-0.108895

>  <SCORE.INTRA.REPUL>
-0.00912235

>  <SCORE.INTRA.REPUL.0>
0.00912235

>  <SCORE.INTRA.SOLV>
-1.68786

>  <SCORE.INTRA.SOLV.lig_0>
-53.9067

>  <SCORE.INTRA.VDW>
-0.0392236

>  <SCORE.INTRA.VDW.0>
-2.93492

>  <SCORE.INTRA.norm>
-0.365004

>  <SCORE.RESTR>
0.464861

>  <SCORE.RESTR.CAVITY>
0.464861

>  <SCORE.RESTR.norm>
0.0125638

>  <SCORE.SYSTEM>
0

>  <SCORE.SYSTEM.CONST>
0

>  <SCORE.SYSTEM.DIHEDRAL>
0

>  <SCORE.SYSTEM.SOLV>
0

>  <SCORE.SYSTEM.norm>
0

>  <SCORE.heavy>
37

>  <SCORE.norm>
-1.2841

>  <RMSD>
1.538

$$$$
lig.pdb
 OpenBabel11021811453D
libRbt.so/2013.1/901 2013/11/27
 37 40  0  0  0  0  0  0  0  0999 V2000
   -2.3033    7.2809    9.7136 C   0  0  2  0  0  0  0  0  0  0  0  0
   -2.3735    6.7520   11.1842 C   0  0  1  0  0  0  0  0  0  0  0  0
   -0.9727    6.5030   11.8161 C   0  0  0  0  0  0  0  0  0  0  0  0
   -0.0720    5.6746   10.8666 C   0  0  1  0  0  0  0  0  0  0  0  0
    0.0292    6.3751    9.4931 C   0  0  1  0  0  0  0  0  0  0  0  0
    0.9648    5.5899    8.5352 C   0  0  1  0  0  0  0  0  0  0  0  0
    2.3535    5.3409    9.1956 C   0  0  1  0  0  0  0  0  0  0  0  0
    2.2204    4.7102   10.6136 C   0  0  2  0  0  0  0  0  0  0  0  0
    4.1731    5.3100    7.5518 C   0  0  0  0  0  0  0  0  0  0  0  0
   -1.2977    6.5672    8.9234 O   0  0  0  0  0  0  0  0  0  0  0  0
    1.2486    5.4316   11.4313 O   0  0  0  0  0  0  0  0  0  0  0  0
   -3.1337    7.7049   12.0218 N   0  0  0  0  0  0  0  0  0  0  0  0
    3.1767    4.5082    8.2944 N   0  0  0  0  0  0  0  0  0  0  0  0
    0.3678    4.3698    8.1152 O   0  0  0  0  0  0  0  0  0  0  0  0
    3.5216    4.6496   11.2677 O   0  0  0  0  0  0  0  0  0  0  0  0
   -2.0514    8.7189    9.6813 O   0  0  0  0  0  0  0  0  0  0  0  0
    3.6003    4.0816   12.6112 C   0  0  2  0  0  0  0  0  0  0  0  0
    4.9932    4.3497   13.2489 C   0  0  1  0  0  0  0  0  0  0  0  0
    6.1100    3.5083   12.5673 C   0  0  2  0  0  0  0  0  0  0  0  0
    5.7363    1.9979   12.5374 C   0  0  1  0  0  0  0  0  0  0  0  0
    4.3247    1.7784   11.9253 C   0  0  1  0  0  0  0  0  0  0  0  0
    3.8813    0.2944   12.0130 C   0  0  0  0  0  0  0  0  0  0  0  0
    3.3471    2.6453   12.5766 O   0  0  0  0  0  0  0  0  0  0  0  0
    6.7619    1.2011   11.8290 N   0  0  0  0  0  0  0  0  0  0  0  0
    5.2942    5.7438   13.2272 O   0  0  0  0  0  0  0  0  0  0  0  0
    7.3699    3.7135   13.2029 O   0  0  0  0  0  0  0  0  0  0  0  0
    3.8219   -0.1379   13.3684 O   0  0  0  0  0  0  0  0  0  0  0  0
   -2.9486    9.5459    8.8845 C   0  0  1  0  0  0  0  0  0  0  0  0
   -3.3940   10.8241    9.6488 C   0  0  1  0  0  0  0  0  0  0  0  0
   -4.4247   11.6417    8.8204 C   0  0  2  0  0  0  0  0  0  0  0  0
   -3.9054   11.9749    7.3840 C   0  0  1  0  0  0  0  0  0  0  0  0
   -3.3275   10.7314    6.6440 C   0  0  0  0  0  0  0  0  0  0  0  0
   -2.3156    9.9293    7.5167 C   0  0  2  0  0  0  0  0  0  0  0  0
   -4.9641   12.6216    6.5796 N   0  0  0  0  0  0  0  0  0  0  0  0
   -1.8556    8.7419    6.7645 N   0  0  0  0  0  0  0  0  0  0  0  0
   -3.9236   10.4908   10.9279 O   0  0  0  0  0  0  0  0  0  0  0  0
   -4.7826   12.8364    9.5105 O   0  0  0  0  0  0  0  0  0  0  0  0
  1  2  1  0  0  0  0
  1 16  1  1  0  0  0
  2  3  1  0  0  0  0
  2 12  1  1  0  0  0
  4 11  1  1  0  0  0
  4  3  1  0  0  0  0
  5  4  1  0  0  0  0
  5 10  1  6  0  0  0
  6  7  1  0  0  0  0
  6  5  1  0  0  0  0
  6 14  1  1  0  0  0
  7  8  1  0  0  0  0
  7 13  1  6  0  0  0
  8 15  1  1  0  0  0
  8 11  1  0  0  0  0
  9 13  1  0  0  0  0
 10  1  1  0  0  0  0
 17 15  1  6  0  0  0
 17 18  1  0  0  0  0
 18 25  1  6  0  0  0
 19 18  1  0  0  0  0
 19 26  1  1  0  0  0
 20 19  1  0  0  0  0
 20 24  1  6  0  0  0
 21 23  1  0  0  0  0
 21 20  1  0  0  0  0
 21 22  1  1  0  0  0
 23 17  1  0  0  0  0
 27 22  1  0  0  0  0
 28 29  1  0  0  0  0
 28 16  1  1  0  0  0
 29 36  1  1  0  0  0
 30 37  1  1  0  0  0
 30 29  1  0  0  0  0
 31 30  1  0  0  0  0
 31 34  1  6  0  0  0
 32 31  1  0  0  0  0
 32 33  1  0  0  0  0
 33 28  1  0  0  0  0
 33 35  1  6  0  0  0
M  END
>  <CHROM.1>
-29.77919625,-179.79760410,101.71040359,55.13724735,-168.98942074,-128.16989816
172.51881993,-63.83884443,60.51765199,-57.48458172,57.33868966,134.49501069
-174.94709380,-165.76143256,54.35767077,170.30129498,0.70233425,6.31856157
10.30674469,2.72997250,0.69925464,-1.39983270

>  <Name>
lig.pdb

>  <RI>
3.60165e+07

>  <Rbt.Current_Directory>
/home/itssahil/PROJECTS/Mol_Feturizer/New_Systems/rnas/2m4q

>  <Rbt.Executable>
rbdock ($Id: //depot/dev/client3/rdock/2013.1/src/exe/rbdock.cxx#4 $)

>  <Rbt.Library>
libRbt.so (2013.1, Build901 2013/11/27)

>  <Rbt.Parameter_File>
/export/apps/rDock/src/rDock_2013.1_src/data/scripts/dock_solv.prm

>  <Rbt.Receptor>
prm/pocket_docking_8.prm

>  <SCORE>
-44.2813

>  <SCORE.INTER>
-27.3982

>  <SCORE.INTER.CONST>
1

>  <SCORE.INTER.POLAR>
-3.14746

>  <SCORE.INTER.ROT>
10

>  <SCORE.INTER.SOLV>
18.0395

>  <SCORE.INTER.VDW>
-24.0538

>  <SCORE.INTER.norm>
-0.740493

>  <SCORE.INTRA>
-16.883

>  <SCORE.INTRA.DIHEDRAL>
-25.7937

>  <SCORE.INTRA.DIHEDRAL.0>
44.8331

>  <SCORE.INTRA.POLAR>
-0.967458

>  <SCORE.INTRA.POLAR.0>
-0.108895

>  <SCORE.INTRA.REPUL>
-0.00912235

>  <SCORE.INTRA.REPUL.0>
0.00912235

>  <SCORE.INTRA.SOLV>
-0.912968

>  <SCORE.INTRA.SOLV.lig_0>
-53.9067

>  <SCORE.INTRA.VDW>
-0.194732

>  <SCORE.INTRA.VDW.0>
-2.93492

>  <SCORE.INTRA.norm>
-0.456298

>  <SCORE.RESTR>
0

>  <SCORE.RESTR.CAVITY>
0

>  <SCORE.RESTR.norm>
0

>  <SCORE.SYSTEM>
0

>  <SCORE.SYSTEM.CONST>
0

>  <SCORE.SYSTEM.DIHEDRAL>
0

>  <SCORE.SYSTEM.SOLV>
0

>  <SCORE.SYSTEM.norm>
0

>  <SCORE.heavy>
37

>  <SCORE.norm>
-1.19679

>  <RMSD>
1.566

$$$$
lig.pdb
 OpenBabel11021811453D
libRbt.so/2013.1/901 2013/11/27
 37 40  0  0  0  0  0  0  0  0999 V2000
   -1.8654    7.2602    8.8644 C   0  0  2  0  0  0  0  0  0  0  0  0
   -2.1269    6.7521   10.3206 C   0  0  1  0  0  0  0  0  0  0  0  0
   -0.8201    6.5007   11.1286 C   0  0  0  0  0  0  0  0  0  0  0  0
    0.1859    5.6523   10.3118 C   0  0  1  0  0  0  0  0  0  0  0  0
    0.4674    6.3331    8.9536 C   0  0  1  0  0  0  0  0  0  0  0  0
    1.5096    5.5275    8.1323 C   0  0  1  0  0  0  0  0  0  0  0  0
    2.8007    5.2766    8.9669 C   0  0  1  0  0  0  0  0  0  0  0  0
    2.4826    4.6665   10.3644 C   0  0  2  0  0  0  0  0  0  0  0  0
    4.5834    5.2190    7.2840 C   0  0  0  0  0  0  0  0  0  0  0  0
   -0.7745    6.5279    8.2174 O   0  0  0  0  0  0  0  0  0  0  0  0
    1.4217    5.4067   11.0428 O   0  0  0  0  0  0  0  0  0  0  0  0
   -2.9781    7.7224   11.0428 N   0  0  0  0  0  0  0  0  0  0  0  0
    3.7236    4.4252    8.1882 N   0  0  0  0  0  0  0  0  0  0  0  0
    0.9590    4.3065    7.6552 O   0  0  0  0  0  0  0  0  0  0  0  0
    3.6895    4.6046   11.1793 O   0  0  0  0  0  0  0  0  0  0  0  0
   -1.5976    8.6956    8.8462 O   0  0  0  0  0  0  0  0  0  0  0  0
    3.6481    3.8504   12.4297 C   0  0  2  0  0  0  0  0  0  0  0  0
    4.8767    4.1844   13.3228 C   0  0  1  0  0  0  0  0  0  0  0  0
    6.1925    3.5998   12.7339 C   0  0  2  0  0  0  0  0  0  0  0  0
    6.0498    2.0779   12.4417 C   0  0  1  0  0  0  0  0  0  0  0  0
    4.7921    1.7854   11.5768 C   0  0  1  0  0  0  0  0  0  0  0  0
    4.5598    0.2629   11.3913 C   0  0  0  0  0  0  0  0  0  0  0  0
    3.6133    2.4165   12.1630 O   0  0  0  0  0  0  0  0  0  0  0  0
    7.2739    1.5302   11.8173 N   0  0  0  0  0  0  0  0  0  0  0  0
    4.9728    5.5913   13.5370 O   0  0  0  0  0  0  0  0  0  0  0  0
    7.3003    3.8563   13.5944 O   0  0  0  0  0  0  0  0  0  0  0  0
    3.9974   -0.3113   12.5666 O   0  0  0  0  0  0  0  0  0  0  0  0
   -2.4821    9.5396    8.0529 C   0  0  1  0  0  0  0  0  0  0  0  0
   -2.7790   10.8937    8.7560 C   0  0  1  0  0  0  0  0  0  0  0  0
   -3.7991   11.7369    7.9400 C   0  0  2  0  0  0  0  0  0  0  0  0
   -3.3536   11.9385    6.4551 C   0  0  1  0  0  0  0  0  0  0  0  0
   -2.9206   10.6099    5.7658 C   0  0  0  0  0  0  0  0  0  0  0  0
   -1.9152    9.7864    6.6259 C   0  0  2  0  0  0  0  0  0  0  0  0
   -4.4127   12.6152    5.6764 N   0  0  0  0  0  0  0  0  0  0  0  0
   -1.5962    8.5221    5.9279 N   0  0  0  0  0  0  0  0  0  0  0  0
   -3.2452   10.6832   10.0848 O   0  0  0  0  0  0  0  0  0  0  0  0
   -4.0201   12.9965    8.5694 O   0  0  0  0  0  0  0  0  0  0  0  0
  1  2  1  0  0  0  0
  1 16  1  1  0  0  0
  2  3  1  0  0  0  0
  2 12  1  1  0  0  0
  4 11  1  1  0  0  0
  4  3  1  0  0  0  0
  5  4  1  0  0  0  0
  5 10  1  6  0  0  0
  6  7  1  0  0  0  0
  6  5  1  0  0  0  0
  6 14  1  1  0  0  0
  7  8  1  0  0  0  0
  7 13  1  6  0  0  0
  8 15  1  1  0  0  0
  8 11  1  0  0  0  0
  9 13  1  0  0  0  0
 10  1  1  0  0  0  0
 17 15  1  6  0  0  0
 17 18  1  0  0  0  0
 18 25  1  6  0  0  0
 19 18  1  0  0  0  0
 19 26  1  1  0  0  0
 20 19  1  0  0  0  0
 20 24  1  6  0  0  0
 21 23  1  0  0  0  0
 21 20  1  0  0  0  0
 21 22  1  1  0  0  0
 23 17  1  0  0  0  0
 27 22  1  0  0  0  0
 28 29  1  0  0  0  0
 28 16  1  1  0  0  0
 29 36  1  1  0  0  0
 30 37  1  1  0  0  0
 30 29  1  0  0  0  0
 31 30  1  0  0  0  0
 31 34  1  6  0  0  0
 32 31  1  0  0  0  0
 32 33  1  0  0  0  0
 33 28  1  0  0  0  0
 33 35  1  6  0  0  0
M  END
>  <CHROM.1>
155.90369884,-169.34606414,86.35631162,46.74351546,-165.71359797,-121.01840637
174.35253406,62.43991180,76.90758442,-42.20620580,51.67485515,141.40428481
65.81903351,-169.60390854,-59.43025636,77.87332076,1.05527847,6.28505119
9.80941673,-2.87224594,-0.79703874,1.43759794

>  <Name>
lig.pdb

>  <RI>
3.87352e+07

>  <Rbt.Current_Directory>
/home/itssahil/PROJECTS/Mol_Feturizer/New_Systems/rnas/2m4q

>  <Rbt.Executable>
rbdock ($Id: //depot/dev/client3/rdock/2013.1/src/exe/rbdock.cxx#4 $)

>  <Rbt.Library>
libRbt.so (2013.1, Build901 2013/11/27)

>  <Rbt.Parameter_File>
/export/apps/rDock/src/rDock_2013.1_src/data/scripts/dock_solv.prm

>  <Rbt.Receptor>
prm/pocket_docking_4.prm

>  <SCORE>
-47.2734

>  <SCORE.INTER>
-29.9898

>  <SCORE.INTER.CONST>
1

>  <SCORE.INTER.POLAR>
-3.59918

>  <SCORE.INTER.ROT>
10

>  <SCORE.INTER.SOLV>
17.4394

>  <SCORE.INTER.VDW>
-24.0757

>  <SCORE.INTER.norm>
-0.810536

>  <SCORE.INTRA>
-17.2835

>  <SCORE.INTRA.DIHEDRAL>
-24.7918

>  <SCORE.INTRA.DIHEDRAL.0>
44.8331

>  <SCORE.INTRA.POLAR>
-1.08561

>  <SCORE.INTRA.POLAR.0>
-0.108895

>  <SCORE.INTRA.REPUL>
-0.00912235

>  <SCORE.INTRA.REPUL.0>
0.00912235

>  <SCORE.INTRA.SOLV>
-1.31839

>  <SCORE.INTRA.SOLV.lig_0>
-53.9067

>  <SCORE.INTRA.VDW>
-0.491733

>  <SCORE.INTRA.VDW.0>
-2.93492

>  <SCORE.INTRA.norm>
-0.467123

>  <SCORE.RESTR>
0

>  <SCORE.RESTR.CAVITY>
0

>  <SCORE.RESTR.norm>
0

>  <SCORE.SYSTEM>
0

>  <SCORE.SYSTEM.CONST>
0

>  <SCORE.SYSTEM.DIHEDRAL>
0

>  <SCORE.SYSTEM.SOLV>
0

>  <SCORE.SYSTEM.norm>
0

>  <SCORE.heavy>
37

>  <SCORE.norm>
-1.27766

>  <RMSD>
1.579

$$$$
lig.pdb
 OpenBabel11021811453D
libRbt.so/2013.1/901 2013/11/27
 37 40  0  0  0  0  0  0  0  0999 V2000
   -2.9996    8.3950   11.5438 C   0  0  2  0  0  0  0  0  0  0  0  0
   -2.8372    7.8765   13.0107 C   0  0  1  0  0  0  0  0  0  0  0  0
   -1.3854    7.4263   13.3472 C   0  0  0  0  0  0  0  0  0  0  0  0
   -0.8277    6.4805   12.2548 C   0  0  1  0  0  0  0  0  0  0  0  0
   -0.9156    7.1641   10.8719 C   0  0  1  0  0  0  0  0  0  0  0  0
   -0.3197    6.2560    9.7629 C   0  0  1  0  0  0  0  0  0  0  0  0
    1.1263    5.8074   10.1297 C   0  0  1  0  0  0  0  0  0  0  0  0
    1.2025    5.1973   11.5609 C   0  0  2  0  0  0  0  0  0  0  0  0
    2.1051    5.5708    7.8937 C   0  0  0  0  0  0  0  0  0  0  0  0
   -2.2910    7.5470   10.5826 O   0  0  0  0  0  0  0  0  0  0  0  0
    0.5334    6.0480   12.5418 O   0  0  0  0  0  0  0  0  0  0  0  0
   -3.2646    8.9258   13.9615 N   0  0  0  0  0  0  0  0  0  0  0  0
    1.6184    4.8683    9.1006 N   0  0  0  0  0  0  0  0  0  0  0  0
   -1.1573    5.1359    9.5071 O   0  0  0  0  0  0  0  0  0  0  0  0
    2.5891    4.9479   11.9345 O   0  0  0  0  0  0  0  0  0  0  0  0
   -2.5590    9.7820   11.4224 O   0  0  0  0  0  0  0  0  0  0  0  0
    3.1981    3.6784   11.5454 C   0  0  2  0  0  0  0  0  0  0  0  0
    4.2951    3.2518   12.5619 C   0  0  1  0  0  0  0  0  0  0  0  0
    5.5538    4.1607   12.4659 C   0  0  2  0  0  0  0  0  0  0  0  0
    6.0791    4.2401   11.0031 C   0  0  1  0  0  0  0  0  0  0  0  0
    4.9444    4.6351   10.0172 C   0  0  1  0  0  0  0  0  0  0  0  0
    5.4185    4.5857    8.5410 C   0  0  0  0  0  0  0  0  0  0  0  0
    3.7799    3.7762   10.2111 O   0  0  0  0  0  0  0  0  0  0  0  0
    7.2342    5.1577   10.8925 N   0  0  0  0  0  0  0  0  0  0  0  0
    3.7659    3.2200   13.8862 O   0  0  0  0  0  0  0  0  0  0  0  0
    6.5767    3.7196   13.3561 O   0  0  0  0  0  0  0  0  0  0  0  0
    6.3950    5.5905    8.2881 O   0  0  0  0  0  0  0  0  0  0  0  0
   -3.3011   10.6516   10.5185 C   0  0  1  0  0  0  0  0  0  0  0  0
   -3.3378   12.1209   11.0245 C   0  0  1  0  0  0  0  0  0  0  0  0
   -4.2140   13.0107   10.0984 C   0  0  2  0  0  0  0  0  0  0  0  0
   -3.7774   12.9229    8.5999 C   0  0  1  0  0  0  0  0  0  0  0  0
   -3.6019   11.4563    8.1039 C   0  0  0  0  0  0  0  0  0  0  0  0
   -2.7355   10.5944    9.0710 C   0  0  2  0  0  0  0  0  0  0  0  0
   -4.7202   13.6626    7.7339 N   0  0  0  0  0  0  0  0  0  0  0  0
   -2.6611    9.2094    8.5574 N   0  0  0  0  0  0  0  0  0  0  0  0
   -3.8003   12.1821   12.3698 O   0  0  0  0  0  0  0  0  0  0  0  0
   -4.1945   14.3643   10.5447 O   0  0  0  0  0  0  0  0  0  0  0  0
  1  2  1  0  0  0  0
  1 16  1  1  0  0  0
  2  3  1  0  0  0  0
  2 12  1  1  0  0  0
  4 11  1  1  0  0  0
  4  3  1  0  0  0  0
  5  4  1  0  0  0  0
  5 10  1  6  0  0  0
  6  7  1  0  0  0  0
  6  5  1  0  0  0  0
  6 14  1  1  0  0  0
  7  8  1  0  0  0  0
  7 13  1  6  0  0  0
  8 15  1  1  0  0  0
  8 11  1  0  0  0  0
  9 13  1  0  0  0  0
 10  1  1  0  0  0  0
 17 15  1  1  0  0  0
 17 18  1  0  0  0  0
 18 25  1  1  0  0  0
 19 18  1  0  0  0  0
 19 26  1  1  0  0  0
 20 19  1  0  0  0  0
 20 24  1  1  0  0  0
 21 23  1  0  0  0  0
 21 20  1  0  0  0  0
 21 22  1  6  0  0  0
 23 17  1  0  0  0  0
 27 22  1  0  0  0  0
 28 29  1  0  0  0  0
 28 16  1  1  0  0  0
 29 36  1  1  0  0  0
 30 37  1  1  0  0  0
 30 29  1  0  0  0  0
 31 30  1  0  0  0  0
 31 34  1  6  0  0  0
 32 31  1  0  0  0  0
 32 33  1  0  0  0  0
 33 28  1  0  0  0  0
 33 35  1  6  0  0  0
M  END
>  <CHROM.1>
169.91367577,-86.48663493,80.34117179,160.84468736,-150.56323986,-143.57224307
58.72000254,-177.92734625,-66.81699351,-46.88761039,177.18880567,147.13071547
56.19184089,-176.72520551,-46.36163451,73.02365735,0.33982730,7.39015644
10.78600610,2.73807259,0.60880169,-1.05217646

>  <Name>
lig.pdb

>  <RI>
0

>  <Rbt.Current_Directory>
/home/itssahil/PROJECTS/Mol_Feturizer/New_Systems/rnas/2m4q

>  <Rbt.Executable>
rbdock ($Id: //depot/dev/client3/rdock/2013.1/src/exe/rbdock.cxx#4 $)

>  <Rbt.Library>
libRbt.so (2013.1, Build901 2013/11/27)

>  <Rbt.Parameter_File>
/export/apps/rDock/src/rDock_2013.1_src/data/scripts/dock_solv.prm

>  <Rbt.Receptor>
prm/pocket_docking_7.prm

>  <SCORE>
-41.735

>  <SCORE.INTER>
-23.1673

>  <SCORE.INTER.CONST>
1

>  <SCORE.INTER.POLAR>
-3.67694

>  <SCORE.INTER.ROT>
10

>  <SCORE.INTER.SOLV>
13.3306

>  <SCORE.INTER.VDW>
-17.8986

>  <SCORE.INTER.norm>
-0.626142

>  <SCORE.INTRA>
-18.5678

>  <SCORE.INTRA.DIHEDRAL>
-25.294

>  <SCORE.INTRA.DIHEDRAL.0>
44.8331

>  <SCORE.INTRA.POLAR>
-1.85845

>  <SCORE.INTRA.POLAR.0>
-0.108895

>  <SCORE.INTRA.REPUL>
-0.00912235

>  <SCORE.INTRA.REPUL.0>
0.00912235

>  <SCORE.INTRA.SOLV>
-0.0294092

>  <SCORE.INTRA.SOLV.lig_0>
-53.9067

>  <SCORE.INTRA.VDW>
0.458264

>  <SCORE.INTRA.VDW.0>
-2.93492

>  <SCORE.INTRA.norm>
-0.501832

>  <SCORE.RESTR>
0

>  <SCORE.RESTR.CAVITY>
0

>  <SCORE.RESTR.norm>
0

>  <SCORE.SYSTEM>
0

>  <SCORE.SYSTEM.CONST>
0

>  <SCORE.SYSTEM.DIHEDRAL>
0

>  <SCORE.SYSTEM.SOLV>
0

>  <SCORE.SYSTEM.norm>
0

>  <SCORE.heavy>
37

>  <SCORE.norm>
-1.12797

>  <RMSD>
1.632

$$$$
lig.pdb
 OpenBabel11021811453D
libRbt.so/2013.1/901 2013/11/27
 37 40  0  0  0  0  0  0  0  0999 V2000
   -2.1013    7.4390    9.2253 C   0  0  2  0  0  0  0  0  0  0  0  0
   -2.3322    6.9302   10.6864 C   0  0  1  0  0  0  0  0  0  0  0  0
   -1.0086    6.6652   11.4621 C   0  0  0  0  0  0  0  0  0  0  0  0
   -0.0304    5.8095   10.6195 C   0  0  1  0  0  0  0  0  0  0  0  0
    0.2244    6.4907    9.2563 C   0  0  1  0  0  0  0  0  0  0  0  0
    1.2391    5.6774    8.4085 C   0  0  1  0  0  0  0  0  0  0  0  0
    2.5477    5.4130    9.2112 C   0  0  1  0  0  0  0  0  0  0  0  0
    2.2579    4.8028   10.6147 C   0  0  2  0  0  0  0  0  0  0  0  0
    4.2510    5.3382    7.4486 C   0  0  0  0  0  0  0  0  0  0  0  0
   -1.0330    6.6982    8.5507 O   0  0  0  0  0  0  0  0  0  0  0  0
    1.2204    5.5511   11.3200 O   0  0  0  0  0  0  0  0  0  0  0  0
   -3.1569    7.9066   11.4308 N   0  0  0  0  0  0  0  0  0  0  0  0
    3.4438    4.5550    8.4088 N   0  0  0  0  0  0  0  0  0  0  0  0
    0.6661    4.4625    7.9425 O   0  0  0  0  0  0  0  0  0  0  0  0
    3.4835    4.7282   11.4001 O   0  0  0  0  0  0  0  0  0  0  0  0
   -1.8210    8.8720    9.2034 O   0  0  0  0  0  0  0  0  0  0  0  0
    3.4807    3.9270   12.6216 C   0  0  2  0  0  0  0  0  0  0  0  0
    4.6649    4.3213   13.5494 C   0  0  1  0  0  0  0  0  0  0  0  0
    6.0316    3.8626   12.9651 C   0  0  2  0  0  0  0  0  0  0  0  0
    6.0127    2.3462   12.6158 C   0  0  1  0  0  0  0  0  0  0  0  0
    4.7958    1.9898   11.7171 C   0  0  1  0  0  0  0  0  0  0  0  0
    4.6859    0.4619   11.4726 C   0  0  0  0  0  0  0  0  0  0  0  0
    3.5620    2.5057   12.3030 O   0  0  0  0  0  0  0  0  0  0  0  0
    7.2857    1.9184   11.9954 N   0  0  0  0  0  0  0  0  0  0  0  0
    4.6476    5.7225   13.8158 O   0  0  0  0  0  0  0  0  0  0  0  0
    7.1020    4.1717   13.8552 O   0  0  0  0  0  0  0  0  0  0  0  0
    4.4888   -0.2350   12.6984 O   0  0  0  0  0  0  0  0  0  0  0  0
   -2.4074    9.6605    8.1271 C   0  0  1  0  0  0  0  0  0  0  0  0
   -2.3443   11.1853    8.4222 C   0  0  1  0  0  0  0  0  0  0  0  0
   -3.0602   12.0015    7.3093 C   0  0  2  0  0  0  0  0  0  0  0  0
   -2.5213   11.6631    5.8814 C   0  0  1  0  0  0  0  0  0  0  0  0
   -2.4472   10.1309    5.6081 C   0  0  0  0  0  0  0  0  0  0  0  0
   -1.7415    9.3490    6.7567 C   0  0  2  0  0  0  0  0  0  0  0  0
   -3.3221   12.3454    4.8425 N   0  0  0  0  0  0  0  0  0  0  0  0
   -1.7588    7.9031    6.4459 N   0  0  0  0  0  0  0  0  0  0  0  0
   -2.8997   11.4774    9.7004 O   0  0  0  0  0  0  0  0  0  0  0  0
   -2.9476   13.3989    7.5663 O   0  0  0  0  0  0  0  0  0  0  0  0
  1  2  1  0  0  0  0
  1 16  1  1  0  0  0
  2  3  1  0  0  0  0
  2 12  1  1  0  0  0
  4 11  1  1  0  0  0
  4  3  1  0  0  0  0
  5  4  1  0  0  0  0
  5 10  1  6  0  0  0
  6  7  1  0  0  0  0
  6  5  1  0  0  0  0
  6 14  1  1  0  0  0
  7  8  1  0  0  0  0
  7 13  1  6  0  0  0
  8 15  1  1  0  0  0
  8 11  1  0  0  0  0
  9 13  1  0  0  0  0
 10  1  1  0  0  0  0
 17 15  1  6  0  0  0
 17 18  1  0  0  0  0
 18 25  1  6  0  0  0
 19 18  1  0  0  0  0
 19 26  1  1  0  0  0
 20 19  1  0  0  0  0
 20 24  1  6  0  0  0
 21 23  1  0  0  0  0
 21 20  1  0  0  0  0
 21 22  1  1  0  0  0
 23 17  1  0  0  0  0
 27 22  1  0  0  0  0
 28 29  1  0  0  0  0
 28 16  1  1  0  0  0
 29 36  1  1  0  0  0
 30 37  1  1  0  0  0
 30 29  1  0  0  0  0
 31 30  1  0  0  0  0
 31 34  1  6  0  0  0
 32 31  1  0  0  0  0
 32 33  1  0  0  0  0
 33 28  1  0  0  0  0
 33 35  1  6  0  0  0
M  END
>  <CHROM.1>
148.51174290,-166.88974809,84.13918326,-170.72861218,-161.43240587,-140.65262833
62.09333267,-60.37359978,61.79570319,-52.63614157,-160.80390870,165.14210517
172.48545627,59.67207039,-62.97761525,44.69029690,1.08342655,6.40946990,9.90064651
2.80634350,0.82093630,-1.67710443

>  <Name>
lig.pdb

>  <RI>
2.86754e+07

>  <Rbt.Current_Directory>
/home/itssahil/PROJECTS/Mol_Feturizer/New_Systems/rnas/2m4q

>  <Rbt.Executable>
rbdock ($Id: //depot/dev/client3/rdock/2013.1/src/exe/rbdock.cxx#4 $)

>  <Rbt.Library>
libRbt.so (2013.1, Build901 2013/11/27)

>  <Rbt.Parameter_File>
/export/apps/rDock/src/rDock_2013.1_src/data/scripts/dock_solv.prm

>  <Rbt.Receptor>
prm/pocket_docking_5.prm

>  <SCORE>
-47.4104

>  <SCORE.INTER>
-28.7423

>  <SCORE.INTER.CONST>
1

>  <SCORE.INTER.POLAR>
-3.81753

>  <SCORE.INTER.ROT>
10

>  <SCORE.INTER.SOLV>
15.6308

>  <SCORE.INTER.VDW>
-21.9133

>  <SCORE.INTER.norm>
-0.776818

>  <SCORE.INTRA>
-18.6681

>  <SCORE.INTRA.DIHEDRAL>
-30.7836

>  <SCORE.INTRA.DIHEDRAL.0>
44.8331

>  <SCORE.INTRA.POLAR>
-0.880605

>  <SCORE.INTRA.POLAR.0>
-0.108895

>  <SCORE.INTRA.REPUL>
-0.00912235

>  <SCORE.INTRA.REPUL.0>
0.00912235

>  <SCORE.INTRA.SOLV>
-1.30043

>  <SCORE.INTRA.SOLV.lig_0>
-53.9067

>  <SCORE.INTRA.VDW>
0.413538

>  <SCORE.INTRA.VDW.0>
-2.93492

>  <SCORE.INTRA.norm>
-0.504545

>  <SCORE.RESTR>
0

>  <SCORE.RESTR.CAVITY>
0

>  <SCORE.RESTR.norm>
0

>  <SCORE.SYSTEM>
0

>  <SCORE.SYSTEM.CONST>
0

>  <SCORE.SYSTEM.DIHEDRAL>
0

>  <SCORE.SYSTEM.SOLV>
0

>  <SCORE.SYSTEM.norm>
0

>  <SCORE.heavy>
37

>  <SCORE.norm>
-1.28136

>  <RMSD>
1.640

$$$$
lig.pdb
 OpenBabel11021811453D
libRbt.so/2013.1/901 2013/11/27
 37 40  0  0  0  0  0  0  0  0999 V2000
   -1.7874    7.5285    9.0701 C   0  0  2  0  0  0  0  0  0  0  0  0
   -2.2173    6.9542   10.4603 C   0  0  1  0  0  0  0  0  0  0  0  0
   -1.0128    6.5211   11.3464 C   0  0  0  0  0  0  0  0  0  0  0  0
   -0.0257    5.6323   10.5497 C   0  0  1  0  0  0  0  0  0  0  0  0
    0.4321    6.3696    9.2714 C   0  0  1  0  0  0  0  0  0  0  0  0
    1.4594    5.5200    8.4762 C   0  0  1  0  0  0  0  0  0  0  0  0
    2.6463    5.0872    9.3877 C   0  0  1  0  0  0  0  0  0  0  0  0
    2.1555    4.4211   10.7074 C   0  0  2  0  0  0  0  0  0  0  0  0
    4.3142    4.9401    7.5960 C   0  0  0  0  0  0  0  0  0  0  0  0
   -0.7194    6.7353    8.4575 O   0  0  0  0  0  0  0  0  0  0  0  0
    1.1154    5.2171   11.3543 O   0  0  0  0  0  0  0  0  0  0  0  0
   -3.0315    7.9548   11.1838 N   0  0  0  0  0  0  0  0  0  0  0  0
    3.5475    4.2012    8.6222 N   0  0  0  0  0  0  0  0  0  0  0  0
    0.8388    4.3940    7.8692 O   0  0  0  0  0  0  0  0  0  0  0  0
    3.2782    4.1857   11.6067 O   0  0  0  0  0  0  0  0  0  0  0  0
   -1.3853    8.9281    9.1787 O   0  0  0  0  0  0  0  0  0  0  0  0
    4.0579    2.9614   11.4421 C   0  0  2  0  0  0  0  0  0  0  0  0
    4.3755    2.3135   12.8198 C   0  0  1  0  0  0  0  0  0  0  0  0
    5.4106    3.1504   13.6248 C   0  0  2  0  0  0  0  0  0  0  0  0
    6.6855    3.4323   12.7778 C   0  0  1  0  0  0  0  0  0  0  0  0
    6.3209    4.0463   11.3974 C   0  0  1  0  0  0  0  0  0  0  0  0
    7.5680    4.2065   10.4889 C   0  0  0  0  0  0  0  0  0  0  0  0
    5.3029    3.2375   10.7335 O   0  0  0  0  0  0  0  0  0  0  0  0
    7.6446    4.2862   13.5124 N   0  0  0  0  0  0  0  0  0  0  0  0
    3.1760    2.1010   13.5620 O   0  0  0  0  0  0  0  0  0  0  0  0
    5.7423    2.5129   14.8564 O   0  0  0  0  0  0  0  0  0  0  0  0
    8.1362    2.9382   10.1792 O   0  0  0  0  0  0  0  0  0  0  0  0
   -1.8433    9.8466    8.1440 C   0  0  1  0  0  0  0  0  0  0  0  0
   -2.9243   10.8290    8.6753 C   0  0  1  0  0  0  0  0  0  0  0  0
   -3.4683   11.7340    7.5342 C   0  0  2  0  0  0  0  0  0  0  0  0
   -2.3274   12.4826    6.7715 C   0  0  1  0  0  0  0  0  0  0  0  0
   -1.1629   11.5396    6.3443 C   0  0  0  0  0  0  0  0  0  0  0  0
   -0.6623   10.6360    7.5112 C   0  0  2  0  0  0  0  0  0  0  0  0
   -2.8672   13.2145    5.6058 N   0  0  0  0  0  0  0  0  0  0  0  0
    0.4024    9.7388    7.0123 N   0  0  0  0  0  0  0  0  0  0  0  0
   -3.9851   10.1209    9.3085 O   0  0  0  0  0  0  0  0  0  0  0  0
   -4.4188   12.6643    8.0469 O   0  0  0  0  0  0  0  0  0  0  0  0
  1  2  1  0  0  0  0
  1 16  1  1  0  0  0
  2  3  1  0  0  0  0
  2 12  1  1  0  0  0
  4 11  1  1  0  0  0
  4  3  1  0  0  0  0
  5  4  1  0  0  0  0
  5 10  1  6  0  0  0
  6  7  1  0  0  0  0
  6  5  1  0  0  0  0
  6 14  1  1  0  0  0
  7  8  1  0  0  0  0
  7 13  1  6  0  0  0
  8 15  1  1  0  0  0
  8 11  1  0  0  0  0
  9 13  1  0  0  0  0
 10  1  1  0  0  0  0
 17 15  1  1  0  0  0
 17 18  1  0  0  0  0
 18 25  1  1  0  0  0
 19 18  1  0  0  0  0
 19 26  1  1  0  0  0
 20 19  1  0  0  0  0
 20 24  1  1  0  0  0
 21 23  1  0  0  0  0
 21 20  1  0  0  0  0
 21 22  1  6  0  0  0
 23 17  1  0  0  0  0
 27 22  1  0  0  0  0
 28 29  1  0  0  0  0
 28 16  1  1  0  0  0
 29 36  1  6  0  0  0
 30 37  1  1  0  0  0
 30 29  1  0  0  0  0
 31 30  1  0  0  0  0
 31 34  1  6  0  0  0
 32 31  1  0  0  0  0
 32 33  1  0  0  0  0
 33 28  1  0  0  0  0
 33 35  1  6  0  0  0
M  END
>  <CHROM.1>
158.32683297,-85.00212878,71.80389195,41.01334308,-137.00868172,-137.42278556
-179.89579985,62.37076097,63.64118886,178.78439723,62.99867419,108.88566482
-60.92547710,-59.39209233,-175.98732043,-47.72342539,1.38682250,6.53591332
9.89445551,2.40141073,0.36088629,-0.87148450

>  <Name>
lig.pdb

>  <RI>
3.87352e+07

>  <Rbt.Current_Directory>
/home/itssahil/PROJECTS/Mol_Feturizer/New_Systems/rnas/2m4q

>  <Rbt.Executable>
rbdock ($Id: //depot/dev/client3/rdock/2013.1/src/exe/rbdock.cxx#4 $)

>  <Rbt.Library>
libRbt.so (2013.1, Build901 2013/11/27)

>  <Rbt.Parameter_File>
/export/apps/rDock/src/rDock_2013.1_src/data/scripts/dock_solv.prm

>  <Rbt.Receptor>
prm/pocket_docking_4.prm

>  <SCORE>
-43.6874

>  <SCORE.INTER>
-26.7584

>  <SCORE.INTER.CONST>
1

>  <SCORE.INTER.POLAR>
-4.41496

>  <SCORE.INTER.ROT>
10

>  <SCORE.INTER.SOLV>
13.1513

>  <SCORE.INTER.VDW>
-17.7728

>  <SCORE.INTER.norm>
-0.723201

>  <SCORE.INTRA>
-16.929

>  <SCORE.INTRA.DIHEDRAL>
-20.487

>  <SCORE.INTRA.DIHEDRAL.0>
44.8331

>  <SCORE.INTRA.POLAR>
-1.87692

>  <SCORE.INTRA.POLAR.0>
-0.108895

>  <SCORE.INTRA.REPUL>
-0.00912235

>  <SCORE.INTRA.REPUL.0>
0.00912235

>  <SCORE.INTRA.SOLV>
-0.334402

>  <SCORE.INTRA.SOLV.lig_0>
-53.9067

>  <SCORE.INTRA.VDW>
-0.0911396

>  <SCORE.INTRA.VDW.0>
-2.93492

>  <SCORE.INTRA.norm>
-0.45754

>  <SCORE.RESTR>
0

>  <SCORE.RESTR.CAVITY>
0

>  <SCORE.RESTR.norm>
0

>  <SCORE.SYSTEM>
0

>  <SCORE.SYSTEM.CONST>
0

>  <SCORE.SYSTEM.DIHEDRAL>
0

>  <SCORE.SYSTEM.SOLV>
0

>  <SCORE.SYSTEM.norm>
0

>  <SCORE.heavy>
37

>  <SCORE.norm>
-1.18074

>  <RMSD>
1.647

$$$$
lig.pdb
 OpenBabel11021811453D
libRbt.so/2013.1/901 2013/11/27
 37 40  0  0  0  0  0  0  0  0999 V2000
   -1.7664    6.7783    9.9566 C   0  0  2  0  0  0  0  0  0  0  0  0
   -1.4783    6.2156   11.3875 C   0  0  1  0  0  0  0  0  0  0  0  0
    0.0380    6.1714   11.7376 C   0  0  0  0  0  0  0  0  0  0  0  0
    0.8539    5.5099   10.5994 C   0  0  1  0  0  0  0  0  0  0  0  0
    0.5892    6.2451    9.2664 C   0  0  1  0  0  0  0  0  0  0  0  0
    1.4312    5.6317    8.1155 C   0  0  1  0  0  0  0  0  0  0  0  0
    2.9411    5.5851    8.4958 C   0  0  1  0  0  0  0  0  0  0  0  0
    3.1731    4.9132    9.8818 C   0  0  2  0  0  0  0  0  0  0  0  0
    5.1209    5.2862    7.4127 C   0  0  0  0  0  0  0  0  0  0  0  0
   -0.8352    6.2431    8.9609 O   0  0  0  0  0  0  0  0  0  0  0  0
    2.2787    5.4608   10.8986 O   0  0  0  0  0  0  0  0  0  0  0  0
   -2.1974    7.0239   12.3961 N   0  0  0  0  0  0  0  0  0  0  0  0
    3.6916    4.9066    7.4190 N   0  0  0  0  0  0  0  0  0  0  0  0
    0.9509    4.3432    7.7541 O   0  0  0  0  0  0  0  0  0  0  0  0
    4.5692    5.0395   10.2812 O   0  0  0  0  0  0  0  0  0  0  0  0
   -1.7388    8.2384    9.9481 O   0  0  0  0  0  0  0  0  0  0  0  0
    5.0000    4.3982   11.5209 C   0  0  2  0  0  0  0  0  0  0  0  0
    6.4982    4.6973   11.8117 C   0  0  1  0  0  0  0  0  0  0  0  0
    7.4371    3.9541   10.8187 C   0  0  2  0  0  0  0  0  0  0  0  0
    7.1187    2.4314   10.7773 C   0  0  1  0  0  0  0  0  0  0  0  0
    5.6072    2.1782   10.5193 C   0  0  1  0  0  0  0  0  0  0  0  0
    5.2499    0.6714   10.6107 C   0  0  0  0  0  0  0  0  0  0  0  0
    4.7947    2.9555   11.4504 O   0  0  0  0  0  0  0  0  0  0  0  0
    7.9611    1.7297    9.7841 N   0  0  0  0  0  0  0  0  0  0  0  0
    6.7372    6.1036   11.8131 O   0  0  0  0  0  0  0  0  0  0  0  0
    8.8081    4.1842   11.1360 O   0  0  0  0  0  0  0  0  0  0  0  0
    5.7855   -0.0449    9.5028 O   0  0  0  0  0  0  0  0  0  0  0  0
   -2.5074    8.9243    8.9173 C   0  0  1  0  0  0  0  0  0  0  0  0
   -3.0908   10.2720    9.4268 C   0  0  1  0  0  0  0  0  0  0  0  0
   -3.9859   10.9397    8.3450 C   0  0  2  0  0  0  0  0  0  0  0  0
   -3.2455   11.1067    6.9784 C   0  0  1  0  0  0  0  0  0  0  0  0
   -2.5359    9.8012    6.5092 C   0  0  0  0  0  0  0  0  0  0  0  0
   -1.6668    9.1538    7.6292 C   0  0  2  0  0  0  0  0  0  0  0  0
   -4.1695   11.6070    5.9382 N   0  0  0  0  0  0  0  0  0  0  0  0
   -1.0724    7.8982    7.1220 N   0  0  0  0  0  0  0  0  0  0  0  0
   -3.8158   10.0846   10.6379 O   0  0  0  0  0  0  0  0  0  0  0  0
   -4.4696   12.1985    8.8068 O   0  0  0  0  0  0  0  0  0  0  0  0
  1  2  1  0  0  0  0
  1 16  1  1  0  0  0
  2  3  1  0  0  0  0
  2 12  1  1  0  0  0
  4 11  1  1  0  0  0
  4  3  1  0  0  0  0
  5  4  1  0  0  0  0
  5 10  1  6  0  0  0
  6  7  1  0  0  0  0
  6  5  1  0  0  0  0
  6 14  1  1  0  0  0
  7  8  1  0  0  0  0
  7 13  1  6  0  0  0
  8 15  1  1  0  0  0
  8 11  1  0  0  0  0
  9 13  1  0  0  0  0
 10  1  1  0  0  0  0
 17 15  1  6  0  0  0
 17 18  1  0  0  0  0
 18 25  1  6  0  0  0
 19 18  1  0  0  0  0
 19 26  1  1  0  0  0
 20 19  1  0  0  0  0
 20 24  1  6  0  0  0
 21 23  1  0  0  0  0
 21 20  1  0  0  0  0
 21 22  1  1  0  0  0
 23 17  1  0  0  0  0
 27 22  1  0  0  0  0
 28 29  1  0  0  0  0
 28 16  1  1  0  0  0
 29 36  1  1  0  0  0
 30 37  1  1  0  0  0
 30 29  1  0  0  0  0
 31 30  1  0  0  0  0
 31 34  1  6  0  0  0
 32 31  1  0  0  0  0
 32 33  1  0  0  0  0
 33 28  1  0  0  0  0
 33 35  1  6  0  0  0
M  END
>  <CHROM.1>
88.78349908,-176.36185469,156.82437556,54.19309224,-177.38004109,-154.54236724
59.42296276,63.62018895,-70.65324716,-143.26525813,178.28223690,146.39843465
-47.27819738,59.39116583,-175.69824483,-178.52704994,1.58999892,6.17250681
9.58267913,2.83703397,0.58007064,-1.32979377

>  <Name>
lig.pdb

>  <RI>
0

>  <Rbt.Current_Directory>
/home/itssahil/PROJECTS/Mol_Feturizer/New_Systems/rnas/2m4q

>  <Rbt.Executable>
rbdock ($Id: //depot/dev/client3/rdock/2013.1/src/exe/rbdock.cxx#4 $)

>  <Rbt.Library>
libRbt.so (2013.1, Build901 2013/11/27)

>  <Rbt.Parameter_File>
/export/apps/rDock/src/rDock_2013.1_src/data/scripts/dock_solv.prm

>  <Rbt.Receptor>
prm/pocket_docking_3.prm

>  <SCORE>
-52.349

>  <SCORE.INTER>
-33.0445

>  <SCORE.INTER.CONST>
1

>  <SCORE.INTER.POLAR>
-4.34568

>  <SCORE.INTER.ROT>
10

>  <SCORE.INTER.SOLV>
19.4141

>  <SCORE.INTER.VDW>
-24.2821

>  <SCORE.INTER.norm>
-0.893096

>  <SCORE.INTRA>
-19.3045

>  <SCORE.INTRA.DIHEDRAL>
-32.2843

>  <SCORE.INTRA.DIHEDRAL.0>
44.8331

>  <SCORE.INTRA.POLAR>
-0.974091

>  <SCORE.INTRA.POLAR.0>
-0.108895

>  <SCORE.INTRA.REPUL>
-0.00912235

>  <SCORE.INTRA.REPUL.0>
0.00912235

>  <SCORE.INTRA.SOLV>
-0.975689

>  <SCORE.INTRA.SOLV.lig_0>
-53.9067

>  <SCORE.INTRA.VDW>
0.683041

>  <SCORE.INTRA.VDW.0>
-2.93492

>  <SCORE.INTRA.norm>
-0.521743

>  <SCORE.RESTR>
0

>  <SCORE.RESTR.CAVITY>
0

>  <SCORE.RESTR.norm>
0

>  <SCORE.SYSTEM>
0

>  <SCORE.SYSTEM.CONST>
0

>  <SCORE.SYSTEM.DIHEDRAL>
0

>  <SCORE.SYSTEM.SOLV>
0

>  <SCORE.SYSTEM.norm>
0

>  <SCORE.heavy>
37

>  <SCORE.norm>
-1.41484

>  <RMSD>
1.752

$$$$
lig.pdb
 OpenBabel11021811453D
libRbt.so/2013.1/901 2013/11/27
 37 40  0  0  0  0  0  0  0  0999 V2000
   -1.9858    6.9057   10.1783 C   0  0  2  0  0  0  0  0  0  0  0  0
   -1.6230    6.3296   11.5867 C   0  0  1  0  0  0  0  0  0  0  0  0
   -0.0893    6.2212   11.8309 C   0  0  0  0  0  0  0  0  0  0  0  0
    0.6171    5.5274   10.6398 C   0  0  1  0  0  0  0  0  0  0  0  0
    0.2917    6.2747    9.3272 C   0  0  1  0  0  0  0  0  0  0  0  0
    1.0253    5.6279    8.1217 C   0  0  1  0  0  0  0  0  0  0  0  0
    2.5547    5.5173    8.3964 C   0  0  1  0  0  0  0  0  0  0  0  0
    2.8538    4.8345    9.7640 C   0  0  2  0  0  0  0  0  0  0  0  0
    4.6230    5.1811    7.1225 C   0  0  0  0  0  0  0  0  0  0  0  0
   -1.1492    6.3330    9.1213 O   0  0  0  0  0  0  0  0  0  0  0  0
    2.0559    5.4179   10.8396 O   0  0  0  0  0  0  0  0  0  0  0  0
   -2.2357    7.1661   12.6414 N   0  0  0  0  0  0  0  0  0  0  0  0
    3.1994    4.8092    7.2713 N   0  0  0  0  0  0  0  0  0  0  0  0
    0.4673    4.3612    7.7966 O   0  0  0  0  0  0  0  0  0  0  0  0
    4.2783    4.9014   10.0654 O   0  0  0  0  0  0  0  0  0  0  0  0
   -1.8974    8.3633   10.1655 O   0  0  0  0  0  0  0  0  0  0  0  0
    4.7359    4.4427   11.3746 C   0  0  2  0  0  0  0  0  0  0  0  0
    6.2306    4.8071   11.6018 C   0  0  1  0  0  0  0  0  0  0  0  0
    7.1738    3.9540   10.7059 C   0  0  2  0  0  0  0  0  0  0  0  0
    6.8867    2.4339   10.8758 C   0  0  1  0  0  0  0  0  0  0  0  0
    5.3780    2.1192   10.6750 C   0  0  1  0  0  0  0  0  0  0  0  0
    5.0531    0.6323   10.9747 C   0  0  0  0  0  0  0  0  0  0  0  0
    4.5597    3.0002   11.5031 O   0  0  0  0  0  0  0  0  0  0  0  0
    7.7326    1.6201    9.9754 N   0  0  0  0  0  0  0  0  0  0  0  0
    6.4403    6.2048   11.4093 O   0  0  0  0  0  0  0  0  0  0  0  0
    8.5431    4.2512   10.9704 O   0  0  0  0  0  0  0  0  0  0  0  0
    5.2366    0.3416   12.3564 O   0  0  0  0  0  0  0  0  0  0  0  0
   -2.7053    9.0823    9.1886 C   0  0  1  0  0  0  0  0  0  0  0  0
   -3.3557   10.3565    9.7966 C   0  0  1  0  0  0  0  0  0  0  0  0
   -4.2892   11.0544    8.7676 C   0  0  2  0  0  0  0  0  0  0  0  0
   -3.5646   11.3600    7.4165 C   0  0  1  0  0  0  0  0  0  0  0  0
   -2.7902   10.1315    6.8519 C   0  0  0  0  0  0  0  0  0  0  0  0
   -1.8836    9.4496    7.9205 C   0  0  2  0  0  0  0  0  0  0  0  0
   -4.5181   11.8867    6.4167 N   0  0  0  0  0  0  0  0  0  0  0  0
   -1.2270    8.2674    7.3216 N   0  0  0  0  0  0  0  0  0  0  0  0
   -4.0645   10.0429   10.9911 O   0  0  0  0  0  0  0  0  0  0  0  0
   -4.8356   12.2488    9.3214 O   0  0  0  0  0  0  0  0  0  0  0  0
  1  2  1  0  0  0  0
  1 16  1  1  0  0  0
  2  3  1  0  0  0  0
  2 12  1  1  0  0  0
  4 11  1  1  0  0  0
  4  3  1  0  0  0  0
  5  4  1  0  0  0  0
  5 10  1  6  0  0  0
  6  7  1  0  0  0  0
  6  5  1  0  0  0  0
  6 14  1  1  0  0  0
  7  8  1  0  0  0  0
  7 13  1  6  0  0  0
  8 15  1  1  0  0  0
  8 11  1  0  0  0  0
  9 13  1  0  0  0  0
 10  1  1  0  0  0  0
 17 15  1  6  0  0  0
 17 18  1  0  0  0  0
 18 25  1  6  0  0  0
 19 18  1  0  0  0  0
 19 26  1  1  0  0  0
 20 19  1  0  0  0  0
 20 24  1  6  0  0  0
 21 23  1  0  0  0  0
 21 20  1  0  0  0  0
 21 22  1  1  0  0  0
 23 17  1  0  0  0  0
 27 22  1  0  0  0  0
 28 29  1  0  0  0  0
 28 16  1  1  0  0  0
 29 36  1  1  0  0  0
 30 37  1  1  0  0  0
 30 29  1  0  0  0  0
 31 30  1  0  0  0  0
 31 34  1  6  0  0  0
 32 31  1  0  0  0  0
 32 33  1  0  0  0  0
 33 28  1  0  0  0  0
 33 35  1  6  0  0  0
M  END
>  <CHROM.1>
-178.26111019,173.45371998,153.90242353,50.13242885,-170.52532015,-154.59337977
175.84908527,-67.13948850,66.78950952,162.66563532,-155.37008169,138.55893215
170.62075024,-173.53778489,-59.49249822,4.74129981,1.31112109,6.24171059
9.77753259,2.69677025,0.50205494,-1.05579739

>  <Name>
lig.pdb

>  <RI>
3.87352e+07

>  <Rbt.Current_Directory>
/home/itssahil/PROJECTS/Mol_Feturizer/New_Systems/rnas/2m4q

>  <Rbt.Executable>
rbdock ($Id: //depot/dev/client3/rdock/2013.1/src/exe/rbdock.cxx#4 $)

>  <Rbt.Library>
libRbt.so (2013.1, Build901 2013/11/27)

>  <Rbt.Parameter_File>
/export/apps/rDock/src/rDock_2013.1_src/data/scripts/dock_solv.prm

>  <Rbt.Receptor>
prm/pocket_docking_4.prm

>  <SCORE>
-46.7439

>  <SCORE.INTER>
-29.3694

>  <SCORE.INTER.CONST>
1

>  <SCORE.INTER.POLAR>
-3.53746

>  <SCORE.INTER.ROT>
10

>  <SCORE.INTER.SOLV>
19.1043

>  <SCORE.INTER.VDW>
-24.4229

>  <SCORE.INTER.norm>
-0.793768

>  <SCORE.INTRA>
-17.3745

>  <SCORE.INTRA.DIHEDRAL>
-27.3328

>  <SCORE.INTRA.DIHEDRAL.0>
44.8331

>  <SCORE.INTRA.POLAR>
-0.869059

>  <SCORE.INTRA.POLAR.0>
-0.108895

>  <SCORE.INTRA.REPUL>
0.0907372

>  <SCORE.INTRA.REPUL.0>
0.00912235

>  <SCORE.INTRA.SOLV>
-1.23585

>  <SCORE.INTRA.SOLV.lig_0>
-53.9067

>  <SCORE.INTRA.VDW>
-0.589096

>  <SCORE.INTRA.VDW.0>
-2.93492

>  <SCORE.INTRA.norm>
-0.469582

>  <SCORE.RESTR>
0

>  <SCORE.RESTR.CAVITY>
0

>  <SCORE.RESTR.norm>
0

>  <SCORE.SYSTEM>
0

>  <SCORE.SYSTEM.CONST>
0

>  <SCORE.SYSTEM.DIHEDRAL>
0

>  <SCORE.SYSTEM.SOLV>
0

>  <SCORE.SYSTEM.norm>
0

>  <SCORE.heavy>
37

>  <SCORE.norm>
-1.26335

>  <RMSD>
1.777

$$$$
lig.pdb
 OpenBabel11021811453D
libRbt.so/2013.1/901 2013/11/27
 37 40  0  0  0  0  0  0  0  0999 V2000
   -2.0080    7.2266    9.0254 C   0  0  2  0  0  0  0  0  0  0  0  0
   -2.1588    6.7431   10.5055 C   0  0  1  0  0  0  0  0  0  0  0  0
   -0.7956    6.5602   11.2350 C   0  0  0  0  0  0  0  0  0  0  0  0
    0.1903    5.7317   10.3746 C   0  0  1  0  0  0  0  0  0  0  0  0
    0.3604    6.3907    8.9875 C   0  0  1  0  0  0  0  0  0  0  0  0
    1.3805    5.6062    8.1195 C   0  0  1  0  0  0  0  0  0  0  0  0
    2.7297    5.4238    8.8766 C   0  0  1  0  0  0  0  0  0  0  0  0
    2.5228    4.8349   10.3037 C   0  0  2  0  0  0  0  0  0  0  0  0
    4.9213    5.2677    7.7875 C   0  0  0  0  0  0  0  0  0  0  0  0
   -0.9313    6.5211    8.3267 O   0  0  0  0  0  0  0  0  0  0  0  0
    1.4777    5.5501   11.0317 O   0  0  0  0  0  0  0  0  0  0  0  0
   -3.0011    7.6971   11.2591 N   0  0  0  0  0  0  0  0  0  0  0  0
    3.6353    4.5900    8.0595 N   0  0  0  0  0  0  0  0  0  0  0  0
    0.8498    4.3544    7.7036 O   0  0  0  0  0  0  0  0  0  0  0  0
    3.7793    4.8377   11.0424 O   0  0  0  0  0  0  0  0  0  0  0  0
   -1.7983    8.6703    8.9604 O   0  0  0  0  0  0  0  0  0  0  0  0
    4.7765    3.8185   10.7250 C   0  0  2  0  0  0  0  0  0  0  0  0
    4.8363    2.7322   11.8364 C   0  0  1  0  0  0  0  0  0  0  0  0
    5.4663    3.2837   13.1474 C   0  0  2  0  0  0  0  0  0  0  0  0
    6.8468    3.9469   12.8715 C   0  0  1  0  0  0  0  0  0  0  0  0
    6.7491    4.9996   11.7322 C   0  0  1  0  0  0  0  0  0  0  0  0
    8.1404    5.5707   11.3524 C   0  0  0  0  0  0  0  0  0  0  0  0
    6.0941    4.4232   10.5616 O   0  0  0  0  0  0  0  0  0  0  0  0
    7.4198    4.5348   14.1022 N   0  0  0  0  0  0  0  0  0  0  0  0
    3.5422    2.1772   12.0646 O   0  0  0  0  0  0  0  0  0  0  0  0
    5.5753    2.2618   14.1359 O   0  0  0  0  0  0  0  0  0  0  0  0
    8.0209    6.5687   10.3439 O   0  0  0  0  0  0  0  0  0  0  0  0
   -2.7229    9.4532    8.1504 C   0  0  1  0  0  0  0  0  0  0  0  0
   -3.0530   10.8237    8.8052 C   0  0  1  0  0  0  0  0  0  0  0  0
   -4.1135   11.6005    7.9750 C   0  0  2  0  0  0  0  0  0  0  0  0
   -3.6991   11.7575    6.4759 C   0  0  1  0  0  0  0  0  0  0  0  0
   -3.2336   10.4175    5.8314 C   0  0  0  0  0  0  0  0  0  0  0  0
   -2.1877    9.6617    6.7052 C   0  0  2  0  0  0  0  0  0  0  0  0
   -4.7924   12.3684    5.6900 N   0  0  0  0  0  0  0  0  0  0  0  0
   -1.8385    8.3818    6.0515 N   0  0  0  0  0  0  0  0  0  0  0  0
   -3.4904   10.6508   10.1493 O   0  0  0  0  0  0  0  0  0  0  0  0
   -4.3658   12.8762    8.5586 O   0  0  0  0  0  0  0  0  0  0  0  0
  1  2  1  0  0  0  0
  1 16  1  1  0  0  0
  2  3  1  0  0  0  0
  2 12  1  1  0  0  0
  4 11  1  1  0  0  0
  4  3  1  0  0  0  0
  5  4  1  0  0  0  0
  5 10  1  6  0  0  0
  6  7  1  0  0  0  0
  6  5  1  0  0  0  0
  6 14  1  1  0  0  0
  7  8  1  0  0  0  0
  7 13  1  6  0  0  0
  8 15  1  1  0  0  0
  8 11  1  0  0  0  0
  9 13  1  0  0  0  0
 10  1  1  0  0  0  0
 17 15  1  1  0  0  0
 17 18  1  0  0  0  0
 18 25  1  1  0  0  0
 19 18  1  0  0  0  0
 19 26  1  1  0  0  0
 20 19  1  0  0  0  0
 20 24  1  1  0  0  0
 21 23  1  0  0  0  0
 21 20  1  0  0  0  0
 21 22  1  6  0  0  0
 23 17  1  0  0  0  0
 27 22  1  0  0  0  0
 28 29  1  0  0  0  0
 28 16  1  1  0  0  0
 29 36  1  1  0  0  0
 30 37  1  1  0  0  0
 30 29  1  0  0  0  0
 31 30  1  0  0  0  0
 31 34  1  6  0  0  0
 32 31  1  0  0  0  0
 32 33  1  0  0  0  0
 33 28  1  0  0  0  0
 33 35  1  6  0  0  0
M  END
>  <CHROM.1>
43.61770531,-76.48827135,123.78145283,53.55400575,-105.76935852,-124.09534077
177.54554317,-179.26002460,-177.77485400,-53.83912307,174.65660662,142.16965104
-51.41536895,-67.97804349,57.84929844,-54.15106764,1.23626967,6.70607176
9.72395359,2.54304218,0.34908577,-1.02665224

>  <Name>
lig.pdb

>  <RI>
0

>  <Rbt.Current_Directory>
/home/itssahil/PROJECTS/Mol_Feturizer/New_Systems/rnas/2m4q

>  <Rbt.Executable>
rbdock ($Id: //depot/dev/client3/rdock/2013.1/src/exe/rbdock.cxx#4 $)

>  <Rbt.Library>
libRbt.so (2013.1, Build901 2013/11/27)

>  <Rbt.Parameter_File>
/export/apps/rDock/src/rDock_2013.1_src/data/scripts/dock_solv.prm

>  <Rbt.Receptor>
prm/pocket_docking_3.prm

>  <SCORE>
-42.856

>  <SCORE.INTER>
-28.7633

>  <SCORE.INTER.CONST>
1

>  <SCORE.INTER.POLAR>
-4.02377

>  <SCORE.INTER.ROT>
10

>  <SCORE.INTER.SOLV>
15.4353

>  <SCORE.INTER.VDW>
-21.1747

>  <SCORE.INTER.norm>
-0.777386

>  <SCORE.INTRA>
-14.0927

>  <SCORE.INTRA.DIHEDRAL>
-20.9242

>  <SCORE.INTRA.DIHEDRAL.0>
44.8331

>  <SCORE.INTRA.POLAR>
-0.810415

>  <SCORE.INTRA.POLAR.0>
-0.108895

>  <SCORE.INTRA.REPUL>
-0.00781902

>  <SCORE.INTRA.REPUL.0>
0.00912235

>  <SCORE.INTRA.SOLV>
-0.430316

>  <SCORE.INTRA.SOLV.lig_0>
-53.9067

>  <SCORE.INTRA.VDW>
-0.620948

>  <SCORE.INTRA.VDW.0>
-2.93492

>  <SCORE.INTRA.norm>
-0.380884

>  <SCORE.RESTR>
0

>  <SCORE.RESTR.CAVITY>
0

>  <SCORE.RESTR.norm>
0

>  <SCORE.SYSTEM>
0

>  <SCORE.SYSTEM.CONST>
0

>  <SCORE.SYSTEM.DIHEDRAL>
0

>  <SCORE.SYSTEM.SOLV>
0

>  <SCORE.SYSTEM.norm>
0

>  <SCORE.heavy>
37

>  <SCORE.norm>
-1.15827

>  <RMSD>
1.798

$$$$
lig.pdb
 OpenBabel11021811453D
libRbt.so/2013.1/901 2013/11/27
 37 40  0  0  0  0  0  0  0  0999 V2000
   -2.1778    8.9777   11.8616 C   0  0  2  0  0  0  0  0  0  0  0  0
   -1.6885    8.7374   13.3279 C   0  0  1  0  0  0  0  0  0  0  0  0
   -0.2231    8.2182   13.4103 C   0  0  0  0  0  0  0  0  0  0  0  0
    0.0024    7.0293   12.4436 C   0  0  1  0  0  0  0  0  0  0  0  0
   -0.3860    7.4396   11.0054 C   0  0  1  0  0  0  0  0  0  0  0  0
   -0.1257    6.2805   10.0062 C   0  0  1  0  0  0  0  0  0  0  0  0
    1.3416    5.7693   10.1185 C   0  0  1  0  0  0  0  0  0  0  0  0
    1.7341    5.4413   11.5897 C   0  0  2  0  0  0  0  0  0  0  0  0
    1.6538    5.0073    7.8086 C   0  0  0  0  0  0  0  0  0  0  0  0
   -1.7693    7.8946   10.9644 O   0  0  0  0  0  0  0  0  0  0  0  0
    1.3687    6.5270   12.4961 O   0  0  0  0  0  0  0  0  0  0  0  0
   -1.8170    9.9871   14.1084 N   0  0  0  0  0  0  0  0  0  0  0  0
    1.5193    4.6057    9.2255 N   0  0  0  0  0  0  0  0  0  0  0  0
   -1.0559    5.2210   10.1905 O   0  0  0  0  0  0  0  0  0  0  0  0
    3.1555    5.1318   11.6802 O   0  0  0  0  0  0  0  0  0  0  0  0
   -1.7108   10.2647   11.3535 O   0  0  0  0  0  0  0  0  0  0  0  0
    3.5635    3.7292   11.6980 C   0  0  2  0  0  0  0  0  0  0  0  0
    4.6863    3.4887   12.7469 C   0  0  1  0  0  0  0  0  0  0  0  0
    6.0347    4.1248   12.3031 C   0  0  2  0  0  0  0  0  0  0  0  0
    6.4310    3.6599   10.8718 C   0  0  1  0  0  0  0  0  0  0  0  0
    5.2698    3.8859    9.8638 C   0  0  1  0  0  0  0  0  0  0  0  0
    5.5982    3.3036    8.4640 C   0  0  0  0  0  0  0  0  0  0  0  0
    4.0296    3.3138   10.3795 O   0  0  0  0  0  0  0  0  0  0  0  0
    7.6768    4.3148   10.4161 N   0  0  0  0  0  0  0  0  0  0  0  0
    4.2796    3.9552   14.0321 O   0  0  0  0  0  0  0  0  0  0  0  0
    7.0710    3.8417   13.2408 O   0  0  0  0  0  0  0  0  0  0  0  0
    4.5012    3.4763    7.5728 O   0  0  0  0  0  0  0  0  0  0  0  0
   -2.6592   11.0835   10.6092 C   0  0  1  0  0  0  0  0  0  0  0  0
   -2.1867   12.5597   10.4924 C   0  0  1  0  0  0  0  0  0  0  0  0
   -3.2560   13.4355    9.7805 C   0  0  2  0  0  0  0  0  0  0  0  0
   -3.6802   12.8497    8.3946 C   0  0  1  0  0  0  0  0  0  0  0  0
   -4.0305   11.3329    8.4585 C   0  0  0  0  0  0  0  0  0  0  0  0
   -2.9437   10.4956    9.1979 C   0  0  2  0  0  0  0  0  0  0  0  0
   -4.7988   13.6249    7.8169 N   0  0  0  0  0  0  0  0  0  0  0  0
   -3.3746    9.0822    9.2607 N   0  0  0  0  0  0  0  0  0  0  0  0
   -1.8680   13.0926   11.7738 O   0  0  0  0  0  0  0  0  0  0  0  0
   -2.7863   14.7732    9.6335 O   0  0  0  0  0  0  0  0  0  0  0  0
  1  2  1  0  0  0  0
  1 16  1  6  0  0  0
  2  3  1  0  0  0  0
  2 12  1  1  0  0  0
  4 11  1  6  0  0  0
  4  3  1  0  0  0  0
  5  4  1  0  0  0  0
  5 10  1  1  0  0  0
  6  7  1  0  0  0  0
  6  5  1  0  0  0  0
  6 14  1  1  0  0  0
  7  8  1  0  0  0  0
  7 13  1  6  0  0  0
  8 15  1  6  0  0  0
  8 11  1  0  0  0  0
  9 13  1  0  0  0  0
 10  1  1  0  0  0  0
 17 15  1  6  0  0  0
 17 18  1  0  0  0  0
 18 25  1  1  0  0  0
 19 18  1  0  0  0  0
 19 26  1  1  0  0  0
 20 19  1  0  0  0  0
 20 24  1  6  0  0  0
 21 23  1  0  0  0  0
 21 20  1  0  0  0  0
 21 22  1  6  0  0  0
 23 17  1  0  0  0  0
 27 22  1  0  0  0  0
 28 29  1  0  0  0  0
 28 16  1  6  0  0  0
 29 36  1  1  0  0  0
 30 37  1  6  0  0  0
 30 29  1  0  0  0  0
 31 30  1  0  0  0  0
 31 34  1  1  0  0  0
 32 31  1  0  0  0  0
 32 33  1  0  0  0  0
 33 28  1  0  0  0  0
 33 35  1  1  0  0  0
M  END
>  <CHROM.1>
77.56600776,-98.20748783,77.06689168,-61.37321447,-137.79801269,-136.67489524
64.33218604,-177.41545766,177.75400112,-38.33938127,-170.22788400,163.28244737
67.73184388,61.26663678,-64.03724161,-66.63312236,0.76934566,7.44996899,10.77334932
-3.07623799,0.78630915,-1.78075291

>  <Name>
lig.pdb

>  <RI>
0

>  <Rbt.Current_Directory>
/home/itssahil/PROJECTS/Mol_Feturizer/New_Systems/rnas/2m4q

>  <Rbt.Executable>
rbdock ($Id: //depot/dev/client3/rdock/2013.1/src/exe/rbdock.cxx#4 $)

>  <Rbt.Library>
libRbt.so (2013.1, Build901 2013/11/27)

>  <Rbt.Parameter_File>
/export/apps/rDock/src/rDock_2013.1_src/data/scripts/dock_solv.prm

>  <Rbt.Receptor>
prm/pocket_docking_6.prm

>  <SCORE>
-40.0284

>  <SCORE.INTER>
-21.6685

>  <SCORE.INTER.CONST>
1

>  <SCORE.INTER.POLAR>
-3.88762

>  <SCORE.INTER.ROT>
10

>  <SCORE.INTER.SOLV>
12.0849

>  <SCORE.INTER.VDW>
-15.7819

>  <SCORE.INTER.norm>
-0.585635

>  <SCORE.INTRA>
-18.3599

>  <SCORE.INTRA.DIHEDRAL>
-23.7189

>  <SCORE.INTRA.DIHEDRAL.0>
44.8331

>  <SCORE.INTRA.POLAR>
-1.776

>  <SCORE.INTRA.POLAR.0>
-0.108895

>  <SCORE.INTRA.REPUL>
-0.00912235

>  <SCORE.INTRA.REPUL.0>
0.00912235

>  <SCORE.INTRA.SOLV>
-0.473984

>  <SCORE.INTRA.SOLV.lig_0>
-53.9067

>  <SCORE.INTRA.VDW>
-0.179472

>  <SCORE.INTRA.VDW.0>
-2.93492

>  <SCORE.INTRA.norm>
-0.496215

>  <SCORE.RESTR>
0

>  <SCORE.RESTR.CAVITY>
0

>  <SCORE.RESTR.norm>
0

>  <SCORE.SYSTEM>
0

>  <SCORE.SYSTEM.CONST>
0

>  <SCORE.SYSTEM.DIHEDRAL>
0

>  <SCORE.SYSTEM.SOLV>
0

>  <SCORE.SYSTEM.norm>
0

>  <SCORE.heavy>
37

>  <SCORE.norm>
-1.08185

>  <RMSD>
1.806

$$$$
lig.pdb
 OpenBabel11021811453D
libRbt.so/2013.1/901 2013/11/27
 37 40  0  0  0  0  0  0  0  0999 V2000
   -1.6374    7.4111   10.1399 C   0  0  2  0  0  0  0  0  0  0  0  0
   -1.7216    6.3907   11.3226 C   0  0  1  0  0  0  0  0  0  0  0  0
   -0.3317    5.8485   11.7677 C   0  0  0  0  0  0  0  0  0  0  0  0
    0.4959    5.3692   10.5493 C   0  0  1  0  0  0  0  0  0  0  0  0
    0.6241    6.5124    9.5178 C   0  0  1  0  0  0  0  0  0  0  0  0
    1.4895    6.0744    8.3058 C   0  0  1  0  0  0  0  0  0  0  0  0
    2.8677    5.5225    8.7778 C   0  0  1  0  0  0  0  0  0  0  0  0
    2.7130    4.4300    9.8773 C   0  0  2  0  0  0  0  0  0  0  0  0
    5.0778    5.2070    7.7631 C   0  0  0  0  0  0  0  0  0  0  0  0
   -0.6949    6.9748    9.1073 O   0  0  0  0  0  0  0  0  0  0  0  0
    1.8051    4.8617   10.9370 O   0  0  0  0  0  0  0  0  0  0  0  0
   -2.4023    7.0182   12.4761 N   0  0  0  0  0  0  0  0  0  0  0  0
    3.6184    5.0263    7.6060 N   0  0  0  0  0  0  0  0  0  0  0  0
    0.8042    5.1262    7.4978 O   0  0  0  0  0  0  0  0  0  0  0  0
    4.0167    4.0609   10.4147 O   0  0  0  0  0  0  0  0  0  0  0  0
   -1.2883    8.7460   10.6183 O   0  0  0  0  0  0  0  0  0  0  0  0
    4.0970    2.9244   11.3290 C   0  0  2  0  0  0  0  0  0  0  0  0
    4.1461    3.4017   12.8084 C   0  0  1  0  0  0  0  0  0  0  0  0
    5.5036    4.0803   13.1497 C   0  0  2  0  0  0  0  0  0  0  0  0
    6.7017    3.1637   12.7672 C   0  0  1  0  0  0  0  0  0  0  0  0
    6.5951    2.6821   11.2934 C   0  0  1  0  0  0  0  0  0  0  0  0
    7.7064    1.6600   10.9377 C   0  0  0  0  0  0  0  0  0  0  0  0
    5.2747    2.1141   11.0378 O   0  0  0  0  0  0  0  0  0  0  0  0
    7.9967    3.8308   13.0250 N   0  0  0  0  0  0  0  0  0  0  0  0
    3.0409    4.2564   13.0960 O   0  0  0  0  0  0  0  0  0  0  0  0
    5.5610    4.4543   14.5246 O   0  0  0  0  0  0  0  0  0  0  0  0
    7.8529    0.6903   11.9700 O   0  0  0  0  0  0  0  0  0  0  0  0
   -2.0271    9.8765   10.0705 C   0  0  1  0  0  0  0  0  0  0  0  0
   -2.5745   10.8095   11.1867 C   0  0  1  0  0  0  0  0  0  0  0  0
   -3.4397   11.9533   10.5865 C   0  0  2  0  0  0  0  0  0  0  0  0
   -2.6827   12.7551    9.4785 C   0  0  1  0  0  0  0  0  0  0  0  0
   -2.0081   11.8349    8.4174 C   0  0  0  0  0  0  0  0  0  0  0  0
   -1.1686   10.6905    9.0610 C   0  0  2  0  0  0  0  0  0  0  0  0
   -3.5821   13.7340    8.8313 N   0  0  0  0  0  0  0  0  0  0  0  0
   -0.6074    9.8358    7.9924 N   0  0  0  0  0  0  0  0  0  0  0  0
   -3.3154   10.0668   12.1496 O   0  0  0  0  0  0  0  0  0  0  0  0
   -3.8898   12.8299   11.6165 O   0  0  0  0  0  0  0  0  0  0  0  0
  1  2  1  0  0  0  0
  1 16  1  1  0  0  0
  2  3  1  0  0  0  0
  2 12  1  1  0  0  0
  4 11  1  1  0  0  0
  4  3  1  0  0  0  0
  5  4  1  0  0  0  0
  5 10  1  6  0  0  0
  6  7  1  0  0  0  0
  6  5  1  0  0  0  0
  6 14  1  1  0  0  0
  7  8  1  0  0  0  0
  7 13  1  6  0  0  0
  8 15  1  1  0  0  0
  8 11  1  0  0  0  0
  9 13  1  0  0  0  0
 10  1  1  0  0  0  0
 17 15  1  6  0  0  0
 17 18  1  0  0  0  0
 18 25  1  6  0  0  0
 19 18  1  0  0  0  0
 19 26  1  1  0  0  0
 20 19  1  0  0  0  0
 20 24  1  6  0  0  0
 21 23  1  0  0  0  0
 21 20  1  0  0  0  0
 21 22  1  1  0  0  0
 23 17  1  0  0  0  0
 27 22  1  0  0  0  0
 28 29  1  0  0  0  0
 28 16  1  1  0  0  0
 29 36  1  1  0  0  0
 30 37  1  1  0  0  0
 30 29  1  0  0  0  0
 31 30  1  0  0  0  0
 31 34  1  6  0  0  0
 32 31  1  0  0  0  0
 32 33  1  0  0  0  0
 33 28  1  0  0  0  0
 33 35  1  6  0  0  0
M  END
>  <CHROM.1>
113.24844751,-171.92767985,147.53988199,172.35413945,-99.13888301,-136.10838186
-45.27150183,-179.06092464,44.71293395,172.41320752,71.15148966,129.81455790
-64.86047845,-169.02173317,67.43679873,0.48574465,1.48946675,6.53355052,10.61561178
2.95196701,0.73973041,-1.48667655

>  <Name>
lig.pdb

>  <RI>
2.86754e+07

>  <Rbt.Current_Directory>
/home/itssahil/PROJECTS/Mol_Feturizer/New_Systems/rnas/2m4q

>  <Rbt.Executable>
rbdock ($Id: //depot/dev/client3/rdock/2013.1/src/exe/rbdock.cxx#4 $)

>  <Rbt.Library>
libRbt.so (2013.1, Build901 2013/11/27)

>  <Rbt.Parameter_File>
/export/apps/rDock/src/rDock_2013.1_src/data/scripts/dock_solv.prm

>  <Rbt.Receptor>
prm/pocket_docking_5.prm

>  <SCORE>
-34.3841

>  <SCORE.INTER>
-17.9583

>  <SCORE.INTER.CONST>
1

>  <SCORE.INTER.POLAR>
-2.74242

>  <SCORE.INTER.ROT>
10

>  <SCORE.INTER.SOLV>
12.8822

>  <SCORE.INTER.VDW>
-17.3915

>  <SCORE.INTER.norm>
-0.48536

>  <SCORE.INTRA>
-16.4258

>  <SCORE.INTRA.DIHEDRAL>
-16.5542

>  <SCORE.INTRA.DIHEDRAL.0>
44.8331

>  <SCORE.INTRA.POLAR>
-2.15426

>  <SCORE.INTRA.POLAR.0>
-0.108895

>  <SCORE.INTRA.REPUL>
-0.00912235

>  <SCORE.INTRA.REPUL.0>
0.00912235

>  <SCORE.INTRA.SOLV>
0.188956

>  <SCORE.INTRA.SOLV.lig_0>
-53.9067

>  <SCORE.INTRA.VDW>
-0.873089

>  <SCORE.INTRA.VDW.0>
-2.93492

>  <SCORE.INTRA.norm>
-0.44394

>  <SCORE.RESTR>
0

>  <SCORE.RESTR.CAVITY>
0

>  <SCORE.RESTR.norm>
0

>  <SCORE.SYSTEM>
0

>  <SCORE.SYSTEM.CONST>
0

>  <SCORE.SYSTEM.DIHEDRAL>
0

>  <SCORE.SYSTEM.SOLV>
0

>  <SCORE.SYSTEM.norm>
0

>  <SCORE.heavy>
37

>  <SCORE.norm>
-0.9293

>  <RMSD>
1.844

$$$$
lig.pdb
 OpenBabel11021811453D
libRbt.so/2013.1/901 2013/11/27
 37 40  0  0  0  0  0  0  0  0999 V2000
   -2.7095    7.5268   11.7163 C   0  0  2  0  0  0  0  0  0  0  0  0
   -2.4357    6.7753   13.0607 C   0  0  1  0  0  0  0  0  0  0  0  0
   -0.9397    6.3921   13.2579 C   0  0  0  0  0  0  0  0  0  0  0  0
   -0.3706    5.6993   11.9948 C   0  0  1  0  0  0  0  0  0  0  0  0
   -0.5781    6.6042   10.7597 C   0  0  1  0  0  0  0  0  0  0  0  0
    0.0256    5.9544    9.4857 C   0  0  1  0  0  0  0  0  0  0  0  0
    1.5172    5.5671    9.7132 C   0  0  1  0  0  0  0  0  0  0  0  0
    1.7101    4.7250   11.0093 C   0  0  2  0  0  0  0  0  0  0  0  0
    3.4821    5.0394    8.3441 C   0  0  0  0  0  0  0  0  0  0  0  0
   -1.9906    6.9194   10.5941 O   0  0  0  0  0  0  0  0  0  0  0  0
    1.0313    5.3349   12.1499 O   0  0  0  0  0  0  0  0  0  0  0  0
   -2.8897    7.6048   14.1980 N   0  0  0  0  0  0  0  0  0  0  0  0
    2.0237    4.8646    8.5161 N   0  0  0  0  0  0  0  0  0  0  0  0
   -0.7400    4.8322    9.0661 O   0  0  0  0  0  0  0  0  0  0  0  0
    3.1283    4.5271   11.2811 O   0  0  0  0  0  0  0  0  0  0  0  0
   -2.3781    8.9447   11.8271 O   0  0  0  0  0  0  0  0  0  0  0  0
    3.5123    3.8266   12.5042 C   0  0  2  0  0  0  0  0  0  0  0  0
    4.8425    4.3934   13.0768 C   0  0  1  0  0  0  0  0  0  0  0  0
    6.0611    4.0106   12.1889 C   0  0  2  0  0  0  0  0  0  0  0  0
    6.1131    2.4756   11.9379 C   0  0  1  0  0  0  0  0  0  0  0  0
    4.7546    1.9459   11.3998 C   0  0  1  0  0  0  0  0  0  0  0  0
    4.7464    0.3998   11.2739 C   0  0  0  0  0  0  0  0  0  0  0  0
    3.6587    2.3971   12.2522 O   0  0  0  0  0  0  0  0  0  0  0  0
    7.2292    2.1125   11.0375 N   0  0  0  0  0  0  0  0  0  0  0  0
    4.7469    5.8044   13.2631 O   0  0  0  0  0  0  0  0  0  0  0  0
    7.2811    4.4799   12.7586 O   0  0  0  0  0  0  0  0  0  0  0  0
    4.5407   -0.2113   12.5433 O   0  0  0  0  0  0  0  0  0  0  0  0
   -3.1265    9.8819   10.9992 C   0  0  1  0  0  0  0  0  0  0  0  0
   -3.2439   11.2813   11.6656 C   0  0  1  0  0  0  0  0  0  0  0  0
   -4.1264   12.2357   10.8127 C   0  0  2  0  0  0  0  0  0  0  0  0
   -3.6365   12.3366    9.3316 C   0  0  1  0  0  0  0  0  0  0  0  0
   -3.3811   10.9442    8.6808 C   0  0  0  0  0  0  0  0  0  0  0  0
   -2.5109   10.0123    9.5771 C   0  0  2  0  0  0  0  0  0  0  0  0
   -4.5811   13.1326    8.5191 N   0  0  0  0  0  0  0  0  0  0  0  0
   -2.3594    8.6990    8.9141 N   0  0  0  0  0  0  0  0  0  0  0  0
   -3.7533   11.1704   12.9906 O   0  0  0  0  0  0  0  0  0  0  0  0
   -4.1806   13.5293   11.4089 O   0  0  0  0  0  0  0  0  0  0  0  0
  1  2  1  0  0  0  0
  1 16  1  1  0  0  0
  2  3  1  0  0  0  0
  2 12  1  1  0  0  0
  4 11  1  1  0  0  0
  4  3  1  0  0  0  0
  5  4  1  0  0  0  0
  5 10  1  6  0  0  0
  6  7  1  0  0  0  0
  6  5  1  0  0  0  0
  6 14  1  1  0  0  0
  7  8  1  0  0  0  0
  7 13  1  6  0  0  0
  8 15  1  1  0  0  0
  8 11  1  0  0  0  0
  9 13  1  0  0  0  0
 10  1  1  0  0  0  0
 17 15  1  6  0  0  0
 17 18  1  0  0  0  0
 18 25  1  6  0  0  0
 19 18  1  0  0  0  0
 19 26  1  1  0  0  0
 20 19  1  0  0  0  0
 20 24  1  6  0  0  0
 21 23  1  0  0  0  0
 21 20  1  0  0  0  0
 21 22  1  1  0  0  0
 23 17  1  0  0  0  0
 27 22  1  0  0  0  0
 28 29  1  0  0  0  0
 28 16  1  1  0  0  0
 29 36  1  1  0  0  0
 30 37  1  1  0  0  0
 30 29  1  0  0  0  0
 31 30  1  0  0  0  0
 31 34  1  6  0  0  0
 32 31  1  0  0  0  0
 32 33  1  0  0  0  0
 33 28  1  0  0  0  0
 33 35  1  6  0  0  0
M  END
>  <CHROM.1>
-41.94756958,176.35325013,152.23287102,160.70412784,-146.03091445,-150.57321342
-170.25237762,-175.87570230,78.77058685,74.05327540,-165.57701144,150.63430031
74.90606340,-161.90280547,81.70231964,-170.40967340,0.58227582,6.53383140
11.20520413,3.03437845,0.76063189,-1.54857152

>  <Name>
lig.pdb

>  <RI>
0

>  <Rbt.Current_Directory>
/home/itssahil/PROJECTS/Mol_Feturizer/New_Systems/rnas/2m4q

>  <Rbt.Executable>
rbdock ($Id: //depot/dev/client3/rdock/2013.1/src/exe/rbdock.cxx#4 $)

>  <Rbt.Library>
libRbt.so (2013.1, Build901 2013/11/27)

>  <Rbt.Parameter_File>
/export/apps/rDock/src/rDock_2013.1_src/data/scripts/dock_solv.prm

>  <Rbt.Receptor>
prm/pocket_docking_7.prm

>  <SCORE>
-43.7009

>  <SCORE.INTER>
-32.0935

>  <SCORE.INTER.CONST>
1

>  <SCORE.INTER.POLAR>
-5.20748

>  <SCORE.INTER.ROT>
10

>  <SCORE.INTER.SOLV>
17.7025

>  <SCORE.INTER.VDW>
-20.2049

>  <SCORE.INTER.norm>
-0.867393

>  <SCORE.INTRA>
-11.6074

>  <SCORE.INTRA.DIHEDRAL>
-23.2727

>  <SCORE.INTRA.DIHEDRAL.0>
44.8331

>  <SCORE.INTRA.POLAR>
-0.0504845

>  <SCORE.INTRA.POLAR.0>
-0.108895

>  <SCORE.INTRA.REPUL>
0.141855

>  <SCORE.INTRA.REPUL.0>
0.00912235

>  <SCORE.INTRA.SOLV>
-1.06914

>  <SCORE.INTRA.SOLV.lig_0>
-53.9067

>  <SCORE.INTRA.VDW>
0.0258802

>  <SCORE.INTRA.VDW.0>
-2.93492

>  <SCORE.INTRA.norm>
-0.313714

>  <SCORE.RESTR>
0

>  <SCORE.RESTR.CAVITY>
0

>  <SCORE.RESTR.norm>
0

>  <SCORE.SYSTEM>
0

>  <SCORE.SYSTEM.CONST>
0

>  <SCORE.SYSTEM.DIHEDRAL>
0

>  <SCORE.SYSTEM.SOLV>
0

>  <SCORE.SYSTEM.norm>
0

>  <SCORE.heavy>
37

>  <SCORE.norm>
-1.18111

>  <RMSD>
1.895

$$$$
lig.pdb
 OpenBabel11021811453D
libRbt.so/2013.1/901 2013/11/27
 37 40  0  0  0  0  0  0  0  0999 V2000
   -1.3174    6.5530    9.6685 C   0  0  2  0  0  0  0  0  0  0  0  0
   -1.2175    5.8006   11.0363 C   0  0  1  0  0  0  0  0  0  0  0  0
    0.2266    5.7684   11.6170 C   0  0  0  0  0  0  0  0  0  0  0  0
    1.2483    5.3136   10.5454 C   0  0  1  0  0  0  0  0  0  0  0  0
    1.1454    6.2233    9.3007 C   0  0  1  0  0  0  0  0  0  0  0  0
    2.1917    5.8191    8.2276 C   0  0  1  0  0  0  0  0  0  0  0  0
    3.6250    5.7799    8.8364 C   0  0  1  0  0  0  0  0  0  0  0  0
    3.6835    4.9236   10.1362 C   0  0  2  0  0  0  0  0  0  0  0  0
    5.9659    5.6968    8.1103 C   0  0  0  0  0  0  0  0  0  0  0  0
   -0.2120    6.2071    8.7722 O   0  0  0  0  0  0  0  0  0  0  0  0
    2.6103    5.2802   11.0609 O   0  0  0  0  0  0  0  0  0  0  0  0
   -2.1331    6.4233   12.0169 N   0  0  0  0  0  0  0  0  0  0  0  0
    4.5738    5.2966    7.8120 N   0  0  0  0  0  0  0  0  0  0  0  0
    1.8557    4.5781    7.6203 O   0  0  0  0  0  0  0  0  0  0  0  0
    4.9907    5.0479   10.7690 O   0  0  0  0  0  0  0  0  0  0  0  0
   -1.3819    7.9987    9.8648 O   0  0  0  0  0  0  0  0  0  0  0  0
    5.2610    4.2615   11.9700 C   0  0  2  0  0  0  0  0  0  0  0  0
    6.7233    4.4713   12.4561 C   0  0  1  0  0  0  0  0  0  0  0  0
    7.7503    3.8044   11.4968 C   0  0  2  0  0  0  0  0  0  0  0  0
    7.4006    2.3079   11.2519 C   0  0  1  0  0  0  0  0  0  0  0  0
    5.9225    2.1407   10.8017 C   0  0  1  0  0  0  0  0  0  0  0  0
    5.5194    0.6472   10.6853 C   0  0  0  0  0  0  0  0  0  0  0  0
    5.0289    2.8434   11.7176 O   0  0  0  0  0  0  0  0  0  0  0  0
    8.3329    1.6858   10.2862 N   0  0  0  0  0  0  0  0  0  0  0  0
    6.9958    5.8593   12.6399 O   0  0  0  0  0  0  0  0  0  0  0  0
    9.0815    3.9475   11.9874 O   0  0  0  0  0  0  0  0  0  0  0  0
    6.4642   -0.0735    9.9010 O   0  0  0  0  0  0  0  0  0  0  0  0
   -2.2534    8.7638    8.9822 C   0  0  1  0  0  0  0  0  0  0  0  0
   -2.8068   10.0405    9.6750 C   0  0  1  0  0  0  0  0  0  0  0  0
   -3.8086   10.7895    8.7516 C   0  0  2  0  0  0  0  0  0  0  0  0
   -3.2012   11.1076    7.3466 C   0  0  1  0  0  0  0  0  0  0  0  0
   -2.5190    9.8720    6.6866 C   0  0  0  0  0  0  0  0  0  0  0  0
   -1.5398    9.1389    7.6522 C   0  0  2  0  0  0  0  0  0  0  0  0
   -4.2254   11.6853    6.4503 N   0  0  0  0  0  0  0  0  0  0  0  0
   -0.9766    7.9537    6.9699 N   0  0  0  0  0  0  0  0  0  0  0  0
   -3.4129    9.7178   10.9223 O   0  0  0  0  0  0  0  0  0  0  0  0
   -4.2659   11.9848    9.3791 O   0  0  0  0  0  0  0  0  0  0  0  0
  1  2  1  0  0  0  0
  1 16  1  1  0  0  0
  2  3  1  0  0  0  0
  2 12  1  1  0  0  0
  4 11  1  1  0  0  0
  4  3  1  0  0  0  0
  5  4  1  0  0  0  0
  5 10  1  6  0  0  0
  6  7  1  0  0  0  0
  6  5  1  0  0  0  0
  6 14  1  1  0  0  0
  7  8  1  0  0  0  0
  7 13  1  6  0  0  0
  8 15  1  1  0  0  0
  8 11  1  0  0  0  0
  9 13  1  0  0  0  0
 10  1  1  0  0  0  0
 17 15  1  6  0  0  0
 17 18  1  0  0  0  0
 18 25  1  6  0  0  0
 19 18  1  0  0  0  0
 19 26  1  1  0  0  0
 20 19  1  0  0  0  0
 20 24  1  6  0  0  0
 21 23  1  0  0  0  0
 21 20  1  0  0  0  0
 21 22  1  1  0  0  0
 23 17  1  0  0  0  0
 27 22  1  0  0  0  0
 28 29  1  0  0  0  0
 28 16  1  1  0  0  0
 29 36  1  1  0  0  0
 30 37  1  1  0  0  0
 30 29  1  0  0  0  0
 31 30  1  0  0  0  0
 31 34  1  6  0  0  0
 32 31  1  0  0  0  0
 32 33  1  0  0  0  0
 33 28  1  0  0  0  0
 33 35  1  6  0  0  0
M  END
>  <CHROM.1>
-165.51248055,-176.96781285,158.56596740,154.33704354,177.12606950,-142.19414422
-53.63457772,-176.85336914,-50.65733393,-176.41655175,-67.34049773,150.51819019
-59.55429310,-60.29870433,56.88813100,-52.04614142,1.95329393,6.08282396
9.82488338,2.80840647,0.55182229,-1.31155135

>  <Name>
lig.pdb

>  <RI>
3.87352e+07

>  <Rbt.Current_Directory>
/home/itssahil/PROJECTS/Mol_Feturizer/New_Systems/rnas/2m4q

>  <Rbt.Executable>
rbdock ($Id: //depot/dev/client3/rdock/2013.1/src/exe/rbdock.cxx#4 $)

>  <Rbt.Library>
libRbt.so (2013.1, Build901 2013/11/27)

>  <Rbt.Parameter_File>
/export/apps/rDock/src/rDock_2013.1_src/data/scripts/dock_solv.prm

>  <Rbt.Receptor>
prm/pocket_docking_4.prm

>  <SCORE>
-43.146

>  <SCORE.INTER>
-23.1038

>  <SCORE.INTER.CONST>
1

>  <SCORE.INTER.POLAR>
-3.20333

>  <SCORE.INTER.ROT>
10

>  <SCORE.INTER.SOLV>
16.3849

>  <SCORE.INTER.VDW>
-20.4531

>  <SCORE.INTER.norm>
-0.624426

>  <SCORE.INTRA>
-20.0423

>  <SCORE.INTRA.DIHEDRAL>
-30.9181

>  <SCORE.INTRA.DIHEDRAL.0>
44.8331

>  <SCORE.INTRA.POLAR>
-1.41568

>  <SCORE.INTRA.POLAR.0>
-0.108895

>  <SCORE.INTRA.REPUL>
-0.00912235

>  <SCORE.INTRA.REPUL.0>
0.00912235

>  <SCORE.INTRA.SOLV>
-0.666874

>  <SCORE.INTRA.SOLV.lig_0>
-53.9067

>  <SCORE.INTRA.VDW>
0.60915

>  <SCORE.INTRA.VDW.0>
-2.93492

>  <SCORE.INTRA.norm>
-0.541683

>  <SCORE.RESTR>
0

>  <SCORE.RESTR.CAVITY>
0

>  <SCORE.RESTR.norm>
0

>  <SCORE.SYSTEM>
0

>  <SCORE.SYSTEM.CONST>
0

>  <SCORE.SYSTEM.DIHEDRAL>
0

>  <SCORE.SYSTEM.SOLV>
0

>  <SCORE.SYSTEM.norm>
0

>  <SCORE.heavy>
37

>  <SCORE.norm>
-1.16611

>  <RMSD>
1.901

$$$$
lig.pdb
 OpenBabel11021811453D
libRbt.so/2013.1/901 2013/11/27
 37 40  0  0  0  0  0  0  0  0999 V2000
   -2.4030    8.0893    9.0715 C   0  0  2  0  0  0  0  0  0  0  0  0
   -2.6940    7.5820   10.5223 C   0  0  1  0  0  0  0  0  0  0  0  0
   -1.4038    7.2616   11.3326 C   0  0  0  0  0  0  0  0  0  0  0  0
   -0.4363    6.3732   10.5119 C   0  0  1  0  0  0  0  0  0  0  0  0
   -0.1174    7.0513    9.1607 C   0  0  1  0  0  0  0  0  0  0  0  0
    0.8883    6.2039    8.3360 C   0  0  1  0  0  0  0  0  0  0  0  0
    2.1628    5.8846    9.1729 C   0  0  1  0  0  0  0  0  0  0  0  0
    1.8106    5.2785   10.5638 C   0  0  2  0  0  0  0  0  0  0  0  0
    4.2204    5.7165    7.8494 C   0  0  0  0  0  0  0  0  0  0  0  0
   -1.3457    7.3114    8.4219 O   0  0  0  0  0  0  0  0  0  0  0  0
    0.7835    6.0626   11.2450 O   0  0  0  0  0  0  0  0  0  0  0  0
   -3.5008    8.5856   11.2499 N   0  0  0  0  0  0  0  0  0  0  0  0
    3.0471    4.9968    8.3900 N   0  0  0  0  0  0  0  0  0  0  0  0
    0.2820    5.0146    7.8464 O   0  0  0  0  0  0  0  0  0  0  0  0
    3.0100    5.1521   11.3823 O   0  0  0  0  0  0  0  0  0  0  0  0
   -2.0670    9.5105    9.0667 O   0  0  0  0  0  0  0  0  0  0  0  0
    3.5153    3.8133   11.6761 C   0  0  2  0  0  0  0  0  0  0  0  0
    4.3769    3.8146   12.9708 C   0  0  1  0  0  0  0  0  0  0  0  0
    5.7354    4.5419   12.7576 C   0  0  2  0  0  0  0  0  0  0  0  0
    6.4924    3.9683   11.5248 C   0  0  1  0  0  0  0  0  0  0  0  0
    5.5850    3.9531   10.2631 C   0  0  1  0  0  0  0  0  0  0  0  0
    6.2784    3.2595    9.0612 C   0  0  0  0  0  0  0  0  0  0  0  0
    4.3094    3.3087   10.5612 O   0  0  0  0  0  0  0  0  0  0  0  0
    7.7526    4.7016   11.2749 N   0  0  0  0  0  0  0  0  0  0  0  0
    3.6440    4.3724   14.0599 O   0  0  0  0  0  0  0  0  0  0  0  0
    6.5428    4.4794   13.9313 O   0  0  0  0  0  0  0  0  0  0  0  0
    6.7567    1.9692    9.4271 O   0  0  0  0  0  0  0  0  0  0  0  0
   -2.7470   10.3640    8.1007 C   0  0  1  0  0  0  0  0  0  0  0  0
   -2.4567    9.9310    6.6363 C   0  0  1  0  0  0  0  0  0  0  0  0
   -3.1115   10.9107    5.6221 C   0  0  2  0  0  0  0  0  0  0  0  0
   -4.6417   11.1007    5.8794 C   0  0  1  0  0  0  0  0  0  0  0  0
   -4.9731   11.4036    7.3714 C   0  0  0  0  0  0  0  0  0  0  0  0
   -4.2806   10.4121    8.3542 C   0  0  2  0  0  0  0  0  0  0  0  0
   -5.1974   12.1459    4.9935 N   0  0  0  0  0  0  0  0  0  0  0  0
   -4.6024   10.7981    9.7452 N   0  0  0  0  0  0  0  0  0  0  0  0
   -1.0552    9.8276    6.4069 O   0  0  0  0  0  0  0  0  0  0  0  0
   -2.8816   10.4711    4.2858 O   0  0  0  0  0  0  0  0  0  0  0  0
  1  2  1  0  0  0  0
  1 16  1  1  0  0  0
  2  3  1  0  0  0  0
  2 12  1  1  0  0  0
  4 11  1  1  0  0  0
  4  3  1  0  0  0  0
  5  4  1  0  0  0  0
  5 10  1  6  0  0  0
  6  7  1  0  0  0  0
  6  5  1  0  0  0  0
  6 14  1  1  0  0  0
  7  8  1  0  0  0  0
  7 13  1  6  0  0  0
  8 15  1  1  0  0  0
  8 11  1  0  0  0  0
  9 13  1  0  0  0  0
 10  1  1  0  0  0  0
 17 15  1  6  0  0  0
 17 18  1  0  0  0  0
 18 25  1  1  0  0  0
 19 18  1  0  0  0  0
 19 26  1  1  0  0  0
 20 19  1  0  0  0  0
 20 24  1  6  0  0  0
 21 23  1  0  0  0  0
 21 20  1  0  0  0  0
 21 22  1  6  0  0  0
 23 17  1  0  0  0  0
 27 22  1  0  0  0  0
 28 29  1  0  0  0  0
 28 16  1  1  0  0  0
 29 36  1  1  0  0  0
 30 37  1  6  0  0  0
 30 29  1  0  0  0  0
 31 30  1  0  0  0  0
 31 34  1  6  0  0  0
 32 31  1  0  0  0  0
 32 33  1  0  0  0  0
 33 28  1  0  0  0  0
 33 35  1  1  0  0  0
M  END
>  <CHROM.1>
48.46087365,-110.72749746,105.20299024,48.58968245,-156.48717925,-131.76683375
-170.84081157,-177.97149361,52.44874917,-177.56742231,173.32294146,-60.93706331
-176.41444288,70.20717183,-132.13836328,161.19188987,0.77677534,6.89361295
9.42991242,2.67393873,0.54137739,-1.36590798

>  <Name>
lig.pdb

>  <RI>
0

>  <Rbt.Current_Directory>
/home/itssahil/PROJECTS/Mol_Feturizer/New_Systems/rnas/2m4q

>  <Rbt.Executable>
rbdock ($Id: //depot/dev/client3/rdock/2013.1/src/exe/rbdock.cxx#4 $)

>  <Rbt.Library>
libRbt.so (2013.1, Build901 2013/11/27)

>  <Rbt.Parameter_File>
/export/apps/rDock/src/rDock_2013.1_src/data/scripts/dock_solv.prm

>  <Rbt.Receptor>
prm/pocket_docking_3.prm

>  <SCORE>
-43.2899

>  <SCORE.INTER>
-28.3297

>  <SCORE.INTER.CONST>
1

>  <SCORE.INTER.POLAR>
-3.73661

>  <SCORE.INTER.ROT>
10

>  <SCORE.INTER.SOLV>
17.3076

>  <SCORE.INTER.VDW>
-22.467

>  <SCORE.INTER.norm>
-0.765668

>  <SCORE.INTRA>
-15.0744

>  <SCORE.INTRA.DIHEDRAL>
-21.856

>  <SCORE.INTRA.DIHEDRAL.0>
44.8331

>  <SCORE.INTRA.POLAR>
-1.16491

>  <SCORE.INTRA.POLAR.0>
-0.108895

>  <SCORE.INTRA.REPUL>
-0.00798813

>  <SCORE.INTRA.REPUL.0>
0.00912235

>  <SCORE.INTRA.SOLV>
0.273982

>  <SCORE.INTRA.SOLV.lig_0>
-53.9067

>  <SCORE.INTRA.VDW>
-0.282759

>  <SCORE.INTRA.VDW.0>
-2.93492

>  <SCORE.INTRA.norm>
-0.407416

>  <SCORE.RESTR>
0.114154

>  <SCORE.RESTR.CAVITY>
0.114154

>  <SCORE.RESTR.norm>
0.00308525

>  <SCORE.SYSTEM>
0

>  <SCORE.SYSTEM.CONST>
0

>  <SCORE.SYSTEM.DIHEDRAL>
0

>  <SCORE.SYSTEM.SOLV>
0

>  <SCORE.SYSTEM.norm>
0

>  <SCORE.heavy>
37

>  <SCORE.norm>
-1.17

>  <RMSD>
1.937

$$$$
lig.pdb
 OpenBabel11021811453D
libRbt.so/2013.1/901 2013/11/27
 37 40  0  0  0  0  0  0  0  0999 V2000
   -2.1137    7.7689    9.1539 C   0  0  2  0  0  0  0  0  0  0  0  0
   -2.4931    7.2281   10.5719 C   0  0  1  0  0  0  0  0  0  0  0  0
   -1.2557    6.8501   11.4378 C   0  0  0  0  0  0  0  0  0  0  0  0
   -0.2693    5.9600   10.6418 C   0  0  1  0  0  0  0  0  0  0  0  0
    0.1371    6.6678    9.3299 C   0  0  1  0  0  0  0  0  0  0  0  0
    1.1630    5.8178    8.5332 C   0  0  1  0  0  0  0  0  0  0  0  0
    2.3833    5.4405    9.4249 C   0  0  1  0  0  0  0  0  0  0  0  0
    1.9434    4.8044   10.7769 C   0  0  2  0  0  0  0  0  0  0  0  0
    4.3902    5.2978    8.0228 C   0  0  0  0  0  0  0  0  0  0  0  0
   -1.0438    6.9818    8.5368 O   0  0  0  0  0  0  0  0  0  0  0  0
    0.9022    5.5959   11.4274 O   0  0  0  0  0  0  0  0  0  0  0  0
   -3.3114    8.2317   11.2866 N   0  0  0  0  0  0  0  0  0  0  0  0
    3.2848    4.5522    8.6625 N   0  0  0  0  0  0  0  0  0  0  0  0
    0.5534    4.6598    7.9775 O   0  0  0  0  0  0  0  0  0  0  0  0
    3.0947    4.6225   11.6522 O   0  0  0  0  0  0  0  0  0  0  0  0
   -1.7421    9.1801    9.2092 O   0  0  0  0  0  0  0  0  0  0  0  0
    3.6186    3.2723   11.8428 C   0  0  2  0  0  0  0  0  0  0  0  0
    4.3865    3.1576   13.1904 C   0  0  1  0  0  0  0  0  0  0  0  0
    5.7338    3.9343   13.1533 C   0  0  2  0  0  0  0  0  0  0  0  0
    6.5928    3.5107   11.9267 C   0  0  1  0  0  0  0  0  0  0  0  0
    5.7775    3.6070   10.6071 C   0  0  1  0  0  0  0  0  0  0  0  0
    6.5747    3.0594    9.3942 C   0  0  0  0  0  0  0  0  0  0  0  0
    4.5043    2.9057   10.7431 O   0  0  0  0  0  0  0  0  0  0  0  0
    7.8446    4.2950   11.8466 N   0  0  0  0  0  0  0  0  0  0  0  0
    3.5620    3.5811   14.2745 O   0  0  0  0  0  0  0  0  0  0  0  0
    6.4580    3.7676   14.3703 O   0  0  0  0  0  0  0  0  0  0  0  0
    6.8909    1.6829    9.5748 O   0  0  0  0  0  0  0  0  0  0  0  0
   -2.4022   10.0911    8.2828 C   0  0  1  0  0  0  0  0  0  0  0  0
   -2.2332    9.6409    6.8047 C   0  0  1  0  0  0  0  0  0  0  0  0
   -2.8604   10.6758    5.8286 C   0  0  2  0  0  0  0  0  0  0  0  0
   -4.3521   10.9922    6.1727 C   0  0  1  0  0  0  0  0  0  0  0  0
   -4.5714   11.3161    7.6809 C   0  0  0  0  0  0  0  0  0  0  0  0
   -3.9094   10.2664    8.6236 C   0  0  2  0  0  0  0  0  0  0  0  0
   -4.8680   12.0836    5.3190 N   0  0  0  0  0  0  0  0  0  0  0  0
   -4.1179   10.6727   10.0303 N   0  0  0  0  0  0  0  0  0  0  0  0
   -0.8606    9.4215    6.4956 O   0  0  0  0  0  0  0  0  0  0  0  0
   -2.7447   10.2235    4.4818 O   0  0  0  0  0  0  0  0  0  0  0  0
  1  2  1  0  0  0  0
  1 16  1  1  0  0  0
  2  3  1  0  0  0  0
  2 12  1  1  0  0  0
  4 11  1  1  0  0  0
  4  3  1  0  0  0  0
  5  4  1  0  0  0  0
  5 10  1  6  0  0  0
  6  7  1  0  0  0  0
  6  5  1  0  0  0  0
  6 14  1  1  0  0  0
  7  8  1  0  0  0  0
  7 13  1  6  0  0  0
  8 15  1  1  0  0  0
  8 11  1  0  0  0  0
  9 13  1  0  0  0  0
 10  1  1  0  0  0  0
 17 15  1  6  0  0  0
 17 18  1  0  0  0  0
 18 25  1  1  0  0  0
 19 18  1  0  0  0  0
 19 26  1  1  0  0  0
 20 19  1  0  0  0  0
 20 24  1  6  0  0  0
 21 23  1  0  0  0  0
 21 20  1  0  0  0  0
 21 22  1  6  0  0  0
 23 17  1  0  0  0  0
 27 22  1  0  0  0  0
 28 29  1  0  0  0  0
 28 16  1  1  0  0  0
 29 36  1  6  0  0  0
 30 37  1  6  0  0  0
 30 29  1  0  0  0  0
 31 30  1  0  0  0  0
 31 34  1  6  0  0  0
 32 31  1  0  0  0  0
 32 33  1  0  0  0  0
 33 28  1  0  0  0  0
 33 35  1  1  0  0  0
M  END
>  <CHROM.1>
-91.22692009,-105.70615150,96.06180633,45.83188115,-155.82239246,-128.54626389
-56.98660656,-59.54513154,61.27659109,-62.34160703,170.52888953,-55.75279574
-60.36319496,67.50399256,-62.96404291,41.12306569,0.97443504,6.52027502,9.66360446
2.63621353,0.55586582,-1.32677340

>  <Name>
lig.pdb

>  <RI>
0

>  <Rbt.Current_Directory>
/home/itssahil/PROJECTS/Mol_Feturizer/New_Systems/rnas/2m4q

>  <Rbt.Executable>
rbdock ($Id: //depot/dev/client3/rdock/2013.1/src/exe/rbdock.cxx#4 $)

>  <Rbt.Library>
libRbt.so (2013.1, Build901 2013/11/27)

>  <Rbt.Parameter_File>
/export/apps/rDock/src/rDock_2013.1_src/data/scripts/dock_solv.prm

>  <Rbt.Receptor>
prm/pocket_docking_3.prm

>  <SCORE>
-41.5461

>  <SCORE.INTER>
-23.1968

>  <SCORE.INTER.CONST>
1

>  <SCORE.INTER.POLAR>
-2.55798

>  <SCORE.INTER.ROT>
10

>  <SCORE.INTER.SOLV>
17.0526

>  <SCORE.INTER.VDW>
-22.8888

>  <SCORE.INTER.norm>
-0.626942

>  <SCORE.INTRA>
-18.3492

>  <SCORE.INTRA.DIHEDRAL>
-23.781

>  <SCORE.INTRA.DIHEDRAL.0>
44.8331

>  <SCORE.INTRA.POLAR>
-1.64532

>  <SCORE.INTRA.POLAR.0>
-0.108895

>  <SCORE.INTRA.REPUL>
-0.00912235

>  <SCORE.INTRA.REPUL.0>
0.00912235

>  <SCORE.INTRA.SOLV>
0.206226

>  <SCORE.INTRA.SOLV.lig_0>
-53.9067

>  <SCORE.INTRA.VDW>
-0.922178

>  <SCORE.INTRA.VDW.0>
-2.93492

>  <SCORE.INTRA.norm>
-0.495925

>  <SCORE.RESTR>
0

>  <SCORE.RESTR.CAVITY>
0

>  <SCORE.RESTR.norm>
0

>  <SCORE.SYSTEM>
0

>  <SCORE.SYSTEM.CONST>
0

>  <SCORE.SYSTEM.DIHEDRAL>
0

>  <SCORE.SYSTEM.SOLV>
0

>  <SCORE.SYSTEM.norm>
0

>  <SCORE.heavy>
37

>  <SCORE.norm>
-1.12287

>  <RMSD>
1.952

$$$$
lig.pdb
 OpenBabel11021811453D
libRbt.so/2013.1/901 2013/11/27
 37 40  0  0  0  0  0  0  0  0999 V2000
   -2.2034    7.9938    8.9222 C   0  0  2  0  0  0  0  0  0  0  0  0
   -2.5115    7.3000   10.2900 C   0  0  1  0  0  0  0  0  0  0  0  0
   -1.2321    6.9566   11.1079 C   0  0  0  0  0  0  0  0  0  0  0  0
   -0.1863    6.2286   10.2274 C   0  0  1  0  0  0  0  0  0  0  0  0
    0.1361    7.0813    8.9798 C   0  0  1  0  0  0  0  0  0  0  0  0
    1.2178    6.3966    8.1018 C   0  0  1  0  0  0  0  0  0  0  0  0
    2.4806    6.0501    8.9456 C   0  0  1  0  0  0  0  0  0  0  0  0
    2.1192    5.2622   10.2397 C   0  0  2  0  0  0  0  0  0  0  0  0
    4.8418    5.5458    8.5164 C   0  0  0  0  0  0  0  0  0  0  0  0
   -1.0803    7.3597    8.2282 O   0  0  0  0  0  0  0  0  0  0  0  0
    1.0249    5.9003   10.9671 O   0  0  0  0  0  0  0  0  0  0  0  0
   -3.4009    8.1623   11.0982 N   0  0  0  0  0  0  0  0  0  0  0  0
    3.4421    5.3136    8.0993 N   0  0  0  0  0  0  0  0  0  0  0  0
    0.7006    5.2431    7.4510 O   0  0  0  0  0  0  0  0  0  0  0  0
    3.2962    5.1050   11.0851 O   0  0  0  0  0  0  0  0  0  0  0  0
   -1.9533    9.4217    9.0992 O   0  0  0  0  0  0  0  0  0  0  0  0
    3.4288    3.8832   11.8748 C   0  0  2  0  0  0  0  0  0  0  0  0
    4.3298    4.1196   13.1201 C   0  0  1  0  0  0  0  0  0  0  0  0
    5.8217    4.3115   12.7234 C   0  0  2  0  0  0  0  0  0  0  0  0
    6.3196    3.1409   11.8268 C   0  0  1  0  0  0  0  0  0  0  0  0
    5.3728    2.9169   10.6149 C   0  0  1  0  0  0  0  0  0  0  0  0
    5.7784    1.6687    9.7879 C   0  0  0  0  0  0  0  0  0  0  0  0
    3.9881    2.8068   11.0643 O   0  0  0  0  0  0  0  0  0  0  0  0
    7.7168    3.3520   11.3888 N   0  0  0  0  0  0  0  0  0  0  0  0
    3.8424    5.2169   13.8902 O   0  0  0  0  0  0  0  0  0  0  0  0
    6.6461    4.4620   13.8771 O   0  0  0  0  0  0  0  0  0  0  0  0
    5.4137    0.4708   10.4658 O   0  0  0  0  0  0  0  0  0  0  0  0
   -2.6407   10.3455    8.2059 C   0  0  1  0  0  0  0  0  0  0  0  0
   -2.6160    9.8554    6.7310 C   0  0  1  0  0  0  0  0  0  0  0  0
   -3.2686   10.9001    5.7824 C   0  0  2  0  0  0  0  0  0  0  0  0
   -4.7095   11.3007    6.2375 C   0  0  1  0  0  0  0  0  0  0  0  0
   -4.7881   11.6680    7.7497 C   0  0  0  0  0  0  0  0  0  0  0  0
   -4.1043   10.6060    8.6625 C   0  0  2  0  0  0  0  0  0  0  0  0
   -5.2384   12.3987    5.4005 N   0  0  0  0  0  0  0  0  0  0  0  0
   -4.1764   11.0528   10.0705 N   0  0  0  0  0  0  0  0  0  0  0  0
   -1.2860    9.5585    6.3180 O   0  0  0  0  0  0  0  0  0  0  0  0
   -3.2863   10.4135    4.4428 O   0  0  0  0  0  0  0  0  0  0  0  0
  1  2  1  0  0  0  0
  1 16  1  1  0  0  0
  2  3  1  0  0  0  0
  2 12  1  1  0  0  0
  4 11  1  1  0  0  0
  4  3  1  0  0  0  0
  5  4  1  0  0  0  0
  5 10  1  6  0  0  0
  6  7  1  0  0  0  0
  6  5  1  0  0  0  0
  6 14  1  1  0  0  0
  7  8  1  0  0  0  0
  7 13  1  6  0  0  0
  8 15  1  1  0  0  0
  8 11  1  0  0  0  0
  9 13  1  0  0  0  0
 10  1  1  0  0  0  0
 17 15  1  6  0  0  0
 17 18  1  0  0  0  0
 18 25  1  6  0  0  0
 19 18  1  0  0  0  0
 19 26  1  1  0  0  0
 20 19  1  0  0  0  0
 20 24  1  6  0  0  0
 21 23  1  0  0  0  0
 21 20  1  0  0  0  0
 21 22  1  1  0  0  0
 23 17  1  0  0  0  0
 27 22  1  0  0  0  0
 28 29  1  0  0  0  0
 28 16  1  1  0  0  0
 29 36  1  6  0  0  0
 30 37  1  6  0  0  0
 30 29  1  0  0  0  0
 31 30  1  0  0  0  0
 31 34  1  6  0  0  0
 32 31  1  0  0  0  0
 32 33  1  0  0  0  0
 33 28  1  0  0  0  0
 33 35  1  1  0  0  0
M  END
>  <CHROM.1>
165.84604173,-146.22800205,150.48237913,-59.24989455,-155.21054698,-132.34726448
174.22427711,-60.13518701,74.85369029,-56.76733514,-175.87073873,-43.62436307
-54.90717304,67.22182433,-48.05470839,-69.55156270,0.82286322,6.72955398
9.51191085,2.75032632,0.64738571,-1.50845706

>  <Name>
lig.pdb

>  <RI>
0

>  <Rbt.Current_Directory>
/home/itssahil/PROJECTS/Mol_Feturizer/New_Systems/rnas/2m4q

>  <Rbt.Executable>
rbdock ($Id: //depot/dev/client3/rdock/2013.1/src/exe/rbdock.cxx#4 $)

>  <Rbt.Library>
libRbt.so (2013.1, Build901 2013/11/27)

>  <Rbt.Parameter_File>
/export/apps/rDock/src/rDock_2013.1_src/data/scripts/dock_solv.prm

>  <Rbt.Receptor>
prm/pocket_docking_2.prm

>  <SCORE>
-36.3178

>  <SCORE.INTER>
-21.8909

>  <SCORE.INTER.CONST>
1

>  <SCORE.INTER.POLAR>
-2.10352

>  <SCORE.INTER.ROT>
10

>  <SCORE.INTER.SOLV>
17.8042

>  <SCORE.INTER.VDW>
-23.7836

>  <SCORE.INTER.norm>
-0.591647

>  <SCORE.INTRA>
-16.3395

>  <SCORE.INTRA.DIHEDRAL>
-26.6316

>  <SCORE.INTRA.DIHEDRAL.0>
44.8331

>  <SCORE.INTRA.POLAR>
-0.838257

>  <SCORE.INTRA.POLAR.0>
-0.108895

>  <SCORE.INTRA.REPUL>
0.0317472

>  <SCORE.INTRA.REPUL.0>
0.00912235

>  <SCORE.INTRA.SOLV>
-0.457388

>  <SCORE.INTRA.SOLV.lig_0>
-53.9067

>  <SCORE.INTRA.VDW>
-0.103638

>  <SCORE.INTRA.VDW.0>
-2.93492

>  <SCORE.INTRA.norm>
-0.441608

>  <SCORE.RESTR>
1.91263

>  <SCORE.RESTR.CAVITY>
1.91263

>  <SCORE.RESTR.norm>
0.0516927

>  <SCORE.SYSTEM>
0

>  <SCORE.SYSTEM.CONST>
0

>  <SCORE.SYSTEM.DIHEDRAL>
0

>  <SCORE.SYSTEM.SOLV>
0

>  <SCORE.SYSTEM.norm>
0

>  <SCORE.heavy>
37

>  <SCORE.norm>
-0.981562

>  <RMSD>
1.994

$$$$
lig.pdb
 OpenBabel11021811453D
libRbt.so/2013.1/901 2013/11/27
 37 40  0  0  0  0  0  0  0  0999 V2000
   -2.0672    7.3949    8.9146 C   0  0  2  0  0  0  0  0  0  0  0  0
   -2.3081    6.8292   10.3530 C   0  0  1  0  0  0  0  0  0  0  0  0
   -0.9902    6.5536   11.1346 C   0  0  0  0  0  0  0  0  0  0  0  0
    0.0098    5.7431   10.2731 C   0  0  1  0  0  0  0  0  0  0  0  0
    0.2711    6.4777    8.9392 C   0  0  1  0  0  0  0  0  0  0  0  0
    1.3070    5.7103    8.0745 C   0  0  1  0  0  0  0  0  0  0  0  0
    2.6096    5.4341    8.8829 C   0  0  1  0  0  0  0  0  0  0  0  0
    2.3118    4.7684   10.2593 C   0  0  2  0  0  0  0  0  0  0  0  0
    4.9451    4.9598    8.3049 C   0  0  0  0  0  0  0  0  0  0  0  0
   -0.9807    6.6943    8.2263 O   0  0  0  0  0  0  0  0  0  0  0  0
    1.2557    5.4759   10.9789 O   0  0  0  0  0  0  0  0  0  0  0  0
   -3.1551    7.7660   11.1227 N   0  0  0  0  0  0  0  0  0  0  0  0
    3.5270    4.6187    8.0605 N   0  0  0  0  0  0  0  0  0  0  0  0
    0.7566    4.5058    7.5570 O   0  0  0  0  0  0  0  0  0  0  0  0
    3.5290    4.6814   11.0564 O   0  0  0  0  0  0  0  0  0  0  0  0
   -1.8067    8.8314    8.9491 O   0  0  0  0  0  0  0  0  0  0  0  0
    3.4416    4.1218   12.4029 C   0  0  2  0  0  0  0  0  0  0  0  0
    3.7850    5.1943   13.4755 C   0  0  1  0  0  0  0  0  0  0  0  0
    5.2979    5.5562   13.4642 C   0  0  2  0  0  0  0  0  0  0  0  0
    6.1816    4.2802   13.5767 C   0  0  1  0  0  0  0  0  0  0  0  0
    5.7825    3.2222   12.5104 C   0  0  1  0  0  0  0  0  0  0  0  0
    6.5603    1.8930   12.6960 C   0  0  0  0  0  0  0  0  0  0  0  0
    4.3426    2.9832   12.5447 O   0  0  0  0  0  0  0  0  0  0  0  0
    7.6213    4.6108   13.4968 N   0  0  0  0  0  0  0  0  0  0  0  0
    2.9641    6.3490   13.3101 O   0  0  0  0  0  0  0  0  0  0  0  0
    5.6114    6.4910   14.4943 O   0  0  0  0  0  0  0  0  0  0  0  0
    6.2620    0.9797   11.6452 O   0  0  0  0  0  0  0  0  0  0  0  0
   -1.8708    9.5618    7.6896 C   0  0  1  0  0  0  0  0  0  0  0  0
   -2.7483   10.8398    7.8023 C   0  0  1  0  0  0  0  0  0  0  0  0
   -2.8824   11.5506    6.4261 C   0  0  2  0  0  0  0  0  0  0  0  0
   -1.4944   11.8544    5.7741 C   0  0  1  0  0  0  0  0  0  0  0  0
   -0.5427   10.6207    5.7704 C   0  0  0  0  0  0  0  0  0  0  0  0
   -0.4537    9.9261    7.1627 C   0  0  2  0  0  0  0  0  0  0  0  0
   -1.6627   12.3940    4.4079 N   0  0  0  0  0  0  0  0  0  0  0  0
    0.4240    8.7400    7.0618 N   0  0  0  0  0  0  0  0  0  0  0  0
   -4.0305   10.5284    8.3377 O   0  0  0  0  0  0  0  0  0  0  0  0
   -3.6446   12.7480    6.5564 O   0  0  0  0  0  0  0  0  0  0  0  0
  1  2  1  0  0  0  0
  1 16  1  1  0  0  0
  2  3  1  0  0  0  0
  2 12  1  1  0  0  0
  4 11  1  1  0  0  0
  4  3  1  0  0  0  0
  5  4  1  0  0  0  0
  5 10  1  6  0  0  0
  6  7  1  0  0  0  0
  6  5  1  0  0  0  0
  6 14  1  1  0  0  0
  7  8  1  0  0  0  0
  7 13  1  6  0  0  0
  8 15  1  1  0  0  0
  8 11  1  0  0  0  0
  9 13  1  0  0  0  0
 10  1  1  0  0  0  0
 17 15  1  6  0  0  0
 17 18  1  0  0  0  0
 18 25  1  6  0  0  0
 19 18  1  0  0  0  0
 19 26  1  1  0  0  0
 20 19  1  0  0  0  0
 20 24  1  6  0  0  0
 21 23  1  0  0  0  0
 21 20  1  0  0  0  0
 21 22  1  1  0  0  0
 23 17  1  0  0  0  0
 27 22  1  0  0  0  0
 28 29  1  0  0  0  0
 28 16  1  1  0  0  0
 29 36  1  6  0  0  0
 30 37  1  1  0  0  0
 30 29  1  0  0  0  0
 31 30  1  0  0  0  0
 31 34  1  6  0  0  0
 32 31  1  0  0  0  0
 32 33  1  0  0  0  0
 33 28  1  0  0  0  0
 33 35  1  6  0  0  0
M  END
>  <CHROM.1>
159.62780174,178.07772999,145.72634271,42.57521856,-115.20544791,-166.03118412
22.33065813,-60.30959252,-175.15820727,62.63475328,-170.27253265,130.74056778
64.66490896,-57.69692811,-179.95009938,-175.99924394,1.31067356,6.77450814
9.78809145,2.49935461,0.59315322,-1.32488982

>  <Name>
lig.pdb

>  <RI>
2.86754e+07

>  <Rbt.Current_Directory>
/home/itssahil/PROJECTS/Mol_Feturizer/New_Systems/rnas/2m4q

>  <Rbt.Executable>
rbdock ($Id: //depot/dev/client3/rdock/2013.1/src/exe/rbdock.cxx#4 $)

>  <Rbt.Library>
libRbt.so (2013.1, Build901 2013/11/27)

>  <Rbt.Parameter_File>
/export/apps/rDock/src/rDock_2013.1_src/data/scripts/dock_solv.prm

>  <Rbt.Receptor>
prm/pocket_docking_5.prm

>  <SCORE>
-37.5764

>  <SCORE.INTER>
-22.2597

>  <SCORE.INTER.CONST>
1

>  <SCORE.INTER.POLAR>
-3.50511

>  <SCORE.INTER.ROT>
10

>  <SCORE.INTER.SOLV>
13.5802

>  <SCORE.INTER.VDW>
-17.9495

>  <SCORE.INTER.norm>
-0.601614

>  <SCORE.INTRA>
-15.3167

>  <SCORE.INTRA.DIHEDRAL>
-20.7252

>  <SCORE.INTRA.DIHEDRAL.0>
44.8331

>  <SCORE.INTRA.POLAR>
-1.01

>  <SCORE.INTRA.POLAR.0>
-0.108895

>  <SCORE.INTRA.REPUL>
0.0114489

>  <SCORE.INTRA.REPUL.0>
0.00912235

>  <SCORE.INTRA.SOLV>
-1.55439

>  <SCORE.INTRA.SOLV.lig_0>
-53.9067

>  <SCORE.INTRA.VDW>
-0.80014

>  <SCORE.INTRA.VDW.0>
-2.93492

>  <SCORE.INTRA.norm>
-0.413965

>  <SCORE.RESTR>
0

>  <SCORE.RESTR.CAVITY>
0

>  <SCORE.RESTR.norm>
0

>  <SCORE.SYSTEM>
0

>  <SCORE.SYSTEM.CONST>
0

>  <SCORE.SYSTEM.DIHEDRAL>
0

>  <SCORE.SYSTEM.SOLV>
0

>  <SCORE.SYSTEM.norm>
0

>  <SCORE.heavy>
37

>  <SCORE.norm>
-1.01558

>  <RMSD>
2.016

$$$$
lig.pdb
 OpenBabel11021811453D
libRbt.so/2013.1/901 2013/11/27
 37 40  0  0  0  0  0  0  0  0999 V2000
   -2.9672    8.6505   10.1513 C   0  0  2  0  0  0  0  0  0  0  0  0
   -3.1284    8.3896   11.6852 C   0  0  1  0  0  0  0  0  0  0  0  0
   -1.7919    8.0131   12.3892 C   0  0  0  0  0  0  0  0  0  0  0  0
   -1.0470    6.8994   11.6122 C   0  0  1  0  0  0  0  0  0  0  0  0
   -0.8257    7.3378   10.1472 C   0  0  1  0  0  0  0  0  0  0  0  0
   -0.0388    6.2588    9.3559 C   0  0  1  0  0  0  0  0  0  0  0  0
    1.2858    5.8890   10.0876 C   0  0  1  0  0  0  0  0  0  0  0  0
    1.0451    5.5312   11.5844 C   0  0  2  0  0  0  0  0  0  0  0  0
    2.8377    5.2964    8.2836 C   0  0  0  0  0  0  0  0  0  0  0  0
   -2.0992    7.6566    9.5158 O   0  0  0  0  0  0  0  0  0  0  0  0
    0.2116    6.5314   12.2466 O   0  0  0  0  0  0  0  0  0  0  0  0
   -3.7135    9.5821   12.3358 N   0  0  0  0  0  0  0  0  0  0  0  0
    1.9537    4.7923    9.3567 N   0  0  0  0  0  0  0  0  0  0  0  0
   -0.8370    5.1058    9.1212 O   0  0  0  0  0  0  0  0  0  0  0  0
    2.3159    5.3584   12.2770 O   0  0  0  0  0  0  0  0  0  0  0  0
   -2.4711    9.9998    9.8946 O   0  0  0  0  0  0  0  0  0  0  0  0
    2.8155    4.0020   12.4884 C   0  0  2  0  0  0  0  0  0  0  0  0
    3.8091    3.9541   13.6838 C   0  0  1  0  0  0  0  0  0  0  0  0
    5.1553    4.6546   13.3420 C   0  0  2  0  0  0  0  0  0  0  0  0
    5.7628    4.0917   12.0244 C   0  0  1  0  0  0  0  0  0  0  0  0
    4.7268    4.1260   10.8663 C   0  0  1  0  0  0  0  0  0  0  0  0
    5.2713    3.4440    9.5838 C   0  0  0  0  0  0  0  0  0  0  0  0
    3.4741    3.5045   11.2855 O   0  0  0  0  0  0  0  0  0  0  0  0
    7.0076    4.8014   11.6566 N   0  0  0  0  0  0  0  0  0  0  0  0
    3.2099    4.5040   14.8557 O   0  0  0  0  0  0  0  0  0  0  0  0
    6.0806    4.5470   14.4216 O   0  0  0  0  0  0  0  0  0  0  0  0
    5.4335    2.0436    9.7839 O   0  0  0  0  0  0  0  0  0  0  0  0
   -3.0504   10.7330    8.7763 C   0  0  1  0  0  0  0  0  0  0  0  0
   -2.9449    9.9400    7.4436 C   0  0  1  0  0  0  0  0  0  0  0  0
   -3.4800   10.7785    6.2487 C   0  0  2  0  0  0  0  0  0  0  0  0
   -4.9291   11.3106    6.4951 C   0  0  1  0  0  0  0  0  0  0  0  0
   -5.0966   11.9933    7.8856 C   0  0  0  0  0  0  0  0  0  0  0  0
   -4.5288   11.1292    9.0517 C   0  0  2  0  0  0  0  0  0  0  0  0
   -5.3463   12.2211    5.4074 N   0  0  0  0  0  0  0  0  0  0  0  0
   -4.6788   11.8672   10.3246 N   0  0  0  0  0  0  0  0  0  0  0  0
   -1.6044    9.5216    7.2077 O   0  0  0  0  0  0  0  0  0  0  0  0
   -3.4261   10.0189    5.0438 O   0  0  0  0  0  0  0  0  0  0  0  0
  1  2  1  0  0  0  0
  1 16  1  1  0  0  0
  2  3  1  0  0  0  0
  2 12  1  1  0  0  0
  4 11  1  1  0  0  0
  4  3  1  0  0  0  0
  5  4  1  0  0  0  0
  5 10  1  6  0  0  0
  6  7  1  0  0  0  0
  6  5  1  0  0  0  0
  6 14  1  1  0  0  0
  7  8  1  0  0  0  0
  7 13  1  6  0  0  0
  8 15  1  1  0  0  0
  8 11  1  0  0  0  0
  9 13  1  0  0  0  0
 10  1  1  0  0  0  0
 17 15  1  6  0  0  0
 17 18  1  0  0  0  0
 18 25  1  1  0  0  0
 19 18  1  0  0  0  0
 19 26  1  1  0  0  0
 20 19  1  0  0  0  0
 20 24  1  6  0  0  0
 21 23  1  0  0  0  0
 21 20  1  0  0  0  0
 21 22  1  6  0  0  0
 23 17  1  0  0  0  0
 27 22  1  0  0  0  0
 28 29  1  0  0  0  0
 28 16  1  1  0  0  0
 29 36  1  6  0  0  0
 30 37  1  6  0  0  0
 30 29  1  0  0  0  0
 31 30  1  0  0  0  0
 31 34  1  6  0  0  0
 32 31  1  0  0  0  0
 32 33  1  0  0  0  0
 33 28  1  0  0  0  0
 33 35  1  1  0  0  0
M  END
>  <CHROM.1>
-61.89188224,-99.29633088,87.58370267,-170.64517297,-156.94834838,-139.46087452
-177.31598314,-177.53171642,67.27545381,173.13416815,58.40756622,-54.95495003
68.29416422,-66.50428153,63.08933495,-72.33907331,0.16312285,7.12195690,10.21456203
2.75554510,0.64344719,-1.52311801

>  <Name>
lig.pdb

>  <RI>
0

>  <Rbt.Current_Directory>
/home/itssahil/PROJECTS/Mol_Feturizer/New_Systems/rnas/2m4q

>  <Rbt.Executable>
rbdock ($Id: //depot/dev/client3/rdock/2013.1/src/exe/rbdock.cxx#4 $)

>  <Rbt.Library>
libRbt.so (2013.1, Build901 2013/11/27)

>  <Rbt.Parameter_File>
/export/apps/rDock/src/rDock_2013.1_src/data/scripts/dock_solv.prm

>  <Rbt.Receptor>
prm/pocket_docking_2.prm

>  <SCORE>
-43.0675

>  <SCORE.INTER>
-20.5498

>  <SCORE.INTER.CONST>
1

>  <SCORE.INTER.POLAR>
-2.42327

>  <SCORE.INTER.ROT>
10

>  <SCORE.INTER.SOLV>
16.5605

>  <SCORE.INTER.VDW>
-21.4092

>  <SCORE.INTER.norm>
-0.555401

>  <SCORE.INTRA>
-23.0809

>  <SCORE.INTRA.DIHEDRAL>
-28.4329

>  <SCORE.INTRA.DIHEDRAL.0>
44.8331

>  <SCORE.INTRA.POLAR>
-2.45187

>  <SCORE.INTRA.POLAR.0>
-0.108895

>  <SCORE.INTRA.REPUL>
-0.00912235

>  <SCORE.INTRA.REPUL.0>
0.00912235

>  <SCORE.INTRA.SOLV>
0.36102

>  <SCORE.INTRA.SOLV.lig_0>
-53.9067

>  <SCORE.INTRA.VDW>
-0.662949

>  <SCORE.INTRA.VDW.0>
-2.93492

>  <SCORE.INTRA.norm>
-0.623807

>  <SCORE.RESTR>
0.563187

>  <SCORE.RESTR.CAVITY>
0.563187

>  <SCORE.RESTR.norm>
0.0152213

>  <SCORE.SYSTEM>
0

>  <SCORE.SYSTEM.CONST>
0

>  <SCORE.SYSTEM.DIHEDRAL>
0

>  <SCORE.SYSTEM.SOLV>
0

>  <SCORE.SYSTEM.norm>
0

>  <SCORE.heavy>
37

>  <SCORE.norm>
-1.16399

>  <RMSD>
2.027

$$$$
lig.pdb
 OpenBabel11021811453D
libRbt.so/2013.1/901 2013/11/27
 37 40  0  0  0  0  0  0  0  0999 V2000
   -1.7632    6.6750   10.4495 C   0  0  2  0  0  0  0  0  0  0  0  0
   -1.4602    5.7769   11.6940 C   0  0  1  0  0  0  0  0  0  0  0  0
    0.0610    5.6265   11.9887 C   0  0  0  0  0  0  0  0  0  0  0  0
    0.8428    5.2499   10.7058 C   0  0  1  0  0  0  0  0  0  0  0  0
    0.5684    6.2910    9.5976 C   0  0  1  0  0  0  0  0  0  0  0  0
    1.3769    5.9638    8.3135 C   0  0  1  0  0  0  0  0  0  0  0  0
    2.8923    5.8038    8.6370 C   0  0  1  0  0  0  0  0  0  0  0  0
    3.1363    4.8115    9.8127 C   0  0  2  0  0  0  0  0  0  0  0  0
    4.1004    4.0038    7.4905 C   0  0  0  0  0  0  0  0  0  0  0  0
   -0.8611    6.3844    9.3329 O   0  0  0  0  0  0  0  0  0  0  0  0
    2.2716    5.1084   10.9519 O   0  0  0  0  0  0  0  0  0  0  0  0
   -2.1446    6.3261   12.8846 N   0  0  0  0  0  0  0  0  0  0  0  0
    3.6095    5.3966    7.4111 N   0  0  0  0  0  0  0  0  0  0  0  0
    0.8647    4.8091    7.6608 O   0  0  0  0  0  0  0  0  0  0  0  0
    4.5417    4.8163   10.1992 O   0  0  0  0  0  0  0  0  0  0  0  0
   -1.7069    8.0927   10.7953 O   0  0  0  0  0  0  0  0  0  0  0  0
    4.9228    4.1630   11.4490 C   0  0  2  0  0  0  0  0  0  0  0  0
    6.4115    4.4491   11.7960 C   0  0  1  0  0  0  0  0  0  0  0  0
    7.3804    3.7061   10.8321 C   0  0  2  0  0  0  0  0  0  0  0  0
    7.0530    2.1860   10.7681 C   0  0  1  0  0  0  0  0  0  0  0  0
    5.5500    1.9458   10.4536 C   0  0  1  0  0  0  0  0  0  0  0  0
    5.1791    0.4410   10.5210 C   0  0  0  0  0  0  0  0  0  0  0  0
    4.7099    2.7224   11.3605 O   0  0  0  0  0  0  0  0  0  0  0  0
    7.9258    1.4853    9.8008 N   0  0  0  0  0  0  0  0  0  0  0  0
    6.6603    5.8535   11.8163 O   0  0  0  0  0  0  0  0  0  0  0  0
    8.7407    3.9238   11.2004 O   0  0  0  0  0  0  0  0  0  0  0  0
    4.7009    0.0941   11.8165 O   0  0  0  0  0  0  0  0  0  0  0  0
   -2.6902    8.9783   10.1849 C   0  0  1  0  0  0  0  0  0  0  0  0
   -3.0438   10.1785   11.1072 C   0  0  1  0  0  0  0  0  0  0  0  0
   -4.1634   11.0562   10.4801 C   0  0  2  0  0  0  0  0  0  0  0  0
   -3.8140   11.5216    9.0291 C   0  0  1  0  0  0  0  0  0  0  0  0
   -3.3259   10.3550    8.1188 C   0  0  0  0  0  0  0  0  0  0  0  0
   -2.2199    9.4886    8.7932 C   0  0  2  0  0  0  0  0  0  0  0  0
   -4.9586   12.2266    8.4137 N   0  0  0  0  0  0  0  0  0  0  0  0
   -1.8504    8.3778    7.8894 N   0  0  0  0  0  0  0  0  0  0  0  0
   -3.4217    9.7271   12.4037 O   0  0  0  0  0  0  0  0  0  0  0  0
   -4.4387   12.1808   11.3114 O   0  0  0  0  0  0  0  0  0  0  0  0
  1  2  1  0  0  0  0
  1 16  1  1  0  0  0
  2  3  1  0  0  0  0
  2 12  1  1  0  0  0
  4 11  1  1  0  0  0
  4  3  1  0  0  0  0
  5  4  1  0  0  0  0
  5 10  1  6  0  0  0
  6  7  1  0  0  0  0
  6  5  1  0  0  0  0
  6 14  1  1  0  0  0
  7  8  1  0  0  0  0
  7 13  1  6  0  0  0
  8 15  1  1  0  0  0
  8 11  1  0  0  0  0
  9 13  1  0  0  0  0
 10  1  1  0  0  0  0
 17 15  1  6  0  0  0
 17 18  1  0  0  0  0
 18 25  1  6  0  0  0
 19 18  1  0  0  0  0
 19 26  1  1  0  0  0
 20 19  1  0  0  0  0
 20 24  1  6  0  0  0
 21 23  1  0  0  0  0
 21 20  1  0  0  0  0
 21 22  1  1  0  0  0
 23 17  1  0  0  0  0
 27 22  1  0  0  0  0
 28 29  1  0  0  0  0
 28 16  1  1  0  0  0
 29 36  1  1  0  0  0
 30 37  1  1  0  0  0
 30 29  1  0  0  0  0
 31 30  1  0  0  0  0
 31 34  1  6  0  0  0
 32 31  1  0  0  0  0
 32 33  1  0  0  0  0
 33 28  1  0  0  0  0
 33 35  1  6  0  0  0
M  END
>  <CHROM.1>
-177.77381430,167.78064271,-110.55807490,52.32654166,-171.64608316,-141.35219557
-51.00176095,64.28658780,93.02153288,-95.64518936,-141.13666044,149.48671919
-50.15226703,-167.11613435,-162.93422195,75.39468440,1.41210744,6.09924873
10.21346475,2.86748489,0.59645777,-1.18878101

>  <Name>
lig.pdb

>  <RI>
3.87352e+07

>  <Rbt.Current_Directory>
/home/itssahil/PROJECTS/Mol_Feturizer/New_Systems/rnas/2m4q

>  <Rbt.Executable>
rbdock ($Id: //depot/dev/client3/rdock/2013.1/src/exe/rbdock.cxx#4 $)

>  <Rbt.Library>
libRbt.so (2013.1, Build901 2013/11/27)

>  <Rbt.Parameter_File>
/export/apps/rDock/src/rDock_2013.1_src/data/scripts/dock_solv.prm

>  <Rbt.Receptor>
prm/pocket_docking_4.prm

>  <SCORE>
-43.5767

>  <SCORE.INTER>
-37.8605

>  <SCORE.INTER.CONST>
1

>  <SCORE.INTER.POLAR>
-5.05066

>  <SCORE.INTER.ROT>
10

>  <SCORE.INTER.SOLV>
19.726

>  <SCORE.INTER.VDW>
-25.2468

>  <SCORE.INTER.norm>
-1.02326

>  <SCORE.INTRA>
-5.71621

>  <SCORE.INTRA.DIHEDRAL>
-19.3212

>  <SCORE.INTRA.DIHEDRAL.0>
44.8331

>  <SCORE.INTRA.POLAR>
-0.990061

>  <SCORE.INTRA.POLAR.0>
-0.108895

>  <SCORE.INTRA.REPUL>
-0.00912235

>  <SCORE.INTRA.REPUL.0>
0.00912235

>  <SCORE.INTRA.SOLV>
-1.24275

>  <SCORE.INTRA.SOLV.lig_0>
-53.9067

>  <SCORE.INTRA.VDW>
7.97761

>  <SCORE.INTRA.VDW.0>
-2.93492

>  <SCORE.INTRA.norm>
-0.154492

>  <SCORE.RESTR>
0

>  <SCORE.RESTR.CAVITY>
0

>  <SCORE.RESTR.norm>
0

>  <SCORE.SYSTEM>
0

>  <SCORE.SYSTEM.CONST>
0

>  <SCORE.SYSTEM.DIHEDRAL>
0

>  <SCORE.SYSTEM.SOLV>
0

>  <SCORE.SYSTEM.norm>
0

>  <SCORE.heavy>
37

>  <SCORE.norm>
-1.17775

>  <RMSD>
2.029

$$$$
lig.pdb
 OpenBabel11021811453D
libRbt.so/2013.1/901 2013/11/27
 37 40  0  0  0  0  0  0  0  0999 V2000
   -2.8430    8.3961   10.5820 C   0  0  2  0  0  0  0  0  0  0  0  0
   -2.8244    8.0279   12.1023 C   0  0  1  0  0  0  0  0  0  0  0  0
   -1.4125    7.6263   12.6210 C   0  0  0  0  0  0  0  0  0  0  0  0
   -0.7523    6.5812   11.6878 C   0  0  1  0  0  0  0  0  0  0  0  0
   -0.7048    7.1227   10.2415 C   0  0  1  0  0  0  0  0  0  0  0  0
   -0.0048    6.1137    9.2919 C   0  0  1  0  0  0  0  0  0  0  0  0
    1.3983    5.7167    9.8399 C   0  0  1  0  0  0  0  0  0  0  0  0
    1.3345    5.2531   11.3255 C   0  0  2  0  0  0  0  0  0  0  0  0
    2.9494    5.2573    7.9968 C   0  0  0  0  0  0  0  0  0  0  0  0
   -2.0452    7.4628    9.7836 O   0  0  0  0  0  0  0  0  0  0  0  0
    0.5741    6.1915   12.1471 O   0  0  0  0  0  0  0  0  0  0  0  0
   -3.3410    9.1630   12.8974 N   0  0  0  0  0  0  0  0  0  0  0  0
    1.9871    4.6840    8.9624 N   0  0  0  0  0  0  0  0  0  0  0  0
   -0.8147    4.9664    9.0697 O   0  0  0  0  0  0  0  0  0  0  0  0
    2.6781    5.0544   11.8547 O   0  0  0  0  0  0  0  0  0  0  0  0
   -2.3914    9.7679   10.3656 O   0  0  0  0  0  0  0  0  0  0  0  0
    2.8966    3.9741   12.8134 C   0  0  2  0  0  0  0  0  0  0  0  0
    3.8935    4.4088   13.9251 C   0  0  1  0  0  0  0  0  0  0  0  0
    5.3438    4.5411   13.3784 C   0  0  2  0  0  0  0  0  0  0  0  0
    5.7859    3.2449   12.6392 C   0  0  1  0  0  0  0  0  0  0  0  0
    4.7460    2.8274   11.5623 C   0  0  1  0  0  0  0  0  0  0  0  0
    5.1033    1.4653   10.9116 C   0  0  0  0  0  0  0  0  0  0  0  0
    3.4054    2.7848   12.1388 O   0  0  0  0  0  0  0  0  0  0  0  0
    7.1382    3.3891   12.0569 N   0  0  0  0  0  0  0  0  0  0  0  0
    3.4526    5.6126   14.5506 O   0  0  0  0  0  0  0  0  0  0  0  0
    6.2582    4.8761   14.4200 O   0  0  0  0  0  0  0  0  0  0  0  0
    6.2939    1.5696   10.1378 O   0  0  0  0  0  0  0  0  0  0  0  0
   -2.8438   10.4473    9.1582 C   0  0  1  0  0  0  0  0  0  0  0  0
   -2.4415    9.6748    7.8707 C   0  0  1  0  0  0  0  0  0  0  0  0
   -2.8478   10.4636    6.5941 C   0  0  2  0  0  0  0  0  0  0  0  0
   -4.3621   10.8518    6.5896 C   0  0  1  0  0  0  0  0  0  0  0  0
   -4.8242   11.5082    7.9250 C   0  0  0  0  0  0  0  0  0  0  0  0
   -4.3785   10.6973    9.1791 C   0  0  2  0  0  0  0  0  0  0  0  0
   -4.6776   11.7231    5.4375 N   0  0  0  0  0  0  0  0  0  0  0  0
   -4.8091   11.4110   10.4008 N   0  0  0  0  0  0  0  0  0  0  0  0
   -1.0465    9.3892    7.8662 O   0  0  0  0  0  0  0  0  0  0  0  0
   -2.5208    9.7188    5.4236 O   0  0  0  0  0  0  0  0  0  0  0  0
  1  2  1  0  0  0  0
  1 16  1  1  0  0  0
  2  3  1  0  0  0  0
  2 12  1  1  0  0  0
  4 11  1  1  0  0  0
  4  3  1  0  0  0  0
  5  4  1  0  0  0  0
  5 10  1  6  0  0  0
  6  7  1  0  0  0  0
  6  5  1  0  0  0  0
  6 14  1  1  0  0  0
  7  8  1  0  0  0  0
  7 13  1  6  0  0  0
  8 15  1  1  0  0  0
  8 11  1  0  0  0  0
  9 13  1  0  0  0  0
 10  1  1  0  0  0  0
 17 15  1  6  0  0  0
 17 18  1  0  0  0  0
 18 25  1  6  0  0  0
 19 18  1  0  0  0  0
 19 26  1  1  0  0  0
 20 19  1  0  0  0  0
 20 24  1  6  0  0  0
 21 23  1  0  0  0  0
 21 20  1  0  0  0  0
 21 22  1  1  0  0  0
 23 17  1  0  0  0  0
 27 22  1  0  0  0  0
 28 29  1  0  0  0  0
 28 16  1  1  0  0  0
 29 36  1  1  0  0  0
 30 37  1  6  0  0  0
 30 29  1  0  0  0  0
 31 30  1  0  0  0  0
 31 34  1  6  0  0  0
 32 31  1  0  0  0  0
 32 33  1  0  0  0  0
 33 28  1  0  0  0  0
 33 35  1  1  0  0  0
M  END
>  <CHROM.1>
82.96689600,-144.85211706,98.81878738,101.48987943,-141.40180159,-155.38245369
64.96835815,-57.50610329,-67.25715082,-54.82414178,-64.32333504,-57.77074144
173.08701150,-64.48263118,-178.85359456,170.02207611,0.40207453,6.79830542
10.41746611,2.80466296,0.67933076,-1.59091295

>  <Name>
lig.pdb

>  <RI>
0

>  <Rbt.Current_Directory>
/home/itssahil/PROJECTS/Mol_Feturizer/New_Systems/rnas/2m4q

>  <Rbt.Executable>
rbdock ($Id: //depot/dev/client3/rdock/2013.1/src/exe/rbdock.cxx#4 $)

>  <Rbt.Library>
libRbt.so (2013.1, Build901 2013/11/27)

>  <Rbt.Parameter_File>
/export/apps/rDock/src/rDock_2013.1_src/data/scripts/dock_solv.prm

>  <Rbt.Receptor>
prm/pocket_docking_2.prm

>  <SCORE>
-35.1502

>  <SCORE.INTER>
-22.5425

>  <SCORE.INTER.CONST>
1

>  <SCORE.INTER.POLAR>
-2.56318

>  <SCORE.INTER.ROT>
10

>  <SCORE.INTER.SOLV>
16.4375

>  <SCORE.INTER.VDW>
-22.2303

>  <SCORE.INTER.norm>
-0.609258

>  <SCORE.INTRA>
-12.9571

>  <SCORE.INTRA.DIHEDRAL>
-22.8361

>  <SCORE.INTRA.DIHEDRAL.0>
44.8331

>  <SCORE.INTRA.POLAR>
-0.0870279

>  <SCORE.INTRA.POLAR.0>
-0.108895

>  <SCORE.INTRA.REPUL>
-0.00912235

>  <SCORE.INTRA.REPUL.0>
0.00912235

>  <SCORE.INTRA.SOLV>
-0.398151

>  <SCORE.INTRA.SOLV.lig_0>
-53.9067

>  <SCORE.INTRA.VDW>
-0.998517

>  <SCORE.INTRA.VDW.0>
-2.93492

>  <SCORE.INTRA.norm>
-0.350193

>  <SCORE.RESTR>
0.34951

>  <SCORE.RESTR.CAVITY>
0.34951

>  <SCORE.RESTR.norm>
0.00944622

>  <SCORE.SYSTEM>
0

>  <SCORE.SYSTEM.CONST>
0

>  <SCORE.SYSTEM.DIHEDRAL>
0

>  <SCORE.SYSTEM.SOLV>
0

>  <SCORE.SYSTEM.norm>
0

>  <SCORE.heavy>
37

>  <SCORE.norm>
-0.950005

>  <RMSD>
2.031

$$$$
lig.pdb
 OpenBabel11021811453D
libRbt.so/2013.1/901 2013/11/27
 37 40  0  0  0  0  0  0  0  0999 V2000
   -1.4566    6.6785    9.4309 C   0  0  2  0  0  0  0  0  0  0  0  0
   -1.4626    6.1481   10.9026 C   0  0  1  0  0  0  0  0  0  0  0  0
   -0.0411    6.0624   11.5316 C   0  0  0  0  0  0  0  0  0  0  0  0
    0.9464    5.3407   10.5814 C   0  0  1  0  0  0  0  0  0  0  0  0
    0.9638    6.0453    9.2065 C   0  0  1  0  0  0  0  0  0  0  0  0
    1.9811    5.3705    8.2477 C   0  0  1  0  0  0  0  0  0  0  0  0
    3.3906    5.2834    8.9052 C   0  0  1  0  0  0  0  0  0  0  0  0
    3.3337    4.6446   10.3246 C   0  0  2  0  0  0  0  0  0  0  0  0
    5.6949    5.0344    8.1040 C   0  0  0  0  0  0  0  0  0  0  0  0
   -0.3776    6.0831    8.6395 O   0  0  0  0  0  0  0  0  0  0  0  0
    2.2874    5.2516   11.1434 O   0  0  0  0  0  0  0  0  0  0  0  0
   -2.3251    7.0095   11.7403 N   0  0  0  0  0  0  0  0  0  0  0  0
    4.3017    4.5486    8.0035 N   0  0  0  0  0  0  0  0  0  0  0  0
    1.5267    4.0891    7.8313 O   0  0  0  0  0  0  0  0  0  0  0  0
    4.6347    4.7347   10.9757 O   0  0  0  0  0  0  0  0  0  0  0  0
   -1.3710    8.1359    9.3954 O   0  0  0  0  0  0  0  0  0  0  0  0
    4.7469    4.3127   12.3698 C   0  0  2  0  0  0  0  0  0  0  0  0
    6.2232    4.3779   12.8546 C   0  0  1  0  0  0  0  0  0  0  0  0
    7.0944    3.2691   12.1977 C   0  0  2  0  0  0  0  0  0  0  0  0
    6.4536    1.8639   12.3895 C   0  0  1  0  0  0  0  0  0  0  0  0
    4.9705    1.8525   11.9253 C   0  0  1  0  0  0  0  0  0  0  0  0
    4.2784    0.4993   12.2355 C   0  0  0  0  0  0  0  0  0  0  0  0
    4.2370    2.9562   12.5378 O   0  0  0  0  0  0  0  0  0  0  0  0
    7.2410    0.8132   11.7078 N   0  0  0  0  0  0  0  0  0  0  0  0
    6.7666    5.6779   12.6325 O   0  0  0  0  0  0  0  0  0  0  0  0
    8.4290    3.2982   12.6992 O   0  0  0  0  0  0  0  0  0  0  0  0
    2.8623    0.6238   12.1555 O   0  0  0  0  0  0  0  0  0  0  0  0
   -2.2008    8.8396    8.4257 C   0  0  1  0  0  0  0  0  0  0  0  0
   -2.6345   10.2410    8.9398 C   0  0  1  0  0  0  0  0  0  0  0  0
   -3.5964   10.9338    7.9337 C   0  0  2  0  0  0  0  0  0  0  0  0
   -3.0005   11.0031    6.4901 C   0  0  1  0  0  0  0  0  0  0  0  0
   -2.4344    9.6363    6.0011 C   0  0  0  0  0  0  0  0  0  0  0  0
   -1.4927    8.9669    7.0470 C   0  0  2  0  0  0  0  0  0  0  0  0
   -3.9976   11.5324    5.5353 N   0  0  0  0  0  0  0  0  0  0  0  0
   -1.0417    7.6566    6.5304 N   0  0  0  0  0  0  0  0  0  0  0  0
   -3.2334   10.1451   10.2280 O   0  0  0  0  0  0  0  0  0  0  0  0
   -3.9424   12.2379    8.3933 O   0  0  0  0  0  0  0  0  0  0  0  0
  1  2  1  0  0  0  0
  1 16  1  1  0  0  0
  2  3  1  0  0  0  0
  2 12  1  1  0  0  0
  4 11  1  1  0  0  0
  4  3  1  0  0  0  0
  5  4  1  0  0  0  0
  5 10  1  6  0  0  0
  6  7  1  0  0  0  0
  6  5  1  0  0  0  0
  6 14  1  1  0  0  0
  7  8  1  0  0  0  0
  7 13  1  6  0  0  0
  8 15  1  1  0  0  0
  8 11  1  0  0  0  0
  9 13  1  0  0  0  0
 10  1  1  0  0  0  0
 17 15  1  6  0  0  0
 17 18  1  0  0  0  0
 18 25  1  6  0  0  0
 19 18  1  0  0  0  0
 19 26  1  1  0  0  0
 20 19  1  0  0  0  0
 20 24  1  6  0  0  0
 21 23  1  0  0  0  0
 21 20  1  0  0  0  0
 21 22  1  1  0  0  0
 23 17  1  0  0  0  0
 27 22  1  0  0  0  0
 28 29  1  0  0  0  0
 28 16  1  1  0  0  0
 29 36  1  1  0  0  0
 30 37  1  1  0  0  0
 30 29  1  0  0  0  0
 31 30  1  0  0  0  0
 31 34  1  6  0  0  0
 32 31  1  0  0  0  0
 32 33  1  0  0  0  0
 33 28  1  0  0  0  0
 33 35  1  6  0  0  0
M  END
>  <CHROM.1>
122.56338919,173.78758937,147.63990704,54.04264876,175.64015620,-138.62126020
-176.77224636,65.55483264,163.77215099,53.46593997,155.36517405,148.67495224
-51.64358128,65.97144818,63.53970203,-51.64420545,1.57563723,5.96456264,9.91494166
2.50440704,0.43439372,-1.02805826

>  <Name>
lig.pdb

>  <RI>
2.86754e+07

>  <Rbt.Current_Directory>
/home/itssahil/PROJECTS/Mol_Feturizer/New_Systems/rnas/2m4q

>  <Rbt.Executable>
rbdock ($Id: //depot/dev/client3/rdock/2013.1/src/exe/rbdock.cxx#4 $)

>  <Rbt.Library>
libRbt.so (2013.1, Build901 2013/11/27)

>  <Rbt.Parameter_File>
/export/apps/rDock/src/rDock_2013.1_src/data/scripts/dock_solv.prm

>  <Rbt.Receptor>
prm/pocket_docking_5.prm

>  <SCORE>
-48.0667

>  <SCORE.INTER>
-30.7499

>  <SCORE.INTER.CONST>
1

>  <SCORE.INTER.POLAR>
-4.26613

>  <SCORE.INTER.ROT>
10

>  <SCORE.INTER.SOLV>
17.2775

>  <SCORE.INTER.VDW>
-22.3054

>  <SCORE.INTER.norm>
-0.83108

>  <SCORE.INTRA>
-17.3168

>  <SCORE.INTRA.DIHEDRAL>
-26.3237

>  <SCORE.INTRA.DIHEDRAL.0>
44.8331

>  <SCORE.INTRA.POLAR>
-0.940868

>  <SCORE.INTRA.POLAR.0>
-0.108895

>  <SCORE.INTRA.REPUL>
-0.00912235

>  <SCORE.INTRA.REPUL.0>
0.00912235

>  <SCORE.INTRA.SOLV>
-1.4366

>  <SCORE.INTRA.SOLV.lig_0>
-53.9067

>  <SCORE.INTRA.VDW>
-0.19208

>  <SCORE.INTRA.VDW.0>
-2.93492

>  <SCORE.INTRA.norm>
-0.468021

>  <SCORE.RESTR>
0

>  <SCORE.RESTR.CAVITY>
0

>  <SCORE.RESTR.norm>
0

>  <SCORE.SYSTEM>
0

>  <SCORE.SYSTEM.CONST>
0

>  <SCORE.SYSTEM.DIHEDRAL>
0

>  <SCORE.SYSTEM.SOLV>
0

>  <SCORE.SYSTEM.norm>
0

>  <SCORE.heavy>
37

>  <SCORE.norm>
-1.2991

>  <RMSD>
2.034

$$$$
lig.pdb
 OpenBabel11021811453D
libRbt.so/2013.1/901 2013/11/27
 37 40  0  0  0  0  0  0  0  0999 V2000
   -1.9176    8.0210    8.9071 C   0  0  2  0  0  0  0  0  0  0  0  0
   -2.1628    7.2379   10.2389 C   0  0  1  0  0  0  0  0  0  0  0  0
   -0.8518    6.7145   10.8954 C   0  0  0  0  0  0  0  0  0  0  0  0
    0.0355    5.9800    9.8599 C   0  0  1  0  0  0  0  0  0  0  0  0
    0.3209    6.9088    8.6585 C   0  0  1  0  0  0  0  0  0  0  0  0
    1.2480    6.2140    7.6254 C   0  0  1  0  0  0  0  0  0  0  0  0
    2.5447    5.6867    8.3090 C   0  0  1  0  0  0  0  0  0  0  0  0
    2.2311    4.8213    9.5656 C   0  0  2  0  0  0  0  0  0  0  0  0
    4.7973    5.0085    7.6165 C   0  0  0  0  0  0  0  0  0  0  0  0
   -0.9277    7.3565    8.0564 O   0  0  0  0  0  0  0  0  0  0  0  0
    1.2732    5.4844   10.4468 O   0  0  0  0  0  0  0  0  0  0  0  0
   -2.8889    8.0986   11.1978 N   0  0  0  0  0  0  0  0  0  0  0  0
    3.3507    4.9479    7.3152 N   0  0  0  0  0  0  0  0  0  0  0  0
    0.5668    5.1715    6.9393 O   0  0  0  0  0  0  0  0  0  0  0  0
    3.4606    4.4892   10.2745 O   0  0  0  0  0  0  0  0  0  0  0  0
   -1.5188    9.4007    9.1717 O   0  0  0  0  0  0  0  0  0  0  0  0
    3.4329    3.3962   11.2433 C   0  0  2  0  0  0  0  0  0  0  0  0
    3.4633    3.9414   12.6995 C   0  0  1  0  0  0  0  0  0  0  0  0
    4.8510    4.5454   13.0593 C   0  0  2  0  0  0  0  0  0  0  0  0
    5.9970    3.5344   12.7652 C   0  0  1  0  0  0  0  0  0  0  0  0
    5.9087    2.9890   11.3125 C   0  0  1  0  0  0  0  0  0  0  0  0
    6.9602    1.8798   11.0470 C   0  0  0  0  0  0  0  0  0  0  0  0
    4.5626    2.4970   11.0346 O   0  0  0  0  0  0  0  0  0  0  0  0
    7.3244    4.1270   13.0398 N   0  0  0  0  0  0  0  0  0  0  0  0
    2.4091    4.8799   12.9052 O   0  0  0  0  0  0  0  0  0  0  0  0
    4.8864    4.9819   14.4163 O   0  0  0  0  0  0  0  0  0  0  0  0
    7.4776    1.9778    9.7241 O   0  0  0  0  0  0  0  0  0  0  0  0
   -2.3740   10.4632    8.6581 C   0  0  1  0  0  0  0  0  0  0  0  0
   -2.7902   10.2123    7.1816 C   0  0  1  0  0  0  0  0  0  0  0  0
   -3.6205   11.4025    6.6236 C   0  0  2  0  0  0  0  0  0  0  0  0
   -4.8515   11.7450    7.5242 C   0  0  1  0  0  0  0  0  0  0  0  0
   -4.4835   11.8694    9.0332 C   0  0  0  0  0  0  0  0  0  0  0  0
   -3.6344   10.6674    9.5459 C   0  0  2  0  0  0  0  0  0  0  0  0
   -5.5290   12.9685    7.0445 N   0  0  0  0  0  0  0  0  0  0  0  0
   -3.2847   10.8867   10.9661 N   0  0  0  0  0  0  0  0  0  0  0  0
   -1.6478    9.9670    6.3679 O   0  0  0  0  0  0  0  0  0  0  0  0
   -4.0394   11.1343    5.2879 O   0  0  0  0  0  0  0  0  0  0  0  0
  1  2  1  0  0  0  0
  1 16  1  1  0  0  0
  2  3  1  0  0  0  0
  2 12  1  1  0  0  0
  4 11  1  1  0  0  0
  4  3  1  0  0  0  0
  5  4  1  0  0  0  0
  5 10  1  6  0  0  0
  6  7  1  0  0  0  0
  6  5  1  0  0  0  0
  6 14  1  1  0  0  0
  7  8  1  0  0  0  0
  7 13  1  6  0  0  0
  8 15  1  1  0  0  0
  8 11  1  0  0  0  0
  9 13  1  0  0  0  0
 10  1  1  0  0  0  0
 17 15  1  6  0  0  0
 17 18  1  0  0  0  0
 18 25  1  6  0  0  0
 19 18  1  0  0  0  0
 19 26  1  1  0  0  0
 20 19  1  0  0  0  0
 20 24  1  6  0  0  0
 21 23  1  0  0  0  0
 21 20  1  0  0  0  0
 21 22  1  1  0  0  0
 23 17  1  0  0  0  0
 27 22  1  0  0  0  0
 28 29  1  0  0  0  0
 28 16  1  1  0  0  0
 29 36  1  6  0  0  0
 30 37  1  6  0  0  0
 30 29  1  0  0  0  0
 31 30  1  0  0  0  0
 31 34  1  6  0  0  0
 32 31  1  0  0  0  0
 32 33  1  0  0  0  0
 33 28  1  0  0  0  0
 33 35  1  1  0  0  0
M  END
>  <CHROM.1>
76.30857418,-163.08952330,151.10479675,-39.86972200,-105.62613065,-119.37620881
-40.17605762,-174.80929149,-142.82234721,-48.54533437,-82.90459047,-45.88662913
-59.89456599,-177.50184809,-39.98394079,-174.12135068,0.85358047,6.79902832
9.63436239,2.85327325,0.68568406,-1.58077175

>  <Name>
lig.pdb

>  <RI>
0

>  <Rbt.Current_Directory>
/home/itssahil/PROJECTS/Mol_Feturizer/New_Systems/rnas/2m4q

>  <Rbt.Executable>
rbdock ($Id: //depot/dev/client3/rdock/2013.1/src/exe/rbdock.cxx#4 $)

>  <Rbt.Library>
libRbt.so (2013.1, Build901 2013/11/27)

>  <Rbt.Parameter_File>
/export/apps/rDock/src/rDock_2013.1_src/data/scripts/dock_solv.prm

>  <Rbt.Receptor>
prm/pocket_docking_2.prm

>  <SCORE>
-32.8826

>  <SCORE.INTER>
-19.5132

>  <SCORE.INTER.CONST>
1

>  <SCORE.INTER.POLAR>
-2.12372

>  <SCORE.INTER.ROT>
10

>  <SCORE.INTER.SOLV>
15.7262

>  <SCORE.INTER.VDW>
-21.4385

>  <SCORE.INTER.norm>
-0.527384

>  <SCORE.INTRA>
-13.5234

>  <SCORE.INTRA.DIHEDRAL>
-16.6244

>  <SCORE.INTRA.DIHEDRAL.0>
44.8331

>  <SCORE.INTRA.POLAR>
-1.45797

>  <SCORE.INTRA.POLAR.0>
-0.108895

>  <SCORE.INTRA.REPUL>
-0.00912235

>  <SCORE.INTRA.REPUL.0>
0.00912235

>  <SCORE.INTRA.SOLV>
-0.522197

>  <SCORE.INTRA.SOLV.lig_0>
-53.9067

>  <SCORE.INTRA.VDW>
0.0526016

>  <SCORE.INTRA.VDW.0>
-2.93492

>  <SCORE.INTRA.norm>
-0.365497

>  <SCORE.RESTR>
0.154048

>  <SCORE.RESTR.CAVITY>
0.154048

>  <SCORE.RESTR.norm>
0.00416346

>  <SCORE.SYSTEM>
0

>  <SCORE.SYSTEM.CONST>
0

>  <SCORE.SYSTEM.DIHEDRAL>
0

>  <SCORE.SYSTEM.SOLV>
0

>  <SCORE.SYSTEM.norm>
0

>  <SCORE.heavy>
37

>  <SCORE.norm>
-0.888718

>  <RMSD>
2.067

$$$$
lig.pdb
 OpenBabel11021811453D
libRbt.so/2013.1/901 2013/11/27
 37 40  0  0  0  0  0  0  0  0999 V2000
   -2.0205    7.7139    8.9465 C   0  0  2  0  0  0  0  0  0  0  0  0
   -2.2389    7.0001   10.3213 C   0  0  1  0  0  0  0  0  0  0  0  0
   -0.9106    6.5626   11.0054 C   0  0  0  0  0  0  0  0  0  0  0  0
    0.0035    5.8022   10.0129 C   0  0  1  0  0  0  0  0  0  0  0  0
    0.2567    6.6703    8.7600 C   0  0  1  0  0  0  0  0  0  0  0  0
    1.2092    5.9511    7.7674 C   0  0  1  0  0  0  0  0  0  0  0  0
    2.5232    5.5106    8.4788 C   0  0  1  0  0  0  0  0  0  0  0  0
    2.2395    4.7081    9.7833 C   0  0  2  0  0  0  0  0  0  0  0  0
    4.7952    4.8255    7.8603 C   0  0  0  0  0  0  0  0  0  0  0  0
   -1.0066    7.0376    8.1343 O   0  0  0  0  0  0  0  0  0  0  0  0
    1.2575    5.3858   10.6260 O   0  0  0  0  0  0  0  0  0  0  0  0
   -2.9964    7.8878   11.2301 N   0  0  0  0  0  0  0  0  0  0  0  0
    3.3563    4.7455    7.5282 N   0  0  0  0  0  0  0  0  0  0  0  0
    0.5666    4.8472    7.1428 O   0  0  0  0  0  0  0  0  0  0  0  0
    3.4794    4.4614   10.5088 O   0  0  0  0  0  0  0  0  0  0  0  0
   -1.6718    9.1199    9.1313 O   0  0  0  0  0  0  0  0  0  0  0  0
    3.4401    3.5881   11.6791 C   0  0  2  0  0  0  0  0  0  0  0  0
    4.1101    4.2698   12.9059 C   0  0  1  0  0  0  0  0  0  0  0  0
    5.6529    4.3730   12.7358 C   0  0  2  0  0  0  0  0  0  0  0  0
    6.2746    2.9874   12.3963 C   0  0  1  0  0  0  0  0  0  0  0  0
    5.5539    2.3268   11.1881 C   0  0  1  0  0  0  0  0  0  0  0  0
    6.0705    0.8883   10.9232 C   0  0  0  0  0  0  0  0  0  0  0  0
    4.1091    2.3226   11.3976 O   0  0  0  0  0  0  0  0  0  0  0  0
    7.7321    3.0908   12.1650 N   0  0  0  0  0  0  0  0  0  0  0  0
    3.5195    5.5440   13.1556 O   0  0  0  0  0  0  0  0  0  0  0  0
    6.2619    4.9398   13.8940 O   0  0  0  0  0  0  0  0  0  0  0  0
    5.4535    0.3328    9.7665 O   0  0  0  0  0  0  0  0  0  0  0  0
   -2.3947   10.1067    8.3391 C   0  0  1  0  0  0  0  0  0  0  0  0
   -2.5029    9.6879    6.8461 C   0  0  1  0  0  0  0  0  0  0  0  0
   -3.1913   10.7970    6.0016 C   0  0  2  0  0  0  0  0  0  0  0  0
   -4.5772   11.2197    6.5884 C   0  0  1  0  0  0  0  0  0  0  0  0
   -4.5239   11.5158    8.1172 C   0  0  0  0  0  0  0  0  0  0  0  0
   -3.8080   10.3901    8.9229 C   0  0  2  0  0  0  0  0  0  0  0  0
   -5.1317   12.3728    5.8475 N   0  0  0  0  0  0  0  0  0  0  0  0
   -3.7537   10.7704   10.3511 N   0  0  0  0  0  0  0  0  0  0  0  0
   -1.2206    9.3702    6.3148 O   0  0  0  0  0  0  0  0  0  0  0  0
   -3.3311   10.3765    4.6468 O   0  0  0  0  0  0  0  0  0  0  0  0
  1  2  1  0  0  0  0
  1 16  1  1  0  0  0
  2  3  1  0  0  0  0
  2 12  1  1  0  0  0
  4 11  1  1  0  0  0
  4  3  1  0  0  0  0
  5  4  1  0  0  0  0
  5 10  1  6  0  0  0
  6  7  1  0  0  0  0
  6  5  1  0  0  0  0
  6 14  1  1  0  0  0
  7  8  1  0  0  0  0
  7 13  1  6  0  0  0
  8 15  1  1  0  0  0
  8 11  1  0  0  0  0
  9 13  1  0  0  0  0
 10  1  1  0  0  0  0
 17 15  1  6  0  0  0
 17 18  1  0  0  0  0
 18 25  1  6  0  0  0
 19 18  1  0  0  0  0
 19 26  1  1  0  0  0
 20 19  1  0  0  0  0
 20 24  1  6  0  0  0
 21 23  1  0  0  0  0
 21 20  1  0  0  0  0
 21 22  1  1  0  0  0
 23 17  1  0  0  0  0
 27 22  1  0  0  0  0
 28 29  1  0  0  0  0
 28 16  1  1  0  0  0
 29 36  1  6  0  0  0
 30 37  1  6  0  0  0
 30 29  1  0  0  0  0
 31 30  1  0  0  0  0
 31 34  1  6  0  0  0
 32 31  1  0  0  0  0
 32 33  1  0  0  0  0
 33 28  1  0  0  0  0
 33 35  1  1  0  0  0
M  END
>  <CHROM.1>
-88.64121950,-172.94749031,153.68025829,-51.07843034,-128.78631969,-131.71650946
63.67510748,-57.76035226,-176.59853189,-54.42628082,-175.62968592,-45.90491580
69.91072805,-171.69881004,74.34455036,-68.52805243,0.90966752,6.45614595
9.49758171,2.86653810,0.71405369,-1.67440601

>  <Name>
lig.pdb

>  <RI>
0

>  <Rbt.Current_Directory>
/home/itssahil/PROJECTS/Mol_Feturizer/New_Systems/rnas/2m4q

>  <Rbt.Executable>
rbdock ($Id: //depot/dev/client3/rdock/2013.1/src/exe/rbdock.cxx#4 $)

>  <Rbt.Library>
libRbt.so (2013.1, Build901 2013/11/27)

>  <Rbt.Parameter_File>
/export/apps/rDock/src/rDock_2013.1_src/data/scripts/dock_solv.prm

>  <Rbt.Receptor>
prm/pocket_docking_3.prm

>  <SCORE>
-44.9149

>  <SCORE.INTER>
-24.2392

>  <SCORE.INTER.CONST>
1

>  <SCORE.INTER.POLAR>
-1.74114

>  <SCORE.INTER.ROT>
10

>  <SCORE.INTER.SOLV>
21.2439

>  <SCORE.INTER.VDW>
-27.7036

>  <SCORE.INTER.norm>
-0.655113

>  <SCORE.INTRA>
-20.6757

>  <SCORE.INTRA.DIHEDRAL>
-26.0203

>  <SCORE.INTRA.DIHEDRAL.0>
44.8331

>  <SCORE.INTRA.POLAR>
-1.8886

>  <SCORE.INTRA.POLAR.0>
-0.108895

>  <SCORE.INTRA.REPUL>
-0.00912235

>  <SCORE.INTRA.REPUL.0>
0.00912235

>  <SCORE.INTRA.SOLV>
-1.00729

>  <SCORE.INTRA.SOLV.lig_0>
-53.9067

>  <SCORE.INTRA.VDW>
-0.695063

>  <SCORE.INTRA.VDW.0>
-2.93492

>  <SCORE.INTRA.norm>
-0.558803

>  <SCORE.RESTR>
0

>  <SCORE.RESTR.CAVITY>
0

>  <SCORE.RESTR.norm>
0

>  <SCORE.SYSTEM>
0

>  <SCORE.SYSTEM.CONST>
0

>  <SCORE.SYSTEM.DIHEDRAL>
0

>  <SCORE.SYSTEM.SOLV>
0

>  <SCORE.SYSTEM.norm>
0

>  <SCORE.heavy>
37

>  <SCORE.norm>
-1.21392

>  <RMSD>
2.071

$$$$
lig.pdb
 OpenBabel11021811453D
libRbt.so/2013.1/901 2013/11/27
 37 40  0  0  0  0  0  0  0  0999 V2000
   -2.9877    8.7265   10.7132 C   0  0  2  0  0  0  0  0  0  0  0  0
   -2.9095    8.4122   12.2436 C   0  0  1  0  0  0  0  0  0  0  0  0
   -1.4937    7.9605   12.7075 C   0  0  0  0  0  0  0  0  0  0  0  0
   -0.9317    6.8517   11.7836 C   0  0  1  0  0  0  0  0  0  0  0  0
   -0.9320    7.3384   10.3171 C   0  0  1  0  0  0  0  0  0  0  0  0
   -0.3296    6.2632    9.3734 C   0  0  1  0  0  0  0  0  0  0  0  0
    1.0792    5.8176    9.8668 C   0  0  1  0  0  0  0  0  0  0  0  0
    1.0690    5.4108   11.3703 C   0  0  2  0  0  0  0  0  0  0  0  0
    1.9013    5.2019    7.6399 C   0  0  0  0  0  0  0  0  0  0  0  0
   -2.2764    7.7274    9.9127 O   0  0  0  0  0  0  0  0  0  0  0  0
    0.3964    6.4140   12.1918 O   0  0  0  0  0  0  0  0  0  0  0  0
   -3.3310    9.5988   13.0194 N   0  0  0  0  0  0  0  0  0  0  0  0
    1.5734    4.7267    9.0014 N   0  0  0  0  0  0  0  0  0  0  0  0
   -1.2029    5.1498    9.2348 O   0  0  0  0  0  0  0  0  0  0  0  0
    2.4267    5.1653   11.8403 O   0  0  0  0  0  0  0  0  0  0  0  0
   -2.4834   10.0659   10.4230 O   0  0  0  0  0  0  0  0  0  0  0  0
    2.9635    3.8102   11.7429 C   0  0  2  0  0  0  0  0  0  0  0  0
    3.8591    3.4760   12.9696 C   0  0  1  0  0  0  0  0  0  0  0  0
    5.1982    4.2671   12.9375 C   0  0  2  0  0  0  0  0  0  0  0  0
    5.9323    4.0738   11.5789 C   0  0  1  0  0  0  0  0  0  0  0  0
    4.9922    4.3844   10.3809 C   0  0  1  0  0  0  0  0  0  0  0  0
    5.6657    4.0658    9.0203 C   0  0  0  0  0  0  0  0  0  0  0  0
    3.7367    3.6517   10.5159 O   0  0  0  0  0  0  0  0  0  0  0  0
    7.1721    4.8783   11.5152 N   0  0  0  0  0  0  0  0  0  0  0  0
    3.1454    3.6943   14.1852 O   0  0  0  0  0  0  0  0  0  0  0  0
    6.0374    3.9035   14.0315 O   0  0  0  0  0  0  0  0  0  0  0  0
    4.7548    4.2656    7.9444 O   0  0  0  0  0  0  0  0  0  0  0  0
   -2.9275   10.7045    9.1906 C   0  0  1  0  0  0  0  0  0  0  0  0
   -2.4477    9.9323    7.9297 C   0  0  1  0  0  0  0  0  0  0  0  0
   -2.8487   10.6813    6.6277 C   0  0  2  0  0  0  0  0  0  0  0  0
   -4.3786   10.9972    6.5685 C   0  0  1  0  0  0  0  0  0  0  0  0
   -4.9143   11.6513    7.8772 C   0  0  0  0  0  0  0  0  0  0  0  0
   -4.4722   10.8818    9.1583 C   0  0  2  0  0  0  0  0  0  0  0  0
   -4.6968   11.8348    5.3924 N   0  0  0  0  0  0  0  0  0  0  0  0
   -4.9754   11.5929   10.3535 N   0  0  0  0  0  0  0  0  0  0  0  0
   -1.0415    9.7131    7.9745 O   0  0  0  0  0  0  0  0  0  0  0  0
   -2.4492    9.9350    5.4809 O   0  0  0  0  0  0  0  0  0  0  0  0
  1  2  1  0  0  0  0
  1 16  1  1  0  0  0
  2  3  1  0  0  0  0
  2 12  1  1  0  0  0
  4 11  1  1  0  0  0
  4  3  1  0  0  0  0
  5  4  1  0  0  0  0
  5 10  1  6  0  0  0
  6  7  1  0  0  0  0
  6  5  1  0  0  0  0
  6 14  1  1  0  0  0
  7  8  1  0  0  0  0
  7 13  1  6  0  0  0
  8 15  1  1  0  0  0
  8 11  1  0  0  0  0
  9 13  1  0  0  0  0
 10  1  1  0  0  0  0
 17 15  1  1  0  0  0
 17 18  1  0  0  0  0
 18 25  1  1  0  0  0
 19 18  1  0  0  0  0
 19 26  1  1  0  0  0
 20 19  1  0  0  0  0
 20 24  1  1  0  0  0
 21 23  1  0  0  0  0
 21 20  1  0  0  0  0
 21 22  1  6  0  0  0
 23 17  1  0  0  0  0
 27 22  1  0  0  0  0
 28 29  1  0  0  0  0
 28 16  1  1  0  0  0
 29 36  1  1  0  0  0
 30 37  1  6  0  0  0
 30 29  1  0  0  0  0
 31 30  1  0  0  0  0
 31 34  1  6  0  0  0
 32 31  1  0  0  0  0
 32 33  1  0  0  0  0
 33 28  1  0  0  0  0
 33 35  1  1  0  0  0
M  END
>  <CHROM.1>
98.99485443,-90.62462944,69.50919945,150.53265409,-143.08002097,-157.47950307
-55.10372322,179.95143515,175.78694689,174.89362452,-63.48820056,-63.86237607
176.62704320,57.42330503,65.78972782,168.45281935,0.24772368,7.09953023,10.12169386
2.74326068,0.60556503,-1.39563103

>  <Name>
lig.pdb

>  <RI>
0

>  <Rbt.Current_Directory>
/home/itssahil/PROJECTS/Mol_Feturizer/New_Systems/rnas/2m4q

>  <Rbt.Executable>
rbdock ($Id: //depot/dev/client3/rdock/2013.1/src/exe/rbdock.cxx#4 $)

>  <Rbt.Library>
libRbt.so (2013.1, Build901 2013/11/27)

>  <Rbt.Parameter_File>
/export/apps/rDock/src/rDock_2013.1_src/data/scripts/dock_solv.prm

>  <Rbt.Receptor>
prm/pocket_docking_2.prm

>  <SCORE>
-34.0467

>  <SCORE.INTER>
-17.1069

>  <SCORE.INTER.CONST>
1

>  <SCORE.INTER.POLAR>
-1.73502

>  <SCORE.INTER.ROT>
10

>  <SCORE.INTER.SOLV>
15.6724

>  <SCORE.INTER.VDW>
-21.1119

>  <SCORE.INTER.norm>
-0.462347

>  <SCORE.INTRA>
-17.3399

>  <SCORE.INTRA.DIHEDRAL>
-27.2582

>  <SCORE.INTRA.DIHEDRAL.0>
44.8331

>  <SCORE.INTRA.POLAR>
-1.09519

>  <SCORE.INTRA.POLAR.0>
-0.108895

>  <SCORE.INTRA.REPUL>
-0.00912235

>  <SCORE.INTRA.REPUL.0>
0.00912235

>  <SCORE.INTRA.SOLV>
0.256468

>  <SCORE.INTRA.SOLV.lig_0>
-53.9067

>  <SCORE.INTRA.VDW>
-0.069696

>  <SCORE.INTRA.VDW.0>
-2.93492

>  <SCORE.INTRA.norm>
-0.468645

>  <SCORE.RESTR>
0.399966

>  <SCORE.RESTR.CAVITY>
0.399966

>  <SCORE.RESTR.norm>
0.0108099

>  <SCORE.SYSTEM>
0

>  <SCORE.SYSTEM.CONST>
0

>  <SCORE.SYSTEM.DIHEDRAL>
0

>  <SCORE.SYSTEM.SOLV>
0

>  <SCORE.SYSTEM.norm>
0

>  <SCORE.heavy>
37

>  <SCORE.norm>
-0.920182

>  <RMSD>
2.075

$$$$
lig.pdb
 OpenBabel11021811453D
libRbt.so/2013.1/901 2013/11/27
 37 40  0  0  0  0  0  0  0  0999 V2000
   -2.1441    7.4810    9.9838 C   0  0  2  0  0  0  0  0  0  0  0  0
   -2.1339    6.6939   11.3357 C   0  0  1  0  0  0  0  0  0  0  0  0
   -0.7036    6.2999   11.8076 C   0  0  0  0  0  0  0  0  0  0  0  0
    0.0993    5.6379   10.6605 C   0  0  1  0  0  0  0  0  0  0  0  0
    0.1329    6.5752    9.4326 C   0  0  1  0  0  0  0  0  0  0  0  0
    0.9718    5.9563    8.2824 C   0  0  1  0  0  0  0  0  0  0  0  0
    2.3919    5.5574    8.7831 C   0  0  1  0  0  0  0  0  0  0  0  0
    2.3321    4.6813   10.0697 C   0  0  2  0  0  0  0  0  0  0  0  0
    4.5870    4.9741    7.8584 C   0  0  0  0  0  0  0  0  0  0  0  0
   -1.2215    6.9001    9.0059 O   0  0  0  0  0  0  0  0  0  0  0  0
    1.4453    5.2640   11.0735 O   0  0  0  0  0  0  0  0  0  0  0  0
   -2.7998    7.4955   12.3853 N   0  0  0  0  0  0  0  0  0  0  0  0
    3.1207    4.8841    7.6883 N   0  0  0  0  0  0  0  0  0  0  0  0
    0.3030    4.8483    7.6938 O   0  0  0  0  0  0  0  0  0  0  0  0
    3.6715    4.4708   10.6047 O   0  0  0  0  0  0  0  0  0  0  0  0
   -1.8420    8.8943   10.1936 O   0  0  0  0  0  0  0  0  0  0  0  0
    3.8668    3.4204   11.6009 C   0  0  2  0  0  0  0  0  0  0  0  0
    3.8559    4.0087   13.0405 C   0  0  1  0  0  0  0  0  0  0  0  0
    5.1315    4.8515   13.3278 C   0  0  2  0  0  0  0  0  0  0  0  0
    6.4226    4.0419   13.0123 C   0  0  1  0  0  0  0  0  0  0  0  0
    6.3767    3.4436   11.5786 C   0  0  1  0  0  0  0  0  0  0  0  0
    7.5925    2.5222   11.2979 C   0  0  0  0  0  0  0  0  0  0  0  0
    5.1258    2.7208   11.3686 O   0  0  0  0  0  0  0  0  0  0  0  0
    7.6376    4.8605   13.2172 N   0  0  0  0  0  0  0  0  0  0  0  0
    2.6644    4.7598   13.2658 O   0  0  0  0  0  0  0  0  0  0  0  0
    5.1405    5.3305   14.6709 O   0  0  0  0  0  0  0  0  0  0  0  0
    7.5639    2.0384    9.9591 O   0  0  0  0  0  0  0  0  0  0  0  0
   -2.3713    9.8503    9.2294 C   0  0  1  0  0  0  0  0  0  0  0  0
   -2.1551    9.3789    7.7640 C   0  0  1  0  0  0  0  0  0  0  0  0
   -2.6387   10.4554    6.7520 C   0  0  2  0  0  0  0  0  0  0  0  0
   -4.1169   10.8944    7.0091 C   0  0  1  0  0  0  0  0  0  0  0  0
   -4.3950   11.2443    8.5017 C   0  0  0  0  0  0  0  0  0  0  0  0
   -3.8761   10.1499    9.4824 C   0  0  2  0  0  0  0  0  0  0  0  0
   -4.4921   12.0190    6.1256 N   0  0  0  0  0  0  0  0  0  0  0  0
   -4.1311   10.5804   10.8742 N   0  0  0  0  0  0  0  0  0  0  0  0
   -0.7896    9.0465    7.5350 O   0  0  0  0  0  0  0  0  0  0  0  0
   -2.4833    9.9870    5.4147 O   0  0  0  0  0  0  0  0  0  0  0  0
  1  2  1  0  0  0  0
  1 16  1  1  0  0  0
  2  3  1  0  0  0  0
  2 12  1  1  0  0  0
  4 11  1  1  0  0  0
  4  3  1  0  0  0  0
  5  4  1  0  0  0  0
  5 10  1  6  0  0  0
  6  7  1  0  0  0  0
  6  5  1  0  0  0  0
  6 14  1  1  0  0  0
  7  8  1  0  0  0  0
  7 13  1  6  0  0  0
  8 15  1  1  0  0  0
  8 11  1  0  0  0  0
  9 13  1  0  0  0  0
 10  1  1  0  0  0  0
 17 15  1  6  0  0  0
 17 18  1  0  0  0  0
 18 25  1  6  0  0  0
 19 18  1  0  0  0  0
 19 26  1  1  0  0  0
 20 19  1  0  0  0  0
 20 24  1  6  0  0  0
 21 23  1  0  0  0  0
 21 20  1  0  0  0  0
 21 22  1  1  0  0  0
 23 17  1  0  0  0  0
 27 22  1  0  0  0  0
 28 29  1  0  0  0  0
 28 16  1  1  0  0  0
 29 36  1  1  0  0  0
 30 37  1  6  0  0  0
 30 29  1  0  0  0  0
 31 30  1  0  0  0  0
 31 34  1  6  0  0  0
 32 31  1  0  0  0  0
 32 33  1  0  0  0  0
 33 28  1  0  0  0  0
 33 35  1  1  0  0  0
M  END
>  <CHROM.1>
-145.17032987,-165.13355745,156.36682900,46.41860113,-97.54986523,-153.09191558
67.71369608,64.48077177,-177.15366574,-170.25326167,66.23199761,-45.64920347
-58.60716153,65.15476635,-156.46859512,63.94579119,1.06039807,6.53323779
10.04876315,2.76983839,0.58379825,-1.47900873

>  <Name>
lig.pdb

>  <RI>
0

>  <Rbt.Current_Directory>
/home/itssahil/PROJECTS/Mol_Feturizer/New_Systems/rnas/2m4q

>  <Rbt.Executable>
rbdock ($Id: //depot/dev/client3/rdock/2013.1/src/exe/rbdock.cxx#4 $)

>  <Rbt.Library>
libRbt.so (2013.1, Build901 2013/11/27)

>  <Rbt.Parameter_File>
/export/apps/rDock/src/rDock_2013.1_src/data/scripts/dock_solv.prm

>  <Rbt.Receptor>
prm/pocket_docking_2.prm

>  <SCORE>
-29.1394

>  <SCORE.INTER>
-15.3371

>  <SCORE.INTER.CONST>
1

>  <SCORE.INTER.POLAR>
-1.53959

>  <SCORE.INTER.ROT>
10

>  <SCORE.INTER.SOLV>
15.3454

>  <SCORE.INTER.VDW>
-20.4746

>  <SCORE.INTER.norm>
-0.414516

>  <SCORE.INTRA>
-14.015

>  <SCORE.INTRA.DIHEDRAL>
-29.2841

>  <SCORE.INTRA.DIHEDRAL.0>
44.8331

>  <SCORE.INTRA.POLAR>
0.0204958

>  <SCORE.INTRA.POLAR.0>
-0.108895

>  <SCORE.INTRA.REPUL>
-0.00912235

>  <SCORE.INTRA.REPUL.0>
0.00912235

>  <SCORE.INTRA.SOLV>
-0.824467

>  <SCORE.INTRA.SOLV.lig_0>
-53.9067

>  <SCORE.INTRA.VDW>
1.01523

>  <SCORE.INTRA.VDW.0>
-2.93492

>  <SCORE.INTRA.norm>
-0.378783

>  <SCORE.RESTR>
0.21264

>  <SCORE.RESTR.CAVITY>
0.21264

>  <SCORE.RESTR.norm>
0.00574703

>  <SCORE.SYSTEM>
0

>  <SCORE.SYSTEM.CONST>
0

>  <SCORE.SYSTEM.DIHEDRAL>
0

>  <SCORE.SYSTEM.SOLV>
0

>  <SCORE.SYSTEM.norm>
0

>  <SCORE.heavy>
37

>  <SCORE.norm>
-0.787552

>  <RMSD>
2.083

$$$$
lig.pdb
 OpenBabel11021811453D
libRbt.so/2013.1/901 2013/11/27
 37 40  0  0  0  0  0  0  0  0999 V2000
   -2.0413    7.8317    8.9521 C   0  0  2  0  0  0  0  0  0  0  0  0
   -2.2609    7.0524   10.2906 C   0  0  1  0  0  0  0  0  0  0  0  0
   -0.9337    6.5743   10.9492 C   0  0  0  0  0  0  0  0  0  0  0  0
   -0.0260    5.8586    9.9182 C   0  0  1  0  0  0  0  0  0  0  0  0
    0.2295    6.7857    8.7089 C   0  0  1  0  0  0  0  0  0  0  0  0
    1.1757    6.1108    7.6799 C   0  0  1  0  0  0  0  0  0  0  0  0
    2.4886    5.6285    8.3656 C   0  0  1  0  0  0  0  0  0  0  0  0
    2.2031    4.7644    9.6297 C   0  0  2  0  0  0  0  0  0  0  0  0
    4.7548    4.9573    7.7115 C   0  0  0  0  0  0  0  0  0  0  0  0
   -1.0330    7.1905    8.1052 O   0  0  0  0  0  0  0  0  0  0  0  0
    1.2269    5.4054   10.5071 O   0  0  0  0  0  0  0  0  0  0  0  0
   -3.0113    7.8986   11.2437 N   0  0  0  0  0  0  0  0  0  0  0  0
    3.3153    4.9064    7.3765 N   0  0  0  0  0  0  0  0  0  0  0  0
    0.5254    5.0426    7.0034 O   0  0  0  0  0  0  0  0  0  0  0  0
    3.4432    4.4753   10.3392 O   0  0  0  0  0  0  0  0  0  0  0  0
   -1.6841    9.2249    9.2048 O   0  0  0  0  0  0  0  0  0  0  0  0
    3.4733    3.3372   11.2545 C   0  0  2  0  0  0  0  0  0  0  0  0
    3.4937    3.8131   12.7350 C   0  0  1  0  0  0  0  0  0  0  0  0
    4.8567    4.4606   13.1129 C   0  0  2  0  0  0  0  0  0  0  0  0
    6.0434    3.5170   12.7618 C   0  0  1  0  0  0  0  0  0  0  0  0
    5.9652    3.0382   11.2853 C   0  0  1  0  0  0  0  0  0  0  0  0
    7.0621    1.9911   10.9587 C   0  0  0  0  0  0  0  0  0  0  0  0
    4.6396    2.5003   10.9942 O   0  0  0  0  0  0  0  0  0  0  0  0
    7.3459    4.1545   13.0545 N   0  0  0  0  0  0  0  0  0  0  0  0
    2.4010    4.6927   12.9936 O   0  0  0  0  0  0  0  0  0  0  0  0
    4.8859    4.8330   14.4890 O   0  0  0  0  0  0  0  0  0  0  0  0
    7.5928    2.2024    9.6544 O   0  0  0  0  0  0  0  0  0  0  0  0
   -2.4454   10.2559    8.5109 C   0  0  1  0  0  0  0  0  0  0  0  0
   -2.6229    9.9308    7.0013 C   0  0  1  0  0  0  0  0  0  0  0  0
   -3.3524   11.0873    6.2612 C   0  0  2  0  0  0  0  0  0  0  0  0
   -4.7099   11.4658    6.9377 C   0  0  1  0  0  0  0  0  0  0  0  0
   -4.5853   11.6658    8.4779 C   0  0  0  0  0  0  0  0  0  0  0  0
   -3.8301   10.4954    9.1769 C   0  0  2  0  0  0  0  0  0  0  0  0
   -5.3008   12.6603    6.2974 N   0  0  0  0  0  0  0  0  0  0  0  0
   -3.7093   10.7858   10.6221 N   0  0  0  0  0  0  0  0  0  0  0  0
   -1.3665    9.6532    6.3915 O   0  0  0  0  0  0  0  0  0  0  0  0
   -3.5550   10.7517    4.8908 O   0  0  0  0  0  0  0  0  0  0  0  0
  1  2  1  0  0  0  0
  1 16  1  1  0  0  0
  2  3  1  0  0  0  0
  2 12  1  1  0  0  0
  4 11  1  1  0  0  0
  4  3  1  0  0  0  0
  5  4  1  0  0  0  0
  5 10  1  6  0  0  0
  6  7  1  0  0  0  0
  6  5  1  0  0  0  0
  6 14  1  1  0  0  0
  7  8  1  0  0  0  0
  7 13  1  6  0  0  0
  8 15  1  1  0  0  0
  8 11  1  0  0  0  0
  9 13  1  0  0  0  0
 10  1  1  0  0  0  0
 17 15  1  6  0  0  0
 17 18  1  0  0  0  0
 18 25  1  6  0  0  0
 19 18  1  0  0  0  0
 19 26  1  1  0  0  0
 20 19  1  0  0  0  0
 20 24  1  6  0  0  0
 21 23  1  0  0  0  0
 21 20  1  0  0  0  0
 21 22  1  1  0  0  0
 23 17  1  0  0  0  0
 27 22  1  0  0  0  0
 28 29  1  0  0  0  0
 28 16  1  1  0  0  0
 29 36  1  6  0  0  0
 30 37  1  6  0  0  0
 30 29  1  0  0  0  0
 31 30  1  0  0  0  0
 31 34  1  6  0  0  0
 32 31  1  0  0  0  0
 32 33  1  0  0  0  0
 33 28  1  0  0  0  0
 33 35  1  1  0  0  0
M  END
>  <CHROM.1>
156.72166862,-159.29572802,153.90547547,-51.42959706,-107.22015422,-128.90524013
-35.18589941,-56.34831930,-140.91256139,66.84394991,-92.75849070,-46.09531277
-56.78770337,65.14472498,-158.43020640,171.20766245,0.85300050,6.66493518
9.56245022,2.77195481,0.64490955,-1.50012024

>  <Name>
lig.pdb

>  <RI>
0

>  <Rbt.Current_Directory>
/home/itssahil/PROJECTS/Mol_Feturizer/New_Systems/rnas/2m4q

>  <Rbt.Executable>
rbdock ($Id: //depot/dev/client3/rdock/2013.1/src/exe/rbdock.cxx#4 $)

>  <Rbt.Library>
libRbt.so (2013.1, Build901 2013/11/27)

>  <Rbt.Parameter_File>
/export/apps/rDock/src/rDock_2013.1_src/data/scripts/dock_solv.prm

>  <Rbt.Receptor>
prm/pocket_docking_2.prm

>  <SCORE>
-35.1037

>  <SCORE.INTER>
-24.5654

>  <SCORE.INTER.CONST>
1

>  <SCORE.INTER.POLAR>
-2.59066

>  <SCORE.INTER.ROT>
10

>  <SCORE.INTER.SOLV>
17.5605

>  <SCORE.INTER.VDW>
-23.8616

>  <SCORE.INTER.norm>
-0.66393

>  <SCORE.INTRA>
-11.019

>  <SCORE.INTRA.DIHEDRAL>
-14.7565

>  <SCORE.INTRA.DIHEDRAL.0>
44.8331

>  <SCORE.INTRA.POLAR>
-1.01428

>  <SCORE.INTRA.POLAR.0>
-0.108895

>  <SCORE.INTRA.REPUL>
-0.00912235

>  <SCORE.INTRA.REPUL.0>
0.00912235

>  <SCORE.INTRA.SOLV>
-0.813018

>  <SCORE.INTRA.SOLV.lig_0>
-53.9067

>  <SCORE.INTRA.VDW>
0.259947

>  <SCORE.INTRA.VDW.0>
-2.93492

>  <SCORE.INTRA.norm>
-0.297811

>  <SCORE.RESTR>
0.480756

>  <SCORE.RESTR.CAVITY>
0.480756

>  <SCORE.RESTR.norm>
0.0129934

>  <SCORE.SYSTEM>
0

>  <SCORE.SYSTEM.CONST>
0

>  <SCORE.SYSTEM.DIHEDRAL>
0

>  <SCORE.SYSTEM.SOLV>
0

>  <SCORE.SYSTEM.norm>
0

>  <SCORE.heavy>
37

>  <SCORE.norm>
-0.948747

>  <RMSD>
2.091

$$$$
lig.pdb
 OpenBabel11021811453D
libRbt.so/2013.1/901 2013/11/27
 37 40  0  0  0  0  0  0  0  0999 V2000
   -1.6015    6.5818    9.9658 C   0  0  2  0  0  0  0  0  0  0  0  0
   -1.2513    5.9595   11.3577 C   0  0  1  0  0  0  0  0  0  0  0  0
    0.2760    5.9459   11.6590 C   0  0  0  0  0  0  0  0  0  0  0  0
    1.0746    5.3664   10.4650 C   0  0  1  0  0  0  0  0  0  0  0  0
    0.7457    6.1569    9.1788 C   0  0  1  0  0  0  0  0  0  0  0  0
    1.5685    5.6269    7.9738 C   0  0  1  0  0  0  0  0  0  0  0  0
    3.0905    5.6092    8.3053 C   0  0  1  0  0  0  0  0  0  0  0  0
    3.3865    4.8783    9.6486 C   0  0  2  0  0  0  0  0  0  0  0  0
    4.3619    3.6702    7.5071 C   0  0  0  0  0  0  0  0  0  0  0  0
   -0.6870    6.1251    8.9170 O   0  0  0  0  0  0  0  0  0  0  0  0
    2.5090    5.3475   10.7180 O   0  0  0  0  0  0  0  0  0  0  0  0
   -1.9617    6.6949   12.4264 N   0  0  0  0  0  0  0  0  0  0  0  0
    3.8262    5.0077    7.1739 N   0  0  0  0  0  0  0  0  0  0  0  0
    1.1155    4.3431    7.5638 O   0  0  0  0  0  0  0  0  0  0  0  0
    4.7902    5.0287   10.0112 O   0  0  0  0  0  0  0  0  0  0  0  0
   -1.6177    8.0407   10.0289 O   0  0  0  0  0  0  0  0  0  0  0  0
    5.2093    4.6338   11.3537 C   0  0  2  0  0  0  0  0  0  0  0  0
    6.7508    4.7609   11.5162 C   0  0  1  0  0  0  0  0  0  0  0  0
    7.5074    3.6744   10.6997 C   0  0  2  0  0  0  0  0  0  0  0  0
    6.9769    2.2499   11.0334 C   0  0  1  0  0  0  0  0  0  0  0  0
    5.4309    2.1766   10.8920 C   0  0  1  0  0  0  0  0  0  0  0  0
    4.8732    0.8041   11.3520 C   0  0  0  0  0  0  0  0  0  0  0  0
    4.7997    3.2624   11.6363 O   0  0  0  0  0  0  0  0  0  0  0  0
    7.6441    1.2179   10.2099 N   0  0  0  0  0  0  0  0  0  0  0  0
    7.1839    6.0762   11.1741 O   0  0  0  0  0  0  0  0  0  0  0  0
    8.9154    3.7606   10.9087 O   0  0  0  0  0  0  0  0  0  0  0  0
    3.5701    0.9467   11.9080 O   0  0  0  0  0  0  0  0  0  0  0  0
   -2.4025    8.7531    9.0287 C   0  0  1  0  0  0  0  0  0  0  0  0
   -2.9759   10.0879    9.5818 C   0  0  1  0  0  0  0  0  0  0  0  0
   -3.8879   10.7835    8.5323 C   0  0  2  0  0  0  0  0  0  0  0  0
   -3.1700   10.9846    7.1583 C   0  0  1  0  0  0  0  0  0  0  0  0
   -2.4697    9.6910    6.6445 C   0  0  0  0  0  0  0  0  0  0  0  0
   -1.5830    9.0147    7.7332 C   0  0  2  0  0  0  0  0  0  0  0  0
   -4.1104   11.5119    6.1465 N   0  0  0  0  0  0  0  0  0  0  0  0
   -0.9984    7.7719    7.1845 N   0  0  0  0  0  0  0  0  0  0  0  0
   -3.6810    9.8703   10.7996 O   0  0  0  0  0  0  0  0  0  0  0  0
   -4.3626   12.0305    9.0338 O   0  0  0  0  0  0  0  0  0  0  0  0
  1  2  1  0  0  0  0
  1 16  1  1  0  0  0
  2  3  1  0  0  0  0
  2 12  1  1  0  0  0
  4 11  1  1  0  0  0
  4  3  1  0  0  0  0
  5  4  1  0  0  0  0
  5 10  1  6  0  0  0
  6  7  1  0  0  0  0
  6  5  1  0  0  0  0
  6 14  1  1  0  0  0
  7  8  1  0  0  0  0
  7 13  1  6  0  0  0
  8 15  1  1  0  0  0
  8 11  1  0  0  0  0
  9 13  1  0  0  0  0
 10  1  1  0  0  0  0
 17 15  1  6  0  0  0
 17 18  1  0  0  0  0
 18 25  1  6  0  0  0
 19 18  1  0  0  0  0
 19 26  1  1  0  0  0
 20 19  1  0  0  0  0
 20 24  1  6  0  0  0
 21 23  1  0  0  0  0
 21 20  1  0  0  0  0
 21 22  1  1  0  0  0
 23 17  1  0  0  0  0
 27 22  1  0  0  0  0
 28 29  1  0  0  0  0
 28 16  1  1  0  0  0
 29 36  1  1  0  0  0
 30 37  1  1  0  0  0
 30 29  1  0  0  0  0
 31 30  1  0  0  0  0
 31 34  1  6  0  0  0
 32 31  1  0  0  0  0
 32 33  1  0  0  0  0
 33 28  1  0  0  0  0
 33 35  1  6  0  0  0
M  END
>  <CHROM.1>
178.21692725,168.61585182,-109.26249761,53.23408554,175.53877999,-156.59988112
-179.37152527,-166.15373272,148.25266822,-68.71278285,60.67314003,148.93619784
-50.66306431,-56.13675085,53.93046910,-169.55181928,1.60084642,6.05419299
9.66611963,2.66327790,0.45547284,-1.00875504

>  <Name>
lig.pdb

>  <RI>
2.86754e+07

>  <Rbt.Current_Directory>
/home/itssahil/PROJECTS/Mol_Feturizer/New_Systems/rnas/2m4q

>  <Rbt.Executable>
rbdock ($Id: //depot/dev/client3/rdock/2013.1/src/exe/rbdock.cxx#4 $)

>  <Rbt.Library>
libRbt.so (2013.1, Build901 2013/11/27)

>  <Rbt.Parameter_File>
/export/apps/rDock/src/rDock_2013.1_src/data/scripts/dock_solv.prm

>  <Rbt.Receptor>
prm/pocket_docking_5.prm

>  <SCORE>
-44.973

>  <SCORE.INTER>
-36.5247

>  <SCORE.INTER.CONST>
1

>  <SCORE.INTER.POLAR>
-5.63752

>  <SCORE.INTER.ROT>
10

>  <SCORE.INTER.SOLV>
18.6467

>  <SCORE.INTER.VDW>
-22.0403

>  <SCORE.INTER.norm>
-0.987154

>  <SCORE.INTRA>
-8.44826

>  <SCORE.INTRA.DIHEDRAL>
-30.3271

>  <SCORE.INTRA.DIHEDRAL.0>
44.8331

>  <SCORE.INTRA.POLAR>
0.0587133

>  <SCORE.INTRA.POLAR.0>
-0.108895

>  <SCORE.INTRA.REPUL>
-0.00912235

>  <SCORE.INTRA.REPUL.0>
0.00912235

>  <SCORE.INTRA.SOLV>
-1.16829

>  <SCORE.INTRA.SOLV.lig_0>
-53.9067

>  <SCORE.INTRA.VDW>
7.14544

>  <SCORE.INTRA.VDW.0>
-2.93492

>  <SCORE.INTRA.norm>
-0.228331

>  <SCORE.RESTR>
0

>  <SCORE.RESTR.CAVITY>
0

>  <SCORE.RESTR.norm>
0

>  <SCORE.SYSTEM>
0

>  <SCORE.SYSTEM.CONST>
0

>  <SCORE.SYSTEM.DIHEDRAL>
0

>  <SCORE.SYSTEM.SOLV>
0

>  <SCORE.SYSTEM.norm>
0

>  <SCORE.heavy>
37

>  <SCORE.norm>
-1.21549

>  <RMSD>
2.091

$$$$
lig.pdb
 OpenBabel11021811453D
libRbt.so/2013.1/901 2013/11/27
 37 40  0  0  0  0  0  0  0  0999 V2000
   -3.1389    9.0489   10.4836 C   0  0  2  0  0  0  0  0  0  0  0  0
   -3.2993    8.6270   11.9814 C   0  0  1  0  0  0  0  0  0  0  0  0
   -1.9665    8.1572   12.6346 C   0  0  0  0  0  0  0  0  0  0  0  0
   -1.2412    7.1225   11.7389 C   0  0  1  0  0  0  0  0  0  0  0  0
   -1.0177    7.7124   10.3284 C   0  0  1  0  0  0  0  0  0  0  0  0
   -0.2499    6.7130    9.4220 C   0  0  1  0  0  0  0  0  0  0  0  0
    1.0711    6.2471   10.1036 C   0  0  1  0  0  0  0  0  0  0  0  0
    0.8296    5.7341   11.5543 C   0  0  2  0  0  0  0  0  0  0  0  0
    2.7755    5.8039    8.3970 C   0  0  0  0  0  0  0  0  0  0  0  0
   -2.2882    8.1162    9.7410 O   0  0  0  0  0  0  0  0  0  0  0  0
    0.0136    6.6697   12.3241 O   0  0  0  0  0  0  0  0  0  0  0  0
   -3.8640    9.7513   12.7591 N   0  0  0  0  0  0  0  0  0  0  0  0
    1.7198    5.2254    9.2559 N   0  0  0  0  0  0  0  0  0  0  0  0
   -1.0664    5.6040    9.0687 O   0  0  0  0  0  0  0  0  0  0  0  0
    2.0998    5.4689   12.2183 O   0  0  0  0  0  0  0  0  0  0  0  0
   -2.6229   10.4103   10.3710 O   0  0  0  0  0  0  0  0  0  0  0  0
    2.5137    4.0800   12.4014 C   0  0  2  0  0  0  0  0  0  0  0  0
    3.5002    3.9454   13.5962 C   0  0  1  0  0  0  0  0  0  0  0  0
    4.8880    4.5680   13.2699 C   0  0  2  0  0  0  0  0  0  0  0  0
    5.4618    3.9962   11.9411 C   0  0  1  0  0  0  0  0  0  0  0  0
    4.4322    4.1191   10.7834 C   0  0  1  0  0  0  0  0  0  0  0  0
    4.9357    3.4317    9.4871 C   0  0  0  0  0  0  0  0  0  0  0  0
    3.1424    3.5680   11.1886 O   0  0  0  0  0  0  0  0  0  0  0  0
    6.7490    4.6348   11.5891 N   0  0  0  0  0  0  0  0  0  0  0  0
    2.9341    4.5066   14.7790 O   0  0  0  0  0  0  0  0  0  0  0  0
    5.8027    4.3804   14.3476 O   0  0  0  0  0  0  0  0  0  0  0  0
    6.0964    4.0854    8.9843 O   0  0  0  0  0  0  0  0  0  0  0  0
   -3.1206   11.2349    9.2772 C   0  0  1  0  0  0  0  0  0  0  0  0
   -3.5455   10.3796    8.0508 C   0  0  1  0  0  0  0  0  0  0  0  0
   -3.9814   11.2822    6.8622 C   0  0  2  0  0  0  0  0  0  0  0  0
   -5.0894   12.3079    7.2673 C   0  0  1  0  0  0  0  0  0  0  0  0
   -4.7480   13.0856    8.5736 C   0  0  0  0  0  0  0  0  0  0  0  0
   -4.2961   12.1459    9.7319 C   0  0  2  0  0  0  0  0  0  0  0  0
   -5.3718   13.2420    6.1566 N   0  0  0  0  0  0  0  0  0  0  0  0
   -3.9422   12.9622   10.9134 N   0  0  0  0  0  0  0  0  0  0  0  0
   -2.4971    9.4992    7.6594 O   0  0  0  0  0  0  0  0  0  0  0  0
   -4.4182   10.4840    5.7651 O   0  0  0  0  0  0  0  0  0  0  0  0
  1  2  1  0  0  0  0
  1 16  1  1  0  0  0
  2  3  1  0  0  0  0
  2 12  1  1  0  0  0
  4 11  1  1  0  0  0
  4  3  1  0  0  0  0
  5  4  1  0  0  0  0
  5 10  1  6  0  0  0
  6  7  1  0  0  0  0
  6  5  1  0  0  0  0
  6 14  1  1  0  0  0
  7  8  1  0  0  0  0
  7 13  1  6  0  0  0
  8 15  1  1  0  0  0
  8 11  1  0  0  0  0
  9 13  1  0  0  0  0
 10  1  1  0  0  0  0
 17 15  1  6  0  0  0
 17 18  1  0  0  0  0
 18 25  1  1  0  0  0
 19 18  1  0  0  0  0
 19 26  1  1  0  0  0
 20 19  1  0  0  0  0
 20 24  1  6  0  0  0
 21 23  1  0  0  0  0
 21 20  1  0  0  0  0
 21 22  1  6  0  0  0
 23 17  1  0  0  0  0
 27 22  1  0  0  0  0
 28 29  1  0  0  0  0
 28 16  1  1  0  0  0
 29 36  1  6  0  0  0
 30 37  1  6  0  0  0
 30 29  1  0  0  0  0
 31 30  1  0  0  0  0
 31 34  1  6  0  0  0
 32 31  1  0  0  0  0
 32 33  1  0  0  0  0
 33 28  1  0  0  0  0
 33 35  1  1  0  0  0
M  END
>  <CHROM.1>
-63.57017109,-105.45061198,97.27777451,85.66673336,-155.64838196,-144.02718130
-179.99942175,62.31909107,-64.49667501,-49.03299561,178.30049005,-28.35732773
161.78388632,-63.73923684,-178.22401828,-68.46647069,-0.03609113,7.49995127
10.40163552,2.78978554,0.66729442,-1.47347514

>  <Name>
lig.pdb

>  <RI>
0

>  <Rbt.Current_Directory>
/home/itssahil/PROJECTS/Mol_Feturizer/New_Systems/rnas/2m4q

>  <Rbt.Executable>
rbdock ($Id: //depot/dev/client3/rdock/2013.1/src/exe/rbdock.cxx#4 $)

>  <Rbt.Library>
libRbt.so (2013.1, Build901 2013/11/27)

>  <Rbt.Parameter_File>
/export/apps/rDock/src/rDock_2013.1_src/data/scripts/dock_solv.prm

>  <Rbt.Receptor>
prm/pocket_docking_2.prm

>  <SCORE>
-28.8534

>  <SCORE.INTER>
-17.5331

>  <SCORE.INTER.CONST>
1

>  <SCORE.INTER.POLAR>
-2.69043

>  <SCORE.INTER.ROT>
10

>  <SCORE.INTER.SOLV>
12.7064

>  <SCORE.INTER.VDW>
-17.2228

>  <SCORE.INTER.norm>
-0.473869

>  <SCORE.INTRA>
-11.954

>  <SCORE.INTRA.DIHEDRAL>
-20.6801

>  <SCORE.INTRA.DIHEDRAL.0>
44.8331

>  <SCORE.INTRA.POLAR>
-0.546146

>  <SCORE.INTRA.POLAR.0>
-0.108895

>  <SCORE.INTRA.REPUL>
-0.00881791

>  <SCORE.INTRA.REPUL.0>
0.00912235

>  <SCORE.INTRA.SOLV>
0.591495

>  <SCORE.INTRA.SOLV.lig_0>
-53.9067

>  <SCORE.INTRA.VDW>
-0.00874986

>  <SCORE.INTRA.VDW.0>
-2.93492

>  <SCORE.INTRA.norm>
-0.323082

>  <SCORE.RESTR>
0.63378

>  <SCORE.RESTR.CAVITY>
0.63378

>  <SCORE.RESTR.norm>
0.0171292

>  <SCORE.SYSTEM>
0

>  <SCORE.SYSTEM.CONST>
0

>  <SCORE.SYSTEM.DIHEDRAL>
0

>  <SCORE.SYSTEM.SOLV>
0

>  <SCORE.SYSTEM.norm>
0

>  <SCORE.heavy>
37

>  <SCORE.norm>
-0.779821

>  <RMSD>
2.098

$$$$
lig.pdb
 OpenBabel11021811453D
libRbt.so/2013.1/901 2013/11/27
 37 40  0  0  0  0  0  0  0  0999 V2000
   -1.7618    6.6944   10.6197 C   0  0  2  0  0  0  0  0  0  0  0  0
   -1.4159    5.9048   11.9251 C   0  0  1  0  0  0  0  0  0  0  0  0
    0.1142    5.7211   12.1461 C   0  0  0  0  0  0  0  0  0  0  0  0
    0.8036    5.1950   10.8627 C   0  0  1  0  0  0  0  0  0  0  0  0
    0.4994    6.1385    9.6775 C   0  0  1  0  0  0  0  0  0  0  0  0
    1.2171    5.6604    8.3868 C   0  0  1  0  0  0  0  0  0  0  0  0
    2.7427    5.4700    8.6376 C   0  0  1  0  0  0  0  0  0  0  0  0
    3.0223    4.5828    9.8870 C   0  0  2  0  0  0  0  0  0  0  0  0
    4.8023    5.2767    7.3206 C   0  0  0  0  0  0  0  0  0  0  0  0
   -0.9393    6.2645    9.4866 O   0  0  0  0  0  0  0  0  0  0  0  0
    2.2388    5.0194   11.0398 O   0  0  0  0  0  0  0  0  0  0  0  0
   -2.0077    6.5899   13.0947 N   0  0  0  0  0  0  0  0  0  0  0  0
    3.3700    4.9215    7.4175 N   0  0  0  0  0  0  0  0  0  0  0  0
    0.6265    4.4715    7.8775 O   0  0  0  0  0  0  0  0  0  0  0  0
    4.4477    4.5667   10.1910 O   0  0  0  0  0  0  0  0  0  0  0  0
   -1.6352    8.1347   10.8247 O   0  0  0  0  0  0  0  0  0  0  0  0
    4.8696    4.1722   11.5327 C   0  0  2  0  0  0  0  0  0  0  0  0
    6.4206    4.1518   11.6458 C   0  0  1  0  0  0  0  0  0  0  0  0
    7.0410    2.9725   10.8431 C   0  0  2  0  0  0  0  0  0  0  0  0
    6.3853    1.6176   11.2384 C   0  0  1  0  0  0  0  0  0  0  0  0
    4.8358    1.6925   11.1449 C   0  0  1  0  0  0  0  0  0  0  0  0
    4.1622    0.3957   11.6653 C   0  0  0  0  0  0  0  0  0  0  0  0
    4.3377    2.8566   11.8716 O   0  0  0  0  0  0  0  0  0  0  0  0
    6.9218    0.5011   10.4296 N   0  0  0  0  0  0  0  0  0  0  0  0
    6.9684    5.4075   11.2486 O   0  0  0  0  0  0  0  0  0  0  0  0
    8.4566    2.9259   11.0078 O   0  0  0  0  0  0  0  0  0  0  0  0
    4.6023   -0.7373   10.9237 O   0  0  0  0  0  0  0  0  0  0  0  0
   -2.5932    9.0015   10.1504 C   0  0  1  0  0  0  0  0  0  0  0  0
   -2.8928   10.2870   10.9715 C   0  0  1  0  0  0  0  0  0  0  0  0
   -3.9875   11.1495   10.2823 C   0  0  2  0  0  0  0  0  0  0  0  0
   -3.6386   11.4785    8.7944 C   0  0  1  0  0  0  0  0  0  0  0  0
   -3.2033   10.2226    7.9813 C   0  0  0  0  0  0  0  0  0  0  0  0
   -2.1212    9.3758    8.7167 C   0  0  2  0  0  0  0  0  0  0  0  0
   -4.7643   12.1710    8.1318 N   0  0  0  0  0  0  0  0  0  0  0  0
   -1.8024    8.1804    7.9064 N   0  0  0  0  0  0  0  0  0  0  0  0
   -3.2714    9.9599   12.3046 O   0  0  0  0  0  0  0  0  0  0  0  0
   -4.2125   12.3492   11.0184 O   0  0  0  0  0  0  0  0  0  0  0  0
  1  2  1  0  0  0  0
  1 16  1  1  0  0  0
  2  3  1  0  0  0  0
  2 12  1  1  0  0  0
  4 11  1  1  0  0  0
  4  3  1  0  0  0  0
  5  4  1  0  0  0  0
  5 10  1  6  0  0  0
  6  7  1  0  0  0  0
  6  5  1  0  0  0  0
  6 14  1  1  0  0  0
  7  8  1  0  0  0  0
  7 13  1  6  0  0  0
  8 15  1  1  0  0  0
  8 11  1  0  0  0  0
  9 13  1  0  0  0  0
 10  1  1  0  0  0  0
 17 15  1  6  0  0  0
 17 18  1  0  0  0  0
 18 25  1  6  0  0  0
 19 18  1  0  0  0  0
 19 26  1  1  0  0  0
 20 19  1  0  0  0  0
 20 24  1  6  0  0  0
 21 23  1  0  0  0  0
 21 20  1  0  0  0  0
 21 22  1  1  0  0  0
 23 17  1  0  0  0  0
 27 22  1  0  0  0  0
 28 29  1  0  0  0  0
 28 16  1  1  0  0  0
 29 36  1  1  0  0  0
 30 37  1  1  0  0  0
 30 29  1  0  0  0  0
 31 30  1  0  0  0  0
 31 34  1  6  0  0  0
 32 31  1  0  0  0  0
 32 33  1  0  0  0  0
 33 28  1  0  0  0  0
 33 35  1  6  0  0  0
M  END
>  <CHROM.1>
173.63153708,160.39474689,153.78125380,56.67476712,177.34147227,-143.50115651
-59.66898419,179.44115727,-58.90365993,-166.98974640,169.13727342,148.37457937
-60.45408968,-57.44052963,-173.52916988,-165.16206339,1.33309497,5.94365573
10.25043518,2.70516331,0.57652208,-0.97081361

>  <Name>
lig.pdb

>  <RI>
3.87352e+07

>  <Rbt.Current_Directory>
/home/itssahil/PROJECTS/Mol_Feturizer/New_Systems/rnas/2m4q

>  <Rbt.Executable>
rbdock ($Id: //depot/dev/client3/rdock/2013.1/src/exe/rbdock.cxx#4 $)

>  <Rbt.Library>
libRbt.so (2013.1, Build901 2013/11/27)

>  <Rbt.Parameter_File>
/export/apps/rDock/src/rDock_2013.1_src/data/scripts/dock_solv.prm

>  <Rbt.Receptor>
prm/pocket_docking_4.prm

>  <SCORE>
-48.547

>  <SCORE.INTER>
-30.3974

>  <SCORE.INTER.CONST>
1

>  <SCORE.INTER.POLAR>
-3.78857

>  <SCORE.INTER.ROT>
10

>  <SCORE.INTER.SOLV>
22.1249

>  <SCORE.INTER.VDW>
-25.278

>  <SCORE.INTER.norm>
-0.82155

>  <SCORE.INTRA>
-18.2869

>  <SCORE.INTRA.DIHEDRAL>
-31.5403

>  <SCORE.INTRA.DIHEDRAL.0>
44.8331

>  <SCORE.INTRA.POLAR>
-0.724458

>  <SCORE.INTRA.POLAR.0>
-0.108895

>  <SCORE.INTRA.REPUL>
0.036888

>  <SCORE.INTRA.REPUL.0>
0.00912235

>  <SCORE.INTRA.SOLV>
-1.00008

>  <SCORE.INTRA.SOLV.lig_0>
-53.9067

>  <SCORE.INTRA.VDW>
0.261973

>  <SCORE.INTRA.VDW.0>
-2.93492

>  <SCORE.INTRA.norm>
-0.494241

>  <SCORE.RESTR>
0.137252

>  <SCORE.RESTR.CAVITY>
0.137252

>  <SCORE.RESTR.norm>
0.0037095

>  <SCORE.SYSTEM>
0

>  <SCORE.SYSTEM.CONST>
0

>  <SCORE.SYSTEM.DIHEDRAL>
0

>  <SCORE.SYSTEM.SOLV>
0

>  <SCORE.SYSTEM.norm>
0

>  <SCORE.heavy>
37

>  <SCORE.norm>
-1.31208

>  <RMSD>
2.137

$$$$
lig.pdb
 OpenBabel11021811453D
libRbt.so/2013.1/901 2013/11/27
 37 40  0  0  0  0  0  0  0  0999 V2000
   -3.0441    8.6331   10.6563 C   0  0  2  0  0  0  0  0  0  0  0  0
   -2.9824    8.2521   12.1723 C   0  0  1  0  0  0  0  0  0  0  0  0
   -1.5519    7.8697   12.6530 C   0  0  0  0  0  0  0  0  0  0  0  0
   -0.8975    6.8438   11.6947 C   0  0  1  0  0  0  0  0  0  0  0  0
   -0.8942    7.3985   10.2526 C   0  0  1  0  0  0  0  0  0  0  0  0
   -0.2011    6.4096    9.2772 C   0  0  1  0  0  0  0  0  0  0  0  0
    1.2214    6.0314    9.7875 C   0  0  1  0  0  0  0  0  0  0  0  0
    1.2015    5.5540   11.2700 C   0  0  2  0  0  0  0  0  0  0  0  0
    3.2153    5.3138    8.5535 C   0  0  0  0  0  0  0  0  0  0  0  0
   -2.2508    7.7201    9.8304 O   0  0  0  0  0  0  0  0  0  0  0  0
    0.4460    6.4724   12.1182 O   0  0  0  0  0  0  0  0  0  0  0  0
   -3.4982    9.3716   12.9899 N   0  0  0  0  0  0  0  0  0  0  0  0
    1.8056    5.0163    8.8867 N   0  0  0  0  0  0  0  0  0  0  0  0
   -0.9971    5.2509    9.0644 O   0  0  0  0  0  0  0  0  0  0  0  0
    2.5606    5.3731   11.7646 O   0  0  0  0  0  0  0  0  0  0  0  0
   -2.6206   10.0140   10.4414 O   0  0  0  0  0  0  0  0  0  0  0  0
    2.9901    4.0302   12.1468 C   0  0  2  0  0  0  0  0  0  0  0  0
    3.3865    3.9785   13.6497 C   0  0  1  0  0  0  0  0  0  0  0  0
    4.7147    4.7413   13.9215 C   0  0  2  0  0  0  0  0  0  0  0  0
    5.8490    4.2483   12.9770 C   0  0  1  0  0  0  0  0  0  0  0  0
    5.3993    4.2836   11.4897 C   0  0  1  0  0  0  0  0  0  0  0  0
    6.4677    3.6680   10.5484 C   0  0  0  0  0  0  0  0  0  0  0  0
    4.1191    3.6006   11.3287 O   0  0  0  0  0  0  0  0  0  0  0  0
    7.0960    5.0173   13.1825 N   0  0  0  0  0  0  0  0  0  0  0  0
    2.3218    4.4637   14.4656 O   0  0  0  0  0  0  0  0  0  0  0  0
    5.1010    4.6312   15.2898 O   0  0  0  0  0  0  0  0  0  0  0  0
    6.6517    2.2838   10.8266 O   0  0  0  0  0  0  0  0  0  0  0  0
   -3.0412   10.6673    9.2084 C   0  0  1  0  0  0  0  0  0  0  0  0
   -2.5427    9.9065    7.9479 C   0  0  1  0  0  0  0  0  0  0  0  0
   -2.9185   10.6707    6.6471 C   0  0  2  0  0  0  0  0  0  0  0  0
   -4.4459   10.9932    6.5650 C   0  0  1  0  0  0  0  0  0  0  0  0
   -5.0015   11.6356    7.8713 C   0  0  0  0  0  0  0  0  0  0  0  0
   -4.5844   10.8510    9.1516 C   0  0  2  0  0  0  0  0  0  0  0  0
   -4.7408   11.8444    5.3926 N   0  0  0  0  0  0  0  0  0  0  0  0
   -5.1053   11.5514   10.3454 N   0  0  0  0  0  0  0  0  0  0  0  0
   -1.1382    9.6813    8.0143 O   0  0  0  0  0  0  0  0  0  0  0  0
   -2.5021    9.9349    5.4995 O   0  0  0  0  0  0  0  0  0  0  0  0
  1  2  1  0  0  0  0
  1 16  1  1  0  0  0
  2  3  1  0  0  0  0
  2 12  1  1  0  0  0
  4 11  1  1  0  0  0
  4  3  1  0  0  0  0
  5  4  1  0  0  0  0
  5 10  1  6  0  0  0
  6  7  1  0  0  0  0
  6  5  1  0  0  0  0
  6 14  1  1  0  0  0
  7  8  1  0  0  0  0
  7 13  1  6  0  0  0
  8 15  1  1  0  0  0
  8 11  1  0  0  0  0
  9 13  1  0  0  0  0
 10  1  1  0  0  0  0
 17 15  1  6  0  0  0
 17 18  1  0  0  0  0
 18 25  1  1  0  0  0
 19 18  1  0  0  0  0
 19 26  1  1  0  0  0
 20 19  1  0  0  0  0
 20 24  1  6  0  0  0
 21 23  1  0  0  0  0
 21 20  1  0  0  0  0
 21 22  1  6  0  0  0
 23 17  1  0  0  0  0
 27 22  1  0  0  0  0
 28 29  1  0  0  0  0
 28 16  1  1  0  0  0
 29 36  1  1  0  0  0
 30 37  1  6  0  0  0
 30 29  1  0  0  0  0
 31 30  1  0  0  0  0
 31 34  1  6  0  0  0
 32 31  1  0  0  0  0
 32 33  1  0  0  0  0
 33 28  1  0  0  0  0
 33 35  1  1  0  0  0
M  END
>  <CHROM.1>
-64.57087547,-115.95666850,135.50827305,163.32052455,-119.07773217,-159.33544646
61.92315457,60.28496704,64.08152823,-56.43727269,-178.79074124,-58.88214631
-61.09721404,56.17350856,178.78943511,128.21441361,0.29831505,7.11642765
10.48864655,2.70473379,0.59537394,-1.45069271

>  <Name>
lig.pdb

>  <RI>
0

>  <Rbt.Current_Directory>
/home/itssahil/PROJECTS/Mol_Feturizer/New_Systems/rnas/2m4q

>  <Rbt.Executable>
rbdock ($Id: //depot/dev/client3/rdock/2013.1/src/exe/rbdock.cxx#4 $)

>  <Rbt.Library>
libRbt.so (2013.1, Build901 2013/11/27)

>  <Rbt.Parameter_File>
/export/apps/rDock/src/rDock_2013.1_src/data/scripts/dock_solv.prm

>  <Rbt.Receptor>
prm/pocket_docking_2.prm

>  <SCORE>
-26.098

>  <SCORE.INTER>
-14.6574

>  <SCORE.INTER.CONST>
1

>  <SCORE.INTER.POLAR>
-1.51276

>  <SCORE.INTER.ROT>
10

>  <SCORE.INTER.SOLV>
13.8034

>  <SCORE.INTER.VDW>
-19.5969

>  <SCORE.INTER.norm>
-0.396146

>  <SCORE.INTRA>
-11.6852

>  <SCORE.INTRA.DIHEDRAL>
-22.4918

>  <SCORE.INTRA.DIHEDRAL.0>
44.8331

>  <SCORE.INTRA.POLAR>
0.108895

>  <SCORE.INTRA.POLAR.0>
-0.108895

>  <SCORE.INTRA.REPUL>
-0.00673498

>  <SCORE.INTRA.REPUL.0>
0.00912235

>  <SCORE.INTRA.SOLV>
-0.491261

>  <SCORE.INTRA.SOLV.lig_0>
-53.9067

>  <SCORE.INTRA.VDW>
-0.530228

>  <SCORE.INTRA.VDW.0>
-2.93492

>  <SCORE.INTRA.norm>
-0.315816

>  <SCORE.RESTR>
0.244546

>  <SCORE.RESTR.CAVITY>
0.244546

>  <SCORE.RESTR.norm>
0.00660936

>  <SCORE.SYSTEM>
0

>  <SCORE.SYSTEM.CONST>
0

>  <SCORE.SYSTEM.DIHEDRAL>
0

>  <SCORE.SYSTEM.SOLV>
0

>  <SCORE.SYSTEM.norm>
0

>  <SCORE.heavy>
37

>  <SCORE.norm>
-0.705353

>  <RMSD>
2.160

$$$$
lig.pdb
 OpenBabel11021811453D
libRbt.so/2013.1/901 2013/11/27
 37 40  0  0  0  0  0  0  0  0999 V2000
   -1.4456    6.9106   10.2541 C   0  0  2  0  0  0  0  0  0  0  0  0
   -1.4832    5.8507   11.4040 C   0  0  1  0  0  0  0  0  0  0  0  0
   -0.0690    5.3773   11.8511 C   0  0  0  0  0  0  0  0  0  0  0  0
    0.7997    4.9856   10.6300 C   0  0  1  0  0  0  0  0  0  0  0  0
    0.8723    6.1659    9.6356 C   0  0  1  0  0  0  0  0  0  0  0  0
    1.7761    5.8173    8.4227 C   0  0  1  0  0  0  0  0  0  0  0  0
    3.1789    5.3329    8.8963 C   0  0  1  0  0  0  0  0  0  0  0  0
    3.0762    4.1995    9.9598 C   0  0  2  0  0  0  0  0  0  0  0  0
    4.7261    6.0461    7.1324 C   0  0  0  0  0  0  0  0  0  0  0  0
   -0.4668    6.5627    9.2216 O   0  0  0  0  0  0  0  0  0  0  0  0
    2.1319    4.5439   11.0198 O   0  0  0  0  0  0  0  0  0  0  0  0
   -2.2132    6.4009   12.5667 N   0  0  0  0  0  0  0  0  0  0  0  0
    3.9713    4.9183    7.7202 N   0  0  0  0  0  0  0  0  0  0  0  0
    1.1576    4.8562    7.5770 O   0  0  0  0  0  0  0  0  0  0  0  0
    4.3929    3.8910   10.5034 O   0  0  0  0  0  0  0  0  0  0  0  0
   -1.1815    8.2481   10.7775 O   0  0  0  0  0  0  0  0  0  0  0  0
    4.4970    2.8637   11.5368 C   0  0  2  0  0  0  0  0  0  0  0  0
    4.6684    3.5038   12.9437 C   0  0  1  0  0  0  0  0  0  0  0  0
    6.0704    4.1562   13.1125 C   0  0  2  0  0  0  0  0  0  0  0  0
    7.2043    3.1500   12.7608 C   0  0  1  0  0  0  0  0  0  0  0  0
    6.9757    2.5088   11.3636 C   0  0  1  0  0  0  0  0  0  0  0  0
    8.0212    1.4047   11.0567 C   0  0  0  0  0  0  0  0  0  0  0  0
    5.6208    1.9742   11.2645 O   0  0  0  0  0  0  0  0  0  0  0  0
    8.5376    3.7843   12.8523 N   0  0  0  0  0  0  0  0  0  0  0  0
    3.6181    4.4337   13.2024 O   0  0  0  0  0  0  0  0  0  0  0  0
    6.2390    4.6816   14.4274 O   0  0  0  0  0  0  0  0  0  0  0  0
    8.1632    0.5191   12.1625 O   0  0  0  0  0  0  0  0  0  0  0  0
   -2.2282    9.2515   10.6311 C   0  0  1  0  0  0  0  0  0  0  0  0
   -2.1337   10.3541   11.7227 C   0  0  1  0  0  0  0  0  0  0  0  0
   -3.3143   11.3592   11.6075 C   0  0  2  0  0  0  0  0  0  0  0  0
   -3.4399   11.9699   10.1740 C   0  0  1  0  0  0  0  0  0  0  0  0
   -3.4014   10.8919    9.0496 C   0  0  0  0  0  0  0  0  0  0  0  0
   -2.2163    9.8934    9.2146 C   0  0  2  0  0  0  0  0  0  0  0  0
   -4.6558   12.8038   10.0630 N   0  0  0  0  0  0  0  0  0  0  0  0
   -2.2814    8.8764    8.1428 N   0  0  0  0  0  0  0  0  0  0  0  0
   -2.0862    9.7767   13.0234 O   0  0  0  0  0  0  0  0  0  0  0  0
   -3.1846   12.3931   12.5801 O   0  0  0  0  0  0  0  0  0  0  0  0
  1  2  1  0  0  0  0
  1 16  1  1  0  0  0
  2  3  1  0  0  0  0
  2 12  1  1  0  0  0
  4 11  1  1  0  0  0
  4  3  1  0  0  0  0
  5  4  1  0  0  0  0
  5 10  1  6  0  0  0
  6  7  1  0  0  0  0
  6  5  1  0  0  0  0
  6 14  1  1  0  0  0
  7  8  1  0  0  0  0
  7 13  1  6  0  0  0
  8 15  1  1  0  0  0
  8 11  1  0  0  0  0
  9 13  1  0  0  0  0
 10  1  1  0  0  0  0
 17 15  1  6  0  0  0
 17 18  1  0  0  0  0
 18 25  1  6  0  0  0
 19 18  1  0  0  0  0
 19 26  1  1  0  0  0
 20 19  1  0  0  0  0
 20 24  1  6  0  0  0
 21 23  1  0  0  0  0
 21 20  1  0  0  0  0
 21 22  1  1  0  0  0
 23 17  1  0  0  0  0
 27 22  1  0  0  0  0
 28 29  1  0  0  0  0
 28 16  1  6  0  0  0
 29 36  1  1  0  0  0
 30 37  1  1  0  0  0
 30 29  1  0  0  0  0
 31 30  1  0  0  0  0
 31 34  1  1  0  0  0
 32 31  1  0  0  0  0
 32 33  1  0  0  0  0
 33 28  1  0  0  0  0
 33 35  1  6  0  0  0
M  END
>  <CHROM.1>
74.22387304,178.97217916,88.56969763,169.86799878,-102.59320831,-115.47759228
42.30551664,63.15041672,47.22753844,-53.96198134,71.70698672,154.06864460
65.31832794,60.12851468,175.52238668,-172.59301300,1.64311279,6.22830711
10.84872996,3.08954510,-0.68126054,1.33948656

>  <Name>
lig.pdb

>  <RI>
0

>  <Rbt.Current_Directory>
/home/itssahil/PROJECTS/Mol_Feturizer/New_Systems/rnas/2m4q

>  <Rbt.Executable>
rbdock ($Id: //depot/dev/client3/rdock/2013.1/src/exe/rbdock.cxx#4 $)

>  <Rbt.Library>
libRbt.so (2013.1, Build901 2013/11/27)

>  <Rbt.Parameter_File>
/export/apps/rDock/src/rDock_2013.1_src/data/scripts/dock_solv.prm

>  <Rbt.Receptor>
prm/pocket_docking_6.prm

>  <SCORE>
-35.7212

>  <SCORE.INTER>
-21.7285

>  <SCORE.INTER.CONST>
1

>  <SCORE.INTER.POLAR>
-3.2885

>  <SCORE.INTER.ROT>
10

>  <SCORE.INTER.SOLV>
14.3848

>  <SCORE.INTER.VDW>
-18.5856

>  <SCORE.INTER.norm>
-0.587257

>  <SCORE.INTRA>
-13.9927

>  <SCORE.INTRA.DIHEDRAL>
-23.5359

>  <SCORE.INTRA.DIHEDRAL.0>
44.8331

>  <SCORE.INTRA.POLAR>
-0.318091

>  <SCORE.INTRA.POLAR.0>
-0.108895

>  <SCORE.INTRA.REPUL>
-0.00912235

>  <SCORE.INTRA.REPUL.0>
0.00912235

>  <SCORE.INTRA.SOLV>
-0.564265

>  <SCORE.INTRA.SOLV.lig_0>
-53.9067

>  <SCORE.INTRA.VDW>
-0.815477

>  <SCORE.INTRA.VDW.0>
-2.93492

>  <SCORE.INTRA.norm>
-0.378181

>  <SCORE.RESTR>
0

>  <SCORE.RESTR.CAVITY>
0

>  <SCORE.RESTR.norm>
0

>  <SCORE.SYSTEM>
0

>  <SCORE.SYSTEM.CONST>
0

>  <SCORE.SYSTEM.DIHEDRAL>
0

>  <SCORE.SYSTEM.SOLV>
0

>  <SCORE.SYSTEM.norm>
0

>  <SCORE.heavy>
37

>  <SCORE.norm>
-0.965438

>  <RMSD>
2.164

$$$$
lig.pdb
 OpenBabel11021811453D
libRbt.so/2013.1/901 2013/11/27
 37 40  0  0  0  0  0  0  0  0999 V2000
   -2.2645    8.3292    9.2987 C   0  0  2  0  0  0  0  0  0  0  0  0
   -2.5940    7.4198   10.5282 C   0  0  1  0  0  0  0  0  0  0  0  0
   -1.3345    6.7548   11.1569 C   0  0  0  0  0  0  0  0  0  0  0  0
   -0.4541    6.0896   10.0700 C   0  0  1  0  0  0  0  0  0  0  0  0
   -0.0810    7.1270    8.9874 C   0  0  1  0  0  0  0  0  0  0  0  0
    0.8411    6.4987    7.9083 C   0  0  1  0  0  0  0  0  0  0  0  0
    2.0852    5.8276    8.5631 C   0  0  1  0  0  0  0  0  0  0  0  0
    1.6855    4.8487    9.7069 C   0  0  2  0  0  0  0  0  0  0  0  0
    4.3018    5.0108    7.9050 C   0  0  0  0  0  0  0  0  0  0  0  0
   -1.2840    7.7074    8.4059 O   0  0  0  0  0  0  0  0  0  0  0  0
    0.7359    5.4639   10.6307 O   0  0  0  0  0  0  0  0  0  0  0  0
   -3.3044    8.2096   11.5574 N   0  0  0  0  0  0  0  0  0  0  0  0
    2.8829    5.1582    7.5150 N   0  0  0  0  0  0  0  0  0  0  0  0
    0.1285    5.5776    7.0926 O   0  0  0  0  0  0  0  0  0  0  0  0
    2.8721    4.3723   10.4067 O   0  0  0  0  0  0  0  0  0  0  0  0
   -1.8021    9.6470    9.7257 O   0  0  0  0  0  0  0  0  0  0  0  0
    2.7973    4.1781   11.8526 C   0  0  2  0  0  0  0  0  0  0  0  0
    3.5020    5.3406   12.6082 C   0  0  1  0  0  0  0  0  0  0  0  0
    5.0473    5.2845   12.4384 C   0  0  2  0  0  0  0  0  0  0  0  0
    5.6043    3.8836   12.8243 C   0  0  1  0  0  0  0  0  0  0  0  0
    4.8501    2.7507   12.0738 C   0  0  1  0  0  0  0  0  0  0  0  0
    5.3000    1.3441   12.5485 C   0  0  0  0  0  0  0  0  0  0  0  0
    3.4073    2.9083   12.2319 O   0  0  0  0  0  0  0  0  0  0  0  0
    7.0642    3.8015   12.5993 N   0  0  0  0  0  0  0  0  0  0  0  0
    2.9706    6.5993   12.1984 O   0  0  0  0  0  0  0  0  0  0  0  0
    5.6855    6.3158   13.1885 O   0  0  0  0  0  0  0  0  0  0  0  0
    6.6752    1.1245   12.2517 O   0  0  0  0  0  0  0  0  0  0  0  0
   -2.5126   10.8123    9.2147 C   0  0  1  0  0  0  0  0  0  0  0  0
   -2.8223   10.6853    7.6968 C   0  0  1  0  0  0  0  0  0  0  0  0
   -3.4929   11.9777    7.1517 C   0  0  2  0  0  0  0  0  0  0  0  0
   -4.7608   12.3830    7.9715 C   0  0  1  0  0  0  0  0  0  0  0  0
   -4.5129   12.3871    9.5098 C   0  0  0  0  0  0  0  0  0  0  0  0
   -3.8208   11.0837   10.0106 C   0  0  2  0  0  0  0  0  0  0  0  0
   -5.2834   13.6898    7.5186 N   0  0  0  0  0  0  0  0  0  0  0  0
   -3.5751   11.1888   11.4652 N   0  0  0  0  0  0  0  0  0  0  0  0
   -1.6412   10.3800    6.9625 O   0  0  0  0  0  0  0  0  0  0  0  0
   -3.8189   11.8257    5.7724 O   0  0  0  0  0  0  0  0  0  0  0  0
  1  2  1  0  0  0  0
  1 16  1  1  0  0  0
  2  3  1  0  0  0  0
  2 12  1  1  0  0  0
  4 11  1  1  0  0  0
  4  3  1  0  0  0  0
  5  4  1  0  0  0  0
  5 10  1  6  0  0  0
  6  7  1  0  0  0  0
  6  5  1  0  0  0  0
  6 14  1  1  0  0  0
  7  8  1  0  0  0  0
  7 13  1  6  0  0  0
  8 15  1  1  0  0  0
  8 11  1  0  0  0  0
  9 13  1  0  0  0  0
 10  1  1  0  0  0  0
 17 15  1  6  0  0  0
 17 18  1  0  0  0  0
 18 25  1  6  0  0  0
 19 18  1  0  0  0  0
 19 26  1  1  0  0  0
 20 19  1  0  0  0  0
 20 24  1  6  0  0  0
 21 23  1  0  0  0  0
 21 20  1  0  0  0  0
 21 22  1  1  0  0  0
 23 17  1  0  0  0  0
 27 22  1  0  0  0  0
 28 29  1  0  0  0  0
 28 16  1  1  0  0  0
 29 36  1  6  0  0  0
 30 37  1  6  0  0  0
 30 29  1  0  0  0  0
 31 30  1  0  0  0  0
 31 34  1  6  0  0  0
 32 31  1  0  0  0  0
 32 33  1  0  0  0  0
 33 28  1  0  0  0  0
 33 35  1  1  0  0  0
M  END
>  <CHROM.1>
-89.73498727,142.90677916,155.51297978,63.67194173,-103.16124596,-124.67913099
175.09514600,-65.35455605,-63.40007856,-164.83418512,-167.23600868,-43.43908398
-57.51613942,-60.26201899,-74.13290954,-80.56212121,0.55374237,7.12678108
9.98696197,2.90768925,0.74720631,-1.65580171

>  <Name>
lig.pdb

>  <RI>
0

>  <Rbt.Current_Directory>
/home/itssahil/PROJECTS/Mol_Feturizer/New_Systems/rnas/2m4q

>  <Rbt.Executable>
rbdock ($Id: //depot/dev/client3/rdock/2013.1/src/exe/rbdock.cxx#4 $)

>  <Rbt.Library>
libRbt.so (2013.1, Build901 2013/11/27)

>  <Rbt.Parameter_File>
/export/apps/rDock/src/rDock_2013.1_src/data/scripts/dock_solv.prm

>  <Rbt.Receptor>
prm/pocket_docking_3.prm

>  <SCORE>
-37.0086

>  <SCORE.INTER>
-23.0634

>  <SCORE.INTER.CONST>
1

>  <SCORE.INTER.POLAR>
-3.0207

>  <SCORE.INTER.ROT>
10

>  <SCORE.INTER.SOLV>
14.4727

>  <SCORE.INTER.VDW>
-20.3975

>  <SCORE.INTER.norm>
-0.623335

>  <SCORE.INTRA>
-14.2207

>  <SCORE.INTRA.DIHEDRAL>
-21.2659

>  <SCORE.INTRA.DIHEDRAL.0>
44.8331

>  <SCORE.INTRA.POLAR>
-1.61922

>  <SCORE.INTRA.POLAR.0>
-0.108895

>  <SCORE.INTRA.REPUL>
0.128021

>  <SCORE.INTRA.REPUL.0>
0.00912235

>  <SCORE.INTRA.SOLV>
0.323192

>  <SCORE.INTRA.SOLV.lig_0>
-53.9067

>  <SCORE.INTRA.VDW>
1.11588

>  <SCORE.INTRA.VDW.0>
-2.93492

>  <SCORE.INTRA.norm>
-0.384343

>  <SCORE.RESTR>
0.275506

>  <SCORE.RESTR.CAVITY>
0.275506

>  <SCORE.RESTR.norm>
0.00744612

>  <SCORE.SYSTEM>
0

>  <SCORE.SYSTEM.CONST>
0

>  <SCORE.SYSTEM.DIHEDRAL>
0

>  <SCORE.SYSTEM.SOLV>
0

>  <SCORE.SYSTEM.norm>
0

>  <SCORE.heavy>
37

>  <SCORE.norm>
-1.00023

>  <RMSD>
2.206

$$$$
lig.pdb
 OpenBabel11021811453D
libRbt.so/2013.1/901 2013/11/27
 37 40  0  0  0  0  0  0  0  0999 V2000
   -1.2156    7.3223    7.8432 C   0  0  2  0  0  0  0  0  0  0  0  0
   -1.8847    6.6135    9.0668 C   0  0  1  0  0  0  0  0  0  0  0  0
   -0.9013    6.3666   10.2482 C   0  0  0  0  0  0  0  0  0  0  0  0
    0.4123    5.7124    9.7527 C   0  0  1  0  0  0  0  0  0  0  0  0
    1.0470    6.5810    8.6436 C   0  0  1  0  0  0  0  0  0  0  0  0
    2.3908    5.9726    8.1604 C   0  0  1  0  0  0  0  0  0  0  0  0
    3.3506    5.7214    9.3614 C   0  0  1  0  0  0  0  0  0  0  0  0
    2.6602    4.9148   10.5011 C   0  0  2  0  0  0  0  0  0  0  0  0
    5.7538    5.3740    9.7047 C   0  0  0  0  0  0  0  0  0  0  0  0
    0.1072    6.7680    7.5464 O   0  0  0  0  0  0  0  0  0  0  0  0
    1.3542    5.4752   10.8383 O   0  0  0  0  0  0  0  0  0  0  0  0
   -3.0365    7.4127    9.5384 N   0  0  0  0  0  0  0  0  0  0  0  0
    4.5742    5.0528    8.8726 N   0  0  0  0  0  0  0  0  0  0  0  0
    2.1794    4.7822    7.4122 O   0  0  0  0  0  0  0  0  0  0  0  0
    3.5254    4.8463   11.6721 O   0  0  0  0  0  0  0  0  0  0  0  0
   -1.1293    8.7651    8.0513 O   0  0  0  0  0  0  0  0  0  0  0  0
    3.1154    4.0042   12.7931 C   0  0  2  0  0  0  0  0  0  0  0  0
    3.8031    4.4583   14.1120 C   0  0  1  0  0  0  0  0  0  0  0  0
    5.3240    4.1313   14.1105 C   0  0  2  0  0  0  0  0  0  0  0  0
    5.5758    2.6317   13.7793 C   0  0  1  0  0  0  0  0  0  0  0  0
    4.8433    2.2118   12.4744 C   0  0  1  0  0  0  0  0  0  0  0  0
    4.9719    0.6897   12.2039 C   0  0  0  0  0  0  0  0  0  0  0  0
    3.4388    2.6062   12.5297 O   0  0  0  0  0  0  0  0  0  0  0  0
    7.0222    2.3293   13.7079 N   0  0  0  0  0  0  0  0  0  0  0  0
    3.5606    5.8432   14.3525 O   0  0  0  0  0  0  0  0  0  0  0  0
    5.9296    4.4927   15.3498 O   0  0  0  0  0  0  0  0  0  0  0  0
    4.6528    0.3865   10.8498 O   0  0  0  0  0  0  0  0  0  0  0  0
   -1.7225    9.6318    7.0409 C   0  0  1  0  0  0  0  0  0  0  0  0
   -2.4826   10.8299    7.6758 C   0  0  1  0  0  0  0  0  0  0  0  0
   -3.1881   11.6863    6.5869 C   0  0  2  0  0  0  0  0  0  0  0  0
   -2.2049   12.1512    5.4640 C   0  0  1  0  0  0  0  0  0  0  0  0
   -1.3321   10.9891    4.9023 C   0  0  0  0  0  0  0  0  0  0  0  0
   -0.6609   10.1440    6.0265 C   0  0  2  0  0  0  0  0  0  0  0  0
   -2.9359   12.8346    4.3756 N   0  0  0  0  0  0  0  0  0  0  0  0
    0.1034    9.0356    5.4143 N   0  0  0  0  0  0  0  0  0  0  0  0
   -3.4187   10.3777    8.6489 O   0  0  0  0  0  0  0  0  0  0  0  0
   -3.8354   12.8097    7.1791 O   0  0  0  0  0  0  0  0  0  0  0  0
  1  2  1  0  0  0  0
  1 16  1  1  0  0  0
  2  3  1  0  0  0  0
  2 12  1  1  0  0  0
  4 11  1  1  0  0  0
  4  3  1  0  0  0  0
  5  4  1  0  0  0  0
  5 10  1  6  0  0  0
  6  7  1  0  0  0  0
  6  5  1  0  0  0  0
  6 14  1  1  0  0  0
  7  8  1  0  0  0  0
  7 13  1  6  0  0  0
  8 15  1  1  0  0  0
  8 11  1  0  0  0  0
  9 13  1  0  0  0  0
 10  1  1  0  0  0  0
 17 15  1  6  0  0  0
 17 18  1  0  0  0  0
 18 25  1  6  0  0  0
 19 18  1  0  0  0  0
 19 26  1  1  0  0  0
 20 19  1  0  0  0  0
 20 24  1  6  0  0  0
 21 23  1  0  0  0  0
 21 20  1  0  0  0  0
 21 22  1  1  0  0  0
 23 17  1  0  0  0  0
 27 22  1  0  0  0  0
 28 29  1  0  0  0  0
 28 16  1  1  0  0  0
 29 36  1  1  0  0  0
 30 37  1  1  0  0  0
 30 29  1  0  0  0  0
 31 30  1  0  0  0  0
 31 34  1  6  0  0  0
 32 31  1  0  0  0  0
 32 33  1  0  0  0  0
 33 28  1  0  0  0  0
 33 35  1  6  0  0  0
M  END
>  <CHROM.1>
-176.98225410,-173.26312581,151.17280318,-170.78098611,-157.70276156,-124.67083849
58.28797951,-179.78464008,-162.92021058,-179.80596401,-57.28450201,138.70439280
-56.78122411,-174.73703385,-175.76910614,-41.81814786,1.35678569,6.52665263
9.65927830,-2.52348946,-0.75468014,1.68626756

>  <Name>
lig.pdb

>  <RI>
3.87352e+07

>  <Rbt.Current_Directory>
/home/itssahil/PROJECTS/Mol_Feturizer/New_Systems/rnas/2m4q

>  <Rbt.Executable>
rbdock ($Id: //depot/dev/client3/rdock/2013.1/src/exe/rbdock.cxx#4 $)

>  <Rbt.Library>
libRbt.so (2013.1, Build901 2013/11/27)

>  <Rbt.Parameter_File>
/export/apps/rDock/src/rDock_2013.1_src/data/scripts/dock_solv.prm

>  <Rbt.Receptor>
prm/pocket_docking_4.prm

>  <SCORE>
-41.5175

>  <SCORE.INTER>
-23.375

>  <SCORE.INTER.CONST>
1

>  <SCORE.INTER.POLAR>
-3.74833

>  <SCORE.INTER.ROT>
10

>  <SCORE.INTER.SOLV>
14.5627

>  <SCORE.INTER.VDW>
-18.2098

>  <SCORE.INTER.norm>
-0.631757

>  <SCORE.INTRA>
-18.1459

>  <SCORE.INTRA.DIHEDRAL>
-25.891

>  <SCORE.INTRA.DIHEDRAL.0>
44.8331

>  <SCORE.INTRA.POLAR>
-1.05356

>  <SCORE.INTRA.POLAR.0>
-0.108895

>  <SCORE.INTRA.REPUL>
-0.00912235

>  <SCORE.INTRA.REPUL.0>
0.00912235

>  <SCORE.INTRA.SOLV>
-1.96533

>  <SCORE.INTRA.SOLV.lig_0>
-53.9067

>  <SCORE.INTRA.VDW>
-0.590077

>  <SCORE.INTRA.VDW.0>
-2.93492

>  <SCORE.INTRA.norm>
-0.490431

>  <SCORE.RESTR>
0.00342956

>  <SCORE.RESTR.CAVITY>
0.00342956

>  <SCORE.RESTR.norm>
9.26908e-05

>  <SCORE.SYSTEM>
0

>  <SCORE.SYSTEM.CONST>
0

>  <SCORE.SYSTEM.DIHEDRAL>
0

>  <SCORE.SYSTEM.SOLV>
0

>  <SCORE.SYSTEM.norm>
0

>  <SCORE.heavy>
37

>  <SCORE.norm>
-1.1221

>  <RMSD>
2.215

$$$$
lig.pdb
 OpenBabel11021811453D
libRbt.so/2013.1/901 2013/11/27
 37 40  0  0  0  0  0  0  0  0999 V2000
   -1.9461    6.7828   10.9228 C   0  0  2  0  0  0  0  0  0  0  0  0
   -1.7258    5.8730   12.1762 C   0  0  1  0  0  0  0  0  0  0  0  0
   -0.2235    5.6158   12.4935 C   0  0  0  0  0  0  0  0  0  0  0  0
    0.5470    5.1760   11.2240 C   0  0  1  0  0  0  0  0  0  0  0  0
    0.3636    6.2273   10.1065 C   0  0  1  0  0  0  0  0  0  0  0  0
    1.1644    5.8349    8.8360 C   0  0  1  0  0  0  0  0  0  0  0  0
    2.6598    5.5687    9.1821 C   0  0  1  0  0  0  0  0  0  0  0  0
    2.8154    4.5688   10.3663 C   0  0  2  0  0  0  0  0  0  0  0  0
    4.8152    5.3759    8.0286 C   0  0  0  0  0  0  0  0  0  0  0  0
   -1.0516    6.4213    9.8208 O   0  0  0  0  0  0  0  0  0  0  0  0
    1.9584    4.9340   11.4914 O   0  0  0  0  0  0  0  0  0  0  0  0
   -2.3856    6.4773   13.3540 N   0  0  0  0  0  0  0  0  0  0  0  0
    3.3629    5.1035    7.9687 N   0  0  0  0  0  0  0  0  0  0  0  0
    0.5798    4.7159    8.1820 O   0  0  0  0  0  0  0  0  0  0  0  0
    4.2119    4.4752   10.7730 O   0  0  0  0  0  0  0  0  0  0  0  0
   -1.7930    8.1949   11.2620 O   0  0  0  0  0  0  0  0  0  0  0  0
    4.5120    4.1849   12.1728 C   0  0  2  0  0  0  0  0  0  0  0  0
    6.0386    4.2931   12.4496 C   0  0  1  0  0  0  0  0  0  0  0  0
    6.8276    3.1267   11.7885 C   0  0  2  0  0  0  0  0  0  0  0  0
    6.2334    1.7464   12.1928 C   0  0  1  0  0  0  0  0  0  0  0  0
    4.7021    1.6936   11.9323 C   0  0  1  0  0  0  0  0  0  0  0  0
    4.0722    0.3762   12.4555 C   0  0  0  0  0  0  0  0  0  0  0  0
    4.0438    2.8506   12.5318 O   0  0  0  0  0  0  0  0  0  0  0  0
    6.9354    0.6356   11.5130 N   0  0  0  0  0  0  0  0  0  0  0  0
    6.5334    5.5660   12.0380 O   0  0  0  0  0  0  0  0  0  0  0  0
    8.2164    3.2008   12.1038 O   0  0  0  0  0  0  0  0  0  0  0  0
    2.6516    0.4251   12.3720 O   0  0  0  0  0  0  0  0  0  0  0  0
   -2.7723    9.1306   10.7242 C   0  0  1  0  0  0  0  0  0  0  0  0
   -2.8116   10.4589   11.5307 C   0  0  1  0  0  0  0  0  0  0  0  0
   -3.9278   11.4029   11.0015 C   0  0  2  0  0  0  0  0  0  0  0  0
   -3.8121   11.6599    9.4639 C   0  0  1  0  0  0  0  0  0  0  0  0
   -3.6357   10.3486    8.6410 C   0  0  0  0  0  0  0  0  0  0  0  0
   -2.5224    9.4226    9.2173 C   0  0  2  0  0  0  0  0  0  0  0  0
   -4.9694   12.4382    8.9729 N   0  0  0  0  0  0  0  0  0  0  0  0
   -2.4544    8.1824    8.4144 N   0  0  0  0  0  0  0  0  0  0  0  0
   -2.9829   10.2026   12.9209 O   0  0  0  0  0  0  0  0  0  0  0  0
   -3.9163   12.6366   11.7153 O   0  0  0  0  0  0  0  0  0  0  0  0
  1  2  1  0  0  0  0
  1 16  1  1  0  0  0
  2  3  1  0  0  0  0
  2 12  1  1  0  0  0
  4 11  1  1  0  0  0
  4  3  1  0  0  0  0
  5  4  1  0  0  0  0
  5 10  1  6  0  0  0
  6  7  1  0  0  0  0
  6  5  1  0  0  0  0
  6 14  1  1  0  0  0
  7  8  1  0  0  0  0
  7 13  1  6  0  0  0
  8 15  1  1  0  0  0
  8 11  1  0  0  0  0
  9 13  1  0  0  0  0
 10  1  1  0  0  0  0
 17 15  1  6  0  0  0
 17 18  1  0  0  0  0
 18 25  1  6  0  0  0
 19 18  1  0  0  0  0
 19 26  1  1  0  0  0
 20 19  1  0  0  0  0
 20 24  1  6  0  0  0
 21 23  1  0  0  0  0
 21 20  1  0  0  0  0
 21 22  1  1  0  0  0
 23 17  1  0  0  0  0
 27 22  1  0  0  0  0
 28 29  1  0  0  0  0
 28 16  1  1  0  0  0
 29 36  1  1  0  0  0
 30 37  1  1  0  0  0
 30 29  1  0  0  0  0
 31 30  1  0  0  0  0
 31 34  1  6  0  0  0
 32 31  1  0  0  0  0
 32 33  1  0  0  0  0
 33 28  1  0  0  0  0
 33 35  1  6  0  0  0
M  END
>  <CHROM.1>
50.75050541,149.56261650,155.55080689,55.50003364,-173.18149773,-136.18470418
66.38516275,-169.56486668,172.11993542,61.06632088,146.91354671,159.72290899
-55.10202366,-176.05871399,-166.68150538,-61.18453873,1.10695329,6.07897188
10.88320011,2.64266034,0.53702399,-0.90696765

>  <Name>
lig.pdb

>  <RI>
2.86754e+07

>  <Rbt.Current_Directory>
/home/itssahil/PROJECTS/Mol_Feturizer/New_Systems/rnas/2m4q

>  <Rbt.Executable>
rbdock ($Id: //depot/dev/client3/rdock/2013.1/src/exe/rbdock.cxx#4 $)

>  <Rbt.Library>
libRbt.so (2013.1, Build901 2013/11/27)

>  <Rbt.Parameter_File>
/export/apps/rDock/src/rDock_2013.1_src/data/scripts/dock_solv.prm

>  <Rbt.Receptor>
prm/pocket_docking_5.prm

>  <SCORE>
-49.1619

>  <SCORE.INTER>
-32.9194

>  <SCORE.INTER.CONST>
1

>  <SCORE.INTER.POLAR>
-4.56528

>  <SCORE.INTER.ROT>
10

>  <SCORE.INTER.SOLV>
19.0075

>  <SCORE.INTER.VDW>
-23.3312

>  <SCORE.INTER.norm>
-0.889714

>  <SCORE.INTRA>
-16.2425

>  <SCORE.INTRA.DIHEDRAL>
-26.0074

>  <SCORE.INTRA.DIHEDRAL.0>
44.8331

>  <SCORE.INTRA.POLAR>
-0.9198

>  <SCORE.INTRA.POLAR.0>
-0.108895

>  <SCORE.INTRA.REPUL>
-0.00912235

>  <SCORE.INTRA.REPUL.0>
0.00912235

>  <SCORE.INTRA.SOLV>
-1.7688

>  <SCORE.INTRA.SOLV.lig_0>
-53.9067

>  <SCORE.INTRA.VDW>
0.818514

>  <SCORE.INTRA.VDW.0>
-2.93492

>  <SCORE.INTRA.norm>
-0.438987

>  <SCORE.RESTR>
0

>  <SCORE.RESTR.CAVITY>
0

>  <SCORE.RESTR.norm>
0

>  <SCORE.SYSTEM>
0

>  <SCORE.SYSTEM.CONST>
0

>  <SCORE.SYSTEM.DIHEDRAL>
0

>  <SCORE.SYSTEM.SOLV>
0

>  <SCORE.SYSTEM.norm>
0

>  <SCORE.heavy>
37

>  <SCORE.norm>
-1.3287

>  <RMSD>
2.216

$$$$
lig.pdb
 OpenBabel11021811453D
libRbt.so/2013.1/901 2013/11/27
 37 40  0  0  0  0  0  0  0  0999 V2000
   -2.0336    8.2883    8.6633 C   0  0  2  0  0  0  0  0  0  0  0  0
   -2.4561    7.7369   10.0649 C   0  0  1  0  0  0  0  0  0  0  0  0
   -1.2472    7.3105   10.9484 C   0  0  0  0  0  0  0  0  0  0  0  0
   -0.2709    6.4047   10.1576 C   0  0  1  0  0  0  0  0  0  0  0  0
    0.1812    7.1206    8.8651 C   0  0  1  0  0  0  0  0  0  0  0  0
    1.1981    6.2538    8.0749 C   0  0  1  0  0  0  0  0  0  0  0  0
    2.3894    5.8281    8.9839 C   0  0  1  0  0  0  0  0  0  0  0  0
    1.9051    5.1843   10.3169 C   0  0  2  0  0  0  0  0  0  0  0  0
    4.7013    5.1116    8.5895 C   0  0  0  0  0  0  0  0  0  0  0  0
   -0.9745    7.4804    8.0545 O   0  0  0  0  0  0  0  0  0  0  0  0
    0.8741    5.9953   10.9597 O   0  0  0  0  0  0  0  0  0  0  0  0
   -3.2595    8.7525   10.7796 N   0  0  0  0  0  0  0  0  0  0  0  0
    3.2801    4.9261    8.2249 N   0  0  0  0  0  0  0  0  0  0  0  0
    0.5669    5.1223    7.4893 O   0  0  0  0  0  0  0  0  0  0  0  0
    3.0333    4.9561   11.2112 O   0  0  0  0  0  0  0  0  0  0  0  0
   -1.6233    9.6872    8.7481 O   0  0  0  0  0  0  0  0  0  0  0  0
    2.8176    4.1575   12.4152 C   0  0  2  0  0  0  0  0  0  0  0  0
    3.3653    4.8882   13.6741 C   0  0  1  0  0  0  0  0  0  0  0  0
    4.9204    4.9259   13.6869 C   0  0  2  0  0  0  0  0  0  0  0  0
    5.5185    3.5009   13.5035 C   0  0  1  0  0  0  0  0  0  0  0  0
    4.9192    2.7942   12.2558 C   0  0  1  0  0  0  0  0  0  0  0  0
    5.4019    1.3248   12.1365 C   0  0  0  0  0  0  0  0  0  0  0  0
    3.4608    2.8542   12.2883 O   0  0  0  0  0  0  0  0  0  0  0  0
    6.9962    3.5381   13.4453 N   0  0  0  0  0  0  0  0  0  0  0  0
    2.8041    6.1954   13.7785 O   0  0  0  0  0  0  0  0  0  0  0  0
    5.4108    5.5399   14.8768 O   0  0  0  0  0  0  0  0  0  0  0  0
    5.1374    0.8081   10.8364 O   0  0  0  0  0  0  0  0  0  0  0  0
   -2.4140   10.6703    8.0185 C   0  0  1  0  0  0  0  0  0  0  0  0
   -2.8834   10.1308    6.6384 C   0  0  1  0  0  0  0  0  0  0  0  0
   -3.6413   11.2263    5.8368 C   0  0  2  0  0  0  0  0  0  0  0  0
   -4.8224   11.8500    6.6493 C   0  0  1  0  0  0  0  0  0  0  0  0
   -4.4092   12.2773    8.0895 C   0  0  0  0  0  0  0  0  0  0  0  0
   -3.6344   11.1588    8.8494 C   0  0  2  0  0  0  0  0  0  0  0  0
   -5.4237   12.9839    5.9153 N   0  0  0  0  0  0  0  0  0  0  0  0
   -3.2349   11.6601   10.1822 N   0  0  0  0  0  0  0  0  0  0  0  0
   -1.7817    9.6275    5.8897 O   0  0  0  0  0  0  0  0  0  0  0  0
   -4.1112   10.7012    4.5978 O   0  0  0  0  0  0  0  0  0  0  0  0
  1  2  1  0  0  0  0
  1 16  1  1  0  0  0
  2  3  1  0  0  0  0
  2 12  1  1  0  0  0
  4 11  1  1  0  0  0
  4  3  1  0  0  0  0
  5  4  1  0  0  0  0
  5 10  1  6  0  0  0
  6  7  1  0  0  0  0
  6  5  1  0  0  0  0
  6 14  1  1  0  0  0
  7  8  1  0  0  0  0
  7 13  1  6  0  0  0
  8 15  1  1  0  0  0
  8 11  1  0  0  0  0
  9 13  1  0  0  0  0
 10  1  1  0  0  0  0
 17 15  1  6  0  0  0
 17 18  1  0  0  0  0
 18 25  1  6  0  0  0
 19 18  1  0  0  0  0
 19 26  1  1  0  0  0
 20 19  1  0  0  0  0
 20 24  1  6  0  0  0
 21 23  1  0  0  0  0
 21 20  1  0  0  0  0
 21 22  1  1  0  0  0
 23 17  1  0  0  0  0
 27 22  1  0  0  0  0
 28 29  1  0  0  0  0
 28 16  1  1  0  0  0
 29 36  1  6  0  0  0
 30 37  1  6  0  0  0
 30 29  1  0  0  0  0
 31 30  1  0  0  0  0
 31 34  1  6  0  0  0
 32 31  1  0  0  0  0
 32 33  1  0  0  0  0
 33 28  1  0  0  0  0
 33 35  1  1  0  0  0
M  END
>  <CHROM.1>
73.43546032,-169.86392421,145.46948648,43.80653212,-129.75479516,-116.76743193
65.52883453,-55.81919971,-164.85732515,67.31533545,-62.01484745,-38.47974914
64.98902133,67.08437818,-168.72866933,-168.17191963,0.57640826,6.98280009
9.83039236,-2.88537110,-0.78787954,1.30785495

>  <Name>
lig.pdb

>  <RI>
0

>  <Rbt.Current_Directory>
/home/itssahil/PROJECTS/Mol_Feturizer/New_Systems/rnas/2m4q

>  <Rbt.Executable>
rbdock ($Id: //depot/dev/client3/rdock/2013.1/src/exe/rbdock.cxx#4 $)

>  <Rbt.Library>
libRbt.so (2013.1, Build901 2013/11/27)

>  <Rbt.Parameter_File>
/export/apps/rDock/src/rDock_2013.1_src/data/scripts/dock_solv.prm

>  <Rbt.Receptor>
prm/pocket_docking_3.prm

>  <SCORE>
-40.6787

>  <SCORE.INTER>
-23.1745

>  <SCORE.INTER.CONST>
1

>  <SCORE.INTER.POLAR>
-3.0746

>  <SCORE.INTER.ROT>
10

>  <SCORE.INTER.SOLV>
14.9129

>  <SCORE.INTER.VDW>
-20.4386

>  <SCORE.INTER.norm>
-0.626337

>  <SCORE.INTRA>
-17.545

>  <SCORE.INTRA.DIHEDRAL>
-22.9409

>  <SCORE.INTRA.DIHEDRAL.0>
44.8331

>  <SCORE.INTRA.POLAR>
-1.70276

>  <SCORE.INTRA.POLAR.0>
-0.108895

>  <SCORE.INTRA.REPUL>
-0.00912235

>  <SCORE.INTRA.REPUL.0>
0.00912235

>  <SCORE.INTRA.SOLV>
-1.18951

>  <SCORE.INTRA.SOLV.lig_0>
-53.9067

>  <SCORE.INTRA.VDW>
0.355186

>  <SCORE.INTRA.VDW.0>
-2.93492

>  <SCORE.INTRA.norm>
-0.47419

>  <SCORE.RESTR>
0.040774

>  <SCORE.RESTR.CAVITY>
0.040774

>  <SCORE.RESTR.norm>
0.001102

>  <SCORE.SYSTEM>
0

>  <SCORE.SYSTEM.CONST>
0

>  <SCORE.SYSTEM.DIHEDRAL>
0

>  <SCORE.SYSTEM.SOLV>
0

>  <SCORE.SYSTEM.norm>
0

>  <SCORE.heavy>
37

>  <SCORE.norm>
-1.09942

>  <RMSD>
2.222

$$$$
lig.pdb
 OpenBabel11021811453D
libRbt.so/2013.1/901 2013/11/27
 37 40  0  0  0  0  0  0  0  0999 V2000
   -1.9208    7.7388    9.3441 C   0  0  2  0  0  0  0  0  0  0  0  0
   -2.0599    6.9272   10.6742 C   0  0  1  0  0  0  0  0  0  0  0  0
   -0.6929    6.4669   11.2600 C   0  0  0  0  0  0  0  0  0  0  0  0
    0.1813    5.7939   10.1729 C   0  0  1  0  0  0  0  0  0  0  0  0
    0.3589    6.7515    8.9733 C   0  0  1  0  0  0  0  0  0  0  0  0
    1.2708    6.1202    7.8872 C   0  0  1  0  0  0  0  0  0  0  0  0
    2.6250    5.6549    8.5008 C   0  0  1  0  0  0  0  0  0  0  0  0
    2.4185    4.7585    9.7578 C   0  0  2  0  0  0  0  0  0  0  0  0
    4.8730    5.0605    7.7218 C   0  0  0  0  0  0  0  0  0  0  0  0
   -0.9392    7.1389    8.4377 O   0  0  0  0  0  0  0  0  0  0  0  0
    1.4702    5.3582   10.6931 O   0  0  0  0  0  0  0  0  0  0  0  0
   -2.7837    7.7358   11.6792 N   0  0  0  0  0  0  0  0  0  0  0  0
    3.4203    4.9728    7.4590 N   0  0  0  0  0  0  0  0  0  0  0  0
    0.6137    5.0512    7.2186 O   0  0  0  0  0  0  0  0  0  0  0  0
    3.6965    4.4840   10.4026 O   0  0  0  0  0  0  0  0  0  0  0  0
   -1.5835    9.1345    9.6101 O   0  0  0  0  0  0  0  0  0  0  0  0
    3.7389    3.4870   11.4693 C   0  0  2  0  0  0  0  0  0  0  0  0
    3.5154    4.1480   12.8592 C   0  0  1  0  0  0  0  0  0  0  0  0
    4.7361    5.0111   13.2893 C   0  0  2  0  0  0  0  0  0  0  0  0
    6.0578    4.1932   13.2112 C   0  0  1  0  0  0  0  0  0  0  0  0
    6.2242    3.5222   11.8193 C   0  0  1  0  0  0  0  0  0  0  0  0
    7.4661    2.5939   11.7702 C   0  0  0  0  0  0  0  0  0  0  0  0
    5.0167    2.7830   11.4630 O   0  0  0  0  0  0  0  0  0  0  0  0
    7.2308    5.0276   13.5522 N   0  0  0  0  0  0  0  0  0  0  0  0
    2.3055    4.9034   12.8660 O   0  0  0  0  0  0  0  0  0  0  0  0
    4.5464    5.5582   14.5924 O   0  0  0  0  0  0  0  0  0  0  0  0
    7.3796    1.5782   12.7642 O   0  0  0  0  0  0  0  0  0  0  0  0
   -2.3929   10.1614    8.9663 C   0  0  1  0  0  0  0  0  0  0  0  0
   -2.5632    9.8981    7.4439 C   0  0  1  0  0  0  0  0  0  0  0  0
   -3.3465   11.0537    6.7596 C   0  0  2  0  0  0  0  0  0  0  0  0
   -4.7161   11.3405    7.4566 C   0  0  1  0  0  0  0  0  0  0  0  0
   -4.5930   11.4753    9.0040 C   0  0  0  0  0  0  0  0  0  0  0  0
   -3.7836   10.3087    9.6465 C   0  0  2  0  0  0  0  0  0  0  0  0
   -5.3622   12.5357    6.8734 N   0  0  0  0  0  0  0  0  0  0  0  0
   -3.6687   10.5379   11.1031 N   0  0  0  0  0  0  0  0  0  0  0  0
   -1.2987    9.7044    6.8185 O   0  0  0  0  0  0  0  0  0  0  0  0
   -3.5407   10.7725    5.3758 O   0  0  0  0  0  0  0  0  0  0  0  0
  1  2  1  0  0  0  0
  1 16  1  1  0  0  0
  2  3  1  0  0  0  0
  2 12  1  1  0  0  0
  4 11  1  1  0  0  0
  4  3  1  0  0  0  0
  5  4  1  0  0  0  0
  5 10  1  6  0  0  0
  6  7  1  0  0  0  0
  6  5  1  0  0  0  0
  6 14  1  1  0  0  0
  7  8  1  0  0  0  0
  7 13  1  6  0  0  0
  8 15  1  1  0  0  0
  8 11  1  0  0  0  0
  9 13  1  0  0  0  0
 10  1  1  0  0  0  0
 17 15  1  6  0  0  0
 17 18  1  0  0  0  0
 18 25  1  6  0  0  0
 19 18  1  0  0  0  0
 19 26  1  1  0  0  0
 20 19  1  0  0  0  0
 20 24  1  6  0  0  0
 21 23  1  0  0  0  0
 21 20  1  0  0  0  0
 21 22  1  1  0  0  0
 23 17  1  0  0  0  0
 27 22  1  0  0  0  0
 28 29  1  0  0  0  0
 28 16  1  1  0  0  0
 29 36  1  6  0  0  0
 30 37  1  6  0  0  0
 30 29  1  0  0  0  0
 31 30  1  0  0  0  0
 31 34  1  6  0  0  0
 32 31  1  0  0  0  0
 32 33  1  0  0  0  0
 33 28  1  0  0  0  0
 33 35  1  1  0  0  0
M  END
>  <CHROM.1>
-100.38089067,-170.26539090,153.41642136,41.74232926,-91.28163659,-129.37827012
61.88993543,178.53139242,58.24531619,174.85068962,-63.79812529,-48.92782764
65.87738581,64.53629076,58.94247923,44.40503291,0.94604776,6.73533133,9.98005799
2.79697122,0.63850443,-1.57469351

>  <Name>
lig.pdb

>  <RI>
0

>  <Rbt.Current_Directory>
/home/itssahil/PROJECTS/Mol_Feturizer/New_Systems/rnas/2m4q

>  <Rbt.Executable>
rbdock ($Id: //depot/dev/client3/rdock/2013.1/src/exe/rbdock.cxx#4 $)

>  <Rbt.Library>
libRbt.so (2013.1, Build901 2013/11/27)

>  <Rbt.Parameter_File>
/export/apps/rDock/src/rDock_2013.1_src/data/scripts/dock_solv.prm

>  <Rbt.Receptor>
prm/pocket_docking_2.prm

>  <SCORE>
-35.1477

>  <SCORE.INTER>
-16.3363

>  <SCORE.INTER.CONST>
1

>  <SCORE.INTER.POLAR>
-1.41434

>  <SCORE.INTER.ROT>
10

>  <SCORE.INTER.SOLV>
14.2378

>  <SCORE.INTER.VDW>
-21.189

>  <SCORE.INTER.norm>
-0.441521

>  <SCORE.INTRA>
-19.7908

>  <SCORE.INTRA.DIHEDRAL>
-27.8294

>  <SCORE.INTRA.DIHEDRAL.0>
44.8331

>  <SCORE.INTRA.POLAR>
-1.95179

>  <SCORE.INTRA.POLAR.0>
-0.108895

>  <SCORE.INTRA.REPUL>
-0.00912235

>  <SCORE.INTRA.REPUL.0>
0.00912235

>  <SCORE.INTRA.SOLV>
0.252371

>  <SCORE.INTRA.SOLV.lig_0>
-53.9067

>  <SCORE.INTRA.VDW>
0.679431

>  <SCORE.INTRA.VDW.0>
-2.93492

>  <SCORE.INTRA.norm>
-0.534886

>  <SCORE.RESTR>
0.97931

>  <SCORE.RESTR.CAVITY>
0.97931

>  <SCORE.RESTR.norm>
0.0264678

>  <SCORE.SYSTEM>
0

>  <SCORE.SYSTEM.CONST>
0

>  <SCORE.SYSTEM.DIHEDRAL>
0

>  <SCORE.SYSTEM.SOLV>
0

>  <SCORE.SYSTEM.norm>
0

>  <SCORE.heavy>
37

>  <SCORE.norm>
-0.949939

>  <RMSD>
2.245

$$$$
lig.pdb
 OpenBabel11021811453D
libRbt.so/2013.1/901 2013/11/27
 37 40  0  0  0  0  0  0  0  0999 V2000
   -1.6854    7.3050   10.1982 C   0  0  2  0  0  0  0  0  0  0  0  0
   -1.6419    6.3024   11.3982 C   0  0  1  0  0  0  0  0  0  0  0  0
   -0.1984    5.8626   11.7808 C   0  0  0  0  0  0  0  0  0  0  0  0
    0.5991    5.4184   10.5296 C   0  0  1  0  0  0  0  0  0  0  0  0
    0.5988    6.5491    9.4765 C   0  0  1  0  0  0  0  0  0  0  0  0
    1.4314    6.1486    8.2291 C   0  0  1  0  0  0  0  0  0  0  0  0
    2.8654    5.6989    8.6394 C   0  0  1  0  0  0  0  0  0  0  0  0
    2.8394    4.6182    9.7609 C   0  0  2  0  0  0  0  0  0  0  0  0
    5.0554    5.3600    7.5894 C   0  0  0  0  0  0  0  0  0  0  0  0
   -0.7671    6.9146    9.1260 O   0  0  0  0  0  0  0  0  0  0  0  0
    1.9572    5.0068   10.8584 O   0  0  0  0  0  0  0  0  0  0  0  0
   -2.3063    6.9031   12.5752 N   0  0  0  0  0  0  0  0  0  0  0  0
    3.5897    5.2335    7.4387 N   0  0  0  0  0  0  0  0  0  0  0  0
    0.7734    5.1423    7.4702 O   0  0  0  0  0  0  0  0  0  0  0  0
    4.1898    4.3470   10.2376 O   0  0  0  0  0  0  0  0  0  0  0  0
   -1.4046    8.6685   10.6392 O   0  0  0  0  0  0  0  0  0  0  0  0
    4.5188    2.9890   10.6635 C   0  0  2  0  0  0  0  0  0  0  0  0
    4.3613    2.8341   12.2029 C   0  0  1  0  0  0  0  0  0  0  0  0
    5.4713    3.6030   12.9755 C   0  0  2  0  0  0  0  0  0  0  0  0
    6.8875    3.2062   12.4668 C   0  0  1  0  0  0  0  0  0  0  0  0
    6.9904    3.3422   10.9220 C   0  0  1  0  0  0  0  0  0  0  0  0
    8.3495    2.8215   10.3855 C   0  0  0  0  0  0  0  0  0  0  0  0
    5.8825    2.6457   10.2749 O   0  0  0  0  0  0  0  0  0  0  0  0
    7.9446    3.9843   13.1491 N   0  0  0  0  0  0  0  0  0  0  0  0
    3.0560    3.2344   12.6158 O   0  0  0  0  0  0  0  0  0  0  0  0
    5.3547    3.3999   14.3821 O   0  0  0  0  0  0  0  0  0  0  0  0
    8.4747    1.4191   10.5972 O   0  0  0  0  0  0  0  0  0  0  0  0
   -2.1068    9.7553    9.9685 C   0  0  1  0  0  0  0  0  0  0  0  0
   -2.2195    9.5172    8.4366 C   0  0  1  0  0  0  0  0  0  0  0  0
   -2.8847   10.7309    7.7284 C   0  0  2  0  0  0  0  0  0  0  0  0
   -4.2636   11.1081    8.3608 C   0  0  1  0  0  0  0  0  0  0  0  0
   -4.2083   11.2213    9.9138 C   0  0  0  0  0  0  0  0  0  0  0  0
   -3.5158    9.9952   10.5815 C   0  0  2  0  0  0  0  0  0  0  0  0
   -4.7944   12.3507    7.7606 N   0  0  0  0  0  0  0  0  0  0  0  0
   -3.4575   10.2037   12.0446 N   0  0  0  0  0  0  0  0  0  0  0  0
   -0.9423    9.2396    7.8717 O   0  0  0  0  0  0  0  0  0  0  0  0
   -3.0293   10.4753    6.3335 O   0  0  0  0  0  0  0  0  0  0  0  0
  1  2  1  0  0  0  0
  1 16  1  1  0  0  0
  2  3  1  0  0  0  0
  2 12  1  1  0  0  0
  4 11  1  1  0  0  0
  4  3  1  0  0  0  0
  5  4  1  0  0  0  0
  5 10  1  6  0  0  0
  6  7  1  0  0  0  0
  6  5  1  0  0  0  0
  6 14  1  1  0  0  0
  7  8  1  0  0  0  0
  7 13  1  6  0  0  0
  8 15  1  1  0  0  0
  8 11  1  0  0  0  0
  9 13  1  0  0  0  0
 10  1  1  0  0  0  0
 17 15  1  1  0  0  0
 17 18  1  0  0  0  0
 18 25  1  1  0  0  0
 19 18  1  0  0  0  0
 19 26  1  1  0  0  0
 20 19  1  0  0  0  0
 20 24  1  1  0  0  0
 21 23  1  0  0  0  0
 21 20  1  0  0  0  0
 21 22  1  6  0  0  0
 23 17  1  0  0  0  0
 27 22  1  0  0  0  0
 28 29  1  0  0  0  0
 28 16  1  1  0  0  0
 29 36  1  6  0  0  0
 30 37  1  6  0  0  0
 30 29  1  0  0  0  0
 31 30  1  0  0  0  0
 31 34  1  6  0  0  0
 32 31  1  0  0  0  0
 32 33  1  0  0  0  0
 33 28  1  0  0  0  0
 33 35  1  1  0  0  0
M  END
>  <CHROM.1>
78.09145343,-146.22805093,154.65728907,174.26938317,-95.42230174,-145.00519941
-47.51500891,-175.44210282,65.41010630,-176.56436886,58.26878971,-40.05899073
70.88526141,-178.54697469,-167.92365039,120.45794531,1.42827363,6.29840193
10.14803978,2.80519751,0.58019940,-1.32071197

>  <Name>
lig.pdb

>  <RI>
0

>  <Rbt.Current_Directory>
/home/itssahil/PROJECTS/Mol_Feturizer/New_Systems/rnas/2m4q

>  <Rbt.Executable>
rbdock ($Id: //depot/dev/client3/rdock/2013.1/src/exe/rbdock.cxx#4 $)

>  <Rbt.Library>
libRbt.so (2013.1, Build901 2013/11/27)

>  <Rbt.Parameter_File>
/export/apps/rDock/src/rDock_2013.1_src/data/scripts/dock_solv.prm

>  <Rbt.Receptor>
prm/pocket_docking_3.prm

>  <SCORE>
-38.0133

>  <SCORE.INTER>
-20.5386

>  <SCORE.INTER.CONST>
1

>  <SCORE.INTER.POLAR>
-2.50248

>  <SCORE.INTER.ROT>
10

>  <SCORE.INTER.SOLV>
13.9442

>  <SCORE.INTER.VDW>
-20.2655

>  <SCORE.INTER.norm>
-0.555097

>  <SCORE.INTRA>
-17.4747

>  <SCORE.INTRA.DIHEDRAL>
-23.3476

>  <SCORE.INTRA.DIHEDRAL.0>
44.8331

>  <SCORE.INTRA.POLAR>
-2.01338

>  <SCORE.INTRA.POLAR.0>
-0.108895

>  <SCORE.INTRA.REPUL>
-0.00912235

>  <SCORE.INTRA.REPUL.0>
0.00912235

>  <SCORE.INTRA.SOLV>
-0.108178

>  <SCORE.INTRA.SOLV.lig_0>
-53.9067

>  <SCORE.INTRA.VDW>
1.14431

>  <SCORE.INTRA.VDW.0>
-2.93492

>  <SCORE.INTRA.norm>
-0.472288

>  <SCORE.RESTR>
0

>  <SCORE.RESTR.CAVITY>
0

>  <SCORE.RESTR.norm>
0

>  <SCORE.SYSTEM>
0

>  <SCORE.SYSTEM.CONST>
0

>  <SCORE.SYSTEM.DIHEDRAL>
0

>  <SCORE.SYSTEM.SOLV>
0

>  <SCORE.SYSTEM.norm>
0

>  <SCORE.heavy>
37

>  <SCORE.norm>
-1.02739

>  <RMSD>
2.305

$$$$
lig.pdb
 OpenBabel11021811453D
libRbt.so/2013.1/901 2013/11/27
 37 40  0  0  0  0  0  0  0  0999 V2000
   -3.0473    9.1616   10.0588 C   0  0  2  0  0  0  0  0  0  0  0  0
   -3.1291    9.0963   11.6196 C   0  0  1  0  0  0  0  0  0  0  0  0
   -1.7862    8.6820   12.2895 C   0  0  0  0  0  0  0  0  0  0  0  0
   -1.1916    7.4216   11.6134 C   0  0  1  0  0  0  0  0  0  0  0  0
   -1.0304    7.6648   10.0961 C   0  0  1  0  0  0  0  0  0  0  0  0
   -0.3921    6.4332    9.3995 C   0  0  1  0  0  0  0  0  0  0  0  0
    0.9413    6.0298   10.0967 C   0  0  1  0  0  0  0  0  0  0  0  0
    0.7697    5.8718   11.6367 C   0  0  2  0  0  0  0  0  0  0  0  0
    1.8045    5.0026    8.0440 C   0  0  0  0  0  0  0  0  0  0  0  0
   -2.3108    8.0247    9.5018 O   0  0  0  0  0  0  0  0  0  0  0  0
    0.0699    7.0148   12.2176 O   0  0  0  0  0  0  0  0  0  0  0  0
   -3.5664   10.4052   12.1519 N   0  0  0  0  0  0  0  0  0  0  0  0
    1.4637    4.7987    9.4686 N   0  0  0  0  0  0  0  0  0  0  0  0
   -1.2994    5.3396    9.3508 O   0  0  0  0  0  0  0  0  0  0  0  0
    2.0639    5.6636   12.2742 O   0  0  0  0  0  0  0  0  0  0  0  0
   -2.4558   10.4203    9.6134 O   0  0  0  0  0  0  0  0  0  0  0  0
    2.5936    4.3042   12.3483 C   0  0  2  0  0  0  0  0  0  0  0  0
    3.3840    4.0854   13.6696 C   0  0  1  0  0  0  0  0  0  0  0  0
    4.7290    4.8670   13.6722 C   0  0  2  0  0  0  0  0  0  0  0  0
    5.5683    4.5449   12.4019 C   0  0  1  0  0  0  0  0  0  0  0  0
    4.7310    4.7431   11.1077 C   0  0  1  0  0  0  0  0  0  0  0  0
    5.5089    4.2962    9.8422 C   0  0  0  0  0  0  0  0  0  0  0  0
    3.4616    4.0291   11.2085 O   0  0  0  0  0  0  0  0  0  0  0  0
    6.8171    5.3372   12.3639 N   0  0  0  0  0  0  0  0  0  0  0  0
    2.5768    4.4188   14.7974 O   0  0  0  0  0  0  0  0  0  0  0  0
    5.4736    4.6065   14.8601 O   0  0  0  0  0  0  0  0  0  0  0  0
    4.7706    4.5936    8.6616 O   0  0  0  0  0  0  0  0  0  0  0  0
   -3.0572   11.0813    8.4621 C   0  0  1  0  0  0  0  0  0  0  0  0
   -2.9111   10.2374    7.1649 C   0  0  1  0  0  0  0  0  0  0  0  0
   -3.4720   11.0020    5.9329 C   0  0  2  0  0  0  0  0  0  0  0  0
   -4.9431   11.4844    6.1496 C   0  0  1  0  0  0  0  0  0  0  0  0
   -5.1471   12.2181    7.5090 C   0  0  0  0  0  0  0  0  0  0  0  0
   -4.5522   11.4281    8.7135 C   0  0  2  0  0  0  0  0  0  0  0  0
   -5.3899   12.3303    5.0222 N   0  0  0  0  0  0  0  0  0  0  0  0
   -4.7402   12.2127    9.9531 N   0  0  0  0  0  0  0  0  0  0  0  0
   -1.5532    9.8644    6.9534 O   0  0  0  0  0  0  0  0  0  0  0  0
   -3.3797   10.1949    4.7617 O   0  0  0  0  0  0  0  0  0  0  0  0
  1  2  1  0  0  0  0
  1 16  1  1  0  0  0
  2  3  1  0  0  0  0
  2 12  1  1  0  0  0
  4 11  1  1  0  0  0
  4  3  1  0  0  0  0
  5  4  1  0  0  0  0
  5 10  1  6  0  0  0
  6  7  1  0  0  0  0
  6  5  1  0  0  0  0
  6 14  1  1  0  0  0
  7  8  1  0  0  0  0
  7 13  1  6  0  0  0
  8 15  1  1  0  0  0
  8 11  1  0  0  0  0
  9 13  1  0  0  0  0
 10  1  1  0  0  0  0
 17 15  1  6  0  0  0
 17 18  1  0  0  0  0
 18 25  1  1  0  0  0
 19 18  1  0  0  0  0
 19 26  1  1  0  0  0
 20 19  1  0  0  0  0
 20 24  1  6  0  0  0
 21 23  1  0  0  0  0
 21 20  1  0  0  0  0
 21 22  1  6  0  0  0
 23 17  1  0  0  0  0
 27 22  1  0  0  0  0
 28 29  1  0  0  0  0
 28 16  1  1  0  0  0
 29 36  1  6  0  0  0
 30 37  1  6  0  0  0
 30 29  1  0  0  0  0
 31 30  1  0  0  0  0
 31 34  1  6  0  0  0
 32 31  1  0  0  0  0
 32 33  1  0  0  0  0
 33 28  1  0  0  0  0
 33 35  1  1  0  0  0
M  END
>  <CHROM.1>
35.18069957,-85.69213391,63.31887839,142.67180943,-144.98260773,-138.41549926
175.64034490,-64.84496882,-174.94808366,-58.64623226,63.00438912,-64.83388002
-59.13001583,-177.93509184,-154.90505209,171.97487564,-0.03901869,7.52879835
10.13006248,2.68799626,0.63946301,-1.51214041

>  <Name>
lig.pdb

>  <RI>
0

>  <Rbt.Current_Directory>
/home/itssahil/PROJECTS/Mol_Feturizer/New_Systems/rnas/2m4q

>  <Rbt.Executable>
rbdock ($Id: //depot/dev/client3/rdock/2013.1/src/exe/rbdock.cxx#4 $)

>  <Rbt.Library>
libRbt.so (2013.1, Build901 2013/11/27)

>  <Rbt.Parameter_File>
/export/apps/rDock/src/rDock_2013.1_src/data/scripts/dock_solv.prm

>  <Rbt.Receptor>
prm/pocket_docking_6.prm

>  <SCORE>
-39.738

>  <SCORE.INTER>
-22.0278

>  <SCORE.INTER.CONST>
1

>  <SCORE.INTER.POLAR>
-2.84008

>  <SCORE.INTER.ROT>
10

>  <SCORE.INTER.SOLV>
15.0909

>  <SCORE.INTER.VDW>
-20.5152

>  <SCORE.INTER.norm>
-0.595345

>  <SCORE.INTRA>
-17.7102

>  <SCORE.INTRA.DIHEDRAL>
-24.141

>  <SCORE.INTRA.DIHEDRAL.0>
44.8331

>  <SCORE.INTRA.POLAR>
-1.8986

>  <SCORE.INTRA.POLAR.0>
-0.108895

>  <SCORE.INTRA.REPUL>
-0.00912235

>  <SCORE.INTRA.REPUL.0>
0.00912235

>  <SCORE.INTRA.SOLV>
0.620205

>  <SCORE.INTRA.SOLV.lig_0>
-53.9067

>  <SCORE.INTRA.VDW>
0.55102

>  <SCORE.INTRA.VDW.0>
-2.93492

>  <SCORE.INTRA.norm>
-0.478655

>  <SCORE.RESTR>
0

>  <SCORE.RESTR.CAVITY>
0

>  <SCORE.RESTR.norm>
0

>  <SCORE.SYSTEM>
0

>  <SCORE.SYSTEM.CONST>
0

>  <SCORE.SYSTEM.DIHEDRAL>
0

>  <SCORE.SYSTEM.SOLV>
0

>  <SCORE.SYSTEM.norm>
0

>  <SCORE.heavy>
37

>  <SCORE.norm>
-1.074

>  <RMSD>
2.309

$$$$
lig.pdb
 OpenBabel11021811453D
libRbt.so/2013.1/901 2013/11/27
 37 40  0  0  0  0  0  0  0  0999 V2000
   -2.8676    8.5127   11.2764 C   0  0  2  0  0  0  0  0  0  0  0  0
   -2.3817    8.2971   12.7476 C   0  0  1  0  0  0  0  0  0  0  0  0
   -0.8453    8.0725   12.8616 C   0  0  0  0  0  0  0  0  0  0  0  0
   -0.3618    7.0031   11.8509 C   0  0  1  0  0  0  0  0  0  0  0  0
   -0.7833    7.4034   10.4193 C   0  0  1  0  0  0  0  0  0  0  0  0
   -0.2706    6.3717    9.3788 C   0  0  1  0  0  0  0  0  0  0  0  0
    1.2651    6.1538    9.5230 C   0  0  1  0  0  0  0  0  0  0  0  0
    1.6735    5.8331   10.9916 C   0  0  2  0  0  0  0  0  0  0  0  0
    3.1139    5.2414    8.1951 C   0  0  0  0  0  0  0  0  0  0  0  0
   -2.2276    7.5792   10.3468 O   0  0  0  0  0  0  0  0  0  0  0  0
    1.0750    6.7771   11.9320 O   0  0  0  0  0  0  0  0  0  0  0  0
   -2.7771    9.4548   13.5788 N   0  0  0  0  0  0  0  0  0  0  0  0
    1.6949    5.0959    8.5853 N   0  0  0  0  0  0  0  0  0  0  0  0
   -0.9772    5.1420    9.4794 O   0  0  0  0  0  0  0  0  0  0  0  0
    3.1250    5.8047   11.1215 O   0  0  0  0  0  0  0  0  0  0  0  0
   -2.6508    9.8910   10.8454 O   0  0  0  0  0  0  0  0  0  0  0  0
    3.7137    6.0984   12.4257 C   0  0  2  0  0  0  0  0  0  0  0  0
    5.2670    6.0998   12.3484 C   0  0  1  0  0  0  0  0  0  0  0  0
    5.8347    4.6655   12.1468 C   0  0  2  0  0  0  0  0  0  0  0  0
    5.2809    3.6860   13.2219 C   0  0  1  0  0  0  0  0  0  0  0  0
    3.7292    3.7418   13.2896 C   0  0  1  0  0  0  0  0  0  0  0  0
    3.1699    2.8741   14.4474 C   0  0  0  0  0  0  0  0  0  0  0  0
    3.2748    5.1233   13.4180 O   0  0  0  0  0  0  0  0  0  0  0  0
    5.7622    2.3057   12.9947 N   0  0  0  0  0  0  0  0  0  0  0  0
    5.7173    6.9940   11.3324 O   0  0  0  0  0  0  0  0  0  0  0  0
    7.2607    4.6719   12.1431 O   0  0  0  0  0  0  0  0  0  0  0  0
    1.9239    3.3859   14.9086 O   0  0  0  0  0  0  0  0  0  0  0  0
   -3.3905   10.3608    9.6809 C   0  0  1  0  0  0  0  0  0  0  0  0
   -3.8682   11.8304    9.8493 C   0  0  1  0  0  0  0  0  0  0  0  0
   -4.7362   12.2794    8.6401 C   0  0  2  0  0  0  0  0  0  0  0  0
   -4.0138   12.0564    7.2719 C   0  0  1  0  0  0  0  0  0  0  0  0
   -3.4065   10.6283    7.1321 C   0  0  0  0  0  0  0  0  0  0  0  0
   -2.5621   10.2101    8.3734 C   0  0  2  0  0  0  0  0  0  0  0  0
   -4.9215   12.3556    6.1438 N   0  0  0  0  0  0  0  0  0  0  0  0
   -2.0671    8.8292    8.1849 N   0  0  0  0  0  0  0  0  0  0  0  0
   -4.5798   11.9950   11.0716 O   0  0  0  0  0  0  0  0  0  0  0  0
   -5.1216   13.6442    8.7836 O   0  0  0  0  0  0  0  0  0  0  0  0
  1  2  1  0  0  0  0
  1 16  1  6  0  0  0
  2  3  1  0  0  0  0
  2 12  1  1  0  0  0
  4 11  1  6  0  0  0
  4  3  1  0  0  0  0
  5  4  1  0  0  0  0
  5 10  1  1  0  0  0
  6  7  1  0  0  0  0
  6  5  1  0  0  0  0
  6 14  1  1  0  0  0
  7  8  1  0  0  0  0
  7 13  1  6  0  0  0
  8 15  1  6  0  0  0
  8 11  1  0  0  0  0
  9 13  1  0  0  0  0
 10  1  1  0  0  0  0
 17 15  1  6  0  0  0
 17 18  1  0  0  0  0
 18 25  1  6  0  0  0
 19 18  1  0  0  0  0
 19 26  1  1  0  0  0
 20 19  1  0  0  0  0
 20 24  1  6  0  0  0
 21 23  1  0  0  0  0
 21 20  1  0  0  0  0
 21 22  1  1  0  0  0
 23 17  1  0  0  0  0
 27 22  1  0  0  0  0
 28 29  1  0  0  0  0
 28 16  1  1  0  0  0
 29 36  1  1  0  0  0
 30 37  1  1  0  0  0
 30 29  1  0  0  0  0
 31 30  1  0  0  0  0
 31 34  1  6  0  0  0
 32 31  1  0  0  0  0
 32 33  1  0  0  0  0
 33 28  1  0  0  0  0
 33 35  1  6  0  0  0
M  END
>  <CHROM.1>
-62.23351413,153.87822993,153.64758343,151.35019853,-176.76061148,-162.09224010
-55.61983178,-60.43971006,152.34329010,-48.50712892,-54.63526821,141.30270514
59.60146137,-135.93710911,-68.99021601,-169.39458095,0.23553423,7.46334100
10.84068276,2.66560524,0.58901171,-1.29886040

>  <Name>
lig.pdb

>  <RI>
0

>  <Rbt.Current_Directory>
/home/itssahil/PROJECTS/Mol_Feturizer/New_Systems/rnas/2m4q

>  <Rbt.Executable>
rbdock ($Id: //depot/dev/client3/rdock/2013.1/src/exe/rbdock.cxx#4 $)

>  <Rbt.Library>
libRbt.so (2013.1, Build901 2013/11/27)

>  <Rbt.Parameter_File>
/export/apps/rDock/src/rDock_2013.1_src/data/scripts/dock_solv.prm

>  <Rbt.Receptor>
prm/pocket_docking_3.prm

>  <SCORE>
-34.7356

>  <SCORE.INTER>
-22.9778

>  <SCORE.INTER.CONST>
1

>  <SCORE.INTER.POLAR>
-3.99458

>  <SCORE.INTER.ROT>
10

>  <SCORE.INTER.SOLV>
11.6294

>  <SCORE.INTER.VDW>
-16.1464

>  <SCORE.INTER.norm>
-0.621021

>  <SCORE.INTRA>
-11.9054

>  <SCORE.INTRA.DIHEDRAL>
-21.6776

>  <SCORE.INTRA.DIHEDRAL.0>
44.8331

>  <SCORE.INTRA.POLAR>
-0.00943784

>  <SCORE.INTRA.POLAR.0>
-0.108895

>  <SCORE.INTRA.REPUL>
-0.00912235

>  <SCORE.INTRA.REPUL.0>
0.00912235

>  <SCORE.INTRA.SOLV>
-1.52711

>  <SCORE.INTRA.SOLV.lig_0>
-53.9067

>  <SCORE.INTRA.VDW>
-0.225283

>  <SCORE.INTRA.VDW.0>
-2.93492

>  <SCORE.INTRA.norm>
-0.321767

>  <SCORE.RESTR>
0.147595

>  <SCORE.RESTR.CAVITY>
0.147595

>  <SCORE.RESTR.norm>
0.00398905

>  <SCORE.SYSTEM>
0

>  <SCORE.SYSTEM.CONST>
0

>  <SCORE.SYSTEM.DIHEDRAL>
0

>  <SCORE.SYSTEM.SOLV>
0

>  <SCORE.SYSTEM.norm>
0

>  <SCORE.heavy>
37

>  <SCORE.norm>
-0.938799

>  <RMSD>
2.324

$$$$
lig.pdb
 OpenBabel11021811453D
libRbt.so/2013.1/901 2013/11/27
 37 40  0  0  0  0  0  0  0  0999 V2000
   -1.8179    7.6815    8.9974 C   0  0  2  0  0  0  0  0  0  0  0  0
   -2.1360    6.9688   10.3532 C   0  0  1  0  0  0  0  0  0  0  0  0
   -0.8613    6.5809   11.1584 C   0  0  0  0  0  0  0  0  0  0  0  0
    0.1639    5.8463   10.2594 C   0  0  1  0  0  0  0  0  0  0  0  0
    0.5005    6.7151    9.0267 C   0  0  1  0  0  0  0  0  0  0  0  0
    1.5625    6.0229    8.1308 C   0  0  1  0  0  0  0  0  0  0  0  0
    2.8206    5.6318    8.9620 C   0  0  1  0  0  0  0  0  0  0  0  0
    2.4469    4.8277   10.2426 C   0  0  2  0  0  0  0  0  0  0  0  0
    5.1716    5.1416    8.4654 C   0  0  0  0  0  0  0  0  0  0  0  0
   -0.7125    7.0354    8.2863 O   0  0  0  0  0  0  0  0  0  0  0  0
    1.3705    5.4765   10.9870 O   0  0  0  0  0  0  0  0  0  0  0  0
   -3.0020    7.8355   11.1818 N   0  0  0  0  0  0  0  0  0  0  0  0
    3.7615    4.8899    8.0974 N   0  0  0  0  0  0  0  0  0  0  0  0
    1.0164    4.8941    7.4607 O   0  0  0  0  0  0  0  0  0  0  0  0
    3.6235    4.6278   11.0793 O   0  0  0  0  0  0  0  0  0  0  0  0
   -1.5346    9.0996    9.2003 O   0  0  0  0  0  0  0  0  0  0  0  0
    3.4419    4.0595   12.4128 C   0  0  2  0  0  0  0  0  0  0  0  0
    4.6904    4.3179   13.3034 C   0  0  1  0  0  0  0  0  0  0  0  0
    5.9104    3.4685   12.8451 C   0  0  2  0  0  0  0  0  0  0  0  0
    5.5386    1.9608   12.7431 C   0  0  1  0  0  0  0  0  0  0  0  0
    4.2673    1.7511   11.8740 C   0  0  1  0  0  0  0  0  0  0  0  0
    3.8051    0.2703   11.8743 C   0  0  0  0  0  0  0  0  0  0  0  0
    3.1900    2.6249   12.3290 O   0  0  0  0  0  0  0  0  0  0  0  0
    6.6745    1.1567   12.2413 N   0  0  0  0  0  0  0  0  0  0  0  0
    4.9997    5.7098   13.3409 O   0  0  0  0  0  0  0  0  0  0  0  0
    7.0281    3.6650   13.7085 O   0  0  0  0  0  0  0  0  0  0  0  0
    4.5455   -0.4923   10.9269 O   0  0  0  0  0  0  0  0  0  0  0  0
   -2.2706   10.0602    8.3882 C   0  0  1  0  0  0  0  0  0  0  0  0
   -2.2551    9.6804    6.8810 C   0  0  1  0  0  0  0  0  0  0  0  0
   -2.9616   10.7668    6.0221 C   0  0  2  0  0  0  0  0  0  0  0  0
   -4.4074   11.0798    6.5277 C   0  0  1  0  0  0  0  0  0  0  0  0
   -4.4715   11.3326    8.0639 C   0  0  0  0  0  0  0  0  0  0  0  0
   -3.7340   10.2326    8.8853 C   0  0  2  0  0  0  0  0  0  0  0  0
   -4.9901   12.2157    5.7821 N   0  0  0  0  0  0  0  0  0  0  0  0
   -3.7964   10.5724   10.3234 N   0  0  0  0  0  0  0  0  0  0  0  0
   -0.9231    9.4636    6.4267 O   0  0  0  0  0  0  0  0  0  0  0  0
   -2.9863   10.3790    4.6507 O   0  0  0  0  0  0  0  0  0  0  0  0
  1  2  1  0  0  0  0
  1 16  1  1  0  0  0
  2  3  1  0  0  0  0
  2 12  1  1  0  0  0
  4 11  1  1  0  0  0
  4  3  1  0  0  0  0
  5  4  1  0  0  0  0
  5 10  1  6  0  0  0
  6  7  1  0  0  0  0
  6  5  1  0  0  0  0
  6 14  1  1  0  0  0
  7  8  1  0  0  0  0
  7 13  1  6  0  0  0
  8 15  1  1  0  0  0
  8 11  1  0  0  0  0
  9 13  1  0  0  0  0
 10  1  1  0  0  0  0
 17 15  1  6  0  0  0
 17 18  1  0  0  0  0
 18 25  1  6  0  0  0
 19 18  1  0  0  0  0
 19 26  1  1  0  0  0
 20 19  1  0  0  0  0
 20 24  1  6  0  0  0
 21 23  1  0  0  0  0
 21 20  1  0  0  0  0
 21 22  1  1  0  0  0
 23 17  1  0  0  0  0
 27 22  1  0  0  0  0
 28 29  1  0  0  0  0
 28 16  1  1  0  0  0
 29 36  1  6  0  0  0
 30 37  1  6  0  0  0
 30 29  1  0  0  0  0
 31 30  1  0  0  0  0
 31 34  1  6  0  0  0
 32 31  1  0  0  0  0
 32 33  1  0  0  0  0
 33 28  1  0  0  0  0
 33 35  1  1  0  0  0
M  END
>  <CHROM.1>
157.13678773,171.51951181,147.31680121,157.02441271,-162.61633658,-128.37434870
-57.48922321,62.02712178,-82.46865358,39.80725784,55.61298309,-48.51372282
-58.59643410,-175.86262976,60.44760345,163.70347907,0.95017607,6.29386588
9.76374820,2.67101209,0.70422159,-1.44891844

>  <Name>
lig.pdb

>  <RI>
0

>  <Rbt.Current_Directory>
/home/itssahil/PROJECTS/Mol_Feturizer/New_Systems/rnas/2m4q

>  <Rbt.Executable>
rbdock ($Id: //depot/dev/client3/rdock/2013.1/src/exe/rbdock.cxx#4 $)

>  <Rbt.Library>
libRbt.so (2013.1, Build901 2013/11/27)

>  <Rbt.Parameter_File>
/export/apps/rDock/src/rDock_2013.1_src/data/scripts/dock_solv.prm

>  <Rbt.Receptor>
prm/pocket_docking_6.prm

>  <SCORE>
-48.1815

>  <SCORE.INTER>
-31.4178

>  <SCORE.INTER.CONST>
1

>  <SCORE.INTER.POLAR>
-4.0328

>  <SCORE.INTER.ROT>
10

>  <SCORE.INTER.SOLV>
19.7423

>  <SCORE.INTER.VDW>
-24.35

>  <SCORE.INTER.norm>
-0.84913

>  <SCORE.INTRA>
-16.7637

>  <SCORE.INTRA.DIHEDRAL>
-28.0336

>  <SCORE.INTRA.DIHEDRAL.0>
44.8331

>  <SCORE.INTRA.POLAR>
-0.773934

>  <SCORE.INTRA.POLAR.0>
-0.108895

>  <SCORE.INTRA.REPUL>
-0.00912235

>  <SCORE.INTRA.REPUL.0>
0.00912235

>  <SCORE.INTRA.SOLV>
-0.704236

>  <SCORE.INTRA.SOLV.lig_0>
-53.9067

>  <SCORE.INTRA.VDW>
0.282229

>  <SCORE.INTRA.VDW.0>
-2.93492

>  <SCORE.INTRA.norm>
-0.453073

>  <SCORE.RESTR>
0

>  <SCORE.RESTR.CAVITY>
0

>  <SCORE.RESTR.norm>
0

>  <SCORE.SYSTEM>
0

>  <SCORE.SYSTEM.CONST>
0

>  <SCORE.SYSTEM.DIHEDRAL>
0

>  <SCORE.SYSTEM.SOLV>
0

>  <SCORE.SYSTEM.norm>
0

>  <SCORE.heavy>
37

>  <SCORE.norm>
-1.3022

>  <RMSD>
2.327

$$$$
lig.pdb
 OpenBabel11021811453D
libRbt.so/2013.1/901 2013/11/27
 37 40  0  0  0  0  0  0  0  0999 V2000
   -2.2251    7.8852    8.6097 C   0  0  2  0  0  0  0  0  0  0  0  0
   -2.5055    7.1991    9.9873 C   0  0  1  0  0  0  0  0  0  0  0  0
   -1.2090    6.8034   10.7529 C   0  0  0  0  0  0  0  0  0  0  0  0
   -0.2281    6.0385    9.8301 C   0  0  1  0  0  0  0  0  0  0  0  0
    0.0776    6.8822    8.5724 C   0  0  1  0  0  0  0  0  0  0  0  0
    1.0960    6.1591    7.6507 C   0  0  1  0  0  0  0  0  0  0  0  0
    2.3768    5.7609    8.4429 C   0  0  1  0  0  0  0  0  0  0  0  0
    2.0367    4.9831    9.7489 C   0  0  2  0  0  0  0  0  0  0  0  0
    4.6719    4.9956    8.0420 C   0  0  0  0  0  0  0  0  0  0  0  0
   -1.1560    7.2104    7.8703 O   0  0  0  0  0  0  0  0  0  0  0  0
    0.9978    5.6608   10.5204 O   0  0  0  0  0  0  0  0  0  0  0  0
   -3.3278    8.0925   10.8319 N   0  0  0  0  0  0  0  0  0  0  0  0
    3.2746    4.9905    7.5577 N   0  0  0  0  0  0  0  0  0  0  0  0
    0.5088    5.0289    7.0188 O   0  0  0  0  0  0  0  0  0  0  0  0
    3.2393    4.7774   10.5465 O   0  0  0  0  0  0  0  0  0  0  0  0
   -1.9127    9.3016    8.7792 O   0  0  0  0  0  0  0  0  0  0  0  0
    3.1162    4.0853   11.8270 C   0  0  2  0  0  0  0  0  0  0  0  0
    4.0273    4.7398   12.9041 C   0  0  1  0  0  0  0  0  0  0  0  0
    5.5335    4.4662   12.6277 C   0  0  2  0  0  0  0  0  0  0  0  0
    5.8040    2.9444   12.4467 C   0  0  1  0  0  0  0  0  0  0  0  0
    4.8500    2.3241   11.3881 C   0  0  1  0  0  0  0  0  0  0  0  0
    5.0136    0.7844   11.2945 C   0  0  0  0  0  0  0  0  0  0  0  0
    3.4642    2.6758   11.6837 O   0  0  0  0  0  0  0  0  0  0  0  0
    7.2218    2.6830   12.1149 N   0  0  0  0  0  0  0  0  0  0  0  0
    3.7544    6.1359   13.0099 O   0  0  0  0  0  0  0  0  0  0  0  0
    6.3539    5.0153   13.6566 O   0  0  0  0  0  0  0  0  0  0  0  0
    4.7173    0.1661   12.5424 O   0  0  0  0  0  0  0  0  0  0  0  0
   -2.5446   10.2483    7.8690 C   0  0  1  0  0  0  0  0  0  0  0  0
   -2.4623    9.7766    6.3901 C   0  0  1  0  0  0  0  0  0  0  0  0
   -3.0550   10.8442    5.4278 C   0  0  2  0  0  0  0  0  0  0  0  0
   -4.5080   11.2633    5.8241 C   0  0  1  0  0  0  0  0  0  0  0  0
   -4.6477   11.6126    7.3361 C   0  0  0  0  0  0  0  0  0  0  0  0
   -4.0226   10.5276    8.2639 C   0  0  2  0  0  0  0  0  0  0  0  0
   -4.9811   12.3807    4.9793 N   0  0  0  0  0  0  0  0  0  0  0  0
   -4.1499   10.9576    9.6732 N   0  0  0  0  0  0  0  0  0  0  0  0
   -1.1203    9.4626    6.0324 O   0  0  0  0  0  0  0  0  0  0  0  0
   -3.0210   10.3751    4.0822 O   0  0  0  0  0  0  0  0  0  0  0  0
  1  2  1  0  0  0  0
  1 16  1  1  0  0  0
  2  3  1  0  0  0  0
  2 12  1  1  0  0  0
  4 11  1  1  0  0  0
  4  3  1  0  0  0  0
  5  4  1  0  0  0  0
  5 10  1  6  0  0  0
  6  7  1  0  0  0  0
  6  5  1  0  0  0  0
  6 14  1  1  0  0  0
  7  8  1  0  0  0  0
  7 13  1  6  0  0  0
  8 15  1  1  0  0  0
  8 11  1  0  0  0  0
  9 13  1  0  0  0  0
 10  1  1  0  0  0  0
 17 15  1  6  0  0  0
 17 18  1  0  0  0  0
 18 25  1  6  0  0  0
 19 18  1  0  0  0  0
 19 26  1  1  0  0  0
 20 19  1  0  0  0  0
 20 24  1  6  0  0  0
 21 23  1  0  0  0  0
 21 20  1  0  0  0  0
 21 22  1  1  0  0  0
 23 17  1  0  0  0  0
 27 22  1  0  0  0  0
 28 29  1  0  0  0  0
 28 16  1  1  0  0  0
 29 36  1  6  0  0  0
 30 37  1  6  0  0  0
 30 29  1  0  0  0  0
 31 30  1  0  0  0  0
 31 34  1  6  0  0  0
 32 31  1  0  0  0  0
 32 33  1  0  0  0  0
 33 28  1  0  0  0  0
 33 35  1  1  0  0  0
M  END
>  <CHROM.1>
48.99995954,178.83163985,159.36392022,-40.55678006,-140.37178169,-135.53242936
63.95214905,-173.70439703,60.38244449,66.29889294,-167.29161858,-46.29919605
-179.60446725,61.89040911,-143.45147329,-56.89300039,0.70720938,6.60480439
9.36420389,2.67784393,0.68647104,-1.50900715

>  <Name>
lig.pdb

>  <RI>
3.87352e+07

>  <Rbt.Current_Directory>
/home/itssahil/PROJECTS/Mol_Feturizer/New_Systems/rnas/2m4q

>  <Rbt.Executable>
rbdock ($Id: //depot/dev/client3/rdock/2013.1/src/exe/rbdock.cxx#4 $)

>  <Rbt.Library>
libRbt.so (2013.1, Build901 2013/11/27)

>  <Rbt.Parameter_File>
/export/apps/rDock/src/rDock_2013.1_src/data/scripts/dock_solv.prm

>  <Rbt.Receptor>
prm/pocket_docking_4.prm

>  <SCORE>
-46.7772

>  <SCORE.INTER>
-35.2224

>  <SCORE.INTER.CONST>
1

>  <SCORE.INTER.POLAR>
-4.16177

>  <SCORE.INTER.ROT>
10

>  <SCORE.INTER.SOLV>
20.589

>  <SCORE.INTER.VDW>
-26.7387

>  <SCORE.INTER.norm>
-0.951956

>  <SCORE.INTRA>
-11.5549

>  <SCORE.INTRA.DIHEDRAL>
-26.8259

>  <SCORE.INTRA.DIHEDRAL.0>
44.8331

>  <SCORE.INTRA.POLAR>
0.108403

>  <SCORE.INTRA.POLAR.0>
-0.108895

>  <SCORE.INTRA.REPUL>
-0.00912235

>  <SCORE.INTRA.REPUL.0>
0.00912235

>  <SCORE.INTRA.SOLV>
-0.358924

>  <SCORE.INTRA.SOLV.lig_0>
-53.9067

>  <SCORE.INTRA.VDW>
1.71461

>  <SCORE.INTRA.VDW.0>
-2.93492

>  <SCORE.INTRA.norm>
-0.312293

>  <SCORE.RESTR>
0

>  <SCORE.RESTR.CAVITY>
0

>  <SCORE.RESTR.norm>
0

>  <SCORE.SYSTEM>
0

>  <SCORE.SYSTEM.CONST>
0

>  <SCORE.SYSTEM.DIHEDRAL>
0

>  <SCORE.SYSTEM.SOLV>
0

>  <SCORE.SYSTEM.norm>
0

>  <SCORE.heavy>
37

>  <SCORE.norm>
-1.26425

>  <RMSD>
2.342

$$$$
lig.pdb
 OpenBabel11021811453D
libRbt.so/2013.1/901 2013/11/27
 37 40  0  0  0  0  0  0  0  0999 V2000
   -2.2587    7.8422    8.6592 C   0  0  2  0  0  0  0  0  0  0  0  0
   -2.5225    7.1266   10.0250 C   0  0  1  0  0  0  0  0  0  0  0  0
   -1.2169    6.7157   10.7668 C   0  0  0  0  0  0  0  0  0  0  0  0
   -0.2465    5.9714    9.8163 C   0  0  1  0  0  0  0  0  0  0  0  0
    0.0439    6.8421    8.5734 C   0  0  1  0  0  0  0  0  0  0  0  0
    1.0518    6.1396    7.6246 C   0  0  1  0  0  0  0  0  0  0  0  0
    2.3421    5.7256    8.3930 C   0  0  1  0  0  0  0  0  0  0  0  0
    2.0178    4.9198    9.6860 C   0  0  2  0  0  0  0  0  0  0  0  0
    4.6470    5.0508    7.8969 C   0  0  0  0  0  0  0  0  0  0  0  0
   -1.1980    7.1842    7.8931 O   0  0  0  0  0  0  0  0  0  0  0  0
    0.9877    5.5800   10.4839 O   0  0  0  0  0  0  0  0  0  0  0  0
   -3.3353    8.0011   10.8981 N   0  0  0  0  0  0  0  0  0  0  0  0
    3.2298    4.9750    7.4810 N   0  0  0  0  0  0  0  0  0  0  0  0
    0.4579    5.0227    6.9756 O   0  0  0  0  0  0  0  0  0  0  0  0
    3.2297    4.6981   10.4648 O   0  0  0  0  0  0  0  0  0  0  0  0
   -1.9451    9.2549    8.8553 O   0  0  0  0  0  0  0  0  0  0  0  0
    3.2035    3.6917   11.5232 C   0  0  2  0  0  0  0  0  0  0  0  0
    2.9707    4.3503   12.9128 C   0  0  1  0  0  0  0  0  0  0  0  0
    4.2138    5.1592   13.3821 C   0  0  2  0  0  0  0  0  0  0  0  0
    5.5027    4.2884   13.3309 C   0  0  1  0  0  0  0  0  0  0  0  0
    5.6781    3.6222   11.9377 C   0  0  1  0  0  0  0  0  0  0  0  0
    6.8819    2.6443   11.9124 C   0  0  0  0  0  0  0  0  0  0  0  0
    4.4512    2.9360   11.5437 O   0  0  0  0  0  0  0  0  0  0  0  0
    6.6994    5.0713   13.7097 N   0  0  0  0  0  0  0  0  0  0  0  0
    1.7928    5.1545   12.8950 O   0  0  0  0  0  0  0  0  0  0  0  0
    4.0124    5.7032   14.6847 O   0  0  0  0  0  0  0  0  0  0  0  0
    7.0260    2.0504   10.6264 O   0  0  0  0  0  0  0  0  0  0  0  0
   -2.6465   10.2260    8.0252 C   0  0  1  0  0  0  0  0  0  0  0  0
   -2.7076    9.7823    6.5367 C   0  0  1  0  0  0  0  0  0  0  0  0
   -3.3732   10.8749    5.6533 C   0  0  2  0  0  0  0  0  0  0  0  0
   -4.7777   11.3022    6.1905 C   0  0  1  0  0  0  0  0  0  0  0  0
   -4.7722   11.6236    7.7151 C   0  0  0  0  0  0  0  0  0  0  0  0
   -4.0778   10.5139    8.5608 C   0  0  2  0  0  0  0  0  0  0  0  0
   -5.3129   12.4409    5.4139 N   0  0  0  0  0  0  0  0  0  0  0  0
   -4.0684   10.9178    9.9835 N   0  0  0  0  0  0  0  0  0  0  0  0
   -1.4087    9.4605    6.0502 O   0  0  0  0  0  0  0  0  0  0  0  0
   -3.4702   10.4316    4.3021 O   0  0  0  0  0  0  0  0  0  0  0  0
  1  2  1  0  0  0  0
  1 16  1  1  0  0  0
  2  3  1  0  0  0  0
  2 12  1  1  0  0  0
  4 11  1  1  0  0  0
  4  3  1  0  0  0  0
  5  4  1  0  0  0  0
  5 10  1  6  0  0  0
  6  7  1  0  0  0  0
  6  5  1  0  0  0  0
  6 14  1  1  0  0  0
  7  8  1  0  0  0  0
  7 13  1  6  0  0  0
  8 15  1  1  0  0  0
  8 11  1  0  0  0  0
  9 13  1  0  0  0  0
 10  1  1  0  0  0  0
 17 15  1  6  0  0  0
 17 18  1  0  0  0  0
 18 25  1  6  0  0  0
 19 18  1  0  0  0  0
 19 26  1  1  0  0  0
 20 19  1  0  0  0  0
 20 24  1  6  0  0  0
 21 23  1  0  0  0  0
 21 20  1  0  0  0  0
 21 22  1  1  0  0  0
 23 17  1  0  0  0  0
 27 22  1  0  0  0  0
 28 29  1  0  0  0  0
 28 16  1  1  0  0  0
 29 36  1  6  0  0  0
 30 37  1  6  0  0  0
 30 29  1  0  0  0  0
 31 30  1  0  0  0  0
 31 34  1  6  0  0  0
 32 31  1  0  0  0  0
 32 33  1  0  0  0  0
 33 28  1  0  0  0  0
 33 35  1  1  0  0  0
M  END
>  <CHROM.1>
169.41597676,-164.87885914,155.33184248,-40.80909924,-98.23833030,-132.04815472
-42.36660331,-172.99647385,-179.78502645,77.38946487,-52.97389105,-44.36084630
172.73828864,-60.50242815,-150.92949463,-68.06355284,0.59500366,6.82990539
9.49789339,2.70745703,0.63650753,-1.56017580

>  <Name>
lig.pdb

>  <RI>
0

>  <Rbt.Current_Directory>
/home/itssahil/PROJECTS/Mol_Feturizer/New_Systems/rnas/2m4q

>  <Rbt.Executable>
rbdock ($Id: //depot/dev/client3/rdock/2013.1/src/exe/rbdock.cxx#4 $)

>  <Rbt.Library>
libRbt.so (2013.1, Build901 2013/11/27)

>  <Rbt.Parameter_File>
/export/apps/rDock/src/rDock_2013.1_src/data/scripts/dock_solv.prm

>  <Rbt.Receptor>
prm/pocket_docking_2.prm

>  <SCORE>
-45.0925

>  <SCORE.INTER>
-29.2018

>  <SCORE.INTER.CONST>
1

>  <SCORE.INTER.POLAR>
-3.34991

>  <SCORE.INTER.ROT>
10

>  <SCORE.INTER.SOLV>
19.5256

>  <SCORE.INTER.VDW>
-25.0767

>  <SCORE.INTER.norm>
-0.789237

>  <SCORE.INTRA>
-16.8981

>  <SCORE.INTRA.DIHEDRAL>
-24.1854

>  <SCORE.INTRA.DIHEDRAL.0>
44.8331

>  <SCORE.INTRA.POLAR>
-1.70231

>  <SCORE.INTRA.POLAR.0>
-0.108895

>  <SCORE.INTRA.REPUL>
-0.00912235

>  <SCORE.INTRA.REPUL.0>
0.00912235

>  <SCORE.INTRA.SOLV>
-0.566134

>  <SCORE.INTRA.SOLV.lig_0>
-53.9067

>  <SCORE.INTRA.VDW>
1.31113

>  <SCORE.INTRA.VDW.0>
-2.93492

>  <SCORE.INTRA.norm>
-0.456705

>  <SCORE.RESTR>
1.00732

>  <SCORE.RESTR.CAVITY>
1.00732

>  <SCORE.RESTR.norm>
0.027225

>  <SCORE.SYSTEM>
0

>  <SCORE.SYSTEM.CONST>
0

>  <SCORE.SYSTEM.DIHEDRAL>
0

>  <SCORE.SYSTEM.SOLV>
0

>  <SCORE.SYSTEM.norm>
0

>  <SCORE.heavy>
37

>  <SCORE.norm>
-1.21872

>  <RMSD>
2.352

$$$$
lig.pdb
 OpenBabel11021811453D
libRbt.so/2013.1/901 2013/11/27
 37 40  0  0  0  0  0  0  0  0999 V2000
   -2.2843    8.3418   11.1068 C   0  0  2  0  0  0  0  0  0  0  0  0
   -2.1735    7.9512   12.6175 C   0  0  1  0  0  0  0  0  0  0  0  0
   -0.7602    7.4353   13.0177 C   0  0  0  0  0  0  0  0  0  0  0  0
   -0.2591    6.3564   12.0259 C   0  0  1  0  0  0  0  0  0  0  0  0
   -0.2850    6.9136   10.5849 C   0  0  1  0  0  0  0  0  0  0  0  0
    0.2571    5.8679    9.5738 C   0  0  1  0  0  0  0  0  0  0  0  0
    1.6644    5.3568   10.0039 C   0  0  1  0  0  0  0  0  0  0  0  0
    1.6832    4.8779   11.4860 C   0  0  2  0  0  0  0  0  0  0  0  0
    2.8248    4.8413    7.9059 C   0  0  0  0  0  0  0  0  0  0  0  0
   -1.6272    7.3618   10.2391 O   0  0  0  0  0  0  0  0  0  0  0  0
    1.0654    5.8598   12.3737 O   0  0  0  0  0  0  0  0  0  0  0  0
   -2.5359    9.1109   13.4610 N   0  0  0  0  0  0  0  0  0  0  0  0
    2.0999    4.2950    9.0734 N   0  0  0  0  0  0  0  0  0  0  0  0
   -0.6543    4.7893    9.4078 O   0  0  0  0  0  0  0  0  0  0  0  0
    3.0451    4.5694   11.9038 O   0  0  0  0  0  0  0  0  0  0  0  0
   -1.7465    9.6780   10.8662 O   0  0  0  0  0  0  0  0  0  0  0  0
    3.2439    3.8739   13.1729 C   0  0  2  0  0  0  0  0  0  0  0  0
    4.6689    4.1392   13.7365 C   0  0  1  0  0  0  0  0  0  0  0  0
    5.7634    3.4213   12.8959 C   0  0  2  0  0  0  0  0  0  0  0  0
    5.4457    1.9062   12.7365 C   0  0  1  0  0  0  0  0  0  0  0  0
    4.0021    1.6858   12.2046 C   0  0  1  0  0  0  0  0  0  0  0  0
    3.6226    0.1821   12.1696 C   0  0  0  0  0  0  0  0  0  0  0  0
    3.0432    2.4383   13.0081 O   0  0  0  0  0  0  0  0  0  0  0  0
    6.4456    1.2313   11.8803 N   0  0  0  0  0  0  0  0  0  0  0  0
    4.9148    5.5406   13.8377 O   0  0  0  0  0  0  0  0  0  0  0  0
    7.0580    3.6185   13.4602 O   0  0  0  0  0  0  0  0  0  0  0  0
    3.6341   -0.3746   13.4800 O   0  0  0  0  0  0  0  0  0  0  0  0
   -1.5944   10.1077    9.4819 C   0  0  1  0  0  0  0  0  0  0  0  0
   -2.8437   10.8792    8.9718 C   0  0  1  0  0  0  0  0  0  0  0  0
   -2.7015   11.2435    7.4671 C   0  0  2  0  0  0  0  0  0  0  0  0
   -1.3770   12.0164    7.1632 C   0  0  1  0  0  0  0  0  0  0  0  0
   -0.1203   11.3330    7.7807 C   0  0  0  0  0  0  0  0  0  0  0  0
   -0.3129   10.9660    9.2831 C   0  0  2  0  0  0  0  0  0  0  0  0
   -1.2070   12.2152    5.7080 N   0  0  0  0  0  0  0  0  0  0  0  0
    0.8994   10.2779    9.7773 N   0  0  0  0  0  0  0  0  0  0  0  0
   -4.0315   10.1278    9.2002 O   0  0  0  0  0  0  0  0  0  0  0  0
   -3.8296   11.9961    7.0282 O   0  0  0  0  0  0  0  0  0  0  0  0
  1  2  1  0  0  0  0
  1 16  1  1  0  0  0
  2  3  1  0  0  0  0
  2 12  1  1  0  0  0
  4 11  1  1  0  0  0
  4  3  1  0  0  0  0
  5  4  1  0  0  0  0
  5 10  1  6  0  0  0
  6  7  1  0  0  0  0
  6  5  1  0  0  0  0
  6 14  1  1  0  0  0
  7  8  1  0  0  0  0
  7 13  1  6  0  0  0
  8 15  1  1  0  0  0
  8 11  1  0  0  0  0
  9 13  1  0  0  0  0
 10  1  1  0  0  0  0
 17 15  1  6  0  0  0
 17 18  1  0  0  0  0
 18 25  1  6  0  0  0
 19 18  1  0  0  0  0
 19 26  1  1  0  0  0
 20 19  1  0  0  0  0
 20 24  1  6  0  0  0
 21 23  1  0  0  0  0
 21 20  1  0  0  0  0
 21 22  1  1  0  0  0
 23 17  1  0  0  0  0
 27 22  1  0  0  0  0
 28 29  1  0  0  0  0
 28 16  1  1  0  0  0
 29 36  1  6  0  0  0
 30 37  1  1  0  0  0
 30 29  1  0  0  0  0
 31 30  1  0  0  0  0
 31 34  1  6  0  0  0
 32 31  1  0  0  0  0
 32 33  1  0  0  0  0
 33 28  1  0  0  0  0
 33 35  1  6  0  0  0
M  END
>  <CHROM.1>
79.42579561,-168.88278741,88.70356977,108.30509911,-156.58421817,171.04415212
61.45858011,179.42812289,62.55514884,166.48068488,-63.65491360,92.67692675
-63.54242775,-63.67433543,62.27439977,47.79030497,0.95954406,6.52447925,10.81507786
2.37013882,0.60390970,-0.97880152

>  <Name>
lig.pdb

>  <RI>
2.86754e+07

>  <Rbt.Current_Directory>
/home/itssahil/PROJECTS/Mol_Feturizer/New_Systems/rnas/2m4q

>  <Rbt.Executable>
rbdock ($Id: //depot/dev/client3/rdock/2013.1/src/exe/rbdock.cxx#4 $)

>  <Rbt.Library>
libRbt.so (2013.1, Build901 2013/11/27)

>  <Rbt.Parameter_File>
/export/apps/rDock/src/rDock_2013.1_src/data/scripts/dock_solv.prm

>  <Rbt.Receptor>
prm/pocket_docking_5.prm

>  <SCORE>
-40.5826

>  <SCORE.INTER>
-24.1109

>  <SCORE.INTER.CONST>
1

>  <SCORE.INTER.POLAR>
-4.65552

>  <SCORE.INTER.ROT>
10

>  <SCORE.INTER.SOLV>
12.9466

>  <SCORE.INTER.VDW>
-15.1377

>  <SCORE.INTER.norm>
-0.651645

>  <SCORE.INTRA>
-16.4717

>  <SCORE.INTRA.DIHEDRAL>
-27.6465

>  <SCORE.INTRA.DIHEDRAL.0>
44.8331

>  <SCORE.INTRA.POLAR>
-0.0936479

>  <SCORE.INTRA.POLAR.0>
-0.108895

>  <SCORE.INTRA.REPUL>
-0.00912235

>  <SCORE.INTRA.REPUL.0>
0.00912235

>  <SCORE.INTRA.SOLV>
-1.82783

>  <SCORE.INTRA.SOLV.lig_0>
-53.9067

>  <SCORE.INTRA.VDW>
-1.37054

>  <SCORE.INTRA.VDW.0>
-2.93492

>  <SCORE.INTRA.norm>
-0.445182

>  <SCORE.RESTR>
0

>  <SCORE.RESTR.CAVITY>
0

>  <SCORE.RESTR.norm>
0

>  <SCORE.SYSTEM>
0

>  <SCORE.SYSTEM.CONST>
0

>  <SCORE.SYSTEM.DIHEDRAL>
0

>  <SCORE.SYSTEM.SOLV>
0

>  <SCORE.SYSTEM.norm>
0

>  <SCORE.heavy>
37

>  <SCORE.norm>
-1.09683

>  <RMSD>
2.352

$$$$
lig.pdb
 OpenBabel11021811453D
libRbt.so/2013.1/901 2013/11/27
 37 40  0  0  0  0  0  0  0  0999 V2000
   -3.0159    8.8607   10.8426 C   0  0  2  0  0  0  0  0  0  0  0  0
   -2.8064    8.5078   12.3521 C   0  0  1  0  0  0  0  0  0  0  0  0
   -1.3509    8.0667   12.6848 C   0  0  0  0  0  0  0  0  0  0  0  0
   -0.8526    6.9914   11.6876 C   0  0  1  0  0  0  0  0  0  0  0  0
   -0.9816    7.5161   10.2400 C   0  0  1  0  0  0  0  0  0  0  0  0
   -0.4450    6.4756    9.2206 C   0  0  1  0  0  0  0  0  0  0  0  0
    1.0059    6.0397    9.5834 C   0  0  1  0  0  0  0  0  0  0  0  0
    1.1263    5.5937   11.0710 C   0  0  2  0  0  0  0  0  0  0  0  0
    2.9078    4.9742    8.4603 C   0  0  0  0  0  0  0  0  0  0  0  0
   -2.3601    7.8941    9.9590 O   0  0  0  0  0  0  0  0  0  0  0  0
    0.5107    6.5644   11.9724 O   0  0  0  0  0  0  0  0  0  0  0  0
   -3.1781    9.6670   13.1922 N   0  0  0  0  0  0  0  0  0  0  0  0
    1.4412    4.9797    8.6507 N   0  0  0  0  0  0  0  0  0  0  0  0
   -1.3116    5.3525    9.1245 O   0  0  0  0  0  0  0  0  0  0  0  0
    2.5216    5.3577   11.4201 O   0  0  0  0  0  0  0  0  0  0  0  0
   -2.5558   10.2150   10.5483 O   0  0  0  0  0  0  0  0  0  0  0  0
    2.8352    4.9145   12.7762 C   0  0  2  0  0  0  0  0  0  0  0  0
    4.0357    5.7126   13.3598 C   0  0  1  0  0  0  0  0  0  0  0  0
    5.3742    5.3282   12.6665 C   0  0  2  0  0  0  0  0  0  0  0  0
    5.5984    3.7884   12.6927 C   0  0  1  0  0  0  0  0  0  0  0  0
    4.3628    3.0292   12.1339 C   0  0  1  0  0  0  0  0  0  0  0  0
    4.5148    1.4923   12.2791 C   0  0  0  0  0  0  0  0  0  0  0  0
    3.1430    3.4885   12.7916 O   0  0  0  0  0  0  0  0  0  0  0  0
    6.8351    3.4099   11.9745 N   0  0  0  0  0  0  0  0  0  0  0  0
    3.7871    7.1154   13.2879 O   0  0  0  0  0  0  0  0  0  0  0  0
    6.4751    6.0181   13.2542 O   0  0  0  0  0  0  0  0  0  0  0  0
    3.2758    0.8347   12.0348 O   0  0  0  0  0  0  0  0  0  0  0  0
   -2.8457   10.7565    9.2267 C   0  0  1  0  0  0  0  0  0  0  0  0
   -1.9569   10.1120    8.1263 C   0  0  1  0  0  0  0  0  0  0  0  0
   -2.2133   10.7710    6.7417 C   0  0  2  0  0  0  0  0  0  0  0  0
   -3.7259   10.7604    6.3471 C   0  0  1  0  0  0  0  0  0  0  0  0
   -4.6540   11.2775    7.4868 C   0  0  0  0  0  0  0  0  0  0  0  0
   -4.3497   10.6071    8.8604 C   0  0  2  0  0  0  0  0  0  0  0  0
   -3.9487   11.5224    5.0998 N   0  0  0  0  0  0  0  0  0  0  0  0
   -5.2340   11.1875    9.8940 N   0  0  0  0  0  0  0  0  0  0  0  0
   -0.5791   10.1914    8.4769 O   0  0  0  0  0  0  0  0  0  0  0  0
   -1.4310   10.1341    5.7347 O   0  0  0  0  0  0  0  0  0  0  0  0
  1  2  1  0  0  0  0
  1 16  1  1  0  0  0
  2  3  1  0  0  0  0
  2 12  1  1  0  0  0
  4 11  1  1  0  0  0
  4  3  1  0  0  0  0
  5  4  1  0  0  0  0
  5 10  1  6  0  0  0
  6  7  1  0  0  0  0
  6  5  1  0  0  0  0
  6 14  1  1  0  0  0
  7  8  1  0  0  0  0
  7 13  1  6  0  0  0
  8 15  1  1  0  0  0
  8 11  1  0  0  0  0
  9 13  1  0  0  0  0
 10  1  1  0  0  0  0
 17 15  1  6  0  0  0
 17 18  1  0  0  0  0
 18 25  1  6  0  0  0
 19 18  1  0  0  0  0
 19 26  1  1  0  0  0
 20 19  1  0  0  0  0
 20 24  1  6  0  0  0
 21 23  1  0  0  0  0
 21 20  1  0  0  0  0
 21 22  1  1  0  0  0
 23 17  1  0  0  0  0
 27 22  1  0  0  0  0
 28 29  1  0  0  0  0
 28 16  1  1  0  0  0
 29 36  1  1  0  0  0
 30 37  1  6  0  0  0
 30 29  1  0  0  0  0
 31 30  1  0  0  0  0
 31 34  1  6  0  0  0
 32 31  1  0  0  0  0
 32 33  1  0  0  0  0
 33 28  1  0  0  0  0
 33 35  1  1  0  0  0
M  END
>  <CHROM.1>
-161.48822114,-179.27205248,151.78414522,161.79516607,-134.46479535,-172.00349794
-58.38949538,-61.12107327,167.45526608,-50.15356960,76.60520065,-73.32273826
56.82003115,-174.26679833,-175.47438988,172.55111348,0.30219167,7.16155112
10.43246856,2.74159451,0.68325002,-1.53170870

>  <Name>
lig.pdb

>  <RI>
0

>  <Rbt.Current_Directory>
/home/itssahil/PROJECTS/Mol_Feturizer/New_Systems/rnas/2m4q

>  <Rbt.Executable>
rbdock ($Id: //depot/dev/client3/rdock/2013.1/src/exe/rbdock.cxx#4 $)

>  <Rbt.Library>
libRbt.so (2013.1, Build901 2013/11/27)

>  <Rbt.Parameter_File>
/export/apps/rDock/src/rDock_2013.1_src/data/scripts/dock_solv.prm

>  <Rbt.Receptor>
prm/pocket_docking_3.prm

>  <SCORE>
-42.11

>  <SCORE.INTER>
-25.458

>  <SCORE.INTER.CONST>
1

>  <SCORE.INTER.POLAR>
-3.74362

>  <SCORE.INTER.ROT>
10

>  <SCORE.INTER.SOLV>
15.4005

>  <SCORE.INTER.VDW>
-19.8934

>  <SCORE.INTER.norm>
-0.688054

>  <SCORE.INTRA>
-16.7173

>  <SCORE.INTRA.DIHEDRAL>
-31.4431

>  <SCORE.INTRA.DIHEDRAL.0>
44.8331

>  <SCORE.INTRA.POLAR>
0.0922526

>  <SCORE.INTRA.POLAR.0>
-0.108895

>  <SCORE.INTRA.REPUL>
-0.00912235

>  <SCORE.INTRA.REPUL.0>
0.00912235

>  <SCORE.INTRA.SOLV>
-1.7771

>  <SCORE.INTRA.SOLV.lig_0>
-53.9067

>  <SCORE.INTRA.VDW>
-0.375266

>  <SCORE.INTRA.VDW.0>
-2.93492

>  <SCORE.INTRA.norm>
-0.45182

>  <SCORE.RESTR>
0.0652951

>  <SCORE.RESTR.CAVITY>
0.0652951

>  <SCORE.RESTR.norm>
0.00176473

>  <SCORE.SYSTEM>
0

>  <SCORE.SYSTEM.CONST>
0

>  <SCORE.SYSTEM.DIHEDRAL>
0

>  <SCORE.SYSTEM.SOLV>
0

>  <SCORE.SYSTEM.norm>
0

>  <SCORE.heavy>
37

>  <SCORE.norm>
-1.13811

>  <RMSD>
2.376

$$$$
lig.pdb
 OpenBabel11021811453D
libRbt.so/2013.1/901 2013/11/27
 37 40  0  0  0  0  0  0  0  0999 V2000
   -1.4964    6.5801   10.3827 C   0  0  2  0  0  0  0  0  0  0  0  0
   -1.2988    5.5571   11.5496 C   0  0  1  0  0  0  0  0  0  0  0  0
    0.1974    5.2885   11.8858 C   0  0  0  0  0  0  0  0  0  0  0  0
    1.0104    4.9817   10.6037 C   0  0  1  0  0  0  0  0  0  0  0  0
    0.8436    6.1329    9.5867 C   0  0  1  0  0  0  0  0  0  0  0  0
    1.6863    5.8737    8.3090 C   0  0  1  0  0  0  0  0  0  0  0  0
    3.1748    5.5934    8.6728 C   0  0  1  0  0  0  0  0  0  0  0  0
    3.3111    4.4865    9.7602 C   0  0  2  0  0  0  0  0  0  0  0  0
    5.3632    5.5490    7.5670 C   0  0  0  0  0  0  0  0  0  0  0  0
   -0.5655    6.3366    9.2786 O   0  0  0  0  0  0  0  0  0  0  0  0
    2.4169    4.7320   10.8889 O   0  0  0  0  0  0  0  0  0  0  0  0
   -2.0009    6.0378   12.7594 N   0  0  0  0  0  0  0  0  0  0  0  0
    3.9192    5.2550    7.4421 N   0  0  0  0  0  0  0  0  0  0  0  0
    1.1372    4.8157    7.5340 O   0  0  0  0  0  0  0  0  0  0  0  0
    4.6966    4.3710   10.1978 O   0  0  0  0  0  0  0  0  0  0  0  0
   -1.3739    7.9549   10.8596 O   0  0  0  0  0  0  0  0  0  0  0  0
    4.9659    3.8021   11.5161 C   0  0  2  0  0  0  0  0  0  0  0  0
    6.4740    3.9209   11.8769 C   0  0  1  0  0  0  0  0  0  0  0  0
    7.3485    2.9622   11.0190 C   0  0  2  0  0  0  0  0  0  0  0  0
    6.8194    1.5006   11.0943 C   0  0  1  0  0  0  0  0  0  0  0  0
    5.3029    1.4322   10.7610 C   0  0  1  0  0  0  0  0  0  0  0  0
    4.7306    0.0047   10.9642 C   0  0  0  0  0  0  0  0  0  0  0  0
    4.5614    2.4011   11.5626 O   0  0  0  0  0  0  0  0  0  0  0  0
    7.6045    0.5960   10.2261 N   0  0  0  0  0  0  0  0  0  0  0  0
    6.9102    5.2745   11.7672 O   0  0  0  0  0  0  0  0  0  0  0  0
    8.7197    3.0329   11.4041 O   0  0  0  0  0  0  0  0  0  0  0  0
    3.5274    0.0442   11.7245 O   0  0  0  0  0  0  0  0  0  0  0  0
   -2.4400    8.8879   10.5178 C   0  0  1  0  0  0  0  0  0  0  0  0
   -2.5624   10.0374   11.5570 C   0  0  1  0  0  0  0  0  0  0  0  0
   -3.7654   10.9653   11.2270 C   0  0  2  0  0  0  0  0  0  0  0  0
   -3.7149   11.5091    9.7622 C   0  0  1  0  0  0  0  0  0  0  0  0
   -3.4577   10.3907    8.7083 C   0  0  0  0  0  0  0  0  0  0  0  0
   -2.2578    9.4715    9.0879 C   0  0  2  0  0  0  0  0  0  0  0  0
   -4.9443   12.2643    9.4396 N   0  0  0  0  0  0  0  0  0  0  0  0
   -2.1137    8.4100    8.0682 N   0  0  0  0  0  0  0  0  0  0  0  0
   -2.6726    9.5168   12.8777 O   0  0  0  0  0  0  0  0  0  0  0  0
   -3.8321   12.0435   12.1568 O   0  0  0  0  0  0  0  0  0  0  0  0
  1  2  1  0  0  0  0
  1 16  1  1  0  0  0
  2  3  1  0  0  0  0
  2 12  1  1  0  0  0
  4 11  1  1  0  0  0
  4  3  1  0  0  0  0
  5  4  1  0  0  0  0
  5 10  1  6  0  0  0
  6  7  1  0  0  0  0
  6  5  1  0  0  0  0
  6 14  1  1  0  0  0
  7  8  1  0  0  0  0
  7 13  1  6  0  0  0
  8 15  1  1  0  0  0
  8 11  1  0  0  0  0
  9 13  1  0  0  0  0
 10  1  1  0  0  0  0
 17 15  1  6  0  0  0
 17 18  1  0  0  0  0
 18 25  1  6  0  0  0
 19 18  1  0  0  0  0
 19 26  1  1  0  0  0
 20 19  1  0  0  0  0
 20 24  1  6  0  0  0
 21 23  1  0  0  0  0
 21 20  1  0  0  0  0
 21 22  1  1  0  0  0
 23 17  1  0  0  0  0
 27 22  1  0  0  0  0
 28 29  1  0  0  0  0
 28 16  1  1  0  0  0
 29 36  1  1  0  0  0
 30 37  1  1  0  0  0
 30 29  1  0  0  0  0
 31 30  1  0  0  0  0
 31 34  1  6  0  0  0
 32 31  1  0  0  0  0
 32 33  1  0  0  0  0
 33 28  1  0  0  0  0
 33 35  1  6  0  0  0
M  END
>  <CHROM.1>
176.23921669,156.68699543,155.03952840,173.45712402,-173.01139052,-128.86355224
177.09283299,62.56480527,131.63200485,-65.33225569,64.64443739,153.36818692
63.07157099,-63.34555626,-65.81777853,-171.22559807,1.54127924,5.87668941
10.40682909,2.75636400,0.58178648,-0.97237634

>  <Name>
lig.pdb

>  <RI>
0

>  <Rbt.Current_Directory>
/home/itssahil/PROJECTS/Mol_Feturizer/New_Systems/rnas/2m4q

>  <Rbt.Executable>
rbdock ($Id: //depot/dev/client3/rdock/2013.1/src/exe/rbdock.cxx#4 $)

>  <Rbt.Library>
libRbt.so (2013.1, Build901 2013/11/27)

>  <Rbt.Parameter_File>
/export/apps/rDock/src/rDock_2013.1_src/data/scripts/dock_solv.prm

>  <Rbt.Receptor>
prm/pocket_docking_7.prm

>  <SCORE>
-47.4178

>  <SCORE.INTER>
-34.534

>  <SCORE.INTER.CONST>
1

>  <SCORE.INTER.POLAR>
-4.36293

>  <SCORE.INTER.ROT>
10

>  <SCORE.INTER.SOLV>
20.1585

>  <SCORE.INTER.VDW>
-25.4658

>  <SCORE.INTER.norm>
-0.933352

>  <SCORE.INTRA>
-12.8838

>  <SCORE.INTRA.DIHEDRAL>
-25.6407

>  <SCORE.INTRA.DIHEDRAL.0>
44.8331

>  <SCORE.INTRA.POLAR>
0.0795363

>  <SCORE.INTRA.POLAR.0>
-0.108895

>  <SCORE.INTRA.REPUL>
0.115764

>  <SCORE.INTRA.REPUL.0>
0.00912235

>  <SCORE.INTRA.SOLV>
-1.77072

>  <SCORE.INTRA.SOLV.lig_0>
-53.9067

>  <SCORE.INTRA.VDW>
-0.02728

>  <SCORE.INTRA.VDW.0>
-2.93492

>  <SCORE.INTRA.norm>
-0.34821

>  <SCORE.RESTR>
0

>  <SCORE.RESTR.CAVITY>
0

>  <SCORE.RESTR.norm>
0

>  <SCORE.SYSTEM>
0

>  <SCORE.SYSTEM.CONST>
0

>  <SCORE.SYSTEM.DIHEDRAL>
0

>  <SCORE.SYSTEM.SOLV>
0

>  <SCORE.SYSTEM.norm>
0

>  <SCORE.heavy>
37

>  <SCORE.norm>
-1.28156

>  <RMSD>
2.391

$$$$
lig.pdb
 OpenBabel11021811453D
libRbt.so/2013.1/901 2013/11/27
 37 40  0  0  0  0  0  0  0  0999 V2000
   -2.2028    7.5800   10.2976 C   0  0  2  0  0  0  0  0  0  0  0  0
   -2.1749    6.9221   11.7166 C   0  0  1  0  0  0  0  0  0  0  0  0
   -0.7380    6.5786   12.2075 C   0  0  0  0  0  0  0  0  0  0  0  0
    0.0558    5.8155   11.1182 C   0  0  1  0  0  0  0  0  0  0  0  0
    0.0724    6.6346    9.8082 C   0  0  1  0  0  0  0  0  0  0  0  0
    0.9018    5.9142    8.7115 C   0  0  1  0  0  0  0  0  0  0  0  0
    2.3289    5.5685    9.2317 C   0  0  1  0  0  0  0  0  0  0  0  0
    2.2865    4.8157   10.5947 C   0  0  2  0  0  0  0  0  0  0  0  0
    4.5166    4.8918    8.3543 C   0  0  0  0  0  0  0  0  0  0  0  0
   -1.2879    6.9137    9.3679 O   0  0  0  0  0  0  0  0  0  0  0  0
    1.4076    5.4863   11.5496 O   0  0  0  0  0  0  0  0  0  0  0  0
   -2.8332    7.8156   12.6943 N   0  0  0  0  0  0  0  0  0  0  0  0
    3.0491    4.7988    8.1964 N   0  0  0  0  0  0  0  0  0  0  0  0
    0.2317    4.7539    8.2358 O   0  0  0  0  0  0  0  0  0  0  0  0
    3.6323    4.6605   11.1324 O   0  0  0  0  0  0  0  0  0  0  0  0
   -1.9047    9.0076   10.3716 O   0  0  0  0  0  0  0  0  0  0  0  0
    3.7855    4.1301   12.4849 C   0  0  2  0  0  0  0  0  0  0  0  0
    5.2167    4.3995   13.0304 C   0  0  1  0  0  0  0  0  0  0  0  0
    6.2821    3.5258   12.3083 C   0  0  2  0  0  0  0  0  0  0  0  0
    5.8918    2.0197   12.3446 C   0  0  1  0  0  0  0  0  0  0  0  0
    4.4440    1.7998   11.8242 C   0  0  1  0  0  0  0  0  0  0  0  0
    3.9915    0.3243   11.9813 C   0  0  0  0  0  0  0  0  0  0  0  0
    3.5160    2.6965   12.5071 O   0  0  0  0  0  0  0  0  0  0  0  0
    6.8650    1.1909   11.5999 N   0  0  0  0  0  0  0  0  0  0  0  0
    5.5301    5.7887   12.9504 O   0  0  0  0  0  0  0  0  0  0  0  0
    7.5798    3.7340   12.8615 O   0  0  0  0  0  0  0  0  0  0  0  0
    4.3399   -0.1789   13.2669 O   0  0  0  0  0  0  0  0  0  0  0  0
   -2.2040    9.8236    9.2018 C   0  0  1  0  0  0  0  0  0  0  0  0
   -1.6298    9.2029    7.8974 C   0  0  1  0  0  0  0  0  0  0  0  0
   -1.8757   10.1353    6.6778 C   0  0  2  0  0  0  0  0  0  0  0  0
   -3.3807   10.5279    6.5211 C   0  0  1  0  0  0  0  0  0  0  0  0
   -4.0191   11.0280    7.8516 C   0  0  0  0  0  0  0  0  0  0  0  0
   -3.7311   10.0760    9.0514 C   0  0  2  0  0  0  0  0  0  0  0  0
   -3.5535   11.5276    5.4455 N   0  0  0  0  0  0  0  0  0  0  0  0
   -4.3241   10.6460   10.2806 N   0  0  0  0  0  0  0  0  0  0  0  0
   -0.2431    8.9138    8.0416 O   0  0  0  0  0  0  0  0  0  0  0  0
   -1.3916    9.5290    5.4821 O   0  0  0  0  0  0  0  0  0  0  0  0
  1  2  1  0  0  0  0
  1 16  1  1  0  0  0
  2  3  1  0  0  0  0
  2 12  1  1  0  0  0
  4 11  1  1  0  0  0
  4  3  1  0  0  0  0
  5  4  1  0  0  0  0
  5 10  1  6  0  0  0
  6  7  1  0  0  0  0
  6  5  1  0  0  0  0
  6 14  1  1  0  0  0
  7  8  1  0  0  0  0
  7 13  1  6  0  0  0
  8 15  1  1  0  0  0
  8 11  1  0  0  0  0
  9 13  1  0  0  0  0
 10  1  1  0  0  0  0
 17 15  1  6  0  0  0
 17 18  1  0  0  0  0
 18 25  1  6  0  0  0
 19 18  1  0  0  0  0
 19 26  1  1  0  0  0
 20 19  1  0  0  0  0
 20 24  1  6  0  0  0
 21 23  1  0  0  0  0
 21 20  1  0  0  0  0
 21 22  1  1  0  0  0
 23 17  1  0  0  0  0
 27 22  1  0  0  0  0
 28 29  1  0  0  0  0
 28 16  1  1  0  0  0
 29 36  1  1  0  0  0
 30 37  1  6  0  0  0
 30 29  1  0  0  0  0
 31 30  1  0  0  0  0
 31 34  1  6  0  0  0
 32 31  1  0  0  0  0
 32 33  1  0  0  0  0
 33 28  1  0  0  0  0
 33 35  1  1  0  0  0
M  END
>  <CHROM.1>
-50.02246521,172.33653375,157.27239145,58.80018132,-164.26552381,-165.49495468
-177.74955596,175.46812384,45.02731667,171.49123153,-90.85495972,-49.67407372
-60.39478333,56.62694642,177.13682091,155.92723296,1.08190035,6.16625099
10.19587896,2.54085721,0.56400425,-1.16875592

>  <Name>
lig.pdb

>  <RI>
0

>  <Rbt.Current_Directory>
/home/itssahil/PROJECTS/Mol_Feturizer/New_Systems/rnas/2m4q

>  <Rbt.Executable>
rbdock ($Id: //depot/dev/client3/rdock/2013.1/src/exe/rbdock.cxx#4 $)

>  <Rbt.Library>
libRbt.so (2013.1, Build901 2013/11/27)

>  <Rbt.Parameter_File>
/export/apps/rDock/src/rDock_2013.1_src/data/scripts/dock_solv.prm

>  <Rbt.Receptor>
prm/pocket_docking_3.prm

>  <SCORE>
-39.1512

>  <SCORE.INTER>
-24.0004

>  <SCORE.INTER.CONST>
1

>  <SCORE.INTER.POLAR>
-3.0447

>  <SCORE.INTER.ROT>
10

>  <SCORE.INTER.SOLV>
16.2829

>  <SCORE.INTER.VDW>
-21.5456

>  <SCORE.INTER.norm>
-0.648658

>  <SCORE.INTRA>
-16.5205

>  <SCORE.INTRA.DIHEDRAL>
-34.7376

>  <SCORE.INTRA.DIHEDRAL.0>
44.8331

>  <SCORE.INTRA.POLAR>
-0.0205741

>  <SCORE.INTRA.POLAR.0>
-0.108895

>  <SCORE.INTRA.REPUL>
-0.00242386

>  <SCORE.INTRA.REPUL.0>
0.00912235

>  <SCORE.INTRA.SOLV>
-0.792053

>  <SCORE.INTRA.SOLV.lig_0>
-53.9067

>  <SCORE.INTRA.VDW>
1.32638

>  <SCORE.INTRA.VDW.0>
-2.93492

>  <SCORE.INTRA.norm>
-0.4465

>  <SCORE.RESTR>
1.36963

>  <SCORE.RESTR.CAVITY>
1.36963

>  <SCORE.RESTR.norm>
0.037017

>  <SCORE.SYSTEM>
0

>  <SCORE.SYSTEM.CONST>
0

>  <SCORE.SYSTEM.DIHEDRAL>
0

>  <SCORE.SYSTEM.SOLV>
0

>  <SCORE.SYSTEM.norm>
0

>  <SCORE.heavy>
37

>  <SCORE.norm>
-1.05814

>  <RMSD>
2.431

$$$$
lig.pdb
 OpenBabel11021811453D
libRbt.so/2013.1/901 2013/11/27
 37 40  0  0  0  0  0  0  0  0999 V2000
   -2.5648    8.4567   10.8701 C   0  0  2  0  0  0  0  0  0  0  0  0
   -2.4501    8.1001   12.3889 C   0  0  1  0  0  0  0  0  0  0  0  0
   -1.0167    7.6644   12.8122 C   0  0  0  0  0  0  0  0  0  0  0  0
   -0.4511    6.5943   11.8457 C   0  0  1  0  0  0  0  0  0  0  0  0
   -0.4901    7.1229   10.3944 C   0  0  1  0  0  0  0  0  0  0  0  0
    0.1148    6.0878    9.4083 C   0  0  1  0  0  0  0  0  0  0  0  0
    1.5417    5.6571    9.8614 C   0  0  1  0  0  0  0  0  0  0  0  0
    1.5693    5.2071   11.3524 C   0  0  2  0  0  0  0  0  0  0  0  0
    2.9648    5.1378    7.9330 C   0  0  0  0  0  0  0  0  0  0  0  0
   -1.8497    7.4957   10.0273 O   0  0  0  0  0  0  0  0  0  0  0  0
    0.8932    6.1724   12.2155 O   0  0  0  0  0  0  0  0  0  0  0  0
   -2.8797    9.2551   13.2068 N   0  0  0  0  0  0  0  0  0  0  0  0
    2.0403    4.6019    8.9553 N   0  0  0  0  0  0  0  0  0  0  0  0
   -0.7387    4.9613    9.2541 O   0  0  0  0  0  0  0  0  0  0  0  0
    2.9406    4.9761   11.7889 O   0  0  0  0  0  0  0  0  0  0  0  0
   -2.0931    9.8140   10.6094 O   0  0  0  0  0  0  0  0  0  0  0  0
    3.1627    4.3949   13.1105 C   0  0  2  0  0  0  0  0  0  0  0  0
    4.5356    4.8384   13.6909 C   0  0  1  0  0  0  0  0  0  0  0  0
    5.7220    4.1745   12.9349 C   0  0  2  0  0  0  0  0  0  0  0  0
    5.5573    2.6280   12.8788 C   0  0  1  0  0  0  0  0  0  0  0  0
    4.1605    2.2294   12.3262 C   0  0  1  0  0  0  0  0  0  0  0  0
    3.9292    0.6969   12.3915 C   0  0  0  0  0  0  0  0  0  0  0  0
    3.1069    2.9384   13.0464 O   0  0  0  0  0  0  0  0  0  0  0  0
    6.6460    1.9963   12.1015 N   0  0  0  0  0  0  0  0  0  0  0  0
    4.6416    6.2609   13.6955 O   0  0  0  0  0  0  0  0  0  0  0  0
    6.9718    4.5376   13.5175 O   0  0  0  0  0  0  0  0  0  0  0  0
    2.5423    0.3980   12.5120 O   0  0  0  0  0  0  0  0  0  0  0  0
   -2.3454   10.3768    9.2890 C   0  0  1  0  0  0  0  0  0  0  0  0
   -1.6846    9.5348    8.1618 C   0  0  1  0  0  0  0  0  0  0  0  0
   -1.8835   10.2040    6.7727 C   0  0  2  0  0  0  0  0  0  0  0  0
   -3.3862   10.5072    6.4665 C   0  0  1  0  0  0  0  0  0  0  0  0
   -4.1099   11.2338    7.6396 C   0  0  0  0  0  0  0  0  0  0  0  0
   -3.8673   10.5431    9.0154 C   0  0  2  0  0  0  0  0  0  0  0  0
   -3.5219   11.2727    5.2089 N   0  0  0  0  0  0  0  0  0  0  0  0
   -4.5416   11.3201   10.0778 N   0  0  0  0  0  0  0  0  0  0  0  0
   -0.3016    9.3266    8.4295 O   0  0  0  0  0  0  0  0  0  0  0  0
   -1.3190    9.3941    5.7445 O   0  0  0  0  0  0  0  0  0  0  0  0
  1  2  1  0  0  0  0
  1 16  1  1  0  0  0
  2  3  1  0  0  0  0
  2 12  1  1  0  0  0
  4 11  1  1  0  0  0
  4  3  1  0  0  0  0
  5  4  1  0  0  0  0
  5 10  1  6  0  0  0
  6  7  1  0  0  0  0
  6  5  1  0  0  0  0
  6 14  1  1  0  0  0
  7  8  1  0  0  0  0
  7 13  1  6  0  0  0
  8 15  1  1  0  0  0
  8 11  1  0  0  0  0
  9 13  1  0  0  0  0
 10  1  1  0  0  0  0
 17 15  1  6  0  0  0
 17 18  1  0  0  0  0
 18 25  1  6  0  0  0
 19 18  1  0  0  0  0
 19 26  1  1  0  0  0
 20 19  1  0  0  0  0
 20 24  1  6  0  0  0
 21 23  1  0  0  0  0
 21 20  1  0  0  0  0
 21 22  1  1  0  0  0
 23 17  1  0  0  0  0
 27 22  1  0  0  0  0
 28 29  1  0  0  0  0
 28 16  1  1  0  0  0
 29 36  1  1  0  0  0
 30 37  1  6  0  0  0
 30 29  1  0  0  0  0
 31 30  1  0  0  0  0
 31 34  1  6  0  0  0
 32 31  1  0  0  0  0
 32 33  1  0  0  0  0
 33 28  1  0  0  0  0
 33 35  1  1  0  0  0
M  END
>  <CHROM.1>
-171.02955780,-172.82017386,99.72880717,155.50848987,-152.25851017,-169.74686707
-178.18933332,-177.91968632,152.12317527,-172.35463435,155.85373750,-60.00357499
-178.18518234,69.16489728,-51.55753804,-56.69375314,0.61556906,6.62414550
10.59000705,2.70194511,0.73003847,-1.50151973

>  <Name>
lig.pdb

>  <RI>
2.86754e+07

>  <Rbt.Current_Directory>
/home/itssahil/PROJECTS/Mol_Feturizer/New_Systems/rnas/2m4q

>  <Rbt.Executable>
rbdock ($Id: //depot/dev/client3/rdock/2013.1/src/exe/rbdock.cxx#4 $)

>  <Rbt.Library>
libRbt.so (2013.1, Build901 2013/11/27)

>  <Rbt.Parameter_File>
/export/apps/rDock/src/rDock_2013.1_src/data/scripts/dock_solv.prm

>  <Rbt.Receptor>
prm/pocket_docking_5.prm

>  <SCORE>
-41.017

>  <SCORE.INTER>
-25.4475

>  <SCORE.INTER.CONST>
1

>  <SCORE.INTER.POLAR>
-3.5665

>  <SCORE.INTER.ROT>
10

>  <SCORE.INTER.SOLV>
15.588

>  <SCORE.INTER.VDW>
-20.5394

>  <SCORE.INTER.norm>
-0.687771

>  <SCORE.INTRA>
-15.5695

>  <SCORE.INTRA.DIHEDRAL>
-30.1171

>  <SCORE.INTRA.DIHEDRAL.0>
44.8331

>  <SCORE.INTRA.POLAR>
0.0789474

>  <SCORE.INTRA.POLAR.0>
-0.108895

>  <SCORE.INTRA.REPUL>
0.0155347

>  <SCORE.INTRA.REPUL.0>
0.00912235

>  <SCORE.INTRA.SOLV>
-1.48558

>  <SCORE.INTRA.SOLV.lig_0>
-53.9067

>  <SCORE.INTRA.VDW>
-0.114261

>  <SCORE.INTRA.VDW.0>
-2.93492

>  <SCORE.INTRA.norm>
-0.420797

>  <SCORE.RESTR>
0

>  <SCORE.RESTR.CAVITY>
0

>  <SCORE.RESTR.norm>
0

>  <SCORE.SYSTEM>
0

>  <SCORE.SYSTEM.CONST>
0

>  <SCORE.SYSTEM.DIHEDRAL>
0

>  <SCORE.SYSTEM.SOLV>
0

>  <SCORE.SYSTEM.norm>
0

>  <SCORE.heavy>
37

>  <SCORE.norm>
-1.10857

>  <RMSD>
2.457

$$$$
lig.pdb
 OpenBabel11021811453D
libRbt.so/2013.1/901 2013/11/27
 37 40  0  0  0  0  0  0  0  0999 V2000
   -1.8509    7.8832    8.8780 C   0  0  2  0  0  0  0  0  0  0  0  0
   -2.2985    7.0957   10.1534 C   0  0  1  0  0  0  0  0  0  0  0  0
   -1.1072    6.6514   11.0519 C   0  0  0  0  0  0  0  0  0  0  0  0
   -0.0030    5.9619   10.2128 C   0  0  1  0  0  0  0  0  0  0  0  0
    0.4516    6.8979    9.0705 C   0  0  1  0  0  0  0  0  0  0  0  0
    1.5923    6.2502    8.2405 C   0  0  1  0  0  0  0  0  0  0  0  0
    2.7646    5.8013    9.1630 C   0  0  1  0  0  0  0  0  0  0  0  0
    2.2686    4.9274   10.3531 C   0  0  2  0  0  0  0  0  0  0  0  0
    5.1272    5.1767    8.9587 C   0  0  0  0  0  0  0  0  0  0  0  0
   -0.6845    7.2704    8.2383 O   0  0  0  0  0  0  0  0  0  0  0  0
    1.1279    5.5407   11.0287 O   0  0  0  0  0  0  0  0  0  0  0  0
   -3.2372    7.9198   10.9454 N   0  0  0  0  0  0  0  0  0  0  0  0
    3.7816    5.1032    8.3497 N   0  0  0  0  0  0  0  0  0  0  0  0
    1.1095    5.1666    7.4566 O   0  0  0  0  0  0  0  0  0  0  0  0
    3.3597    4.6697   11.2846 O   0  0  0  0  0  0  0  0  0  0  0  0
   -1.5845    9.2848    9.1894 O   0  0  0  0  0  0  0  0  0  0  0  0
    3.0937    3.8398   12.4569 C   0  0  2  0  0  0  0  0  0  0  0  0
    4.0193    4.2363   13.6421 C   0  0  1  0  0  0  0  0  0  0  0  0
    5.4958    3.8200   13.3838 C   0  0  2  0  0  0  0  0  0  0  0  0
    5.5975    2.3123   13.0119 C   0  0  1  0  0  0  0  0  0  0  0  0
    4.6323    1.9523   11.8482 C   0  0  1  0  0  0  0  0  0  0  0  0
    4.6215    0.4287   11.5568 C   0  0  0  0  0  0  0  0  0  0  0  0
    3.2834    2.4284   12.1400 O   0  0  0  0  0  0  0  0  0  0  0  0
    6.9904    1.9258   12.6974 N   0  0  0  0  0  0  0  0  0  0  0  0
    3.9046    5.6301   13.9227 O   0  0  0  0  0  0  0  0  0  0  0  0
    6.3217    4.1299   14.5041 O   0  0  0  0  0  0  0  0  0  0  0  0
    3.3932   -0.1587   11.9733 O   0  0  0  0  0  0  0  0  0  0  0  0
   -1.8792   10.2748    8.1614 C   0  0  1  0  0  0  0  0  0  0  0  0
   -1.1083    9.9904    6.8419 C   0  0  1  0  0  0  0  0  0  0  0  0
   -1.3611   11.1097    5.7929 C   0  0  2  0  0  0  0  0  0  0  0  0
   -2.8837   11.3529    5.5354 C   0  0  1  0  0  0  0  0  0  0  0  0
   -3.7045   11.5075    6.8508 C   0  0  0  0  0  0  0  0  0  0  0  0
   -3.4056   10.3778    7.8820 C   0  0  2  0  0  0  0  0  0  0  0  0
   -3.0868   12.5177    4.6477 N   0  0  0  0  0  0  0  0  0  0  0  0
   -4.1814   10.6254    9.1165 N   0  0  0  0  0  0  0  0  0  0  0  0
    0.2851    9.8371    7.0921 O   0  0  0  0  0  0  0  0  0  0  0  0
   -0.6911   10.8078    4.5715 O   0  0  0  0  0  0  0  0  0  0  0  0
  1  2  1  0  0  0  0
  1 16  1  1  0  0  0
  2  3  1  0  0  0  0
  2 12  1  1  0  0  0
  4 11  1  1  0  0  0
  4  3  1  0  0  0  0
  5  4  1  0  0  0  0
  5 10  1  6  0  0  0
  6  7  1  0  0  0  0
  6  5  1  0  0  0  0
  6 14  1  1  0  0  0
  7  8  1  0  0  0  0
  7 13  1  6  0  0  0
  8 15  1  1  0  0  0
  8 11  1  0  0  0  0
  9 13  1  0  0  0  0
 10  1  1  0  0  0  0
 17 15  1  6  0  0  0
 17 18  1  0  0  0  0
 18 25  1  6  0  0  0
 19 18  1  0  0  0  0
 19 26  1  1  0  0  0
 20 19  1  0  0  0  0
 20 24  1  6  0  0  0
 21 23  1  0  0  0  0
 21 20  1  0  0  0  0
 21 22  1  1  0  0  0
 23 17  1  0  0  0  0
 27 22  1  0  0  0  0
 28 29  1  0  0  0  0
 28 16  1  1  0  0  0
 29 36  1  1  0  0  0
 30 37  1  6  0  0  0
 30 29  1  0  0  0  0
 31 30  1  0  0  0  0
 31 34  1  6  0  0  0
 32 31  1  0  0  0  0
 32 33  1  0  0  0  0
 33 28  1  0  0  0  0
 33 35  1  1  0  0  0
M  END
>  <CHROM.1>
177.93340430,-178.77175173,154.62912620,163.31320298,-150.83574828,-146.85718482
66.06196073,64.07939298,108.81159638,-48.40046894,72.67727244,-57.59411068
-178.74175251,64.43484156,-177.46290364,52.30512636,1.11492884,6.48002191
9.74310655,2.34450980,0.52845810,-1.07918607

>  <Name>
lig.pdb

>  <RI>
3.87352e+07

>  <Rbt.Current_Directory>
/home/itssahil/PROJECTS/Mol_Feturizer/New_Systems/rnas/2m4q

>  <Rbt.Executable>
rbdock ($Id: //depot/dev/client3/rdock/2013.1/src/exe/rbdock.cxx#4 $)

>  <Rbt.Library>
libRbt.so (2013.1, Build901 2013/11/27)

>  <Rbt.Parameter_File>
/export/apps/rDock/src/rDock_2013.1_src/data/scripts/dock_solv.prm

>  <Rbt.Receptor>
prm/pocket_docking_4.prm

>  <SCORE>
-47.8557

>  <SCORE.INTER>
-32.2587

>  <SCORE.INTER.CONST>
1

>  <SCORE.INTER.POLAR>
-5.08443

>  <SCORE.INTER.ROT>
10

>  <SCORE.INTER.SOLV>
15.5061

>  <SCORE.INTER.VDW>
-19.9931

>  <SCORE.INTER.norm>
-0.871857

>  <SCORE.INTRA>
-15.6038

>  <SCORE.INTRA.DIHEDRAL>
-28.3072

>  <SCORE.INTRA.DIHEDRAL.0>
44.8331

>  <SCORE.INTRA.POLAR>
-0.276019

>  <SCORE.INTRA.POLAR.0>
-0.108895

>  <SCORE.INTRA.REPUL>
-0.00912235

>  <SCORE.INTRA.REPUL.0>
0.00912235

>  <SCORE.INTRA.SOLV>
-0.848758

>  <SCORE.INTRA.SOLV.lig_0>
-53.9067

>  <SCORE.INTRA.VDW>
-0.0417506

>  <SCORE.INTRA.VDW.0>
-2.93492

>  <SCORE.INTRA.norm>
-0.421724

>  <SCORE.RESTR>
0.00682305

>  <SCORE.RESTR.CAVITY>
0.00682305

>  <SCORE.RESTR.norm>
0.000184407

>  <SCORE.SYSTEM>
0

>  <SCORE.SYSTEM.CONST>
0

>  <SCORE.SYSTEM.DIHEDRAL>
0

>  <SCORE.SYSTEM.SOLV>
0

>  <SCORE.SYSTEM.norm>
0

>  <SCORE.heavy>
37

>  <SCORE.norm>
-1.2934

>  <RMSD>
2.469

$$$$
lig.pdb
 OpenBabel11021811453D
libRbt.so/2013.1/901 2013/11/27
 37 40  0  0  0  0  0  0  0  0999 V2000
   -1.6771    6.6942   10.3209 C   0  0  2  0  0  0  0  0  0  0  0  0
   -1.4111    5.8455   11.6078 C   0  0  1  0  0  0  0  0  0  0  0  0
    0.1025    5.6666   11.9251 C   0  0  0  0  0  0  0  0  0  0  0  0
    0.8853    5.2106   10.6688 C   0  0  1  0  0  0  0  0  0  0  0  0
    0.6506    6.2075    9.5119 C   0  0  1  0  0  0  0  0  0  0  0  0
    1.4616    5.8000    8.2526 C   0  0  1  0  0  0  0  0  0  0  0  0
    2.9688    5.6130    8.5990 C   0  0  1  0  0  0  0  0  0  0  0  0
    3.1737    4.6688    9.8208 C   0  0  2  0  0  0  0  0  0  0  0  0
    4.3025    3.8043    7.6172 C   0  0  0  0  0  0  0  0  0  0  0  0
   -0.7731    6.3283    9.2282 O   0  0  0  0  0  0  0  0  0  0  0  0
    2.3072    5.0409   10.9363 O   0  0  0  0  0  0  0  0  0  0  0  0
   -2.0909    6.4669   12.7651 N   0  0  0  0  0  0  0  0  0  0  0  0
    3.6856    5.1308    7.4003 N   0  0  0  0  0  0  0  0  0  0  0  0
    0.9232    4.6315    7.6473 O   0  0  0  0  0  0  0  0  0  0  0  0
    4.5750    4.6521   10.2216 O   0  0  0  0  0  0  0  0  0  0  0  0
   -1.5841    8.1240   10.6029 O   0  0  0  0  0  0  0  0  0  0  0  0
    4.9538    3.8751   11.3992 C   0  0  2  0  0  0  0  0  0  0  0  0
    6.4108    4.1993   11.8358 C   0  0  1  0  0  0  0  0  0  0  0  0
    7.4530    3.6327   10.8295 C   0  0  2  0  0  0  0  0  0  0  0  0
    7.2191    2.1156   10.5731 C   0  0  1  0  0  0  0  0  0  0  0  0
    5.7441    1.8322   10.1736 C   0  0  1  0  0  0  0  0  0  0  0  0
    5.4616    0.3121   10.0476 C   0  0  0  0  0  0  0  0  0  0  0  0
    4.8302    2.4462   11.1324 O   0  0  0  0  0  0  0  0  0  0  0  0
    8.1630    1.5859    9.5646 N   0  0  0  0  0  0  0  0  0  0  0  0
    6.5745    5.6026   12.0321 O   0  0  0  0  0  0  0  0  0  0  0  0
    8.7852    3.8794   11.2742 O   0  0  0  0  0  0  0  0  0  0  0  0
    4.4996   -0.1065   11.0103 O   0  0  0  0  0  0  0  0  0  0  0  0
   -1.2929    9.0166    9.4883 C   0  0  1  0  0  0  0  0  0  0  0  0
   -2.4434   10.0322    9.2406 C   0  0  1  0  0  0  0  0  0  0  0  0
   -2.1566   10.9094    7.9895 C   0  0  2  0  0  0  0  0  0  0  0  0
   -0.7639   11.6156    8.0628 C   0  0  1  0  0  0  0  0  0  0  0  0
    0.3911   10.6415    8.4432 C   0  0  0  0  0  0  0  0  0  0  0  0
    0.0543    9.7672    9.6886 C   0  0  2  0  0  0  0  0  0  0  0  0
   -0.4644   12.3190    6.7972 N   0  0  0  0  0  0  0  0  0  0  0  0
    1.1748    8.8381    9.9508 N   0  0  0  0  0  0  0  0  0  0  0  0
   -3.6927    9.3611    9.1123 O   0  0  0  0  0  0  0  0  0  0  0  0
   -3.1936   11.8702    7.8069 O   0  0  0  0  0  0  0  0  0  0  0  0
  1  2  1  0  0  0  0
  1 16  1  1  0  0  0
  2  3  1  0  0  0  0
  2 12  1  1  0  0  0
  4 11  1  1  0  0  0
  4  3  1  0  0  0  0
  5  4  1  0  0  0  0
  5 10  1  6  0  0  0
  6  7  1  0  0  0  0
  6  5  1  0  0  0  0
  6 14  1  1  0  0  0
  7  8  1  0  0  0  0
  7 13  1  6  0  0  0
  8 15  1  1  0  0  0
  8 11  1  0  0  0  0
  9 13  1  0  0  0  0
 10  1  1  0  0  0  0
 17 15  1  6  0  0  0
 17 18  1  0  0  0  0
 18 25  1  6  0  0  0
 19 18  1  0  0  0  0
 19 26  1  1  0  0  0
 20 19  1  0  0  0  0
 20 24  1  6  0  0  0
 21 23  1  0  0  0  0
 21 20  1  0  0  0  0
 21 22  1  1  0  0  0
 23 17  1  0  0  0  0
 27 22  1  0  0  0  0
 28 29  1  0  0  0  0
 28 16  1  1  0  0  0
 29 36  1  6  0  0  0
 30 37  1  1  0  0  0
 30 29  1  0  0  0  0
 31 30  1  0  0  0  0
 31 34  1  6  0  0  0
 32 31  1  0  0  0  0
 32 33  1  0  0  0  0
 33 28  1  0  0  0  0
 33 35  1  6  0  0  0
M  END
>  <CHROM.1>
63.64865913,176.81188822,-118.70967737,52.37337880,-168.68457304,156.92341708
58.99969620,-61.36159235,116.60457874,-139.86614108,62.49616489,118.18857621
173.77654826,-64.97723384,68.06976232,-68.35216188,2.03759169,6.03612956
9.82209757,2.41995403,0.21204273,-0.45306329

>  <Name>
lig.pdb

>  <RI>
3.87352e+07

>  <Rbt.Current_Directory>
/home/itssahil/PROJECTS/Mol_Feturizer/New_Systems/rnas/2m4q

>  <Rbt.Executable>
rbdock ($Id: //depot/dev/client3/rdock/2013.1/src/exe/rbdock.cxx#4 $)

>  <Rbt.Library>
libRbt.so (2013.1, Build901 2013/11/27)

>  <Rbt.Parameter_File>
/export/apps/rDock/src/rDock_2013.1_src/data/scripts/dock_solv.prm

>  <Rbt.Receptor>
prm/pocket_docking_4.prm

>  <SCORE>
-33.2841

>  <SCORE.INTER>
-29.1203

>  <SCORE.INTER.CONST>
1

>  <SCORE.INTER.POLAR>
-4.41218

>  <SCORE.INTER.ROT>
10

>  <SCORE.INTER.SOLV>
17.758

>  <SCORE.INTER.VDW>
-20.8923

>  <SCORE.INTER.norm>
-0.787036

>  <SCORE.INTRA>
-4.23202

>  <SCORE.INTRA.DIHEDRAL>
-24.0306

>  <SCORE.INTRA.DIHEDRAL.0>
44.8331

>  <SCORE.INTRA.POLAR>
0.0232211

>  <SCORE.INTRA.POLAR.0>
-0.108895

>  <SCORE.INTRA.REPUL>
-0.00912235

>  <SCORE.INTRA.REPUL.0>
0.00912235

>  <SCORE.INTRA.SOLV>
-0.986112

>  <SCORE.INTRA.SOLV.lig_0>
-53.9067

>  <SCORE.INTRA.VDW>
8.24298

>  <SCORE.INTRA.VDW.0>
-2.93492

>  <SCORE.INTRA.norm>
-0.114379

>  <SCORE.RESTR>
0.0682758

>  <SCORE.RESTR.CAVITY>
0.0682758

>  <SCORE.RESTR.norm>
0.00184529

>  <SCORE.SYSTEM>
0

>  <SCORE.SYSTEM.CONST>
0

>  <SCORE.SYSTEM.DIHEDRAL>
0

>  <SCORE.SYSTEM.SOLV>
0

>  <SCORE.SYSTEM.norm>
0

>  <SCORE.heavy>
37

>  <SCORE.norm>
-0.899569

>  <RMSD>
2.473

$$$$
lig.pdb
 OpenBabel11021811453D
libRbt.so/2013.1/901 2013/11/27
 37 40  0  0  0  0  0  0  0  0999 V2000
   -1.4701    6.4993   11.0077 C   0  0  2  0  0  0  0  0  0  0  0  0
   -1.4374    5.4125   12.1324 C   0  0  1  0  0  0  0  0  0  0  0  0
   -0.0326    5.2397   12.7806 C   0  0  0  0  0  0  0  0  0  0  0  0
    1.0663    5.0932   11.6989 C   0  0  1  0  0  0  0  0  0  0  0  0
    1.0188    6.2990   10.7339 C   0  0  1  0  0  0  0  0  0  0  0  0
    2.1410    6.2018    9.6657 C   0  0  1  0  0  0  0  0  0  0  0  0
    3.5335    6.0147   10.3384 C   0  0  1  0  0  0  0  0  0  0  0  0
    3.5318    4.8455   11.3676 C   0  0  2  0  0  0  0  0  0  0  0  0
    5.9102    6.1938    9.7616 C   0  0  0  0  0  0  0  0  0  0  0  0
   -0.3016    6.4121   10.1290 O   0  0  0  0  0  0  0  0  0  0  0  0
    2.3934    4.9358   12.2785 O   0  0  0  0  0  0  0  0  0  0  0  0
   -2.4290    5.7459   13.1779 N   0  0  0  0  0  0  0  0  0  0  0  0
    4.5574    5.8276    9.2897 N   0  0  0  0  0  0  0  0  0  0  0  0
    1.8763    5.1631    8.7316 O   0  0  0  0  0  0  0  0  0  0  0  0
    4.7927    4.8086   12.0979 O   0  0  0  0  0  0  0  0  0  0  0  0
   -1.5842    7.8409   11.5731 O   0  0  0  0  0  0  0  0  0  0  0  0
    4.8516    4.0565   13.3488 C   0  0  2  0  0  0  0  0  0  0  0  0
    6.3137    3.9536   13.8689 C   0  0  1  0  0  0  0  0  0  0  0  0
    7.1755    3.0105   12.9813 C   0  0  2  0  0  0  0  0  0  0  0  0
    6.4931    1.6225   12.8091 C   0  0  1  0  0  0  0  0  0  0  0  0
    5.0249    1.7726   12.3220 C   0  0  1  0  0  0  0  0  0  0  0  0
    4.2890    0.4078   12.2762 C   0  0  0  0  0  0  0  0  0  0  0  0
    4.3019    2.7172   13.1685 O   0  0  0  0  0  0  0  0  0  0  0  0
    7.2733    0.7444   11.9098 N   0  0  0  0  0  0  0  0  0  0  0  0
    6.8970    5.2502   13.9837 O   0  0  0  0  0  0  0  0  0  0  0  0
    8.4945    2.8733   13.5054 O   0  0  0  0  0  0  0  0  0  0  0  0
    2.8821    0.5939   12.1602 O   0  0  0  0  0  0  0  0  0  0  0  0
   -2.5214    8.7632   10.9447 C   0  0  1  0  0  0  0  0  0  0  0  0
   -2.5783   10.1288   11.6851 C   0  0  1  0  0  0  0  0  0  0  0  0
   -3.6526   11.0616   11.0583 C   0  0  2  0  0  0  0  0  0  0  0  0
   -3.4588   11.2435    9.5177 C   0  0  1  0  0  0  0  0  0  0  0  0
   -3.2638    9.8921    8.7670 C   0  0  0  0  0  0  0  0  0  0  0  0
   -2.1946    8.9796    9.4398 C   0  0  2  0  0  0  0  0  0  0  0  0
   -4.5785   12.0133    8.9348 N   0  0  0  0  0  0  0  0  0  0  0  0
   -2.1077    7.7017    8.7003 N   0  0  0  0  0  0  0  0  0  0  0  0
   -2.8205    9.9415   13.0758 O   0  0  0  0  0  0  0  0  0  0  0  0
   -3.6557   12.3277   11.7130 O   0  0  0  0  0  0  0  0  0  0  0  0
  1  2  1  0  0  0  0
  1 16  1  1  0  0  0
  2  3  1  0  0  0  0
  2 12  1  1  0  0  0
  4 11  1  1  0  0  0
  4  3  1  0  0  0  0
  5  4  1  0  0  0  0
  5 10  1  6  0  0  0
  6  7  1  0  0  0  0
  6  5  1  0  0  0  0
  6 14  1  6  0  0  0
  7  8  1  0  0  0  0
  7 13  1  6  0  0  0
  8 15  1  1  0  0  0
  8 11  1  0  0  0  0
  9 13  1  0  0  0  0
 10  1  1  0  0  0  0
 17 15  1  6  0  0  0
 17 18  1  0  0  0  0
 18 25  1  6  0  0  0
 19 18  1  0  0  0  0
 19 26  1  1  0  0  0
 20 19  1  0  0  0  0
 20 24  1  6  0  0  0
 21 23  1  0  0  0  0
 21 20  1  0  0  0  0
 21 22  1  1  0  0  0
 23 17  1  0  0  0  0
 27 22  1  0  0  0  0
 28 29  1  0  0  0  0
 28 16  1  1  0  0  0
 29 36  1  1  0  0  0
 30 37  1  1  0  0  0
 30 29  1  0  0  0  0
 31 30  1  0  0  0  0
 31 34  1  6  0  0  0
 32 31  1  0  0  0  0
 32 33  1  0  0  0  0
 33 28  1  0  0  0  0
 33 35  1  6  0  0  0
M  END
>  <CHROM.1>
70.90253694,162.55120927,156.45183804,-58.19023162,171.50604104,-136.12453133
-54.36635161,66.24828107,165.32849477,169.67719303,167.71450578,177.69971448
53.80904228,61.09808084,172.58071245,-152.68952345,1.55223565,5.97756750
11.43944828,2.46082937,0.12853113,-0.42710817

>  <Name>
lig.pdb

>  <RI>
3.87352e+07

>  <Rbt.Current_Directory>
/home/itssahil/PROJECTS/Mol_Feturizer/New_Systems/rnas/2m4q

>  <Rbt.Executable>
rbdock ($Id: //depot/dev/client3/rdock/2013.1/src/exe/rbdock.cxx#4 $)

>  <Rbt.Library>
libRbt.so (2013.1, Build901 2013/11/27)

>  <Rbt.Parameter_File>
/export/apps/rDock/src/rDock_2013.1_src/data/scripts/dock_solv.prm

>  <Rbt.Receptor>
prm/pocket_docking_4.prm

>  <SCORE>
-40.6734

>  <SCORE.INTER>
-25.8551

>  <SCORE.INTER.CONST>
1

>  <SCORE.INTER.POLAR>
-4.69158

>  <SCORE.INTER.ROT>
10

>  <SCORE.INTER.SOLV>
14.5837

>  <SCORE.INTER.VDW>
-16.7261

>  <SCORE.INTER.norm>
-0.698787

>  <SCORE.INTRA>
-14.8183

>  <SCORE.INTRA.DIHEDRAL>
-32.1172

>  <SCORE.INTRA.DIHEDRAL.0>
44.8331

>  <SCORE.INTRA.POLAR>
-0.0464461

>  <SCORE.INTRA.POLAR.0>
-0.108895

>  <SCORE.INTRA.REPUL>
0.242948

>  <SCORE.INTRA.REPUL.0>
0.00912235

>  <SCORE.INTRA.SOLV>
-2.16019

>  <SCORE.INTRA.SOLV.lig_0>
-53.9067

>  <SCORE.INTRA.VDW>
1.2636

>  <SCORE.INTRA.VDW.0>
-2.93492

>  <SCORE.INTRA.norm>
-0.400494

>  <SCORE.RESTR>
0

>  <SCORE.RESTR.CAVITY>
0

>  <SCORE.RESTR.norm>
0

>  <SCORE.SYSTEM>
0

>  <SCORE.SYSTEM.CONST>
0

>  <SCORE.SYSTEM.DIHEDRAL>
0

>  <SCORE.SYSTEM.SOLV>
0

>  <SCORE.SYSTEM.norm>
0

>  <SCORE.heavy>
37

>  <SCORE.norm>
-1.09928

>  <RMSD>
2.489

$$$$
lig.pdb
 OpenBabel11021811453D
libRbt.so/2013.1/901 2013/11/27
 37 40  0  0  0  0  0  0  0  0999 V2000
   -2.3897    8.4890   10.5759 C   0  0  2  0  0  0  0  0  0  0  0  0
   -2.2814    8.2790   12.1223 C   0  0  1  0  0  0  0  0  0  0  0  0
   -0.8599    7.8459   12.5866 C   0  0  0  0  0  0  0  0  0  0  0  0
   -0.3273    6.6711   11.7292 C   0  0  1  0  0  0  0  0  0  0  0  0
   -0.3549    7.0566   10.2332 C   0  0  1  0  0  0  0  0  0  0  0  0
    0.2180    5.9135    9.3530 C   0  0  1  0  0  0  0  0  0  0  0  0
    1.6332    5.4886    9.8464 C   0  0  1  0  0  0  0  0  0  0  0  0
    1.6517    5.1855   11.3741 C   0  0  2  0  0  0  0  0  0  0  0  0
    2.8499    4.7598    7.8458 C   0  0  0  0  0  0  0  0  0  0  0  0
   -1.7042    7.4304    9.8311 O   0  0  0  0  0  0  0  0  0  0  0  0
    1.0054    6.2491   12.1388 O   0  0  0  0  0  0  0  0  0  0  0  0
   -2.6761    9.5200   12.8236 N   0  0  0  0  0  0  0  0  0  0  0  0
    2.0994    4.3363    9.0477 N   0  0  0  0  0  0  0  0  0  0  0  0
   -0.6675    4.8020    9.3091 O   0  0  0  0  0  0  0  0  0  0  0  0
    3.0170    4.9591   11.8315 O   0  0  0  0  0  0  0  0  0  0  0  0
   -1.8803    9.8003   10.1843 O   0  0  0  0  0  0  0  0  0  0  0  0
    3.2204    4.3527   13.1448 C   0  0  2  0  0  0  0  0  0  0  0  0
    4.6075    4.7428   13.7300 C   0  0  1  0  0  0  0  0  0  0  0  0
    5.7710    4.0506   12.9637 C   0  0  2  0  0  0  0  0  0  0  0  0
    5.5555    2.5113   12.8864 C   0  0  1  0  0  0  0  0  0  0  0  0
    4.1460    2.1666   12.3296 C   0  0  1  0  0  0  0  0  0  0  0  0
    3.8644    0.6417   12.3741 C   0  0  0  0  0  0  0  0  0  0  0  0
    3.1168    2.8999   13.0605 O   0  0  0  0  0  0  0  0  0  0  0  0
    6.6224    1.8549   12.0994 N   0  0  0  0  0  0  0  0  0  0  0  0
    4.7603    6.1607   13.7541 O   0  0  0  0  0  0  0  0  0  0  0  0
    7.0324    4.3643   13.5501 O   0  0  0  0  0  0  0  0  0  0  0  0
    4.4343   -0.0124   11.2450 O   0  0  0  0  0  0  0  0  0  0  0  0
   -2.0330   10.1976    8.7905 C   0  0  1  0  0  0  0  0  0  0  0  0
   -1.2005    9.2978    7.8347 C   0  0  1  0  0  0  0  0  0  0  0  0
   -1.3006    9.7976    6.3659 C   0  0  2  0  0  0  0  0  0  0  0  0
   -2.7810    9.9428    5.8849 C   0  0  1  0  0  0  0  0  0  0  0  0
   -3.6724   10.7280    6.8932 C   0  0  0  0  0  0  0  0  0  0  0  0
   -3.5260   10.2091    8.3554 C   0  0  2  0  0  0  0  0  0  0  0  0
   -2.8388   10.5571    4.5413 N   0  0  0  0  0  0  0  0  0  0  0  0
   -4.3606   11.0365    9.2534 N   0  0  0  0  0  0  0  0  0  0  0  0
    0.1583    9.2329    8.2553 O   0  0  0  0  0  0  0  0  0  0  0  0
   -0.5763    8.9322    5.4951 O   0  0  0  0  0  0  0  0  0  0  0  0
  1  2  1  0  0  0  0
  1 16  1  1  0  0  0
  2  3  1  0  0  0  0
  2 12  1  1  0  0  0
  4 11  1  1  0  0  0
  4  3  1  0  0  0  0
  5  4  1  0  0  0  0
  5 10  1  6  0  0  0
  6  7  1  0  0  0  0
  6  5  1  0  0  0  0
  6 14  1  1  0  0  0
  7  8  1  0  0  0  0
  7 13  1  6  0  0  0
  8 15  1  1  0  0  0
  8 11  1  0  0  0  0
  9 13  1  0  0  0  0
 10  1  1  0  0  0  0
 17 15  1  6  0  0  0
 17 18  1  0  0  0  0
 18 25  1  6  0  0  0
 19 18  1  0  0  0  0
 19 26  1  1  0  0  0
 20 19  1  0  0  0  0
 20 24  1  6  0  0  0
 21 23  1  0  0  0  0
 21 20  1  0  0  0  0
 21 22  1  1  0  0  0
 23 17  1  0  0  0  0
 27 22  1  0  0  0  0
 28 29  1  0  0  0  0
 28 16  1  1  0  0  0
 29 36  1  1  0  0  0
 30 37  1  6  0  0  0
 30 29  1  0  0  0  0
 31 30  1  0  0  0  0
 31 34  1  6  0  0  0
 32 31  1  0  0  0  0
 32 33  1  0  0  0  0
 33 28  1  0  0  0  0
 33 35  1  1  0  0  0
M  END
>  <CHROM.1>
78.32031375,-165.59095399,90.13577204,103.31265665,-154.99938280,-174.15299959
-56.01118913,62.05929536,-82.73363613,74.62014738,-64.25990721,-65.38883312
47.61167184,170.97973729,130.79617222,-173.03360565,0.86013662,6.47538673
10.35985543,2.76830223,0.77971663,-1.65070019

>  <Name>
lig.pdb

>  <RI>
2.86754e+07

>  <Rbt.Current_Directory>
/home/itssahil/PROJECTS/Mol_Feturizer/New_Systems/rnas/2m4q

>  <Rbt.Executable>
rbdock ($Id: //depot/dev/client3/rdock/2013.1/src/exe/rbdock.cxx#4 $)

>  <Rbt.Library>
libRbt.so (2013.1, Build901 2013/11/27)

>  <Rbt.Parameter_File>
/export/apps/rDock/src/rDock_2013.1_src/data/scripts/dock_solv.prm

>  <Rbt.Receptor>
prm/pocket_docking_5.prm

>  <SCORE>
-47.5099

>  <SCORE.INTER>
-33.7343

>  <SCORE.INTER.CONST>
1

>  <SCORE.INTER.POLAR>
-5.63149

>  <SCORE.INTER.ROT>
10

>  <SCORE.INTER.SOLV>
18.1564

>  <SCORE.INTER.VDW>
-20.0367

>  <SCORE.INTER.norm>
-0.911739

>  <SCORE.INTRA>
-13.7756

>  <SCORE.INTRA.DIHEDRAL>
-27.1407

>  <SCORE.INTRA.DIHEDRAL.0>
44.8331

>  <SCORE.INTRA.POLAR>
-0.384152

>  <SCORE.INTRA.POLAR.0>
-0.108895

>  <SCORE.INTRA.REPUL>
-0.00912235

>  <SCORE.INTRA.REPUL.0>
0.00912235

>  <SCORE.INTRA.SOLV>
-1.17998

>  <SCORE.INTRA.SOLV.lig_0>
-53.9067

>  <SCORE.INTRA.VDW>
1.73651

>  <SCORE.INTRA.VDW.0>
-2.93492

>  <SCORE.INTRA.norm>
-0.372313

>  <SCORE.RESTR>
0

>  <SCORE.RESTR.CAVITY>
0

>  <SCORE.RESTR.norm>
0

>  <SCORE.SYSTEM>
0

>  <SCORE.SYSTEM.CONST>
0

>  <SCORE.SYSTEM.DIHEDRAL>
0

>  <SCORE.SYSTEM.SOLV>
0

>  <SCORE.SYSTEM.norm>
0

>  <SCORE.heavy>
37

>  <SCORE.norm>
-1.28405

>  <RMSD>
2.525

$$$$
lig.pdb
 OpenBabel11021811453D
libRbt.so/2013.1/901 2013/11/27
 37 40  0  0  0  0  0  0  0  0999 V2000
   -1.7376    7.6399   10.5884 C   0  0  2  0  0  0  0  0  0  0  0  0
   -2.0404    6.9934   11.9803 C   0  0  1  0  0  0  0  0  0  0  0  0
   -0.7605    6.5245   12.7326 C   0  0  0  0  0  0  0  0  0  0  0  0
    0.1536    5.6838   11.8071 C   0  0  1  0  0  0  0  0  0  0  0  0
    0.4938    6.4878   10.5322 C   0  0  1  0  0  0  0  0  0  0  0  0
    1.4481    5.6864    9.6066 C   0  0  1  0  0  0  0  0  0  0  0  0
    2.7125    5.2164   10.3857 C   0  0  1  0  0  0  0  0  0  0  0  0
    2.3430    4.4813   11.7083 C   0  0  2  0  0  0  0  0  0  0  0  0
    4.9639    4.7893    9.5123 C   0  0  0  0  0  0  0  0  0  0  0  0
   -0.7267    6.8860    9.8436 O   0  0  0  0  0  0  0  0  0  0  0  0
    1.3630    5.2365   12.4848 O   0  0  0  0  0  0  0  0  0  0  0  0
   -2.7891    7.9507   12.8233 N   0  0  0  0  0  0  0  0  0  0  0  0
    3.5439    4.3763    9.4990 N   0  0  0  0  0  0  0  0  0  0  0  0
    0.7784    4.5881    9.0008 O   0  0  0  0  0  0  0  0  0  0  0  0
    3.5421    4.2086   12.4910 O   0  0  0  0  0  0  0  0  0  0  0  0
   -1.3307    9.0351   10.7317 O   0  0  0  0  0  0  0  0  0  0  0  0
    3.4737    3.1944   13.5401 C   0  0  2  0  0  0  0  0  0  0  0  0
    4.7609    3.2076   14.4127 C   0  0  1  0  0  0  0  0  0  0  0  0
    5.9912    2.6623   13.6323 C   0  0  2  0  0  0  0  0  0  0  0  0
    5.6906    1.2660   13.0143 C   0  0  1  0  0  0  0  0  0  0  0  0
    4.3794    1.2891   12.1802 C   0  0  1  0  0  0  0  0  0  0  0  0
    3.9937   -0.1246   11.6710 C   0  0  0  0  0  0  0  0  0  0  0  0
    3.2899    1.8683   12.9605 O   0  0  0  0  0  0  0  0  0  0  0  0
    6.8319    0.7725   12.2128 N   0  0  0  0  0  0  0  0  0  0  0  0
    5.0011    4.5143   14.9317 O   0  0  0  0  0  0  0  0  0  0  0  0
    7.1496    2.6183   14.4627 O   0  0  0  0  0  0  0  0  0  0  0  0
    3.9579   -1.0583   12.7453 O   0  0  0  0  0  0  0  0  0  0  0  0
   -2.0648   10.0365    9.9687 C   0  0  1  0  0  0  0  0  0  0  0  0
   -2.3429    9.5694    8.5124 C   0  0  1  0  0  0  0  0  0  0  0  0
   -3.0402   10.6885    7.6886 C   0  0  2  0  0  0  0  0  0  0  0  0
   -4.3340   11.2231    8.3845 C   0  0  1  0  0  0  0  0  0  0  0  0
   -4.1146   11.5727    9.8869 C   0  0  0  0  0  0  0  0  0  0  0  0
   -3.3947   10.4339   10.6701 C   0  0  2  0  0  0  0  0  0  0  0  0
   -4.8856   12.3812    7.6492 N   0  0  0  0  0  0  0  0  0  0  0  0
   -3.1788   10.8636   12.0688 N   0  0  0  0  0  0  0  0  0  0  0  0
   -1.1402    9.1484    7.8769 O   0  0  0  0  0  0  0  0  0  0  0  0
   -3.3364   10.2271    6.3729 O   0  0  0  0  0  0  0  0  0  0  0  0
  1  2  1  0  0  0  0
  1 16  1  1  0  0  0
  2  3  1  0  0  0  0
  2 12  1  1  0  0  0
  4 11  1  1  0  0  0
  4  3  1  0  0  0  0
  5  4  1  0  0  0  0
  5 10  1  6  0  0  0
  6  7  1  0  0  0  0
  6  5  1  0  0  0  0
  6 14  1  1  0  0  0
  7  8  1  0  0  0  0
  7 13  1  6  0  0  0
  8 15  1  1  0  0  0
  8 11  1  0  0  0  0
  9 13  1  0  0  0  0
 10  1  1  0  0  0  0
 17 15  1  6  0  0  0
 17 18  1  0  0  0  0
 18 25  1  6  0  0  0
 19 18  1  0  0  0  0
 19 26  1  1  0  0  0
 20 19  1  0  0  0  0
 20 24  1  6  0  0  0
 21 23  1  0  0  0  0
 21 20  1  0  0  0  0
 21 22  1  1  0  0  0
 23 17  1  0  0  0  0
 27 22  1  0  0  0  0
 28 29  1  0  0  0  0
 28 16  1  1  0  0  0
 29 36  1  6  0  0  0
 30 37  1  6  0  0  0
 30 29  1  0  0  0  0
 31 30  1  0  0  0  0
 31 34  1  6  0  0  0
 32 31  1  0  0  0  0
 32 33  1  0  0  0  0
 33 28  1  0  0  0  0
 33 35  1  1  0  0  0
M  END
>  <CHROM.1>
105.64561110,-161.72681296,131.16595925,52.61967530,-170.65512607,-125.92052759
-53.73288933,64.83363917,52.65023257,-60.45404297,-81.76130842,-42.77876660
178.62144536,-67.29964225,-167.04886881,176.91994301,0.96734459,5.98000640
11.09319231,2.84736320,0.79815245,-1.58848001

>  <Name>
lig.pdb

>  <RI>
2.86754e+07

>  <Rbt.Current_Directory>
/home/itssahil/PROJECTS/Mol_Feturizer/New_Systems/rnas/2m4q

>  <Rbt.Executable>
rbdock ($Id: //depot/dev/client3/rdock/2013.1/src/exe/rbdock.cxx#4 $)

>  <Rbt.Library>
libRbt.so (2013.1, Build901 2013/11/27)

>  <Rbt.Parameter_File>
/export/apps/rDock/src/rDock_2013.1_src/data/scripts/dock_solv.prm

>  <Rbt.Receptor>
prm/pocket_docking_5.prm

>  <SCORE>
-40.1888

>  <SCORE.INTER>
-23.3076

>  <SCORE.INTER.CONST>
1

>  <SCORE.INTER.POLAR>
-3.33025

>  <SCORE.INTER.ROT>
10

>  <SCORE.INTER.SOLV>
15.8322

>  <SCORE.INTER.VDW>
-19.9817

>  <SCORE.INTER.norm>
-0.629936

>  <SCORE.INTRA>
-16.8812

>  <SCORE.INTRA.DIHEDRAL>
-26.3085

>  <SCORE.INTRA.DIHEDRAL.0>
44.8331

>  <SCORE.INTRA.POLAR>
-1.01486

>  <SCORE.INTRA.POLAR.0>
-0.108895

>  <SCORE.INTRA.REPUL>
-0.00912235

>  <SCORE.INTRA.REPUL.0>
0.00912235

>  <SCORE.INTRA.SOLV>
-0.638359

>  <SCORE.INTRA.SOLV.lig_0>
-53.9067

>  <SCORE.INTRA.VDW>
0.0884

>  <SCORE.INTRA.VDW.0>
-2.93492

>  <SCORE.INTRA.norm>
-0.456248

>  <SCORE.RESTR>
0

>  <SCORE.RESTR.CAVITY>
0

>  <SCORE.RESTR.norm>
0

>  <SCORE.SYSTEM>
0

>  <SCORE.SYSTEM.CONST>
0

>  <SCORE.SYSTEM.DIHEDRAL>
0

>  <SCORE.SYSTEM.SOLV>
0

>  <SCORE.SYSTEM.norm>
0

>  <SCORE.heavy>
37

>  <SCORE.norm>
-1.08618

>  <RMSD>
2.561

$$$$
lig.pdb
 OpenBabel11021811453D
libRbt.so/2013.1/901 2013/11/27
 37 40  0  0  0  0  0  0  0  0999 V2000
   -2.2172    7.4510    9.2204 C   0  0  2  0  0  0  0  0  0  0  0  0
   -2.5715    7.0803   10.6983 C   0  0  1  0  0  0  0  0  0  0  0  0
   -1.3180    6.8655   11.5963 C   0  0  0  0  0  0  0  0  0  0  0  0
   -0.2978    5.9215   10.9129 C   0  0  1  0  0  0  0  0  0  0  0  0
    0.0769    6.4722    9.5188 C   0  0  1  0  0  0  0  0  0  0  0  0
    1.1348    5.5694    8.8293 C   0  0  1  0  0  0  0  0  0  0  0  0
    2.3712    5.3579    9.7529 C   0  0  1  0  0  0  0  0  0  0  0  0
    1.9602    4.8820   11.1780 C   0  0  2  0  0  0  0  0  0  0  0  0
    4.6977    4.9179    9.1142 C   0  0  0  0  0  0  0  0  0  0  0  0
   -1.1174    6.6352    8.7007 O   0  0  0  0  0  0  0  0  0  0  0  0
    0.8891    5.7076   11.7300 O   0  0  0  0  0  0  0  0  0  0  0  0
   -3.4283    8.1332   11.2855 N   0  0  0  0  0  0  0  0  0  0  0  0
    3.3064    4.4165    9.1031 N   0  0  0  0  0  0  0  0  0  0  0  0
    0.5715    4.3266    8.4297 O   0  0  0  0  0  0  0  0  0  0  0  0
    3.1197    4.8592   12.0610 O   0  0  0  0  0  0  0  0  0  0  0  0
   -1.9031    8.8714    9.0932 O   0  0  0  0  0  0  0  0  0  0  0  0
    3.2569    3.7508   13.0026 C   0  0  2  0  0  0  0  0  0  0  0  0
    2.4064    3.9972   14.2811 C   0  0  1  0  0  0  0  0  0  0  0  0
    3.0036    5.1334   15.1598 C   0  0  2  0  0  0  0  0  0  0  0  0
    4.5060    4.8723   15.4708 C   0  0  1  0  0  0  0  0  0  0  0  0
    5.3113    4.5969   14.1703 C   0  0  1  0  0  0  0  0  0  0  0  0
    6.7802    4.2008   14.4734 C   0  0  0  0  0  0  0  0  0  0  0  0
    4.6551    3.5637   13.3745 O   0  0  0  0  0  0  0  0  0  0  0  0
    5.0983    5.9831   16.2477 N   0  0  0  0  0  0  0  0  0  0  0  0
    1.0465    4.2552   13.9362 O   0  0  0  0  0  0  0  0  0  0  0  0
    2.2527    5.3052   16.3598 O   0  0  0  0  0  0  0  0  0  0  0  0
    6.8366    2.9710   15.1888 O   0  0  0  0  0  0  0  0  0  0  0  0
   -2.6761    9.6530    8.1364 C   0  0  1  0  0  0  0  0  0  0  0  0
   -3.0889   11.0360    8.7136 C   0  0  1  0  0  0  0  0  0  0  0  0
   -3.9929   11.8126    7.7152 C   0  0  2  0  0  0  0  0  0  0  0  0
   -3.3423   11.9444    6.2999 C   0  0  1  0  0  0  0  0  0  0  0  0
   -2.7972   10.5905    5.7542 C   0  0  0  0  0  0  0  0  0  0  0  0
   -1.9142    9.8356    6.7930 C   0  0  2  0  0  0  0  0  0  0  0  0
   -4.2879   12.5560    5.3420 N   0  0  0  0  0  0  0  0  0  0  0  0
   -1.4815    8.5430    6.2190 N   0  0  0  0  0  0  0  0  0  0  0  0
   -3.7376   10.8865    9.9723 O   0  0  0  0  0  0  0  0  0  0  0  0
   -4.3187   13.0989    8.2356 O   0  0  0  0  0  0  0  0  0  0  0  0
  1  2  1  0  0  0  0
  1 16  1  1  0  0  0
  2  3  1  0  0  0  0
  2 12  1  1  0  0  0
  4 11  1  1  0  0  0
  4  3  1  0  0  0  0
  5  4  1  0  0  0  0
  5 10  1  6  0  0  0
  6  7  1  0  0  0  0
  6  5  1  0  0  0  0
  6 14  1  1  0  0  0
  7  8  1  0  0  0  0
  7 13  1  6  0  0  0
  8 15  1  1  0  0  0
  8 11  1  0  0  0  0
  9 13  1  0  0  0  0
 10  1  1  0  0  0  0
 17 15  1  6  0  0  0
 17 18  1  0  0  0  0
 18 25  1  6  0  0  0
 19 18  1  0  0  0  0
 19 26  1  1  0  0  0
 20 19  1  0  0  0  0
 20 24  1  6  0  0  0
 21 23  1  0  0  0  0
 21 20  1  0  0  0  0
 21 22  1  1  0  0  0
 23 17  1  0  0  0  0
 27 22  1  0  0  0  0
 28 29  1  0  0  0  0
 28 16  1  1  0  0  0
 29 36  1  1  0  0  0
 30 37  1  1  0  0  0
 30 29  1  0  0  0  0
 31 30  1  0  0  0  0
 31 34  1  6  0  0  0
 32 31  1  0  0  0  0
 32 33  1  0  0  0  0
 33 28  1  0  0  0  0
 33 35  1  6  0  0  0
M  END
>  <CHROM.1>
159.74074794,-139.92737362,131.65015689,53.95247521,-82.26559179,-123.79464520
-58.59260592,-60.13355092,64.04961728,168.63253569,61.74421151,137.15674860
36.17912364,-61.89370697,68.33695239,76.89678123,0.50894817,6.91220619,10.73822916
-2.60111944,-0.72429741,1.50879303

>  <Name>
lig.pdb

>  <RI>
3.87352e+07

>  <Rbt.Current_Directory>
/home/itssahil/PROJECTS/Mol_Feturizer/New_Systems/rnas/2m4q

>  <Rbt.Executable>
rbdock ($Id: //depot/dev/client3/rdock/2013.1/src/exe/rbdock.cxx#4 $)

>  <Rbt.Library>
libRbt.so (2013.1, Build901 2013/11/27)

>  <Rbt.Parameter_File>
/export/apps/rDock/src/rDock_2013.1_src/data/scripts/dock_solv.prm

>  <Rbt.Receptor>
prm/pocket_docking_4.prm

>  <SCORE>
-40.5443

>  <SCORE.INTER>
-21.7844

>  <SCORE.INTER.CONST>
1

>  <SCORE.INTER.POLAR>
-3.06079

>  <SCORE.INTER.ROT>
10

>  <SCORE.INTER.SOLV>
14.0124

>  <SCORE.INTER.VDW>
-19.2578

>  <SCORE.INTER.norm>
-0.588768

>  <SCORE.INTRA>
-18.7599

>  <SCORE.INTRA.DIHEDRAL>
-17.6332

>  <SCORE.INTRA.DIHEDRAL.0>
44.8331

>  <SCORE.INTRA.POLAR>
-2.83292

>  <SCORE.INTRA.POLAR.0>
-0.108895

>  <SCORE.INTRA.REPUL>
-0.00912235

>  <SCORE.INTRA.REPUL.0>
0.00912235

>  <SCORE.INTRA.SOLV>
-0.152513

>  <SCORE.INTRA.SOLV.lig_0>
-53.9067

>  <SCORE.INTRA.VDW>
-0.189463

>  <SCORE.INTRA.VDW.0>
-2.93492

>  <SCORE.INTRA.norm>
-0.507024

>  <SCORE.RESTR>
0

>  <SCORE.RESTR.CAVITY>
0

>  <SCORE.RESTR.norm>
0

>  <SCORE.SYSTEM>
0

>  <SCORE.SYSTEM.CONST>
0

>  <SCORE.SYSTEM.DIHEDRAL>
0

>  <SCORE.SYSTEM.SOLV>
0

>  <SCORE.SYSTEM.norm>
0

>  <SCORE.heavy>
37

>  <SCORE.norm>
-1.09579

>  <RMSD>
2.562

$$$$
lig.pdb
 OpenBabel11021811453D
libRbt.so/2013.1/901 2013/11/27
 37 40  0  0  0  0  0  0  0  0999 V2000
   -0.9832    8.2993    8.4805 C   0  0  2  0  0  0  0  0  0  0  0  0
   -1.5671    6.8485    8.5159 C   0  0  1  0  0  0  0  0  0  0  0  0
   -0.6598    5.8383    9.2775 C   0  0  0  0  0  0  0  0  0  0  0  0
    0.8101    5.9392    8.7997 C   0  0  1  0  0  0  0  0  0  0  0  0
    1.3126    7.3929    8.9466 C   0  0  1  0  0  0  0  0  0  0  0  0
    2.7997    7.5139    8.5183 C   0  0  1  0  0  0  0  0  0  0  0  0
    3.6835    6.4838    9.2828 C   0  0  1  0  0  0  0  0  0  0  0  0
    3.1097    5.0389    9.1880 C   0  0  2  0  0  0  0  0  0  0  0  0
    6.0142    7.0324    9.8127 C   0  0  0  0  0  0  0  0  0  0  0  0
    0.4544    8.3034    8.2006 O   0  0  0  0  0  0  0  0  0  0  0  0
    1.6832    5.0077    9.5011 O   0  0  0  0  0  0  0  0  0  0  0  0
   -2.9131    6.8667    9.1288 N   0  0  0  0  0  0  0  0  0  0  0  0
    5.0692    6.5636    8.7762 N   0  0  0  0  0  0  0  0  0  0  0  0
    2.9450    7.3732    7.1109 O   0  0  0  0  0  0  0  0  0  0  0  0
    3.8609    4.1354   10.0505 O   0  0  0  0  0  0  0  0  0  0  0  0
   -1.2628    9.0114    9.7245 O   0  0  0  0  0  0  0  0  0  0  0  0
    3.3858    3.9187   11.4148 C   0  0  2  0  0  0  0  0  0  0  0  0
    4.1804    4.7921   12.4270 C   0  0  1  0  0  0  0  0  0  0  0  0
    5.6419    4.2880   12.5993 C   0  0  2  0  0  0  0  0  0  0  0  0
    5.6758    2.7717   12.9480 C   0  0  1  0  0  0  0  0  0  0  0  0
    4.8421    1.9410   11.9329 C   0  0  1  0  0  0  0  0  0  0  0  0
    4.7534    0.4477   12.3433 C   0  0  0  0  0  0  0  0  0  0  0  0
    3.5070    2.5121   11.7828 O   0  0  0  0  0  0  0  0  0  0  0  0
    7.0642    2.2702   13.0451 N   0  0  0  0  0  0  0  0  0  0  0  0
    4.1366    6.1659   12.0457 O   0  0  0  0  0  0  0  0  0  0  0  0
    6.3396    5.0561   13.5775 O   0  0  0  0  0  0  0  0  0  0  0  0
    4.3141   -0.3532   11.2511 O   0  0  0  0  0  0  0  0  0  0  0  0
   -2.0617   10.2276    9.6438 C   0  0  1  0  0  0  0  0  0  0  0  0
   -2.8583   10.4881   10.9529 C   0  0  1  0  0  0  0  0  0  0  0  0
   -3.7766   11.7347   10.8112 C   0  0  2  0  0  0  0  0  0  0  0  0
   -2.9916   13.0040   10.3463 C   0  0  1  0  0  0  0  0  0  0  0  0
   -2.0785   12.7348    9.1128 C   0  0  0  0  0  0  0  0  0  0  0  0
   -1.1908   11.4658    9.2876 C   0  0  2  0  0  0  0  0  0  0  0  0
   -3.9170   14.1263   10.0818 N   0  0  0  0  0  0  0  0  0  0  0  0
   -0.3965   11.2520    8.0585 N   0  0  0  0  0  0  0  0  0  0  0  0
   -3.6165    9.3406   11.3215 O   0  0  0  0  0  0  0  0  0  0  0  0
   -4.4594   11.9917   12.0357 O   0  0  0  0  0  0  0  0  0  0  0  0
  1  2  1  0  0  0  0
  1 16  1  1  0  0  0
  2  3  1  0  0  0  0
  2 12  1  1  0  0  0
  4 11  1  1  0  0  0
  4  3  1  0  0  0  0
  5  4  1  0  0  0  0
  5 10  1  6  0  0  0
  6  7  1  0  0  0  0
  6  5  1  0  0  0  0
  6 14  1  6  0  0  0
  7  8  1  0  0  0  0
  7 13  1  6  0  0  0
  8 15  1  1  0  0  0
  8 11  1  0  0  0  0
  9 13  1  0  0  0  0
 10  1  1  0  0  0  0
 17 15  1  6  0  0  0
 17 18  1  0  0  0  0
 18 25  1  6  0  0  0
 19 18  1  0  0  0  0
 19 26  1  1  0  0  0
 20 19  1  0  0  0  0
 20 24  1  6  0  0  0
 21 23  1  0  0  0  0
 21 20  1  0  0  0  0
 21 22  1  1  0  0  0
 23 17  1  0  0  0  0
 27 22  1  0  0  0  0
 28 29  1  0  0  0  0
 28 16  1  1  0  0  0
 29 36  1  6  0  0  0
 30 37  1  1  0  0  0
 30 29  1  0  0  0  0
 31 30  1  0  0  0  0
 31 34  1  6  0  0  0
 32 31  1  0  0  0  0
 32 33  1  0  0  0  0
 33 28  1  0  0  0  0
 33 35  1  6  0  0  0
M  END
>  <CHROM.1>
80.86492864,92.37210467,115.25682317,54.63648348,-99.07398201,-119.18878123
67.73333727,-57.97818342,-164.21677269,68.19641182,-53.08310357,151.75235949
-64.41257761,-175.17220287,157.85718030,58.54577794,1.38079482,6.95560825
10.29554629,2.35037737,0.24591994,-0.45213586

>  <Name>
lig.pdb

>  <RI>
3.87352e+07

>  <Rbt.Current_Directory>
/home/itssahil/PROJECTS/Mol_Feturizer/New_Systems/rnas/2m4q

>  <Rbt.Executable>
rbdock ($Id: //depot/dev/client3/rdock/2013.1/src/exe/rbdock.cxx#4 $)

>  <Rbt.Library>
libRbt.so (2013.1, Build901 2013/11/27)

>  <Rbt.Parameter_File>
/export/apps/rDock/src/rDock_2013.1_src/data/scripts/dock_solv.prm

>  <Rbt.Receptor>
prm/pocket_docking_4.prm

>  <SCORE>
-40.4627

>  <SCORE.INTER>
-26.8679

>  <SCORE.INTER.CONST>
1

>  <SCORE.INTER.POLAR>
-5.00838

>  <SCORE.INTER.ROT>
10

>  <SCORE.INTER.SOLV>
14.373

>  <SCORE.INTER.VDW>
-16.275

>  <SCORE.INTER.norm>
-0.726159

>  <SCORE.INTRA>
-13.5948

>  <SCORE.INTRA.DIHEDRAL>
-19.1737

>  <SCORE.INTRA.DIHEDRAL.0>
44.8331

>  <SCORE.INTRA.POLAR>
-1.08113

>  <SCORE.INTRA.POLAR.0>
-0.108895

>  <SCORE.INTRA.REPUL>
0.00196364

>  <SCORE.INTRA.REPUL.0>
0.00912235

>  <SCORE.INTRA.SOLV>
-0.0583025

>  <SCORE.INTRA.SOLV.lig_0>
-53.9067

>  <SCORE.INTRA.VDW>
-0.312769

>  <SCORE.INTRA.VDW.0>
-2.93492

>  <SCORE.INTRA.norm>
-0.367427

>  <SCORE.RESTR>
0

>  <SCORE.RESTR.CAVITY>
0

>  <SCORE.RESTR.norm>
0

>  <SCORE.SYSTEM>
0

>  <SCORE.SYSTEM.CONST>
0

>  <SCORE.SYSTEM.DIHEDRAL>
0

>  <SCORE.SYSTEM.SOLV>
0

>  <SCORE.SYSTEM.norm>
0

>  <SCORE.heavy>
37

>  <SCORE.norm>
-1.09359

>  <RMSD>
2.586

$$$$
lig.pdb
 OpenBabel11021811453D
libRbt.so/2013.1/901 2013/11/27
 37 40  0  0  0  0  0  0  0  0999 V2000
   -1.8063    7.7411    8.7872 C   0  0  2  0  0  0  0  0  0  0  0  0
   -2.3122    7.0185   10.0791 C   0  0  1  0  0  0  0  0  0  0  0  0
   -1.1608    6.5888   11.0348 C   0  0  0  0  0  0  0  0  0  0  0  0
   -0.0452    5.8414   10.2629 C   0  0  1  0  0  0  0  0  0  0  0  0
    0.4666    6.7180    9.0980 C   0  0  1  0  0  0  0  0  0  0  0  0
    1.6192    6.0120    8.3345 C   0  0  1  0  0  0  0  0  0  0  0  0
    2.7508    5.5792    9.3138 C   0  0  1  0  0  0  0  0  0  0  0  0
    2.1973    4.7675   10.5226 C   0  0  2  0  0  0  0  0  0  0  0  0
    4.9870    5.6385    8.3089 C   0  0  0  0  0  0  0  0  0  0  0  0
   -0.6335    7.0777    8.2133 O   0  0  0  0  0  0  0  0  0  0  0  0
    1.0490    5.4325   11.1332 O   0  0  0  0  0  0  0  0  0  0  0  0
   -3.2578    7.8949   10.8038 N   0  0  0  0  0  0  0  0  0  0  0  0
    3.7781    4.8261    8.5651 N   0  0  0  0  0  0  0  0  0  0  0  0
    1.1385    4.9059    7.5815 O   0  0  0  0  0  0  0  0  0  0  0  0
    3.2517    4.5277   11.5000 O   0  0  0  0  0  0  0  0  0  0  0  0
   -1.5195    9.1491    9.0479 O   0  0  0  0  0  0  0  0  0  0  0  0
    3.6771    3.1515   11.7425 C   0  0  2  0  0  0  0  0  0  0  0  0
    4.3313    3.0096   13.1463 C   0  0  1  0  0  0  0  0  0  0  0  0
    5.7219    3.7043   13.2064 C   0  0  2  0  0  0  0  0  0  0  0  0
    6.6452    3.2137   12.0537 C   0  0  1  0  0  0  0  0  0  0  0  0
    5.9406    3.3404   10.6742 C   0  0  1  0  0  0  0  0  0  0  0  0
    6.7937    2.7300    9.5314 C   0  0  0  0  0  0  0  0  0  0  0  0
    4.6207    2.7180   10.7178 O   0  0  0  0  0  0  0  0  0  0  0  0
    7.9444    3.9211   12.0635 N   0  0  0  0  0  0  0  0  0  0  0  0
    3.4533    3.4960   14.1597 O   0  0  0  0  0  0  0  0  0  0  0  0
    6.3394    3.5113   14.4771 O   0  0  0  0  0  0  0  0  0  0  0  0
    6.8923    1.3165    9.6716 O   0  0  0  0  0  0  0  0  0  0  0  0
   -0.7516    9.8802    8.0480 C   0  0  1  0  0  0  0  0  0  0  0  0
   -1.5854   10.1638    6.7672 C   0  0  1  0  0  0  0  0  0  0  0  0
   -0.7202   10.8577    5.6776 C   0  0  2  0  0  0  0  0  0  0  0  0
   -0.0141   12.1473    6.2087 C   0  0  1  0  0  0  0  0  0  0  0  0
    0.7190   11.9228    7.5651 C   0  0  0  0  0  0  0  0  0  0  0  0
   -0.1761   11.2065    8.6208 C   0  0  2  0  0  0  0  0  0  0  0  0
    0.9113   12.6951    5.1940 N   0  0  0  0  0  0  0  0  0  0  0  0
    0.6068   10.9854    9.8559 N   0  0  0  0  0  0  0  0  0  0  0  0
   -2.1656    8.9645    6.2645 O   0  0  0  0  0  0  0  0  0  0  0  0
   -1.5114   11.1590    4.5309 O   0  0  0  0  0  0  0  0  0  0  0  0
  1  2  1  0  0  0  0
  1 16  1  1  0  0  0
  2  3  1  0  0  0  0
  2 12  1  1  0  0  0
  4 11  1  1  0  0  0
  4  3  1  0  0  0  0
  5  4  1  0  0  0  0
  5 10  1  6  0  0  0
  6  7  1  0  0  0  0
  6  5  1  0  0  0  0
  6 14  1  1  0  0  0
  7  8  1  0  0  0  0
  7 13  1  6  0  0  0
  8 15  1  1  0  0  0
  8 11  1  0  0  0  0
  9 13  1  0  0  0  0
 10  1  1  0  0  0  0
 17 15  1  6  0  0  0
 17 18  1  0  0  0  0
 18 25  1  1  0  0  0
 19 18  1  0  0  0  0
 19 26  1  1  0  0  0
 20 19  1  0  0  0  0
 20 24  1  6  0  0  0
 21 23  1  0  0  0  0
 21 20  1  0  0  0  0
 21 22  1  6  0  0  0
 23 17  1  0  0  0  0
 27 22  1  0  0  0  0
 28 29  1  0  0  0  0
 28 16  1  1  0  0  0
 29 36  1  6  0  0  0
 30 37  1  6  0  0  0
 30 29  1  0  0  0  0
 31 30  1  0  0  0  0
 31 34  1  6  0  0  0
 32 31  1  0  0  0  0
 32 33  1  0  0  0  0
 33 28  1  0  0  0  0
 33 35  1  1  0  0  0
M  END
>  <CHROM.1>
175.98372989,-115.13330096,103.80517176,149.40955319,-156.70233645,165.90805397
-53.27009466,-179.74833731,67.46396018,177.33324749,168.76754742,72.24323492
-174.28956879,61.13052578,-178.04531122,57.65590677,1.86609344,6.56753311
9.53148173,2.28047322,0.33987956,-0.85252213

>  <Name>
lig.pdb

>  <RI>
0

>  <Rbt.Current_Directory>
/home/itssahil/PROJECTS/Mol_Feturizer/New_Systems/rnas/2m4q

>  <Rbt.Executable>
rbdock ($Id: //depot/dev/client3/rdock/2013.1/src/exe/rbdock.cxx#4 $)

>  <Rbt.Library>
libRbt.so (2013.1, Build901 2013/11/27)

>  <Rbt.Parameter_File>
/export/apps/rDock/src/rDock_2013.1_src/data/scripts/dock_solv.prm

>  <Rbt.Receptor>
prm/pocket_docking_6.prm

>  <SCORE>
-34.8202

>  <SCORE.INTER>
-18.4068

>  <SCORE.INTER.CONST>
1

>  <SCORE.INTER.POLAR>
-3.27463

>  <SCORE.INTER.ROT>
10

>  <SCORE.INTER.SOLV>
14.0298

>  <SCORE.INTER.VDW>
-16.299

>  <SCORE.INTER.norm>
-0.497481

>  <SCORE.INTRA>
-16.4135

>  <SCORE.INTRA.DIHEDRAL>
-26.24

>  <SCORE.INTRA.DIHEDRAL.0>
44.8331

>  <SCORE.INTRA.POLAR>
-0.440211

>  <SCORE.INTRA.POLAR.0>
-0.108895

>  <SCORE.INTRA.REPUL>
-0.00912235

>  <SCORE.INTRA.REPUL.0>
0.00912235

>  <SCORE.INTRA.SOLV>
-1.19208

>  <SCORE.INTRA.SOLV.lig_0>
-53.9067

>  <SCORE.INTRA.VDW>
-1.1551

>  <SCORE.INTRA.VDW.0>
-2.93492

>  <SCORE.INTRA.norm>
-0.443607

>  <SCORE.RESTR>
0

>  <SCORE.RESTR.CAVITY>
0

>  <SCORE.RESTR.norm>
0

>  <SCORE.SYSTEM>
0

>  <SCORE.SYSTEM.CONST>
0

>  <SCORE.SYSTEM.DIHEDRAL>
0

>  <SCORE.SYSTEM.SOLV>
0

>  <SCORE.SYSTEM.norm>
0

>  <SCORE.heavy>
37

>  <SCORE.norm>
-0.941088

>  <RMSD>
2.587

$$$$
lig.pdb
 OpenBabel11021811453D
libRbt.so/2013.1/901 2013/11/27
 37 40  0  0  0  0  0  0  0  0999 V2000
   -2.4800    8.4231   11.9766 C   0  0  2  0  0  0  0  0  0  0  0  0
   -2.2498    7.8313   13.4063 C   0  0  1  0  0  0  0  0  0  0  0  0
   -0.8202    7.2491   13.6086 C   0  0  0  0  0  0  0  0  0  0  0  0
   -0.4315    6.3076   12.4418 C   0  0  1  0  0  0  0  0  0  0  0  0
   -0.5670    7.0540   11.0957 C   0  0  1  0  0  0  0  0  0  0  0  0
   -0.1384    6.1475    9.9107 C   0  0  1  0  0  0  0  0  0  0  0  0
    1.2879    5.5661   10.1438 C   0  0  1  0  0  0  0  0  0  0  0  0
    1.4218    4.8919   11.5415 C   0  0  2  0  0  0  0  0  0  0  0  0
    1.8808    5.3427    7.7747 C   0  0  0  0  0  0  0  0  0  0  0  0
   -1.9229    7.5610   10.9318 O   0  0  0  0  0  0  0  0  0  0  0  0
    0.9057    5.7526   12.6028 O   0  0  0  0  0  0  0  0  0  0  0  0
   -2.5111    8.8712   14.4252 N   0  0  0  0  0  0  0  0  0  0  0  0
    1.6169    4.6340    9.0456 N   0  0  0  0  0  0  0  0  0  0  0  0
   -1.0860    5.1121    9.6834 O   0  0  0  0  0  0  0  0  0  0  0  0
    2.8067    4.5133   11.7932 O   0  0  0  0  0  0  0  0  0  0  0  0
   -1.9330    9.7729   11.8697 O   0  0  0  0  0  0  0  0  0  0  0  0
    3.1402    3.9055   13.0790 C   0  0  2  0  0  0  0  0  0  0  0  0
    4.5485    4.3569   13.5603 C   0  0  1  0  0  0  0  0  0  0  0  0
    5.6805    3.7289   12.6976 C   0  0  2  0  0  0  0  0  0  0  0  0
    5.5330    2.1817   12.6175 C   0  0  1  0  0  0  0  0  0  0  0  0
    4.1025    1.7742   12.1669 C   0  0  1  0  0  0  0  0  0  0  0  0
    3.8980    0.2372   12.2134 C   0  0  0  0  0  0  0  0  0  0  0  0
    3.0995    2.4503   12.9844 O   0  0  0  0  0  0  0  0  0  0  0  0
    6.5655    1.5848   11.7421 N   0  0  0  0  0  0  0  0  0  0  0  0
    4.6352    5.7803   13.5907 O   0  0  0  0  0  0  0  0  0  0  0  0
    6.9673    4.0978   13.1888 O   0  0  0  0  0  0  0  0  0  0  0  0
    3.9721   -0.2440   13.5514 O   0  0  0  0  0  0  0  0  0  0  0  0
   -2.5187   10.6642   10.8765 C   0  0  1  0  0  0  0  0  0  0  0  0
   -2.4929   10.0442    9.4513 C   0  0  1  0  0  0  0  0  0  0  0  0
   -3.0326   11.0479    8.3937 C   0  0  2  0  0  0  0  0  0  0  0  0
   -4.4485   11.5987    8.7623 C   0  0  1  0  0  0  0  0  0  0  0  0
   -4.5388   12.1043   10.2333 C   0  0  0  0  0  0  0  0  0  0  0  0
   -3.9686   11.0778   11.2579 C   0  0  2  0  0  0  0  0  0  0  0  0
   -4.8636   12.6556    7.8154 N   0  0  0  0  0  0  0  0  0  0  0  0
   -4.0432   11.6525   12.6185 N   0  0  0  0  0  0  0  0  0  0  0  0
   -1.1804    9.6088    9.1119 O   0  0  0  0  0  0  0  0  0  0  0  0
   -3.0526   10.4467    7.1015 O   0  0  0  0  0  0  0  0  0  0  0  0
  1  2  1  0  0  0  0
  1 16  1  1  0  0  0
  2  3  1  0  0  0  0
  2 12  1  1  0  0  0
  4 11  1  1  0  0  0
  4  3  1  0  0  0  0
  5  4  1  0  0  0  0
  5 10  1  6  0  0  0
  6  7  1  0  0  0  0
  6  5  1  0  0  0  0
  6 14  1  1  0  0  0
  7  8  1  0  0  0  0
  7 13  1  6  0  0  0
  8 15  1  1  0  0  0
  8 11  1  0  0  0  0
  9 13  1  0  0  0  0
 10  1  1  0  0  0  0
 17 15  1  6  0  0  0
 17 18  1  0  0  0  0
 18 25  1  6  0  0  0
 19 18  1  0  0  0  0
 19 26  1  1  0  0  0
 20 19  1  0  0  0  0
 20 24  1  6  0  0  0
 21 23  1  0  0  0  0
 21 20  1  0  0  0  0
 21 22  1  1  0  0  0
 23 17  1  0  0  0  0
 27 22  1  0  0  0  0
 28 29  1  0  0  0  0
 28 16  1  1  0  0  0
 29 36  1  6  0  0  0
 30 37  1  6  0  0  0
 30 29  1  0  0  0  0
 31 30  1  0  0  0  0
 31 34  1  6  0  0  0
 32 31  1  0  0  0  0
 32 33  1  0  0  0  0
 33 28  1  0  0  0  0
 33 35  1  1  0  0  0
M  END
>  <CHROM.1>
-47.37425055,177.91702087,72.20719773,157.43673501,-144.44126888,-154.52607484
64.88389185,-61.89172980,65.15133977,-52.40914592,-58.10712790,-55.14894728
174.39638444,60.92650105,-170.83432539,147.02475685,0.41057103,6.62426476
11.32586714,2.96255170,0.80005881,-1.62464283

>  <Name>
lig.pdb

>  <RI>
2.86754e+07

>  <Rbt.Current_Directory>
/home/itssahil/PROJECTS/Mol_Feturizer/New_Systems/rnas/2m4q

>  <Rbt.Executable>
rbdock ($Id: //depot/dev/client3/rdock/2013.1/src/exe/rbdock.cxx#4 $)

>  <Rbt.Library>
libRbt.so (2013.1, Build901 2013/11/27)

>  <Rbt.Parameter_File>
/export/apps/rDock/src/rDock_2013.1_src/data/scripts/dock_solv.prm

>  <Rbt.Receptor>
prm/pocket_docking_5.prm

>  <SCORE>
-46.7054

>  <SCORE.INTER>
-31.0315

>  <SCORE.INTER.CONST>
1

>  <SCORE.INTER.POLAR>
-5.03291

>  <SCORE.INTER.ROT>
10

>  <SCORE.INTER.SOLV>
14.2016

>  <SCORE.INTER.VDW>
-18.9118

>  <SCORE.INTER.norm>
-0.838689

>  <SCORE.INTRA>
-15.6739

>  <SCORE.INTRA.DIHEDRAL>
-31.9472

>  <SCORE.INTRA.DIHEDRAL.0>
44.8331

>  <SCORE.INTRA.POLAR>
0.0343244

>  <SCORE.INTRA.POLAR.0>
-0.108895

>  <SCORE.INTRA.REPUL>
-0.00912235

>  <SCORE.INTRA.REPUL.0>
0.00912235

>  <SCORE.INTRA.SOLV>
-0.846555

>  <SCORE.INTRA.SOLV.lig_0>
-53.9067

>  <SCORE.INTRA.VDW>
0.651858

>  <SCORE.INTRA.VDW.0>
-2.93492

>  <SCORE.INTRA.norm>
-0.42362

>  <SCORE.RESTR>
0

>  <SCORE.RESTR.CAVITY>
0

>  <SCORE.RESTR.norm>
0

>  <SCORE.SYSTEM>
0

>  <SCORE.SYSTEM.CONST>
0

>  <SCORE.SYSTEM.DIHEDRAL>
0

>  <SCORE.SYSTEM.SOLV>
0

>  <SCORE.SYSTEM.norm>
0

>  <SCORE.heavy>
37

>  <SCORE.norm>
-1.26231

>  <RMSD>
2.660

$$$$
lig.pdb
 OpenBabel11021811453D
libRbt.so/2013.1/901 2013/11/27
 37 40  0  0  0  0  0  0  0  0999 V2000
   -1.7256    7.5917    9.6378 C   0  0  2  0  0  0  0  0  0  0  0  0
   -1.8264    6.8309   11.0009 C   0  0  1  0  0  0  0  0  0  0  0  0
   -0.4441    6.3815   11.5585 C   0  0  0  0  0  0  0  0  0  0  0  0
    0.3893    5.6620   10.4691 C   0  0  1  0  0  0  0  0  0  0  0  0
    0.5339    6.5733    9.2297 C   0  0  1  0  0  0  0  0  0  0  0  0
    1.4053    5.8952    8.1386 C   0  0  1  0  0  0  0  0  0  0  0  0
    2.7757    5.4419    8.7245 C   0  0  1  0  0  0  0  0  0  0  0  0
    2.6046    4.5941   10.0199 C   0  0  2  0  0  0  0  0  0  0  0  0
    4.9936    4.8280    7.8770 C   0  0  0  0  0  0  0  0  0  0  0  0
   -0.7784    6.9511    8.7227 O   0  0  0  0  0  0  0  0  0  0  0  0
    1.6917    5.2355   10.9628 O   0  0  0  0  0  0  0  0  0  0  0  0
   -2.5113    7.6817   11.9983 N   0  0  0  0  0  0  0  0  0  0  0  0
    3.5317    4.7156    7.6833 N   0  0  0  0  0  0  0  0  0  0  0  0
    0.7193    4.8076    7.5319 O   0  0  0  0  0  0  0  0  0  0  0  0
    3.9013    4.3334   10.6324 O   0  0  0  0  0  0  0  0  0  0  0  0
   -1.3703    8.9936    9.8407 O   0  0  0  0  0  0  0  0  0  0  0  0
    3.9451    3.9894   12.0514 C   0  0  2  0  0  0  0  0  0  0  0  0
    5.3580    4.2532   12.6455 C   0  0  1  0  0  0  0  0  0  0  0  0
    6.4044    3.2299   12.1184 C   0  0  2  0  0  0  0  0  0  0  0  0
    5.9182    1.7675   12.3344 C   0  0  1  0  0  0  0  0  0  0  0  0
    4.4904    1.5570   11.7575 C   0  0  1  0  0  0  0  0  0  0  0  0
    3.9375    0.1451   12.0847 C   0  0  0  0  0  0  0  0  0  0  0  0
    3.5846    2.5899   12.2514 O   0  0  0  0  0  0  0  0  0  0  0  0
    6.8769    0.7905   11.7731 N   0  0  0  0  0  0  0  0  0  0  0  0
    5.7626    5.5983   12.3973 O   0  0  0  0  0  0  0  0  0  0  0  0
    7.6799    3.4417   12.7199 O   0  0  0  0  0  0  0  0  0  0  0  0
    2.5478    0.2028   12.3894 O   0  0  0  0  0  0  0  0  0  0  0  0
   -1.5310    9.9030    8.7133 C   0  0  1  0  0  0  0  0  0  0  0  0
   -0.5926    9.5343    7.5303 C   0  0  1  0  0  0  0  0  0  0  0  0
   -0.7095   10.5717    6.3781 C   0  0  2  0  0  0  0  0  0  0  0  0
   -2.1860   10.7758    5.9069 C   0  0  1  0  0  0  0  0  0  0  0  0
   -3.1727   11.0141    7.0889 C   0  0  0  0  0  0  0  0  0  0  0  0
   -3.0079    9.9657    8.2302 C   0  0  2  0  0  0  0  0  0  0  0  0
   -2.2749   11.8709    4.9175 N   0  0  0  0  0  0  0  0  0  0  0  0
   -3.9398   10.2915    9.3314 N   0  0  0  0  0  0  0  0  0  0  0  0
    0.7564    9.4176    7.9709 O   0  0  0  0  0  0  0  0  0  0  0  0
    0.1161   10.1913    5.2802 O   0  0  0  0  0  0  0  0  0  0  0  0
  1  2  1  0  0  0  0
  1 16  1  1  0  0  0
  2  3  1  0  0  0  0
  2 12  1  1  0  0  0
  4 11  1  1  0  0  0
  4  3  1  0  0  0  0
  5  4  1  0  0  0  0
  5 10  1  6  0  0  0
  6  7  1  0  0  0  0
  6  5  1  0  0  0  0
  6 14  1  1  0  0  0
  7  8  1  0  0  0  0
  7 13  1  6  0  0  0
  8 15  1  1  0  0  0
  8 11  1  0  0  0  0
  9 13  1  0  0  0  0
 10  1  1  0  0  0  0
 17 15  1  6  0  0  0
 17 18  1  0  0  0  0
 18 25  1  6  0  0  0
 19 18  1  0  0  0  0
 19 26  1  1  0  0  0
 20 19  1  0  0  0  0
 20 24  1  6  0  0  0
 21 23  1  0  0  0  0
 21 20  1  0  0  0  0
 21 22  1  1  0  0  0
 23 17  1  0  0  0  0
 27 22  1  0  0  0  0
 28 29  1  0  0  0  0
 28 16  1  1  0  0  0
 29 36  1  1  0  0  0
 30 37  1  6  0  0  0
 30 29  1  0  0  0  0
 31 30  1  0  0  0  0
 31 34  1  6  0  0  0
 32 31  1  0  0  0  0
 32 33  1  0  0  0  0
 33 28  1  0  0  0  0
 33 35  1  1  0  0  0
M  END
>  <CHROM.1>
-145.57015595,158.49212554,152.06522435,-61.76340651,-159.27335823,-166.41965957
-56.46623654,175.09443189,141.53754381,174.13722669,144.28944725,-63.96039722
50.63448109,-59.70452962,173.96408577,18.98942322,1.48909620,6.12434849,9.73147477
2.32776353,0.40037624,-0.87335799

>  <Name>
lig.pdb

>  <RI>
0

>  <Rbt.Current_Directory>
/home/itssahil/PROJECTS/Mol_Feturizer/New_Systems/rnas/2m4q

>  <Rbt.Executable>
rbdock ($Id: //depot/dev/client3/rdock/2013.1/src/exe/rbdock.cxx#4 $)

>  <Rbt.Library>
libRbt.so (2013.1, Build901 2013/11/27)

>  <Rbt.Parameter_File>
/export/apps/rDock/src/rDock_2013.1_src/data/scripts/dock_solv.prm

>  <Rbt.Receptor>
prm/pocket_docking_7.prm

>  <SCORE>
-44.8311

>  <SCORE.INTER>
-32.1382

>  <SCORE.INTER.CONST>
1

>  <SCORE.INTER.POLAR>
-4.63027

>  <SCORE.INTER.ROT>
10

>  <SCORE.INTER.SOLV>
17.5367

>  <SCORE.INTER.VDW>
-22.1035

>  <SCORE.INTER.norm>
-0.8686

>  <SCORE.INTRA>
-12.6929

>  <SCORE.INTRA.DIHEDRAL>
-25.9006

>  <SCORE.INTRA.DIHEDRAL.0>
44.8331

>  <SCORE.INTRA.POLAR>
0.0122512

>  <SCORE.INTRA.POLAR.0>
-0.108895

>  <SCORE.INTRA.REPUL>
-0.00912235

>  <SCORE.INTRA.REPUL.0>
0.00912235

>  <SCORE.INTRA.SOLV>
-1.75048

>  <SCORE.INTRA.SOLV.lig_0>
-53.9067

>  <SCORE.INTRA.VDW>
1.13665

>  <SCORE.INTRA.VDW.0>
-2.93492

>  <SCORE.INTRA.norm>
-0.34305

>  <SCORE.RESTR>
0

>  <SCORE.RESTR.CAVITY>
0

>  <SCORE.RESTR.norm>
0

>  <SCORE.SYSTEM>
0

>  <SCORE.SYSTEM.CONST>
0

>  <SCORE.SYSTEM.DIHEDRAL>
0

>  <SCORE.SYSTEM.SOLV>
0

>  <SCORE.SYSTEM.norm>
0

>  <SCORE.heavy>
37

>  <SCORE.norm>
-1.21165

>  <RMSD>
2.674

$$$$
lig.pdb
 OpenBabel11021811453D
libRbt.so/2013.1/901 2013/11/27
 37 40  0  0  0  0  0  0  0  0999 V2000
   -1.8446    7.6391    7.9180 C   0  0  2  0  0  0  0  0  0  0  0  0
   -2.5090    7.3242    9.2988 C   0  0  1  0  0  0  0  0  0  0  0  0
   -1.4758    7.0513   10.4309 C   0  0  0  0  0  0  0  0  0  0  0  0
   -0.4046    6.0303    9.9738 C   0  0  1  0  0  0  0  0  0  0  0  0
    0.2750    6.5255    8.6775 C   0  0  1  0  0  0  0  0  0  0  0  0
    1.3871    5.5432    8.2215 C   0  0  1  0  0  0  0  0  0  0  0  0
    2.3988    5.2752    9.3754 C   0  0  1  0  0  0  0  0  0  0  0  0
    1.6825    4.8576   10.6940 C   0  0  2  0  0  0  0  0  0  0  0  0
    4.7195    4.8484    8.7075 C   0  0  0  0  0  0  0  0  0  0  0  0
   -0.7196    6.7448    7.6359 O   0  0  0  0  0  0  0  0  0  0  0  0
    0.5796    5.7607   11.0133 O   0  0  0  0  0  0  0  0  0  0  0  0
   -3.3944    8.4414    9.6933 N   0  0  0  0  0  0  0  0  0  0  0  0
    3.3805    4.2629    8.9341 N   0  0  0  0  0  0  0  0  0  0  0  0
    0.8340    4.3295    7.7289 O   0  0  0  0  0  0  0  0  0  0  0  0
    2.6394    4.7819   11.7909 O   0  0  0  0  0  0  0  0  0  0  0  0
   -1.4187    9.0340    7.8430 O   0  0  0  0  0  0  0  0  0  0  0  0
    2.8761    5.9795   12.5930 C   0  0  2  0  0  0  0  0  0  0  0  0
    4.0878    6.7863   12.0457 C   0  0  1  0  0  0  0  0  0  0  0  0
    5.4340    6.0523   12.3081 C   0  0  2  0  0  0  0  0  0  0  0  0
    5.5844    5.6746   13.8104 C   0  0  1  0  0  0  0  0  0  0  0  0
    4.3384    4.9011   14.3247 C   0  0  1  0  0  0  0  0  0  0  0  0
    4.4120    4.6370   15.8515 C   0  0  0  0  0  0  0  0  0  0  0  0
    3.1156    5.6239   13.9875 O   0  0  0  0  0  0  0  0  0  0  0  0
    6.8303    4.9153   14.0548 N   0  0  0  0  0  0  0  0  0  0  0  0
    3.9085    7.0828   10.6621 O   0  0  0  0  0  0  0  0  0  0  0  0
    6.5412    6.8316   11.8607 O   0  0  0  0  0  0  0  0  0  0  0  0
    3.2861    3.8842   16.2909 O   0  0  0  0  0  0  0  0  0  0  0  0
   -2.4547   10.0591    7.8388 C   0  0  1  0  0  0  0  0  0  0  0  0
   -2.1658   11.1821    8.8739 C   0  0  1  0  0  0  0  0  0  0  0  0
   -3.3289   12.2128    8.9216 C   0  0  2  0  0  0  0  0  0  0  0  0
   -3.6675   12.7956    7.5110 C   0  0  1  0  0  0  0  0  0  0  0  0
   -3.8298   11.6931    6.4220 C   0  0  0  0  0  0  0  0  0  0  0  0
   -2.6542   10.6700    6.4226 C   0  0  2  0  0  0  0  0  0  0  0  0
   -4.8683   13.6560    7.5727 N   0  0  0  0  0  0  0  0  0  0  0  0
   -2.9091    9.6322    5.4002 N   0  0  0  0  0  0  0  0  0  0  0  0
   -1.9246   10.6317   10.1647 O   0  0  0  0  0  0  0  0  0  0  0  0
   -3.0256   13.2638    9.8354 O   0  0  0  0  0  0  0  0  0  0  0  0
  1  2  1  0  0  0  0
  1 16  1  1  0  0  0
  2  3  1  0  0  0  0
  2 12  1  1  0  0  0
  4 11  1  1  0  0  0
  4  3  1  0  0  0  0
  5  4  1  0  0  0  0
  5 10  1  6  0  0  0
  6  7  1  0  0  0  0
  6  5  1  0  0  0  0
  6 14  1  1  0  0  0
  7  8  1  0  0  0  0
  7 13  1  6  0  0  0
  8 15  1  1  0  0  0
  8 11  1  0  0  0  0
  9 13  1  0  0  0  0
 10  1  1  0  0  0  0
 17 15  1  6  0  0  0
 17 18  1  0  0  0  0
 18 25  1  6  0  0  0
 19 18  1  0  0  0  0
 19 26  1  1  0  0  0
 20 19  1  0  0  0  0
 20 24  1  6  0  0  0
 21 23  1  0  0  0  0
 21 20  1  0  0  0  0
 21 22  1  1  0  0  0
 23 17  1  0  0  0  0
 27 22  1  0  0  0  0
 28 29  1  0  0  0  0
 28 16  1  6  0  0  0
 29 36  1  1  0  0  0
 30 37  1  1  0  0  0
 30 29  1  0  0  0  0
 31 30  1  0  0  0  0
 31 34  1  1  0  0  0
 32 31  1  0  0  0  0
 32 33  1  0  0  0  0
 33 28  1  0  0  0  0
 33 35  1  6  0  0  0
M  END
>  <CHROM.1>
-92.80701243,90.27861863,108.86427102,31.29801561,-93.40894874,-66.76434274
179.76204527,61.10205289,-177.80071683,174.65390320,64.33241212,130.76949351
73.39166833,61.54416560,70.33387436,-103.23249417,0.72111712,7.47183174,10.15451200
-3.05746185,-0.79597179,0.97019408

>  <Name>
lig.pdb

>  <RI>
0

>  <Rbt.Current_Directory>
/home/itssahil/PROJECTS/Mol_Feturizer/New_Systems/rnas/2m4q

>  <Rbt.Executable>
rbdock ($Id: //depot/dev/client3/rdock/2013.1/src/exe/rbdock.cxx#4 $)

>  <Rbt.Library>
libRbt.so (2013.1, Build901 2013/11/27)

>  <Rbt.Parameter_File>
/export/apps/rDock/src/rDock_2013.1_src/data/scripts/dock_solv.prm

>  <Rbt.Receptor>
prm/pocket_docking_7.prm

>  <SCORE>
-31.8946

>  <SCORE.INTER>
-21.0574

>  <SCORE.INTER.CONST>
1

>  <SCORE.INTER.POLAR>
-3.2226

>  <SCORE.INTER.ROT>
10

>  <SCORE.INTER.SOLV>
13.3925

>  <SCORE.INTER.VDW>
-18.027

>  <SCORE.INTER.norm>
-0.569118

>  <SCORE.INTRA>
-10.8373

>  <SCORE.INTRA.DIHEDRAL>
-19.6925

>  <SCORE.INTRA.DIHEDRAL.0>
44.8331

>  <SCORE.INTRA.POLAR>
-0.722825

>  <SCORE.INTRA.POLAR.0>
-0.108895

>  <SCORE.INTRA.REPUL>
-0.00912235

>  <SCORE.INTRA.REPUL.0>
0.00912235

>  <SCORE.INTRA.SOLV>
0.739479

>  <SCORE.INTRA.SOLV.lig_0>
-53.9067

>  <SCORE.INTRA.VDW>
1.14245

>  <SCORE.INTRA.VDW.0>
-2.93492

>  <SCORE.INTRA.norm>
-0.292899

>  <SCORE.RESTR>
0

>  <SCORE.RESTR.CAVITY>
0

>  <SCORE.RESTR.norm>
0

>  <SCORE.SYSTEM>
0

>  <SCORE.SYSTEM.CONST>
0

>  <SCORE.SYSTEM.DIHEDRAL>
0

>  <SCORE.SYSTEM.SOLV>
0

>  <SCORE.SYSTEM.norm>
0

>  <SCORE.heavy>
37

>  <SCORE.norm>
-0.862017

>  <RMSD>
2.716

$$$$
lig.pdb
 OpenBabel11021811453D
libRbt.so/2013.1/901 2013/11/27
 37 40  0  0  0  0  0  0  0  0999 V2000
   -2.4448    7.7131    9.1014 C   0  0  2  0  0  0  0  0  0  0  0  0
   -2.4938    6.9761   10.4804 C   0  0  1  0  0  0  0  0  0  0  0  0
   -1.0895    6.7788   11.1229 C   0  0  0  0  0  0  0  0  0  0  0  0
   -0.0872    6.1867   10.1012 C   0  0  1  0  0  0  0  0  0  0  0  0
   -0.0273    7.0820    8.8434 C   0  0  1  0  0  0  0  0  0  0  0  0
    1.0056    6.5371    7.8207 C   0  0  1  0  0  0  0  0  0  0  0  0
    2.3972    6.3345    8.4909 C   0  0  1  0  0  0  0  0  0  0  0  0
    2.2973    5.4985    9.8013 C   0  0  2  0  0  0  0  0  0  0  0  0
    4.7350    6.0422    7.8106 C   0  0  0  0  0  0  0  0  0  0  0  0
   -1.3535    7.2217    8.2572 O   0  0  0  0  0  0  0  0  0  0  0  0
    1.2382    5.9970   10.6751 O   0  0  0  0  0  0  0  0  0  0  0  0
   -3.3666    7.7207   11.4138 N   0  0  0  0  0  0  0  0  0  0  0  0
    3.3217    5.7237    7.5136 N   0  0  0  0  0  0  0  0  0  0  0  0
    0.5467    5.3363    7.2131 O   0  0  0  0  0  0  0  0  0  0  0  0
    3.5827    5.4738   10.4883 O   0  0  0  0  0  0  0  0  0  0  0  0
   -2.3412    9.1589    9.2790 O   0  0  0  0  0  0  0  0  0  0  0  0
    4.0110    6.6705   11.2083 C   0  0  2  0  0  0  0  0  0  0  0  0
    5.4488    6.4954   11.7746 C   0  0  1  0  0  0  0  0  0  0  0  0
    5.4838    5.4811   12.9535 C   0  0  2  0  0  0  0  0  0  0  0  0
    4.4416    5.8549   14.0472 C   0  0  1  0  0  0  0  0  0  0  0  0
    3.0275    6.0542   13.4339 C   0  0  1  0  0  0  0  0  0  0  0  0
    2.0069    6.5595   14.4872 C   0  0  0  0  0  0  0  0  0  0  0  0
    3.0896    6.9704   12.2989 O   0  0  0  0  0  0  0  0  0  0  0  0
    4.4211    4.8561   15.1383 N   0  0  0  0  0  0  0  0  0  0  0  0
    6.3554    6.1297   10.7358 O   0  0  0  0  0  0  0  0  0  0  0  0
    6.7944    5.3787   13.5060 O   0  0  0  0  0  0  0  0  0  0  0  0
    0.7185    6.7278   13.9050 O   0  0  0  0  0  0  0  0  0  0  0  0
   -3.2083   10.0047    8.4686 C   0  0  1  0  0  0  0  0  0  0  0  0
   -3.6839   11.2640    9.2459 C   0  0  1  0  0  0  0  0  0  0  0  0
   -4.6831   12.1012    8.3986 C   0  0  2  0  0  0  0  0  0  0  0  0
   -4.1099   12.4688    6.9915 C   0  0  1  0  0  0  0  0  0  0  0  0
   -3.5029   11.2435    6.2445 C   0  0  0  0  0  0  0  0  0  0  0  0
   -2.5241   10.4209    7.1355 C   0  0  2  0  0  0  0  0  0  0  0  0
   -5.1379   13.1345    6.1631 N   0  0  0  0  0  0  0  0  0  0  0  0
   -2.0345    9.2520    6.3731 N   0  0  0  0  0  0  0  0  0  0  0  0
   -4.2614   10.9001   10.4955 O   0  0  0  0  0  0  0  0  0  0  0  0
   -5.0683   13.2789    9.1031 O   0  0  0  0  0  0  0  0  0  0  0  0
  1  2  1  0  0  0  0
  1 16  1  1  0  0  0
  2  3  1  0  0  0  0
  2 12  1  1  0  0  0
  4 11  1  1  0  0  0
  4  3  1  0  0  0  0
  5  4  1  0  0  0  0
  5 10  1  6  0  0  0
  6  7  1  0  0  0  0
  6  5  1  0  0  0  0
  6 14  1  1  0  0  0
  7  8  1  0  0  0  0
  7 13  1  6  0  0  0
  8 15  1  1  0  0  0
  8 11  1  0  0  0  0
  9 13  1  0  0  0  0
 10  1  1  0  0  0  0
 17 15  1  1  0  0  0
 17 18  1  0  0  0  0
 18 25  1  6  0  0  0
 19 18  1  0  0  0  0
 19 26  1  1  0  0  0
 20 19  1  0  0  0  0
 20 24  1  1  0  0  0
 21 23  1  0  0  0  0
 21 20  1  0  0  0  0
 21 22  1  1  0  0  0
 23 17  1  0  0  0  0
 27 22  1  0  0  0  0
 28 29  1  0  0  0  0
 28 16  1  1  0  0  0
 29 36  1  1  0  0  0
 30 37  1  1  0  0  0
 30 29  1  0  0  0  0
 31 30  1  0  0  0  0
 31 34  1  6  0  0  0
 32 31  1  0  0  0  0
 32 33  1  0  0  0  0
 33 28  1  0  0  0  0
 33 35  1  6  0  0  0
M  END
>  <CHROM.1>
31.44509727,75.20141488,154.29753710,172.49141892,-175.35358407,-134.33603578
-179.95010083,66.32029917,-179.69052276,176.21175717,-57.82257376,144.35481729
-178.83007526,-75.49422437,170.79151889,56.98399831,0.37680735,7.75741655
10.03724578,2.73675590,0.56428453,-1.55367322

>  <Name>
lig.pdb

>  <RI>
0

>  <Rbt.Current_Directory>
/home/itssahil/PROJECTS/Mol_Feturizer/New_Systems/rnas/2m4q

>  <Rbt.Executable>
rbdock ($Id: //depot/dev/client3/rdock/2013.1/src/exe/rbdock.cxx#4 $)

>  <Rbt.Library>
libRbt.so (2013.1, Build901 2013/11/27)

>  <Rbt.Parameter_File>
/export/apps/rDock/src/rDock_2013.1_src/data/scripts/dock_solv.prm

>  <Rbt.Receptor>
prm/pocket_docking_3.prm

>  <SCORE>
-33.7439

>  <SCORE.INTER>
-15.9245

>  <SCORE.INTER.CONST>
1

>  <SCORE.INTER.POLAR>
-2.72571

>  <SCORE.INTER.ROT>
10

>  <SCORE.INTER.SOLV>
13.1938

>  <SCORE.INTER.VDW>
-16.1952

>  <SCORE.INTER.norm>
-0.430392

>  <SCORE.INTRA>
-17.8194

>  <SCORE.INTRA.DIHEDRAL>
-28.7503

>  <SCORE.INTRA.DIHEDRAL.0>
44.8331

>  <SCORE.INTRA.POLAR>
-0.652519

>  <SCORE.INTRA.POLAR.0>
-0.108895

>  <SCORE.INTRA.REPUL>
-0.00912235

>  <SCORE.INTRA.REPUL.0>
0.00912235

>  <SCORE.INTRA.SOLV>
0.0586217

>  <SCORE.INTRA.SOLV.lig_0>
-53.9067

>  <SCORE.INTRA.VDW>
-1.20943

>  <SCORE.INTRA.VDW.0>
-2.93492

>  <SCORE.INTRA.norm>
-0.481606

>  <SCORE.RESTR>
0

>  <SCORE.RESTR.CAVITY>
0

>  <SCORE.RESTR.norm>
0

>  <SCORE.SYSTEM>
0

>  <SCORE.SYSTEM.CONST>
0

>  <SCORE.SYSTEM.DIHEDRAL>
0

>  <SCORE.SYSTEM.SOLV>
0

>  <SCORE.SYSTEM.norm>
0

>  <SCORE.heavy>
37

>  <SCORE.norm>
-0.911998

>  <RMSD>
2.729

$$$$
lig.pdb
 OpenBabel11021811453D
libRbt.so/2013.1/901 2013/11/27
 37 40  0  0  0  0  0  0  0  0999 V2000
   -1.4881    7.5969    8.9281 C   0  0  2  0  0  0  0  0  0  0  0  0
   -1.9885    6.8573   10.2126 C   0  0  1  0  0  0  0  0  0  0  0  0
   -0.8353    6.4439   11.1733 C   0  0  0  0  0  0  0  0  0  0  0  0
    0.2991    5.7222   10.4044 C   0  0  1  0  0  0  0  0  0  0  0  0
    0.8018    6.6150    9.2479 C   0  0  1  0  0  0  0  0  0  0  0  0
    1.9724    5.9353    8.4880 C   0  0  1  0  0  0  0  0  0  0  0  0
    3.1056    5.5183    9.4721 C   0  0  1  0  0  0  0  0  0  0  0  0
    2.5599    4.6894   10.6727 C   0  0  2  0  0  0  0  0  0  0  0  0
    5.5133    5.1945    9.1370 C   0  0  0  0  0  0  0  0  0  0  0  0
   -0.2992    6.9590    8.3581 O   0  0  0  0  0  0  0  0  0  0  0  0
    1.3953    5.3290   11.2796 O   0  0  0  0  0  0  0  0  0  0  0  0
   -2.9551    7.7116   10.9360 N   0  0  0  0  0  0  0  0  0  0  0  0
    4.1518    4.7891    8.7259 N   0  0  0  0  0  0  0  0  0  0  0  0
    1.5175    4.8247    7.7256 O   0  0  0  0  0  0  0  0  0  0  0  0
    3.6123    4.4638   11.6556 O   0  0  0  0  0  0  0  0  0  0  0  0
   -1.2296    9.0084    9.1986 O   0  0  0  0  0  0  0  0  0  0  0  0
    3.2738    3.7594   12.8897 C   0  0  2  0  0  0  0  0  0  0  0  0
    4.3487    4.0078   13.9859 C   0  0  1  0  0  0  0  0  0  0  0  0
    5.6856    3.2841   13.6559 C   0  0  2  0  0  0  0  0  0  0  0  0
    5.4501    1.7731   13.3676 C   0  0  1  0  0  0  0  0  0  0  0  0
    4.3457    1.5696   12.2931 C   0  0  1  0  0  0  0  0  0  0  0  0
    4.0034    0.0698   12.0934 C   0  0  0  0  0  0  0  0  0  0  0  0
    3.1480    2.3268   12.6446 O   0  0  0  0  0  0  0  0  0  0  0  0
    6.7072    1.0933   12.9853 N   0  0  0  0  0  0  0  0  0  0  0  0
    4.5413    5.4062   14.1910 O   0  0  0  0  0  0  0  0  0  0  0  0
    6.6405    3.4656   14.6993 O   0  0  0  0  0  0  0  0  0  0  0  0
    4.4907   -0.3991   10.8403 O   0  0  0  0  0  0  0  0  0  0  0  0
   -1.2871    9.9349    8.0751 C   0  0  1  0  0  0  0  0  0  0  0  0
   -0.2794    9.5536    6.9546 C   0  0  1  0  0  0  0  0  0  0  0  0
   -0.2879   10.6070    5.8112 C   0  0  2  0  0  0  0  0  0  0  0  0
   -1.7222   10.8578    5.2421 C   0  0  1  0  0  0  0  0  0  0  0  0
   -2.7816   11.1101    6.3565 C   0  0  0  0  0  0  0  0  0  0  0  0
   -2.7247   10.0445    7.4922 C   0  0  2  0  0  0  0  0  0  0  0  0
   -1.7126   11.9662    4.2636 N   0  0  0  0  0  0  0  0  0  0  0  0
   -3.7215   10.3836    8.5308 N   0  0  0  0  0  0  0  0  0  0  0  0
    1.0322    9.3941    7.4856 O   0  0  0  0  0  0  0  0  0  0  0  0
    0.6010   10.2162    4.7677 O   0  0  0  0  0  0  0  0  0  0  0  0
  1  2  1  0  0  0  0
  1 16  1  1  0  0  0
  2  3  1  0  0  0  0
  2 12  1  1  0  0  0
  4 11  1  1  0  0  0
  4  3  1  0  0  0  0
  5  4  1  0  0  0  0
  5 10  1  6  0  0  0
  6  7  1  0  0  0  0
  6  5  1  0  0  0  0
  6 14  1  1  0  0  0
  7  8  1  0  0  0  0
  7 13  1  6  0  0  0
  8 15  1  1  0  0  0
  8 11  1  0  0  0  0
  9 13  1  0  0  0  0
 10  1  1  0  0  0  0
 17 15  1  6  0  0  0
 17 18  1  0  0  0  0
 18 25  1  6  0  0  0
 19 18  1  0  0  0  0
 19 26  1  1  0  0  0
 20 19  1  0  0  0  0
 20 24  1  6  0  0  0
 21 23  1  0  0  0  0
 21 20  1  0  0  0  0
 21 22  1  1  0  0  0
 23 17  1  0  0  0  0
 27 22  1  0  0  0  0
 28 29  1  0  0  0  0
 28 16  1  1  0  0  0
 29 36  1  1  0  0  0
 30 37  1  6  0  0  0
 30 29  1  0  0  0  0
 31 30  1  0  0  0  0
 31 34  1  6  0  0  0
 32 31  1  0  0  0  0
 32 33  1  0  0  0  0
 33 28  1  0  0  0  0
 33 35  1  1  0  0  0
M  END
>  <CHROM.1>
170.49302534,176.96240331,137.81278114,-65.80029034,-161.62312072,-155.78064388
176.92679228,-63.69372423,-108.53476047,-179.56193231,-62.02805751,-58.44049755
60.79375103,70.85857381,-54.15169924,-123.29217575,1.54523625,6.14277862
9.84942063,2.27030695,0.51122527,-1.04301420

>  <Name>
lig.pdb

>  <RI>
2.86754e+07

>  <Rbt.Current_Directory>
/home/itssahil/PROJECTS/Mol_Feturizer/New_Systems/rnas/2m4q

>  <Rbt.Executable>
rbdock ($Id: //depot/dev/client3/rdock/2013.1/src/exe/rbdock.cxx#4 $)

>  <Rbt.Library>
libRbt.so (2013.1, Build901 2013/11/27)

>  <Rbt.Parameter_File>
/export/apps/rDock/src/rDock_2013.1_src/data/scripts/dock_solv.prm

>  <Rbt.Receptor>
prm/pocket_docking_5.prm

>  <SCORE>
-47.9444

>  <SCORE.INTER>
-32.7327

>  <SCORE.INTER.CONST>
1

>  <SCORE.INTER.POLAR>
-5.47504

>  <SCORE.INTER.ROT>
10

>  <SCORE.INTER.SOLV>
16.3144

>  <SCORE.INTER.VDW>
-19.2765

>  <SCORE.INTER.norm>
-0.884668

>  <SCORE.INTRA>
-15.2117

>  <SCORE.INTRA.DIHEDRAL>
-30.0795

>  <SCORE.INTRA.DIHEDRAL.0>
44.8331

>  <SCORE.INTRA.POLAR>
-0.0427421

>  <SCORE.INTRA.POLAR.0>
-0.108895

>  <SCORE.INTRA.REPUL>
-0.00912235

>  <SCORE.INTRA.REPUL.0>
0.00912235

>  <SCORE.INTRA.SOLV>
-1.46453

>  <SCORE.INTRA.SOLV.lig_0>
-53.9067

>  <SCORE.INTRA.VDW>
0.751282

>  <SCORE.INTRA.VDW.0>
-2.93492

>  <SCORE.INTRA.norm>
-0.411126

>  <SCORE.RESTR>
0

>  <SCORE.RESTR.CAVITY>
0

>  <SCORE.RESTR.norm>
0

>  <SCORE.SYSTEM>
0

>  <SCORE.SYSTEM.CONST>
0

>  <SCORE.SYSTEM.DIHEDRAL>
0

>  <SCORE.SYSTEM.SOLV>
0

>  <SCORE.SYSTEM.norm>
0

>  <SCORE.heavy>
37

>  <SCORE.norm>
-1.29579

>  <RMSD>
2.802

$$$$
lig.pdb
 OpenBabel11021811453D
libRbt.so/2013.1/901 2013/11/27
 37 40  0  0  0  0  0  0  0  0999 V2000
   -3.1323    8.9764   11.2168 C   0  0  2  0  0  0  0  0  0  0  0  0
   -3.4977    8.7757   12.7246 C   0  0  1  0  0  0  0  0  0  0  0  0
   -2.3011    8.2773   13.5868 C   0  0  0  0  0  0  0  0  0  0  0  0
   -1.5976    7.0697   12.9191 C   0  0  1  0  0  0  0  0  0  0  0  0
   -1.1614    7.4422   11.4844 C   0  0  1  0  0  0  0  0  0  0  0  0
   -0.4111    6.2642   10.8070 C   0  0  1  0  0  0  0  0  0  0  0  0
    0.7712    5.7745   11.6952 C   0  0  1  0  0  0  0  0  0  0  0  0
    0.3210    5.4850   13.1580 C   0  0  2  0  0  0  0  0  0  0  0  0
    2.1878    4.9548    9.8689 C   0  0  0  0  0  0  0  0  0  0  0  0
   -2.3106    7.8784   10.7026 O   0  0  0  0  0  0  0  0  0  0  0  0
   -0.4689    6.5863   13.7029 O   0  0  0  0  0  0  0  0  0  0  0  0
   -4.0201   10.0411   13.2845 N   0  0  0  0  0  0  0  0  0  0  0  0
    1.3951    4.5932   11.0639 N   0  0  0  0  0  0  0  0  0  0  0  0
   -1.2982    5.1974   10.4961 O   0  0  0  0  0  0  0  0  0  0  0  0
    1.4765    5.1959   13.9982 O   0  0  0  0  0  0  0  0  0  0  0  0
   -2.4650   10.2573   11.0014 O   0  0  0  0  0  0  0  0  0  0  0  0
    1.9198    3.8093   14.1201 C   0  0  2  0  0  0  0  0  0  0  0  0
    2.6315    3.5695   15.4820 C   0  0  1  0  0  0  0  0  0  0  0  0
    4.0191    4.2705   15.5378 C   0  0  2  0  0  0  0  0  0  0  0  0
    4.8976    3.8755   14.3155 C   0  0  1  0  0  0  0  0  0  0  0  0
    4.1366    4.0979   12.9788 C   0  0  1  0  0  0  0  0  0  0  0  0
    4.9463    3.5819   11.7603 C   0  0  0  0  0  0  0  0  0  0  0  0
    2.8235    3.4619   13.0288 O   0  0  0  0  0  0  0  0  0  0  0  0
    6.1918    4.5920   14.3259 N   0  0  0  0  0  0  0  0  0  0  0  0
    1.7925    3.9713   16.5633 O   0  0  0  0  0  0  0  0  0  0  0  0
    4.6891    3.9893   16.7648 O   0  0  0  0  0  0  0  0  0  0  0  0
    5.1283    2.1716   11.8328 O   0  0  0  0  0  0  0  0  0  0  0  0
   -2.0549   10.5872    9.6424 C   0  0  1  0  0  0  0  0  0  0  0  0
   -3.1974   11.2702    8.8397 C   0  0  1  0  0  0  0  0  0  0  0  0
   -2.7719   11.5255    7.3663 C   0  0  2  0  0  0  0  0  0  0  0  0
   -1.4314   12.3230    7.2622 C   0  0  1  0  0  0  0  0  0  0  0  0
   -0.3046   11.7361    8.1642 C   0  0  0  0  0  0  0  0  0  0  0  0
   -0.7789   11.4761    9.6258 C   0  0  2  0  0  0  0  0  0  0  0  0
   -0.9847   12.4182    5.8560 N   0  0  0  0  0  0  0  0  0  0  0  0
    0.3286   10.8736   10.3990 N   0  0  0  0  0  0  0  0  0  0  0  0
   -4.3896   10.4936    8.8946 O   0  0  0  0  0  0  0  0  0  0  0  0
   -3.8092   12.1997    6.6582 O   0  0  0  0  0  0  0  0  0  0  0  0
  1  2  1  0  0  0  0
  1 16  1  1  0  0  0
  2  3  1  0  0  0  0
  2 12  1  1  0  0  0
  4 11  1  1  0  0  0
  4  3  1  0  0  0  0
  5  4  1  0  0  0  0
  5 10  1  6  0  0  0
  6  7  1  0  0  0  0
  6  5  1  0  0  0  0
  6 14  1  1  0  0  0
  7  8  1  0  0  0  0
  7 13  1  6  0  0  0
  8 15  1  1  0  0  0
  8 11  1  0  0  0  0
  9 13  1  0  0  0  0
 10  1  1  0  0  0  0
 17 15  1  6  0  0  0
 17 18  1  0  0  0  0
 18 25  1  1  0  0  0
 19 18  1  0  0  0  0
 19 26  1  1  0  0  0
 20 19  1  0  0  0  0
 20 24  1  6  0  0  0
 21 23  1  0  0  0  0
 21 20  1  0  0  0  0
 21 22  1  6  0  0  0
 23 17  1  0  0  0  0
 27 22  1  0  0  0  0
 28 29  1  0  0  0  0
 28 16  1  1  0  0  0
 29 36  1  6  0  0  0
 30 37  1  1  0  0  0
 30 29  1  0  0  0  0
 31 30  1  0  0  0  0
 31 34  1  6  0  0  0
 32 31  1  0  0  0  0
 32 33  1  0  0  0  0
 33 28  1  0  0  0  0
 33 35  1  1  0  0  0
M  END
>  <CHROM.1>
-47.56482289,-90.03673246,73.11629240,-164.50200928,-152.40413746,179.70481150
176.89216209,59.28697078,63.95275190,178.52085046,178.35985775,86.64065219
-64.20508092,66.15779757,178.02589528,-178.07623018,0.22066913,7.24735041
11.65659871,2.27653348,0.50679138,-1.02745428

>  <Name>
lig.pdb

>  <RI>
2.86754e+07

>  <Rbt.Current_Directory>
/home/itssahil/PROJECTS/Mol_Feturizer/New_Systems/rnas/2m4q

>  <Rbt.Executable>
rbdock ($Id: //depot/dev/client3/rdock/2013.1/src/exe/rbdock.cxx#4 $)

>  <Rbt.Library>
libRbt.so (2013.1, Build901 2013/11/27)

>  <Rbt.Parameter_File>
/export/apps/rDock/src/rDock_2013.1_src/data/scripts/dock_solv.prm

>  <Rbt.Receptor>
prm/pocket_docking_5.prm

>  <SCORE>
-33.7455

>  <SCORE.INTER>
-13.7007

>  <SCORE.INTER.CONST>
1

>  <SCORE.INTER.POLAR>
-3.05152

>  <SCORE.INTER.ROT>
10

>  <SCORE.INTER.SOLV>
9.91716

>  <SCORE.INTER.VDW>
-12.5344

>  <SCORE.INTER.norm>
-0.370289

>  <SCORE.INTRA>
-20.0448

>  <SCORE.INTRA.DIHEDRAL>
-32.3096

>  <SCORE.INTRA.DIHEDRAL.0>
44.8331

>  <SCORE.INTRA.POLAR>
-1.09057

>  <SCORE.INTRA.POLAR.0>
-0.108895

>  <SCORE.INTRA.REPUL>
-0.00912235

>  <SCORE.INTRA.REPUL.0>
0.00912235

>  <SCORE.INTRA.SOLV>
-0.950813

>  <SCORE.INTRA.SOLV.lig_0>
-53.9067

>  <SCORE.INTRA.VDW>
0.338959

>  <SCORE.INTRA.VDW.0>
-2.93492

>  <SCORE.INTRA.norm>
-0.541751

>  <SCORE.RESTR>
0

>  <SCORE.RESTR.CAVITY>
0

>  <SCORE.RESTR.norm>
0

>  <SCORE.SYSTEM>
0

>  <SCORE.SYSTEM.CONST>
0

>  <SCORE.SYSTEM.DIHEDRAL>
0

>  <SCORE.SYSTEM.SOLV>
0

>  <SCORE.SYSTEM.norm>
0

>  <SCORE.heavy>
37

>  <SCORE.norm>
-0.91204

>  <RMSD>
2.873

$$$$
lig.pdb
 OpenBabel11021811453D
libRbt.so/2013.1/901 2013/11/27
 37 40  0  0  0  0  0  0  0  0999 V2000
   -1.8299    7.6932    8.8384 C   0  0  2  0  0  0  0  0  0  0  0  0
   -2.1592    6.9134   10.1539 C   0  0  1  0  0  0  0  0  0  0  0  0
   -0.8909    6.4368   10.9207 C   0  0  0  0  0  0  0  0  0  0  0  0
    0.1004    5.7225    9.9689 C   0  0  1  0  0  0  0  0  0  0  0  0
    0.4546    6.6502    8.7852 C   0  0  1  0  0  0  0  0  0  0  0  0
    1.4841    5.9768    7.8385 C   0  0  1  0  0  0  0  0  0  0  0  0
    2.7360    5.4961    8.6312 C   0  0  1  0  0  0  0  0  0  0  0  0
    2.3473    4.6313    9.8670 C   0  0  2  0  0  0  0  0  0  0  0  0
    4.6229    5.6804    7.0757 C   0  0  0  0  0  0  0  0  0  0  0  0
   -0.7537    7.0535    8.0784 O   0  0  0  0  0  0  0  0  0  0  0  0
    1.3005    5.2708   10.6601 O   0  0  0  0  0  0  0  0  0  0  0  0
   -2.9876    7.7583   11.0413 N   0  0  0  0  0  0  0  0  0  0  0  0
    3.6431    4.7753    7.7143 N   0  0  0  0  0  0  0  0  0  0  0  0
    0.8939    4.9080    7.1100 O   0  0  0  0  0  0  0  0  0  0  0  0
    3.5243    4.3437   10.6773 O   0  0  0  0  0  0  0  0  0  0  0  0
   -1.4968    9.0869    9.1203 O   0  0  0  0  0  0  0  0  0  0  0  0
    3.3450    3.6238   11.9357 C   0  0  2  0  0  0  0  0  0  0  0  0
    3.6331    4.5483   13.1526 C   0  0  1  0  0  0  0  0  0  0  0  0
    5.1480    4.8783   13.2791 C   0  0  2  0  0  0  0  0  0  0  0  0
    6.0070    3.5806   13.2855 C   0  0  1  0  0  0  0  0  0  0  0  0
    5.6630    2.6708   12.0733 C   0  0  1  0  0  0  0  0  0  0  0  0
    6.4111    1.3135   12.1390 C   0  0  0  0  0  0  0  0  0  0  0  0
    4.2211    2.4584   11.9893 O   0  0  0  0  0  0  0  0  0  0  0  0
    7.4528    3.8896   13.3358 N   0  0  0  0  0  0  0  0  0  0  0  0
    2.8386    5.7309   13.0824 O   0  0  0  0  0  0  0  0  0  0  0  0
    5.4073    5.6721   14.4350 O   0  0  0  0  0  0  0  0  0  0  0  0
    5.9760    0.5483   13.2581 O   0  0  0  0  0  0  0  0  0  0  0  0
   -1.1760    9.9485    7.9895 C   0  0  1  0  0  0  0  0  0  0  0  0
    0.1013    9.4745    7.2411 C   0  0  1  0  0  0  0  0  0  0  0  0
    0.4804   10.4603    6.1002 C   0  0  2  0  0  0  0  0  0  0  0  0
   -0.7069   10.7193    5.1168 C   0  0  1  0  0  0  0  0  0  0  0  0
   -2.0375   11.0656    5.8499 C   0  0  0  0  0  0  0  0  0  0  0  0
   -2.3687   10.0658    6.9985 C   0  0  2  0  0  0  0  0  0  0  0  0
   -0.3571   11.7689    4.1360 N   0  0  0  0  0  0  0  0  0  0  0  0
   -3.6131   10.4928    7.6742 N   0  0  0  0  0  0  0  0  0  0  0  0
    1.1870    9.3080    8.1472 O   0  0  0  0  0  0  0  0  0  0  0  0
    1.6211    9.9847    5.3900 O   0  0  0  0  0  0  0  0  0  0  0  0
  1  2  1  0  0  0  0
  1 16  1  1  0  0  0
  2  3  1  0  0  0  0
  2 12  1  1  0  0  0
  4 11  1  1  0  0  0
  4  3  1  0  0  0  0
  5  4  1  0  0  0  0
  5 10  1  6  0  0  0
  6  7  1  0  0  0  0
  6  5  1  0  0  0  0
  6 14  1  1  0  0  0
  7  8  1  0  0  0  0
  7 13  1  6  0  0  0
  8 15  1  1  0  0  0
  8 11  1  0  0  0  0
  9 13  1  0  0  0  0
 10  1  1  0  0  0  0
 17 15  1  6  0  0  0
 17 18  1  0  0  0  0
 18 25  1  6  0  0  0
 19 18  1  0  0  0  0
 19 26  1  1  0  0  0
 20 19  1  0  0  0  0
 20 24  1  6  0  0  0
 21 23  1  0  0  0  0
 21 20  1  0  0  0  0
 21 22  1  1  0  0  0
 23 17  1  0  0  0  0
 27 22  1  0  0  0  0
 28 29  1  0  0  0  0
 28 16  1  1  0  0  0
 29 36  1  1  0  0  0
 30 37  1  6  0  0  0
 30 29  1  0  0  0  0
 31 30  1  0  0  0  0
 31 34  1  6  0  0  0
 32 31  1  0  0  0  0
 32 33  1  0  0  0  0
 33 28  1  0  0  0  0
 33 35  1  1  0  0  0
M  END
>  <CHROM.1>
165.02841910,175.60066423,90.02512931,27.45887009,-111.16908506,-179.49937712
34.24280389,-58.99907884,65.21952628,174.39299728,169.14817417,-63.18842734
174.02981135,-66.09887766,-59.26808498,-98.92122497,1.65918179,6.48916135
9.56055327,2.27904394,0.41732113,-1.04764038

>  <Name>
lig.pdb

>  <RI>
2.86754e+07

>  <Rbt.Current_Directory>
/home/itssahil/PROJECTS/Mol_Feturizer/New_Systems/rnas/2m4q

>  <Rbt.Executable>
rbdock ($Id: //depot/dev/client3/rdock/2013.1/src/exe/rbdock.cxx#4 $)

>  <Rbt.Library>
libRbt.so (2013.1, Build901 2013/11/27)

>  <Rbt.Parameter_File>
/export/apps/rDock/src/rDock_2013.1_src/data/scripts/dock_solv.prm

>  <Rbt.Receptor>
prm/pocket_docking_5.prm

>  <SCORE>
-41.3671

>  <SCORE.INTER>
-25.9463

>  <SCORE.INTER.CONST>
1

>  <SCORE.INTER.POLAR>
-4.27867

>  <SCORE.INTER.ROT>
10

>  <SCORE.INTER.SOLV>
15.1677

>  <SCORE.INTER.VDW>
-18.3578

>  <SCORE.INTER.norm>
-0.701251

>  <SCORE.INTRA>
-15.4209

>  <SCORE.INTRA.DIHEDRAL>
-26.1481

>  <SCORE.INTRA.DIHEDRAL.0>
44.8331

>  <SCORE.INTRA.POLAR>
-0.751587

>  <SCORE.INTRA.POLAR.0>
-0.108895

>  <SCORE.INTRA.REPUL>
-0.00912235

>  <SCORE.INTRA.REPUL.0>
0.00912235

>  <SCORE.INTRA.SOLV>
-0.850819

>  <SCORE.INTRA.SOLV.lig_0>
-53.9067

>  <SCORE.INTRA.VDW>
0.679568

>  <SCORE.INTRA.VDW.0>
-2.93492

>  <SCORE.INTRA.norm>
-0.41678

>  <SCORE.RESTR>
0

>  <SCORE.RESTR.CAVITY>
0

>  <SCORE.RESTR.norm>
0

>  <SCORE.SYSTEM>
0

>  <SCORE.SYSTEM.CONST>
0

>  <SCORE.SYSTEM.DIHEDRAL>
0

>  <SCORE.SYSTEM.SOLV>
0

>  <SCORE.SYSTEM.norm>
0

>  <SCORE.heavy>
37

>  <SCORE.norm>
-1.11803

>  <RMSD>
2.890

$$$$
lig.pdb
 OpenBabel11021811453D
libRbt.so/2013.1/901 2013/11/27
 37 40  0  0  0  0  0  0  0  0999 V2000
   -1.3199    7.6568    7.5895 C   0  0  2  0  0  0  0  0  0  0  0  0
   -2.1504    7.3398    8.8766 C   0  0  1  0  0  0  0  0  0  0  0  0
   -1.2657    7.0679   10.1285 C   0  0  0  0  0  0  0  0  0  0  0  0
   -0.1441    6.0491    9.8077 C   0  0  1  0  0  0  0  0  0  0  0  0
    0.6907    6.5463    8.6064 C   0  0  1  0  0  0  0  0  0  0  0  0
    1.8526    5.5662    8.2919 C   0  0  1  0  0  0  0  0  0  0  0  0
    2.7133    5.2991    9.5626 C   0  0  1  0  0  0  0  0  0  0  0  0
    1.8392    4.8794   10.7816 C   0  0  2  0  0  0  0  0  0  0  0  0
    5.0765    4.6744    9.7593 C   0  0  0  0  0  0  0  0  0  0  0  0
   -0.1669    6.7645    7.4492 O   0  0  0  0  0  0  0  0  0  0  0  0
    0.7036    5.7804   10.9616 O   0  0  0  0  0  0  0  0  0  0  0  0
   -3.0800    8.4552    9.1584 N   0  0  0  0  0  0  0  0  0  0  0  0
    3.7441    4.2888    9.2465 N   0  0  0  0  0  0  0  0  0  0  0  0
    1.3673    4.3519    7.7338 O   0  0  0  0  0  0  0  0  0  0  0  0
    2.6522    4.8046   11.9890 O   0  0  0  0  0  0  0  0  0  0  0  0
   -0.8905    9.0524    7.5687 O   0  0  0  0  0  0  0  0  0  0  0  0
    2.0502    4.2557   13.2015 C   0  0  2  0  0  0  0  0  0  0  0  0
    1.9275    5.3447   14.3050 C   0  0  1  0  0  0  0  0  0  0  0  0
    3.3171    5.7369   14.8839 C   0  0  2  0  0  0  0  0  0  0  0  0
    4.1042    4.4801   15.3558 C   0  0  1  0  0  0  0  0  0  0  0  0
    4.1729    3.4046   14.2360 C   0  0  1  0  0  0  0  0  0  0  0  0
    4.8347    2.0931   14.7344 C   0  0  0  0  0  0  0  0  0  0  0  0
    2.8396    3.1368   13.7050 O   0  0  0  0  0  0  0  0  0  0  0  0
    5.4540    4.8390   15.8434 N   0  0  0  0  0  0  0  0  0  0  0  0
    1.2208    6.4810   13.8112 O   0  0  0  0  0  0  0  0  0  0  0  0
    3.1858    6.6873   15.9389 O   0  0  0  0  0  0  0  0  0  0  0  0
    6.2062    2.3061   15.0522 O   0  0  0  0  0  0  0  0  0  0  0  0
   -1.9079   10.0707    7.3411 C   0  0  1  0  0  0  0  0  0  0  0  0
   -1.4999   11.4450    7.9419 C   0  0  1  0  0  0  0  0  0  0  0  0
   -2.6384   12.4903    7.7736 C   0  0  2  0  0  0  0  0  0  0  0  0
   -3.1122   12.6224    6.2897 C   0  0  1  0  0  0  0  0  0  0  0  0
   -3.3997   11.2453    5.6197 C   0  0  0  0  0  0  0  0  0  0  0  0
   -2.2437   10.2215    5.8302 C   0  0  2  0  0  0  0  0  0  0  0  0
   -4.2891   13.5120    6.1913 N   0  0  0  0  0  0  0  0  0  0  0  0
   -2.6156    8.9306    5.2116 N   0  0  0  0  0  0  0  0  0  0  0  0
   -1.1347   11.3110    9.3116 O   0  0  0  0  0  0  0  0  0  0  0  0
   -2.2293   13.7580    8.2808 O   0  0  0  0  0  0  0  0  0  0  0  0
  1  2  1  0  0  0  0
  1 16  1  1  0  0  0
  2  3  1  0  0  0  0
  2 12  1  1  0  0  0
  4 11  1  1  0  0  0
  4  3  1  0  0  0  0
  5  4  1  0  0  0  0
  5 10  1  6  0  0  0
  6  7  1  0  0  0  0
  6  5  1  0  0  0  0
  6 14  1  1  0  0  0
  7  8  1  0  0  0  0
  7 13  1  6  0  0  0
  8 15  1  1  0  0  0
  8 11  1  0  0  0  0
  9 13  1  0  0  0  0
 10  1  1  0  0  0  0
 17 15  1  6  0  0  0
 17 18  1  0  0  0  0
 18 25  1  6  0  0  0
 19 18  1  0  0  0  0
 19 26  1  1  0  0  0
 20 19  1  0  0  0  0
 20 24  1  6  0  0  0
 21 23  1  0  0  0  0
 21 20  1  0  0  0  0
 21 22  1  1  0  0  0
 23 17  1  0  0  0  0
 27 22  1  0  0  0  0
 28 29  1  0  0  0  0
 28 16  1  6  0  0  0
 29 36  1  1  0  0  0
 30 37  1  6  0  0  0
 30 29  1  0  0  0  0
 31 30  1  0  0  0  0
 31 34  1  1  0  0  0
 32 31  1  0  0  0  0
 32 33  1  0  0  0  0
 33 28  1  0  0  0  0
 33 35  1  1  0  0  0
M  END
>  <CHROM.1>
173.98839496,-171.99814259,134.41132587,-172.97699048,-114.24062681,-71.01238163
-28.21874993,-56.09547237,-65.87647086,-54.69753531,177.77221310,154.76591317
179.34102781,-58.83403568,62.81872342,-87.15534496,0.72391252,7.11075223
10.26402357,-2.92074743,-0.96819825,1.05312922

>  <Name>
lig.pdb

>  <RI>
0

>  <Rbt.Current_Directory>
/home/itssahil/PROJECTS/Mol_Feturizer/New_Systems/rnas/2m4q

>  <Rbt.Executable>
rbdock ($Id: //depot/dev/client3/rdock/2013.1/src/exe/rbdock.cxx#4 $)

>  <Rbt.Library>
libRbt.so (2013.1, Build901 2013/11/27)

>  <Rbt.Parameter_File>
/export/apps/rDock/src/rDock_2013.1_src/data/scripts/dock_solv.prm

>  <Rbt.Receptor>
prm/pocket_docking_6.prm

>  <SCORE>
-36.1097

>  <SCORE.INTER>
-20.2586

>  <SCORE.INTER.CONST>
1

>  <SCORE.INTER.POLAR>
-3.45799

>  <SCORE.INTER.ROT>
10

>  <SCORE.INTER.SOLV>
13.5871

>  <SCORE.INTER.VDW>
-16.7748

>  <SCORE.INTER.norm>
-0.547529

>  <SCORE.INTRA>
-15.8511

>  <SCORE.INTRA.DIHEDRAL>
-26.3071

>  <SCORE.INTRA.DIHEDRAL.0>
44.8331

>  <SCORE.INTRA.POLAR>
-0.93977

>  <SCORE.INTRA.POLAR.0>
-0.108895

>  <SCORE.INTRA.REPUL>
-0.00912235

>  <SCORE.INTRA.REPUL.0>
0.00912235

>  <SCORE.INTRA.SOLV>
-0.25083

>  <SCORE.INTRA.SOLV.lig_0>
-53.9067

>  <SCORE.INTRA.VDW>
0.668705

>  <SCORE.INTRA.VDW.0>
-2.93492

>  <SCORE.INTRA.norm>
-0.428408

>  <SCORE.RESTR>
0

>  <SCORE.RESTR.CAVITY>
0

>  <SCORE.RESTR.norm>
0

>  <SCORE.SYSTEM>
0

>  <SCORE.SYSTEM.CONST>
0

>  <SCORE.SYSTEM.DIHEDRAL>
0

>  <SCORE.SYSTEM.SOLV>
0

>  <SCORE.SYSTEM.norm>
0

>  <SCORE.heavy>
37

>  <SCORE.norm>
-0.975937

>  <RMSD>
2.894

$$$$
lig.pdb
 OpenBabel11021811453D
libRbt.so/2013.1/901 2013/11/27
 37 40  0  0  0  0  0  0  0  0999 V2000
   -3.1050    9.6160    9.7214 C   0  0  2  0  0  0  0  0  0  0  0  0
   -2.8228    9.9947   11.2128 C   0  0  1  0  0  0  0  0  0  0  0  0
   -1.3501    9.7351   11.6455 C   0  0  0  0  0  0  0  0  0  0  0  0
   -0.8904    8.3143   11.2345 C   0  0  1  0  0  0  0  0  0  0  0  0
   -1.0906    8.1154    9.7153 C   0  0  1  0  0  0  0  0  0  0  0  0
   -0.5941    6.7147    9.2669 C   0  0  1  0  0  0  0  0  0  0  0  0
    0.8754    6.4736    9.7242 C   0  0  1  0  0  0  0  0  0  0  0  0
    1.0683    6.7610   11.2429 C   0  0  2  0  0  0  0  0  0  0  0  0
    1.8015    5.0117    7.9868 C   0  0  0  0  0  0  0  0  0  0  0  0
   -2.4836    8.3417    9.3539 O   0  0  0  0  0  0  0  0  0  0  0  0
    0.4878    8.0465   11.6225 O   0  0  0  0  0  0  0  0  0  0  0  0
   -3.1639   11.4158   11.4402 N   0  0  0  0  0  0  0  0  0  0  0  0
    1.2750    5.0970    9.3661 N   0  0  0  0  0  0  0  0  0  0  0  0
   -1.4555    5.6862    9.7378 O   0  0  0  0  0  0  0  0  0  0  0  0
    2.4801    6.6918   11.5986 O   0  0  0  0  0  0  0  0  0  0  0  0
   -2.6696   10.6758    8.8161 O   0  0  0  0  0  0  0  0  0  0  0  0
    2.8532    6.8427   13.0028 C   0  0  2  0  0  0  0  0  0  0  0  0
    4.3977    6.9290   13.1630 C   0  0  1  0  0  0  0  0  0  0  0  0
    5.0833    5.5619   12.8786 C   0  0  2  0  0  0  0  0  0  0  0  0
    4.4467    4.4261   13.7311 C   0  0  1  0  0  0  0  0  0  0  0  0
    2.9013    4.3978   13.5687 C   0  0  1  0  0  0  0  0  0  0  0  0
    2.2398    3.3618   14.5151 C   0  0  0  0  0  0  0  0  0  0  0  0
    2.3417    5.7276   13.7922 O   0  0  0  0  0  0  0  0  0  0  0  0
    5.0471    3.1115   13.4149 N   0  0  0  0  0  0  0  0  0  0  0  0
    4.9293    7.9676   12.3425 O   0  0  0  0  0  0  0  0  0  0  0  0
    6.4911    5.6375   13.0922 O   0  0  0  0  0  0  0  0  0  0  0  0
    2.5736    2.0336   14.1256 O   0  0  0  0  0  0  0  0  0  0  0  0
   -3.1003   10.5986    7.4260 C   0  0  1  0  0  0  0  0  0  0  0  0
   -4.2441   11.6041    7.1147 C   0  0  1  0  0  0  0  0  0  0  0  0
   -4.7541   11.4383    5.6554 C   0  0  2  0  0  0  0  0  0  0  0  0
   -3.5989   11.5292    4.6061 C   0  0  1  0  0  0  0  0  0  0  0  0
   -2.3792   10.6292    4.9668 C   0  0  0  0  0  0  0  0  0  0  0  0
   -1.9140   10.8109    6.4431 C   0  0  2  0  0  0  0  0  0  0  0  0
   -4.0973   11.2217    3.2484 N   0  0  0  0  0  0  0  0  0  0  0  0
   -0.7915    9.8883    6.7187 N   0  0  0  0  0  0  0  0  0  0  0  0
   -5.3133   11.4587    8.0438 O   0  0  0  0  0  0  0  0  0  0  0  0
   -5.7647   12.4018    5.3688 O   0  0  0  0  0  0  0  0  0  0  0  0
  1  2  1  0  0  0  0
  1 16  1  6  0  0  0
  2  3  1  0  0  0  0
  2 12  1  6  0  0  0
  4 11  1  6  0  0  0
  4  3  1  0  0  0  0
  5  4  1  0  0  0  0
  5 10  1  1  0  0  0
  6  7  1  0  0  0  0
  6  5  1  0  0  0  0
  6 14  1  1  0  0  0
  7  8  1  0  0  0  0
  7 13  1  1  0  0  0
  8 15  1  6  0  0  0
  8 11  1  0  0  0  0
  9 13  1  0  0  0  0
 10  1  1  0  0  0  0
 17 15  1  6  0  0  0
 17 18  1  0  0  0  0
 18 25  1  6  0  0  0
 19 18  1  0  0  0  0
 19 26  1  1  0  0  0
 20 19  1  0  0  0  0
 20 24  1  6  0  0  0
 21 23  1  0  0  0  0
 21 20  1  0  0  0  0
 21 22  1  1  0  0  0
 23 17  1  0  0  0  0
 27 22  1  0  0  0  0
 28 29  1  0  0  0  0
 28 16  1  1  0  0  0
 29 36  1  1  0  0  0
 30 37  1  6  0  0  0
 30 29  1  0  0  0  0
 31 30  1  0  0  0  0
 31 34  1  6  0  0  0
 32 31  1  0  0  0  0
 32 33  1  0  0  0  0
 33 28  1  0  0  0  0
 33 35  1  1  0  0  0
M  END
>  <CHROM.1>
-70.79449357,-175.84795991,86.56362960,-55.93862604,-172.51074417,-167.98638848
68.11451514,57.02607729,-68.33431453,-162.51457813,173.35601588,104.11934410
-63.44173821,-176.78385990,-78.55586455,59.07501967,-0.09945825,7.92791593
10.03855299,2.55985147,0.69299895,-1.58496624

>  <Name>
lig.pdb

>  <RI>
0

>  <Rbt.Current_Directory>
/home/itssahil/PROJECTS/Mol_Feturizer/New_Systems/rnas/2m4q

>  <Rbt.Executable>
rbdock ($Id: //depot/dev/client3/rdock/2013.1/src/exe/rbdock.cxx#4 $)

>  <Rbt.Library>
libRbt.so (2013.1, Build901 2013/11/27)

>  <Rbt.Parameter_File>
/export/apps/rDock/src/rDock_2013.1_src/data/scripts/dock_solv.prm

>  <Rbt.Receptor>
prm/pocket_docking_6.prm

>  <SCORE>
-38.9331

>  <SCORE.INTER>
-18.0979

>  <SCORE.INTER.CONST>
1

>  <SCORE.INTER.POLAR>
-2.84443

>  <SCORE.INTER.ROT>
10

>  <SCORE.INTER.SOLV>
15.0431

>  <SCORE.INTER.VDW>
-17.8648

>  <SCORE.INTER.norm>
-0.489132

>  <SCORE.INTRA>
-20.8352

>  <SCORE.INTRA.DIHEDRAL>
-34.2012

>  <SCORE.INTRA.DIHEDRAL.0>
44.8331

>  <SCORE.INTRA.POLAR>
-0.689902

>  <SCORE.INTRA.POLAR.0>
-0.108895

>  <SCORE.INTRA.REPUL>
-0.00912235

>  <SCORE.INTRA.REPUL.0>
0.00912235

>  <SCORE.INTRA.SOLV>
-1.62427

>  <SCORE.INTRA.SOLV.lig_0>
-53.9067

>  <SCORE.INTRA.VDW>
-0.53119

>  <SCORE.INTRA.VDW.0>
-2.93492

>  <SCORE.INTRA.norm>
-0.563114

>  <SCORE.RESTR>
0

>  <SCORE.RESTR.CAVITY>
0

>  <SCORE.RESTR.norm>
0

>  <SCORE.SYSTEM>
0

>  <SCORE.SYSTEM.CONST>
0

>  <SCORE.SYSTEM.DIHEDRAL>
0

>  <SCORE.SYSTEM.SOLV>
0

>  <SCORE.SYSTEM.norm>
0

>  <SCORE.heavy>
37

>  <SCORE.norm>
-1.05225

>  <RMSD>
3.003

$$$$
lig.pdb
 OpenBabel11021811453D
libRbt.so/2013.1/901 2013/11/27
 37 40  0  0  0  0  0  0  0  0999 V2000
   -1.9335    7.2031   10.6821 C   0  0  2  0  0  0  0  0  0  0  0  0
   -1.8682    6.0041   11.6848 C   0  0  1  0  0  0  0  0  0  0  0  0
   -0.4241    5.4672   11.9088 C   0  0  0  0  0  0  0  0  0  0  0  0
    0.2980    5.2299   10.5593 C   0  0  1  0  0  0  0  0  0  0  0  0
    0.2870    6.5280    9.7213 C   0  0  1  0  0  0  0  0  0  0  0  0
    1.0460    6.3322    8.3814 C   0  0  1  0  0  0  0  0  0  0  0  0
    2.4813    5.7809    8.6314 C   0  0  1  0  0  0  0  0  0  0  0  0
    2.4709    4.5207    9.5468 C   0  0  2  0  0  0  0  0  0  0  0  0
    4.5996    5.6853    7.3996 C   0  0  0  0  0  0  0  0  0  0  0  0
   -1.0805    6.9842    9.5118 O   0  0  0  0  0  0  0  0  0  0  0  0
    1.6551    4.7323   10.7399 O   0  0  0  0  0  0  0  0  0  0  0  0
   -2.4555    6.4051   12.9816 N   0  0  0  0  0  0  0  0  0  0  0  0
    3.1321    5.5157    7.3317 N   0  0  0  0  0  0  0  0  0  0  0  0
    0.3188    5.4924    7.4939 O   0  0  0  0  0  0  0  0  0  0  0  0
    3.8322    4.1354    9.8977 O   0  0  0  0  0  0  0  0  0  0  0  0
   -1.5857    8.4601   11.3390 O   0  0  0  0  0  0  0  0  0  0  0  0
    4.5144    4.8744   10.9571 C   0  0  2  0  0  0  0  0  0  0  0  0
    6.0524    4.6541   10.8888 C   0  0  1  0  0  0  0  0  0  0  0  0
    6.4465    3.2100   11.3120 C   0  0  2  0  0  0  0  0  0  0  0  0
    5.8419    2.8464   12.6992 C   0  0  1  0  0  0  0  0  0  0  0  0
    4.3113    3.1140   12.7347 C   0  0  1  0  0  0  0  0  0  0  0  0
    3.7178    2.8864   14.1497 C   0  0  0  0  0  0  0  0  0  0  0  0
    4.0201    4.4662   12.2676 O   0  0  0  0  0  0  0  0  0  0  0  0
    6.1550    1.4506   13.0763 N   0  0  0  0  0  0  0  0  0  0  0  0
    6.5478    4.9783    9.5910 O   0  0  0  0  0  0  0  0  0  0  0  0
    7.8624    3.0406   11.3081 O   0  0  0  0  0  0  0  0  0  0  0  0
    4.2763    3.8011   15.0871 O   0  0  0  0  0  0  0  0  0  0  0  0
   -2.2408    9.6740   10.8685 C   0  0  1  0  0  0  0  0  0  0  0  0
   -3.0621    9.4267    9.5722 C   0  0  1  0  0  0  0  0  0  0  0  0
   -3.6723   10.7516    9.0342 C   0  0  2  0  0  0  0  0  0  0  0  0
   -4.5097   11.5057   10.1177 C   0  0  1  0  0  0  0  0  0  0  0  0
   -3.7577   11.6488   11.4748 C   0  0  0  0  0  0  0  0  0  0  0  0
   -3.1442   10.3033   11.9668 C   0  0  2  0  0  0  0  0  0  0  0  0
   -4.9492   12.8256    9.6171 N   0  0  0  0  0  0  0  0  0  0  0  0
   -2.4071   10.5346   13.2280 N   0  0  0  0  0  0  0  0  0  0  0  0
   -2.2609    8.7981    8.5770 O   0  0  0  0  0  0  0  0  0  0  0  0
   -4.4655   10.5004    7.8769 O   0  0  0  0  0  0  0  0  0  0  0  0
  1  2  1  0  0  0  0
  1 16  1  1  0  0  0
  2  3  1  0  0  0  0
  2 12  1  1  0  0  0
  4 11  1  1  0  0  0
  4  3  1  0  0  0  0
  5  4  1  0  0  0  0
  5 10  1  6  0  0  0
  6  7  1  0  0  0  0
  6  5  1  0  0  0  0
  6 14  1  6  0  0  0
  7  8  1  0  0  0  0
  7 13  1  6  0  0  0
  8 15  1  1  0  0  0
  8 11  1  0  0  0  0
  9 13  1  0  0  0  0
 10  1  1  0  0  0  0
 17 15  1  6  0  0  0
 17 18  1  0  0  0  0
 18 25  1  6  0  0  0
 19 18  1  0  0  0  0
 19 26  1  1  0  0  0
 20 19  1  0  0  0  0
 20 24  1  6  0  0  0
 21 23  1  0  0  0  0
 21 20  1  0  0  0  0
 21 22  1  1  0  0  0
 23 17  1  0  0  0  0
 27 22  1  0  0  0  0
 28 29  1  0  0  0  0
 28 16  1  1  0  0  0
 29 36  1  6  0  0  0
 30 37  1  6  0  0  0
 30 29  1  0  0  0  0
 31 30  1  0  0  0  0
 31 34  1  6  0  0  0
 32 31  1  0  0  0  0
 32 33  1  0  0  0  0
 33 28  1  0  0  0  0
 33 35  1  1  0  0  0
M  END
>  <CHROM.1>
68.88139892,79.31015104,149.96070495,44.99226922,-161.80840239,-147.47094168
174.31346251,-64.08946680,63.02914419,53.26556078,-177.84524521,-8.64020424
163.36649513,-41.60658618,-168.37335901,-30.05049624,1.00344334,6.46461831
10.64982442,2.89133030,0.61082521,-1.35285430

>  <Name>
lig.pdb

>  <RI>
0

>  <Rbt.Current_Directory>
/home/itssahil/PROJECTS/Mol_Feturizer/New_Systems/rnas/2m4q

>  <Rbt.Executable>
rbdock ($Id: //depot/dev/client3/rdock/2013.1/src/exe/rbdock.cxx#4 $)

>  <Rbt.Library>
libRbt.so (2013.1, Build901 2013/11/27)

>  <Rbt.Parameter_File>
/export/apps/rDock/src/rDock_2013.1_src/data/scripts/dock_solv.prm

>  <Rbt.Receptor>
prm/pocket_docking_3.prm

>  <SCORE>
-29.2199

>  <SCORE.INTER>
-20.9721

>  <SCORE.INTER.CONST>
1

>  <SCORE.INTER.POLAR>
-2.79943

>  <SCORE.INTER.ROT>
10

>  <SCORE.INTER.SOLV>
14.9479

>  <SCORE.INTER.VDW>
-19.8992

>  <SCORE.INTER.norm>
-0.566813

>  <SCORE.INTRA>
-8.27601

>  <SCORE.INTRA.DIHEDRAL>
-23.1335

>  <SCORE.INTRA.DIHEDRAL.0>
44.8331

>  <SCORE.INTRA.POLAR>
-0.100453

>  <SCORE.INTRA.POLAR.0>
-0.108895

>  <SCORE.INTRA.REPUL>
0.0312639

>  <SCORE.INTRA.REPUL.0>
0.00912235

>  <SCORE.INTRA.SOLV>
-0.091773

>  <SCORE.INTRA.SOLV.lig_0>
-53.9067

>  <SCORE.INTRA.VDW>
3.52185

>  <SCORE.INTRA.VDW.0>
-2.93492

>  <SCORE.INTRA.norm>
-0.223676

>  <SCORE.RESTR>
0.0281967

>  <SCORE.RESTR.CAVITY>
0.0281967

>  <SCORE.RESTR.norm>
0.000762072

>  <SCORE.SYSTEM>
0

>  <SCORE.SYSTEM.CONST>
0

>  <SCORE.SYSTEM.DIHEDRAL>
0

>  <SCORE.SYSTEM.SOLV>
0

>  <SCORE.SYSTEM.norm>
0

>  <SCORE.heavy>
37

>  <SCORE.norm>
-0.789727

>  <RMSD>
3.008

$$$$
lig.pdb
 OpenBabel11021811453D
libRbt.so/2013.1/901 2013/11/27
 37 40  0  0  0  0  0  0  0  0999 V2000
   -1.2350    6.5613   11.7006 C   0  0  2  0  0  0  0  0  0  0  0  0
   -0.6509    5.7136   12.8784 C   0  0  1  0  0  0  0  0  0  0  0  0
    0.8911    5.5178   12.7903 C   0  0  0  0  0  0  0  0  0  0  0  0
    1.3135    5.0486   11.3759 C   0  0  1  0  0  0  0  0  0  0  0  0
    0.7951    6.0446   10.3144 C   0  0  1  0  0  0  0  0  0  0  0  0
    1.2444    5.6236    8.8894 C   0  0  1  0  0  0  0  0  0  0  0  0
    2.7877    5.4199    8.8311 C   0  0  1  0  0  0  0  0  0  0  0  0
    3.2949    4.4773    9.9627 C   0  0  2  0  0  0  0  0  0  0  0  0
    4.6060    5.0883    7.2194 C   0  0  0  0  0  0  0  0  0  0  0  0
   -0.6519    6.1813   10.4118 O   0  0  0  0  0  0  0  0  0  0  0  0
    2.7539    4.8631   11.2635 O   0  0  0  0  0  0  0  0  0  0  0  0
   -0.9979    6.3466   14.1693 N   0  0  0  0  0  0  0  0  0  0  0  0
    3.1612    4.9256    7.4898 N   0  0  0  0  0  0  0  0  0  0  0  0
    0.5542    4.4597    8.4531 O   0  0  0  0  0  0  0  0  0  0  0  0
    4.7519    4.4454    9.9835 O   0  0  0  0  0  0  0  0  0  0  0  0
   -1.0564    7.9908   11.9397 O   0  0  0  0  0  0  0  0  0  0  0  0
    5.4233    4.0872   11.2304 C   0  0  2  0  0  0  0  0  0  0  0  0
    6.9581    3.9522   11.0182 C   0  0  1  0  0  0  0  0  0  0  0  0
    7.3149    2.6894   10.1826 C   0  0  2  0  0  0  0  0  0  0  0  0
    6.6715    1.4111   10.7940 C   0  0  1  0  0  0  0  0  0  0  0  0
    5.1459    1.6013   11.0214 C   0  0  1  0  0  0  0  0  0  0  0  0
    4.5155    0.3885   11.7549 C   0  0  0  0  0  0  0  0  0  0  0  0
    4.8912    2.8356   11.7584 O   0  0  0  0  0  0  0  0  0  0  0  0
    6.9493    0.2171    9.9659 N   0  0  0  0  0  0  0  0  0  0  0  0
    7.4895    5.1400   10.4339 O   0  0  0  0  0  0  0  0  0  0  0  0
    8.7270    2.5414   10.0507 O   0  0  0  0  0  0  0  0  0  0  0  0
    4.5906   -0.7849   10.9519 O   0  0  0  0  0  0  0  0  0  0  0  0
   -1.0992    8.8809   10.7866 C   0  0  1  0  0  0  0  0  0  0  0  0
   -2.5536    9.1310   10.2984 C   0  0  1  0  0  0  0  0  0  0  0  0
   -2.5705   10.0031    9.0115 C   0  0  2  0  0  0  0  0  0  0  0  0
   -1.7783   11.3394    9.1862 C   0  0  1  0  0  0  0  0  0  0  0  0
   -0.3624   11.1294    9.8018 C   0  0  0  0  0  0  0  0  0  0  0  0
   -0.3882   10.2333   11.0766 C   0  0  2  0  0  0  0  0  0  0  0  0
   -1.6921   12.0704    7.9039 N   0  0  0  0  0  0  0  0  0  0  0  0
    0.9939   10.0410   11.5667 N   0  0  0  0  0  0  0  0  0  0  0  0
   -3.2348    7.8992   10.0837 O   0  0  0  0  0  0  0  0  0  0  0  0
   -3.9114   10.2679    8.6071 O   0  0  0  0  0  0  0  0  0  0  0  0
  1  2  1  0  0  0  0
  1 16  1  1  0  0  0
  2  3  1  0  0  0  0
  2 12  1  1  0  0  0
  4 11  1  1  0  0  0
  4  3  1  0  0  0  0
  5  4  1  0  0  0  0
  5 10  1  6  0  0  0
  6  7  1  0  0  0  0
  6  5  1  0  0  0  0
  6 14  1  1  0  0  0
  7  8  1  0  0  0  0
  7 13  1  6  0  0  0
  8 15  1  1  0  0  0
  8 11  1  0  0  0  0
  9 13  1  0  0  0  0
 10  1  1  0  0  0  0
 17 15  1  6  0  0  0
 17 18  1  0  0  0  0
 18 25  1  6  0  0  0
 19 18  1  0  0  0  0
 19 26  1  1  0  0  0
 20 19  1  0  0  0  0
 20 24  1  6  0  0  0
 21 23  1  0  0  0  0
 21 20  1  0  0  0  0
 21 22  1  1  0  0  0
 23 17  1  0  0  0  0
 27 22  1  0  0  0  0
 28 29  1  0  0  0  0
 28 16  1  1  0  0  0
 29 36  1  6  0  0  0
 30 37  1  1  0  0  0
 30 29  1  0  0  0  0
 31 30  1  0  0  0  0
 31 34  1  6  0  0  0
 32 31  1  0  0  0  0
 32 33  1  0  0  0  0
 33 28  1  0  0  0  0
 33 35  1  6  0  0  0
M  END
>  <CHROM.1>
160.49821819,155.86573105,162.98055892,71.92824893,173.65861231,158.80108283
66.24776372,175.95600440,-64.89901281,-157.25813783,179.51455589,77.17904814
167.78745536,-179.34019231,-64.67727166,178.08406520,2.00470540,5.74865530
10.39026917,2.50818115,0.42998780,-0.57621865

>  <Name>
lig.pdb

>  <RI>
0

>  <Rbt.Current_Directory>
/home/itssahil/PROJECTS/Mol_Feturizer/New_Systems/rnas/2m4q

>  <Rbt.Executable>
rbdock ($Id: //depot/dev/client3/rdock/2013.1/src/exe/rbdock.cxx#4 $)

>  <Rbt.Library>
libRbt.so (2013.1, Build901 2013/11/27)

>  <Rbt.Parameter_File>
/export/apps/rDock/src/rDock_2013.1_src/data/scripts/dock_solv.prm

>  <Rbt.Receptor>
prm/pocket_docking_7.prm

>  <SCORE>
-41.4457

>  <SCORE.INTER>
-21.6405

>  <SCORE.INTER.CONST>
1

>  <SCORE.INTER.POLAR>
-3.2735

>  <SCORE.INTER.ROT>
10

>  <SCORE.INTER.SOLV>
20.4938

>  <SCORE.INTER.VDW>
-20.6133

>  <SCORE.INTER.norm>
-0.584878

>  <SCORE.INTRA>
-19.8052

>  <SCORE.INTRA.DIHEDRAL>
-34.9616

>  <SCORE.INTRA.DIHEDRAL.0>
44.8331

>  <SCORE.INTRA.POLAR>
-0.795203

>  <SCORE.INTRA.POLAR.0>
-0.108895

>  <SCORE.INTRA.REPUL>
-0.00912235

>  <SCORE.INTRA.REPUL.0>
0.00912235

>  <SCORE.INTRA.SOLV>
-1.52103

>  <SCORE.INTRA.SOLV.lig_0>
-53.9067

>  <SCORE.INTRA.VDW>
1.18543

>  <SCORE.INTRA.VDW.0>
-2.93492

>  <SCORE.INTRA.norm>
-0.535275

>  <SCORE.RESTR>
0

>  <SCORE.RESTR.CAVITY>
0

>  <SCORE.RESTR.norm>
0

>  <SCORE.SYSTEM>
0

>  <SCORE.SYSTEM.CONST>
0

>  <SCORE.SYSTEM.DIHEDRAL>
0

>  <SCORE.SYSTEM.SOLV>
0

>  <SCORE.SYSTEM.norm>
0

>  <SCORE.heavy>
37

>  <SCORE.norm>
-1.12015

>  <RMSD>
3.050

$$$$
lig.pdb
 OpenBabel11021811453D
libRbt.so/2013.1/901 2013/11/27
 37 40  0  0  0  0  0  0  0  0999 V2000
   -1.8261    7.2280    9.4732 C   0  0  2  0  0  0  0  0  0  0  0  0
   -1.9773    6.5402   10.8700 C   0  0  1  0  0  0  0  0  0  0  0  0
   -0.6139    6.1743   11.5267 C   0  0  0  0  0  0  0  0  0  0  0  0
    0.3037    5.4276   10.5270 C   0  0  1  0  0  0  0  0  0  0  0  0
    0.4866    6.2740    9.2473 C   0  0  1  0  0  0  0  0  0  0  0  0
    1.4409    5.5700    8.2457 C   0  0  1  0  0  0  0  0  0  0  0  0
    2.7908    5.2013    8.9301 C   0  0  1  0  0  0  0  0  0  0  0  0
    2.5762    4.4204   10.2606 C   0  0  2  0  0  0  0  0  0  0  0  0
    4.6042    5.3181    7.2833 C   0  0  0  0  0  0  0  0  0  0  0  0
   -0.8073    6.5739    8.6490 O   0  0  0  0  0  0  0  0  0  0  0  0
    1.5901    5.0781   11.1143 O   0  0  0  0  0  0  0  0  0  0  0  0
   -2.7461    7.4184   11.7785 N   0  0  0  0  0  0  0  0  0  0  0  0
    3.6289    4.4476    7.9747 N   0  0  0  0  0  0  0  0  0  0  0  0
    0.8279    4.4257    7.6656 O   0  0  0  0  0  0  0  0  0  0  0  0
    3.8445    4.2425   10.9565 O   0  0  0  0  0  0  0  0  0  0  0  0
   -1.5311    8.6512    9.6148 O   0  0  0  0  0  0  0  0  0  0  0  0
    3.8229    4.0367   12.4026 C   0  0  2  0  0  0  0  0  0  0  0  0
    5.1923    4.4089   13.0389 C   0  0  1  0  0  0  0  0  0  0  0  0
    6.2986    3.3804   12.6670 C   0  0  2  0  0  0  0  0  0  0  0  0
    5.8494    1.9277   12.9987 C   0  0  1  0  0  0  0  0  0  0  0  0
    4.4625    1.6097   12.3735 C   0  0  1  0  0  0  0  0  0  0  0  0
    3.9392    0.2154   12.8074 C   0  0  0  0  0  0  0  0  0  0  0  0
    3.4981    2.6500   12.7186 O   0  0  0  0  0  0  0  0  0  0  0  0
    6.8684    0.9387   12.5837 N   0  0  0  0  0  0  0  0  0  0  0  0
    5.5656    5.7386   12.6825 O   0  0  0  0  0  0  0  0  0  0  0  0
    7.5321    3.6962   13.3088 O   0  0  0  0  0  0  0  0  0  0  0  0
    2.5220    0.1459   12.6879 O   0  0  0  0  0  0  0  0  0  0  0  0
   -0.6239    9.2545    8.6468 C   0  0  1  0  0  0  0  0  0  0  0  0
   -1.3394    9.5861    7.3073 C   0  0  1  0  0  0  0  0  0  0  0  0
   -0.3346   10.1382    6.2571 C   0  0  2  0  0  0  0  0  0  0  0  0
    0.4826   11.3567    6.7966 C   0  0  1  0  0  0  0  0  0  0  0  0
    1.1005   11.0979    8.2034 C   0  0  0  0  0  0  0  0  0  0  0  0
    0.0655   10.5258    9.2184 C   0  0  2  0  0  0  0  0  0  0  0  0
    1.5256   11.7594    5.8291 N   0  0  0  0  0  0  0  0  0  0  0  0
    0.7406   10.2604   10.5073 N   0  0  0  0  0  0  0  0  0  0  0  0
   -2.0230    8.4440    6.8016 O   0  0  0  0  0  0  0  0  0  0  0  0
   -1.0140   10.4873    5.0536 O   0  0  0  0  0  0  0  0  0  0  0  0
  1  2  1  0  0  0  0
  1 16  1  1  0  0  0
  2  3  1  0  0  0  0
  2 12  1  1  0  0  0
  4 11  1  1  0  0  0
  4  3  1  0  0  0  0
  5  4  1  0  0  0  0
  5 10  1  6  0  0  0
  6  7  1  0  0  0  0
  6  5  1  0  0  0  0
  6 14  1  1  0  0  0
  7  8  1  0  0  0  0
  7 13  1  6  0  0  0
  8 15  1  1  0  0  0
  8 11  1  0  0  0  0
  9 13  1  0  0  0  0
 10  1  1  0  0  0  0
 17 15  1  6  0  0  0
 17 18  1  0  0  0  0
 18 25  1  6  0  0  0
 19 18  1  0  0  0  0
 19 26  1  1  0  0  0
 20 19  1  0  0  0  0
 20 24  1  6  0  0  0
 21 23  1  0  0  0  0
 21 20  1  0  0  0  0
 21 22  1  1  0  0  0
 23 17  1  0  0  0  0
 27 22  1  0  0  0  0
 28 29  1  0  0  0  0
 28 16  1  1  0  0  0
 29 36  1  6  0  0  0
 30 37  1  6  0  0  0
 30 29  1  0  0  0  0
 31 30  1  0  0  0  0
 31 34  1  6  0  0  0
 32 31  1  0  0  0  0
 32 33  1  0  0  0  0
 33 28  1  0  0  0  0
 33 35  1  1  0  0  0
M  END
>  <CHROM.1>
-103.26763792,155.88340673,96.78233820,46.71101864,-158.11943438,143.92695652
-178.70554203,63.37276059,157.16812889,81.26791761,93.98836058,80.00929030
80.32080082,-72.51667733,-173.26286437,62.81185871,1.81921611,6.04696859
9.97581907,2.14980964,0.06985208,-0.63514032

>  <Name>
lig.pdb

>  <RI>
2.86754e+07

>  <Rbt.Current_Directory>
/home/itssahil/PROJECTS/Mol_Feturizer/New_Systems/rnas/2m4q

>  <Rbt.Executable>
rbdock ($Id: //depot/dev/client3/rdock/2013.1/src/exe/rbdock.cxx#4 $)

>  <Rbt.Library>
libRbt.so (2013.1, Build901 2013/11/27)

>  <Rbt.Parameter_File>
/export/apps/rDock/src/rDock_2013.1_src/data/scripts/dock_solv.prm

>  <Rbt.Receptor>
prm/pocket_docking_5.prm

>  <SCORE>
-49.2913

>  <SCORE.INTER>
-39.11

>  <SCORE.INTER.CONST>
1

>  <SCORE.INTER.POLAR>
-6.40886

>  <SCORE.INTER.ROT>
10

>  <SCORE.INTER.SOLV>
17.1365

>  <SCORE.INTER.VDW>
-20.6893

>  <SCORE.INTER.norm>
-1.05703

>  <SCORE.INTRA>
-10.1929

>  <SCORE.INTRA.DIHEDRAL>
-19.5293

>  <SCORE.INTRA.DIHEDRAL.0>
44.8331

>  <SCORE.INTRA.POLAR>
0.0225929

>  <SCORE.INTRA.POLAR.0>
-0.108895

>  <SCORE.INTRA.REPUL>
-0.00912235

>  <SCORE.INTRA.REPUL.0>
0.00912235

>  <SCORE.INTRA.SOLV>
-2.24521

>  <SCORE.INTRA.SOLV.lig_0>
-53.9067

>  <SCORE.INTRA.VDW>
0.663188

>  <SCORE.INTRA.VDW.0>
-2.93492

>  <SCORE.INTRA.norm>
-0.275483

>  <SCORE.RESTR>
0.0115891

>  <SCORE.RESTR.CAVITY>
0.0115891

>  <SCORE.RESTR.norm>
0.000313218

>  <SCORE.SYSTEM>
0

>  <SCORE.SYSTEM.CONST>
0

>  <SCORE.SYSTEM.DIHEDRAL>
0

>  <SCORE.SYSTEM.SOLV>
0

>  <SCORE.SYSTEM.norm>
0

>  <SCORE.heavy>
37

>  <SCORE.norm>
-1.3322

>  <RMSD>
3.086

$$$$
lig.pdb
 OpenBabel11021811453D
libRbt.so/2013.1/901 2013/11/27
 37 40  0  0  0  0  0  0  0  0999 V2000
   -2.7206    8.7518    9.3453 C   0  0  2  0  0  0  0  0  0  0  0  0
   -2.6104    8.9825   10.8886 C   0  0  1  0  0  0  0  0  0  0  0  0
   -1.1679    8.7834   11.4392 C   0  0  0  0  0  0  0  0  0  0  0  0
   -0.5563    7.4537   10.9324 C   0  0  1  0  0  0  0  0  0  0  0  0
   -0.5974    7.4103    9.3884 C   0  0  1  0  0  0  0  0  0  0  0  0
    0.0526    6.1073    8.8505 C   0  0  1  0  0  0  0  0  0  0  0  0
    1.4882    5.9237    9.4269 C   0  0  1  0  0  0  0  0  0  0  0  0
    1.5147    6.0543   10.9788 C   0  0  2  0  0  0  0  0  0  0  0  0
    3.0216    4.7908    7.8846 C   0  0  0  0  0  0  0  0  0  0  0  0
   -1.9646    7.5741    8.9132 O   0  0  0  0  0  0  0  0  0  0  0  0
    0.7974    7.2447   11.4283 O   0  0  0  0  0  0  0  0  0  0  0  0
   -3.0874   10.3413   11.2257 N   0  0  0  0  0  0  0  0  0  0  0  0
    2.0316    4.6276    8.9710 N   0  0  0  0  0  0  0  0  0  0  0  0
   -0.7609    4.9736    9.1232 O   0  0  0  0  0  0  0  0  0  0  0  0
    2.8883    6.0483   11.4665 O   0  0  0  0  0  0  0  0  0  0  0  0
   -2.2919    9.9340    8.6029 O   0  0  0  0  0  0  0  0  0  0  0  0
    3.3829    7.2286   12.1708 C   0  0  2  0  0  0  0  0  0  0  0  0
    4.9341    7.3125   12.0969 C   0  0  1  0  0  0  0  0  0  0  0  0
    5.6121    6.2139   12.9649 C   0  0  2  0  0  0  0  0  0  0  0  0
    5.0714    6.2377   14.4240 C   0  0  1  0  0  0  0  0  0  0  0  0
    3.5183    6.1873   14.4507 C   0  0  1  0  0  0  0  0  0  0  0  0
    2.9597    6.3475   15.8890 C   0  0  0  0  0  0  0  0  0  0  0  0
    2.9608    7.2071   13.5672 O   0  0  0  0  0  0  0  0  0  0  0  0
    5.6610    5.1512   15.2367 N   0  0  0  0  0  0  0  0  0  0  0  0
    5.3745    7.2615   10.7412 O   0  0  0  0  0  0  0  0  0  0  0  0
    7.0321    6.3421   12.9407 O   0  0  0  0  0  0  0  0  0  0  0  0
    3.4416    7.5451   16.4897 O   0  0  0  0  0  0  0  0  0  0  0  0
   -3.0819   10.3290    7.4436 C   0  0  1  0  0  0  0  0  0  0  0  0
   -3.7739   11.7051    7.6529 C   0  0  1  0  0  0  0  0  0  0  0  0
   -4.6872   12.0621    6.4465 C   0  0  2  0  0  0  0  0  0  0  0  0
   -3.9265   11.9957    5.0824 C   0  0  1  0  0  0  0  0  0  0  0  0
   -3.1128   10.6788    4.9049 C   0  0  0  0  0  0  0  0  0  0  0  0
   -2.2277   10.3476    6.1442 C   0  0  2  0  0  0  0  0  0  0  0  0
   -4.8577   12.1960    3.9515 N   0  0  0  0  0  0  0  0  0  0  0  0
   -1.5315    9.0625    5.9180 N   0  0  0  0  0  0  0  0  0  0  0  0
   -4.5138   11.7204    8.8694 O   0  0  0  0  0  0  0  0  0  0  0  0
   -5.2722   13.3491    6.6287 O   0  0  0  0  0  0  0  0  0  0  0  0
  1  2  1  0  0  0  0
  1 16  1  6  0  0  0
  2  3  1  0  0  0  0
  2 12  1  6  0  0  0
  4 11  1  6  0  0  0
  4  3  1  0  0  0  0
  5  4  1  0  0  0  0
  5 10  1  1  0  0  0
  6  7  1  0  0  0  0
  6  5  1  0  0  0  0
  6 14  1  1  0  0  0
  7  8  1  0  0  0  0
  7 13  1  1  0  0  0
  8 15  1  6  0  0  0
  8 11  1  0  0  0  0
  9 13  1  0  0  0  0
 10  1  1  0  0  0  0
 17 15  1  1  0  0  0
 17 18  1  0  0  0  0
 18 25  1  6  0  0  0
 19 18  1  0  0  0  0
 19 26  1  1  0  0  0
 20 19  1  0  0  0  0
 20 24  1  1  0  0  0
 21 23  1  0  0  0  0
 21 20  1  0  0  0  0
 21 22  1  1  0  0  0
 23 17  1  0  0  0  0
 27 22  1  0  0  0  0
 28 29  1  0  0  0  0
 28 16  1  1  0  0  0
 29 36  1  1  0  0  0
 30 37  1  1  0  0  0
 30 29  1  0  0  0  0
 31 30  1  0  0  0  0
 31 34  1  6  0  0  0
 32 31  1  0  0  0  0
 32 33  1  0  0  0  0
 33 28  1  0  0  0  0
 33 35  1  6  0  0  0
M  END
>  <CHROM.1>
32.91424299,118.05565927,103.78805984,90.96465937,-156.56506938,-138.14827052
-58.82108632,-65.42484819,55.52359583,59.49265543,64.39362941,114.74116235
-174.96618284,176.89914947,-50.90624251,169.05792149,0.26193310,8.14944355
10.09142197,2.68456556,0.67080724,-1.83935978

>  <Name>
lig.pdb

>  <RI>
3.87352e+07

>  <Rbt.Current_Directory>
/home/itssahil/PROJECTS/Mol_Feturizer/New_Systems/rnas/2m4q

>  <Rbt.Executable>
rbdock ($Id: //depot/dev/client3/rdock/2013.1/src/exe/rbdock.cxx#4 $)

>  <Rbt.Library>
libRbt.so (2013.1, Build901 2013/11/27)

>  <Rbt.Parameter_File>
/export/apps/rDock/src/rDock_2013.1_src/data/scripts/dock_solv.prm

>  <Rbt.Receptor>
prm/pocket_docking_4.prm

>  <SCORE>
-29.9285

>  <SCORE.INTER>
-18.8535

>  <SCORE.INTER.CONST>
1

>  <SCORE.INTER.POLAR>
-3.01597

>  <SCORE.INTER.ROT>
10

>  <SCORE.INTER.SOLV>
13.5243

>  <SCORE.INTER.VDW>
-17.2905

>  <SCORE.INTER.norm>
-0.509554

>  <SCORE.INTRA>
-11.075

>  <SCORE.INTRA.DIHEDRAL>
-14.737

>  <SCORE.INTRA.DIHEDRAL.0>
44.8331

>  <SCORE.INTRA.POLAR>
-0.977909

>  <SCORE.INTRA.POLAR.0>
-0.108895

>  <SCORE.INTRA.REPUL>
-0.00912235

>  <SCORE.INTRA.REPUL.0>
0.00912235

>  <SCORE.INTRA.SOLV>
-0.681729

>  <SCORE.INTRA.SOLV.lig_0>
-53.9067

>  <SCORE.INTRA.VDW>
0.00492986

>  <SCORE.INTRA.VDW.0>
-2.93492

>  <SCORE.INTRA.norm>
-0.299323

>  <SCORE.RESTR>
0

>  <SCORE.RESTR.CAVITY>
0

>  <SCORE.RESTR.norm>
0

>  <SCORE.SYSTEM>
0

>  <SCORE.SYSTEM.CONST>
0

>  <SCORE.SYSTEM.DIHEDRAL>
0

>  <SCORE.SYSTEM.SOLV>
0

>  <SCORE.SYSTEM.norm>
0

>  <SCORE.heavy>
37

>  <SCORE.norm>
-0.808877

>  <RMSD>
3.180

$$$$
lig.pdb
 OpenBabel11021811453D
libRbt.so/2013.1/901 2013/11/27
 37 40  0  0  0  0  0  0  0  0999 V2000
   -2.1260    7.9588    8.8541 C   0  0  2  0  0  0  0  0  0  0  0  0
   -2.5217    7.1288   10.1196 C   0  0  1  0  0  0  0  0  0  0  0  0
   -1.2944    6.5723   10.8991 C   0  0  0  0  0  0  0  0  0  0  0  0
   -0.2984    5.8703    9.9430 C   0  0  1  0  0  0  0  0  0  0  0  0
    0.1230    6.8408    8.8169 C   0  0  1  0  0  0  0  0  0  0  0  0
    1.1584    6.1780    7.8691 C   0  0  1  0  0  0  0  0  0  0  0  0
    2.3684    5.6167    8.6737 C   0  0  1  0  0  0  0  0  0  0  0  0
    1.9130    4.7078    9.8539 C   0  0  2  0  0  0  0  0  0  0  0  0
    4.6794    4.9301    8.2245 C   0  0  0  0  0  0  0  0  0  0  0  0
   -1.0487    7.3192    8.0956 O   0  0  0  0  0  0  0  0  0  0  0  0
    0.8640    5.3446   10.6462 O   0  0  0  0  0  0  0  0  0  0  0  0
   -3.3486    7.9587   11.0226 N   0  0  0  0  0  0  0  0  0  0  0  0
    3.2790    4.9094    7.7497 N   0  0  0  0  0  0  0  0  0  0  0  0
    0.5557    5.1664    7.0722 O   0  0  0  0  0  0  0  0  0  0  0  0
    3.0541    4.3409   10.6833 O   0  0  0  0  0  0  0  0  0  0  0  0
   -1.7556    9.3249    9.2133 O   0  0  0  0  0  0  0  0  0  0  0  0
    3.6662    5.3696   11.5206 C   0  0  2  0  0  0  0  0  0  0  0  0
    4.9051    4.8093   12.2754 C   0  0  1  0  0  0  0  0  0  0  0  0
    4.4945    3.8056   13.3907 C   0  0  2  0  0  0  0  0  0  0  0  0
    3.4330    4.4281   14.3436 C   0  0  1  0  0  0  0  0  0  0  0  0
    2.2302    5.0060   13.5469 C   0  0  1  0  0  0  0  0  0  0  0  0
    1.2298    5.7500   14.4700 C   0  0  0  0  0  0  0  0  0  0  0  0
    2.7010    5.8887   12.4835 O   0  0  0  0  0  0  0  0  0  0  0  0
    2.9869    3.4554   15.3650 N   0  0  0  0  0  0  0  0  0  0  0  0
    5.8311    4.2301   11.3580 O   0  0  0  0  0  0  0  0  0  0  0  0
    5.6332    3.3495   14.1178 O   0  0  0  0  0  0  0  0  0  0  0  0
    0.0784    6.1632   13.7414 O   0  0  0  0  0  0  0  0  0  0  0  0
   -2.4055   10.4140    8.4953 C   0  0  1  0  0  0  0  0  0  0  0  0
   -2.4967   10.1318    6.9694 C   0  0  1  0  0  0  0  0  0  0  0  0
   -3.1044   11.3451    6.2106 C   0  0  2  0  0  0  0  0  0  0  0  0
   -4.4811   11.7901    6.8026 C   0  0  1  0  0  0  0  0  0  0  0  0
   -4.4520   11.9501    8.3523 C   0  0  0  0  0  0  0  0  0  0  0  0
   -3.8167   10.7221    9.0715 C   0  0  2  0  0  0  0  0  0  0  0  0
   -4.9555   13.0310    6.1537 N   0  0  0  0  0  0  0  0  0  0  0  0
   -3.7796   10.9745   10.5283 N   0  0  0  0  0  0  0  0  0  0  0  0
   -1.2194    9.7921    6.4397 O   0  0  0  0  0  0  0  0  0  0  0  0
   -3.2308   11.0510    4.8216 O   0  0  0  0  0  0  0  0  0  0  0  0
  1  2  1  0  0  0  0
  1 16  1  1  0  0  0
  2  3  1  0  0  0  0
  2 12  1  1  0  0  0
  4 11  1  1  0  0  0
  4  3  1  0  0  0  0
  5  4  1  0  0  0  0
  5 10  1  6  0  0  0
  6  7  1  0  0  0  0
  6  5  1  0  0  0  0
  6 14  1  1  0  0  0
  7  8  1  0  0  0  0
  7 13  1  6  0  0  0
  8 15  1  1  0  0  0
  8 11  1  0  0  0  0
  9 13  1  0  0  0  0
 10  1  1  0  0  0  0
 17 15  1  1  0  0  0
 17 18  1  0  0  0  0
 18 25  1  6  0  0  0
 19 18  1  0  0  0  0
 19 26  1  1  0  0  0
 20 19  1  0  0  0  0
 20 24  1  1  0  0  0
 21 23  1  0  0  0  0
 21 20  1  0  0  0  0
 21 22  1  1  0  0  0
 23 17  1  0  0  0  0
 27 22  1  0  0  0  0
 28 29  1  0  0  0  0
 28 16  1  1  0  0  0
 29 36  1  6  0  0  0
 30 37  1  6  0  0  0
 30 29  1  0  0  0  0
 31 30  1  0  0  0  0
 31 34  1  6  0  0  0
 32 31  1  0  0  0  0
 32 33  1  0  0  0  0
 33 28  1  0  0  0  0
 33 35  1  1  0  0  0
M  END
>  <CHROM.1>
174.71262899,71.18092462,152.01693238,162.96608876,-177.23238782,-128.53107566
-56.98707907,-62.46635546,-174.64155345,177.60583087,61.97983615,-43.04541844
-61.72067436,-176.96325357,-56.81603059,-72.45965875,0.25592259,7.10869899
9.95239741,2.52861463,0.63703641,-1.37222176

>  <Name>
lig.pdb

>  <RI>
0

>  <Rbt.Current_Directory>
/home/itssahil/PROJECTS/Mol_Feturizer/New_Systems/rnas/2m4q

>  <Rbt.Executable>
rbdock ($Id: //depot/dev/client3/rdock/2013.1/src/exe/rbdock.cxx#4 $)

>  <Rbt.Library>
libRbt.so (2013.1, Build901 2013/11/27)

>  <Rbt.Parameter_File>
/export/apps/rDock/src/rDock_2013.1_src/data/scripts/dock_solv.prm

>  <Rbt.Receptor>
prm/pocket_docking_3.prm

>  <SCORE>
-42.9824

>  <SCORE.INTER>
-22.4126

>  <SCORE.INTER.CONST>
1

>  <SCORE.INTER.POLAR>
-2.36394

>  <SCORE.INTER.ROT>
10

>  <SCORE.INTER.SOLV>
14.4707

>  <SCORE.INTER.VDW>
-22.1522

>  <SCORE.INTER.norm>
-0.605746

>  <SCORE.INTRA>
-20.5697

>  <SCORE.INTRA.DIHEDRAL>
-32.6622

>  <SCORE.INTRA.DIHEDRAL.0>
44.8331

>  <SCORE.INTRA.POLAR>
-0.929307

>  <SCORE.INTRA.POLAR.0>
-0.108895

>  <SCORE.INTRA.REPUL>
-0.00912235

>  <SCORE.INTRA.REPUL.0>
0.00912235

>  <SCORE.INTRA.SOLV>
-0.021725

>  <SCORE.INTRA.SOLV.lig_0>
-53.9067

>  <SCORE.INTRA.VDW>
-1.02251

>  <SCORE.INTRA.VDW.0>
-2.93492

>  <SCORE.INTRA.norm>
-0.555939

>  <SCORE.RESTR>
0

>  <SCORE.RESTR.CAVITY>
0

>  <SCORE.RESTR.norm>
0

>  <SCORE.SYSTEM>
0

>  <SCORE.SYSTEM.CONST>
0

>  <SCORE.SYSTEM.DIHEDRAL>
0

>  <SCORE.SYSTEM.SOLV>
0

>  <SCORE.SYSTEM.norm>
0

>  <SCORE.heavy>
37

>  <SCORE.norm>
-1.16169

>  <RMSD>
3.208

$$$$
lig.pdb
 OpenBabel11021811453D
libRbt.so/2013.1/901 2013/11/27
 37 40  0  0  0  0  0  0  0  0999 V2000
   -1.5207    7.4605   10.2836 C   0  0  2  0  0  0  0  0  0  0  0  0
   -1.8524    6.9102   11.7099 C   0  0  1  0  0  0  0  0  0  0  0  0
   -0.5862    6.5380   12.5357 C   0  0  0  0  0  0  0  0  0  0  0  0
    0.3823    5.6593   11.7056 C   0  0  1  0  0  0  0  0  0  0  0  0
    0.7428    6.3763   10.3853 C   0  0  1  0  0  0  0  0  0  0  0  0
    1.7504    5.5380    9.5536 C   0  0  1  0  0  0  0  0  0  0  0  0
    3.0003    5.1663   10.4057 C   0  0  1  0  0  0  0  0  0  0  0  0
    2.6069    4.5205   11.7675 C   0  0  2  0  0  0  0  0  0  0  0  0
    5.3143    4.5251    9.9076 C   0  0  0  0  0  0  0  0  0  0  0  0
   -0.4642    6.6847    9.6302 O   0  0  0  0  0  0  0  0  0  0  0  0
    1.5800    5.3009   12.4532 O   0  0  0  0  0  0  0  0  0  0  0  0
   -2.6561    7.9040   12.4541 N   0  0  0  0  0  0  0  0  0  0  0  0
    3.8848    4.2885    9.6117 N   0  0  0  0  0  0  0  0  0  0  0  0
    1.1330    4.3778    9.0111 O   0  0  0  0  0  0  0  0  0  0  0  0
    3.7858    4.3436   12.6062 O   0  0  0  0  0  0  0  0  0  0  0  0
   -1.1585    8.8743   10.3343 O   0  0  0  0  0  0  0  0  0  0  0  0
    3.7296    3.3658   13.6900 C   0  0  2  0  0  0  0  0  0  0  0  0
    5.0665    3.3363   14.4839 C   0  0  1  0  0  0  0  0  0  0  0  0
    6.2175    2.7039   13.6501 C   0  0  2  0  0  0  0  0  0  0  0  0
    5.8089    1.3080   13.0967 C   0  0  1  0  0  0  0  0  0  0  0  0
    4.4523    1.3760   12.3414 C   0  0  1  0  0  0  0  0  0  0  0  0
    3.9645   -0.0295   11.9021 C   0  0  0  0  0  0  0  0  0  0  0  0
    3.4433    2.0348   13.1656 O   0  0  0  0  0  0  0  0  0  0  0  0
    6.8726    0.7314   12.2454 N   0  0  0  0  0  0  0  0  0  0  0  0
    5.4043    4.6431   14.9450 O   0  0  0  0  0  0  0  0  0  0  0  0
    7.4205    2.6230   14.4114 O   0  0  0  0  0  0  0  0  0  0  0  0
    3.9902   -0.9402   12.9963 O   0  0  0  0  0  0  0  0  0  0  0  0
   -0.8041    9.5280    9.0809 C   0  0  1  0  0  0  0  0  0  0  0  0
    0.5501    9.0122    8.5185 C   0  0  1  0  0  0  0  0  0  0  0  0
    0.9561    9.7897    7.2348 C   0  0  2  0  0  0  0  0  0  0  0  0
   -0.1677    9.7752    6.1482 C   0  0  1  0  0  0  0  0  0  0  0  0
   -1.5665   10.1594    6.7169 C   0  0  0  0  0  0  0  0  0  0  0  0
   -1.9247    9.3730    8.0139 C   0  0  2  0  0  0  0  0  0  0  0  0
    0.1937   10.6433    5.0073 N   0  0  0  0  0  0  0  0  0  0  0  0
   -3.2381    9.8313    8.5162 N   0  0  0  0  0  0  0  0  0  0  0  0
    1.5733    9.0956    9.5052 O   0  0  0  0  0  0  0  0  0  0  0  0
    2.1716    9.2699    6.7016 O   0  0  0  0  0  0  0  0  0  0  0  0
  1  2  1  0  0  0  0
  1 16  1  1  0  0  0
  2  3  1  0  0  0  0
  2 12  1  1  0  0  0
  4 11  1  1  0  0  0
  4  3  1  0  0  0  0
  5  4  1  0  0  0  0
  5 10  1  6  0  0  0
  6  7  1  0  0  0  0
  6  5  1  0  0  0  0
  6 14  1  1  0  0  0
  7  8  1  0  0  0  0
  7 13  1  6  0  0  0
  8 15  1  1  0  0  0
  8 11  1  0  0  0  0
  9 13  1  0  0  0  0
 10  1  1  0  0  0  0
 17 15  1  6  0  0  0
 17 18  1  0  0  0  0
 18 25  1  6  0  0  0
 19 18  1  0  0  0  0
 19 26  1  1  0  0  0
 20 19  1  0  0  0  0
 20 24  1  6  0  0  0
 21 23  1  0  0  0  0
 21 20  1  0  0  0  0
 21 22  1  1  0  0  0
 23 17  1  0  0  0  0
 27 22  1  0  0  0  0
 28 29  1  0  0  0  0
 28 16  1  1  0  0  0
 29 36  1  1  0  0  0
 30 37  1  6  0  0  0
 30 29  1  0  0  0  0
 31 30  1  0  0  0  0
 31 34  1  6  0  0  0
 32 31  1  0  0  0  0
 32 33  1  0  0  0  0
 33 28  1  0  0  0  0
 33 35  1  1  0  0  0
M  END
>  <CHROM.1>
-134.78516865,-159.08382071,145.74384829,179.21096341,-179.07616820,179.21110403
179.84785905,-63.15360004,50.64494089,174.46679742,-85.32285442,-69.19860046
-60.03007973,-179.38012266,-85.66368719,-160.77446907,1.93495207,5.71084489
10.73359554,2.25224075,0.47021482,-0.94851031

>  <Name>
lig.pdb

>  <RI>
0

>  <Rbt.Current_Directory>
/home/itssahil/PROJECTS/Mol_Feturizer/New_Systems/rnas/2m4q

>  <Rbt.Executable>
rbdock ($Id: //depot/dev/client3/rdock/2013.1/src/exe/rbdock.cxx#4 $)

>  <Rbt.Library>
libRbt.so (2013.1, Build901 2013/11/27)

>  <Rbt.Parameter_File>
/export/apps/rDock/src/rDock_2013.1_src/data/scripts/dock_solv.prm

>  <Rbt.Receptor>
prm/pocket_docking_7.prm

>  <SCORE>
-45.9937

>  <SCORE.INTER>
-28.7943

>  <SCORE.INTER.CONST>
1

>  <SCORE.INTER.POLAR>
-5.44941

>  <SCORE.INTER.ROT>
10

>  <SCORE.INTER.SOLV>
14.1077

>  <SCORE.INTER.VDW>
-16.0007

>  <SCORE.INTER.norm>
-0.778226

>  <SCORE.INTRA>
-17.1994

>  <SCORE.INTRA.DIHEDRAL>
-33.7359

>  <SCORE.INTRA.DIHEDRAL.0>
44.8331

>  <SCORE.INTRA.POLAR>
0.0118381

>  <SCORE.INTRA.POLAR.0>
-0.108895

>  <SCORE.INTRA.REPUL>
0.0192242

>  <SCORE.INTRA.REPUL.0>
0.00912235

>  <SCORE.INTRA.SOLV>
-1.09582

>  <SCORE.INTRA.SOLV.lig_0>
-53.9067

>  <SCORE.INTRA.VDW>
0.0801077

>  <SCORE.INTRA.VDW.0>
-2.93492

>  <SCORE.INTRA.norm>
-0.464848

>  <SCORE.RESTR>
0

>  <SCORE.RESTR.CAVITY>
0

>  <SCORE.RESTR.norm>
0

>  <SCORE.SYSTEM>
0

>  <SCORE.SYSTEM.CONST>
0

>  <SCORE.SYSTEM.DIHEDRAL>
0

>  <SCORE.SYSTEM.SOLV>
0

>  <SCORE.SYSTEM.norm>
0

>  <SCORE.heavy>
37

>  <SCORE.norm>
-1.24307

>  <RMSD>
3.214

$$$$
lig.pdb
 OpenBabel11021811453D
libRbt.so/2013.1/901 2013/11/27
 37 40  0  0  0  0  0  0  0  0999 V2000
   -2.4505    7.9760    8.9085 C   0  0  2  0  0  0  0  0  0  0  0  0
   -2.5973    7.2892   10.3063 C   0  0  1  0  0  0  0  0  0  0  0  0
   -1.2314    6.9516   10.9727 C   0  0  0  0  0  0  0  0  0  0  0  0
   -0.2931    6.2200    9.9810 C   0  0  1  0  0  0  0  0  0  0  0  0
   -0.1184    7.0662    8.7001 C   0  0  1  0  0  0  0  0  0  0  0  0
    0.8557    6.3780    7.7066 C   0  0  1  0  0  0  0  0  0  0  0  0
    2.2081    6.0374    8.4006 C   0  0  1  0  0  0  0  0  0  0  0  0
    2.0001    5.2562    9.7320 C   0  0  2  0  0  0  0  0  0  0  0  0
    4.5042    5.5501    7.6905 C   0  0  0  0  0  0  0  0  0  0  0  0
   -1.4140    7.3393    8.0927 O   0  0  0  0  0  0  0  0  0  0  0  0
    0.9960    5.8970   10.5775 O   0  0  0  0  0  0  0  0  0  0  0  0
   -3.3888    8.1549   11.2073 N   0  0  0  0  0  0  0  0  0  0  0  0
    3.0666    5.2974    7.4528 N   0  0  0  0  0  0  0  0  0  0  0  0
    0.2687    5.2204    7.1260 O   0  0  0  0  0  0  0  0  0  0  0  0
    3.2671    5.1049   10.4365 O   0  0  0  0  0  0  0  0  0  0  0  0
   -2.1840    9.4050    9.0478 O   0  0  0  0  0  0  0  0  0  0  0  0
    3.9590    6.3080   10.8921 C   0  0  2  0  0  0  0  0  0  0  0  0
    5.3251    5.9519   11.5446 C   0  0  1  0  0  0  0  0  0  0  0  0
    5.1403    5.2469   12.9189 C   0  0  2  0  0  0  0  0  0  0  0  0
    4.2174    6.0777   13.8569 C   0  0  1  0  0  0  0  0  0  0  0  0
    2.8796    6.4410   13.1542 C   0  0  1  0  0  0  0  0  0  0  0  0
    2.0069    7.3827   14.0248 C   0  0  0  0  0  0  0  0  0  0  0  0
    3.1371    7.0414   11.8486 O   0  0  0  0  0  0  0  0  0  0  0  0
    3.9814    5.3798   15.1398 N   0  0  0  0  0  0  0  0  0  0  0  0
    6.1181    5.1710   10.6524 O   0  0  0  0  0  0  0  0  0  0  0  0
    6.3986    4.9847   13.5364 O   0  0  0  0  0  0  0  0  0  0  0  0
    0.7321    7.5908   13.4256 O   0  0  0  0  0  0  0  0  0  0  0  0
   -2.8110   10.3073    8.0904 C   0  0  1  0  0  0  0  0  0  0  0  0
   -2.5461    9.8724    6.6217 C   0  0  1  0  0  0  0  0  0  0  0  0
   -3.1403   10.8998    5.6173 C   0  0  2  0  0  0  0  0  0  0  0  0
   -4.6566   11.1786    5.8764 C   0  0  1  0  0  0  0  0  0  0  0  0
   -4.9702   11.4859    7.3714 C   0  0  0  0  0  0  0  0  0  0  0  0
   -4.3391   10.4448    8.3443 C   0  0  2  0  0  0  0  0  0  0  0  0
   -5.1480   12.2641    5.0011 N   0  0  0  0  0  0  0  0  0  0  0  0
   -4.6381   10.8355    9.7390 N   0  0  0  0  0  0  0  0  0  0  0  0
   -1.1532    9.6875    6.3914 O   0  0  0  0  0  0  0  0  0  0  0  0
   -2.9363   10.4605    4.2768 O   0  0  0  0  0  0  0  0  0  0  0  0
  1  2  1  0  0  0  0
  1 16  1  1  0  0  0
  2  3  1  0  0  0  0
  2 12  1  1  0  0  0
  4 11  1  1  0  0  0
  4  3  1  0  0  0  0
  5  4  1  0  0  0  0
  5 10  1  6  0  0  0
  6  7  1  0  0  0  0
  6  5  1  0  0  0  0
  6 14  1  1  0  0  0
  7  8  1  0  0  0  0
  7 13  1  6  0  0  0
  8 15  1  1  0  0  0
  8 11  1  0  0  0  0
  9 13  1  0  0  0  0
 10  1  1  0  0  0  0
 17 15  1  1  0  0  0
 17 18  1  0  0  0  0
 18 25  1  6  0  0  0
 19 18  1  0  0  0  0
 19 26  1  1  0  0  0
 20 19  1  0  0  0  0
 20 24  1  1  0  0  0
 21 23  1  0  0  0  0
 21 20  1  0  0  0  0
 21 22  1  1  0  0  0
 23 17  1  0  0  0  0
 27 22  1  0  0  0  0
 28 29  1  0  0  0  0
 28 16  1  1  0  0  0
 29 36  1  1  0  0  0
 30 37  1  6  0  0  0
 30 29  1  0  0  0  0
 31 30  1  0  0  0  0
 31 34  1  6  0  0  0
 32 31  1  0  0  0  0
 32 33  1  0  0  0  0
 33 28  1  0  0  0  0
 33 35  1  1  0  0  0
M  END
>  <CHROM.1>
51.55143117,62.81110618,149.57916920,-52.94436406,-176.68569698,-141.98852513
-49.77650771,-57.52217472,-173.98703513,56.91025128,64.20322966,-51.89450191
-56.23962440,66.63037362,-144.96501684,75.67492173,0.32361145,7.56028190
9.59084710,2.62662211,0.54045897,-1.56698961

>  <Name>
lig.pdb

>  <RI>
3.87352e+07

>  <Rbt.Current_Directory>
/home/itssahil/PROJECTS/Mol_Feturizer/New_Systems/rnas/2m4q

>  <Rbt.Executable>
rbdock ($Id: //depot/dev/client3/rdock/2013.1/src/exe/rbdock.cxx#4 $)

>  <Rbt.Library>
libRbt.so (2013.1, Build901 2013/11/27)

>  <Rbt.Parameter_File>
/export/apps/rDock/src/rDock_2013.1_src/data/scripts/dock_solv.prm

>  <Rbt.Receptor>
prm/pocket_docking_4.prm

>  <SCORE>
-36.6963

>  <SCORE.INTER>
-19.4228

>  <SCORE.INTER.CONST>
1

>  <SCORE.INTER.POLAR>
-2.32036

>  <SCORE.INTER.ROT>
10

>  <SCORE.INTER.SOLV>
16.0657

>  <SCORE.INTER.VDW>
-20.8359

>  <SCORE.INTER.norm>
-0.52494

>  <SCORE.INTRA>
-17.2736

>  <SCORE.INTRA.DIHEDRAL>
-34.2179

>  <SCORE.INTRA.DIHEDRAL.0>
44.8331

>  <SCORE.INTRA.POLAR>
0.0229087

>  <SCORE.INTRA.POLAR.0>
-0.108895

>  <SCORE.INTRA.REPUL>
-0.00912235

>  <SCORE.INTRA.REPUL.0>
0.00912235

>  <SCORE.INTRA.SOLV>
0.27958

>  <SCORE.INTRA.SOLV.lig_0>
-53.9067

>  <SCORE.INTRA.VDW>
-0.336703

>  <SCORE.INTRA.VDW.0>
-2.93492

>  <SCORE.INTRA.norm>
-0.466853

>  <SCORE.RESTR>
0

>  <SCORE.RESTR.CAVITY>
0

>  <SCORE.RESTR.norm>
0

>  <SCORE.SYSTEM>
0

>  <SCORE.SYSTEM.CONST>
0

>  <SCORE.SYSTEM.DIHEDRAL>
0

>  <SCORE.SYSTEM.SOLV>
0

>  <SCORE.SYSTEM.norm>
0

>  <SCORE.heavy>
37

>  <SCORE.norm>
-0.991793

>  <RMSD>
3.315

$$$$
lig.pdb
 OpenBabel11021811453D
libRbt.so/2013.1/901 2013/11/27
 37 40  0  0  0  0  0  0  0  0999 V2000
   -0.8204    5.8377   10.8886 C   0  0  2  0  0  0  0  0  0  0  0  0
   -0.2771    5.0546   12.1290 C   0  0  1  0  0  0  0  0  0  0  0  0
    1.2711    5.1299   12.2744 C   0  0  0  0  0  0  0  0  0  0  0  0
    1.9737    4.7990   10.9342 C   0  0  1  0  0  0  0  0  0  0  0  0
    1.4510    5.7345    9.8211 C   0  0  1  0  0  0  0  0  0  0  0  0
    2.1728    5.4562    8.4753 C   0  0  1  0  0  0  0  0  0  0  0  0
    3.7193    5.5226    8.6503 C   0  0  1  0  0  0  0  0  0  0  0  0
    4.2113    4.6348    9.8318 C   0  0  2  0  0  0  0  0  0  0  0  0
    4.6556    3.7073    7.2932 C   0  0  0  0  0  0  0  0  0  0  0  0
    0.0042    5.6170    9.6984 O   0  0  0  0  0  0  0  0  0  0  0  0
    3.4249    4.8679   11.0404 O   0  0  0  0  0  0  0  0  0  0  0  0
   -0.9168    5.5648   13.3611 N   0  0  0  0  0  0  0  0  0  0  0  0
    4.3679    5.1556    7.3745 N   0  0  0  0  0  0  0  0  0  0  0  0
    1.7700    4.2102    7.9213 O   0  0  0  0  0  0  0  0  0  0  0  0
    5.6320    4.8523   10.0744 O   0  0  0  0  0  0  0  0  0  0  0  0
   -0.9332    7.2655   11.1736 O   0  0  0  0  0  0  0  0  0  0  0  0
    6.2253    4.2940   11.2869 C   0  0  2  0  0  0  0  0  0  0  0  0
    7.6304    3.6946   10.9949 C   0  0  1  0  0  0  0  0  0  0  0  0
    7.5361    2.3906   10.1519 C   0  0  2  0  0  0  0  0  0  0  0  0
    6.5635    1.3674   10.8069 C   0  0  1  0  0  0  0  0  0  0  0  0
    5.1849    2.0164   11.1132 C   0  0  1  0  0  0  0  0  0  0  0  0
    4.2512    1.0505   11.8888 C   0  0  0  0  0  0  0  0  0  0  0  0
    5.3622    3.2627   11.8525 O   0  0  0  0  0  0  0  0  0  0  0  0
    6.4158    0.1530    9.9749 N   0  0  0  0  0  0  0  0  0  0  0  0
    8.4702    4.6659   10.3737 O   0  0  0  0  0  0  0  0  0  0  0  0
    8.8249    1.8159    9.9467 O   0  0  0  0  0  0  0  0  0  0  0  0
    4.0076   -0.1332   11.1359 O   0  0  0  0  0  0  0  0  0  0  0  0
   -0.7559    8.1937   10.0641 C   0  0  1  0  0  0  0  0  0  0  0  0
   -2.1150    8.6362    9.4532 C   0  0  1  0  0  0  0  0  0  0  0  0
   -1.9011    9.5480    8.2122 C   0  0  2  0  0  0  0  0  0  0  0  0
   -0.9778   10.7708    8.5226 C   0  0  1  0  0  0  0  0  0  0  0  0
    0.3352   10.3683    9.2586 C   0  0  0  0  0  0  0  0  0  0  0  0
    0.0775    9.4383   10.4823 C   0  0  2  0  0  0  0  0  0  0  0  0
   -0.6791   11.5298    7.2895 N   0  0  0  0  0  0  0  0  0  0  0  0
    1.3718    9.0619   11.0911 N   0  0  0  0  0  0  0  0  0  0  0  0
   -2.9123    7.5050    9.1182 O   0  0  0  0  0  0  0  0  0  0  0  0
   -3.1546    9.9884    7.6960 O   0  0  0  0  0  0  0  0  0  0  0  0
  1  2  1  0  0  0  0
  1 16  1  1  0  0  0
  2  3  1  0  0  0  0
  2 12  1  1  0  0  0
  4 11  1  1  0  0  0
  4  3  1  0  0  0  0
  5  4  1  0  0  0  0
  5 10  1  6  0  0  0
  6  7  1  0  0  0  0
  6  5  1  0  0  0  0
  6 14  1  1  0  0  0
  7  8  1  0  0  0  0
  7 13  1  6  0  0  0
  8 15  1  1  0  0  0
  8 11  1  0  0  0  0
  9 13  1  0  0  0  0
 10  1  1  0  0  0  0
 17 15  1  6  0  0  0
 17 18  1  0  0  0  0
 18 25  1  6  0  0  0
 19 18  1  0  0  0  0
 19 26  1  1  0  0  0
 20 19  1  0  0  0  0
 20 24  1  6  0  0  0
 21 23  1  0  0  0  0
 21 20  1  0  0  0  0
 21 22  1  1  0  0  0
 23 17  1  0  0  0  0
 27 22  1  0  0  0  0
 28 29  1  0  0  0  0
 28 16  1  1  0  0  0
 29 36  1  6  0  0  0
 30 37  1  1  0  0  0
 30 29  1  0  0  0  0
 31 30  1  0  0  0  0
 31 34  1  6  0  0  0
 32 31  1  0  0  0  0
 32 33  1  0  0  0  0
 33 28  1  0  0  0  0
 33 35  1  6  0  0  0
M  END
>  <CHROM.1>
-36.53827209,169.26904506,-91.42580188,61.75164716,139.17052253,149.62285385
176.34369786,-63.21970275,-60.10105609,68.71183067,-160.11457589,96.66122860
-174.05094495,-67.01326232,-64.32625250,-172.96086259,2.48742377,5.45940539
10.02609066,2.48883859,0.32152673,-0.57081579

>  <Name>
lig.pdb

>  <RI>
3.87352e+07

>  <Rbt.Current_Directory>
/home/itssahil/PROJECTS/Mol_Feturizer/New_Systems/rnas/2m4q

>  <Rbt.Executable>
rbdock ($Id: //depot/dev/client3/rdock/2013.1/src/exe/rbdock.cxx#4 $)

>  <Rbt.Library>
libRbt.so (2013.1, Build901 2013/11/27)

>  <Rbt.Parameter_File>
/export/apps/rDock/src/rDock_2013.1_src/data/scripts/dock_solv.prm

>  <Rbt.Receptor>
prm/pocket_docking_4.prm

>  <SCORE>
-31.3573

>  <SCORE.INTER>
-21.4138

>  <SCORE.INTER.CONST>
1

>  <SCORE.INTER.POLAR>
-3.52038

>  <SCORE.INTER.ROT>
10

>  <SCORE.INTER.SOLV>
18.9794

>  <SCORE.INTER.VDW>
-19.1344

>  <SCORE.INTER.norm>
-0.578752

>  <SCORE.INTRA>
-10.1532

>  <SCORE.INTRA.DIHEDRAL>
-25.1007

>  <SCORE.INTRA.DIHEDRAL.0>
44.8331

>  <SCORE.INTRA.POLAR>
-0.703268

>  <SCORE.INTRA.POLAR.0>
-0.108895

>  <SCORE.INTRA.REPUL>
-0.00912235

>  <SCORE.INTRA.REPUL.0>
0.00912235

>  <SCORE.INTRA.SOLV>
-0.655775

>  <SCORE.INTRA.SOLV.lig_0>
-53.9067

>  <SCORE.INTRA.VDW>
5.16176

>  <SCORE.INTRA.VDW.0>
-2.93492

>  <SCORE.INTRA.norm>
-0.274411

>  <SCORE.RESTR>
0.209702

>  <SCORE.RESTR.CAVITY>
0.209702

>  <SCORE.RESTR.norm>
0.00566762

>  <SCORE.SYSTEM>
0

>  <SCORE.SYSTEM.CONST>
0

>  <SCORE.SYSTEM.DIHEDRAL>
0

>  <SCORE.SYSTEM.SOLV>
0

>  <SCORE.SYSTEM.norm>
0

>  <SCORE.heavy>
37

>  <SCORE.norm>
-0.847495

>  <RMSD>
3.404

$$$$
lig.pdb
 OpenBabel11021811453D
libRbt.so/2013.1/901 2013/11/27
 37 40  0  0  0  0  0  0  0  0999 V2000
   -2.7678    9.4090   10.6589 C   0  0  2  0  0  0  0  0  0  0  0  0
   -2.3876    9.2624   12.1692 C   0  0  1  0  0  0  0  0  0  0  0  0
   -0.9088    8.8297   12.3924 C   0  0  0  0  0  0  0  0  0  0  0  0
   -0.5443    7.6128   11.5061 C   0  0  1  0  0  0  0  0  0  0  0  0
   -0.8352    7.9357   10.0234 C   0  0  1  0  0  0  0  0  0  0  0  0
   -0.4348    6.7491    9.1062 C   0  0  1  0  0  0  0  0  0  0  0  0
    1.0429    6.3258    9.3587 C   0  0  1  0  0  0  0  0  0  0  0  0
    1.3309    6.0866   10.8707 C   0  0  2  0  0  0  0  0  0  0  0  0
    2.7943    5.0355    8.2266 C   0  0  0  0  0  0  0  0  0  0  0  0
   -2.2322    8.3109    9.8512 O   0  0  0  0  0  0  0  0  0  0  0  0
    0.8374    7.1900   11.6908 O   0  0  0  0  0  0  0  0  0  0  0  0
   -2.6437   10.5369   12.8746 N   0  0  0  0  0  0  0  0  0  0  0  0
    1.3526    5.1348    8.5410 N   0  0  0  0  0  0  0  0  0  0  0  0
   -1.3209    5.6490    9.2686 O   0  0  0  0  0  0  0  0  0  0  0  0
    2.7544    5.8608   11.0880 O   0  0  0  0  0  0  0  0  0  0  0  0
   -2.3282   10.6957   10.1264 O   0  0  0  0  0  0  0  0  0  0  0  0
    3.2956    6.0655   12.4294 C   0  0  2  0  0  0  0  0  0  0  0  0
    4.6503    5.3218   12.6032 C   0  0  1  0  0  0  0  0  0  0  0  0
    4.4576    3.7790   12.6554 C   0  0  2  0  0  0  0  0  0  0  0  0
    3.4039    3.3806   13.7291 C   0  0  1  0  0  0  0  0  0  0  0  0
    2.0793    4.1713   13.5398 C   0  0  1  0  0  0  0  0  0  0  0  0
    1.0683    3.8866   14.6813 C   0  0  0  0  0  0  0  0  0  0  0  0
    2.3508    5.6023   13.4399 O   0  0  0  0  0  0  0  0  0  0  0  0
    3.1649    1.9206   13.7363 N   0  0  0  0  0  0  0  0  0  0  0  0
    5.5674    5.7055   11.5803 O   0  0  0  0  0  0  0  0  0  0  0  0
    5.6980    3.1125   12.8804 O   0  0  0  0  0  0  0  0  0  0  0  0
    1.5896    4.3083   15.9374 O   0  0  0  0  0  0  0  0  0  0  0  0
   -2.4629   10.9167    8.6921 C   0  0  1  0  0  0  0  0  0  0  0  0
   -1.4661   10.0489    7.8738 C   0  0  1  0  0  0  0  0  0  0  0  0
   -1.5590   10.3704    6.3555 C   0  0  2  0  0  0  0  0  0  0  0  0
   -3.0187   10.2504    5.8088 C   0  0  1  0  0  0  0  0  0  0  0  0
   -4.0605   11.0026    6.6900 C   0  0  0  0  0  0  0  0  0  0  0  0
   -3.9189   10.6682    8.2055 C   0  0  2  0  0  0  0  0  0  0  0  0
   -3.0920   10.7039    4.4034 N   0  0  0  0  0  0  0  0  0  0  0  0
   -4.9046   11.4584    8.9744 N   0  0  0  0  0  0  0  0  0  0  0  0
   -0.1347   10.2240    8.3473 O   0  0  0  0  0  0  0  0  0  0  0  0
   -0.6784    9.5300    5.6140 O   0  0  0  0  0  0  0  0  0  0  0  0
  1  2  1  0  0  0  0
  1 16  1  6  0  0  0
  2  3  1  0  0  0  0
  2 12  1  1  0  0  0
  4 11  1  6  0  0  0
  4  3  1  0  0  0  0
  5  4  1  0  0  0  0
  5 10  1  1  0  0  0
  6  7  1  0  0  0  0
  6  5  1  0  0  0  0
  6 14  1  1  0  0  0
  7  8  1  0  0  0  0
  7 13  1  6  0  0  0
  8 15  1  6  0  0  0
  8 11  1  0  0  0  0
  9 13  1  0  0  0  0
 10  1  1  0  0  0  0
 17 15  1  6  0  0  0
 17 18  1  0  0  0  0
 18 25  1  6  0  0  0
 19 18  1  0  0  0  0
 19 26  1  1  0  0  0
 20 19  1  0  0  0  0
 20 24  1  6  0  0  0
 21 23  1  0  0  0  0
 21 20  1  0  0  0  0
 21 22  1  1  0  0  0
 23 17  1  0  0  0  0
 27 22  1  0  0  0  0
 28 29  1  0  0  0  0
 28 16  1  1  0  0  0
 29 36  1  1  0  0  0
 30 37  1  6  0  0  0
 30 29  1  0  0  0  0
 31 30  1  0  0  0  0
 31 34  1  6  0  0  0
 32 31  1  0  0  0  0
 32 33  1  0  0  0  0
 33 28  1  0  0  0  0
 33 35  1  1  0  0  0
M  END
>  <CHROM.1>
72.66274587,159.56276710,153.76537184,161.70115994,159.89376665,172.65285140
178.91253727,61.91147820,62.42684738,57.04564261,60.53354182,-70.00463157
-58.81508577,-60.71864200,140.10061279,54.67761355,0.19624034,7.35708957
10.44292150,2.45168704,0.67203394,-1.35590306

>  <Name>
lig.pdb

>  <RI>
3.87352e+07

>  <Rbt.Current_Directory>
/home/itssahil/PROJECTS/Mol_Feturizer/New_Systems/rnas/2m4q

>  <Rbt.Executable>
rbdock ($Id: //depot/dev/client3/rdock/2013.1/src/exe/rbdock.cxx#4 $)

>  <Rbt.Library>
libRbt.so (2013.1, Build901 2013/11/27)

>  <Rbt.Parameter_File>
/export/apps/rDock/src/rDock_2013.1_src/data/scripts/dock_solv.prm

>  <Rbt.Receptor>
prm/pocket_docking_4.prm

>  <SCORE>
-38.9525

>  <SCORE.INTER>
-21.1387

>  <SCORE.INTER.CONST>
1

>  <SCORE.INTER.POLAR>
-3.48671

>  <SCORE.INTER.ROT>
10

>  <SCORE.INTER.SOLV>
13.0101

>  <SCORE.INTER.VDW>
-17.0735

>  <SCORE.INTER.norm>
-0.571315

>  <SCORE.INTRA>
-17.8138

>  <SCORE.INTRA.DIHEDRAL>
-35.2884

>  <SCORE.INTRA.DIHEDRAL.0>
44.8331

>  <SCORE.INTRA.POLAR>
-0.00564381

>  <SCORE.INTRA.POLAR.0>
-0.108895

>  <SCORE.INTRA.REPUL>
-0.00912235

>  <SCORE.INTRA.REPUL.0>
0.00912235

>  <SCORE.INTRA.SOLV>
-0.424021

>  <SCORE.INTRA.SOLV.lig_0>
-53.9067

>  <SCORE.INTRA.VDW>
0.107219

>  <SCORE.INTRA.VDW.0>
-2.93492

>  <SCORE.INTRA.norm>
-0.481454

>  <SCORE.RESTR>
0

>  <SCORE.RESTR.CAVITY>
0

>  <SCORE.RESTR.norm>
0

>  <SCORE.SYSTEM>
0

>  <SCORE.SYSTEM.CONST>
0

>  <SCORE.SYSTEM.DIHEDRAL>
0

>  <SCORE.SYSTEM.SOLV>
0

>  <SCORE.SYSTEM.norm>
0

>  <SCORE.heavy>
37

>  <SCORE.norm>
-1.05277

>  <RMSD>
3.412

$$$$
lig.pdb
 OpenBabel11021811453D
libRbt.so/2013.1/901 2013/11/27
 37 40  0  0  0  0  0  0  0  0999 V2000
   -0.4506    7.4233    7.9952 C   0  0  2  0  0  0  0  0  0  0  0  0
   -1.3230    6.4208    8.8205 C   0  0  1  0  0  0  0  0  0  0  0  0
   -0.5835    5.8374   10.0600 C   0  0  0  0  0  0  0  0  0  0  0  0
    0.8232    5.3155    9.6753 C   0  0  1  0  0  0  0  0  0  0  0  0
    1.6340    6.4409    8.9947 C   0  0  1  0  0  0  0  0  0  0  0  0
    3.0664    5.9590    8.6400 C   0  0  1  0  0  0  0  0  0  0  0  0
    3.7791    5.3667    9.8921 C   0  0  1  0  0  0  0  0  0  0  0  0
    2.9056    4.2936   10.6075 C   0  0  2  0  0  0  0  0  0  0  0  0
    6.1855    5.8058    9.7185 C   0  0  0  0  0  0  0  0  0  0  0  0
    0.9226    6.9427    7.8266 O   0  0  0  0  0  0  0  0  0  0  0  0
    1.5406    4.7687   10.8191 O   0  0  0  0  0  0  0  0  0  0  0  0
   -2.5713    7.0851    9.2544 N   0  0  0  0  0  0  0  0  0  0  0  0
    5.0967    4.8310    9.4920 N   0  0  0  0  0  0  0  0  0  0  0  0
    3.0464    5.0247    7.5684 O   0  0  0  0  0  0  0  0  0  0  0  0
    3.5253    3.8872   11.8626 O   0  0  0  0  0  0  0  0  0  0  0  0
   -0.4555    8.7513    8.6025 O   0  0  0  0  0  0  0  0  0  0  0  0
    3.5915    4.8569   12.9531 C   0  0  2  0  0  0  0  0  0  0  0  0
    4.4257    4.3019   14.1425 C   0  0  1  0  0  0  0  0  0  0  0  0
    3.6790    3.1569   14.8850 C   0  0  2  0  0  0  0  0  0  0  0  0
    2.2462    3.5986   15.3019 C   0  0  1  0  0  0  0  0  0  0  0  0
    1.4605    4.1781   14.0927 C   0  0  1  0  0  0  0  0  0  0  0  0
    0.0819    4.7477   14.5187 C   0  0  0  0  0  0  0  0  0  0  0  0
    2.2512    5.2014   13.4152 O   0  0  0  0  0  0  0  0  0  0  0  0
    1.5056    2.4922   15.9469 N   0  0  0  0  0  0  0  0  0  0  0  0
    5.7175    3.8901   13.6994 O   0  0  0  0  0  0  0  0  0  0  0  0
    4.4248    2.7015   16.0118 O   0  0  0  0  0  0  0  0  0  0  0  0
   -0.5829    5.3479   13.4119 O   0  0  0  0  0  0  0  0  0  0  0  0
   -1.6234    9.5939    8.3792 C   0  0  1  0  0  0  0  0  0  0  0  0
   -1.5438   10.9229    9.1815 C   0  0  1  0  0  0  0  0  0  0  0  0
   -2.8408   11.7620    9.0056 C   0  0  2  0  0  0  0  0  0  0  0  0
   -3.1909   12.0107    7.5025 C   0  0  1  0  0  0  0  0  0  0  0  0
   -3.1457   10.7101    6.6457 C   0  0  0  0  0  0  0  0  0  0  0  0
   -1.8397    9.8892    6.8678 C   0  0  2  0  0  0  0  0  0  0  0  0
   -4.5020   12.6818    7.3727 N   0  0  0  0  0  0  0  0  0  0  0  0
   -1.8983    8.6504    6.0620 N   0  0  0  0  0  0  0  0  0  0  0  0
   -1.2889   10.6685   10.5591 O   0  0  0  0  0  0  0  0  0  0  0  0
   -2.7310   13.0002    9.7032 O   0  0  0  0  0  0  0  0  0  0  0  0
  1  2  1  0  0  0  0
  1 16  1  1  0  0  0
  2  3  1  0  0  0  0
  2 12  1  1  0  0  0
  4 11  1  1  0  0  0
  4  3  1  0  0  0  0
  5  4  1  0  0  0  0
  5 10  1  6  0  0  0
  6  7  1  0  0  0  0
  6  5  1  0  0  0  0
  6 14  1  6  0  0  0
  7  8  1  0  0  0  0
  7 13  1  6  0  0  0
  8 15  1  1  0  0  0
  8 11  1  0  0  0  0
  9 13  1  0  0  0  0
 10  1  1  0  0  0  0
 17 15  1  6  0  0  0
 17 18  1  0  0  0  0
 18 25  1  6  0  0  0
 19 18  1  0  0  0  0
 19 26  1  1  0  0  0
 20 19  1  0  0  0  0
 20 24  1  6  0  0  0
 21 23  1  0  0  0  0
 21 20  1  0  0  0  0
 21 22  1  1  0  0  0
 23 17  1  0  0  0  0
 27 22  1  0  0  0  0
 28 29  1  0  0  0  0
 28 16  1  6  0  0  0
 29 36  1  1  0  0  0
 30 37  1  1  0  0  0
 30 29  1  0  0  0  0
 31 30  1  0  0  0  0
 31 34  1  1  0  0  0
 32 31  1  0  0  0  0
 32 33  1  0  0  0  0
 33 28  1  0  0  0  0
 33 35  1  6  0  0  0
M  END
>  <CHROM.1>
54.66723866,68.16165554,95.63556442,57.07381391,-173.46112073,-78.57130727
178.62440279,-175.21293188,176.32851621,-38.09937920,61.91348515,175.08700498
59.81428656,-59.03632593,62.36313463,179.88281056,0.85467900,6.70621001,10.56016447
-2.33881877,-0.63057684,1.93621387

>  <Name>
lig.pdb

>  <RI>
0

>  <Rbt.Current_Directory>
/home/itssahil/PROJECTS/Mol_Feturizer/New_Systems/rnas/2m4q

>  <Rbt.Executable>
rbdock ($Id: //depot/dev/client3/rdock/2013.1/src/exe/rbdock.cxx#4 $)

>  <Rbt.Library>
libRbt.so (2013.1, Build901 2013/11/27)

>  <Rbt.Parameter_File>
/export/apps/rDock/src/rDock_2013.1_src/data/scripts/dock_solv.prm

>  <Rbt.Receptor>
prm/pocket_docking_7.prm

>  <SCORE>
-39.0731

>  <SCORE.INTER>
-19.4005

>  <SCORE.INTER.CONST>
1

>  <SCORE.INTER.POLAR>
-3.44305

>  <SCORE.INTER.ROT>
10

>  <SCORE.INTER.SOLV>
10.6309

>  <SCORE.INTER.VDW>
-15.2671

>  <SCORE.INTER.norm>
-0.524337

>  <SCORE.INTRA>
-19.6726

>  <SCORE.INTRA.DIHEDRAL>
-39.458

>  <SCORE.INTRA.DIHEDRAL.0>
44.8331

>  <SCORE.INTRA.POLAR>
0.0704768

>  <SCORE.INTRA.POLAR.0>
-0.108895

>  <SCORE.INTRA.REPUL>
0.0176416

>  <SCORE.INTRA.REPUL.0>
0.00912235

>  <SCORE.INTRA.SOLV>
-0.150821

>  <SCORE.INTRA.SOLV.lig_0>
-53.9067

>  <SCORE.INTRA.VDW>
-0.196061

>  <SCORE.INTRA.VDW.0>
-2.93492

>  <SCORE.INTRA.norm>
-0.531693

>  <SCORE.RESTR>
0

>  <SCORE.RESTR.CAVITY>
0

>  <SCORE.RESTR.norm>
0

>  <SCORE.SYSTEM>
0

>  <SCORE.SYSTEM.CONST>
0

>  <SCORE.SYSTEM.DIHEDRAL>
0

>  <SCORE.SYSTEM.SOLV>
0

>  <SCORE.SYSTEM.norm>
0

>  <SCORE.heavy>
37

>  <SCORE.norm>
-1.05603

>  <RMSD>
3.417

$$$$
lig.pdb
 OpenBabel11021811453D
libRbt.so/2013.1/901 2013/11/27
 37 40  0  0  0  0  0  0  0  0999 V2000
    0.6125    6.1487    8.0349 C   0  0  2  0  0  0  0  0  0  0  0  0
    0.4156    5.0298    9.1102 C   0  0  1  0  0  0  0  0  0  0  0  0
    1.6345    4.8734   10.0660 C   0  0  0  0  0  0  0  0  0  0  0  0
    2.9601    4.7876    9.2696 C   0  0  1  0  0  0  0  0  0  0  0  0
    3.1014    6.0203    8.3487 C   0  0  1  0  0  0  0  0  0  0  0  0
    4.4449    5.9840    7.5720 C   0  0  1  0  0  0  0  0  0  0  0  0
    5.6465    5.8123    8.5484 C   0  0  1  0  0  0  0  0  0  0  0  0
    5.4412    4.6130    9.5209 C   0  0  2  0  0  0  0  0  0  0  0  0
    8.0673    6.2014    8.4996 C   0  0  0  0  0  0  0  0  0  0  0  0
    1.9564    6.1178    7.4534 O   0  0  0  0  0  0  0  0  0  0  0  0
    4.1190    4.6467   10.1408 O   0  0  0  0  0  0  0  0  0  0  0  0
   -0.8033    5.3062    9.9011 N   0  0  0  0  0  0  0  0  0  0  0  0
    6.8929    5.6831    7.7654 N   0  0  0  0  0  0  0  0  0  0  0  0
    4.4395    4.9675    6.5779 O   0  0  0  0  0  0  0  0  0  0  0  0
    6.4966    4.5863   10.5258 O   0  0  0  0  0  0  0  0  0  0  0  0
    0.3265    7.4693    8.5889 O   0  0  0  0  0  0  0  0  0  0  0  0
    6.5031    3.4985   11.5008 C   0  0  2  0  0  0  0  0  0  0  0  0
    7.3605    3.8695   12.7441 C   0  0  1  0  0  0  0  0  0  0  0  0
    8.8791    3.8992   12.4082 C   0  0  2  0  0  0  0  0  0  0  0  0
    9.3311    2.5720   11.7328 C   0  0  1  0  0  0  0  0  0  0  0  0
    8.4274    2.2213   10.5180 C   0  0  1  0  0  0  0  0  0  0  0  0
    8.7786    0.8345    9.9180 C   0  0  0  0  0  0  0  0  0  0  0  0
    7.0192    2.2736   10.8993 O   0  0  0  0  0  0  0  0  0  0  0  0
   10.7587    2.6201   11.3479 N   0  0  0  0  0  0  0  0  0  0  0  0
    6.9195    5.1039   13.3066 O   0  0  0  0  0  0  0  0  0  0  0  0
    9.6582    4.1761   13.5699 O   0  0  0  0  0  0  0  0  0  0  0  0
    8.8077   -0.1643   10.9323 O   0  0  0  0  0  0  0  0  0  0  0  0
   -0.8917    8.1383    8.1504 C   0  0  1  0  0  0  0  0  0  0  0  0
   -1.3112    9.2777    9.1210 C   0  0  1  0  0  0  0  0  0  0  0  0
   -2.6626    9.9132    8.6884 C   0  0  2  0  0  0  0  0  0  0  0  0
   -2.6466   10.3935    7.2008 C   0  0  1  0  0  0  0  0  0  0  0  0
   -2.1013    9.3125    6.2200 C   0  0  0  0  0  0  0  0  0  0  0  0
   -0.7576    8.6871    6.7015 C   0  0  2  0  0  0  0  0  0  0  0  0
   -3.9878   10.8549    6.7835 N   0  0  0  0  0  0  0  0  0  0  0  0
   -0.3366    7.6390    5.7467 N   0  0  0  0  0  0  0  0  0  0  0  0
   -1.3822    8.8013   10.4610 O   0  0  0  0  0  0  0  0  0  0  0  0
   -3.0066   10.9903    9.5562 O   0  0  0  0  0  0  0  0  0  0  0  0
  1  2  1  0  0  0  0
  1 16  1  1  0  0  0
  2  3  1  0  0  0  0
  2 12  1  1  0  0  0
  4 11  1  1  0  0  0
  4  3  1  0  0  0  0
  5  4  1  0  0  0  0
  5 10  1  6  0  0  0
  6  7  1  0  0  0  0
  6  5  1  0  0  0  0
  6 14  1  6  0  0  0
  7  8  1  0  0  0  0
  7 13  1  6  0  0  0
  8 15  1  1  0  0  0
  8 11  1  0  0  0  0
  9 13  1  0  0  0  0
 10  1  1  0  0  0  0
 17 15  1  6  0  0  0
 17 18  1  0  0  0  0
 18 25  1  6  0  0  0
 19 18  1  0  0  0  0
 19 26  1  1  0  0  0
 20 19  1  0  0  0  0
 20 24  1  6  0  0  0
 21 23  1  0  0  0  0
 21 20  1  0  0  0  0
 21 22  1  1  0  0  0
 23 17  1  0  0  0  0
 27 22  1  0  0  0  0
 28 29  1  0  0  0  0
 28 16  1  1  0  0  0
 29 36  1  1  0  0  0
 30 37  1  1  0  0  0
 30 29  1  0  0  0  0
 31 30  1  0  0  0  0
 31 34  1  6  0  0  0
 32 31  1  0  0  0  0
 32 33  1  0  0  0  0
 33 28  1  0  0  0  0
 33 35  1  6  0  0  0
M  END
>  <CHROM.1>
-68.86422769,-177.71109131,150.48419915,63.42072209,-160.84348018,-108.50016542
174.39924634,-65.78975335,51.22073800,173.65193116,179.70509172,161.49142758
-60.68154101,61.92993870,-57.31856927,170.99496521,3.51380646,5.74805132
9.41540017,-2.93287419,-0.55725983,1.45381270

>  <Name>
lig.pdb

>  <RI>
0

>  <Rbt.Current_Directory>
/home/itssahil/PROJECTS/Mol_Feturizer/New_Systems/rnas/2m4q

>  <Rbt.Executable>
rbdock ($Id: //depot/dev/client3/rdock/2013.1/src/exe/rbdock.cxx#4 $)

>  <Rbt.Library>
libRbt.so (2013.1, Build901 2013/11/27)

>  <Rbt.Parameter_File>
/export/apps/rDock/src/rDock_2013.1_src/data/scripts/dock_solv.prm

>  <Rbt.Receptor>
prm/pocket_docking_6.prm

>  <SCORE>
-37.8121

>  <SCORE.INTER>
-20.8966

>  <SCORE.INTER.CONST>
1

>  <SCORE.INTER.POLAR>
-3.49277

>  <SCORE.INTER.ROT>
10

>  <SCORE.INTER.SOLV>
14.4903

>  <SCORE.INTER.VDW>
-17.3852

>  <SCORE.INTER.norm>
-0.564772

>  <SCORE.INTRA>
-16.9156

>  <SCORE.INTRA.DIHEDRAL>
-32.4472

>  <SCORE.INTRA.DIHEDRAL.0>
44.8331

>  <SCORE.INTRA.POLAR>
0.108895

>  <SCORE.INTRA.POLAR.0>
-0.108895

>  <SCORE.INTRA.REPUL>
-0.00912235

>  <SCORE.INTRA.REPUL.0>
0.00912235

>  <SCORE.INTRA.SOLV>
-1.50454

>  <SCORE.INTRA.SOLV.lig_0>
-53.9067

>  <SCORE.INTRA.VDW>
-0.264318

>  <SCORE.INTRA.VDW.0>
-2.93492

>  <SCORE.INTRA.norm>
-0.457178

>  <SCORE.RESTR>
0

>  <SCORE.RESTR.CAVITY>
0

>  <SCORE.RESTR.norm>
0

>  <SCORE.SYSTEM>
0

>  <SCORE.SYSTEM.CONST>
0

>  <SCORE.SYSTEM.DIHEDRAL>
0

>  <SCORE.SYSTEM.SOLV>
0

>  <SCORE.SYSTEM.norm>
0

>  <SCORE.heavy>
37

>  <SCORE.norm>
-1.02195

>  <RMSD>
3.423

$$$$
lig.pdb
 OpenBabel11021811453D
libRbt.so/2013.1/901 2013/11/27
 37 40  0  0  0  0  0  0  0  0999 V2000
   -0.0825    8.3668    8.9101 C   0  0  2  0  0  0  0  0  0  0  0  0
    1.1455    7.8520    8.0889 C   0  0  1  0  0  0  0  0  0  0  0  0
    1.6185    6.4312    8.5145 C   0  0  0  0  0  0  0  0  0  0  0  0
    1.7738    6.3328   10.0524 C   0  0  1  0  0  0  0  0  0  0  0  0
    0.4500    6.7324   10.7416 C   0  0  1  0  0  0  0  0  0  0  0  0
    0.5625    6.5978   12.2840 C   0  0  1  0  0  0  0  0  0  0  0  0
    1.0512    5.1735   12.6831 C   0  0  1  0  0  0  0  0  0  0  0  0
    2.3410    4.7621   11.9128 C   0  0  2  0  0  0  0  0  0  0  0  0
   -0.0261    4.8434   14.8613 C   0  0  0  0  0  0  0  0  0  0  0  0
    0.0543    8.0752   10.3388 O   0  0  0  0  0  0  0  0  0  0  0  0
    2.2104    5.0102   10.4792 O   0  0  0  0  0  0  0  0  0  0  0  0
    0.8183    7.8550    6.6464 N   0  0  0  0  0  0  0  0  0  0  0  0
    1.2396    5.1182   14.1475 N   0  0  0  0  0  0  0  0  0  0  0  0
    1.4060    7.6037   12.8300 O   0  0  0  0  0  0  0  0  0  0  0  0
    2.6710    3.3679   12.1810 O   0  0  0  0  0  0  0  0  0  0  0  0
   -1.3318    7.8143    8.3939 O   0  0  0  0  0  0  0  0  0  0  0  0
    3.9905    3.0564   12.7248 C   0  0  2  0  0  0  0  0  0  0  0  0
    5.1121    3.4301   11.7144 C   0  0  1  0  0  0  0  0  0  0  0  0
    5.1257    2.4720   10.4889 C   0  0  2  0  0  0  0  0  0  0  0  0
    5.1858    0.9838   10.9400 C   0  0  1  0  0  0  0  0  0  0  0  0
    4.0709    0.6626   11.9741 C   0  0  1  0  0  0  0  0  0  0  0  0
    4.2011   -0.7776   12.5355 C   0  0  0  0  0  0  0  0  0  0  0  0
    4.0862    1.6395   13.0589 O   0  0  0  0  0  0  0  0  0  0  0  0
    5.1291    0.0651    9.7819 N   0  0  0  0  0  0  0  0  0  0  0  0
    4.9940    4.7949   11.3169 O   0  0  0  0  0  0  0  0  0  0  0  0
    6.1985    2.7843    9.6030 O   0  0  0  0  0  0  0  0  0  0  0  0
    3.0803   -1.1080   13.3491 O   0  0  0  0  0  0  0  0  0  0  0  0
   -2.2563    8.7290    7.7363 C   0  0  1  0  0  0  0  0  0  0  0  0
   -2.5180   10.0031    8.5875 C   0  0  1  0  0  0  0  0  0  0  0  0
   -3.5791   10.9185    7.9143 C   0  0  2  0  0  0  0  0  0  0  0  0
   -3.2103   11.2724    6.4369 C   0  0  1  0  0  0  0  0  0  0  0  0
   -2.8120   10.0232    5.5951 C   0  0  0  0  0  0  0  0  0  0  0  0
   -1.7633    9.1227    6.3149 C   0  0  2  0  0  0  0  0  0  0  0  0
   -4.3083   12.0183    5.7857 N   0  0  0  0  0  0  0  0  0  0  0  0
   -1.4794    7.9377    5.4768 N   0  0  0  0  0  0  0  0  0  0  0  0
   -2.9155    9.6560    9.9101 O   0  0  0  0  0  0  0  0  0  0  0  0
   -3.7686   12.1065    8.6789 O   0  0  0  0  0  0  0  0  0  0  0  0
  1  2  1  0  0  0  0
  1 16  1  6  0  0  0
  2  3  1  0  0  0  0
  2 12  1  6  0  0  0
  4 11  1  6  0  0  0
  4  3  1  0  0  0  0
  5  4  1  0  0  0  0
  5 10  1  1  0  0  0
  6  7  1  0  0  0  0
  6  5  1  0  0  0  0
  6 14  1  6  0  0  0
  7  8  1  0  0  0  0
  7 13  1  1  0  0  0
  8 15  1  6  0  0  0
  8 11  1  0  0  0  0
  9 13  1  0  0  0  0
 10  1  1  0  0  0  0
 17 15  1  6  0  0  0
 17 18  1  0  0  0  0
 18 25  1  6  0  0  0
 19 18  1  0  0  0  0
 19 26  1  6  0  0  0
 20 19  1  0  0  0  0
 20 24  1  6  0  0  0
 21 23  1  0  0  0  0
 21 20  1  0  0  0  0
 21 22  1  1  0  0  0
 23 17  1  0  0  0  0
 27 22  1  0  0  0  0
 28 29  1  0  0  0  0
 28 16  1  1  0  0  0
 29 36  1  1  0  0  0
 30 37  1  1  0  0  0
 30 29  1  0  0  0  0
 31 30  1  0  0  0  0
 31 34  1  6  0  0  0
 32 31  1  0  0  0  0
 32 33  1  0  0  0  0
 33 28  1  0  0  0  0
 33 35  1  6  0  0  0
M  END
>  <CHROM.1>
-174.22510277,-123.42154350,83.54721545,63.15061620,-64.20798231,-111.28149264
179.27538815,60.86678007,-172.70800113,57.17298292,-179.57501183,-49.47650751
-63.79039100,62.89091990,-58.78611799,-168.29356335,1.05280496,5.97646634
10.09148813,-2.56501185,-0.81380659,1.80243987

>  <Name>
lig.pdb

>  <RI>
0

>  <Rbt.Current_Directory>
/home/itssahil/PROJECTS/Mol_Feturizer/New_Systems/rnas/2m4q

>  <Rbt.Executable>
rbdock ($Id: //depot/dev/client3/rdock/2013.1/src/exe/rbdock.cxx#4 $)

>  <Rbt.Library>
libRbt.so (2013.1, Build901 2013/11/27)

>  <Rbt.Parameter_File>
/export/apps/rDock/src/rDock_2013.1_src/data/scripts/dock_solv.prm

>  <Rbt.Receptor>
prm/pocket_docking_7.prm

>  <SCORE>
-39.6922

>  <SCORE.INTER>
-27.897

>  <SCORE.INTER.CONST>
1

>  <SCORE.INTER.POLAR>
-4.20553

>  <SCORE.INTER.ROT>
10

>  <SCORE.INTER.SOLV>
18.4775

>  <SCORE.INTER.VDW>
-21.0054

>  <SCORE.INTER.norm>
-0.753972

>  <SCORE.INTRA>
-11.7952

>  <SCORE.INTRA.DIHEDRAL>
-28.1118

>  <SCORE.INTRA.DIHEDRAL.0>
44.8331

>  <SCORE.INTRA.POLAR>
0.108895

>  <SCORE.INTRA.POLAR.0>
-0.108895

>  <SCORE.INTRA.REPUL>
0.228237

>  <SCORE.INTRA.REPUL.0>
0.00912235

>  <SCORE.INTRA.SOLV>
-0.406318

>  <SCORE.INTRA.SOLV.lig_0>
-53.9067

>  <SCORE.INTRA.VDW>
0.95243

>  <SCORE.INTRA.VDW.0>
-2.93492

>  <SCORE.INTRA.norm>
-0.318789

>  <SCORE.RESTR>
0

>  <SCORE.RESTR.CAVITY>
0

>  <SCORE.RESTR.norm>
0

>  <SCORE.SYSTEM>
0

>  <SCORE.SYSTEM.CONST>
0

>  <SCORE.SYSTEM.DIHEDRAL>
0

>  <SCORE.SYSTEM.SOLV>
0

>  <SCORE.SYSTEM.norm>
0

>  <SCORE.heavy>
37

>  <SCORE.norm>
-1.07276

>  <RMSD>
3.589

$$$$
lig.pdb
 OpenBabel11021811453D
libRbt.so/2013.1/901 2013/11/27
 37 40  0  0  0  0  0  0  0  0999 V2000
   -2.8264    8.4707   10.5948 C   0  0  2  0  0  0  0  0  0  0  0  0
   -2.8846    8.1678   12.1284 C   0  0  1  0  0  0  0  0  0  0  0  0
   -1.5084    7.7526   12.7264 C   0  0  0  0  0  0  0  0  0  0  0  0
   -0.8371    6.6516   11.8683 C   0  0  1  0  0  0  0  0  0  0  0  0
   -0.7113    7.1291   10.4042 C   0  0  1  0  0  0  0  0  0  0  0  0
    0.0014    6.0627    9.5299 C   0  0  1  0  0  0  0  0  0  0  0  0
    1.3676    5.6535   10.1566 C   0  0  1  0  0  0  0  0  0  0  0  0
    1.2260    5.2559   11.6559 C   0  0  2  0  0  0  0  0  0  0  0  0
    2.5709    5.0752    8.0995 C   0  0  0  0  0  0  0  0  0  0  0  0
   -2.0205    7.4837    9.8727 O   0  0  0  0  0  0  0  0  0  0  0  0
    0.4566    6.2480   12.4025 O   0  0  0  0  0  0  0  0  0  0  0  0
   -3.4040    9.3489   12.8514 N   0  0  0  0  0  0  0  0  0  0  0  0
    1.9656    4.5693    9.3504 N   0  0  0  0  0  0  0  0  0  0  0  0
   -0.8294    4.9281    9.3197 O   0  0  0  0  0  0  0  0  0  0  0  0
    2.5391    5.0456   12.2528 O   0  0  0  0  0  0  0  0  0  0  0  0
   -2.3280    9.8198   10.3418 O   0  0  0  0  0  0  0  0  0  0  0  0
    2.8388    5.6977   13.5251 C   0  0  2  0  0  0  0  0  0  0  0  0
    4.2517    5.2978   14.0372 C   0  0  1  0  0  0  0  0  0  0  0  0
    4.2944    3.8168   14.5112 C   0  0  2  0  0  0  0  0  0  0  0  0
    3.1686    3.5253   15.5453 C   0  0  1  0  0  0  0  0  0  0  0  0
    1.7801    3.9713   15.0080 C   0  0  1  0  0  0  0  0  0  0  0  0
    0.6685    3.8135   16.0784 C   0  0  0  0  0  0  0  0  0  0  0  0
    1.8387    5.3490   14.5284 O   0  0  0  0  0  0  0  0  0  0  0  0
    3.1599    2.1018   15.9482 N   0  0  0  0  0  0  0  0  0  0  0  0
    5.2388    5.5629   13.0422 O   0  0  0  0  0  0  0  0  0  0  0  0
    5.5762    3.4816   15.0386 O   0  0  0  0  0  0  0  0  0  0  0  0
    0.4980    2.4455   16.4346 O   0  0  0  0  0  0  0  0  0  0  0  0
   -2.3219   10.2921    8.9630 C   0  0  1  0  0  0  0  0  0  0  0  0
   -1.3754    9.4486    8.0636 C   0  0  1  0  0  0  0  0  0  0  0  0
   -1.3093   10.0275    6.6221 C   0  0  2  0  0  0  0  0  0  0  0  0
   -2.7252   10.1937    5.9807 C   0  0  1  0  0  0  0  0  0  0  0  0
   -3.7351   10.9197    6.9192 C   0  0  0  0  0  0  0  0  0  0  0  0
   -3.7544   10.3222    8.3585 C   0  0  2  0  0  0  0  0  0  0  0  0
   -2.6328   10.8803    4.6745 N   0  0  0  0  0  0  0  0  0  0  0  0
   -4.6954   11.0966    9.1964 N   0  0  0  0  0  0  0  0  0  0  0  0
   -0.0740    9.3654    8.6353 O   0  0  0  0  0  0  0  0  0  0  0  0
   -0.4805    9.2134    5.7963 O   0  0  0  0  0  0  0  0  0  0  0  0
  1  2  1  0  0  0  0
  1 16  1  1  0  0  0
  2  3  1  0  0  0  0
  2 12  1  1  0  0  0
  4 11  1  1  0  0  0
  4  3  1  0  0  0  0
  5  4  1  0  0  0  0
  5 10  1  6  0  0  0
  6  7  1  0  0  0  0
  6  5  1  0  0  0  0
  6 14  1  1  0  0  0
  7  8  1  0  0  0  0
  7 13  1  6  0  0  0
  8 15  1  1  0  0  0
  8 11  1  0  0  0  0
  9 13  1  0  0  0  0
 10  1  1  0  0  0  0
 17 15  1  6  0  0  0
 17 18  1  0  0  0  0
 18 25  1  6  0  0  0
 19 18  1  0  0  0  0
 19 26  1  1  0  0  0
 20 19  1  0  0  0  0
 20 24  1  6  0  0  0
 21 23  1  0  0  0  0
 21 20  1  0  0  0  0
 21 22  1  1  0  0  0
 23 17  1  0  0  0  0
 27 22  1  0  0  0  0
 28 29  1  0  0  0  0
 28 16  1  1  0  0  0
 29 36  1  1  0  0  0
 30 37  1  6  0  0  0
 30 29  1  0  0  0  0
 31 30  1  0  0  0  0
 31 34  1  6  0  0  0
 32 31  1  0  0  0  0
 32 33  1  0  0  0  0
 33 28  1  0  0  0  0
 33 35  1  1  0  0  0
M  END
>  <CHROM.1>
-50.31208408,130.89945444,77.15872899,104.34654602,177.06131603,-174.95118390
-178.39257530,-175.05946794,-63.42741741,-49.27916051,-179.26169152,-63.44341271
-178.70853887,168.81383167,175.38267188,-174.68351757,0.11690150,6.84738275
11.10208836,2.21674504,0.52967197,-1.21633457

>  <Name>
lig.pdb

>  <RI>
2.86754e+07

>  <Rbt.Current_Directory>
/home/itssahil/PROJECTS/Mol_Feturizer/New_Systems/rnas/2m4q

>  <Rbt.Executable>
rbdock ($Id: //depot/dev/client3/rdock/2013.1/src/exe/rbdock.cxx#4 $)

>  <Rbt.Library>
libRbt.so (2013.1, Build901 2013/11/27)

>  <Rbt.Parameter_File>
/export/apps/rDock/src/rDock_2013.1_src/data/scripts/dock_solv.prm

>  <Rbt.Receptor>
prm/pocket_docking_5.prm

>  <SCORE>
-35.3493

>  <SCORE.INTER>
-21.5049

>  <SCORE.INTER.CONST>
1

>  <SCORE.INTER.POLAR>
-3.25905

>  <SCORE.INTER.ROT>
10

>  <SCORE.INTER.SOLV>
13.9199

>  <SCORE.INTER.VDW>
-18.3798

>  <SCORE.INTER.norm>
-0.581214

>  <SCORE.INTRA>
-13.8444

>  <SCORE.INTRA.DIHEDRAL>
-29.6923

>  <SCORE.INTRA.DIHEDRAL.0>
44.8331

>  <SCORE.INTRA.POLAR>
0.0281656

>  <SCORE.INTRA.POLAR.0>
-0.108895

>  <SCORE.INTRA.REPUL>
-0.00666516

>  <SCORE.INTRA.REPUL.0>
0.00912235

>  <SCORE.INTRA.SOLV>
-0.637688

>  <SCORE.INTRA.SOLV.lig_0>
-53.9067

>  <SCORE.INTRA.VDW>
1.25815

>  <SCORE.INTRA.VDW.0>
-2.93492

>  <SCORE.INTRA.norm>
-0.374173

>  <SCORE.RESTR>
0

>  <SCORE.RESTR.CAVITY>
0

>  <SCORE.RESTR.norm>
0

>  <SCORE.SYSTEM>
0

>  <SCORE.SYSTEM.CONST>
0

>  <SCORE.SYSTEM.DIHEDRAL>
0

>  <SCORE.SYSTEM.SOLV>
0

>  <SCORE.SYSTEM.norm>
0

>  <SCORE.heavy>
37

>  <SCORE.norm>
-0.955387

>  <RMSD>
3.655

$$$$
lig.pdb
 OpenBabel11021811453D
libRbt.so/2013.1/901 2013/11/27
 37 40  0  0  0  0  0  0  0  0999 V2000
   -0.3402    8.6194    7.2547 C   0  0  2  0  0  0  0  0  0  0  0  0
   -0.0503    7.3675    6.3626 C   0  0  1  0  0  0  0  0  0  0  0  0
    0.4002    6.1209    7.1791 C   0  0  0  0  0  0  0  0  0  0  0  0
    1.5263    6.4859    8.1779 C   0  0  1  0  0  0  0  0  0  0  0  0
    1.0634    7.6410    9.0938 C   0  0  1  0  0  0  0  0  0  0  0  0
    2.1564    7.9967   10.1371 C   0  0  1  0  0  0  0  0  0  0  0  0
    2.6003    6.7313   10.9299 C   0  0  1  0  0  0  0  0  0  0  0  0
    2.9827    5.5545    9.9838 C   0  0  2  0  0  0  0  0  0  0  0  0
    3.4127    6.7347   13.2437 C   0  0  0  0  0  0  0  0  0  0  0  0
    0.6750    8.7960    8.2955 O   0  0  0  0  0  0  0  0  0  0  0  0
    1.9633    5.3375    8.9603 O   0  0  0  0  0  0  0  0  0  0  0  0
   -1.2512    7.0324    5.5669 N   0  0  0  0  0  0  0  0  0  0  0  0
    3.7073    7.0926   11.8394 N   0  0  0  0  0  0  0  0  0  0  0  0
    3.2680    8.6361    9.5230 O   0  0  0  0  0  0  0  0  0  0  0  0
    3.2266    4.3412   10.7538 O   0  0  0  0  0  0  0  0  0  0  0  0
   -1.6725    8.5474    7.8484 O   0  0  0  0  0  0  0  0  0  0  0  0
    4.5596    4.1258   11.3112 C   0  0  2  0  0  0  0  0  0  0  0  0
    5.6306    4.0610   10.1854 C   0  0  1  0  0  0  0  0  0  0  0  0
    5.5073    2.7559    9.3480 C   0  0  2  0  0  0  0  0  0  0  0  0
    5.5123    1.4979   10.2642 C   0  0  1  0  0  0  0  0  0  0  0  0
    4.4526    1.6195   11.3945 C   0  0  1  0  0  0  0  0  0  0  0  0
    4.5375    0.4376   12.3956 C   0  0  0  0  0  0  0  0  0  0  0  0
    4.5963    2.8939   12.0919 O   0  0  0  0  0  0  0  0  0  0  0  0
    5.3258    0.2573    9.4802 N   0  0  0  0  0  0  0  0  0  0  0  0
    5.5643    5.2247    9.3633 O   0  0  0  0  0  0  0  0  0  0  0  0
    6.5346    2.6777    8.3620 O   0  0  0  0  0  0  0  0  0  0  0  0
    3.6158    0.6128   13.4666 O   0  0  0  0  0  0  0  0  0  0  0  0
   -2.3145    9.8002    8.2255 C   0  0  1  0  0  0  0  0  0  0  0  0
   -2.8385   10.5808    6.9876 C   0  0  1  0  0  0  0  0  0  0  0  0
   -3.4321   11.9565    7.4028 C   0  0  2  0  0  0  0  0  0  0  0  0
   -4.5258   11.8238    8.5119 C   0  0  1  0  0  0  0  0  0  0  0  0
   -4.0734   10.9319    9.7067 C   0  0  0  0  0  0  0  0  0  0  0  0
   -3.4658    9.5728    9.2459 C   0  0  2  0  0  0  0  0  0  0  0  0
   -4.9597   13.1562    8.9837 N   0  0  0  0  0  0  0  0  0  0  0  0
   -3.0158    8.8117   10.4315 N   0  0  0  0  0  0  0  0  0  0  0  0
   -1.8077   10.7462    6.0193 O   0  0  0  0  0  0  0  0  0  0  0  0
   -3.9561   12.6364    6.2649 O   0  0  0  0  0  0  0  0  0  0  0  0
  1  2  1  0  0  0  0
  1 16  1  1  0  0  0
  2  3  1  0  0  0  0
  2 12  1  1  0  0  0
  4 11  1  1  0  0  0
  4  3  1  0  0  0  0
  5  4  1  0  0  0  0
  5 10  1  6  0  0  0
  6  7  1  0  0  0  0
  6  5  1  0  0  0  0
  6 14  1  6  0  0  0
  7  8  1  0  0  0  0
  7 13  1  6  0  0  0
  8 15  1  1  0  0  0
  8 11  1  0  0  0  0
  9 13  1  0  0  0  0
 10  1  1  0  0  0  0
 17 15  1  6  0  0  0
 17 18  1  0  0  0  0
 18 25  1  6  0  0  0
 19 18  1  0  0  0  0
 19 26  1  6  0  0  0
 20 19  1  0  0  0  0
 20 24  1  6  0  0  0
 21 23  1  0  0  0  0
 21 20  1  0  0  0  0
 21 22  1  1  0  0  0
 23 17  1  0  0  0  0
 27 22  1  0  0  0  0
 28 29  1  0  0  0  0
 28 16  1  6  0  0  0
 29 36  1  6  0  0  0
 30 37  1  6  0  0  0
 30 29  1  0  0  0  0
 31 30  1  0  0  0  0
 31 34  1  1  0  0  0
 32 31  1  0  0  0  0
 32 33  1  0  0  0  0
 33 28  1  0  0  0  0
 33 35  1  1  0  0  0
M  END
>  <CHROM.1>
73.70247868,-85.62032566,124.81355849,59.56910514,-60.55200786,-155.14809052
68.83350354,-164.13775620,176.34952934,57.02472003,-63.27678563,74.83096562
178.76473642,61.38126546,-69.80001146,-167.06792105,1.23984808,6.72780279
9.31190097,-2.84665545,-0.79179542,1.62091294

>  <Name>
lig.pdb

>  <RI>
2.86754e+07

>  <Rbt.Current_Directory>
/home/itssahil/PROJECTS/Mol_Feturizer/New_Systems/rnas/2m4q

>  <Rbt.Executable>
rbdock ($Id: //depot/dev/client3/rdock/2013.1/src/exe/rbdock.cxx#4 $)

>  <Rbt.Library>
libRbt.so (2013.1, Build901 2013/11/27)

>  <Rbt.Parameter_File>
/export/apps/rDock/src/rDock_2013.1_src/data/scripts/dock_solv.prm

>  <Rbt.Receptor>
prm/pocket_docking_5.prm

>  <SCORE>
-41.0197

>  <SCORE.INTER>
-24.0478

>  <SCORE.INTER.CONST>
1

>  <SCORE.INTER.POLAR>
-3.64964

>  <SCORE.INTER.ROT>
10

>  <SCORE.INTER.SOLV>
19.5153

>  <SCORE.INTER.VDW>
-20.6382

>  <SCORE.INTER.norm>
-0.649941

>  <SCORE.INTRA>
-16.9718

>  <SCORE.INTRA.DIHEDRAL>
-32.9895

>  <SCORE.INTRA.DIHEDRAL.0>
44.8331

>  <SCORE.INTRA.POLAR>
-0.0257333

>  <SCORE.INTRA.POLAR.0>
-0.108895

>  <SCORE.INTRA.REPUL>
-0.00912235

>  <SCORE.INTRA.REPUL.0>
0.00912235

>  <SCORE.INTRA.SOLV>
-1.0273

>  <SCORE.INTRA.SOLV.lig_0>
-53.9067

>  <SCORE.INTRA.VDW>
0.169656

>  <SCORE.INTRA.VDW.0>
-2.93492

>  <SCORE.INTRA.norm>
-0.458698

>  <SCORE.RESTR>
0

>  <SCORE.RESTR.CAVITY>
0

>  <SCORE.RESTR.norm>
0

>  <SCORE.SYSTEM>
0

>  <SCORE.SYSTEM.CONST>
0

>  <SCORE.SYSTEM.DIHEDRAL>
0

>  <SCORE.SYSTEM.SOLV>
0

>  <SCORE.SYSTEM.norm>
0

>  <SCORE.heavy>
37

>  <SCORE.norm>
-1.10864

>  <RMSD>
3.704

$$$$
lig.pdb
 OpenBabel11021811453D
libRbt.so/2013.1/901 2013/11/27
 37 40  0  0  0  0  0  0  0  0999 V2000
   -2.7508    8.3594   11.5539 C   0  0  2  0  0  0  0  0  0  0  0  0
   -2.3642    7.0919   12.3853 C   0  0  1  0  0  0  0  0  0  0  0  0
   -1.0506    6.4133   11.8977 C   0  0  0  0  0  0  0  0  0  0  0  0
   -1.0659    6.2077   10.3626 C   0  0  1  0  0  0  0  0  0  0  0  0
   -1.3175    7.5572    9.6535 C   0  0  1  0  0  0  0  0  0  0  0  0
   -1.2914    7.3888    8.1105 C   0  0  1  0  0  0  0  0  0  0  0  0
    0.0249    6.6948    7.6497 C   0  0  1  0  0  0  0  0  0  0  0  0
    0.2978    5.3794    8.4380 C   0  0  2  0  0  0  0  0  0  0  0  0
   -0.0310    7.7308    5.4277 C   0  0  0  0  0  0  0  0  0  0  0  0
   -2.5661    8.1478   10.1165 O   0  0  0  0  0  0  0  0  0  0  0  0
    0.1556    5.5790    9.8781 O   0  0  0  0  0  0  0  0  0  0  0  0
   -2.2363    7.4518   13.8142 N   0  0  0  0  0  0  0  0  0  0  0  0
   -0.0332    6.4644    6.1914 N   0  0  0  0  0  0  0  0  0  0  0  0
   -2.4354    6.6820    7.6487 O   0  0  0  0  0  0  0  0  0  0  0  0
    1.6142    4.8500    8.1044 O   0  0  0  0  0  0  0  0  0  0  0  0
   -2.0003    9.5309   11.9977 O   0  0  0  0  0  0  0  0  0  0  0  0
    2.7930    5.6293    8.4746 C   0  0  2  0  0  0  0  0  0  0  0  0
    4.0901    4.9759    7.9185 C   0  0  1  0  0  0  0  0  0  0  0  0
    4.4335    3.6537    8.6628 C   0  0  2  0  0  0  0  0  0  0  0  0
    4.4750    3.8707   10.2033 C   0  0  1  0  0  0  0  0  0  0  0  0
    3.1761    4.5564   10.7112 C   0  0  1  0  0  0  0  0  0  0  0  0
    3.2582    4.9030   12.2210 C   0  0  0  0  0  0  0  0  0  0  0  0
    2.8913    5.7531    9.9249 O   0  0  0  0  0  0  0  0  0  0  0  0
    4.7326    2.6031   10.9210 N   0  0  0  0  0  0  0  0  0  0  0  0
    3.9872    4.7779    6.5097 O   0  0  0  0  0  0  0  0  0  0  0  0
    5.6587    3.0992    8.1886 O   0  0  0  0  0  0  0  0  0  0  0  0
    2.0141    5.4092   12.6936 O   0  0  0  0  0  0  0  0  0  0  0  0
   -2.2482   10.7933   11.3130 C   0  0  1  0  0  0  0  0  0  0  0  0
   -2.9102   11.8427   12.2494 C   0  0  1  0  0  0  0  0  0  0  0  0
   -3.2541   13.1464   11.4753 C   0  0  2  0  0  0  0  0  0  0  0  0
   -2.0175   13.7370   10.7231 C   0  0  1  0  0  0  0  0  0  0  0  0
   -1.2541   12.6716    9.8806 C   0  0  0  0  0  0  0  0  0  0  0  0
   -0.9482   11.3738   10.6873 C   0  0  2  0  0  0  0  0  0  0  0  0
   -2.4139   14.8875    9.8833 N   0  0  0  0  0  0  0  0  0  0  0  0
   -0.2719   10.3982    9.8053 N   0  0  0  0  0  0  0  0  0  0  0  0
   -4.0712   11.3039   12.8735 O   0  0  0  0  0  0  0  0  0  0  0  0
   -3.8108   14.1173   12.3580 O   0  0  0  0  0  0  0  0  0  0  0  0
  1  2  1  0  0  0  0
  1 16  1  1  0  0  0
  2  3  1  0  0  0  0
  2 12  1  1  0  0  0
  4 11  1  6  0  0  0
  4  3  1  0  0  0  0
  5  4  1  0  0  0  0
  5 10  1  1  0  0  0
  6  7  1  0  0  0  0
  6  5  1  0  0  0  0
  6 14  1  1  0  0  0
  7  8  1  0  0  0  0
  7 13  1  6  0  0  0
  8 15  1  1  0  0  0
  8 11  1  0  0  0  0
  9 13  1  0  0  0  0
 10  1  1  0  0  0  0
 17 15  1  1  0  0  0
 17 18  1  0  0  0  0
 18 25  1  6  0  0  0
 19 18  1  0  0  0  0
 19 26  1  6  0  0  0
 20 19  1  0  0  0  0
 20 24  1  1  0  0  0
 21 23  1  0  0  0  0
 21 20  1  0  0  0  0
 21 22  1  1  0  0  0
 23 17  1  0  0  0  0
 27 22  1  0  0  0  0
 28 29  1  0  0  0  0
 28 16  1  1  0  0  0
 29 36  1  6  0  0  0
 30 37  1  1  0  0  0
 30 29  1  0  0  0  0
 31 30  1  0  0  0  0
 31 34  1  6  0  0  0
 32 31  1  0  0  0  0
 32 33  1  0  0  0  0
 33 28  1  0  0  0  0
 33 35  1  6  0  0  0
M  END
>  <CHROM.1>
176.94046325,65.05071568,66.36787410,-178.67774545,-174.53018316,179.80072153
50.19588430,-74.90390068,-174.32334216,-57.88722666,56.20805670,113.83839810
61.63558994,175.68197763,-57.20034076,-65.63358859,0.04253020,7.68888920
10.01857456,3.13979597,0.91405503,-1.27018612

>  <Name>
lig.pdb

>  <RI>
3.87352e+07

>  <Rbt.Current_Directory>
/home/itssahil/PROJECTS/Mol_Feturizer/New_Systems/rnas/2m4q

>  <Rbt.Executable>
rbdock ($Id: //depot/dev/client3/rdock/2013.1/src/exe/rbdock.cxx#4 $)

>  <Rbt.Library>
libRbt.so (2013.1, Build901 2013/11/27)

>  <Rbt.Parameter_File>
/export/apps/rDock/src/rDock_2013.1_src/data/scripts/dock_solv.prm

>  <Rbt.Receptor>
prm/pocket_docking_4.prm

>  <SCORE>
-44.274

>  <SCORE.INTER>
-25.2897

>  <SCORE.INTER.CONST>
1

>  <SCORE.INTER.POLAR>
-3.32803

>  <SCORE.INTER.ROT>
10

>  <SCORE.INTER.SOLV>
20.6259

>  <SCORE.INTER.VDW>
-22.9083

>  <SCORE.INTER.norm>
-0.683505

>  <SCORE.INTRA>
-19.3519

>  <SCORE.INTRA.DIHEDRAL>
-34.9917

>  <SCORE.INTRA.DIHEDRAL.0>
44.8331

>  <SCORE.INTRA.POLAR>
-0.0328403

>  <SCORE.INTRA.POLAR.0>
-0.108895

>  <SCORE.INTRA.REPUL>
-0.00912235

>  <SCORE.INTRA.REPUL.0>
0.00912235

>  <SCORE.INTRA.SOLV>
-1.1355

>  <SCORE.INTRA.SOLV.lig_0>
-53.9067

>  <SCORE.INTRA.VDW>
-1.131

>  <SCORE.INTRA.VDW.0>
-2.93492

>  <SCORE.INTRA.norm>
-0.523023

>  <SCORE.RESTR>
0.36751

>  <SCORE.RESTR.CAVITY>
0.36751

>  <SCORE.RESTR.norm>
0.00993271

>  <SCORE.SYSTEM>
0

>  <SCORE.SYSTEM.CONST>
0

>  <SCORE.SYSTEM.DIHEDRAL>
0

>  <SCORE.SYSTEM.SOLV>
0

>  <SCORE.SYSTEM.norm>
0

>  <SCORE.heavy>
37

>  <SCORE.norm>
-1.1966

>  <RMSD>
3.746

$$$$
lig.pdb
 OpenBabel11021811453D
libRbt.so/2013.1/901 2013/11/27
 37 40  0  0  0  0  0  0  0  0999 V2000
   -3.5332   11.1036   10.4464 C   0  0  2  0  0  0  0  0  0  0  0  0
   -3.0609   11.2905   11.9259 C   0  0  1  0  0  0  0  0  0  0  0  0
   -1.7238   10.5584   12.2422 C   0  0  0  0  0  0  0  0  0  0  0  0
   -1.7617    9.0906   11.7492 C   0  0  1  0  0  0  0  0  0  0  0  0
   -2.1011    9.0501   10.2424 C   0  0  1  0  0  0  0  0  0  0  0  0
   -2.0999    7.5918    9.7103 C   0  0  1  0  0  0  0  0  0  0  0  0
   -0.7586    6.8770   10.0519 C   0  0  1  0  0  0  0  0  0  0  0  0
   -0.3982    7.0036   11.5620 C   0  0  2  0  0  0  0  0  0  0  0  0
    0.3299    5.0720    8.7985 C   0  0  0  0  0  0  0  0  0  0  0  0
   -3.3691    9.7215    9.9904 O   0  0  0  0  0  0  0  0  0  0  0  0
   -0.5192    8.3829   12.0275 O   0  0  0  0  0  0  0  0  0  0  0  0
   -2.9211   12.7317   12.2273 N   0  0  0  0  0  0  0  0  0  0  0  0
   -0.8364    5.4669    9.6177 N   0  0  0  0  0  0  0  0  0  0  0  0
   -3.2141    6.8604   10.2054 O   0  0  0  0  0  0  0  0  0  0  0  0
    0.9371    6.4756   11.8124 O   0  0  0  0  0  0  0  0  0  0  0  0
   -2.8372   12.0226    9.5500 O   0  0  0  0  0  0  0  0  0  0  0  0
    1.5923    6.8079   13.0750 C   0  0  2  0  0  0  0  0  0  0  0  0
    3.0171    7.3810   12.8296 C   0  0  1  0  0  0  0  0  0  0  0  0
    4.0008    6.2841   12.3306 C   0  0  2  0  0  0  0  0  0  0  0  0
    3.9973    5.0519   13.2811 C   0  0  1  0  0  0  0  0  0  0  0  0
    2.5529    4.5333   13.5265 C   0  0  1  0  0  0  0  0  0  0  0  0
    2.5193    3.3928   14.5774 C   0  0  0  0  0  0  0  0  0  0  0  0
    1.6802    5.6310   13.9327 O   0  0  0  0  0  0  0  0  0  0  0  0
    4.8785    3.9765   12.7754 N   0  0  0  0  0  0  0  0  0  0  0  0
    2.9636    8.4900   11.9340 O   0  0  0  0  0  0  0  0  0  0  0  0
    5.3179    6.8072   12.1720 O   0  0  0  0  0  0  0  0  0  0  0  0
    3.4170    2.3470   14.2198 O   0  0  0  0  0  0  0  0  0  0  0  0
   -3.1461   11.9455    8.1278 C   0  0  1  0  0  0  0  0  0  0  0  0
   -2.7254   10.5806    7.5144 C   0  0  1  0  0  0  0  0  0  0  0  0
   -2.9743   10.5553    5.9800 C   0  0  2  0  0  0  0  0  0  0  0  0
   -4.4456   10.9308    5.6082 C   0  0  1  0  0  0  0  0  0  0  0  0
   -4.9390   12.2270    6.3182 C   0  0  0  0  0  0  0  0  0  0  0  0
   -4.6514   12.2200    7.8498 C   0  0  2  0  0  0  0  0  0  0  0  0
   -4.6055   11.0395    4.1423 N   0  0  0  0  0  0  0  0  0  0  0  0
   -5.1008   13.5007    8.4372 N   0  0  0  0  0  0  0  0  0  0  0  0
   -1.3633   10.2902    7.8107 O   0  0  0  0  0  0  0  0  0  0  0  0
   -2.6340    9.2803    5.4413 O   0  0  0  0  0  0  0  0  0  0  0  0
  1  2  1  0  0  0  0
  1 16  1  6  0  0  0
  2  3  1  0  0  0  0
  2 12  1  6  0  0  0
  4 11  1  6  0  0  0
  4  3  1  0  0  0  0
  5  4  1  0  0  0  0
  5 10  1  1  0  0  0
  6  7  1  0  0  0  0
  6  5  1  0  0  0  0
  6 14  1  1  0  0  0
  7  8  1  0  0  0  0
  7 13  1  1  0  0  0
  8 15  1  6  0  0  0
  8 11  1  0  0  0  0
  9 13  1  0  0  0  0
 10  1  1  0  0  0  0
 17 15  1  6  0  0  0
 17 18  1  0  0  0  0
 18 25  1  6  0  0  0
 19 18  1  0  0  0  0
 19 26  1  1  0  0  0
 20 19  1  0  0  0  0
 20 24  1  6  0  0  0
 21 23  1  0  0  0  0
 21 20  1  0  0  0  0
 21 22  1  1  0  0  0
 23 17  1  0  0  0  0
 27 22  1  0  0  0  0
 28 29  1  0  0  0  0
 28 16  1  1  0  0  0
 29 36  1  6  0  0  0
 30 37  1  1  0  0  0
 30 29  1  0  0  0  0
 31 30  1  0  0  0  0
 31 34  1  6  0  0  0
 32 31  1  0  0  0  0
 32 33  1  0  0  0  0
 33 28  1  0  0  0  0
 33 35  1  6  0  0  0
M  END
>  <CHROM.1>
-63.29491628,164.50872230,129.49270509,45.55764610,-128.22544693,178.48172660
66.18443751,178.53804166,-53.71245962,-173.84142906,175.72176628,-64.35997875
-60.52027430,-164.24125064,-178.25290276,-173.18767380,-0.73214605,8.41799914
10.37704797,3.01068351,0.87204721,-2.11472790

>  <Name>
lig.pdb

>  <RI>
0

>  <Rbt.Current_Directory>
/home/itssahil/PROJECTS/Mol_Feturizer/New_Systems/rnas/2m4q

>  <Rbt.Executable>
rbdock ($Id: //depot/dev/client3/rdock/2013.1/src/exe/rbdock.cxx#4 $)

>  <Rbt.Library>
libRbt.so (2013.1, Build901 2013/11/27)

>  <Rbt.Parameter_File>
/export/apps/rDock/src/rDock_2013.1_src/data/scripts/dock_solv.prm

>  <Rbt.Receptor>
prm/pocket_docking_3.prm

>  <SCORE>
-44.1536

>  <SCORE.INTER>
-27.4863

>  <SCORE.INTER.CONST>
1

>  <SCORE.INTER.POLAR>
-4.65283

>  <SCORE.INTER.ROT>
10

>  <SCORE.INTER.SOLV>
15.0077

>  <SCORE.INTER.VDW>
-18.084

>  <SCORE.INTER.norm>
-0.742873

>  <SCORE.INTRA>
-17.7713

>  <SCORE.INTRA.DIHEDRAL>
-31.1775

>  <SCORE.INTRA.DIHEDRAL.0>
44.8331

>  <SCORE.INTRA.POLAR>
-0.714443

>  <SCORE.INTRA.POLAR.0>
-0.108895

>  <SCORE.INTRA.REPUL>
-0.00682828

>  <SCORE.INTRA.REPUL.0>
0.00912235

>  <SCORE.INTRA.SOLV>
-0.601334

>  <SCORE.INTRA.SOLV.lig_0>
-53.9067

>  <SCORE.INTRA.VDW>
0.581397

>  <SCORE.INTRA.VDW.0>
-2.93492

>  <SCORE.INTRA.norm>
-0.480304

>  <SCORE.RESTR>
1.10396

>  <SCORE.RESTR.CAVITY>
1.10396

>  <SCORE.RESTR.norm>
0.0298369

>  <SCORE.SYSTEM>
0

>  <SCORE.SYSTEM.CONST>
0

>  <SCORE.SYSTEM.DIHEDRAL>
0

>  <SCORE.SYSTEM.SOLV>
0

>  <SCORE.SYSTEM.norm>
0

>  <SCORE.heavy>
37

>  <SCORE.norm>
-1.19334

>  <RMSD>
3.853

$$$$
lig.pdb
 OpenBabel11021811453D
libRbt.so/2013.1/901 2013/11/27
 37 40  0  0  0  0  0  0  0  0999 V2000
   -3.4694   11.1895   10.2516 C   0  0  2  0  0  0  0  0  0  0  0  0
   -3.0170   11.4474   11.7267 C   0  0  1  0  0  0  0  0  0  0  0  0
   -1.6955   10.7150   12.1020 C   0  0  0  0  0  0  0  0  0  0  0  0
   -1.7469    9.2239   11.6860 C   0  0  1  0  0  0  0  0  0  0  0  0
   -2.0639    9.1090   10.1781 C   0  0  1  0  0  0  0  0  0  0  0  0
   -2.0754    7.6249    9.7230 C   0  0  1  0  0  0  0  0  0  0  0  0
   -0.7498    6.9110   10.1229 C   0  0  1  0  0  0  0  0  0  0  0  0
   -0.4106    7.1119   11.6298 C   0  0  2  0  0  0  0  0  0  0  0  0
    0.2972    5.0453    8.9243 C   0  0  0  0  0  0  0  0  0  0  0  0
   -3.3182    9.7833    9.8712 O   0  0  0  0  0  0  0  0  0  0  0  0
   -0.5190    8.5152   12.0205 O   0  0  0  0  0  0  0  0  0  0  0  0
   -2.8613   12.9005   11.9545 N   0  0  0  0  0  0  0  0  0  0  0  0
   -0.8411    5.4812    9.7617 N   0  0  0  0  0  0  0  0  0  0  0  0
   -3.2074    6.9356   10.2379 O   0  0  0  0  0  0  0  0  0  0  0  0
    0.9130    6.5798   11.9287 O   0  0  0  0  0  0  0  0  0  0  0  0
   -2.7468   12.0507    9.3196 O   0  0  0  0  0  0  0  0  0  0  0  0
    1.0675    5.1339   12.0686 C   0  0  2  0  0  0  0  0  0  0  0  0
    0.7412    4.6762   13.5186 C   0  0  1  0  0  0  0  0  0  0  0  0
    1.8349    5.1326   14.5263 C   0  0  2  0  0  0  0  0  0  0  0  0
    3.2515    4.6932   14.0550 C   0  0  1  0  0  0  0  0  0  0  0  0
    3.5225    5.1400   12.5913 C   0  0  1  0  0  0  0  0  0  0  0  0
    4.8737    4.5927   12.0610 C   0  0  0  0  0  0  0  0  0  0  0  0
    2.4249    4.7271   11.7217 O   0  0  0  0  0  0  0  0  0  0  0  0
    4.3029    5.1837   14.9728 N   0  0  0  0  0  0  0  0  0  0  0  0
   -0.5556    5.1266   13.9063 O   0  0  0  0  0  0  0  0  0  0  0  0
    1.5579    4.6515   15.8398 O   0  0  0  0  0  0  0  0  0  0  0  0
    4.8203    3.1790   11.9003 O   0  0  0  0  0  0  0  0  0  0  0  0
   -3.1380   12.0087    7.9163 C   0  0  1  0  0  0  0  0  0  0  0  0
   -2.7781   10.6499    7.2527 C   0  0  1  0  0  0  0  0  0  0  0  0
   -3.1148   10.6611    5.7349 C   0  0  2  0  0  0  0  0  0  0  0  0
   -4.5979   11.0692    5.4561 C   0  0  1  0  0  0  0  0  0  0  0  0
   -5.0261   12.3585    6.2190 C   0  0  0  0  0  0  0  0  0  0  0  0
   -4.6514   12.3145    7.7311 C   0  0  2  0  0  0  0  0  0  0  0  0
   -4.8395   11.2114    4.0043 N   0  0  0  0  0  0  0  0  0  0  0  0
   -5.0431   13.5902    8.3688 N   0  0  0  0  0  0  0  0  0  0  0  0
   -1.4067   10.3302    7.4641 O   0  0  0  0  0  0  0  0  0  0  0  0
   -2.8292    9.3920    5.1523 O   0  0  0  0  0  0  0  0  0  0  0  0
  1  2  1  0  0  0  0
  1 16  1  6  0  0  0
  2  3  1  0  0  0  0
  2 12  1  6  0  0  0
  4 11  1  6  0  0  0
  4  3  1  0  0  0  0
  5  4  1  0  0  0  0
  5 10  1  1  0  0  0
  6  7  1  0  0  0  0
  6  5  1  0  0  0  0
  6 14  1  1  0  0  0
  7  8  1  0  0  0  0
  7 13  1  1  0  0  0
  8 15  1  6  0  0  0
  8 11  1  0  0  0  0
  9 13  1  0  0  0  0
 10  1  1  0  0  0  0
 17 15  1  1  0  0  0
 17 18  1  0  0  0  0
 18 25  1  1  0  0  0
 19 18  1  0  0  0  0
 19 26  1  1  0  0  0
 20 19  1  0  0  0  0
 20 24  1  1  0  0  0
 21 23  1  0  0  0  0
 21 20  1  0  0  0  0
 21 22  1  6  0  0  0
 23 17  1  0  0  0  0
 27 22  1  0  0  0  0
 28 29  1  0  0  0  0
 28 16  1  1  0  0  0
 29 36  1  6  0  0  0
 30 37  1  1  0  0  0
 30 29  1  0  0  0  0
 31 30  1  0  0  0  0
 31 34  1  6  0  0  0
 32 31  1  0  0  0  0
 32 33  1  0  0  0  0
 33 28  1  0  0  0  0
 33 35  1  6  0  0  0
M  END
>  <CHROM.1>
75.79750569,-77.48272178,126.55500163,45.70113442,-85.61021832,-174.92713686
175.45681993,-62.63332260,68.46433450,-59.35694115,-61.93125009,-68.39370268
178.96456877,172.07352657,-63.97693861,-171.07280838,-0.98471494,8.25071028
10.38847004,2.77176613,0.89831706,-1.82944226

>  <Name>
lig.pdb

>  <RI>
3.87352e+07

>  <Rbt.Current_Directory>
/home/itssahil/PROJECTS/Mol_Feturizer/New_Systems/rnas/2m4q

>  <Rbt.Executable>
rbdock ($Id: //depot/dev/client3/rdock/2013.1/src/exe/rbdock.cxx#4 $)

>  <Rbt.Library>
libRbt.so (2013.1, Build901 2013/11/27)

>  <Rbt.Parameter_File>
/export/apps/rDock/src/rDock_2013.1_src/data/scripts/dock_solv.prm

>  <Rbt.Receptor>
prm/pocket_docking_4.prm

>  <SCORE>
-45.9899

>  <SCORE.INTER>
-27.574

>  <SCORE.INTER.CONST>
1

>  <SCORE.INTER.POLAR>
-4.35947

>  <SCORE.INTER.ROT>
10

>  <SCORE.INTER.SOLV>
15.4896

>  <SCORE.INTER.VDW>
-19.2809

>  <SCORE.INTER.norm>
-0.745242

>  <SCORE.INTRA>
-18.4469

>  <SCORE.INTRA.DIHEDRAL>
-34.9029

>  <SCORE.INTRA.DIHEDRAL.0>
44.8331

>  <SCORE.INTRA.POLAR>
-0.201855

>  <SCORE.INTRA.POLAR.0>
-0.108895

>  <SCORE.INTRA.REPUL>
-0.00912235

>  <SCORE.INTRA.REPUL.0>
0.00912235

>  <SCORE.INTRA.SOLV>
-0.347679

>  <SCORE.INTRA.SOLV.lig_0>
-53.9067

>  <SCORE.INTRA.VDW>
-0.0896698

>  <SCORE.INTRA.VDW.0>
-2.93492

>  <SCORE.INTRA.norm>
-0.498564

>  <SCORE.RESTR>
0.0309513

>  <SCORE.RESTR.CAVITY>
0.0309513

>  <SCORE.RESTR.norm>
0.000836522

>  <SCORE.SYSTEM>
0

>  <SCORE.SYSTEM.CONST>
0

>  <SCORE.SYSTEM.DIHEDRAL>
0

>  <SCORE.SYSTEM.SOLV>
0

>  <SCORE.SYSTEM.norm>
0

>  <SCORE.heavy>
37

>  <SCORE.norm>
-1.24297

>  <RMSD>
3.853

$$$$
lig.pdb
 OpenBabel11021811453D
libRbt.so/2013.1/901 2013/11/27
 37 40  0  0  0  0  0  0  0  0999 V2000
    0.1402    7.3419    9.3657 C   0  0  2  0  0  0  0  0  0  0  0  0
    0.9958    6.1374    8.8516 C   0  0  1  0  0  0  0  0  0  0  0  0
    1.0868    4.9665    9.8736 C   0  0  0  0  0  0  0  0  0  0  0  0
    1.4686    5.4845   11.2824 C   0  0  1  0  0  0  0  0  0  0  0  0
    0.4657    6.5697   11.7337 C   0  0  1  0  0  0  0  0  0  0  0  0
    0.7973    7.0743   13.1638 C   0  0  1  0  0  0  0  0  0  0  0  0
    0.8973    5.8838   14.1636 C   0  0  1  0  0  0  0  0  0  0  0  0
    1.8508    4.7661   13.6461 C   0  0  2  0  0  0  0  0  0  0  0  0
    0.8905    5.4989   16.5854 C   0  0  0  0  0  0  0  0  0  0  0  0
    0.4278    7.6584   10.7665 O   0  0  0  0  0  0  0  0  0  0  0  0
    1.5550    4.4089   12.2609 O   0  0  0  0  0  0  0  0  0  0  0  0
    0.4406    5.6396    7.5743 N   0  0  0  0  0  0  0  0  0  0  0  0
    1.3105    6.3953   15.4867 N   0  0  0  0  0  0  0  0  0  0  0  0
    1.9848    7.8561   13.1732 O   0  0  0  0  0  0  0  0  0  0  0  0
    1.7883    3.6000   14.5184 O   0  0  0  0  0  0  0  0  0  0  0  0
   -1.2868    7.0923    9.1817 O   0  0  0  0  0  0  0  0  0  0  0  0
    2.7473    2.5187   14.3060 C   0  0  2  0  0  0  0  0  0  0  0  0
    3.8160    2.4916   15.4355 C   0  0  1  0  0  0  0  0  0  0  0  0
    4.7908    3.6997   15.3349 C   0  0  2  0  0  0  0  0  0  0  0  0
    5.4133    3.8023   13.9123 C   0  0  1  0  0  0  0  0  0  0  0  0
    4.3140    3.7912   12.8137 C   0  0  1  0  0  0  0  0  0  0  0  0
    4.9228    3.7553   11.3874 C   0  0  0  0  0  0  0  0  0  0  0  0
    3.4069    2.6647   13.0129 O   0  0  0  0  0  0  0  0  0  0  0  0
    6.2878    4.9892   13.7891 N   0  0  0  0  0  0  0  0  0  0  0  0
    3.1904    2.4225   16.7155 O   0  0  0  0  0  0  0  0  0  0  0  0
    5.8043    3.6283   16.3355 O   0  0  0  0  0  0  0  0  0  0  0  0
    3.9013    3.8245   10.3980 O   0  0  0  0  0  0  0  0  0  0  0  0
   -2.2129    8.1583    9.5422 C   0  0  1  0  0  0  0  0  0  0  0  0
   -2.1816    8.4653   11.0657 C   0  0  1  0  0  0  0  0  0  0  0  0
   -3.2440    9.5358   11.4434 C   0  0  2  0  0  0  0  0  0  0  0  0
   -3.1115   10.8360   10.5858 C   0  0  1  0  0  0  0  0  0  0  0  0
   -3.0049   10.5472    9.0584 C   0  0  0  0  0  0  0  0  0  0  0  0
   -1.9446    9.4544    8.7259 C   0  0  2  0  0  0  0  0  0  0  0  0
   -4.2238   11.7679   10.8693 N   0  0  0  0  0  0  0  0  0  0  0  0
   -1.9424    9.2032    7.2684 N   0  0  0  0  0  0  0  0  0  0  0  0
   -2.3693    7.2761   11.8262 O   0  0  0  0  0  0  0  0  0  0  0  0
   -3.1669    9.8451   12.8327 O   0  0  0  0  0  0  0  0  0  0  0  0
  1  2  1  0  0  0  0
  1 16  1  1  0  0  0
  2  3  1  0  0  0  0
  2 12  1  6  0  0  0
  4 11  1  1  0  0  0
  4  3  1  0  0  0  0
  5  4  1  0  0  0  0
  5 10  1  6  0  0  0
  6  7  1  0  0  0  0
  6  5  1  0  0  0  0
  6 14  1  6  0  0  0
  7  8  1  0  0  0  0
  7 13  1  1  0  0  0
  8 15  1  1  0  0  0
  8 11  1  0  0  0  0
  9 13  1  0  0  0  0
 10  1  1  0  0  0  0
 17 15  1  1  0  0  0
 17 18  1  0  0  0  0
 18 25  1  1  0  0  0
 19 18  1  0  0  0  0
 19 26  1  1  0  0  0
 20 19  1  0  0  0  0
 20 24  1  1  0  0  0
 21 23  1  0  0  0  0
 21 20  1  0  0  0  0
 21 22  1  6  0  0  0
 23 17  1  0  0  0  0
 27 22  1  0  0  0  0
 28 29  1  0  0  0  0
 28 16  1  1  0  0  0
 29 36  1  1  0  0  0
 30 37  1  1  0  0  0
 30 29  1  0  0  0  0
 31 30  1  0  0  0  0
 31 34  1  6  0  0  0
 32 31  1  0  0  0  0
 32 33  1  0  0  0  0
 33 28  1  0  0  0  0
 33 35  1  6  0  0  0
M  END
>  <CHROM.1>
50.42562491,-171.61771864,155.80142319,60.39985783,107.60906776,-176.52081656
171.59404307,63.16661138,-176.59987757,177.29444453,-66.60650928,-64.70730397
-70.91826921,-64.95484413,45.29423812,-178.19178084,0.98250128,6.17991709
12.14037026,-2.64331524,-0.71728038,1.58572068

>  <Name>
lig.pdb

>  <RI>
2.86754e+07

>  <Rbt.Current_Directory>
/home/itssahil/PROJECTS/Mol_Feturizer/New_Systems/rnas/2m4q

>  <Rbt.Executable>
rbdock ($Id: //depot/dev/client3/rdock/2013.1/src/exe/rbdock.cxx#4 $)

>  <Rbt.Library>
libRbt.so (2013.1, Build901 2013/11/27)

>  <Rbt.Parameter_File>
/export/apps/rDock/src/rDock_2013.1_src/data/scripts/dock_solv.prm

>  <Rbt.Receptor>
prm/pocket_docking_5.prm

>  <SCORE>
-38.8535

>  <SCORE.INTER>
-22.5617

>  <SCORE.INTER.CONST>
1

>  <SCORE.INTER.POLAR>
-4.50736

>  <SCORE.INTER.ROT>
10

>  <SCORE.INTER.SOLV>
10.5586

>  <SCORE.INTER.VDW>
-13.8028

>  <SCORE.INTER.norm>
-0.609776

>  <SCORE.INTRA>
-16.2918

>  <SCORE.INTRA.DIHEDRAL>
-34.6853

>  <SCORE.INTRA.DIHEDRAL.0>
44.8331

>  <SCORE.INTRA.POLAR>
0.103696

>  <SCORE.INTRA.POLAR.0>
-0.108895

>  <SCORE.INTRA.REPUL>
-0.00912235

>  <SCORE.INTRA.REPUL.0>
0.00912235

>  <SCORE.INTRA.SOLV>
0.481897

>  <SCORE.INTRA.SOLV.lig_0>
-53.9067

>  <SCORE.INTRA.VDW>
0.50302

>  <SCORE.INTRA.VDW.0>
-2.93492

>  <SCORE.INTRA.norm>
-0.440318

>  <SCORE.RESTR>
0

>  <SCORE.RESTR.CAVITY>
0

>  <SCORE.RESTR.norm>
0

>  <SCORE.SYSTEM>
0

>  <SCORE.SYSTEM.CONST>
0

>  <SCORE.SYSTEM.DIHEDRAL>
0

>  <SCORE.SYSTEM.SOLV>
0

>  <SCORE.SYSTEM.norm>
0

>  <SCORE.heavy>
37

>  <SCORE.norm>
-1.05009

>  <RMSD>
3.881

$$$$
lig.pdb
 OpenBabel11021811453D
libRbt.so/2013.1/901 2013/11/27
 37 40  0  0  0  0  0  0  0  0999 V2000
   -2.5841    7.8620   11.8968 C   0  0  2  0  0  0  0  0  0  0  0  0
   -2.2388    6.4917   12.5678 C   0  0  1  0  0  0  0  0  0  0  0  0
   -0.9280    5.8525   12.0229 C   0  0  0  0  0  0  0  0  0  0  0  0
   -0.9144    5.8430   10.4741 C   0  0  1  0  0  0  0  0  0  0  0  0
   -1.1258    7.2764    9.9372 C   0  0  1  0  0  0  0  0  0  0  0  0
   -1.0700    7.3039    8.3861 C   0  0  1  0  0  0  0  0  0  0  0  0
    0.2428    6.6461    7.8658 C   0  0  1  0  0  0  0  0  0  0  0  0
    0.4743    5.2361    8.4859 C   0  0  2  0  0  0  0  0  0  0  0  0
    0.2164    7.9565    5.7932 C   0  0  0  0  0  0  0  0  0  0  0  0
   -2.3728    7.8299   10.4478 O   0  0  0  0  0  0  0  0  0  0  0  0
    0.3052    5.2550    9.9367 O   0  0  0  0  0  0  0  0  0  0  0  0
   -2.1347    6.6653   14.0329 N   0  0  0  0  0  0  0  0  0  0  0  0
    0.2114    6.6031    6.3892 N   0  0  0  0  0  0  0  0  0  0  0  0
   -2.2168    6.6855    7.8170 O   0  0  0  0  0  0  0  0  0  0  0  0
    1.7875    4.7254    8.1126 O   0  0  0  0  0  0  0  0  0  0  0  0
   -1.8216    8.9519   12.4996 O   0  0  0  0  0  0  0  0  0  0  0  0
    2.9684    5.4995    8.4868 C   0  0  2  0  0  0  0  0  0  0  0  0
    4.2646    4.8403    7.9356 C   0  0  1  0  0  0  0  0  0  0  0  0
    4.5995    3.5168    8.6814 C   0  0  2  0  0  0  0  0  0  0  0  0
    4.6364    3.7340   10.2220 C   0  0  1  0  0  0  0  0  0  0  0  0
    3.3387    4.4256   10.7251 C   0  0  1  0  0  0  0  0  0  0  0  0
    3.4169    4.7722   12.2351 C   0  0  0  0  0  0  0  0  0  0  0  0
    3.0621    5.6233    9.9374 O   0  0  0  0  0  0  0  0  0  0  0  0
    4.8858    2.4654   10.9410 N   0  0  0  0  0  0  0  0  0  0  0  0
    4.1658    4.6424    6.5264 O   0  0  0  0  0  0  0  0  0  0  0  0
    5.8238    2.9567    8.2118 O   0  0  0  0  0  0  0  0  0  0  0  0
    2.5762    5.8786   12.5457 O   0  0  0  0  0  0  0  0  0  0  0  0
   -1.9743   10.2831   11.9265 C   0  0  1  0  0  0  0  0  0  0  0  0
   -1.4249   10.3578   10.4743 C   0  0  1  0  0  0  0  0  0  0  0  0
   -1.5087   11.8069    9.9174 C   0  0  2  0  0  0  0  0  0  0  0  0
   -2.9491   12.4048   10.0252 C   0  0  1  0  0  0  0  0  0  0  0  0
   -3.5777   12.2222   11.4392 C   0  0  0  0  0  0  0  0  0  0  0  0
   -3.4535   10.7616   11.9681 C   0  0  2  0  0  0  0  0  0  0  0  0
   -2.9584   13.8279    9.6242 N   0  0  0  0  0  0  0  0  0  0  0  0
   -4.0246   10.6849   13.3302 N   0  0  0  0  0  0  0  0  0  0  0  0
   -0.0891    9.8686   10.4123 O   0  0  0  0  0  0  0  0  0  0  0  0
   -1.0514   11.8488    8.5680 O   0  0  0  0  0  0  0  0  0  0  0  0
  1  2  1  0  0  0  0
  1 16  1  1  0  0  0
  2  3  1  0  0  0  0
  2 12  1  1  0  0  0
  4 11  1  1  0  0  0
  4  3  1  0  0  0  0
  5  4  1  0  0  0  0
  5 10  1  6  0  0  0
  6  7  1  0  0  0  0
  6  5  1  0  0  0  0
  6 14  1  6  0  0  0
  7  8  1  0  0  0  0
  7 13  1  6  0  0  0
  8 15  1  1  0  0  0
  8 11  1  0  0  0  0
  9 13  1  0  0  0  0
 10  1  1  0  0  0  0
 17 15  1  1  0  0  0
 17 18  1  0  0  0  0
 18 25  1  6  0  0  0
 19 18  1  0  0  0  0
 19 26  1  6  0  0  0
 20 19  1  0  0  0  0
 20 24  1  1  0  0  0
 21 23  1  0  0  0  0
 21 20  1  0  0  0  0
 21 22  1  1  0  0  0
 23 17  1  0  0  0  0
 27 22  1  0  0  0  0
 28 29  1  0  0  0  0
 28 16  1  6  0  0  0
 29 36  1  1  0  0  0
 30 37  1  6  0  0  0
 30 29  1  0  0  0  0
 31 30  1  0  0  0  0
 31 34  1  1  0  0  0
 32 31  1  0  0  0  0
 32 33  1  0  0  0  0
 33 28  1  0  0  0  0
 33 35  1  1  0  0  0
M  END
>  <CHROM.1>
35.58365233,59.00957579,64.82018539,74.70750220,-176.80968832,176.40264422
48.21679077,-72.21680866,153.60065336,-59.09516091,171.41366727,-65.60917792
-179.10821846,61.91194531,65.19776857,58.00432315,0.20982297,7.27817441,10.00376517
3.03819368,0.81723636,-1.14652769

>  <Name>
lig.pdb

>  <RI>
3.87352e+07

>  <Rbt.Current_Directory>
/home/itssahil/PROJECTS/Mol_Feturizer/New_Systems/rnas/2m4q

>  <Rbt.Executable>
rbdock ($Id: //depot/dev/client3/rdock/2013.1/src/exe/rbdock.cxx#4 $)

>  <Rbt.Library>
libRbt.so (2013.1, Build901 2013/11/27)

>  <Rbt.Parameter_File>
/export/apps/rDock/src/rDock_2013.1_src/data/scripts/dock_solv.prm

>  <Rbt.Receptor>
prm/pocket_docking_4.prm

>  <SCORE>
-53.661

>  <SCORE.INTER>
-35.2904

>  <SCORE.INTER.CONST>
1

>  <SCORE.INTER.POLAR>
-5.09889

>  <SCORE.INTER.ROT>
10

>  <SCORE.INTER.SOLV>
19.1695

>  <SCORE.INTER.VDW>
-23.1871

>  <SCORE.INTER.norm>
-0.953793

>  <SCORE.INTRA>
-18.3707

>  <SCORE.INTRA.DIHEDRAL>
-38.1424

>  <SCORE.INTRA.DIHEDRAL.0>
44.8331

>  <SCORE.INTRA.POLAR>
0.108895

>  <SCORE.INTRA.POLAR.0>
-0.108895

>  <SCORE.INTRA.REPUL>
0.117807

>  <SCORE.INTRA.REPUL.0>
0.00912235

>  <SCORE.INTRA.SOLV>
0.0142214

>  <SCORE.INTRA.SOLV.lig_0>
-53.9067

>  <SCORE.INTRA.VDW>
-0.265873

>  <SCORE.INTRA.VDW.0>
-2.93492

>  <SCORE.INTRA.norm>
-0.496505

>  <SCORE.RESTR>
0

>  <SCORE.RESTR.CAVITY>
0

>  <SCORE.RESTR.norm>
0

>  <SCORE.SYSTEM>
0

>  <SCORE.SYSTEM.CONST>
0

>  <SCORE.SYSTEM.DIHEDRAL>
0

>  <SCORE.SYSTEM.SOLV>
0

>  <SCORE.SYSTEM.norm>
0

>  <SCORE.heavy>
37

>  <SCORE.norm>
-1.4503

>  <RMSD>
3.894

$$$$
lig.pdb
 OpenBabel11021811453D
libRbt.so/2013.1/901 2013/11/27
 37 40  0  0  0  0  0  0  0  0999 V2000
   -1.1656    8.2874    8.8164 C   0  0  2  0  0  0  0  0  0  0  0  0
   -0.6916    7.3422    7.6635 C   0  0  1  0  0  0  0  0  0  0  0  0
   -0.1500    5.9742    8.1727 C   0  0  0  0  0  0  0  0  0  0  0  0
    0.8738    6.1714    9.3180 C   0  0  1  0  0  0  0  0  0  0  0  0
    0.2376    7.0013   10.4555 C   0  0  1  0  0  0  0  0  0  0  0  0
    1.2273    7.1750   11.6388 C   0  0  1  0  0  0  0  0  0  0  0  0
    1.7656    5.7946   12.1198 C   0  0  1  0  0  0  0  0  0  0  0  0
    2.3259    4.9441   10.9412 C   0  0  2  0  0  0  0  0  0  0  0  0
    2.5948    5.0836   14.3154 C   0  0  0  0  0  0  0  0  0  0  0  0
   -0.2332    8.2822    9.9459 O   0  0  0  0  0  0  0  0  0  0  0  0
    1.3929    4.9055    9.8180 O   0  0  0  0  0  0  0  0  0  0  0  0
   -1.8038    7.1140    6.7157 N   0  0  0  0  0  0  0  0  0  0  0  0
    2.7756    6.0096   13.1765 N   0  0  0  0  0  0  0  0  0  0  0  0
    2.2923    8.0526   11.2967 O   0  0  0  0  0  0  0  0  0  0  0  0
    2.6613    3.6010   11.3974 O   0  0  0  0  0  0  0  0  0  0  0  0
   -2.5114    7.9400    9.2642 O   0  0  0  0  0  0  0  0  0  0  0  0
    3.9431    3.3919   12.0660 C   0  0  2  0  0  0  0  0  0  0  0  0
    5.1277    3.6274   11.0862 C   0  0  1  0  0  0  0  0  0  0  0  0
    5.2264    2.4986   10.0204 C   0  0  2  0  0  0  0  0  0  0  0  0
    5.2627    1.0946   10.6908 C   0  0  1  0  0  0  0  0  0  0  0  0
    4.0831    0.9147   11.6866 C   0  0  1  0  0  0  0  0  0  0  0  0
    4.1818   -0.4245   12.4633 C   0  0  0  0  0  0  0  0  0  0  0  0
    4.0224    2.0416   12.6127 O   0  0  0  0  0  0  0  0  0  0  0  0
    5.2867    0.0137    9.6810 N   0  0  0  0  0  0  0  0  0  0  0  0
    5.0305    4.9164   10.4832 O   0  0  0  0  0  0  0  0  0  0  0  0
    6.3543    2.6911    9.1694 O   0  0  0  0  0  0  0  0  0  0  0  0
    2.9488   -0.7298   13.1066 O   0  0  0  0  0  0  0  0  0  0  0  0
   -3.1398    8.8046   10.2549 C   0  0  1  0  0  0  0  0  0  0  0  0
   -2.4767    8.6643   11.6537 C   0  0  1  0  0  0  0  0  0  0  0  0
   -3.2223    9.5206   12.7157 C   0  0  2  0  0  0  0  0  0  0  0  0
   -3.3600   11.0172   12.2854 C   0  0  1  0  0  0  0  0  0  0  0  0
   -3.8977   11.1838   10.8325 C   0  0  0  0  0  0  0  0  0  0  0  0
   -3.1372   10.2930    9.8043 C   0  0  2  0  0  0  0  0  0  0  0  0
   -4.1985   11.7650   13.2464 N   0  0  0  0  0  0  0  0  0  0  0  0
   -3.7395   10.4697    8.4652 N   0  0  0  0  0  0  0  0  0  0  0  0
   -2.4211    7.2987   12.0534 O   0  0  0  0  0  0  0  0  0  0  0  0
   -2.5712    9.4235   13.9799 O   0  0  0  0  0  0  0  0  0  0  0  0
  1  2  1  0  0  0  0
  1 16  1  1  0  0  0
  2  3  1  0  0  0  0
  2 12  1  6  0  0  0
  4 11  1  1  0  0  0
  4  3  1  0  0  0  0
  5  4  1  0  0  0  0
  5 10  1  6  0  0  0
  6  7  1  0  0  0  0
  6  5  1  0  0  0  0
  6 14  1  6  0  0  0
  7  8  1  0  0  0  0
  7 13  1  1  0  0  0
  8 15  1  1  0  0  0
  8 11  1  0  0  0  0
  9 13  1  0  0  0  0
 10  1  1  0  0  0  0
 17 15  1  6  0  0  0
 17 18  1  0  0  0  0
 18 25  1  6  0  0  0
 19 18  1  0  0  0  0
 19 26  1  1  0  0  0
 20 19  1  0  0  0  0
 20 24  1  6  0  0  0
 21 23  1  0  0  0  0
 21 20  1  0  0  0  0
 21 22  1  1  0  0  0
 23 17  1  0  0  0  0
 27 22  1  0  0  0  0
 28 29  1  0  0  0  0
 28 16  1  6  0  0  0
 29 36  1  1  0  0  0
 30 37  1  1  0  0  0
 30 29  1  0  0  0  0
 31 30  1  0  0  0  0
 31 34  1  1  0  0  0
 32 31  1  0  0  0  0
 32 33  1  0  0  0  0
 33 28  1  0  0  0  0
 33 35  1  6  0  0  0
M  END
>  <CHROM.1>
90.80506322,-81.69043187,135.74634745,54.71001967,-66.10338362,-174.73261162
175.38403278,176.97495799,-165.32907413,62.14631339,63.22650822,-70.82850112
172.44940216,-168.23911710,-171.81344293,96.05871083,0.85624422,5.97928830
10.91511874,-3.10236310,-0.81476210,1.57219307

>  <Name>
lig.pdb

>  <RI>
2.86754e+07

>  <Rbt.Current_Directory>
/home/itssahil/PROJECTS/Mol_Feturizer/New_Systems/rnas/2m4q

>  <Rbt.Executable>
rbdock ($Id: //depot/dev/client3/rdock/2013.1/src/exe/rbdock.cxx#4 $)

>  <Rbt.Library>
libRbt.so (2013.1, Build901 2013/11/27)

>  <Rbt.Parameter_File>
/export/apps/rDock/src/rDock_2013.1_src/data/scripts/dock_solv.prm

>  <Rbt.Receptor>
prm/pocket_docking_5.prm

>  <SCORE>
-59.4386

>  <SCORE.INTER>
-42.671

>  <SCORE.INTER.CONST>
1

>  <SCORE.INTER.POLAR>
-6.37994

>  <SCORE.INTER.ROT>
10

>  <SCORE.INTER.SOLV>
20.0639

>  <SCORE.INTER.VDW>
-24.1355

>  <SCORE.INTER.norm>
-1.15327

>  <SCORE.INTRA>
-16.7676

>  <SCORE.INTRA.DIHEDRAL>
-34.1123

>  <SCORE.INTRA.DIHEDRAL.0>
44.8331

>  <SCORE.INTRA.POLAR>
-0.166237

>  <SCORE.INTRA.POLAR.0>
-0.108895

>  <SCORE.INTRA.REPUL>
0.0495509

>  <SCORE.INTRA.REPUL.0>
0.00912235

>  <SCORE.INTRA.SOLV>
-0.319682

>  <SCORE.INTRA.SOLV.lig_0>
-53.9067

>  <SCORE.INTRA.VDW>
0.765865

>  <SCORE.INTRA.VDW.0>
-2.93492

>  <SCORE.INTRA.norm>
-0.453178

>  <SCORE.RESTR>
0

>  <SCORE.RESTR.CAVITY>
0

>  <SCORE.RESTR.norm>
0

>  <SCORE.SYSTEM>
0

>  <SCORE.SYSTEM.CONST>
0

>  <SCORE.SYSTEM.DIHEDRAL>
0

>  <SCORE.SYSTEM.SOLV>
0

>  <SCORE.SYSTEM.norm>
0

>  <SCORE.heavy>
37

>  <SCORE.norm>
-1.60645

>  <RMSD>
3.938

$$$$
lig.pdb
 OpenBabel11021811453D
libRbt.so/2013.1/901 2013/11/27
 37 40  0  0  0  0  0  0  0  0999 V2000
   -3.8158   11.1407   10.4162 C   0  0  2  0  0  0  0  0  0  0  0  0
   -3.1345   11.0086   11.8182 C   0  0  1  0  0  0  0  0  0  0  0  0
   -1.6660   10.4972   11.7430 C   0  0  0  0  0  0  0  0  0  0  0  0
   -1.5585    9.2407   10.8437 C   0  0  1  0  0  0  0  0  0  0  0  0
   -2.1377    9.5445    9.4439 C   0  0  1  0  0  0  0  0  0  0  0  0
   -2.0003    8.3154    8.5057 C   0  0  1  0  0  0  0  0  0  0  0  0
   -0.5261    7.8142    8.4592 C   0  0  1  0  0  0  0  0  0  0  0  0
    0.0608    7.5949    9.8853 C   0  0  2  0  0  0  0  0  0  0  0  0
    0.9294    6.0916    7.4957 C   0  0  0  0  0  0  0  0  0  0  0  0
   -3.5187    9.9949    9.5538 O   0  0  0  0  0  0  0  0  0  0  0  0
   -0.1923    8.7440   10.7509 O   0  0  0  0  0  0  0  0  0  0  0  0
   -3.1712   12.3121   12.5161 N   0  0  0  0  0  0  0  0  0  0  0  0
   -0.4564    6.5883    7.6373 N   0  0  0  0  0  0  0  0  0  0  0  0
   -2.8873    7.2720    8.8881 O   0  0  0  0  0  0  0  0  0  0  0  0
    1.4848    7.2932    9.8087 O   0  0  0  0  0  0  0  0  0  0  0  0
   -3.4329   12.3871    9.7586 O   0  0  0  0  0  0  0  0  0  0  0  0
    2.3167    7.5556   10.9804 C   0  0  2  0  0  0  0  0  0  0  0  0
    3.8166    7.2855   10.6708 C   0  0  1  0  0  0  0  0  0  0  0  0
    4.1061    5.7659   10.5068 C   0  0  2  0  0  0  0  0  0  0  0  0
    3.5839    4.9593   11.7309 C   0  0  1  0  0  0  0  0  0  0  0  0
    2.0931    5.2848   12.0262 C   0  0  1  0  0  0  0  0  0  0  0  0
    1.5968    4.5938   13.3233 C   0  0  0  0  0  0  0  0  0  0  0  0
    1.8935    6.7288   12.1055 O   0  0  0  0  0  0  0  0  0  0  0  0
    3.7938    3.5061   11.5502 N   0  0  0  0  0  0  0  0  0  0  0  0
    4.2340    8.0294    9.5275 O   0  0  0  0  0  0  0  0  0  0  0  0
    5.4948    5.5269   10.2883 O   0  0  0  0  0  0  0  0  0  0  0  0
    0.2073    4.8307   13.5244 O   0  0  0  0  0  0  0  0  0  0  0  0
   -4.4259   13.0409    8.9157 C   0  0  1  0  0  0  0  0  0  0  0  0
   -4.3264   14.5901    8.9945 C   0  0  1  0  0  0  0  0  0  0  0  0
   -5.4542   15.2668    8.1654 C   0  0  2  0  0  0  0  0  0  0  0  0
   -5.4924   14.7615    6.6865 C   0  0  1  0  0  0  0  0  0  0  0  0
   -5.4566   13.2077    6.5751 C   0  0  0  0  0  0  0  0  0  0  0  0
   -4.3262   12.5692    7.4371 C   0  0  2  0  0  0  0  0  0  0  0  0
   -6.6634   15.3140    5.9728 N   0  0  0  0  0  0  0  0  0  0  0  0
   -4.3932   11.0966    7.3175 N   0  0  0  0  0  0  0  0  0  0  0  0
   -4.3591   15.0318   10.3478 O   0  0  0  0  0  0  0  0  0  0  0  0
   -5.3177   16.6852    8.2040 O   0  0  0  0  0  0  0  0  0  0  0  0
  1  2  1  0  0  0  0
  1 16  1  6  0  0  0
  2  3  1  0  0  0  0
  2 12  1  6  0  0  0
  4 11  1  6  0  0  0
  4  3  1  0  0  0  0
  5  4  1  0  0  0  0
  5 10  1  1  0  0  0
  6  7  1  0  0  0  0
  6  5  1  0  0  0  0
  6 14  1  1  0  0  0
  7  8  1  0  0  0  0
  7 13  1  6  0  0  0
  8 15  1  6  0  0  0
  8 11  1  0  0  0  0
  9 13  1  0  0  0  0
 10  1  1  0  0  0  0
 17 15  1  6  0  0  0
 17 18  1  0  0  0  0
 18 25  1  6  0  0  0
 19 18  1  0  0  0  0
 19 26  1  1  0  0  0
 20 19  1  0  0  0  0
 20 24  1  6  0  0  0
 21 23  1  0  0  0  0
 21 20  1  0  0  0  0
 21 22  1  1  0  0  0
 23 17  1  0  0  0  0
 27 22  1  0  0  0  0
 28 29  1  0  0  0  0
 28 16  1  1  0  0  0
 29 36  1  1  0  0  0
 30 37  1  6  0  0  0
 30 29  1  0  0  0  0
 31 30  1  0  0  0  0
 31 34  1  1  0  0  0
 32 31  1  0  0  0  0
 32 33  1  0  0  0  0
 33 28  1  0  0  0  0
 33 35  1  1  0  0  0
M  END
>  <CHROM.1>
-58.88942703,156.82666687,177.25815315,80.47447859,-175.23600220,-146.07293259
-55.46403357,-59.85374860,-176.01304225,174.22032967,-179.92342379,144.76740449
-177.22094137,-179.52748382,-124.91171715,178.64183403,-1.15379255,9.48794191
9.79810223,2.99186245,0.84024916,-1.69256071

>  <Name>
lig.pdb

>  <RI>
3.60165e+07

>  <Rbt.Current_Directory>
/home/itssahil/PROJECTS/Mol_Feturizer/New_Systems/rnas/2m4q

>  <Rbt.Executable>
rbdock ($Id: //depot/dev/client3/rdock/2013.1/src/exe/rbdock.cxx#4 $)

>  <Rbt.Library>
libRbt.so (2013.1, Build901 2013/11/27)

>  <Rbt.Parameter_File>
/export/apps/rDock/src/rDock_2013.1_src/data/scripts/dock_solv.prm

>  <Rbt.Receptor>
prm/pocket_docking_8.prm

>  <SCORE>
-34.4816

>  <SCORE.INTER>
-22.1321

>  <SCORE.INTER.CONST>
1

>  <SCORE.INTER.POLAR>
-3.7636

>  <SCORE.INTER.ROT>
10

>  <SCORE.INTER.SOLV>
13.7627

>  <SCORE.INTER.VDW>
-17.0637

>  <SCORE.INTER.norm>
-0.598166

>  <SCORE.INTRA>
-12.3494

>  <SCORE.INTRA.DIHEDRAL>
-28.4924

>  <SCORE.INTRA.DIHEDRAL.0>
44.8331

>  <SCORE.INTRA.POLAR>
0.0254941

>  <SCORE.INTRA.POLAR.0>
-0.108895

>  <SCORE.INTRA.REPUL>
-0.00912235

>  <SCORE.INTRA.REPUL.0>
0.00912235

>  <SCORE.INTRA.SOLV>
-1.84784

>  <SCORE.INTRA.SOLV.lig_0>
-53.9067

>  <SCORE.INTRA.VDW>
2.7796

>  <SCORE.INTRA.VDW.0>
-2.93492

>  <SCORE.INTRA.norm>
-0.333769

>  <SCORE.RESTR>
0

>  <SCORE.RESTR.CAVITY>
0

>  <SCORE.RESTR.norm>
0

>  <SCORE.SYSTEM>
0

>  <SCORE.SYSTEM.CONST>
0

>  <SCORE.SYSTEM.DIHEDRAL>
0

>  <SCORE.SYSTEM.SOLV>
0

>  <SCORE.SYSTEM.norm>
0

>  <SCORE.heavy>
37

>  <SCORE.norm>
-0.931934

>  <RMSD>
3.965

$$$$
lig.pdb
 OpenBabel11021811453D
libRbt.so/2013.1/901 2013/11/27
 37 40  0  0  0  0  0  0  0  0999 V2000
    0.2755    7.3123    9.2965 C   0  0  2  0  0  0  0  0  0  0  0  0
    1.1274    6.4961    8.2693 C   0  0  1  0  0  0  0  0  0  0  0  0
    1.5600    5.0984    8.8014 C   0  0  0  0  0  0  0  0  0  0  0  0
    2.1746    5.2074   10.2189 C   0  0  1  0  0  0  0  0  0  0  0  0
    1.1792    5.9065   11.1717 C   0  0  1  0  0  0  0  0  0  0  0  0
    1.7510    5.9875   12.6126 C   0  0  1  0  0  0  0  0  0  0  0  0
    2.1899    4.5802   13.1161 C   0  0  1  0  0  0  0  0  0  0  0  0
    3.1267    3.8628   12.0992 C   0  0  2  0  0  0  0  0  0  0  0  0
    2.6485    3.4966   15.2677 C   0  0  0  0  0  0  0  0  0  0  0  0
    0.8187    7.2193   10.6535 O   0  0  0  0  0  0  0  0  0  0  0  0
    2.5833    3.9116   10.7441 O   0  0  0  0  0  0  0  0  0  0  0  0
    0.3703    6.3348    7.0090 N   0  0  0  0  0  0  0  0  0  0  0  0
    2.8173    4.7152   14.4469 N   0  0  0  0  0  0  0  0  0  0  0  0
    2.8215    6.9199   12.6918 O   0  0  0  0  0  0  0  0  0  0  0  0
    3.3780    2.4901   12.5197 O   0  0  0  0  0  0  0  0  0  0  0  0
   -1.1224    6.8902    9.2764 O   0  0  0  0  0  0  0  0  0  0  0  0
    4.3950    1.7188   11.8093 C   0  0  2  0  0  0  0  0  0  0  0  0
    4.5569    0.3030   12.4321 C   0  0  1  0  0  0  0  0  0  0  0  0
    5.2355    0.3633   13.8306 C   0  0  2  0  0  0  0  0  0  0  0  0
    6.5725    1.1577   13.7724 C   0  0  1  0  0  0  0  0  0  0  0  0
    6.3724    2.5505   13.1124 C   0  0  1  0  0  0  0  0  0  0  0  0
    7.7180    3.2988   12.9232 C   0  0  0  0  0  0  0  0  0  0  0  0
    5.6775    2.4137   11.8358 O   0  0  0  0  0  0  0  0  0  0  0  0
    7.1884    1.2784   15.1120 N   0  0  0  0  0  0  0  0  0  0  0  0
    3.2995   -0.3686   12.4834 O   0  0  0  0  0  0  0  0  0  0  0  0
    5.4374   -0.9445   14.3619 O   0  0  0  0  0  0  0  0  0  0  0  0
    7.5334    4.4910   12.1670 O   0  0  0  0  0  0  0  0  0  0  0  0
   -2.1425    7.9181    9.4400 C   0  0  1  0  0  0  0  0  0  0  0  0
   -2.2073    8.4461   10.9006 C   0  0  1  0  0  0  0  0  0  0  0  0
   -3.3644    9.4696   11.0756 C   0  0  2  0  0  0  0  0  0  0  0  0
   -3.2899   10.6369   10.0385 C   0  0  1  0  0  0  0  0  0  0  0  0
   -3.0891   10.1376    8.5762 C   0  0  0  0  0  0  0  0  0  0  0  0
   -1.9346    9.0985    8.4492 C   0  0  2  0  0  0  0  0  0  0  0  0
   -4.4819   11.5059   10.1394 N   0  0  0  0  0  0  0  0  0  0  0  0
   -1.8439    8.6379    7.0467 N   0  0  0  0  0  0  0  0  0  0  0  0
   -2.3404    7.3696   11.8231 O   0  0  0  0  0  0  0  0  0  0  0  0
   -3.3772    9.9840   12.4049 O   0  0  0  0  0  0  0  0  0  0  0  0
  1  2  1  0  0  0  0
  1 16  1  1  0  0  0
  2  3  1  0  0  0  0
  2 12  1  6  0  0  0
  4 11  1  1  0  0  0
  4  3  1  0  0  0  0
  5  4  1  0  0  0  0
  5 10  1  6  0  0  0
  6  7  1  0  0  0  0
  6  5  1  0  0  0  0
  6 14  1  6  0  0  0
  7  8  1  0  0  0  0
  7 13  1  1  0  0  0
  8 15  1  1  0  0  0
  8 11  1  0  0  0  0
  9 13  1  0  0  0  0
 10  1  1  0  0  0  0
 17 15  1  1  0  0  0
 17 18  1  0  0  0  0
 18 25  1  1  0  0  0
 19 18  1  0  0  0  0
 19 26  1  6  0  0  0
 20 19  1  0  0  0  0
 20 24  1  1  0  0  0
 21 23  1  0  0  0  0
 21 20  1  0  0  0  0
 21 22  1  6  0  0  0
 23 17  1  0  0  0  0
 27 22  1  0  0  0  0
 28 29  1  0  0  0  0
 28 16  1  1  0  0  0
 29 36  1  1  0  0  0
 30 37  1  1  0  0  0
 30 29  1  0  0  0  0
 31 30  1  0  0  0  0
 31 34  1  6  0  0  0
 32 31  1  0  0  0  0
 32 33  1  0  0  0  0
 33 28  1  0  0  0  0
 33 35  1  6  0  0  0
M  END
>  <CHROM.1>
-172.05492603,-170.73370777,151.36320571,-60.04871557,177.87277640,-142.49279165
-57.91252459,-62.94208826,172.59022832,-179.89255490,-56.74813626,-72.63241477
-68.99482565,178.06400843,52.22553978,-37.04870492,1.73327283,5.27749446
11.42858122,-2.75914029,-0.73244035,1.66088202

>  <Name>
lig.pdb

>  <RI>
0

>  <Rbt.Current_Directory>
/home/itssahil/PROJECTS/Mol_Feturizer/New_Systems/rnas/2m4q

>  <Rbt.Executable>
rbdock ($Id: //depot/dev/client3/rdock/2013.1/src/exe/rbdock.cxx#4 $)

>  <Rbt.Library>
libRbt.so (2013.1, Build901 2013/11/27)

>  <Rbt.Parameter_File>
/export/apps/rDock/src/rDock_2013.1_src/data/scripts/dock_solv.prm

>  <Rbt.Receptor>
prm/pocket_docking_7.prm

>  <SCORE>
-35.111

>  <SCORE.INTER>
-14.4499

>  <SCORE.INTER.CONST>
1

>  <SCORE.INTER.POLAR>
-2.02345

>  <SCORE.INTER.ROT>
10

>  <SCORE.INTER.SOLV>
14.8791

>  <SCORE.INTER.VDW>
-18.1148

>  <SCORE.INTER.norm>
-0.390538

>  <SCORE.INTRA>
-20.6611

>  <SCORE.INTRA.DIHEDRAL>
-35.2518

>  <SCORE.INTRA.DIHEDRAL.0>
44.8331

>  <SCORE.INTRA.POLAR>
-0.920269

>  <SCORE.INTRA.POLAR.0>
-0.108895

>  <SCORE.INTRA.REPUL>
-0.00912235

>  <SCORE.INTRA.REPUL.0>
0.00912235

>  <SCORE.INTRA.SOLV>
-1.31545

>  <SCORE.INTRA.SOLV.lig_0>
-53.9067

>  <SCORE.INTRA.VDW>
0.79706

>  <SCORE.INTRA.VDW.0>
-2.93492

>  <SCORE.INTRA.norm>
-0.558407

>  <SCORE.RESTR>
0

>  <SCORE.RESTR.CAVITY>
0

>  <SCORE.RESTR.norm>
0

>  <SCORE.SYSTEM>
0

>  <SCORE.SYSTEM.CONST>
0

>  <SCORE.SYSTEM.DIHEDRAL>
0

>  <SCORE.SYSTEM.SOLV>
0

>  <SCORE.SYSTEM.norm>
0

>  <SCORE.heavy>
37

>  <SCORE.norm>
-0.948946

>  <RMSD>
4.001

$$$$
lig.pdb
 OpenBabel11021811453D
libRbt.so/2013.1/901 2013/11/27
 37 40  0  0  0  0  0  0  0  0999 V2000
   -2.5899    8.2319   12.0252 C   0  0  2  0  0  0  0  0  0  0  0  0
   -2.0971    6.9607   12.7923 C   0  0  1  0  0  0  0  0  0  0  0  0
   -0.7610    6.3861   12.2368 C   0  0  0  0  0  0  0  0  0  0  0  0
   -0.8154    6.2388   10.6959 C   0  0  1  0  0  0  0  0  0  0  0  0
   -1.1746    7.5957   10.0500 C   0  0  1  0  0  0  0  0  0  0  0  0
   -1.1902    7.4884    8.5014 C   0  0  1  0  0  0  0  0  0  0  0  0
    0.1505    6.8977    7.9720 C   0  0  1  0  0  0  0  0  0  0  0  0
    0.5313    5.5732    8.6977 C   0  0  2  0  0  0  0  0  0  0  0  0
    0.1091    8.0099    5.7868 C   0  0  0  0  0  0  0  0  0  0  0  0
   -2.4411    8.0875   10.5754 O   0  0  0  0  0  0  0  0  0  0  0  0
    0.4257    5.7080   10.1484 O   0  0  0  0  0  0  0  0  0  0  0  0
   -1.9436    7.2731   14.2298 N   0  0  0  0  0  0  0  0  0  0  0  0
    0.0574    6.7199    6.5081 N   0  0  0  0  0  0  0  0  0  0  0  0
   -2.3029    6.7284    8.0476 O   0  0  0  0  0  0  0  0  0  0  0  0
    1.8661    5.1417    8.3019 O   0  0  0  0  0  0  0  0  0  0  0  0
   -1.8993    9.4309   12.4921 O   0  0  0  0  0  0  0  0  0  0  0  0
    3.0200    5.8038    8.9051 C   0  0  2  0  0  0  0  0  0  0  0  0
    3.9608    6.3885    7.8134 C   0  0  1  0  0  0  0  0  0  0  0  0
    4.7075    5.2669    7.0361 C   0  0  2  0  0  0  0  0  0  0  0  0
    5.4371    4.2978    8.0110 C   0  0  1  0  0  0  0  0  0  0  0  0
    4.4701    3.7648    9.1048 C   0  0  1  0  0  0  0  0  0  0  0  0
    5.2116    2.9066   10.1631 C   0  0  0  0  0  0  0  0  0  0  0  0
    3.7654    4.8719    9.7444 O   0  0  0  0  0  0  0  0  0  0  0  0
    6.0916    3.1892    7.2822 N   0  0  0  0  0  0  0  0  0  0  0  0
    3.2360    7.2476    6.9352 O   0  0  0  0  0  0  0  0  0  0  0  0
    5.6149    5.8170    6.0835 O   0  0  0  0  0  0  0  0  0  0  0  0
    4.3442    2.5689   11.2405 O   0  0  0  0  0  0  0  0  0  0  0  0
   -2.4859   10.7230   12.1599 C   0  0  1  0  0  0  0  0  0  0  0  0
   -3.3234   11.3009   13.3349 C   0  0  1  0  0  0  0  0  0  0  0  0
   -4.0184   12.6305   12.9268 C   0  0  2  0  0  0  0  0  0  0  0  0
   -3.0093   13.6815   12.3604 C   0  0  1  0  0  0  0  0  0  0  0  0
   -2.0640   13.0899   11.2722 C   0  0  0  0  0  0  0  0  0  0  0  0
   -1.4052   11.7482   11.7133 C   0  0  2  0  0  0  0  0  0  0  0  0
   -3.7222   14.8713   11.8486 N   0  0  0  0  0  0  0  0  0  0  0  0
   -0.5683   11.2288   10.6100 N   0  0  0  0  0  0  0  0  0  0  0  0
   -4.2797   10.3498   13.7915 O   0  0  0  0  0  0  0  0  0  0  0  0
   -4.7383   13.1749   14.0300 O   0  0  0  0  0  0  0  0  0  0  0  0
  1  2  1  0  0  0  0
  1 16  1  1  0  0  0
  2  3  1  0  0  0  0
  2 12  1  1  0  0  0
  4 11  1  6  0  0  0
  4  3  1  0  0  0  0
  5  4  1  0  0  0  0
  5 10  1  1  0  0  0
  6  7  1  0  0  0  0
  6  5  1  0  0  0  0
  6 14  1  1  0  0  0
  7  8  1  0  0  0  0
  7 13  1  6  0  0  0
  8 15  1  1  0  0  0
  8 11  1  0  0  0  0
  9 13  1  0  0  0  0
 10  1  1  0  0  0  0
 17 15  1  6  0  0  0
 17 18  1  0  0  0  0
 18 25  1  6  0  0  0
 19 18  1  0  0  0  0
 19 26  1  6  0  0  0
 20 19  1  0  0  0  0
 20 24  1  6  0  0  0
 21 23  1  0  0  0  0
 21 20  1  0  0  0  0
 21 22  1  1  0  0  0
 23 17  1  0  0  0  0
 27 22  1  0  0  0  0
 28 29  1  0  0  0  0
 28 16  1  1  0  0  0
 29 36  1  6  0  0  0
 30 37  1  1  0  0  0
 30 29  1  0  0  0  0
 31 30  1  0  0  0  0
 31 34  1  6  0  0  0
 32 31  1  0  0  0  0
 32 33  1  0  0  0  0
 33 28  1  0  0  0  0
 33 35  1  6  0  0  0
M  END
>  <CHROM.1>
178.45331399,78.34093264,72.83605231,-173.75033737,-124.30004190,-163.36387321
-70.98074375,-175.59072858,172.75714626,76.03251273,63.64529616,98.28316484
60.99231892,63.33926070,81.01108674,173.34000873,0.17757405,7.75093898,10.13668241
3.00944787,0.83913390,-0.83397323

>  <Name>
lig.pdb

>  <RI>
0

>  <Rbt.Current_Directory>
/home/itssahil/PROJECTS/Mol_Feturizer/New_Systems/rnas/2m4q

>  <Rbt.Executable>
rbdock ($Id: //depot/dev/client3/rdock/2013.1/src/exe/rbdock.cxx#4 $)

>  <Rbt.Library>
libRbt.so (2013.1, Build901 2013/11/27)

>  <Rbt.Parameter_File>
/export/apps/rDock/src/rDock_2013.1_src/data/scripts/dock_solv.prm

>  <Rbt.Receptor>
prm/pocket_docking_6.prm

>  <SCORE>
-44.997

>  <SCORE.INTER>
-30.734

>  <SCORE.INTER.CONST>
1

>  <SCORE.INTER.POLAR>
-4.27605

>  <SCORE.INTER.ROT>
10

>  <SCORE.INTER.SOLV>
18.9105

>  <SCORE.INTER.VDW>
-22.806

>  <SCORE.INTER.norm>
-0.83065

>  <SCORE.INTRA>
-14.2629

>  <SCORE.INTRA.DIHEDRAL>
-26.6814

>  <SCORE.INTRA.DIHEDRAL.0>
44.8331

>  <SCORE.INTRA.POLAR>
-0.0452756

>  <SCORE.INTRA.POLAR.0>
-0.108895

>  <SCORE.INTRA.REPUL>
-0.00912235

>  <SCORE.INTRA.REPUL.0>
0.00912235

>  <SCORE.INTRA.SOLV>
-0.863162

>  <SCORE.INTRA.SOLV.lig_0>
-53.9067

>  <SCORE.INTRA.VDW>
-0.291084

>  <SCORE.INTRA.VDW.0>
-2.93492

>  <SCORE.INTRA.norm>
-0.385484

>  <SCORE.RESTR>
0

>  <SCORE.RESTR.CAVITY>
0

>  <SCORE.RESTR.norm>
0

>  <SCORE.SYSTEM>
0

>  <SCORE.SYSTEM.CONST>
0

>  <SCORE.SYSTEM.DIHEDRAL>
0

>  <SCORE.SYSTEM.SOLV>
0

>  <SCORE.SYSTEM.norm>
0

>  <SCORE.heavy>
37

>  <SCORE.norm>
-1.21613

>  <RMSD>
4.027

$$$$
lig.pdb
 OpenBabel11021811453D
libRbt.so/2013.1/901 2013/11/27
 37 40  0  0  0  0  0  0  0  0999 V2000
   -1.8341    7.5782    8.9789 C   0  0  2  0  0  0  0  0  0  0  0  0
   -2.3428    6.9704   10.3275 C   0  0  1  0  0  0  0  0  0  0  0  0
   -1.1910    6.5116   11.2691 C   0  0  0  0  0  0  0  0  0  0  0  0
   -0.1617    5.6403   10.5072 C   0  0  1  0  0  0  0  0  0  0  0  0
    0.3688    6.4082    9.2758 C   0  0  1  0  0  0  0  0  0  0  0  0
    1.4382    5.5759    8.5187 C   0  0  1  0  0  0  0  0  0  0  0  0
    2.5709    5.1168    9.4846 C   0  0  1  0  0  0  0  0  0  0  0  0
    2.0053    4.4192   10.7572 C   0  0  2  0  0  0  0  0  0  0  0  0
    4.7570    4.9590    8.3845 C   0  0  0  0  0  0  0  0  0  0  0  0
   -0.7343    6.7976    8.4077 O   0  0  0  0  0  0  0  0  0  0  0  0
    0.9315    5.2016   11.3642 O   0  0  0  0  0  0  0  0  0  0  0  0
   -3.1951    7.9548   11.0290 N   0  0  0  0  0  0  0  0  0  0  0  0
    3.5127    4.2478    8.7491 N   0  0  0  0  0  0  0  0  0  0  0  0
    0.8512    4.4674    7.8493 O   0  0  0  0  0  0  0  0  0  0  0  0
    3.0750    4.1579   11.7122 O   0  0  0  0  0  0  0  0  0  0  0  0
   -1.4367    8.9735    9.1454 O   0  0  0  0  0  0  0  0  0  0  0  0
    3.8427    5.2897   12.2254 C   0  0  2  0  0  0  0  0  0  0  0  0
    4.9504    4.8125   13.2073 C   0  0  1  0  0  0  0  0  0  0  0  0
    4.3499    4.3024   14.5486 C   0  0  2  0  0  0  0  0  0  0  0  0
    3.3970    5.3608   15.1760 C   0  0  1  0  0  0  0  0  0  0  0  0
    2.3288    5.8353   14.1517 C   0  0  1  0  0  0  0  0  0  0  0  0
    1.4578    6.9876   14.7172 C   0  0  0  0  0  0  0  0  0  0  0  0
    2.9662    6.2396   12.9021 O   0  0  0  0  0  0  0  0  0  0  0  0
    2.7688    4.8549   16.4162 N   0  0  0  0  0  0  0  0  0  0  0  0
    5.7768    3.8275   12.5898 O   0  0  0  0  0  0  0  0  0  0  0  0
    5.3777    3.9293   15.4640 O   0  0  0  0  0  0  0  0  0  0  0  0
    2.2521    8.1380   14.9874 O   0  0  0  0  0  0  0  0  0  0  0  0
   -0.7862    9.6315    8.0193 C   0  0  1  0  0  0  0  0  0  0  0  0
    0.6263    9.0457    7.7403 C   0  0  1  0  0  0  0  0  0  0  0  0
    1.3406    9.8246    6.5999 C   0  0  2  0  0  0  0  0  0  0  0  0
    0.4767    9.9030    5.2994 C   0  0  1  0  0  0  0  0  0  0  0  0
   -0.9880   10.3601    5.5705 C   0  0  0  0  0  0  0  0  0  0  0  0
   -1.6589    9.5690    6.7337 C   0  0  2  0  0  0  0  0  0  0  0  0
    1.1218   10.7720    4.2920 N   0  0  0  0  0  0  0  0  0  0  0  0
   -3.0219   10.0962    6.9607 N   0  0  0  0  0  0  0  0  0  0  0  0
    1.4173    9.0444    8.9244 O   0  0  0  0  0  0  0  0  0  0  0  0
    2.6113    9.2428    6.3198 O   0  0  0  0  0  0  0  0  0  0  0  0
  1  2  1  0  0  0  0
  1 16  1  1  0  0  0
  2  3  1  0  0  0  0
  2 12  1  1  0  0  0
  4 11  1  1  0  0  0
  4  3  1  0  0  0  0
  5  4  1  0  0  0  0
  5 10  1  6  0  0  0
  6  7  1  0  0  0  0
  6  5  1  0  0  0  0
  6 14  1  1  0  0  0
  7  8  1  0  0  0  0
  7 13  1  6  0  0  0
  8 15  1  1  0  0  0
  8 11  1  0  0  0  0
  9 13  1  0  0  0  0
 10  1  1  0  0  0  0
 17 15  1  1  0  0  0
 17 18  1  0  0  0  0
 18 25  1  6  0  0  0
 19 18  1  0  0  0  0
 19 26  1  1  0  0  0
 20 19  1  0  0  0  0
 20 24  1  1  0  0  0
 21 23  1  0  0  0  0
 21 20  1  0  0  0  0
 21 22  1  1  0  0  0
 23 17  1  0  0  0  0
 27 22  1  0  0  0  0
 28 29  1  0  0  0  0
 28 16  1  1  0  0  0
 29 36  1  1  0  0  0
 30 37  1  6  0  0  0
 30 29  1  0  0  0  0
 31 30  1  0  0  0  0
 31 34  1  6  0  0  0
 32 31  1  0  0  0  0
 32 33  1  0  0  0  0
 33 28  1  0  0  0  0
 33 35  1  1  0  0  0
M  END
>  <CHROM.1>
169.05238790,59.54647486,102.79078522,36.74470197,-178.98769448,172.59538218
-51.96115515,60.81422024,62.93876276,174.03609749,179.30748491,-68.03745968
-62.92613973,-177.15746683,179.88766574,32.47216140,1.35923104,6.80897504
10.25805748,2.11024846,0.48867832,-1.28864629

>  <Name>
lig.pdb

>  <RI>
0

>  <Rbt.Current_Directory>
/home/itssahil/PROJECTS/Mol_Feturizer/New_Systems/rnas/2m4q

>  <Rbt.Executable>
rbdock ($Id: //depot/dev/client3/rdock/2013.1/src/exe/rbdock.cxx#4 $)

>  <Rbt.Library>
libRbt.so (2013.1, Build901 2013/11/27)

>  <Rbt.Parameter_File>
/export/apps/rDock/src/rDock_2013.1_src/data/scripts/dock_solv.prm

>  <Rbt.Receptor>
prm/pocket_docking_6.prm

>  <SCORE>
-42.165

>  <SCORE.INTER>
-22.3378

>  <SCORE.INTER.CONST>
1

>  <SCORE.INTER.POLAR>
-3.87967

>  <SCORE.INTER.ROT>
10

>  <SCORE.INTER.SOLV>
12.2345

>  <SCORE.INTER.VDW>
-16.3045

>  <SCORE.INTER.norm>
-0.603725

>  <SCORE.INTRA>
-19.8272

>  <SCORE.INTRA.DIHEDRAL>
-37.6658

>  <SCORE.INTRA.DIHEDRAL.0>
44.8331

>  <SCORE.INTRA.POLAR>
-0.108159

>  <SCORE.INTRA.POLAR.0>
-0.108895

>  <SCORE.INTRA.REPUL>
-0.00912235

>  <SCORE.INTRA.REPUL.0>
0.00912235

>  <SCORE.INTRA.SOLV>
-0.611696

>  <SCORE.INTRA.SOLV.lig_0>
-53.9067

>  <SCORE.INTRA.VDW>
-0.275064

>  <SCORE.INTRA.VDW.0>
-2.93492

>  <SCORE.INTRA.norm>
-0.53587

>  <SCORE.RESTR>
0

>  <SCORE.RESTR.CAVITY>
0

>  <SCORE.RESTR.norm>
0

>  <SCORE.SYSTEM>
0

>  <SCORE.SYSTEM.CONST>
0

>  <SCORE.SYSTEM.DIHEDRAL>
0

>  <SCORE.SYSTEM.SOLV>
0

>  <SCORE.SYSTEM.norm>
0

>  <SCORE.heavy>
37

>  <SCORE.norm>
-1.1396

>  <RMSD>
4.035

$$$$
lig.pdb
 OpenBabel11021811453D
libRbt.so/2013.1/901 2013/11/27
 37 40  0  0  0  0  0  0  0  0999 V2000
    0.1396    7.3796    9.3399 C   0  0  2  0  0  0  0  0  0  0  0  0
    0.9805    6.5256    8.3346 C   0  0  1  0  0  0  0  0  0  0  0  0
    1.4343    5.1562    8.9197 C   0  0  0  0  0  0  0  0  0  0  0  0
    2.0725    5.3322   10.3200 C   0  0  1  0  0  0  0  0  0  0  0  0
    1.0878    6.0648   11.2587 C   0  0  1  0  0  0  0  0  0  0  0  0
    1.6839    6.2136   12.6843 C   0  0  1  0  0  0  0  0  0  0  0  0
    2.1434    4.8332   13.2411 C   0  0  1  0  0  0  0  0  0  0  0  0
    3.0685    4.0791   12.2402 C   0  0  2  0  0  0  0  0  0  0  0  0
    2.7303    3.8166   15.3942 C   0  0  0  0  0  0  0  0  0  0  0  0
    0.7071    7.3507   10.6898 O   0  0  0  0  0  0  0  0  0  0  0  0
    2.5013    4.0640   10.8942 O   0  0  0  0  0  0  0  0  0  0  0  0
    0.2030    6.3032    7.0962 N   0  0  0  0  0  0  0  0  0  0  0  0
    2.7927    5.0316   14.5534 N   0  0  0  0  0  0  0  0  0  0  0  0
    2.7475    7.1569   12.7035 O   0  0  0  0  0  0  0  0  0  0  0  0
    3.3388    2.7282   12.7161 O   0  0  0  0  0  0  0  0  0  0  0  0
   -1.2547    6.9462    9.3632 O   0  0  0  0  0  0  0  0  0  0  0  0
    4.3102    1.9147   11.9891 C   0  0  2  0  0  0  0  0  0  0  0  0
    4.2117    0.4206   12.4094 C   0  0  1  0  0  0  0  0  0  0  0  0
    4.7418    0.1928   13.8540 C   0  0  2  0  0  0  0  0  0  0  0  0
    6.1731    0.7790   14.0262 C   0  0  1  0  0  0  0  0  0  0  0  0
    6.2348    2.2612   13.5627 C   0  0  1  0  0  0  0  0  0  0  0  0
    7.6821    2.8183   13.5997 C   0  0  0  0  0  0  0  0  0  0  0  0
    5.6654    2.4004   12.2256 O   0  0  0  0  0  0  0  0  0  0  0  0
    6.6558    0.6274   15.4164 N   0  0  0  0  0  0  0  0  0  0  0  0
    2.8762   -0.0562   12.2551 O   0  0  0  0  0  0  0  0  0  0  0  0
    4.7070   -1.1893   14.2033 O   0  0  0  0  0  0  0  0  0  0  0  0
    8.5005    2.1686   12.6325 O   0  0  0  0  0  0  0  0  0  0  0  0
   -2.2798    7.9706    9.5171 C   0  0  1  0  0  0  0  0  0  0  0  0
   -2.3181    8.5429   10.9618 C   0  0  1  0  0  0  0  0  0  0  0  0
   -3.4798    9.5623   11.1301 C   0  0  2  0  0  0  0  0  0  0  0  0
   -3.4372   10.6976   10.0563 C   0  0  1  0  0  0  0  0  0  0  0  0
   -3.2632   10.1550    8.6061 C   0  0  0  0  0  0  0  0  0  0  0  0
   -2.1028    9.1215    8.4863 C   0  0  2  0  0  0  0  0  0  0  0  0
   -4.6340   11.5600   10.1560 N   0  0  0  0  0  0  0  0  0  0  0  0
   -2.0380    8.6186    7.0969 N   0  0  0  0  0  0  0  0  0  0  0  0
   -2.4226    7.4943   11.9195 O   0  0  0  0  0  0  0  0  0  0  0  0
   -3.4688   10.1173   12.4429 O   0  0  0  0  0  0  0  0  0  0  0  0
  1  2  1  0  0  0  0
  1 16  1  1  0  0  0
  2  3  1  0  0  0  0
  2 12  1  6  0  0  0
  4 11  1  1  0  0  0
  4  3  1  0  0  0  0
  5  4  1  0  0  0  0
  5 10  1  6  0  0  0
  6  7  1  0  0  0  0
  6  5  1  0  0  0  0
  6 14  1  6  0  0  0
  7  8  1  0  0  0  0
  7 13  1  1  0  0  0
  8 15  1  1  0  0  0
  8 11  1  0  0  0  0
  9 13  1  0  0  0  0
 10  1  1  0  0  0  0
 17 15  1  1  0  0  0
 17 18  1  0  0  0  0
 18 25  1  1  0  0  0
 19 18  1  0  0  0  0
 19 26  1  6  0  0  0
 20 19  1  0  0  0  0
 20 24  1  1  0  0  0
 21 23  1  0  0  0  0
 21 20  1  0  0  0  0
 21 22  1  6  0  0  0
 23 17  1  0  0  0  0
 27 22  1  0  0  0  0
 28 29  1  0  0  0  0
 28 16  1  1  0  0  0
 29 36  1  1  0  0  0
 30 37  1  1  0  0  0
 30 29  1  0  0  0  0
 31 30  1  0  0  0  0
 31 34  1  6  0  0  0
 32 31  1  0  0  0  0
 32 33  1  0  0  0  0
 33 28  1  0  0  0  0
 33 35  1  6  0  0  0
M  END
>  <CHROM.1>
-71.25971107,-173.19996361,155.32840617,-59.53471683,-165.94095286,-143.27027788
57.76353464,59.96847935,66.74315131,-50.77079630,-63.10882101,-72.65243558
-62.34218998,-62.95237337,-79.12144956,-51.89676879,1.60589271,5.23899084
11.54256814,-2.84947300,-0.78157551,1.52460869

>  <Name>
lig.pdb

>  <RI>
0

>  <Rbt.Current_Directory>
/home/itssahil/PROJECTS/Mol_Feturizer/New_Systems/rnas/2m4q

>  <Rbt.Executable>
rbdock ($Id: //depot/dev/client3/rdock/2013.1/src/exe/rbdock.cxx#4 $)

>  <Rbt.Library>
libRbt.so (2013.1, Build901 2013/11/27)

>  <Rbt.Parameter_File>
/export/apps/rDock/src/rDock_2013.1_src/data/scripts/dock_solv.prm

>  <Rbt.Receptor>
prm/pocket_docking_7.prm

>  <SCORE>
-53.5578

>  <SCORE.INTER>
-31.5816

>  <SCORE.INTER.CONST>
1

>  <SCORE.INTER.POLAR>
-5.09472

>  <SCORE.INTER.ROT>
10

>  <SCORE.INTER.SOLV>
15.7449

>  <SCORE.INTER.VDW>
-19.587

>  <SCORE.INTER.norm>
-0.853557

>  <SCORE.INTRA>
-21.9762

>  <SCORE.INTRA.DIHEDRAL>
-35.5696

>  <SCORE.INTRA.DIHEDRAL.0>
44.8331

>  <SCORE.INTRA.POLAR>
-0.891105

>  <SCORE.INTRA.POLAR.0>
-0.108895

>  <SCORE.INTRA.REPUL>
-0.00912235

>  <SCORE.INTRA.REPUL.0>
0.00912235

>  <SCORE.INTRA.SOLV>
-1.11945

>  <SCORE.INTRA.SOLV.lig_0>
-53.9067

>  <SCORE.INTRA.VDW>
-0.556323

>  <SCORE.INTRA.VDW.0>
-2.93492

>  <SCORE.INTRA.norm>
-0.593952

>  <SCORE.RESTR>
0

>  <SCORE.RESTR.CAVITY>
0

>  <SCORE.RESTR.norm>
0

>  <SCORE.SYSTEM>
0

>  <SCORE.SYSTEM.CONST>
0

>  <SCORE.SYSTEM.DIHEDRAL>
0

>  <SCORE.SYSTEM.SOLV>
0

>  <SCORE.SYSTEM.norm>
0

>  <SCORE.heavy>
37

>  <SCORE.norm>
-1.44751

>  <RMSD>
4.069

$$$$
lig.pdb
 OpenBabel11021811453D
libRbt.so/2013.1/901 2013/11/27
 37 40  0  0  0  0  0  0  0  0999 V2000
   -1.1931    8.2392    8.7291 C   0  0  2  0  0  0  0  0  0  0  0  0
   -0.6733    7.3340    7.5640 C   0  0  1  0  0  0  0  0  0  0  0  0
   -0.0744    5.9832    8.0544 C   0  0  0  0  0  0  0  0  0  0  0  0
    0.9350    6.2069    9.2077 C   0  0  1  0  0  0  0  0  0  0  0  0
    0.2582    6.9900   10.3549 C   0  0  1  0  0  0  0  0  0  0  0  0
    1.2343    7.1881   11.5455 C   0  0  1  0  0  0  0  0  0  0  0  0
    1.8307    5.8252   12.0075 C   0  0  1  0  0  0  0  0  0  0  0  0
    2.4327    5.0188   10.8186 C   0  0  2  0  0  0  0  0  0  0  0  0
    2.1973    6.5459   14.3227 C   0  0  0  0  0  0  0  0  0  0  0  0
   -0.2661    8.2570    9.8630 O   0  0  0  0  0  0  0  0  0  0  0  0
    1.5070    4.9571    9.6903 O   0  0  0  0  0  0  0  0  0  0  0  0
   -1.7704    7.0724    6.6073 N   0  0  0  0  0  0  0  0  0  0  0  0
    2.8258    6.0674   13.0724 N   0  0  0  0  0  0  0  0  0  0  0  0
    2.2613    8.1168   11.2224 O   0  0  0  0  0  0  0  0  0  0  0  0
    2.8246    3.6846   11.2554 O   0  0  0  0  0  0  0  0  0  0  0  0
   -2.5243    7.8262    9.1649 O   0  0  0  0  0  0  0  0  0  0  0  0
    4.0869    3.5295   11.9741 C   0  0  2  0  0  0  0  0  0  0  0  0
    5.2986    3.6761   11.0103 C   0  0  1  0  0  0  0  0  0  0  0  0
    5.4196    2.4597   10.0482 C   0  0  2  0  0  0  0  0  0  0  0  0
    5.4301    1.1183   10.8373 C   0  0  1  0  0  0  0  0  0  0  0  0
    4.2231    1.0283   11.8123 C   0  0  1  0  0  0  0  0  0  0  0  0
    4.2935   -0.2396   12.7033 C   0  0  0  0  0  0  0  0  0  0  0  0
    4.1439    2.2308   12.6364 O   0  0  0  0  0  0  0  0  0  0  0  0
    5.4751   -0.0453    9.9248 N   0  0  0  0  0  0  0  0  0  0  0  0
    5.2248    4.9090   10.2967 O   0  0  0  0  0  0  0  0  0  0  0  0
    6.5710    2.5748    9.2149 O   0  0  0  0  0  0  0  0  0  0  0  0
    5.3232   -0.1173   13.6790 O   0  0  0  0  0  0  0  0  0  0  0  0
   -3.1195    8.5367   10.2895 C   0  0  1  0  0  0  0  0  0  0  0  0
   -2.4240    8.1842   11.6341 C   0  0  1  0  0  0  0  0  0  0  0  0
   -3.1348    8.8766   12.8310 C   0  0  2  0  0  0  0  0  0  0  0  0
   -3.2676   10.4216   12.6330 C   0  0  1  0  0  0  0  0  0  0  0  0
   -3.8388   10.8074   11.2356 C   0  0  0  0  0  0  0  0  0  0  0  0
   -3.1127   10.0758   10.0667 C   0  0  2  0  0  0  0  0  0  0  0  0
   -4.0748   11.0225   13.7163 N   0  0  0  0  0  0  0  0  0  0  0  0
   -3.7456   10.4549    8.7849 N   0  0  0  0  0  0  0  0  0  0  0  0
   -2.3726    6.7739   11.8236 O   0  0  0  0  0  0  0  0  0  0  0  0
   -2.4541    8.5870   14.0494 O   0  0  0  0  0  0  0  0  0  0  0  0
  1  2  1  0  0  0  0
  1 16  1  1  0  0  0
  2  3  1  0  0  0  0
  2 12  1  6  0  0  0
  4 11  1  1  0  0  0
  4  3  1  0  0  0  0
  5  4  1  0  0  0  0
  5 10  1  6  0  0  0
  6  7  1  0  0  0  0
  6  5  1  0  0  0  0
  6 14  1  6  0  0  0
  7  8  1  0  0  0  0
  7 13  1  1  0  0  0
  8 15  1  1  0  0  0
  8 11  1  0  0  0  0
  9 13  1  0  0  0  0
 10  1  1  0  0  0  0
 17 15  1  6  0  0  0
 17 18  1  0  0  0  0
 18 25  1  6  0  0  0
 19 18  1  0  0  0  0
 19 26  1  1  0  0  0
 20 19  1  0  0  0  0
 20 24  1  6  0  0  0
 21 23  1  0  0  0  0
 21 20  1  0  0  0  0
 21 22  1  1  0  0  0
 23 17  1  0  0  0  0
 27 22  1  0  0  0  0
 28 29  1  0  0  0  0
 28 16  1  6  0  0  0
 29 36  1  1  0  0  0
 30 37  1  1  0  0  0
 30 29  1  0  0  0  0
 31 30  1  0  0  0  0
 31 34  1  1  0  0  0
 32 31  1  0  0  0  0
 32 33  1  0  0  0  0
 33 28  1  0  0  0  0
 33 35  1  6  0  0  0
M  END
>  <CHROM.1>
100.56397563,-79.28626168,68.66492548,62.93157917,-73.47141303,177.20079585
-179.76488598,-168.89739627,71.90467305,-63.25050606,-176.01915306,-71.57453740
-56.61271090,-172.32657776,104.66939001,14.51878890,0.99578949,5.92320622
10.95008143,-3.10549858,-0.76195352,1.56329677

>  <Name>
lig.pdb

>  <RI>
0

>  <Rbt.Current_Directory>
/home/itssahil/PROJECTS/Mol_Feturizer/New_Systems/rnas/2m4q

>  <Rbt.Executable>
rbdock ($Id: //depot/dev/client3/rdock/2013.1/src/exe/rbdock.cxx#4 $)

>  <Rbt.Library>
libRbt.so (2013.1, Build901 2013/11/27)

>  <Rbt.Parameter_File>
/export/apps/rDock/src/rDock_2013.1_src/data/scripts/dock_solv.prm

>  <Rbt.Receptor>
prm/pocket_docking_6.prm

>  <SCORE>
-50.1448

>  <SCORE.INTER>
-34.9157

>  <SCORE.INTER.CONST>
1

>  <SCORE.INTER.POLAR>
-5.28811

>  <SCORE.INTER.ROT>
10

>  <SCORE.INTER.SOLV>
19.2402

>  <SCORE.INTER.VDW>
-22.3301

>  <SCORE.INTER.norm>
-0.943668

>  <SCORE.INTRA>
-15.2291

>  <SCORE.INTRA.DIHEDRAL>
-33.3068

>  <SCORE.INTRA.DIHEDRAL.0>
44.8331

>  <SCORE.INTRA.POLAR>
-0.127419

>  <SCORE.INTRA.POLAR.0>
-0.108895

>  <SCORE.INTRA.REPUL>
0.000163827

>  <SCORE.INTRA.REPUL.0>
0.00912235

>  <SCORE.INTRA.SOLV>
0.0460203

>  <SCORE.INTRA.SOLV.lig_0>
-53.9067

>  <SCORE.INTRA.VDW>
1.83372

>  <SCORE.INTRA.VDW.0>
-2.93492

>  <SCORE.INTRA.norm>
-0.411596

>  <SCORE.RESTR>
0

>  <SCORE.RESTR.CAVITY>
0

>  <SCORE.RESTR.norm>
0

>  <SCORE.SYSTEM>
0

>  <SCORE.SYSTEM.CONST>
0

>  <SCORE.SYSTEM.DIHEDRAL>
0

>  <SCORE.SYSTEM.SOLV>
0

>  <SCORE.SYSTEM.norm>
0

>  <SCORE.heavy>
37

>  <SCORE.norm>
-1.35526

>  <RMSD>
4.070

$$$$
lig.pdb
 OpenBabel11021811453D
libRbt.so/2013.1/901 2013/11/27
 37 40  0  0  0  0  0  0  0  0999 V2000
   -3.1053    9.1387   13.0383 C   0  0  2  0  0  0  0  0  0  0  0  0
   -2.6548    7.9291   13.9221 C   0  0  1  0  0  0  0  0  0  0  0  0
   -1.4117    7.1824   13.3556 C   0  0  0  0  0  0  0  0  0  0  0  0
   -1.5924    6.8605   11.8514 C   0  0  1  0  0  0  0  0  0  0  0  0
   -1.8945    8.1578   11.0683 C   0  0  1  0  0  0  0  0  0  0  0  0
   -2.0342    7.8714    9.5490 C   0  0  1  0  0  0  0  0  0  0  0  0
   -0.7858    7.1113    9.0100 C   0  0  1  0  0  0  0  0  0  0  0  0
   -0.4537    5.8535    9.8667 C   0  0  2  0  0  0  0  0  0  0  0  0
    0.1320    7.1939    6.7374 C   0  0  0  0  0  0  0  0  0  0  0  0
   -3.0770    8.8133   11.6106 O   0  0  0  0  0  0  0  0  0  0  0  0
   -0.4398    6.1661   11.2935 O   0  0  0  0  0  0  0  0  0  0  0  0
   -2.3707    8.3938   15.2972 N   0  0  0  0  0  0  0  0  0  0  0  0
   -1.0014    6.7717    7.5883 N   0  0  0  0  0  0  0  0  0  0  0  0
   -3.2324    7.1604    9.2655 O   0  0  0  0  0  0  0  0  0  0  0  0
    0.8109    5.2672    9.4407 O   0  0  0  0  0  0  0  0  0  0  0  0
   -2.2924   10.3214   13.3083 O   0  0  0  0  0  0  0  0  0  0  0  0
    2.0445    6.0036    9.7049 C   0  0  2  0  0  0  0  0  0  0  0  0
    3.2262    5.4278    8.8739 C   0  0  1  0  0  0  0  0  0  0  0  0
    3.6667    4.0288    9.3922 C   0  0  2  0  0  0  0  0  0  0  0  0
    3.9585    4.0623   10.9205 C   0  0  1  0  0  0  0  0  0  0  0  0
    2.7677    4.6759   11.7085 C   0  0  1  0  0  0  0  0  0  0  0  0
    3.0964    4.8419   13.2154 C   0  0  0  0  0  0  0  0  0  0  0  0
    2.3766    5.9556   11.1247 O   0  0  0  0  0  0  0  0  0  0  0  0
    4.3108    2.7200   11.4331 N   0  0  0  0  0  0  0  0  0  0  0  0
    2.8952    5.3973    7.4867 O   0  0  0  0  0  0  0  0  0  0  0  0
    4.7919    3.5409    8.6647 O   0  0  0  0  0  0  0  0  0  0  0  0
    1.9653    5.3281   13.9307 O   0  0  0  0  0  0  0  0  0  0  0  0
   -2.3276   11.4043   12.3335 C   0  0  1  0  0  0  0  0  0  0  0  0
   -1.5487   11.0454   11.0371 C   0  0  1  0  0  0  0  0  0  0  0  0
   -1.5165   12.2477   10.0519 C   0  0  2  0  0  0  0  0  0  0  0  0
   -2.9450   12.7996    9.7376 C   0  0  1  0  0  0  0  0  0  0  0  0
   -3.7975   13.0414   11.0192 C   0  0  0  0  0  0  0  0  0  0  0  0
   -3.7855   11.8209   11.9882 C   0  0  2  0  0  0  0  0  0  0  0  0
   -2.8650   14.0279    8.9185 N   0  0  0  0  0  0  0  0  0  0  0  0
   -4.5713   12.1492   13.1974 N   0  0  0  0  0  0  0  0  0  0  0  0
   -0.2290   10.6074   11.3437 O   0  0  0  0  0  0  0  0  0  0  0  0
   -0.8457   11.8863    8.8472 O   0  0  0  0  0  0  0  0  0  0  0  0
  1  2  1  0  0  0  0
  1 16  1  6  0  0  0
  2  3  1  0  0  0  0
  2 12  1  1  0  0  0
  4 11  1  6  0  0  0
  4  3  1  0  0  0  0
  5  4  1  0  0  0  0
  5 10  1  1  0  0  0
  6  7  1  0  0  0  0
  6  5  1  0  0  0  0
  6 14  1  1  0  0  0
  7  8  1  0  0  0  0
  7 13  1  6  0  0  0
  8 15  1  6  0  0  0
  8 11  1  0  0  0  0
  9 13  1  0  0  0  0
 10  1  1  0  0  0  0
 17 15  1  1  0  0  0
 17 18  1  0  0  0  0
 18 25  1  6  0  0  0
 19 18  1  0  0  0  0
 19 26  1  6  0  0  0
 20 19  1  0  0  0  0
 20 24  1  1  0  0  0
 21 23  1  0  0  0  0
 21 20  1  0  0  0  0
 21 22  1  1  0  0  0
 23 17  1  0  0  0  0
 27 22  1  0  0  0  0
 28 29  1  0  0  0  0
 28 16  1  1  0  0  0
 29 36  1  1  0  0  0
 30 37  1  6  0  0  0
 30 29  1  0  0  0  0
 31 30  1  0  0  0  0
 31 34  1  1  0  0  0
 32 31  1  0  0  0  0
 32 33  1  0  0  0  0
 33 28  1  0  0  0  0
 33 35  1  1  0  0  0
M  END
>  <CHROM.1>
-54.99174659,69.07504762,128.97814302,160.29670800,-165.23428704,163.44193889
-57.77394487,-59.78293403,-176.42875476,-40.48215901,-59.76606566,-73.29077688
-58.57880592,-176.04676078,-170.01764439,168.14085657,-0.36960135,7.90954375
10.82117380,3.00186772,0.86488147,-1.21242401

>  <Name>
lig.pdb

>  <RI>
0

>  <Rbt.Current_Directory>
/home/itssahil/PROJECTS/Mol_Feturizer/New_Systems/rnas/2m4q

>  <Rbt.Executable>
rbdock ($Id: //depot/dev/client3/rdock/2013.1/src/exe/rbdock.cxx#4 $)

>  <Rbt.Library>
libRbt.so (2013.1, Build901 2013/11/27)

>  <Rbt.Parameter_File>
/export/apps/rDock/src/rDock_2013.1_src/data/scripts/dock_solv.prm

>  <Rbt.Receptor>
prm/pocket_docking_6.prm

>  <SCORE>
-42.8088

>  <SCORE.INTER>
-24.4994

>  <SCORE.INTER.CONST>
1

>  <SCORE.INTER.POLAR>
-3.69428

>  <SCORE.INTER.ROT>
10

>  <SCORE.INTER.SOLV>
14.2722

>  <SCORE.INTER.VDW>
-19.0427

>  <SCORE.INTER.norm>
-0.662145

>  <SCORE.INTRA>
-18.3095

>  <SCORE.INTRA.DIHEDRAL>
-35.6516

>  <SCORE.INTRA.DIHEDRAL.0>
44.8331

>  <SCORE.INTRA.POLAR>
0.0660201

>  <SCORE.INTRA.POLAR.0>
-0.108895

>  <SCORE.INTRA.REPUL>
-0.00912235

>  <SCORE.INTRA.REPUL.0>
0.00912235

>  <SCORE.INTRA.SOLV>
-0.298635

>  <SCORE.INTRA.SOLV.lig_0>
-53.9067

>  <SCORE.INTRA.VDW>
-0.513215

>  <SCORE.INTRA.VDW.0>
-2.93492

>  <SCORE.INTRA.norm>
-0.494851

>  <SCORE.RESTR>
0

>  <SCORE.RESTR.CAVITY>
0

>  <SCORE.RESTR.norm>
0

>  <SCORE.SYSTEM>
0

>  <SCORE.SYSTEM.CONST>
0

>  <SCORE.SYSTEM.DIHEDRAL>
0

>  <SCORE.SYSTEM.SOLV>
0

>  <SCORE.SYSTEM.norm>
0

>  <SCORE.heavy>
37

>  <SCORE.norm>
-1.157

>  <RMSD>
4.137

$$$$
lig.pdb
 OpenBabel11021811453D
libRbt.so/2013.1/901 2013/11/27
 37 40  0  0  0  0  0  0  0  0999 V2000
   -2.2648    7.3839   12.0831 C   0  0  2  0  0  0  0  0  0  0  0  0
   -1.7915    5.9872   12.6049 C   0  0  1  0  0  0  0  0  0  0  0  0
   -0.4951    5.4775   11.9096 C   0  0  0  0  0  0  0  0  0  0  0  0
   -0.6052    5.5961   10.3692 C   0  0  1  0  0  0  0  0  0  0  0  0
   -0.9381    7.0528    9.9760 C   0  0  1  0  0  0  0  0  0  0  0  0
   -1.0084    7.2110    8.4334 C   0  0  1  0  0  0  0  0  0  0  0  0
    0.2929    6.6809    7.7608 C   0  0  1  0  0  0  0  0  0  0  0  0
    0.6512    5.2418    8.2372 C   0  0  2  0  0  0  0  0  0  0  0  0
    0.3380    8.1333    5.7854 C   0  0  0  0  0  0  0  0  0  0  0  0
   -2.1689    7.4841   10.6251 O   0  0  0  0  0  0  0  0  0  0  0  0
    0.5981    5.1309    9.6927 O   0  0  0  0  0  0  0  0  0  0  0  0
   -1.5800    6.0459   14.0676 N   0  0  0  0  0  0  0  0  0  0  0  0
    0.1457    6.7575    6.2926 N   0  0  0  0  0  0  0  0  0  0  0  0
   -2.1611    6.5715    7.9006 O   0  0  0  0  0  0  0  0  0  0  0  0
    1.9565    4.8460    7.7233 O   0  0  0  0  0  0  0  0  0  0  0  0
   -1.5181    8.4658   12.7191 O   0  0  0  0  0  0  0  0  0  0  0  0
    3.1242    5.6371    8.1034 C   0  0  2  0  0  0  0  0  0  0  0  0
    4.4420    4.9001    7.7308 C   0  0  1  0  0  0  0  0  0  0  0  0
    4.6857    3.6614    8.6397 C   0  0  2  0  0  0  0  0  0  0  0  0
    4.6099    4.0460   10.1457 C   0  0  1  0  0  0  0  0  0  0  0  0
    3.2951    4.8099   10.4670 C   0  0  1  0  0  0  0  0  0  0  0  0
    3.2660    5.3191   11.9320 C   0  0  0  0  0  0  0  0  0  0  0  0
    3.1096    5.9181    9.5349 O   0  0  0  0  0  0  0  0  0  0  0  0
    4.7718    2.8602   11.0154 N   0  0  0  0  0  0  0  0  0  0  0  0
    4.4466    4.5501    6.3480 O   0  0  0  0  0  0  0  0  0  0  0  0
    5.9281    3.0330    8.3316 O   0  0  0  0  0  0  0  0  0  0  0  0
    3.3189    4.2306   12.8484 O   0  0  0  0  0  0  0  0  0  0  0  0
   -1.8861    9.8342   12.3784 C   0  0  1  0  0  0  0  0  0  0  0  0
   -3.1526   10.3044   13.1472 C   0  0  1  0  0  0  0  0  0  0  0  0
   -3.5838   11.7291   12.6982 C   0  0  2  0  0  0  0  0  0  0  0  0
   -2.4195   12.7665   12.8069 C   0  0  1  0  0  0  0  0  0  0  0  0
   -1.0949   12.2620   12.1598 C   0  0  0  0  0  0  0  0  0  0  0  0
   -0.7108   10.8235   12.6202 C   0  0  2  0  0  0  0  0  0  0  0  0
   -2.8220   14.0695   12.2356 N   0  0  0  0  0  0  0  0  0  0  0  0
    0.5238   10.4010   11.9242 N   0  0  0  0  0  0  0  0  0  0  0  0
   -4.2200    9.3768   12.9805 O   0  0  0  0  0  0  0  0  0  0  0  0
   -4.7133   12.1671   13.4492 O   0  0  0  0  0  0  0  0  0  0  0  0
  1  2  1  0  0  0  0
  1 16  1  1  0  0  0
  2  3  1  0  0  0  0
  2 12  1  1  0  0  0
  4 11  1  6  0  0  0
  4  3  1  0  0  0  0
  5  4  1  0  0  0  0
  5 10  1  1  0  0  0
  6  7  1  0  0  0  0
  6  5  1  0  0  0  0
  6 14  1  6  0  0  0
  7  8  1  0  0  0  0
  7 13  1  6  0  0  0
  8 15  1  1  0  0  0
  8 11  1  0  0  0  0
  9 13  1  0  0  0  0
 10  1  1  0  0  0  0
 17 15  1  1  0  0  0
 17 18  1  0  0  0  0
 18 25  1  6  0  0  0
 19 18  1  0  0  0  0
 19 26  1  1  0  0  0
 20 19  1  0  0  0  0
 20 24  1  1  0  0  0
 21 23  1  0  0  0  0
 21 20  1  0  0  0  0
 21 22  1  1  0  0  0
 23 17  1  0  0  0  0
 27 22  1  0  0  0  0
 28 29  1  0  0  0  0
 28 16  1  1  0  0  0
 29 36  1  6  0  0  0
 30 37  1  1  0  0  0
 30 29  1  0  0  0  0
 31 30  1  0  0  0  0
 31 34  1  6  0  0  0
 32 31  1  0  0  0  0
 32 33  1  0  0  0  0
 33 28  1  0  0  0  0
 33 35  1  6  0  0  0
M  END
>  <CHROM.1>
145.67037012,60.67192733,77.91227192,85.61281217,167.49235022,-177.37119909
-177.99068872,-177.57408725,-62.02806599,-166.25446031,-72.85026498,79.40298593
69.12687056,70.25862903,-61.78773439,-172.32070832,0.29023494,7.18851814
10.47730679,-2.83417008,0.82000252,-1.45323503

>  <Name>
lig.pdb

>  <RI>
3.60165e+07

>  <Rbt.Current_Directory>
/home/itssahil/PROJECTS/Mol_Feturizer/New_Systems/rnas/2m4q

>  <Rbt.Executable>
rbdock ($Id: //depot/dev/client3/rdock/2013.1/src/exe/rbdock.cxx#4 $)

>  <Rbt.Library>
libRbt.so (2013.1, Build901 2013/11/27)

>  <Rbt.Parameter_File>
/export/apps/rDock/src/rDock_2013.1_src/data/scripts/dock_solv.prm

>  <Rbt.Receptor>
prm/pocket_docking_8.prm

>  <SCORE>
-48.2841

>  <SCORE.INTER>
-28.576

>  <SCORE.INTER.CONST>
1

>  <SCORE.INTER.POLAR>
-3.52538

>  <SCORE.INTER.ROT>
10

>  <SCORE.INTER.SOLV>
20.5892

>  <SCORE.INTER.VDW>
-24.4292

>  <SCORE.INTER.norm>
-0.772325

>  <SCORE.INTRA>
-19.708

>  <SCORE.INTRA.DIHEDRAL>
-34.9467

>  <SCORE.INTRA.DIHEDRAL.0>
44.8331

>  <SCORE.INTRA.POLAR>
-0.518802

>  <SCORE.INTRA.POLAR.0>
-0.108895

>  <SCORE.INTRA.REPUL>
-0.00912235

>  <SCORE.INTRA.REPUL.0>
0.00912235

>  <SCORE.INTRA.SOLV>
-1.06308

>  <SCORE.INTRA.SOLV.lig_0>
-53.9067

>  <SCORE.INTRA.VDW>
0.106409

>  <SCORE.INTRA.VDW.0>
-2.93492

>  <SCORE.INTRA.norm>
-0.53265

>  <SCORE.RESTR>
0

>  <SCORE.RESTR.CAVITY>
0

>  <SCORE.RESTR.norm>
0

>  <SCORE.SYSTEM>
0

>  <SCORE.SYSTEM.CONST>
0

>  <SCORE.SYSTEM.DIHEDRAL>
0

>  <SCORE.SYSTEM.SOLV>
0

>  <SCORE.SYSTEM.norm>
0

>  <SCORE.heavy>
37

>  <SCORE.norm>
-1.30498

>  <RMSD>
4.167

$$$$
lig.pdb
 OpenBabel11021811453D
libRbt.so/2013.1/901 2013/11/27
 37 40  0  0  0  0  0  0  0  0999 V2000
   -3.5024   10.1285   10.7424 C   0  0  2  0  0  0  0  0  0  0  0  0
   -3.7453    9.3518   12.0784 C   0  0  1  0  0  0  0  0  0  0  0  0
   -2.5663    8.4123   12.4672 C   0  0  0  0  0  0  0  0  0  0  0  0
   -2.1372    7.5308   11.2682 C   0  0  1  0  0  0  0  0  0  0  0  0
   -1.7897    8.4240   10.0562 C   0  0  1  0  0  0  0  0  0  0  0  0
   -1.3107    7.5682    8.8529 C   0  0  1  0  0  0  0  0  0  0  0  0
   -0.1417    6.6272    9.2710 C   0  0  1  0  0  0  0  0  0  0  0  0
   -0.4867    5.7984   10.5439 C   0  0  2  0  0  0  0  0  0  0  0  0
    1.5801    5.2038    8.2595 C   0  0  0  0  0  0  0  0  0  0  0  0
   -2.9242    9.2685    9.7074 O   0  0  0  0  0  0  0  0  0  0  0  0
   -1.0302    6.6451   11.6030 O   0  0  0  0  0  0  0  0  0  0  0  0
   -3.9979   10.3115   13.1751 N   0  0  0  0  0  0  0  0  0  0  0  0
    0.2171    5.7625    8.1279 N   0  0  0  0  0  0  0  0  0  0  0  0
   -2.3852    6.8327    8.2820 O   0  0  0  0  0  0  0  0  0  0  0  0
    0.6835    5.0611   11.0037 O   0  0  0  0  0  0  0  0  0  0  0  0
   -2.6607   11.3019   10.9596 O   0  0  0  0  0  0  0  0  0  0  0  0
    1.8254    5.8149   11.5154 C   0  0  2  0  0  0  0  0  0  0  0  0
    2.9259    4.8594   12.0581 C   0  0  1  0  0  0  0  0  0  0  0  0
    2.4857    4.1654   13.3789 C   0  0  2  0  0  0  0  0  0  0  0  0
    2.0146    5.2097   14.4322 C   0  0  1  0  0  0  0  0  0  0  0  0
    0.9418    6.1648   13.8385 C   0  0  1  0  0  0  0  0  0  0  0  0
    0.5618    7.2949   14.8309 C   0  0  0  0  0  0  0  0  0  0  0  0
    1.4052    6.7272   12.5735 O   0  0  0  0  0  0  0  0  0  0  0  0
    1.5294    4.5525   15.6655 N   0  0  0  0  0  0  0  0  0  0  0  0
    3.3010    3.9100   11.0618 O   0  0  0  0  0  0  0  0  0  0  0  0
    3.5274    3.3432   13.9005 O   0  0  0  0  0  0  0  0  0  0  0  0
   -0.0291    6.7574   16.0096 O   0  0  0  0  0  0  0  0  0  0  0  0
   -2.3578   12.1408    9.8070 C   0  0  1  0  0  0  0  0  0  0  0  0
   -1.2003   11.5559    8.9501 C   0  0  1  0  0  0  0  0  0  0  0  0
   -0.8287   12.5129    7.7825 C   0  0  2  0  0  0  0  0  0  0  0  0
   -2.0661   12.8928    6.9059 C   0  0  1  0  0  0  0  0  0  0  0  0
   -3.2899   13.3558    7.7519 C   0  0  0  0  0  0  0  0  0  0  0  0
   -3.6146   12.3802    8.9230 C   0  0  2  0  0  0  0  0  0  0  0  0
   -1.7037   13.9145    5.9005 N   0  0  0  0  0  0  0  0  0  0  0  0
   -4.7503   12.9159    9.7045 N   0  0  0  0  0  0  0  0  0  0  0  0
   -0.0615   11.2785    9.7586 O   0  0  0  0  0  0  0  0  0  0  0  0
    0.1965   11.9390    6.9754 O   0  0  0  0  0  0  0  0  0  0  0  0
  1  2  1  0  0  0  0
  1 16  1  1  0  0  0
  2  3  1  0  0  0  0
  2 12  1  1  0  0  0
  4 11  1  1  0  0  0
  4  3  1  0  0  0  0
  5  4  1  0  0  0  0
  5 10  1  6  0  0  0
  6  7  1  0  0  0  0
  6  5  1  0  0  0  0
  6 14  1  1  0  0  0
  7  8  1  0  0  0  0
  7 13  1  6  0  0  0
  8 15  1  1  0  0  0
  8 11  1  0  0  0  0
  9 13  1  0  0  0  0
 10  1  1  0  0  0  0
 17 15  1  1  0  0  0
 17 18  1  0  0  0  0
 18 25  1  6  0  0  0
 19 18  1  0  0  0  0
 19 26  1  1  0  0  0
 20 19  1  0  0  0  0
 20 24  1  1  0  0  0
 21 23  1  0  0  0  0
 21 20  1  0  0  0  0
 21 22  1  1  0  0  0
 23 17  1  0  0  0  0
 27 22  1  0  0  0  0
 28 29  1  0  0  0  0
 28 16  1  1  0  0  0
 29 36  1  1  0  0  0
 30 37  1  6  0  0  0
 30 29  1  0  0  0  0
 31 30  1  0  0  0  0
 31 34  1  6  0  0  0
 32 31  1  0  0  0  0
 32 33  1  0  0  0  0
 33 28  1  0  0  0  0
 33 35  1  1  0  0  0
M  END
>  <CHROM.1>
-56.62180231,66.53547471,159.57145438,-167.15254664,175.57480011,-179.23529933
178.04022286,-178.16867985,-62.94994995,-171.53726803,-69.05366115,-80.95898504
59.14755945,-58.61469500,-177.93241706,176.28290733,-0.65944987,8.29323800
10.77852444,2.32162532,0.85239524,-1.17954363

>  <Name>
lig.pdb

>  <RI>
2.86754e+07

>  <Rbt.Current_Directory>
/home/itssahil/PROJECTS/Mol_Feturizer/New_Systems/rnas/2m4q

>  <Rbt.Executable>
rbdock ($Id: //depot/dev/client3/rdock/2013.1/src/exe/rbdock.cxx#4 $)

>  <Rbt.Library>
libRbt.so (2013.1, Build901 2013/11/27)

>  <Rbt.Parameter_File>
/export/apps/rDock/src/rDock_2013.1_src/data/scripts/dock_solv.prm

>  <Rbt.Receptor>
prm/pocket_docking_5.prm

>  <SCORE>
-38.2146

>  <SCORE.INTER>
-16.1929

>  <SCORE.INTER.CONST>
1

>  <SCORE.INTER.POLAR>
-2.66823

>  <SCORE.INTER.ROT>
10

>  <SCORE.INTER.SOLV>
11.5942

>  <SCORE.INTER.VDW>
-16.0326

>  <SCORE.INTER.norm>
-0.437647

>  <SCORE.INTRA>
-22.0217

>  <SCORE.INTRA.DIHEDRAL>
-39.9447

>  <SCORE.INTRA.DIHEDRAL.0>
44.8331

>  <SCORE.INTRA.POLAR>
-0.664239

>  <SCORE.INTRA.POLAR.0>
-0.108895

>  <SCORE.INTRA.REPUL>
-0.00912235

>  <SCORE.INTRA.REPUL.0>
0.00912235

>  <SCORE.INTRA.SOLV>
-0.27509

>  <SCORE.INTRA.SOLV.lig_0>
-53.9067

>  <SCORE.INTRA.VDW>
0.39225

>  <SCORE.INTRA.VDW.0>
-2.93492

>  <SCORE.INTRA.norm>
-0.59518

>  <SCORE.RESTR>
0

>  <SCORE.RESTR.CAVITY>
0

>  <SCORE.RESTR.norm>
0

>  <SCORE.SYSTEM>
0

>  <SCORE.SYSTEM.CONST>
0

>  <SCORE.SYSTEM.DIHEDRAL>
0

>  <SCORE.SYSTEM.SOLV>
0

>  <SCORE.SYSTEM.norm>
0

>  <SCORE.heavy>
37

>  <SCORE.norm>
-1.03283

>  <RMSD>
4.208

$$$$
lig.pdb
 OpenBabel11021811453D
libRbt.so/2013.1/901 2013/11/27
 37 40  0  0  0  0  0  0  0  0999 V2000
    0.3392    7.1959    9.3893 C   0  0  2  0  0  0  0  0  0  0  0  0
    1.1798    6.3498    8.3770 C   0  0  1  0  0  0  0  0  0  0  0  0
    1.6170    4.9676    8.9444 C   0  0  0  0  0  0  0  0  0  0  0  0
    2.2465    5.1165   10.3517 C   0  0  1  0  0  0  0  0  0  0  0  0
    1.2616    5.8435   11.2945 C   0  0  1  0  0  0  0  0  0  0  0  0
    1.8485    5.9652   12.7264 C   0  0  1  0  0  0  0  0  0  0  0  0
    2.2916    4.5724   13.2653 C   0  0  1  0  0  0  0  0  0  0  0  0
    3.2172    3.8253   12.2596 C   0  0  2  0  0  0  0  0  0  0  0  0
    1.9636    4.6219   15.6950 C   0  0  0  0  0  0  0  0  0  0  0  0
    0.8965    7.1413   10.7426 O   0  0  0  0  0  0  0  0  0  0  0  0
    2.6598    3.8359   10.9095 O   0  0  0  0  0  0  0  0  0  0  0  0
    0.4094    6.1533    7.1298 N   0  0  0  0  0  0  0  0  0  0  0  0
    2.9331    4.7448   14.5851 N   0  0  0  0  0  0  0  0  0  0  0  0
    2.9203    6.8984   12.7676 O   0  0  0  0  0  0  0  0  0  0  0  0
    3.4721    2.4649   12.7166 O   0  0  0  0  0  0  0  0  0  0  0  0
   -1.0591    6.7748    9.3959 O   0  0  0  0  0  0  0  0  0  0  0  0
    4.5590    1.7130   12.0946 C   0  0  2  0  0  0  0  0  0  0  0  0
    4.6096    0.2558   12.6356 C   0  0  1  0  0  0  0  0  0  0  0  0
    5.0981    0.2063   14.1117 C   0  0  2  0  0  0  0  0  0  0  0  0
    6.4461    0.9648   14.2830 C   0  0  1  0  0  0  0  0  0  0  0  0
    6.3622    2.4026   13.6987 C   0  0  1  0  0  0  0  0  0  0  0  0
    7.7352    3.1233   13.7385 C   0  0  0  0  0  0  0  0  0  0  0  0
    5.8399    2.3684   12.3359 O   0  0  0  0  0  0  0  0  0  0  0  0
    6.8814    0.9810   15.6968 N   0  0  0  0  0  0  0  0  0  0  0  0
    3.3437   -0.3820   12.4762 O   0  0  0  0  0  0  0  0  0  0  0  0
    5.2025   -1.1384   14.5747 O   0  0  0  0  0  0  0  0  0  0  0  0
    8.7138    2.3909   13.0082 O   0  0  0  0  0  0  0  0  0  0  0  0
   -2.0762    7.8062    9.5557 C   0  0  1  0  0  0  0  0  0  0  0  0
   -2.1574    8.3211   11.0202 C   0  0  1  0  0  0  0  0  0  0  0  0
   -3.3116    9.3488   11.1896 C   0  0  2  0  0  0  0  0  0  0  0  0
   -3.2179   10.5252   10.1643 C   0  0  1  0  0  0  0  0  0  0  0  0
   -3.0005   10.0383    8.7003 C   0  0  0  0  0  0  0  0  0  0  0  0
   -1.8496    8.9947    8.5787 C   0  0  2  0  0  0  0  0  0  0  0  0
   -4.4068   11.3993   10.2578 N   0  0  0  0  0  0  0  0  0  0  0  0
   -1.7429    8.5465    7.1733 N   0  0  0  0  0  0  0  0  0  0  0  0
   -2.3078    7.2369   11.9309 O   0  0  0  0  0  0  0  0  0  0  0  0
   -3.3392    9.8511   12.5233 O   0  0  0  0  0  0  0  0  0  0  0  0
  1  2  1  0  0  0  0
  1 16  1  1  0  0  0
  2  3  1  0  0  0  0
  2 12  1  6  0  0  0
  4 11  1  1  0  0  0
  4  3  1  0  0  0  0
  5  4  1  0  0  0  0
  5 10  1  6  0  0  0
  6  7  1  0  0  0  0
  6  5  1  0  0  0  0
  6 14  1  6  0  0  0
  7  8  1  0  0  0  0
  7 13  1  1  0  0  0
  8 15  1  1  0  0  0
  8 11  1  0  0  0  0
  9 13  1  0  0  0  0
 10  1  1  0  0  0  0
 17 15  1  1  0  0  0
 17 18  1  0  0  0  0
 18 25  1  1  0  0  0
 19 18  1  0  0  0  0
 19 26  1  6  0  0  0
 20 19  1  0  0  0  0
 20 24  1  1  0  0  0
 21 23  1  0  0  0  0
 21 20  1  0  0  0  0
 21 22  1  6  0  0  0
 23 17  1  0  0  0  0
 27 22  1  0  0  0  0
 28 29  1  0  0  0  0
 28 16  1  1  0  0  0
 29 36  1  1  0  0  0
 30 37  1  1  0  0  0
 30 29  1  0  0  0  0
 31 30  1  0  0  0  0
 31 34  1  6  0  0  0
 32 31  1  0  0  0  0
 32 33  1  0  0  0  0
 33 28  1  0  0  0  0
 33 35  1  6  0  0  0
M  END
>  <CHROM.1>
-68.92685967,-165.53046447,91.57351545,61.85903772,-175.81339495,-143.16716174
-52.99037393,56.21541969,58.52598752,172.97572108,-60.51169084,-74.81070605
-65.00831868,58.75737599,41.24165798,65.38062781,1.78988883,5.14265339,11.65910536
-2.83839610,-0.76641520,1.52209206

>  <Name>
lig.pdb

>  <RI>
0

>  <Rbt.Current_Directory>
/home/itssahil/PROJECTS/Mol_Feturizer/New_Systems/rnas/2m4q

>  <Rbt.Executable>
rbdock ($Id: //depot/dev/client3/rdock/2013.1/src/exe/rbdock.cxx#4 $)

>  <Rbt.Library>
libRbt.so (2013.1, Build901 2013/11/27)

>  <Rbt.Parameter_File>
/export/apps/rDock/src/rDock_2013.1_src/data/scripts/dock_solv.prm

>  <Rbt.Receptor>
prm/pocket_docking_7.prm

>  <SCORE>
-51.5812

>  <SCORE.INTER>
-30.3031

>  <SCORE.INTER.CONST>
1

>  <SCORE.INTER.POLAR>
-4.94848

>  <SCORE.INTER.ROT>
10

>  <SCORE.INTER.SOLV>
15.0507

>  <SCORE.INTER.VDW>
-18.9907

>  <SCORE.INTER.norm>
-0.819003

>  <SCORE.INTRA>
-21.2781

>  <SCORE.INTRA.DIHEDRAL>
-34.7499

>  <SCORE.INTRA.DIHEDRAL.0>
44.8331

>  <SCORE.INTRA.POLAR>
-0.947215

>  <SCORE.INTRA.POLAR.0>
-0.108895

>  <SCORE.INTRA.REPUL>
-0.00912235

>  <SCORE.INTRA.REPUL.0>
0.00912235

>  <SCORE.INTRA.SOLV>
-0.888306

>  <SCORE.INTRA.SOLV.lig_0>
-53.9067

>  <SCORE.INTRA.VDW>
-0.192917

>  <SCORE.INTRA.VDW.0>
-2.93492

>  <SCORE.INTRA.norm>
-0.575085

>  <SCORE.RESTR>
0

>  <SCORE.RESTR.CAVITY>
0

>  <SCORE.RESTR.norm>
0

>  <SCORE.SYSTEM>
0

>  <SCORE.SYSTEM.CONST>
0

>  <SCORE.SYSTEM.DIHEDRAL>
0

>  <SCORE.SYSTEM.SOLV>
0

>  <SCORE.SYSTEM.norm>
0

>  <SCORE.heavy>
37

>  <SCORE.norm>
-1.39409

>  <RMSD>
4.209

$$$$
lig.pdb
 OpenBabel11021811453D
libRbt.so/2013.1/901 2013/11/27
 37 40  0  0  0  0  0  0  0  0999 V2000
    1.2563    7.0347    7.5223 C   0  0  2  0  0  0  0  0  0  0  0  0
    0.5464    5.7296    8.0122 C   0  0  1  0  0  0  0  0  0  0  0  0
    1.4038    4.9015    9.0135 C   0  0  0  0  0  0  0  0  0  0  0  0
    2.8443    4.7008    8.4808 C   0  0  1  0  0  0  0  0  0  0  0  0
    3.4848    6.0712    8.1664 C   0  0  1  0  0  0  0  0  0  0  0  0
    4.9473    5.9026    7.6742 C   0  0  1  0  0  0  0  0  0  0  0  0
    5.7798    5.0589    8.6851 C   0  0  1  0  0  0  0  0  0  0  0  0
    5.0724    3.7196    9.0488 C   0  0  2  0  0  0  0  0  0  0  0  0
    8.1261    4.5586    9.1934 C   0  0  0  0  0  0  0  0  0  0  0  0
    2.6682    6.8043    7.2084 O   0  0  0  0  0  0  0  0  0  0  0  0
    3.6712    3.9330    9.4021 O   0  0  0  0  0  0  0  0  0  0  0  0
   -0.7517    6.0704    8.6337 N   0  0  0  0  0  0  0  0  0  0  0  0
    7.1329    4.8384    8.1340 N   0  0  0  0  0  0  0  0  0  0  0  0
    4.9916    5.3360    6.3709 O   0  0  0  0  0  0  0  0  0  0  0  0
    5.7906    3.0391   10.1191 O   0  0  0  0  0  0  0  0  0  0  0  0
    1.1202    8.1092    8.5019 O   0  0  0  0  0  0  0  0  0  0  0  0
    5.7419    1.5801   10.1731 C   0  0  2  0  0  0  0  0  0  0  0  0
    5.4250    1.0860   11.6132 C   0  0  1  0  0  0  0  0  0  0  0  0
    6.6214    1.3217   12.5791 C   0  0  2  0  0  0  0  0  0  0  0  0
    7.9350    0.7163   12.0046 C   0  0  1  0  0  0  0  0  0  0  0  0
    8.1950    1.2084   10.5535 C   0  0  1  0  0  0  0  0  0  0  0  0
    9.4254    0.5093    9.9182 C   0  0  0  0  0  0  0  0  0  0  0  0
    7.0078    1.0078    9.7277 O   0  0  0  0  0  0  0  0  0  0  0  0
    9.0900    0.9972   12.8852 N   0  0  0  0  0  0  0  0  0  0  0  0
    4.2274    1.6903   12.0980 O   0  0  0  0  0  0  0  0  0  0  0  0
    6.3432    0.8057   13.8790 O   0  0  0  0  0  0  0  0  0  0  0  0
    9.0637   -0.7535    9.3687 O   0  0  0  0  0  0  0  0  0  0  0  0
    0.6499    9.4039    8.0261 C   0  0  1  0  0  0  0  0  0  0  0  0
    1.4210    9.8736    6.7607 C   0  0  1  0  0  0  0  0  0  0  0  0
    0.9717   11.2975    6.3272 C   0  0  2  0  0  0  0  0  0  0  0  0
   -0.5764   11.4021    6.1366 C   0  0  1  0  0  0  0  0  0  0  0  0
   -1.3768   10.8131    7.3367 C   0  0  0  0  0  0  0  0  0  0  0  0
   -0.8808    9.3952    7.7518 C   0  0  2  0  0  0  0  0  0  0  0  0
   -0.9794   12.7994    5.8696 N   0  0  0  0  0  0  0  0  0  0  0  0
   -1.6533    8.9314    8.9246 N   0  0  0  0  0  0  0  0  0  0  0  0
    2.8273    9.8319    6.9798 O   0  0  0  0  0  0  0  0  0  0  0  0
    1.6483   11.6920    5.1363 O   0  0  0  0  0  0  0  0  0  0  0  0
  1  2  1  0  0  0  0
  1 16  1  1  0  0  0
  2  3  1  0  0  0  0
  2 12  1  1  0  0  0
  4 11  1  1  0  0  0
  4  3  1  0  0  0  0
  5  4  1  0  0  0  0
  5 10  1  6  0  0  0
  6  7  1  0  0  0  0
  6  5  1  0  0  0  0
  6 14  1  6  0  0  0
  7  8  1  0  0  0  0
  7 13  1  6  0  0  0
  8 15  1  1  0  0  0
  8 11  1  0  0  0  0
  9 13  1  0  0  0  0
 10  1  1  0  0  0  0
 17 15  1  1  0  0  0
 17 18  1  0  0  0  0
 18 25  1  1  0  0  0
 19 18  1  0  0  0  0
 19 26  1  1  0  0  0
 20 19  1  0  0  0  0
 20 24  1  1  0  0  0
 21 23  1  0  0  0  0
 21 20  1  0  0  0  0
 21 22  1  6  0  0  0
 23 17  1  0  0  0  0
 27 22  1  0  0  0  0
 28 29  1  0  0  0  0
 28 16  1  6  0  0  0
 29 36  1  1  0  0  0
 30 37  1  6  0  0  0
 30 29  1  0  0  0  0
 31 30  1  0  0  0  0
 31 34  1  1  0  0  0
 32 31  1  0  0  0  0
 32 33  1  0  0  0  0
 33 28  1  0  0  0  0
 33 35  1  1  0  0  0
M  END
>  <CHROM.1>
-118.28366200,-150.37733030,156.52149388,42.51080073,-132.75209095,-129.85096274
60.40814392,-57.64109476,83.66778489,-47.95211162,55.56743527,-48.52503128
72.92490867,62.50485113,176.88720011,54.15842174,3.78484626,5.41961396,8.87899623
2.25239949,0.33407430,-0.69268574

>  <Name>
lig.pdb

>  <RI>
3.60165e+07

>  <Rbt.Current_Directory>
/home/itssahil/PROJECTS/Mol_Feturizer/New_Systems/rnas/2m4q

>  <Rbt.Executable>
rbdock ($Id: //depot/dev/client3/rdock/2013.1/src/exe/rbdock.cxx#4 $)

>  <Rbt.Library>
libRbt.so (2013.1, Build901 2013/11/27)

>  <Rbt.Parameter_File>
/export/apps/rDock/src/rDock_2013.1_src/data/scripts/dock_solv.prm

>  <Rbt.Receptor>
prm/pocket_docking_8.prm

>  <SCORE>
-38.7499

>  <SCORE.INTER>
-21.1554

>  <SCORE.INTER.CONST>
1

>  <SCORE.INTER.POLAR>
-3.55997

>  <SCORE.INTER.ROT>
10

>  <SCORE.INTER.SOLV>
14.4385

>  <SCORE.INTER.VDW>
-17.3165

>  <SCORE.INTER.norm>
-0.571768

>  <SCORE.INTRA>
-17.5945

>  <SCORE.INTRA.DIHEDRAL>
-19.7221

>  <SCORE.INTRA.DIHEDRAL.0>
44.8331

>  <SCORE.INTRA.POLAR>
-2.07974

>  <SCORE.INTRA.POLAR.0>
-0.108895

>  <SCORE.INTRA.REPUL>
-0.00912235

>  <SCORE.INTRA.REPUL.0>
0.00912235

>  <SCORE.INTRA.SOLV>
-0.653819

>  <SCORE.INTRA.SOLV.lig_0>
-53.9067

>  <SCORE.INTRA.VDW>
-0.289872

>  <SCORE.INTRA.VDW.0>
-2.93492

>  <SCORE.INTRA.norm>
-0.475528

>  <SCORE.RESTR>
0

>  <SCORE.RESTR.CAVITY>
0

>  <SCORE.RESTR.norm>
0

>  <SCORE.SYSTEM>
0

>  <SCORE.SYSTEM.CONST>
0

>  <SCORE.SYSTEM.DIHEDRAL>
0

>  <SCORE.SYSTEM.SOLV>
0

>  <SCORE.SYSTEM.norm>
0

>  <SCORE.heavy>
37

>  <SCORE.norm>
-1.0473

>  <RMSD>
4.385

$$$$
lig.pdb
 OpenBabel11021811453D
libRbt.so/2013.1/901 2013/11/27
 37 40  0  0  0  0  0  0  0  0999 V2000
    0.1843    7.0471    9.2151 C   0  0  2  0  0  0  0  0  0  0  0  0
    1.0235    6.1954    8.2064 C   0  0  1  0  0  0  0  0  0  0  0  0
    1.6287    4.9093    8.8415 C   0  0  0  0  0  0  0  0  0  0  0  0
    2.3433    5.2305   10.1776 C   0  0  1  0  0  0  0  0  0  0  0  0
    1.3668    5.9456   11.1381 C   0  0  1  0  0  0  0  0  0  0  0  0
    2.0435    6.2382   12.5041 C   0  0  1  0  0  0  0  0  0  0  0  0
    2.6535    4.9397   13.1113 C   0  0  1  0  0  0  0  0  0  0  0  0
    3.5684    4.1943   12.0946 C   0  0  2  0  0  0  0  0  0  0  0  0
    3.3531    4.1639   15.3299 C   0  0  0  0  0  0  0  0  0  0  0  0
    0.8423    7.1555   10.5191 O   0  0  0  0  0  0  0  0  0  0  0  0
    2.9145    4.0424   10.7973 O   0  0  0  0  0  0  0  0  0  0  0  0
    0.1851    5.8281    7.0446 N   0  0  0  0  0  0  0  0  0  0  0  0
    3.3714    5.2780   14.3575 N   0  0  0  0  0  0  0  0  0  0  0  0
    3.0235    7.2616   12.3863 O   0  0  0  0  0  0  0  0  0  0  0  0
    3.9823    2.9046   12.6332 O   0  0  0  0  0  0  0  0  0  0  0  0
   -1.1642    6.5077    9.3674 O   0  0  0  0  0  0  0  0  0  0  0  0
    4.4338    1.8733   11.7023 C   0  0  2  0  0  0  0  0  0  0  0  0
    5.3160    0.8167   12.4263 C   0  0  1  0  0  0  0  0  0  0  0  0
    6.7010    1.4004   12.8274 C   0  0  2  0  0  0  0  0  0  0  0  0
    7.4119    2.0505   11.6052 C   0  0  1  0  0  0  0  0  0  0  0  0
    6.4842    3.0728   10.8914 C   0  0  1  0  0  0  0  0  0  0  0  0
    7.1269    3.6281    9.5934 C   0  0  0  0  0  0  0  0  0  0  0  0
    5.1869    2.4682   10.6035 O   0  0  0  0  0  0  0  0  0  0  0  0
    8.6985    2.6686   11.9941 N   0  0  0  0  0  0  0  0  0  0  0  0
    4.6259    0.2732   13.5501 O   0  0  0  0  0  0  0  0  0  0  0  0
    7.5241    0.4047   13.4312 O   0  0  0  0  0  0  0  0  0  0  0  0
    6.5109    3.0634    8.4406 O   0  0  0  0  0  0  0  0  0  0  0  0
   -2.0287    7.1180   10.3694 C   0  0  1  0  0  0  0  0  0  0  0  0
   -1.5855    6.7599   11.8157 C   0  0  1  0  0  0  0  0  0  0  0  0
   -2.5755    7.3399   12.8648 C   0  0  2  0  0  0  0  0  0  0  0  0
   -2.7978    8.8773   12.6890 C   0  0  1  0  0  0  0  0  0  0  0  0
   -3.1118    9.2805   11.2170 C   0  0  0  0  0  0  0  0  0  0  0  0
   -2.1091    8.6615   10.1972 C   0  0  2  0  0  0  0  0  0  0  0  0
   -3.8516    9.3638   13.6048 N   0  0  0  0  0  0  0  0  0  0  0  0
   -2.5057    9.0481    8.8259 N   0  0  0  0  0  0  0  0  0  0  0  0
   -1.4526    5.3507   11.9706 O   0  0  0  0  0  0  0  0  0  0  0  0
   -2.1273    7.0491   14.1863 O   0  0  0  0  0  0  0  0  0  0  0  0
  1  2  1  0  0  0  0
  1 16  1  1  0  0  0
  2  3  1  0  0  0  0
  2 12  1  6  0  0  0
  4 11  1  1  0  0  0
  4  3  1  0  0  0  0
  5  4  1  0  0  0  0
  5 10  1  6  0  0  0
  6  7  1  0  0  0  0
  6  5  1  0  0  0  0
  6 14  1  6  0  0  0
  7  8  1  0  0  0  0
  7 13  1  1  0  0  0
  8 15  1  1  0  0  0
  8 11  1  0  0  0  0
  9 13  1  0  0  0  0
 10  1  1  0  0  0  0
 17 15  1  1  0  0  0
 17 18  1  0  0  0  0
 18 25  1  1  0  0  0
 19 18  1  0  0  0  0
 19 26  1  6  0  0  0
 20 19  1  0  0  0  0
 20 24  1  1  0  0  0
 21 23  1  0  0  0  0
 21 20  1  0  0  0  0
 21 22  1  6  0  0  0
 23 17  1  0  0  0  0
 27 22  1  0  0  0  0
 28 29  1  0  0  0  0
 28 16  1  6  0  0  0
 29 36  1  6  0  0  0
 30 37  1  1  0  0  0
 30 29  1  0  0  0  0
 31 30  1  0  0  0  0
 31 34  1  1  0  0  0
 32 31  1  0  0  0  0
 32 33  1  0  0  0  0
 33 28  1  0  0  0  0
 33 35  1  6  0  0  0
M  END
>  <CHROM.1>
165.10417816,158.97666966,149.73313047,-58.35577288,158.46398470,174.36330065
-54.43687523,48.46922555,105.82997421,58.80524163,-67.79744926,-71.90555963
54.79483789,175.66236784,-60.37695939,53.36391027,2.11376365,5.06269677,11.42867615
-2.97503674,-0.59149122,1.74153105

>  <Name>
lig.pdb

>  <RI>
3.87352e+07

>  <Rbt.Current_Directory>
/home/itssahil/PROJECTS/Mol_Feturizer/New_Systems/rnas/2m4q

>  <Rbt.Executable>
rbdock ($Id: //depot/dev/client3/rdock/2013.1/src/exe/rbdock.cxx#4 $)

>  <Rbt.Library>
libRbt.so (2013.1, Build901 2013/11/27)

>  <Rbt.Parameter_File>
/export/apps/rDock/src/rDock_2013.1_src/data/scripts/dock_solv.prm

>  <Rbt.Receptor>
prm/pocket_docking_4.prm

>  <SCORE>
-38.4408

>  <SCORE.INTER>
-22.3302

>  <SCORE.INTER.CONST>
1

>  <SCORE.INTER.POLAR>
-3.13803

>  <SCORE.INTER.ROT>
10

>  <SCORE.INTER.SOLV>
16.0554

>  <SCORE.INTER.VDW>
-20.0452

>  <SCORE.INTER.norm>
-0.603519

>  <SCORE.INTRA>
-16.1243

>  <SCORE.INTRA.DIHEDRAL>
-32.0281

>  <SCORE.INTRA.DIHEDRAL.0>
44.8331

>  <SCORE.INTRA.POLAR>
0.011669

>  <SCORE.INTRA.POLAR.0>
-0.108895

>  <SCORE.INTRA.REPUL>
-0.00912235

>  <SCORE.INTRA.REPUL.0>
0.00912235

>  <SCORE.INTRA.SOLV>
-1.43692

>  <SCORE.INTRA.SOLV.lig_0>
-53.9067

>  <SCORE.INTRA.VDW>
0.61414

>  <SCORE.INTRA.VDW.0>
-2.93492

>  <SCORE.INTRA.norm>
-0.435792

>  <SCORE.RESTR>
0.0137249

>  <SCORE.RESTR.CAVITY>
0.0137249

>  <SCORE.RESTR.norm>
0.000370944

>  <SCORE.SYSTEM>
0

>  <SCORE.SYSTEM.CONST>
0

>  <SCORE.SYSTEM.DIHEDRAL>
0

>  <SCORE.SYSTEM.SOLV>
0

>  <SCORE.SYSTEM.norm>
0

>  <SCORE.heavy>
37

>  <SCORE.norm>
-1.03894

>  <RMSD>
4.406

$$$$
lig.pdb
 OpenBabel11021811453D
libRbt.so/2013.1/901 2013/11/27
 37 40  0  0  0  0  0  0  0  0999 V2000
    1.0220    5.5246    8.3982 C   0  0  2  0  0  0  0  0  0  0  0  0
    0.8899    4.7243    9.7358 C   0  0  1  0  0  0  0  0  0  0  0  0
    2.1622    4.8047   10.6294 C   0  0  0  0  0  0  0  0  0  0  0  0
    3.4399    4.4990    9.8090 C   0  0  1  0  0  0  0  0  0  0  0  0
    3.5252    5.4498    8.5941 C   0  0  1  0  0  0  0  0  0  0  0  0
    4.8217    5.1968    7.7789 C   0  0  1  0  0  0  0  0  0  0  0  0
    6.0780    5.2679    8.6973 C   0  0  1  0  0  0  0  0  0  0  0  0
    5.9317    4.3635    9.9570 C   0  0  2  0  0  0  0  0  0  0  0  0
    7.8719    6.1116    7.2537 C   0  0  0  0  0  0  0  0  0  0  0  0
    2.3302    5.3272    7.7699 O   0  0  0  0  0  0  0  0  0  0  0  0
    4.6474    4.5733   10.6204 O   0  0  0  0  0  0  0  0  0  0  0  0
   -0.2820    5.2113   10.4955 N   0  0  0  0  0  0  0  0  0  0  0  0
    7.2774    4.9247    7.9056 N   0  0  0  0  0  0  0  0  0  0  0  0
    4.7613    3.9580    7.0837 O   0  0  0  0  0  0  0  0  0  0  0  0
    7.0434    4.5840   10.8736 O   0  0  0  0  0  0  0  0  0  0  0  0
    0.7656    6.9471    8.6067 O   0  0  0  0  0  0  0  0  0  0  0  0
    7.3558    3.5457   11.8525 C   0  0  2  0  0  0  0  0  0  0  0  0
    8.2917    2.4654   11.2396 C   0  0  1  0  0  0  0  0  0  0  0  0
    7.5498    1.5894   10.1898 C   0  0  2  0  0  0  0  0  0  0  0  0
    6.2394    0.9932   10.7809 C   0  0  1  0  0  0  0  0  0  0  0  0
    5.3510    2.1008   11.4129 C   0  0  1  0  0  0  0  0  0  0  0  0
    4.1077    1.5073   12.1259 C   0  0  0  0  0  0  0  0  0  0  0  0
    6.1336    2.9145   12.3385 O   0  0  0  0  0  0  0  0  0  0  0  0
    5.4937    0.2159    9.7669 N   0  0  0  0  0  0  0  0  0  0  0  0
    9.4623    3.0690   10.6919 O   0  0  0  0  0  0  0  0  0  0  0  0
    8.3994    0.5621    9.6836 O   0  0  0  0  0  0  0  0  0  0  0  0
    3.2665    2.5424   12.6240 O   0  0  0  0  0  0  0  0  0  0  0  0
    0.4428    7.7554    7.4378 C   0  0  1  0  0  0  0  0  0  0  0  0
   -0.9007    8.5179    7.6109 C   0  0  1  0  0  0  0  0  0  0  0  0
   -1.2739    9.2961    6.3177 C   0  0  2  0  0  0  0  0  0  0  0  0
   -0.1258   10.2430    5.8393 C   0  0  1  0  0  0  0  0  0  0  0  0
    1.2616    9.5358    5.7861 C   0  0  0  0  0  0  0  0  0  0  0  0
    1.5866    8.7510    7.0926 C   0  0  2  0  0  0  0  0  0  0  0  0
   -0.4571   10.8520    4.5333 N   0  0  0  0  0  0  0  0  0  0  0  0
    2.8904    8.0693    6.9417 N   0  0  0  0  0  0  0  0  0  0  0  0
   -1.9456    7.6251    7.9832 O   0  0  0  0  0  0  0  0  0  0  0  0
   -2.4794   10.0320    6.5100 O   0  0  0  0  0  0  0  0  0  0  0  0
  1  2  1  0  0  0  0
  1 16  1  1  0  0  0
  2  3  1  0  0  0  0
  2 12  1  1  0  0  0
  4 11  1  1  0  0  0
  4  3  1  0  0  0  0
  5  4  1  0  0  0  0
  5 10  1  6  0  0  0
  6  7  1  0  0  0  0
  6  5  1  0  0  0  0
  6 14  1  1  0  0  0
  7  8  1  0  0  0  0
  7 13  1  6  0  0  0
  8 15  1  1  0  0  0
  8 11  1  0  0  0  0
  9 13  1  0  0  0  0
 10  1  1  0  0  0  0
 17 15  1  6  0  0  0
 17 18  1  0  0  0  0
 18 25  1  6  0  0  0
 19 18  1  0  0  0  0
 19 26  1  1  0  0  0
 20 19  1  0  0  0  0
 20 24  1  6  0  0  0
 21 23  1  0  0  0  0
 21 20  1  0  0  0  0
 21 22  1  1  0  0  0
 23 17  1  0  0  0  0
 27 22  1  0  0  0  0
 28 29  1  0  0  0  0
 28 16  1  1  0  0  0
 29 36  1  6  0  0  0
 30 37  1  1  0  0  0
 30 29  1  0  0  0  0
 31 30  1  0  0  0  0
 31 34  1  6  0  0  0
 32 31  1  0  0  0  0
 32 33  1  0  0  0  0
 33 28  1  0  0  0  0
 33 35  1  6  0  0  0
M  END
>  <CHROM.1>
-47.83643534,-158.83327417,88.52934093,-175.61403358,85.46542325,-161.48983932
178.19371457,-167.30157625,-176.35680141,-129.91836917,22.84272510,125.05058085
-166.56757696,-66.95953234,61.05042288,28.48913708,3.59279793,5.21649104
8.99820275,2.37004849,0.21297232,-0.75604795

>  <Name>
lig.pdb

>  <RI>
0

>  <Rbt.Current_Directory>
/home/itssahil/PROJECTS/Mol_Feturizer/New_Systems/rnas/2m4q

>  <Rbt.Executable>
rbdock ($Id: //depot/dev/client3/rdock/2013.1/src/exe/rbdock.cxx#4 $)

>  <Rbt.Library>
libRbt.so (2013.1, Build901 2013/11/27)

>  <Rbt.Parameter_File>
/export/apps/rDock/src/rDock_2013.1_src/data/scripts/dock_solv.prm

>  <Rbt.Receptor>
prm/pocket_docking_7.prm

>  <SCORE>
-47.8923

>  <SCORE.INTER>
-36.6326

>  <SCORE.INTER.CONST>
1

>  <SCORE.INTER.POLAR>
-6.30635

>  <SCORE.INTER.ROT>
10

>  <SCORE.INTER.SOLV>
19.2449

>  <SCORE.INTER.VDW>
-20.0822

>  <SCORE.INTER.norm>
-0.990069

>  <SCORE.INTRA>
-11.2597

>  <SCORE.INTRA.DIHEDRAL>
-19.2408

>  <SCORE.INTRA.DIHEDRAL.0>
44.8331

>  <SCORE.INTRA.POLAR>
-1.20319

>  <SCORE.INTRA.POLAR.0>
-0.108895

>  <SCORE.INTRA.REPUL>
-0.00912235

>  <SCORE.INTRA.REPUL.0>
0.00912235

>  <SCORE.INTRA.SOLV>
0.684806

>  <SCORE.INTRA.SOLV.lig_0>
-53.9067

>  <SCORE.INTRA.VDW>
2.15475

>  <SCORE.INTRA.VDW.0>
-2.93492

>  <SCORE.INTRA.norm>
-0.304317

>  <SCORE.RESTR>
0

>  <SCORE.RESTR.CAVITY>
0

>  <SCORE.RESTR.norm>
0

>  <SCORE.SYSTEM>
0

>  <SCORE.SYSTEM.CONST>
0

>  <SCORE.SYSTEM.DIHEDRAL>
0

>  <SCORE.SYSTEM.SOLV>
0

>  <SCORE.SYSTEM.norm>
0

>  <SCORE.heavy>
37

>  <SCORE.norm>
-1.29439

>  <RMSD>
4.419

$$$$
lig.pdb
 OpenBabel11021811453D
libRbt.so/2013.1/901 2013/11/27
 37 40  0  0  0  0  0  0  0  0999 V2000
    0.1947    7.3380    9.3130 C   0  0  2  0  0  0  0  0  0  0  0  0
    0.9940    6.4540    8.2997 C   0  0  1  0  0  0  0  0  0  0  0  0
    1.4013    5.0680    8.8800 C   0  0  0  0  0  0  0  0  0  0  0  0
    2.0580    5.2187   10.2746 C   0  0  1  0  0  0  0  0  0  0  0  0
    1.1099    5.9868   11.2225 C   0  0  1  0  0  0  0  0  0  0  0  0
    1.7236    6.1119   12.6428 C   0  0  1  0  0  0  0  0  0  0  0  0
    2.1360    4.7147   13.1947 C   0  0  1  0  0  0  0  0  0  0  0  0
    3.0233    3.9274   12.1852 C   0  0  2  0  0  0  0  0  0  0  0  0
    2.5570    3.7451   15.4075 C   0  0  0  0  0  0  0  0  0  0  0  0
    0.7726    7.2866   10.6578 O   0  0  0  0  0  0  0  0  0  0  0  0
    2.4441    3.9348   10.8442 O   0  0  0  0  0  0  0  0  0  0  0  0
    0.1978    6.2621    7.0681 N   0  0  0  0  0  0  0  0  0  0  0  0
    2.8039    4.8874   14.5013 N   0  0  0  0  0  0  0  0  0  0  0  0
    2.8221    7.0146   12.6531 O   0  0  0  0  0  0  0  0  0  0  0  0
    3.2470    2.5669   12.6578 O   0  0  0  0  0  0  0  0  0  0  0  0
   -1.2147    6.9572    9.3484 O   0  0  0  0  0  0  0  0  0  0  0  0
    4.3180    1.7840   12.0462 C   0  0  2  0  0  0  0  0  0  0  0  0
    4.3023    0.3178   12.5644 C   0  0  1  0  0  0  0  0  0  0  0  0
    4.7570    0.2269   14.0493 C   0  0  2  0  0  0  0  0  0  0  0  0
    6.1286    0.9312   14.2609 C   0  0  1  0  0  0  0  0  0  0  0  0
    6.1112    2.3799   13.6985 C   0  0  1  0  0  0  0  0  0  0  0  0
    7.5091    3.0475   13.7784 C   0  0  0  0  0  0  0  0  0  0  0  0
    5.6172    2.3867   12.3247 O   0  0  0  0  0  0  0  0  0  0  0  0
    6.5340    0.9090   15.6834 N   0  0  0  0  0  0  0  0  0  0  0  0
    3.0171   -0.2691   12.3684 O   0  0  0  0  0  0  0  0  0  0  0  0
    4.8010   -1.1277   14.4924 O   0  0  0  0  0  0  0  0  0  0  0  0
    8.4648    2.3159   13.0176 O   0  0  0  0  0  0  0  0  0  0  0  0
   -2.1272    7.8075   10.1021 C   0  0  1  0  0  0  0  0  0  0  0  0
   -1.9360    7.6493   11.6366 C   0  0  1  0  0  0  0  0  0  0  0  0
   -2.9823    8.4902   12.4212 C   0  0  2  0  0  0  0  0  0  0  0  0
   -2.9863    9.9922   11.9878 C   0  0  1  0  0  0  0  0  0  0  0  0
   -3.0415   10.1775   10.4418 C   0  0  0  0  0  0  0  0  0  0  0  0
   -1.9917    9.3018    9.6935 C   0  0  2  0  0  0  0  0  0  0  0  0
   -4.0884   10.7258   12.6461 N   0  0  0  0  0  0  0  0  0  0  0  0
   -2.1440    9.4956    8.2353 N   0  0  0  0  0  0  0  0  0  0  0  0
   -2.0010    6.2786   12.0167 O   0  0  0  0  0  0  0  0  0  0  0  0
   -2.7605    8.3770   13.8247 O   0  0  0  0  0  0  0  0  0  0  0  0
  1  2  1  0  0  0  0
  1 16  1  1  0  0  0
  2  3  1  0  0  0  0
  2 12  1  6  0  0  0
  4 11  1  1  0  0  0
  4  3  1  0  0  0  0
  5  4  1  0  0  0  0
  5 10  1  6  0  0  0
  6  7  1  0  0  0  0
  6  5  1  0  0  0  0
  6 14  1  6  0  0  0
  7  8  1  0  0  0  0
  7 13  1  1  0  0  0
  8 15  1  1  0  0  0
  8 11  1  0  0  0  0
  9 13  1  0  0  0  0
 10  1  1  0  0  0  0
 17 15  1  1  0  0  0
 17 18  1  0  0  0  0
 18 25  1  1  0  0  0
 19 18  1  0  0  0  0
 19 26  1  6  0  0  0
 20 19  1  0  0  0  0
 20 24  1  1  0  0  0
 21 23  1  0  0  0  0
 21 20  1  0  0  0  0
 21 22  1  6  0  0  0
 23 17  1  0  0  0  0
 27 22  1  0  0  0  0
 28 29  1  0  0  0  0
 28 16  1  6  0  0  0
 29 36  1  6  0  0  0
 30 37  1  1  0  0  0
 30 29  1  0  0  0  0
 31 30  1  0  0  0  0
 31 34  1  1  0  0  0
 32 31  1  0  0  0  0
 32 33  1  0  0  0  0
 33 28  1  0  0  0  0
 33 35  1  6  0  0  0
M  END
>  <CHROM.1>
-70.69284899,-164.41372285,147.99725696,59.23184744,-173.71597631,-171.58006221
173.02410322,-60.29913657,60.59361999,57.29250010,-178.96084360,-72.84938179
-68.40022240,-176.96100486,-172.39910045,55.57372497,1.68976067,5.06353613
11.93010758,-2.81027717,-0.74627953,1.65293017

>  <Name>
lig.pdb

>  <RI>
0

>  <Rbt.Current_Directory>
/home/itssahil/PROJECTS/Mol_Feturizer/New_Systems/rnas/2m4q

>  <Rbt.Executable>
rbdock ($Id: //depot/dev/client3/rdock/2013.1/src/exe/rbdock.cxx#4 $)

>  <Rbt.Library>
libRbt.so (2013.1, Build901 2013/11/27)

>  <Rbt.Parameter_File>
/export/apps/rDock/src/rDock_2013.1_src/data/scripts/dock_solv.prm

>  <Rbt.Receptor>
prm/pocket_docking_6.prm

>  <SCORE>
-50.001

>  <SCORE.INTER>
-29.0707

>  <SCORE.INTER.CONST>
1

>  <SCORE.INTER.POLAR>
-4.83053

>  <SCORE.INTER.ROT>
10

>  <SCORE.INTER.SOLV>
14.9976

>  <SCORE.INTER.VDW>
-18.5446

>  <SCORE.INTER.norm>
-0.785694

>  <SCORE.INTRA>
-20.9303

>  <SCORE.INTRA.DIHEDRAL>
-39.5429

>  <SCORE.INTRA.DIHEDRAL.0>
44.8331

>  <SCORE.INTRA.POLAR>
0.0974562

>  <SCORE.INTRA.POLAR.0>
-0.108895

>  <SCORE.INTRA.REPUL>
-0.00912235

>  <SCORE.INTRA.REPUL.0>
0.00912235

>  <SCORE.INTRA.SOLV>
-1.0581

>  <SCORE.INTRA.SOLV.lig_0>
-53.9067

>  <SCORE.INTRA.VDW>
-0.915494

>  <SCORE.INTRA.VDW.0>
-2.93492

>  <SCORE.INTRA.norm>
-0.565683

>  <SCORE.RESTR>
0

>  <SCORE.RESTR.CAVITY>
0

>  <SCORE.RESTR.norm>
0

>  <SCORE.SYSTEM>
0

>  <SCORE.SYSTEM.CONST>
0

>  <SCORE.SYSTEM.DIHEDRAL>
0

>  <SCORE.SYSTEM.SOLV>
0

>  <SCORE.SYSTEM.norm>
0

>  <SCORE.heavy>
37

>  <SCORE.norm>
-1.35138

>  <RMSD>
4.506

$$$$
lig.pdb
 OpenBabel11021811453D
libRbt.so/2013.1/901 2013/11/27
 37 40  0  0  0  0  0  0  0  0999 V2000
   -3.8614   11.2455    9.7835 C   0  0  2  0  0  0  0  0  0  0  0  0
   -3.7520   11.5204   11.3195 C   0  0  1  0  0  0  0  0  0  0  0  0
   -2.5299   10.8218   11.9843 C   0  0  0  0  0  0  0  0  0  0  0  0
   -2.4543    9.3282   11.5813 C   0  0  1  0  0  0  0  0  0  0  0  0
   -2.4276    9.1993   10.0418 C   0  0  1  0  0  0  0  0  0  0  0  0
   -2.3047    7.7135    9.6095 C   0  0  1  0  0  0  0  0  0  0  0  0
   -1.0844    7.0335   10.2989 C   0  0  1  0  0  0  0  0  0  0  0  0
   -1.0912    7.2488   11.8415 C   0  0  2  0  0  0  0  0  0  0  0  0
    0.1519    5.2379    9.1759 C   0  0  0  0  0  0  0  0  0  0  0  0
   -3.5980    9.8417    9.4592 O   0  0  0  0  0  0  0  0  0  0  0  0
   -1.3150    8.6508   12.1854 O   0  0  0  0  0  0  0  0  0  0  0  0
   -3.6834   12.9778   11.5624 N   0  0  0  0  0  0  0  0  0  0  0  0
   -1.0612    5.6004    9.9400 N   0  0  0  0  0  0  0  0  0  0  0  0
   -3.5065    6.9992    9.8682 O   0  0  0  0  0  0  0  0  0  0  0  0
    0.1454    6.7501   12.4304 O   0  0  0  0  0  0  0  0  0  0  0  0
   -2.9704   12.1200    9.0259 O   0  0  0  0  0  0  0  0  0  0  0  0
    0.2544    5.3218   12.7164 C   0  0  2  0  0  0  0  0  0  0  0  0
   -0.3882    4.9779   14.0903 C   0  0  1  0  0  0  0  0  0  0  0  0
    0.4586    5.5248   15.2751 C   0  0  2  0  0  0  0  0  0  0  0  0
    1.9411    5.0642   15.1657 C   0  0  1  0  0  0  0  0  0  0  0  0
    2.5327    5.3956   13.7672 C   0  0  1  0  0  0  0  0  0  0  0  0
    3.9637    4.8222   13.5946 C   0  0  0  0  0  0  0  0  0  0  0  0
    1.6519    4.9030   12.7123 O   0  0  0  0  0  0  0  0  0  0  0  0
    2.7669    5.6376   16.2510 N   0  0  0  0  0  0  0  0  0  0  0  0
   -1.7352    5.4439   14.1440 O   0  0  0  0  0  0  0  0  0  0  0  0
   -0.1058    5.1471   16.5289 O   0  0  0  0  0  0  0  0  0  0  0  0
    3.9354    3.4003   13.5258 O   0  0  0  0  0  0  0  0  0  0  0  0
   -3.4328   12.5991    7.7296 C   0  0  1  0  0  0  0  0  0  0  0  0
   -3.8275   11.4300    6.7844 C   0  0  1  0  0  0  0  0  0  0  0  0
   -4.2250   11.9572    5.3768 C   0  0  2  0  0  0  0  0  0  0  0  0
   -5.3386   13.0524    5.4428 C   0  0  1  0  0  0  0  0  0  0  0  0
   -5.0299   14.1696    6.4841 C   0  0  0  0  0  0  0  0  0  0  0  0
   -4.6158   13.5983    7.8736 C   0  0  2  0  0  0  0  0  0  0  0  0
   -5.5847   13.6324    4.1052 N   0  0  0  0  0  0  0  0  0  0  0  0
   -4.2909   14.7170    8.7848 N   0  0  0  0  0  0  0  0  0  0  0  0
   -2.7732   10.4778    6.6886 O   0  0  0  0  0  0  0  0  0  0  0  0
   -4.6351   10.8794    4.5390 O   0  0  0  0  0  0  0  0  0  0  0  0
  1  2  1  0  0  0  0
  1 16  1  6  0  0  0
  2  3  1  0  0  0  0
  2 12  1  6  0  0  0
  4 11  1  1  0  0  0
  4  3  1  0  0  0  0
  5  4  1  0  0  0  0
  5 10  1  6  0  0  0
  6  7  1  0  0  0  0
  6  5  1  0  0  0  0
  6 14  1  1  0  0  0
  7  8  1  0  0  0  0
  7 13  1  1  0  0  0
  8 15  1  6  0  0  0
  8 11  1  0  0  0  0
  9 13  1  0  0  0  0
 10  1  1  0  0  0  0
 17 15  1  1  0  0  0
 17 18  1  0  0  0  0
 18 25  1  6  0  0  0
 19 18  1  0  0  0  0
 19 26  1  1  0  0  0
 20 19  1  0  0  0  0
 20 24  1  1  0  0  0
 21 23  1  0  0  0  0
 21 20  1  0  0  0  0
 21 22  1  6  0  0  0
 23 17  1  0  0  0  0
 27 22  1  0  0  0  0
 28 29  1  0  0  0  0
 28 16  1  1  0  0  0
 29 36  1  6  0  0  0
 30 37  1  6  0  0  0
 30 29  1  0  0  0  0
 31 30  1  0  0  0  0
 31 34  1  6  0  0  0
 32 31  1  0  0  0  0
 32 33  1  0  0  0  0
 33 28  1  0  0  0  0
 33 35  1  1  0  0  0
M  END
>  <CHROM.1>
66.70565886,-82.45801732,117.01302063,-65.40475634,-83.77880326,-144.23037891
176.60079678,-64.53612897,69.07859851,177.91046170,58.03680294,-55.60679877
-58.20806332,-57.11876117,175.70152429,-178.39436991,-1.71016149,8.73540510
10.59833253,2.73923577,1.01021649,-1.86572609

>  <Name>
lig.pdb

>  <RI>
2.86754e+07

>  <Rbt.Current_Directory>
/home/itssahil/PROJECTS/Mol_Feturizer/New_Systems/rnas/2m4q

>  <Rbt.Executable>
rbdock ($Id: //depot/dev/client3/rdock/2013.1/src/exe/rbdock.cxx#4 $)

>  <Rbt.Library>
libRbt.so (2013.1, Build901 2013/11/27)

>  <Rbt.Parameter_File>
/export/apps/rDock/src/rDock_2013.1_src/data/scripts/dock_solv.prm

>  <Rbt.Receptor>
prm/pocket_docking_5.prm

>  <SCORE>
-33.5182

>  <SCORE.INTER>
-17.558

>  <SCORE.INTER.CONST>
1

>  <SCORE.INTER.POLAR>
-2.87937

>  <SCORE.INTER.ROT>
10

>  <SCORE.INTER.SOLV>
14.4128

>  <SCORE.INTER.VDW>
-17.1784

>  <SCORE.INTER.norm>
-0.47454

>  <SCORE.INTRA>
-15.9613

>  <SCORE.INTRA.DIHEDRAL>
-31.6253

>  <SCORE.INTRA.DIHEDRAL.0>
44.8331

>  <SCORE.INTRA.POLAR>
0.031464

>  <SCORE.INTRA.POLAR.0>
-0.108895

>  <SCORE.INTRA.REPUL>
-0.00912235

>  <SCORE.INTRA.REPUL.0>
0.00912235

>  <SCORE.INTRA.SOLV>
-0.0682412

>  <SCORE.INTRA.SOLV.lig_0>
-53.9067

>  <SCORE.INTRA.VDW>
-0.175861

>  <SCORE.INTRA.VDW.0>
-2.93492

>  <SCORE.INTRA.norm>
-0.431386

>  <SCORE.RESTR>
0.00104665

>  <SCORE.RESTR.CAVITY>
0.00104665

>  <SCORE.RESTR.norm>
2.82879e-05

>  <SCORE.SYSTEM>
0

>  <SCORE.SYSTEM.CONST>
0

>  <SCORE.SYSTEM.DIHEDRAL>
0

>  <SCORE.SYSTEM.SOLV>
0

>  <SCORE.SYSTEM.norm>
0

>  <SCORE.heavy>
37

>  <SCORE.norm>
-0.905897

>  <RMSD>
4.559

$$$$
lig.pdb
 OpenBabel11021811453D
libRbt.so/2013.1/901 2013/11/27
 37 40  0  0  0  0  0  0  0  0999 V2000
   -3.3273   11.3844    8.7888 C   0  0  2  0  0  0  0  0  0  0  0  0
   -3.5394   10.3673    9.9583 C   0  0  1  0  0  0  0  0  0  0  0  0
   -2.3353    9.4013   10.1598 C   0  0  0  0  0  0  0  0  0  0  0  0
   -1.8971    8.7687    8.8156 C   0  0  1  0  0  0  0  0  0  0  0  0
   -1.5820    9.8797    7.7891 C   0  0  1  0  0  0  0  0  0  0  0  0
   -1.0947    9.2743    6.4453 C   0  0  1  0  0  0  0  0  0  0  0  0
    0.0997    8.3010    6.6753 C   0  0  1  0  0  0  0  0  0  0  0  0
   -0.2138    7.2421    7.7737 C   0  0  2  0  0  0  0  0  0  0  0  0
    1.1986    8.6050    4.5041 C   0  0  0  0  0  0  0  0  0  0  0  0
   -2.7391   10.7461    7.6090 O   0  0  0  0  0  0  0  0  0  0  0  0
   -0.7668    7.8636    8.9743 O   0  0  0  0  0  0  0  0  0  0  0  0
   -3.8038   11.1001   11.2156 N   0  0  0  0  0  0  0  0  0  0  0  0
    0.4677    7.6728    5.3896 N   0  0  0  0  0  0  0  0  0  0  0  0
   -2.1572    8.6314    5.7530 O   0  0  0  0  0  0  0  0  0  0  0  0
    0.9775    6.4611    8.0824 O   0  0  0  0  0  0  0  0  0  0  0  0
   -2.5111   12.5174    9.2161 O   0  0  0  0  0  0  0  0  0  0  0  0
    0.8103    5.0738    8.5081 C   0  0  2  0  0  0  0  0  0  0  0  0
    0.1553    4.9980    9.9165 C   0  0  1  0  0  0  0  0  0  0  0  0
    1.1299    5.4748   11.0313 C   0  0  2  0  0  0  0  0  0  0  0  0
    2.4877    4.7185   10.9515 C   0  0  1  0  0  0  0  0  0  0  0  0
    3.0896    4.7899    9.5203 C   0  0  1  0  0  0  0  0  0  0  0  0
    4.3726    3.9278    9.3895 C   0  0  0  0  0  0  0  0  0  0  0  0
    2.0964    4.3853    8.5298 O   0  0  0  0  0  0  0  0  0  0  0  0
    3.4439    5.2158   11.9648 N   0  0  0  0  0  0  0  0  0  0  0  0
   -1.0705    5.7272    9.9389 O   0  0  0  0  0  0  0  0  0  0  0  0
    0.5411    5.3391   12.3228 O   0  0  0  0  0  0  0  0  0  0  0  0
    5.4401    4.4892   10.1461 O   0  0  0  0  0  0  0  0  0  0  0  0
   -3.2026   13.7156    9.6744 C   0  0  1  0  0  0  0  0  0  0  0  0
   -2.2611   14.6618   10.4709 C   0  0  1  0  0  0  0  0  0  0  0  0
   -3.0399   15.8846   11.0324 C   0  0  2  0  0  0  0  0  0  0  0  0
   -3.8290   16.6505    9.9213 C   0  0  1  0  0  0  0  0  0  0  0  0
   -4.6791   15.7056    9.0199 C   0  0  0  0  0  0  0  0  0  0  0  0
   -3.8666   14.4832    8.4961 C   0  0  2  0  0  0  0  0  0  0  0  0
   -4.6707   17.7128   10.5122 N   0  0  0  0  0  0  0  0  0  0  0  0
   -4.7550   13.6128    7.6958 N   0  0  0  0  0  0  0  0  0  0  0  0
   -1.6026   13.9572   11.5184 O   0  0  0  0  0  0  0  0  0  0  0  0
   -2.1539   16.7690   11.7139 O   0  0  0  0  0  0  0  0  0  0  0  0
  1  2  1  0  0  0  0
  1 16  1  1  0  0  0
  2  3  1  0  0  0  0
  2 12  1  1  0  0  0
  4 11  1  1  0  0  0
  4  3  1  0  0  0  0
  5  4  1  0  0  0  0
  5 10  1  6  0  0  0
  6  7  1  0  0  0  0
  6  5  1  0  0  0  0
  6 14  1  1  0  0  0
  7  8  1  0  0  0  0
  7 13  1  6  0  0  0
  8 15  1  1  0  0  0
  8 11  1  0  0  0  0
  9 13  1  0  0  0  0
 10  1  1  0  0  0  0
 17 15  1  1  0  0  0
 17 18  1  0  0  0  0
 18 25  1  6  0  0  0
 19 18  1  0  0  0  0
 19 26  1  1  0  0  0
 20 19  1  0  0  0  0
 20 24  1  1  0  0  0
 21 23  1  0  0  0  0
 21 20  1  0  0  0  0
 21 22  1  1  0  0  0
 23 17  1  0  0  0  0
 27 22  1  0  0  0  0
 28 29  1  0  0  0  0
 28 16  1  6  0  0  0
 29 36  1  1  0  0  0
 30 37  1  6  0  0  0
 30 29  1  0  0  0  0
 31 30  1  0  0  0  0
 31 34  1  1  0  0  0
 32 31  1  0  0  0  0
 32 33  1  0  0  0  0
 33 28  1  0  0  0  0
 33 35  1  1  0  0  0
M  END
>  <CHROM.1>
179.71023880,-149.23200262,74.98915878,-36.03480596,-68.75994959,-94.66572800
-167.09721419,60.73991115,-68.80417495,-161.50717695,179.42723693,163.39618863
58.51610146,-176.92672758,60.15199099,-168.39459550,-0.91805069,9.59254983
9.20371091,2.68895560,-0.97555527,1.08528947

>  <Name>
lig.pdb

>  <RI>
0

>  <Rbt.Current_Directory>
/home/itssahil/PROJECTS/Mol_Feturizer/New_Systems/rnas/2m4q

>  <Rbt.Executable>
rbdock ($Id: //depot/dev/client3/rdock/2013.1/src/exe/rbdock.cxx#4 $)

>  <Rbt.Library>
libRbt.so (2013.1, Build901 2013/11/27)

>  <Rbt.Parameter_File>
/export/apps/rDock/src/rDock_2013.1_src/data/scripts/dock_solv.prm

>  <Rbt.Receptor>
prm/pocket_docking_6.prm

>  <SCORE>
-42.1767

>  <SCORE.INTER>
-27.3174

>  <SCORE.INTER.CONST>
1

>  <SCORE.INTER.POLAR>
-3.58373

>  <SCORE.INTER.ROT>
10

>  <SCORE.INTER.SOLV>
17.7849

>  <SCORE.INTER.VDW>
-22.4608

>  <SCORE.INTER.norm>
-0.738307

>  <SCORE.INTRA>
-15.0283

>  <SCORE.INTRA.DIHEDRAL>
-29.7634

>  <SCORE.INTRA.DIHEDRAL.0>
44.8331

>  <SCORE.INTRA.POLAR>
-0.706351

>  <SCORE.INTRA.POLAR.0>
-0.108895

>  <SCORE.INTRA.REPUL>
-0.00912235

>  <SCORE.INTRA.REPUL.0>
0.00912235

>  <SCORE.INTRA.SOLV>
-0.144119

>  <SCORE.INTRA.SOLV.lig_0>
-53.9067

>  <SCORE.INTRA.VDW>
2.37262

>  <SCORE.INTRA.VDW.0>
-2.93492

>  <SCORE.INTRA.norm>
-0.406171

>  <SCORE.RESTR>
0.16902

>  <SCORE.RESTR.CAVITY>
0.16902

>  <SCORE.RESTR.norm>
0.00456812

>  <SCORE.SYSTEM>
0

>  <SCORE.SYSTEM.CONST>
0

>  <SCORE.SYSTEM.DIHEDRAL>
0

>  <SCORE.SYSTEM.SOLV>
0

>  <SCORE.SYSTEM.norm>
0

>  <SCORE.heavy>
37

>  <SCORE.norm>
-1.13991

>  <RMSD>
4.568

$$$$
lig.pdb
 OpenBabel11021811453D
libRbt.so/2013.1/901 2013/11/27
 37 40  0  0  0  0  0  0  0  0999 V2000
   -0.0597    7.3495    8.3745 C   0  0  2  0  0  0  0  0  0  0  0  0
    0.6731    6.7407    7.1337 C   0  0  1  0  0  0  0  0  0  0  0  0
    1.4232    5.4140    7.4517 C   0  0  0  0  0  0  0  0  0  0  0  0
    2.2990    5.5593    8.7210 C   0  0  1  0  0  0  0  0  0  0  0  0
    1.4305    6.0318    9.9083 C   0  0  1  0  0  0  0  0  0  0  0  0
    2.2743    6.1411   11.2067 C   0  0  1  0  0  0  0  0  0  0  0  0
    3.0258    4.8073   11.4946 C   0  0  1  0  0  0  0  0  0  0  0  0
    3.8271    4.3098   10.2550 C   0  0  2  0  0  0  0  0  0  0  0  0
    4.2707    3.6918   13.2890 C   0  0  0  0  0  0  0  0  0  0  0  0
    0.7662    7.2866    9.5824 O   0  0  0  0  0  0  0  0  0  0  0  0
    3.0085    4.3291    9.0454 O   0  0  0  0  0  0  0  0  0  0  0  0
   -0.2986    6.5122    6.0423 N   0  0  0  0  0  0  0  0  0  0  0  0
    3.8916    4.9845   12.6788 N   0  0  0  0  0  0  0  0  0  0  0  0
    3.1768    7.2381   11.1453 O   0  0  0  0  0  0  0  0  0  0  0  0
    4.3748    2.9819   10.5025 O   0  0  0  0  0  0  0  0  0  0  0  0
   -1.3458    6.6959    8.6012 O   0  0  0  0  0  0  0  0  0  0  0  0
    5.4289    2.4873    9.6203 C   0  0  2  0  0  0  0  0  0  0  0  0
    6.1149    1.2285   10.2230 C   0  0  1  0  0  0  0  0  0  0  0  0
    6.9865    1.5849   11.4612 C   0  0  2  0  0  0  0  0  0  0  0  0
    7.9926    2.7252   11.1305 C   0  0  1  0  0  0  0  0  0  0  0  0
    7.2709    3.9484   10.4992 C   0  0  1  0  0  0  0  0  0  0  0  0
    8.2751    5.0375   10.0391 C   0  0  0  0  0  0  0  0  0  0  0  0
    6.4289    3.5232    9.3850 O   0  0  0  0  0  0  0  0  0  0  0  0
    8.7768    3.1168   12.3222 N   0  0  0  0  0  0  0  0  0  0  0  0
    5.1456    0.2279   10.5294 O   0  0  0  0  0  0  0  0  0  0  0  0
    7.6614    0.4340   11.9644 O   0  0  0  0  0  0  0  0  0  0  0  0
    7.5948    6.2362    9.6817 O   0  0  0  0  0  0  0  0  0  0  0  0
   -2.0688    7.0288    9.8220 C   0  0  1  0  0  0  0  0  0  0  0  0
   -1.4270    6.3712   11.0757 C   0  0  1  0  0  0  0  0  0  0  0  0
   -2.2675    6.6588   12.3516 C   0  0  2  0  0  0  0  0  0  0  0  0
   -2.5253    8.1860   12.5641 C   0  0  1  0  0  0  0  0  0  0  0  0
   -3.0432    8.8986   11.2789 C   0  0  0  0  0  0  0  0  0  0  0  0
   -2.1857    8.5667   10.0207 C   0  0  2  0  0  0  0  0  0  0  0  0
   -3.4467    8.4102   13.6985 N   0  0  0  0  0  0  0  0  0  0  0  0
   -2.7713    9.2371    8.8395 N   0  0  0  0  0  0  0  0  0  0  0  0
   -1.2617    4.9699   10.8843 O   0  0  0  0  0  0  0  0  0  0  0  0
   -1.6385    6.0951   13.4997 O   0  0  0  0  0  0  0  0  0  0  0  0
  1  2  1  0  0  0  0
  1 16  1  1  0  0  0
  2  3  1  0  0  0  0
  2 12  1  6  0  0  0
  4 11  1  1  0  0  0
  4  3  1  0  0  0  0
  5  4  1  0  0  0  0
  5 10  1  6  0  0  0
  6  7  1  0  0  0  0
  6  5  1  0  0  0  0
  6 14  1  6  0  0  0
  7  8  1  0  0  0  0
  7 13  1  1  0  0  0
  8 15  1  1  0  0  0
  8 11  1  0  0  0  0
  9 13  1  0  0  0  0
 10  1  1  0  0  0  0
 17 15  1  1  0  0  0
 17 18  1  0  0  0  0
 18 25  1  1  0  0  0
 19 18  1  0  0  0  0
 19 26  1  6  0  0  0
 20 19  1  0  0  0  0
 20 24  1  1  0  0  0
 21 23  1  0  0  0  0
 21 20  1  0  0  0  0
 21 22  1  6  0  0  0
 23 17  1  0  0  0  0
 27 22  1  0  0  0  0
 28 29  1  0  0  0  0
 28 16  1  6  0  0  0
 29 36  1  6  0  0  0
 30 37  1  1  0  0  0
 30 29  1  0  0  0  0
 31 30  1  0  0  0  0
 31 34  1  1  0  0  0
 32 31  1  0  0  0  0
 32 33  1  0  0  0  0
 33 28  1  0  0  0  0
 33 35  1  6  0  0  0
M  END
>  <CHROM.1>
-179.32722990,-164.44206694,160.47328242,60.65382949,166.56598279,172.08312953
-14.49233041,-53.16802037,-169.88375590,-53.00400459,-58.14205019,-74.24325621
73.49075295,169.68959308,-51.67627352,48.57133190,2.39372104,5.25119020,10.45599101
-2.98667907,-0.48293611,1.81458299

>  <Name>
lig.pdb

>  <RI>
3.87352e+07

>  <Rbt.Current_Directory>
/home/itssahil/PROJECTS/Mol_Feturizer/New_Systems/rnas/2m4q

>  <Rbt.Executable>
rbdock ($Id: //depot/dev/client3/rdock/2013.1/src/exe/rbdock.cxx#4 $)

>  <Rbt.Library>
libRbt.so (2013.1, Build901 2013/11/27)

>  <Rbt.Parameter_File>
/export/apps/rDock/src/rDock_2013.1_src/data/scripts/dock_solv.prm

>  <Rbt.Receptor>
prm/pocket_docking_4.prm

>  <SCORE>
-47.251

>  <SCORE.INTER>
-30.9295

>  <SCORE.INTER.CONST>
1

>  <SCORE.INTER.POLAR>
-4.74581

>  <SCORE.INTER.ROT>
10

>  <SCORE.INTER.SOLV>
20.1196

>  <SCORE.INTER.VDW>
-21.7735

>  <SCORE.INTER.norm>
-0.835932

>  <SCORE.INTRA>
-16.3215

>  <SCORE.INTRA.DIHEDRAL>
-32.0257

>  <SCORE.INTRA.DIHEDRAL.0>
44.8331

>  <SCORE.INTRA.POLAR>
-0.136715

>  <SCORE.INTRA.POLAR.0>
-0.108895

>  <SCORE.INTRA.REPUL>
-0.00912235

>  <SCORE.INTRA.REPUL.0>
0.00912235

>  <SCORE.INTRA.SOLV>
-1.57663

>  <SCORE.INTRA.SOLV.lig_0>
-53.9067

>  <SCORE.INTRA.VDW>
0.990133

>  <SCORE.INTRA.VDW.0>
-2.93492

>  <SCORE.INTRA.norm>
-0.441121

>  <SCORE.RESTR>
0

>  <SCORE.RESTR.CAVITY>
0

>  <SCORE.RESTR.norm>
0

>  <SCORE.SYSTEM>
0

>  <SCORE.SYSTEM.CONST>
0

>  <SCORE.SYSTEM.DIHEDRAL>
0

>  <SCORE.SYSTEM.SOLV>
0

>  <SCORE.SYSTEM.norm>
0

>  <SCORE.heavy>
37

>  <SCORE.norm>
-1.27705

>  <RMSD>
4.590

$$$$
lig.pdb
 OpenBabel11021811453D
libRbt.so/2013.1/901 2013/11/27
 37 40  0  0  0  0  0  0  0  0999 V2000
    0.1987    7.3049    8.4506 C   0  0  2  0  0  0  0  0  0  0  0  0
    1.0130    6.6731    7.2738 C   0  0  1  0  0  0  0  0  0  0  0  0
    1.7239    5.3435    7.6615 C   0  0  0  0  0  0  0  0  0  0  0  0
    2.5069    5.4965    8.9891 C   0  0  1  0  0  0  0  0  0  0  0  0
    1.5597    5.9926   10.1045 C   0  0  1  0  0  0  0  0  0  0  0  0
    2.3083    6.1105   11.4593 C   0  0  1  0  0  0  0  0  0  0  0  0
    3.0228    4.7732   11.8172 C   0  0  1  0  0  0  0  0  0  0  0  0
    3.9065    4.2521   10.6451 C   0  0  2  0  0  0  0  0  0  0  0  0
    3.9449    3.6961   13.8180 C   0  0  0  0  0  0  0  0  0  0  0  0
    0.9341    7.2496    9.7160 O   0  0  0  0  0  0  0  0  0  0  0  0
    3.1779    4.2638    9.3791 O   0  0  0  0  0  0  0  0  0  0  0  0
    0.1205    6.4401    6.1176 N   0  0  0  0  0  0  0  0  0  0  0  0
    3.8022    4.9572   13.0588 N   0  0  0  0  0  0  0  0  0  0  0  0
    3.2244    7.1977   11.4503 O   0  0  0  0  0  0  0  0  0  0  0  0
    4.4206    2.9222   10.9479 O   0  0  0  0  0  0  0  0  0  0  0  0
   -1.1073    6.6669    8.5912 O   0  0  0  0  0  0  0  0  0  0  0  0
    5.2697    2.2618    9.9596 C   0  0  2  0  0  0  0  0  0  0  0  0
    6.0376    1.0673   10.5937 C   0  0  1  0  0  0  0  0  0  0  0  0
    7.1435    1.5499   11.5755 C   0  0  2  0  0  0  0  0  0  0  0  0
    8.0856    2.5852   10.8955 C   0  0  1  0  0  0  0  0  0  0  0  0
    7.2765    3.7421   10.2456 C   0  0  1  0  0  0  0  0  0  0  0  0
    8.1901    4.7090    9.4477 C   0  0  0  0  0  0  0  0  0  0  0  0
    6.2227    3.2073    9.3883 O   0  0  0  0  0  0  0  0  0  0  0  0
    9.0974    3.1002   11.8440 N   0  0  0  0  0  0  0  0  0  0  0  0
    5.1294    0.1652   11.2229 O   0  0  0  0  0  0  0  0  0  0  0  0
    7.8828    0.4490   12.0999 O   0  0  0  0  0  0  0  0  0  0  0  0
    9.1216    5.3541   10.3100 O   0  0  0  0  0  0  0  0  0  0  0  0
   -1.9005    6.9997    9.7677 C   0  0  1  0  0  0  0  0  0  0  0  0
   -1.3185    6.3630   11.0608 C   0  0  1  0  0  0  0  0  0  0  0  0
   -2.2315    6.6494   12.2862 C   0  0  2  0  0  0  0  0  0  0  0  0
   -2.5227    8.1743   12.4695 C   0  0  1  0  0  0  0  0  0  0  0  0
   -2.9801    8.8675   11.1512 C   0  0  0  0  0  0  0  0  0  0  0  0
   -2.0505    8.5374    9.9447 C   0  0  2  0  0  0  0  0  0  0  0  0
   -3.5077    8.3947   13.5499 N   0  0  0  0  0  0  0  0  0  0  0  0
   -2.5806    9.1883    8.7270 N   0  0  0  0  0  0  0  0  0  0  0  0
   -1.1226    4.9628   10.8922 O   0  0  0  0  0  0  0  0  0  0  0  0
   -1.6578    6.1054   13.4723 O   0  0  0  0  0  0  0  0  0  0  0  0
  1  2  1  0  0  0  0
  1 16  1  1  0  0  0
  2  3  1  0  0  0  0
  2 12  1  6  0  0  0
  4 11  1  1  0  0  0
  4  3  1  0  0  0  0
  5  4  1  0  0  0  0
  5 10  1  6  0  0  0
  6  7  1  0  0  0  0
  6  5  1  0  0  0  0
  6 14  1  6  0  0  0
  7  8  1  0  0  0  0
  7 13  1  1  0  0  0
  8 15  1  1  0  0  0
  8 11  1  0  0  0  0
  9 13  1  0  0  0  0
 10  1  1  0  0  0  0
 17 15  1  1  0  0  0
 17 18  1  0  0  0  0
 18 25  1  1  0  0  0
 19 18  1  0  0  0  0
 19 26  1  6  0  0  0
 20 19  1  0  0  0  0
 20 24  1  1  0  0  0
 21 23  1  0  0  0  0
 21 20  1  0  0  0  0
 21 22  1  6  0  0  0
 23 17  1  0  0  0  0
 27 22  1  0  0  0  0
 28 29  1  0  0  0  0
 28 16  1  6  0  0  0
 29 36  1  6  0  0  0
 30 37  1  1  0  0  0
 30 29  1  0  0  0  0
 31 30  1  0  0  0  0
 31 34  1  1  0  0  0
 32 31  1  0  0  0  0
 32 33  1  0  0  0  0
 33 28  1  0  0  0  0
 33 35  1  6  0  0  0
M  END
>  <CHROM.1>
81.42485611,179.70806806,151.71586619,-172.75210241,163.98761044,170.73674736
-171.16235396,-171.42694759,-63.33004237,-155.60361785,-67.93539246,-72.29506656
174.76672018,-60.46900537,70.59941443,56.46212580,2.53081351,5.15821725,10.58028650
-2.94523209,-0.46645534,1.89478598

>  <Name>
lig.pdb

>  <RI>
3.87352e+07

>  <Rbt.Current_Directory>
/home/itssahil/PROJECTS/Mol_Feturizer/New_Systems/rnas/2m4q

>  <Rbt.Executable>
rbdock ($Id: //depot/dev/client3/rdock/2013.1/src/exe/rbdock.cxx#4 $)

>  <Rbt.Library>
libRbt.so (2013.1, Build901 2013/11/27)

>  <Rbt.Parameter_File>
/export/apps/rDock/src/rDock_2013.1_src/data/scripts/dock_solv.prm

>  <Rbt.Receptor>
prm/pocket_docking_4.prm

>  <SCORE>
-43.7228

>  <SCORE.INTER>
-22.4537

>  <SCORE.INTER.CONST>
1

>  <SCORE.INTER.POLAR>
-3.5343

>  <SCORE.INTER.ROT>
10

>  <SCORE.INTER.SOLV>
18.7438

>  <SCORE.INTER.VDW>
-19.7028

>  <SCORE.INTER.norm>
-0.606858

>  <SCORE.INTRA>
-21.269

>  <SCORE.INTRA.DIHEDRAL>
-37.6313

>  <SCORE.INTRA.DIHEDRAL.0>
44.8331

>  <SCORE.INTRA.POLAR>
-0.819093

>  <SCORE.INTRA.POLAR.0>
-0.108895

>  <SCORE.INTRA.REPUL>
-0.00912235

>  <SCORE.INTRA.REPUL.0>
0.00912235

>  <SCORE.INTRA.SOLV>
-0.19641

>  <SCORE.INTRA.SOLV.lig_0>
-53.9067

>  <SCORE.INTRA.VDW>
0.475362

>  <SCORE.INTRA.VDW.0>
-2.93492

>  <SCORE.INTRA.norm>
-0.574838

>  <SCORE.RESTR>
0

>  <SCORE.RESTR.CAVITY>
0

>  <SCORE.RESTR.norm>
0

>  <SCORE.SYSTEM>
0

>  <SCORE.SYSTEM.CONST>
0

>  <SCORE.SYSTEM.DIHEDRAL>
0

>  <SCORE.SYSTEM.SOLV>
0

>  <SCORE.SYSTEM.norm>
0

>  <SCORE.heavy>
37

>  <SCORE.norm>
-1.1817

>  <RMSD>
4.620

$$$$
lig.pdb
 OpenBabel11021811453D
libRbt.so/2013.1/901 2013/11/27
 37 40  0  0  0  0  0  0  0  0999 V2000
    0.3439    7.2367    8.8268 C   0  0  2  0  0  0  0  0  0  0  0  0
    1.2773    6.1415    8.2132 C   0  0  1  0  0  0  0  0  0  0  0  0
    1.5011    4.9241    9.1575 C   0  0  0  0  0  0  0  0  0  0  0  0
    1.8888    5.3885   10.5834 C   0  0  1  0  0  0  0  0  0  0  0  0
    0.8163    6.3563   11.1315 C   0  0  1  0  0  0  0  0  0  0  0  0
    1.1559    6.8018   12.5792 C   0  0  1  0  0  0  0  0  0  0  0  0
    1.3895    5.5671   13.4999 C   0  0  1  0  0  0  0  0  0  0  0  0
    2.4130    4.5665   12.8854 C   0  0  2  0  0  0  0  0  0  0  0  0
    1.4279    5.0770   15.9024 C   0  0  0  0  0  0  0  0  0  0  0  0
    0.6541    7.4931   10.2350 O   0  0  0  0  0  0  0  0  0  0  0  0
    2.0987    4.2681   11.4904 O   0  0  0  0  0  0  0  0  0  0  0  0
    0.7199    5.6748    6.9252 N   0  0  0  0  0  0  0  0  0  0  0  0
    1.8059    6.0326   14.8389 N   0  0  0  0  0  0  0  0  0  0  0  0
    2.2743    7.6794   12.6006 O   0  0  0  0  0  0  0  0  0  0  0  0
    2.4784    3.3499   13.6854 O   0  0  0  0  0  0  0  0  0  0  0  0
   -1.0632    6.8785    8.6714 O   0  0  0  0  0  0  0  0  0  0  0  0
    3.7916    2.7959   14.0052 C   0  0  2  0  0  0  0  0  0  0  0  0
    4.2318    1.7537   12.9381 C   0  0  1  0  0  0  0  0  0  0  0  0
    3.3922    0.4473   13.0285 C   0  0  2  0  0  0  0  0  0  0  0  0
    3.3984   -0.1254   14.4755 C   0  0  1  0  0  0  0  0  0  0  0  0
    2.9867    0.9569   15.5121 C   0  0  1  0  0  0  0  0  0  0  0  0
    3.1194    0.4416   16.9692 C   0  0  0  0  0  0  0  0  0  0  0  0
    3.7772    2.1697   15.3228 O   0  0  0  0  0  0  0  0  0  0  0  0
    2.5456   -1.3293   14.5841 N   0  0  0  0  0  0  0  0  0  0  0  0
    4.1835    2.3237   11.6314 O   0  0  0  0  0  0  0  0  0  0  0  0
    3.8483   -0.5239   12.0893 O   0  0  0  0  0  0  0  0  0  0  0  0
    2.2215   -0.6371   17.2093 O   0  0  0  0  0  0  0  0  0  0  0  0
   -1.9796    7.9156    8.2147 C   0  0  1  0  0  0  0  0  0  0  0  0
   -2.2137    9.0039    9.2996 C   0  0  1  0  0  0  0  0  0  0  0  0
   -3.2668   10.0465    8.8294 C   0  0  2  0  0  0  0  0  0  0  0  0
   -2.9064   10.6750    7.4441 C   0  0  1  0  0  0  0  0  0  0  0  0
   -2.5353    9.6074    6.3715 C   0  0  0  0  0  0  0  0  0  0  0  0
   -1.4939    8.5707    6.8906 C   0  0  2  0  0  0  0  0  0  0  0  0
   -3.9987   11.5475    6.9631 N   0  0  0  0  0  0  0  0  0  0  0  0
   -1.2361    7.5669    5.8354 N   0  0  0  0  0  0  0  0  0  0  0  0
   -2.6041    8.4124   10.5347 O   0  0  0  0  0  0  0  0  0  0  0  0
   -3.4308   11.0661    9.8118 O   0  0  0  0  0  0  0  0  0  0  0  0
  1  2  1  0  0  0  0
  1 16  1  1  0  0  0
  2  3  1  0  0  0  0
  2 12  1  6  0  0  0
  4 11  1  1  0  0  0
  4  3  1  0  0  0  0
  5  4  1  0  0  0  0
  5 10  1  6  0  0  0
  6  7  1  0  0  0  0
  6  5  1  0  0  0  0
  6 14  1  6  0  0  0
  7  8  1  0  0  0  0
  7 13  1  1  0  0  0
  8 15  1  1  0  0  0
  8 11  1  0  0  0  0
  9 13  1  0  0  0  0
 10  1  1  0  0  0  0
 17 15  1  6  0  0  0
 17 18  1  0  0  0  0
 18 25  1  6  0  0  0
 19 18  1  0  0  0  0
 19 26  1  6  0  0  0
 20 19  1  0  0  0  0
 20 24  1  6  0  0  0
 21 23  1  0  0  0  0
 21 20  1  0  0  0  0
 21 22  1  1  0  0  0
 23 17  1  0  0  0  0
 27 22  1  0  0  0  0
 28 29  1  0  0  0  0
 28 16  1  1  0  0  0
 29 36  1  1  0  0  0
 30 37  1  1  0  0  0
 30 29  1  0  0  0  0
 31 30  1  0  0  0  0
 31 34  1  6  0  0  0
 32 31  1  0  0  0  0
 32 33  1  0  0  0  0
 33 28  1  0  0  0  0
 33 35  1  6  0  0  0
M  END
>  <CHROM.1>
-84.49120147,-134.90800611,152.36030936,-167.36681804,-91.71193734,-134.87578590
-66.51629213,-154.49438024,-63.96139557,-63.60744450,69.18782754,-70.44687117
-175.16803995,-178.72693397,-62.21826167,-64.90843555,0.89117353,5.27175763
11.34927059,-2.61164799,-1.02238776,1.48914517

>  <Name>
lig.pdb

>  <RI>
0

>  <Rbt.Current_Directory>
/home/itssahil/PROJECTS/Mol_Feturizer/New_Systems/rnas/2m4q

>  <Rbt.Executable>
rbdock ($Id: //depot/dev/client3/rdock/2013.1/src/exe/rbdock.cxx#4 $)

>  <Rbt.Library>
libRbt.so (2013.1, Build901 2013/11/27)

>  <Rbt.Parameter_File>
/export/apps/rDock/src/rDock_2013.1_src/data/scripts/dock_solv.prm

>  <Rbt.Receptor>
prm/pocket_docking_7.prm

>  <SCORE>
-46.5964

>  <SCORE.INTER>
-27.6655

>  <SCORE.INTER.CONST>
1

>  <SCORE.INTER.POLAR>
-4.57208

>  <SCORE.INTER.ROT>
10

>  <SCORE.INTER.SOLV>
16.8291

>  <SCORE.INTER.VDW>
-19.0798

>  <SCORE.INTER.norm>
-0.747716

>  <SCORE.INTRA>
-18.968

>  <SCORE.INTRA.DIHEDRAL>
-21.6239

>  <SCORE.INTRA.DIHEDRAL.0>
44.8331

>  <SCORE.INTRA.POLAR>
-2.23229

>  <SCORE.INTRA.POLAR.0>
-0.108895

>  <SCORE.INTRA.REPUL>
-0.00912235

>  <SCORE.INTRA.REPUL.0>
0.00912235

>  <SCORE.INTRA.SOLV>
0.219645

>  <SCORE.INTRA.SOLV.lig_0>
-53.9067

>  <SCORE.INTRA.VDW>
-0.630482

>  <SCORE.INTRA.VDW.0>
-2.93492

>  <SCORE.INTRA.norm>
-0.512649

>  <SCORE.RESTR>
0.0370786

>  <SCORE.RESTR.CAVITY>
0.0370786

>  <SCORE.RESTR.norm>
0.00100213

>  <SCORE.SYSTEM>
0

>  <SCORE.SYSTEM.CONST>
0

>  <SCORE.SYSTEM.DIHEDRAL>
0

>  <SCORE.SYSTEM.SOLV>
0

>  <SCORE.SYSTEM.norm>
0

>  <SCORE.heavy>
37

>  <SCORE.norm>
-1.25936

>  <RMSD>
4.633

$$$$
lig.pdb
 OpenBabel11021811453D
libRbt.so/2013.1/901 2013/11/27
 37 40  0  0  0  0  0  0  0  0999 V2000
    1.2742    5.6670    7.7338 C   0  0  2  0  0  0  0  0  0  0  0  0
    0.9047    4.7175    8.9208 C   0  0  1  0  0  0  0  0  0  0  0  0
    1.9747    4.7009   10.0516 C   0  0  0  0  0  0  0  0  0  0  0  0
    3.3962    4.4978    9.4711 C   0  0  1  0  0  0  0  0  0  0  0  0
    3.6916    5.5824    8.4110 C   0  0  1  0  0  0  0  0  0  0  0  0
    5.1292    5.4311    7.8452 C   0  0  1  0  0  0  0  0  0  0  0  0
    6.1788    5.4023    8.9960 C   0  0  1  0  0  0  0  0  0  0  0  0
    5.8136    4.3583   10.0928 C   0  0  2  0  0  0  0  0  0  0  0  0
    8.5617    5.9756    9.0809 C   0  0  0  0  0  0  0  0  0  0  0  0
    2.6851    5.5495    7.3585 O   0  0  0  0  0  0  0  0  0  0  0  0
    4.4189    4.4842   10.5084 O   0  0  0  0  0  0  0  0  0  0  0  0
   -0.4062    5.1083    9.4834 N   0  0  0  0  0  0  0  0  0  0  0  0
    7.5190    5.1582    8.4238 N   0  0  0  0  0  0  0  0  0  0  0  0
    5.2401    4.2801    7.0178 O   0  0  0  0  0  0  0  0  0  0  0  0
    6.7177    4.4774   11.2298 O   0  0  0  0  0  0  0  0  0  0  0  0
    0.9429    7.0548    8.0450 O   0  0  0  0  0  0  0  0  0  0  0  0
    7.2560    3.2558   11.8230 C   0  0  2  0  0  0  0  0  0  0  0  0
    7.0847    2.0465   10.8602 C   0  0  1  0  0  0  0  0  0  0  0  0
    5.5950    1.6161   10.7357 C   0  0  2  0  0  0  0  0  0  0  0  0
    4.9619    1.3719   12.1362 C   0  0  1  0  0  0  0  0  0  0  0  0
    5.1859    2.5891   13.0763 C   0  0  1  0  0  0  0  0  0  0  0  0
    4.6812    2.3078   14.5159 C   0  0  0  0  0  0  0  0  0  0  0  0
    6.5959    2.9675   13.0916 O   0  0  0  0  0  0  0  0  0  0  0  0
    3.5267    1.0297   12.0285 N   0  0  0  0  0  0  0  0  0  0  0  0
    7.6598    2.3343    9.5870 O   0  0  0  0  0  0  0  0  0  0  0  0
    5.4589    0.4669    9.9026 O   0  0  0  0  0  0  0  0  0  0  0  0
    5.0301    3.3738   15.3930 O   0  0  0  0  0  0  0  0  0  0  0  0
    0.5216    7.9135    6.9454 C   0  0  1  0  0  0  0  0  0  0  0  0
   -0.8568    8.5769    7.2208 C   0  0  1  0  0  0  0  0  0  0  0  0
   -1.3319    9.4103    5.9972 C   0  0  2  0  0  0  0  0  0  0  0  0
   -0.2650   10.4563    5.5376 C   0  0  1  0  0  0  0  0  0  0  0  0
    1.1591    9.8430    5.3838 C   0  0  0  0  0  0  0  0  0  0  0  0
    1.5871    8.9992    6.6221 C   0  0  2  0  0  0  0  0  0  0  0  0
   -0.6886   11.1245    4.2885 N   0  0  0  0  0  0  0  0  0  0  0  0
    2.9220    8.4123    6.3757 N   0  0  0  0  0  0  0  0  0  0  0  0
   -1.8287    7.5981    7.5741 O   0  0  0  0  0  0  0  0  0  0  0  0
   -2.5703   10.0548    6.2846 O   0  0  0  0  0  0  0  0  0  0  0  0
  1  2  1  0  0  0  0
  1 16  1  1  0  0  0
  2  3  1  0  0  0  0
  2 12  1  1  0  0  0
  4 11  1  1  0  0  0
  4  3  1  0  0  0  0
  5  4  1  0  0  0  0
  5 10  1  6  0  0  0
  6  7  1  0  0  0  0
  6  5  1  0  0  0  0
  6 14  1  1  0  0  0
  7  8  1  0  0  0  0
  7 13  1  6  0  0  0
  8 15  1  1  0  0  0
  8 11  1  0  0  0  0
  9 13  1  0  0  0  0
 10  1  1  0  0  0  0
 17 15  1  6  0  0  0
 17 18  1  0  0  0  0
 18 25  1  6  0  0  0
 19 18  1  0  0  0  0
 19 26  1  6  0  0  0
 20 19  1  0  0  0  0
 20 24  1  6  0  0  0
 21 23  1  0  0  0  0
 21 20  1  0  0  0  0
 21 22  1  1  0  0  0
 23 17  1  0  0  0  0
 27 22  1  0  0  0  0
 28 29  1  0  0  0  0
 28 16  1  1  0  0  0
 29 36  1  6  0  0  0
 30 37  1  1  0  0  0
 30 29  1  0  0  0  0
 31 30  1  0  0  0  0
 31 34  1  6  0  0  0
 32 31  1  0  0  0  0
 32 33  1  0  0  0  0
 33 28  1  0  0  0  0
 33 35  1  6  0  0  0
M  END
>  <CHROM.1>
174.46534500,-136.10064701,139.91485126,-49.24094867,16.75698324,-147.19122814
175.78467707,-56.41739685,173.48768905,4.68943102,-174.65497165,124.97526769
-177.73819163,-61.19025332,-50.16203649,130.17719583,3.39200069,5.33102854
9.14181004,2.23955485,0.19821560,-0.86054971

>  <Name>
lig.pdb

>  <RI>
3.60165e+07

>  <Rbt.Current_Directory>
/home/itssahil/PROJECTS/Mol_Feturizer/New_Systems/rnas/2m4q

>  <Rbt.Executable>
rbdock ($Id: //depot/dev/client3/rdock/2013.1/src/exe/rbdock.cxx#4 $)

>  <Rbt.Library>
libRbt.so (2013.1, Build901 2013/11/27)

>  <Rbt.Parameter_File>
/export/apps/rDock/src/rDock_2013.1_src/data/scripts/dock_solv.prm

>  <Rbt.Receptor>
prm/pocket_docking_8.prm

>  <SCORE>
-54.0512

>  <SCORE.INTER>
-44.1908

>  <SCORE.INTER.CONST>
1

>  <SCORE.INTER.POLAR>
-7.98685

>  <SCORE.INTER.ROT>
10

>  <SCORE.INTER.SOLV>
18.6841

>  <SCORE.INTER.VDW>
-19.3324

>  <SCORE.INTER.norm>
-1.19435

>  <SCORE.INTRA>
-9.86039

>  <SCORE.INTRA.DIHEDRAL>
-13.9403

>  <SCORE.INTRA.DIHEDRAL.0>
44.8331

>  <SCORE.INTRA.POLAR>
-1.55076

>  <SCORE.INTRA.POLAR.0>
-0.108895

>  <SCORE.INTRA.REPUL>
-0.00912235

>  <SCORE.INTRA.REPUL.0>
0.00912235

>  <SCORE.INTRA.SOLV>
0.804844

>  <SCORE.INTRA.SOLV.lig_0>
-53.9067

>  <SCORE.INTRA.VDW>
2.02551

>  <SCORE.INTRA.VDW.0>
-2.93492

>  <SCORE.INTRA.norm>
-0.266497

>  <SCORE.RESTR>
0

>  <SCORE.RESTR.CAVITY>
0

>  <SCORE.RESTR.norm>
0

>  <SCORE.SYSTEM>
0

>  <SCORE.SYSTEM.CONST>
0

>  <SCORE.SYSTEM.DIHEDRAL>
0

>  <SCORE.SYSTEM.SOLV>
0

>  <SCORE.SYSTEM.norm>
0

>  <SCORE.heavy>
37

>  <SCORE.norm>
-1.46084

>  <RMSD>
4.661

$$$$
lig.pdb
 OpenBabel11021811453D
libRbt.so/2013.1/901 2013/11/27
 37 40  0  0  0  0  0  0  0  0999 V2000
    0.1807    7.2812    9.1951 C   0  0  2  0  0  0  0  0  0  0  0  0
    0.9692    6.7779    7.9413 C   0  0  1  0  0  0  0  0  0  0  0  0
    1.7430    5.4506    8.1930 C   0  0  0  0  0  0  0  0  0  0  0  0
    2.5729    5.5281    9.4985 C   0  0  1  0  0  0  0  0  0  0  0  0
    1.6541    5.8960   10.6850 C   0  0  1  0  0  0  0  0  0  0  0  0
    2.4521    5.9349   12.0160 C   0  0  1  0  0  0  0  0  0  0  0  0
    3.2285    4.6026   12.2372 C   0  0  1  0  0  0  0  0  0  0  0  0
    4.0825    4.2119   10.9945 C   0  0  2  0  0  0  0  0  0  0  0  0
    3.2461    4.5455   14.6888 C   0  0  0  0  0  0  0  0  0  0  0  0
    0.9682    7.1542   10.4235 O   0  0  0  0  0  0  0  0  0  0  0  0
    3.3035    4.2957    9.7617 O   0  0  0  0  0  0  0  0  0  0  0  0
    0.0398    6.6027    6.8042 N   0  0  0  0  0  0  0  0  0  0  0  0
    4.0503    4.7176   13.4597 N   0  0  0  0  0  0  0  0  0  0  0  0
    3.3270    7.0547   12.0611 O   0  0  0  0  0  0  0  0  0  0  0  0
    4.6565    2.8834   11.1689 O   0  0  0  0  0  0  0  0  0  0  0  0
   -1.0945    6.5829    9.3321 O   0  0  0  0  0  0  0  0  0  0  0  0
    5.5428    2.3654   10.1296 C   0  0  2  0  0  0  0  0  0  0  0  0
    6.3284    1.1224   10.6359 C   0  0  1  0  0  0  0  0  0  0  0  0
    7.4009    1.5107   11.6937 C   0  0  2  0  0  0  0  0  0  0  0  0
    8.3294    2.6414   11.1634 C   0  0  1  0  0  0  0  0  0  0  0  0
    7.5038    3.8480   10.6361 C   0  0  1  0  0  0  0  0  0  0  0  0
    8.4080    4.9242    9.9800 C   0  0  0  0  0  0  0  0  0  0  0  0
    6.4823    3.3942    9.6970 O   0  0  0  0  0  0  0  0  0  0  0  0
    9.3075    3.0636   12.1898 N   0  0  0  0  0  0  0  0  0  0  0  0
    5.4313    0.1307   11.1322 O   0  0  0  0  0  0  0  0  0  0  0  0
    8.1577    0.3729   12.1013 O   0  0  0  0  0  0  0  0  0  0  0  0
    9.0727    4.3991    8.8356 O   0  0  0  0  0  0  0  0  0  0  0  0
   -1.9596    6.9639   10.4414 C   0  0  1  0  0  0  0  0  0  0  0  0
   -1.3530    6.5645   11.8157 C   0  0  1  0  0  0  0  0  0  0  0  0
   -2.3333    6.8918   12.9772 C   0  0  2  0  0  0  0  0  0  0  0  0
   -2.8015    8.3833   12.9600 C   0  0  1  0  0  0  0  0  0  0  0  0
   -3.2899    8.8498   11.5559 C   0  0  0  0  0  0  0  0  0  0  0  0
   -2.2888    8.4837   10.4191 C   0  0  2  0  0  0  0  0  0  0  0  0
   -3.8410    8.6193   13.9846 N   0  0  0  0  0  0  0  0  0  0  0  0
   -2.8479    8.9125    9.1187 N   0  0  0  0  0  0  0  0  0  0  0  0
   -0.9941    5.1867   11.8300 O   0  0  0  0  0  0  0  0  0  0  0  0
   -1.7420    6.5696   14.2335 O   0  0  0  0  0  0  0  0  0  0  0  0
  1  2  1  0  0  0  0
  1 16  1  1  0  0  0
  2  3  1  0  0  0  0
  2 12  1  6  0  0  0
  4 11  1  1  0  0  0
  4  3  1  0  0  0  0
  5  4  1  0  0  0  0
  5 10  1  6  0  0  0
  6  7  1  0  0  0  0
  6  5  1  0  0  0  0
  6 14  1  6  0  0  0
  7  8  1  0  0  0  0
  7 13  1  1  0  0  0
  8 15  1  1  0  0  0
  8 11  1  0  0  0  0
  9 13  1  0  0  0  0
 10  1  1  0  0  0  0
 17 15  1  1  0  0  0
 17 18  1  0  0  0  0
 18 25  1  1  0  0  0
 19 18  1  0  0  0  0
 19 26  1  6  0  0  0
 20 19  1  0  0  0  0
 20 24  1  1  0  0  0
 21 23  1  0  0  0  0
 21 20  1  0  0  0  0
 21 22  1  6  0  0  0
 23 17  1  0  0  0  0
 27 22  1  0  0  0  0
 28 29  1  0  0  0  0
 28 16  1  6  0  0  0
 29 36  1  6  0  0  0
 30 37  1  1  0  0  0
 30 29  1  0  0  0  0
 31 30  1  0  0  0  0
 31 34  1  1  0  0  0
 32 31  1  0  0  0  0
 32 33  1  0  0  0  0
 33 28  1  0  0  0  0
 33 35  1  6  0  0  0
M  END
>  <CHROM.1>
-66.10164414,-177.25249615,78.33956395,-175.19127565,165.77636895,-178.70215145
-56.66466975,-53.96505511,62.95740825,-51.91974587,62.28630576,-67.90710098
172.64291249,-64.04392490,48.06520638,-59.63503377,2.57108841,5.17365078
10.99166011,-3.04443360,-0.48725291,1.83595845

>  <Name>
lig.pdb

>  <RI>
3.87352e+07

>  <Rbt.Current_Directory>
/home/itssahil/PROJECTS/Mol_Feturizer/New_Systems/rnas/2m4q

>  <Rbt.Executable>
rbdock ($Id: //depot/dev/client3/rdock/2013.1/src/exe/rbdock.cxx#4 $)

>  <Rbt.Library>
libRbt.so (2013.1, Build901 2013/11/27)

>  <Rbt.Parameter_File>
/export/apps/rDock/src/rDock_2013.1_src/data/scripts/dock_solv.prm

>  <Rbt.Receptor>
prm/pocket_docking_4.prm

>  <SCORE>
-37.8745

>  <SCORE.INTER>
-16.2879

>  <SCORE.INTER.CONST>
1

>  <SCORE.INTER.POLAR>
-2.3124

>  <SCORE.INTER.ROT>
10

>  <SCORE.INTER.SOLV>
16.1644

>  <SCORE.INTER.VDW>
-18.8054

>  <SCORE.INTER.norm>
-0.440213

>  <SCORE.INTRA>
-21.6137

>  <SCORE.INTRA.DIHEDRAL>
-41.2383

>  <SCORE.INTRA.DIHEDRAL.0>
44.8331

>  <SCORE.INTRA.POLAR>
-0.0580665

>  <SCORE.INTRA.POLAR.0>
-0.108895

>  <SCORE.INTRA.REPUL>
-0.00912235

>  <SCORE.INTRA.REPUL.0>
0.00912235

>  <SCORE.INTRA.SOLV>
-0.89224

>  <SCORE.INTRA.SOLV.lig_0>
-53.9067

>  <SCORE.INTRA.VDW>
-0.305408

>  <SCORE.INTRA.VDW.0>
-2.93492

>  <SCORE.INTRA.norm>
-0.584155

>  <SCORE.RESTR>
0.0270636

>  <SCORE.RESTR.CAVITY>
0.0270636

>  <SCORE.RESTR.norm>
0.000731448

>  <SCORE.SYSTEM>
0

>  <SCORE.SYSTEM.CONST>
0

>  <SCORE.SYSTEM.DIHEDRAL>
0

>  <SCORE.SYSTEM.SOLV>
0

>  <SCORE.SYSTEM.norm>
0

>  <SCORE.heavy>
37

>  <SCORE.norm>
-1.02364

>  <RMSD>
4.689

$$$$
lig.pdb
 OpenBabel11021811453D
libRbt.so/2013.1/901 2013/11/27
 37 40  0  0  0  0  0  0  0  0999 V2000
    0.0956    7.5041    9.2270 C   0  0  2  0  0  0  0  0  0  0  0  0
    0.9185    6.5423    8.3078 C   0  0  1  0  0  0  0  0  0  0  0  0
    1.2671    5.1872    8.9905 C   0  0  0  0  0  0  0  0  0  0  0  0
    1.8644    5.4115   10.4019 C   0  0  1  0  0  0  0  0  0  0  0  0
    0.8931    6.2566   11.2561 C   0  0  1  0  0  0  0  0  0  0  0  0
    1.4457    6.4578   12.6927 C   0  0  1  0  0  0  0  0  0  0  0  0
    1.8004    5.0897   13.3480 C   0  0  1  0  0  0  0  0  0  0  0  0
    2.7132    4.2228   12.4307 C   0  0  2  0  0  0  0  0  0  0  0  0
    2.2191    4.1878   15.5896 C   0  0  0  0  0  0  0  0  0  0  0  0
    0.6117    7.5252   10.5975 O   0  0  0  0  0  0  0  0  0  0  0  0
    2.1946    4.1581   11.0667 O   0  0  0  0  0  0  0  0  0  0  0  0
    0.1737    6.2899    7.0552 N   0  0  0  0  0  0  0  0  0  0  0  0
    2.4133    5.3301   14.6707 N   0  0  0  0  0  0  0  0  0  0  0  0
    2.5633    7.3367   12.6978 O   0  0  0  0  0  0  0  0  0  0  0  0
    2.8839    2.8901   12.9960 O   0  0  0  0  0  0  0  0  0  0  0  0
   -1.3224    7.1552    9.2210 O   0  0  0  0  0  0  0  0  0  0  0  0
    4.2200    2.4789   13.4197 C   0  0  2  0  0  0  0  0  0  0  0  0
    5.0322    1.9058   12.2237 C   0  0  1  0  0  0  0  0  0  0  0  0
    4.4883    0.5211   11.7691 C   0  0  2  0  0  0  0  0  0  0  0  0
    4.3940   -0.4666   12.9681 C   0  0  1  0  0  0  0  0  0  0  0  0
    3.6053    0.1583   14.1526 C   0  0  1  0  0  0  0  0  0  0  0  0
    3.6192   -0.7588   15.4037 C   0  0  0  0  0  0  0  0  0  0  0  0
    4.1372    1.4783   14.4782 O   0  0  0  0  0  0  0  0  0  0  0  0
    3.8124   -1.7630   12.5562 N   0  0  0  0  0  0  0  0  0  0  0  0
    5.0648    2.8403   11.1466 O   0  0  0  0  0  0  0  0  0  0  0  0
    5.2809   -0.0231   10.7160 O   0  0  0  0  0  0  0  0  0  0  0  0
    4.9356   -0.8735   15.9339 O   0  0  0  0  0  0  0  0  0  0  0  0
   -2.2298    7.9953    9.9923 C   0  0  1  0  0  0  0  0  0  0  0  0
   -2.0148    7.8313   11.5230 C   0  0  1  0  0  0  0  0  0  0  0  0
   -3.0553    8.6608   12.3270 C   0  0  2  0  0  0  0  0  0  0  0  0
   -3.0765   10.1648   11.9010 C   0  0  1  0  0  0  0  0  0  0  0  0
   -3.1560   10.3570   10.3568 C   0  0  0  0  0  0  0  0  0  0  0  0
   -2.1111    9.4925    9.5889 C   0  0  2  0  0  0  0  0  0  0  0  0
   -4.1740   10.8872   12.5790 N   0  0  0  0  0  0  0  0  0  0  0  0
   -2.2864    9.6920    8.1340 N   0  0  0  0  0  0  0  0  0  0  0  0
   -2.0643    6.4584   11.8974 O   0  0  0  0  0  0  0  0  0  0  0  0
   -2.8119    8.5427   13.7265 O   0  0  0  0  0  0  0  0  0  0  0  0
  1  2  1  0  0  0  0
  1 16  1  1  0  0  0
  2  3  1  0  0  0  0
  2 12  1  6  0  0  0
  4 11  1  1  0  0  0
  4  3  1  0  0  0  0
  5  4  1  0  0  0  0
  5 10  1  6  0  0  0
  6  7  1  0  0  0  0
  6  5  1  0  0  0  0
  6 14  1  6  0  0  0
  7  8  1  0  0  0  0
  7 13  1  1  0  0  0
  8 15  1  1  0  0  0
  8 11  1  0  0  0  0
  9 13  1  0  0  0  0
 10  1  1  0  0  0  0
 17 15  1  6  0  0  0
 17 18  1  0  0  0  0
 18 25  1  6  0  0  0
 19 18  1  0  0  0  0
 19 26  1  6  0  0  0
 20 19  1  0  0  0  0
 20 24  1  6  0  0  0
 21 23  1  0  0  0  0
 21 20  1  0  0  0  0
 21 22  1  1  0  0  0
 23 17  1  0  0  0  0
 27 22  1  0  0  0  0
 28 29  1  0  0  0  0
 28 16  1  6  0  0  0
 29 36  1  1  0  0  0
 30 37  1  1  0  0  0
 30 29  1  0  0  0  0
 31 30  1  0  0  0  0
 31 34  1  1  0  0  0
 32 31  1  0  0  0  0
 32 33  1  0  0  0  0
 33 28  1  0  0  0  0
 33 35  1  6  0  0  0
M  END
>  <CHROM.1>
-72.98662861,-115.55953260,153.95575063,-61.54408777,-85.02853440,-177.67399552
55.82910473,174.47592332,66.16623979,-179.32736419,-69.69620828,-69.53893612
-67.20917832,178.94292076,-169.55543483,60.76774564,1.21804586,5.02159902
11.83708285,-2.74625732,-0.87294299,1.74881018

>  <Name>
lig.pdb

>  <RI>
0

>  <Rbt.Current_Directory>
/home/itssahil/PROJECTS/Mol_Feturizer/New_Systems/rnas/2m4q

>  <Rbt.Executable>
rbdock ($Id: //depot/dev/client3/rdock/2013.1/src/exe/rbdock.cxx#4 $)

>  <Rbt.Library>
libRbt.so (2013.1, Build901 2013/11/27)

>  <Rbt.Parameter_File>
/export/apps/rDock/src/rDock_2013.1_src/data/scripts/dock_solv.prm

>  <Rbt.Receptor>
prm/pocket_docking_6.prm

>  <SCORE>
-55.69

>  <SCORE.INTER>
-39.4391

>  <SCORE.INTER.CONST>
1

>  <SCORE.INTER.POLAR>
-6.31654

>  <SCORE.INTER.ROT>
10

>  <SCORE.INTER.SOLV>
19.953

>  <SCORE.INTER.VDW>
-22.1553

>  <SCORE.INTER.norm>
-1.06592

>  <SCORE.INTRA>
-16.2509

>  <SCORE.INTRA.DIHEDRAL>
-31.6171

>  <SCORE.INTRA.DIHEDRAL.0>
44.8331

>  <SCORE.INTRA.POLAR>
0.042185

>  <SCORE.INTRA.POLAR.0>
-0.108895

>  <SCORE.INTRA.REPUL>
-0.00912235

>  <SCORE.INTRA.REPUL.0>
0.00912235

>  <SCORE.INTRA.SOLV>
-0.592817

>  <SCORE.INTRA.SOLV.lig_0>
-53.9067

>  <SCORE.INTRA.VDW>
-0.243771

>  <SCORE.INTRA.VDW.0>
-2.93492

>  <SCORE.INTRA.norm>
-0.439214

>  <SCORE.RESTR>
0

>  <SCORE.RESTR.CAVITY>
0

>  <SCORE.RESTR.norm>
0

>  <SCORE.SYSTEM>
0

>  <SCORE.SYSTEM.CONST>
0

>  <SCORE.SYSTEM.DIHEDRAL>
0

>  <SCORE.SYSTEM.SOLV>
0

>  <SCORE.SYSTEM.norm>
0

>  <SCORE.heavy>
37

>  <SCORE.norm>
-1.50513

>  <RMSD>
4.727

$$$$
lig.pdb
 OpenBabel11021811453D
libRbt.so/2013.1/901 2013/11/27
 37 40  0  0  0  0  0  0  0  0999 V2000
    0.2323    7.4612    8.9675 C   0  0  2  0  0  0  0  0  0  0  0  0
    1.0788    6.6166    7.9588 C   0  0  1  0  0  0  0  0  0  0  0  0
    1.5459    5.2502    8.5406 C   0  0  0  0  0  0  0  0  0  0  0  0
    2.1852    5.4293    9.9399 C   0  0  1  0  0  0  0  0  0  0  0  0
    1.1959    6.1513   10.8819 C   0  0  1  0  0  0  0  0  0  0  0  0
    1.7933    6.3028   12.3066 C   0  0  1  0  0  0  0  0  0  0  0  0
    2.2662    4.9255   12.8600 C   0  0  1  0  0  0  0  0  0  0  0  0
    3.1961    4.1815   11.8559 C   0  0  2  0  0  0  0  0  0  0  0  0
    2.8102    3.9311   15.0346 C   0  0  0  0  0  0  0  0  0  0  0  0
    0.8026    7.4348   10.3162 O   0  0  0  0  0  0  0  0  0  0  0  0
    2.6264    4.1639   10.5109 O   0  0  0  0  0  0  0  0  0  0  0  0
    0.3009    6.3896    6.7215 N   0  0  0  0  0  0  0  0  0  0  0  0
    2.9163    5.1272   14.1714 N   0  0  0  0  0  0  0  0  0  0  0  0
    2.8486    7.2554   12.3256 O   0  0  0  0  0  0  0  0  0  0  0  0
    3.4794    2.8322   12.3287 O   0  0  0  0  0  0  0  0  0  0  0  0
   -1.1581    7.0153    8.9926 O   0  0  0  0  0  0  0  0  0  0  0  0
    4.5705    2.0893   11.7029 C   0  0  2  0  0  0  0  0  0  0  0  0
    4.6506    0.6403   12.2619 C   0  0  1  0  0  0  0  0  0  0  0  0
    5.1578    0.6176   13.7323 C   0  0  2  0  0  0  0  0  0  0  0  0
    6.4956    1.3994   13.8773 C   0  0  1  0  0  0  0  0  0  0  0  0
    6.3819    2.8279   13.2757 C   0  0  1  0  0  0  0  0  0  0  0  0
    7.7437    3.5705   13.2892 C   0  0  0  0  0  0  0  0  0  0  0  0
    5.8436    2.7678   11.9199 O   0  0  0  0  0  0  0  0  0  0  0  0
    6.9477    1.4408   15.2852 N   0  0  0  0  0  0  0  0  0  0  0  0
    3.3932   -0.0193   12.1263 O   0  0  0  0  0  0  0  0  0  0  0  0
    5.2891   -0.7191   14.2112 O   0  0  0  0  0  0  0  0  0  0  0  0
    8.2128    3.7455   14.6221 O   0  0  0  0  0  0  0  0  0  0  0  0
   -1.9674    7.3860   10.1465 C   0  0  1  0  0  0  0  0  0  0  0  0
   -1.6029    6.5499   11.4052 C   0  0  1  0  0  0  0  0  0  0  0  0
   -2.5415    6.8923   12.5964 C   0  0  2  0  0  0  0  0  0  0  0  0
   -2.5769    8.4242   12.9065 C   0  0  1  0  0  0  0  0  0  0  0  0
   -2.8073    9.2954   11.6355 C   0  0  0  0  0  0  0  0  0  0  0  0
   -1.8614    8.9055   10.4599 C   0  0  2  0  0  0  0  0  0  0  0  0
   -3.5868    8.7270   13.9430 N   0  0  0  0  0  0  0  0  0  0  0  0
   -2.1781    9.7399    9.2806 N   0  0  0  0  0  0  0  0  0  0  0  0
   -1.6405    5.1561   11.1161 O   0  0  0  0  0  0  0  0  0  0  0  0
   -2.1611    6.1576   13.7571 O   0  0  0  0  0  0  0  0  0  0  0  0
  1  2  1  0  0  0  0
  1 16  1  1  0  0  0
  2  3  1  0  0  0  0
  2 12  1  6  0  0  0
  4 11  1  1  0  0  0
  4  3  1  0  0  0  0
  5  4  1  0  0  0  0
  5 10  1  6  0  0  0
  6  7  1  0  0  0  0
  6  5  1  0  0  0  0
  6 14  1  6  0  0  0
  7  8  1  0  0  0  0
  7 13  1  1  0  0  0
  8 15  1  1  0  0  0
  8 11  1  0  0  0  0
  9 13  1  0  0  0  0
 10  1  1  0  0  0  0
 17 15  1  1  0  0  0
 17 18  1  0  0  0  0
 18 25  1  1  0  0  0
 19 18  1  0  0  0  0
 19 26  1  6  0  0  0
 20 19  1  0  0  0  0
 20 24  1  1  0  0  0
 21 23  1  0  0  0  0
 21 20  1  0  0  0  0
 21 22  1  6  0  0  0
 23 17  1  0  0  0  0
 27 22  1  0  0  0  0
 28 29  1  0  0  0  0
 28 16  1  6  0  0  0
 29 36  1  6  0  0  0
 30 37  1  1  0  0  0
 30 29  1  0  0  0  0
 31 30  1  0  0  0  0
 31 34  1  1  0  0  0
 32 31  1  0  0  0  0
 32 33  1  0  0  0  0
 33 28  1  0  0  0  0
 33 35  1  6  0  0  0
M  END
>  <CHROM.1>
-69.93072474,-165.78122639,152.61820914,-58.23505524,-175.71213278,160.93884678
52.19434776,60.14161971,-62.07265762,-174.56161445,-65.51723442,-74.53148493
67.72816058,-46.33490177,58.55267169,-57.38493598,1.91389181,4.99442219,11.84460082
-2.77184492,-0.63597663,1.70964200

>  <Name>
lig.pdb

>  <RI>
3.87352e+07

>  <Rbt.Current_Directory>
/home/itssahil/PROJECTS/Mol_Feturizer/New_Systems/rnas/2m4q

>  <Rbt.Executable>
rbdock ($Id: //depot/dev/client3/rdock/2013.1/src/exe/rbdock.cxx#4 $)

>  <Rbt.Library>
libRbt.so (2013.1, Build901 2013/11/27)

>  <Rbt.Parameter_File>
/export/apps/rDock/src/rDock_2013.1_src/data/scripts/dock_solv.prm

>  <Rbt.Receptor>
prm/pocket_docking_4.prm

>  <SCORE>
-48.1449

>  <SCORE.INTER>
-29.1583

>  <SCORE.INTER.CONST>
1

>  <SCORE.INTER.POLAR>
-4.95161

>  <SCORE.INTER.ROT>
10

>  <SCORE.INTER.SOLV>
15.8598

>  <SCORE.INTER.VDW>
-18.4868

>  <SCORE.INTER.norm>
-0.788062

>  <SCORE.INTRA>
-20.094

>  <SCORE.INTRA.DIHEDRAL>
-37.7856

>  <SCORE.INTRA.DIHEDRAL.0>
44.8331

>  <SCORE.INTRA.POLAR>
-0.398833

>  <SCORE.INTRA.POLAR.0>
-0.108895

>  <SCORE.INTRA.REPUL>
-0.00912235

>  <SCORE.INTRA.REPUL.0>
0.00912235

>  <SCORE.INTRA.SOLV>
-0.454603

>  <SCORE.INTRA.SOLV.lig_0>
-53.9067

>  <SCORE.INTRA.VDW>
0.427761

>  <SCORE.INTRA.VDW.0>
-2.93492

>  <SCORE.INTRA.norm>
-0.543081

>  <SCORE.RESTR>
1.10735

>  <SCORE.RESTR.CAVITY>
1.10735

>  <SCORE.RESTR.norm>
0.0299283

>  <SCORE.SYSTEM>
0

>  <SCORE.SYSTEM.CONST>
0

>  <SCORE.SYSTEM.DIHEDRAL>
0

>  <SCORE.SYSTEM.SOLV>
0

>  <SCORE.SYSTEM.norm>
0

>  <SCORE.heavy>
37

>  <SCORE.norm>
-1.30121

>  <RMSD>
4.845

$$$$
lig.pdb
 OpenBabel11021811453D
libRbt.so/2013.1/901 2013/11/27
 37 40  0  0  0  0  0  0  0  0999 V2000
   -1.1406    8.0230    8.2968 C   0  0  2  0  0  0  0  0  0  0  0  0
   -0.7302    7.4780    6.8891 C   0  0  1  0  0  0  0  0  0  0  0  0
    0.2597    6.2784    6.9583 C   0  0  0  0  0  0  0  0  0  0  0  0
    1.4425    6.5857    7.9098 C   0  0  1  0  0  0  0  0  0  0  0  0
    0.9072    6.9753    9.3059 C   0  0  1  0  0  0  0  0  0  0  0  0
    2.0735    7.2438   10.2945 C   0  0  1  0  0  0  0  0  0  0  0  0
    3.0568    6.0362   10.3345 C   0  0  1  0  0  0  0  0  0  0  0  0
    3.5166    5.6108    8.9084 C   0  0  2  0  0  0  0  0  0  0  0  0
    4.7428    5.1790   11.8954 C   0  0  0  0  0  0  0  0  0  0  0  0
    0.0062    8.1154    9.2030 O   0  0  0  0  0  0  0  0  0  0  0  0
    2.3822    5.4762    7.9980 O   0  0  0  0  0  0  0  0  0  0  0  0
   -1.9392    7.0812    6.1352 N   0  0  0  0  0  0  0  0  0  0  0  0
    4.2004    6.3708   11.2081 N   0  0  0  0  0  0  0  0  0  0  0  0
    2.7532    8.4512    9.9757 O   0  0  0  0  0  0  0  0  0  0  0  0
    4.2945    4.3797    8.9706 O   0  0  0  0  0  0  0  0  0  0  0  0
   -2.1963    7.2077    8.8912 O   0  0  0  0  0  0  0  0  0  0  0  0
    5.2595    4.1107    7.9074 C   0  0  2  0  0  0  0  0  0  0  0  0
    6.2619    3.0003    8.3326 C   0  0  1  0  0  0  0  0  0  0  0  0
    7.2460    3.5016    9.4281 C   0  0  2  0  0  0  0  0  0  0  0  0
    7.9489    4.8196    8.9912 C   0  0  1  0  0  0  0  0  0  0  0  0
    6.9139    5.8885    8.5421 C   0  0  1  0  0  0  0  0  0  0  0  0
    7.6030    7.1576    7.9756 C   0  0  0  0  0  0  0  0  0  0  0  0
    5.9923    5.3237    7.5608 O   0  0  0  0  0  0  0  0  0  0  0  0
    8.8340    5.3390   10.0567 N   0  0  0  0  0  0  0  0  0  0  0  0
    5.5641    1.8269    8.7459 O   0  0  0  0  0  0  0  0  0  0  0  0
    8.2005    2.4962    9.7620 O   0  0  0  0  0  0  0  0  0  0  0  0
    6.6557    8.2010    7.7723 O   0  0  0  0  0  0  0  0  0  0  0  0
   -2.4442    7.3571   10.3196 C   0  0  1  0  0  0  0  0  0  0  0  0
   -1.4387    6.5351   11.1736 C   0  0  1  0  0  0  0  0  0  0  0  0
   -1.7800    6.6309   12.6874 C   0  0  2  0  0  0  0  0  0  0  0  0
   -1.8891    8.1099   13.1817 C   0  0  1  0  0  0  0  0  0  0  0  0
   -2.7869    8.9920   12.2633 C   0  0  0  0  0  0  0  0  0  0  0  0
   -2.4254    8.8502   10.7540 C   0  0  2  0  0  0  0  0  0  0  0  0
   -2.3572    8.1621   14.5832 N   0  0  0  0  0  0  0  0  0  0  0  0
   -3.3528    9.6751    9.9498 N   0  0  0  0  0  0  0  0  0  0  0  0
   -1.4043    5.1768   10.7478 O   0  0  0  0  0  0  0  0  0  0  0  0
   -0.8189    5.9165   13.4605 O   0  0  0  0  0  0  0  0  0  0  0  0
  1  2  1  0  0  0  0
  1 16  1  1  0  0  0
  2  3  1  0  0  0  0
  2 12  1  1  0  0  0
  4 11  1  1  0  0  0
  4  3  1  0  0  0  0
  5  4  1  0  0  0  0
  5 10  1  6  0  0  0
  6  7  1  0  0  0  0
  6  5  1  0  0  0  0
  6 14  1  6  0  0  0
  7  8  1  0  0  0  0
  7 13  1  1  0  0  0
  8 15  1  1  0  0  0
  8 11  1  0  0  0  0
  9 13  1  0  0  0  0
 10  1  1  0  0  0  0
 17 15  1  1  0  0  0
 17 18  1  0  0  0  0
 18 25  1  1  0  0  0
 19 18  1  0  0  0  0
 19 26  1  6  0  0  0
 20 19  1  0  0  0  0
 20 24  1  1  0  0  0
 21 23  1  0  0  0  0
 21 20  1  0  0  0  0
 21 22  1  6  0  0  0
 23 17  1  0  0  0  0
 27 22  1  0  0  0  0
 28 29  1  0  0  0  0
 28 16  1  6  0  0  0
 29 36  1  6  0  0  0
 30 37  1  1  0  0  0
 30 29  1  0  0  0  0
 31 30  1  0  0  0  0
 31 34  1  1  0  0  0
 32 31  1  0  0  0  0
 32 33  1  0  0  0  0
 33 28  1  0  0  0  0
 33 35  1  6  0  0  0
M  END
>  <CHROM.1>
109.67552591,-154.78673329,148.30558053,-58.09242017,163.76213579,164.18214923
70.69089071,-172.44675909,-170.63870253,-52.35413683,-176.78710577,-81.41484031
-175.87320080,-171.50131093,58.66883463,39.36859930,2.17887697,6.29296391
9.66849918,2.99284745,-0.36362024,1.71006385

>  <Name>
lig.pdb

>  <RI>
2.86754e+07

>  <Rbt.Current_Directory>
/home/itssahil/PROJECTS/Mol_Feturizer/New_Systems/rnas/2m4q

>  <Rbt.Executable>
rbdock ($Id: //depot/dev/client3/rdock/2013.1/src/exe/rbdock.cxx#4 $)

>  <Rbt.Library>
libRbt.so (2013.1, Build901 2013/11/27)

>  <Rbt.Parameter_File>
/export/apps/rDock/src/rDock_2013.1_src/data/scripts/dock_solv.prm

>  <Rbt.Receptor>
prm/pocket_docking_5.prm

>  <SCORE>
-40.2833

>  <SCORE.INTER>
-22.5511

>  <SCORE.INTER.CONST>
1

>  <SCORE.INTER.POLAR>
-3.74089

>  <SCORE.INTER.ROT>
10

>  <SCORE.INTER.SOLV>
15.6507

>  <SCORE.INTER.VDW>
-18.048

>  <SCORE.INTER.norm>
-0.609489

>  <SCORE.INTRA>
-17.7322

>  <SCORE.INTRA.DIHEDRAL>
-31.4687

>  <SCORE.INTRA.DIHEDRAL.0>
44.8331

>  <SCORE.INTRA.POLAR>
-0.0904691

>  <SCORE.INTRA.POLAR.0>
-0.108895

>  <SCORE.INTRA.REPUL>
-0.00912235

>  <SCORE.INTRA.REPUL.0>
0.00912235

>  <SCORE.INTRA.SOLV>
-1.08771

>  <SCORE.INTRA.SOLV.lig_0>
-53.9067

>  <SCORE.INTRA.VDW>
-1.1008

>  <SCORE.INTRA.VDW.0>
-2.93492

>  <SCORE.INTRA.norm>
-0.479249

>  <SCORE.RESTR>
0

>  <SCORE.RESTR.CAVITY>
0

>  <SCORE.RESTR.norm>
0

>  <SCORE.SYSTEM>
0

>  <SCORE.SYSTEM.CONST>
0

>  <SCORE.SYSTEM.DIHEDRAL>
0

>  <SCORE.SYSTEM.SOLV>
0

>  <SCORE.SYSTEM.norm>
0

>  <SCORE.heavy>
37

>  <SCORE.norm>
-1.08874

>  <RMSD>
4.855

$$$$
lig.pdb
 OpenBabel11021811453D
libRbt.so/2013.1/901 2013/11/27
 37 40  0  0  0  0  0  0  0  0999 V2000
    0.4114    6.8720    9.1298 C   0  0  2  0  0  0  0  0  0  0  0  0
    1.3452    6.1164    8.1278 C   0  0  1  0  0  0  0  0  0  0  0  0
    2.0183    4.8556    8.7451 C   0  0  0  0  0  0  0  0  0  0  0  0
    2.6597    5.1813   10.1168 C   0  0  1  0  0  0  0  0  0  0  0  0
    1.6006    5.7926   11.0612 C   0  0  1  0  0  0  0  0  0  0  0  0
    2.2052    6.0860   12.4604 C   0  0  1  0  0  0  0  0  0  0  0  0
    2.8849    4.8141   13.0496 C   0  0  1  0  0  0  0  0  0  0  0  0
    3.8868    4.1701   12.0459 C   0  0  2  0  0  0  0  0  0  0  0  0
    2.6076    5.0153   15.4779 C   0  0  0  0  0  0  0  0  0  0  0  0
    1.0128    6.9826   10.4606 O   0  0  0  0  0  0  0  0  0  0  0  0
    3.2924    4.0162   10.7204 O   0  0  0  0  0  0  0  0  0  0  0  0
    0.5775    5.7302    6.9240 N   0  0  0  0  0  0  0  0  0  0  0  0
    3.5316    5.1600   14.3323 N   0  0  0  0  0  0  0  0  0  0  0  0
    3.1126    7.1795   12.4120 O   0  0  0  0  0  0  0  0  0  0  0  0
    4.3729    2.8954   12.5593 O   0  0  0  0  0  0  0  0  0  0  0  0
   -0.8994    6.2337    9.2137 O   0  0  0  0  0  0  0  0  0  0  0  0
    5.4284    2.2045   11.8228 C   0  0  2  0  0  0  0  0  0  0  0  0
    5.7166    0.8070   12.4415 C   0  0  1  0  0  0  0  0  0  0  0  0
    6.4243    0.9233   13.8219 C   0  0  2  0  0  0  0  0  0  0  0  0
    7.6931    1.8197   13.7289 C   0  0  1  0  0  0  0  0  0  0  0  0
    7.3677    3.1912   13.0741 C   0  0  1  0  0  0  0  0  0  0  0  0
    8.6453    4.0419   12.8499 C   0  0  0  0  0  0  0  0  0  0  0  0
    6.6528    2.9976   11.8160 O   0  0  0  0  0  0  0  0  0  0  0  0
    8.3321    1.9911   15.0521 N   0  0  0  0  0  0  0  0  0  0  0  0
    4.5173    0.0393   12.5255 O   0  0  0  0  0  0  0  0  0  0  0  0
    6.7415   -0.3635   14.3480 O   0  0  0  0  0  0  0  0  0  0  0  0
    8.3220    5.2965   12.2593 O   0  0  0  0  0  0  0  0  0  0  0  0
   -1.8256    6.7197   10.2285 C   0  0  1  0  0  0  0  0  0  0  0  0
   -1.4039    6.2810   11.6589 C   0  0  1  0  0  0  0  0  0  0  0  0
   -2.4550    6.7264   12.7143 C   0  0  2  0  0  0  0  0  0  0  0  0
   -2.7603    8.2579   12.6425 C   0  0  1  0  0  0  0  0  0  0  0  0
   -3.0551    8.7506   11.1941 C   0  0  0  0  0  0  0  0  0  0  0  0
   -1.9899    8.2648   10.1654 C   0  0  2  0  0  0  0  0  0  0  0  0
   -3.8660    8.6164   13.5563 N   0  0  0  0  0  0  0  0  0  0  0  0
   -2.3690    8.7290    8.8133 N   0  0  0  0  0  0  0  0  0  0  0  0
   -1.1945    4.8737   11.7162 O   0  0  0  0  0  0  0  0  0  0  0  0
   -2.0285    6.3641   14.0253 O   0  0  0  0  0  0  0  0  0  0  0  0
  1  2  1  0  0  0  0
  1 16  1  1  0  0  0
  2  3  1  0  0  0  0
  2 12  1  6  0  0  0
  4 11  1  1  0  0  0
  4  3  1  0  0  0  0
  5  4  1  0  0  0  0
  5 10  1  6  0  0  0
  6  7  1  0  0  0  0
  6  5  1  0  0  0  0
  6 14  1  6  0  0  0
  7  8  1  0  0  0  0
  7 13  1  1  0  0  0
  8 15  1  1  0  0  0
  8 11  1  0  0  0  0
  9 13  1  0  0  0  0
 10  1  1  0  0  0  0
 17 15  1  1  0  0  0
 17 18  1  0  0  0  0
 18 25  1  1  0  0  0
 19 18  1  0  0  0  0
 19 26  1  6  0  0  0
 20 19  1  0  0  0  0
 20 24  1  1  0  0  0
 21 23  1  0  0  0  0
 21 20  1  0  0  0  0
 21 22  1  6  0  0  0
 23 17  1  0  0  0  0
 27 22  1  0  0  0  0
 28 29  1  0  0  0  0
 28 16  1  6  0  0  0
 29 36  1  6  0  0  0
 30 37  1  1  0  0  0
 30 29  1  0  0  0  0
 31 30  1  0  0  0  0
 31 34  1  1  0  0  0
 32 31  1  0  0  0  0
 32 33  1  0  0  0  0
 33 28  1  0  0  0  0
 33 35  1  6  0  0  0
M  END
>  <CHROM.1>
165.29220892,-173.76100761,88.48728067,-172.71421757,-174.50243033,172.50175963
166.63883033,38.41328100,-179.54954991,-45.06929077,179.08399760,-72.91847288
53.78936898,-47.89465743,-57.86347724,59.05482964,2.39095002,4.93588130,11.84015772
-2.82716454,-0.50739322,1.73142092

>  <Name>
lig.pdb

>  <RI>
0

>  <Rbt.Current_Directory>
/home/itssahil/PROJECTS/Mol_Feturizer/New_Systems/rnas/2m4q

>  <Rbt.Executable>
rbdock ($Id: //depot/dev/client3/rdock/2013.1/src/exe/rbdock.cxx#4 $)

>  <Rbt.Library>
libRbt.so (2013.1, Build901 2013/11/27)

>  <Rbt.Parameter_File>
/export/apps/rDock/src/rDock_2013.1_src/data/scripts/dock_solv.prm

>  <Rbt.Receptor>
prm/pocket_docking_6.prm

>  <SCORE>
-40.3995

>  <SCORE.INTER>
-20.5183

>  <SCORE.INTER.CONST>
1

>  <SCORE.INTER.POLAR>
-3.20244

>  <SCORE.INTER.ROT>
10

>  <SCORE.INTER.SOLV>
16.5463

>  <SCORE.INTER.VDW>
-18.7862

>  <SCORE.INTER.norm>
-0.55455

>  <SCORE.INTRA>
-19.8812

>  <SCORE.INTRA.DIHEDRAL>
-37.0268

>  <SCORE.INTRA.DIHEDRAL.0>
44.8331

>  <SCORE.INTRA.POLAR>
-0.114361

>  <SCORE.INTRA.POLAR.0>
-0.108895

>  <SCORE.INTRA.REPUL>
-0.00912235

>  <SCORE.INTRA.REPUL.0>
0.00912235

>  <SCORE.INTRA.SOLV>
-1.73099

>  <SCORE.INTRA.SOLV.lig_0>
-53.9067

>  <SCORE.INTRA.VDW>
-0.067866

>  <SCORE.INTRA.VDW.0>
-2.93492

>  <SCORE.INTRA.norm>
-0.537329

>  <SCORE.RESTR>
0

>  <SCORE.RESTR.CAVITY>
0

>  <SCORE.RESTR.norm>
0

>  <SCORE.SYSTEM>
0

>  <SCORE.SYSTEM.CONST>
0

>  <SCORE.SYSTEM.DIHEDRAL>
0

>  <SCORE.SYSTEM.SOLV>
0

>  <SCORE.SYSTEM.norm>
0

>  <SCORE.heavy>
37

>  <SCORE.norm>
-1.09188

>  <RMSD>
4.885

$$$$
lig.pdb
 OpenBabel11021811453D
libRbt.so/2013.1/901 2013/11/27
 37 40  0  0  0  0  0  0  0  0999 V2000
    1.0882    5.8359    7.7120 C   0  0  2  0  0  0  0  0  0  0  0  0
    0.5883    4.8546    8.8231 C   0  0  1  0  0  0  0  0  0  0  0  0
    1.5549    4.7586   10.0397 C   0  0  0  0  0  0  0  0  0  0  0  0
    3.0147    4.5301    9.5752 C   0  0  1  0  0  0  0  0  0  0  0  0
    3.4339    5.6439    8.5898 C   0  0  1  0  0  0  0  0  0  0  0  0
    4.9099    5.4659    8.1435 C   0  0  1  0  0  0  0  0  0  0  0  0
    5.8542    5.3577    9.3777 C   0  0  1  0  0  0  0  0  0  0  0  0
    5.3635    4.2854   10.3953 C   0  0  2  0  0  0  0  0  0  0  0  0
    7.9294    6.3280    8.5025 C   0  0  0  0  0  0  0  0  0  0  0  0
    2.5221    5.6854    7.4544 O   0  0  0  0  0  0  0  0  0  0  0  0
    3.9425    4.4422   10.6948 O   0  0  0  0  0  0  0  0  0  0  0  0
   -0.7541    5.2676    9.2869 N   0  0  0  0  0  0  0  0  0  0  0  0
    7.2311    5.0907    8.9129 N   0  0  0  0  0  0  0  0  0  0  0  0
    5.0574    4.3445    7.2820 O   0  0  0  0  0  0  0  0  0  0  0  0
    6.1686    4.3302   11.6096 O   0  0  0  0  0  0  0  0  0  0  0  0
    0.7733    7.2211    8.0505 O   0  0  0  0  0  0  0  0  0  0  0  0
    6.0111    3.2588   12.5900 C   0  0  2  0  0  0  0  0  0  0  0  0
    6.9316    3.4909   13.8219 C   0  0  1  0  0  0  0  0  0  0  0  0
    8.4311    3.2744   13.4691 C   0  0  2  0  0  0  0  0  0  0  0  0
    8.6555    1.8895   12.7957 C   0  0  1  0  0  0  0  0  0  0  0  0
    7.6930    1.6850   11.5926 C   0  0  1  0  0  0  0  0  0  0  0  0
    7.8091    0.2578   10.9959 C   0  0  0  0  0  0  0  0  0  0  0  0
    6.3161    1.9648   11.9892 O   0  0  0  0  0  0  0  0  0  0  0  0
   10.0676    1.7057   12.3948 N   0  0  0  0  0  0  0  0  0  0  0  0
    6.7017    4.7821   14.3829 O   0  0  0  0  0  0  0  0  0  0  0  0
    9.2581    3.4259   14.6208 O   0  0  0  0  0  0  0  0  0  0  0  0
    9.1440   -0.0107   10.5794 O   0  0  0  0  0  0  0  0  0  0  0  0
    1.1952    8.2588    7.1183 C   0  0  1  0  0  0  0  0  0  0  0  0
    2.7408    8.4220    7.0902 C   0  0  1  0  0  0  0  0  0  0  0  0
    3.1633    9.5970    6.1639 C   0  0  2  0  0  0  0  0  0  0  0  0
    2.5665    9.4665    4.7250 C   0  0  1  0  0  0  0  0  0  0  0  0
    1.0373    9.1676    4.7271 C   0  0  0  0  0  0  0  0  0  0  0  0
    0.6549    7.9981    5.6835 C   0  0  2  0  0  0  0  0  0  0  0  0
    2.8669   10.6701    3.9206 N   0  0  0  0  0  0  0  0  0  0  0  0
   -0.8124    7.8133    5.6670 N   0  0  0  0  0  0  0  0  0  0  0  0
    3.2550    8.6046    8.4054 O   0  0  0  0  0  0  0  0  0  0  0  0
    4.5839    9.6999    6.1069 O   0  0  0  0  0  0  0  0  0  0  0  0
  1  2  1  0  0  0  0
  1 16  1  1  0  0  0
  2  3  1  0  0  0  0
  2 12  1  1  0  0  0
  4 11  1  1  0  0  0
  4  3  1  0  0  0  0
  5  4  1  0  0  0  0
  5 10  1  6  0  0  0
  6  7  1  0  0  0  0
  6  5  1  0  0  0  0
  6 14  1  1  0  0  0
  7  8  1  0  0  0  0
  7 13  1  6  0  0  0
  8 15  1  1  0  0  0
  8 11  1  0  0  0  0
  9 13  1  0  0  0  0
 10  1  1  0  0  0  0
 17 15  1  6  0  0  0
 17 18  1  0  0  0  0
 18 25  1  6  0  0  0
 19 18  1  0  0  0  0
 19 26  1  1  0  0  0
 20 19  1  0  0  0  0
 20 24  1  6  0  0  0
 21 23  1  0  0  0  0
 21 20  1  0  0  0  0
 21 22  1  1  0  0  0
 23 17  1  0  0  0  0
 27 22  1  0  0  0  0
 28 29  1  0  0  0  0
 28 16  1  1  0  0  0
 29 36  1  1  0  0  0
 30 37  1  6  0  0  0
 30 29  1  0  0  0  0
 31 30  1  0  0  0  0
 31 34  1  6  0  0  0
 32 31  1  0  0  0  0
 32 33  1  0  0  0  0
 33 28  1  0  0  0  0
 33 35  1  1  0  0  0
M  END
>  <CHROM.1>
64.02507947,-169.89654511,82.43771789,63.05451852,-179.08328443,179.09732091
176.41820341,-173.88830911,-57.80845002,-42.46410440,170.15360260,-69.10146866
175.24419461,-62.97570300,-62.73667929,166.77230424,4.55951048,5.37145954
9.29837052,2.21869352,-0.05469400,-0.77378444

>  <Name>
lig.pdb

>  <RI>
0

>  <Rbt.Current_Directory>
/home/itssahil/PROJECTS/Mol_Feturizer/New_Systems/rnas/2m4q

>  <Rbt.Executable>
rbdock ($Id: //depot/dev/client3/rdock/2013.1/src/exe/rbdock.cxx#4 $)

>  <Rbt.Library>
libRbt.so (2013.1, Build901 2013/11/27)

>  <Rbt.Parameter_File>
/export/apps/rDock/src/rDock_2013.1_src/data/scripts/dock_solv.prm

>  <Rbt.Receptor>
prm/pocket_docking_7.prm

>  <SCORE>
-36.6349

>  <SCORE.INTER>
-15.7941

>  <SCORE.INTER.CONST>
1

>  <SCORE.INTER.POLAR>
-3.21062

>  <SCORE.INTER.ROT>
10

>  <SCORE.INTER.SOLV>
14.1588

>  <SCORE.INTER.VDW>
-14.8136

>  <SCORE.INTER.norm>
-0.426868

>  <SCORE.INTRA>
-20.8408

>  <SCORE.INTRA.DIHEDRAL>
-40.8568

>  <SCORE.INTRA.DIHEDRAL.0>
44.8331

>  <SCORE.INTRA.POLAR>
0.0727192

>  <SCORE.INTRA.POLAR.0>
-0.108895

>  <SCORE.INTRA.REPUL>
-0.00912235

>  <SCORE.INTRA.REPUL.0>
0.00912235

>  <SCORE.INTRA.SOLV>
-0.94454

>  <SCORE.INTRA.SOLV.lig_0>
-53.9067

>  <SCORE.INTRA.VDW>
-0.141741

>  <SCORE.INTRA.VDW.0>
-2.93492

>  <SCORE.INTRA.norm>
-0.563264

>  <SCORE.RESTR>
0

>  <SCORE.RESTR.CAVITY>
0

>  <SCORE.RESTR.norm>
0

>  <SCORE.SYSTEM>
0

>  <SCORE.SYSTEM.CONST>
0

>  <SCORE.SYSTEM.DIHEDRAL>
0

>  <SCORE.SYSTEM.SOLV>
0

>  <SCORE.SYSTEM.norm>
0

>  <SCORE.heavy>
37

>  <SCORE.norm>
-0.990132

>  <RMSD>
4.893

$$$$
lig.pdb
 OpenBabel11021811453D
libRbt.so/2013.1/901 2013/11/27
 37 40  0  0  0  0  0  0  0  0999 V2000
   -1.0653    7.9049    8.1446 C   0  0  2  0  0  0  0  0  0  0  0  0
   -2.1888    7.6858    9.2109 C   0  0  1  0  0  0  0  0  0  0  0  0
   -1.6356    7.3800   10.6337 C   0  0  0  0  0  0  0  0  0  0  0  0
   -0.5558    6.2706   10.5854 C   0  0  1  0  0  0  0  0  0  0  0  0
    0.5667    6.6713    9.6021 C   0  0  1  0  0  0  0  0  0  0  0  0
    1.6873    5.5976    9.5688 C   0  0  1  0  0  0  0  0  0  0  0  0
    2.2132    5.2990   11.0044 C   0  0  1  0  0  0  0  0  0  0  0  0
    1.0547    4.9790   11.9952 C   0  0  2  0  0  0  0  0  0  0  0  0
    4.0183    4.1187   12.1716 C   0  0  0  0  0  0  0  0  0  0  0  0
    0.0141    6.9240    8.2781 O   0  0  0  0  0  0  0  0  0  0  0  0
   -0.0162    5.9683   11.9042 O   0  0  0  0  0  0  0  0  0  0  0  0
   -3.0655    8.8758    9.2643 N   0  0  0  0  0  0  0  0  0  0  0  0
    3.2044    4.2051   10.9399 N   0  0  0  0  0  0  0  0  0  0  0  0
    1.2455    4.4097    8.9245 O   0  0  0  0  0  0  0  0  0  0  0  0
    1.5641    4.8739   13.3569 O   0  0  0  0  0  0  0  0  0  0  0  0
   -0.5320    9.2627    8.2111 O   0  0  0  0  0  0  0  0  0  0  0  0
    0.6224    4.5706   14.4317 C   0  0  2  0  0  0  0  0  0  0  0  0
    1.1578    5.0773   15.8011 C   0  0  1  0  0  0  0  0  0  0  0  0
    2.3662    4.2316   16.2955 C   0  0  2  0  0  0  0  0  0  0  0  0
    2.0245    2.7133   16.3011 C   0  0  1  0  0  0  0  0  0  0  0  0
    1.4611    2.2571   14.9263 C   0  0  1  0  0  0  0  0  0  0  0  0
    0.9887    0.7799   14.9570 C   0  0  0  0  0  0  0  0  0  0  0  0
    0.3732    3.1351   14.5054 O   0  0  0  0  0  0  0  0  0  0  0  0
    3.1913    1.8981   16.7040 N   0  0  0  0  0  0  0  0  0  0  0  0
    1.4776    6.4656   15.7314 O   0  0  0  0  0  0  0  0  0  0  0  0
    2.8059    4.6643   17.5812 O   0  0  0  0  0  0  0  0  0  0  0  0
    2.0557   -0.0861   15.3297 O   0  0  0  0  0  0  0  0  0  0  0  0
    0.6258    9.5769    7.3836 C   0  0  1  0  0  0  0  0  0  0  0  0
    0.3289    9.3831    5.8702 C   0  0  1  0  0  0  0  0  0  0  0  0
    1.6026    9.6293    5.0133 C   0  0  2  0  0  0  0  0  0  0  0  0
    2.2572   11.0189    5.3037 C   0  0  1  0  0  0  0  0  0  0  0  0
    2.4430   11.2959    6.8257 C   0  0  0  0  0  0  0  0  0  0  0  0
    1.1500   11.0167    7.6497 C   0  0  2  0  0  0  0  0  0  0  0  0
    3.5408   11.1557    4.5828 N   0  0  0  0  0  0  0  0  0  0  0  0
    1.4240   11.2525    9.0838 N   0  0  0  0  0  0  0  0  0  0  0  0
   -0.2058    8.0871    5.6207 O   0  0  0  0  0  0  0  0  0  0  0  0
    1.3018    9.5003    3.6260 O   0  0  0  0  0  0  0  0  0  0  0  0
  1  2  1  0  0  0  0
  1 16  1  1  0  0  0
  2  3  1  0  0  0  0
  2 12  1  1  0  0  0
  4 11  1  1  0  0  0
  4  3  1  0  0  0  0
  5  4  1  0  0  0  0
  5 10  1  6  0  0  0
  6  7  1  0  0  0  0
  6  5  1  0  0  0  0
  6 14  1  1  0  0  0
  7  8  1  0  0  0  0
  7 13  1  6  0  0  0
  8 15  1  1  0  0  0
  8 11  1  0  0  0  0
  9 13  1  0  0  0  0
 10  1  1  0  0  0  0
 17 15  1  6  0  0  0
 17 18  1  0  0  0  0
 18 25  1  6  0  0  0
 19 18  1  0  0  0  0
 19 26  1  1  0  0  0
 20 19  1  0  0  0  0
 20 24  1  6  0  0  0
 21 23  1  0  0  0  0
 21 20  1  0  0  0  0
 21 22  1  1  0  0  0
 23 17  1  0  0  0  0
 27 22  1  0  0  0  0
 28 29  1  0  0  0  0
 28 16  1  1  0  0  0
 29 36  1  1  0  0  0
 30 37  1  6  0  0  0
 30 29  1  0  0  0  0
 31 30  1  0  0  0  0
 31 34  1  6  0  0  0
 32 31  1  0  0  0  0
 32 33  1  0  0  0  0
 33 28  1  0  0  0  0
 33 35  1  1  0  0  0
M  END
>  <CHROM.1>
-73.33018064,-179.72131101,163.94349801,-53.52208618,-155.80383475,173.19965953
171.55149027,-65.80107821,-58.17607259,76.36227780,178.14519614,60.53153527
175.81274233,57.50054676,62.51936962,-172.07985286,1.08186963,6.40462292
10.76090936,1.67428413,0.57915318,-0.99207787

>  <Name>
lig.pdb

>  <RI>
0

>  <Rbt.Current_Directory>
/home/itssahil/PROJECTS/Mol_Feturizer/New_Systems/rnas/2m4q

>  <Rbt.Executable>
rbdock ($Id: //depot/dev/client3/rdock/2013.1/src/exe/rbdock.cxx#4 $)

>  <Rbt.Library>
libRbt.so (2013.1, Build901 2013/11/27)

>  <Rbt.Parameter_File>
/export/apps/rDock/src/rDock_2013.1_src/data/scripts/dock_solv.prm

>  <Rbt.Receptor>
prm/pocket_docking_7.prm

>  <SCORE>
-35.3583

>  <SCORE.INTER>
-14.603

>  <SCORE.INTER.CONST>
1

>  <SCORE.INTER.POLAR>
-2.96163

>  <SCORE.INTER.ROT>
10

>  <SCORE.INTER.SOLV>
11.3573

>  <SCORE.INTER.VDW>
-13.9157

>  <SCORE.INTER.norm>
-0.394675

>  <SCORE.INTRA>
-20.7553

>  <SCORE.INTRA.DIHEDRAL>
-39.4827

>  <SCORE.INTRA.DIHEDRAL.0>
44.8331

>  <SCORE.INTRA.POLAR>
-0.656273

>  <SCORE.INTRA.POLAR.0>
-0.108895

>  <SCORE.INTRA.REPUL>
0.000712472

>  <SCORE.INTRA.REPUL.0>
0.00912235

>  <SCORE.INTRA.SOLV>
-1.19003

>  <SCORE.INTRA.SOLV.lig_0>
-53.9067

>  <SCORE.INTRA.VDW>
1.80882

>  <SCORE.INTRA.VDW.0>
-2.93492

>  <SCORE.INTRA.norm>
-0.560955

>  <SCORE.RESTR>
0

>  <SCORE.RESTR.CAVITY>
0

>  <SCORE.RESTR.norm>
0

>  <SCORE.SYSTEM>
0

>  <SCORE.SYSTEM.CONST>
0

>  <SCORE.SYSTEM.DIHEDRAL>
0

>  <SCORE.SYSTEM.SOLV>
0

>  <SCORE.SYSTEM.norm>
0

>  <SCORE.heavy>
37

>  <SCORE.norm>
-0.95563

>  <RMSD>
4.972

$$$$
lig.pdb
 OpenBabel11021811453D
libRbt.so/2013.1/901 2013/11/27
 37 40  0  0  0  0  0  0  0  0999 V2000
    0.3688    7.0221    9.5146 C   0  0  2  0  0  0  0  0  0  0  0  0
    1.2663    5.8123    9.0928 C   0  0  1  0  0  0  0  0  0  0  0  0
    1.3830    4.7188   10.1948 C   0  0  0  0  0  0  0  0  0  0  0  0
    1.7345    5.3455   11.5669 C   0  0  1  0  0  0  0  0  0  0  0  0
    0.6941    6.4274   11.9333 C   0  0  1  0  0  0  0  0  0  0  0  0
    0.9956    7.0405   13.3272 C   0  0  1  0  0  0  0  0  0  0  0  0
    1.1221    5.9263   14.4085 C   0  0  1  0  0  0  0  0  0  0  0  0
    2.1148    4.8058   13.9781 C   0  0  2  0  0  0  0  0  0  0  0  0
    0.3497    7.1503   16.3881 C   0  0  0  0  0  0  0  0  0  0  0  0
    0.6324    7.4443   10.8920 O   0  0  0  0  0  0  0  0  0  0  0  0
    1.8441    4.3439   12.6189 O   0  0  0  0  0  0  0  0  0  0  0  0
    0.7395    5.2095    7.8491 N   0  0  0  0  0  0  0  0  0  0  0  0
    1.5060    6.5414   15.6959 N   0  0  0  0  0  0  0  0  0  0  0  0
    2.1583    7.8581   13.2913 O   0  0  0  0  0  0  0  0  0  0  0  0
    2.0795    3.7019   14.9292 O   0  0  0  0  0  0  0  0  0  0  0  0
   -1.0479    6.7155    9.3372 O   0  0  0  0  0  0  0  0  0  0  0  0
    0.8604    2.9028   15.0245 C   0  0  2  0  0  0  0  0  0  0  0  0
    0.4325    2.7136   16.5077 C   0  0  1  0  0  0  0  0  0  0  0  0
    1.4012    1.7646   17.2698 C   0  0  2  0  0  0  0  0  0  0  0  0
    1.5788    0.4168   16.5123 C   0  0  1  0  0  0  0  0  0  0  0  0
    1.9718    0.6523   15.0272 C   0  0  1  0  0  0  0  0  0  0  0  0
    2.0193   -0.6745   14.2248 C   0  0  0  0  0  0  0  0  0  0  0  0
    1.0523    1.5978   14.4012 O   0  0  0  0  0  0  0  0  0  0  0  0
    2.5522   -0.4631   17.1955 N   0  0  0  0  0  0  0  0  0  0  0  0
    0.3093    3.9769   17.1586 O   0  0  0  0  0  0  0  0  0  0  0  0
    0.9619    1.5476   18.6090 O   0  0  0  0  0  0  0  0  0  0  0  0
    2.6397   -0.4792   12.9582 O   0  0  0  0  0  0  0  0  0  0  0  0
   -1.8689    7.6915    8.6318 C   0  0  1  0  0  0  0  0  0  0  0  0
   -2.2629    8.8874    9.5433 C   0  0  1  0  0  0  0  0  0  0  0  0
   -3.2165    9.8664    8.8021 C   0  0  2  0  0  0  0  0  0  0  0  0
   -2.6325   10.3463    7.4338 C   0  0  1  0  0  0  0  0  0  0  0  0
   -2.1050    9.1734    6.5542 C   0  0  0  0  0  0  0  0  0  0  0  0
   -1.1707    8.2053    7.3407 C   0  0  2  0  0  0  0  0  0  0  0  0
   -3.6249   11.1548    6.6938 N   0  0  0  0  0  0  0  0  0  0  0  0
   -0.7572    7.0968    6.4533 N   0  0  0  0  0  0  0  0  0  0  0  0
   -2.8521    8.4280   10.7555 O   0  0  0  0  0  0  0  0  0  0  0  0
   -3.5257   10.9836    9.6314 O   0  0  0  0  0  0  0  0  0  0  0  0
  1  2  1  0  0  0  0
  1 16  1  1  0  0  0
  2  3  1  0  0  0  0
  2 12  1  6  0  0  0
  4 11  1  1  0  0  0
  4  3  1  0  0  0  0
  5  4  1  0  0  0  0
  5 10  1  6  0  0  0
  6  7  1  0  0  0  0
  6  5  1  0  0  0  0
  6 14  1  6  0  0  0
  7  8  1  0  0  0  0
  7 13  1  1  0  0  0
  8 15  1  1  0  0  0
  8 11  1  0  0  0  0
  9 13  1  0  0  0  0
 10  1  1  0  0  0  0
 17 15  1  1  0  0  0
 17 18  1  0  0  0  0
 18 25  1  1  0  0  0
 19 18  1  0  0  0  0
 19 26  1  1  0  0  0
 20 19  1  0  0  0  0
 20 24  1  1  0  0  0
 21 23  1  0  0  0  0
 21 20  1  0  0  0  0
 21 22  1  6  0  0  0
 23 17  1  0  0  0  0
 27 22  1  0  0  0  0
 28 29  1  0  0  0  0
 28 16  1  1  0  0  0
 29 36  1  1  0  0  0
 30 37  1  1  0  0  0
 30 29  1  0  0  0  0
 31 30  1  0  0  0  0
 31 34  1  6  0  0  0
 32 31  1  0  0  0  0
 32 33  1  0  0  0  0
 33 28  1  0  0  0  0
 33 35  1  6  0  0  0
M  END
>  <CHROM.1>
56.64387084,66.92000844,79.69889769,179.36442941,-132.10741327,-131.08625531
-75.12585946,61.02576517,-168.03391899,172.84460218,-115.38385854,-78.71237963
-73.13448136,-167.15285826,75.50633643,130.63382950,0.25366241,5.44266418
12.23997757,-2.48548855,-1.15131426,1.45264576

>  <Name>
lig.pdb

>  <RI>
3.60165e+07

>  <Rbt.Current_Directory>
/home/itssahil/PROJECTS/Mol_Feturizer/New_Systems/rnas/2m4q

>  <Rbt.Executable>
rbdock ($Id: //depot/dev/client3/rdock/2013.1/src/exe/rbdock.cxx#4 $)

>  <Rbt.Library>
libRbt.so (2013.1, Build901 2013/11/27)

>  <Rbt.Parameter_File>
/export/apps/rDock/src/rDock_2013.1_src/data/scripts/dock_solv.prm

>  <Rbt.Receptor>
prm/pocket_docking_8.prm

>  <SCORE>
-33.9556

>  <SCORE.INTER>
-24.4041

>  <SCORE.INTER.CONST>
1

>  <SCORE.INTER.POLAR>
-4.32172

>  <SCORE.INTER.ROT>
10

>  <SCORE.INTER.SOLV>
12.4986

>  <SCORE.INTER.VDW>
-16.2965

>  <SCORE.INTER.norm>
-0.65957

>  <SCORE.INTRA>
-9.5515

>  <SCORE.INTRA.DIHEDRAL>
-15.7708

>  <SCORE.INTRA.DIHEDRAL.0>
44.8331

>  <SCORE.INTRA.POLAR>
-0.64224

>  <SCORE.INTRA.POLAR.0>
-0.108895

>  <SCORE.INTRA.REPUL>
-0.00539403

>  <SCORE.INTRA.REPUL.0>
0.00912235

>  <SCORE.INTRA.SOLV>
0.291824

>  <SCORE.INTRA.SOLV.lig_0>
-53.9067

>  <SCORE.INTRA.VDW>
0.398564

>  <SCORE.INTRA.VDW.0>
-2.93492

>  <SCORE.INTRA.norm>
-0.258149

>  <SCORE.RESTR>
0

>  <SCORE.RESTR.CAVITY>
0

>  <SCORE.RESTR.norm>
0

>  <SCORE.SYSTEM>
0

>  <SCORE.SYSTEM.CONST>
0

>  <SCORE.SYSTEM.DIHEDRAL>
0

>  <SCORE.SYSTEM.SOLV>
0

>  <SCORE.SYSTEM.norm>
0

>  <SCORE.heavy>
37

>  <SCORE.norm>
-0.917718

>  <RMSD>
5.019

$$$$
lig.pdb
 OpenBabel11021811453D
libRbt.so/2013.1/901 2013/11/27
 37 40  0  0  0  0  0  0  0  0999 V2000
    0.4677    6.9451    9.4200 C   0  0  2  0  0  0  0  0  0  0  0  0
    1.1804    6.5207    8.0937 C   0  0  1  0  0  0  0  0  0  0  0  0
    1.9164    5.1530    8.2009 C   0  0  0  0  0  0  0  0  0  0  0  0
    2.8063    5.0966    9.4674 C   0  0  1  0  0  0  0  0  0  0  0  0
    1.9555    5.3957   10.7220 C   0  0  1  0  0  0  0  0  0  0  0  0
    2.8133    5.2998   12.0123 C   0  0  1  0  0  0  0  0  0  0  0  0
    3.5503    3.9295   12.0887 C   0  0  1  0  0  0  0  0  0  0  0  0
    4.3330    3.6143   10.7794 C   0  0  2  0  0  0  0  0  0  0  0  0
    4.1706    2.7518   14.1483 C   0  0  0  0  0  0  0  0  0  0  0  0
    1.3044    6.6927   10.5953 O   0  0  0  0  0  0  0  0  0  0  0  0
    3.5029    3.8238    9.5958 O   0  0  0  0  0  0  0  0  0  0  0  0
    0.1953    6.4693    6.9917 N   0  0  0  0  0  0  0  0  0  0  0  0
    4.4297    3.9175   13.2759 N   0  0  0  0  0  0  0  0  0  0  0  0
    3.7292    6.3833   12.1053 O   0  0  0  0  0  0  0  0  0  0  0  0
    4.8658    2.2581   10.8191 O   0  0  0  0  0  0  0  0  0  0  0  0
   -0.8245    6.2796    9.5611 O   0  0  0  0  0  0  0  0  0  0  0  0
    5.6950    1.8024    9.7061 C   0  0  2  0  0  0  0  0  0  0  0  0
    7.1994    1.7914   10.0999 C   0  0  1  0  0  0  0  0  0  0  0  0
    7.7667    3.2324   10.2470 C   0  0  2  0  0  0  0  0  0  0  0  0
    7.4779    4.0822    8.9756 C   0  0  1  0  0  0  0  0  0  0  0  0
    5.9710    4.0376    8.5980 C   0  0  1  0  0  0  0  0  0  0  0  0
    5.6894    4.7665    7.2579 C   0  0  0  0  0  0  0  0  0  0  0  0
    5.5017    2.6564    8.5392 O   0  0  0  0  0  0  0  0  0  0  0  0
    7.9535    5.4738    9.1360 N   0  0  0  0  0  0  0  0  0  0  0  0
    7.4020    1.0204   11.2828 O   0  0  0  0  0  0  0  0  0  0  0  0
    9.1612    3.2090   10.5438 O   0  0  0  0  0  0  0  0  0  0  0  0
    6.1800    4.0098    6.1561 O   0  0  0  0  0  0  0  0  0  0  0  0
   -1.6012    6.5564   10.7628 C   0  0  1  0  0  0  0  0  0  0  0  0
   -0.8764    6.0697   12.0488 C   0  0  1  0  0  0  0  0  0  0  0  0
   -1.7628    6.2865   13.3076 C   0  0  2  0  0  0  0  0  0  0  0  0
   -2.2561    7.7637   13.4424 C   0  0  1  0  0  0  0  0  0  0  0  0
   -2.8668    8.3224   12.1223 C   0  0  0  0  0  0  0  0  0  0  0  0
   -1.9569    8.0655   10.8833 C   0  0  2  0  0  0  0  0  0  0  0  0
   -3.2112    7.8983   14.5630 N   0  0  0  0  0  0  0  0  0  0  0  0
   -2.6289    8.5772    9.6692 N   0  0  0  0  0  0  0  0  0  0  0  0
   -0.4941    4.7033   11.9286 O   0  0  0  0  0  0  0  0  0  0  0  0
   -1.0642    5.8851   14.4835 O   0  0  0  0  0  0  0  0  0  0  0  0
  1  2  1  0  0  0  0
  1 16  1  1  0  0  0
  2  3  1  0  0  0  0
  2 12  1  6  0  0  0
  4 11  1  1  0  0  0
  4  3  1  0  0  0  0
  5  4  1  0  0  0  0
  5 10  1  6  0  0  0
  6  7  1  0  0  0  0
  6  5  1  0  0  0  0
  6 14  1  6  0  0  0
  7  8  1  0  0  0  0
  7 13  1  1  0  0  0
  8 15  1  1  0  0  0
  8 11  1  0  0  0  0
  9 13  1  0  0  0  0
 10  1  1  0  0  0  0
 17 15  1  1  0  0  0
 17 18  1  0  0  0  0
 18 25  1  1  0  0  0
 19 18  1  0  0  0  0
 19 26  1  6  0  0  0
 20 19  1  0  0  0  0
 20 24  1  1  0  0  0
 21 23  1  0  0  0  0
 21 20  1  0  0  0  0
 21 22  1  6  0  0  0
 23 17  1  0  0  0  0
 27 22  1  0  0  0  0
 28 29  1  0  0  0  0
 28 16  1  6  0  0  0
 29 36  1  6  0  0  0
 30 37  1  1  0  0  0
 30 29  1  0  0  0  0
 31 30  1  0  0  0  0
 31 34  1  1  0  0  0
 32 31  1  0  0  0  0
 32 33  1  0  0  0  0
 33 28  1  0  0  0  0
 33 35  1  6  0  0  0
M  END
>  <CHROM.1>
-64.19892411,-176.72580307,126.12609111,-57.96610928,103.83614242,178.95433189
-171.55147115,-174.96553555,72.31332186,-45.70146352,58.33727632,-63.70154712
-43.22249356,-58.40750156,-99.81234364,-142.28219421,2.67509888,5.02917563
10.58853667,3.02637158,-0.47952745,1.82175698

>  <Name>
lig.pdb

>  <RI>
3.87352e+07

>  <Rbt.Current_Directory>
/home/itssahil/PROJECTS/Mol_Feturizer/New_Systems/rnas/2m4q

>  <Rbt.Executable>
rbdock ($Id: //depot/dev/client3/rdock/2013.1/src/exe/rbdock.cxx#4 $)

>  <Rbt.Library>
libRbt.so (2013.1, Build901 2013/11/27)

>  <Rbt.Parameter_File>
/export/apps/rDock/src/rDock_2013.1_src/data/scripts/dock_solv.prm

>  <Rbt.Receptor>
prm/pocket_docking_4.prm

>  <SCORE>
-41.2112

>  <SCORE.INTER>
-28.8744

>  <SCORE.INTER.CONST>
1

>  <SCORE.INTER.POLAR>
-4.07136

>  <SCORE.INTER.ROT>
10

>  <SCORE.INTER.SOLV>
15.6503

>  <SCORE.INTER.VDW>
-21.1618

>  <SCORE.INTER.norm>
-0.78039

>  <SCORE.INTRA>
-12.394

>  <SCORE.INTRA.DIHEDRAL>
-29.8095

>  <SCORE.INTRA.DIHEDRAL.0>
44.8331

>  <SCORE.INTRA.POLAR>
0.0418423

>  <SCORE.INTRA.POLAR.0>
-0.108895

>  <SCORE.INTRA.REPUL>
-0.00524663

>  <SCORE.INTRA.REPUL.0>
0.00912235

>  <SCORE.INTRA.SOLV>
-0.585254

>  <SCORE.INTRA.SOLV.lig_0>
-53.9067

>  <SCORE.INTRA.VDW>
2.68733

>  <SCORE.INTRA.VDW.0>
-2.93492

>  <SCORE.INTRA.norm>
-0.334974

>  <SCORE.RESTR>
0.0571912

>  <SCORE.RESTR.CAVITY>
0.0571912

>  <SCORE.RESTR.norm>
0.00154571

>  <SCORE.SYSTEM>
0

>  <SCORE.SYSTEM.CONST>
0

>  <SCORE.SYSTEM.DIHEDRAL>
0

>  <SCORE.SYSTEM.SOLV>
0

>  <SCORE.SYSTEM.norm>
0

>  <SCORE.heavy>
37

>  <SCORE.norm>
-1.11382

>  <RMSD>
5.028

$$$$
lig.pdb
 OpenBabel11021811453D
libRbt.so/2013.1/901 2013/11/27
 37 40  0  0  0  0  0  0  0  0999 V2000
    0.3071    5.9306   13.2793 C   0  0  2  0  0  0  0  0  0  0  0  0
    1.3782    4.8213   13.5427 C   0  0  1  0  0  0  0  0  0  0  0  0
    2.4497    4.7209   12.4177 C   0  0  0  0  0  0  0  0  0  0  0  0
    1.7863    4.6693   11.0190 C   0  0  1  0  0  0  0  0  0  0  0  0
    0.8615    5.8925   10.8297 C   0  0  1  0  0  0  0  0  0  0  0  0
    0.2187    5.8912    9.4168 C   0  0  1  0  0  0  0  0  0  0  0  0
    1.3092    5.7752    8.3104 C   0  0  1  0  0  0  0  0  0  0  0  0
    2.2786    4.5838    8.5695 C   0  0  2  0  0  0  0  0  0  0  0  0
    0.0212    6.9528    6.5876 C   0  0  0  0  0  0  0  0  0  0  0  0
   -0.1415    5.9375   11.8851 O   0  0  0  0  0  0  0  0  0  0  0  0
    2.7675    4.5810    9.9460 O   0  0  0  0  0  0  0  0  0  0  0  0
    2.0429    5.0671   14.8409 N   0  0  0  0  0  0  0  0  0  0  0  0
    0.6525    5.6776    6.9905 N   0  0  0  0  0  0  0  0  0  0  0  0
   -0.7530    4.8607    9.2924 O   0  0  0  0  0  0  0  0  0  0  0  0
    3.3809    4.6081    7.6162 O   0  0  0  0  0  0  0  0  0  0  0  0
    0.8073    7.2485   13.6609 O   0  0  0  0  0  0  0  0  0  0  0  0
    4.4198    5.6222    7.7779 C   0  0  2  0  0  0  0  0  0  0  0  0
    5.4850    5.5136    6.6500 C   0  0  1  0  0  0  0  0  0  0  0  0
    6.3654    4.2411    6.8101 C   0  0  2  0  0  0  0  0  0  0  0  0
    6.9813    4.1600    8.2370 C   0  0  1  0  0  0  0  0  0  0  0  0
    5.8883    4.3075    9.3320 C   0  0  1  0  0  0  0  0  0  0  0  0
    6.5012    4.3655   10.7559 C   0  0  0  0  0  0  0  0  0  0  0  0
    5.0691    5.4888    9.0775 O   0  0  0  0  0  0  0  0  0  0  0  0
    7.7632    2.9174    8.4184 N   0  0  0  0  0  0  0  0  0  0  0  0
    4.8638    5.5685    5.3671 O   0  0  0  0  0  0  0  0  0  0  0  0
    7.3792    4.1871    5.8088 O   0  0  0  0  0  0  0  0  0  0  0  0
    7.3180    5.5216   10.9097 O   0  0  0  0  0  0  0  0  0  0  0  0
   -0.1118    8.3755   13.5650 C   0  0  1  0  0  0  0  0  0  0  0  0
   -0.4371    8.7367   12.0885 C   0  0  1  0  0  0  0  0  0  0  0  0
   -1.3403    9.9996   12.0066 C   0  0  2  0  0  0  0  0  0  0  0  0
   -2.6360    9.8631   12.8706 C   0  0  1  0  0  0  0  0  0  0  0  0
   -2.3493    9.3709   14.3208 C   0  0  0  0  0  0  0  0  0  0  0  0
   -1.4243    8.1172   14.3581 C   0  0  2  0  0  0  0  0  0  0  0  0
   -3.3935   11.1328   12.8853 N   0  0  0  0  0  0  0  0  0  0  0  0
   -1.1599    7.7468   15.7653 N   0  0  0  0  0  0  0  0  0  0  0  0
    0.7581    8.9201   11.3366 O   0  0  0  0  0  0  0  0  0  0  0  0
   -1.6732   10.2864   10.6507 O   0  0  0  0  0  0  0  0  0  0  0  0
  1  2  1  0  0  0  0
  1 16  1  6  0  0  0
  2  3  1  0  0  0  0
  2 12  1  1  0  0  0
  4 11  1  6  0  0  0
  4  3  1  0  0  0  0
  5  4  1  0  0  0  0
  5 10  1  1  0  0  0
  6  7  1  0  0  0  0
  6  5  1  0  0  0  0
  6 14  1  1  0  0  0
  7  8  1  0  0  0  0
  7 13  1  6  0  0  0
  8 15  1  6  0  0  0
  8 11  1  0  0  0  0
  9 13  1  0  0  0  0
 10  1  1  0  0  0  0
 17 15  1  6  0  0  0
 17 18  1  0  0  0  0
 18 25  1  6  0  0  0
 19 18  1  0  0  0  0
 19 26  1  6  0  0  0
 20 19  1  0  0  0  0
 20 24  1  1  0  0  0
 21 23  1  0  0  0  0
 21 20  1  0  0  0  0
 21 22  1  1  0  0  0
 23 17  1  0  0  0  0
 27 22  1  0  0  0  0
 28 29  1  0  0  0  0
 28 16  1  6  0  0  0
 29 36  1  6  0  0  0
 30 37  1  6  0  0  0
 30 29  1  0  0  0  0
 31 30  1  0  0  0  0
 31 34  1  1  0  0  0
 32 31  1  0  0  0  0
 32 33  1  0  0  0  0
 33 28  1  0  0  0  0
 33 35  1  1  0  0  0
M  END
>  <CHROM.1>
82.49906124,73.31195260,70.44353026,-171.80044428,-178.49497563,-175.67572105
179.16608918,60.83688071,63.79567514,-165.60604360,-178.37526368,-69.76303589
-58.78692200,-61.43454208,-170.05773492,-57.09093939,2.02046154,6.26499257
10.43558642,-2.58899528,0.54577522,-1.52459460

>  <Name>
lig.pdb

>  <RI>
2.86754e+07

>  <Rbt.Current_Directory>
/home/itssahil/PROJECTS/Mol_Feturizer/New_Systems/rnas/2m4q

>  <Rbt.Executable>
rbdock ($Id: //depot/dev/client3/rdock/2013.1/src/exe/rbdock.cxx#4 $)

>  <Rbt.Library>
libRbt.so (2013.1, Build901 2013/11/27)

>  <Rbt.Parameter_File>
/export/apps/rDock/src/rDock_2013.1_src/data/scripts/dock_solv.prm

>  <Rbt.Receptor>
prm/pocket_docking_5.prm

>  <SCORE>
-44.7018

>  <SCORE.INTER>
-23.0965

>  <SCORE.INTER.CONST>
1

>  <SCORE.INTER.POLAR>
-3.62552

>  <SCORE.INTER.ROT>
10

>  <SCORE.INTER.SOLV>
15.4126

>  <SCORE.INTER.VDW>
-18.7168

>  <SCORE.INTER.norm>
-0.62423

>  <SCORE.INTRA>
-21.6053

>  <SCORE.INTRA.DIHEDRAL>
-40.7534

>  <SCORE.INTRA.DIHEDRAL.0>
44.8331

>  <SCORE.INTRA.POLAR>
-0.259887

>  <SCORE.INTRA.POLAR.0>
-0.108895

>  <SCORE.INTRA.REPUL>
-0.00912235

>  <SCORE.INTRA.REPUL.0>
0.00912235

>  <SCORE.INTRA.SOLV>
-0.587985

>  <SCORE.INTRA.SOLV.lig_0>
-53.9067

>  <SCORE.INTRA.VDW>
-0.00535845

>  <SCORE.INTRA.VDW.0>
-2.93492

>  <SCORE.INTRA.norm>
-0.583926

>  <SCORE.RESTR>
0

>  <SCORE.RESTR.CAVITY>
0

>  <SCORE.RESTR.norm>
0

>  <SCORE.SYSTEM>
0

>  <SCORE.SYSTEM.CONST>
0

>  <SCORE.SYSTEM.DIHEDRAL>
0

>  <SCORE.SYSTEM.SOLV>
0

>  <SCORE.SYSTEM.norm>
0

>  <SCORE.heavy>
37

>  <SCORE.norm>
-1.20816

>  <RMSD>
5.082

$$$$
lig.pdb
 OpenBabel11021811453D
libRbt.so/2013.1/901 2013/11/27
 37 40  0  0  0  0  0  0  0  0999 V2000
    0.7445    6.4559    9.2260 C   0  0  2  0  0  0  0  0  0  0  0  0
    1.6986    5.6742    8.2638 C   0  0  1  0  0  0  0  0  0  0  0  0
    2.4606    4.5110    8.9637 C   0  0  0  0  0  0  0  0  0  0  0  0
    3.1130    4.9875   10.2852 C   0  0  1  0  0  0  0  0  0  0  0  0
    2.0413    5.6135   11.2054 C   0  0  1  0  0  0  0  0  0  0  0  0
    2.6596    6.0581   12.5581 C   0  0  1  0  0  0  0  0  0  0  0  0
    3.4282    4.8819   13.2308 C   0  0  1  0  0  0  0  0  0  0  0  0
    4.4435    4.2150   12.2557 C   0  0  2  0  0  0  0  0  0  0  0  0
    3.1306    5.4940   15.5867 C   0  0  0  0  0  0  0  0  0  0  0  0
    1.3691    6.7126   10.5256 O   0  0  0  0  0  0  0  0  0  0  0  0
    3.8286    3.9161   10.9648 O   0  0  0  0  0  0  0  0  0  0  0  0
    0.9277    5.1443    7.1181 N   0  0  0  0  0  0  0  0  0  0  0  0
    4.0826    5.3714   14.4617 N   0  0  0  0  0  0  0  0  0  0  0  0
    3.4981    7.1945   12.3940 O   0  0  0  0  0  0  0  0  0  0  0  0
    5.0173    3.0185   12.8586 O   0  0  0  0  0  0  0  0  0  0  0  0
   -0.5231    5.7518    9.3993 O   0  0  0  0  0  0  0  0  0  0  0  0
    6.0405    2.2864   12.1164 C   0  0  2  0  0  0  0  0  0  0  0  0
    6.3198    0.9028   12.7693 C   0  0  1  0  0  0  0  0  0  0  0  0
    7.0655    1.0467   14.1269 C   0  0  2  0  0  0  0  0  0  0  0  0
    8.3472    1.9161   13.9743 C   0  0  1  0  0  0  0  0  0  0  0  0
    8.0294    3.2734   13.2871 C   0  0  1  0  0  0  0  0  0  0  0  0
    9.3157    4.0931   13.0045 C   0  0  0  0  0  0  0  0  0  0  0  0
    7.2783    3.0560   12.0542 O   0  0  0  0  0  0  0  0  0  0  0  0
    9.0238    2.1147   15.2749 N   0  0  0  0  0  0  0  0  0  0  0  0
    5.1096    0.1604   12.9072 O   0  0  0  0  0  0  0  0  0  0  0  0
    7.3734   -0.2296   14.6832 O   0  0  0  0  0  0  0  0  0  0  0  0
   10.1584    3.4120   12.0808 O   0  0  0  0  0  0  0  0  0  0  0  0
   -1.5115    6.3460   10.2903 C   0  0  1  0  0  0  0  0  0  0  0  0
   -1.1711    6.0957   11.7862 C   0  0  1  0  0  0  0  0  0  0  0  0
   -2.2862    6.6527   12.7154 C   0  0  2  0  0  0  0  0  0  0  0  0
   -2.5994    8.1583   12.4348 C   0  0  1  0  0  0  0  0  0  0  0  0
   -2.8126    8.4619   10.9215 C   0  0  0  0  0  0  0  0  0  0  0  0
   -1.6846    7.8685   10.0247 C   0  0  2  0  0  0  0  0  0  0  0  0
   -3.7600    8.6106   13.2314 N   0  0  0  0  0  0  0  0  0  0  0  0
   -1.9873    8.1545    8.6056 N   0  0  0  0  0  0  0  0  0  0  0  0
   -0.9538    4.7100   12.0314 O   0  0  0  0  0  0  0  0  0  0  0  0
   -1.9346    6.4633   14.0837 O   0  0  0  0  0  0  0  0  0  0  0  0
  1  2  1  0  0  0  0
  1 16  1  1  0  0  0
  2  3  1  0  0  0  0
  2 12  1  6  0  0  0
  4 11  1  1  0  0  0
  4  3  1  0  0  0  0
  5  4  1  0  0  0  0
  5 10  1  6  0  0  0
  6  7  1  0  0  0  0
  6  5  1  0  0  0  0
  6 14  1  6  0  0  0
  7  8  1  0  0  0  0
  7 13  1  1  0  0  0
  8 15  1  1  0  0  0
  8 11  1  0  0  0  0
  9 13  1  0  0  0  0
 10  1  1  0  0  0  0
 17 15  1  1  0  0  0
 17 18  1  0  0  0  0
 18 25  1  1  0  0  0
 19 18  1  0  0  0  0
 19 26  1  6  0  0  0
 20 19  1  0  0  0  0
 20 24  1  1  0  0  0
 21 23  1  0  0  0  0
 21 20  1  0  0  0  0
 21 22  1  6  0  0  0
 23 17  1  0  0  0  0
 27 22  1  0  0  0  0
 28 29  1  0  0  0  0
 28 16  1  6  0  0  0
 29 36  1  6  0  0  0
 30 37  1  1  0  0  0
 30 29  1  0  0  0  0
 31 30  1  0  0  0  0
 31 34  1  1  0  0  0
 32 31  1  0  0  0  0
 32 33  1  0  0  0  0
 33 28  1  0  0  0  0
 33 35  1  6  0  0  0
M  END
>  <CHROM.1>
93.16530723,-177.27500398,78.45400150,-60.18477214,-168.39689976,178.92794856
158.49603253,-62.41143055,63.67660016,175.96745495,60.74996755,-77.89865407
-33.93517966,63.16404326,69.33042125,-170.66802844,2.86989632,4.79767645
11.96108601,-2.87731150,-0.47919879,1.63136144

>  <Name>
lig.pdb

>  <RI>
3.60165e+07

>  <Rbt.Current_Directory>
/home/itssahil/PROJECTS/Mol_Feturizer/New_Systems/rnas/2m4q

>  <Rbt.Executable>
rbdock ($Id: //depot/dev/client3/rdock/2013.1/src/exe/rbdock.cxx#4 $)

>  <Rbt.Library>
libRbt.so (2013.1, Build901 2013/11/27)

>  <Rbt.Parameter_File>
/export/apps/rDock/src/rDock_2013.1_src/data/scripts/dock_solv.prm

>  <Rbt.Receptor>
prm/pocket_docking_8.prm

>  <SCORE>
-41.1149

>  <SCORE.INTER>
-22.7969

>  <SCORE.INTER.CONST>
1

>  <SCORE.INTER.POLAR>
-4.07696

>  <SCORE.INTER.ROT>
10

>  <SCORE.INTER.SOLV>
14.901

>  <SCORE.INTER.VDW>
-16.8417

>  <SCORE.INTER.norm>
-0.616132

>  <SCORE.INTRA>
-18.318

>  <SCORE.INTRA.DIHEDRAL>
-34.4907

>  <SCORE.INTRA.DIHEDRAL.0>
44.8331

>  <SCORE.INTRA.POLAR>
-0.133018

>  <SCORE.INTRA.POLAR.0>
-0.108895

>  <SCORE.INTRA.REPUL>
-0.00912235

>  <SCORE.INTRA.REPUL.0>
0.00912235

>  <SCORE.INTRA.SOLV>
-1.45353

>  <SCORE.INTRA.SOLV.lig_0>
-53.9067

>  <SCORE.INTRA.VDW>
0.151985

>  <SCORE.INTRA.VDW.0>
-2.93492

>  <SCORE.INTRA.norm>
-0.495081

>  <SCORE.RESTR>
0

>  <SCORE.RESTR.CAVITY>
0

>  <SCORE.RESTR.norm>
0

>  <SCORE.SYSTEM>
0

>  <SCORE.SYSTEM.CONST>
0

>  <SCORE.SYSTEM.DIHEDRAL>
0

>  <SCORE.SYSTEM.SOLV>
0

>  <SCORE.SYSTEM.norm>
0

>  <SCORE.heavy>
37

>  <SCORE.norm>
-1.11121

>  <RMSD>
5.087

$$$$
lig.pdb
 OpenBabel11021811453D
libRbt.so/2013.1/901 2013/11/27
 37 40  0  0  0  0  0  0  0  0999 V2000
    2.7453    5.9298    9.3578 C   0  0  2  0  0  0  0  0  0  0  0  0
    4.0386    5.0498    9.3726 C   0  0  1  0  0  0  0  0  0  0  0  0
    3.9369    3.8224   10.3249 C   0  0  0  0  0  0  0  0  0  0  0  0
    3.4168    4.2424   11.7221 C   0  0  1  0  0  0  0  0  0  0  0  0
    2.0658    4.9787   11.5812 C   0  0  1  0  0  0  0  0  0  0  0  0
    1.4975    5.3706   12.9716 C   0  0  1  0  0  0  0  0  0  0  0  0
    1.4197    4.1294   13.9097 C   0  0  1  0  0  0  0  0  0  0  0  0
    2.7713    3.3575   13.9693 C   0  0  2  0  0  0  0  0  0  0  0  0
   -0.4951    4.4339   15.4113 C   0  0  0  0  0  0  0  0  0  0  0  0
    2.2072    6.1337   10.7047 O   0  0  0  0  0  0  0  0  0  0  0  0
    3.3063    3.1107   12.6326 O   0  0  0  0  0  0  0  0  0  0  0  0
    4.3453    4.5898    8.0008 N   0  0  0  0  0  0  0  0  0  0  0  0
    0.9694    4.5614   15.2490 N   0  0  0  0  0  0  0  0  0  0  0  0
    2.2566    6.4170   13.5635 O   0  0  0  0  0  0  0  0  0  0  0  0
    2.6151    2.1148   14.7148 O   0  0  0  0  0  0  0  0  0  0  0  0
    1.7265    5.3562    8.4828 O   0  0  0  0  0  0  0  0  0  0  0  0
    3.6996    1.6903   15.5967 C   0  0  2  0  0  0  0  0  0  0  0  0
    4.0660    2.8123   16.6093 C   0  0  1  0  0  0  0  0  0  0  0  0
    4.7778    4.0071   15.9123 C   0  0  2  0  0  0  0  0  0  0  0  0
    5.9967    3.5234   15.0743 C   0  0  1  0  0  0  0  0  0  0  0  0
    5.5943    2.3799   14.1017 C   0  0  1  0  0  0  0  0  0  0  0  0
    6.8234    1.7945   13.3582 C   0  0  0  0  0  0  0  0  0  0  0  0
    4.8804    1.3284   14.8201 O   0  0  0  0  0  0  0  0  0  0  0  0
    6.6365    4.6456   14.3532 N   0  0  0  0  0  0  0  0  0  0  0  0
    2.9096    3.2338   17.3303 O   0  0  0  0  0  0  0  0  0  0  0  0
    5.1666    4.9989   16.8601 O   0  0  0  0  0  0  0  0  0  0  0  0
    6.4142    0.9919   12.2556 O   0  0  0  0  0  0  0  0  0  0  0  0
    0.6825    6.2436    7.9864 C   0  0  1  0  0  0  0  0  0  0  0  0
   -0.5237    6.3263    8.9633 C   0  0  1  0  0  0  0  0  0  0  0  0
   -1.6655    7.1997    8.3712 C   0  0  2  0  0  0  0  0  0  0  0  0
   -1.1689    8.6179    7.9397 C   0  0  1  0  0  0  0  0  0  0  0  0
    0.1217    8.5696    7.0680 C   0  0  0  0  0  0  0  0  0  0  0  0
    1.2316    7.6674    7.6867 C   0  0  2  0  0  0  0  0  0  0  0  0
   -2.2433    9.3631    7.2496 N   0  0  0  0  0  0  0  0  0  0  0  0
    2.3973    7.6337    6.7772 N   0  0  0  0  0  0  0  0  0  0  0  0
   -1.0004    5.0251    9.2911 O   0  0  0  0  0  0  0  0  0  0  0  0
   -2.7411    7.3096    9.3001 O   0  0  0  0  0  0  0  0  0  0  0  0
  1  2  1  0  0  0  0
  1 16  1  6  0  0  0
  2  3  1  0  0  0  0
  2 12  1  6  0  0  0
  4 11  1  1  0  0  0
  4  3  1  0  0  0  0
  5  4  1  0  0  0  0
  5 10  1  6  0  0  0
  6  7  1  0  0  0  0
  6  5  1  0  0  0  0
  6 14  1  1  0  0  0
  7  8  1  0  0  0  0
  7 13  1  1  0  0  0
  8 15  1  6  0  0  0
  8 11  1  0  0  0  0
  9 13  1  0  0  0  0
 10  1  1  0  0  0  0
 17 15  1  6  0  0  0
 17 18  1  0  0  0  0
 18 25  1  6  0  0  0
 19 18  1  0  0  0  0
 19 26  1  1  0  0  0
 20 19  1  0  0  0  0
 20 24  1  6  0  0  0
 21 23  1  0  0  0  0
 21 20  1  0  0  0  0
 21 22  1  1  0  0  0
 23 17  1  0  0  0  0
 27 22  1  0  0  0  0
 28 29  1  0  0  0  0
 28 16  1  1  0  0  0
 29 36  1  6  0  0  0
 30 37  1  1  0  0  0
 30 29  1  0  0  0  0
 31 30  1  0  0  0  0
 31 34  1  6  0  0  0
 32 31  1  0  0  0  0
 32 33  1  0  0  0  0
 33 28  1  0  0  0  0
 33 35  1  6  0  0  0
M  END
>  <CHROM.1>
81.47873952,-141.52137102,93.98360423,58.99728073,54.35043829,-158.85536878
-175.04107664,58.93920592,-165.90734216,69.25204037,-80.02142432,-87.90800601
58.06322453,-165.57538250,26.18041146,169.33671583,2.45614334,4.83081579
11.88042204,-2.15060171,-0.43612491,1.85833123

>  <Name>
lig.pdb

>  <RI>
2.86754e+07

>  <Rbt.Current_Directory>
/home/itssahil/PROJECTS/Mol_Feturizer/New_Systems/rnas/2m4q

>  <Rbt.Executable>
rbdock ($Id: //depot/dev/client3/rdock/2013.1/src/exe/rbdock.cxx#4 $)

>  <Rbt.Library>
libRbt.so (2013.1, Build901 2013/11/27)

>  <Rbt.Parameter_File>
/export/apps/rDock/src/rDock_2013.1_src/data/scripts/dock_solv.prm

>  <Rbt.Receptor>
prm/pocket_docking_5.prm

>  <SCORE>
-40.4342

>  <SCORE.INTER>
-24.1188

>  <SCORE.INTER.CONST>
1

>  <SCORE.INTER.POLAR>
-4.62889

>  <SCORE.INTER.ROT>
10

>  <SCORE.INTER.SOLV>
13.027

>  <SCORE.INTER.VDW>
-15.2586

>  <SCORE.INTER.norm>
-0.65186

>  <SCORE.INTRA>
-16.3154

>  <SCORE.INTRA.DIHEDRAL>
-26.4367

>  <SCORE.INTRA.DIHEDRAL.0>
44.8331

>  <SCORE.INTRA.POLAR>
-1.09888

>  <SCORE.INTRA.POLAR.0>
-0.108895

>  <SCORE.INTRA.REPUL>
-0.00912235

>  <SCORE.INTRA.REPUL.0>
0.00912235

>  <SCORE.INTRA.SOLV>
0.478593

>  <SCORE.INTRA.SOLV.lig_0>
-53.9067

>  <SCORE.INTRA.VDW>
0.445454

>  <SCORE.INTRA.VDW.0>
-2.93492

>  <SCORE.INTRA.norm>
-0.440956

>  <SCORE.RESTR>
0

>  <SCORE.RESTR.CAVITY>
0

>  <SCORE.RESTR.norm>
0

>  <SCORE.SYSTEM>
0

>  <SCORE.SYSTEM.CONST>
0

>  <SCORE.SYSTEM.DIHEDRAL>
0

>  <SCORE.SYSTEM.SOLV>
0

>  <SCORE.SYSTEM.norm>
0

>  <SCORE.heavy>
37

>  <SCORE.norm>
-1.09282

>  <RMSD>
5.150

$$$$
lig.pdb
 OpenBabel11021811453D
libRbt.so/2013.1/901 2013/11/27
 37 40  0  0  0  0  0  0  0  0999 V2000
    2.9143    7.4391    8.2950 C   0  0  2  0  0  0  0  0  0  0  0  0
    4.3144    6.7464    8.2112 C   0  0  1  0  0  0  0  0  0  0  0  0
    4.3696    5.3786    8.9528 C   0  0  0  0  0  0  0  0  0  0  0  0
    3.7831    5.4951   10.3816 C   0  0  1  0  0  0  0  0  0  0  0  0
    2.3465    6.0601   10.3162 C   0  0  1  0  0  0  0  0  0  0  0  0
    1.7161    6.1438   11.7323 C   0  0  1  0  0  0  0  0  0  0  0  0
    1.7969    4.7680   12.4585 C   0  0  1  0  0  0  0  0  0  0  0  0
    3.2397    4.1814   12.4379 C   0  0  2  0  0  0  0  0  0  0  0  0
   -0.1987    4.9778   13.8682 C   0  0  0  0  0  0  0  0  0  0  0  0
    2.3397    7.3500    9.6392 O   0  0  0  0  0  0  0  0  0  0  0  0
    3.8170    4.2265   11.0969 O   0  0  0  0  0  0  0  0  0  0  0  0
    4.6947    6.5586    6.7943 N   0  0  0  0  0  0  0  0  0  0  0  0
    1.2784    4.9147   13.8342 N   0  0  0  0  0  0  0  0  0  0  0  0
    2.3206    7.1715   12.5069 O   0  0  0  0  0  0  0  0  0  0  0  0
    3.2451    2.8249   12.9713 O   0  0  0  0  0  0  0  0  0  0  0  0
    1.9915    6.8854    7.3079 O   0  0  0  0  0  0  0  0  0  0  0  0
    4.3361    1.9310   12.5910 C   0  0  2  0  0  0  0  0  0  0  0  0
    3.9536    0.4452   12.8456 C   0  0  1  0  0  0  0  0  0  0  0  0
    3.8945    0.1181   14.3652 C   0  0  2  0  0  0  0  0  0  0  0  0
    5.2107    0.5378   15.0818 C   0  0  1  0  0  0  0  0  0  0  0  0
    5.5738    2.0170   14.7730 C   0  0  1  0  0  0  0  0  0  0  0  0
    6.9516    2.4099   15.3676 C   0  0  0  0  0  0  0  0  0  0  0  0
    5.5490    2.2573   13.3332 O   0  0  0  0  0  0  0  0  0  0  0  0
    5.1346    0.2932   16.5388 N   0  0  0  0  0  0  0  0  0  0  0  0
    2.7296    0.1232   12.1877 O   0  0  0  0  0  0  0  0  0  0  0  0
    3.6073   -1.2614   14.5843 O   0  0  0  0  0  0  0  0  0  0  0  0
    7.2383    3.7824   15.1195 O   0  0  0  0  0  0  0  0  0  0  0  0
    0.7179    7.5668    7.1144 C   0  0  1  0  0  0  0  0  0  0  0  0
   -0.2608    7.3169    8.2959 C   0  0  1  0  0  0  0  0  0  0  0  0
   -1.6448    7.9714    8.0250 C   0  0  2  0  0  0  0  0  0  0  0  0
   -1.5282    9.4913    7.6786 C   0  0  1  0  0  0  0  0  0  0  0  0
   -0.4541    9.7845    6.5886 C   0  0  0  0  0  0  0  0  0  0  0  0
    0.9102    9.0933    6.8878 C   0  0  2  0  0  0  0  0  0  0  0  0
   -2.8424   10.0426    7.2849 N   0  0  0  0  0  0  0  0  0  0  0  0
    1.8541    9.3772    5.7852 N   0  0  0  0  0  0  0  0  0  0  0  0
   -0.4017    5.9231    8.5510 O   0  0  0  0  0  0  0  0  0  0  0  0
   -2.5129    7.7793    9.1391 O   0  0  0  0  0  0  0  0  0  0  0  0
  1  2  1  0  0  0  0
  1 16  1  6  0  0  0
  2  3  1  0  0  0  0
  2 12  1  6  0  0  0
  4 11  1  6  0  0  0
  4  3  1  0  0  0  0
  5  4  1  0  0  0  0
  5 10  1  1  0  0  0
  6  7  1  0  0  0  0
  6  5  1  0  0  0  0
  6 14  1  1  0  0  0
  7  8  1  0  0  0  0
  7 13  1  1  0  0  0
  8 15  1  6  0  0  0
  8 11  1  0  0  0  0
  9 13  1  0  0  0  0
 10  1  1  0  0  0  0
 17 15  1  1  0  0  0
 17 18  1  0  0  0  0
 18 25  1  1  0  0  0
 19 18  1  0  0  0  0
 19 26  1  6  0  0  0
 20 19  1  0  0  0  0
 20 24  1  1  0  0  0
 21 23  1  0  0  0  0
 21 20  1  0  0  0  0
 21 22  1  6  0  0  0
 23 17  1  0  0  0  0
 27 22  1  0  0  0  0
 28 29  1  0  0  0  0
 28 16  1  1  0  0  0
 29 36  1  6  0  0  0
 30 37  1  1  0  0  0
 30 29  1  0  0  0  0
 31 30  1  0  0  0  0
 31 34  1  6  0  0  0
 32 31  1  0  0  0  0
 32 33  1  0  0  0  0
 33 28  1  0  0  0  0
 33 35  1  6  0  0  0
M  END
>  <CHROM.1>
-173.15933358,157.17800351,76.64444104,60.91299456,-161.28254256,-170.44799611
56.59950610,60.85182947,-177.63227604,170.57850289,-179.45334674,-73.81732441
-178.12132474,-162.22674685,17.24093242,64.19268334,2.48509190,5.05822845
10.91565282,-2.02746887,-0.18637091,2.27936056

>  <Name>
lig.pdb

>  <RI>
0

>  <Rbt.Current_Directory>
/home/itssahil/PROJECTS/Mol_Feturizer/New_Systems/rnas/2m4q

>  <Rbt.Executable>
rbdock ($Id: //depot/dev/client3/rdock/2013.1/src/exe/rbdock.cxx#4 $)

>  <Rbt.Library>
libRbt.so (2013.1, Build901 2013/11/27)

>  <Rbt.Parameter_File>
/export/apps/rDock/src/rDock_2013.1_src/data/scripts/dock_solv.prm

>  <Rbt.Receptor>
prm/pocket_docking_7.prm

>  <SCORE>
-37.3185

>  <SCORE.INTER>
-19.9325

>  <SCORE.INTER.CONST>
1

>  <SCORE.INTER.POLAR>
-3.84014

>  <SCORE.INTER.ROT>
10

>  <SCORE.INTER.SOLV>
12.8838

>  <SCORE.INTER.VDW>
-15.0492

>  <SCORE.INTER.norm>
-0.538717

>  <SCORE.INTRA>
-17.3859

>  <SCORE.INTRA.DIHEDRAL>
-34.78

>  <SCORE.INTRA.DIHEDRAL.0>
44.8331

>  <SCORE.INTRA.POLAR>
0.0882888

>  <SCORE.INTRA.POLAR.0>
-0.108895

>  <SCORE.INTRA.REPUL>
-0.00912235

>  <SCORE.INTRA.REPUL.0>
0.00912235

>  <SCORE.INTRA.SOLV>
-1.94842

>  <SCORE.INTRA.SOLV.lig_0>
-53.9067

>  <SCORE.INTRA.VDW>
0.723709

>  <SCORE.INTRA.VDW.0>
-2.93492

>  <SCORE.INTRA.norm>
-0.46989

>  <SCORE.RESTR>
0

>  <SCORE.RESTR.CAVITY>
0

>  <SCORE.RESTR.norm>
0

>  <SCORE.SYSTEM>
0

>  <SCORE.SYSTEM.CONST>
0

>  <SCORE.SYSTEM.DIHEDRAL>
0

>  <SCORE.SYSTEM.SOLV>
0

>  <SCORE.SYSTEM.norm>
0

>  <SCORE.heavy>
37

>  <SCORE.norm>
-1.00861

>  <RMSD>
5.158

$$$$
lig.pdb
 OpenBabel11021811453D
libRbt.so/2013.1/901 2013/11/27
 37 40  0  0  0  0  0  0  0  0999 V2000
   -3.0489   12.6286    9.3384 C   0  0  2  0  0  0  0  0  0  0  0  0
   -2.2735   12.5215   10.6928 C   0  0  1  0  0  0  0  0  0  0  0  0
   -0.7918   12.0758   10.5200 C   0  0  0  0  0  0  0  0  0  0  0  0
   -0.6876   10.8286    9.6075 C   0  0  1  0  0  0  0  0  0  0  0  0
   -1.3687   11.1116    8.2498 C   0  0  1  0  0  0  0  0  0  0  0  0
   -1.2383    9.8932    7.2967 C   0  0  1  0  0  0  0  0  0  0  0  0
    0.2504    9.4579    7.1523 C   0  0  1  0  0  0  0  0  0  0  0  0
    0.9371    9.2595    8.5362 C   0  0  2  0  0  0  0  0  0  0  0  0
    0.9788    8.4911    5.0195 C   0  0  0  0  0  0  0  0  0  0  0  0
   -2.7581   11.5002    8.4512 O   0  0  0  0  0  0  0  0  0  0  0  0
    0.6902   10.3931    9.4238 O   0  0  0  0  0  0  0  0  0  0  0  0
   -2.3222   13.8196   11.4001 N   0  0  0  0  0  0  0  0  0  0  0  0
    0.3206    8.2393    6.3197 N   0  0  0  0  0  0  0  0  0  0  0  0
   -2.0522    8.8103    7.7285 O   0  0  0  0  0  0  0  0  0  0  0  0
    2.3650    9.0212    8.3663 O   0  0  0  0  0  0  0  0  0  0  0  0
   -2.7643   13.8931    8.6657 O   0  0  0  0  0  0  0  0  0  0  0  0
    3.0823    8.3061    9.4189 C   0  0  2  0  0  0  0  0  0  0  0  0
    4.3799    7.6526    8.8641 C   0  0  1  0  0  0  0  0  0  0  0  0
    4.0646    6.4499    7.9293 C   0  0  2  0  0  0  0  0  0  0  0  0
    3.1206    5.4283    8.6273 C   0  0  1  0  0  0  0  0  0  0  0  0
    1.8550    6.1279    9.1966 C   0  0  1  0  0  0  0  0  0  0  0  0
    0.9713    5.1484   10.0128 C   0  0  0  0  0  0  0  0  0  0  0  0
    2.2328    7.2787   10.0116 O   0  0  0  0  0  0  0  0  0  0  0  0
    2.7610    4.3168    7.7196 N   0  0  0  0  0  0  0  0  0  0  0  0
    5.1937    8.6276    8.2146 O   0  0  0  0  0  0  0  0  0  0  0  0
    5.2620    5.8193    7.4797 O   0  0  0  0  0  0  0  0  0  0  0  0
    1.6029    4.7979   11.2398 O   0  0  0  0  0  0  0  0  0  0  0  0
   -3.4096   14.1376    7.3821 C   0  0  1  0  0  0  0  0  0  0  0  0
   -2.7843   13.2826    6.2444 C   0  0  1  0  0  0  0  0  0  0  0  0
   -3.4207   13.6289    4.8688 C   0  0  2  0  0  0  0  0  0  0  0  0
   -4.9800   13.5189    4.8885 C   0  0  1  0  0  0  0  0  0  0  0  0
   -5.6252   14.2574    6.0994 C   0  0  0  0  0  0  0  0  0  0  0  0
   -4.9445   13.8981    7.4545 C   0  0  2  0  0  0  0  0  0  0  0  0
   -5.5562   13.9954    3.6130 N   0  0  0  0  0  0  0  0  0  0  0  0
   -5.5781   14.6764    8.5409 N   0  0  0  0  0  0  0  0  0  0  0  0
   -1.3708   13.4490    6.2040 O   0  0  0  0  0  0  0  0  0  0  0  0
   -2.8755   12.8001    3.8453 O   0  0  0  0  0  0  0  0  0  0  0  0
  1  2  1  0  0  0  0
  1 16  1  6  0  0  0
  2  3  1  0  0  0  0
  2 12  1  6  0  0  0
  4 11  1  6  0  0  0
  4  3  1  0  0  0  0
  5  4  1  0  0  0  0
  5 10  1  1  0  0  0
  6  7  1  0  0  0  0
  6  5  1  0  0  0  0
  6 14  1  1  0  0  0
  7  8  1  0  0  0  0
  7 13  1  1  0  0  0
  8 15  1  6  0  0  0
  8 11  1  0  0  0  0
  9 13  1  0  0  0  0
 10  1  1  0  0  0  0
 17 15  1  6  0  0  0
 17 18  1  0  0  0  0
 18 25  1  6  0  0  0
 19 18  1  0  0  0  0
 19 26  1  1  0  0  0
 20 19  1  0  0  0  0
 20 24  1  6  0  0  0
 21 23  1  0  0  0  0
 21 20  1  0  0  0  0
 21 22  1  1  0  0  0
 23 17  1  0  0  0  0
 27 22  1  0  0  0  0
 28 29  1  0  0  0  0
 28 16  1  1  0  0  0
 29 36  1  6  0  0  0
 30 37  1  6  0  0  0
 30 29  1  0  0  0  0
 31 30  1  0  0  0  0
 31 34  1  6  0  0  0
 32 31  1  0  0  0  0
 32 33  1  0  0  0  0
 33 28  1  0  0  0  0
 33 35  1  1  0  0  0
M  END
>  <CHROM.1>
174.10557445,-156.02068909,112.56332575,73.82497592,157.25498006,179.64119847
-56.18831608,-173.96482646,70.53492671,-51.54588874,-65.83542367,-73.39672432
-62.40550364,-175.89011105,-97.88936347,-53.28819539,-0.50536247,10.22804051
7.95053596,3.02661956,0.80647544,-1.67124936

>  <Name>
lig.pdb

>  <RI>
0

>  <Rbt.Current_Directory>
/home/itssahil/PROJECTS/Mol_Feturizer/New_Systems/rnas/2m4q

>  <Rbt.Executable>
rbdock ($Id: //depot/dev/client3/rdock/2013.1/src/exe/rbdock.cxx#4 $)

>  <Rbt.Library>
libRbt.so (2013.1, Build901 2013/11/27)

>  <Rbt.Parameter_File>
/export/apps/rDock/src/rDock_2013.1_src/data/scripts/dock_solv.prm

>  <Rbt.Receptor>
prm/pocket_docking_6.prm

>  <SCORE>
-32.1077

>  <SCORE.INTER>
-14.1289

>  <SCORE.INTER.CONST>
1

>  <SCORE.INTER.POLAR>
-3.19074

>  <SCORE.INTER.ROT>
10

>  <SCORE.INTER.SOLV>
11.2974

>  <SCORE.INTER.VDW>
-12.8159

>  <SCORE.INTER.norm>
-0.381861

>  <SCORE.INTRA>
-17.9789

>  <SCORE.INTRA.DIHEDRAL>
-32.7484

>  <SCORE.INTRA.DIHEDRAL.0>
44.8331

>  <SCORE.INTRA.POLAR>
0.0687173

>  <SCORE.INTRA.POLAR.0>
-0.108895

>  <SCORE.INTRA.REPUL>
-0.00912235

>  <SCORE.INTRA.REPUL.0>
0.00912235

>  <SCORE.INTRA.SOLV>
-1.24452

>  <SCORE.INTRA.SOLV.lig_0>
-53.9067

>  <SCORE.INTRA.VDW>
-1.17043

>  <SCORE.INTRA.VDW.0>
-2.93492

>  <SCORE.INTRA.norm>
-0.485915

>  <SCORE.RESTR>
0

>  <SCORE.RESTR.CAVITY>
0

>  <SCORE.RESTR.norm>
0

>  <SCORE.SYSTEM>
0

>  <SCORE.SYSTEM.CONST>
0

>  <SCORE.SYSTEM.DIHEDRAL>
0

>  <SCORE.SYSTEM.SOLV>
0

>  <SCORE.SYSTEM.norm>
0

>  <SCORE.heavy>
37

>  <SCORE.norm>
-0.867777

>  <RMSD>
5.159

$$$$
lig.pdb
 OpenBabel11021811453D
libRbt.so/2013.1/901 2013/11/27
 37 40  0  0  0  0  0  0  0  0999 V2000
    2.3366    7.6043    9.5464 C   0  0  2  0  0  0  0  0  0  0  0  0
    3.3073    6.7337    8.6822 C   0  0  1  0  0  0  0  0  0  0  0  0
    3.3474    5.2397    9.1184 C   0  0  0  0  0  0  0  0  0  0  0  0
    3.5427    5.1110   10.6495 C   0  0  1  0  0  0  0  0  0  0  0  0
    2.4391    5.9001   11.3889 C   0  0  1  0  0  0  0  0  0  0  0  0
    2.5829    5.7501   12.9272 C   0  0  1  0  0  0  0  0  0  0  0  0
    2.6355    4.2479   13.3363 C   0  0  1  0  0  0  0  0  0  0  0  0
    3.6990    3.4573   12.5177 C   0  0  2  0  0  0  0  0  0  0  0  0
    2.1735    2.9923   15.3915 C   0  0  0  0  0  0  0  0  0  0  0  0
    2.4501    7.2965   10.9738 O   0  0  0  0  0  0  0  0  0  0  0  0
    3.5780    3.7218   11.0862 O   0  0  0  0  0  0  0  0  0  0  0  0
    2.9243    6.8245    7.2565 N   0  0  0  0  0  0  0  0  0  0  0  0
    2.8718    4.1496   14.7915 N   0  0  0  0  0  0  0  0  0  0  0  0
    3.7184    6.4559   13.4111 O   0  0  0  0  0  0  0  0  0  0  0  0
    3.6032    2.0310   12.8026 O   0  0  0  0  0  0  0  0  0  0  0  0
    0.9542    7.4542    9.1004 O   0  0  0  0  0  0  0  0  0  0  0  0
    4.4999    1.1180   12.0981 C   0  0  2  0  0  0  0  0  0  0  0  0
    4.3670   -0.3299   12.6499 C   0  0  1  0  0  0  0  0  0  0  0  0
    4.9680   -0.4589   14.0790 C   0  0  2  0  0  0  0  0  0  0  0  0
    6.4284    0.0768   14.1246 C   0  0  1  0  0  0  0  0  0  0  0  0
    6.5217    1.5109   13.5328 C   0  0  1  0  0  0  0  0  0  0  0  0
    7.9894    2.0055   13.4457 C   0  0  0  0  0  0  0  0  0  0  0  0
    5.8841    1.5623   12.2205 O   0  0  0  0  0  0  0  0  0  0  0  0
    6.9820    0.0212   15.4954 N   0  0  0  0  0  0  0  0  0  0  0  0
    3.0075   -0.7594   12.6076 O   0  0  0  0  0  0  0  0  0  0  0  0
    4.8990   -1.8041   14.5471 O   0  0  0  0  0  0  0  0  0  0  0  0
    8.5387    2.1952   14.7455 O   0  0  0  0  0  0  0  0  0  0  0  0
   -0.1027    7.7411   10.0620 C   0  0  1  0  0  0  0  0  0  0  0  0
   -0.9402    8.9847    9.6520 C   0  0  1  0  0  0  0  0  0  0  0  0
   -1.9978    9.3307   10.7378 C   0  0  2  0  0  0  0  0  0  0  0  0
   -2.9068    8.1101   11.0953 C   0  0  1  0  0  0  0  0  0  0  0  0
   -2.0944    6.8114   11.3800 C   0  0  0  0  0  0  0  0  0  0  0  0
   -1.0322    6.5134   10.2792 C   0  0  2  0  0  0  0  0  0  0  0  0
   -3.7980    8.4334   12.2298 N   0  0  0  0  0  0  0  0  0  0  0  0
   -0.2727    5.2994   10.6490 N   0  0  0  0  0  0  0  0  0  0  0  0
   -0.0956   10.1019    9.3945 O   0  0  0  0  0  0  0  0  0  0  0  0
   -2.7923   10.4393   10.3235 O   0  0  0  0  0  0  0  0  0  0  0  0
  1  2  1  0  0  0  0
  1 16  1  6  0  0  0
  2  3  1  0  0  0  0
  2 12  1  6  0  0  0
  4 11  1  1  0  0  0
  4  3  1  0  0  0  0
  5  4  1  0  0  0  0
  5 10  1  1  0  0  0
  6  7  1  0  0  0  0
  6  5  1  0  0  0  0
  6 14  1  6  0  0  0
  7  8  1  0  0  0  0
  7 13  1  1  0  0  0
  8 15  1  6  0  0  0
  8 11  1  0  0  0  0
  9 13  1  0  0  0  0
 10  1  1  0  0  0  0
 17 15  1  1  0  0  0
 17 18  1  0  0  0  0
 18 25  1  1  0  0  0
 19 18  1  0  0  0  0
 19 26  1  6  0  0  0
 20 19  1  0  0  0  0
 20 24  1  1  0  0  0
 21 23  1  0  0  0  0
 21 20  1  0  0  0  0
 21 22  1  6  0  0  0
 23 17  1  0  0  0  0
 27 22  1  0  0  0  0
 28 29  1  0  0  0  0
 28 16  1  6  0  0  0
 29 36  1  1  0  0  0
 30 37  1  6  0  0  0
 30 29  1  0  0  0  0
 31 30  1  0  0  0  0
 31 34  1  1  0  0  0
 32 31  1  0  0  0  0
 32 33  1  0  0  0  0
 33 28  1  0  0  0  0
 33 35  1  1  0  0  0
M  END
>  <CHROM.1>
82.20477562,178.36447555,145.55957896,-175.64856115,173.36807660,156.32159063
177.54176708,57.86249437,-67.33149989,-164.16602752,178.86008770,114.03578669
60.89458493,177.17282676,-45.84849897,-168.87901085,2.56370618,4.63152810
11.87598476,-2.28213455,-0.33839703,2.42520975

>  <Name>
lig.pdb

>  <RI>
0

>  <Rbt.Current_Directory>
/home/itssahil/PROJECTS/Mol_Feturizer/New_Systems/rnas/2m4q

>  <Rbt.Executable>
rbdock ($Id: //depot/dev/client3/rdock/2013.1/src/exe/rbdock.cxx#4 $)

>  <Rbt.Library>
libRbt.so (2013.1, Build901 2013/11/27)

>  <Rbt.Parameter_File>
/export/apps/rDock/src/rDock_2013.1_src/data/scripts/dock_solv.prm

>  <Rbt.Receptor>
prm/pocket_docking_7.prm

>  <SCORE>
-33.2444

>  <SCORE.INTER>
-13.64

>  <SCORE.INTER.CONST>
1

>  <SCORE.INTER.POLAR>
-2.54524

>  <SCORE.INTER.ROT>
10

>  <SCORE.INTER.SOLV>
14.7542

>  <SCORE.INTER.VDW>
-15.7939

>  <SCORE.INTER.norm>
-0.368648

>  <SCORE.INTRA>
-19.6044

>  <SCORE.INTRA.DIHEDRAL>
-31.0843

>  <SCORE.INTRA.DIHEDRAL.0>
44.8331

>  <SCORE.INTRA.POLAR>
-1.01907

>  <SCORE.INTRA.POLAR.0>
-0.108895

>  <SCORE.INTRA.REPUL>
-0.00912235

>  <SCORE.INTRA.REPUL.0>
0.00912235

>  <SCORE.INTRA.SOLV>
-0.97997

>  <SCORE.INTRA.SOLV.lig_0>
-53.9067

>  <SCORE.INTRA.VDW>
-0.0618528

>  <SCORE.INTRA.VDW.0>
-2.93492

>  <SCORE.INTRA.norm>
-0.52985

>  <SCORE.RESTR>
0

>  <SCORE.RESTR.CAVITY>
0

>  <SCORE.RESTR.norm>
0

>  <SCORE.SYSTEM>
0

>  <SCORE.SYSTEM.CONST>
0

>  <SCORE.SYSTEM.DIHEDRAL>
0

>  <SCORE.SYSTEM.SOLV>
0

>  <SCORE.SYSTEM.norm>
0

>  <SCORE.heavy>
37

>  <SCORE.norm>
-0.898498

>  <RMSD>
5.165

$$$$
lig.pdb
 OpenBabel11021811453D
libRbt.so/2013.1/901 2013/11/27
 37 40  0  0  0  0  0  0  0  0999 V2000
   -1.1802    7.1967   15.2726 C   0  0  2  0  0  0  0  0  0  0  0  0
   -0.1630    6.0806   15.6809 C   0  0  1  0  0  0  0  0  0  0  0  0
    0.8312    5.7076   14.5424 C   0  0  0  0  0  0  0  0  0  0  0  0
    0.0831    5.4536   13.2102 C   0  0  1  0  0  0  0  0  0  0  0  0
   -0.7771    6.6845   12.8467 C   0  0  1  0  0  0  0  0  0  0  0  0
   -1.5026    6.4760   11.4903 C   0  0  1  0  0  0  0  0  0  0  0  0
   -0.4892    6.0896   10.3720 C   0  0  1  0  0  0  0  0  0  0  0  0
    0.4215    4.8993   10.7961 C   0  0  2  0  0  0  0  0  0  0  0  0
   -1.3053    6.9868    8.2407 C   0  0  0  0  0  0  0  0  0  0  0  0
   -1.7105    6.9861   13.9237 O   0  0  0  0  0  0  0  0  0  0  0  0
    0.9912    5.1079   12.1249 O   0  0  0  0  0  0  0  0  0  0  0  0
    0.5919    6.5071   16.8792 N   0  0  0  0  0  0  0  0  0  0  0  0
   -1.2287    5.8041    9.1252 N   0  0  0  0  0  0  0  0  0  0  0  0
   -2.5395    5.5096   11.6024 O   0  0  0  0  0  0  0  0  0  0  0  0
    1.4641    4.6770    9.8020 O   0  0  0  0  0  0  0  0  0  0  0  0
   -0.5807    8.5236   15.3837 O   0  0  0  0  0  0  0  0  0  0  0  0
    2.6303    5.5567    9.8067 C   0  0  2  0  0  0  0  0  0  0  0  0
    3.2126    5.7179    8.3737 C   0  0  1  0  0  0  0  0  0  0  0  0
    3.8995    4.4120    7.8809 C   0  0  2  0  0  0  0  0  0  0  0  0
    4.9516    3.9077    8.9108 C   0  0  1  0  0  0  0  0  0  0  0  0
    4.3379    3.7942   10.3342 C   0  0  1  0  0  0  0  0  0  0  0  0
    5.4064    3.4243   11.3962 C   0  0  0  0  0  0  0  0  0  0  0  0
    3.6619    5.0361   10.6974 O   0  0  0  0  0  0  0  0  0  0  0  0
    5.5589    2.6290    8.4811 N   0  0  0  0  0  0  0  0  0  0  0  0
    2.2015    6.1571    7.4685 O   0  0  0  0  0  0  0  0  0  0  0  0
    4.4858    4.5927    6.5937 O   0  0  0  0  0  0  0  0  0  0  0  0
    4.8138    3.2798   12.6828 O   0  0  0  0  0  0  0  0  0  0  0  0
   -1.4019    9.6706   15.0178 C   0  0  1  0  0  0  0  0  0  0  0  0
   -1.5290    9.8269   13.4765 C   0  0  1  0  0  0  0  0  0  0  0  0
   -2.3267   11.1093   13.1072 C   0  0  2  0  0  0  0  0  0  0  0  0
   -3.7197   11.1694   13.8142 C   0  0  1  0  0  0  0  0  0  0  0  0
   -3.6369   10.8819   15.3434 C   0  0  0  0  0  0  0  0  0  0  0  0
   -2.8119    9.6008   15.6703 C   0  0  2  0  0  0  0  0  0  0  0  0
   -4.3837   12.4651   13.5570 N   0  0  0  0  0  0  0  0  0  0  0  0
   -2.7378    9.4285   17.1373 N   0  0  0  0  0  0  0  0  0  0  0  0
   -0.2453    9.8348   12.8604 O   0  0  0  0  0  0  0  0  0  0  0  0
   -2.4805   11.2101   11.6937 O   0  0  0  0  0  0  0  0  0  0  0  0
  1  2  1  0  0  0  0
  1 16  1  6  0  0  0
  2  3  1  0  0  0  0
  2 12  1  1  0  0  0
  4 11  1  6  0  0  0
  4  3  1  0  0  0  0
  5  4  1  0  0  0  0
  5 10  1  1  0  0  0
  6  7  1  0  0  0  0
  6  5  1  0  0  0  0
  6 14  1  1  0  0  0
  7  8  1  0  0  0  0
  7 13  1  6  0  0  0
  8 15  1  6  0  0  0
  8 11  1  0  0  0  0
  9 13  1  0  0  0  0
 10  1  1  0  0  0  0
 17 15  1  6  0  0  0
 17 18  1  0  0  0  0
 18 25  1  6  0  0  0
 19 18  1  0  0  0  0
 19 26  1  6  0  0  0
 20 19  1  0  0  0  0
 20 24  1  6  0  0  0
 21 23  1  0  0  0  0
 21 20  1  0  0  0  0
 21 22  1  1  0  0  0
 23 17  1  0  0  0  0
 27 22  1  0  0  0  0
 28 29  1  0  0  0  0
 28 16  1  6  0  0  0
 29 36  1  6  0  0  0
 30 37  1  6  0  0  0
 30 29  1  0  0  0  0
 31 30  1  0  0  0  0
 31 34  1  1  0  0  0
 32 31  1  0  0  0  0
 32 33  1  0  0  0  0
 33 28  1  0  0  0  0
 33 35  1  1  0  0  0
M  END
>  <CHROM.1>
78.16084508,78.86992789,94.84016284,68.35466470,-149.84597576,179.14811480
-170.60858658,-174.19600654,-177.95212277,-113.96087462,-56.78381125,-76.50612679
-57.76311281,-60.77558178,-176.82909381,176.34556370,0.36366626,6.81694803
12.01197446,-2.61605753,0.75536806,-1.50507519

>  <Name>
lig.pdb

>  <RI>
0

>  <Rbt.Current_Directory>
/home/itssahil/PROJECTS/Mol_Feturizer/New_Systems/rnas/2m4q

>  <Rbt.Executable>
rbdock ($Id: //depot/dev/client3/rdock/2013.1/src/exe/rbdock.cxx#4 $)

>  <Rbt.Library>
libRbt.so (2013.1, Build901 2013/11/27)

>  <Rbt.Parameter_File>
/export/apps/rDock/src/rDock_2013.1_src/data/scripts/dock_solv.prm

>  <Rbt.Receptor>
prm/pocket_docking_6.prm

>  <SCORE>
-38.2853

>  <SCORE.INTER>
-21.5264

>  <SCORE.INTER.CONST>
1

>  <SCORE.INTER.POLAR>
-3.28017

>  <SCORE.INTER.ROT>
10

>  <SCORE.INTER.SOLV>
15.6166

>  <SCORE.INTER.VDW>
-18.8892

>  <SCORE.INTER.norm>
-0.581795

>  <SCORE.INTRA>
-16.7589

>  <SCORE.INTRA.DIHEDRAL>
-32.1328

>  <SCORE.INTRA.DIHEDRAL.0>
44.8331

>  <SCORE.INTRA.POLAR>
-0.100825

>  <SCORE.INTRA.POLAR.0>
-0.108895

>  <SCORE.INTRA.REPUL>
-0.00912235

>  <SCORE.INTRA.REPUL.0>
0.00912235

>  <SCORE.INTRA.SOLV>
-1.12148

>  <SCORE.INTRA.SOLV.lig_0>
-53.9067

>  <SCORE.INTRA.VDW>
0.256686

>  <SCORE.INTRA.VDW.0>
-2.93492

>  <SCORE.INTRA.norm>
-0.452943

>  <SCORE.RESTR>
0

>  <SCORE.RESTR.CAVITY>
0

>  <SCORE.RESTR.norm>
0

>  <SCORE.SYSTEM>
0

>  <SCORE.SYSTEM.CONST>
0

>  <SCORE.SYSTEM.DIHEDRAL>
0

>  <SCORE.SYSTEM.SOLV>
0

>  <SCORE.SYSTEM.norm>
0

>  <SCORE.heavy>
37

>  <SCORE.norm>
-1.03474

>  <RMSD>
5.197

$$$$
lig.pdb
 OpenBabel11021811453D
libRbt.so/2013.1/901 2013/11/27
 37 40  0  0  0  0  0  0  0  0999 V2000
    2.0005    6.0855    9.1917 C   0  0  2  0  0  0  0  0  0  0  0  0
    3.2321    5.2809    8.6599 C   0  0  1  0  0  0  0  0  0  0  0  0
    4.0788    4.6314    9.7935 C   0  0  0  0  0  0  0  0  0  0  0  0
    4.4012    5.6586   10.9070 C   0  0  1  0  0  0  0  0  0  0  0  0
    3.0926    6.2790   11.4454 C   0  0  1  0  0  0  0  0  0  0  0  0
    3.3830    7.2793   12.5964 C   0  0  1  0  0  0  0  0  0  0  0  0
    4.2431    6.6104   13.7098 C   0  0  1  0  0  0  0  0  0  0  0  0
    5.5139    5.9211   13.1302 C   0  0  2  0  0  0  0  0  0  0  0  0
    3.4535    7.8702   15.6600 C   0  0  0  0  0  0  0  0  0  0  0  0
    2.3419    6.8981   10.3614 O   0  0  0  0  0  0  0  0  0  0  0  0
    5.1887    5.0751   11.9846 O   0  0  0  0  0  0  0  0  0  0  0  0
    2.7767    4.2348    7.7188 N   0  0  0  0  0  0  0  0  0  0  0  0
    4.5797    7.6201   14.7347 N   0  0  0  0  0  0  0  0  0  0  0  0
    4.0018    8.4627   12.1084 O   0  0  0  0  0  0  0  0  0  0  0  0
    6.2009    5.1642   14.1692 O   0  0  0  0  0  0  0  0  0  0  0  0
    0.8816    5.1978    9.4962 O   0  0  0  0  0  0  0  0  0  0  0  0
    5.4348    4.1922   14.9453 C   0  0  2  0  0  0  0  0  0  0  0  0
    6.3752    3.2957   15.8000 C   0  0  1  0  0  0  0  0  0  0  0  0
    7.1894    2.3081   14.9159 C   0  0  2  0  0  0  0  0  0  0  0  0
    6.2534    1.4885   13.9810 C   0  0  1  0  0  0  0  0  0  0  0  0
    5.3081    2.4201   13.1723 C   0  0  1  0  0  0  0  0  0  0  0  0
    4.2775    1.6143   12.3386 C   0  0  0  0  0  0  0  0  0  0  0  0
    4.6281    3.3541   14.0648 O   0  0  0  0  0  0  0  0  0  0  0  0
    7.0264    0.5971   13.0886 N   0  0  0  0  0  0  0  0  0  0  0  0
    7.2258    4.0979   16.6171 O   0  0  0  0  0  0  0  0  0  0  0  0
    7.9984    1.4482   15.7155 O   0  0  0  0  0  0  0  0  0  0  0  0
    4.9077    0.9757   11.2330 O   0  0  0  0  0  0  0  0  0  0  0  0
   -0.3527    5.8046    9.9780 C   0  0  1  0  0  0  0  0  0  0  0  0
   -0.2704    6.1713   11.4863 C   0  0  1  0  0  0  0  0  0  0  0  0
   -1.6275    6.7269   12.0027 C   0  0  2  0  0  0  0  0  0  0  0  0
   -2.1487    7.9230   11.1416 C   0  0  1  0  0  0  0  0  0  0  0  0
   -2.1146    7.6294    9.6117 C   0  0  0  0  0  0  0  0  0  0  0  0
   -0.7448    7.0548    9.1403 C   0  0  2  0  0  0  0  0  0  0  0  0
   -3.5047    8.3273   11.5704 N   0  0  0  0  0  0  0  0  0  0  0  0
   -0.8122    6.7559    7.6934 N   0  0  0  0  0  0  0  0  0  0  0  0
    0.1435    5.0489   12.2587 O   0  0  0  0  0  0  0  0  0  0  0  0
   -1.5207    7.1080   13.3721 O   0  0  0  0  0  0  0  0  0  0  0  0
  1  2  1  0  0  0  0
  1 16  1  1  0  0  0
  2  3  1  0  0  0  0
  2 12  1  6  0  0  0
  4 11  1  1  0  0  0
  4  3  1  0  0  0  0
  5  4  1  0  0  0  0
  5 10  1  6  0  0  0
  6  7  1  0  0  0  0
  6  5  1  0  0  0  0
  6 14  1  6  0  0  0
  7  8  1  0  0  0  0
  7 13  1  1  0  0  0
  8 15  1  1  0  0  0
  8 11  1  0  0  0  0
  9 13  1  0  0  0  0
 10  1  1  0  0  0  0
 17 15  1  6  0  0  0
 17 18  1  0  0  0  0
 18 25  1  6  0  0  0
 19 18  1  0  0  0  0
 19 26  1  1  0  0  0
 20 19  1  0  0  0  0
 20 24  1  6  0  0  0
 21 23  1  0  0  0  0
 21 20  1  0  0  0  0
 21 22  1  1  0  0  0
 23 17  1  0  0  0  0
 27 22  1  0  0  0  0
 28 29  1  0  0  0  0
 28 16  1  6  0  0  0
 29 36  1  1  0  0  0
 30 37  1  1  0  0  0
 30 29  1  0  0  0  0
 31 30  1  0  0  0  0
 31 34  1  1  0  0  0
 32 31  1  0  0  0  0
 32 33  1  0  0  0  0
 33 28  1  0  0  0  0
 33 35  1  6  0  0  0
M  END
>  <CHROM.1>
83.44549616,52.82666233,78.84805013,-174.42799525,168.90969762,-178.79337527
179.33242453,61.12039800,-72.09158660,-57.81635901,-160.00916727,-79.07929358
60.36958758,59.64437661,-118.60783602,36.14650755,3.07757560,5.18274891,12.18010959
-3.01647262,-0.66443760,0.98251076

>  <Name>
lig.pdb

>  <RI>
0

>  <Rbt.Current_Directory>
/home/itssahil/PROJECTS/Mol_Feturizer/New_Systems/rnas/2m4q

>  <Rbt.Executable>
rbdock ($Id: //depot/dev/client3/rdock/2013.1/src/exe/rbdock.cxx#4 $)

>  <Rbt.Library>
libRbt.so (2013.1, Build901 2013/11/27)

>  <Rbt.Parameter_File>
/export/apps/rDock/src/rDock_2013.1_src/data/scripts/dock_solv.prm

>  <Rbt.Receptor>
prm/pocket_docking_6.prm

>  <SCORE>
-39.6031

>  <SCORE.INTER>
-20.3875

>  <SCORE.INTER.CONST>
1

>  <SCORE.INTER.POLAR>
-3.72942

>  <SCORE.INTER.ROT>
10

>  <SCORE.INTER.SOLV>
12.2298

>  <SCORE.INTER.VDW>
-15.5035

>  <SCORE.INTER.norm>
-0.551013

>  <SCORE.INTRA>
-19.2156

>  <SCORE.INTRA.DIHEDRAL>
-34.703

>  <SCORE.INTRA.DIHEDRAL.0>
44.8331

>  <SCORE.INTRA.POLAR>
-0.240049

>  <SCORE.INTRA.POLAR.0>
-0.108895

>  <SCORE.INTRA.REPUL>
-0.00912235

>  <SCORE.INTRA.REPUL.0>
0.00912235

>  <SCORE.INTRA.SOLV>
-0.564125

>  <SCORE.INTRA.SOLV.lig_0>
-53.9067

>  <SCORE.INTRA.VDW>
-0.720274

>  <SCORE.INTRA.VDW.0>
-2.93492

>  <SCORE.INTRA.norm>
-0.519341

>  <SCORE.RESTR>
0

>  <SCORE.RESTR.CAVITY>
0

>  <SCORE.RESTR.norm>
0

>  <SCORE.SYSTEM>
0

>  <SCORE.SYSTEM.CONST>
0

>  <SCORE.SYSTEM.DIHEDRAL>
0

>  <SCORE.SYSTEM.SOLV>
0

>  <SCORE.SYSTEM.norm>
0

>  <SCORE.heavy>
37

>  <SCORE.norm>
-1.07035

>  <RMSD>
5.224

$$$$
lig.pdb
 OpenBabel11021811453D
libRbt.so/2013.1/901 2013/11/27
 37 40  0  0  0  0  0  0  0  0999 V2000
   -2.7186   10.9427    7.2280 C   0  0  2  0  0  0  0  0  0  0  0  0
   -1.9855    9.6475    6.7460 C   0  0  1  0  0  0  0  0  0  0  0  0
   -1.9968    8.5045    7.8029 C   0  0  0  0  0  0  0  0  0  0  0  0
   -1.5551    9.0260    9.1928 C   0  0  1  0  0  0  0  0  0  0  0  0
   -2.4467   10.2146    9.6166 C   0  0  1  0  0  0  0  0  0  0  0  0
   -2.0560   10.7281   11.0285 C   0  0  1  0  0  0  0  0  0  0  0  0
   -2.0604    9.5640   12.0637 C   0  0  1  0  0  0  0  0  0  0  0  0
   -1.2217    8.3457   11.5752 C   0  0  2  0  0  0  0  0  0  0  0  0
   -2.2179    9.3636   14.5027 C   0  0  0  0  0  0  0  0  0  0  0  0
   -2.3898   11.2724    8.6166 O   0  0  0  0  0  0  0  0  0  0  0  0
   -1.5622    7.9769   10.2034 O   0  0  0  0  0  0  0  0  0  0  0  0
   -2.5968    9.1665    5.4879 N   0  0  0  0  0  0  0  0  0  0  0  0
   -1.5888   10.0734   13.3680 N   0  0  0  0  0  0  0  0  0  0  0  0
   -0.7997   11.3935   11.0067 O   0  0  0  0  0  0  0  0  0  0  0  0
   -1.3866    7.2175   12.4832 O   0  0  0  0  0  0  0  0  0  0  0  0
   -4.1644   10.8243    7.0602 O   0  0  0  0  0  0  0  0  0  0  0  0
   -1.1098    5.8736   11.9822 C   0  0  2  0  0  0  0  0  0  0  0  0
   -1.2389    4.8181   13.1171 C   0  0  1  0  0  0  0  0  0  0  0  0
   -0.0779    4.9341   14.1459 C   0  0  2  0  0  0  0  0  0  0  0  0
    1.3069    4.8971   13.4367 C   0  0  1  0  0  0  0  0  0  0  0  0
    1.3805    5.9420   12.2886 C   0  0  1  0  0  0  0  0  0  0  0  0
    2.7020    5.8250   11.4847 C   0  0  0  0  0  0  0  0  0  0  0  0
    0.2276    5.8073   11.4032 O   0  0  0  0  0  0  0  0  0  0  0  0
    2.4136    5.0764   14.4019 N   0  0  0  0  0  0  0  0  0  0  0  0
   -2.5150    4.9136   13.7473 O   0  0  0  0  0  0  0  0  0  0  0  0
   -0.1713    3.9202   15.1443 O   0  0  0  0  0  0  0  0  0  0  0  0
    2.7641    6.8157   10.4640 O   0  0  0  0  0  0  0  0  0  0  0  0
   -4.8919   12.0017    6.6036 C   0  0  1  0  0  0  0  0  0  0  0  0
   -4.7118   13.2071    7.5683 C   0  0  1  0  0  0  0  0  0  0  0  0
   -5.5719   14.4205    7.1154 C   0  0  2  0  0  0  0  0  0  0  0  0
   -5.3022   14.8208    5.6285 C   0  0  1  0  0  0  0  0  0  0  0  0
   -5.3438   13.6046    4.6555 C   0  0  0  0  0  0  0  0  0  0  0  0
   -4.4861   12.4039    5.1572 C   0  0  2  0  0  0  0  0  0  0  0  0
   -6.2389   15.8778    5.1910 N   0  0  0  0  0  0  0  0  0  0  0  0
   -4.6203   11.2774    4.2083 N   0  0  0  0  0  0  0  0  0  0  0  0
   -5.0256   12.8362    8.9067 O   0  0  0  0  0  0  0  0  0  0  0  0
   -5.3552   15.5340    7.9785 O   0  0  0  0  0  0  0  0  0  0  0  0
  1  2  1  0  0  0  0
  1 16  1  1  0  0  0
  2  3  1  0  0  0  0
  2 12  1  6  0  0  0
  4 11  1  1  0  0  0
  4  3  1  0  0  0  0
  5  4  1  0  0  0  0
  5 10  1  6  0  0  0
  6  7  1  0  0  0  0
  6  5  1  0  0  0  0
  6 14  1  6  0  0  0
  7  8  1  0  0  0  0
  7 13  1  1  0  0  0
  8 15  1  1  0  0  0
  8 11  1  0  0  0  0
  9 13  1  0  0  0  0
 10  1  1  0  0  0  0
 17 15  1  1  0  0  0
 17 18  1  0  0  0  0
 18 25  1  1  0  0  0
 19 18  1  0  0  0  0
 19 26  1  1  0  0  0
 20 19  1  0  0  0  0
 20 24  1  1  0  0  0
 21 23  1  0  0  0  0
 21 20  1  0  0  0  0
 21 22  1  6  0  0  0
 23 17  1  0  0  0  0
 27 22  1  0  0  0  0
 28 29  1  0  0  0  0
 28 16  1  1  0  0  0
 29 36  1  1  0  0  0
 30 37  1  1  0  0  0
 30 29  1  0  0  0  0
 31 30  1  0  0  0  0
 31 34  1  6  0  0  0
 32 31  1  0  0  0  0
 32 33  1  0  0  0  0
 33 28  1  0  0  0  0
 33 35  1  6  0  0  0
M  END
>  <CHROM.1>
131.42248896,157.81735748,148.50225339,-58.85490640,175.83708801,-140.62955979
47.30058891,61.64225638,-178.33120857,58.04747168,62.11994011,-59.01535625
178.31934790,61.77106472,178.71337974,-157.11867264,-2.10844232,9.42708641
9.82677283,-2.46313849,-0.95978215,1.61212959

>  <Name>
lig.pdb

>  <RI>
2.86754e+07

>  <Rbt.Current_Directory>
/home/itssahil/PROJECTS/Mol_Feturizer/New_Systems/rnas/2m4q

>  <Rbt.Executable>
rbdock ($Id: //depot/dev/client3/rdock/2013.1/src/exe/rbdock.cxx#4 $)

>  <Rbt.Library>
libRbt.so (2013.1, Build901 2013/11/27)

>  <Rbt.Parameter_File>
/export/apps/rDock/src/rDock_2013.1_src/data/scripts/dock_solv.prm

>  <Rbt.Receptor>
prm/pocket_docking_5.prm

>  <SCORE>
-34.8625

>  <SCORE.INTER>
-15.4429

>  <SCORE.INTER.CONST>
1

>  <SCORE.INTER.POLAR>
-2.6293

>  <SCORE.INTER.ROT>
10

>  <SCORE.INTER.SOLV>
12.9429

>  <SCORE.INTER.VDW>
-16.1119

>  <SCORE.INTER.norm>
-0.417376

>  <SCORE.INTRA>
-19.4196

>  <SCORE.INTRA.DIHEDRAL>
-31.7369

>  <SCORE.INTRA.DIHEDRAL.0>
44.8331

>  <SCORE.INTRA.POLAR>
-0.891208

>  <SCORE.INTRA.POLAR.0>
-0.108895

>  <SCORE.INTRA.REPUL>
-0.00912235

>  <SCORE.INTRA.REPUL.0>
0.00912235

>  <SCORE.INTRA.SOLV>
-1.34245

>  <SCORE.INTRA.SOLV.lig_0>
-53.9067

>  <SCORE.INTRA.VDW>
0.195739

>  <SCORE.INTRA.VDW.0>
-2.93492

>  <SCORE.INTRA.norm>
-0.524855

>  <SCORE.RESTR>
0

>  <SCORE.RESTR.CAVITY>
0

>  <SCORE.RESTR.norm>
0

>  <SCORE.SYSTEM>
0

>  <SCORE.SYSTEM.CONST>
0

>  <SCORE.SYSTEM.DIHEDRAL>
0

>  <SCORE.SYSTEM.SOLV>
0

>  <SCORE.SYSTEM.norm>
0

>  <SCORE.heavy>
37

>  <SCORE.norm>
-0.942231

>  <RMSD>
5.289

$$$$
lig.pdb
 OpenBabel11021811453D
libRbt.so/2013.1/901 2013/11/27
 37 40  0  0  0  0  0  0  0  0999 V2000
    3.7339    7.7566    8.3678 C   0  0  2  0  0  0  0  0  0  0  0  0
    5.1649    7.3114    7.9191 C   0  0  1  0  0  0  0  0  0  0  0  0
    5.7271    6.1202    8.7489 C   0  0  0  0  0  0  0  0  0  0  0  0
    5.5690    6.3754   10.2684 C   0  0  1  0  0  0  0  0  0  0  0  0
    4.0885    6.6651   10.6021 C   0  0  1  0  0  0  0  0  0  0  0  0
    3.8929    6.8789   12.1272 C   0  0  1  0  0  0  0  0  0  0  0  0
    4.4763    5.6816   12.9352 C   0  0  1  0  0  0  0  0  0  0  0  0
    5.9425    5.3575   12.5210 C   0  0  2  0  0  0  0  0  0  0  0  0
    3.0736    5.4992   14.9384 C   0  0  0  0  0  0  0  0  0  0  0  0
    3.6069    7.8001    9.8262 O   0  0  0  0  0  0  0  0  0  0  0  0
    6.0823    5.2723   11.0694 O   0  0  0  0  0  0  0  0  0  0  0  0
    5.1495    6.9534    6.4842 N   0  0  0  0  0  0  0  0  0  0  0  0
    4.3598    5.9689   14.3798 N   0  0  0  0  0  0  0  0  0  0  0  0
    4.4586    8.1120   12.5526 O   0  0  0  0  0  0  0  0  0  0  0  0
    6.3955    4.1332   13.1693 O   0  0  0  0  0  0  0  0  0  0  0  0
    2.7073    6.8924    7.7918 O   0  0  0  0  0  0  0  0  0  0  0  0
    5.6559    2.8983   12.9207 C   0  0  2  0  0  0  0  0  0  0  0  0
    6.4687    1.6579   13.3892 C   0  0  1  0  0  0  0  0  0  0  0  0
    7.6948    1.3920   12.4695 C   0  0  2  0  0  0  0  0  0  0  0  0
    7.2687    1.3098   10.9750 C   0  0  1  0  0  0  0  0  0  0  0  0
    6.4305    2.5506   10.5586 C   0  0  1  0  0  0  0  0  0  0  0  0
    5.8834    2.4196    9.1130 C   0  0  0  0  0  0  0  0  0  0  0  0
    5.3382    2.7671   11.5029 O   0  0  0  0  0  0  0  0  0  0  0  0
    8.4387    1.1263   10.0885 N   0  0  0  0  0  0  0  0  0  0  0  0
    6.8535    1.7979   14.7556 O   0  0  0  0  0  0  0  0  0  0  0  0
    8.3936    0.2154   12.8702 O   0  0  0  0  0  0  0  0  0  0  0  0
    5.3048    1.1355    8.9041 O   0  0  0  0  0  0  0  0  0  0  0  0
    1.3481    7.0233    8.3008 C   0  0  1  0  0  0  0  0  0  0  0  0
    0.4424    7.8405    7.3375 C   0  0  1  0  0  0  0  0  0  0  0  0
   -0.9740    8.0507    7.9433 C   0  0  2  0  0  0  0  0  0  0  0  0
   -1.6454    6.7053    8.3708 C   0  0  1  0  0  0  0  0  0  0  0  0
   -0.7068    5.8043    9.2281 C   0  0  0  0  0  0  0  0  0  0  0  0
    0.7079    5.6371    8.5960 C   0  0  2  0  0  0  0  0  0  0  0  0
   -2.9219    6.9554    9.0738 N   0  0  0  0  0  0  0  0  0  0  0  0
    1.5496    4.8154    9.4925 N   0  0  0  0  0  0  0  0  0  0  0  0
    1.0444    9.0896    7.0135 O   0  0  0  0  0  0  0  0  0  0  0  0
   -1.8081    8.7547    7.0266 O   0  0  0  0  0  0  0  0  0  0  0  0
  1  2  1  0  0  0  0
  1 16  1  1  0  0  0
  2  3  1  0  0  0  0
  2 12  1  6  0  0  0
  4 11  1  1  0  0  0
  4  3  1  0  0  0  0
  5  4  1  0  0  0  0
  5 10  1  6  0  0  0
  6  7  1  0  0  0  0
  6  5  1  0  0  0  0
  6 14  1  1  0  0  0
  7  8  1  0  0  0  0
  7 13  1  1  0  0  0
  8 15  1  1  0  0  0
  8 11  1  0  0  0  0
  9 13  1  0  0  0  0
 10  1  1  0  0  0  0
 17 15  1  6  0  0  0
 17 18  1  0  0  0  0
 18 25  1  1  0  0  0
 19 18  1  0  0  0  0
 19 26  1  1  0  0  0
 20 19  1  0  0  0  0
 20 24  1  6  0  0  0
 21 23  1  0  0  0  0
 21 20  1  0  0  0  0
 21 22  1  6  0  0  0
 23 17  1  0  0  0  0
 27 22  1  0  0  0  0
 28 29  1  0  0  0  0
 28 16  1  6  0  0  0
 29 36  1  1  0  0  0
 30 37  1  6  0  0  0
 30 29  1  0  0  0  0
 31 30  1  0  0  0  0
 31 34  1  1  0  0  0
 32 31  1  0  0  0  0
 32 33  1  0  0  0  0
 33 28  1  0  0  0  0
 33 35  1  1  0  0  0
M  END
>  <CHROM.1>
-179.97583864,59.18118233,89.40344750,-173.44836418,165.79344285,169.18692435
68.65647405,61.64996587,46.74954304,55.89129853,-171.52585861,101.87851337
63.37065090,168.13538700,73.98894880,52.37251083,3.93258638,5.19229063,10.37204643
-2.69905400,-0.68222790,1.54922049

>  <Name>
lig.pdb

>  <RI>
3.87352e+07

>  <Rbt.Current_Directory>
/home/itssahil/PROJECTS/Mol_Feturizer/New_Systems/rnas/2m4q

>  <Rbt.Executable>
rbdock ($Id: //depot/dev/client3/rdock/2013.1/src/exe/rbdock.cxx#4 $)

>  <Rbt.Library>
libRbt.so (2013.1, Build901 2013/11/27)

>  <Rbt.Parameter_File>
/export/apps/rDock/src/rDock_2013.1_src/data/scripts/dock_solv.prm

>  <Rbt.Receptor>
prm/pocket_docking_4.prm

>  <SCORE>
-37.532

>  <SCORE.INTER>
-19.5036

>  <SCORE.INTER.CONST>
1

>  <SCORE.INTER.POLAR>
-4.38813

>  <SCORE.INTER.ROT>
10

>  <SCORE.INTER.SOLV>
14.7965

>  <SCORE.INTER.VDW>
-13.5741

>  <SCORE.INTER.norm>
-0.527124

>  <SCORE.INTRA>
-18.4626

>  <SCORE.INTRA.DIHEDRAL>
-33.0428

>  <SCORE.INTRA.DIHEDRAL.0>
44.8331

>  <SCORE.INTRA.POLAR>
-0.0456001

>  <SCORE.INTRA.POLAR.0>
-0.108895

>  <SCORE.INTRA.REPUL>
-0.00912235

>  <SCORE.INTRA.REPUL.0>
0.00912235

>  <SCORE.INTRA.SOLV>
-0.812147

>  <SCORE.INTRA.SOLV.lig_0>
-53.9067

>  <SCORE.INTRA.VDW>
-1.33444

>  <SCORE.INTRA.VDW.0>
-2.93492

>  <SCORE.INTRA.norm>
-0.498988

>  <SCORE.RESTR>
0.434106

>  <SCORE.RESTR.CAVITY>
0.434106

>  <SCORE.RESTR.norm>
0.0117326

>  <SCORE.SYSTEM>
0

>  <SCORE.SYSTEM.CONST>
0

>  <SCORE.SYSTEM.DIHEDRAL>
0

>  <SCORE.SYSTEM.SOLV>
0

>  <SCORE.SYSTEM.norm>
0

>  <SCORE.heavy>
37

>  <SCORE.norm>
-1.01438

>  <RMSD>
5.398

$$$$
lig.pdb
 OpenBabel11021811453D
libRbt.so/2013.1/901 2013/11/27
 37 40  0  0  0  0  0  0  0  0999 V2000
   -3.8052   11.5176    9.5383 C   0  0  2  0  0  0  0  0  0  0  0  0
   -3.9973   11.6700   11.0833 C   0  0  1  0  0  0  0  0  0  0  0  0
   -2.9308   10.8988   11.9150 C   0  0  0  0  0  0  0  0  0  0  0  0
   -2.7827    9.4400   11.4161 C   0  0  1  0  0  0  0  0  0  0  0  0
   -2.4561    9.4309    9.9059 C   0  0  1  0  0  0  0  0  0  0  0  0
   -2.2559    7.9813    9.3882 C   0  0  1  0  0  0  0  0  0  0  0  0
   -1.1960    7.2269   10.2451 C   0  0  1  0  0  0  0  0  0  0  0  0
   -1.5034    7.3215   11.7692 C   0  0  2  0  0  0  0  0  0  0  0  0
    0.0245    5.6159    8.8562 C   0  0  0  0  0  0  0  0  0  0  0  0
   -3.4880   10.1387    9.1601 O   0  0  0  0  0  0  0  0  0  0  0  0
   -1.7856    8.6963   12.1741 O   0  0  0  0  0  0  0  0  0  0  0  0
   -3.9727   13.1025   11.4507 N   0  0  0  0  0  0  0  0  0  0  0  0
   -1.1078    5.8259    9.7840 N   0  0  0  0  0  0  0  0  0  0  0  0
   -3.4874    7.2717    9.3502 O   0  0  0  0  0  0  0  0  0  0  0  0
   -0.4074    6.7553   12.5455 O   0  0  0  0  0  0  0  0  0  0  0  0
   -2.7806   12.4316    9.0410 O   0  0  0  0  0  0  0  0  0  0  0  0
    0.9215    7.3462   12.4085 C   0  0  2  0  0  0  0  0  0  0  0  0
    1.9659    6.5732   13.2632 C   0  0  1  0  0  0  0  0  0  0  0  0
    1.7536    6.8113   14.7857 C   0  0  2  0  0  0  0  0  0  0  0  0
    1.7047    8.3315   15.1152 C   0  0  1  0  0  0  0  0  0  0  0  0
    0.6748    9.0704   14.2159 C   0  0  1  0  0  0  0  0  0  0  0  0
    0.7116   10.6054   14.4366 C   0  0  0  0  0  0  0  0  0  0  0  0
    0.9032    8.7486   12.8103 O   0  0  0  0  0  0  0  0  0  0  0  0
    1.4338    8.5651   16.5507 N   0  0  0  0  0  0  0  0  0  0  0  0
    1.9501    5.1845   12.9382 O   0  0  0  0  0  0  0  0  0  0  0  0
    2.7561    6.1506   15.5550 O   0  0  0  0  0  0  0  0  0  0  0  0
    0.4083   10.9307   15.7892 O   0  0  0  0  0  0  0  0  0  0  0  0
   -2.6550   12.5876    7.5975 C   0  0  1  0  0  0  0  0  0  0  0  0
   -1.8172   11.4441    6.9596 C   0  0  1  0  0  0  0  0  0  0  0  0
   -1.6140   11.6810    5.4365 C   0  0  2  0  0  0  0  0  0  0  0  0
   -2.9651   11.9020    4.6819 C   0  0  1  0  0  0  0  0  0  0  0  0
   -3.8848   12.9494    5.3782 C   0  0  0  0  0  0  0  0  0  0  0  0
   -4.0444   12.6875    6.9062 C   0  0  2  0  0  0  0  0  0  0  0  0
   -2.7242   12.2685    3.2699 N   0  0  0  0  0  0  0  0  0  0  0  0
   -4.8853   13.7501    7.4989 N   0  0  0  0  0  0  0  0  0  0  0  0
   -0.5642   11.3042    7.6213 O   0  0  0  0  0  0  0  0  0  0  0  0
   -0.8905   10.5984    4.8565 O   0  0  0  0  0  0  0  0  0  0  0  0
  1  2  1  0  0  0  0
  1 16  1  1  0  0  0
  2  3  1  0  0  0  0
  2 12  1  6  0  0  0
  4 11  1  1  0  0  0
  4  3  1  0  0  0  0
  5  4  1  0  0  0  0
  5 10  1  6  0  0  0
  6  7  1  0  0  0  0
  6  5  1  0  0  0  0
  6 14  1  1  0  0  0
  7  8  1  0  0  0  0
  7 13  1  6  0  0  0
  8 15  1  1  0  0  0
  8 11  1  0  0  0  0
  9 13  1  0  0  0  0
 10  1  1  0  0  0  0
 17 15  1  1  0  0  0
 17 18  1  0  0  0  0
 18 25  1  1  0  0  0
 19 18  1  0  0  0  0
 19 26  1  1  0  0  0
 20 19  1  0  0  0  0
 20 24  1  1  0  0  0
 21 23  1  0  0  0  0
 21 20  1  0  0  0  0
 21 22  1  6  0  0  0
 23 17  1  0  0  0  0
 27 22  1  0  0  0  0
 28 29  1  0  0  0  0
 28 16  1  1  0  0  0
 29 36  1  1  0  0  0
 30 37  1  6  0  0  0
 30 29  1  0  0  0  0
 31 30  1  0  0  0  0
 31 34  1  6  0  0  0
 32 31  1  0  0  0  0
 32 33  1  0  0  0  0
 33 28  1  0  0  0  0
 33 35  1  1  0  0  0
M  END
>  <CHROM.1>
76.98820135,59.88708962,97.95453025,-36.51246006,-177.57643648,-169.01172008
179.84606252,61.42952342,-60.07548821,81.77402112,-174.15147685,-81.85024379
63.90871393,75.34316769,73.04974929,-108.68452599,-1.28883748,9.57443344
10.45030830,2.56309221,1.03603350,-1.96514551

>  <Name>
lig.pdb

>  <RI>
0

>  <Rbt.Current_Directory>
/home/itssahil/PROJECTS/Mol_Feturizer/New_Systems/rnas/2m4q

>  <Rbt.Executable>
rbdock ($Id: //depot/dev/client3/rdock/2013.1/src/exe/rbdock.cxx#4 $)

>  <Rbt.Library>
libRbt.so (2013.1, Build901 2013/11/27)

>  <Rbt.Parameter_File>
/export/apps/rDock/src/rDock_2013.1_src/data/scripts/dock_solv.prm

>  <Rbt.Receptor>
prm/pocket_docking_7.prm

>  <SCORE>
-33.8965

>  <SCORE.INTER>
-14.5668

>  <SCORE.INTER.CONST>
1

>  <SCORE.INTER.POLAR>
-3.07255

>  <SCORE.INTER.ROT>
10

>  <SCORE.INTER.SOLV>
11.6631

>  <SCORE.INTER.VDW>
-13.6237

>  <SCORE.INTER.norm>
-0.393696

>  <SCORE.INTRA>
-19.3297

>  <SCORE.INTRA.DIHEDRAL>
-32.4827

>  <SCORE.INTRA.DIHEDRAL.0>
44.8331

>  <SCORE.INTRA.POLAR>
-0.861493

>  <SCORE.INTRA.POLAR.0>
-0.108895

>  <SCORE.INTRA.REPUL>
-0.00912235

>  <SCORE.INTRA.REPUL.0>
0.00912235

>  <SCORE.INTRA.SOLV>
-0.540897

>  <SCORE.INTRA.SOLV.lig_0>
-53.9067

>  <SCORE.INTRA.VDW>
0.156757

>  <SCORE.INTRA.VDW.0>
-2.93492

>  <SCORE.INTRA.norm>
-0.522426

>  <SCORE.RESTR>
0

>  <SCORE.RESTR.CAVITY>
0

>  <SCORE.RESTR.norm>
0

>  <SCORE.SYSTEM>
0

>  <SCORE.SYSTEM.CONST>
0

>  <SCORE.SYSTEM.DIHEDRAL>
0

>  <SCORE.SYSTEM.SOLV>
0

>  <SCORE.SYSTEM.norm>
0

>  <SCORE.heavy>
37

>  <SCORE.norm>
-0.916122

>  <RMSD>
5.398

$$$$
lig.pdb
 OpenBabel11021811453D
libRbt.so/2013.1/901 2013/11/27
 37 40  0  0  0  0  0  0  0  0999 V2000
    0.9797    6.3220    8.9735 C   0  0  2  0  0  0  0  0  0  0  0  0
    1.8027    5.6110    7.8490 C   0  0  1  0  0  0  0  0  0  0  0  0
    2.9229    4.6812    8.4006 C   0  0  0  0  0  0  0  0  0  0  0  0
    3.7733    5.4079    9.4720 C   0  0  1  0  0  0  0  0  0  0  0  0
    2.8584    5.9416   10.5969 C   0  0  1  0  0  0  0  0  0  0  0  0
    3.6901    6.6348   11.7093 C   0  0  1  0  0  0  0  0  0  0  0  0
    4.8124    5.6903   12.2338 C   0  0  1  0  0  0  0  0  0  0  0  0
    5.6682    5.1008   11.0735 C   0  0  2  0  0  0  0  0  0  0  0  0
    5.0844    6.3338   14.5845 C   0  0  0  0  0  0  0  0  0  0  0  0
    1.8408    6.8263   10.0455 O   0  0  0  0  0  0  0  0  0  0  0  0
    4.8267    4.5578   10.0101 O   0  0  0  0  0  0  0  0  0  0  0  0
    0.8931    4.8317    6.9814 N   0  0  0  0  0  0  0  0  0  0  0  0
    5.6400    6.4199   13.2166 N   0  0  0  0  0  0  0  0  0  0  0  0
    4.2267    7.8717   11.2581 O   0  0  0  0  0  0  0  0  0  0  0  0
    6.5924    4.0953   11.5829 O   0  0  0  0  0  0  0  0  0  0  0  0
   -0.0461    5.4361    9.5172 O   0  0  0  0  0  0  0  0  0  0  0  0
    7.7580    3.7470   10.7743 C   0  0  2  0  0  0  0  0  0  0  0  0
    7.5008    2.4502    9.9552 C   0  0  1  0  0  0  0  0  0  0  0  0
    7.4578    1.1915   10.8683 C   0  0  2  0  0  0  0  0  0  0  0  0
    8.7281    1.1029   11.7630 C   0  0  1  0  0  0  0  0  0  0  0  0
    8.9670    2.4298   12.5360 C   0  0  1  0  0  0  0  0  0  0  0  0
   10.3019    2.4060   13.3258 C   0  0  0  0  0  0  0  0  0  0  0  0
    8.9332    3.5658   11.6197 O   0  0  0  0  0  0  0  0  0  0  0  0
    8.6617   -0.0537   12.6830 N   0  0  0  0  0  0  0  0  0  0  0  0
    6.3137    2.5778    9.1748 O   0  0  0  0  0  0  0  0  0  0  0  0
    7.2868    0.0030   10.0992 O   0  0  0  0  0  0  0  0  0  0  0  0
   10.4982    3.6296   14.0269 O   0  0  0  0  0  0  0  0  0  0  0  0
   -0.9893    5.9996   10.4747 C   0  0  1  0  0  0  0  0  0  0  0  0
   -0.2738    6.5537   11.7386 C   0  0  1  0  0  0  0  0  0  0  0  0
   -1.3029    7.0612   12.7877 C   0  0  2  0  0  0  0  0  0  0  0  0
   -2.3059    8.0984   12.1860 C   0  0  1  0  0  0  0  0  0  0  0  0
   -2.9379    7.6229   10.8434 C   0  0  0  0  0  0  0  0  0  0  0  0
   -1.8747    7.1032    9.8294 C   0  0  2  0  0  0  0  0  0  0  0  0
   -3.3550    8.4454   13.1683 N   0  0  0  0  0  0  0  0  0  0  0  0
   -2.5574    6.6248    8.6078 N   0  0  0  0  0  0  0  0  0  0  0  0
    0.5848    5.5703   12.3069 O   0  0  0  0  0  0  0  0  0  0  0  0
   -0.6313    7.6145   13.9166 O   0  0  0  0  0  0  0  0  0  0  0  0
  1  2  1  0  0  0  0
  1 16  1  1  0  0  0
  2  3  1  0  0  0  0
  2 12  1  1  0  0  0
  4 11  1  1  0  0  0
  4  3  1  0  0  0  0
  5  4  1  0  0  0  0
  5 10  1  6  0  0  0
  6  7  1  0  0  0  0
  6  5  1  0  0  0  0
  6 14  1  6  0  0  0
  7  8  1  0  0  0  0
  7 13  1  1  0  0  0
  8 15  1  1  0  0  0
  8 11  1  0  0  0  0
  9 13  1  0  0  0  0
 10  1  1  0  0  0  0
 17 15  1  1  0  0  0
 17 18  1  0  0  0  0
 18 25  1  1  0  0  0
 19 18  1  0  0  0  0
 19 26  1  6  0  0  0
 20 19  1  0  0  0  0
 20 24  1  1  0  0  0
 21 23  1  0  0  0  0
 21 20  1  0  0  0  0
 21 22  1  6  0  0  0
 23 17  1  0  0  0  0
 27 22  1  0  0  0  0
 28 29  1  0  0  0  0
 28 16  1  6  0  0  0
 29 36  1  1  0  0  0
 30 37  1  1  0  0  0
 30 29  1  0  0  0  0
 31 30  1  0  0  0  0
 31 34  1  1  0  0  0
 32 31  1  0  0  0  0
 32 33  1  0  0  0  0
 33 28  1  0  0  0  0
 33 35  1  6  0  0  0
M  END
>  <CHROM.1>
95.27616748,-160.10428072,86.89288552,62.24194698,-98.07961530,-173.62028376
175.19750934,41.96096534,-179.90877152,-6.56164684,179.75487083,-59.98455665
-55.97916482,-175.61442694,-70.01998588,-49.46262979,3.59981842,4.99493124
11.10226141,3.01072807,-0.43700081,1.06979610

>  <Name>
lig.pdb

>  <RI>
2.86754e+07

>  <Rbt.Current_Directory>
/home/itssahil/PROJECTS/Mol_Feturizer/New_Systems/rnas/2m4q

>  <Rbt.Executable>
rbdock ($Id: //depot/dev/client3/rdock/2013.1/src/exe/rbdock.cxx#4 $)

>  <Rbt.Library>
libRbt.so (2013.1, Build901 2013/11/27)

>  <Rbt.Parameter_File>
/export/apps/rDock/src/rDock_2013.1_src/data/scripts/dock_solv.prm

>  <Rbt.Receptor>
prm/pocket_docking_5.prm

>  <SCORE>
-37.8895

>  <SCORE.INTER>
-27.1681

>  <SCORE.INTER.CONST>
1

>  <SCORE.INTER.POLAR>
-4.70433

>  <SCORE.INTER.ROT>
10

>  <SCORE.INTER.SOLV>
19.3406

>  <SCORE.INTER.VDW>
-19.1445

>  <SCORE.INTER.norm>
-0.734272

>  <SCORE.INTRA>
-10.7214

>  <SCORE.INTRA.DIHEDRAL>
-30.0779

>  <SCORE.INTRA.DIHEDRAL.0>
44.8331

>  <SCORE.INTRA.POLAR>
-0.13978

>  <SCORE.INTRA.POLAR.0>
-0.108895

>  <SCORE.INTRA.REPUL>
1.02138

>  <SCORE.INTRA.REPUL.0>
0.00912235

>  <SCORE.INTRA.SOLV>
-0.655382

>  <SCORE.INTRA.SOLV.lig_0>
-53.9067

>  <SCORE.INTRA.VDW>
0.013551

>  <SCORE.INTRA.VDW.0>
-2.93492

>  <SCORE.INTRA.norm>
-0.289769

>  <SCORE.RESTR>
0

>  <SCORE.RESTR.CAVITY>
0

>  <SCORE.RESTR.norm>
0

>  <SCORE.SYSTEM>
0

>  <SCORE.SYSTEM.CONST>
0

>  <SCORE.SYSTEM.DIHEDRAL>
0

>  <SCORE.SYSTEM.SOLV>
0

>  <SCORE.SYSTEM.norm>
0

>  <SCORE.heavy>
37

>  <SCORE.norm>
-1.02404

>  <RMSD>
5.414

$$$$
lig.pdb
 OpenBabel11021811453D
libRbt.so/2013.1/901 2013/11/27
 37 40  0  0  0  0  0  0  0  0999 V2000
    3.4417    7.7741    8.0226 C   0  0  2  0  0  0  0  0  0  0  0  0
    4.7385    6.9539    7.7181 C   0  0  1  0  0  0  0  0  0  0  0  0
    4.6777    5.4893    8.2427 C   0  0  0  0  0  0  0  0  0  0  0  0
    4.2080    5.4446    9.7179 C   0  0  1  0  0  0  0  0  0  0  0  0
    2.8495    6.1668    9.8598 C   0  0  1  0  0  0  0  0  0  0  0  0
    2.3315    6.0968   11.3215 C   0  0  1  0  0  0  0  0  0  0  0  0
    2.2941    4.6239   11.8275 C   0  0  1  0  0  0  0  0  0  0  0  0
    3.6503    3.8933   11.5973 C   0  0  2  0  0  0  0  0  0  0  0  0
    0.4807    5.0125   13.4321 C   0  0  0  0  0  0  0  0  0  0  0  0
    2.9532    7.5395    9.3833 O   0  0  0  0  0  0  0  0  0  0  0  0
    4.1363    4.0839   10.2330 O   0  0  0  0  0  0  0  0  0  0  0  0
    4.9960    6.9493    6.2617 N   0  0  0  0  0  0  0  0  0  0  0  0
    1.8919    4.6097   13.2492 N   0  0  0  0  0  0  0  0  0  0  0  0
    3.1075    6.9184   12.1843 O   0  0  0  0  0  0  0  0  0  0  0  0
    3.5274    2.4778   11.9226 O   0  0  0  0  0  0  0  0  0  0  0  0
    2.3936    7.4859    7.0474 O   0  0  0  0  0  0  0  0  0  0  0  0
    4.6274    1.8275   12.6304 C   0  0  2  0  0  0  0  0  0  0  0  0
    4.6724    0.3058   12.3126 C   0  0  1  0  0  0  0  0  0  0  0  0
    3.4835   -0.4545   12.9671 C   0  0  2  0  0  0  0  0  0  0  0  0
    3.3962   -0.1549   14.4918 C   0  0  1  0  0  0  0  0  0  0  0  0
    3.3888    1.3749   14.7662 C   0  0  1  0  0  0  0  0  0  0  0  0
    3.4398    1.6898   16.2842 C   0  0  0  0  0  0  0  0  0  0  0  0
    4.4972    2.0221   14.0704 O   0  0  0  0  0  0  0  0  0  0  0  0
    2.2267   -0.8196   15.1073 N   0  0  0  0  0  0  0  0  0  0  0  0
    4.7264    0.0896   10.9037 O   0  0  0  0  0  0  0  0  0  0  0  0
    3.5720   -1.8567   12.7231 O   0  0  0  0  0  0  0  0  0  0  0  0
    2.2635    1.2253   16.9383 O   0  0  0  0  0  0  0  0  0  0  0  0
    1.0867    8.0955    7.2577 C   0  0  1  0  0  0  0  0  0  0  0  0
    1.1770    9.6438    7.3618 C   0  0  1  0  0  0  0  0  0  0  0  0
   -0.2114   10.2658    7.6820 C   0  0  2  0  0  0  0  0  0  0  0  0
   -1.3146    9.8148    6.6704 C   0  0  1  0  0  0  0  0  0  0  0  0
   -1.3374    8.2732    6.4449 C   0  0  0  0  0  0  0  0  0  0  0  0
    0.0762    7.6883    6.1479 C   0  0  2  0  0  0  0  0  0  0  0  0
   -2.6446   10.3055    7.0904 N   0  0  0  0  0  0  0  0  0  0  0  0
   -0.0239    6.2202    5.9986 N   0  0  0  0  0  0  0  0  0  0  0  0
    2.1413   10.0307    8.3354 O   0  0  0  0  0  0  0  0  0  0  0  0
   -0.1227   11.6879    7.7214 O   0  0  0  0  0  0  0  0  0  0  0  0
  1  2  1  0  0  0  0
  1 16  1  6  0  0  0
  2  3  1  0  0  0  0
  2 12  1  6  0  0  0
  4 11  1  6  0  0  0
  4  3  1  0  0  0  0
  5  4  1  0  0  0  0
  5 10  1  1  0  0  0
  6  7  1  0  0  0  0
  6  5  1  0  0  0  0
  6 14  1  1  0  0  0
  7  8  1  0  0  0  0
  7 13  1  1  0  0  0
  8 15  1  6  0  0  0
  8 11  1  0  0  0  0
  9 13  1  0  0  0  0
 10  1  1  0  0  0  0
 17 15  1  6  0  0  0
 17 18  1  0  0  0  0
 18 25  1  6  0  0  0
 19 18  1  0  0  0  0
 19 26  1  1  0  0  0
 20 19  1  0  0  0  0
 20 24  1  6  0  0  0
 21 23  1  0  0  0  0
 21 20  1  0  0  0  0
 21 22  1  1  0  0  0
 23 17  1  0  0  0  0
 27 22  1  0  0  0  0
 28 29  1  0  0  0  0
 28 16  1  6  0  0  0
 29 36  1  1  0  0  0
 30 37  1  6  0  0  0
 30 29  1  0  0  0  0
 31 30  1  0  0  0  0
 31 34  1  1  0  0  0
 32 31  1  0  0  0  0
 32 33  1  0  0  0  0
 33 28  1  0  0  0  0
 33 35  1  1  0  0  0
M  END
>  <CHROM.1>
-55.57567359,-139.50850001,68.71143160,62.48014629,-153.01808229,175.31322356
-57.81145326,43.82727398,-64.84082700,87.36970342,178.90755848,56.18789438
88.23445525,61.08965952,-111.16159299,-29.43860527,2.45210409,5.08062451
10.45734380,-1.91585125,-0.71738228,2.22775749

>  <Name>
lig.pdb

>  <RI>
0

>  <Rbt.Current_Directory>
/home/itssahil/PROJECTS/Mol_Feturizer/New_Systems/rnas/2m4q

>  <Rbt.Executable>
rbdock ($Id: //depot/dev/client3/rdock/2013.1/src/exe/rbdock.cxx#4 $)

>  <Rbt.Library>
libRbt.so (2013.1, Build901 2013/11/27)

>  <Rbt.Parameter_File>
/export/apps/rDock/src/rDock_2013.1_src/data/scripts/dock_solv.prm

>  <Rbt.Receptor>
prm/pocket_docking_6.prm

>  <SCORE>
-48.1121

>  <SCORE.INTER>
-34.1826

>  <SCORE.INTER.CONST>
1

>  <SCORE.INTER.POLAR>
-5.89771

>  <SCORE.INTER.ROT>
10

>  <SCORE.INTER.SOLV>
18.1901

>  <SCORE.INTER.VDW>
-19.4594

>  <SCORE.INTER.norm>
-0.923853

>  <SCORE.INTRA>
-13.9295

>  <SCORE.INTRA.DIHEDRAL>
-26.3736

>  <SCORE.INTRA.DIHEDRAL.0>
44.8331

>  <SCORE.INTRA.POLAR>
-0.815007

>  <SCORE.INTRA.POLAR.0>
-0.108895

>  <SCORE.INTRA.REPUL>
-0.00912235

>  <SCORE.INTRA.REPUL.0>
0.00912235

>  <SCORE.INTRA.SOLV>
-1.31522

>  <SCORE.INTRA.SOLV.lig_0>
-53.9067

>  <SCORE.INTRA.VDW>
2.7315

>  <SCORE.INTRA.VDW.0>
-2.93492

>  <SCORE.INTRA.norm>
-0.376474

>  <SCORE.RESTR>
0

>  <SCORE.RESTR.CAVITY>
0

>  <SCORE.RESTR.norm>
0

>  <SCORE.SYSTEM>
0

>  <SCORE.SYSTEM.CONST>
0

>  <SCORE.SYSTEM.DIHEDRAL>
0

>  <SCORE.SYSTEM.SOLV>
0

>  <SCORE.SYSTEM.norm>
0

>  <SCORE.heavy>
37

>  <SCORE.norm>
-1.30033

>  <RMSD>
5.514

$$$$
lig.pdb
 OpenBabel11021811453D
libRbt.so/2013.1/901 2013/11/27
 37 40  0  0  0  0  0  0  0  0999 V2000
    2.6158    5.8560    9.4045 C   0  0  2  0  0  0  0  0  0  0  0  0
    3.9092    5.3139    8.7115 C   0  0  1  0  0  0  0  0  0  0  0  0
    4.7305    4.3457    9.6126 C   0  0  0  0  0  0  0  0  0  0  0  0
    4.9485    4.9470   11.0232 C   0  0  1  0  0  0  0  0  0  0  0  0
    3.5870    5.3114   11.6562 C   0  0  1  0  0  0  0  0  0  0  0  0
    3.7726    5.8738   13.0910 C   0  0  1  0  0  0  0  0  0  0  0  0
    4.6091    4.8946   13.9675 C   0  0  1  0  0  0  0  0  0  0  0  0
    5.9383    4.4781   13.2704 C   0  0  2  0  0  0  0  0  0  0  0  0
    4.7258    4.5282   16.3895 C   0  0  0  0  0  0  0  0  0  0  0  0
    2.8605    6.2371   10.7974 O   0  0  0  0  0  0  0  0  0  0  0  0
    5.7102    4.0581   11.8901 O   0  0  0  0  0  0  0  0  0  0  0  0
    3.5509    4.6328    7.4485 N   0  0  0  0  0  0  0  0  0  0  0  0
    4.8465    5.5097   15.2898 N   0  0  0  0  0  0  0  0  0  0  0  0
    4.3564    7.1700   13.0662 O   0  0  0  0  0  0  0  0  0  0  0  0
    6.6101    3.4361   14.0369 O   0  0  0  0  0  0  0  0  0  0  0  0
    1.5277    4.8853    9.3248 O   0  0  0  0  0  0  0  0  0  0  0  0
    6.0771    2.0771   13.9815 C   0  0  2  0  0  0  0  0  0  0  0  0
    6.9017    1.1178   14.8860 C   0  0  1  0  0  0  0  0  0  0  0  0
    8.3156    0.8448   14.2975 C   0  0  2  0  0  0  0  0  0  0  0  0
    8.2256    0.3602   12.8214 C   0  0  1  0  0  0  0  0  0  0  0  0
    7.3653    1.3278   11.9617 C   0  0  1  0  0  0  0  0  0  0  0  0
    7.1529    0.7885   10.5229 C   0  0  0  0  0  0  0  0  0  0  0  0
    6.0817    1.5798   12.6099 O   0  0  0  0  0  0  0  0  0  0  0  0
    9.5691    0.1651   12.2336 N   0  0  0  0  0  0  0  0  0  0  0  0
    6.9722    1.6224   16.2183 O   0  0  0  0  0  0  0  0  0  0  0  0
    9.0369   -0.0865   15.1012 O   0  0  0  0  0  0  0  0  0  0  0  0
    8.3786    0.7796    9.7985 O   0  0  0  0  0  0  0  0  0  0  0  0
    0.1625    5.3917    9.3849 C   0  0  1  0  0  0  0  0  0  0  0  0
   -0.2195    5.8660   10.8150 C   0  0  1  0  0  0  0  0  0  0  0  0
   -1.7078    6.3112   10.8788 C   0  0  2  0  0  0  0  0  0  0  0  0
   -2.0556    7.3858    9.7980 C   0  0  1  0  0  0  0  0  0  0  0  0
   -1.5622    6.9947    8.3727 C   0  0  0  0  0  0  0  0  0  0  0  0
   -0.0732    6.5350    8.3573 C   0  0  2  0  0  0  0  0  0  0  0  0
   -3.5056    7.6750    9.7926 N   0  0  0  0  0  0  0  0  0  0  0  0
    0.3001    6.1337    6.9836 N   0  0  0  0  0  0  0  0  0  0  0  0
    0.0453    4.8475   11.7742 O   0  0  0  0  0  0  0  0  0  0  0  0
   -2.0278    6.7930   12.1816 O   0  0  0  0  0  0  0  0  0  0  0  0
  1  2  1  0  0  0  0
  1 16  1  1  0  0  0
  2  3  1  0  0  0  0
  2 12  1  6  0  0  0
  4 11  1  1  0  0  0
  4  3  1  0  0  0  0
  5  4  1  0  0  0  0
  5 10  1  6  0  0  0
  6  7  1  0  0  0  0
  6  5  1  0  0  0  0
  6 14  1  6  0  0  0
  7  8  1  0  0  0  0
  7 13  1  1  0  0  0
  8 15  1  1  0  0  0
  8 11  1  0  0  0  0
  9 13  1  0  0  0  0
 10  1  1  0  0  0  0
 17 15  1  6  0  0  0
 17 18  1  0  0  0  0
 18 25  1  1  0  0  0
 19 18  1  0  0  0  0
 19 26  1  1  0  0  0
 20 19  1  0  0  0  0
 20 24  1  6  0  0  0
 21 23  1  0  0  0  0
 21 20  1  0  0  0  0
 21 22  1  6  0  0  0
 23 17  1  0  0  0  0
 27 22  1  0  0  0  0
 28 29  1  0  0  0  0
 28 16  1  1  0  0  0
 29 36  1  1  0  0  0
 30 37  1  1  0  0  0
 30 29  1  0  0  0  0
 31 30  1  0  0  0  0
 31 34  1  6  0  0  0
 32 31  1  0  0  0  0
 32 33  1  0  0  0  0
 33 28  1  0  0  0  0
 33 35  1  6  0  0  0
M  END
>  <CHROM.1>
-58.94229980,75.07177391,139.77227745,-56.14268791,-178.61918285,-154.51562778
-176.35885727,-173.26601832,-67.51156767,-45.61772020,-174.95568481,-72.72475844
-65.32105633,-159.58973397,-160.03909296,46.64113390,3.85866507,4.19028469
11.69015542,-2.83176100,-0.58664548,1.44497152

>  <Name>
lig.pdb

>  <RI>
0

>  <Rbt.Current_Directory>
/home/itssahil/PROJECTS/Mol_Feturizer/New_Systems/rnas/2m4q

>  <Rbt.Executable>
rbdock ($Id: //depot/dev/client3/rdock/2013.1/src/exe/rbdock.cxx#4 $)

>  <Rbt.Library>
libRbt.so (2013.1, Build901 2013/11/27)

>  <Rbt.Parameter_File>
/export/apps/rDock/src/rDock_2013.1_src/data/scripts/dock_solv.prm

>  <Rbt.Receptor>
prm/pocket_docking_6.prm

>  <SCORE>
-41.9871

>  <SCORE.INTER>
-23.991

>  <SCORE.INTER.CONST>
1

>  <SCORE.INTER.POLAR>
-4.30628

>  <SCORE.INTER.ROT>
10

>  <SCORE.INTER.SOLV>
16.3779

>  <SCORE.INTER.VDW>
-17.3657

>  <SCORE.INTER.norm>
-0.648405

>  <SCORE.INTRA>
-17.9961

>  <SCORE.INTRA.DIHEDRAL>
-34.128

>  <SCORE.INTRA.DIHEDRAL.0>
44.8331

>  <SCORE.INTRA.POLAR>
0.0932903

>  <SCORE.INTRA.POLAR.0>
-0.108895

>  <SCORE.INTRA.REPUL>
-0.00912235

>  <SCORE.INTRA.REPUL.0>
0.00912235

>  <SCORE.INTRA.SOLV>
-0.137082

>  <SCORE.INTRA.SOLV.lig_0>
-53.9067

>  <SCORE.INTRA.VDW>
-1.13509

>  <SCORE.INTRA.VDW.0>
-2.93492

>  <SCORE.INTRA.norm>
-0.48638

>  <SCORE.RESTR>
0

>  <SCORE.RESTR.CAVITY>
0

>  <SCORE.RESTR.norm>
0

>  <SCORE.SYSTEM>
0

>  <SCORE.SYSTEM.CONST>
0

>  <SCORE.SYSTEM.DIHEDRAL>
0

>  <SCORE.SYSTEM.SOLV>
0

>  <SCORE.SYSTEM.norm>
0

>  <SCORE.heavy>
37

>  <SCORE.norm>
-1.13479

>  <RMSD>
5.549

$$$$
lig.pdb
 OpenBabel11021811453D
libRbt.so/2013.1/901 2013/11/27
 37 40  0  0  0  0  0  0  0  0999 V2000
    2.4111    7.9821    8.9567 C   0  0  2  0  0  0  0  0  0  0  0  0
    3.6174    7.1980    8.3425 C   0  0  1  0  0  0  0  0  0  0  0  0
    3.6406    5.6934    8.7416 C   0  0  0  0  0  0  0  0  0  0  0  0
    3.4586    5.5191   10.2699 C   0  0  1  0  0  0  0  0  0  0  0  0
    2.1598    6.2192   10.7283 C   0  0  1  0  0  0  0  0  0  0  0  0
    1.9275    6.0206   12.2502 C   0  0  1  0  0  0  0  0  0  0  0  0
    1.9700    4.5095   12.6261 C   0  0  1  0  0  0  0  0  0  0  0  0
    3.2498    3.8086   12.0809 C   0  0  2  0  0  0  0  0  0  0  0  0
    0.4364    4.4407   14.5384 C   0  0  0  0  0  0  0  0  0  0  0  0
    2.1867    7.6284   10.3601 O   0  0  0  0  0  0  0  0  0  0  0  0
    3.4706    4.1187   10.6707 O   0  0  0  0  0  0  0  0  0  0  0  0
    3.5942    7.3204    6.8687 N   0  0  0  0  0  0  0  0  0  0  0  0
    1.8444    4.3706   14.0917 N   0  0  0  0  0  0  0  0  0  0  0  0
    2.8620    6.7688   13.0173 O   0  0  0  0  0  0  0  0  0  0  0  0
    3.1749    2.3697   12.3012 O   0  0  0  0  0  0  0  0  0  0  0  0
    1.1940    7.7735    8.1771 O   0  0  0  0  0  0  0  0  0  0  0  0
    4.3528    1.6827   12.8250 C   0  0  2  0  0  0  0  0  0  0  0  0
    4.2934    0.1597   12.5155 C   0  0  1  0  0  0  0  0  0  0  0  0
    3.2021   -0.5575   13.3608 C   0  0  2  0  0  0  0  0  0  0  0  0
    3.3751   -0.2521   14.8770 C   0  0  1  0  0  0  0  0  0  0  0  0
    3.4647    1.2775   15.1375 C   0  0  1  0  0  0  0  0  0  0  0  0
    3.7735    1.5932   16.6245 C   0  0  0  0  0  0  0  0  0  0  0  0
    4.4661    1.8844   14.2655 O   0  0  0  0  0  0  0  0  0  0  0  0
    2.2998   -0.8746   15.6800 N   0  0  0  0  0  0  0  0  0  0  0  0
    4.1094   -0.0608   11.1183 O   0  0  0  0  0  0  0  0  0  0  0  0
    3.2018   -1.9623   13.1162 O   0  0  0  0  0  0  0  0  0  0  0  0
    2.7276    1.1257   17.4700 O   0  0  0  0  0  0  0  0  0  0  0  0
   -0.0835    7.9472    8.8564 C   0  0  1  0  0  0  0  0  0  0  0  0
   -0.4522    6.7130    9.7265 C   0  0  1  0  0  0  0  0  0  0  0  0
   -1.8605    6.8776   10.3643 C   0  0  2  0  0  0  0  0  0  0  0  0
   -2.0010    8.2142   11.1627 C   0  0  1  0  0  0  0  0  0  0  0  0
   -1.5103    9.4556   10.3590 C   0  0  0  0  0  0  0  0  0  0  0  0
   -0.1054    9.2406    9.7196 C   0  0  2  0  0  0  0  0  0  0  0  0
   -3.3914    8.4041   11.6284 N   0  0  0  0  0  0  0  0  0  0  0  0
    0.2629   10.4390    8.9350 N   0  0  0  0  0  0  0  0  0  0  0  0
   -0.3804    5.5142    8.9615 O   0  0  0  0  0  0  0  0  0  0  0  0
   -2.1614    5.7634   11.2008 O   0  0  0  0  0  0  0  0  0  0  0  0
  1  2  1  0  0  0  0
  1 16  1  6  0  0  0
  2  3  1  0  0  0  0
  2 12  1  6  0  0  0
  4 11  1  6  0  0  0
  4  3  1  0  0  0  0
  5  4  1  0  0  0  0
  5 10  1  1  0  0  0
  6  7  1  0  0  0  0
  6  5  1  0  0  0  0
  6 14  1  1  0  0  0
  7  8  1  0  0  0  0
  7 13  1  1  0  0  0
  8 15  1  6  0  0  0
  8 11  1  0  0  0  0
  9 13  1  0  0  0  0
 10  1  1  0  0  0  0
 17 15  1  1  0  0  0
 17 18  1  0  0  0  0
 18 25  1  6  0  0  0
 19 18  1  0  0  0  0
 19 26  1  1  0  0  0
 20 19  1  0  0  0  0
 20 24  1  1  0  0  0
 21 23  1  0  0  0  0
 21 20  1  0  0  0  0
 21 22  1  1  0  0  0
 23 17  1  0  0  0  0
 27 22  1  0  0  0  0
 28 29  1  0  0  0  0
 28 16  1  1  0  0  0
 29 36  1  6  0  0  0
 30 37  1  1  0  0  0
 30 29  1  0  0  0  0
 31 30  1  0  0  0  0
 31 34  1  6  0  0  0
 32 31  1  0  0  0  0
 32 33  1  0  0  0  0
 33 28  1  0  0  0  0
 33 35  1  6  0  0  0
M  END
>  <CHROM.1>
-178.16630180,-134.97535688,81.95364670,-57.39523884,-159.31854734,155.41781917
-51.56614848,-77.59699028,-62.63549781,77.11095523,-68.81597760,-78.64644812
63.74282508,-178.11885059,55.77593660,-50.26641764,1.85219075,4.66805747
11.69440714,-1.99980335,-0.62793856,2.31219962

>  <Name>
lig.pdb

>  <RI>
0

>  <Rbt.Current_Directory>
/home/itssahil/PROJECTS/Mol_Feturizer/New_Systems/rnas/2m4q

>  <Rbt.Executable>
rbdock ($Id: //depot/dev/client3/rdock/2013.1/src/exe/rbdock.cxx#4 $)

>  <Rbt.Library>
libRbt.so (2013.1, Build901 2013/11/27)

>  <Rbt.Parameter_File>
/export/apps/rDock/src/rDock_2013.1_src/data/scripts/dock_solv.prm

>  <Rbt.Receptor>
prm/pocket_docking_7.prm

>  <SCORE>
-48.717

>  <SCORE.INTER>
-32.9689

>  <SCORE.INTER.CONST>
1

>  <SCORE.INTER.POLAR>
-6.38946

>  <SCORE.INTER.ROT>
10

>  <SCORE.INTER.SOLV>
16.9305

>  <SCORE.INTER.VDW>
-16.5913

>  <SCORE.INTER.norm>
-0.891052

>  <SCORE.INTRA>
-15.7481

>  <SCORE.INTRA.DIHEDRAL>
-28.4323

>  <SCORE.INTRA.DIHEDRAL.0>
44.8331

>  <SCORE.INTRA.POLAR>
-0.503501

>  <SCORE.INTRA.POLAR.0>
-0.108895

>  <SCORE.INTRA.REPUL>
-0.00912235

>  <SCORE.INTRA.REPUL.0>
0.00912235

>  <SCORE.INTRA.SOLV>
-0.0978683

>  <SCORE.INTRA.SOLV.lig_0>
-53.9067

>  <SCORE.INTRA.VDW>
0.274492

>  <SCORE.INTRA.VDW.0>
-2.93492

>  <SCORE.INTRA.norm>
-0.425624

>  <SCORE.RESTR>
0

>  <SCORE.RESTR.CAVITY>
0

>  <SCORE.RESTR.norm>
0

>  <SCORE.SYSTEM>
0

>  <SCORE.SYSTEM.CONST>
0

>  <SCORE.SYSTEM.DIHEDRAL>
0

>  <SCORE.SYSTEM.SOLV>
0

>  <SCORE.SYSTEM.norm>
0

>  <SCORE.heavy>
37

>  <SCORE.norm>
-1.31668

>  <RMSD>
5.674

$$$$
lig.pdb
 OpenBabel11021811453D
libRbt.so/2013.1/901 2013/11/27
 37 40  0  0  0  0  0  0  0  0999 V2000
    2.8710    5.2242    9.4060 C   0  0  2  0  0  0  0  0  0  0  0  0
    4.1353    4.8553    8.5618 C   0  0  1  0  0  0  0  0  0  0  0  0
    4.8252    3.5403    9.0293 C   0  0  0  0  0  0  0  0  0  0  0  0
    5.0411    3.5389   10.5631 C   0  0  1  0  0  0  0  0  0  0  0  0
    3.6949    3.7739   11.2841 C   0  0  1  0  0  0  0  0  0  0  0  0
    3.8738    3.7307   12.8255 C   0  0  1  0  0  0  0  0  0  0  0  0
    4.5789    2.4134   13.2662 C   0  0  1  0  0  0  0  0  0  0  0  0
    5.8906    2.1580   12.4660 C   0  0  2  0  0  0  0  0  0  0  0  0
    4.2676    1.2694   15.4128 C   0  0  0  0  0  0  0  0  0  0  0  0
    3.0935    5.0241   10.8397 O   0  0  0  0  0  0  0  0  0  0  0  0
    5.6805    2.3159   11.0291 O   0  0  0  0  0  0  0  0  0  0  0  0
    3.7666    4.7419    7.1339 N   0  0  0  0  0  0  0  0  0  0  0  0
    4.8188    2.4560   14.7235 N   0  0  0  0  0  0  0  0  0  0  0  0
    4.5766    4.8736   13.2960 O   0  0  0  0  0  0  0  0  0  0  0  0
    6.4304    0.8411   12.7806 O   0  0  0  0  0  0  0  0  0  0  0  0
    1.7012    4.4717    8.9613 O   0  0  0  0  0  0  0  0  0  0  0  0
    7.8541    0.7267   13.0872 C   0  0  2  0  0  0  0  0  0  0  0  0
    8.3244    1.8979   13.9959 C   0  0  1  0  0  0  0  0  0  0  0  0
    8.3531    3.2489   13.2253 C   0  0  2  0  0  0  0  0  0  0  0  0
    9.1799    3.1292   11.9123 C   0  0  1  0  0  0  0  0  0  0  0  0
    8.7004    1.9271   11.0517 C   0  0  1  0  0  0  0  0  0  0  0  0
    9.6013    1.7116    9.8074 C   0  0  0  0  0  0  0  0  0  0  0  0
    8.6435    0.7129   11.8604 O   0  0  0  0  0  0  0  0  0  0  0  0
    9.1536    4.3907   11.1400 N   0  0  0  0  0  0  0  0  0  0  0  0
    7.5180    1.9761   15.1699 O   0  0  0  0  0  0  0  0  0  0  0  0
    8.8478    4.3017   14.0500 O   0  0  0  0  0  0  0  0  0  0  0  0
    9.2735    0.4925    9.1489 O   0  0  0  0  0  0  0  0  0  0  0  0
    0.3962    5.1063    9.0964 C   0  0  1  0  0  0  0  0  0  0  0  0
    0.1913    5.7197   10.5099 C   0  0  1  0  0  0  0  0  0  0  0  0
   -1.2407    6.3052   10.6643 C   0  0  2  0  0  0  0  0  0  0  0  0
   -1.5939    7.3236    9.5321 C   0  0  1  0  0  0  0  0  0  0  0  0
   -1.2708    6.7827    8.1070 C   0  0  0  0  0  0  0  0  0  0  0  0
    0.1652    6.1864    8.0017 C   0  0  2  0  0  0  0  0  0  0  0  0
   -3.0077    7.7455    9.6275 N   0  0  0  0  0  0  0  0  0  0  0  0
    0.3730    5.6505    6.6390 N   0  0  0  0  0  0  0  0  0  0  0  0
    0.4556    4.7555   11.5238 O   0  0  0  0  0  0  0  0  0  0  0  0
   -1.3954    6.9107   11.9454 O   0  0  0  0  0  0  0  0  0  0  0  0
  1  2  1  0  0  0  0
  1 16  1  6  0  0  0
  2  3  1  0  0  0  0
  2 12  1  6  0  0  0
  4 11  1  1  0  0  0
  4  3  1  0  0  0  0
  5  4  1  0  0  0  0
  5 10  1  1  0  0  0
  6  7  1  0  0  0  0
  6  5  1  0  0  0  0
  6 14  1  6  0  0  0
  7  8  1  0  0  0  0
  7 13  1  1  0  0  0
  8 15  1  6  0  0  0
  8 11  1  0  0  0  0
  9 13  1  0  0  0  0
 10  1  1  0  0  0  0
 17 15  1  6  0  0  0
 17 18  1  0  0  0  0
 18 25  1  1  0  0  0
 19 18  1  0  0  0  0
 19 26  1  1  0  0  0
 20 19  1  0  0  0  0
 20 24  1  6  0  0  0
 21 23  1  0  0  0  0
 21 20  1  0  0  0  0
 21 22  1  6  0  0  0
 23 17  1  0  0  0  0
 27 22  1  0  0  0  0
 28 29  1  0  0  0  0
 28 16  1  1  0  0  0
 29 36  1  1  0  0  0
 30 37  1  1  0  0  0
 30 29  1  0  0  0  0
 31 30  1  0  0  0  0
 31 34  1  6  0  0  0
 32 31  1  0  0  0  0
 32 33  1  0  0  0  0
 33 28  1  0  0  0  0
 33 35  1  6  0  0  0
M  END
>  <CHROM.1>
72.09809773,-132.76858559,126.30521184,-177.77866785,41.64578922,-149.10012876
175.89032917,60.42275153,171.07811549,-62.01412892,67.09528371,-48.08151412
69.62985745,-179.99507179,-39.63686297,-83.56292190,4.27866145,3.84373316
11.14884788,-2.76083808,-0.40901319,1.71895124

>  <Name>
lig.pdb

>  <RI>
2.86754e+07

>  <Rbt.Current_Directory>
/home/itssahil/PROJECTS/Mol_Feturizer/New_Systems/rnas/2m4q

>  <Rbt.Executable>
rbdock ($Id: //depot/dev/client3/rdock/2013.1/src/exe/rbdock.cxx#4 $)

>  <Rbt.Library>
libRbt.so (2013.1, Build901 2013/11/27)

>  <Rbt.Parameter_File>
/export/apps/rDock/src/rDock_2013.1_src/data/scripts/dock_solv.prm

>  <Rbt.Receptor>
prm/pocket_docking_5.prm

>  <SCORE>
-40.629

>  <SCORE.INTER>
-21.6318

>  <SCORE.INTER.CONST>
1

>  <SCORE.INTER.POLAR>
-2.63923

>  <SCORE.INTER.ROT>
10

>  <SCORE.INTER.SOLV>
16.5814

>  <SCORE.INTER.VDW>
-21.4175

>  <SCORE.INTER.norm>
-0.584642

>  <SCORE.INTRA>
-18.9973

>  <SCORE.INTRA.DIHEDRAL>
-26.8705

>  <SCORE.INTRA.DIHEDRAL.0>
44.8331

>  <SCORE.INTRA.POLAR>
-1.81052

>  <SCORE.INTRA.POLAR.0>
-0.108895

>  <SCORE.INTRA.REPUL>
-0.00912235

>  <SCORE.INTRA.REPUL.0>
0.00912235

>  <SCORE.INTRA.SOLV>
1.65038

>  <SCORE.INTRA.SOLV.lig_0>
-53.9067

>  <SCORE.INTRA.VDW>
-0.185854

>  <SCORE.INTRA.VDW.0>
-2.93492

>  <SCORE.INTRA.norm>
-0.51344

>  <SCORE.RESTR>
0

>  <SCORE.RESTR.CAVITY>
0

>  <SCORE.RESTR.norm>
0

>  <SCORE.SYSTEM>
0

>  <SCORE.SYSTEM.CONST>
0

>  <SCORE.SYSTEM.DIHEDRAL>
0

>  <SCORE.SYSTEM.SOLV>
0

>  <SCORE.SYSTEM.norm>
0

>  <SCORE.heavy>
37

>  <SCORE.norm>
-1.09808

>  <RMSD>
5.755

$$$$
lig.pdb
 OpenBabel11021811453D
libRbt.so/2013.1/901 2013/11/27
 37 40  0  0  0  0  0  0  0  0999 V2000
    1.1939    6.1524    8.5646 C   0  0  2  0  0  0  0  0  0  0  0  0
    0.0790    5.3376    9.2996 C   0  0  1  0  0  0  0  0  0  0  0  0
    0.4307    5.0109   10.7806 C   0  0  0  0  0  0  0  0  0  0  0  0
    1.8569    4.4183   10.8973 C   0  0  1  0  0  0  0  0  0  0  0  0
    2.8814    5.3827   10.2586 C   0  0  1  0  0  0  0  0  0  0  0  0
    4.3267    4.8351   10.4028 C   0  0  1  0  0  0  0  0  0  0  0  0
    4.6487    4.5023   11.8902 C   0  0  1  0  0  0  0  0  0  0  0  0
    3.5578    3.5964   12.5347 C   0  0  2  0  0  0  0  0  0  0  0  0
    6.6589    4.1848   13.2585 C   0  0  0  0  0  0  0  0  0  0  0  0
    2.5333    5.6434    8.8683 O   0  0  0  0  0  0  0  0  0  0  0  0
    2.2146    4.1085   12.2750 O   0  0  0  0  0  0  0  0  0  0  0  0
   -1.1996    6.0791    9.2449 N   0  0  0  0  0  0  0  0  0  0  0  0
    5.9925    3.8933   11.9709 N   0  0  0  0  0  0  0  0  0  0  0  0
    4.5372    3.7057    9.5650 O   0  0  0  0  0  0  0  0  0  0  0  0
    3.8001    3.4467   13.9642 O   0  0  0  0  0  0  0  0  0  0  0  0
    1.1045    7.5749    8.8823 O   0  0  0  0  0  0  0  0  0  0  0  0
    2.8535    2.6619   14.7529 C   0  0  2  0  0  0  0  0  0  0  0  0
    3.3701    2.4621   16.2062 C   0  0  1  0  0  0  0  0  0  0  0  0
    4.5858    1.4930   16.2571 C   0  0  2  0  0  0  0  0  0  0  0  0
    4.2652    0.1513   15.5367 C   0  0  1  0  0  0  0  0  0  0  0  0
    3.7200    0.3978   14.1023 C   0  0  1  0  0  0  0  0  0  0  0  0
    3.2679   -0.9208   13.4216 C   0  0  0  0  0  0  0  0  0  0  0  0
    2.6237    1.3613   14.1331 O   0  0  0  0  0  0  0  0  0  0  0  0
    5.4397   -0.7480   15.5209 N   0  0  0  0  0  0  0  0  0  0  0  0
    3.6712    3.7197   16.8082 O   0  0  0  0  0  0  0  0  0  0  0  0
    5.0084    1.2671   17.6001 O   0  0  0  0  0  0  0  0  0  0  0  0
    2.3572   -1.6339   14.2519 O   0  0  0  0  0  0  0  0  0  0  0  0
    2.2480    8.4158    8.5519 C   0  0  1  0  0  0  0  0  0  0  0  0
    3.4078    8.2481    9.5731 C   0  0  1  0  0  0  0  0  0  0  0  0
    4.5771    9.2231    9.2582 C   0  0  2  0  0  0  0  0  0  0  0  0
    5.0788    9.0960    7.7830 C   0  0  1  0  0  0  0  0  0  0  0  0
    3.9190    9.1259    6.7430 C   0  0  0  0  0  0  0  0  0  0  0  0
    2.7595    8.1504    7.1074 C   0  0  2  0  0  0  0  0  0  0  0  0
    6.0857   10.1351    7.4793 N   0  0  0  0  0  0  0  0  0  0  0  0
    1.6808    8.2769    6.1035 N   0  0  0  0  0  0  0  0  0  0  0  0
    2.9404    8.4324   10.9054 O   0  0  0  0  0  0  0  0  0  0  0  0
    5.6537    9.0203   10.1700 O   0  0  0  0  0  0  0  0  0  0  0  0
  1  2  1  0  0  0  0
  1 16  1  1  0  0  0
  2  3  1  0  0  0  0
  2 12  1  1  0  0  0
  4 11  1  1  0  0  0
  4  3  1  0  0  0  0
  5  4  1  0  0  0  0
  5 10  1  6  0  0  0
  6  7  1  0  0  0  0
  6  5  1  0  0  0  0
  6 14  1  6  0  0  0
  7  8  1  0  0  0  0
  7 13  1  6  0  0  0
  8 15  1  1  0  0  0
  8 11  1  0  0  0  0
  9 13  1  0  0  0  0
 10  1  1  0  0  0  0
 17 15  1  6  0  0  0
 17 18  1  0  0  0  0
 18 25  1  6  0  0  0
 19 18  1  0  0  0  0
 19 26  1  1  0  0  0
 20 19  1  0  0  0  0
 20 24  1  6  0  0  0
 21 23  1  0  0  0  0
 21 20  1  0  0  0  0
 21 22  1  1  0  0  0
 23 17  1  0  0  0  0
 27 22  1  0  0  0  0
 28 29  1  0  0  0  0
 28 16  1  1  0  0  0
 29 36  1  1  0  0  0
 30 37  1  1  0  0  0
 30 29  1  0  0  0  0
 31 30  1  0  0  0  0
 31 34  1  6  0  0  0
 32 31  1  0  0  0  0
 32 33  1  0  0  0  0
 33 28  1  0  0  0  0
 33 35  1  6  0  0  0
M  END
>  <CHROM.1>
88.18823701,178.11369750,150.12352242,-63.39468169,172.71310344,165.22521012
177.12586909,-176.76832729,52.66436955,-58.08648466,-72.51798264,-77.20984376
175.14303874,61.32114897,-53.44903979,-136.85419562,3.37461286,4.73843600
11.52428750,1.66905883,-0.47049760,-0.72403667

>  <Name>
lig.pdb

>  <RI>
0

>  <Rbt.Current_Directory>
/home/itssahil/PROJECTS/Mol_Feturizer/New_Systems/rnas/2m4q

>  <Rbt.Executable>
rbdock ($Id: //depot/dev/client3/rdock/2013.1/src/exe/rbdock.cxx#4 $)

>  <Rbt.Library>
libRbt.so (2013.1, Build901 2013/11/27)

>  <Rbt.Parameter_File>
/export/apps/rDock/src/rDock_2013.1_src/data/scripts/dock_solv.prm

>  <Rbt.Receptor>
prm/pocket_docking_7.prm

>  <SCORE>
-37.5121

>  <SCORE.INTER>
-19.2103

>  <SCORE.INTER.CONST>
1

>  <SCORE.INTER.POLAR>
-4.09517

>  <SCORE.INTER.ROT>
10

>  <SCORE.INTER.SOLV>
10.8777

>  <SCORE.INTER.VDW>
-13.0488

>  <SCORE.INTER.norm>
-0.519196

>  <SCORE.INTRA>
-18.3018

>  <SCORE.INTRA.DIHEDRAL>
-35.8838

>  <SCORE.INTRA.DIHEDRAL.0>
44.8331

>  <SCORE.INTRA.POLAR>
-0.120074

>  <SCORE.INTRA.POLAR.0>
-0.108895

>  <SCORE.INTRA.REPUL>
-0.00912235

>  <SCORE.INTRA.REPUL.0>
0.00912235

>  <SCORE.INTRA.SOLV>
-0.989927

>  <SCORE.INTRA.SOLV.lig_0>
-53.9067

>  <SCORE.INTRA.VDW>
0.588898

>  <SCORE.INTRA.VDW.0>
-2.93492

>  <SCORE.INTRA.norm>
-0.494644

>  <SCORE.RESTR>
0

>  <SCORE.RESTR.CAVITY>
0

>  <SCORE.RESTR.norm>
0

>  <SCORE.SYSTEM>
0

>  <SCORE.SYSTEM.CONST>
0

>  <SCORE.SYSTEM.DIHEDRAL>
0

>  <SCORE.SYSTEM.SOLV>
0

>  <SCORE.SYSTEM.norm>
0

>  <SCORE.heavy>
37

>  <SCORE.norm>
-1.01384

>  <RMSD>
5.806

$$$$
lig.pdb
 OpenBabel11021811453D
libRbt.so/2013.1/901 2013/11/27
 37 40  0  0  0  0  0  0  0  0999 V2000
   -3.5838   11.1980    5.8406 C   0  0  2  0  0  0  0  0  0  0  0  0
   -4.3799   10.9447    7.1632 C   0  0  1  0  0  0  0  0  0  0  0  0
   -3.4731   10.5220    8.3560 C   0  0  0  0  0  0  0  0  0  0  0  0
   -2.5083    9.3818    7.9460 C   0  0  1  0  0  0  0  0  0  0  0  0
   -1.6807    9.8103    6.7136 C   0  0  1  0  0  0  0  0  0  0  0  0
   -0.6708    8.7032    6.3087 C   0  0  1  0  0  0  0  0  0  0  0  0
    0.2138    8.2877    7.5218 C   0  0  1  0  0  0  0  0  0  0  0  0
   -0.6421    7.9404    8.7760 C   0  0  2  0  0  0  0  0  0  0  0  0
    2.4741    7.3407    7.6126 C   0  0  0  0  0  0  0  0  0  0  0  0
   -2.5626   10.1732    5.6124 O   0  0  0  0  0  0  0  0  0  0  0  0
   -1.6429    8.9702    9.0431 O   0  0  0  0  0  0  0  0  0  0  0  0
   -5.1441   12.1580    7.5261 N   0  0  0  0  0  0  0  0  0  0  0  0
    1.0898    7.1671    7.1218 N   0  0  0  0  0  0  0  0  0  0  0  0
   -1.3350    7.5789    5.7463 O   0  0  0  0  0  0  0  0  0  0  0  0
    0.2165    7.7235    9.9338 O   0  0  0  0  0  0  0  0  0  0  0  0
   -2.9821   12.5285    5.8332 O   0  0  0  0  0  0  0  0  0  0  0  0
    0.7927    6.3963   10.1352 C   0  0  2  0  0  0  0  0  0  0  0  0
   -0.3090    5.3593   10.4949 C   0  0  1  0  0  0  0  0  0  0  0  0
   -0.8759    5.5938   11.9244 C   0  0  2  0  0  0  0  0  0  0  0  0
    0.2670    5.6561   12.9787 C   0  0  1  0  0  0  0  0  0  0  0  0
    1.3621    6.6779   12.5635 C   0  0  1  0  0  0  0  0  0  0  0  0
    2.5728    6.6530   13.5330 C   0  0  0  0  0  0  0  0  0  0  0  0
    1.7974    6.4284   11.1925 O   0  0  0  0  0  0  0  0  0  0  0  0
   -0.2594    5.9480   14.3301 N   0  0  0  0  0  0  0  0  0  0  0  0
   -1.3409    5.3625    9.5100 O   0  0  0  0  0  0  0  0  0  0  0  0
   -1.8375    4.5981   12.2668 O   0  0  0  0  0  0  0  0  0  0  0  0
    3.2466    5.4002   13.4709 O   0  0  0  0  0  0  0  0  0  0  0  0
   -2.3254   12.9681    4.6086 C   0  0  1  0  0  0  0  0  0  0  0  0
   -0.9910   12.2106    4.3600 C   0  0  1  0  0  0  0  0  0  0  0  0
   -0.2600   12.7611    3.1032 C   0  0  2  0  0  0  0  0  0  0  0  0
   -1.1732   12.7612    1.8344 C   0  0  1  0  0  0  0  0  0  0  0  0
   -2.5723   13.3960    2.0938 C   0  0  0  0  0  0  0  0  0  0  0  0
   -3.2603   12.8320    3.3733 C   0  0  2  0  0  0  0  0  0  0  0  0
   -0.4959   13.4246    0.6998 N   0  0  0  0  0  0  0  0  0  0  0  0
   -4.5537   13.5200    3.5763 N   0  0  0  0  0  0  0  0  0  0  0  0
   -0.1484   12.2792    5.5058 O   0  0  0  0  0  0  0  0  0  0  0  0
    0.9338   12.0218    2.8579 O   0  0  0  0  0  0  0  0  0  0  0  0
  1  2  1  0  0  0  0
  1 16  1  1  0  0  0
  2  3  1  0  0  0  0
  2 12  1  1  0  0  0
  4 11  1  1  0  0  0
  4  3  1  0  0  0  0
  5  4  1  0  0  0  0
  5 10  1  6  0  0  0
  6  7  1  0  0  0  0
  6  5  1  0  0  0  0
  6 14  1  1  0  0  0
  7  8  1  0  0  0  0
  7 13  1  6  0  0  0
  8 15  1  1  0  0  0
  8 11  1  0  0  0  0
  9 13  1  0  0  0  0
 10  1  1  0  0  0  0
 17 15  1  1  0  0  0
 17 18  1  0  0  0  0
 18 25  1  6  0  0  0
 19 18  1  0  0  0  0
 19 26  1  1  0  0  0
 20 19  1  0  0  0  0
 20 24  1  1  0  0  0
 21 23  1  0  0  0  0
 21 20  1  0  0  0  0
 21 22  1  1  0  0  0
 23 17  1  0  0  0  0
 27 22  1  0  0  0  0
 28 29  1  0  0  0  0
 28 16  1  1  0  0  0
 29 36  1  1  0  0  0
 30 37  1  6  0  0  0
 30 29  1  0  0  0  0
 31 30  1  0  0  0  0
 31 34  1  6  0  0  0
 32 31  1  0  0  0  0
 32 33  1  0  0  0  0
 33 28  1  0  0  0  0
 33 35  1  1  0  0  0
M  END
>  <CHROM.1>
-57.46657942,-85.15013026,136.53008323,70.12244901,-68.15577259,-173.66141912
70.34497445,43.64972289,65.03335027,-178.00463093,179.82671949,-71.29331519
-61.52695232,61.11156538,-60.80512580,59.12532569,-0.95225370,9.23508669
7.63310716,1.83693906,0.32314419,-0.98524816

>  <Name>
lig.pdb

>  <RI>
3.60165e+07

>  <Rbt.Current_Directory>
/home/itssahil/PROJECTS/Mol_Feturizer/New_Systems/rnas/2m4q

>  <Rbt.Executable>
rbdock ($Id: //depot/dev/client3/rdock/2013.1/src/exe/rbdock.cxx#4 $)

>  <Rbt.Library>
libRbt.so (2013.1, Build901 2013/11/27)

>  <Rbt.Parameter_File>
/export/apps/rDock/src/rDock_2013.1_src/data/scripts/dock_solv.prm

>  <Rbt.Receptor>
prm/pocket_docking_8.prm

>  <SCORE>
-36.627

>  <SCORE.INTER>
-18.5894

>  <SCORE.INTER.CONST>
1

>  <SCORE.INTER.POLAR>
-3.18194

>  <SCORE.INTER.ROT>
10

>  <SCORE.INTER.SOLV>
13.1491

>  <SCORE.INTER.VDW>
-16.4361

>  <SCORE.INTER.norm>
-0.502415

>  <SCORE.INTRA>
-18.0376

>  <SCORE.INTRA.DIHEDRAL>
-36.1079

>  <SCORE.INTRA.DIHEDRAL.0>
44.8331

>  <SCORE.INTRA.POLAR>
0.104951

>  <SCORE.INTRA.POLAR.0>
-0.108895

>  <SCORE.INTRA.REPUL>
-0.00912235

>  <SCORE.INTRA.REPUL.0>
0.00912235

>  <SCORE.INTRA.SOLV>
-0.243222

>  <SCORE.INTRA.SOLV.lig_0>
-53.9067

>  <SCORE.INTRA.VDW>
-0.173292

>  <SCORE.INTRA.VDW.0>
-2.93492

>  <SCORE.INTRA.norm>
-0.487503

>  <SCORE.RESTR>
0

>  <SCORE.RESTR.CAVITY>
0

>  <SCORE.RESTR.norm>
0

>  <SCORE.SYSTEM>
0

>  <SCORE.SYSTEM.CONST>
0

>  <SCORE.SYSTEM.DIHEDRAL>
0

>  <SCORE.SYSTEM.SOLV>
0

>  <SCORE.SYSTEM.norm>
0

>  <SCORE.heavy>
37

>  <SCORE.norm>
-0.989918

>  <RMSD>
5.875

$$$$
lig.pdb
 OpenBabel11021811453D
libRbt.so/2013.1/901 2013/11/27
 37 40  0  0  0  0  0  0  0  0999 V2000
    3.5829    6.1246    8.3824 C   0  0  2  0  0  0  0  0  0  0  0  0
    4.6769    5.0726    8.0036 C   0  0  1  0  0  0  0  0  0  0  0  0
    4.6175    3.7825    8.8730 C   0  0  0  0  0  0  0  0  0  0  0  0
    4.5392    4.1293   10.3805 C   0  0  1  0  0  0  0  0  0  0  0  0
    3.3350    5.0608   10.6444 C   0  0  1  0  0  0  0  0  0  0  0  0
    3.2044    5.3874   12.1563 C   0  0  1  0  0  0  0  0  0  0  0  0
    3.1619    4.0818   13.0050 C   0  0  1  0  0  0  0  0  0  0  0  0
    4.3405    3.1235   12.6605 C   0  0  2  0  0  0  0  0  0  0  0  0
    2.5822    3.3477   15.2719 C   0  0  0  0  0  0  0  0  0  0  0  0
    3.4395    6.2662    9.8331 O   0  0  0  0  0  0  0  0  0  0  0  0
    4.4764    2.9390   11.2179 O   0  0  0  0  0  0  0  0  0  0  0  0
    4.5514    4.7142    6.5741 N   0  0  0  0  0  0  0  0  0  0  0  0
    3.1376    4.4363   14.4391 N   0  0  0  0  0  0  0  0  0  0  0  0
    4.2479    6.2502   12.5903 O   0  0  0  0  0  0  0  0  0  0  0  0
    4.1748    1.8469   13.3442 O   0  0  0  0  0  0  0  0  0  0  0  0
    2.2980    5.7928    7.7727 O   0  0  0  0  0  0  0  0  0  0  0  0
    5.1692    0.8010   13.1179 C   0  0  2  0  0  0  0  0  0  0  0  0
    4.8856   -0.4403   14.0109 C   0  0  1  0  0  0  0  0  0  0  0  0
    5.1801   -0.1501   15.5106 C   0  0  2  0  0  0  0  0  0  0  0  0
    6.6156    0.4199   15.7011 C   0  0  1  0  0  0  0  0  0  0  0  0
    6.8682    1.6356   14.7663 C   0  0  1  0  0  0  0  0  0  0  0  0
    8.3366    2.1295   14.8449 C   0  0  0  0  0  0  0  0  0  0  0  0
    6.5120    1.3022   13.3903 O   0  0  0  0  0  0  0  0  0  0  0  0
    6.8777    0.7630   17.1160 N   0  0  0  0  0  0  0  0  0  0  0  0
    3.5511   -0.9043   13.8146 O   0  0  0  0  0  0  0  0  0  0  0  0
    4.9790   -1.3140   16.3095 O   0  0  0  0  0  0  0  0  0  0  0  0
    8.4949    3.3623   14.1502 O   0  0  0  0  0  0  0  0  0  0  0  0
    1.1289    6.5491    8.2029 C   0  0  1  0  0  0  0  0  0  0  0  0
    0.5339    7.4057    7.0504 C   0  0  1  0  0  0  0  0  0  0  0  0
   -0.6511    8.2771    7.5540 C   0  0  2  0  0  0  0  0  0  0  0  0
   -1.7495    7.4304    8.2754 C   0  0  1  0  0  0  0  0  0  0  0  0
   -1.1634    6.4617    9.3459 C   0  0  0  0  0  0  0  0  0  0  0  0
    0.0345    5.6235    8.8063 C   0  0  2  0  0  0  0  0  0  0  0  0
   -2.7834    8.3061    8.8671 N   0  0  0  0  0  0  0  0  0  0  0  0
    0.5640    4.7719    9.8935 N   0  0  0  0  0  0  0  0  0  0  0  0
    1.5391    8.2168    6.4510 O   0  0  0  0  0  0  0  0  0  0  0  0
   -1.2194    9.0158    6.4756 O   0  0  0  0  0  0  0  0  0  0  0  0
  1  2  1  0  0  0  0
  1 16  1  1  0  0  0
  2  3  1  0  0  0  0
  2 12  1  6  0  0  0
  4 11  1  1  0  0  0
  4  3  1  0  0  0  0
  5  4  1  0  0  0  0
  5 10  1  6  0  0  0
  6  7  1  0  0  0  0
  6  5  1  0  0  0  0
  6 14  1  1  0  0  0
  7  8  1  0  0  0  0
  7 13  1  1  0  0  0
  8 15  1  1  0  0  0
  8 11  1  0  0  0  0
  9 13  1  0  0  0  0
 10  1  1  0  0  0  0
 17 15  1  1  0  0  0
 17 18  1  0  0  0  0
 18 25  1  1  0  0  0
 19 18  1  0  0  0  0
 19 26  1  1  0  0  0
 20 19  1  0  0  0  0
 20 24  1  1  0  0  0
 21 23  1  0  0  0  0
 21 20  1  0  0  0  0
 21 22  1  6  0  0  0
 23 17  1  0  0  0  0
 27 22  1  0  0  0  0
 28 29  1  0  0  0  0
 28 16  1  6  0  0  0
 29 36  1  1  0  0  0
 30 37  1  6  0  0  0
 30 29  1  0  0  0  0
 31 30  1  0  0  0  0
 31 34  1  1  0  0  0
 32 31  1  0  0  0  0
 32 33  1  0  0  0  0
 33 28  1  0  0  0  0
 33 35  1  1  0  0  0
M  END
>  <CHROM.1>
-22.50423649,178.51666340,157.82949614,57.90353737,175.64852556,170.19881095
-51.00370119,-56.17637678,-170.82268841,172.84221953,179.36395319,115.01341052
71.69803903,-179.27291961,-156.89822878,63.27377413,3.36266411,4.10874444
11.33637416,-2.12185498,-0.23512721,2.15532689

>  <Name>
lig.pdb

>  <RI>
0

>  <Rbt.Current_Directory>
/home/itssahil/PROJECTS/Mol_Feturizer/New_Systems/rnas/2m4q

>  <Rbt.Executable>
rbdock ($Id: //depot/dev/client3/rdock/2013.1/src/exe/rbdock.cxx#4 $)

>  <Rbt.Library>
libRbt.so (2013.1, Build901 2013/11/27)

>  <Rbt.Parameter_File>
/export/apps/rDock/src/rDock_2013.1_src/data/scripts/dock_solv.prm

>  <Rbt.Receptor>
prm/pocket_docking_6.prm

>  <SCORE>
-36.1789

>  <SCORE.INTER>
-19.7946

>  <SCORE.INTER.CONST>
1

>  <SCORE.INTER.POLAR>
-2.82917

>  <SCORE.INTER.ROT>
10

>  <SCORE.INTER.SOLV>
15.0638

>  <SCORE.INTER.VDW>
-19.0538

>  <SCORE.INTER.norm>
-0.53499

>  <SCORE.INTRA>
-16.8015

>  <SCORE.INTRA.DIHEDRAL>
-31.761

>  <SCORE.INTRA.DIHEDRAL.0>
44.8331

>  <SCORE.INTRA.POLAR>
-0.230607

>  <SCORE.INTRA.POLAR.0>
-0.108895

>  <SCORE.INTRA.REPUL>
-0.00912235

>  <SCORE.INTRA.REPUL.0>
0.00912235

>  <SCORE.INTRA.SOLV>
-1.94966

>  <SCORE.INTRA.SOLV.lig_0>
-53.9067

>  <SCORE.INTRA.VDW>
0.883476

>  <SCORE.INTRA.VDW.0>
-2.93492

>  <SCORE.INTRA.norm>
-0.454096

>  <SCORE.RESTR>
0.417292

>  <SCORE.RESTR.CAVITY>
0.417292

>  <SCORE.RESTR.norm>
0.0112782

>  <SCORE.SYSTEM>
0

>  <SCORE.SYSTEM.CONST>
0

>  <SCORE.SYSTEM.DIHEDRAL>
0

>  <SCORE.SYSTEM.SOLV>
0

>  <SCORE.SYSTEM.norm>
0

>  <SCORE.heavy>
37

>  <SCORE.norm>
-0.977807

>  <RMSD>
5.876

$$$$
lig.pdb
 OpenBabel11021811453D
libRbt.so/2013.1/901 2013/11/27
 37 40  0  0  0  0  0  0  0  0999 V2000
   -2.0704    9.8259    7.1822 C   0  0  2  0  0  0  0  0  0  0  0  0
   -1.3168    8.5053    6.8149 C   0  0  1  0  0  0  0  0  0  0  0  0
   -1.7019    7.3031    7.7261 C   0  0  0  0  0  0  0  0  0  0  0  0
   -1.6395    7.6958    9.2230 C   0  0  1  0  0  0  0  0  0  0  0  0
   -2.5352    8.9280    9.4816 C   0  0  1  0  0  0  0  0  0  0  0  0
   -2.5285    9.3157   10.9847 C   0  0  1  0  0  0  0  0  0  0  0  0
   -2.9021    8.0935   11.8753 C   0  0  1  0  0  0  0  0  0  0  0  0
   -2.0406    6.8405   11.5376 C   0  0  2  0  0  0  0  0  0  0  0  0
   -4.0783    8.9357   13.8555 C   0  0  0  0  0  0  0  0  0  0  0  0
   -2.1283   10.0378    8.6303 O   0  0  0  0  0  0  0  0  0  0  0  0
   -2.0013    6.5897   10.0991 O   0  0  0  0  0  0  0  0  0  0  0  0
   -1.5761    8.1592    5.4005 N   0  0  0  0  0  0  0  0  0  0  0  0
   -2.7878    8.4770   13.2976 N   0  0  0  0  0  0  0  0  0  0  0  0
   -1.2770    9.8702   11.3694 O   0  0  0  0  0  0  0  0  0  0  0  0
   -2.5294    5.6758   12.2650 O   0  0  0  0  0  0  0  0  0  0  0  0
   -3.4138    9.8438    6.6099 O   0  0  0  0  0  0  0  0  0  0  0  0
   -1.7597    4.4363   12.1938 C   0  0  2  0  0  0  0  0  0  0  0  0
   -2.4682    3.2946   12.9768 C   0  0  1  0  0  0  0  0  0  0  0  0
   -2.4072    3.5266   14.5138 C   0  0  2  0  0  0  0  0  0  0  0  0
   -0.9451    3.7714   14.9874 C   0  0  1  0  0  0  0  0  0  0  0  0
   -0.2640    4.8945   14.1567 C   0  0  1  0  0  0  0  0  0  0  0  0
    1.2344    5.0570   14.5241 C   0  0  0  0  0  0  0  0  0  0  0  0
   -0.4168    4.6350   12.7282 O   0  0  0  0  0  0  0  0  0  0  0  0
   -0.8877    4.0614   16.4369 N   0  0  0  0  0  0  0  0  0  0  0  0
   -3.8095    3.1310   12.5199 O   0  0  0  0  0  0  0  0  0  0  0  0
   -3.0021    2.4415   15.2224 O   0  0  0  0  0  0  0  0  0  0  0  0
    1.3799    5.6648   15.8034 O   0  0  0  0  0  0  0  0  0  0  0  0
   -3.9323   11.1217    6.1387 C   0  0  1  0  0  0  0  0  0  0  0  0
   -4.2515   12.0885    7.3132 C   0  0  1  0  0  0  0  0  0  0  0  0
   -4.8929   13.4067    6.7953 C   0  0  2  0  0  0  0  0  0  0  0  0
   -4.0271   14.0981    5.6925 C   0  0  1  0  0  0  0  0  0  0  0  0
   -3.5791   13.1163    4.5686 C   0  0  0  0  0  0  0  0  0  0  0  0
   -2.9617   11.8004    5.1309 C   0  0  2  0  0  0  0  0  0  0  0  0
   -4.7358   15.2636    5.1222 N   0  0  0  0  0  0  0  0  0  0  0  0
   -2.6122   10.9053    4.0066 N   0  0  0  0  0  0  0  0  0  0  0  0
   -5.0943   11.4590    8.2730 O   0  0  0  0  0  0  0  0  0  0  0  0
   -5.1304   14.3035    7.8775 O   0  0  0  0  0  0  0  0  0  0  0  0
  1  2  1  0  0  0  0
  1 16  1  1  0  0  0
  2  3  1  0  0  0  0
  2 12  1  6  0  0  0
  4 11  1  1  0  0  0
  4  3  1  0  0  0  0
  5  4  1  0  0  0  0
  5 10  1  6  0  0  0
  6  7  1  0  0  0  0
  6  5  1  0  0  0  0
  6 14  1  1  0  0  0
  7  8  1  0  0  0  0
  7 13  1  1  0  0  0
  8 15  1  1  0  0  0
  8 11  1  0  0  0  0
  9 13  1  0  0  0  0
 10  1  1  0  0  0  0
 17 15  1  1  0  0  0
 17 18  1  0  0  0  0
 18 25  1  6  0  0  0
 19 18  1  0  0  0  0
 19 26  1  1  0  0  0
 20 19  1  0  0  0  0
 20 24  1  1  0  0  0
 21 23  1  0  0  0  0
 21 20  1  0  0  0  0
 21 22  1  1  0  0  0
 23 17  1  0  0  0  0
 27 22  1  0  0  0  0
 28 29  1  0  0  0  0
 28 16  1  1  0  0  0
 29 36  1  1  0  0  0
 30 37  1  1  0  0  0
 30 29  1  0  0  0  0
 31 30  1  0  0  0  0
 31 34  1  6  0  0  0
 32 31  1  0  0  0  0
 32 33  1  0  0  0  0
 33 28  1  0  0  0  0
 33 35  1  6  0  0  0
M  END
>  <CHROM.1>
-159.20407243,-173.33170991,93.81270806,60.97357058,-177.45570663,-143.98570745
-50.32995837,58.17800141,-72.57788093,-56.78548791,-63.28057749,-70.54431944
173.38578419,-64.81553172,-176.25838677,53.64007954,-2.46971485,8.27379469
10.13597191,-2.11529637,-1.16550948,1.83079200

>  <Name>
lig.pdb

>  <RI>
0

>  <Rbt.Current_Directory>
/home/itssahil/PROJECTS/Mol_Feturizer/New_Systems/rnas/2m4q

>  <Rbt.Executable>
rbdock ($Id: //depot/dev/client3/rdock/2013.1/src/exe/rbdock.cxx#4 $)

>  <Rbt.Library>
libRbt.so (2013.1, Build901 2013/11/27)

>  <Rbt.Parameter_File>
/export/apps/rDock/src/rDock_2013.1_src/data/scripts/dock_solv.prm

>  <Rbt.Receptor>
prm/pocket_docking_7.prm

>  <SCORE>
-43.3762

>  <SCORE.INTER>
-22.5151

>  <SCORE.INTER.CONST>
1

>  <SCORE.INTER.POLAR>
-2.79858

>  <SCORE.INTER.ROT>
10

>  <SCORE.INTER.SOLV>
19.169

>  <SCORE.INTER.VDW>
-22.3378

>  <SCORE.INTER.norm>
-0.608516

>  <SCORE.INTRA>
-20.8611

>  <SCORE.INTRA.DIHEDRAL>
-35.0261

>  <SCORE.INTRA.DIHEDRAL.0>
44.8331

>  <SCORE.INTRA.POLAR>
-0.828331

>  <SCORE.INTRA.POLAR.0>
-0.108895

>  <SCORE.INTRA.REPUL>
-0.00912235

>  <SCORE.INTRA.REPUL.0>
0.00912235

>  <SCORE.INTRA.SOLV>
-0.765629

>  <SCORE.INTRA.SOLV.lig_0>
-53.9067

>  <SCORE.INTRA.VDW>
-0.103268

>  <SCORE.INTRA.VDW.0>
-2.93492

>  <SCORE.INTRA.norm>
-0.563813

>  <SCORE.RESTR>
0

>  <SCORE.RESTR.CAVITY>
0

>  <SCORE.RESTR.norm>
0

>  <SCORE.SYSTEM>
0

>  <SCORE.SYSTEM.CONST>
0

>  <SCORE.SYSTEM.DIHEDRAL>
0

>  <SCORE.SYSTEM.SOLV>
0

>  <SCORE.SYSTEM.norm>
0

>  <SCORE.heavy>
37

>  <SCORE.norm>
-1.17233

>  <RMSD>
5.916

$$$$
lig.pdb
 OpenBabel11021811453D
libRbt.so/2013.1/901 2013/11/27
 37 40  0  0  0  0  0  0  0  0999 V2000
    2.9340    5.9457   10.6955 C   0  0  2  0  0  0  0  0  0  0  0  0
    4.0616    4.9956   10.1732 C   0  0  1  0  0  0  0  0  0  0  0  0
    4.3719    3.8176   11.1426 C   0  0  0  0  0  0  0  0  0  0  0  0
    4.5657    4.3255   12.5930 C   0  0  1  0  0  0  0  0  0  0  0  0
    3.3244    5.1302   13.0390 C   0  0  1  0  0  0  0  0  0  0  0  0
    3.4715    5.6125   14.5072 C   0  0  1  0  0  0  0  0  0  0  0  0
    3.7960    4.4188   15.4540 C   0  0  1  0  0  0  0  0  0  0  0  0
    4.9993    3.5751   14.9379 C   0  0  2  0  0  0  0  0  0  0  0  0
    2.9433    4.5424   17.7500 C   0  0  0  0  0  0  0  0  0  0  0  0
    3.0821    6.2369   12.1232 O   0  0  0  0  0  0  0  0  0  0  0  0
    4.8518    3.2418   13.5233 O   0  0  0  0  0  0  0  0  0  0  0  0
    3.6889    4.4610    8.8455 N   0  0  0  0  0  0  0  0  0  0  0  0
    4.0254    4.9322   16.8204 N   0  0  0  0  0  0  0  0  0  0  0  0
    4.4493    6.6387   14.6182 O   0  0  0  0  0  0  0  0  0  0  0  0
    5.1657    2.3761   15.7498 O   0  0  0  0  0  0  0  0  0  0  0  0
    1.6099    5.3937   10.4221 O   0  0  0  0  0  0  0  0  0  0  0  0
    3.9782    1.5993   16.0969 C   0  0  2  0  0  0  0  0  0  0  0  0
    4.3270    0.4695   17.1071 C   0  0  1  0  0  0  0  0  0  0  0  0
    5.1657   -0.6591   16.4418 C   0  0  2  0  0  0  0  0  0  0  0  0
    4.4721   -1.1893   15.1534 C   0  0  1  0  0  0  0  0  0  0  0  0
    4.1102   -0.0259   14.1885 C   0  0  1  0  0  0  0  0  0  0  0  0
    3.2975   -0.5224   12.9640 C   0  0  0  0  0  0  0  0  0  0  0  0
    3.3784    1.0173   14.9011 O   0  0  0  0  0  0  0  0  0  0  0  0
    5.2976   -2.2142   14.4777 N   0  0  0  0  0  0  0  0  0  0  0  0
    4.9815    1.0078   18.2545 O   0  0  0  0  0  0  0  0  0  0  0  0
    5.4230   -1.7191   17.3602 O   0  0  0  0  0  0  0  0  0  0  0  0
    2.7751    0.5754   12.2230 O   0  0  0  0  0  0  0  0  0  0  0  0
    0.5270    6.3318   10.1550 C   0  0  1  0  0  0  0  0  0  0  0  0
   -0.1673    6.0464    8.7939 C   0  0  1  0  0  0  0  0  0  0  0  0
   -1.2532    7.1150    8.4839 C   0  0  2  0  0  0  0  0  0  0  0  0
   -2.2895    7.2662    9.6445 C   0  0  1  0  0  0  0  0  0  0  0  0
   -1.6176    7.4191   11.0419 C   0  0  0  0  0  0  0  0  0  0  0  0
   -0.5219    6.3421   11.3031 C   0  0  2  0  0  0  0  0  0  0  0  0
   -3.2151    8.3883    9.3792 N   0  0  0  0  0  0  0  0  0  0  0  0
    0.1000    6.5877   12.6223 N   0  0  0  0  0  0  0  0  0  0  0  0
    0.7896    5.9776    7.7416 O   0  0  0  0  0  0  0  0  0  0  0  0
   -1.9167    6.8099    7.2598 O   0  0  0  0  0  0  0  0  0  0  0  0
  1  2  1  0  0  0  0
  1 16  1  1  0  0  0
  2  3  1  0  0  0  0
  2 12  1  6  0  0  0
  4 11  1  1  0  0  0
  4  3  1  0  0  0  0
  5  4  1  0  0  0  0
  5 10  1  6  0  0  0
  6  7  1  0  0  0  0
  6  5  1  0  0  0  0
  6 14  1  6  0  0  0
  7  8  1  0  0  0  0
  7 13  1  1  0  0  0
  8 15  1  1  0  0  0
  8 11  1  0  0  0  0
  9 13  1  0  0  0  0
 10  1  1  0  0  0  0
 17 15  1  6  0  0  0
 17 18  1  0  0  0  0
 18 25  1  1  0  0  0
 19 18  1  0  0  0  0
 19 26  1  1  0  0  0
 20 19  1  0  0  0  0
 20 24  1  6  0  0  0
 21 23  1  0  0  0  0
 21 20  1  0  0  0  0
 21 22  1  6  0  0  0
 23 17  1  0  0  0  0
 27 22  1  0  0  0  0
 28 29  1  0  0  0  0
 28 16  1  1  0  0  0
 29 36  1  6  0  0  0
 30 37  1  6  0  0  0
 30 29  1  0  0  0  0
 31 30  1  0  0  0  0
 31 34  1  6  0  0  0
 32 31  1  0  0  0  0
 32 33  1  0  0  0  0
 33 28  1  0  0  0  0
 33 35  1  1  0  0  0
M  END
>  <CHROM.1>
-51.31199752,44.72270495,110.61798914,-55.84923459,-172.82272180,-147.64127592
55.95538017,62.48113279,169.64860148,27.14047595,174.56420173,124.44605008
-56.77786155,175.37093717,163.74830648,8.27477152,2.67831037,3.82268158,12.92010038
3.13123237,1.05241457,-2.37374418

>  <Name>
lig.pdb

>  <RI>
0

>  <Rbt.Current_Directory>
/home/itssahil/PROJECTS/Mol_Feturizer/New_Systems/rnas/2m4q

>  <Rbt.Executable>
rbdock ($Id: //depot/dev/client3/rdock/2013.1/src/exe/rbdock.cxx#4 $)

>  <Rbt.Library>
libRbt.so (2013.1, Build901 2013/11/27)

>  <Rbt.Parameter_File>
/export/apps/rDock/src/rDock_2013.1_src/data/scripts/dock_solv.prm

>  <Rbt.Receptor>
prm/pocket_docking_7.prm

>  <SCORE>
-44.2583

>  <SCORE.INTER>
-30.5146

>  <SCORE.INTER.CONST>
1

>  <SCORE.INTER.POLAR>
-5.14628

>  <SCORE.INTER.ROT>
10

>  <SCORE.INTER.SOLV>
18.7293

>  <SCORE.INTER.VDW>
-19.6985

>  <SCORE.INTER.norm>
-0.824719

>  <SCORE.INTRA>
-14.1305

>  <SCORE.INTRA.DIHEDRAL>
-24.5839

>  <SCORE.INTRA.DIHEDRAL.0>
44.8331

>  <SCORE.INTRA.POLAR>
-0.738725

>  <SCORE.INTRA.POLAR.0>
-0.108895

>  <SCORE.INTRA.REPUL>
0.272482

>  <SCORE.INTRA.REPUL.0>
0.00912235

>  <SCORE.INTRA.SOLV>
-0.572632

>  <SCORE.INTRA.SOLV.lig_0>
-53.9067

>  <SCORE.INTRA.VDW>
-0.403027

>  <SCORE.INTRA.VDW.0>
-2.93492

>  <SCORE.INTRA.norm>
-0.381907

>  <SCORE.RESTR>
0.386866

>  <SCORE.RESTR.CAVITY>
0.386866

>  <SCORE.RESTR.norm>
0.0104558

>  <SCORE.SYSTEM>
0

>  <SCORE.SYSTEM.CONST>
0

>  <SCORE.SYSTEM.DIHEDRAL>
0

>  <SCORE.SYSTEM.SOLV>
0

>  <SCORE.SYSTEM.norm>
0

>  <SCORE.heavy>
37

>  <SCORE.norm>
-1.19617

>  <RMSD>
6.334

$$$$
lig.pdb
 OpenBabel11021811453D
libRbt.so/2013.1/901 2013/11/27
 37 40  0  0  0  0  0  0  0  0999 V2000
   -2.1456   11.6807    9.4787 C   0  0  2  0  0  0  0  0  0  0  0  0
   -2.4585   10.3489    8.7201 C   0  0  1  0  0  0  0  0  0  0  0  0
   -2.5732    9.1157    9.6633 C   0  0  0  0  0  0  0  0  0  0  0  0
   -1.3712    9.0454   10.6376 C   0  0  1  0  0  0  0  0  0  0  0  0
   -1.2555   10.3686   11.4269 C   0  0  1  0  0  0  0  0  0  0  0  0
   -0.0860   10.3088   12.4459 C   0  0  1  0  0  0  0  0  0  0  0  0
   -0.2155    9.0594   13.3673 C   0  0  1  0  0  0  0  0  0  0  0  0
   -0.4141    7.7491   12.5489 C   0  0  2  0  0  0  0  0  0  0  0  0
    0.8400    9.8822   15.4223 C   0  0  0  0  0  0  0  0  0  0  0  0
   -1.1244   11.4946   10.5119 O   0  0  0  0  0  0  0  0  0  0  0  0
   -1.4562    7.9026   11.5370 O   0  0  0  0  0  0  0  0  0  0  0  0
   -3.7086   10.4982    7.9438 N   0  0  0  0  0  0  0  0  0  0  0  0
    0.9649    8.9856   14.2529 N   0  0  0  0  0  0  0  0  0  0  0  0
    1.1742   10.3353   11.7880 O   0  0  0  0  0  0  0  0  0  0  0  0
   -0.7014    6.6315   13.4395 O   0  0  0  0  0  0  0  0  0  0  0  0
   -3.3571   12.2562   10.0565 O   0  0  0  0  0  0  0  0  0  0  0  0
   -0.2258    5.3020   13.0650 C   0  0  2  0  0  0  0  0  0  0  0  0
   -1.2267    4.6030   12.1017 C   0  0  1  0  0  0  0  0  0  0  0  0
   -2.5371    4.1917   12.8321 C   0  0  2  0  0  0  0  0  0  0  0  0
   -2.2305    3.3501   14.1047 C   0  0  1  0  0  0  0  0  0  0  0  0
   -1.2013    4.0684   15.0213 C   0  0  1  0  0  0  0  0  0  0  0  0
   -0.7823    3.1832   16.2242 C   0  0  0  0  0  0  0  0  0  0  0  0
   -0.0298    4.4746   14.2505 O   0  0  0  0  0  0  0  0  0  0  0  0
   -3.4683    3.0143   14.8420 N   0  0  0  0  0  0  0  0  0  0  0  0
   -1.4900    5.4277   10.9680 O   0  0  0  0  0  0  0  0  0  0  0  0
   -3.4186    3.4943   11.9546 O   0  0  0  0  0  0  0  0  0  0  0  0
    0.0013    2.0762   15.7907 O   0  0  0  0  0  0  0  0  0  0  0  0
   -3.2615   13.5867   10.6435 C   0  0  1  0  0  0  0  0  0  0  0  0
   -4.0220   14.6496    9.8021 C   0  0  1  0  0  0  0  0  0  0  0  0
   -3.8270   16.0750   10.3914 C   0  0  2  0  0  0  0  0  0  0  0  0
   -4.2078   16.1515   11.9057 C   0  0  1  0  0  0  0  0  0  0  0  0
   -3.5637   15.0125   12.7516 C   0  0  0  0  0  0  0  0  0  0  0  0
   -3.7642   13.6042   12.1151 C   0  0  2  0  0  0  0  0  0  0  0  0
   -3.8717   17.4780   12.4654 N   0  0  0  0  0  0  0  0  0  0  0  0
   -3.0820   12.5900   12.9478 N   0  0  0  0  0  0  0  0  0  0  0  0
   -3.6117   14.6053    8.4393 O   0  0  0  0  0  0  0  0  0  0  0  0
   -4.5729   17.0303    9.6411 O   0  0  0  0  0  0  0  0  0  0  0  0
  1  2  1  0  0  0  0
  1 16  1  1  0  0  0
  2  3  1  0  0  0  0
  2 12  1  1  0  0  0
  4 11  1  1  0  0  0
  4  3  1  0  0  0  0
  5  4  1  0  0  0  0
  5 10  1  6  0  0  0
  6  7  1  0  0  0  0
  6  5  1  0  0  0  0
  6 14  1  6  0  0  0
  7  8  1  0  0  0  0
  7 13  1  6  0  0  0
  8 15  1  1  0  0  0
  8 11  1  0  0  0  0
  9 13  1  0  0  0  0
 10  1  1  0  0  0  0
 17 15  1  1  0  0  0
 17 18  1  0  0  0  0
 18 25  1  6  0  0  0
 19 18  1  0  0  0  0
 19 26  1  6  0  0  0
 20 19  1  0  0  0  0
 20 24  1  1  0  0  0
 21 23  1  0  0  0  0
 21 20  1  0  0  0  0
 21 22  1  1  0  0  0
 23 17  1  0  0  0  0
 27 22  1  0  0  0  0
 28 29  1  0  0  0  0
 28 16  1  6  0  0  0
 29 36  1  6  0  0  0
 30 37  1  6  0  0  0
 30 29  1  0  0  0  0
 31 30  1  0  0  0  0
 31 34  1  1  0  0  0
 32 31  1  0  0  0  0
 32 33  1  0  0  0  0
 33 28  1  0  0  0  0
 33 35  1  1  0  0  0
M  END
>  <CHROM.1>
177.64595384,-147.19839036,81.13274825,-60.02869471,-84.55042304,-172.07838070
59.67844402,47.76581025,69.25758205,-85.10597369,-60.71086967,110.47458948
-178.99517160,-177.15501460,85.32427566,176.42518092,-1.95319268,9.42851834
12.03185507,2.02307312,-1.07772760,0.09277077

>  <Name>
lig.pdb

>  <RI>
3.60165e+07

>  <Rbt.Current_Directory>
/home/itssahil/PROJECTS/Mol_Feturizer/New_Systems/rnas/2m4q

>  <Rbt.Executable>
rbdock ($Id: //depot/dev/client3/rdock/2013.1/src/exe/rbdock.cxx#4 $)

>  <Rbt.Library>
libRbt.so (2013.1, Build901 2013/11/27)

>  <Rbt.Parameter_File>
/export/apps/rDock/src/rDock_2013.1_src/data/scripts/dock_solv.prm

>  <Rbt.Receptor>
prm/pocket_docking_8.prm

>  <SCORE>
-37.7237

>  <SCORE.INTER>
-23.8286

>  <SCORE.INTER.CONST>
1

>  <SCORE.INTER.POLAR>
-4.18044

>  <SCORE.INTER.ROT>
10

>  <SCORE.INTER.SOLV>
13.8346

>  <SCORE.INTER.VDW>
-16.8292

>  <SCORE.INTER.norm>
-0.644017

>  <SCORE.INTRA>
-13.8951

>  <SCORE.INTRA.DIHEDRAL>
-26.7396

>  <SCORE.INTRA.DIHEDRAL.0>
44.8331

>  <SCORE.INTRA.POLAR>
0.0838723

>  <SCORE.INTRA.POLAR.0>
-0.108895

>  <SCORE.INTRA.REPUL>
-0.00912235

>  <SCORE.INTRA.REPUL.0>
0.00912235

>  <SCORE.INTRA.SOLV>
-0.716314

>  <SCORE.INTRA.SOLV.lig_0>
-53.9067

>  <SCORE.INTRA.VDW>
-0.406636

>  <SCORE.INTRA.VDW.0>
-2.93492

>  <SCORE.INTRA.norm>
-0.375542

>  <SCORE.RESTR>
0

>  <SCORE.RESTR.CAVITY>
0

>  <SCORE.RESTR.norm>
0

>  <SCORE.SYSTEM>
0

>  <SCORE.SYSTEM.CONST>
0

>  <SCORE.SYSTEM.DIHEDRAL>
0

>  <SCORE.SYSTEM.SOLV>
0

>  <SCORE.SYSTEM.norm>
0

>  <SCORE.heavy>
37

>  <SCORE.norm>
-1.01956

>  <RMSD>
6.462

$$$$
lig.pdb
 OpenBabel11021811453D
libRbt.so/2013.1/901 2013/11/27
 37 40  0  0  0  0  0  0  0  0999 V2000
   -2.4186   13.1344    6.2035 C   0  0  2  0  0  0  0  0  0  0  0  0
   -1.6553   11.9149    5.5892 C   0  0  1  0  0  0  0  0  0  0  0  0
   -1.6675   10.6563    6.5054 C   0  0  0  0  0  0  0  0  0  0  0  0
   -1.2606   11.0183    7.9554 C   0  0  1  0  0  0  0  0  0  0  0  0
   -2.1796   12.1365    8.4962 C   0  0  1  0  0  0  0  0  0  0  0  0
   -1.8241   12.4872    9.9660 C   0  0  1  0  0  0  0  0  0  0  0  0
   -1.8286   11.2104   10.8584 C   0  0  1  0  0  0  0  0  0  0  0  0
   -0.9608   10.0695   10.2488 C   0  0  2  0  0  0  0  0  0  0  0  0
   -2.5091   12.0640   13.0543 C   0  0  0  0  0  0  0  0  0  0  0  0
   -2.1215   13.3044    7.6275 O   0  0  0  0  0  0  0  0  0  0  0  0
   -1.2694    9.8584    8.8367 O   0  0  0  0  0  0  0  0  0  0  0  0
   -2.2347   11.5753    4.2714 N   0  0  0  0  0  0  0  0  0  0  0  0
   -1.3902   11.5707   12.2226 N   0  0  0  0  0  0  0  0  0  0  0  0
   -0.5788   13.1685   10.0477 O   0  0  0  0  0  0  0  0  0  0  0  0
   -1.1240    8.8408   11.0158 O   0  0  0  0  0  0  0  0  0  0  0  0
   -3.8589   13.0157    5.9934 O   0  0  0  0  0  0  0  0  0  0  0  0
   -1.8717    7.7388   10.4155 C   0  0  2  0  0  0  0  0  0  0  0  0
   -1.8804    6.4964   11.3510 C   0  0  1  0  0  0  0  0  0  0  0  0
   -0.4803    5.8228   11.4268 C   0  0  2  0  0  0  0  0  0  0  0  0
    0.0697    5.5087   10.0053 C   0  0  1  0  0  0  0  0  0  0  0  0
    0.0283    6.7671    9.0940 C   0  0  1  0  0  0  0  0  0  0  0  0
    0.4446    6.4386    7.6362 C   0  0  0  0  0  0  0  0  0  0  0  0
   -1.2992    7.3738    9.1241 O   0  0  0  0  0  0  0  0  0  0  0  0
    1.4304    4.9315   10.0674 N   0  0  0  0  0  0  0  0  0  0  0  0
   -2.3691    6.8468   12.6445 O   0  0  0  0  0  0  0  0  0  0  0  0
   -0.5169    4.6485   12.2348 O   0  0  0  0  0  0  0  0  0  0  0  0
    1.6679    5.7105    7.6100 O   0  0  0  0  0  0  0  0  0  0  0  0
   -4.6295   14.2469    5.8738 C   0  0  1  0  0  0  0  0  0  0  0  0
   -4.5905   15.0868    7.1812 C   0  0  1  0  0  0  0  0  0  0  0  0
   -5.4958   16.3455    7.0657 C   0  0  2  0  0  0  0  0  0  0  0  0
   -5.1565   17.2108    5.8088 C   0  0  1  0  0  0  0  0  0  0  0  0
   -5.0564   16.3689    4.5015 C   0  0  0  0  0  0  0  0  0  0  0  0
   -4.1575   15.1066    4.6669 C   0  0  2  0  0  0  0  0  0  0  0  0
   -6.1290   18.3134    5.6521 N   0  0  0  0  0  0  0  0  0  0  0  0
   -4.1570   14.3382    3.4032 N   0  0  0  0  0  0  0  0  0  0  0  0
   -4.9660   14.2950    8.3035 O   0  0  0  0  0  0  0  0  0  0  0  0
   -5.4078   17.1324    8.2510 O   0  0  0  0  0  0  0  0  0  0  0  0
  1  2  1  0  0  0  0
  1 16  1  1  0  0  0
  2  3  1  0  0  0  0
  2 12  1  6  0  0  0
  4 11  1  1  0  0  0
  4  3  1  0  0  0  0
  5  4  1  0  0  0  0
  5 10  1  6  0  0  0
  6  7  1  0  0  0  0
  6  5  1  0  0  0  0
  6 14  1  6  0  0  0
  7  8  1  0  0  0  0
  7 13  1  1  0  0  0
  8 15  1  1  0  0  0
  8 11  1  0  0  0  0
  9 13  1  0  0  0  0
 10  1  1  0  0  0  0
 17 15  1  1  0  0  0
 17 18  1  0  0  0  0
 18 25  1  1  0  0  0
 19 18  1  0  0  0  0
 19 26  1  1  0  0  0
 20 19  1  0  0  0  0
 20 24  1  1  0  0  0
 21 23  1  0  0  0  0
 21 20  1  0  0  0  0
 21 22  1  6  0  0  0
 23 17  1  0  0  0  0
 27 22  1  0  0  0  0
 28 29  1  0  0  0  0
 28 16  1  1  0  0  0
 29 36  1  1  0  0  0
 30 37  1  1  0  0  0
 30 29  1  0  0  0  0
 31 30  1  0  0  0  0
 31 34  1  6  0  0  0
 32 31  1  0  0  0  0
 32 33  1  0  0  0  0
 33 28  1  0  0  0  0
 33 35  1  6  0  0  0
M  END
>  <CHROM.1>
-167.60793164,108.52969886,85.25441411,-166.90702504,177.28002032,-150.19454683
78.75393148,70.60419897,-49.88501191,49.40378552,173.87241857,-63.72166373
-60.93435567,-80.88679677,99.84646539,-51.50096596,-2.24482654,11.12255023
8.43883799,-2.59257969,-1.09776633,1.72481471

>  <Name>
lig.pdb

>  <RI>
3.60165e+07

>  <Rbt.Current_Directory>
/home/itssahil/PROJECTS/Mol_Feturizer/New_Systems/rnas/2m4q

>  <Rbt.Executable>
rbdock ($Id: //depot/dev/client3/rdock/2013.1/src/exe/rbdock.cxx#4 $)

>  <Rbt.Library>
libRbt.so (2013.1, Build901 2013/11/27)

>  <Rbt.Parameter_File>
/export/apps/rDock/src/rDock_2013.1_src/data/scripts/dock_solv.prm

>  <Rbt.Receptor>
prm/pocket_docking_8.prm

>  <SCORE>
-51.3303

>  <SCORE.INTER>
-36.9535

>  <SCORE.INTER.CONST>
1

>  <SCORE.INTER.POLAR>
-6.96014

>  <SCORE.INTER.ROT>
10

>  <SCORE.INTER.SOLV>
14.208

>  <SCORE.INTER.VDW>
-16.4379

>  <SCORE.INTER.norm>
-0.998744

>  <SCORE.INTRA>
-14.3768

>  <SCORE.INTRA.DIHEDRAL>
-25.1688

>  <SCORE.INTRA.DIHEDRAL.0>
44.8331

>  <SCORE.INTRA.POLAR>
-0.683996

>  <SCORE.INTRA.POLAR.0>
-0.108895

>  <SCORE.INTRA.REPUL>
-0.00912235

>  <SCORE.INTRA.REPUL.0>
0.00912235

>  <SCORE.INTRA.SOLV>
-0.0259716

>  <SCORE.INTRA.SOLV.lig_0>
-53.9067

>  <SCORE.INTRA.VDW>
0.591821

>  <SCORE.INTRA.VDW.0>
-2.93492

>  <SCORE.INTRA.norm>
-0.388561

>  <SCORE.RESTR>
0

>  <SCORE.RESTR.CAVITY>
0

>  <SCORE.RESTR.norm>
0

>  <SCORE.SYSTEM>
0

>  <SCORE.SYSTEM.CONST>
0

>  <SCORE.SYSTEM.DIHEDRAL>
0

>  <SCORE.SYSTEM.SOLV>
0

>  <SCORE.SYSTEM.norm>
0

>  <SCORE.heavy>
37

>  <SCORE.norm>
-1.38731

>  <RMSD>
6.626

$$$$
lig.pdb
 OpenBabel11021811453D
libRbt.so/2013.1/901 2013/11/27
 37 40  0  0  0  0  0  0  0  0999 V2000
   -3.8938   12.8572    5.7177 C   0  0  2  0  0  0  0  0  0  0  0  0
   -3.5818   11.4825    5.0394 C   0  0  1  0  0  0  0  0  0  0  0  0
   -3.3660   10.3274    6.0606 C   0  0  0  0  0  0  0  0  0  0  0  0
   -2.3745   10.7460    7.1745 C   0  0  1  0  0  0  0  0  0  0  0  0
   -2.8687   12.0395    7.8601 C   0  0  1  0  0  0  0  0  0  0  0  0
   -1.9172   12.4569    9.0134 C   0  0  1  0  0  0  0  0  0  0  0  0
   -1.7060   11.2806   10.0125 C   0  0  1  0  0  0  0  0  0  0  0  0
   -1.2885    9.9669    9.2871 C   0  0  2  0  0  0  0  0  0  0  0  0
   -1.0614   11.1585   12.3754 C   0  0  0  0  0  0  0  0  0  0  0  0
   -3.0339   13.1023    6.8777 O   0  0  0  0  0  0  0  0  0  0  0  0
   -2.1586    9.6844    8.1483 O   0  0  0  0  0  0  0  0  0  0  0  0
   -4.6748   11.1251    4.1093 N   0  0  0  0  0  0  0  0  0  0  0  0
   -0.7203   11.6850   11.0362 N   0  0  0  0  0  0  0  0  0  0  0  0
   -0.6761   12.9357    8.5113 O   0  0  0  0  0  0  0  0  0  0  0  0
   -1.2664    8.8522   10.2259 O   0  0  0  0  0  0  0  0  0  0  0  0
   -5.3009   12.9516    6.0967 O   0  0  0  0  0  0  0  0  0  0  0  0
   -1.7365    7.5468    9.7688 C   0  0  2  0  0  0  0  0  0  0  0  0
   -1.6687    6.4975   10.9147 C   0  0  1  0  0  0  0  0  0  0  0  0
   -0.2007    6.1160   11.2601 C   0  0  2  0  0  0  0  0  0  0  0  0
    0.5798    5.6767    9.9874 C   0  0  1  0  0  0  0  0  0  0  0  0
    0.4572    6.7363    8.8570 C   0  0  1  0  0  0  0  0  0  0  0  0
    1.1143    6.2524    7.5378 C   0  0  0  0  0  0  0  0  0  0  0  0
   -0.9433    7.0841    8.6352 O   0  0  0  0  0  0  0  0  0  0  0  0
    1.9954    5.3790   10.2973 N   0  0  0  0  0  0  0  0  0  0  0  0
   -2.3780    6.9619   12.0619 O   0  0  0  0  0  0  0  0  0  0  0  0
   -0.1541    5.1062   12.2658 O   0  0  0  0  0  0  0  0  0  0  0  0
    0.5541    5.0129    7.1170 O   0  0  0  0  0  0  0  0  0  0  0  0
   -5.8920   14.2811    6.1809 C   0  0  1  0  0  0  0  0  0  0  0  0
   -5.0096   15.2586    7.0067 C   0  0  1  0  0  0  0  0  0  0  0  0
   -5.7030   16.6410    7.1659 C   0  0  2  0  0  0  0  0  0  0  0  0
   -6.1253   17.2580    5.7930 C   0  0  1  0  0  0  0  0  0  0  0  0
   -6.8972   16.2521    4.8874 C   0  0  0  0  0  0  0  0  0  0  0  0
   -6.1791   14.8738    4.7721 C   0  0  2  0  0  0  0  0  0  0  0  0
   -6.9087   18.4959    5.9922 N   0  0  0  0  0  0  0  0  0  0  0  0
   -6.9983   13.9639    3.9424 N   0  0  0  0  0  0  0  0  0  0  0  0
   -4.6916   14.7028    8.2786 O   0  0  0  0  0  0  0  0  0  0  0  0
   -4.8593   17.5420    7.8788 O   0  0  0  0  0  0  0  0  0  0  0  0
  1  2  1  0  0  0  0
  1 16  1  1  0  0  0
  2  3  1  0  0  0  0
  2 12  1  6  0  0  0
  4 11  1  1  0  0  0
  4  3  1  0  0  0  0
  5  4  1  0  0  0  0
  5 10  1  6  0  0  0
  6  7  1  0  0  0  0
  6  5  1  0  0  0  0
  6 14  1  6  0  0  0
  7  8  1  0  0  0  0
  7 13  1  1  0  0  0
  8 15  1  1  0  0  0
  8 11  1  0  0  0  0
  9 13  1  0  0  0  0
 10  1  1  0  0  0  0
 17 15  1  1  0  0  0
 17 18  1  0  0  0  0
 18 25  1  1  0  0  0
 19 18  1  0  0  0  0
 19 26  1  1  0  0  0
 20 19  1  0  0  0  0
 20 24  1  1  0  0  0
 21 23  1  0  0  0  0
 21 20  1  0  0  0  0
 21 22  1  6  0  0  0
 23 17  1  0  0  0  0
 27 22  1  0  0  0  0
 28 29  1  0  0  0  0
 28 16  1  6  0  0  0
 29 36  1  1  0  0  0
 30 37  1  6  0  0  0
 30 29  1  0  0  0  0
 31 30  1  0  0  0  0
 31 34  1  1  0  0  0
 32 31  1  0  0  0  0
 32 33  1  0  0  0  0
 33 28  1  0  0  0  0
 33 35  1  6  0  0  0
M  END
>  <CHROM.1>
-71.03624300,141.72629712,142.56024173,61.78020110,-178.66063599,-153.62110643
80.59310862,-57.30393374,56.37713910,-51.37855774,-61.97061968,-48.66115869
76.03077210,-48.14636413,78.04013625,54.42598064,-2.72613359,11.05879610
8.09308945,2.85704462,-1.03531651,0.81797470

>  <Name>
lig.pdb

>  <RI>
0

>  <Rbt.Current_Directory>
/home/itssahil/PROJECTS/Mol_Feturizer/New_Systems/rnas/2m4q

>  <Rbt.Executable>
rbdock ($Id: //depot/dev/client3/rdock/2013.1/src/exe/rbdock.cxx#4 $)

>  <Rbt.Library>
libRbt.so (2013.1, Build901 2013/11/27)

>  <Rbt.Parameter_File>
/export/apps/rDock/src/rDock_2013.1_src/data/scripts/dock_solv.prm

>  <Rbt.Receptor>
prm/pocket_docking_6.prm

>  <SCORE>
-41.6573

>  <SCORE.INTER>
-25.214

>  <SCORE.INTER.CONST>
1

>  <SCORE.INTER.POLAR>
-3.97833

>  <SCORE.INTER.ROT>
10

>  <SCORE.INTER.SOLV>
19.0214

>  <SCORE.INTER.VDW>
-20.1554

>  <SCORE.INTER.norm>
-0.68146

>  <SCORE.INTRA>
-16.4432

>  <SCORE.INTRA.DIHEDRAL>
-29.4721

>  <SCORE.INTRA.DIHEDRAL.0>
44.8331

>  <SCORE.INTRA.POLAR>
-0.551073

>  <SCORE.INTRA.POLAR.0>
-0.108895

>  <SCORE.INTRA.REPUL>
-0.00912235

>  <SCORE.INTRA.REPUL.0>
0.00912235

>  <SCORE.INTRA.SOLV>
-0.471728

>  <SCORE.INTRA.SOLV.lig_0>
-53.9067

>  <SCORE.INTRA.VDW>
0.447928

>  <SCORE.INTRA.VDW.0>
-2.93492

>  <SCORE.INTRA.norm>
-0.444412

>  <SCORE.RESTR>
0

>  <SCORE.RESTR.CAVITY>
0

>  <SCORE.RESTR.norm>
0

>  <SCORE.SYSTEM>
0

>  <SCORE.SYSTEM.CONST>
0

>  <SCORE.SYSTEM.DIHEDRAL>
0

>  <SCORE.SYSTEM.SOLV>
0

>  <SCORE.SYSTEM.norm>
0

>  <SCORE.heavy>
37

>  <SCORE.norm>
-1.12587

>  <RMSD>
6.659

$$$$
lig.pdb
 OpenBabel11021811453D
libRbt.so/2013.1/901 2013/11/27
 37 40  0  0  0  0  0  0  0  0999 V2000
    1.7238    7.1530    8.5318 C   0  0  2  0  0  0  0  0  0  0  0  0
    2.1574    5.6926    8.8875 C   0  0  1  0  0  0  0  0  0  0  0  0
    1.0469    4.8815    9.6174 C   0  0  0  0  0  0  0  0  0  0  0  0
    0.4487    5.6903   10.7951 C   0  0  1  0  0  0  0  0  0  0  0  0
   -0.0704    7.0540   10.2870 C   0  0  1  0  0  0  0  0  0  0  0  0
   -0.7186    7.8675   11.4392 C   0  0  1  0  0  0  0  0  0  0  0  0
   -1.8148    7.0297   12.1624 C   0  0  1  0  0  0  0  0  0  0  0  0
   -1.2894    5.6274   12.5909 C   0  0  2  0  0  0  0  0  0  0  0  0
   -3.4331    8.7103   12.9178 C   0  0  0  0  0  0  0  0  0  0  0  0
    1.0018    7.7928    9.6338 O   0  0  0  0  0  0  0  0  0  0  0  0
   -0.5983    4.9561   11.4929 O   0  0  0  0  0  0  0  0  0  0  0  0
    2.5661    4.9795    7.6579 N   0  0  0  0  0  0  0  0  0  0  0  0
   -2.3355    7.8004   13.3105 N   0  0  0  0  0  0  0  0  0  0  0  0
    0.2620    8.3345   12.3569 O   0  0  0  0  0  0  0  0  0  0  0  0
   -2.3809    4.8110   13.1073 O   0  0  0  0  0  0  0  0  0  0  0  0
    0.9225    7.1832    7.3113 O   0  0  0  0  0  0  0  0  0  0  0  0
   -2.1148    3.4092   13.4206 C   0  0  2  0  0  0  0  0  0  0  0  0
   -3.3787    2.7199   14.0087 C   0  0  1  0  0  0  0  0  0  0  0  0
   -3.6976    3.2297   15.4434 C   0  0  2  0  0  0  0  0  0  0  0  0
   -2.4538    3.1109   16.3712 C   0  0  1  0  0  0  0  0  0  0  0  0
   -1.2066    3.7816   15.7307 C   0  0  1  0  0  0  0  0  0  0  0  0
    0.0717    3.5535   16.5794 C   0  0  0  0  0  0  0  0  0  0  0  0
   -1.0111    3.2959   14.3679 O   0  0  0  0  0  0  0  0  0  0  0  0
   -2.7295    3.6581   17.7177 N   0  0  0  0  0  0  0  0  0  0  0  0
   -4.4915    2.8812   13.1311 O   0  0  0  0  0  0  0  0  0  0  0  0
   -4.8187    2.5437   15.9964 O   0  0  0  0  0  0  0  0  0  0  0  0
    0.4109    2.1714   16.6241 O   0  0  0  0  0  0  0  0  0  0  0  0
    0.1841    8.4045    7.0160 C   0  0  1  0  0  0  0  0  0  0  0  0
    0.9535    9.3247    6.0273 C   0  0  1  0  0  0  0  0  0  0  0  0
    0.1948   10.6628    5.8015 C   0  0  2  0  0  0  0  0  0  0  0  0
   -1.2868   10.4404    5.3551 C   0  0  1  0  0  0  0  0  0  0  0  0
   -2.0436    9.4159    6.2526 C   0  0  0  0  0  0  0  0  0  0  0  0
   -1.2397    8.0987    6.4703 C   0  0  2  0  0  0  0  0  0  0  0  0
   -2.0153   11.7255    5.2932 N   0  0  0  0  0  0  0  0  0  0  0  0
   -2.0002    7.2052    7.3707 N   0  0  0  0  0  0  0  0  0  0  0  0
    2.2792    9.5664    6.4873 O   0  0  0  0  0  0  0  0  0  0  0  0
    0.8849   11.4724    4.8528 O   0  0  0  0  0  0  0  0  0  0  0  0
  1  2  1  0  0  0  0
  1 16  1  6  0  0  0
  2  3  1  0  0  0  0
  2 12  1  6  0  0  0
  4 11  1  6  0  0  0
  4  3  1  0  0  0  0
  5  4  1  0  0  0  0
  5 10  1  1  0  0  0
  6  7  1  0  0  0  0
  6  5  1  0  0  0  0
  6 14  1  1  0  0  0
  7  8  1  0  0  0  0
  7 13  1  1  0  0  0
  8 15  1  6  0  0  0
  8 11  1  0  0  0  0
  9 13  1  0  0  0  0
 10  1  1  0  0  0  0
 17 15  1  1  0  0  0
 17 18  1  0  0  0  0
 18 25  1  6  0  0  0
 19 18  1  0  0  0  0
 19 26  1  1  0  0  0
 20 19  1  0  0  0  0
 20 24  1  1  0  0  0
 21 23  1  0  0  0  0
 21 20  1  0  0  0  0
 21 22  1  1  0  0  0
 23 17  1  0  0  0  0
 27 22  1  0  0  0  0
 28 29  1  0  0  0  0
 28 16  1  6  0  0  0
 29 36  1  1  0  0  0
 30 37  1  6  0  0  0
 30 29  1  0  0  0  0
 31 30  1  0  0  0  0
 31 34  1  1  0  0  0
 32 31  1  0  0  0  0
 32 33  1  0  0  0  0
 33 28  1  0  0  0  0
 33 35  1  1  0  0  0
M  END
>  <CHROM.1>
-19.54596163,173.22272761,86.37878732,-174.14075257,177.77445008,165.92720973
-47.08302893,-175.86965479,64.50354777,68.09864359,-179.26230184,96.88224292
-179.88919645,64.36980593,62.26923493,49.67713733,-0.86985921,6.37725969
10.90620161,-1.32725144,-0.40707984,2.25044641

>  <Name>
lig.pdb

>  <RI>
3.60165e+07

>  <Rbt.Current_Directory>
/home/itssahil/PROJECTS/Mol_Feturizer/New_Systems/rnas/2m4q

>  <Rbt.Executable>
rbdock ($Id: //depot/dev/client3/rdock/2013.1/src/exe/rbdock.cxx#4 $)

>  <Rbt.Library>
libRbt.so (2013.1, Build901 2013/11/27)

>  <Rbt.Parameter_File>
/export/apps/rDock/src/rDock_2013.1_src/data/scripts/dock_solv.prm

>  <Rbt.Receptor>
prm/pocket_docking_8.prm

>  <SCORE>
-40.4507

>  <SCORE.INTER>
-21.6498

>  <SCORE.INTER.CONST>
1

>  <SCORE.INTER.POLAR>
-2.91201

>  <SCORE.INTER.ROT>
10

>  <SCORE.INTER.SOLV>
15.8597

>  <SCORE.INTER.VDW>
-20.2798

>  <SCORE.INTER.norm>
-0.585131

>  <SCORE.INTRA>
-18.8008

>  <SCORE.INTRA.DIHEDRAL>
-33.8413

>  <SCORE.INTRA.DIHEDRAL.0>
44.8331

>  <SCORE.INTRA.POLAR>
-0.384445

>  <SCORE.INTRA.POLAR.0>
-0.108895

>  <SCORE.INTRA.REPUL>
-0.00912235

>  <SCORE.INTRA.REPUL.0>
0.00912235

>  <SCORE.INTRA.SOLV>
-1.5365

>  <SCORE.INTRA.SOLV.lig_0>
-53.9067

>  <SCORE.INTRA.VDW>
0.240783

>  <SCORE.INTRA.VDW.0>
-2.93492

>  <SCORE.INTRA.norm>
-0.50813

>  <SCORE.RESTR>
0

>  <SCORE.RESTR.CAVITY>
0

>  <SCORE.RESTR.norm>
0

>  <SCORE.SYSTEM>
0

>  <SCORE.SYSTEM.CONST>
0

>  <SCORE.SYSTEM.DIHEDRAL>
0

>  <SCORE.SYSTEM.SOLV>
0

>  <SCORE.SYSTEM.norm>
0

>  <SCORE.heavy>
37

>  <SCORE.norm>
-1.09326

>  <RMSD>
6.732

$$$$
lig.pdb
 OpenBabel11021811453D
libRbt.so/2013.1/901 2013/11/27
 37 40  0  0  0  0  0  0  0  0999 V2000
   -3.8502   12.7985    5.1667 C   0  0  2  0  0  0  0  0  0  0  0  0
   -3.4894   11.4810    4.4044 C   0  0  1  0  0  0  0  0  0  0  0  0
   -3.3855   10.2390    5.3374 C   0  0  0  0  0  0  0  0  0  0  0  0
   -2.5012   10.5419    6.5724 C   0  0  1  0  0  0  0  0  0  0  0  0
   -3.0450   11.7814    7.3176 C   0  0  1  0  0  0  0  0  0  0  0  0
   -2.2044   12.0806    8.5879 C   0  0  1  0  0  0  0  0  0  0  0  0
   -2.1031   10.8194    9.4967 C   0  0  1  0  0  0  0  0  0  0  0  0
   -1.6320    9.5647    8.7029 C   0  0  2  0  0  0  0  0  0  0  0  0
   -1.7136   10.5201   11.8993 C   0  0  0  0  0  0  0  0  0  0  0  0
   -3.1033   12.9272    6.4199 O   0  0  0  0  0  0  0  0  0  0  0  0
   -2.3916    9.3971    7.4665 O   0  0  0  0  0  0  0  0  0  0  0  0
   -4.4917   11.2253    3.3472 N   0  0  0  0  0  0  0  0  0  0  0  0
   -1.2161   11.1161   10.6405 N   0  0  0  0  0  0  0  0  0  0  0  0
   -0.9156   12.5766    8.2493 O   0  0  0  0  0  0  0  0  0  0  0  0
   -1.7126    8.3737    9.5393 O   0  0  0  0  0  0  0  0  0  0  0  0
   -5.2862   12.8871    5.4172 O   0  0  0  0  0  0  0  0  0  0  0  0
   -1.7578    7.0668    8.8883 C   0  0  2  0  0  0  0  0  0  0  0  0
   -0.8840    6.0325    9.6533 C   0  0  1  0  0  0  0  0  0  0  0  0
    0.6344    6.3290    9.4901 C   0  0  2  0  0  0  0  0  0  0  0  0
    1.0230    6.4602    7.9889 C   0  0  1  0  0  0  0  0  0  0  0  0
    0.1039    7.4764    7.2553 C   0  0  1  0  0  0  0  0  0  0  0  0
    0.3890    7.5174    5.7311 C   0  0  0  0  0  0  0  0  0  0  0  0
   -1.3003    7.1659    7.5065 O   0  0  0  0  0  0  0  0  0  0  0  0
    2.4514    6.8106    7.8289 N   0  0  0  0  0  0  0  0  0  0  0  0
   -1.2661    5.9718   11.0262 O   0  0  0  0  0  0  0  0  0  0  0  0
    1.4256    5.3371   10.1411 O   0  0  0  0  0  0  0  0  0  0  0  0
   -0.6798    6.9264    4.9991 O   0  0  0  0  0  0  0  0  0  0  0  0
   -5.8396   14.1988    5.7290 C   0  0  1  0  0  0  0  0  0  0  0  0
   -5.0127   14.9345    6.8204 C   0  0  1  0  0  0  0  0  0  0  0  0
   -5.6737   16.2875    7.2071 C   0  0  2  0  0  0  0  0  0  0  0  0
   -5.9373   17.1991    5.9648 C   0  0  1  0  0  0  0  0  0  0  0  0
   -6.6474   16.4465    4.7997 C   0  0  0  0  0  0  0  0  0  0  0  0
   -5.9660   15.0871    4.4588 C   0  0  2  0  0  0  0  0  0  0  0  0
   -6.6965   18.4074    6.3516 N   0  0  0  0  0  0  0  0  0  0  0  0
   -6.7275   14.4149    3.3837 N   0  0  0  0  0  0  0  0  0  0  0  0
   -4.8408   14.1093    7.9680 O   0  0  0  0  0  0  0  0  0  0  0  0
   -4.8765   16.9741    8.1688 O   0  0  0  0  0  0  0  0  0  0  0  0
  1  2  1  0  0  0  0
  1 16  1  1  0  0  0
  2  3  1  0  0  0  0
  2 12  1  6  0  0  0
  4 11  1  1  0  0  0
  4  3  1  0  0  0  0
  5  4  1  0  0  0  0
  5 10  1  6  0  0  0
  6  7  1  0  0  0  0
  6  5  1  0  0  0  0
  6 14  1  6  0  0  0
  7  8  1  0  0  0  0
  7 13  1  1  0  0  0
  8 15  1  1  0  0  0
  8 11  1  0  0  0  0
  9 13  1  0  0  0  0
 10  1  1  0  0  0  0
 17 15  1  1  0  0  0
 17 18  1  0  0  0  0
 18 25  1  1  0  0  0
 19 18  1  0  0  0  0
 19 26  1  6  0  0  0
 20 19  1  0  0  0  0
 20 24  1  1  0  0  0
 21 23  1  0  0  0  0
 21 20  1  0  0  0  0
 21 22  1  6  0  0  0
 23 17  1  0  0  0  0
 27 22  1  0  0  0  0
 28 29  1  0  0  0  0
 28 16  1  6  0  0  0
 29 36  1  1  0  0  0
 30 37  1  1  0  0  0
 30 29  1  0  0  0  0
 31 30  1  0  0  0  0
 31 34  1  1  0  0  0
 32 31  1  0  0  0  0
 32 33  1  0  0  0  0
 33 28  1  0  0  0  0
 33 35  1  6  0  0  0
M  END
>  <CHROM.1>
-42.36742291,159.58750777,140.71946158,-171.68570120,139.47698952,-161.27252997
171.80641193,62.54334624,109.01143873,47.02748015,107.94525991,-48.15178355
179.33757764,62.40120745,-120.91254318,69.24834166,-2.71050921,11.04103332
7.31591567,3.01457480,-1.01156399,1.09018880

>  <Name>
lig.pdb

>  <RI>
2.86754e+07

>  <Rbt.Current_Directory>
/home/itssahil/PROJECTS/Mol_Feturizer/New_Systems/rnas/2m4q

>  <Rbt.Executable>
rbdock ($Id: //depot/dev/client3/rdock/2013.1/src/exe/rbdock.cxx#4 $)

>  <Rbt.Library>
libRbt.so (2013.1, Build901 2013/11/27)

>  <Rbt.Parameter_File>
/export/apps/rDock/src/rDock_2013.1_src/data/scripts/dock_solv.prm

>  <Rbt.Receptor>
prm/pocket_docking_5.prm

>  <SCORE>
-41.3761

>  <SCORE.INTER>
-34.6419

>  <SCORE.INTER.CONST>
1

>  <SCORE.INTER.POLAR>
-5.33024

>  <SCORE.INTER.ROT>
10

>  <SCORE.INTER.SOLV>
21.7063

>  <SCORE.INTER.VDW>
-22.8293

>  <SCORE.INTER.norm>
-0.936269

>  <SCORE.INTRA>
-8.03219

>  <SCORE.INTRA.DIHEDRAL>
-17.4918

>  <SCORE.INTRA.DIHEDRAL.0>
44.8331

>  <SCORE.INTRA.POLAR>
-0.187941

>  <SCORE.INTRA.POLAR.0>
-0.108895

>  <SCORE.INTRA.REPUL>
-0.00912235

>  <SCORE.INTRA.REPUL.0>
0.00912235

>  <SCORE.INTRA.SOLV>
-0.352592

>  <SCORE.INTRA.SOLV.lig_0>
-53.9067

>  <SCORE.INTRA.VDW>
1.5746

>  <SCORE.INTRA.VDW.0>
-2.93492

>  <SCORE.INTRA.norm>
-0.217086

>  <SCORE.RESTR>
1.29802

>  <SCORE.RESTR.CAVITY>
1.29802

>  <SCORE.RESTR.norm>
0.0350816

>  <SCORE.SYSTEM>
0

>  <SCORE.SYSTEM.CONST>
0

>  <SCORE.SYSTEM.DIHEDRAL>
0

>  <SCORE.SYSTEM.SOLV>
0

>  <SCORE.SYSTEM.norm>
0

>  <SCORE.heavy>
37

>  <SCORE.norm>
-1.11827

>  <RMSD>
6.889

$$$$
lig.pdb
 OpenBabel11021811453D
libRbt.so/2013.1/901 2013/11/27
 37 40  0  0  0  0  0  0  0  0999 V2000
   -3.8298   13.1118    4.7753 C   0  0  2  0  0  0  0  0  0  0  0  0
   -3.5220   11.8246    3.9412 C   0  0  1  0  0  0  0  0  0  0  0  0
   -3.1681   10.5906    4.8219 C   0  0  0  0  0  0  0  0  0  0  0  0
   -2.0999   10.9515    5.8838 C   0  0  1  0  0  0  0  0  0  0  0  0
   -2.5849   12.1480    6.7326 C   0  0  1  0  0  0  0  0  0  0  0  0
   -1.5530   12.5021    7.8369 C   0  0  1  0  0  0  0  0  0  0  0  0
   -1.2047   11.2488    8.6940 C   0  0  1  0  0  0  0  0  0  0  0  0
   -0.7986   10.0321    7.8102 C   0  0  2  0  0  0  0  0  0  0  0  0
   -0.2929   10.8631   10.9376 C   0  0  0  0  0  0  0  0  0  0  0  0
   -2.8812   13.2892    5.8770 O   0  0  0  0  0  0  0  0  0  0  0  0
   -1.7539    9.8149    6.7267 O   0  0  0  0  0  0  0  0  0  0  0  0
   -4.6775   11.5021    3.0760 N   0  0  0  0  0  0  0  0  0  0  0  0
   -0.1497   11.6038    9.6656 N   0  0  0  0  0  0  0  0  0  0  0  0
   -0.3826   13.0878    7.2814 O   0  0  0  0  0  0  0  0  0  0  0  0
   -0.6465    8.8363    8.6296 O   0  0  0  0  0  0  0  0  0  0  0  0
   -5.2004   13.0990    5.2793 O   0  0  0  0  0  0  0  0  0  0  0  0
   -0.8181    7.5312    7.9962 C   0  0  2  0  0  0  0  0  0  0  0  0
   -1.5685    6.5483    8.9394 C   0  0  1  0  0  0  0  0  0  0  0  0
   -0.6826    6.1159   10.1429 C   0  0  2  0  0  0  0  0  0  0  0  0
    0.6907    5.5655    9.6604 C   0  0  1  0  0  0  0  0  0  0  0  0
    1.3896    6.5622    8.6941 C   0  0  1  0  0  0  0  0  0  0  0  0
    2.6938    5.9706    8.0980 C   0  0  0  0  0  0  0  0  0  0  0  0
    0.4754    6.9648    7.6295 O   0  0  0  0  0  0  0  0  0  0  0  0
    1.5648    5.2171   10.8019 N   0  0  0  0  0  0  0  0  0  0  0  0
   -2.8056    7.1130    9.3698 O   0  0  0  0  0  0  0  0  0  0  0  0
   -1.3577    5.1653   10.9639 O   0  0  0  0  0  0  0  0  0  0  0  0
    3.3429    6.9188    7.2572 O   0  0  0  0  0  0  0  0  0  0  0  0
   -5.8324   14.3829    5.5553 C   0  0  1  0  0  0  0  0  0  0  0  0
   -5.0079   15.2325    6.5626 C   0  0  1  0  0  0  0  0  0  0  0  0
   -5.7464   16.5539    6.9171 C   0  0  2  0  0  0  0  0  0  0  0  0
   -6.1387   17.3770    5.6473 C   0  0  1  0  0  0  0  0  0  0  0  0
   -6.8492   16.5150    4.5610 C   0  0  0  0  0  0  0  0  0  0  0  0
   -6.0877   15.1910    4.2514 C   0  0  2  0  0  0  0  0  0  0  0  0
   -6.9643   18.5473    6.0143 N   0  0  0  0  0  0  0  0  0  0  0  0
   -6.8509   14.4103    3.2537 N   0  0  0  0  0  0  0  0  0  0  0  0
   -4.7182   14.4838    7.7387 O   0  0  0  0  0  0  0  0  0  0  0  0
   -4.9545   17.3455    7.7991 O   0  0  0  0  0  0  0  0  0  0  0  0
  1  2  1  0  0  0  0
  1 16  1  1  0  0  0
  2  3  1  0  0  0  0
  2 12  1  1  0  0  0
  4 11  1  1  0  0  0
  4  3  1  0  0  0  0
  5  4  1  0  0  0  0
  5 10  1  6  0  0  0
  6  7  1  0  0  0  0
  6  5  1  0  0  0  0
  6 14  1  6  0  0  0
  7  8  1  0  0  0  0
  7 13  1  1  0  0  0
  8 15  1  1  0  0  0
  8 11  1  0  0  0  0
  9 13  1  0  0  0  0
 10  1  1  0  0  0  0
 17 15  1  1  0  0  0
 17 18  1  0  0  0  0
 18 25  1  1  0  0  0
 19 18  1  0  0  0  0
 19 26  1  6  0  0  0
 20 19  1  0  0  0  0
 20 24  1  1  0  0  0
 21 23  1  0  0  0  0
 21 20  1  0  0  0  0
 21 22  1  6  0  0  0
 23 17  1  0  0  0  0
 27 22  1  0  0  0  0
 28 29  1  0  0  0  0
 28 16  1  6  0  0  0
 29 36  1  1  0  0  0
 30 37  1  1  0  0  0
 30 29  1  0  0  0  0
 31 30  1  0  0  0  0
 31 34  1  1  0  0  0
 32 31  1  0  0  0  0
 32 33  1  0  0  0  0
 33 28  1  0  0  0  0
 33 35  1  6  0  0  0
M  END
>  <CHROM.1>
-170.41543337,155.04350706,146.64646956,-171.39427915,-141.05143172,-154.17779638
66.53352202,174.44645775,-177.76698810,158.47107610,-177.33345153,-56.53234293
67.97955748,60.72423786,-159.55179401,72.16276591,-2.43153982,11.17466545
7.20854942,2.76467711,-0.95437338,0.72882521

>  <Name>
lig.pdb

>  <RI>
0

>  <Rbt.Current_Directory>
/home/itssahil/PROJECTS/Mol_Feturizer/New_Systems/rnas/2m4q

>  <Rbt.Executable>
rbdock ($Id: //depot/dev/client3/rdock/2013.1/src/exe/rbdock.cxx#4 $)

>  <Rbt.Library>
libRbt.so (2013.1, Build901 2013/11/27)

>  <Rbt.Parameter_File>
/export/apps/rDock/src/rDock_2013.1_src/data/scripts/dock_solv.prm

>  <Rbt.Receptor>
prm/pocket_docking_6.prm

>  <SCORE>
-49.4998

>  <SCORE.INTER>
-32.9927

>  <SCORE.INTER.CONST>
1

>  <SCORE.INTER.POLAR>
-5.25863

>  <SCORE.INTER.ROT>
10

>  <SCORE.INTER.SOLV>
19.4383

>  <SCORE.INTER.VDW>
-21.2124

>  <SCORE.INTER.norm>
-0.891694

>  <SCORE.INTRA>
-16.5072

>  <SCORE.INTRA.DIHEDRAL>
-29.0891

>  <SCORE.INTRA.DIHEDRAL.0>
44.8331

>  <SCORE.INTRA.POLAR>
-0.425583

>  <SCORE.INTRA.POLAR.0>
-0.108895

>  <SCORE.INTRA.REPUL>
-0.00912235

>  <SCORE.INTRA.REPUL.0>
0.00912235

>  <SCORE.INTRA.SOLV>
-1.65404

>  <SCORE.INTRA.SOLV.lig_0>
-53.9067

>  <SCORE.INTRA.VDW>
0.356984

>  <SCORE.INTRA.VDW.0>
-2.93492

>  <SCORE.INTRA.norm>
-0.44614

>  <SCORE.RESTR>
0

>  <SCORE.RESTR.CAVITY>
0

>  <SCORE.RESTR.norm>
0

>  <SCORE.SYSTEM>
0

>  <SCORE.SYSTEM.CONST>
0

>  <SCORE.SYSTEM.DIHEDRAL>
0

>  <SCORE.SYSTEM.SOLV>
0

>  <SCORE.SYSTEM.norm>
0

>  <SCORE.heavy>
37

>  <SCORE.norm>
-1.33783

>  <RMSD>
6.948

$$$$
lig.pdb
 OpenBabel11021811453D
libRbt.so/2013.1/901 2013/11/27
 37 40  0  0  0  0  0  0  0  0999 V2000
    2.1730    3.9133   13.7622 C   0  0  2  0  0  0  0  0  0  0  0  0
    2.7497    4.2879   15.1673 C   0  0  1  0  0  0  0  0  0  0  0  0
    4.3018    4.4073   15.1836 C   0  0  0  0  0  0  0  0  0  0  0  0
    4.9627    3.1773   14.5133 C   0  0  1  0  0  0  0  0  0  0  0  0
    4.4112    2.9989   13.0811 C   0  0  1  0  0  0  0  0  0  0  0  0
    5.0913    1.7996   12.3678 C   0  0  1  0  0  0  0  0  0  0  0  0
    6.6426    1.9350   12.4106 C   0  0  1  0  0  0  0  0  0  0  0  0
    7.1658    2.1967   13.8543 C   0  0  2  0  0  0  0  0  0  0  0  0
    7.4799    0.8853   10.3585 C   0  0  0  0  0  0  0  0  0  0  0  0
    2.9609    2.8653   13.1096 O   0  0  0  0  0  0  0  0  0  0  0  0
    6.4167    3.2659   14.5095 O   0  0  0  0  0  0  0  0  0  0  0  0
    2.1492    5.5574   15.6313 N   0  0  0  0  0  0  0  0  0  0  0  0
    7.2513    0.7294   11.8113 N   0  0  0  0  0  0  0  0  0  0  0  0
    4.6668    0.5609   12.9218 O   0  0  0  0  0  0  0  0  0  0  0  0
    8.5940    2.4869   13.8331 O   0  0  0  0  0  0  0  0  0  0  0  0
    2.0751    5.0888   12.9013 O   0  0  0  0  0  0  0  0  0  0  0  0
    9.0495    3.6952   13.1501 C   0  0  2  0  0  0  0  0  0  0  0  0
   10.5742    3.6257   12.8520 C   0  0  1  0  0  0  0  0  0  0  0  0
   11.4212    3.7510   14.1508 C   0  0  2  0  0  0  0  0  0  0  0  0
   11.0184    5.0151   14.9643 C   0  0  1  0  0  0  0  0  0  0  0  0
    9.4844    5.0626   15.2096 C   0  0  1  0  0  0  0  0  0  0  0  0
    9.0502    6.3824   15.8995 C   0  0  0  0  0  0  0  0  0  0  0  0
    8.7623    4.8782   13.9542 O   0  0  0  0  0  0  0  0  0  0  0  0
   11.7714    5.1030   16.2347 N   0  0  0  0  0  0  0  0  0  0  0  0
   10.8895    2.4378   12.1280 O   0  0  0  0  0  0  0  0  0  0  0  0
   12.8166    3.7516   13.8575 O   0  0  0  0  0  0  0  0  0  0  0  0
    9.6634    6.5119   17.1780 O   0  0  0  0  0  0  0  0  0  0  0  0
    1.7459    4.8749   11.4978 C   0  0  1  0  0  0  0  0  0  0  0  0
    0.3378    5.4275   11.1399 C   0  0  1  0  0  0  0  0  0  0  0  0
   -0.0330    5.1036    9.6652 C   0  0  2  0  0  0  0  0  0  0  0  0
    1.0565    5.5910    8.6555 C   0  0  1  0  0  0  0  0  0  0  0  0
    2.4978    5.1634    9.0648 C   0  0  0  0  0  0  0  0  0  0  0  0
    2.8204    5.4868   10.5547 C   0  0  2  0  0  0  0  0  0  0  0  0
    0.7418    5.1374    7.2839 N   0  0  0  0  0  0  0  0  0  0  0  0
    4.1814    5.0049   10.8757 N   0  0  0  0  0  0  0  0  0  0  0  0
   -0.6480    4.9190   12.0327 O   0  0  0  0  0  0  0  0  0  0  0  0
   -1.3025    5.6624    9.3368 O   0  0  0  0  0  0  0  0  0  0  0  0
  1  2  1  0  0  0  0
  1 16  1  6  0  0  0
  2  3  1  0  0  0  0
  2 12  1  6  0  0  0
  4 11  1  6  0  0  0
  4  3  1  0  0  0  0
  5  4  1  0  0  0  0
  5 10  1  1  0  0  0
  6  7  1  0  0  0  0
  6  5  1  0  0  0  0
  6 14  1  1  0  0  0
  7  8  1  0  0  0  0
  7 13  1  1  0  0  0
  8 15  1  6  0  0  0
  8 11  1  0  0  0  0
  9 13  1  0  0  0  0
 10  1  1  0  0  0  0
 17 15  1  1  0  0  0
 17 18  1  0  0  0  0
 18 25  1  1  0  0  0
 19 18  1  0  0  0  0
 19 26  1  6  0  0  0
 20 19  1  0  0  0  0
 20 24  1  1  0  0  0
 21 23  1  0  0  0  0
 21 20  1  0  0  0  0
 21 22  1  6  0  0  0
 23 17  1  0  0  0  0
 27 22  1  0  0  0  0
 28 29  1  0  0  0  0
 28 16  1  1  0  0  0
 29 36  1  1  0  0  0
 30 37  1  6  0  0  0
 30 29  1  0  0  0  0
 31 30  1  0  0  0  0
 31 34  1  6  0  0  0
 32 31  1  0  0  0  0
 32 33  1  0  0  0  0
 33 28  1  0  0  0  0
 33 35  1  1  0  0  0
M  END
>  <CHROM.1>
73.80494789,64.37602162,90.83150061,62.45597117,-162.75379885,171.00550332
178.48294415,-66.37175387,-61.54560699,-162.39825982,-179.32937830,112.08726111
-77.88546316,176.85233421,-50.76316232,177.34302893,5.56165462,4.01437991
12.84545393,2.85019879,0.26705243,-2.06658317

>  <Name>
lig.pdb

>  <RI>
0

>  <Rbt.Current_Directory>
/home/itssahil/PROJECTS/Mol_Feturizer/New_Systems/rnas/2m4q

>  <Rbt.Executable>
rbdock ($Id: //depot/dev/client3/rdock/2013.1/src/exe/rbdock.cxx#4 $)

>  <Rbt.Library>
libRbt.so (2013.1, Build901 2013/11/27)

>  <Rbt.Parameter_File>
/export/apps/rDock/src/rDock_2013.1_src/data/scripts/dock_solv.prm

>  <Rbt.Receptor>
prm/pocket_docking_7.prm

>  <SCORE>
-38.5679

>  <SCORE.INTER>
-19.2261

>  <SCORE.INTER.CONST>
1

>  <SCORE.INTER.POLAR>
-3.82495

>  <SCORE.INTER.ROT>
10

>  <SCORE.INTER.SOLV>
13.1281

>  <SCORE.INTER.VDW>
-14.7103

>  <SCORE.INTER.norm>
-0.519625

>  <SCORE.INTRA>
-19.3418

>  <SCORE.INTRA.DIHEDRAL>
-31.48

>  <SCORE.INTRA.DIHEDRAL.0>
44.8331

>  <SCORE.INTRA.POLAR>
-0.861846

>  <SCORE.INTRA.POLAR.0>
-0.108895

>  <SCORE.INTRA.REPUL>
-0.00912235

>  <SCORE.INTRA.REPUL.0>
0.00912235

>  <SCORE.INTRA.SOLV>
-0.453944

>  <SCORE.INTRA.SOLV.lig_0>
-53.9067

>  <SCORE.INTRA.VDW>
-0.398907

>  <SCORE.INTRA.VDW.0>
-2.93492

>  <SCORE.INTRA.norm>
-0.522751

>  <SCORE.RESTR>
0

>  <SCORE.RESTR.CAVITY>
0

>  <SCORE.RESTR.norm>
0

>  <SCORE.SYSTEM>
0

>  <SCORE.SYSTEM.CONST>
0

>  <SCORE.SYSTEM.DIHEDRAL>
0

>  <SCORE.SYSTEM.SOLV>
0

>  <SCORE.SYSTEM.norm>
0

>  <SCORE.heavy>
37

>  <SCORE.norm>
-1.04238

>  <RMSD>
7.240

$$$$
lig.pdb
 OpenBabel11021811453D
libRbt.so/2013.1/901 2013/11/27
 37 40  0  0  0  0  0  0  0  0999 V2000
   -3.9341   12.9571    4.9532 C   0  0  2  0  0  0  0  0  0  0  0  0
   -3.5548   11.5443    4.3988 C   0  0  1  0  0  0  0  0  0  0  0  0
   -3.3970   10.4681    5.5126 C   0  0  0  0  0  0  0  0  0  0  0  0
   -2.4943   10.9828    6.6612 C   0  0  1  0  0  0  0  0  0  0  0  0
   -3.0547   12.3115    7.2158 C   0  0  1  0  0  0  0  0  0  0  0  0
   -2.1948   12.8271    8.4009 C   0  0  1  0  0  0  0  0  0  0  0  0
   -2.0397   11.7281    9.4940 C   0  0  1  0  0  0  0  0  0  0  0  0
   -1.5526   10.3749    8.8957 C   0  0  2  0  0  0  0  0  0  0  0  0
   -1.8448   13.0655   11.5403 C   0  0  0  0  0  0  0  0  0  0  0  0
   -3.1635   13.2994    6.1507 O   0  0  0  0  0  0  0  0  0  0  0  0
   -2.3343    9.9965    7.7212 O   0  0  0  0  0  0  0  0  0  0  0  0
   -4.5728   11.1016    3.4213 N   0  0  0  0  0  0  0  0  0  0  0  0
   -1.1361   12.2222   10.5535 N   0  0  0  0  0  0  0  0  0  0  0  0
   -0.9276   13.2929    7.9552 O   0  0  0  0  0  0  0  0  0  0  0  0
   -1.5826    9.3295    9.9110 O   0  0  0  0  0  0  0  0  0  0  0  0
   -5.3661   13.0510    5.2237 O   0  0  0  0  0  0  0  0  0  0  0  0
   -2.3504    8.1167    9.6398 C   0  0  2  0  0  0  0  0  0  0  0  0
   -2.7828    7.4233   10.9630 C   0  0  1  0  0  0  0  0  0  0  0  0
   -1.5721    6.7810   11.6989 C   0  0  2  0  0  0  0  0  0  0  0  0
   -0.7748    5.8382   10.7517 C   0  0  1  0  0  0  0  0  0  0  0  0
   -0.3933    6.5593    9.4288 C   0  0  1  0  0  0  0  0  0  0  0  0
    0.2817    5.5945    8.4188 C   0  0  0  0  0  0  0  0  0  0  0  0
   -1.5698    7.1852    8.8327 O   0  0  0  0  0  0  0  0  0  0  0  0
    0.4175    5.2779   11.4247 N   0  0  0  0  0  0  0  0  0  0  0  0
   -3.4860    8.3383   11.8015 O   0  0  0  0  0  0  0  0  0  0  0  0
   -1.9907    6.0931   12.8757 O   0  0  0  0  0  0  0  0  0  0  0  0
    0.7969    6.3099    7.3008 O   0  0  0  0  0  0  0  0  0  0  0  0
   -5.9473   14.3823    5.3412 C   0  0  1  0  0  0  0  0  0  0  0  0
   -5.4585   15.1196    6.6194 C   0  0  1  0  0  0  0  0  0  0  0  0
   -6.1633   16.4965    6.7760 C   0  0  2  0  0  0  0  0  0  0  0  0
   -6.0201   17.3883    5.5000 C   0  0  1  0  0  0  0  0  0  0  0  0
   -6.3760   16.6297    4.1864 C   0  0  0  0  0  0  0  0  0  0  0  0
   -5.6655   15.2468    4.0796 C   0  0  2  0  0  0  0  0  0  0  0  0
   -6.8231   18.6230    5.6295 N   0  0  0  0  0  0  0  0  0  0  0  0
   -6.0947   14.5717    2.8357 N   0  0  0  0  0  0  0  0  0  0  0  0
   -5.6587   14.3144    7.7766 O   0  0  0  0  0  0  0  0  0  0  0  0
   -5.6661   17.1827    7.9221 O   0  0  0  0  0  0  0  0  0  0  0  0
  1  2  1  0  0  0  0
  1 16  1  1  0  0  0
  2  3  1  0  0  0  0
  2 12  1  6  0  0  0
  4 11  1  1  0  0  0
  4  3  1  0  0  0  0
  5  4  1  0  0  0  0
  5 10  1  6  0  0  0
  6  7  1  0  0  0  0
  6  5  1  0  0  0  0
  6 14  1  6  0  0  0
  7  8  1  0  0  0  0
  7 13  1  1  0  0  0
  8 15  1  1  0  0  0
  8 11  1  0  0  0  0
  9 13  1  0  0  0  0
 10  1  1  0  0  0  0
 17 15  1  1  0  0  0
 17 18  1  0  0  0  0
 18 25  1  1  0  0  0
 19 18  1  0  0  0  0
 19 26  1  1  0  0  0
 20 19  1  0  0  0  0
 20 24  1  1  0  0  0
 21 23  1  0  0  0  0
 21 20  1  0  0  0  0
 21 22  1  6  0  0  0
 23 17  1  0  0  0  0
 27 22  1  0  0  0  0
 28 29  1  0  0  0  0
 28 16  1  6  0  0  0
 29 36  1  1  0  0  0
 30 37  1  1  0  0  0
 30 29  1  0  0  0  0
 31 30  1  0  0  0  0
 31 34  1  1  0  0  0
 32 31  1  0  0  0  0
 32 33  1  0  0  0  0
 33 28  1  0  0  0  0
 33 35  1  6  0  0  0
M  END
>  <CHROM.1>
157.27956528,124.09661279,83.09338938,54.49137480,-155.58990820,-161.35364249
165.45601525,34.26205013,-171.50072956,178.35580499,-173.15737753,-68.61795726
60.28240296,-78.58415436,-153.70312717,143.18668384,-3.13642647,11.38698170
7.80582474,-2.98600147,-1.13010212,1.22458924

>  <Name>
lig.pdb

>  <RI>
0

>  <Rbt.Current_Directory>
/home/itssahil/PROJECTS/Mol_Feturizer/New_Systems/rnas/2m4q

>  <Rbt.Executable>
rbdock ($Id: //depot/dev/client3/rdock/2013.1/src/exe/rbdock.cxx#4 $)

>  <Rbt.Library>
libRbt.so (2013.1, Build901 2013/11/27)

>  <Rbt.Parameter_File>
/export/apps/rDock/src/rDock_2013.1_src/data/scripts/dock_solv.prm

>  <Rbt.Receptor>
prm/pocket_docking_7.prm

>  <SCORE>
-49.318

>  <SCORE.INTER>
-38.4464

>  <SCORE.INTER.CONST>
1

>  <SCORE.INTER.POLAR>
-6.0889

>  <SCORE.INTER.ROT>
10

>  <SCORE.INTER.SOLV>
20.3793

>  <SCORE.INTER.VDW>
-22.3943

>  <SCORE.INTER.norm>
-1.03909

>  <SCORE.INTRA>
-10.8717

>  <SCORE.INTRA.DIHEDRAL>
-22.7352

>  <SCORE.INTRA.DIHEDRAL.0>
44.8331

>  <SCORE.INTRA.POLAR>
0.0755223

>  <SCORE.INTRA.POLAR.0>
-0.108895

>  <SCORE.INTRA.REPUL>
-0.00912235

>  <SCORE.INTRA.REPUL.0>
0.00912235

>  <SCORE.INTRA.SOLV>
-1.86082

>  <SCORE.INTRA.SOLV.lig_0>
-53.9067

>  <SCORE.INTRA.VDW>
1.21518

>  <SCORE.INTRA.VDW.0>
-2.93492

>  <SCORE.INTRA.norm>
-0.293829

>  <SCORE.RESTR>
0

>  <SCORE.RESTR.CAVITY>
0

>  <SCORE.RESTR.norm>
0

>  <SCORE.SYSTEM>
0

>  <SCORE.SYSTEM.CONST>
0

>  <SCORE.SYSTEM.DIHEDRAL>
0

>  <SCORE.SYSTEM.SOLV>
0

>  <SCORE.SYSTEM.norm>
0

>  <SCORE.heavy>
37

>  <SCORE.norm>
-1.33292

>  <RMSD>
7.307

$$$$
lig.pdb
 OpenBabel11021811453D
libRbt.so/2013.1/901 2013/11/27
 37 40  0  0  0  0  0  0  0  0999 V2000
   -4.5320   13.4169    6.2027 C   0  0  2  0  0  0  0  0  0  0  0  0
   -4.6121   11.9804    5.5885 C   0  0  1  0  0  0  0  0  0  0  0  0
   -4.5656   10.8503    6.6583 C   0  0  0  0  0  0  0  0  0  0  0  0
   -3.3986   11.0712    7.6523 C   0  0  1  0  0  0  0  0  0  0  0  0
   -3.5127   12.4717    8.2949 C   0  0  1  0  0  0  0  0  0  0  0  0
   -2.3807   12.7026    9.3317 C   0  0  1  0  0  0  0  0  0  0  0  0
   -2.3457   11.5520   10.3813 C   0  0  1  0  0  0  0  0  0  0  0  0
   -2.3144   10.1482    9.7071 C   0  0  2  0  0  0  0  0  0  0  0  0
   -1.5171   11.3911   12.6837 C   0  0  0  0  0  0  0  0  0  0  0  0
   -3.5275   13.5020    7.2652 O   0  0  0  0  0  0  0  0  0  0  0  0
   -3.3352   10.0299    8.6690 O   0  0  0  0  0  0  0  0  0  0  0  0
   -5.8451   11.8502    4.7821 N   0  0  0  0  0  0  0  0  0  0  0  0
   -1.1965   11.7568   11.2871 N   0  0  0  0  0  0  0  0  0  0  0  0
   -1.1195   12.8566    8.6937 O   0  0  0  0  0  0  0  0  0  0  0  0
   -2.4544    9.0991   10.7093 O   0  0  0  0  0  0  0  0  0  0  0  0
   -5.8351   13.8533    6.6965 O   0  0  0  0  0  0  0  0  0  0  0  0
   -2.7973    7.7509   10.2636 C   0  0  2  0  0  0  0  0  0  0  0  0
   -2.1153    6.6776   11.1590 C   0  0  1  0  0  0  0  0  0  0  0  0
   -0.5785    6.6240   10.9243 C   0  0  2  0  0  0  0  0  0  0  0  0
   -0.2465    6.4545    9.4133 C   0  0  1  0  0  0  0  0  0  0  0  0
   -0.9748    7.5241    8.5526 C   0  0  1  0  0  0  0  0  0  0  0  0
   -0.7636    7.2857    7.0344 C   0  0  0  0  0  0  0  0  0  0  0  0
   -2.3986    7.5530    8.8742 O   0  0  0  0  0  0  0  0  0  0  0  0
    1.2135    6.4723    9.1752 N   0  0  0  0  0  0  0  0  0  0  0  0
   -2.4329    6.8956   12.5324 O   0  0  0  0  0  0  0  0  0  0  0  0
    0.0256    5.5928   11.7021 O   0  0  0  0  0  0  0  0  0  0  0  0
   -1.9812    6.8951    6.4081 O   0  0  0  0  0  0  0  0  0  0  0  0
   -6.2731   15.2003    6.3532 C   0  0  1  0  0  0  0  0  0  0  0  0
   -5.1652   16.2576    6.6193 C   0  0  1  0  0  0  0  0  0  0  0  0
   -5.6844   17.6960    6.3387 C   0  0  2  0  0  0  0  0  0  0  0  0
   -6.2942   17.8411    4.9066 C   0  0  1  0  0  0  0  0  0  0  0  0
   -7.3115   16.7120    4.5630 C   0  0  0  0  0  0  0  0  0  0  0  0
   -6.7596   15.2892    4.8788 C   0  0  2  0  0  0  0  0  0  0  0  0
   -6.9077   19.1747    4.7296 N   0  0  0  0  0  0  0  0  0  0  0  0
   -7.8000   14.2829    4.5749 N   0  0  0  0  0  0  0  0  0  0  0  0
   -4.6705   16.1492    7.9501 O   0  0  0  0  0  0  0  0  0  0  0  0
   -4.6426   18.6486    6.5356 O   0  0  0  0  0  0  0  0  0  0  0  0
  1  2  1  0  0  0  0
  1 16  1  1  0  0  0
  2  3  1  0  0  0  0
  2 12  1  1  0  0  0
  4 11  1  1  0  0  0
  4  3  1  0  0  0  0
  5  4  1  0  0  0  0
  5 10  1  6  0  0  0
  6  7  1  0  0  0  0
  6  5  1  0  0  0  0
  6 14  1  6  0  0  0
  7  8  1  0  0  0  0
  7 13  1  6  0  0  0
  8 15  1  1  0  0  0
  8 11  1  0  0  0  0
  9 13  1  0  0  0  0
 10  1  1  0  0  0  0
 17 15  1  1  0  0  0
 17 18  1  0  0  0  0
 18 25  1  1  0  0  0
 19 18  1  0  0  0  0
 19 26  1  1  0  0  0
 20 19  1  0  0  0  0
 20 24  1  1  0  0  0
 21 23  1  0  0  0  0
 21 20  1  0  0  0  0
 21 22  1  6  0  0  0
 23 17  1  0  0  0  0
 27 22  1  0  0  0  0
 28 29  1  0  0  0  0
 28 16  1  6  0  0  0
 29 36  1  1  0  0  0
 30 37  1  6  0  0  0
 30 29  1  0  0  0  0
 31 30  1  0  0  0  0
 31 34  1  1  0  0  0
 32 31  1  0  0  0  0
 32 33  1  0  0  0  0
 33 28  1  0  0  0  0
 33 35  1  1  0  0  0
M  END
>  <CHROM.1>
104.43470955,164.23645879,142.09786188,62.79574747,145.90524844,-133.93435612
63.61653397,-174.81104676,111.85917235,52.65252011,43.08869474,-48.06883307
64.58890154,-173.78958884,55.72412233,-132.83239613,-3.41406571,11.64752774
8.07242163,2.53018931,-1.00905786,0.41878517

>  <Name>
lig.pdb

>  <RI>
3.60165e+07

>  <Rbt.Current_Directory>
/home/itssahil/PROJECTS/Mol_Feturizer/New_Systems/rnas/2m4q

>  <Rbt.Executable>
rbdock ($Id: //depot/dev/client3/rdock/2013.1/src/exe/rbdock.cxx#4 $)

>  <Rbt.Library>
libRbt.so (2013.1, Build901 2013/11/27)

>  <Rbt.Parameter_File>
/export/apps/rDock/src/rDock_2013.1_src/data/scripts/dock_solv.prm

>  <Rbt.Receptor>
prm/pocket_docking_8.prm

>  <SCORE>
-54.2233

>  <SCORE.INTER>
-38.5792

>  <SCORE.INTER.CONST>
1

>  <SCORE.INTER.POLAR>
-5.98549

>  <SCORE.INTER.ROT>
10

>  <SCORE.INTER.SOLV>
17.5969

>  <SCORE.INTER.VDW>
-21.9001

>  <SCORE.INTER.norm>
-1.04268

>  <SCORE.INTRA>
-15.6441

>  <SCORE.INTRA.DIHEDRAL>
-19.0146

>  <SCORE.INTRA.DIHEDRAL.0>
44.8331

>  <SCORE.INTRA.POLAR>
-1.99802

>  <SCORE.INTRA.POLAR.0>
-0.108895

>  <SCORE.INTRA.REPUL>
-0.00912235

>  <SCORE.INTRA.REPUL.0>
0.00912235

>  <SCORE.INTRA.SOLV>
-0.777979

>  <SCORE.INTRA.SOLV.lig_0>
-53.9067

>  <SCORE.INTRA.VDW>
1.09108

>  <SCORE.INTRA.VDW.0>
-2.93492

>  <SCORE.INTRA.norm>
-0.422813

>  <SCORE.RESTR>
0

>  <SCORE.RESTR.CAVITY>
0

>  <SCORE.RESTR.norm>
0

>  <SCORE.SYSTEM>
0

>  <SCORE.SYSTEM.CONST>
0

>  <SCORE.SYSTEM.DIHEDRAL>
0

>  <SCORE.SYSTEM.SOLV>
0

>  <SCORE.SYSTEM.norm>
0

>  <SCORE.heavy>
37

>  <SCORE.norm>
-1.46549

>  <RMSD>
7.408

$$$$
lig.pdb
 OpenBabel11021811453D
libRbt.so/2013.1/901 2013/11/27
 37 40  0  0  0  0  0  0  0  0999 V2000
   -3.8151   13.2523    5.1104 C   0  0  2  0  0  0  0  0  0  0  0  0
   -3.5346   11.8620    4.4504 C   0  0  1  0  0  0  0  0  0  0  0  0
   -3.7104   10.6675    5.4332 C   0  0  0  0  0  0  0  0  0  0  0  0
   -2.9569   10.9235    6.7620 C   0  0  1  0  0  0  0  0  0  0  0  0
   -3.4253   12.2581    7.3839 C   0  0  1  0  0  0  0  0  0  0  0  0
   -2.7197   12.5175    8.7420 C   0  0  1  0  0  0  0  0  0  0  0  0
   -2.8975   11.3031    9.7013 C   0  0  1  0  0  0  0  0  0  0  0  0
   -2.4965    9.9598    9.0223 C   0  0  2  0  0  0  0  0  0  0  0  0
   -2.7055   10.8327   12.1004 C   0  0  0  0  0  0  0  0  0  0  0  0
   -3.2215   13.3535    6.4455 O   0  0  0  0  0  0  0  0  0  0  0  0
   -3.1096    9.8225    7.7036 O   0  0  0  0  0  0  0  0  0  0  0  0
   -4.4204   11.6768    3.2804 N   0  0  0  0  0  0  0  0  0  0  0  0
   -2.1307   11.5476   10.9404 N   0  0  0  0  0  0  0  0  0  0  0  0
   -1.3453   12.8320    8.5582 O   0  0  0  0  0  0  0  0  0  0  0  0
   -2.8349    8.8335    9.8834 O   0  0  0  0  0  0  0  0  0  0  0  0
   -5.2476   13.5306    5.1664 O   0  0  0  0  0  0  0  0  0  0  0  0
   -2.6540    7.4802    9.3639 C   0  0  2  0  0  0  0  0  0  0  0  0
   -1.6663    6.6701   10.2510 C   0  0  1  0  0  0  0  0  0  0  0  0
   -0.2050    7.1818   10.1006 C   0  0  2  0  0  0  0  0  0  0  0  0
    0.2220    7.2306    8.6049 C   0  0  1  0  0  0  0  0  0  0  0  0
   -0.8089    8.0188    7.7496 C   0  0  1  0  0  0  0  0  0  0  0  0
   -0.4695    7.9607    6.2371 C   0  0  0  0  0  0  0  0  0  0  0  0
   -2.1592    7.5193    7.9921 O   0  0  0  0  0  0  0  0  0  0  0  0
    1.5861    7.7817    8.4498 N   0  0  0  0  0  0  0  0  0  0  0  0
   -2.0922    6.6797   11.6123 O   0  0  0  0  0  0  0  0  0  0  0  0
    0.6994    6.3900   10.8678 O   0  0  0  0  0  0  0  0  0  0  0  0
   -0.3297    6.6128    5.8001 O   0  0  0  0  0  0  0  0  0  0  0  0
   -5.6821   14.8986    4.9137 C   0  0  1  0  0  0  0  0  0  0  0  0
   -5.0855   15.8980    5.9440 C   0  0  1  0  0  0  0  0  0  0  0  0
   -5.6371   17.3336    5.7160 C   0  0  2  0  0  0  0  0  0  0  0  0
   -5.4338   17.8241    4.2457 C   0  0  1  0  0  0  0  0  0  0  0  0
   -5.9015   16.7803    3.1876 C   0  0  0  0  0  0  0  0  0  0  0  0
   -5.3435   15.3519    3.4652 C   0  0  2  0  0  0  0  0  0  0  0  0
   -6.0986   19.1270    4.0300 N   0  0  0  0  0  0  0  0  0  0  0  0
   -5.8735   14.4148    2.4511 N   0  0  0  0  0  0  0  0  0  0  0  0
   -5.3394   15.4643    7.2762 O   0  0  0  0  0  0  0  0  0  0  0  0
   -5.0409   18.2475    6.6332 O   0  0  0  0  0  0  0  0  0  0  0  0
  1  2  1  0  0  0  0
  1 16  1  1  0  0  0
  2  3  1  0  0  0  0
  2 12  1  6  0  0  0
  4 11  1  1  0  0  0
  4  3  1  0  0  0  0
  5  4  1  0  0  0  0
  5 10  1  6  0  0  0
  6  7  1  0  0  0  0
  6  5  1  0  0  0  0
  6 14  1  6  0  0  0
  7  8  1  0  0  0  0
  7 13  1  1  0  0  0
  8 15  1  1  0  0  0
  8 11  1  0  0  0  0
  9 13  1  0  0  0  0
 10  1  1  0  0  0  0
 17 15  1  1  0  0  0
 17 18  1  0  0  0  0
 18 25  1  1  0  0  0
 19 18  1  0  0  0  0
 19 26  1  1  0  0  0
 20 19  1  0  0  0  0
 20 24  1  1  0  0  0
 21 23  1  0  0  0  0
 21 20  1  0  0  0  0
 21 22  1  6  0  0  0
 23 17  1  0  0  0  0
 27 22  1  0  0  0  0
 28 29  1  0  0  0  0
 28 16  1  1  0  0  0
 29 36  1  1  0  0  0
 30 37  1  1  0  0  0
 30 29  1  0  0  0  0
 31 30  1  0  0  0  0
 31 34  1  1  0  0  0
 32 31  1  0  0  0  0
 32 33  1  0  0  0  0
 33 28  1  0  0  0  0
 33 35  1  6  0  0  0
M  END
>  <CHROM.1>
-171.52482766,174.12524383,153.13709362,67.24439358,120.87471040,-141.54536932
179.74137457,60.46253012,54.06087080,-55.76630979,-85.10262615,-60.65872146
66.66786477,178.13588225,-177.07609277,71.97024788,-3.05149497,11.60112394
7.20174602,-2.97453693,-1.13866082,1.25439942

>  <Name>
lig.pdb

>  <RI>
0

>  <Rbt.Current_Directory>
/home/itssahil/PROJECTS/Mol_Feturizer/New_Systems/rnas/2m4q

>  <Rbt.Executable>
rbdock ($Id: //depot/dev/client3/rdock/2013.1/src/exe/rbdock.cxx#4 $)

>  <Rbt.Library>
libRbt.so (2013.1, Build901 2013/11/27)

>  <Rbt.Parameter_File>
/export/apps/rDock/src/rDock_2013.1_src/data/scripts/dock_solv.prm

>  <Rbt.Receptor>
prm/pocket_docking_7.prm

>  <SCORE>
-41.6039

>  <SCORE.INTER>
-25.8062

>  <SCORE.INTER.CONST>
1

>  <SCORE.INTER.POLAR>
-4.05862

>  <SCORE.INTER.ROT>
10

>  <SCORE.INTER.SOLV>
16.3041

>  <SCORE.INTER.VDW>
-19.3767

>  <SCORE.INTER.norm>
-0.697464

>  <SCORE.INTRA>
-16.5064

>  <SCORE.INTRA.DIHEDRAL>
-27.0174

>  <SCORE.INTRA.DIHEDRAL.0>
44.8331

>  <SCORE.INTRA.POLAR>
-1.05196

>  <SCORE.INTRA.POLAR.0>
-0.108895

>  <SCORE.INTRA.REPUL>
-0.00912235

>  <SCORE.INTRA.REPUL.0>
0.00912235

>  <SCORE.INTRA.SOLV>
-0.0742534

>  <SCORE.INTRA.SOLV.lig_0>
-53.9067

>  <SCORE.INTRA.VDW>
0.661718

>  <SCORE.INTRA.VDW.0>
-2.93492

>  <SCORE.INTRA.norm>
-0.446119

>  <SCORE.RESTR>
0.708713

>  <SCORE.RESTR.CAVITY>
0.708713

>  <SCORE.RESTR.norm>
0.0191544

>  <SCORE.SYSTEM>
0

>  <SCORE.SYSTEM.CONST>
0

>  <SCORE.SYSTEM.DIHEDRAL>
0

>  <SCORE.SYSTEM.SOLV>
0

>  <SCORE.SYSTEM.norm>
0

>  <SCORE.heavy>
37

>  <SCORE.norm>
-1.12443

>  <RMSD>
7.512

$$$$
lig.pdb
 OpenBabel11021811453D
libRbt.so/2013.1/901 2013/11/27
 37 40  0  0  0  0  0  0  0  0999 V2000
   -4.8971   15.6123    9.2970 C   0  0  2  0  0  0  0  0  0  0  0  0
   -4.6239   16.0469   10.7746 C   0  0  1  0  0  0  0  0  0  0  0  0
   -3.5022   15.2155   11.4633 C   0  0  0  0  0  0  0  0  0  0  0  0
   -3.7299   13.6969   11.2608 C   0  0  1  0  0  0  0  0  0  0  0  0
   -3.8435   13.3782    9.7532 C   0  0  1  0  0  0  0  0  0  0  0  0
   -4.0256   11.8546    9.5183 C   0  0  1  0  0  0  0  0  0  0  0  0
   -2.9005   11.0447   10.2289 C   0  0  1  0  0  0  0  0  0  0  0  0
   -2.7514   11.4441   11.7270 C   0  0  2  0  0  0  0  0  0  0  0  0
   -2.4850    9.0417    8.8763 C   0  0  0  0  0  0  0  0  0  0  0  0
   -4.9184   14.1551    9.1507 O   0  0  0  0  0  0  0  0  0  0  0  0
   -2.6902   12.8943   11.8909 O   0  0  0  0  0  0  0  0  0  0  0  0
   -4.2735   17.4833   10.8160 N   0  0  0  0  0  0  0  0  0  0  0  0
   -3.1652    9.6003   10.0647 N   0  0  0  0  0  0  0  0  0  0  0  0
   -5.3141   11.4186    9.9319 O   0  0  0  0  0  0  0  0  0  0  0  0
   -1.5851   10.7954   12.3130 O   0  0  0  0  0  0  0  0  0  0  0  0
   -3.9220   16.2025    8.3841 O   0  0  0  0  0  0  0  0  0  0  0  0
   -1.7783    9.5509   13.0532 C   0  0  2  0  0  0  0  0  0  0  0  0
   -0.9543    9.5533   14.3721 C   0  0  1  0  0  0  0  0  0  0  0  0
    0.5722    9.4341   14.0974 C   0  0  2  0  0  0  0  0  0  0  0  0
    0.8855    8.2109   13.1877 C   0  0  1  0  0  0  0  0  0  0  0  0
    0.0167    8.2293   11.8992 C   0  0  1  0  0  0  0  0  0  0  0  0
    0.2180    6.9480   11.0483 C   0  0  0  0  0  0  0  0  0  0  0  0
   -1.3926    8.4041   12.2381 O   0  0  0  0  0  0  0  0  0  0  0  0
    2.3273    8.1318   12.8658 N   0  0  0  0  0  0  0  0  0  0  0  0
   -1.2623   10.7063   15.1532 O   0  0  0  0  0  0  0  0  0  0  0  0
    1.3112    9.3715   15.3154 O   0  0  0  0  0  0  0  0  0  0  0  0
   -0.4937    7.0390    9.8184 O   0  0  0  0  0  0  0  0  0  0  0  0
   -4.2767   16.2816    6.9728 C   0  0  1  0  0  0  0  0  0  0  0  0
   -4.0902   17.7168    6.4057 C   0  0  1  0  0  0  0  0  0  0  0  0
   -4.5650   17.8013    4.9277 C   0  0  2  0  0  0  0  0  0  0  0  0
   -3.8850   16.7250    4.0204 C   0  0  1  0  0  0  0  0  0  0  0  0
   -3.9399   15.2931    4.6323 C   0  0  0  0  0  0  0  0  0  0  0  0
   -3.4762   15.2570    6.1197 C   0  0  2  0  0  0  0  0  0  0  0  0
   -4.4673   16.7398    2.6614 N   0  0  0  0  0  0  0  0  0  0  0  0
   -3.6071   13.8783    6.6390 N   0  0  0  0  0  0  0  0  0  0  0  0
   -4.7720   18.6725    7.2114 O   0  0  0  0  0  0  0  0  0  0  0  0
   -4.3383   19.1082    4.4059 O   0  0  0  0  0  0  0  0  0  0  0  0
  1  2  1  0  0  0  0
  1 16  1  6  0  0  0
  2  3  1  0  0  0  0
  2 12  1  6  0  0  0
  4 11  1  6  0  0  0
  4  3  1  0  0  0  0
  5  4  1  0  0  0  0
  5 10  1  1  0  0  0
  6  7  1  0  0  0  0
  6  5  1  0  0  0  0
  6 14  1  1  0  0  0
  7  8  1  0  0  0  0
  7 13  1  1  0  0  0
  8 15  1  6  0  0  0
  8 11  1  0  0  0  0
  9 13  1  0  0  0  0
 10  1  1  0  0  0  0
 17 15  1  6  0  0  0
 17 18  1  0  0  0  0
 18 25  1  6  0  0  0
 19 18  1  0  0  0  0
 19 26  1  1  0  0  0
 20 19  1  0  0  0  0
 20 24  1  6  0  0  0
 21 23  1  0  0  0  0
 21 20  1  0  0  0  0
 21 22  1  1  0  0  0
 23 17  1  0  0  0  0
 27 22  1  0  0  0  0
 28 29  1  0  0  0  0
 28 16  1  1  0  0  0
 29 36  1  1  0  0  0
 30 37  1  6  0  0  0
 30 29  1  0  0  0  0
 31 30  1  0  0  0  0
 31 34  1  6  0  0  0
 32 31  1  0  0  0  0
 32 33  1  0  0  0  0
 33 28  1  0  0  0  0
 33 35  1  1  0  0  0
M  END
>  <CHROM.1>
94.58611531,-96.25275766,92.52946586,56.57190812,-136.31196938,-159.68258392
-177.16825188,64.24586929,-174.81109961,-63.45562987,-171.01212990,128.17345211
-172.53796736,-66.36112347,74.68179085,147.81484455,-2.71070291,12.77518751
9.80603513,2.72842672,1.16628398,-1.82200786

>  <Name>
lig.pdb

>  <RI>
3.60165e+07

>  <Rbt.Current_Directory>
/home/itssahil/PROJECTS/Mol_Feturizer/New_Systems/rnas/2m4q

>  <Rbt.Executable>
rbdock ($Id: //depot/dev/client3/rdock/2013.1/src/exe/rbdock.cxx#4 $)

>  <Rbt.Library>
libRbt.so (2013.1, Build901 2013/11/27)

>  <Rbt.Parameter_File>
/export/apps/rDock/src/rDock_2013.1_src/data/scripts/dock_solv.prm

>  <Rbt.Receptor>
prm/pocket_docking_8.prm

>  <SCORE>
-35.6674

>  <SCORE.INTER>
-20.5956

>  <SCORE.INTER.CONST>
1

>  <SCORE.INTER.POLAR>
-4.30682

>  <SCORE.INTER.ROT>
10

>  <SCORE.INTER.SOLV>
10.4666

>  <SCORE.INTER.VDW>
-13.1298

>  <SCORE.INTER.norm>
-0.556638

>  <SCORE.INTRA>
-15.0718

>  <SCORE.INTRA.DIHEDRAL>
-19.1337

>  <SCORE.INTRA.DIHEDRAL.0>
44.8331

>  <SCORE.INTRA.POLAR>
-1.50062

>  <SCORE.INTRA.POLAR.0>
-0.108895

>  <SCORE.INTRA.REPUL>
-0.00912235

>  <SCORE.INTRA.REPUL.0>
0.00912235

>  <SCORE.INTRA.SOLV>
0.0356233

>  <SCORE.INTRA.SOLV.lig_0>
-53.9067

>  <SCORE.INTRA.VDW>
-0.375085

>  <SCORE.INTRA.VDW.0>
-2.93492

>  <SCORE.INTRA.norm>
-0.407347

>  <SCORE.RESTR>
0

>  <SCORE.RESTR.CAVITY>
0

>  <SCORE.RESTR.norm>
0

>  <SCORE.SYSTEM>
0

>  <SCORE.SYSTEM.CONST>
0

>  <SCORE.SYSTEM.DIHEDRAL>
0

>  <SCORE.SYSTEM.SOLV>
0

>  <SCORE.SYSTEM.norm>
0

>  <SCORE.heavy>
37

>  <SCORE.norm>
-0.963985

>  <RMSD>
7.548

$$$$
lig.pdb
 OpenBabel11021811453D
libRbt.so/2013.1/901 2013/11/27
 37 40  0  0  0  0  0  0  0  0999 V2000
   -3.9839   13.2706    4.4911 C   0  0  2  0  0  0  0  0  0  0  0  0
   -3.4428   11.9322    3.8887 C   0  0  1  0  0  0  0  0  0  0  0  0
   -3.0217   10.8957    4.9714 C   0  0  0  0  0  0  0  0  0  0  0  0
   -2.1097   11.5463    6.0410 C   0  0  1  0  0  0  0  0  0  0  0  0
   -2.8162   12.7737    6.6588 C   0  0  1  0  0  0  0  0  0  0  0  0
   -1.9431   13.4186    7.7686 C   0  0  1  0  0  0  0  0  0  0  0  0
   -1.5230   12.3592    8.8306 C   0  0  1  0  0  0  0  0  0  0  0  0
   -0.8889   11.0962    8.1756 C   0  0  2  0  0  0  0  0  0  0  0  0
   -1.3516   13.6016   10.9380 C   0  0  0  0  0  0  0  0  0  0  0  0
   -3.1710   13.7305    5.6192 O   0  0  0  0  0  0  0  0  0  0  0  0
   -1.7052   10.5990    7.0710 O   0  0  0  0  0  0  0  0  0  0  0  0
   -4.4639   11.3353    3.0006 N   0  0  0  0  0  0  0  0  0  0  0  0
   -0.6150   12.9893    9.8112 N   0  0  0  0  0  0  0  0  0  0  0  0
   -0.8080   14.0737    7.2173 O   0  0  0  0  0  0  0  0  0  0  0  0
   -0.6662   10.0610    9.1773 O   0  0  0  0  0  0  0  0  0  0  0  0
   -5.3831   13.1426    4.8891 O   0  0  0  0  0  0  0  0  0  0  0  0
    0.6329    9.3941    9.2132 C   0  0  2  0  0  0  0  0  0  0  0  0
    0.8187    8.4687    7.9772 C   0  0  1  0  0  0  0  0  0  0  0  0
   -0.0971    7.2136    8.0547 C   0  0  2  0  0  0  0  0  0  0  0  0
    0.0883    6.4656    9.4068 C   0  0  1  0  0  0  0  0  0  0  0  0
   -0.0711    7.4330   10.6128 C   0  0  1  0  0  0  0  0  0  0  0  0
    0.2449    6.7330   11.9605 C   0  0  0  0  0  0  0  0  0  0  0  0
    0.7737    8.6105   10.4357 O   0  0  0  0  0  0  0  0  0  0  0  0
   -0.8297    5.3107    9.5160 N   0  0  0  0  0  0  0  0  0  0  0  0
    0.6133    9.1989    6.7692 O   0  0  0  0  0  0  0  0  0  0  0  0
    0.1297    6.3416    6.9496 O   0  0  0  0  0  0  0  0  0  0  0  0
   -0.5789    5.5859   12.1417 O   0  0  0  0  0  0  0  0  0  0  0  0
   -6.0609   14.3377    5.3755 C   0  0  1  0  0  0  0  0  0  0  0  0
   -5.3715   14.9234    6.6396 C   0  0  1  0  0  0  0  0  0  0  0  0
   -6.1646   16.1385    7.1980 C   0  0  2  0  0  0  0  0  0  0  0  0
   -6.4174   17.2352    6.1131 C   0  0  1  0  0  0  0  0  0  0  0  0
   -6.9843   16.6539    4.7832 C   0  0  0  0  0  0  0  0  0  0  0  0
   -6.1735   15.4258    4.2702 C   0  0  2  0  0  0  0  0  0  0  0  0
   -7.2964   18.3014    6.6389 N   0  0  0  0  0  0  0  0  0  0  0  0
   -6.8041   14.9040    3.0384 N   0  0  0  0  0  0  0  0  0  0  0  0
   -5.2105   13.9220    7.6390 O   0  0  0  0  0  0  0  0  0  0  0  0
   -5.4921   16.6969    8.3239 O   0  0  0  0  0  0  0  0  0  0  0  0
  1  2  1  0  0  0  0
  1 16  1  1  0  0  0
  2  3  1  0  0  0  0
  2 12  1  1  0  0  0
  4 11  1  1  0  0  0
  4  3  1  0  0  0  0
  5  4  1  0  0  0  0
  5 10  1  6  0  0  0
  6  7  1  0  0  0  0
  6  5  1  0  0  0  0
  6 14  1  6  0  0  0
  7  8  1  0  0  0  0
  7 13  1  1  0  0  0
  8 15  1  1  0  0  0
  8 11  1  0  0  0  0
  9 13  1  0  0  0  0
 10  1  1  0  0  0  0
 17 15  1  6  0  0  0
 17 18  1  0  0  0  0
 18 25  1  6  0  0  0
 19 18  1  0  0  0  0
 19 26  1  6  0  0  0
 20 19  1  0  0  0  0
 20 24  1  1  0  0  0
 21 23  1  0  0  0  0
 21 20  1  0  0  0  0
 21 22  1  1  0  0  0
 23 17  1  0  0  0  0
 27 22  1  0  0  0  0
 28 29  1  0  0  0  0
 28 16  1  6  0  0  0
 29 36  1  1  0  0  0
 30 37  1  1  0  0  0
 30 29  1  0  0  0  0
 31 30  1  0  0  0  0
 31 34  1  1  0  0  0
 32 31  1  0  0  0  0
 32 33  1  0  0  0  0
 33 28  1  0  0  0  0
 33 35  1  6  0  0  0
M  END
>  <CHROM.1>
-32.30967821,-132.40112209,88.70140001,-171.92768930,-70.32739536,-175.43889247
-177.40306258,-176.27589020,-56.70117377,44.89659626,-58.64393007,-60.02951453
34.83510901,56.79337099,-57.13954079,-177.86476404,-2.64491603,11.75345606
7.36043329,2.95419242,-0.98059017,0.88295403

>  <Name>
lig.pdb

>  <RI>
0

>  <Rbt.Current_Directory>
/home/itssahil/PROJECTS/Mol_Feturizer/New_Systems/rnas/2m4q

>  <Rbt.Executable>
rbdock ($Id: //depot/dev/client3/rdock/2013.1/src/exe/rbdock.cxx#4 $)

>  <Rbt.Library>
libRbt.so (2013.1, Build901 2013/11/27)

>  <Rbt.Parameter_File>
/export/apps/rDock/src/rDock_2013.1_src/data/scripts/dock_solv.prm

>  <Rbt.Receptor>
prm/pocket_docking_6.prm

>  <SCORE>
-43.9729

>  <SCORE.INTER>
-30.3048

>  <SCORE.INTER.CONST>
1

>  <SCORE.INTER.POLAR>
-5.56443

>  <SCORE.INTER.ROT>
10

>  <SCORE.INTER.SOLV>
17.0876

>  <SCORE.INTER.VDW>
-17.6176

>  <SCORE.INTER.norm>
-0.819048

>  <SCORE.INTRA>
-13.8695

>  <SCORE.INTRA.DIHEDRAL>
-31.1199

>  <SCORE.INTRA.DIHEDRAL.0>
44.8331

>  <SCORE.INTRA.POLAR>
-0.431369

>  <SCORE.INTRA.POLAR.0>
-0.108895

>  <SCORE.INTRA.REPUL>
-0.00852047

>  <SCORE.INTRA.REPUL.0>
0.00912235

>  <SCORE.INTRA.SOLV>
0.175017

>  <SCORE.INTRA.SOLV.lig_0>
-53.9067

>  <SCORE.INTRA.VDW>
3.11215

>  <SCORE.INTRA.VDW.0>
-2.93492

>  <SCORE.INTRA.norm>
-0.374852

>  <SCORE.RESTR>
0.201439

>  <SCORE.RESTR.CAVITY>
0.201439

>  <SCORE.RESTR.norm>
0.0054443

>  <SCORE.SYSTEM>
0

>  <SCORE.SYSTEM.CONST>
0

>  <SCORE.SYSTEM.DIHEDRAL>
0

>  <SCORE.SYSTEM.SOLV>
0

>  <SCORE.SYSTEM.norm>
0

>  <SCORE.heavy>
37

>  <SCORE.norm>
-1.18846

>  <RMSD>
7.598

$$$$
lig.pdb
 OpenBabel11021811453D
libRbt.so/2013.1/901 2013/11/27
 37 40  0  0  0  0  0  0  0  0999 V2000
   -4.6005   13.7120    6.4805 C   0  0  2  0  0  0  0  0  0  0  0  0
   -4.4736   12.8828    7.8009 C   0  0  1  0  0  0  0  0  0  0  0  0
   -3.0179   12.4175    8.0979 C   0  0  0  0  0  0  0  0  0  0  0  0
   -2.3771   11.7606    6.8502 C   0  0  1  0  0  0  0  0  0  0  0  0
   -2.4401   12.7342    5.6520 C   0  0  1  0  0  0  0  0  0  0  0  0
   -1.7621   12.1190    4.3984 C   0  0  1  0  0  0  0  0  0  0  0  0
   -0.3135   11.6483    4.7251 C   0  0  1  0  0  0  0  0  0  0  0  0
   -0.2672   10.7352    5.9861 C   0  0  2  0  0  0  0  0  0  0  0  0
    1.7367   10.9404    3.5809 C   0  0  0  0  0  0  0  0  0  0  0  0
   -3.8184   13.1260    5.3896 O   0  0  0  0  0  0  0  0  0  0  0  0
   -1.0108   11.3207    7.0987 O   0  0  0  0  0  0  0  0  0  0  0  0
   -4.9833   13.6767    8.9400 N   0  0  0  0  0  0  0  0  0  0  0  0
    0.2591   10.9816    3.5374 N   0  0  0  0  0  0  0  0  0  0  0  0
   -2.5395   11.0576    3.8593 O   0  0  0  0  0  0  0  0  0  0  0  0
    1.1131   10.4548    6.3610 O   0  0  0  0  0  0  0  0  0  0  0  0
   -4.2163   15.1047    6.6928 O   0  0  0  0  0  0  0  0  0  0  0  0
    1.3975   10.0823    7.7446 C   0  0  2  0  0  0  0  0  0  0  0  0
    2.5931    9.0906    7.8203 C   0  0  1  0  0  0  0  0  0  0  0  0
    2.2128    7.6871    7.2676 C   0  0  2  0  0  0  0  0  0  0  0  0
    0.9272    7.1421    7.9548 C   0  0  1  0  0  0  0  0  0  0  0  0
   -0.2303    8.1770    7.8868 C   0  0  1  0  0  0  0  0  0  0  0  0
   -1.4743    7.7056    8.6846 C   0  0  0  0  0  0  0  0  0  0  0  0
    0.2228    9.4797    8.3654 O   0  0  0  0  0  0  0  0  0  0  0  0
    0.5207    5.8388    7.3850 N   0  0  0  0  0  0  0  0  0  0  0  0
    3.7338    9.6294    7.1547 O   0  0  0  0  0  0  0  0  0  0  0  0
    3.2961    6.7697    7.4026 O   0  0  0  0  0  0  0  0  0  0  0  0
   -2.2013    6.7218    7.9560 O   0  0  0  0  0  0  0  0  0  0  0  0
   -4.4605   16.0475    5.6086 C   0  0  1  0  0  0  0  0  0  0  0  0
   -5.6640   16.9835    5.9117 C   0  0  1  0  0  0  0  0  0  0  0  0
   -5.9678   17.9144    4.7042 C   0  0  2  0  0  0  0  0  0  0  0  0
   -4.7098   18.7175    4.2390 C   0  0  1  0  0  0  0  0  0  0  0  0
   -3.4496   17.8193    4.0571 C   0  0  0  0  0  0  0  0  0  0  0  0
   -3.1939   16.8878    5.2801 C   0  0  2  0  0  0  0  0  0  0  0  0
   -4.9985   19.4765    3.0034 N   0  0  0  0  0  0  0  0  0  0  0  0
   -2.0164   16.0355    5.0073 N   0  0  0  0  0  0  0  0  0  0  0  0
   -6.8162   16.2274    6.2699 O   0  0  0  0  0  0  0  0  0  0  0  0
   -7.0381   18.8022    5.0170 O   0  0  0  0  0  0  0  0  0  0  0  0
  1  2  1  0  0  0  0
  1 16  1  1  0  0  0
  2  3  1  0  0  0  0
  2 12  1  1  0  0  0
  4 11  1  1  0  0  0
  4  3  1  0  0  0  0
  5  4  1  0  0  0  0
  5 10  1  6  0  0  0
  6  7  1  0  0  0  0
  6  5  1  0  0  0  0
  6 14  1  1  0  0  0
  7  8  1  0  0  0  0
  7 13  1  6  0  0  0
  8 15  1  1  0  0  0
  8 11  1  0  0  0  0
  9 13  1  0  0  0  0
 10  1  1  0  0  0  0
 17 15  1  6  0  0  0
 17 18  1  0  0  0  0
 18 25  1  6  0  0  0
 19 18  1  0  0  0  0
 19 26  1  1  0  0  0
 20 19  1  0  0  0  0
 20 24  1  6  0  0  0
 21 23  1  0  0  0  0
 21 20  1  0  0  0  0
 21 22  1  1  0  0  0
 23 17  1  0  0  0  0
 27 22  1  0  0  0  0
 28 29  1  0  0  0  0
 28 16  1  1  0  0  0
 29 36  1  6  0  0  0
 30 37  1  1  0  0  0
 30 29  1  0  0  0  0
 31 30  1  0  0  0  0
 31 34  1  6  0  0  0
 32 31  1  0  0  0  0
 32 33  1  0  0  0  0
 33 28  1  0  0  0  0
 33 35  1  6  0  0  0
M  END
>  <CHROM.1>
67.98875135,156.54236114,159.58986500,-57.30231044,147.52942963,-171.46235157
-55.30861311,-56.93520804,-77.33980290,-0.93386071,59.99553181,105.90585467
-64.88902327,79.76585824,-176.44658052,-50.55072378,-1.88527883,12.34645544
6.21883519,2.25177112,0.46790446,-0.58274264

>  <Name>
lig.pdb

>  <RI>
0

>  <Rbt.Current_Directory>
/home/itssahil/PROJECTS/Mol_Feturizer/New_Systems/rnas/2m4q

>  <Rbt.Executable>
rbdock ($Id: //depot/dev/client3/rdock/2013.1/src/exe/rbdock.cxx#4 $)

>  <Rbt.Library>
libRbt.so (2013.1, Build901 2013/11/27)

>  <Rbt.Parameter_File>
/export/apps/rDock/src/rDock_2013.1_src/data/scripts/dock_solv.prm

>  <Rbt.Receptor>
prm/pocket_docking_7.prm

>  <SCORE>
-41.7487

>  <SCORE.INTER>
-27.6451

>  <SCORE.INTER.CONST>
1

>  <SCORE.INTER.POLAR>
-5.80376

>  <SCORE.INTER.ROT>
10

>  <SCORE.INTER.SOLV>
17.6416

>  <SCORE.INTER.VDW>
-15.2314

>  <SCORE.INTER.norm>
-0.747165

>  <SCORE.INTRA>
-15.0628

>  <SCORE.INTRA.DIHEDRAL>
-24.9143

>  <SCORE.INTRA.DIHEDRAL.0>
44.8331

>  <SCORE.INTRA.POLAR>
-0.689508

>  <SCORE.INTRA.POLAR.0>
-0.108895

>  <SCORE.INTRA.REPUL>
-0.00912235

>  <SCORE.INTRA.REPUL.0>
0.00912235

>  <SCORE.INTRA.SOLV>
-1.12651

>  <SCORE.INTRA.SOLV.lig_0>
-53.9067

>  <SCORE.INTRA.VDW>
0.347573

>  <SCORE.INTRA.VDW.0>
-2.93492

>  <SCORE.INTRA.norm>
-0.407102

>  <SCORE.RESTR>
0.959175

>  <SCORE.RESTR.CAVITY>
0.959175

>  <SCORE.RESTR.norm>
0.0259236

>  <SCORE.SYSTEM>
0

>  <SCORE.SYSTEM.CONST>
0

>  <SCORE.SYSTEM.DIHEDRAL>
0

>  <SCORE.SYSTEM.SOLV>
0

>  <SCORE.SYSTEM.norm>
0

>  <SCORE.heavy>
37

>  <SCORE.norm>
-1.12834

>  <RMSD>
7.640

$$$$
lig.pdb
 OpenBabel11021811453D
libRbt.so/2013.1/901 2013/11/27
 37 40  0  0  0  0  0  0  0  0999 V2000
   -2.4106   16.1956   10.2657 C   0  0  2  0  0  0  0  0  0  0  0  0
   -1.4978   15.6464   11.4112 C   0  0  1  0  0  0  0  0  0  0  0  0
   -0.8861   14.2501   11.0947 C   0  0  0  0  0  0  0  0  0  0  0  0
   -1.9730   13.2653   10.5968 C   0  0  1  0  0  0  0  0  0  0  0  0
   -2.7075   13.8651    9.3770 C   0  0  1  0  0  0  0  0  0  0  0  0
   -3.7722   12.8781    8.8275 C   0  0  1  0  0  0  0  0  0  0  0  0
   -3.1391   11.4855    8.5329 C   0  0  1  0  0  0  0  0  0  0  0  0
   -2.3351   10.9409    9.7508 C   0  0  2  0  0  0  0  0  0  0  0  0
   -4.9910   11.0829    6.9766 C   0  0  0  0  0  0  0  0  0  0  0  0
   -3.2869   15.1571    9.7193 O   0  0  0  0  0  0  0  0  0  0  0  0
   -1.4264   11.9510   10.2873 O   0  0  0  0  0  0  0  0  0  0  0  0
   -0.4127   16.6117   11.6914 N   0  0  0  0  0  0  0  0  0  0  0  0
   -4.2010   10.5503    8.1077 N   0  0  0  0  0  0  0  0  0  0  0  0
   -4.8776   12.7643    9.7145 O   0  0  0  0  0  0  0  0  0  0  0  0
   -1.6189    9.7252    9.3851 O   0  0  0  0  0  0  0  0  0  0  0  0
   -1.6152   16.8034    9.2024 O   0  0  0  0  0  0  0  0  0  0  0  0
   -2.3919    8.5149    9.1178 C   0  0  2  0  0  0  0  0  0  0  0  0
   -1.8753    7.3233    9.9734 C   0  0  1  0  0  0  0  0  0  0  0  0
   -0.4817    6.8292    9.4903 C   0  0  2  0  0  0  0  0  0  0  0  0
   -0.4924    6.5217    7.9648 C   0  0  1  0  0  0  0  0  0  0  0  0
   -1.0474    7.7241    7.1513 C   0  0  1  0  0  0  0  0  0  0  0  0
   -1.1922    7.3846    5.6446 C   0  0  0  0  0  0  0  0  0  0  0  0
   -2.3249    8.1655    7.7029 O   0  0  0  0  0  0  0  0  0  0  0  0
    0.8475    6.1177    7.4853 N   0  0  0  0  0  0  0  0  0  0  0  0
   -1.8632    7.6685   11.3573 O   0  0  0  0  0  0  0  0  0  0  0  0
   -0.0489    5.6960   10.2400 O   0  0  0  0  0  0  0  0  0  0  0  0
    0.0790    7.3704    5.0033 O   0  0  0  0  0  0  0  0  0  0  0  0
   -2.1086   16.6860    7.8361 C   0  0  1  0  0  0  0  0  0  0  0  0
   -3.2829   17.6651    7.5557 C   0  0  1  0  0  0  0  0  0  0  0  0
   -3.8571   17.4564    6.1260 C   0  0  2  0  0  0  0  0  0  0  0  0
   -2.7536   17.5410    5.0219 C   0  0  1  0  0  0  0  0  0  0  0  0
   -1.5030   16.6699    5.3459 C   0  0  0  0  0  0  0  0  0  0  0  0
   -0.9731   16.8942    6.7941 C   0  0  2  0  0  0  0  0  0  0  0  0
   -3.3090   17.1932    3.6965 N   0  0  0  0  0  0  0  0  0  0  0  0
    0.1769   15.9968    7.0381 N   0  0  0  0  0  0  0  0  0  0  0  0
   -4.3052   17.5245    8.5368 O   0  0  0  0  0  0  0  0  0  0  0  0
   -4.8964   18.3962    5.8649 O   0  0  0  0  0  0  0  0  0  0  0  0
  1  2  1  0  0  0  0
  1 16  1  6  0  0  0
  2  3  1  0  0  0  0
  2 12  1  6  0  0  0
  4 11  1  6  0  0  0
  4  3  1  0  0  0  0
  5  4  1  0  0  0  0
  5 10  1  1  0  0  0
  6  7  1  0  0  0  0
  6  5  1  0  0  0  0
  6 14  1  1  0  0  0
  7  8  1  0  0  0  0
  7 13  1  1  0  0  0
  8 15  1  6  0  0  0
  8 11  1  0  0  0  0
  9 13  1  0  0  0  0
 10  1  1  0  0  0  0
 17 15  1  6  0  0  0
 17 18  1  0  0  0  0
 18 25  1  1  0  0  0
 19 18  1  0  0  0  0
 19 26  1  1  0  0  0
 20 19  1  0  0  0  0
 20 24  1  6  0  0  0
 21 23  1  0  0  0  0
 21 20  1  0  0  0  0
 21 22  1  6  0  0  0
 23 17  1  0  0  0  0
 27 22  1  0  0  0  0
 28 29  1  0  0  0  0
 28 16  1  1  0  0  0
 29 36  1  1  0  0  0
 30 37  1  6  0  0  0
 30 29  1  0  0  0  0
 31 30  1  0  0  0  0
 31 34  1  6  0  0  0
 32 31  1  0  0  0  0
 32 33  1  0  0  0  0
 33 28  1  0  0  0  0
 33 35  1  1  0  0  0
M  END
>  <CHROM.1>
84.34497716,-69.15568093,53.72679801,-167.97929257,-126.95237320,146.41753800
-52.38250602,-64.54805640,-75.07303604,79.37838551,-161.83735343,76.48855882
-44.16999737,-62.14919805,58.26077752,63.99103927,-2.13323331,12.52070980
8.37110307,-2.74634380,1.37982675,-2.07314172

>  <Name>
lig.pdb

>  <RI>
3.60165e+07

>  <Rbt.Current_Directory>
/home/itssahil/PROJECTS/Mol_Feturizer/New_Systems/rnas/2m4q

>  <Rbt.Executable>
rbdock ($Id: //depot/dev/client3/rdock/2013.1/src/exe/rbdock.cxx#4 $)

>  <Rbt.Library>
libRbt.so (2013.1, Build901 2013/11/27)

>  <Rbt.Parameter_File>
/export/apps/rDock/src/rDock_2013.1_src/data/scripts/dock_solv.prm

>  <Rbt.Receptor>
prm/pocket_docking_8.prm

>  <SCORE>
-34.0809

>  <SCORE.INTER>
-16.1633

>  <SCORE.INTER.CONST>
1

>  <SCORE.INTER.POLAR>
-2.46191

>  <SCORE.INTER.ROT>
10

>  <SCORE.INTER.SOLV>
15.992

>  <SCORE.INTER.VDW>
-18.1665

>  <SCORE.INTER.norm>
-0.436847

>  <SCORE.INTRA>
-17.9176

>  <SCORE.INTRA.DIHEDRAL>
-25.351

>  <SCORE.INTRA.DIHEDRAL.0>
44.8331

>  <SCORE.INTRA.POLAR>
-2.65111

>  <SCORE.INTRA.POLAR.0>
-0.108895

>  <SCORE.INTRA.REPUL>
-0.00912235

>  <SCORE.INTRA.REPUL.0>
0.00912235

>  <SCORE.INTRA.SOLV>
-0.546739

>  <SCORE.INTRA.SOLV.lig_0>
-53.9067

>  <SCORE.INTRA.VDW>
4.09067

>  <SCORE.INTRA.VDW.0>
-2.93492

>  <SCORE.INTRA.norm>
-0.484259

>  <SCORE.RESTR>
0

>  <SCORE.RESTR.CAVITY>
0

>  <SCORE.RESTR.norm>
0

>  <SCORE.SYSTEM>
0

>  <SCORE.SYSTEM.CONST>
0

>  <SCORE.SYSTEM.DIHEDRAL>
0

>  <SCORE.SYSTEM.SOLV>
0

>  <SCORE.SYSTEM.norm>
0

>  <SCORE.heavy>
37

>  <SCORE.norm>
-0.921106

>  <RMSD>
7.825

$$$$
lig.pdb
 OpenBabel11021811453D
libRbt.so/2013.1/901 2013/11/27
 37 40  0  0  0  0  0  0  0  0999 V2000
   -4.3449   13.1075    4.6576 C   0  0  2  0  0  0  0  0  0  0  0  0
   -3.8220   11.6419    4.4967 C   0  0  1  0  0  0  0  0  0  0  0  0
   -3.0509   11.1230    5.7457 C   0  0  0  0  0  0  0  0  0  0  0  0
   -1.9871   12.1486    6.2100 C   0  0  1  0  0  0  0  0  0  0  0  0
   -2.6544   13.5178    6.4696 C   0  0  1  0  0  0  0  0  0  0  0  0
   -1.6182   14.5540    6.9817 C   0  0  1  0  0  0  0  0  0  0  0  0
   -0.8505   14.0058    8.2214 C   0  0  1  0  0  0  0  0  0  0  0  0
   -0.2581   12.5889    7.9610 C   0  0  2  0  0  0  0  0  0  0  0  0
    0.5454   14.8624   10.0467 C   0  0  0  0  0  0  0  0  0  0  0  0
   -3.3429   13.9811    5.2724 O   0  0  0  0  0  0  0  0  0  0  0  0
   -1.2538   11.6904    7.3823 O   0  0  0  0  0  0  0  0  0  0  0  0
   -4.9542   10.7374    4.2011 N   0  0  0  0  0  0  0  0  0  0  0  0
    0.1907   14.9772    8.6155 N   0  0  0  0  0  0  0  0  0  0  0  0
   -0.7203   14.9403    5.9491 O   0  0  0  0  0  0  0  0  0  0  0  0
    0.3021   12.0381    9.1887 O   0  0  0  0  0  0  0  0  0  0  0  0
   -5.5897   13.1431    5.4204 O   0  0  0  0  0  0  0  0  0  0  0  0
    0.9972   10.7550    9.1231 C   0  0  2  0  0  0  0  0  0  0  0  0
    1.4941   10.3177   10.5305 C   0  0  1  0  0  0  0  0  0  0  0  0
    2.6728   11.2038   11.0259 C   0  0  2  0  0  0  0  0  0  0  0  0
    3.8144   11.2619    9.9698 C   0  0  1  0  0  0  0  0  0  0  0  0
    3.2693   11.6684    8.5723 C   0  0  1  0  0  0  0  0  0  0  0  0
    4.3692   11.5986    7.4806 C   0  0  0  0  0  0  0  0  0  0  0  0
    2.1301   10.8316    8.2071 O   0  0  0  0  0  0  0  0  0  0  0  0
    4.9080   12.1583   10.4046 N   0  0  0  0  0  0  0  0  0  0  0  0
    0.4138   10.3061   11.4619 O   0  0  0  0  0  0  0  0  0  0  0  0
    3.1618   10.7522   12.2870 O   0  0  0  0  0  0  0  0  0  0  0  0
    4.8708   10.2724    7.3501 O   0  0  0  0  0  0  0  0  0  0  0  0
   -6.1308   14.4495    5.7729 C   0  0  1  0  0  0  0  0  0  0  0  0
   -5.2381   15.1886    6.8087 C   0  0  1  0  0  0  0  0  0  0  0  0
   -5.8819   16.5354    7.2434 C   0  0  2  0  0  0  0  0  0  0  0  0
   -6.2353   17.4483    6.0245 C   0  0  1  0  0  0  0  0  0  0  0  0
   -7.0162   16.6934    4.9073 C   0  0  0  0  0  0  0  0  0  0  0  0
   -6.3490   15.3402    4.5169 C   0  0  2  0  0  0  0  0  0  0  0  0
   -6.9760   18.6496    6.4653 N   0  0  0  0  0  0  0  0  0  0  0  0
   -7.1758   14.6651    3.4932 N   0  0  0  0  0  0  0  0  0  0  0  0
   -4.9833   14.3617    7.9395 O   0  0  0  0  0  0  0  0  0  0  0  0
   -5.0272   17.2255    8.1516 O   0  0  0  0  0  0  0  0  0  0  0  0
  1  2  1  0  0  0  0
  1 16  1  1  0  0  0
  2  3  1  0  0  0  0
  2 12  1  1  0  0  0
  4 11  1  1  0  0  0
  4  3  1  0  0  0  0
  5  4  1  0  0  0  0
  5 10  1  6  0  0  0
  6  7  1  0  0  0  0
  6  5  1  0  0  0  0
  6 14  1  6  0  0  0
  7  8  1  0  0  0  0
  7 13  1  6  0  0  0
  8 15  1  1  0  0  0
  8 11  1  0  0  0  0
  9 13  1  0  0  0  0
 10  1  1  0  0  0  0
 17 15  1  1  0  0  0
 17 18  1  0  0  0  0
 18 25  1  1  0  0  0
 19 18  1  0  0  0  0
 19 26  1  1  0  0  0
 20 19  1  0  0  0  0
 20 24  1  1  0  0  0
 21 23  1  0  0  0  0
 21 20  1  0  0  0  0
 21 22  1  6  0  0  0
 23 17  1  0  0  0  0
 27 22  1  0  0  0  0
 28 29  1  0  0  0  0
 28 16  1  6  0  0  0
 29 36  1  1  0  0  0
 30 37  1  1  0  0  0
 30 29  1  0  0  0  0
 31 30  1  0  0  0  0
 31 34  1  1  0  0  0
 32 31  1  0  0  0  0
 32 33  1  0  0  0  0
 33 28  1  0  0  0  0
 33 35  1  6  0  0  0
M  END
>  <CHROM.1>
164.82877537,-175.39466214,154.83356359,-179.52583114,-178.70802543,173.85884024
171.30004868,-57.20508386,61.22441218,-54.35871727,-178.17508643,-68.28686979
-55.51617273,-62.59689180,-144.55498048,-46.58066856,-1.64818624,13.25408629
7.45308451,3.07537779,-0.57972139,0.66252250

>  <Name>
lig.pdb

>  <RI>
3.60165e+07

>  <Rbt.Current_Directory>
/home/itssahil/PROJECTS/Mol_Feturizer/New_Systems/rnas/2m4q

>  <Rbt.Executable>
rbdock ($Id: //depot/dev/client3/rdock/2013.1/src/exe/rbdock.cxx#4 $)

>  <Rbt.Library>
libRbt.so (2013.1, Build901 2013/11/27)

>  <Rbt.Parameter_File>
/export/apps/rDock/src/rDock_2013.1_src/data/scripts/dock_solv.prm

>  <Rbt.Receptor>
prm/pocket_docking_8.prm

>  <SCORE>
-45.6552

>  <SCORE.INTER>
-25.3953

>  <SCORE.INTER.CONST>
1

>  <SCORE.INTER.POLAR>
-5.47188

>  <SCORE.INTER.ROT>
10

>  <SCORE.INTER.SOLV>
11.9224

>  <SCORE.INTER.VDW>
-12.9314

>  <SCORE.INTER.norm>
-0.686358

>  <SCORE.INTRA>
-20.2599

>  <SCORE.INTRA.DIHEDRAL>
-39.892

>  <SCORE.INTRA.DIHEDRAL.0>
44.8331

>  <SCORE.INTRA.POLAR>
0.0197484

>  <SCORE.INTRA.POLAR.0>
-0.108895

>  <SCORE.INTRA.REPUL>
-0.00912235

>  <SCORE.INTRA.REPUL.0>
0.00912235

>  <SCORE.INTRA.SOLV>
-0.893602

>  <SCORE.INTRA.SOLV.lig_0>
-53.9067

>  <SCORE.INTRA.VDW>
0.111349

>  <SCORE.INTRA.VDW.0>
-2.93492

>  <SCORE.INTRA.norm>
-0.547566

>  <SCORE.RESTR>
0

>  <SCORE.RESTR.CAVITY>
0

>  <SCORE.RESTR.norm>
0

>  <SCORE.SYSTEM>
0

>  <SCORE.SYSTEM.CONST>
0

>  <SCORE.SYSTEM.DIHEDRAL>
0

>  <SCORE.SYSTEM.SOLV>
0

>  <SCORE.SYSTEM.norm>
0

>  <SCORE.heavy>
37

>  <SCORE.norm>
-1.23392

>  <RMSD>
7.827

$$$$
lig.pdb
 OpenBabel11021811453D
libRbt.so/2013.1/901 2013/11/27
 37 40  0  0  0  0  0  0  0  0999 V2000
   -5.1254   15.8007    9.3055 C   0  0  2  0  0  0  0  0  0  0  0  0
   -4.4621   16.1699   10.6733 C   0  0  1  0  0  0  0  0  0  0  0  0
   -3.2197   15.2945   11.0108 C   0  0  0  0  0  0  0  0  0  0  0  0
   -3.5302   13.7891   10.8209 C   0  0  1  0  0  0  0  0  0  0  0  0
   -4.0445   13.5347    9.3863 C   0  0  1  0  0  0  0  0  0  0  0  0
   -4.3197   12.0249    9.1529 C   0  0  1  0  0  0  0  0  0  0  0  0
   -3.0677   11.1702    9.5115 C   0  0  1  0  0  0  0  0  0  0  0  0
   -2.5197   11.5051   10.9305 C   0  0  2  0  0  0  0  0  0  0  0  0
   -2.1932    8.8907    9.2813 C   0  0  0  0  0  0  0  0  0  0  0  0
   -5.2205   14.3513    9.1175 O   0  0  0  0  0  0  0  0  0  0  0  0
   -2.3815   12.9463   11.1247 O   0  0  0  0  0  0  0  0  0  0  0  0
   -4.0777   17.5981   10.6725 N   0  0  0  0  0  0  0  0  0  0  0  0
   -3.4020    9.7379    9.3710 N   0  0  0  0  0  0  0  0  0  0  0  0
   -5.4643   11.5907    9.8761 O   0  0  0  0  0  0  0  0  0  0  0  0
   -1.2566   10.8160   11.1639 O   0  0  0  0  0  0  0  0  0  0  0  0
   -4.4106   16.4141    8.1895 O   0  0  0  0  0  0  0  0  0  0  0  0
   -0.6744   10.8628   12.5029 C   0  0  2  0  0  0  0  0  0  0  0  0
    0.7029   10.1413   12.5371 C   0  0  1  0  0  0  0  0  0  0  0  0
    0.5490    8.5997   12.3965 C   0  0  2  0  0  0  0  0  0  0  0  0
   -0.4571    8.0379   13.4424 C   0  0  1  0  0  0  0  0  0  0  0  0
   -1.8059    8.8088   13.3980 C   0  0  1  0  0  0  0  0  0  0  0  0
   -2.7697    8.3523   14.5245 C   0  0  0  0  0  0  0  0  0  0  0  0
   -1.5723   10.2479   13.4745 O   0  0  0  0  0  0  0  0  0  0  0  0
   -0.6608    6.5829   13.2693 N   0  0  0  0  0  0  0  0  0  0  0  0
    1.5746   10.6782   11.5439 O   0  0  0  0  0  0  0  0  0  0  0  0
    1.8120    7.9450   12.4950 O   0  0  0  0  0  0  0  0  0  0  0  0
   -4.1195    8.3608   14.0715 O   0  0  0  0  0  0  0  0  0  0  0  0
   -4.1945   15.6049    6.9969 C   0  0  1  0  0  0  0  0  0  0  0  0
   -5.4715   15.5161    6.1150 C   0  0  1  0  0  0  0  0  0  0  0  0
   -5.2491   14.5713    4.9005 C   0  0  2  0  0  0  0  0  0  0  0  0
   -3.9898   14.9647    4.0617 C   0  0  1  0  0  0  0  0  0  0  0  0
   -2.7228   15.1922    4.9397 C   0  0  0  0  0  0  0  0  0  0  0  0
   -2.9948   16.1272    6.1565 C   0  0  2  0  0  0  0  0  0  0  0  0
   -3.7270   13.9622    3.0073 N   0  0  0  0  0  0  0  0  0  0  0  0
   -1.7616   16.2494    6.9639 N   0  0  0  0  0  0  0  0  0  0  0  0
   -6.5914   15.0934    6.8862 O   0  0  0  0  0  0  0  0  0  0  0  0
   -6.4096   14.5422    4.0734 O   0  0  0  0  0  0  0  0  0  0  0  0
  1  2  1  0  0  0  0
  1 16  1  6  0  0  0
  2  3  1  0  0  0  0
  2 12  1  6  0  0  0
  4 11  1  6  0  0  0
  4  3  1  0  0  0  0
  5  4  1  0  0  0  0
  5 10  1  1  0  0  0
  6  7  1  0  0  0  0
  6  5  1  0  0  0  0
  6 14  1  1  0  0  0
  7  8  1  0  0  0  0
  7 13  1  1  0  0  0
  8 15  1  6  0  0  0
  8 11  1  0  0  0  0
  9 13  1  0  0  0  0
 10  1  1  0  0  0  0
 17 15  1  6  0  0  0
 17 18  1  0  0  0  0
 18 25  1  6  0  0  0
 19 18  1  0  0  0  0
 19 26  1  1  0  0  0
 20 19  1  0  0  0  0
 20 24  1  6  0  0  0
 21 23  1  0  0  0  0
 21 20  1  0  0  0  0
 21 22  1  1  0  0  0
 23 17  1  0  0  0  0
 27 22  1  0  0  0  0
 28 29  1  0  0  0  0
 28 16  1  1  0  0  0
 29 36  1  1  0  0  0
 30 37  1  6  0  0  0
 30 29  1  0  0  0  0
 31 30  1  0  0  0  0
 31 34  1  6  0  0  0
 32 31  1  0  0  0  0
 32 33  1  0  0  0  0
 33 28  1  0  0  0  0
 33 35  1  1  0  0  0
M  END
>  <CHROM.1>
87.21776680,-172.01867119,162.31418963,21.70238859,-176.87536900,138.22730510
54.03387743,-54.38123783,-144.06424517,179.42662965,62.10653977,78.30333270
65.25463326,-162.60561304,-64.14930798,173.75397240,-2.95373459,12.45572885
9.66334409,2.40993247,1.04292369,-1.55059811

>  <Name>
lig.pdb

>  <RI>
0

>  <Rbt.Current_Directory>
/home/itssahil/PROJECTS/Mol_Feturizer/New_Systems/rnas/2m4q

>  <Rbt.Executable>
rbdock ($Id: //depot/dev/client3/rdock/2013.1/src/exe/rbdock.cxx#4 $)

>  <Rbt.Library>
libRbt.so (2013.1, Build901 2013/11/27)

>  <Rbt.Parameter_File>
/export/apps/rDock/src/rDock_2013.1_src/data/scripts/dock_solv.prm

>  <Rbt.Receptor>
prm/pocket_docking_7.prm

>  <SCORE>
-33.6367

>  <SCORE.INTER>
-20.2919

>  <SCORE.INTER.CONST>
1

>  <SCORE.INTER.POLAR>
-4.27013

>  <SCORE.INTER.ROT>
10

>  <SCORE.INTER.SOLV>
12.729

>  <SCORE.INTER.VDW>
-13.8038

>  <SCORE.INTER.norm>
-0.548429

>  <SCORE.INTRA>
-13.3448

>  <SCORE.INTRA.DIHEDRAL>
-24.8115

>  <SCORE.INTRA.DIHEDRAL.0>
44.8331

>  <SCORE.INTRA.POLAR>
-0.307448

>  <SCORE.INTRA.POLAR.0>
-0.108895

>  <SCORE.INTRA.REPUL>
-0.00912235

>  <SCORE.INTRA.REPUL.0>
0.00912235

>  <SCORE.INTRA.SOLV>
-2.3766

>  <SCORE.INTRA.SOLV.lig_0>
-53.9067

>  <SCORE.INTRA.VDW>
1.34013

>  <SCORE.INTRA.VDW.0>
-2.93492

>  <SCORE.INTRA.norm>
-0.360671

>  <SCORE.RESTR>
0

>  <SCORE.RESTR.CAVITY>
0

>  <SCORE.RESTR.norm>
0

>  <SCORE.SYSTEM>
0

>  <SCORE.SYSTEM.CONST>
0

>  <SCORE.SYSTEM.DIHEDRAL>
0

>  <SCORE.SYSTEM.SOLV>
0

>  <SCORE.SYSTEM.norm>
0

>  <SCORE.heavy>
37

>  <SCORE.norm>
-0.909101

>  <RMSD>
7.851

$$$$
lig.pdb
 OpenBabel11021811453D
libRbt.so/2013.1/901 2013/11/27
 37 40  0  0  0  0  0  0  0  0999 V2000
    3.0534    4.4922    8.3863 C   0  0  2  0  0  0  0  0  0  0  0  0
    1.6537    5.1515    8.6171 C   0  0  1  0  0  0  0  0  0  0  0  0
    1.5296    5.8659    9.9948 C   0  0  0  0  0  0  0  0  0  0  0  0
    2.0171    4.9492   11.1441 C   0  0  1  0  0  0  0  0  0  0  0  0
    3.4619    4.4782   10.8648 C   0  0  1  0  0  0  0  0  0  0  0  0
    3.9936    3.5944   12.0249 C   0  0  1  0  0  0  0  0  0  0  0  0
    3.8449    4.3249   13.3927 C   0  0  1  0  0  0  0  0  0  0  0  0
    2.3995    4.8621   13.6130 C   0  0  2  0  0  0  0  0  0  0  0  0
    5.7393    3.3747   14.6265 C   0  0  0  0  0  0  0  0  0  0  0  0
    3.5323    3.7932    9.5810 O   0  0  0  0  0  0  0  0  0  0  0  0
    1.9173    5.5958   12.4456 O   0  0  0  0  0  0  0  0  0  0  0  0
    1.3702    6.1147    7.5310 N   0  0  0  0  0  0  0  0  0  0  0  0
    4.2685    3.4149   14.4769 N   0  0  0  0  0  0  0  0  0  0  0  0
    3.3501    2.3267   12.0451 O   0  0  0  0  0  0  0  0  0  0  0  0
    2.3396    5.6829   14.8161 O   0  0  0  0  0  0  0  0  0  0  0  0
    4.0353    5.4788    7.9446 O   0  0  0  0  0  0  0  0  0  0  0  0
    1.0352    6.1568   15.2720 C   0  0  2  0  0  0  0  0  0  0  0  0
    0.5656    5.3719   16.5298 C   0  0  1  0  0  0  0  0  0  0  0  0
    0.1798    3.9055   16.1827 C   0  0  2  0  0  0  0  0  0  0  0  0
   -0.8498    3.8565   15.0168 C   0  0  1  0  0  0  0  0  0  0  0  0
   -0.3575    4.6809   13.7947 C   0  0  1  0  0  0  0  0  0  0  0  0
   -1.4309    4.7548   12.6773 C   0  0  0  0  0  0  0  0  0  0  0  0
    0.0413    6.0217   14.2126 O   0  0  0  0  0  0  0  0  0  0  0  0
   -1.1686    2.4632   14.6352 N   0  0  0  0  0  0  0  0  0  0  0  0
    1.5559    5.4293   17.5548 O   0  0  0  0  0  0  0  0  0  0  0  0
   -0.3105    3.2164   17.3308 O   0  0  0  0  0  0  0  0  0  0  0  0
   -1.0168    5.6300   11.6333 O   0  0  0  0  0  0  0  0  0  0  0  0
    4.8342    5.1595    6.7683 C   0  0  1  0  0  0  0  0  0  0  0  0
    5.3205    6.4385    6.0308 C   0  0  1  0  0  0  0  0  0  0  0  0
    6.0875    6.0765    4.7278 C   0  0  2  0  0  0  0  0  0  0  0  0
    7.2584    5.0729    4.9843 C   0  0  1  0  0  0  0  0  0  0  0  0
    6.8277    3.8436    5.8393 C   0  0  0  0  0  0  0  0  0  0  0  0
    6.0443    4.2498    7.1239 C   0  0  2  0  0  0  0  0  0  0  0  0
    7.8680    4.6399    3.7088 N   0  0  0  0  0  0  0  0  0  0  0  0
    5.6286    3.0296    7.8490 N   0  0  0  0  0  0  0  0  0  0  0  0
    4.2281    7.3076    5.7497 O   0  0  0  0  0  0  0  0  0  0  0  0
    6.5726    7.2561    4.0915 O   0  0  0  0  0  0  0  0  0  0  0  0
  1  2  1  0  0  0  0
  1 16  1  1  0  0  0
  2  3  1  0  0  0  0
  2 12  1  6  0  0  0
  4 11  1  1  0  0  0
  4  3  1  0  0  0  0
  5  4  1  0  0  0  0
  5 10  1  6  0  0  0
  6  7  1  0  0  0  0
  6  5  1  0  0  0  0
  6 14  1  1  0  0  0
  7  8  1  0  0  0  0
  7 13  1  1  0  0  0
  8 15  1  1  0  0  0
  8 11  1  0  0  0  0
  9 13  1  0  0  0  0
 10  1  1  0  0  0  0
 17 15  1  6  0  0  0
 17 18  1  0  0  0  0
 18 25  1  1  0  0  0
 19 18  1  0  0  0  0
 19 26  1  1  0  0  0
 20 19  1  0  0  0  0
 20 24  1  6  0  0  0
 21 23  1  0  0  0  0
 21 20  1  0  0  0  0
 21 22  1  6  0  0  0
 23 17  1  0  0  0  0
 27 22  1  0  0  0  0
 28 29  1  0  0  0  0
 28 16  1  1  0  0  0
 29 36  1  6  0  0  0
 30 37  1  1  0  0  0
 30 29  1  0  0  0  0
 31 30  1  0  0  0  0
 31 34  1  6  0  0  0
 32 31  1  0  0  0  0
 32 33  1  0  0  0  0
 33 28  1  0  0  0  0
 33 35  1  6  0  0  0
M  END
>  <CHROM.1>
161.69074617,-173.36390045,80.64298337,46.26134760,105.90152973,-130.29733453
61.04751108,60.87131925,173.75985518,-34.62554064,-174.83578768,153.65872721
62.24330476,-173.63162603,-167.29700974,68.30510659,2.88548657,4.81564595
10.90873209,1.04555057,0.33473649,-1.28499285

>  <Name>
lig.pdb

>  <RI>
0

>  <Rbt.Current_Directory>
/home/itssahil/PROJECTS/Mol_Feturizer/New_Systems/rnas/2m4q

>  <Rbt.Executable>
rbdock ($Id: //depot/dev/client3/rdock/2013.1/src/exe/rbdock.cxx#4 $)

>  <Rbt.Library>
libRbt.so (2013.1, Build901 2013/11/27)

>  <Rbt.Parameter_File>
/export/apps/rDock/src/rDock_2013.1_src/data/scripts/dock_solv.prm

>  <Rbt.Receptor>
prm/pocket_docking_7.prm

>  <SCORE>
-40.0885

>  <SCORE.INTER>
-25.897

>  <SCORE.INTER.CONST>
1

>  <SCORE.INTER.POLAR>
-3.94493

>  <SCORE.INTER.ROT>
10

>  <SCORE.INTER.SOLV>
14.4129

>  <SCORE.INTER.VDW>
-19.1858

>  <SCORE.INTER.norm>
-0.699919

>  <SCORE.INTRA>
-14.1915

>  <SCORE.INTRA.DIHEDRAL>
-24.5023

>  <SCORE.INTRA.DIHEDRAL.0>
44.8331

>  <SCORE.INTRA.POLAR>
-0.983284

>  <SCORE.INTRA.POLAR.0>
-0.108895

>  <SCORE.INTRA.REPUL>
-0.00912235

>  <SCORE.INTRA.REPUL.0>
0.00912235

>  <SCORE.INTRA.SOLV>
0.0140197

>  <SCORE.INTRA.SOLV.lig_0>
-53.9067

>  <SCORE.INTRA.VDW>
1.44143

>  <SCORE.INTRA.VDW.0>
-2.93492

>  <SCORE.INTRA.norm>
-0.383554

>  <SCORE.RESTR>
0

>  <SCORE.RESTR.CAVITY>
0

>  <SCORE.RESTR.norm>
0

>  <SCORE.SYSTEM>
0

>  <SCORE.SYSTEM.CONST>
0

>  <SCORE.SYSTEM.DIHEDRAL>
0

>  <SCORE.SYSTEM.SOLV>
0

>  <SCORE.SYSTEM.norm>
0

>  <SCORE.heavy>
37

>  <SCORE.norm>
-1.08347

>  <RMSD>
8.180

$$$$
lig.pdb
 OpenBabel11021811453D
libRbt.so/2013.1/901 2013/11/27
 37 40  0  0  0  0  0  0  0  0999 V2000
   -5.7379   16.0635    8.2542 C   0  0  2  0  0  0  0  0  0  0  0  0
   -5.0177   16.0353    9.6426 C   0  0  1  0  0  0  0  0  0  0  0  0
   -3.6700   15.2562    9.6210 C   0  0  0  0  0  0  0  0  0  0  0  0
   -3.8362   13.8734    8.9433 C   0  0  1  0  0  0  0  0  0  0  0  0
   -4.4254   14.0495    7.5259 C   0  0  1  0  0  0  0  0  0  0  0  0
   -4.5593   12.6814    6.8047 C   0  0  1  0  0  0  0  0  0  0  0  0
   -3.2027   11.9158    6.8095 C   0  0  1  0  0  0  0  0  0  0  0  0
   -2.5895   11.8244    8.2384 C   0  0  2  0  0  0  0  0  0  0  0  0
   -2.1451   10.0468    5.6253 C   0  0  0  0  0  0  0  0  0  0  0  0
   -5.6961   14.7589    7.5899 O   0  0  0  0  0  0  0  0  0  0  0  0
   -2.5873   13.1246    8.9042 O   0  0  0  0  0  0  0  0  0  0  0  0
   -4.7842   17.4182   10.1123 N   0  0  0  0  0  0  0  0  0  0  0  0
   -3.3965   10.5821    6.2039 N   0  0  0  0  0  0  0  0  0  0  0  0
   -5.5966   11.8952    7.3769 O   0  0  0  0  0  0  0  0  0  0  0  0
   -1.2483   11.2566    8.1812 O   0  0  0  0  0  0  0  0  0  0  0  0
   -5.1743   17.0954    7.3880 O   0  0  0  0  0  0  0  0  0  0  0  0
   -0.7619   10.5008    9.3328 C   0  0  2  0  0  0  0  0  0  0  0  0
    0.6996   10.0195    9.1065 C   0  0  1  0  0  0  0  0  0  0  0  0
    0.7762    8.8963    8.0330 C   0  0  2  0  0  0  0  0  0  0  0  0
   -0.2017    7.7326    8.3668 C   0  0  1  0  0  0  0  0  0  0  0  0
   -1.6414    8.2608    8.6193 C   0  0  1  0  0  0  0  0  0  0  0  0
   -2.5974    7.1319    9.0861 C   0  0  0  0  0  0  0  0  0  0  0  0
   -1.6207    9.3502    9.5910 O   0  0  0  0  0  0  0  0  0  0  0  0
   -0.1846    6.6933    7.3141 N   0  0  0  0  0  0  0  0  0  0  0  0
    1.5450   11.1210    8.7801 O   0  0  0  0  0  0  0  0  0  0  0  0
    2.1112    8.4185    7.8820 O   0  0  0  0  0  0  0  0  0  0  0  0
   -2.2035    6.6274   10.3580 O   0  0  0  0  0  0  0  0  0  0  0  0
   -5.4221   16.9871    5.9560 C   0  0  1  0  0  0  0  0  0  0  0  0
   -4.5592   15.8736    5.2989 C   0  0  1  0  0  0  0  0  0  0  0  0
   -4.7666   15.8396    3.7585 C   0  0  2  0  0  0  0  0  0  0  0  0
   -6.2738   15.7166    3.3623 C   0  0  1  0  0  0  0  0  0  0  0  0
   -7.1833   16.7363    4.1111 C   0  0  0  0  0  0  0  0  0  0  0  0
   -6.9285   16.7531    5.6484 C   0  0  2  0  0  0  0  0  0  0  0  0
   -6.4434   15.8352    1.8983 N   0  0  0  0  0  0  0  0  0  0  0  0
   -7.7899   17.7790    6.2753 N   0  0  0  0  0  0  0  0  0  0  0  0
   -3.1824   16.0437    5.6202 O   0  0  0  0  0  0  0  0  0  0  0  0
   -4.0105   14.7802    3.1776 O   0  0  0  0  0  0  0  0  0  0  0  0
  1  2  1  0  0  0  0
  1 16  1  6  0  0  0
  2  3  1  0  0  0  0
  2 12  1  6  0  0  0
  4 11  1  6  0  0  0
  4  3  1  0  0  0  0
  5  4  1  0  0  0  0
  5 10  1  1  0  0  0
  6  7  1  0  0  0  0
  6  5  1  0  0  0  0
  6 14  1  1  0  0  0
  7  8  1  0  0  0  0
  7 13  1  1  0  0  0
  8 15  1  6  0  0  0
  8 11  1  0  0  0  0
  9 13  1  0  0  0  0
 10  1  1  0  0  0  0
 17 15  1  6  0  0  0
 17 18  1  0  0  0  0
 18 25  1  6  0  0  0
 19 18  1  0  0  0  0
 19 26  1  1  0  0  0
 20 19  1  0  0  0  0
 20 24  1  6  0  0  0
 21 23  1  0  0  0  0
 21 20  1  0  0  0  0
 21 22  1  1  0  0  0
 23 17  1  0  0  0  0
 27 22  1  0  0  0  0
 28 29  1  0  0  0  0
 28 16  1  1  0  0  0
 29 36  1  6  0  0  0
 30 37  1  1  0  0  0
 30 29  1  0  0  0  0
 31 30  1  0  0  0  0
 31 34  1  6  0  0  0
 32 31  1  0  0  0  0
 32 33  1  0  0  0  0
 33 28  1  0  0  0  0
 33 35  1  1  0  0  0
M  END
>  <CHROM.1>
-147.45422320,-150.67918539,154.52388175,-58.70871170,-177.99396786,161.09786228
66.91782111,-53.82460290,65.16270376,-171.46992367,-65.42012670,-74.81635120
-62.90133344,60.58766756,-70.12040594,-80.55578040,-3.32856636,12.80406093
7.26873789,-3.13436793,0.99833285,-1.93201256

>  <Name>
lig.pdb

>  <RI>
0

>  <Rbt.Current_Directory>
/home/itssahil/PROJECTS/Mol_Feturizer/New_Systems/rnas/2m4q

>  <Rbt.Executable>
rbdock ($Id: //depot/dev/client3/rdock/2013.1/src/exe/rbdock.cxx#4 $)

>  <Rbt.Library>
libRbt.so (2013.1, Build901 2013/11/27)

>  <Rbt.Parameter_File>
/export/apps/rDock/src/rDock_2013.1_src/data/scripts/dock_solv.prm

>  <Rbt.Receptor>
prm/pocket_docking_7.prm

>  <SCORE>
-40.8079

>  <SCORE.INTER>
-23.9856

>  <SCORE.INTER.CONST>
1

>  <SCORE.INTER.POLAR>
-4.11473

>  <SCORE.INTER.ROT>
10

>  <SCORE.INTER.SOLV>
13.6791

>  <SCORE.INTER.VDW>
-17.101

>  <SCORE.INTER.norm>
-0.648259

>  <SCORE.INTRA>
-16.8223

>  <SCORE.INTRA.DIHEDRAL>
-34.4146

>  <SCORE.INTRA.DIHEDRAL.0>
44.8331

>  <SCORE.INTRA.POLAR>
0.0998867

>  <SCORE.INTRA.POLAR.0>
-0.108895

>  <SCORE.INTRA.REPUL>
-0.00912235

>  <SCORE.INTRA.REPUL.0>
0.00912235

>  <SCORE.INTRA.SOLV>
-0.708064

>  <SCORE.INTRA.SOLV.lig_0>
-53.9067

>  <SCORE.INTRA.VDW>
0.445019

>  <SCORE.INTRA.VDW.0>
-2.93492

>  <SCORE.INTRA.norm>
-0.454658

>  <SCORE.RESTR>
0

>  <SCORE.RESTR.CAVITY>
0

>  <SCORE.RESTR.norm>
0

>  <SCORE.SYSTEM>
0

>  <SCORE.SYSTEM.CONST>
0

>  <SCORE.SYSTEM.DIHEDRAL>
0

>  <SCORE.SYSTEM.SOLV>
0

>  <SCORE.SYSTEM.norm>
0

>  <SCORE.heavy>
37

>  <SCORE.norm>
-1.10292

>  <RMSD>
8.437

$$$$
lig.pdb
 OpenBabel11021811453D
libRbt.so/2013.1/901 2013/11/27
 37 40  0  0  0  0  0  0  0  0999 V2000
   -0.7035    0.3306   15.4376 C   0  0  2  0  0  0  0  0  0  0  0  0
    0.1349    0.4066   16.7560 C   0  0  1  0  0  0  0  0  0  0  0  0
    1.5904    0.9115   16.5315 C   0  0  0  0  0  0  0  0  0  0  0  0
    2.2714    0.1496   15.3676 C   0  0  1  0  0  0  0  0  0  0  0  0
    1.4139    0.2686   14.0877 C   0  0  1  0  0  0  0  0  0  0  0  0
    2.0966   -0.4472   12.8915 C   0  0  1  0  0  0  0  0  0  0  0  0
    3.5552    0.0643   12.6970 C   0  0  1  0  0  0  0  0  0  0  0  0
    4.3734    0.0112   14.0214 C   0  0  2  0  0  0  0  0  0  0  0  0
    4.9563    0.1571   10.6865 C   0  0  0  0  0  0  0  0  0  0  0  0
    0.0692   -0.2364   14.3301 O   0  0  0  0  0  0  0  0  0  0  0  0
    3.6342    0.6069   15.1316 O   0  0  0  0  0  0  0  0  0  0  0  0
   -0.5489    1.2815   17.7330 N   0  0  0  0  0  0  0  0  0  0  0  0
    4.2003   -0.7096   11.6163 N   0  0  0  0  0  0  0  0  0  0  0  0
    2.0626   -1.8601   13.0473 O   0  0  0  0  0  0  0  0  0  0  0  0
    5.6703    0.6524   13.8443 O   0  0  0  0  0  0  0  0  0  0  0  0
   -1.2324    1.6418   15.0720 O   0  0  0  0  0  0  0  0  0  0  0  0
    6.5112    0.8606   15.0205 C   0  0  2  0  0  0  0  0  0  0  0  0
    7.9648    0.3732   14.7598 C   0  0  1  0  0  0  0  0  0  0  0  0
    8.0461   -1.1782   14.6787 C   0  0  2  0  0  0  0  0  0  0  0  0
    7.3984   -1.8408   15.9291 C   0  0  1  0  0  0  0  0  0  0  0  0
    5.9617   -1.3005   16.1729 C   0  0  1  0  0  0  0  0  0  0  0  0
    5.3544   -1.8483   17.4910 C   0  0  0  0  0  0  0  0  0  0  0  0
    5.9605    0.1594   16.1753 O   0  0  0  0  0  0  0  0  0  0  0  0
    7.4102   -3.3165   15.8262 N   0  0  0  0  0  0  0  0  0  0  0  0
    8.4987    0.9921   13.5908 O   0  0  0  0  0  0  0  0  0  0  0  0
    9.3924   -1.6149   14.5049 O   0  0  0  0  0  0  0  0  0  0  0  0
    4.0576   -1.3052   17.7162 O   0  0  0  0  0  0  0  0  0  0  0  0
   -2.5363    1.6892   14.4228 C   0  0  1  0  0  0  0  0  0  0  0  0
   -3.6641    1.1429   15.3425 C   0  0  1  0  0  0  0  0  0  0  0  0
   -5.0286    1.1120   14.5979 C   0  0  2  0  0  0  0  0  0  0  0  0
   -5.4027    2.4988   13.9807 C   0  0  1  0  0  0  0  0  0  0  0  0
   -4.2381    3.1328   13.1625 C   0  0  0  0  0  0  0  0  0  0  0  0
   -2.8855    3.1246   13.9367 C   0  0  2  0  0  0  0  0  0  0  0  0
   -6.6278    2.3949   13.1596 N   0  0  0  0  0  0  0  0  0  0  0  0
   -1.8261    3.6931   13.0755 N   0  0  0  0  0  0  0  0  0  0  0  0
   -3.3305   -0.1486   15.8408 O   0  0  0  0  0  0  0  0  0  0  0  0
   -6.0614    0.6597   15.4698 O   0  0  0  0  0  0  0  0  0  0  0  0
  1  2  1  0  0  0  0
  1 16  1  6  0  0  0
  2  3  1  0  0  0  0
  2 12  1  1  0  0  0
  4 11  1  6  0  0  0
  4  3  1  0  0  0  0
  5  4  1  0  0  0  0
  5 10  1  1  0  0  0
  6  7  1  0  0  0  0
  6  5  1  0  0  0  0
  6 14  1  1  0  0  0
  7  8  1  0  0  0  0
  7 13  1  6  0  0  0
  8 15  1  6  0  0  0
  8 11  1  0  0  0  0
  9 13  1  0  0  0  0
 10  1  1  0  0  0  0
 17 15  1  6  0  0  0
 17 18  1  0  0  0  0
 18 25  1  6  0  0  0
 19 18  1  0  0  0  0
 19 26  1  1  0  0  0
 20 19  1  0  0  0  0
 20 24  1  6  0  0  0
 21 23  1  0  0  0  0
 21 20  1  0  0  0  0
 21 22  1  1  0  0  0
 23 17  1  0  0  0  0
 27 22  1  0  0  0  0
 28 29  1  0  0  0  0
 28 16  1  1  0  0  0
 29 36  1  6  0  0  0
 30 37  1  1  0  0  0
 30 29  1  0  0  0  0
 31 30  1  0  0  0  0
 31 34  1  6  0  0  0
 32 31  1  0  0  0  0
 32 33  1  0  0  0  0
 33 28  1  0  0  0  0
 33 35  1  6  0  0  0
M  END
>  <CHROM.1>
76.41895259,172.00787311,135.66640296,-161.10399941,131.46076817,-146.12376183
-57.42043227,-59.94671652,178.02642835,-174.10737049,-54.49454990,62.84149370
179.75306537,-176.05903745,-172.97904225,-74.03850312,1.86304047,0.32011349
14.70723068,3.03835430,0.20429979,-1.20633583

>  <Name>
lig.pdb

>  <RI>
0

>  <Rbt.Current_Directory>
/home/itssahil/PROJECTS/Mol_Feturizer/New_Systems/rnas/2m4q

>  <Rbt.Executable>
rbdock ($Id: //depot/dev/client3/rdock/2013.1/src/exe/rbdock.cxx#4 $)

>  <Rbt.Library>
libRbt.so (2013.1, Build901 2013/11/27)

>  <Rbt.Parameter_File>
/export/apps/rDock/src/rDock_2013.1_src/data/scripts/dock_solv.prm

>  <Rbt.Receptor>
prm/blind_docking_20.prm

>  <SCORE>
10.2523

>  <SCORE.INTER>
0.104849

>  <SCORE.INTER.CONST>
1

>  <SCORE.INTER.POLAR>
-1.48641

>  <SCORE.INTER.ROT>
10

>  <SCORE.INTER.SOLV>
21.5625

>  <SCORE.INTER.VDW>
-12.4296

>  <SCORE.INTER.norm>
0.00283375

>  <SCORE.INTRA>
-15.2476

>  <SCORE.INTRA.DIHEDRAL>
-28.3179

>  <SCORE.INTRA.DIHEDRAL.0>
44.8331

>  <SCORE.INTRA.POLAR>
-0.380411

>  <SCORE.INTRA.POLAR.0>
-0.108895

>  <SCORE.INTRA.REPUL>
-0.00912235

>  <SCORE.INTRA.REPUL.0>
0.00912235

>  <SCORE.INTRA.SOLV>
-0.690872

>  <SCORE.INTRA.SOLV.lig_0>
-53.9067

>  <SCORE.INTRA.VDW>
0.595761

>  <SCORE.INTRA.VDW.0>
-2.93492

>  <SCORE.INTRA.norm>
-0.412098

>  <SCORE.RESTR>
25.3951

>  <SCORE.RESTR.CAVITY>
25.3951

>  <SCORE.RESTR.norm>
0.686353

>  <SCORE.SYSTEM>
0

>  <SCORE.SYSTEM.CONST>
0

>  <SCORE.SYSTEM.DIHEDRAL>
0

>  <SCORE.SYSTEM.SOLV>
0

>  <SCORE.SYSTEM.norm>
0

>  <SCORE.heavy>
37

>  <SCORE.norm>
0.277089

>  <RMSD>
8.822

$$$$
lig.pdb
 OpenBabel11021811453D
libRbt.so/2013.1/901 2013/11/27
 37 40  0  0  0  0  0  0  0  0999 V2000
   -1.2599    7.7124   10.9667 C   0  0  2  0  0  0  0  0  0  0  0  0
   -1.7915    7.2273   12.3557 C   0  0  1  0  0  0  0  0  0  0  0  0
   -3.0224    8.0361   12.8602 C   0  0  0  0  0  0  0  0  0  0  0  0
   -2.7693    9.5604   12.7540 C   0  0  1  0  0  0  0  0  0  0  0  0
   -2.3889    9.9309   11.3030 C   0  0  1  0  0  0  0  0  0  0  0  0
   -2.1750   11.4614   11.1569 C   0  0  1  0  0  0  0  0  0  0  0  0
   -3.4131   12.2479   11.6816 C   0  0  1  0  0  0  0  0  0  0  0  0
   -3.8263   11.7971   13.1142 C   0  0  2  0  0  0  0  0  0  0  0  0
   -3.4077   14.2586   10.2777 C   0  0  0  0  0  0  0  0  0  0  0  0
   -1.2197    9.1737   10.8767 O   0  0  0  0  0  0  0  0  0  0  0  0
   -3.9089   10.3422   13.2146 O   0  0  0  0  0  0  0  0  0  0  0  0
   -2.1367    5.7908   12.2843 N   0  0  0  0  0  0  0  0  0  0  0  0
   -3.1301   13.6967   11.6172 N   0  0  0  0  0  0  0  0  0  0  0  0
   -0.9835   11.8810   11.8096 O   0  0  0  0  0  0  0  0  0  0  0  0
   -5.0819   12.4269   13.5034 O   0  0  0  0  0  0  0  0  0  0  0  0
   -2.0528    7.1555    9.8742 O   0  0  0  0  0  0  0  0  0  0  0  0
   -5.2186   12.9217   14.8710 C   0  0  2  0  0  0  0  0  0  0  0  0
   -4.0264   13.8451   15.2514 C   0  0  1  0  0  0  0  0  0  0  0  0
   -2.7055   13.0407   15.4186 C   0  0  2  0  0  0  0  0  0  0  0  0
   -2.8926   11.8526   16.4061 C   0  0  1  0  0  0  0  0  0  0  0  0
   -4.1137   10.9767   16.0096 C   0  0  1  0  0  0  0  0  0  0  0  0
   -4.3956    9.8696   17.0589 C   0  0  0  0  0  0  0  0  0  0  0  0
   -5.2958   11.8106   15.8133 O   0  0  0  0  0  0  0  0  0  0  0  0
   -1.6598   11.0422   16.5166 N   0  0  0  0  0  0  0  0  0  0  0  0
   -3.8864   14.8995   14.3009 O   0  0  0  0  0  0  0  0  0  0  0  0
   -1.6352   13.8880   15.8307 O   0  0  0  0  0  0  0  0  0  0  0  0
   -5.4621    9.0275   16.6337 O   0  0  0  0  0  0  0  0  0  0  0  0
   -1.5383    7.3057    8.5190 C   0  0  1  0  0  0  0  0  0  0  0  0
   -1.4754    8.7963    8.0826 C   0  0  1  0  0  0  0  0  0  0  0  0
   -1.0164    8.9281    6.6030 C   0  0  2  0  0  0  0  0  0  0  0  0
    0.3310    8.1847    6.3281 C   0  0  1  0  0  0  0  0  0  0  0  0
    0.3427    6.7266    6.8773 C   0  0  0  0  0  0  0  0  0  0  0  0
   -0.1438    6.6372    8.3552 C   0  0  2  0  0  0  0  0  0  0  0  0
    0.6587    8.2073    4.8865 N   0  0  0  0  0  0  0  0  0  0  0  0
   -0.1524    5.2211    8.7819 N   0  0  0  0  0  0  0  0  0  0  0  0
   -2.7320    9.4358    8.2812 O   0  0  0  0  0  0  0  0  0  0  0  0
   -0.9124   10.3010    6.2344 O   0  0  0  0  0  0  0  0  0  0  0  0
  1  2  1  0  0  0  0
  1 16  1  6  0  0  0
  2  3  1  0  0  0  0
  2 12  1  6  0  0  0
  4 11  1  6  0  0  0
  4  3  1  0  0  0  0
  5  4  1  0  0  0  0
  5 10  1  1  0  0  0
  6  7  1  0  0  0  0
  6  5  1  0  0  0  0
  6 14  1  1  0  0  0
  7  8  1  0  0  0  0
  7 13  1  1  0  0  0
  8 15  1  6  0  0  0
  8 11  1  0  0  0  0
  9 13  1  0  0  0  0
 10  1  1  0  0  0  0
 17 15  1  6  0  0  0
 17 18  1  0  0  0  0
 18 25  1  6  0  0  0
 19 18  1  0  0  0  0
 19 26  1  1  0  0  0
 20 19  1  0  0  0  0
 20 24  1  6  0  0  0
 21 23  1  0  0  0  0
 21 20  1  0  0  0  0
 21 22  1  1  0  0  0
 23 17  1  0  0  0  0
 27 22  1  0  0  0  0
 28 29  1  0  0  0  0
 28 16  1  1  0  0  0
 29 36  1  6  0  0  0
 30 37  1  1  0  0  0
 30 29  1  0  0  0  0
 31 30  1  0  0  0  0
 31 34  1  6  0  0  0
 32 31  1  0  0  0  0
 32 33  1  0  0  0  0
 33 28  1  0  0  0  0
 33 35  1  6  0  0  0
M  END
>  <CHROM.1>
-12.26847347,-138.97008332,84.26360011,-176.54642168,51.62493609,-168.71004455
59.40576400,-179.82965057,-176.25453143,170.22539030,178.46744075,-64.65284685
-65.05313690,-62.25842545,79.38367279,47.66822125,-2.46011868,10.17413410
11.81308070,0.10194788,-1.22208347,2.72553980

>  <Name>
lig.pdb

>  <RI>
3.60165e+07

>  <Rbt.Current_Directory>
/home/itssahil/PROJECTS/Mol_Feturizer/New_Systems/rnas/2m4q

>  <Rbt.Executable>
rbdock ($Id: //depot/dev/client3/rdock/2013.1/src/exe/rbdock.cxx#4 $)

>  <Rbt.Library>
libRbt.so (2013.1, Build901 2013/11/27)

>  <Rbt.Parameter_File>
/export/apps/rDock/src/rDock_2013.1_src/data/scripts/dock_solv.prm

>  <Rbt.Receptor>
prm/pocket_docking_8.prm

>  <SCORE>
-50.5113

>  <SCORE.INTER>
-30.0179

>  <SCORE.INTER.CONST>
1

>  <SCORE.INTER.POLAR>
-4.96204

>  <SCORE.INTER.ROT>
10

>  <SCORE.INTER.SOLV>
14.0639

>  <SCORE.INTER.VDW>
-18.4264

>  <SCORE.INTER.norm>
-0.811294

>  <SCORE.INTRA>
-20.4934

>  <SCORE.INTRA.DIHEDRAL>
-33.1984

>  <SCORE.INTRA.DIHEDRAL.0>
44.8331

>  <SCORE.INTRA.POLAR>
-1.25472

>  <SCORE.INTRA.POLAR.0>
-0.108895

>  <SCORE.INTRA.REPUL>
0.0386587

>  <SCORE.INTRA.REPUL.0>
0.00912235

>  <SCORE.INTRA.SOLV>
0.993809

>  <SCORE.INTRA.SOLV.lig_0>
-53.9067

>  <SCORE.INTRA.VDW>
-0.318389

>  <SCORE.INTRA.VDW.0>
-2.93492

>  <SCORE.INTRA.norm>
-0.553877

>  <SCORE.RESTR>
0

>  <SCORE.RESTR.CAVITY>
0

>  <SCORE.RESTR.norm>
0

>  <SCORE.SYSTEM>
0

>  <SCORE.SYSTEM.CONST>
0

>  <SCORE.SYSTEM.DIHEDRAL>
0

>  <SCORE.SYSTEM.SOLV>
0

>  <SCORE.SYSTEM.norm>
0

>  <SCORE.heavy>
37

>  <SCORE.norm>
-1.36517

>  <RMSD>
9.090

$$$$
lig.pdb
 OpenBabel11021811453D
libRbt.so/2013.1/901 2013/11/27
 37 40  0  0  0  0  0  0  0  0999 V2000
   -5.4858   15.8540    7.9027 C   0  0  2  0  0  0  0  0  0  0  0  0
   -4.9471   15.1977    9.2165 C   0  0  1  0  0  0  0  0  0  0  0  0
   -3.6292   14.3956    9.0082 C   0  0  0  0  0  0  0  0  0  0  0  0
   -3.7465   13.4349    7.7990 C   0  0  1  0  0  0  0  0  0  0  0  0
   -4.1475   14.2271    6.5345 C   0  0  1  0  0  0  0  0  0  0  0  0
   -4.2269   13.2954    5.2955 C   0  0  1  0  0  0  0  0  0  0  0  0
   -2.9031   12.4938    5.1175 C   0  0  1  0  0  0  0  0  0  0  0  0
   -2.4774   11.7717    6.4304 C   0  0  2  0  0  0  0  0  0  0  0  0
   -2.9549   12.2274    2.6803 C   0  0  0  0  0  0  0  0  0  0  0  0
   -5.3964   14.9426    6.7597 O   0  0  0  0  0  0  0  0  0  0  0  0
   -2.5236   12.6751    7.5774 O   0  0  0  0  0  0  0  0  0  0  0  0
   -4.7369   16.2394   10.2453 N   0  0  0  0  0  0  0  0  0  0  0  0
   -3.0555   11.5499    3.9910 N   0  0  0  0  0  0  0  0  0  0  0  0
   -5.3491   12.4259    5.3742 O   0  0  0  0  0  0  0  0  0  0  0  0
   -1.1557   11.1764    6.2782 O   0  0  0  0  0  0  0  0  0  0  0  0
   -4.7896   17.1048    7.6135 O   0  0  0  0  0  0  0  0  0  0  0  0
   -0.4022   10.8353    7.4822 C   0  0  2  0  0  0  0  0  0  0  0  0
    0.5263    9.6132    7.2310 C   0  0  1  0  0  0  0  0  0  0  0  0
   -0.2856    8.2955    7.0751 C   0  0  2  0  0  0  0  0  0  0  0  0
   -1.2532    8.0865    8.2760 C   0  0  1  0  0  0  0  0  0  0  0  0
   -2.1370    9.3427    8.5133 C   0  0  1  0  0  0  0  0  0  0  0  0
   -3.0093    9.2029    9.7884 C   0  0  0  0  0  0  0  0  0  0  0  0
   -1.3076   10.5418    8.5880 O   0  0  0  0  0  0  0  0  0  0  0  0
   -2.0781    6.8711    8.1003 N   0  0  0  0  0  0  0  0  0  0  0  0
    1.3718    9.8492    6.1067 O   0  0  0  0  0  0  0  0  0  0  0  0
    0.5795    7.1740    6.9107 O   0  0  0  0  0  0  0  0  0  0  0  0
   -2.2023    9.2358   10.9610 O   0  0  0  0  0  0  0  0  0  0  0  0
   -4.7553   17.5561    6.2282 C   0  0  1  0  0  0  0  0  0  0  0  0
   -3.6408   16.8436    5.4118 C   0  0  1  0  0  0  0  0  0  0  0  0
   -3.5578   17.4082    3.9656 C   0  0  2  0  0  0  0  0  0  0  0  0
   -4.9357   17.3651    3.2286 C   0  0  1  0  0  0  0  0  0  0  0  0
   -6.0992   17.9528    4.0823 C   0  0  0  0  0  0  0  0  0  0  0  0
   -6.1331   17.3764    5.5298 C   0  0  2  0  0  0  0  0  0  0  0  0
   -4.8511   18.0417    1.9167 N   0  0  0  0  0  0  0  0  0  0  0  0
   -7.2284   18.0205    6.2867 N   0  0  0  0  0  0  0  0  0  0  0  0
   -2.3828   16.9519    6.0700 O   0  0  0  0  0  0  0  0  0  0  0  0
   -2.5686   16.7091    3.2143 O   0  0  0  0  0  0  0  0  0  0  0  0
  1  2  1  0  0  0  0
  1 16  1  6  0  0  0
  2  3  1  0  0  0  0
  2 12  1  1  0  0  0
  4 11  1  6  0  0  0
  4  3  1  0  0  0  0
  5  4  1  0  0  0  0
  5 10  1  1  0  0  0
  6  7  1  0  0  0  0
  6  5  1  0  0  0  0
  6 14  1  1  0  0  0
  7  8  1  0  0  0  0
  7 13  1  6  0  0  0
  8 15  1  6  0  0  0
  8 11  1  0  0  0  0
  9 13  1  0  0  0  0
 10  1  1  0  0  0  0
 17 15  1  6  0  0  0
 17 18  1  0  0  0  0
 18 25  1  6  0  0  0
 19 18  1  0  0  0  0
 19 26  1  1  0  0  0
 20 19  1  0  0  0  0
 20 24  1  6  0  0  0
 21 23  1  0  0  0  0
 21 20  1  0  0  0  0
 21 22  1  1  0  0  0
 23 17  1  0  0  0  0
 27 22  1  0  0  0  0
 28 29  1  0  0  0  0
 28 16  1  1  0  0  0
 29 36  1  1  0  0  0
 30 37  1  6  0  0  0
 30 29  1  0  0  0  0
 31 30  1  0  0  0  0
 31 34  1  6  0  0  0
 32 31  1  0  0  0  0
 32 33  1  0  0  0  0
 33 28  1  0  0  0  0
 33 35  1  1  0  0  0
M  END
>  <CHROM.1>
171.65958391,160.72660506,76.78200696,-58.44362211,149.67707713,155.65531040
179.78730877,-66.89744602,69.01933104,163.16210534,61.77987893,-81.54844683
64.19258594,-55.08146902,74.80651690,-66.45637774,-3.15511690,13.27159907
6.56674506,2.43619663,0.98196758,-1.07791275

>  <Name>
lig.pdb

>  <RI>
0

>  <Rbt.Current_Directory>
/home/itssahil/PROJECTS/Mol_Feturizer/New_Systems/rnas/2m4q

>  <Rbt.Executable>
rbdock ($Id: //depot/dev/client3/rdock/2013.1/src/exe/rbdock.cxx#4 $)

>  <Rbt.Library>
libRbt.so (2013.1, Build901 2013/11/27)

>  <Rbt.Parameter_File>
/export/apps/rDock/src/rDock_2013.1_src/data/scripts/dock_solv.prm

>  <Rbt.Receptor>
prm/pocket_docking_7.prm

>  <SCORE>
-34.5033

>  <SCORE.INTER>
-19.1144

>  <SCORE.INTER.CONST>
1

>  <SCORE.INTER.POLAR>
-2.94234

>  <SCORE.INTER.ROT>
10

>  <SCORE.INTER.SOLV>
14.8707

>  <SCORE.INTER.VDW>
-18.1587

>  <SCORE.INTER.norm>
-0.516604

>  <SCORE.INTRA>
-15.413

>  <SCORE.INTRA.DIHEDRAL>
-31.9888

>  <SCORE.INTRA.DIHEDRAL.0>
44.8331

>  <SCORE.INTRA.POLAR>
0.0825787

>  <SCORE.INTRA.POLAR.0>
-0.108895

>  <SCORE.INTRA.REPUL>
-0.00912235

>  <SCORE.INTRA.REPUL.0>
0.00912235

>  <SCORE.INTRA.SOLV>
-0.803261

>  <SCORE.INTRA.SOLV.lig_0>
-53.9067

>  <SCORE.INTRA.VDW>
0.747892

>  <SCORE.INTRA.VDW.0>
-2.93492

>  <SCORE.INTRA.norm>
-0.416567

>  <SCORE.RESTR>
0.0240446

>  <SCORE.RESTR.CAVITY>
0.0240446

>  <SCORE.RESTR.norm>
0.000649853

>  <SCORE.SYSTEM>
0

>  <SCORE.SYSTEM.CONST>
0

>  <SCORE.SYSTEM.DIHEDRAL>
0

>  <SCORE.SYSTEM.SOLV>
0

>  <SCORE.SYSTEM.norm>
0

>  <SCORE.heavy>
37

>  <SCORE.norm>
-0.932522

>  <RMSD>
9.104

$$$$
lig.pdb
 OpenBabel11021811453D
libRbt.so/2013.1/901 2013/11/27
 37 40  0  0  0  0  0  0  0  0999 V2000
   -3.7107    2.0221   15.2561 C   0  0  2  0  0  0  0  0  0  0  0  0
   -2.6532    2.9300   14.5459 C   0  0  1  0  0  0  0  0  0  0  0  0
   -1.5352    2.1228   13.8232 C   0  0  0  0  0  0  0  0  0  0  0  0
   -0.9427    1.0353   14.7535 C   0  0  1  0  0  0  0  0  0  0  0  0
   -2.0713    0.1191   15.2774 C   0  0  1  0  0  0  0  0  0  0  0  0
   -1.4997   -1.0100   16.1763 C   0  0  1  0  0  0  0  0  0  0  0  0
   -0.3739   -1.7925   15.4368 C   0  0  1  0  0  0  0  0  0  0  0  0
    0.7080   -0.8397   14.8469 C   0  0  2  0  0  0  0  0  0  0  0  0
   -0.6929   -3.9408   16.5756 C   0  0  0  0  0  0  0  0  0  0  0  0
   -3.0835    0.9066   15.9684 O   0  0  0  0  0  0  0  0  0  0  0  0
    0.1030    0.2600   14.0998 O   0  0  0  0  0  0  0  0  0  0  0  0
   -3.3291    3.8193   13.5763 N   0  0  0  0  0  0  0  0  0  0  0  0
    0.2094   -2.7894   16.3582 N   0  0  0  0  0  0  0  0  0  0  0  0
   -1.0392   -0.4969   17.4198 O   0  0  0  0  0  0  0  0  0  0  0  0
    1.6482   -1.5869   14.0208 O   0  0  0  0  0  0  0  0  0  0  0  0
   -4.7043    1.5274   14.3071 O   0  0  0  0  0  0  0  0  0  0  0  0
    2.6144   -0.8421   13.2173 C   0  0  2  0  0  0  0  0  0  0  0  0
    4.0524   -1.4001   13.4161 C   0  0  1  0  0  0  0  0  0  0  0  0
    4.6089   -1.0668   14.8300 C   0  0  2  0  0  0  0  0  0  0  0  0
    4.5014    0.4562   15.1314 C   0  0  1  0  0  0  0  0  0  0  0  0
    3.0583    0.9787   14.8870 C   0  0  1  0  0  0  0  0  0  0  0  0
    2.9659    2.5185   15.0510 C   0  0  0  0  0  0  0  0  0  0  0  0
    2.5876    0.5744   13.5655 O   0  0  0  0  0  0  0  0  0  0  0  0
    4.9648    0.7703   16.5007 N   0  0  0  0  0  0  0  0  0  0  0  0
    4.0871   -2.8013   13.1513 O   0  0  0  0  0  0  0  0  0  0  0  0
    5.9509   -1.5263   14.9766 O   0  0  0  0  0  0  0  0  0  0  0  0
    1.6095    2.9509   15.0248 O   0  0  0  0  0  0  0  0  0  0  0  0
   -6.1071    1.8027   14.5901 C   0  0  1  0  0  0  0  0  0  0  0  0
   -6.8866    2.2231   13.3126 C   0  0  1  0  0  0  0  0  0  0  0  0
   -8.3548    2.6052   13.6525 C   0  0  2  0  0  0  0  0  0  0  0  0
   -9.0970    1.4779   14.4414 C   0  0  1  0  0  0  0  0  0  0  0  0
   -8.2753    0.9429   15.6523 C   0  0  0  0  0  0  0  0  0  0  0  0
   -6.8049    0.5922   15.2729 C   0  0  2  0  0  0  0  0  0  0  0  0
  -10.4358    1.9332   14.8732 N   0  0  0  0  0  0  0  0  0  0  0  0
   -6.0820    0.1434   16.4826 N   0  0  0  0  0  0  0  0  0  0  0  0
   -6.2266    3.2944   12.6460 O   0  0  0  0  0  0  0  0  0  0  0  0
   -9.0705    2.9366   12.4652 O   0  0  0  0  0  0  0  0  0  0  0  0
  1  2  1  0  0  0  0
  1 16  1  6  0  0  0
  2  3  1  0  0  0  0
  2 12  1  6  0  0  0
  4 11  1  6  0  0  0
  4  3  1  0  0  0  0
  5  4  1  0  0  0  0
  5 10  1  1  0  0  0
  6  7  1  0  0  0  0
  6  5  1  0  0  0  0
  6 14  1  1  0  0  0
  7  8  1  0  0  0  0
  7 13  1  1  0  0  0
  8 15  1  6  0  0  0
  8 11  1  0  0  0  0
  9 13  1  0  0  0  0
 10  1  1  0  0  0  0
 17 15  1  1  0  0  0
 17 18  1  0  0  0  0
 18 25  1  1  0  0  0
 19 18  1  0  0  0  0
 19 26  1  6  0  0  0
 20 19  1  0  0  0  0
 20 24  1  1  0  0  0
 21 23  1  0  0  0  0
 21 20  1  0  0  0  0
 21 22  1  6  0  0  0
 23 17  1  0  0  0  0
 27 22  1  0  0  0  0
 28 29  1  0  0  0  0
 28 16  1  6  0  0  0
 29 36  1  1  0  0  0
 30 37  1  6  0  0  0
 30 29  1  0  0  0  0
 31 30  1  0  0  0  0
 31 34  1  1  0  0  0
 32 31  1  0  0  0  0
 32 33  1  0  0  0  0
 33 28  1  0  0  0  0
 33 35  1  1  0  0  0
M  END
>  <CHROM.1>
-84.65078498,170.82814846,73.87606747,-173.15111672,130.87133827,-123.97096942
-76.85172623,-61.21159520,-171.15362577,60.10634876,60.45709702,137.94740369
33.88044138,69.66999427,73.28052648,69.70374560,-1.57631843,0.56492512,14.74283341
-2.90728635,-0.05948991,2.71655350

>  <Name>
lig.pdb

>  <RI>
0

>  <Rbt.Current_Directory>
/home/itssahil/PROJECTS/Mol_Feturizer/New_Systems/rnas/2m4q

>  <Rbt.Executable>
rbdock ($Id: //depot/dev/client3/rdock/2013.1/src/exe/rbdock.cxx#4 $)

>  <Rbt.Library>
libRbt.so (2013.1, Build901 2013/11/27)

>  <Rbt.Parameter_File>
/export/apps/rDock/src/rDock_2013.1_src/data/scripts/dock_solv.prm

>  <Rbt.Receptor>
prm/blind_docking_20.prm

>  <SCORE>
9.58649

>  <SCORE.INTER>
5.70303

>  <SCORE.INTER.CONST>
1

>  <SCORE.INTER.POLAR>
-2.68177

>  <SCORE.INTER.ROT>
10

>  <SCORE.INTER.SOLV>
26.5885

>  <SCORE.INTER.VDW>
-6.38824

>  <SCORE.INTER.norm>
0.154136

>  <SCORE.INTRA>
-14.5094

>  <SCORE.INTRA.DIHEDRAL>
-17.755

>  <SCORE.INTRA.DIHEDRAL.0>
44.8331

>  <SCORE.INTRA.POLAR>
-1.92234

>  <SCORE.INTRA.POLAR.0>
-0.108895

>  <SCORE.INTRA.REPUL>
-0.00912235

>  <SCORE.INTRA.REPUL.0>
0.00912235

>  <SCORE.INTRA.SOLV>
-0.0890172

>  <SCORE.INTRA.SOLV.lig_0>
-53.9067

>  <SCORE.INTRA.VDW>
0.994162

>  <SCORE.INTRA.VDW.0>
-2.93492

>  <SCORE.INTRA.norm>
-0.392146

>  <SCORE.RESTR>
18.3929

>  <SCORE.RESTR.CAVITY>
18.3929

>  <SCORE.RESTR.norm>
0.497104

>  <SCORE.SYSTEM>
0

>  <SCORE.SYSTEM.CONST>
0

>  <SCORE.SYSTEM.DIHEDRAL>
0

>  <SCORE.SYSTEM.SOLV>
0

>  <SCORE.SYSTEM.norm>
0

>  <SCORE.heavy>
37

>  <SCORE.norm>
0.259094

>  <RMSD>
9.242

$$$$
lig.pdb
 OpenBabel11021811453D
libRbt.so/2013.1/901 2013/11/27
 37 40  0  0  0  0  0  0  0  0999 V2000
    2.1666    4.5825    9.7023 C   0  0  2  0  0  0  0  0  0  0  0  0
    1.9322    4.6927    8.1596 C   0  0  1  0  0  0  0  0  0  0  0  0
    1.0951    5.9405    7.7519 C   0  0  0  0  0  0  0  0  0  0  0  0
   -0.1840    6.0606    8.6171 C   0  0  1  0  0  0  0  0  0  0  0  0
    0.1940    6.0818   10.1151 C   0  0  1  0  0  0  0  0  0  0  0  0
   -1.0668    6.2488   11.0052 C   0  0  1  0  0  0  0  0  0  0  0  0
   -1.8942    7.4943   10.5682 C   0  0  1  0  0  0  0  0  0  0  0  0
   -2.1908    7.4903    9.0391 C   0  0  2  0  0  0  0  0  0  0  0  0
   -2.9031    8.1783   12.6961 C   0  0  0  0  0  0  0  0  0  0  0  0
    0.9529    4.8880   10.4630 O   0  0  0  0  0  0  0  0  0  0  0  0
   -0.9839    7.2245    8.2603 O   0  0  0  0  0  0  0  0  0  0  0  0
    3.2336    4.7168    7.4572 N   0  0  0  0  0  0  0  0  0  0  0  0
   -3.1321    7.5604   11.3721 N   0  0  0  0  0  0  0  0  0  0  0  0
   -1.8643    5.0718   10.9972 O   0  0  0  0  0  0  0  0  0  0  0  0
   -2.8137    8.7457    8.6384 O   0  0  0  0  0  0  0  0  0  0  0  0
    3.2674    5.4406   10.1316 O   0  0  0  0  0  0  0  0  0  0  0  0
   -2.0217    9.9710    8.7110 C   0  0  2  0  0  0  0  0  0  0  0  0
   -2.8973   11.2195    8.4060 C   0  0  1  0  0  0  0  0  0  0  0  0
   -3.3036   11.2854    6.9059 C   0  0  2  0  0  0  0  0  0  0  0  0
   -2.0568   11.1775    5.9809 C   0  0  1  0  0  0  0  0  0  0  0  0
   -1.1925    9.9373    6.3421 C   0  0  1  0  0  0  0  0  0  0  0  0
    0.1230    9.8910    5.5214 C   0  0  0  0  0  0  0  0  0  0  0  0
   -0.9053    9.9164    7.7733 O   0  0  0  0  0  0  0  0  0  0  0  0
   -2.4422   11.1697    4.5527 N   0  0  0  0  0  0  0  0  0  0  0  0
   -4.0363   11.2543    9.2641 O   0  0  0  0  0  0  0  0  0  0  0  0
   -4.0504   12.4675    6.6261 O   0  0  0  0  0  0  0  0  0  0  0  0
    0.4830    8.5479    5.2154 O   0  0  0  0  0  0  0  0  0  0  0  0
    3.6400    5.4105   11.5402 C   0  0  1  0  0  0  0  0  0  0  0  0
    2.7018    6.2942   12.4091 C   0  0  1  0  0  0  0  0  0  0  0  0
    3.1741    6.3251   13.8900 C   0  0  2  0  0  0  0  0  0  0  0  0
    3.3445    4.8923   14.4917 C   0  0  1  0  0  0  0  0  0  0  0  0
    4.1707    3.9428   13.5732 C   0  0  0  0  0  0  0  0  0  0  0  0
    3.6780    3.9581   12.0947 C   0  0  2  0  0  0  0  0  0  0  0  0
    3.9329    4.9582   15.8465 N   0  0  0  0  0  0  0  0  0  0  0  0
    4.5428    3.0751   11.2824 N   0  0  0  0  0  0  0  0  0  0  0  0
    2.6132    7.6127   11.8789 O   0  0  0  0  0  0  0  0  0  0  0  0
    2.2745    7.0951   14.6835 O   0  0  0  0  0  0  0  0  0  0  0  0
  1  2  1  0  0  0  0
  1 16  1  1  0  0  0
  2  3  1  0  0  0  0
  2 12  1  6  0  0  0
  4 11  1  6  0  0  0
  4  3  1  0  0  0  0
  5  4  1  0  0  0  0
  5 10  1  1  0  0  0
  6  7  1  0  0  0  0
  6  5  1  0  0  0  0
  6 14  1  6  0  0  0
  7  8  1  0  0  0  0
  7 13  1  1  0  0  0
  8 15  1  6  0  0  0
  8 11  1  0  0  0  0
  9 13  1  0  0  0  0
 10  1  1  0  0  0  0
 17 15  1  6  0  0  0
 17 18  1  0  0  0  0
 18 25  1  1  0  0  0
 19 18  1  0  0  0  0
 19 26  1  1  0  0  0
 20 19  1  0  0  0  0
 20 24  1  6  0  0  0
 21 23  1  0  0  0  0
 21 20  1  0  0  0  0
 21 22  1  6  0  0  0
 23 17  1  0  0  0  0
 27 22  1  0  0  0  0
 28 29  1  0  0  0  0
 28 16  1  6  0  0  0
 29 36  1  6  0  0  0
 30 37  1  1  0  0  0
 30 29  1  0  0  0  0
 31 30  1  0  0  0  0
 31 34  1  1  0  0  0
 32 31  1  0  0  0  0
 32 33  1  0  0  0  0
 33 28  1  0  0  0  0
 33 35  1  6  0  0  0
M  END
>  <CHROM.1>
-168.78191167,67.08458909,81.93681091,47.99593842,-173.37158656,-177.81537170
62.05767630,-174.46270414,-145.04754727,-46.88690305,70.85965200,-80.85721309
61.73772513,-174.72995198,-176.29516666,-82.53199440,0.18130173,7.34263174
9.77134091,-0.71656319,0.68171731,-1.41536061

>  <Name>
lig.pdb

>  <RI>
2.86754e+07

>  <Rbt.Current_Directory>
/home/itssahil/PROJECTS/Mol_Feturizer/New_Systems/rnas/2m4q

>  <Rbt.Executable>
rbdock ($Id: //depot/dev/client3/rdock/2013.1/src/exe/rbdock.cxx#4 $)

>  <Rbt.Library>
libRbt.so (2013.1, Build901 2013/11/27)

>  <Rbt.Parameter_File>
/export/apps/rDock/src/rDock_2013.1_src/data/scripts/dock_solv.prm

>  <Rbt.Receptor>
prm/pocket_docking_5.prm

>  <SCORE>
-51.4173

>  <SCORE.INTER>
-32.3136

>  <SCORE.INTER.CONST>
1

>  <SCORE.INTER.POLAR>
-4.62072

>  <SCORE.INTER.ROT>
10

>  <SCORE.INTER.SOLV>
17.1746

>  <SCORE.INTER.VDW>
-22.1316

>  <SCORE.INTER.norm>
-0.873341

>  <SCORE.INTRA>
-19.1037

>  <SCORE.INTRA.DIHEDRAL>
-34.9421

>  <SCORE.INTRA.DIHEDRAL.0>
44.8331

>  <SCORE.INTRA.POLAR>
0.030309

>  <SCORE.INTRA.POLAR.0>
-0.108895

>  <SCORE.INTRA.REPUL>
-0.00912235

>  <SCORE.INTRA.REPUL.0>
0.00912235

>  <SCORE.INTRA.SOLV>
-1.40539

>  <SCORE.INTRA.SOLV.lig_0>
-53.9067

>  <SCORE.INTRA.VDW>
-0.98738

>  <SCORE.INTRA.VDW.0>
-2.93492

>  <SCORE.INTRA.norm>
-0.516316

>  <SCORE.RESTR>
0

>  <SCORE.RESTR.CAVITY>
0

>  <SCORE.RESTR.norm>
0

>  <SCORE.SYSTEM>
0

>  <SCORE.SYSTEM.CONST>
0

>  <SCORE.SYSTEM.DIHEDRAL>
0

>  <SCORE.SYSTEM.SOLV>
0

>  <SCORE.SYSTEM.norm>
0

>  <SCORE.heavy>
37

>  <SCORE.norm>
-1.38966

>  <RMSD>
9.279

$$$$
lig.pdb
 OpenBabel11021811453D
libRbt.so/2013.1/901 2013/11/27
 37 40  0  0  0  0  0  0  0  0999 V2000
    2.0678    4.5349    9.7458 C   0  0  2  0  0  0  0  0  0  0  0  0
    1.7840    4.6025    8.2089 C   0  0  1  0  0  0  0  0  0  0  0  0
    0.9356    5.8400    7.7936 C   0  0  0  0  0  0  0  0  0  0  0  0
   -0.3150    5.9867    8.6956 C   0  0  1  0  0  0  0  0  0  0  0  0
    0.1110    6.0490   10.1795 C   0  0  1  0  0  0  0  0  0  0  0  0
   -1.1203    6.2432   11.1046 C   0  0  1  0  0  0  0  0  0  0  0  0
   -1.9601    7.4776   10.6598 C   0  0  1  0  0  0  0  0  0  0  0  0
   -2.3057    7.4316    9.1417 C   0  0  2  0  0  0  0  0  0  0  0  0
   -2.9028    8.2367   12.7926 C   0  0  0  0  0  0  0  0  0  0  0  0
    0.8794    4.8639   10.5362 O   0  0  0  0  0  0  0  0  0  0  0  0
   -1.1248    7.1418    8.3323 O   0  0  0  0  0  0  0  0  0  0  0  0
    3.0621    4.6045    7.4646 N   0  0  0  0  0  0  0  0  0  0  0  0
   -3.1714    7.5685   11.5009 N   0  0  0  0  0  0  0  0  0  0  0  0
   -1.9189    5.0679   11.1551 O   0  0  0  0  0  0  0  0  0  0  0  0
   -2.9399    8.6765    8.7263 O   0  0  0  0  0  0  0  0  0  0  0  0
    3.1827    5.4026   10.1154 O   0  0  0  0  0  0  0  0  0  0  0  0
   -2.1546    9.9074    8.7712 C   0  0  2  0  0  0  0  0  0  0  0  0
   -3.0274   11.1393    8.3980 C   0  0  1  0  0  0  0  0  0  0  0  0
   -3.3975   11.1462    6.8871 C   0  0  2  0  0  0  0  0  0  0  0  0
   -2.1282   11.0093    5.9972 C   0  0  1  0  0  0  0  0  0  0  0  0
   -1.2682    9.7878    6.4259 C   0  0  1  0  0  0  0  0  0  0  0  0
    0.0670    9.7168    5.6394 C   0  0  0  0  0  0  0  0  0  0  0  0
   -1.0156    9.8226    7.8634 O   0  0  0  0  0  0  0  0  0  0  0  0
   -2.4789   10.9455    4.5614 N   0  0  0  0  0  0  0  0  0  0  0  0
   -4.1869   11.2012    9.2265 O   0  0  0  0  0  0  0  0  0  0  0  0
   -4.1419   12.3133    6.5447 O   0  0  0  0  0  0  0  0  0  0  0  0
    0.7858    8.5320    5.9664 O   0  0  0  0  0  0  0  0  0  0  0  0
    3.6345    5.3718   11.5006 C   0  0  1  0  0  0  0  0  0  0  0  0
    2.6933    6.1796   12.4375 C   0  0  1  0  0  0  0  0  0  0  0  0
    3.2448    6.2148   13.8907 C   0  0  2  0  0  0  0  0  0  0  0  0
    3.5369    4.7855   14.4525 C   0  0  1  0  0  0  0  0  0  0  0  0
    4.3677    3.9058   13.4708 C   0  0  0  0  0  0  0  0  0  0  0  0
    3.7932    3.9153   12.0221 C   0  0  2  0  0  0  0  0  0  0  0  0
    4.1948    4.8650   15.7742 N   0  0  0  0  0  0  0  0  0  0  0  0
    4.6644    3.1027   11.1457 N   0  0  0  0  0  0  0  0  0  0  0  0
    2.4938    7.4989   11.9402 O   0  0  0  0  0  0  0  0  0  0  0  0
    2.3449    6.9128   14.7478 O   0  0  0  0  0  0  0  0  0  0  0  0
  1  2  1  0  0  0  0
  1 16  1  6  0  0  0
  2  3  1  0  0  0  0
  2 12  1  6  0  0  0
  4 11  1  6  0  0  0
  4  3  1  0  0  0  0
  5  4  1  0  0  0  0
  5 10  1  1  0  0  0
  6  7  1  0  0  0  0
  6  5  1  0  0  0  0
  6 14  1  6  0  0  0
  7  8  1  0  0  0  0
  7 13  1  1  0  0  0
  8 15  1  6  0  0  0
  8 11  1  0  0  0  0
  9 13  1  0  0  0  0
 10  1  1  0  0  0  0
 17 15  1  6  0  0  0
 17 18  1  0  0  0  0
 18 25  1  1  0  0  0
 19 18  1  0  0  0  0
 19 26  1  6  0  0  0
 20 19  1  0  0  0  0
 20 24  1  6  0  0  0
 21 23  1  0  0  0  0
 21 20  1  0  0  0  0
 21 22  1  6  0  0  0
 23 17  1  0  0  0  0
 27 22  1  0  0  0  0
 28 29  1  0  0  0  0
 28 16  1  6  0  0  0
 29 36  1  6  0  0  0
 30 37  1  1  0  0  0
 30 29  1  0  0  0  0
 31 30  1  0  0  0  0
 31 34  1  1  0  0  0
 32 31  1  0  0  0  0
 32 33  1  0  0  0  0
 33 28  1  0  0  0  0
 33 35  1  6  0  0  0
M  END
>  <CHROM.1>
-38.84584313,65.56543998,82.60207279,38.15496187,-175.65536513,-175.45410132
178.63702649,-66.06608454,-175.10582039,97.12076378,64.99805460,-77.70662192
-59.39321559,-174.76881474,-171.28244402,27.30627772,0.15264959,7.27351289
9.82500826,-0.69753503,0.65628943,-1.41104113

>  <Name>
lig.pdb

>  <RI>
3.87352e+07

>  <Rbt.Current_Directory>
/home/itssahil/PROJECTS/Mol_Feturizer/New_Systems/rnas/2m4q

>  <Rbt.Executable>
rbdock ($Id: //depot/dev/client3/rdock/2013.1/src/exe/rbdock.cxx#4 $)

>  <Rbt.Library>
libRbt.so (2013.1, Build901 2013/11/27)

>  <Rbt.Parameter_File>
/export/apps/rDock/src/rDock_2013.1_src/data/scripts/dock_solv.prm

>  <Rbt.Receptor>
prm/pocket_docking_4.prm

>  <SCORE>
-51.3452

>  <SCORE.INTER>
-32.5595

>  <SCORE.INTER.CONST>
1

>  <SCORE.INTER.POLAR>
-4.73514

>  <SCORE.INTER.ROT>
10

>  <SCORE.INTER.SOLV>
17.3534

>  <SCORE.INTER.VDW>
-21.9737

>  <SCORE.INTER.norm>
-0.879987

>  <SCORE.INTRA>
-18.7856

>  <SCORE.INTRA.DIHEDRAL>
-35.2836

>  <SCORE.INTRA.DIHEDRAL.0>
44.8331

>  <SCORE.INTRA.POLAR>
-0.191727

>  <SCORE.INTRA.POLAR.0>
-0.108895

>  <SCORE.INTRA.REPUL>
-0.00912235

>  <SCORE.INTRA.REPUL.0>
0.00912235

>  <SCORE.INTRA.SOLV>
-0.831896

>  <SCORE.INTRA.SOLV.lig_0>
-53.9067

>  <SCORE.INTRA.VDW>
-0.0303996

>  <SCORE.INTRA.VDW.0>
-2.93492

>  <SCORE.INTRA.norm>
-0.50772

>  <SCORE.RESTR>
0

>  <SCORE.RESTR.CAVITY>
0

>  <SCORE.RESTR.norm>
0

>  <SCORE.SYSTEM>
0

>  <SCORE.SYSTEM.CONST>
0

>  <SCORE.SYSTEM.DIHEDRAL>
0

>  <SCORE.SYSTEM.SOLV>
0

>  <SCORE.SYSTEM.norm>
0

>  <SCORE.heavy>
37

>  <SCORE.norm>
-1.38771

>  <RMSD>
9.291

$$$$
lig.pdb
 OpenBabel11021811453D
libRbt.so/2013.1/901 2013/11/27
 37 40  0  0  0  0  0  0  0  0999 V2000
    2.2110    6.6149    7.4536 C   0  0  2  0  0  0  0  0  0  0  0  0
    1.5366    7.8694    6.8065 C   0  0  1  0  0  0  0  0  0  0  0  0
    0.6509    8.6743    7.8022 C   0  0  0  0  0  0  0  0  0  0  0  0
   -0.3137    7.7386    8.5722 C   0  0  1  0  0  0  0  0  0  0  0  0
    0.4882    6.6245    9.2815 C   0  0  1  0  0  0  0  0  0  0  0  0
   -0.4503    5.6981   10.1004 C   0  0  1  0  0  0  0  0  0  0  0  0
   -1.3355    6.5277   11.0776 C   0  0  1  0  0  0  0  0  0  0  0  0
   -2.0684    7.6953   10.3524 C   0  0  2  0  0  0  0  0  0  0  0  0
   -1.7373    5.1178   13.0434 C   0  0  0  0  0  0  0  0  0  0  0  0
    1.2832    5.8788    8.3151 O   0  0  0  0  0  0  0  0  0  0  0  0
   -1.1513    8.4659    9.5164 O   0  0  0  0  0  0  0  0  0  0  0  0
    2.5743    8.7560    6.2366 N   0  0  0  0  0  0  0  0  0  0  0  0
   -2.2802    5.6222   11.7636 N   0  0  0  0  0  0  0  0  0  0  0  0
   -1.2466    4.8856    9.2476 O   0  0  0  0  0  0  0  0  0  0  0  0
   -2.7472    8.5487   11.3195 O   0  0  0  0  0  0  0  0  0  0  0  0
    3.4122    6.9857    8.1966 O   0  0  0  0  0  0  0  0  0  0  0  0
   -1.9486    9.4928   12.0971 C   0  0  2  0  0  0  0  0  0  0  0  0
   -2.8425   10.3030   13.0786 C   0  0  1  0  0  0  0  0  0  0  0  0
   -3.7493   11.3188   12.3265 C   0  0  2  0  0  0  0  0  0  0  0  0
   -2.9114   12.2254   11.3789 C   0  0  1  0  0  0  0  0  0  0  0  0
   -2.0081   11.3776   10.4405 C   0  0  1  0  0  0  0  0  0  0  0  0
   -1.0676   12.2668    9.5855 C   0  0  0  0  0  0  0  0  0  0  0  0
   -1.2358   10.4104   11.2148 O   0  0  0  0  0  0  0  0  0  0  0  0
   -3.7752   13.1471   10.6090 N   0  0  0  0  0  0  0  0  0  0  0  0
   -3.6050    9.4240   13.9036 O   0  0  0  0  0  0  0  0  0  0  0  0
   -4.5156   12.1002   13.2406 O   0  0  0  0  0  0  0  0  0  0  0  0
   -1.8182   13.1417    8.7497 O   0  0  0  0  0  0  0  0  0  0  0  0
    4.3287    5.9188    8.5783 C   0  0  1  0  0  0  0  0  0  0  0  0
    3.7872    5.0871    9.7747 C   0  0  1  0  0  0  0  0  0  0  0  0
    4.8213    4.0181   10.2276 C   0  0  2  0  0  0  0  0  0  0  0  0
    5.2892    3.1040    9.0489 C   0  0  1  0  0  0  0  0  0  0  0  0
    5.7113    3.9119    7.7852 C   0  0  0  0  0  0  0  0  0  0  0  0
    4.6575    4.9857    7.3785 C   0  0  2  0  0  0  0  0  0  0  0  0
    6.3759    2.2009    9.4841 N   0  0  0  0  0  0  0  0  0  0  0  0
    5.1552    5.7398    6.2076 N   0  0  0  0  0  0  0  0  0  0  0  0
    3.4284    5.9356   10.8604 O   0  0  0  0  0  0  0  0  0  0  0  0
    4.2895    3.2294   11.2891 O   0  0  0  0  0  0  0  0  0  0  0  0
  1  2  1  0  0  0  0
  1 16  1  1  0  0  0
  2  3  1  0  0  0  0
  2 12  1  1  0  0  0
  4 11  1  1  0  0  0
  4  3  1  0  0  0  0
  5  4  1  0  0  0  0
  5 10  1  6  0  0  0
  6  7  1  0  0  0  0
  6  5  1  0  0  0  0
  6 14  1  6  0  0  0
  7  8  1  0  0  0  0
  7 13  1  6  0  0  0
  8 15  1  1  0  0  0
  8 11  1  0  0  0  0
  9 13  1  0  0  0  0
 10  1  1  0  0  0  0
 17 15  1  6  0  0  0
 17 18  1  0  0  0  0
 18 25  1  6  0  0  0
 19 18  1  0  0  0  0
 19 26  1  1  0  0  0
 20 19  1  0  0  0  0
 20 24  1  6  0  0  0
 21 23  1  0  0  0  0
 21 20  1  0  0  0  0
 21 22  1  1  0  0  0
 23 17  1  0  0  0  0
 27 22  1  0  0  0  0
 28 29  1  0  0  0  0
 28 16  1  6  0  0  0
 29 36  1  1  0  0  0
 30 37  1  1  0  0  0
 30 29  1  0  0  0  0
 31 30  1  0  0  0  0
 31 34  1  1  0  0  0
 32 31  1  0  0  0  0
 32 33  1  0  0  0  0
 33 28  1  0  0  0  0
 33 35  1  6  0  0  0
M  END
>  <CHROM.1>
88.70504949,76.86377487,91.90862570,46.23683159,-179.54498703,-165.28395638
-175.55921786,67.53846591,-61.04501666,-72.16881365,-57.83376646,-75.56622439
64.34742435,67.02905205,-174.55855588,-80.44075162,0.43412563,7.61370444
9.92016766,-0.35273605,0.68901856,-0.62269973

>  <Name>
lig.pdb

>  <RI>
0

>  <Rbt.Current_Directory>
/home/itssahil/PROJECTS/Mol_Feturizer/New_Systems/rnas/2m4q

>  <Rbt.Executable>
rbdock ($Id: //depot/dev/client3/rdock/2013.1/src/exe/rbdock.cxx#4 $)

>  <Rbt.Library>
libRbt.so (2013.1, Build901 2013/11/27)

>  <Rbt.Parameter_File>
/export/apps/rDock/src/rDock_2013.1_src/data/scripts/dock_solv.prm

>  <Rbt.Receptor>
prm/pocket_docking_6.prm

>  <SCORE>
-48.0123

>  <SCORE.INTER>
-28.8413

>  <SCORE.INTER.CONST>
1

>  <SCORE.INTER.POLAR>
-5.80912

>  <SCORE.INTER.ROT>
10

>  <SCORE.INTER.SOLV>
17.0434

>  <SCORE.INTER.VDW>
-15.8116

>  <SCORE.INTER.norm>
-0.779494

>  <SCORE.INTRA>
-19.171

>  <SCORE.INTRA.DIHEDRAL>
-35.6019

>  <SCORE.INTRA.DIHEDRAL.0>
44.8331

>  <SCORE.INTRA.POLAR>
-0.214071

>  <SCORE.INTRA.POLAR.0>
-0.108895

>  <SCORE.INTRA.REPUL>
-0.00912235

>  <SCORE.INTRA.REPUL.0>
0.00912235

>  <SCORE.INTRA.SOLV>
-0.537485

>  <SCORE.INTRA.SOLV.lig_0>
-53.9067

>  <SCORE.INTRA.VDW>
-0.327895

>  <SCORE.INTRA.VDW.0>
-2.93492

>  <SCORE.INTRA.norm>
-0.518136

>  <SCORE.RESTR>
0

>  <SCORE.RESTR.CAVITY>
0

>  <SCORE.RESTR.norm>
0

>  <SCORE.SYSTEM>
0

>  <SCORE.SYSTEM.CONST>
0

>  <SCORE.SYSTEM.DIHEDRAL>
0

>  <SCORE.SYSTEM.SOLV>
0

>  <SCORE.SYSTEM.norm>
0

>  <SCORE.heavy>
37

>  <SCORE.norm>
-1.29763

>  <RMSD>
9.296

$$$$
lig.pdb
 OpenBabel11021811453D
libRbt.so/2013.1/901 2013/11/27
 37 40  0  0  0  0  0  0  0  0999 V2000
    1.1682    5.8956    8.0017 C   0  0  2  0  0  0  0  0  0  0  0  0
    0.2429    6.7816    7.1039 C   0  0  1  0  0  0  0  0  0  0  0  0
   -0.5123    7.8860    7.8998 C   0  0  0  0  0  0  0  0  0  0  0  0
   -1.1945    7.2974    9.1596 C   0  0  1  0  0  0  0  0  0  0  0  0
   -0.1484    6.5684   10.0323 C   0  0  1  0  0  0  0  0  0  0  0  0
   -0.7964    6.0080   11.3268 C   0  0  1  0  0  0  0  0  0  0  0  0
   -1.5576    7.1281   12.0967 C   0  0  1  0  0  0  0  0  0  0  0  0
   -2.5456    7.9021   11.1742 C   0  0  2  0  0  0  0  0  0  0  0  0
   -1.8450    7.1892   14.5314 C   0  0  0  0  0  0  0  0  0  0  0  0
    0.5177    5.5273    9.2612 O   0  0  0  0  0  0  0  0  0  0  0  0
   -1.9044    8.3117    9.9272 O   0  0  0  0  0  0  0  0  0  0  0  0
    1.0413    7.4046    6.0259 N   0  0  0  0  0  0  0  0  0  0  0  0
   -2.2404    6.5352   13.2653 N   0  0  0  0  0  0  0  0  0  0  0  0
   -1.6499    4.9070   11.0423 O   0  0  0  0  0  0  0  0  0  0  0  0
   -3.1106    9.0457   11.8796 O   0  0  0  0  0  0  0  0  0  0  0  0
    2.4436    6.5579    8.2607 O   0  0  0  0  0  0  0  0  0  0  0  0
   -2.1985   10.0479   12.4251 C   0  0  2  0  0  0  0  0  0  0  0  0
   -2.9696   11.1031   13.2681 C   0  0  1  0  0  0  0  0  0  0  0  0
   -3.8387   12.0320   12.3727 C   0  0  2  0  0  0  0  0  0  0  0  0
   -2.9907   12.6673   11.2328 C   0  0  1  0  0  0  0  0  0  0  0  0
   -2.2107   11.5825   10.4388 C   0  0  1  0  0  0  0  0  0  0  0  0
   -1.2566   12.2096    9.3887 C   0  0  0  0  0  0  0  0  0  0  0  0
   -1.4705   10.7170   11.3523 O   0  0  0  0  0  0  0  0  0  0  0  0
   -3.8252   13.4970   10.3364 N   0  0  0  0  0  0  0  0  0  0  0  0
   -3.7475   10.4651   14.2793 O   0  0  0  0  0  0  0  0  0  0  0  0
   -4.4888   13.0353   13.1499 O   0  0  0  0  0  0  0  0  0  0  0  0
   -0.6850   11.2040    8.5584 O   0  0  0  0  0  0  0  0  0  0  0  0
    3.5738    5.7233    8.6481 C   0  0  1  0  0  0  0  0  0  0  0  0
    3.1939    4.7120    9.7657 C   0  0  1  0  0  0  0  0  0  0  0  0
    4.4349    3.8994   10.2315 C   0  0  2  0  0  0  0  0  0  0  0  0
    5.1714    3.2016    9.0422 C   0  0  1  0  0  0  0  0  0  0  0  0
    5.4450    4.1651    7.8487 C   0  0  0  0  0  0  0  0  0  0  0  0
    4.1815    4.9747    7.4280 C   0  0  2  0  0  0  0  0  0  0  0  0
    6.4235    2.5634    9.5017 N   0  0  0  0  0  0  0  0  0  0  0  0
    4.5367    5.8987    6.3291 N   0  0  0  0  0  0  0  0  0  0  0  0
    2.5837    5.3786   10.8661 O   0  0  0  0  0  0  0  0  0  0  0  0
    4.0606    2.9405   11.2174 O   0  0  0  0  0  0  0  0  0  0  0  0
  1  2  1  0  0  0  0
  1 16  1  1  0  0  0
  2  3  1  0  0  0  0
  2 12  1  6  0  0  0
  4 11  1  1  0  0  0
  4  3  1  0  0  0  0
  5  4  1  0  0  0  0
  5 10  1  6  0  0  0
  6  7  1  0  0  0  0
  6  5  1  0  0  0  0
  6 14  1  6  0  0  0
  7  8  1  0  0  0  0
  7 13  1  1  0  0  0
  8 15  1  1  0  0  0
  8 11  1  0  0  0  0
  9 13  1  0  0  0  0
 10  1  1  0  0  0  0
 17 15  1  6  0  0  0
 17 18  1  0  0  0  0
 18 25  1  1  0  0  0
 19 18  1  0  0  0  0
 19 26  1  1  0  0  0
 20 19  1  0  0  0  0
 20 24  1  6  0  0  0
 21 23  1  0  0  0  0
 21 20  1  0  0  0  0
 21 22  1  6  0  0  0
 23 17  1  0  0  0  0
 27 22  1  0  0  0  0
 28 29  1  0  0  0  0
 28 16  1  6  0  0  0
 29 36  1  1  0  0  0
 30 37  1  1  0  0  0
 30 29  1  0  0  0  0
 31 30  1  0  0  0  0
 31 34  1  1  0  0  0
 32 31  1  0  0  0  0
 32 33  1  0  0  0  0
 33 28  1  0  0  0  0
 33 35  1  6  0  0  0
M  END
>  <CHROM.1>
-44.79341088,57.48029652,123.80746621,77.15980935,-173.90440531,-158.39473969
-53.11396343,62.36877900,-172.43712886,36.77391523,-58.49168336,-47.48605422
179.85806361,61.91849133,164.16773710,-72.33281341,0.03181491,7.66007258
10.25590282,-0.20927879,0.79180504,-0.84517242

>  <Name>
lig.pdb

>  <RI>
3.87352e+07

>  <Rbt.Current_Directory>
/home/itssahil/PROJECTS/Mol_Feturizer/New_Systems/rnas/2m4q

>  <Rbt.Executable>
rbdock ($Id: //depot/dev/client3/rdock/2013.1/src/exe/rbdock.cxx#4 $)

>  <Rbt.Library>
libRbt.so (2013.1, Build901 2013/11/27)

>  <Rbt.Parameter_File>
/export/apps/rDock/src/rDock_2013.1_src/data/scripts/dock_solv.prm

>  <Rbt.Receptor>
prm/pocket_docking_4.prm

>  <SCORE>
-49.8085

>  <SCORE.INTER>
-31.2308

>  <SCORE.INTER.CONST>
1

>  <SCORE.INTER.POLAR>
-5.57111

>  <SCORE.INTER.ROT>
10

>  <SCORE.INTER.SOLV>
17.677

>  <SCORE.INTER.VDW>
-18.4091

>  <SCORE.INTER.norm>
-0.844074

>  <SCORE.INTRA>
-18.8265

>  <SCORE.INTRA.DIHEDRAL>
-35.2111

>  <SCORE.INTRA.DIHEDRAL.0>
44.8331

>  <SCORE.INTRA.POLAR>
-0.0449482

>  <SCORE.INTRA.POLAR.0>
-0.108895

>  <SCORE.INTRA.REPUL>
-0.00912235

>  <SCORE.INTRA.REPUL.0>
0.00912235

>  <SCORE.INTRA.SOLV>
-0.0694171

>  <SCORE.INTRA.SOLV.lig_0>
-53.9067

>  <SCORE.INTRA.VDW>
-0.987766

>  <SCORE.INTRA.VDW.0>
-2.93492

>  <SCORE.INTRA.norm>
-0.508824

>  <SCORE.RESTR>
0.24872

>  <SCORE.RESTR.CAVITY>
0.24872

>  <SCORE.RESTR.norm>
0.00672216

>  <SCORE.SYSTEM>
0

>  <SCORE.SYSTEM.CONST>
0

>  <SCORE.SYSTEM.DIHEDRAL>
0

>  <SCORE.SYSTEM.SOLV>
0

>  <SCORE.SYSTEM.norm>
0

>  <SCORE.heavy>
37

>  <SCORE.norm>
-1.34618

>  <RMSD>
9.298

$$$$
lig.pdb
 OpenBabel11021811453D
libRbt.so/2013.1/901 2013/11/27
 37 40  0  0  0  0  0  0  0  0999 V2000
    2.4203    4.5582    9.7488 C   0  0  2  0  0  0  0  0  0  0  0  0
    2.2445    4.5409    8.1945 C   0  0  1  0  0  0  0  0  0  0  0  0
    1.3968    5.7314    7.6578 C   0  0  0  0  0  0  0  0  0  0  0  0
    0.0822    5.8869    8.4620 C   0  0  1  0  0  0  0  0  0  0  0  0
    0.4003    6.0352    9.9667 C   0  0  1  0  0  0  0  0  0  0  0  0
   -0.8980    6.2398   10.7927 C   0  0  1  0  0  0  0  0  0  0  0  0
   -1.7349    7.4259   10.2274 C   0  0  1  0  0  0  0  0  0  0  0  0
   -1.9708    7.2944    8.6934 C   0  0  2  0  0  0  0  0  0  0  0  0
   -2.8388    8.2365   12.2616 C   0  0  0  0  0  0  0  0  0  0  0  0
    1.1711    4.8919   10.4367 O   0  0  0  0  0  0  0  0  0  0  0  0
   -0.7286    6.9987    7.9840 O   0  0  0  0  0  0  0  0  0  0  0  0
    3.5717    4.5425    7.5418 N   0  0  0  0  0  0  0  0  0  0  0  0
   -3.0047    7.5238   10.9765 N   0  0  0  0  0  0  0  0  0  0  0  0
   -1.6684    5.0461   10.8483 O   0  0  0  0  0  0  0  0  0  0  0  0
   -2.6051    8.4983    8.1711 O   0  0  0  0  0  0  0  0  0  0  0  0
    3.4841    5.4748   10.1496 O   0  0  0  0  0  0  0  0  0  0  0  0
   -2.0464    9.7965    8.5404 C   0  0  2  0  0  0  0  0  0  0  0  0
   -2.9156   10.9575    7.9789 C   0  0  1  0  0  0  0  0  0  0  0  0
   -2.7911   11.0742    6.4327 C   0  0  2  0  0  0  0  0  0  0  0  0
   -1.3006   11.1646    5.9944 C   0  0  1  0  0  0  0  0  0  0  0  0
   -0.4622   10.0071    6.6049 C   0  0  1  0  0  0  0  0  0  0  0  0
    1.0490   10.1596    6.2894 C   0  0  0  0  0  0  0  0  0  0  0  0
   -0.6798    9.9262    8.0462 O   0  0  0  0  0  0  0  0  0  0  0  0
   -1.1719   11.2060    4.5212 N   0  0  0  0  0  0  0  0  0  0  0  0
   -4.2735   10.8108    8.3902 O   0  0  0  0  0  0  0  0  0  0  0  0
   -3.5405   12.1819    5.9379 O   0  0  0  0  0  0  0  0  0  0  0  0
    1.5692   11.3536    6.8648 O   0  0  0  0  0  0  0  0  0  0  0  0
    3.9147    5.4454   11.5416 C   0  0  1  0  0  0  0  0  0  0  0  0
    2.7955    5.9266   12.5070 C   0  0  1  0  0  0  0  0  0  0  0  0
    3.3061    5.9796   13.9746 C   0  0  2  0  0  0  0  0  0  0  0  0
    3.9300    4.6233   14.4383 C   0  0  1  0  0  0  0  0  0  0  0  0
    4.9601    4.0495   13.4197 C   0  0  0  0  0  0  0  0  0  0  0  0
    4.4163    4.0338   11.9593 C   0  0  2  0  0  0  0  0  0  0  0  0
    4.5345    4.7552   15.7812 N   0  0  0  0  0  0  0  0  0  0  0  0
    5.4680    3.5264   11.0517 N   0  0  0  0  0  0  0  0  0  0  0  0
    2.2874    7.1937   12.1022 O   0  0  0  0  0  0  0  0  0  0  0  0
    2.2545    6.3708   14.8537 O   0  0  0  0  0  0  0  0  0  0  0  0
  1  2  1  0  0  0  0
  1 16  1  6  0  0  0
  2  3  1  0  0  0  0
  2 12  1  6  0  0  0
  4 11  1  6  0  0  0
  4  3  1  0  0  0  0
  5  4  1  0  0  0  0
  5 10  1  1  0  0  0
  6  7  1  0  0  0  0
  6  5  1  0  0  0  0
  6 14  1  6  0  0  0
  7  8  1  0  0  0  0
  7 13  1  1  0  0  0
  8 15  1  6  0  0  0
  8 11  1  0  0  0  0
  9 13  1  0  0  0  0
 10  1  1  0  0  0  0
 17 15  1  6  0  0  0
 17 18  1  0  0  0  0
 18 25  1  6  0  0  0
 19 18  1  0  0  0  0
 19 26  1  1  0  0  0
 20 19  1  0  0  0  0
 20 24  1  6  0  0  0
 21 23  1  0  0  0  0
 21 20  1  0  0  0  0
 21 22  1  1  0  0  0
 23 17  1  0  0  0  0
 27 22  1  0  0  0  0
 28 29  1  0  0  0  0
 28 16  1  6  0  0  0
 29 36  1  6  0  0  0
 30 37  1  1  0  0  0
 30 29  1  0  0  0  0
 31 30  1  0  0  0  0
 31 34  1  1  0  0  0
 32 31  1  0  0  0  0
 32 33  1  0  0  0  0
 33 28  1  0  0  0  0
 33 35  1  6  0  0  0
M  END
>  <CHROM.1>
-160.31355786,48.24234583,81.31544142,48.38154473,-175.71950587,-170.39787766
-50.37170411,-61.69008965,62.42533019,-59.54194943,60.97204960,-66.03012136
179.38357171,61.37224402,-177.16677798,56.67151163,0.53129444,7.31543977
9.70644543,-0.83372327,0.51378201,-1.19992319

>  <Name>
lig.pdb

>  <RI>
2.86754e+07

>  <Rbt.Current_Directory>
/home/itssahil/PROJECTS/Mol_Feturizer/New_Systems/rnas/2m4q

>  <Rbt.Executable>
rbdock ($Id: //depot/dev/client3/rdock/2013.1/src/exe/rbdock.cxx#4 $)

>  <Rbt.Library>
libRbt.so (2013.1, Build901 2013/11/27)

>  <Rbt.Parameter_File>
/export/apps/rDock/src/rDock_2013.1_src/data/scripts/dock_solv.prm

>  <Rbt.Receptor>
prm/pocket_docking_5.prm

>  <SCORE>
-51.0445

>  <SCORE.INTER>
-29.6207

>  <SCORE.INTER.CONST>
1

>  <SCORE.INTER.POLAR>
-4.53066

>  <SCORE.INTER.ROT>
10

>  <SCORE.INTER.SOLV>
14.5139

>  <SCORE.INTER.VDW>
-19.7496

>  <SCORE.INTER.norm>
-0.80056

>  <SCORE.INTRA>
-21.4238

>  <SCORE.INTRA.DIHEDRAL>
-40.1599

>  <SCORE.INTRA.DIHEDRAL.0>
44.8331

>  <SCORE.INTRA.POLAR>
-0.0390281

>  <SCORE.INTRA.POLAR.0>
-0.108895

>  <SCORE.INTRA.REPUL>
-0.00912235

>  <SCORE.INTRA.REPUL.0>
0.00912235

>  <SCORE.INTRA.SOLV>
-0.583226

>  <SCORE.INTRA.SOLV.lig_0>
-53.9067

>  <SCORE.INTRA.VDW>
-0.873901

>  <SCORE.INTRA.VDW.0>
-2.93492

>  <SCORE.INTRA.norm>
-0.579021

>  <SCORE.RESTR>
0

>  <SCORE.RESTR.CAVITY>
0

>  <SCORE.RESTR.norm>
0

>  <SCORE.SYSTEM>
0

>  <SCORE.SYSTEM.CONST>
0

>  <SCORE.SYSTEM.DIHEDRAL>
0

>  <SCORE.SYSTEM.SOLV>
0

>  <SCORE.SYSTEM.norm>
0

>  <SCORE.heavy>
37

>  <SCORE.norm>
-1.37958

>  <RMSD>
9.328

$$$$
lig.pdb
 OpenBabel11021811453D
libRbt.so/2013.1/901 2013/11/27
 37 40  0  0  0  0  0  0  0  0999 V2000
    1.8218    4.7597    9.8846 C   0  0  2  0  0  0  0  0  0  0  0  0
    1.5542    4.7625    8.3434 C   0  0  1  0  0  0  0  0  0  0  0  0
    0.7339    5.9956    7.8634 C   0  0  0  0  0  0  0  0  0  0  0  0
   -0.5222    6.2068    8.7447 C   0  0  1  0  0  0  0  0  0  0  0  0
   -0.1095    6.3286   10.2286 C   0  0  1  0  0  0  0  0  0  0  0  0
   -1.3457    6.5880   11.1310 C   0  0  1  0  0  0  0  0  0  0  0  0
   -2.1571    7.8164   10.6218 C   0  0  1  0  0  0  0  0  0  0  0  0
   -2.4889    7.7078    9.1038 C   0  0  2  0  0  0  0  0  0  0  0  0
   -3.1966    8.9661   12.5221 C   0  0  0  0  0  0  0  0  0  0  0  0
    0.6325    5.1467   10.6468 O   0  0  0  0  0  0  0  0  0  0  0  0
   -1.3060    7.3592    8.3208 O   0  0  0  0  0  0  0  0  0  0  0  0
    2.8393    4.7064    7.6133 N   0  0  0  0  0  0  0  0  0  0  0  0
   -3.3745    7.9684   11.4451 N   0  0  0  0  0  0  0  0  0  0  0  0
   -2.1673    5.4315   11.2264 O   0  0  0  0  0  0  0  0  0  0  0  0
   -3.0949    8.9442    8.6256 O   0  0  0  0  0  0  0  0  0  0  0  0
    2.9497    5.6221   10.2261 O   0  0  0  0  0  0  0  0  0  0  0  0
   -2.2636   10.1428    8.5475 C   0  0  2  0  0  0  0  0  0  0  0  0
   -3.0949   11.3674    8.0699 C   0  0  1  0  0  0  0  0  0  0  0  0
   -3.4852   11.2482    6.5688 C   0  0  2  0  0  0  0  0  0  0  0  0
   -2.2342   10.9805    5.6826 C   0  0  1  0  0  0  0  0  0  0  0  0
   -1.4145    9.7720    6.2147 C   0  0  1  0  0  0  0  0  0  0  0  0
   -0.0938    9.5770    5.4248 C   0  0  0  0  0  0  0  0  0  0  0  0
   -1.1412    9.9304    7.6401 O   0  0  0  0  0  0  0  0  0  0  0  0
   -2.6067   10.7972    4.2627 N   0  0  0  0  0  0  0  0  0  0  0  0
   -4.2398   11.5505    8.9007 O   0  0  0  0  0  0  0  0  0  0  0  0
   -4.1901   12.4062    6.1265 O   0  0  0  0  0  0  0  0  0  0  0  0
    0.6623    8.4956    5.9599 O   0  0  0  0  0  0  0  0  0  0  0  0
    3.4379    5.5868   11.5989 C   0  0  1  0  0  0  0  0  0  0  0  0
    2.5202    6.3891   12.5634 C   0  0  1  0  0  0  0  0  0  0  0  0
    3.1096    6.4197   14.0017 C   0  0  2  0  0  0  0  0  0  0  0  0
    3.4192    4.9888   14.5499 C   0  0  1  0  0  0  0  0  0  0  0  0
    4.2255    4.1146   13.5432 C   0  0  0  0  0  0  0  0  0  0  0  0
    3.6130    4.1286   12.1102 C   0  0  2  0  0  0  0  0  0  0  0  0
    4.1115    5.0644   15.8542 N   0  0  0  0  0  0  0  0  0  0  0  0
    4.4623    3.3212   11.2080 N   0  0  0  0  0  0  0  0  0  0  0  0
    2.3051    7.7099   12.0767 O   0  0  0  0  0  0  0  0  0  0  0  0
    2.2314    7.1126   14.8850 O   0  0  0  0  0  0  0  0  0  0  0  0
  1  2  1  0  0  0  0
  1 16  1  6  0  0  0
  2  3  1  0  0  0  0
  2 12  1  6  0  0  0
  4 11  1  6  0  0  0
  4  3  1  0  0  0  0
  5  4  1  0  0  0  0
  5 10  1  1  0  0  0
  6  7  1  0  0  0  0
  6  5  1  0  0  0  0
  6 14  1  6  0  0  0
  7  8  1  0  0  0  0
  7 13  1  1  0  0  0
  8 15  1  6  0  0  0
  8 11  1  0  0  0  0
  9 13  1  0  0  0  0
 10  1  1  0  0  0  0
 17 15  1  6  0  0  0
 17 18  1  0  0  0  0
 18 25  1  1  0  0  0
 19 18  1  0  0  0  0
 19 26  1  6  0  0  0
 20 19  1  0  0  0  0
 20 24  1  6  0  0  0
 21 23  1  0  0  0  0
 21 20  1  0  0  0  0
 21 22  1  6  0  0  0
 23 17  1  0  0  0  0
 27 22  1  0  0  0  0
 28 29  1  0  0  0  0
 28 16  1  6  0  0  0
 29 36  1  6  0  0  0
 30 37  1  1  0  0  0
 30 29  1  0  0  0  0
 31 30  1  0  0  0  0
 31 34  1  1  0  0  0
 32 31  1  0  0  0  0
 32 33  1  0  0  0  0
 33 28  1  0  0  0  0
 33 35  1  6  0  0  0
M  END
>  <CHROM.1>
-170.08841096,69.17049247,97.07873378,-173.28765136,-177.82577712,-171.91786681
-178.18266694,59.56532576,177.90624980,-69.21486503,-56.31203223,-77.34264114
179.82498812,-179.93321139,-64.45788675,27.38329490,-0.01681965,7.47438606
9.78640732,-0.70217047,0.67104009,-1.45839202

>  <Name>
lig.pdb

>  <RI>
3.87352e+07

>  <Rbt.Current_Directory>
/home/itssahil/PROJECTS/Mol_Feturizer/New_Systems/rnas/2m4q

>  <Rbt.Executable>
rbdock ($Id: //depot/dev/client3/rdock/2013.1/src/exe/rbdock.cxx#4 $)

>  <Rbt.Library>
libRbt.so (2013.1, Build901 2013/11/27)

>  <Rbt.Parameter_File>
/export/apps/rDock/src/rDock_2013.1_src/data/scripts/dock_solv.prm

>  <Rbt.Receptor>
prm/pocket_docking_4.prm

>  <SCORE>
-50.4895

>  <SCORE.INTER>
-29.2596

>  <SCORE.INTER.CONST>
1

>  <SCORE.INTER.POLAR>
-4.1572

>  <SCORE.INTER.ROT>
10

>  <SCORE.INTER.SOLV>
17.3881

>  <SCORE.INTER.VDW>
-21.7118

>  <SCORE.INTER.norm>
-0.790799

>  <SCORE.INTRA>
-21.23

>  <SCORE.INTRA.DIHEDRAL>
-38.3573

>  <SCORE.INTRA.DIHEDRAL.0>
44.8331

>  <SCORE.INTRA.POLAR>
-0.119716

>  <SCORE.INTRA.POLAR.0>
-0.108895

>  <SCORE.INTRA.REPUL>
-0.00912235

>  <SCORE.INTRA.REPUL.0>
0.00912235

>  <SCORE.INTRA.SOLV>
-0.571542

>  <SCORE.INTRA.SOLV.lig_0>
-53.9067

>  <SCORE.INTRA.VDW>
-1.31292

>  <SCORE.INTRA.VDW.0>
-2.93492

>  <SCORE.INTRA.norm>
-0.573783

>  <SCORE.RESTR>
0

>  <SCORE.RESTR.CAVITY>
0

>  <SCORE.RESTR.norm>
0

>  <SCORE.SYSTEM>
0

>  <SCORE.SYSTEM.CONST>
0

>  <SCORE.SYSTEM.DIHEDRAL>
0

>  <SCORE.SYSTEM.SOLV>
0

>  <SCORE.SYSTEM.norm>
0

>  <SCORE.heavy>
37

>  <SCORE.norm>
-1.36458

>  <RMSD>
9.331

$$$$
lig.pdb
 OpenBabel11021811453D
libRbt.so/2013.1/901 2013/11/27
 37 40  0  0  0  0  0  0  0  0999 V2000
    0.9366    5.5953    7.9296 C   0  0  2  0  0  0  0  0  0  0  0  0
   -0.0799    6.3462    7.0077 C   0  0  1  0  0  0  0  0  0  0  0  0
   -0.8377    7.4954    7.7351 C   0  0  0  0  0  0  0  0  0  0  0  0
   -1.4165    7.0126    9.0881 C   0  0  1  0  0  0  0  0  0  0  0  0
   -0.2883    6.4199    9.9617 C   0  0  1  0  0  0  0  0  0  0  0  0
   -0.8324    5.9701   11.3442 C   0  0  1  0  0  0  0  0  0  0  0  0
   -1.5983    7.1319   12.0444 C   0  0  1  0  0  0  0  0  0  0  0  0
   -2.6736    7.7664   11.1132 C   0  0  2  0  0  0  0  0  0  0  0  0
   -1.7221    7.4136   14.4774 C   0  0  0  0  0  0  0  0  0  0  0  0
    0.3791    5.3327    9.2583 O   0  0  0  0  0  0  0  0  0  0  0  0
   -2.1266    8.0710    9.7935 O   0  0  0  0  0  0  0  0  0  0  0  0
    0.6239    6.8867    5.8245 N   0  0  0  0  0  0  0  0  0  0  0  0
   -2.1829    6.6354   13.3073 N   0  0  0  0  0  0  0  0  0  0  0  0
   -1.6490    4.8122   11.2259 O   0  0  0  0  0  0  0  0  0  0  0  0
   -3.2487    8.9529   11.7347 O   0  0  0  0  0  0  0  0  0  0  0  0
    2.1929    6.3316    8.0399 O   0  0  0  0  0  0  0  0  0  0  0  0
   -2.5139   10.2122   11.6448 C   0  0  2  0  0  0  0  0  0  0  0  0
   -3.4277   11.4176   12.0062 C   0  0  1  0  0  0  0  0  0  0  0  0
   -4.4933   11.6829   10.9044 C   0  0  2  0  0  0  0  0  0  0  0  0
   -3.8302   11.8220    9.5034 C   0  0  1  0  0  0  0  0  0  0  0  0
   -2.8999   10.6151    9.1976 C   0  0  1  0  0  0  0  0  0  0  0  0
   -2.1270   10.8042    7.8660 C   0  0  0  0  0  0  0  0  0  0  0  0
   -1.9718   10.3951   10.3028 O   0  0  0  0  0  0  0  0  0  0  0  0
   -4.8437   12.0053    8.4414 N   0  0  0  0  0  0  0  0  0  0  0  0
   -4.0273   11.2258   13.2861 O   0  0  0  0  0  0  0  0  0  0  0  0
   -5.2818   12.8295   11.2160 O   0  0  0  0  0  0  0  0  0  0  0  0
   -2.9537   10.4887    6.7505 O   0  0  0  0  0  0  0  0  0  0  0  0
    3.3309    5.6438    8.6365 C   0  0  1  0  0  0  0  0  0  0  0  0
    2.9160    4.7969    9.8721 C   0  0  1  0  0  0  0  0  0  0  0  0
    4.1567    4.1504   10.5503 C   0  0  2  0  0  0  0  0  0  0  0  0
    5.0237    3.3252    9.5447 C   0  0  1  0  0  0  0  0  0  0  0  0
    5.3414    4.1062    8.2344 C   0  0  0  0  0  0  0  0  0  0  0  0
    4.0748    4.7553    7.5995 C   0  0  2  0  0  0  0  0  0  0  0  0
    6.2666    2.8503   10.1895 N   0  0  0  0  0  0  0  0  0  0  0  0
    4.4682    5.5175    6.3947 N   0  0  0  0  0  0  0  0  0  0  0  0
    2.1837    5.5857   10.8043 O   0  0  0  0  0  0  0  0  0  0  0  0
    3.7554    3.3348   11.6483 O   0  0  0  0  0  0  0  0  0  0  0  0
  1  2  1  0  0  0  0
  1 16  1  1  0  0  0
  2  3  1  0  0  0  0
  2 12  1  6  0  0  0
  4 11  1  1  0  0  0
  4  3  1  0  0  0  0
  5  4  1  0  0  0  0
  5 10  1  6  0  0  0
  6  7  1  0  0  0  0
  6  5  1  0  0  0  0
  6 14  1  6  0  0  0
  7  8  1  0  0  0  0
  7 13  1  1  0  0  0
  8 15  1  1  0  0  0
  8 11  1  0  0  0  0
  9 13  1  0  0  0  0
 10  1  1  0  0  0  0
 17 15  1  6  0  0  0
 17 18  1  0  0  0  0
 18 25  1  1  0  0  0
 19 18  1  0  0  0  0
 19 26  1  1  0  0  0
 20 19  1  0  0  0  0
 20 24  1  6  0  0  0
 21 23  1  0  0  0  0
 21 20  1  0  0  0  0
 21 22  1  6  0  0  0
 23 17  1  0  0  0  0
 27 22  1  0  0  0  0
 28 29  1  0  0  0  0
 28 16  1  6  0  0  0
 29 36  1  1  0  0  0
 30 37  1  1  0  0  0
 30 29  1  0  0  0  0
 31 30  1  0  0  0  0
 31 34  1  1  0  0  0
 32 31  1  0  0  0  0
 32 33  1  0  0  0  0
 33 28  1  0  0  0  0
 33 35  1  6  0  0  0
M  END
>  <CHROM.1>
-128.58325577,81.21189369,122.59347033,-178.47143282,164.54503372,-167.88889021
165.54143699,-55.08765682,-79.77258881,-65.70887408,-52.33451448,-41.16287895
175.55678920,65.63795345,66.59900450,-56.80363669,-0.34327252,7.46900780
9.86818282,-0.07902773,0.71791557,-1.21863954

>  <Name>
lig.pdb

>  <RI>
3.87352e+07

>  <Rbt.Current_Directory>
/home/itssahil/PROJECTS/Mol_Feturizer/New_Systems/rnas/2m4q

>  <Rbt.Executable>
rbdock ($Id: //depot/dev/client3/rdock/2013.1/src/exe/rbdock.cxx#4 $)

>  <Rbt.Library>
libRbt.so (2013.1, Build901 2013/11/27)

>  <Rbt.Parameter_File>
/export/apps/rDock/src/rDock_2013.1_src/data/scripts/dock_solv.prm

>  <Rbt.Receptor>
prm/pocket_docking_4.prm

>  <SCORE>
-30.7508

>  <SCORE.INTER>
-18.7969

>  <SCORE.INTER.CONST>
1

>  <SCORE.INTER.POLAR>
-5.80236

>  <SCORE.INTER.ROT>
10

>  <SCORE.INTER.SOLV>
21.9624

>  <SCORE.INTER.VDW>
-10.7775

>  <SCORE.INTER.norm>
-0.508024

>  <SCORE.INTRA>
-12.0641

>  <SCORE.INTRA.DIHEDRAL>
-31.0264

>  <SCORE.INTRA.DIHEDRAL.0>
44.8331

>  <SCORE.INTRA.POLAR>
0.00880503

>  <SCORE.INTRA.POLAR.0>
-0.108895

>  <SCORE.INTRA.REPUL>
-0.00912235

>  <SCORE.INTRA.REPUL.0>
0.00912235

>  <SCORE.INTRA.SOLV>
0.586069

>  <SCORE.INTRA.SOLV.lig_0>
-53.9067

>  <SCORE.INTRA.VDW>
3.17175

>  <SCORE.INTRA.VDW.0>
-2.93492

>  <SCORE.INTRA.norm>
-0.326057

>  <SCORE.RESTR>
0.110224

>  <SCORE.RESTR.CAVITY>
0.110224

>  <SCORE.RESTR.norm>
0.00297903

>  <SCORE.SYSTEM>
0

>  <SCORE.SYSTEM.CONST>
0

>  <SCORE.SYSTEM.DIHEDRAL>
0

>  <SCORE.SYSTEM.SOLV>
0

>  <SCORE.SYSTEM.norm>
0

>  <SCORE.heavy>
37

>  <SCORE.norm>
-0.831102

>  <RMSD>
9.382

$$$$
lig.pdb
 OpenBabel11021811453D
libRbt.so/2013.1/901 2013/11/27
 37 40  0  0  0  0  0  0  0  0999 V2000
   -4.6128    2.1129   14.7094 C   0  0  2  0  0  0  0  0  0  0  0  0
   -3.4051    2.9138   14.1202 C   0  0  1  0  0  0  0  0  0  0  0  0
   -2.2424    2.0019   13.6299 C   0  0  0  0  0  0  0  0  0  0  0  0
   -1.8673    0.9509   14.7040 C   0  0  1  0  0  0  0  0  0  0  0  0
   -3.1171    0.1328   15.0989 C   0  0  1  0  0  0  0  0  0  0  0  0
   -2.7604   -0.9607   16.1413 C   0  0  1  0  0  0  0  0  0  0  0  0
   -1.5859   -1.8496   15.6340 C   0  0  1  0  0  0  0  0  0  0  0  0
   -0.3697   -0.9971   15.1646 C   0  0  2  0  0  0  0  0  0  0  0  0
   -0.4738   -3.9726   16.1537 C   0  0  0  0  0  0  0  0  0  0  0  0
   -4.1718    1.0173   15.5756 O   0  0  0  0  0  0  0  0  0  0  0  0
   -0.7844    0.0793   14.2685 O   0  0  0  0  0  0  0  0  0  0  0  0
   -3.8689    3.7690   13.0062 N   0  0  0  0  0  0  0  0  0  0  0  0
   -1.2128   -2.8105   16.6926 N   0  0  0  0  0  0  0  0  0  0  0  0
   -2.4636   -0.3889   17.4087 O   0  0  0  0  0  0  0  0  0  0  0  0
    0.6370   -1.8469   14.5410 O   0  0  0  0  0  0  0  0  0  0  0  0
   -5.4790    1.6072   13.6481 O   0  0  0  0  0  0  0  0  0  0  0  0
    2.0142   -1.7628   15.0209 C   0  0  2  0  0  0  0  0  0  0  0  0
    2.1152   -0.8346   16.2646 C   0  0  1  0  0  0  0  0  0  0  0  0
    1.9014    0.6592   15.8871 C   0  0  2  0  0  0  0  0  0  0  0  0
    2.8506    1.0878   14.7307 C   0  0  1  0  0  0  0  0  0  0  0  0
    2.7434    0.1149   13.5234 C   0  0  1  0  0  0  0  0  0  0  0  0
    3.7802    0.4485   12.4188 C   0  0  0  0  0  0  0  0  0  0  0  0
    2.8947   -1.2672   13.9686 O   0  0  0  0  0  0  0  0  0  0  0  0
    2.6045    2.4875   14.3198 N   0  0  0  0  0  0  0  0  0  0  0  0
    1.2081   -1.2580   17.2808 O   0  0  0  0  0  0  0  0  0  0  0  0
    2.0611    1.5056   17.0236 O   0  0  0  0  0  0  0  0  0  0  0  0
    5.1079    0.2468   12.8919 O   0  0  0  0  0  0  0  0  0  0  0  0
   -6.9102    1.5422   13.9153 C   0  0  1  0  0  0  0  0  0  0  0  0
   -7.2102    1.2970   15.4207 C   0  0  1  0  0  0  0  0  0  0  0  0
   -8.7364    1.1345   15.6686 C   0  0  2  0  0  0  0  0  0  0  0  0
   -9.5640    2.3320   15.0986 C   0  0  1  0  0  0  0  0  0  0  0  0
   -9.1856    2.6863   13.6292 C   0  0  0  0  0  0  0  0  0  0  0  0
   -7.6469    2.8190   13.4202 C   0  0  2  0  0  0  0  0  0  0  0  0
  -11.0146    2.0736   15.2213 N   0  0  0  0  0  0  0  0  0  0  0  0
   -7.3702    3.1035   11.9954 N   0  0  0  0  0  0  0  0  0  0  0  0
   -6.4961    0.1628   15.9015 O   0  0  0  0  0  0  0  0  0  0  0  0
   -8.9995    0.9639   17.0591 O   0  0  0  0  0  0  0  0  0  0  0  0
  1  2  1  0  0  0  0
  1 16  1  6  0  0  0
  2  3  1  0  0  0  0
  2 12  1  6  0  0  0
  4 11  1  6  0  0  0
  4  3  1  0  0  0  0
  5  4  1  0  0  0  0
  5 10  1  1  0  0  0
  6  7  1  0  0  0  0
  6  5  1  0  0  0  0
  6 14  1  1  0  0  0
  7  8  1  0  0  0  0
  7 13  1  1  0  0  0
  8 15  1  6  0  0  0
  8 11  1  0  0  0  0
  9 13  1  0  0  0  0
 10  1  1  0  0  0  0
 17 15  1  6  0  0  0
 17 18  1  0  0  0  0
 18 25  1  1  0  0  0
 19 18  1  0  0  0  0
 19 26  1  1  0  0  0
 20 19  1  0  0  0  0
 20 24  1  6  0  0  0
 21 23  1  0  0  0  0
 21 20  1  0  0  0  0
 21 22  1  6  0  0  0
 23 17  1  0  0  0  0
 27 22  1  0  0  0  0
 28 29  1  0  0  0  0
 28 16  1  1  0  0  0
 29 36  1  6  0  0  0
 30 37  1  1  0  0  0
 30 29  1  0  0  0  0
 31 30  1  0  0  0  0
 31 34  1  6  0  0  0
 32 31  1  0  0  0  0
 32 33  1  0  0  0  0
 33 28  1  0  0  0  0
 33 35  1  6  0  0  0
M  END
>  <CHROM.1>
-62.35593397,-127.56048149,159.59433254,52.35580458,5.90251981,-145.71020843
61.01158691,-58.32190093,65.00572589,-166.13441145,175.28785960,-30.34529304
175.74146779,-67.07974321,-65.33136003,-87.76248047,-2.45087010,0.56974600
14.91423322,-2.97508187,-0.13529600,2.43403874

>  <Name>
lig.pdb

>  <RI>
0

>  <Rbt.Current_Directory>
/home/itssahil/PROJECTS/Mol_Feturizer/New_Systems/rnas/2m4q

>  <Rbt.Executable>
rbdock ($Id: //depot/dev/client3/rdock/2013.1/src/exe/rbdock.cxx#4 $)

>  <Rbt.Library>
libRbt.so (2013.1, Build901 2013/11/27)

>  <Rbt.Parameter_File>
/export/apps/rDock/src/rDock_2013.1_src/data/scripts/dock_solv.prm

>  <Rbt.Receptor>
prm/blind_docking_20.prm

>  <SCORE>
20.4252

>  <SCORE.INTER>
3.80184

>  <SCORE.INTER.CONST>
1

>  <SCORE.INTER.POLAR>
-0.917697

>  <SCORE.INTER.ROT>
10

>  <SCORE.INTER.SOLV>
17.4752

>  <SCORE.INTER.VDW>
-10.4982

>  <SCORE.INTER.norm>
0.102752

>  <SCORE.INTRA>
-6.32101

>  <SCORE.INTRA.DIHEDRAL>
-19.9859

>  <SCORE.INTRA.DIHEDRAL.0>
44.8331

>  <SCORE.INTRA.POLAR>
-0.5399

>  <SCORE.INTRA.POLAR.0>
-0.108895

>  <SCORE.INTRA.REPUL>
0.256906

>  <SCORE.INTRA.REPUL.0>
0.00912235

>  <SCORE.INTRA.SOLV>
1.53737

>  <SCORE.INTRA.SOLV.lig_0>
-53.9067

>  <SCORE.INTRA.VDW>
3.45439

>  <SCORE.INTRA.VDW.0>
-2.93492

>  <SCORE.INTRA.norm>
-0.170838

>  <SCORE.RESTR>
22.9444

>  <SCORE.RESTR.CAVITY>
22.9444

>  <SCORE.RESTR.norm>
0.620119

>  <SCORE.SYSTEM>
0

>  <SCORE.SYSTEM.CONST>
0

>  <SCORE.SYSTEM.DIHEDRAL>
0

>  <SCORE.SYSTEM.SOLV>
0

>  <SCORE.SYSTEM.norm>
0

>  <SCORE.heavy>
37

>  <SCORE.norm>
0.552033

>  <RMSD>
9.385

$$$$
lig.pdb
 OpenBabel11021811453D
libRbt.so/2013.1/901 2013/11/27
 37 40  0  0  0  0  0  0  0  0999 V2000
   -5.7747   15.4994    7.9004 C   0  0  2  0  0  0  0  0  0  0  0  0
   -4.9630   14.9421    9.1160 C   0  0  1  0  0  0  0  0  0  0  0  0
   -3.5196   14.4961    8.7397 C   0  0  0  0  0  0  0  0  0  0  0  0
   -3.5263   13.5860    7.4865 C   0  0  1  0  0  0  0  0  0  0  0  0
   -4.2326   14.3066    6.3164 C   0  0  1  0  0  0  0  0  0  0  0  0
   -4.2126   13.4350    5.0321 C   0  0  1  0  0  0  0  0  0  0  0  0
   -2.7606   12.9897    4.6856 C   0  0  1  0  0  0  0  0  0  0  0  0
   -2.0423   12.3411    5.9061 C   0  0  2  0  0  0  0  0  0  0  0  0
   -2.9277   12.8231    2.2447 C   0  0  0  0  0  0  0  0  0  0  0  0
   -5.5867   14.6848    6.6978 O   0  0  0  0  0  0  0  0  0  0  0  0
   -2.1861   13.1583    7.1083 O   0  0  0  0  0  0  0  0  0  0  0  0
   -4.9046   15.9608   10.1867 N   0  0  0  0  0  0  0  0  0  0  0  0
   -2.7966   12.0839    3.5188 N   0  0  0  0  0  0  0  0  0  0  0  0
   -5.0796   12.3147    5.1547 O   0  0  0  0  0  0  0  0  0  0  0  0
   -0.6391   12.0942    5.5984 O   0  0  0  0  0  0  0  0  0  0  0  0
   -5.4319   16.8932    7.6312 O   0  0  0  0  0  0  0  0  0  0  0  0
    0.1508   11.3008    6.5368 C   0  0  2  0  0  0  0  0  0  0  0  0
    1.6404   11.2350    6.0948 C   0  0  1  0  0  0  0  0  0  0  0  0
    1.8256   10.3573    4.8238 C   0  0  2  0  0  0  0  0  0  0  0  0
    1.1858    8.9515    5.0138 C   0  0  1  0  0  0  0  0  0  0  0  0
   -0.2899    9.0631    5.4885 C   0  0  1  0  0  0  0  0  0  0  0  0
   -0.8990    7.6739    5.8133 C   0  0  0  0  0  0  0  0  0  0  0  0
   -0.3869    9.9489    6.6450 O   0  0  0  0  0  0  0  0  0  0  0  0
    1.2974    8.1361    3.7845 N   0  0  0  0  0  0  0  0  0  0  0  0
    2.1672   12.5478    5.9118 O   0  0  0  0  0  0  0  0  0  0  0  0
    3.2022   10.2516    4.4672 O   0  0  0  0  0  0  0  0  0  0  0  0
   -2.2638    7.7964    6.2000 O   0  0  0  0  0  0  0  0  0  0  0  0
   -5.4531   17.3402    6.2442 C   0  0  1  0  0  0  0  0  0  0  0  0
   -6.7904   18.0441    5.8804 C   0  0  1  0  0  0  0  0  0  0  0  0
   -6.8307   18.4260    4.3738 C   0  0  2  0  0  0  0  0  0  0  0  0
   -5.5910   19.2738    3.9401 C   0  0  1  0  0  0  0  0  0  0  0  0
   -4.2396   18.6575    4.4111 C   0  0  0  0  0  0  0  0  0  0  0  0
   -4.2494   18.2701    5.9206 C   0  0  2  0  0  0  0  0  0  0  0  0
   -5.5893   19.4918    2.4777 N   0  0  0  0  0  0  0  0  0  0  0  0
   -2.9551   17.6476    6.2737 N   0  0  0  0  0  0  0  0  0  0  0  0
   -7.9037   17.2259    6.2247 O   0  0  0  0  0  0  0  0  0  0  0  0
   -8.0390   19.1173    4.0676 O   0  0  0  0  0  0  0  0  0  0  0  0
  1  2  1  0  0  0  0
  1 16  1  6  0  0  0
  2  3  1  0  0  0  0
  2 12  1  1  0  0  0
  4 11  1  6  0  0  0
  4  3  1  0  0  0  0
  5  4  1  0  0  0  0
  5 10  1  1  0  0  0
  6  7  1  0  0  0  0
  6  5  1  0  0  0  0
  6 14  1  1  0  0  0
  7  8  1  0  0  0  0
  7 13  1  6  0  0  0
  8 15  1  6  0  0  0
  8 11  1  0  0  0  0
  9 13  1  0  0  0  0
 10  1  1  0  0  0  0
 17 15  1  6  0  0  0
 17 18  1  0  0  0  0
 18 25  1  6  0  0  0
 19 18  1  0  0  0  0
 19 26  1  1  0  0  0
 20 19  1  0  0  0  0
 20 24  1  6  0  0  0
 21 23  1  0  0  0  0
 21 20  1  0  0  0  0
 21 22  1  1  0  0  0
 23 17  1  0  0  0  0
 27 22  1  0  0  0  0
 28 29  1  0  0  0  0
 28 16  1  1  0  0  0
 29 36  1  6  0  0  0
 30 37  1  1  0  0  0
 30 29  1  0  0  0  0
 31 30  1  0  0  0  0
 31 34  1  6  0  0  0
 32 31  1  0  0  0  0
 32 33  1  0  0  0  0
 33 28  1  0  0  0  0
 33 35  1  6  0  0  0
M  END
>  <CHROM.1>
139.60301894,-170.50246541,79.64995846,62.68176643,-175.77464899,146.49135512
62.04862065,-37.19080569,-177.93649131,71.73630834,-57.86558619,96.96297580
130.26010938,50.37826395,-166.14890229,-71.28011271,-2.98407642,13.83334577
5.77480698,2.67560381,0.78592465,-0.91420824

>  <Name>
lig.pdb

>  <RI>
3.60165e+07

>  <Rbt.Current_Directory>
/home/itssahil/PROJECTS/Mol_Feturizer/New_Systems/rnas/2m4q

>  <Rbt.Executable>
rbdock ($Id: //depot/dev/client3/rdock/2013.1/src/exe/rbdock.cxx#4 $)

>  <Rbt.Library>
libRbt.so (2013.1, Build901 2013/11/27)

>  <Rbt.Parameter_File>
/export/apps/rDock/src/rDock_2013.1_src/data/scripts/dock_solv.prm

>  <Rbt.Receptor>
prm/pocket_docking_8.prm

>  <SCORE>
-50.1474

>  <SCORE.INTER>
-38.0803

>  <SCORE.INTER.CONST>
1

>  <SCORE.INTER.POLAR>
-7.14935

>  <SCORE.INTER.ROT>
10

>  <SCORE.INTER.SOLV>
22.5396

>  <SCORE.INTER.VDW>
-19.3356

>  <SCORE.INTER.norm>
-1.0292

>  <SCORE.INTRA>
-12.073

>  <SCORE.INTRA.DIHEDRAL>
-22.2755

>  <SCORE.INTRA.DIHEDRAL.0>
44.8331

>  <SCORE.INTRA.POLAR>
0.042987

>  <SCORE.INTRA.POLAR.0>
-0.108895

>  <SCORE.INTRA.REPUL>
-0.00912235

>  <SCORE.INTRA.REPUL.0>
0.00912235

>  <SCORE.INTRA.SOLV>
-2.37655

>  <SCORE.INTRA.SOLV.lig_0>
-53.9067

>  <SCORE.INTRA.VDW>
0.152514

>  <SCORE.INTRA.VDW.0>
-2.93492

>  <SCORE.INTRA.norm>
-0.326296

>  <SCORE.RESTR>
0.00584888

>  <SCORE.RESTR.CAVITY>
0.00584888

>  <SCORE.RESTR.norm>
0.000158078

>  <SCORE.SYSTEM>
0

>  <SCORE.SYSTEM.CONST>
0

>  <SCORE.SYSTEM.DIHEDRAL>
0

>  <SCORE.SYSTEM.SOLV>
0

>  <SCORE.SYSTEM.norm>
0

>  <SCORE.heavy>
37

>  <SCORE.norm>
-1.35534

>  <RMSD>
9.400

$$$$
lig.pdb
 OpenBabel11021811453D
libRbt.so/2013.1/901 2013/11/27
 37 40  0  0  0  0  0  0  0  0999 V2000
    0.7432    4.8967   10.8018 C   0  0  2  0  0  0  0  0  0  0  0  0
   -0.2710    4.9571    9.6123 C   0  0  1  0  0  0  0  0  0  0  0  0
   -1.0852    6.2832    9.5645 C   0  0  0  0  0  0  0  0  0  0  0  0
   -1.6856    6.6190   10.9522 C   0  0  1  0  0  0  0  0  0  0  0  0
   -0.5636    6.6670   12.0134 C   0  0  1  0  0  0  0  0  0  0  0  0
   -1.1311    7.0481   13.4071 C   0  0  1  0  0  0  0  0  0  0  0  0
   -1.9531    8.3690   13.3298 C   0  0  1  0  0  0  0  0  0  0  0  0
   -3.0221    8.3255   12.1977 C   0  0  2  0  0  0  0  0  0  0  0  0
   -2.5169   10.0809   14.9928 C   0  0  0  0  0  0  0  0  0  0  0  0
    0.1577    5.4018   12.0457 O   0  0  0  0  0  0  0  0  0  0  0  0
   -2.4487    7.8598   10.9376 O   0  0  0  0  0  0  0  0  0  0  0  0
    0.4477    4.7695    8.3332 N   0  0  0  0  0  0  0  0  0  0  0  0
   -2.5563    8.6427   14.6506 N   0  0  0  0  0  0  0  0  0  0  0  0
   -1.9064    5.9901   13.9559 O   0  0  0  0  0  0  0  0  0  0  0  0
   -3.6521    9.6307   12.0424 O   0  0  0  0  0  0  0  0  0  0  0  0
    1.9716    5.6202   10.4854 O   0  0  0  0  0  0  0  0  0  0  0  0
   -2.8279   10.7547   11.6050 C   0  0  2  0  0  0  0  0  0  0  0  0
   -3.7123   11.9472   11.1419 C   0  0  1  0  0  0  0  0  0  0  0  0
   -4.4333   11.6415    9.7979 C   0  0  2  0  0  0  0  0  0  0  0  0
   -3.4214   11.1776    8.7103 C   0  0  1  0  0  0  0  0  0  0  0  0
   -2.5357   10.0093    9.2260 C   0  0  1  0  0  0  0  0  0  0  0  0
   -1.4324    9.6265    8.2051 C   0  0  0  0  0  0  0  0  0  0  0  0
   -1.9446   10.3501   10.5167 O   0  0  0  0  0  0  0  0  0  0  0  0
   -4.1086   10.8189    7.4503 N   0  0  0  0  0  0  0  0  0  0  0  0
   -4.6356   12.3134   12.1656 O   0  0  0  0  0  0  0  0  0  0  0  0
   -5.1884   12.7657    9.3513 O   0  0  0  0  0  0  0  0  0  0  0  0
   -2.0052    9.2427    6.9593 O   0  0  0  0  0  0  0  0  0  0  0  0
    2.9225    4.9794    9.5859 C   0  0  1  0  0  0  0  0  0  0  0  0
    3.4301    5.9536    8.4862 C   0  0  1  0  0  0  0  0  0  0  0  0
    4.3669    5.2254    7.4815 C   0  0  2  0  0  0  0  0  0  0  0  0
    5.5467    4.4874    8.1938 C   0  0  1  0  0  0  0  0  0  0  0  0
    5.0773    3.6060    9.3898 C   0  0  0  0  0  0  0  0  0  0  0  0
    4.1244    4.3673   10.3599 C   0  0  2  0  0  0  0  0  0  0  0  0
    6.3276    3.6885    7.2252 N   0  0  0  0  0  0  0  0  0  0  0  0
    3.6852    3.4498   11.4335 N   0  0  0  0  0  0  0  0  0  0  0  0
    2.3379    6.5649    7.8073 O   0  0  0  0  0  0  0  0  0  0  0  0
    4.8660    6.1428    6.5115 O   0  0  0  0  0  0  0  0  0  0  0  0
  1  2  1  0  0  0  0
  1 16  1  6  0  0  0
  2  3  1  0  0  0  0
  2 12  1  6  0  0  0
  4 11  1  6  0  0  0
  4  3  1  0  0  0  0
  5  4  1  0  0  0  0
  5 10  1  1  0  0  0
  6  7  1  0  0  0  0
  6  5  1  0  0  0  0
  6 14  1  6  0  0  0
  7  8  1  0  0  0  0
  7 13  1  1  0  0  0
  8 15  1  6  0  0  0
  8 11  1  0  0  0  0
  9 13  1  0  0  0  0
 10  1  1  0  0  0  0
 17 15  1  6  0  0  0
 17 18  1  0  0  0  0
 18 25  1  1  0  0  0
 19 18  1  0  0  0  0
 19 26  1  6  0  0  0
 20 19  1  0  0  0  0
 20 24  1  6  0  0  0
 21 23  1  0  0  0  0
 21 20  1  0  0  0  0
 21 22  1  6  0  0  0
 23 17  1  0  0  0  0
 27 22  1  0  0  0  0
 28 29  1  0  0  0  0
 28 16  1  1  0  0  0
 29 36  1  6  0  0  0
 30 37  1  6  0  0  0
 30 29  1  0  0  0  0
 31 30  1  0  0  0  0
 31 34  1  6  0  0  0
 32 31  1  0  0  0  0
 32 33  1  0  0  0  0
 33 28  1  0  0  0  0
 33 35  1  1  0  0  0
M  END
>  <CHROM.1>
-79.51115845,64.26826484,140.53218134,65.73224692,165.17780711,-76.17387973
173.21939782,-65.34164109,-58.77061286,-93.59768097,-49.11829937,133.44229655
85.93612530,-67.34333185,53.94961464,68.58922304,-0.38522769,7.60123924,10.26987748
0.03882956,-0.70328717,1.99376493

>  <Name>
lig.pdb

>  <RI>
3.87352e+07

>  <Rbt.Current_Directory>
/home/itssahil/PROJECTS/Mol_Feturizer/New_Systems/rnas/2m4q

>  <Rbt.Executable>
rbdock ($Id: //depot/dev/client3/rdock/2013.1/src/exe/rbdock.cxx#4 $)

>  <Rbt.Library>
libRbt.so (2013.1, Build901 2013/11/27)

>  <Rbt.Parameter_File>
/export/apps/rDock/src/rDock_2013.1_src/data/scripts/dock_solv.prm

>  <Rbt.Receptor>
prm/pocket_docking_4.prm

>  <SCORE>
-62.4511

>  <SCORE.INTER>
-46.3608

>  <SCORE.INTER.CONST>
1

>  <SCORE.INTER.POLAR>
-7.26239

>  <SCORE.INTER.ROT>
10

>  <SCORE.INTER.SOLV>
19.0327

>  <SCORE.INTER.VDW>
-23.3101

>  <SCORE.INTER.norm>
-1.25299

>  <SCORE.INTRA>
-16.0904

>  <SCORE.INTRA.DIHEDRAL>
-27.5845

>  <SCORE.INTRA.DIHEDRAL.0>
44.8331

>  <SCORE.INTRA.POLAR>
-0.765199

>  <SCORE.INTRA.POLAR.0>
-0.108895

>  <SCORE.INTRA.REPUL>
-0.00912235

>  <SCORE.INTRA.REPUL.0>
0.00912235

>  <SCORE.INTRA.SOLV>
1.06298

>  <SCORE.INTRA.SOLV.lig_0>
-53.9067

>  <SCORE.INTRA.VDW>
-0.182331

>  <SCORE.INTRA.VDW.0>
-2.93492

>  <SCORE.INTRA.norm>
-0.434875

>  <SCORE.RESTR>
0

>  <SCORE.RESTR.CAVITY>
0

>  <SCORE.RESTR.norm>
0

>  <SCORE.SYSTEM>
0

>  <SCORE.SYSTEM.CONST>
0

>  <SCORE.SYSTEM.DIHEDRAL>
0

>  <SCORE.SYSTEM.SOLV>
0

>  <SCORE.SYSTEM.norm>
0

>  <SCORE.heavy>
37

>  <SCORE.norm>
-1.68787

>  <RMSD>
9.423

$$$$
lig.pdb
 OpenBabel11021811453D
libRbt.so/2013.1/901 2013/11/27
 37 40  0  0  0  0  0  0  0  0999 V2000
    2.1695    4.6949    9.9580 C   0  0  2  0  0  0  0  0  0  0  0  0
    1.5715    4.6490    8.5132 C   0  0  1  0  0  0  0  0  0  0  0  0
    0.5613    5.7988    8.2285 C   0  0  0  0  0  0  0  0  0  0  0  0
   -0.4848    5.9158    9.3647 C   0  0  1  0  0  0  0  0  0  0  0  0
    0.2307    6.0973   10.7221 C   0  0  1  0  0  0  0  0  0  0  0  0
   -0.7957    6.2644   11.8746 C   0  0  1  0  0  0  0  0  0  0  0  0
   -1.8033    7.4098   11.5594 C   0  0  1  0  0  0  0  0  0  0  0  0
   -2.4488    7.2478   10.1511 C   0  0  2  0  0  0  0  0  0  0  0  0
   -3.4181    8.8168   12.7539 C   0  0  0  0  0  0  0  0  0  0  0  0
    1.1468    4.9908   10.9639 O   0  0  0  0  0  0  0  0  0  0  0  0
   -1.4403    6.9893    9.1265 O   0  0  0  0  0  0  0  0  0  0  0  0
    2.6654    4.6916    7.5185 N   0  0  0  0  0  0  0  0  0  0  0  0
   -2.8194    7.4702   12.6304 N   0  0  0  0  0  0  0  0  0  0  0  0
   -1.4719    5.0432   12.1450 O   0  0  0  0  0  0  0  0  0  0  0  0
   -3.2507    8.4194    9.8210 O   0  0  0  0  0  0  0  0  0  0  0  0
    3.2648    5.6567   10.0458 O   0  0  0  0  0  0  0  0  0  0  0  0
   -2.5707    9.6983    9.6314 C   0  0  2  0  0  0  0  0  0  0  0  0
   -3.5962   10.8508    9.4346 C   0  0  1  0  0  0  0  0  0  0  0  0
   -4.3136   10.7544    8.0577 C   0  0  2  0  0  0  0  0  0  0  0  0
   -3.2851   10.6514    6.8943 C   0  0  1  0  0  0  0  0  0  0  0  0
   -2.2596    9.5113    7.1477 C   0  0  1  0  0  0  0  0  0  0  0  0
   -1.1476    9.4836    6.0665 C   0  0  0  0  0  0  0  0  0  0  0  0
   -1.6766    9.6381    8.4802 O   0  0  0  0  0  0  0  0  0  0  0  0
   -3.9606   10.4896    5.5882 N   0  0  0  0  0  0  0  0  0  0  0  0
   -4.5274   10.8828   10.5146 O   0  0  0  0  0  0  0  0  0  0  0  0
   -5.2025   11.8521    7.8622 O   0  0  0  0  0  0  0  0  0  0  0  0
   -0.3398    8.3187    6.1994 O   0  0  0  0  0  0  0  0  0  0  0  0
    4.0325    5.6978   11.2839 C   0  0  1  0  0  0  0  0  0  0  0  0
    3.2423    6.3793   12.4359 C   0  0  1  0  0  0  0  0  0  0  0  0
    4.1133    6.4997   13.7181 C   0  0  2  0  0  0  0  0  0  0  0  0
    4.7167    5.1270   14.1601 C   0  0  1  0  0  0  0  0  0  0  0  0
    5.3996    4.3590   12.9889 C   0  0  0  0  0  0  0  0  0  0  0  0
    4.5016    4.2799   11.7177 C   0  0  2  0  0  0  0  0  0  0  0  0
    5.6531    5.3045   15.2906 N   0  0  0  0  0  0  0  0  0  0  0  0
    5.2394    3.5847   10.6408 N   0  0  0  0  0  0  0  0  0  0  0  0
    2.7578    7.6559   12.0320 O   0  0  0  0  0  0  0  0  0  0  0  0
    3.3584    7.0774   14.7803 O   0  0  0  0  0  0  0  0  0  0  0  0
  1  2  1  0  0  0  0
  1 16  1  6  0  0  0
  2  3  1  0  0  0  0
  2 12  1  6  0  0  0
  4 11  1  6  0  0  0
  4  3  1  0  0  0  0
  5  4  1  0  0  0  0
  5 10  1  1  0  0  0
  6  7  1  0  0  0  0
  6  5  1  0  0  0  0
  6 14  1  6  0  0  0
  7  8  1  0  0  0  0
  7 13  1  1  0  0  0
  8 15  1  6  0  0  0
  8 11  1  0  0  0  0
  9 13  1  0  0  0  0
 10  1  1  0  0  0  0
 17 15  1  6  0  0  0
 17 18  1  0  0  0  0
 18 25  1  1  0  0  0
 19 18  1  0  0  0  0
 19 26  1  6  0  0  0
 20 19  1  0  0  0  0
 20 24  1  6  0  0  0
 21 23  1  0  0  0  0
 21 20  1  0  0  0  0
 21 22  1  6  0  0  0
 23 17  1  0  0  0  0
 27 22  1  0  0  0  0
 28 29  1  0  0  0  0
 28 16  1  6  0  0  0
 29 36  1  6  0  0  0
 30 37  1  1  0  0  0
 30 29  1  0  0  0  0
 31 30  1  0  0  0  0
 31 34  1  1  0  0  0
 32 31  1  0  0  0  0
 32 33  1  0  0  0  0
 33 28  1  0  0  0  0
 33 35  1  6  0  0  0
M  END
>  <CHROM.1>
-164.43016524,66.14585440,154.66562505,-173.83636549,-174.07632165,-172.66066674
178.26391875,62.21680686,-171.23328527,63.69731085,65.13976897,-74.32536687
58.36576341,60.89141493,-63.84329317,54.72423644,0.07700488,7.27597312,10.26885576
-0.41939007,0.58739496,-1.60295823

>  <Name>
lig.pdb

>  <RI>
0

>  <Rbt.Current_Directory>
/home/itssahil/PROJECTS/Mol_Feturizer/New_Systems/rnas/2m4q

>  <Rbt.Executable>
rbdock ($Id: //depot/dev/client3/rdock/2013.1/src/exe/rbdock.cxx#4 $)

>  <Rbt.Library>
libRbt.so (2013.1, Build901 2013/11/27)

>  <Rbt.Parameter_File>
/export/apps/rDock/src/rDock_2013.1_src/data/scripts/dock_solv.prm

>  <Rbt.Receptor>
prm/pocket_docking_3.prm

>  <SCORE>
-41.2791

>  <SCORE.INTER>
-19.8088

>  <SCORE.INTER.CONST>
1

>  <SCORE.INTER.POLAR>
-1.7598

>  <SCORE.INTER.ROT>
10

>  <SCORE.INTER.SOLV>
17.2647

>  <SCORE.INTER.VDW>
-23.3614

>  <SCORE.INTER.norm>
-0.535372

>  <SCORE.INTRA>
-21.4703

>  <SCORE.INTRA.DIHEDRAL>
-40.5945

>  <SCORE.INTRA.DIHEDRAL.0>
44.8331

>  <SCORE.INTRA.POLAR>
-0.0451481

>  <SCORE.INTRA.POLAR.0>
-0.108895

>  <SCORE.INTRA.REPUL>
-0.00912235

>  <SCORE.INTRA.REPUL.0>
0.00912235

>  <SCORE.INTRA.SOLV>
-0.59031

>  <SCORE.INTRA.SOLV.lig_0>
-53.9067

>  <SCORE.INTRA.VDW>
-0.678812

>  <SCORE.INTRA.VDW.0>
-2.93492

>  <SCORE.INTRA.norm>
-0.580279

>  <SCORE.RESTR>
0

>  <SCORE.RESTR.CAVITY>
0

>  <SCORE.RESTR.norm>
0

>  <SCORE.SYSTEM>
0

>  <SCORE.SYSTEM.CONST>
0

>  <SCORE.SYSTEM.DIHEDRAL>
0

>  <SCORE.SYSTEM.SOLV>
0

>  <SCORE.SYSTEM.norm>
0

>  <SCORE.heavy>
37

>  <SCORE.norm>
-1.11565

>  <RMSD>
9.425

$$$$
lig.pdb
 OpenBabel11021811453D
libRbt.so/2013.1/901 2013/11/27
 37 40  0  0  0  0  0  0  0  0999 V2000
   -2.5575   -1.4498   15.7931 C   0  0  2  0  0  0  0  0  0  0  0  0
   -1.8352   -2.5580   16.6282 C   0  0  1  0  0  0  0  0  0  0  0  0
   -0.3353   -2.2429   16.9017 C   0  0  0  0  0  0  0  0  0  0  0  0
    0.3935   -1.8272   15.5997 C   0  0  1  0  0  0  0  0  0  0  0  0
   -0.3382   -0.6342   14.9451 C   0  0  1  0  0  0  0  0  0  0  0  0
    0.3981   -0.1659   13.6613 C   0  0  1  0  0  0  0  0  0  0  0  0
    1.8988    0.1285   13.9578 C   0  0  1  0  0  0  0  0  0  0  0  0
    2.5919   -1.0575   14.6920 C   0  0  2  0  0  0  0  0  0  0  0  0
    3.9961    0.8542   12.9144 C   0  0  0  0  0  0  0  0  0  0  0  0
   -1.7296   -0.9759   14.6817 O   0  0  0  0  0  0  0  0  0  0  0  0
    1.7991   -1.5206   15.8281 O   0  0  0  0  0  0  0  0  0  0  0  0
   -2.5427   -2.7569   17.9117 N   0  0  0  0  0  0  0  0  0  0  0  0
    2.5838    0.4742   12.6951 N   0  0  0  0  0  0  0  0  0  0  0  0
    0.2568   -1.1129   12.6102 O   0  0  0  0  0  0  0  0  0  0  0  0
    3.9391   -0.6834   15.1040 O   0  0  0  0  0  0  0  0  0  0  0  0
   -2.9639   -0.3315   16.6397 O   0  0  0  0  0  0  0  0  0  0  0  0
    4.8352   -1.7300   15.5894 C   0  0  2  0  0  0  0  0  0  0  0  0
    5.2154   -1.4917   17.0785 C   0  0  1  0  0  0  0  0  0  0  0  0
    6.1637   -0.2695   17.2421 C   0  0  2  0  0  0  0  0  0  0  0  0
    7.4044   -0.3925   16.3107 C   0  0  1  0  0  0  0  0  0  0  0  0
    6.9808   -0.6644   14.8403 C   0  0  1  0  0  0  0  0  0  0  0  0
    8.2058   -0.9247   13.9249 C   0  0  0  0  0  0  0  0  0  0  0  0
    6.0468   -1.7848   14.7786 O   0  0  0  0  0  0  0  0  0  0  0  0
    8.2753    0.7992   16.4102 N   0  0  0  0  0  0  0  0  0  0  0  0
    4.0428   -1.3620   17.8803 O   0  0  0  0  0  0  0  0  0  0  0  0
    6.5568   -0.1013   18.6024 O   0  0  0  0  0  0  0  0  0  0  0  0
    8.8905   -2.1093   14.3187 O   0  0  0  0  0  0  0  0  0  0  0  0
   -3.8652    0.6597   16.0660 C   0  0  1  0  0  0  0  0  0  0  0  0
   -3.1681    1.5148   14.9709 C   0  0  1  0  0  0  0  0  0  0  0  0
   -4.1159    2.6276   14.4413 C   0  0  2  0  0  0  0  0  0  0  0  0
   -5.4868    2.0593   13.9498 C   0  0  1  0  0  0  0  0  0  0  0  0
   -6.1448    1.0894   14.9765 C   0  0  0  0  0  0  0  0  0  0  0  0
   -5.1554    0.0037   15.4971 C   0  0  2  0  0  0  0  0  0  0  0  0
   -6.4123    3.1557   13.5928 N   0  0  0  0  0  0  0  0  0  0  0  0
   -5.8395   -0.8396   16.5011 N   0  0  0  0  0  0  0  0  0  0  0  0
   -1.9547    2.0754   15.4618 O   0  0  0  0  0  0  0  0  0  0  0  0
   -3.4819    3.3684   13.4016 O   0  0  0  0  0  0  0  0  0  0  0  0
  1  2  1  0  0  0  0
  1 16  1  1  0  0  0
  2  3  1  0  0  0  0
  2 12  1  1  0  0  0
  4 11  1  1  0  0  0
  4  3  1  0  0  0  0
  5  4  1  0  0  0  0
  5 10  1  6  0  0  0
  6  7  1  0  0  0  0
  6  5  1  0  0  0  0
  6 14  1  6  0  0  0
  7  8  1  0  0  0  0
  7 13  1  6  0  0  0
  8 15  1  1  0  0  0
  8 11  1  0  0  0  0
  9 13  1  0  0  0  0
 10  1  1  0  0  0  0
 17 15  1  6  0  0  0
 17 18  1  0  0  0  0
 18 25  1  1  0  0  0
 19 18  1  0  0  0  0
 19 26  1  1  0  0  0
 20 19  1  0  0  0  0
 20 24  1  6  0  0  0
 21 23  1  0  0  0  0
 21 20  1  0  0  0  0
 21 22  1  6  0  0  0
 23 17  1  0  0  0  0
 27 22  1  0  0  0  0
 28 29  1  0  0  0  0
 28 16  1  6  0  0  0
 29 36  1  1  0  0  0
 30 37  1  6  0  0  0
 30 29  1  0  0  0  0
 31 30  1  0  0  0  0
 31 34  1  1  0  0  0
 32 31  1  0  0  0  0
 32 33  1  0  0  0  0
 33 28  1  0  0  0  0
 33 35  1  1  0  0  0
M  END
>  <CHROM.1>
79.76654647,-169.05019662,176.20583212,-178.07155072,-116.40541616,-168.67749399
52.73009148,-175.05032380,64.01881953,73.49532183,178.81456164,-69.63360407
178.35683110,-179.46522335,-86.59685577,54.60371444,0.92196147,-0.26486798
15.31005679,3.00512312,0.08274401,-0.85834337

>  <Name>
lig.pdb

>  <RI>
0

>  <Rbt.Current_Directory>
/home/itssahil/PROJECTS/Mol_Feturizer/New_Systems/rnas/2m4q

>  <Rbt.Executable>
rbdock ($Id: //depot/dev/client3/rdock/2013.1/src/exe/rbdock.cxx#4 $)

>  <Rbt.Library>
libRbt.so (2013.1, Build901 2013/11/27)

>  <Rbt.Parameter_File>
/export/apps/rDock/src/rDock_2013.1_src/data/scripts/dock_solv.prm

>  <Rbt.Receptor>
prm/blind_docking_20.prm

>  <SCORE>
-1.97102

>  <SCORE.INTER>
-9.2188

>  <SCORE.INTER.CONST>
1

>  <SCORE.INTER.POLAR>
-3.47676

>  <SCORE.INTER.ROT>
10

>  <SCORE.INTER.SOLV>
20.909

>  <SCORE.INTER.VDW>
-11.793

>  <SCORE.INTER.norm>
-0.249157

>  <SCORE.INTRA>
-15.4323

>  <SCORE.INTRA.DIHEDRAL>
-33.1563

>  <SCORE.INTRA.DIHEDRAL.0>
44.8331

>  <SCORE.INTRA.POLAR>
-0.173

>  <SCORE.INTRA.POLAR.0>
-0.108895

>  <SCORE.INTRA.REPUL>
-0.00912235

>  <SCORE.INTRA.REPUL.0>
0.00912235

>  <SCORE.INTRA.SOLV>
-0.557223

>  <SCORE.INTRA.SOLV.lig_0>
-53.9067

>  <SCORE.INTRA.VDW>
2.05827

>  <SCORE.INTRA.VDW.0>
-2.93492

>  <SCORE.INTRA.norm>
-0.417089

>  <SCORE.RESTR>
22.6801

>  <SCORE.RESTR.CAVITY>
22.6801

>  <SCORE.RESTR.norm>
0.612975

>  <SCORE.SYSTEM>
0

>  <SCORE.SYSTEM.CONST>
0

>  <SCORE.SYSTEM.DIHEDRAL>
0

>  <SCORE.SYSTEM.SOLV>
0

>  <SCORE.SYSTEM.norm>
0

>  <SCORE.heavy>
37

>  <SCORE.norm>
-0.0532708

>  <RMSD>
9.438

$$$$
lig.pdb
 OpenBabel11021811453D
libRbt.so/2013.1/901 2013/11/27
 37 40  0  0  0  0  0  0  0  0999 V2000
    1.6192    4.7422    9.9699 C   0  0  2  0  0  0  0  0  0  0  0  0
    1.0895    4.8387    8.5012 C   0  0  1  0  0  0  0  0  0  0  0  0
    0.2350    6.1131    8.2376 C   0  0  0  0  0  0  0  0  0  0  0  0
   -0.8432    6.2979    9.3341 C   0  0  1  0  0  0  0  0  0  0  0  0
   -0.1769    6.3262   10.7279 C   0  0  1  0  0  0  0  0  0  0  0  0
   -1.2305    6.5575   11.8442 C   0  0  1  0  0  0  0  0  0  0  0  0
   -2.0814    7.8287   11.5501 C   0  0  1  0  0  0  0  0  0  0  0  0
   -2.6736    7.8139   10.1095 C   0  0  2  0  0  0  0  0  0  0  0  0
   -3.4553    9.3703   12.8729 C   0  0  0  0  0  0  0  0  0  0  0  0
    0.5913    5.1080   10.9470 O   0  0  0  0  0  0  0  0  0  0  0  0
   -1.6545    7.4878    9.1151 O   0  0  0  0  0  0  0  0  0  0  0  0
    2.2269    4.7995    7.5565 N   0  0  0  0  0  0  0  0  0  0  0  0
   -3.1333    7.9570   12.5798 N   0  0  0  0  0  0  0  0  0  0  0  0
   -2.0566    5.4137   12.0197 O   0  0  0  0  0  0  0  0  0  0  0  0
   -3.3167    9.0873    9.8106 O   0  0  0  0  0  0  0  0  0  0  0  0
    2.8138    5.5614   10.1551 O   0  0  0  0  0  0  0  0  0  0  0  0
   -2.4740   10.2292    9.4644 C   0  0  2  0  0  0  0  0  0  0  0  0
   -3.3295   11.5120    9.2616 C   0  0  1  0  0  0  0  0  0  0  0  0
   -4.1789   11.4379    7.9605 C   0  0  2  0  0  0  0  0  0  0  0  0
   -3.2907   11.0993    6.7283 C   0  0  1  0  0  0  0  0  0  0  0  0
   -2.4279    9.8325    6.9864 C   0  0  1  0  0  0  0  0  0  0  0  0
   -1.4386    9.5605    5.8229 C   0  0  0  0  0  0  0  0  0  0  0  0
   -1.7105    9.9545    8.2520 O   0  0  0  0  0  0  0  0  0  0  0  0
   -4.1019   10.9589    5.4992 N   0  0  0  0  0  0  0  0  0  0  0  0
   -4.1404   11.7600   10.4087 O   0  0  0  0  0  0  0  0  0  0  0  0
   -4.9081   12.6455    7.7521 O   0  0  0  0  0  0  0  0  0  0  0  0
   -0.6534    8.4021    6.0852 O   0  0  0  0  0  0  0  0  0  0  0  0
    3.4710    5.5164   11.4551 C   0  0  1  0  0  0  0  0  0  0  0  0
    2.6816    6.3099   12.5337 C   0  0  1  0  0  0  0  0  0  0  0  0
    3.4474    6.3305   13.8866 C   0  0  2  0  0  0  0  0  0  0  0  0
    3.8244    4.8960   14.3804 C   0  0  1  0  0  0  0  0  0  0  0  0
    4.4980    4.0307   13.2734 C   0  0  0  0  0  0  0  0  0  0  0  0
    3.7101    4.0547   11.9291 C   0  0  2  0  0  0  0  0  0  0  0  0
    4.6753    4.9628   15.5876 N   0  0  0  0  0  0  0  0  0  0  0  0
    4.4395    3.2555   10.9209 N   0  0  0  0  0  0  0  0  0  0  0  0
    2.4062    7.6340   12.0882 O   0  0  0  0  0  0  0  0  0  0  0  0
    2.6869    7.0153   14.8788 O   0  0  0  0  0  0  0  0  0  0  0  0
  1  2  1  0  0  0  0
  1 16  1  6  0  0  0
  2  3  1  0  0  0  0
  2 12  1  6  0  0  0
  4 11  1  6  0  0  0
  4  3  1  0  0  0  0
  5  4  1  0  0  0  0
  5 10  1  1  0  0  0
  6  7  1  0  0  0  0
  6  5  1  0  0  0  0
  6 14  1  6  0  0  0
  7  8  1  0  0  0  0
  7 13  1  1  0  0  0
  8 15  1  6  0  0  0
  8 11  1  0  0  0  0
  9 13  1  0  0  0  0
 10  1  1  0  0  0  0
 17 15  1  6  0  0  0
 17 18  1  0  0  0  0
 18 25  1  1  0  0  0
 19 18  1  0  0  0  0
 19 26  1  6  0  0  0
 20 19  1  0  0  0  0
 20 24  1  6  0  0  0
 21 23  1  0  0  0  0
 21 20  1  0  0  0  0
 21 22  1  6  0  0  0
 23 17  1  0  0  0  0
 27 22  1  0  0  0  0
 28 29  1  0  0  0  0
 28 16  1  6  0  0  0
 29 36  1  6  0  0  0
 30 37  1  1  0  0  0
 30 29  1  0  0  0  0
 31 30  1  0  0  0  0
 31 34  1  1  0  0  0
 32 31  1  0  0  0  0
 32 33  1  0  0  0  0
 33 28  1  0  0  0  0
 33 35  1  6  0  0  0
M  END
>  <CHROM.1>
72.28008020,77.79334757,147.47543110,-159.03567973,-176.68392056,-176.60006675
-54.65544656,-175.66778480,179.59467153,-40.82488055,-58.62351308,-74.82254097
59.74234137,-58.50845793,69.94113955,27.21318496,-0.26438591,7.50923483,10.27804636
-0.44839547,0.70822829,-1.61889260

>  <Name>
lig.pdb

>  <RI>
0

>  <Rbt.Current_Directory>
/home/itssahil/PROJECTS/Mol_Feturizer/New_Systems/rnas/2m4q

>  <Rbt.Executable>
rbdock ($Id: //depot/dev/client3/rdock/2013.1/src/exe/rbdock.cxx#4 $)

>  <Rbt.Library>
libRbt.so (2013.1, Build901 2013/11/27)

>  <Rbt.Parameter_File>
/export/apps/rDock/src/rDock_2013.1_src/data/scripts/dock_solv.prm

>  <Rbt.Receptor>
prm/pocket_docking_3.prm

>  <SCORE>
-44.6247

>  <SCORE.INTER>
-23.9303

>  <SCORE.INTER.CONST>
1

>  <SCORE.INTER.POLAR>
-2.58298

>  <SCORE.INTER.ROT>
10

>  <SCORE.INTER.SOLV>
15.5933

>  <SCORE.INTER.VDW>
-22.808

>  <SCORE.INTER.norm>
-0.646766

>  <SCORE.INTRA>
-20.6944

>  <SCORE.INTRA.DIHEDRAL>
-35.9299

>  <SCORE.INTRA.DIHEDRAL.0>
44.8331

>  <SCORE.INTRA.POLAR>
-0.359071

>  <SCORE.INTRA.POLAR.0>
-0.108895

>  <SCORE.INTRA.REPUL>
-0.00912235

>  <SCORE.INTRA.REPUL.0>
0.00912235

>  <SCORE.INTRA.SOLV>
-0.306294

>  <SCORE.INTRA.SOLV.lig_0>
-53.9067

>  <SCORE.INTRA.VDW>
-1.30982

>  <SCORE.INTRA.VDW.0>
-2.93492

>  <SCORE.INTRA.norm>
-0.559307

>  <SCORE.RESTR>
0

>  <SCORE.RESTR.CAVITY>
0

>  <SCORE.RESTR.norm>
0

>  <SCORE.SYSTEM>
0

>  <SCORE.SYSTEM.CONST>
0

>  <SCORE.SYSTEM.DIHEDRAL>
0

>  <SCORE.SYSTEM.SOLV>
0

>  <SCORE.SYSTEM.norm>
0

>  <SCORE.heavy>
37

>  <SCORE.norm>
-1.20607

>  <RMSD>
9.448

$$$$
lig.pdb
 OpenBabel11021811453D
libRbt.so/2013.1/901 2013/11/27
 37 40  0  0  0  0  0  0  0  0999 V2000
    2.1429    4.3471    9.8917 C   0  0  2  0  0  0  0  0  0  0  0  0
    1.8328    4.6989    8.3994 C   0  0  1  0  0  0  0  0  0  0  0  0
    1.1026    6.0631    8.2276 C   0  0  0  0  0  0  0  0  0  0  0  0
   -0.1066    6.1731    9.1892 C   0  0  1  0  0  0  0  0  0  0  0  0
    0.3566    5.9443   10.6454 C   0  0  1  0  0  0  0  0  0  0  0  0
   -0.8282    6.0953   11.6369 C   0  0  1  0  0  0  0  0  0  0  0  0
   -1.5508    7.4605   11.4351 C   0  0  1  0  0  0  0  0  0  0  0  0
   -1.9333    7.7035    9.9449 C   0  0  2  0  0  0  0  0  0  0  0  0
   -3.2256    8.9047   12.4948 C   0  0  0  0  0  0  0  0  0  0  0  0
    1.0113    4.6490   10.7712 O   0  0  0  0  0  0  0  0  0  0  0  0
   -0.8055    7.4440    9.0535 O   0  0  0  0  0  0  0  0  0  0  0  0
    3.0878    4.7056    7.6167 N   0  0  0  0  0  0  0  0  0  0  0  0
   -2.7279    7.5224   12.3260 N   0  0  0  0  0  0  0  0  0  0  0  0
   -1.7384    5.0089   11.5233 O   0  0  0  0  0  0  0  0  0  0  0  0
   -2.4497    9.0547    9.7658 O   0  0  0  0  0  0  0  0  0  0  0  0
    3.3466    5.0312   10.3562 O   0  0  0  0  0  0  0  0  0  0  0  0
   -1.5410   10.0889    9.2774 C   0  0  2  0  0  0  0  0  0  0  0  0
   -2.3235   11.3662    8.8594 C   0  0  1  0  0  0  0  0  0  0  0  0
   -3.1469   11.1374    7.5595 C   0  0  2  0  0  0  0  0  0  0  0  0
   -2.2508   10.5735    6.4189 C   0  0  1  0  0  0  0  0  0  0  0  0
   -1.4615    9.3201    6.8893 C   0  0  1  0  0  0  0  0  0  0  0  0
   -0.4625    8.8276    5.8096 C   0  0  0  0  0  0  0  0  0  0  0  0
   -0.7665    9.5973    8.1430 O   0  0  0  0  0  0  0  0  0  0  0  0
   -3.0412   10.2884    5.2013 N   0  0  0  0  0  0  0  0  0  0  0  0
   -3.1452   11.8238    9.9318 O   0  0  0  0  0  0  0  0  0  0  0  0
   -3.8071   12.3334    7.1509 O   0  0  0  0  0  0  0  0  0  0  0  0
   -0.6820    7.4543    5.5042 O   0  0  0  0  0  0  0  0  0  0  0  0
    3.5197    5.1964   11.7938 C   0  0  1  0  0  0  0  0  0  0  0  0
    4.1073    3.9205   12.4594 C   0  0  1  0  0  0  0  0  0  0  0  0
    4.1932    4.0828   14.0032 C   0  0  2  0  0  0  0  0  0  0  0  0
    4.9733    5.3701   14.4251 C   0  0  1  0  0  0  0  0  0  0  0  0
    4.4925    6.6457   13.6704 C   0  0  0  0  0  0  0  0  0  0  0  0
    4.4005    6.4334   12.1292 C   0  0  2  0  0  0  0  0  0  0  0  0
    4.9078    5.5680   15.8888 N   0  0  0  0  0  0  0  0  0  0  0  0
    3.8896    7.6682   11.4955 N   0  0  0  0  0  0  0  0  0  0  0  0
    3.3423    2.7704   12.1135 O   0  0  0  0  0  0  0  0  0  0  0  0
    4.7827    2.9270   14.5932 O   0  0  0  0  0  0  0  0  0  0  0  0
  1  2  1  0  0  0  0
  1 16  1  1  0  0  0
  2  3  1  0  0  0  0
  2 12  1  6  0  0  0
  4 11  1  1  0  0  0
  4  3  1  0  0  0  0
  5  4  1  0  0  0  0
  5 10  1  6  0  0  0
  6  7  1  0  0  0  0
  6  5  1  0  0  0  0
  6 14  1  6  0  0  0
  7  8  1  0  0  0  0
  7 13  1  1  0  0  0
  8 15  1  1  0  0  0
  8 11  1  0  0  0  0
  9 13  1  0  0  0  0
 10  1  1  0  0  0  0
 17 15  1  6  0  0  0
 17 18  1  0  0  0  0
 18 25  1  1  0  0  0
 19 18  1  0  0  0  0
 19 26  1  6  0  0  0
 20 19  1  0  0  0  0
 20 24  1  6  0  0  0
 21 23  1  0  0  0  0
 21 20  1  0  0  0  0
 21 22  1  6  0  0  0
 23 17  1  0  0  0  0
 27 22  1  0  0  0  0
 28 29  1  0  0  0  0
 28 16  1  6  0  0  0
 29 36  1  1  0  0  0
 30 37  1  1  0  0  0
 30 29  1  0  0  0  0
 31 30  1  0  0  0  0
 31 34  1  1  0  0  0
 32 31  1  0  0  0  0
 32 33  1  0  0  0  0
 33 28  1  0  0  0  0
 33 35  1  6  0  0  0
M  END
>  <CHROM.1>
77.44319202,97.74892026,163.01772773,41.13788741,167.71298580,159.07206795
61.92365944,61.21061595,-125.36973631,66.22870911,179.91692784,82.26102699
62.11977049,-176.19501169,-170.62874214,63.91315371,0.45699705,7.14253377
10.16700415,-0.51688883,0.73972472,-1.62210853

>  <Name>
lig.pdb

>  <RI>
0

>  <Rbt.Current_Directory>
/home/itssahil/PROJECTS/Mol_Feturizer/New_Systems/rnas/2m4q

>  <Rbt.Executable>
rbdock ($Id: //depot/dev/client3/rdock/2013.1/src/exe/rbdock.cxx#4 $)

>  <Rbt.Library>
libRbt.so (2013.1, Build901 2013/11/27)

>  <Rbt.Parameter_File>
/export/apps/rDock/src/rDock_2013.1_src/data/scripts/dock_solv.prm

>  <Rbt.Receptor>
prm/pocket_docking_3.prm

>  <SCORE>
-38.1096

>  <SCORE.INTER>
-26.0652

>  <SCORE.INTER.CONST>
1

>  <SCORE.INTER.POLAR>
-3.93862

>  <SCORE.INTER.ROT>
10

>  <SCORE.INTER.SOLV>
16.5611

>  <SCORE.INTER.VDW>
-20.0351

>  <SCORE.INTER.norm>
-0.704464

>  <SCORE.INTRA>
-12.5393

>  <SCORE.INTRA.DIHEDRAL>
-26.3532

>  <SCORE.INTRA.DIHEDRAL.0>
44.8331

>  <SCORE.INTRA.POLAR>
-0.174559

>  <SCORE.INTRA.POLAR.0>
-0.108895

>  <SCORE.INTRA.REPUL>
-0.00912235

>  <SCORE.INTRA.REPUL.0>
0.00912235

>  <SCORE.INTRA.SOLV>
-1.08424

>  <SCORE.INTRA.SOLV.lig_0>
-53.9067

>  <SCORE.INTRA.VDW>
1.81853

>  <SCORE.INTRA.VDW.0>
-2.93492

>  <SCORE.INTRA.norm>
-0.3389

>  <SCORE.RESTR>
0.494874

>  <SCORE.RESTR.CAVITY>
0.494874

>  <SCORE.RESTR.norm>
0.013375

>  <SCORE.SYSTEM>
0

>  <SCORE.SYSTEM.CONST>
0

>  <SCORE.SYSTEM.DIHEDRAL>
0

>  <SCORE.SYSTEM.SOLV>
0

>  <SCORE.SYSTEM.norm>
0

>  <SCORE.heavy>
37

>  <SCORE.norm>
-1.02999

>  <RMSD>
9.449

$$$$
lig.pdb
 OpenBabel11021811453D
libRbt.so/2013.1/901 2013/11/27
 37 40  0  0  0  0  0  0  0  0999 V2000
   -4.5092    1.8678   14.7208 C   0  0  2  0  0  0  0  0  0  0  0  0
   -3.4908    2.8273   14.0212 C   0  0  1  0  0  0  0  0  0  0  0  0
   -2.2749    2.0835   13.3950 C   0  0  0  0  0  0  0  0  0  0  0  0
   -1.6485    1.0903   14.4050 C   0  0  1  0  0  0  0  0  0  0  0  0
   -2.7269    0.1086   14.9155 C   0  0  1  0  0  0  0  0  0  0  0  0
   -2.1162   -0.9291   15.8952 C   0  0  1  0  0  0  0  0  0  0  0  0
   -0.8936   -1.6484   15.2514 C   0  0  1  0  0  0  0  0  0  0  0  0
    0.1390   -0.6370   14.6709 C   0  0  2  0  0  0  0  0  0  0  0  0
   -1.0023   -3.8411   16.3441 C   0  0  0  0  0  0  0  0  0  0  0  0
   -3.8342    0.8400   15.5164 O   0  0  0  0  0  0  0  0  0  0  0  0
   -0.5108    0.3754   13.8424 O   0  0  0  0  0  0  0  0  0  0  0  0
   -4.1824    3.6145   12.9774 N   0  0  0  0  0  0  0  0  0  0  0  0
   -0.2830   -2.5526   16.2478 N   0  0  0  0  0  0  0  0  0  0  0  0
   -1.7654   -0.3258   17.1340 O   0  0  0  0  0  0  0  0  0  0  0  0
    1.1786   -1.3402   13.9298 O   0  0  0  0  0  0  0  0  0  0  0  0
   -5.4079    1.2519   13.7483 O   0  0  0  0  0  0  0  0  0  0  0  0
    2.2427   -0.5560   13.3079 C   0  0  2  0  0  0  0  0  0  0  0  0
    3.6168   -1.2706   13.4488 C   0  0  1  0  0  0  0  0  0  0  0  0
    4.1295   -1.2481   14.9173 C   0  0  2  0  0  0  0  0  0  0  0  0
    4.1366    0.1998   15.4878 C   0  0  1  0  0  0  0  0  0  0  0  0
    2.7566    0.8883   15.2954 C   0  0  1  0  0  0  0  0  0  0  0  0
    2.7869    2.3758   15.7345 C   0  0  0  0  0  0  0  0  0  0  0  0
    2.3188    0.7718   13.9076 O   0  0  0  0  0  0  0  0  0  0  0  0
    4.5572    0.2200   16.9060 N   0  0  0  0  0  0  0  0  0  0  0  0
    3.5458   -2.5989   12.9341 O   0  0  0  0  0  0  0  0  0  0  0  0
    5.4189   -1.8481   15.0218 O   0  0  0  0  0  0  0  0  0  0  0  0
    1.4666    2.8891   15.8787 O   0  0  0  0  0  0  0  0  0  0  0  0
   -6.8382    1.2977   14.0240 C   0  0  1  0  0  0  0  0  0  0  0  0
   -7.1537    0.9853   15.5137 C   0  0  1  0  0  0  0  0  0  0  0  0
   -8.6874    0.9439   15.7648 C   0  0  2  0  0  0  0  0  0  0  0  0
   -9.4066    2.2441   15.2788 C   0  0  1  0  0  0  0  0  0  0  0  0
   -9.0031    2.6558   13.8313 C   0  0  0  0  0  0  0  0  0  0  0  0
   -7.4595    2.6640   13.6169 C   0  0  2  0  0  0  0  0  0  0  0  0
  -10.8740    2.1087   15.3984 N   0  0  0  0  0  0  0  0  0  0  0  0
   -7.1634    3.0125   12.2104 N   0  0  0  0  0  0  0  0  0  0  0  0
   -6.5422   -0.2362   15.9156 O   0  0  0  0  0  0  0  0  0  0  0  0
   -8.9599    0.7096   17.1441 O   0  0  0  0  0  0  0  0  0  0  0  0
  1  2  1  0  0  0  0
  1 16  1  6  0  0  0
  2  3  1  0  0  0  0
  2 12  1  6  0  0  0
  4 11  1  6  0  0  0
  4  3  1  0  0  0  0
  5  4  1  0  0  0  0
  5 10  1  1  0  0  0
  6  7  1  0  0  0  0
  6  5  1  0  0  0  0
  6 14  1  1  0  0  0
  7  8  1  0  0  0  0
  7 13  1  1  0  0  0
  8 15  1  6  0  0  0
  8 11  1  0  0  0  0
  9 13  1  0  0  0  0
 10  1  1  0  0  0  0
 17 15  1  1  0  0  0
 17 18  1  0  0  0  0
 18 25  1  1  0  0  0
 19 18  1  0  0  0  0
 19 26  1  6  0  0  0
 20 19  1  0  0  0  0
 20 24  1  1  0  0  0
 21 23  1  0  0  0  0
 21 20  1  0  0  0  0
 21 22  1  6  0  0  0
 23 17  1  0  0  0  0
 27 22  1  0  0  0  0
 28 29  1  0  0  0  0
 28 16  1  1  0  0  0
 29 36  1  6  0  0  0
 30 37  1  1  0  0  0
 30 29  1  0  0  0  0
 31 30  1  0  0  0  0
 31 34  1  6  0  0  0
 32 31  1  0  0  0  0
 32 33  1  0  0  0  0
 33 28  1  0  0  0  0
 33 35  1  6  0  0  0
M  END
>  <CHROM.1>
-70.20882014,179.99260568,81.47435679,-54.30322408,140.68702295,-130.50938921
-118.45803631,-172.96968032,-165.05089395,-41.08246695,-57.13480348,-42.81128949
68.32265334,-173.63468156,76.14938628,-93.22993679,-2.09290692,0.49646182
14.84390664,-2.94816109,-0.10115212,2.63476548

>  <Name>
lig.pdb

>  <RI>
0

>  <Rbt.Current_Directory>
/home/itssahil/PROJECTS/Mol_Feturizer/New_Systems/rnas/2m4q

>  <Rbt.Executable>
rbdock ($Id: //depot/dev/client3/rdock/2013.1/src/exe/rbdock.cxx#4 $)

>  <Rbt.Library>
libRbt.so (2013.1, Build901 2013/11/27)

>  <Rbt.Parameter_File>
/export/apps/rDock/src/rDock_2013.1_src/data/scripts/dock_solv.prm

>  <Rbt.Receptor>
prm/blind_docking_20.prm

>  <SCORE>
-1.78521

>  <SCORE.INTER>
-9.15997

>  <SCORE.INTER.CONST>
1

>  <SCORE.INTER.POLAR>
-2.01977

>  <SCORE.INTER.ROT>
10

>  <SCORE.INTER.SOLV>
21.9285

>  <SCORE.INTER.VDW>
-16.9503

>  <SCORE.INTER.norm>
-0.247567

>  <SCORE.INTRA>
-14.1806

>  <SCORE.INTRA.DIHEDRAL>
-19.1894

>  <SCORE.INTRA.DIHEDRAL.0>
44.8331

>  <SCORE.INTRA.POLAR>
-1.48698

>  <SCORE.INTRA.POLAR.0>
-0.108895

>  <SCORE.INTRA.REPUL>
-0.00912235

>  <SCORE.INTRA.REPUL.0>
0.00912235

>  <SCORE.INTRA.SOLV>
-0.635497

>  <SCORE.INTRA.SOLV.lig_0>
-53.9067

>  <SCORE.INTRA.VDW>
0.833173

>  <SCORE.INTRA.VDW.0>
-2.93492

>  <SCORE.INTRA.norm>
-0.383261

>  <SCORE.RESTR>
21.5554

>  <SCORE.RESTR.CAVITY>
21.5554

>  <SCORE.RESTR.norm>
0.582579

>  <SCORE.SYSTEM>
0

>  <SCORE.SYSTEM.CONST>
0

>  <SCORE.SYSTEM.DIHEDRAL>
0

>  <SCORE.SYSTEM.SOLV>
0

>  <SCORE.SYSTEM.norm>
0

>  <SCORE.heavy>
37

>  <SCORE.norm>
-0.0482488

>  <RMSD>
9.451

$$$$
lig.pdb
 OpenBabel11021811453D
libRbt.so/2013.1/901 2013/11/27
 37 40  0  0  0  0  0  0  0  0999 V2000
   -3.9261    1.6265   16.2192 C   0  0  2  0  0  0  0  0  0  0  0  0
   -3.2458    2.6161   15.2169 C   0  0  1  0  0  0  0  0  0  0  0  0
   -2.2710    1.9150   14.2259 C   0  0  0  0  0  0  0  0  0  0  0  0
   -1.2971    0.9722   14.9751 C   0  0  1  0  0  0  0  0  0  0  0  0
   -2.0955   -0.0464   15.8191 C   0  0  1  0  0  0  0  0  0  0  0  0
   -1.1443   -1.0351   16.5452 C   0  0  1  0  0  0  0  0  0  0  0  0
   -0.1703   -1.7118   15.5352 C   0  0  1  0  0  0  0  0  0  0  0  0
    0.5604   -0.6672   14.6402 C   0  0  2  0  0  0  0  0  0  0  0  0
    0.1209   -3.7565   16.8574 C   0  0  0  0  0  0  0  0  0  0  0  0
   -2.9758    0.6467   16.7503 O   0  0  0  0  0  0  0  0  0  0  0  0
   -0.3764    0.2977   14.0699 O   0  0  0  0  0  0  0  0  0  0  0  0
   -4.2821    3.3497   14.4584 N   0  0  0  0  0  0  0  0  0  0  0  0
    0.7798   -2.5668   16.2765 N   0  0  0  0  0  0  0  0  0  0  0  0
   -0.4330   -0.3912   17.5944 O   0  0  0  0  0  0  0  0  0  0  0  0
    1.3289   -1.3380   13.5991 O   0  0  0  0  0  0  0  0  0  0  0  0
   -5.0648    0.9508   15.6031 O   0  0  0  0  0  0  0  0  0  0  0  0
    2.4296   -0.6131   12.9691 C   0  0  2  0  0  0  0  0  0  0  0  0
    3.7515   -1.4286   13.0481 C   0  0  1  0  0  0  0  0  0  0  0  0
    4.3048   -1.4889   14.5008 C   0  0  2  0  0  0  0  0  0  0  0  0
    4.4328   -0.0638   15.1128 C   0  0  1  0  0  0  0  0  0  0  0  0
    3.1017    0.7277   14.9817 C   0  0  1  0  0  0  0  0  0  0  0  0
    3.2521    2.1948   15.4629 C   0  0  0  0  0  0  0  0  0  0  0  0
    2.6185    0.6864   13.6047 O   0  0  0  0  0  0  0  0  0  0  0  0
    4.8927   -0.1181   16.5178 N   0  0  0  0  0  0  0  0  0  0  0  0
    3.5701   -2.7317   12.4972 O   0  0  0  0  0  0  0  0  0  0  0  0
    5.5496   -2.1828   14.5493 O   0  0  0  0  0  0  0  0  0  0  0  0
    4.1861    2.9010   14.6528 O   0  0  0  0  0  0  0  0  0  0  0  0
   -6.2871    1.7211   15.4121 C   0  0  1  0  0  0  0  0  0  0  0  0
   -7.0149    1.3395   14.0927 C   0  0  1  0  0  0  0  0  0  0  0  0
   -8.2618    2.2386   13.8603 C   0  0  2  0  0  0  0  0  0  0  0  0
   -9.2357    2.2351   15.0832 C   0  0  1  0  0  0  0  0  0  0  0  0
   -8.5085    2.4824   16.4388 C   0  0  0  0  0  0  0  0  0  0  0  0
   -7.2537    1.5765   16.6217 C   0  0  2  0  0  0  0  0  0  0  0  0
  -10.3293    3.2105   14.8864 N   0  0  0  0  0  0  0  0  0  0  0  0
   -6.5942    1.9082   17.9033 N   0  0  0  0  0  0  0  0  0  0  0  0
   -6.1248    1.4127   12.9836 O   0  0  0  0  0  0  0  0  0  0  0  0
   -8.9479    1.8418   12.6756 O   0  0  0  0  0  0  0  0  0  0  0  0
  1  2  1  0  0  0  0
  1 16  1  6  0  0  0
  2  3  1  0  0  0  0
  2 12  1  6  0  0  0
  4 11  1  6  0  0  0
  4  3  1  0  0  0  0
  5  4  1  0  0  0  0
  5 10  1  1  0  0  0
  6  7  1  0  0  0  0
  6  5  1  0  0  0  0
  6 14  1  1  0  0  0
  7  8  1  0  0  0  0
  7 13  1  1  0  0  0
  8 15  1  6  0  0  0
  8 11  1  0  0  0  0
  9 13  1  0  0  0  0
 10  1  1  0  0  0  0
 17 15  1  1  0  0  0
 17 18  1  0  0  0  0
 18 25  1  1  0  0  0
 19 18  1  0  0  0  0
 19 26  1  6  0  0  0
 20 19  1  0  0  0  0
 20 24  1  1  0  0  0
 21 23  1  0  0  0  0
 21 20  1  0  0  0  0
 21 22  1  6  0  0  0
 23 17  1  0  0  0  0
 27 22  1  0  0  0  0
 28 29  1  0  0  0  0
 28 16  1  1  0  0  0
 29 36  1  6  0  0  0
 30 37  1  6  0  0  0
 30 29  1  0  0  0  0
 31 30  1  0  0  0  0
 31 34  1  6  0  0  0
 32 31  1  0  0  0  0
 32 33  1  0  0  0  0
 33 28  1  0  0  0  0
 33 35  1  1  0  0  0
M  END
>  <CHROM.1>
42.30177620,-158.74157410,69.45192665,55.50076676,125.99535706,-74.43093911
16.01918779,44.61432963,62.98373900,-48.32153861,-59.48480473,143.83034550
104.93340005,-67.67914198,16.79923875,-163.71164729,-1.61278835,0.49940211
15.01747422,2.98691707,0.20604224,-0.78332018

>  <Name>
lig.pdb

>  <RI>
0

>  <Rbt.Current_Directory>
/home/itssahil/PROJECTS/Mol_Feturizer/New_Systems/rnas/2m4q

>  <Rbt.Executable>
rbdock ($Id: //depot/dev/client3/rdock/2013.1/src/exe/rbdock.cxx#4 $)

>  <Rbt.Library>
libRbt.so (2013.1, Build901 2013/11/27)

>  <Rbt.Parameter_File>
/export/apps/rDock/src/rDock_2013.1_src/data/scripts/dock_solv.prm

>  <Rbt.Receptor>
prm/blind_docking_20.prm

>  <SCORE>
11.5421

>  <SCORE.INTER>
-4.21749

>  <SCORE.INTER.CONST>
1

>  <SCORE.INTER.POLAR>
-2.7982

>  <SCORE.INTER.ROT>
10

>  <SCORE.INTER.SOLV>
25.7951

>  <SCORE.INTER.VDW>
-12.3494

>  <SCORE.INTER.norm>
-0.113986

>  <SCORE.INTRA>
-6.81185

>  <SCORE.INTRA.DIHEDRAL>
-13.0803

>  <SCORE.INTRA.DIHEDRAL.0>
44.8331

>  <SCORE.INTRA.POLAR>
-0.917908

>  <SCORE.INTRA.POLAR.0>
-0.108895

>  <SCORE.INTRA.REPUL>
-0.00912235

>  <SCORE.INTRA.REPUL.0>
0.00912235

>  <SCORE.INTRA.SOLV>
-0.111417

>  <SCORE.INTRA.SOLV.lig_0>
-53.9067

>  <SCORE.INTRA.VDW>
2.95049

>  <SCORE.INTRA.VDW.0>
-2.93492

>  <SCORE.INTRA.norm>
-0.184104

>  <SCORE.RESTR>
22.5714

>  <SCORE.RESTR.CAVITY>
22.5714

>  <SCORE.RESTR.norm>
0.610039

>  <SCORE.SYSTEM>
0

>  <SCORE.SYSTEM.CONST>
0

>  <SCORE.SYSTEM.DIHEDRAL>
0

>  <SCORE.SYSTEM.SOLV>
0

>  <SCORE.SYSTEM.norm>
0

>  <SCORE.heavy>
37

>  <SCORE.norm>
0.311949

>  <RMSD>
9.470

$$$$
lig.pdb
 OpenBabel11021811453D
libRbt.so/2013.1/901 2013/11/27
 37 40  0  0  0  0  0  0  0  0999 V2000
   -4.2720    1.6046   15.1560 C   0  0  2  0  0  0  0  0  0  0  0  0
   -3.3095    2.7271   14.6453 C   0  0  1  0  0  0  0  0  0  0  0  0
   -2.0260    2.1726   13.9605 C   0  0  0  0  0  0  0  0  0  0  0  0
   -1.3543    1.0839   14.8337 C   0  0  1  0  0  0  0  0  0  0  0  0
   -2.3700   -0.0361   15.1520 C   0  0  1  0  0  0  0  0  0  0  0  0
   -1.7099   -1.1653   15.9880 C   0  0  1  0  0  0  0  0  0  0  0  0
   -0.4211   -1.6925   15.2896 C   0  0  1  0  0  0  0  0  0  0  0  0
    0.5486   -0.5359   14.9049 C   0  0  2  0  0  0  0  0  0  0  0  0
   -0.5405   -3.9538   16.2309 C   0  0  0  0  0  0  0  0  0  0  0  0
   -3.5437    0.5175   15.8139 O   0  0  0  0  0  0  0  0  0  0  0  0
   -0.1525    0.5428   14.2131 O   0  0  0  0  0  0  0  0  0  0  0  0
   -4.0301    3.6134   13.7057 N   0  0  0  0  0  0  0  0  0  0  0  0
    0.2286   -2.6925   16.1620 N   0  0  0  0  0  0  0  0  0  0  0  0
   -1.4371   -0.7335   17.3149 O   0  0  0  0  0  0  0  0  0  0  0  0
    1.6564   -1.0451   14.1060 O   0  0  0  0  0  0  0  0  0  0  0  0
   -5.0969    1.0822   14.0702 O   0  0  0  0  0  0  0  0  0  0  0  0
    2.7980   -0.1679   13.8586 C   0  0  2  0  0  0  0  0  0  0  0  0
    4.0700   -0.9930   13.5122 C   0  0  1  0  0  0  0  0  0  0  0  0
    4.6177   -1.7548   14.7530 C   0  0  2  0  0  0  0  0  0  0  0  0
    4.8282   -0.7906   15.9563 C   0  0  1  0  0  0  0  0  0  0  0  0
    3.5457    0.0382   16.2458 C   0  0  1  0  0  0  0  0  0  0  0  0
    3.7811    1.0994   17.3524 C   0  0  0  0  0  0  0  0  0  0  0  0
    3.0619    0.6712   15.0224 O   0  0  0  0  0  0  0  0  0  0  0  0
    5.2830   -1.5200   17.1603 N   0  0  0  0  0  0  0  0  0  0  0  0
    3.8131   -1.8754   12.4213 O   0  0  0  0  0  0  0  0  0  0  0  0
    5.8198   -2.4544   14.4385 O   0  0  0  0  0  0  0  0  0  0  0  0
    2.5518    1.6959   17.7528 O   0  0  0  0  0  0  0  0  0  0  0  0
   -6.5337    0.9887   14.2959 C   0  0  1  0  0  0  0  0  0  0  0  0
   -7.1558    2.3655   14.6617 C   0  0  1  0  0  0  0  0  0  0  0  0
   -8.6686    2.2266   14.9926 C   0  0  2  0  0  0  0  0  0  0  0  0
   -9.4654    1.5133   13.8523 C   0  0  1  0  0  0  0  0  0  0  0  0
   -8.7886    0.1944   13.3725 C   0  0  0  0  0  0  0  0  0  0  0  0
   -7.2698    0.3730   13.0722 C   0  0  2  0  0  0  0  0  0  0  0  0
  -10.8644    1.2683   14.2632 N   0  0  0  0  0  0  0  0  0  0  0  0
   -6.6939   -0.9300   12.6747 N   0  0  0  0  0  0  0  0  0  0  0  0
   -6.4542    2.9668   15.7451 O   0  0  0  0  0  0  0  0  0  0  0  0
   -9.2360    3.5036   15.2735 O   0  0  0  0  0  0  0  0  0  0  0  0
  1  2  1  0  0  0  0
  1 16  1  6  0  0  0
  2  3  1  0  0  0  0
  2 12  1  6  0  0  0
  4 11  1  6  0  0  0
  4  3  1  0  0  0  0
  5  4  1  0  0  0  0
  5 10  1  1  0  0  0
  6  7  1  0  0  0  0
  6  5  1  0  0  0  0
  6 14  1  1  0  0  0
  7  8  1  0  0  0  0
  7 13  1  1  0  0  0
  8 15  1  6  0  0  0
  8 11  1  0  0  0  0
  9 13  1  0  0  0  0
 10  1  1  0  0  0  0
 17 15  1  1  0  0  0
 17 18  1  0  0  0  0
 18 25  1  6  0  0  0
 19 18  1  0  0  0  0
 19 26  1  6  0  0  0
 20 19  1  0  0  0  0
 20 24  1  1  0  0  0
 21 23  1  0  0  0  0
 21 20  1  0  0  0  0
 21 22  1  1  0  0  0
 23 17  1  0  0  0  0
 27 22  1  0  0  0  0
 28 29  1  0  0  0  0
 28 16  1  6  0  0  0
 29 36  1  1  0  0  0
 30 37  1  6  0  0  0
 30 29  1  0  0  0  0
 31 30  1  0  0  0  0
 31 34  1  1  0  0  0
 32 31  1  0  0  0  0
 32 33  1  0  0  0  0
 33 28  1  0  0  0  0
 33 35  1  1  0  0  0
M  END
>  <CHROM.1>
20.15602344,-168.73459423,70.93275481,62.62725712,157.49643255,-130.40890003
158.20443798,-36.28777752,-170.61038185,172.95637893,-59.18476995,57.63439251
-63.87370819,-60.67672215,66.43054933,57.67102965,-1.72753520,0.26566817
14.94370522,-2.96628824,0.16813080,-2.72592146

>  <Name>
lig.pdb

>  <RI>
0

>  <Rbt.Current_Directory>
/home/itssahil/PROJECTS/Mol_Feturizer/New_Systems/rnas/2m4q

>  <Rbt.Executable>
rbdock ($Id: //depot/dev/client3/rdock/2013.1/src/exe/rbdock.cxx#4 $)

>  <Rbt.Library>
libRbt.so (2013.1, Build901 2013/11/27)

>  <Rbt.Parameter_File>
/export/apps/rDock/src/rDock_2013.1_src/data/scripts/dock_solv.prm

>  <Rbt.Receptor>
prm/blind_docking_20.prm

>  <SCORE>
-2.26505

>  <SCORE.INTER>
-9.30896

>  <SCORE.INTER.CONST>
1

>  <SCORE.INTER.POLAR>
-2.23852

>  <SCORE.INTER.ROT>
10

>  <SCORE.INTER.SOLV>
25.3846

>  <SCORE.INTER.VDW>
-17.4724

>  <SCORE.INTER.norm>
-0.251593

>  <SCORE.INTRA>
-12.7494

>  <SCORE.INTRA.DIHEDRAL>
-27.7372

>  <SCORE.INTRA.DIHEDRAL.0>
44.8331

>  <SCORE.INTRA.POLAR>
0.01114

>  <SCORE.INTRA.POLAR.0>
-0.108895

>  <SCORE.INTRA.REPUL>
-0.00912235

>  <SCORE.INTRA.REPUL.0>
0.00912235

>  <SCORE.INTRA.SOLV>
-1.42839

>  <SCORE.INTRA.SOLV.lig_0>
-53.9067

>  <SCORE.INTRA.VDW>
1.84118

>  <SCORE.INTRA.VDW.0>
-2.93492

>  <SCORE.INTRA.norm>
-0.344577

>  <SCORE.RESTR>
19.7933

>  <SCORE.RESTR.CAVITY>
19.7933

>  <SCORE.RESTR.norm>
0.534953

>  <SCORE.SYSTEM>
0

>  <SCORE.SYSTEM.CONST>
0

>  <SCORE.SYSTEM.DIHEDRAL>
0

>  <SCORE.SYSTEM.SOLV>
0

>  <SCORE.SYSTEM.norm>
0

>  <SCORE.heavy>
37

>  <SCORE.norm>
-0.0612175

>  <RMSD>
9.474

$$$$
lig.pdb
 OpenBabel11021811453D
libRbt.so/2013.1/901 2013/11/27
 37 40  0  0  0  0  0  0  0  0999 V2000
    2.7768    4.1993    9.3590 C   0  0  2  0  0  0  0  0  0  0  0  0
    2.5638    4.7227    7.9003 C   0  0  1  0  0  0  0  0  0  0  0  0
    1.9036    6.1315    7.8423 C   0  0  0  0  0  0  0  0  0  0  0  0
    0.6499    6.1974    8.7494 C   0  0  1  0  0  0  0  0  0  0  0  0
    1.0230    5.7923   10.1930 C   0  0  1  0  0  0  0  0  0  0  0  0
   -0.2063    5.8945   11.1354 C   0  0  1  0  0  0  0  0  0  0  0  0
   -0.8572    7.3072   11.0481 C   0  0  1  0  0  0  0  0  0  0  0  0
   -1.1473    7.7259    9.5761 C   0  0  2  0  0  0  0  0  0  0  0  0
   -1.7639    7.4146   13.3241 C   0  0  0  0  0  0  0  0  0  0  0  0
    1.6132    4.4606   10.2091 O   0  0  0  0  0  0  0  0  0  0  0  0
    0.0150    7.5081    8.7186 O   0  0  0  0  0  0  0  0  0  0  0  0
    3.8586    4.7514    7.1860 N   0  0  0  0  0  0  0  0  0  0  0  0
   -2.0772    7.3312   11.8812 N   0  0  0  0  0  0  0  0  0  0  0  0
   -1.1551    4.8722   10.8593 O   0  0  0  0  0  0  0  0  0  0  0  0
   -1.5943    9.1121    9.5201 O   0  0  0  0  0  0  0  0  0  0  0  0
    3.9820    4.7703    9.9540 O   0  0  0  0  0  0  0  0  0  0  0  0
   -0.7728   10.1356   10.1614 C   0  0  2  0  0  0  0  0  0  0  0  0
   -1.2864   11.5616    9.8130 C   0  0  1  0  0  0  0  0  0  0  0  0
   -1.0075   11.9269    8.3269 C   0  0  2  0  0  0  0  0  0  0  0  0
    0.4925   11.7174    7.9689 C   0  0  1  0  0  0  0  0  0  0  0  0
    0.9730   10.2934    8.3649 C   0  0  1  0  0  0  0  0  0  0  0  0
    2.4975   10.1149    8.1404 C   0  0  0  0  0  0  0  0  0  0  0  0
    0.6215   10.0051    9.7522 O   0  0  0  0  0  0  0  0  0  0  0  0
    0.7513   11.9966    6.5394 N   0  0  0  0  0  0  0  0  0  0  0  0
   -2.6695   11.6892   10.1379 O   0  0  0  0  0  0  0  0  0  0  0  0
   -1.4237   13.2597    8.0374 O   0  0  0  0  0  0  0  0  0  0  0  0
    2.9661    8.9241    8.7647 O   0  0  0  0  0  0  0  0  0  0  0  0
    4.7855    3.9106   10.8137 C   0  0  1  0  0  0  0  0  0  0  0  0
    4.0392    3.5389   12.1256 C   0  0  1  0  0  0  0  0  0  0  0  0
    4.9485    2.7030   13.0699 C   0  0  2  0  0  0  0  0  0  0  0  0
    5.5436    1.4423   12.3627 C   0  0  1  0  0  0  0  0  0  0  0  0
    6.1808    1.7672   10.9785 C   0  0  0  0  0  0  0  0  0  0  0  0
    5.2455    2.6233   10.0724 C   0  0  2  0  0  0  0  0  0  0  0  0
    6.5147    0.7564   13.2418 N   0  0  0  0  0  0  0  0  0  0  0  0
    5.9414    2.9306    8.8041 N   0  0  0  0  0  0  0  0  0  0  0  0
    3.5626    4.7070   12.7858 O   0  0  0  0  0  0  0  0  0  0  0  0
    4.2333    2.3251   14.2436 O   0  0  0  0  0  0  0  0  0  0  0  0
  1  2  1  0  0  0  0
  1 16  1  1  0  0  0
  2  3  1  0  0  0  0
  2 12  1  1  0  0  0
  4 11  1  1  0  0  0
  4  3  1  0  0  0  0
  5  4  1  0  0  0  0
  5 10  1  6  0  0  0
  6  7  1  0  0  0  0
  6  5  1  0  0  0  0
  6 14  1  6  0  0  0
  7  8  1  0  0  0  0
  7 13  1  1  0  0  0
  8 15  1  1  0  0  0
  8 11  1  0  0  0  0
  9 13  1  0  0  0  0
 10  1  1  0  0  0  0
 17 15  1  6  0  0  0
 17 18  1  0  0  0  0
 18 25  1  6  0  0  0
 19 18  1  0  0  0  0
 19 26  1  1  0  0  0
 20 19  1  0  0  0  0
 20 24  1  6  0  0  0
 21 23  1  0  0  0  0
 21 20  1  0  0  0  0
 21 22  1  1  0  0  0
 23 17  1  0  0  0  0
 27 22  1  0  0  0  0
 28 29  1  0  0  0  0
 28 16  1  6  0  0  0
 29 36  1  1  0  0  0
 30 37  1  1  0  0  0
 30 29  1  0  0  0  0
 31 30  1  0  0  0  0
 31 34  1  1  0  0  0
 32 31  1  0  0  0  0
 32 33  1  0  0  0  0
 33 28  1  0  0  0  0
 33 35  1  6  0  0  0
M  END
>  <CHROM.1>
-65.08863982,52.81098169,75.74727927,-178.19388339,171.25275833,-142.45270361
179.34250152,-173.95967675,167.63729652,-47.45618072,176.80084391,-67.08204260
179.78211512,62.20832013,-70.21763244,-64.78983681,1.65377801,6.69004896
10.05676525,-0.84333145,0.59573866,-0.76463486

>  <Name>
lig.pdb

>  <RI>
0

>  <Rbt.Current_Directory>
/home/itssahil/PROJECTS/Mol_Feturizer/New_Systems/rnas/2m4q

>  <Rbt.Executable>
rbdock ($Id: //depot/dev/client3/rdock/2013.1/src/exe/rbdock.cxx#4 $)

>  <Rbt.Library>
libRbt.so (2013.1, Build901 2013/11/27)

>  <Rbt.Parameter_File>
/export/apps/rDock/src/rDock_2013.1_src/data/scripts/dock_solv.prm

>  <Rbt.Receptor>
prm/pocket_docking_7.prm

>  <SCORE>
-39.003

>  <SCORE.INTER>
-16.3163

>  <SCORE.INTER.CONST>
1

>  <SCORE.INTER.POLAR>
-3.05907

>  <SCORE.INTER.ROT>
10

>  <SCORE.INTER.SOLV>
12.4279

>  <SCORE.INTER.VDW>
-15.0899

>  <SCORE.INTER.norm>
-0.440981

>  <SCORE.INTRA>
-22.6867

>  <SCORE.INTRA.DIHEDRAL>
-36.8259

>  <SCORE.INTRA.DIHEDRAL.0>
44.8331

>  <SCORE.INTRA.POLAR>
-0.981539

>  <SCORE.INTRA.POLAR.0>
-0.108895

>  <SCORE.INTRA.REPUL>
0.056221

>  <SCORE.INTRA.REPUL.0>
0.00912235

>  <SCORE.INTRA.SOLV>
0.374562

>  <SCORE.INTRA.SOLV.lig_0>
-53.9067

>  <SCORE.INTRA.VDW>
-1.40489

>  <SCORE.INTRA.VDW.0>
-2.93492

>  <SCORE.INTRA.norm>
-0.613153

>  <SCORE.RESTR>
0

>  <SCORE.RESTR.CAVITY>
0

>  <SCORE.RESTR.norm>
0

>  <SCORE.SYSTEM>
0

>  <SCORE.SYSTEM.CONST>
0

>  <SCORE.SYSTEM.DIHEDRAL>
0

>  <SCORE.SYSTEM.SOLV>
0

>  <SCORE.SYSTEM.norm>
0

>  <SCORE.heavy>
37

>  <SCORE.norm>
-1.05413

>  <RMSD>
9.492

$$$$
lig.pdb
 OpenBabel11021811453D
libRbt.so/2013.1/901 2013/11/27
 37 40  0  0  0  0  0  0  0  0999 V2000
   -0.0168    6.1545    7.8228 C   0  0  2  0  0  0  0  0  0  0  0  0
   -0.9218    6.9228    6.8041 C   0  0  1  0  0  0  0  0  0  0  0  0
   -1.5002    8.2509    7.3745 C   0  0  0  0  0  0  0  0  0  0  0  0
   -2.1316    8.0295    8.7713 C   0  0  1  0  0  0  0  0  0  0  0  0
   -1.0936    7.3945    9.7235 C   0  0  1  0  0  0  0  0  0  0  0  0
   -1.6857    7.2041   11.1457 C   0  0  1  0  0  0  0  0  0  0  0  0
   -2.2705    8.5424   11.6876 C   0  0  1  0  0  0  0  0  0  0  0  0
   -3.2506    9.2037   10.6736 C   0  0  2  0  0  0  0  0  0  0  0  0
   -1.9272    7.9168   14.0338 C   0  0  0  0  0  0  0  0  0  0  0  0
   -0.5956    6.1432    9.1681 O   0  0  0  0  0  0  0  0  0  0  0  0
   -2.6760    9.2590    9.3318 O   0  0  0  0  0  0  0  0  0  0  0  0
   -0.1570    7.2040    5.5698 N   0  0  0  0  0  0  0  0  0  0  0  0
   -2.9104    8.2972   12.9966 N   0  0  0  0  0  0  0  0  0  0  0  0
   -2.6616    6.1703   11.1648 O   0  0  0  0  0  0  0  0  0  0  0  0
   -3.6437   10.5289   11.1362 O   0  0  0  0  0  0  0  0  0  0  0  0
    1.3334    6.7102    7.8529 O   0  0  0  0  0  0  0  0  0  0  0  0
   -2.6265   11.5755   11.1980 C   0  0  2  0  0  0  0  0  0  0  0  0
   -3.2802   12.9857   11.2484 C   0  0  1  0  0  0  0  0  0  0  0  0
   -3.9334   13.3665    9.8889 C   0  0  2  0  0  0  0  0  0  0  0  0
   -2.9230   13.2070    8.7160 C   0  0  1  0  0  0  0  0  0  0  0  0
   -2.2684   11.7974    8.7236 C   0  0  1  0  0  0  0  0  0  0  0  0
   -1.1607   11.6691    7.6453 C   0  0  0  0  0  0  0  0  0  0  0  0
   -1.7337   11.4917   10.0473 O   0  0  0  0  0  0  0  0  0  0  0  0
   -3.5574   13.5008    7.4123 N   0  0  0  0  0  0  0  0  0  0  0  0
   -4.2132   13.0673   12.3243 O   0  0  0  0  0  0  0  0  0  0  0  0
   -4.4715   14.6865    9.9279 O   0  0  0  0  0  0  0  0  0  0  0  0
   -1.7284   11.4406    6.3597 O   0  0  0  0  0  0  0  0  0  0  0  0
    2.2811    6.1361    8.7996 C   0  0  1  0  0  0  0  0  0  0  0  0
    3.4131    5.3474    8.0835 C   0  0  1  0  0  0  0  0  0  0  0  0
    4.3567    4.6633    9.1125 C   0  0  2  0  0  0  0  0  0  0  0  0
    4.9257    5.6720   10.1625 C   0  0  1  0  0  0  0  0  0  0  0  0
    3.8239    6.5710   10.7993 C   0  0  0  0  0  0  0  0  0  0  0  0
    2.8882    7.2198    9.7352 C   0  0  2  0  0  0  0  0  0  0  0  0
    5.6967    4.9641   11.2067 N   0  0  0  0  0  0  0  0  0  0  0  0
    1.8436    8.0112   10.4207 N   0  0  0  0  0  0  0  0  0  0  0  0
    2.8703    4.3898    7.1803 O   0  0  0  0  0  0  0  0  0  0  0  0
    5.4189    3.9892    8.4424 O   0  0  0  0  0  0  0  0  0  0  0  0
  1  2  1  0  0  0  0
  1 16  1  1  0  0  0
  2  3  1  0  0  0  0
  2 12  1  6  0  0  0
  4 11  1  1  0  0  0
  4  3  1  0  0  0  0
  5  4  1  0  0  0  0
  5 10  1  6  0  0  0
  6  7  1  0  0  0  0
  6  5  1  0  0  0  0
  6 14  1  6  0  0  0
  7  8  1  0  0  0  0
  7 13  1  1  0  0  0
  8 15  1  1  0  0  0
  8 11  1  0  0  0  0
  9 13  1  0  0  0  0
 10  1  1  0  0  0  0
 17 15  1  6  0  0  0
 17 18  1  0  0  0  0
 18 25  1  1  0  0  0
 19 18  1  0  0  0  0
 19 26  1  1  0  0  0
 20 19  1  0  0  0  0
 20 24  1  6  0  0  0
 21 23  1  0  0  0  0
 21 20  1  0  0  0  0
 21 22  1  6  0  0  0
 23 17  1  0  0  0  0
 27 22  1  0  0  0  0
 28 29  1  0  0  0  0
 28 16  1  6  0  0  0
 29 36  1  6  0  0  0
 30 37  1  6  0  0  0
 30 29  1  0  0  0  0
 31 30  1  0  0  0  0
 31 34  1  1  0  0  0
 32 31  1  0  0  0  0
 32 33  1  0  0  0  0
 33 28  1  0  0  0  0
 33 35  1  1  0  0  0
M  END
>  <CHROM.1>
-175.36699061,66.52509079,66.42918073,-59.09940737,161.27909514,177.37827175
51.97923750,-59.62776018,-79.40171697,22.32873595,55.37326837,111.19330143
65.02565655,-175.07604610,70.51588681,-173.47398903,-0.56871494,8.65417564
9.52417510,-0.11942310,0.78864993,-1.25834916

>  <Name>
lig.pdb

>  <RI>
0

>  <Rbt.Current_Directory>
/home/itssahil/PROJECTS/Mol_Feturizer/New_Systems/rnas/2m4q

>  <Rbt.Executable>
rbdock ($Id: //depot/dev/client3/rdock/2013.1/src/exe/rbdock.cxx#4 $)

>  <Rbt.Library>
libRbt.so (2013.1, Build901 2013/11/27)

>  <Rbt.Parameter_File>
/export/apps/rDock/src/rDock_2013.1_src/data/scripts/dock_solv.prm

>  <Rbt.Receptor>
prm/pocket_docking_3.prm

>  <SCORE>
-34.0282

>  <SCORE.INTER>
-16.9093

>  <SCORE.INTER.CONST>
1

>  <SCORE.INTER.POLAR>
-3.09407

>  <SCORE.INTER.ROT>
10

>  <SCORE.INTER.SOLV>
15.9441

>  <SCORE.INTER.VDW>
-16.5407

>  <SCORE.INTER.norm>
-0.457007

>  <SCORE.INTRA>
-17.9688

>  <SCORE.INTRA.DIHEDRAL>
-31.4281

>  <SCORE.INTRA.DIHEDRAL.0>
44.8331

>  <SCORE.INTRA.POLAR>
-0.649906

>  <SCORE.INTRA.POLAR.0>
-0.108895

>  <SCORE.INTRA.REPUL>
-0.00912235

>  <SCORE.INTRA.REPUL.0>
0.00912235

>  <SCORE.INTRA.SOLV>
-0.354212

>  <SCORE.INTRA.SOLV.lig_0>
-53.9067

>  <SCORE.INTRA.VDW>
0.177636

>  <SCORE.INTRA.VDW.0>
-2.93492

>  <SCORE.INTRA.norm>
-0.485644

>  <SCORE.RESTR>
0.849868

>  <SCORE.RESTR.CAVITY>
0.849868

>  <SCORE.RESTR.norm>
0.0229694

>  <SCORE.SYSTEM>
0

>  <SCORE.SYSTEM.CONST>
0

>  <SCORE.SYSTEM.DIHEDRAL>
0

>  <SCORE.SYSTEM.SOLV>
0

>  <SCORE.SYSTEM.norm>
0

>  <SCORE.heavy>
37

>  <SCORE.norm>
-0.919682

>  <RMSD>
9.503

$$$$
lig.pdb
 OpenBabel11021811453D
libRbt.so/2013.1/901 2013/11/27
 37 40  0  0  0  0  0  0  0  0999 V2000
   -5.7525   15.8216    7.4916 C   0  0  2  0  0  0  0  0  0  0  0  0
   -5.3419   15.0075    8.7627 C   0  0  1  0  0  0  0  0  0  0  0  0
   -4.1662   14.0194    8.5075 C   0  0  0  0  0  0  0  0  0  0  0  0
   -4.4199   13.1667    7.2396 C   0  0  1  0  0  0  0  0  0  0  0  0
   -4.6736   14.0897    6.0267 C   0  0  1  0  0  0  0  0  0  0  0  0
   -4.8849   13.2613    4.7311 C   0  0  1  0  0  0  0  0  0  0  0  0
   -3.7037   12.2709    4.5062 C   0  0  1  0  0  0  0  0  0  0  0  0
   -3.4151   11.4101    5.7718 C   0  0  2  0  0  0  0  0  0  0  0  0
   -3.4938   12.0518    2.0727 C   0  0  0  0  0  0  0  0  0  0  0  0
   -5.7951   14.9802    6.2936 O   0  0  0  0  0  0  0  0  0  0  0  0
   -3.3311   12.2363    6.9735 O   0  0  0  0  0  0  0  0  0  0  0  0
   -4.9814   15.9363    9.8558 N   0  0  0  0  0  0  0  0  0  0  0  0
   -3.9904   11.4353    3.3219 N   0  0  0  0  0  0  0  0  0  0  0  0
   -6.1323   12.5792    4.7518 O   0  0  0  0  0  0  0  0  0  0  0  0
   -2.2034   10.6217    5.5856 O   0  0  0  0  0  0  0  0  0  0  0  0
   -4.8623   16.9605    7.2839 O   0  0  0  0  0  0  0  0  0  0  0  0
   -1.1775   10.6647    6.6247 C   0  0  2  0  0  0  0  0  0  0  0  0
   -0.1359    9.5269    6.4268 C   0  0  1  0  0  0  0  0  0  0  0  0
   -0.7416    8.1300    6.7457 C   0  0  2  0  0  0  0  0  0  0  0  0
   -1.4004    8.1119    8.1555 C   0  0  1  0  0  0  0  0  0  0  0  0
   -2.4071    9.2842    8.3225 C   0  0  1  0  0  0  0  0  0  0  0  0
   -2.9699    9.3612    9.7660 C   0  0  0  0  0  0  0  0  0  0  0  0
   -1.7820   10.5491    7.9474 O   0  0  0  0  0  0  0  0  0  0  0  0
   -2.0390    6.8075    8.4372 N   0  0  0  0  0  0  0  0  0  0  0  0
    0.4162    9.5760    5.1125 O   0  0  0  0  0  0  0  0  0  0  0  0
    0.2402    7.1030    6.6240 O   0  0  0  0  0  0  0  0  0  0  0  0
   -1.9565    9.7554   10.6852 O   0  0  0  0  0  0  0  0  0  0  0  0
   -5.0067   17.7160    6.0460 C   0  0  1  0  0  0  0  0  0  0  0  0
   -4.0124   17.2356    4.9521 C   0  0  1  0  0  0  0  0  0  0  0  0
   -4.1159   18.1164    3.6751 C   0  0  2  0  0  0  0  0  0  0  0  0
   -5.5785   18.2083    3.1310 C   0  0  1  0  0  0  0  0  0  0  0  0
   -6.6172   18.5575    4.2387 C   0  0  0  0  0  0  0  0  0  0  0  0
   -6.4649   17.6661    5.5079 C   0  0  2  0  0  0  0  0  0  0  0  0
   -5.6622   19.1676    2.0090 N   0  0  0  0  0  0  0  0  0  0  0  0
   -7.4484   18.0939    6.5263 N   0  0  0  0  0  0  0  0  0  0  0  0
   -2.6785   17.2221    5.4504 O   0  0  0  0  0  0  0  0  0  0  0  0
   -3.2372   17.6312    2.6631 O   0  0  0  0  0  0  0  0  0  0  0  0
  1  2  1  0  0  0  0
  1 16  1  6  0  0  0
  2  3  1  0  0  0  0
  2 12  1  1  0  0  0
  4 11  1  6  0  0  0
  4  3  1  0  0  0  0
  5  4  1  0  0  0  0
  5 10  1  1  0  0  0
  6  7  1  0  0  0  0
  6  5  1  0  0  0  0
  6 14  1  1  0  0  0
  7  8  1  0  0  0  0
  7 13  1  6  0  0  0
  8 15  1  6  0  0  0
  8 11  1  0  0  0  0
  9 13  1  0  0  0  0
 10  1  1  0  0  0  0
 17 15  1  6  0  0  0
 17 18  1  0  0  0  0
 18 25  1  6  0  0  0
 19 18  1  0  0  0  0
 19 26  1  1  0  0  0
 20 19  1  0  0  0  0
 20 24  1  6  0  0  0
 21 23  1  0  0  0  0
 21 20  1  0  0  0  0
 21 22  1  1  0  0  0
 23 17  1  0  0  0  0
 27 22  1  0  0  0  0
 28 29  1  0  0  0  0
 28 16  1  1  0  0  0
 29 36  1  1  0  0  0
 30 37  1  6  0  0  0
 30 29  1  0  0  0  0
 31 30  1  0  0  0  0
 31 34  1  6  0  0  0
 32 31  1  0  0  0  0
 32 33  1  0  0  0  0
 33 28  1  0  0  0  0
 33 35  1  1  0  0  0
M  END
>  <CHROM.1>
165.10723312,129.62942013,89.21874511,-68.18714166,166.48932529,172.22177135
62.37807063,-58.67216323,68.66945180,28.85449885,-61.67736118,-95.25410609
-74.76233271,63.63976764,11.96739890,-140.14793638,-3.64091440,13.33259596
6.16862218,2.49888016,1.04577112,-1.14732380

>  <Name>
lig.pdb

>  <RI>
3.60165e+07

>  <Rbt.Current_Directory>
/home/itssahil/PROJECTS/Mol_Feturizer/New_Systems/rnas/2m4q

>  <Rbt.Executable>
rbdock ($Id: //depot/dev/client3/rdock/2013.1/src/exe/rbdock.cxx#4 $)

>  <Rbt.Library>
libRbt.so (2013.1, Build901 2013/11/27)

>  <Rbt.Parameter_File>
/export/apps/rDock/src/rDock_2013.1_src/data/scripts/dock_solv.prm

>  <Rbt.Receptor>
prm/pocket_docking_8.prm

>  <SCORE>
-47.1751

>  <SCORE.INTER>
-37.7683

>  <SCORE.INTER.CONST>
1

>  <SCORE.INTER.POLAR>
-5.78091

>  <SCORE.INTER.ROT>
10

>  <SCORE.INTER.SOLV>
21.222

>  <SCORE.INTER.VDW>
-23.2498

>  <SCORE.INTER.norm>
-1.02076

>  <SCORE.INTRA>
-9.47237

>  <SCORE.INTRA.DIHEDRAL>
-23.3831

>  <SCORE.INTRA.DIHEDRAL.0>
44.8331

>  <SCORE.INTRA.POLAR>
0.0951015

>  <SCORE.INTRA.POLAR.0>
-0.108895

>  <SCORE.INTRA.REPUL>
-0.00912235

>  <SCORE.INTRA.REPUL.0>
0.00912235

>  <SCORE.INTRA.SOLV>
-1.36791

>  <SCORE.INTRA.SOLV.lig_0>
-53.9067

>  <SCORE.INTRA.VDW>
2.6254

>  <SCORE.INTRA.VDW.0>
-2.93492

>  <SCORE.INTRA.norm>
-0.25601

>  <SCORE.RESTR>
0.0655896

>  <SCORE.RESTR.CAVITY>
0.0655896

>  <SCORE.RESTR.norm>
0.00177269

>  <SCORE.SYSTEM>
0

>  <SCORE.SYSTEM.CONST>
0

>  <SCORE.SYSTEM.DIHEDRAL>
0

>  <SCORE.SYSTEM.SOLV>
0

>  <SCORE.SYSTEM.norm>
0

>  <SCORE.heavy>
37

>  <SCORE.norm>
-1.275

>  <RMSD>
9.522

$$$$
lig.pdb
 OpenBabel11021811453D
libRbt.so/2013.1/901 2013/11/27
 37 40  0  0  0  0  0  0  0  0999 V2000
   -4.2000    1.7421   15.1610 C   0  0  2  0  0  0  0  0  0  0  0  0
   -3.1794    2.8107   14.6478 C   0  0  1  0  0  0  0  0  0  0  0  0
   -1.9026    2.1868   14.0119 C   0  0  0  0  0  0  0  0  0  0  0  0
   -1.2989    1.0954   14.9302 C   0  0  1  0  0  0  0  0  0  0  0  0
   -2.3677    0.0262   15.2496 C   0  0  1  0  0  0  0  0  0  0  0  0
   -1.7763   -1.1062   16.1314 C   0  0  1  0  0  0  0  0  0  0  0  0
   -0.4927   -1.7034   15.4815 C   0  0  1  0  0  0  0  0  0  0  0  0
    0.5333   -0.5976   15.0935 C   0  0  2  0  0  0  0  0  0  0  0  0
   -0.6782   -3.9675   16.4053 C   0  0  0  0  0  0  0  0  0  0  0  0
   -3.5342    0.6442   15.8655 O   0  0  0  0  0  0  0  0  0  0  0  0
   -0.1049    0.4899   14.3560 O   0  0  0  0  0  0  0  0  0  0  0  0
   -3.8385    3.7003   13.6670 N   0  0  0  0  0  0  0  0  0  0  0  0
    0.0926   -2.7054   16.3961 N   0  0  0  0  0  0  0  0  0  0  0  0
   -1.5202   -0.6508   17.4537 O   0  0  0  0  0  0  0  0  0  0  0  0
    1.6394   -1.1722   14.3378 O   0  0  0  0  0  0  0  0  0  0  0  0
   -5.0176    1.2249   14.0670 O   0  0  0  0  0  0  0  0  0  0  0  0
    2.7518   -0.3034   13.9615 C   0  0  2  0  0  0  0  0  0  0  0  0
    4.0129   -1.1383   13.5990 C   0  0  1  0  0  0  0  0  0  0  0  0
    4.6434   -1.8042   14.8555 C   0  0  2  0  0  0  0  0  0  0  0  0
    4.9104   -0.7546   15.9731 C   0  0  1  0  0  0  0  0  0  0  0  0
    3.6355    0.0797   16.2794 C   0  0  1  0  0  0  0  0  0  0  0  0
    3.9203    1.2194   17.2924 C   0  0  0  0  0  0  0  0  0  0  0  0
    3.0717    0.6191   15.0454 O   0  0  0  0  0  0  0  0  0  0  0  0
    5.4456   -1.3917   17.1963 N   0  0  0  0  0  0  0  0  0  0  0  0
    3.7050   -2.0986   12.5902 O   0  0  0  0  0  0  0  0  0  0  0  0
    5.8348   -2.5122   14.5200 O   0  0  0  0  0  0  0  0  0  0  0  0
    2.7351    1.9569   17.5727 O   0  0  0  0  0  0  0  0  0  0  0  0
   -6.4382    1.0215   14.3208 C   0  0  1  0  0  0  0  0  0  0  0  0
   -7.1913    2.3663   14.5228 C   0  0  1  0  0  0  0  0  0  0  0  0
   -8.6831    2.1237   14.8875 C   0  0  2  0  0  0  0  0  0  0  0  0
   -9.4074    1.2016   13.8536 C   0  0  1  0  0  0  0  0  0  0  0  0
   -8.6057   -0.0947   13.5306 C   0  0  0  0  0  0  0  0  0  0  0  0
   -7.1117    0.1913   13.1914 C   0  0  2  0  0  0  0  0  0  0  0  0
  -10.7756    0.8752   14.3092 N   0  0  0  0  0  0  0  0  0  0  0  0
   -6.4118   -1.0889   12.9494 N   0  0  0  0  0  0  0  0  0  0  0  0
   -6.5509    3.1615   15.5153 O   0  0  0  0  0  0  0  0  0  0  0  0
   -9.3720    3.3648   15.0170 O   0  0  0  0  0  0  0  0  0  0  0  0
  1  2  1  0  0  0  0
  1 16  1  6  0  0  0
  2  3  1  0  0  0  0
  2 12  1  6  0  0  0
  4 11  1  6  0  0  0
  4  3  1  0  0  0  0
  5  4  1  0  0  0  0
  5 10  1  1  0  0  0
  6  7  1  0  0  0  0
  6  5  1  0  0  0  0
  6 14  1  1  0  0  0
  7  8  1  0  0  0  0
  7 13  1  1  0  0  0
  8 15  1  6  0  0  0
  8 11  1  0  0  0  0
  9 13  1  0  0  0  0
 10  1  1  0  0  0  0
 17 15  1  1  0  0  0
 17 18  1  0  0  0  0
 18 25  1  6  0  0  0
 19 18  1  0  0  0  0
 19 26  1  6  0  0  0
 20 19  1  0  0  0  0
 20 24  1  1  0  0  0
 21 23  1  0  0  0  0
 21 20  1  0  0  0  0
 21 22  1  1  0  0  0
 23 17  1  0  0  0  0
 27 22  1  0  0  0  0
 28 29  1  0  0  0  0
 28 16  1  6  0  0  0
 29 36  1  1  0  0  0
 30 37  1  6  0  0  0
 30 29  1  0  0  0  0
 31 30  1  0  0  0  0
 31 34  1  1  0  0  0
 32 31  1  0  0  0  0
 32 33  1  0  0  0  0
 33 28  1  0  0  0  0
 33 35  1  1  0  0  0
M  END
>  <CHROM.1>
-50.05267925,-175.91333662,74.87701907,62.55028907,161.21813467,-138.72414253
41.30682525,-24.60275075,-179.12874209,-91.71713490,-178.35641748,68.09143470
171.87474984,-57.57690969,-68.48571385,62.21556944,-1.69363920,0.24353740
14.99321449,-2.95244769,0.14363841,-2.88823561

>  <Name>
lig.pdb

>  <RI>
0

>  <Rbt.Current_Directory>
/home/itssahil/PROJECTS/Mol_Feturizer/New_Systems/rnas/2m4q

>  <Rbt.Executable>
rbdock ($Id: //depot/dev/client3/rdock/2013.1/src/exe/rbdock.cxx#4 $)

>  <Rbt.Library>
libRbt.so (2013.1, Build901 2013/11/27)

>  <Rbt.Parameter_File>
/export/apps/rDock/src/rDock_2013.1_src/data/scripts/dock_solv.prm

>  <Rbt.Receptor>
prm/blind_docking_20.prm

>  <SCORE>
-10.1119

>  <SCORE.INTER>
-16.9123

>  <SCORE.INTER.CONST>
1

>  <SCORE.INTER.POLAR>
-4.13297

>  <SCORE.INTER.ROT>
10

>  <SCORE.INTER.SOLV>
24.9911

>  <SCORE.INTER.VDW>
-16.0953

>  <SCORE.INTER.norm>
-0.457088

>  <SCORE.INTRA>
-13.5439

>  <SCORE.INTRA.DIHEDRAL>
-28.0324

>  <SCORE.INTRA.DIHEDRAL.0>
44.8331

>  <SCORE.INTRA.POLAR>
-0.0254253

>  <SCORE.INTRA.POLAR.0>
-0.108895

>  <SCORE.INTRA.REPUL>
-0.00912235

>  <SCORE.INTRA.REPUL.0>
0.00912235

>  <SCORE.INTRA.SOLV>
-1.90185

>  <SCORE.INTRA.SOLV.lig_0>
-53.9067

>  <SCORE.INTRA.VDW>
1.55527

>  <SCORE.INTRA.VDW.0>
-2.93492

>  <SCORE.INTRA.norm>
-0.366051

>  <SCORE.RESTR>
20.3442

>  <SCORE.RESTR.CAVITY>
20.3442

>  <SCORE.RESTR.norm>
0.549844

>  <SCORE.SYSTEM>
0

>  <SCORE.SYSTEM.CONST>
0

>  <SCORE.SYSTEM.DIHEDRAL>
0

>  <SCORE.SYSTEM.SOLV>
0

>  <SCORE.SYSTEM.norm>
0

>  <SCORE.heavy>
37

>  <SCORE.norm>
-0.273295

>  <RMSD>
9.527

$$$$
lig.pdb
 OpenBabel11021811453D
libRbt.so/2013.1/901 2013/11/27
 37 40  0  0  0  0  0  0  0  0999 V2000
    2.0811    4.5584    9.6665 C   0  0  2  0  0  0  0  0  0  0  0  0
    1.7756    4.6185    8.1335 C   0  0  1  0  0  0  0  0  0  0  0  0
    0.9116    5.8478    7.7258 C   0  0  0  0  0  0  0  0  0  0  0  0
   -0.3274    5.9877    8.6446 C   0  0  1  0  0  0  0  0  0  0  0  0
    0.1184    6.0584   10.1223 C   0  0  1  0  0  0  0  0  0  0  0  0
   -1.1015    6.2461   11.0636 C   0  0  1  0  0  0  0  0  0  0  0  0
   -1.9571    7.4722   10.6263 C   0  0  1  0  0  0  0  0  0  0  0  0
   -2.3233    7.4182    9.1133 C   0  0  2  0  0  0  0  0  0  0  0  0
   -2.8822    8.2525   12.7592 C   0  0  0  0  0  0  0  0  0  0  0  0
    0.9012    4.8807   10.4722 O   0  0  0  0  0  0  0  0  0  0  0  0
   -1.1514    7.1350    8.2886 O   0  0  0  0  0  0  0  0  0  0  0  0
    3.0433    4.6280    7.3717 N   0  0  0  0  0  0  0  0  0  0  0  0
   -3.1575    7.5564   11.4838 N   0  0  0  0  0  0  0  0  0  0  0  0
   -1.8899    5.0647   11.1291 O   0  0  0  0  0  0  0  0  0  0  0  0
   -2.9731    8.6565    8.7025 O   0  0  0  0  0  0  0  0  0  0  0  0
    3.1940    5.4362   10.0178 O   0  0  0  0  0  0  0  0  0  0  0  0
   -2.2310    9.9083    8.8299 C   0  0  2  0  0  0  0  0  0  0  0  0
   -3.1602   11.0612    9.3054 C   0  0  1  0  0  0  0  0  0  0  0  0
   -4.1621   11.4885    8.1947 C   0  0  2  0  0  0  0  0  0  0  0  0
   -3.4215   11.8144    6.8653 C   0  0  1  0  0  0  0  0  0  0  0  0
   -2.4789   10.6522    6.4454 C   0  0  1  0  0  0  0  0  0  0  0  0
   -1.6325   11.0169    5.1977 C   0  0  0  0  0  0  0  0  0  0  0  0
   -1.6144   10.2708    7.5583 O   0  0  0  0  0  0  0  0  0  0  0  0
   -4.3737   12.1545    5.7854 N   0  0  0  0  0  0  0  0  0  0  0  0
   -3.8308   10.6992   10.5112 O   0  0  0  0  0  0  0  0  0  0  0  0
   -4.9635   12.5887    8.6197 O   0  0  0  0  0  0  0  0  0  0  0  0
   -0.7133   12.0625    5.4964 O   0  0  0  0  0  0  0  0  0  0  0  0
    3.6202    5.4651   11.4111 C   0  0  1  0  0  0  0  0  0  0  0  0
    2.7105    6.3794   12.2788 C   0  0  1  0  0  0  0  0  0  0  0  0
    3.2387    6.4726   13.7381 C   0  0  2  0  0  0  0  0  0  0  0  0
    3.4403    5.0663   14.3903 C   0  0  1  0  0  0  0  0  0  0  0  0
    4.2365    4.0838   13.4801 C   0  0  0  0  0  0  0  0  0  0  0  0
    3.6878    4.0366   12.0222 C   0  0  2  0  0  0  0  0  0  0  0  0
    4.0795    5.1898   15.7178 N   0  0  0  0  0  0  0  0  0  0  0  0
    4.5262    3.1251   11.2138 N   0  0  0  0  0  0  0  0  0  0  0  0
    2.5941    7.6748   11.6993 O   0  0  0  0  0  0  0  0  0  0  0  0
    2.3655    7.2704   14.5335 O   0  0  0  0  0  0  0  0  0  0  0  0
  1  2  1  0  0  0  0
  1 16  1  6  0  0  0
  2  3  1  0  0  0  0
  2 12  1  6  0  0  0
  4 11  1  6  0  0  0
  4  3  1  0  0  0  0
  5  4  1  0  0  0  0
  5 10  1  1  0  0  0
  6  7  1  0  0  0  0
  6  5  1  0  0  0  0
  6 14  1  6  0  0  0
  7  8  1  0  0  0  0
  7 13  1  1  0  0  0
  8 15  1  6  0  0  0
  8 11  1  0  0  0  0
  9 13  1  0  0  0  0
 10  1  1  0  0  0  0
 17 15  1  6  0  0  0
 17 18  1  0  0  0  0
 18 25  1  1  0  0  0
 19 18  1  0  0  0  0
 19 26  1  1  0  0  0
 20 19  1  0  0  0  0
 20 24  1  6  0  0  0
 21 23  1  0  0  0  0
 21 20  1  0  0  0  0
 21 22  1  6  0  0  0
 23 17  1  0  0  0  0
 27 22  1  0  0  0  0
 28 29  1  0  0  0  0
 28 16  1  6  0  0  0
 29 36  1  6  0  0  0
 30 37  1  1  0  0  0
 30 29  1  0  0  0  0
 31 30  1  0  0  0  0
 31 34  1  1  0  0  0
 32 31  1  0  0  0  0
 32 33  1  0  0  0  0
 33 28  1  0  0  0  0
 33 35  1  6  0  0  0
M  END
>  <CHROM.1>
73.03952922,60.91522908,83.61882751,41.15563719,-141.15435499,-178.54946296
-178.42643092,62.52202605,66.42085659,-45.03342160,-177.46731050,-80.74291913
-57.70204218,-59.51514737,68.11830974,35.26129414,-0.12133506,7.56955023
9.96092923,-0.55109089,0.71762462,-1.48153983

>  <Name>
lig.pdb

>  <RI>
0

>  <Rbt.Current_Directory>
/home/itssahil/PROJECTS/Mol_Feturizer/New_Systems/rnas/2m4q

>  <Rbt.Executable>
rbdock ($Id: //depot/dev/client3/rdock/2013.1/src/exe/rbdock.cxx#4 $)

>  <Rbt.Library>
libRbt.so (2013.1, Build901 2013/11/27)

>  <Rbt.Parameter_File>
/export/apps/rDock/src/rDock_2013.1_src/data/scripts/dock_solv.prm

>  <Rbt.Receptor>
prm/pocket_docking_6.prm

>  <SCORE>
-43.4993

>  <SCORE.INTER>
-25.7091

>  <SCORE.INTER.CONST>
1

>  <SCORE.INTER.POLAR>
-3.2193

>  <SCORE.INTER.ROT>
10

>  <SCORE.INTER.SOLV>
15.9673

>  <SCORE.INTER.VDW>
-21.9975

>  <SCORE.INTER.norm>
-0.694841

>  <SCORE.INTRA>
-17.7902

>  <SCORE.INTRA.DIHEDRAL>
-32.7776

>  <SCORE.INTRA.DIHEDRAL.0>
44.8331

>  <SCORE.INTRA.POLAR>
-0.132303

>  <SCORE.INTRA.POLAR.0>
-0.108895

>  <SCORE.INTRA.REPUL>
-0.00912235

>  <SCORE.INTRA.REPUL.0>
0.00912235

>  <SCORE.INTRA.SOLV>
0.0608997

>  <SCORE.INTRA.SOLV.lig_0>
-53.9067

>  <SCORE.INTRA.VDW>
-0.936392

>  <SCORE.INTRA.VDW.0>
-2.93492

>  <SCORE.INTRA.norm>
-0.480816

>  <SCORE.RESTR>
0

>  <SCORE.RESTR.CAVITY>
0

>  <SCORE.RESTR.norm>
0

>  <SCORE.SYSTEM>
0

>  <SCORE.SYSTEM.CONST>
0

>  <SCORE.SYSTEM.DIHEDRAL>
0

>  <SCORE.SYSTEM.SOLV>
0

>  <SCORE.SYSTEM.norm>
0

>  <SCORE.heavy>
37

>  <SCORE.norm>
-1.17566

>  <RMSD>
9.541

$$$$
lig.pdb
 OpenBabel11021811453D
libRbt.so/2013.1/901 2013/11/27
 37 40  0  0  0  0  0  0  0  0999 V2000
    2.0617    4.5572    9.7858 C   0  0  2  0  0  0  0  0  0  0  0  0
    1.6976    5.0568    8.3488 C   0  0  1  0  0  0  0  0  0  0  0  0
    0.9350    6.4141    8.3439 C   0  0  0  0  0  0  0  0  0  0  0  0
   -0.2451    6.3941    9.3468 C   0  0  1  0  0  0  0  0  0  0  0  0
    0.2684    6.0241   10.7564 C   0  0  1  0  0  0  0  0  0  0  0  0
   -0.8873    6.0422   11.7926 C   0  0  1  0  0  0  0  0  0  0  0  0
   -1.6432    7.4039   11.7578 C   0  0  1  0  0  0  0  0  0  0  0  0
   -2.0774    7.7934   10.3135 C   0  0  2  0  0  0  0  0  0  0  0  0
   -3.2893    8.6905   13.0418 C   0  0  0  0  0  0  0  0  0  0  0  0
    0.9525    4.7384   10.7250 O   0  0  0  0  0  0  0  0  0  0  0  0
   -0.9733    7.6555    9.3670 O   0  0  0  0  0  0  0  0  0  0  0  0
    2.9268    5.1750    7.5349 N   0  0  0  0  0  0  0  0  0  0  0  0
   -2.7926    7.3442   12.6843 N   0  0  0  0  0  0  0  0  0  0  0  0
   -1.7787    4.9529   11.5913 O   0  0  0  0  0  0  0  0  0  0  0  0
   -2.6262    9.1435   10.2938 O   0  0  0  0  0  0  0  0  0  0  0  0
    3.2655    5.2164   10.2847 O   0  0  0  0  0  0  0  0  0  0  0  0
   -1.8386   10.2069    9.6751 C   0  0  2  0  0  0  0  0  0  0  0  0
   -2.5477   11.5832    9.8221 C   0  0  1  0  0  0  0  0  0  0  0  0
   -3.8178   11.6749    8.9285 C   0  0  2  0  0  0  0  0  0  0  0  0
   -3.4916   11.3145    7.4501 C   0  0  1  0  0  0  0  0  0  0  0  0
   -2.7537    9.9502    7.3519 C   0  0  1  0  0  0  0  0  0  0  0  0
   -2.3011    9.6413    5.9007 C   0  0  0  0  0  0  0  0  0  0  0  0
   -1.6126    9.9222    8.2622 O   0  0  0  0  0  0  0  0  0  0  0  0
   -4.7081   11.3322    6.6083 N   0  0  0  0  0  0  0  0  0  0  0  0
   -2.8446   11.8502   11.1914 O   0  0  0  0  0  0  0  0  0  0  0  0
   -4.4215   12.9633    9.0223 O   0  0  0  0  0  0  0  0  0  0  0  0
   -1.3965   10.6346    5.4292 O   0  0  0  0  0  0  0  0  0  0  0  0
    3.6548    4.9608   11.6656 C   0  0  1  0  0  0  0  0  0  0  0  0
    2.6862    5.6351   12.6773 C   0  0  1  0  0  0  0  0  0  0  0  0
    3.1731    5.4318   14.1398 C   0  0  2  0  0  0  0  0  0  0  0  0
    3.4167    3.9263   14.4834 C   0  0  1  0  0  0  0  0  0  0  0  0
    4.2758    3.1906   13.4117 C   0  0  0  0  0  0  0  0  0  0  0  0
    3.7664    3.4379   11.9598 C   0  0  2  0  0  0  0  0  0  0  0  0
    4.0164    3.7847   15.8274 N   0  0  0  0  0  0  0  0  0  0  0  0
    4.6623    2.7511   11.0041 N   0  0  0  0  0  0  0  0  0  0  0  0
    2.5305    7.0197   12.3839 O   0  0  0  0  0  0  0  0  0  0  0  0
    2.2476    6.0090   15.0573 O   0  0  0  0  0  0  0  0  0  0  0  0
  1  2  1  0  0  0  0
  1 16  1  1  0  0  0
  2  3  1  0  0  0  0
  2 12  1  6  0  0  0
  4 11  1  1  0  0  0
  4  3  1  0  0  0  0
  5  4  1  0  0  0  0
  5 10  1  6  0  0  0
  6  7  1  0  0  0  0
  6  5  1  0  0  0  0
  6 14  1  6  0  0  0
  7  8  1  0  0  0  0
  7 13  1  1  0  0  0
  8 15  1  1  0  0  0
  8 11  1  0  0  0  0
  9 13  1  0  0  0  0
 10  1  1  0  0  0  0
 17 15  1  6  0  0  0
 17 18  1  0  0  0  0
 18 25  1  1  0  0  0
 19 18  1  0  0  0  0
 19 26  1  6  0  0  0
 20 19  1  0  0  0  0
 20 24  1  6  0  0  0
 21 23  1  0  0  0  0
 21 20  1  0  0  0  0
 21 22  1  6  0  0  0
 23 17  1  0  0  0  0
 27 22  1  0  0  0  0
 28 29  1  0  0  0  0
 28 16  1  6  0  0  0
 29 36  1  6  0  0  0
 30 37  1  1  0  0  0
 30 29  1  0  0  0  0
 31 30  1  0  0  0  0
 31 34  1  1  0  0  0
 32 31  1  0  0  0  0
 32 33  1  0  0  0  0
 33 28  1  0  0  0  0
 33 35  1  6  0  0  0
M  END
>  <CHROM.1>
175.98728115,108.24869695,161.47012414,44.14385033,-176.76613734,173.72743548
-57.22432527,60.91143922,60.84407127,174.89113218,179.65019393,-70.84694489
-58.61995127,63.10673849,-62.02397156,-96.94162371,-0.06050477,7.32203902
10.48437457,-0.51715301,0.75561270,-1.46092131

>  <Name>
lig.pdb

>  <RI>
0

>  <Rbt.Current_Directory>
/home/itssahil/PROJECTS/Mol_Feturizer/New_Systems/rnas/2m4q

>  <Rbt.Executable>
rbdock ($Id: //depot/dev/client3/rdock/2013.1/src/exe/rbdock.cxx#4 $)

>  <Rbt.Library>
libRbt.so (2013.1, Build901 2013/11/27)

>  <Rbt.Parameter_File>
/export/apps/rDock/src/rDock_2013.1_src/data/scripts/dock_solv.prm

>  <Rbt.Receptor>
prm/pocket_docking_3.prm

>  <SCORE>
-46.0196

>  <SCORE.INTER>
-30.042

>  <SCORE.INTER.CONST>
1

>  <SCORE.INTER.POLAR>
-4.51519

>  <SCORE.INTER.ROT>
10

>  <SCORE.INTER.SOLV>
14.8748

>  <SCORE.INTER.VDW>
-20.2023

>  <SCORE.INTER.norm>
-0.811945

>  <SCORE.INTRA>
-15.9811

>  <SCORE.INTRA.DIHEDRAL>
-33.6114

>  <SCORE.INTRA.DIHEDRAL.0>
44.8331

>  <SCORE.INTRA.POLAR>
-0.0238239

>  <SCORE.INTRA.POLAR.0>
-0.108895

>  <SCORE.INTRA.REPUL>
-0.00912235

>  <SCORE.INTRA.REPUL.0>
0.00912235

>  <SCORE.INTRA.SOLV>
-0.87104

>  <SCORE.INTRA.SOLV.lig_0>
-53.9067

>  <SCORE.INTRA.VDW>
1.38674

>  <SCORE.INTRA.VDW.0>
-2.93492

>  <SCORE.INTRA.norm>
-0.431922

>  <SCORE.RESTR>
0.00351823

>  <SCORE.RESTR.CAVITY>
0.00351823

>  <SCORE.RESTR.norm>
9.50873e-05

>  <SCORE.SYSTEM>
0

>  <SCORE.SYSTEM.CONST>
0

>  <SCORE.SYSTEM.DIHEDRAL>
0

>  <SCORE.SYSTEM.SOLV>
0

>  <SCORE.SYSTEM.norm>
0

>  <SCORE.heavy>
37

>  <SCORE.norm>
-1.24377

>  <RMSD>
9.545

$$$$
lig.pdb
 OpenBabel11021811453D
libRbt.so/2013.1/901 2013/11/27
 37 40  0  0  0  0  0  0  0  0999 V2000
    2.1395    4.9007    9.4756 C   0  0  2  0  0  0  0  0  0  0  0  0
    1.8459    5.9305    8.3353 C   0  0  1  0  0  0  0  0  0  0  0  0
    1.2327    7.2644    8.8535 C   0  0  0  0  0  0  0  0  0  0  0  0
    0.0468    6.9970    9.8132 C   0  0  1  0  0  0  0  0  0  0  0  0
    0.5030    6.0816   10.9713 C   0  0  1  0  0  0  0  0  0  0  0  0
   -0.6549    5.8346   11.9752 C   0  0  1  0  0  0  0  0  0  0  0  0
   -1.2607    7.1829   12.4670 C   0  0  1  0  0  0  0  0  0  0  0  0
   -1.6356    8.1210   11.2814 C   0  0  2  0  0  0  0  0  0  0  0  0
   -2.6104    7.9543   14.3636 C   0  0  0  0  0  0  0  0  0  0  0  0
    1.0462    4.8353   10.4481 O   0  0  0  0  0  0  0  0  0  0  0  0
   -0.5428    8.2296   10.3183 O   0  0  0  0  0  0  0  0  0  0  0  0
    3.0892    6.2137    7.5859 N   0  0  0  0  0  0  0  0  0  0  0  0
   -2.4195    6.9040   13.3402 N   0  0  0  0  0  0  0  0  0  0  0  0
   -1.6553    4.9949   11.4134 O   0  0  0  0  0  0  0  0  0  0  0  0
   -2.0369    9.4317   11.7769 O   0  0  0  0  0  0  0  0  0  0  0  0
    3.4015    5.2011   10.1461 O   0  0  0  0  0  0  0  0  0  0  0  0
   -1.0254   10.2798   12.4026 C   0  0  2  0  0  0  0  0  0  0  0  0
   -1.6459   11.6196   12.8908 C   0  0  1  0  0  0  0  0  0  0  0  0
   -2.0303   12.5439   11.7001 C   0  0  2  0  0  0  0  0  0  0  0  0
   -0.8258   12.7481   10.7359 C   0  0  1  0  0  0  0  0  0  0  0  0
   -0.2150   11.3869   10.3007 C   0  0  1  0  0  0  0  0  0  0  0  0
    1.0684   11.5752    9.4500 C   0  0  0  0  0  0  0  0  0  0  0  0
    0.0611   10.5561   11.4690 O   0  0  0  0  0  0  0  0  0  0  0  0
   -1.2039   13.5694    9.5650 N   0  0  0  0  0  0  0  0  0  0  0  0
   -2.7582   11.3732   13.7491 O   0  0  0  0  0  0  0  0  0  0  0  0
   -2.5370   13.7943   12.1615 O   0  0  0  0  0  0  0  0  0  0  0  0
    1.0873   10.6680    8.3528 O   0  0  0  0  0  0  0  0  0  0  0  0
    4.3554    4.1121   10.3136 C   0  0  1  0  0  0  0  0  0  0  0  0
    3.8542    3.0514   11.3333 C   0  0  1  0  0  0  0  0  0  0  0  0
    4.9265    1.9507   11.5696 C   0  0  2  0  0  0  0  0  0  0  0  0
    5.4093    1.2925   10.2364 C   0  0  1  0  0  0  0  0  0  0  0  0
    5.7912    2.3386    9.1467 C   0  0  0  0  0  0  0  0  0  0  0  0
    4.6996    3.4345    8.9568 C   0  0  2  0  0  0  0  0  0  0  0  0
    6.5288    0.3597   10.4866 N   0  0  0  0  0  0  0  0  0  0  0  0
    5.1597    4.4128    7.9476 N   0  0  0  0  0  0  0  0  0  0  0  0
    3.4814    3.6665   12.5622 O   0  0  0  0  0  0  0  0  0  0  0  0
    4.4321    0.9581   12.4651 O   0  0  0  0  0  0  0  0  0  0  0  0
  1  2  1  0  0  0  0
  1 16  1  1  0  0  0
  2  3  1  0  0  0  0
  2 12  1  1  0  0  0
  4 11  1  1  0  0  0
  4  3  1  0  0  0  0
  5  4  1  0  0  0  0
  5 10  1  6  0  0  0
  6  7  1  0  0  0  0
  6  5  1  0  0  0  0
  6 14  1  6  0  0  0
  7  8  1  0  0  0  0
  7 13  1  6  0  0  0
  8 15  1  1  0  0  0
  8 11  1  0  0  0  0
  9 13  1  0  0  0  0
 10  1  1  0  0  0  0
 17 15  1  6  0  0  0
 17 18  1  0  0  0  0
 18 25  1  6  0  0  0
 19 18  1  0  0  0  0
 19 26  1  1  0  0  0
 20 19  1  0  0  0  0
 20 24  1  6  0  0  0
 21 23  1  0  0  0  0
 21 20  1  0  0  0  0
 21 22  1  1  0  0  0
 23 17  1  0  0  0  0
 27 22  1  0  0  0  0
 28 29  1  0  0  0  0
 28 16  1  6  0  0  0
 29 36  1  1  0  0  0
 30 37  1  1  0  0  0
 30 29  1  0  0  0  0
 31 30  1  0  0  0  0
 31 34  1  1  0  0  0
 32 31  1  0  0  0  0
 32 33  1  0  0  0  0
 33 28  1  0  0  0  0
 33 35  1  6  0  0  0
M  END
>  <CHROM.1>
-100.15111585,67.92000005,150.26029112,61.71185800,-178.86557196,-129.98601483
63.87578897,-61.77408819,-138.19494219,-53.54937598,-175.84651234,-69.18975421
-177.81087434,-169.15824723,138.20796906,-67.99177197,1.03926631,7.09057837
10.83275007,-0.69848277,0.72926499,-0.52290075

>  <Name>
lig.pdb

>  <RI>
0

>  <Rbt.Current_Directory>
/home/itssahil/PROJECTS/Mol_Feturizer/New_Systems/rnas/2m4q

>  <Rbt.Executable>
rbdock ($Id: //depot/dev/client3/rdock/2013.1/src/exe/rbdock.cxx#4 $)

>  <Rbt.Library>
libRbt.so (2013.1, Build901 2013/11/27)

>  <Rbt.Parameter_File>
/export/apps/rDock/src/rDock_2013.1_src/data/scripts/dock_solv.prm

>  <Rbt.Receptor>
prm/pocket_docking_6.prm

>  <SCORE>
-40.9995

>  <SCORE.INTER>
-23.6399

>  <SCORE.INTER.CONST>
1

>  <SCORE.INTER.POLAR>
-4.49569

>  <SCORE.INTER.ROT>
10

>  <SCORE.INTER.SOLV>
14.8317

>  <SCORE.INTER.VDW>
-15.9848

>  <SCORE.INTER.norm>
-0.638915

>  <SCORE.INTRA>
-17.3597

>  <SCORE.INTRA.DIHEDRAL>
-27.3879

>  <SCORE.INTRA.DIHEDRAL.0>
44.8331

>  <SCORE.INTRA.POLAR>
-0.912766

>  <SCORE.INTRA.POLAR.0>
-0.108895

>  <SCORE.INTRA.REPUL>
-0.00330442

>  <SCORE.INTRA.REPUL.0>
0.00912235

>  <SCORE.INTRA.SOLV>
0.262747

>  <SCORE.INTRA.SOLV.lig_0>
-53.9067

>  <SCORE.INTRA.VDW>
-0.677206

>  <SCORE.INTRA.VDW.0>
-2.93492

>  <SCORE.INTRA.norm>
-0.469181

>  <SCORE.RESTR>
0

>  <SCORE.RESTR.CAVITY>
0

>  <SCORE.RESTR.norm>
0

>  <SCORE.SYSTEM>
0

>  <SCORE.SYSTEM.CONST>
0

>  <SCORE.SYSTEM.DIHEDRAL>
0

>  <SCORE.SYSTEM.SOLV>
0

>  <SCORE.SYSTEM.norm>
0

>  <SCORE.heavy>
37

>  <SCORE.norm>
-1.1081

>  <RMSD>
9.548

$$$$
lig.pdb
 OpenBabel11021811453D
libRbt.so/2013.1/901 2013/11/27
 37 40  0  0  0  0  0  0  0  0999 V2000
   -3.6752    1.6837   15.0177 C   0  0  2  0  0  0  0  0  0  0  0  0
   -2.5960    2.6626   14.4484 C   0  0  1  0  0  0  0  0  0  0  0  0
   -1.3139    1.9385   13.9429 C   0  0  0  0  0  0  0  0  0  0  0  0
   -0.7907    0.9309   14.9964 C   0  0  1  0  0  0  0  0  0  0  0  0
   -1.9091   -0.0671   15.3710 C   0  0  1  0  0  0  0  0  0  0  0  0
   -1.3980   -1.1189   16.3919 C   0  0  1  0  0  0  0  0  0  0  0  0
   -0.1075   -1.8181   15.8700 C   0  0  1  0  0  0  0  0  0  0  0  0
    0.9727   -0.7894   15.4215 C   0  0  2  0  0  0  0  0  0  0  0  0
   -0.4729   -3.9170   17.0845 C   0  0  0  0  0  0  0  0  0  0  0  0
   -3.0805    0.6457   15.8627 O   0  0  0  0  0  0  0  0  0  0  0  0
    0.4067    0.2340   14.5463 O   0  0  0  0  0  0  0  0  0  0  0  0
   -3.1787    3.4646   13.3507 N   0  0  0  0  0  0  0  0  0  0  0  0
    0.4007   -2.7366   16.9098 N   0  0  0  0  0  0  0  0  0  0  0  0
   -1.1868   -0.5364   17.6716 O   0  0  0  0  0  0  0  0  0  0  0  0
    2.0916   -1.4718   14.7836 O   0  0  0  0  0  0  0  0  0  0  0  0
   -4.4595    1.0802   13.9438 O   0  0  0  0  0  0  0  0  0  0  0  0
    3.1262   -0.6643   14.1421 C   0  0  2  0  0  0  0  0  0  0  0  0
    4.3168   -1.5505   13.6776 C   0  0  1  0  0  0  0  0  0  0  0  0
    5.1423   -2.0839   14.8834 C   0  0  2  0  0  0  0  0  0  0  0  0
    5.5798   -0.9224   15.8223 C   0  0  1  0  0  0  0  0  0  0  0  0
    4.3665   -0.0426   16.2339 C   0  0  1  0  0  0  0  0  0  0  0  0
    4.8045    1.1968   17.0574 C   0  0  0  0  0  0  0  0  0  0  0  0
    3.6109    0.3665   15.0536 O   0  0  0  0  0  0  0  0  0  0  0  0
    6.3058   -1.4295   17.0074 N   0  0  0  0  0  0  0  0  0  0  0  0
    3.8560   -2.6110   12.8423 O   0  0  0  0  0  0  0  0  0  0  0  0
    6.2679   -2.8402   14.4426 O   0  0  0  0  0  0  0  0  0  0  0  0
    5.5902    2.0807   16.2645 O   0  0  0  0  0  0  0  0  0  0  0  0
   -5.8688    0.8133   14.2020 C   0  0  1  0  0  0  0  0  0  0  0  0
   -6.7211    2.1130   14.1758 C   0  0  1  0  0  0  0  0  0  0  0  0
   -8.2017    1.8195   14.5484 C   0  0  2  0  0  0  0  0  0  0  0  0
   -8.8285    0.6955   13.6610 C   0  0  1  0  0  0  0  0  0  0  0  0
   -7.9276   -0.5718   13.5609 C   0  0  0  0  0  0  0  0  0  0  0  0
   -6.4486   -0.2314   13.2066 C   0  0  2  0  0  0  0  0  0  0  0  0
  -10.1826    0.3429   14.1388 N   0  0  0  0  0  0  0  0  0  0  0  0
   -5.6527   -1.4777   13.1822 N   0  0  0  0  0  0  0  0  0  0  0  0
   -6.1678    3.0993   15.0409 O   0  0  0  0  0  0  0  0  0  0  0  0
   -8.9807    3.0105   14.4680 O   0  0  0  0  0  0  0  0  0  0  0  0
  1  2  1  0  0  0  0
  1 16  1  6  0  0  0
  2  3  1  0  0  0  0
  2 12  1  6  0  0  0
  4 11  1  6  0  0  0
  4  3  1  0  0  0  0
  5  4  1  0  0  0  0
  5 10  1  1  0  0  0
  6  7  1  0  0  0  0
  6  5  1  0  0  0  0
  6 14  1  1  0  0  0
  7  8  1  0  0  0  0
  7 13  1  1  0  0  0
  8 15  1  6  0  0  0
  8 11  1  0  0  0  0
  9 13  1  0  0  0  0
 10  1  1  0  0  0  0
 17 15  1  1  0  0  0
 17 18  1  0  0  0  0
 18 25  1  1  0  0  0
 19 18  1  0  0  0  0
 19 26  1  6  0  0  0
 20 19  1  0  0  0  0
 20 24  1  1  0  0  0
 21 23  1  0  0  0  0
 21 20  1  0  0  0  0
 21 22  1  6  0  0  0
 23 17  1  0  0  0  0
 27 22  1  0  0  0  0
 28 29  1  0  0  0  0
 28 16  1  6  0  0  0
 29 36  1  1  0  0  0
 30 37  1  6  0  0  0
 30 29  1  0  0  0  0
 31 30  1  0  0  0  0
 31 34  1  1  0  0  0
 32 31  1  0  0  0  0
 32 33  1  0  0  0  0
 33 28  1  0  0  0  0
 33 35  1  1  0  0  0
M  END
>  <CHROM.1>
-175.73872860,172.28342485,70.36489125,-172.02267854,172.90136171,-145.23148229
-94.60241024,50.09407537,65.51084482,51.71177327,-178.66515807,74.99605869
67.57539398,-57.53147826,-89.37971950,58.35570479,-1.10341118,0.03827120
14.96251251,-2.94799206,0.10617018,3.12885936

>  <Name>
lig.pdb

>  <RI>
0

>  <Rbt.Current_Directory>
/home/itssahil/PROJECTS/Mol_Feturizer/New_Systems/rnas/2m4q

>  <Rbt.Executable>
rbdock ($Id: //depot/dev/client3/rdock/2013.1/src/exe/rbdock.cxx#4 $)

>  <Rbt.Library>
libRbt.so (2013.1, Build901 2013/11/27)

>  <Rbt.Parameter_File>
/export/apps/rDock/src/rDock_2013.1_src/data/scripts/dock_solv.prm

>  <Rbt.Receptor>
prm/blind_docking_20.prm

>  <SCORE>
10.5028

>  <SCORE.INTER>
6.22564

>  <SCORE.INTER.CONST>
1

>  <SCORE.INTER.POLAR>
-3.48202

>  <SCORE.INTER.ROT>
10

>  <SCORE.INTER.SOLV>
27.1119

>  <SCORE.INTER.VDW>
-3.54679

>  <SCORE.INTER.norm>
0.168261

>  <SCORE.INTRA>
-15.0393

>  <SCORE.INTRA.DIHEDRAL>
-31.1414

>  <SCORE.INTRA.DIHEDRAL.0>
44.8331

>  <SCORE.INTRA.POLAR>
-0.0952155

>  <SCORE.INTRA.POLAR.0>
-0.108895

>  <SCORE.INTRA.REPUL>
-0.00912235

>  <SCORE.INTRA.REPUL.0>
0.00912235

>  <SCORE.INTRA.SOLV>
-1.56645

>  <SCORE.INTRA.SOLV.lig_0>
-53.9067

>  <SCORE.INTRA.VDW>
1.68392

>  <SCORE.INTRA.VDW.0>
-2.93492

>  <SCORE.INTRA.norm>
-0.406469

>  <SCORE.RESTR>
19.3165

>  <SCORE.RESTR.CAVITY>
19.3165

>  <SCORE.RESTR.norm>
0.522067

>  <SCORE.SYSTEM>
0

>  <SCORE.SYSTEM.CONST>
0

>  <SCORE.SYSTEM.DIHEDRAL>
0

>  <SCORE.SYSTEM.SOLV>
0

>  <SCORE.SYSTEM.norm>
0

>  <SCORE.heavy>
37

>  <SCORE.norm>
0.283859

>  <RMSD>
9.552

$$$$
lig.pdb
 OpenBabel11021811453D
libRbt.so/2013.1/901 2013/11/27
 37 40  0  0  0  0  0  0  0  0999 V2000
    1.1256    4.9712   10.1480 C   0  0  2  0  0  0  0  0  0  0  0  0
    0.6148    5.0503    8.6715 C   0  0  1  0  0  0  0  0  0  0  0  0
   -0.1513    6.3682    8.3551 C   0  0  0  0  0  0  0  0  0  0  0  0
   -1.2233    6.6625    9.4336 C   0  0  1  0  0  0  0  0  0  0  0  0
   -0.5673    6.6962   10.8321 C   0  0  1  0  0  0  0  0  0  0  0  0
   -1.6118    7.0360   11.9291 C   0  0  1  0  0  0  0  0  0  0  0  0
   -2.3743    8.3494   11.5823 C   0  0  1  0  0  0  0  0  0  0  0  0
   -2.9550    8.3226   10.1372 C   0  0  2  0  0  0  0  0  0  0  0  0
   -2.8775    9.1831   13.8330 C   0  0  0  0  0  0  0  0  0  0  0  0
    0.1167    5.4386   11.1014 O   0  0  0  0  0  0  0  0  0  0  0  0
   -1.9521    7.8949    9.1650 O   0  0  0  0  0  0  0  0  0  0  0  0
    1.7543    4.9027    7.7403 N   0  0  0  0  0  0  0  0  0  0  0  0
   -3.4232    8.5833   12.5962 N   0  0  0  0  0  0  0  0  0  0  0  0
   -2.5133    5.9562   12.1360 O   0  0  0  0  0  0  0  0  0  0  0  0
   -3.5099    9.6243    9.7875 O   0  0  0  0  0  0  0  0  0  0  0  0
    2.3704    5.7159   10.3165 O   0  0  0  0  0  0  0  0  0  0  0  0
   -2.5910   10.7410    9.5816 C   0  0  2  0  0  0  0  0  0  0  0  0
   -3.3574   12.0937    9.5432 C   0  0  1  0  0  0  0  0  0  0  0  0
   -4.2050   12.2386    8.2468 C   0  0  2  0  0  0  0  0  0  0  0  0
   -3.3370   11.9962    6.9781 C   0  0  1  0  0  0  0  0  0  0  0  0
   -2.5625   10.6521    7.0733 C   0  0  1  0  0  0  0  0  0  0  0  0
   -1.5894   10.4603    5.8805 C   0  0  0  0  0  0  0  0  0  0  0  0
   -1.8432   10.5678    8.3409 O   0  0  0  0  0  0  0  0  0  0  0  0
   -4.1513   12.0641    5.7449 N   0  0  0  0  0  0  0  0  0  0  0  0
   -4.1540   12.2516   10.7158 O   0  0  0  0  0  0  0  0  0  0  0  0
   -4.8505   13.5090    8.1930 O   0  0  0  0  0  0  0  0  0  0  0  0
   -2.2520   10.6960    4.6425 O   0  0  0  0  0  0  0  0  0  0  0  0
    2.9918    5.7071   11.6347 C   0  0  1  0  0  0  0  0  0  0  0  0
    2.2150    6.5917   12.6497 C   0  0  1  0  0  0  0  0  0  0  0  0
    2.9466    6.6459   14.0205 C   0  0  2  0  0  0  0  0  0  0  0  0
    3.2408    5.2226   14.5962 C   0  0  1  0  0  0  0  0  0  0  0  0
    3.8992    4.2704   13.5533 C   0  0  0  0  0  0  0  0  0  0  0  0
    3.1474    4.2621   12.1882 C   0  0  2  0  0  0  0  0  0  0  0  0
    4.0634    5.3113   15.8215 N   0  0  0  0  0  0  0  0  0  0  0  0
    3.8622    3.3782   11.2420 N   0  0  0  0  0  0  0  0  0  0  0  0
    2.0156    7.9026   12.1307 O   0  0  0  0  0  0  0  0  0  0  0  0
    2.1957    7.4163   14.9555 O   0  0  0  0  0  0  0  0  0  0  0  0
  1  2  1  0  0  0  0
  1 16  1  6  0  0  0
  2  3  1  0  0  0  0
  2 12  1  6  0  0  0
  4 11  1  6  0  0  0
  4  3  1  0  0  0  0
  5  4  1  0  0  0  0
  5 10  1  1  0  0  0
  6  7  1  0  0  0  0
  6  5  1  0  0  0  0
  6 14  1  6  0  0  0
  7  8  1  0  0  0  0
  7 13  1  1  0  0  0
  8 15  1  6  0  0  0
  8 11  1  0  0  0  0
  9 13  1  0  0  0  0
 10  1  1  0  0  0  0
 17 15  1  6  0  0  0
 17 18  1  0  0  0  0
 18 25  1  1  0  0  0
 19 18  1  0  0  0  0
 19 26  1  6  0  0  0
 20 19  1  0  0  0  0
 20 24  1  6  0  0  0
 21 23  1  0  0  0  0
 21 20  1  0  0  0  0
 21 22  1  6  0  0  0
 23 17  1  0  0  0  0
 27 22  1  0  0  0  0
 28 29  1  0  0  0  0
 28 16  1  6  0  0  0
 29 36  1  6  0  0  0
 30 37  1  1  0  0  0
 30 29  1  0  0  0  0
 31 30  1  0  0  0  0
 31 34  1  1  0  0  0
 32 31  1  0  0  0  0
 32 33  1  0  0  0  0
 33 28  1  0  0  0  0
 33 35  1  6  0  0  0
M  END
>  <CHROM.1>
-40.49194368,69.87277290,80.24419382,-64.33086611,-166.95524251,-178.42434710
-59.67808893,-84.95770069,-49.69539089,84.24382480,-158.91153530,-73.41769115
58.87367201,61.20124604,65.08568031,-84.39474879,-0.60905282,8.00297647,10.40392287
-0.49426577,0.79179558,-1.59972476

>  <Name>
lig.pdb

>  <RI>
2.86754e+07

>  <Rbt.Current_Directory>
/home/itssahil/PROJECTS/Mol_Feturizer/New_Systems/rnas/2m4q

>  <Rbt.Executable>
rbdock ($Id: //depot/dev/client3/rdock/2013.1/src/exe/rbdock.cxx#4 $)

>  <Rbt.Library>
libRbt.so (2013.1, Build901 2013/11/27)

>  <Rbt.Parameter_File>
/export/apps/rDock/src/rDock_2013.1_src/data/scripts/dock_solv.prm

>  <Rbt.Receptor>
prm/pocket_docking_5.prm

>  <SCORE>
-42.6446

>  <SCORE.INTER>
-23.1095

>  <SCORE.INTER.CONST>
1

>  <SCORE.INTER.POLAR>
-3.17629

>  <SCORE.INTER.ROT>
10

>  <SCORE.INTER.SOLV>
15.9815

>  <SCORE.INTER.VDW>
-20.4125

>  <SCORE.INTER.norm>
-0.62458

>  <SCORE.INTRA>
-19.5351

>  <SCORE.INTRA.DIHEDRAL>
-34.0454

>  <SCORE.INTRA.DIHEDRAL.0>
44.8331

>  <SCORE.INTRA.POLAR>
-0.877299

>  <SCORE.INTRA.POLAR.0>
-0.108895

>  <SCORE.INTRA.REPUL>
-0.00912235

>  <SCORE.INTRA.REPUL.0>
0.00912235

>  <SCORE.INTRA.SOLV>
-0.272479

>  <SCORE.INTRA.SOLV.lig_0>
-53.9067

>  <SCORE.INTRA.VDW>
0.652233

>  <SCORE.INTRA.VDW.0>
-2.93492

>  <SCORE.INTRA.norm>
-0.527976

>  <SCORE.RESTR>
0

>  <SCORE.RESTR.CAVITY>
0

>  <SCORE.RESTR.norm>
0

>  <SCORE.SYSTEM>
0

>  <SCORE.SYSTEM.CONST>
0

>  <SCORE.SYSTEM.DIHEDRAL>
0

>  <SCORE.SYSTEM.SOLV>
0

>  <SCORE.SYSTEM.norm>
0

>  <SCORE.heavy>
37

>  <SCORE.norm>
-1.15256

>  <RMSD>
9.577

$$$$
lig.pdb
 OpenBabel11021811453D
libRbt.so/2013.1/901 2013/11/27
 37 40  0  0  0  0  0  0  0  0999 V2000
   -4.1000    1.4186   16.2883 C   0  0  2  0  0  0  0  0  0  0  0  0
   -3.0907    2.6122   16.2269 C   0  0  1  0  0  0  0  0  0  0  0  0
   -1.7089    2.2195   15.6266 C   0  0  0  0  0  0  0  0  0  0  0  0
   -1.1586    0.9324   16.2896 C   0  0  1  0  0  0  0  0  0  0  0  0
   -2.1914   -0.2094   16.1596 C   0  0  1  0  0  0  0  0  0  0  0  0
   -1.6463   -1.5261   16.7750 C   0  0  1  0  0  0  0  0  0  0  0  0
   -0.2576   -1.8891   16.1695 C   0  0  1  0  0  0  0  0  0  0  0  0
    0.7391   -0.6941   16.2382 C   0  0  2  0  0  0  0  0  0  0  0  0
   -0.7083   -4.1990   16.8585 C   0  0  0  0  0  0  0  0  0  0  0  0
   -3.4611    0.1858   16.7543 O   0  0  0  0  0  0  0  0  0  0  0  0
    0.1324    0.5384   15.7418 O   0  0  0  0  0  0  0  0  0  0  0  0
   -3.6758    3.7211   15.4423 N   0  0  0  0  0  0  0  0  0  0  0  0
    0.2695   -3.0896   16.8506 N   0  0  0  0  0  0  0  0  0  0  0  0
   -1.5850   -1.4467   18.1933 O   0  0  0  0  0  0  0  0  0  0  0  0
    1.9637   -1.0106   15.5137 O   0  0  0  0  0  0  0  0  0  0  0  0
   -4.7419    1.2030   14.9944 O   0  0  0  0  0  0  0  0  0  0  0  0
    2.9205    0.0636   15.2599 C   0  0  2  0  0  0  0  0  0  0  0  0
    3.4501    0.0045   13.7988 C   0  0  1  0  0  0  0  0  0  0  0  0
    4.3923   -1.2132   13.5767 C   0  0  2  0  0  0  0  0  0  0  0  0
    5.5310   -1.2431   14.6371 C   0  0  1  0  0  0  0  0  0  0  0  0
    4.9607   -1.1471   16.0796 C   0  0  1  0  0  0  0  0  0  0  0  0
    6.0875   -1.0383   17.1403 C   0  0  0  0  0  0  0  0  0  0  0  0
    4.0419   -0.0180   16.1896 O   0  0  0  0  0  0  0  0  0  0  0  0
    6.3902   -2.4364   14.4743 N   0  0  0  0  0  0  0  0  0  0  0  0
    2.3656    0.0094   12.8723 O   0  0  0  0  0  0  0  0  0  0  0  0
    4.9224   -1.2194   12.2529 O   0  0  0  0  0  0  0  0  0  0  0  0
    6.0059   -2.1064   18.0783 O   0  0  0  0  0  0  0  0  0  0  0  0
   -6.1007    1.7007   14.8212 C   0  0  1  0  0  0  0  0  0  0  0  0
   -6.3537    2.2095   13.3744 C   0  0  1  0  0  0  0  0  0  0  0  0
   -7.7752    2.8240   13.2372 C   0  0  2  0  0  0  0  0  0  0  0  0
   -8.8968    1.8446   13.7133 C   0  0  1  0  0  0  0  0  0  0  0  0
   -8.6007    1.2146   15.1073 C   0  0  0  0  0  0  0  0  0  0  0  0
   -7.1597    0.6298   15.2086 C   0  0  2  0  0  0  0  0  0  0  0  0
  -10.2155    2.5133   13.7068 N   0  0  0  0  0  0  0  0  0  0  0  0
   -6.9420    0.1003   16.5723 N   0  0  0  0  0  0  0  0  0  0  0  0
   -5.3568    3.1492   12.9862 O   0  0  0  0  0  0  0  0  0  0  0  0
   -8.0115    3.2370   11.8936 O   0  0  0  0  0  0  0  0  0  0  0  0
  1  2  1  0  0  0  0
  1 16  1  6  0  0  0
  2  3  1  0  0  0  0
  2 12  1  6  0  0  0
  4 11  1  6  0  0  0
  4  3  1  0  0  0  0
  5  4  1  0  0  0  0
  5 10  1  1  0  0  0
  6  7  1  0  0  0  0
  6  5  1  0  0  0  0
  6 14  1  1  0  0  0
  7  8  1  0  0  0  0
  7 13  1  1  0  0  0
  8 15  1  6  0  0  0
  8 11  1  0  0  0  0
  9 13  1  0  0  0  0
 10  1  1  0  0  0  0
 17 15  1  1  0  0  0
 17 18  1  0  0  0  0
 18 25  1  6  0  0  0
 19 18  1  0  0  0  0
 19 26  1  6  0  0  0
 20 19  1  0  0  0  0
 20 24  1  1  0  0  0
 21 23  1  0  0  0  0
 21 20  1  0  0  0  0
 21 22  1  1  0  0  0
 23 17  1  0  0  0  0
 27 22  1  0  0  0  0
 28 29  1  0  0  0  0
 28 16  1  6  0  0  0
 29 36  1  1  0  0  0
 30 37  1  6  0  0  0
 30 29  1  0  0  0  0
 31 30  1  0  0  0  0
 31 34  1  1  0  0  0
 32 31  1  0  0  0  0
 32 33  1  0  0  0  0
 33 28  1  0  0  0  0
 33 35  1  1  0  0  0
M  END
>  <CHROM.1>
48.32355612,169.23665694,51.89698559,65.17112269,-136.00952357,-101.76630431
-61.70908391,62.48473368,-121.53537268,-34.41190461,61.46731327,145.16883428
68.11808677,75.41742201,-65.15567547,-176.22186827,-1.31281795,0.19978341
15.25786628,2.90151663,0.17611023,-0.93245275

>  <Name>
lig.pdb

>  <RI>
0

>  <Rbt.Current_Directory>
/home/itssahil/PROJECTS/Mol_Feturizer/New_Systems/rnas/2m4q

>  <Rbt.Executable>
rbdock ($Id: //depot/dev/client3/rdock/2013.1/src/exe/rbdock.cxx#4 $)

>  <Rbt.Library>
libRbt.so (2013.1, Build901 2013/11/27)

>  <Rbt.Parameter_File>
/export/apps/rDock/src/rDock_2013.1_src/data/scripts/dock_solv.prm

>  <Rbt.Receptor>
prm/blind_docking_20.prm

>  <SCORE>
22.1101

>  <SCORE.INTER>
11.9363

>  <SCORE.INTER.CONST>
1

>  <SCORE.INTER.POLAR>
-1.9153

>  <SCORE.INTER.ROT>
10

>  <SCORE.INTER.SOLV>
30.0528

>  <SCORE.INTER.VDW>
-5.9424

>  <SCORE.INTER.norm>
0.322602

>  <SCORE.INTRA>
-9.32088

>  <SCORE.INTRA.DIHEDRAL>
-19.7096

>  <SCORE.INTRA.DIHEDRAL.0>
44.8331

>  <SCORE.INTRA.POLAR>
-0.138155

>  <SCORE.INTRA.POLAR.0>
-0.108895

>  <SCORE.INTRA.REPUL>
-0.00912235

>  <SCORE.INTRA.REPUL.0>
0.00912235

>  <SCORE.INTRA.SOLV>
-1.408

>  <SCORE.INTRA.SOLV.lig_0>
-53.9067

>  <SCORE.INTRA.VDW>
1.75328

>  <SCORE.INTRA.VDW.0>
-2.93492

>  <SCORE.INTRA.norm>
-0.251916

>  <SCORE.RESTR>
19.4948

>  <SCORE.RESTR.CAVITY>
19.4948

>  <SCORE.RESTR.norm>
0.526885

>  <SCORE.SYSTEM>
0

>  <SCORE.SYSTEM.CONST>
0

>  <SCORE.SYSTEM.DIHEDRAL>
0

>  <SCORE.SYSTEM.SOLV>
0

>  <SCORE.SYSTEM.norm>
0

>  <SCORE.heavy>
37

>  <SCORE.norm>
0.597571

>  <RMSD>
9.586

$$$$
lig.pdb
 OpenBabel11021811453D
libRbt.so/2013.1/901 2013/11/27
 37 40  0  0  0  0  0  0  0  0999 V2000
    1.6110    4.7081    9.9369 C   0  0  2  0  0  0  0  0  0  0  0  0
    1.0936    4.8756    8.4702 C   0  0  1  0  0  0  0  0  0  0  0  0
    0.2314    6.1553    8.2641 C   0  0  0  0  0  0  0  0  0  0  0  0
   -0.8580    6.2757    9.3585 C   0  0  1  0  0  0  0  0  0  0  0  0
   -0.2043    6.2377   10.7581 C   0  0  1  0  0  0  0  0  0  0  0  0
   -1.2696    6.4037   11.8749 C   0  0  1  0  0  0  0  0  0  0  0  0
   -2.1280    7.6819   11.6382 C   0  0  1  0  0  0  0  0  0  0  0  0
   -2.7072    7.7363   10.1933 C   0  0  2  0  0  0  0  0  0  0  0  0
   -2.6562    8.1105   13.9943 C   0  0  0  0  0  0  0  0  0  0  0  0
    0.5716    5.0157   10.9218 O   0  0  0  0  0  0  0  0  0  0  0  0
   -1.6767    7.4691    9.1930 O   0  0  0  0  0  0  0  0  0  0  0  0
    2.2397    4.8933    7.5354 N   0  0  0  0  0  0  0  0  0  0  0  0
   -3.1900    7.7495   12.6632 N   0  0  0  0  0  0  0  0  0  0  0  0
   -2.0882    5.2463   11.9840 O   0  0  0  0  0  0  0  0  0  0  0  0
   -3.3578    9.0185    9.9538 O   0  0  0  0  0  0  0  0  0  0  0  0
    2.7974    5.5257   10.1748 O   0  0  0  0  0  0  0  0  0  0  0  0
   -2.5205   10.2018    9.7738 C   0  0  2  0  0  0  0  0  0  0  0  0
   -3.3713   11.5019    9.8400 C   0  0  1  0  0  0  0  0  0  0  0  0
   -4.2808   11.6593    8.5879 C   0  0  2  0  0  0  0  0  0  0  0  0
   -3.4542   11.5407    7.2747 C   0  0  1  0  0  0  0  0  0  0  0  0
   -2.5934   10.2467    7.2652 C   0  0  1  0  0  0  0  0  0  0  0  0
   -1.6619   10.1816    6.0265 C   0  0  0  0  0  0  0  0  0  0  0  0
   -1.8168   10.1430    8.4971 O   0  0  0  0  0  0  0  0  0  0  0  0
   -4.3230   11.6201    6.0799 N   0  0  0  0  0  0  0  0  0  0  0  0
   -4.1256   11.5460   11.0499 O   0  0  0  0  0  0  0  0  0  0  0  0
   -5.0066   12.8860    8.6294 O   0  0  0  0  0  0  0  0  0  0  0  0
   -2.4079   10.3284    4.8226 O   0  0  0  0  0  0  0  0  0  0  0  0
    3.4517    5.4085   11.4717 C   0  0  1  0  0  0  0  0  0  0  0  0
    2.5841    6.0022   12.6167 C   0  0  1  0  0  0  0  0  0  0  0  0
    3.3400    5.9550   13.9746 C   0  0  2  0  0  0  0  0  0  0  0  0
    3.8558    4.5203   14.3204 C   0  0  1  0  0  0  0  0  0  0  0  0
    4.6154    3.8473   13.1381 C   0  0  0  0  0  0  0  0  0  0  0  0
    3.8331    3.9355   11.7931 C   0  0  2  0  0  0  0  0  0  0  0  0
    4.6922    4.5426   15.5394 N   0  0  0  0  0  0  0  0  0  0  0  0
    4.6413    3.3228   10.7167 N   0  0  0  0  0  0  0  0  0  0  0  0
    2.1802    7.3324   12.3088 O   0  0  0  0  0  0  0  0  0  0  0  0
    2.5123    6.4531   15.0226 O   0  0  0  0  0  0  0  0  0  0  0  0
  1  2  1  0  0  0  0
  1 16  1  1  0  0  0
  2  3  1  0  0  0  0
  2 12  1  6  0  0  0
  4 11  1  6  0  0  0
  4  3  1  0  0  0  0
  5  4  1  0  0  0  0
  5 10  1  1  0  0  0
  6  7  1  0  0  0  0
  6  5  1  0  0  0  0
  6 14  1  6  0  0  0
  7  8  1  0  0  0  0
  7 13  1  1  0  0  0
  8 15  1  6  0  0  0
  8 11  1  0  0  0  0
  9 13  1  0  0  0  0
 10  1  1  0  0  0  0
 17 15  1  6  0  0  0
 17 18  1  0  0  0  0
 18 25  1  1  0  0  0
 19 18  1  0  0  0  0
 19 26  1  1  0  0  0
 20 19  1  0  0  0  0
 20 24  1  6  0  0  0
 21 23  1  0  0  0  0
 21 20  1  0  0  0  0
 21 22  1  6  0  0  0
 23 17  1  0  0  0  0
 27 22  1  0  0  0  0
 28 29  1  0  0  0  0
 28 16  1  6  0  0  0
 29 36  1  6  0  0  0
 30 37  1  1  0  0  0
 30 29  1  0  0  0  0
 31 30  1  0  0  0  0
 31 34  1  1  0  0  0
 32 31  1  0  0  0  0
 32 33  1  0  0  0  0
 33 28  1  0  0  0  0
 33 35  1  6  0  0  0
M  END
>  <CHROM.1>
63.86632650,73.27048391,72.80404436,-161.48568966,-167.67664604,-175.95154442
60.85544112,61.27080053,-54.50156310,-163.60618549,-164.17893033,-69.05943532
-53.69302962,-64.13887582,-171.23762915,23.14543197,-0.33389428,7.50323055
10.41686850,-0.49344626,0.70865454,-1.51527743

>  <Name>
lig.pdb

>  <RI>
0

>  <Rbt.Current_Directory>
/home/itssahil/PROJECTS/Mol_Feturizer/New_Systems/rnas/2m4q

>  <Rbt.Executable>
rbdock ($Id: //depot/dev/client3/rdock/2013.1/src/exe/rbdock.cxx#4 $)

>  <Rbt.Library>
libRbt.so (2013.1, Build901 2013/11/27)

>  <Rbt.Parameter_File>
/export/apps/rDock/src/rDock_2013.1_src/data/scripts/dock_solv.prm

>  <Rbt.Receptor>
prm/pocket_docking_3.prm

>  <SCORE>
-43.3446

>  <SCORE.INTER>
-21.6674

>  <SCORE.INTER.CONST>
1

>  <SCORE.INTER.POLAR>
-2.55668

>  <SCORE.INTER.ROT>
10

>  <SCORE.INTER.SOLV>
17.15

>  <SCORE.INTER.VDW>
-21.906

>  <SCORE.INTER.norm>
-0.585605

>  <SCORE.INTRA>
-21.6865

>  <SCORE.INTRA.DIHEDRAL>
-36.6422

>  <SCORE.INTRA.DIHEDRAL.0>
44.8331

>  <SCORE.INTRA.POLAR>
-1.01688

>  <SCORE.INTRA.POLAR.0>
-0.108895

>  <SCORE.INTRA.REPUL>
-0.00912235

>  <SCORE.INTRA.REPUL.0>
0.00912235

>  <SCORE.INTRA.SOLV>
-0.233657

>  <SCORE.INTRA.SOLV.lig_0>
-53.9067

>  <SCORE.INTRA.VDW>
0.254441

>  <SCORE.INTRA.VDW.0>
-2.93492

>  <SCORE.INTRA.norm>
-0.586122

>  <SCORE.RESTR>
0.00927743

>  <SCORE.RESTR.CAVITY>
0.00927743

>  <SCORE.RESTR.norm>
0.000250741

>  <SCORE.SYSTEM>
0

>  <SCORE.SYSTEM.CONST>
0

>  <SCORE.SYSTEM.DIHEDRAL>
0

>  <SCORE.SYSTEM.SOLV>
0

>  <SCORE.SYSTEM.norm>
0

>  <SCORE.heavy>
37

>  <SCORE.norm>
-1.17148

>  <RMSD>
9.586

$$$$
lig.pdb
 OpenBabel11021811453D
libRbt.so/2013.1/901 2013/11/27
 37 40  0  0  0  0  0  0  0  0999 V2000
    1.8936    4.6681   10.0445 C   0  0  2  0  0  0  0  0  0  0  0  0
    1.3605    4.6670    8.5738 C   0  0  1  0  0  0  0  0  0  0  0  0
    0.4619    5.8948    8.2439 C   0  0  0  0  0  0  0  0  0  0  0  0
   -0.6219    6.1005    9.3312 C   0  0  1  0  0  0  0  0  0  0  0  0
    0.0433    6.2269   10.7200 C   0  0  1  0  0  0  0  0  0  0  0  0
   -1.0175    6.4809   11.8245 C   0  0  1  0  0  0  0  0  0  0  0  0
   -1.9124    7.7040   11.4643 C   0  0  1  0  0  0  0  0  0  0  0  0
   -2.5040    7.5912   10.0278 C   0  0  2  0  0  0  0  0  0  0  0  0
   -3.4232    9.2514   12.6206 C   0  0  0  0  0  0  0  0  0  0  0  0
    0.8537    5.0498   11.0026 O   0  0  0  0  0  0  0  0  0  0  0  0
   -1.4743    7.2479    9.0502 O   0  0  0  0  0  0  0  0  0  0  0  0
    2.4984    4.6169    7.6302 N   0  0  0  0  0  0  0  0  0  0  0  0
   -2.9680    7.8506   12.4877 N   0  0  0  0  0  0  0  0  0  0  0  0
   -1.8032    5.3200   12.0627 O   0  0  0  0  0  0  0  0  0  0  0  0
   -3.1913    8.8235    9.6623 O   0  0  0  0  0  0  0  0  0  0  0  0
    3.0588    5.5373   10.1830 O   0  0  0  0  0  0  0  0  0  0  0  0
   -2.3968   10.0346    9.4729 C   0  0  2  0  0  0  0  0  0  0  0  0
   -3.2793   11.2041    8.9512 C   0  0  1  0  0  0  0  0  0  0  0  0
   -3.7243   10.9768    7.4780 C   0  0  2  0  0  0  0  0  0  0  0  0
   -2.5019   10.6824    6.5610 C   0  0  1  0  0  0  0  0  0  0  0  0
   -1.6294    9.5322    7.1365 C   0  0  1  0  0  0  0  0  0  0  0  0
   -0.3356    9.3184    6.3078 C   0  0  0  0  0  0  0  0  0  0  0  0
   -1.3052    9.7908    8.5363 O   0  0  0  0  0  0  0  0  0  0  0  0
   -2.9243   10.3968    5.1722 N   0  0  0  0  0  0  0  0  0  0  0  0
   -4.3956   11.4130    9.8142 O   0  0  0  0  0  0  0  0  0  0  0  0
   -4.4774   12.0853    6.9907 O   0  0  0  0  0  0  0  0  0  0  0  0
    0.5604   10.4123    6.4749 O   0  0  0  0  0  0  0  0  0  0  0  0
    3.6756    5.6385   11.4995 C   0  0  1  0  0  0  0  0  0  0  0  0
    4.1968    4.2639   12.0048 C   0  0  1  0  0  0  0  0  0  0  0  0
    4.7626    4.3756   13.4486 C   0  0  2  0  0  0  0  0  0  0  0  0
    5.8487    5.4924   13.5787 C   0  0  1  0  0  0  0  0  0  0  0  0
    5.4014    6.8493   12.9569 C   0  0  0  0  0  0  0  0  0  0  0  0
    4.8217    6.6894   11.5191 C   0  0  2  0  0  0  0  0  0  0  0  0
    6.2552    5.6680   14.9894 N   0  0  0  0  0  0  0  0  0  0  0  0
    4.3747    8.0090   11.0230 N   0  0  0  0  0  0  0  0  0  0  0  0
    3.1717    3.2778   11.9382 O   0  0  0  0  0  0  0  0  0  0  0  0
    5.2846    3.1204   13.8772 O   0  0  0  0  0  0  0  0  0  0  0  0
  1  2  1  0  0  0  0
  1 16  1  6  0  0  0
  2  3  1  0  0  0  0
  2 12  1  6  0  0  0
  4 11  1  6  0  0  0
  4  3  1  0  0  0  0
  5  4  1  0  0  0  0
  5 10  1  1  0  0  0
  6  7  1  0  0  0  0
  6  5  1  0  0  0  0
  6 14  1  6  0  0  0
  7  8  1  0  0  0  0
  7 13  1  1  0  0  0
  8 15  1  6  0  0  0
  8 11  1  0  0  0  0
  9 13  1  0  0  0  0
 10  1  1  0  0  0  0
 17 15  1  6  0  0  0
 17 18  1  0  0  0  0
 18 25  1  1  0  0  0
 19 18  1  0  0  0  0
 19 26  1  6  0  0  0
 20 19  1  0  0  0  0
 20 24  1  6  0  0  0
 21 23  1  0  0  0  0
 21 20  1  0  0  0  0
 21 22  1  6  0  0  0
 23 17  1  0  0  0  0
 27 22  1  0  0  0  0
 28 29  1  0  0  0  0
 28 16  1  6  0  0  0
 29 36  1  1  0  0  0
 30 37  1  6  0  0  0
 30 29  1  0  0  0  0
 31 30  1  0  0  0  0
 31 34  1  1  0  0  0
 32 31  1  0  0  0  0
 32 33  1  0  0  0  0
 33 28  1  0  0  0  0
 33 35  1  1  0  0  0
M  END
>  <CHROM.1>
-164.40721277,67.61858255,152.50126112,59.10471902,174.32892780,-179.70449279
-177.02916950,-176.27268932,69.44332194,77.28861448,61.26294468,60.70101686
84.92999859,-174.40259639,71.17179695,50.70185354,0.32222176,7.36876224,10.11652673
-0.64157470,0.43685265,-1.20507824

>  <Name>
lig.pdb

>  <RI>
3.87352e+07

>  <Rbt.Current_Directory>
/home/itssahil/PROJECTS/Mol_Feturizer/New_Systems/rnas/2m4q

>  <Rbt.Executable>
rbdock ($Id: //depot/dev/client3/rdock/2013.1/src/exe/rbdock.cxx#4 $)

>  <Rbt.Library>
libRbt.so (2013.1, Build901 2013/11/27)

>  <Rbt.Parameter_File>
/export/apps/rDock/src/rDock_2013.1_src/data/scripts/dock_solv.prm

>  <Rbt.Receptor>
prm/pocket_docking_4.prm

>  <SCORE>
-46.2381

>  <SCORE.INTER>
-27.4395

>  <SCORE.INTER.CONST>
1

>  <SCORE.INTER.POLAR>
-3.6508

>  <SCORE.INTER.ROT>
10

>  <SCORE.INTER.SOLV>
16.3673

>  <SCORE.INTER.VDW>
-21.8461

>  <SCORE.INTER.norm>
-0.741607

>  <SCORE.INTRA>
-18.7986

>  <SCORE.INTRA.DIHEDRAL>
-38.3486

>  <SCORE.INTRA.DIHEDRAL.0>
44.8331

>  <SCORE.INTRA.POLAR>
0.0699333

>  <SCORE.INTRA.POLAR.0>
-0.108895

>  <SCORE.INTRA.REPUL>
-0.00912235

>  <SCORE.INTRA.REPUL.0>
0.00912235

>  <SCORE.INTRA.SOLV>
-1.06114

>  <SCORE.INTRA.SOLV.lig_0>
-53.9067

>  <SCORE.INTRA.VDW>
0.714053

>  <SCORE.INTRA.VDW.0>
-2.93492

>  <SCORE.INTRA.norm>
-0.508071

>  <SCORE.RESTR>
0

>  <SCORE.RESTR.CAVITY>
0

>  <SCORE.RESTR.norm>
0

>  <SCORE.SYSTEM>
0

>  <SCORE.SYSTEM.CONST>
0

>  <SCORE.SYSTEM.DIHEDRAL>
0

>  <SCORE.SYSTEM.SOLV>
0

>  <SCORE.SYSTEM.norm>
0

>  <SCORE.heavy>
37

>  <SCORE.norm>
-1.24968

>  <RMSD>
9.586

$$$$
lig.pdb
 OpenBabel11021811453D
libRbt.so/2013.1/901 2013/11/27
 37 40  0  0  0  0  0  0  0  0999 V2000
    2.1406    4.5495    9.7295 C   0  0  2  0  0  0  0  0  0  0  0  0
    1.8795    4.6034    8.1881 C   0  0  1  0  0  0  0  0  0  0  0  0
    1.0291    5.8319    7.7505 C   0  0  0  0  0  0  0  0  0  0  0  0
   -0.2358    5.9769    8.6326 C   0  0  1  0  0  0  0  0  0  0  0  0
    0.1673    6.0534   10.1222 C   0  0  1  0  0  0  0  0  0  0  0  0
   -1.0791    6.2462   11.0272 C   0  0  1  0  0  0  0  0  0  0  0  0
   -1.9203    7.4714   10.5603 C   0  0  1  0  0  0  0  0  0  0  0  0
   -2.2427    7.4115    9.0376 C   0  0  2  0  0  0  0  0  0  0  0  0
   -2.8664    8.0739   12.7410 C   0  0  0  0  0  0  0  0  0  0  0  0
    0.9383    4.8763   10.4995 O   0  0  0  0  0  0  0  0  0  0  0  0
   -1.0478    7.1236    8.2482 O   0  0  0  0  0  0  0  0  0  0  0  0
    3.1687    4.6085    7.4631 N   0  0  0  0  0  0  0  0  0  0  0  0
   -3.1447    7.5604   11.3824 N   0  0  0  0  0  0  0  0  0  0  0  0
   -1.8704    5.0659   11.0747 O   0  0  0  0  0  0  0  0  0  0  0  0
   -2.8790    8.6488    8.6031 O   0  0  0  0  0  0  0  0  0  0  0  0
    3.2439    5.4276   10.1091 O   0  0  0  0  0  0  0  0  0  0  0  0
   -2.2132    9.9153    8.8974 C   0  0  2  0  0  0  0  0  0  0  0  0
   -3.1787   10.8979    9.6192 C   0  0  1  0  0  0  0  0  0  0  0  0
   -4.2851   11.4257    8.6615 C   0  0  2  0  0  0  0  0  0  0  0  0
   -3.6669   12.0244    7.3649 C   0  0  1  0  0  0  0  0  0  0  0  0
   -2.6834   11.0244    6.6953 C   0  0  1  0  0  0  0  0  0  0  0  0
   -1.9563   11.6558    5.4791 C   0  0  0  0  0  0  0  0  0  0  0  0
   -1.7165   10.5307    7.6715 O   0  0  0  0  0  0  0  0  0  0  0  0
   -4.7158   12.4651    6.4194 N   0  0  0  0  0  0  0  0  0  0  0  0
   -3.7339   10.2897   10.7839 O   0  0  0  0  0  0  0  0  0  0  0  0
   -5.1237   12.3747    9.3168 O   0  0  0  0  0  0  0  0  0  0  0  0
   -1.0051   10.7495    4.9304 O   0  0  0  0  0  0  0  0  0  0  0  0
    3.6765    5.4088   11.5006 C   0  0  1  0  0  0  0  0  0  0  0  0
    2.6482    6.1005   12.4388 C   0  0  1  0  0  0  0  0  0  0  0  0
    3.1725    6.1554   13.9014 C   0  0  2  0  0  0  0  0  0  0  0  0
    3.5934    4.7484   14.4373 C   0  0  1  0  0  0  0  0  0  0  0  0
    4.5195    3.9756   13.4510 C   0  0  0  0  0  0  0  0  0  0  0  0
    3.9678    3.9628   11.9935 C   0  0  2  0  0  0  0  0  0  0  0  0
    4.2213    4.8607   15.7711 N   0  0  0  0  0  0  0  0  0  0  0  0
    4.9261    3.2582   11.1145 N   0  0  0  0  0  0  0  0  0  0  0  0
    2.3292    7.4054   11.9666 O   0  0  0  0  0  0  0  0  0  0  0  0
    2.1971    6.7437   14.7582 O   0  0  0  0  0  0  0  0  0  0  0  0
  1  2  1  0  0  0  0
  1 16  1  6  0  0  0
  2  3  1  0  0  0  0
  2 12  1  6  0  0  0
  4 11  1  6  0  0  0
  4  3  1  0  0  0  0
  5  4  1  0  0  0  0
  5 10  1  1  0  0  0
  6  7  1  0  0  0  0
  6  5  1  0  0  0  0
  6 14  1  6  0  0  0
  7  8  1  0  0  0  0
  7 13  1  1  0  0  0
  8 15  1  6  0  0  0
  8 11  1  0  0  0  0
  9 13  1  0  0  0  0
 10  1  1  0  0  0  0
 17 15  1  6  0  0  0
 17 18  1  0  0  0  0
 18 25  1  1  0  0  0
 19 18  1  0  0  0  0
 19 26  1  1  0  0  0
 20 19  1  0  0  0  0
 20 24  1  6  0  0  0
 21 23  1  0  0  0  0
 21 20  1  0  0  0  0
 21 22  1  6  0  0  0
 23 17  1  0  0  0  0
 27 22  1  0  0  0  0
 28 29  1  0  0  0  0
 28 16  1  6  0  0  0
 29 36  1  6  0  0  0
 30 37  1  1  0  0  0
 30 29  1  0  0  0  0
 31 30  1  0  0  0  0
 31 34  1  1  0  0  0
 32 31  1  0  0  0  0
 32 33  1  0  0  0  0
 33 28  1  0  0  0  0
 33 35  1  6  0  0  0
M  END
>  <CHROM.1>
79.33537788,53.38889856,74.94695484,41.05728384,-127.36860853,-175.35405538
-179.75645781,62.24654078,176.59898249,-55.54634763,-179.66640252,-72.32549654
-58.88255816,-61.10701925,-66.21198275,-177.56176307,-0.11933726,7.48005338
10.06488941,-0.52598264,0.70174657,-1.47200187

>  <Name>
lig.pdb

>  <RI>
3.87352e+07

>  <Rbt.Current_Directory>
/home/itssahil/PROJECTS/Mol_Feturizer/New_Systems/rnas/2m4q

>  <Rbt.Executable>
rbdock ($Id: //depot/dev/client3/rdock/2013.1/src/exe/rbdock.cxx#4 $)

>  <Rbt.Library>
libRbt.so (2013.1, Build901 2013/11/27)

>  <Rbt.Parameter_File>
/export/apps/rDock/src/rDock_2013.1_src/data/scripts/dock_solv.prm

>  <Rbt.Receptor>
prm/pocket_docking_4.prm

>  <SCORE>
-39.6774

>  <SCORE.INTER>
-20.2403

>  <SCORE.INTER.CONST>
1

>  <SCORE.INTER.POLAR>
-2.25638

>  <SCORE.INTER.ROT>
10

>  <SCORE.INTER.SOLV>
16.3853

>  <SCORE.INTER.VDW>
-21.7007

>  <SCORE.INTER.norm>
-0.547034

>  <SCORE.INTRA>
-19.4371

>  <SCORE.INTRA.DIHEDRAL>
-33.3428

>  <SCORE.INTRA.DIHEDRAL.0>
44.8331

>  <SCORE.INTRA.POLAR>
-0.688564

>  <SCORE.INTRA.POLAR.0>
-0.108895

>  <SCORE.INTRA.REPUL>
-0.00912235

>  <SCORE.INTRA.REPUL.0>
0.00912235

>  <SCORE.INTRA.SOLV>
-0.20012

>  <SCORE.INTRA.SOLV.lig_0>
-53.9067

>  <SCORE.INTRA.VDW>
-0.278901

>  <SCORE.INTRA.VDW.0>
-2.93492

>  <SCORE.INTRA.norm>
-0.525327

>  <SCORE.RESTR>
0

>  <SCORE.RESTR.CAVITY>
0

>  <SCORE.RESTR.norm>
0

>  <SCORE.SYSTEM>
0

>  <SCORE.SYSTEM.CONST>
0

>  <SCORE.SYSTEM.DIHEDRAL>
0

>  <SCORE.SYSTEM.SOLV>
0

>  <SCORE.SYSTEM.norm>
0

>  <SCORE.heavy>
37

>  <SCORE.norm>
-1.07236

>  <RMSD>
9.601

$$$$
lig.pdb
 OpenBabel11021811453D
libRbt.so/2013.1/901 2013/11/27
 37 40  0  0  0  0  0  0  0  0999 V2000
    1.7465    4.7031    9.8475 C   0  0  2  0  0  0  0  0  0  0  0  0
    1.4667    4.7108    8.3084 C   0  0  1  0  0  0  0  0  0  0  0  0
    0.6888    5.9719    7.8306 C   0  0  0  0  0  0  0  0  0  0  0  0
   -0.5515    6.2323    8.7210 C   0  0  1  0  0  0  0  0  0  0  0  0
   -0.1226    6.3435   10.2013 C   0  0  1  0  0  0  0  0  0  0  0  0
   -1.3411    6.6514   11.1124 C   0  0  1  0  0  0  0  0  0  0  0  0
   -2.1106    7.9073   10.6053 C   0  0  1  0  0  0  0  0  0  0  0  0
   -2.4584    7.8061    9.0904 C   0  0  2  0  0  0  0  0  0  0  0  0
   -3.0943    9.1074   12.5043 C   0  0  0  0  0  0  0  0  0  0  0  0
    0.5785    5.1364   10.6177 O   0  0  0  0  0  0  0  0  0  0  0  0
   -1.2956    7.4115    8.2993 O   0  0  0  0  0  0  0  0  0  0  0  0
    2.7430    4.6049    7.5683 N   0  0  0  0  0  0  0  0  0  0  0  0
   -3.3149    8.1069   11.4377 N   0  0  0  0  0  0  0  0  0  0  0  0
   -2.2041    5.5264   11.2184 O   0  0  0  0  0  0  0  0  0  0  0  0
   -3.0221    9.0625    8.6127 O   0  0  0  0  0  0  0  0  0  0  0  0
    2.9082    5.5243   10.1770 O   0  0  0  0  0  0  0  0  0  0  0  0
   -2.3192   10.3046    8.9240 C   0  0  2  0  0  0  0  0  0  0  0  0
   -2.9389   11.5042    8.1523 C   0  0  1  0  0  0  0  0  0  0  0  0
   -2.6310   11.4299    6.6293 C   0  0  2  0  0  0  0  0  0  0  0  0
   -1.1050   11.2654    6.3720 C   0  0  1  0  0  0  0  0  0  0  0  0
   -0.5204   10.0789    7.1880 C   0  0  1  0  0  0  0  0  0  0  0  0
    1.0218    9.9863    7.0489 C   0  0  0  0  0  0  0  0  0  0  0  0
   -0.9031   10.1896    8.5926 O   0  0  0  0  0  0  0  0  0  0  0  0
   -0.8121   11.1245    4.9288 N   0  0  0  0  0  0  0  0  0  0  0  0
   -4.3401   11.5921    8.4045 O   0  0  0  0  0  0  0  0  0  0  0  0
   -3.1481   12.5680    5.9432 O   0  0  0  0  0  0  0  0  0  0  0  0
    1.3910    9.6363    5.7190 O   0  0  0  0  0  0  0  0  0  0  0  0
    3.8508    5.0016   11.1579 C   0  0  1  0  0  0  0  0  0  0  0  0
    5.2509    5.6646   11.0299 C   0  0  1  0  0  0  0  0  0  0  0  0
    6.2661    5.0254   12.0188 C   0  0  2  0  0  0  0  0  0  0  0  0
    5.7498    5.0380   13.4944 C   0  0  1  0  0  0  0  0  0  0  0  0
    4.2934    4.5018   13.6323 C   0  0  0  0  0  0  0  0  0  0  0  0
    3.3140    5.1526   12.6096 C   0  0  2  0  0  0  0  0  0  0  0  0
    6.6712    4.2939   14.3795 N   0  0  0  0  0  0  0  0  0  0  0  0
    1.9709    4.5547   12.7708 N   0  0  0  0  0  0  0  0  0  0  0  0
    5.7294    5.5836    9.6912 O   0  0  0  0  0  0  0  0  0  0  0  0
    7.5294    5.6792   11.9272 O   0  0  0  0  0  0  0  0  0  0  0  0
  1  2  1  0  0  0  0
  1 16  1  6  0  0  0
  2  3  1  0  0  0  0
  2 12  1  6  0  0  0
  4 11  1  6  0  0  0
  4  3  1  0  0  0  0
  5  4  1  0  0  0  0
  5 10  1  1  0  0  0
  6  7  1  0  0  0  0
  6  5  1  0  0  0  0
  6 14  1  6  0  0  0
  7  8  1  0  0  0  0
  7 13  1  1  0  0  0
  8 15  1  6  0  0  0
  8 11  1  0  0  0  0
  9 13  1  0  0  0  0
 10  1  1  0  0  0  0
 17 15  1  6  0  0  0
 17 18  1  0  0  0  0
 18 25  1  6  0  0  0
 19 18  1  0  0  0  0
 19 26  1  6  0  0  0
 20 19  1  0  0  0  0
 20 24  1  6  0  0  0
 21 23  1  0  0  0  0
 21 20  1  0  0  0  0
 21 22  1  1  0  0  0
 23 17  1  0  0  0  0
 27 22  1  0  0  0  0
 28 29  1  0  0  0  0
 28 16  1  6  0  0  0
 29 36  1  6  0  0  0
 30 37  1  1  0  0  0
 30 29  1  0  0  0  0
 31 30  1  0  0  0  0
 31 34  1  1  0  0  0
 32 31  1  0  0  0  0
 32 33  1  0  0  0  0
 33 28  1  0  0  0  0
 33 35  1  6  0  0  0
M  END
>  <CHROM.1>
71.42492022,49.35093414,97.45327497,-175.94612638,171.11794620,-137.80477753
55.48834289,-56.79093880,-67.07071049,-175.31783464,-179.26331968,158.48514098
-60.52912212,-58.98104551,-179.64941613,-62.06735731,0.67474253,7.45258908
9.62017472,0.72681523,-0.28470428,2.17938108

>  <Name>
lig.pdb

>  <RI>
0

>  <Rbt.Current_Directory>
/home/itssahil/PROJECTS/Mol_Feturizer/New_Systems/rnas/2m4q

>  <Rbt.Executable>
rbdock ($Id: //depot/dev/client3/rdock/2013.1/src/exe/rbdock.cxx#4 $)

>  <Rbt.Library>
libRbt.so (2013.1, Build901 2013/11/27)

>  <Rbt.Parameter_File>
/export/apps/rDock/src/rDock_2013.1_src/data/scripts/dock_solv.prm

>  <Rbt.Receptor>
prm/pocket_docking_7.prm

>  <SCORE>
-43.1035

>  <SCORE.INTER>
-20.3236

>  <SCORE.INTER.CONST>
1

>  <SCORE.INTER.POLAR>
-2.80396

>  <SCORE.INTER.ROT>
10

>  <SCORE.INTER.SOLV>
13.5476

>  <SCORE.INTER.VDW>
-18.9851

>  <SCORE.INTER.norm>
-0.549286

>  <SCORE.INTRA>
-22.7799

>  <SCORE.INTRA.DIHEDRAL>
-33.1343

>  <SCORE.INTRA.DIHEDRAL.0>
44.8331

>  <SCORE.INTRA.POLAR>
-1.62872

>  <SCORE.INTRA.POLAR.0>
-0.108895

>  <SCORE.INTRA.REPUL>
-0.00912235

>  <SCORE.INTRA.REPUL.0>
0.00912235

>  <SCORE.INTRA.SOLV>
-0.154854

>  <SCORE.INTRA.SOLV.lig_0>
-53.9067

>  <SCORE.INTRA.VDW>
-0.552053

>  <SCORE.INTRA.VDW.0>
-2.93492

>  <SCORE.INTRA.norm>
-0.615673

>  <SCORE.RESTR>
0

>  <SCORE.RESTR.CAVITY>
0

>  <SCORE.RESTR.norm>
0

>  <SCORE.SYSTEM>
0

>  <SCORE.SYSTEM.CONST>
0

>  <SCORE.SYSTEM.DIHEDRAL>
0

>  <SCORE.SYSTEM.SOLV>
0

>  <SCORE.SYSTEM.norm>
0

>  <SCORE.heavy>
37

>  <SCORE.norm>
-1.16496

>  <RMSD>
9.615

$$$$
lig.pdb
 OpenBabel11021811453D
libRbt.so/2013.1/901 2013/11/27
 37 40  0  0  0  0  0  0  0  0999 V2000
    2.2604    4.5071    9.7305 C   0  0  2  0  0  0  0  0  0  0  0  0
    2.1088    4.6438    8.1796 C   0  0  1  0  0  0  0  0  0  0  0  0
    1.3320    5.9220    7.7474 C   0  0  0  0  0  0  0  0  0  0  0  0
    0.0145    6.0709    8.5480 C   0  0  1  0  0  0  0  0  0  0  0  0
    0.3157    6.0617   10.0635 C   0  0  1  0  0  0  0  0  0  0  0  0
   -0.9834    6.2567   10.8906 C   0  0  1  0  0  0  0  0  0  0  0  0
   -1.7491    7.5325   10.4296 C   0  0  1  0  0  0  0  0  0  0  0  0
   -1.9670    7.5569    8.8875 C   0  0  2  0  0  0  0  0  0  0  0  0
   -2.8841    8.4029   12.4217 C   0  0  0  0  0  0  0  0  0  0  0  0
    1.0192    4.8407   10.4328 O   0  0  0  0  0  0  0  0  0  0  0  0
   -0.7305    7.2635    8.1674 O   0  0  0  0  0  0  0  0  0  0  0  0
    3.4446    4.6363    7.5446 N   0  0  0  0  0  0  0  0  0  0  0  0
   -3.0240    7.6270   11.1705 N   0  0  0  0  0  0  0  0  0  0  0  0
   -1.8148    5.1051   10.8255 O   0  0  0  0  0  0  0  0  0  0  0  0
   -2.5302    8.8359    8.4733 O   0  0  0  0  0  0  0  0  0  0  0  0
    3.3633    5.3253   10.2272 O   0  0  0  0  0  0  0  0  0  0  0  0
   -2.0305    9.4530    7.2472 C   0  0  2  0  0  0  0  0  0  0  0  0
   -1.0267   10.5967    7.5681 C   0  0  1  0  0  0  0  0  0  0  0  0
   -1.7409   11.8334    8.1848 C   0  0  2  0  0  0  0  0  0  0  0  0
   -2.9279   12.2995    7.2927 C   0  0  1  0  0  0  0  0  0  0  0  0
   -3.8862   11.1198    6.9680 C   0  0  1  0  0  0  0  0  0  0  0  0
   -4.9979   11.5366    5.9696 C   0  0  0  0  0  0  0  0  0  0  0  0
   -3.1339    9.9802    6.4517 O   0  0  0  0  0  0  0  0  0  0  0  0
   -3.6544   13.4319    7.9078 N   0  0  0  0  0  0  0  0  0  0  0  0
    0.0241   10.1205    8.4069 O   0  0  0  0  0  0  0  0  0  0  0  0
   -0.8208   12.8985    8.4136 O   0  0  0  0  0  0  0  0  0  0  0  0
   -5.8770   10.4481    5.7060 O   0  0  0  0  0  0  0  0  0  0  0  0
    3.6735    5.2527   11.6493 C   0  0  1  0  0  0  0  0  0  0  0  0
    2.6787    6.0860   12.5049 C   0  0  1  0  0  0  0  0  0  0  0  0
    3.0839    6.0738   14.0059 C   0  0  2  0  0  0  0  0  0  0  0  0
    3.2583    4.6243   14.5647 C   0  0  1  0  0  0  0  0  0  0  0  0
    4.1448    3.7247   13.6522 C   0  0  0  0  0  0  0  0  0  0  0  0
    3.7181    3.7825   12.1544 C   0  0  2  0  0  0  0  0  0  0  0  0
    3.7842    4.6538   15.9462 N   0  0  0  0  0  0  0  0  0  0  0  0
    4.6371    2.9465   11.3520 N   0  0  0  0  0  0  0  0  0  0  0  0
    2.5853    7.4205   12.0171 O   0  0  0  0  0  0  0  0  0  0  0  0
    2.1335    6.7970   14.7840 O   0  0  0  0  0  0  0  0  0  0  0  0
  1  2  1  0  0  0  0
  1 16  1  1  0  0  0
  2  3  1  0  0  0  0
  2 12  1  6  0  0  0
  4 11  1  6  0  0  0
  4  3  1  0  0  0  0
  5  4  1  0  0  0  0
  5 10  1  1  0  0  0
  6  7  1  0  0  0  0
  6  5  1  0  0  0  0
  6 14  1  6  0  0  0
  7  8  1  0  0  0  0
  7 13  1  1  0  0  0
  8 15  1  6  0  0  0
  8 11  1  0  0  0  0
  9 13  1  0  0  0  0
 10  1  1  0  0  0  0
 17 15  1  1  0  0  0
 17 18  1  0  0  0  0
 18 25  1  1  0  0  0
 19 18  1  0  0  0  0
 19 26  1  6  0  0  0
 20 19  1  0  0  0  0
 20 24  1  1  0  0  0
 21 23  1  0  0  0  0
 21 20  1  0  0  0  0
 21 22  1  6  0  0  0
 23 17  1  0  0  0  0
 27 22  1  0  0  0  0
 28 29  1  0  0  0  0
 28 16  1  6  0  0  0
 29 36  1  6  0  0  0
 30 37  1  1  0  0  0
 30 29  1  0  0  0  0
 31 30  1  0  0  0  0
 31 34  1  1  0  0  0
 32 31  1  0  0  0  0
 32 33  1  0  0  0  0
 33 28  1  0  0  0  0
 33 35  1  6  0  0  0
M  END
>  <CHROM.1>
-164.00052330,139.17226006,90.61596073,52.54557956,-101.70060936,-177.02572589
-57.23431388,61.29186503,-178.94585609,-174.90050046,-176.46507742,-78.07549600
-179.16318052,-173.40921095,61.43114287,17.75724897,0.02593583,7.48524567
9.90397942,-0.34443332,0.84524968,-1.81554241

>  <Name>
lig.pdb

>  <RI>
0

>  <Rbt.Current_Directory>
/home/itssahil/PROJECTS/Mol_Feturizer/New_Systems/rnas/2m4q

>  <Rbt.Executable>
rbdock ($Id: //depot/dev/client3/rdock/2013.1/src/exe/rbdock.cxx#4 $)

>  <Rbt.Library>
libRbt.so (2013.1, Build901 2013/11/27)

>  <Rbt.Parameter_File>
/export/apps/rDock/src/rDock_2013.1_src/data/scripts/dock_solv.prm

>  <Rbt.Receptor>
prm/pocket_docking_6.prm

>  <SCORE>
-44.592

>  <SCORE.INTER>
-30.254

>  <SCORE.INTER.CONST>
1

>  <SCORE.INTER.POLAR>
-4.03553

>  <SCORE.INTER.ROT>
10

>  <SCORE.INTER.SOLV>
16.1748

>  <SCORE.INTER.VDW>
-22.3759

>  <SCORE.INTER.norm>
-0.817676

>  <SCORE.INTRA>
-14.3379

>  <SCORE.INTRA.DIHEDRAL>
-27.3022

>  <SCORE.INTRA.DIHEDRAL.0>
44.8331

>  <SCORE.INTRA.POLAR>
0.0476256

>  <SCORE.INTRA.POLAR.0>
-0.108895

>  <SCORE.INTRA.REPUL>
-0.00912235

>  <SCORE.INTRA.REPUL.0>
0.00912235

>  <SCORE.INTRA.SOLV>
-1.26069

>  <SCORE.INTRA.SOLV.lig_0>
-53.9067

>  <SCORE.INTRA.VDW>
-0.172816

>  <SCORE.INTRA.VDW.0>
-2.93492

>  <SCORE.INTRA.norm>
-0.387512

>  <SCORE.RESTR>
0

>  <SCORE.RESTR.CAVITY>
0

>  <SCORE.RESTR.norm>
0

>  <SCORE.SYSTEM>
0

>  <SCORE.SYSTEM.CONST>
0

>  <SCORE.SYSTEM.DIHEDRAL>
0

>  <SCORE.SYSTEM.SOLV>
0

>  <SCORE.SYSTEM.norm>
0

>  <SCORE.heavy>
37

>  <SCORE.norm>
-1.20519

>  <RMSD>
9.616

$$$$
lig.pdb
 OpenBabel11021811453D
libRbt.so/2013.1/901 2013/11/27
 37 40  0  0  0  0  0  0  0  0999 V2000
    2.1414    4.8819    9.4350 C   0  0  2  0  0  0  0  0  0  0  0  0
    1.8316    5.8897    8.2794 C   0  0  1  0  0  0  0  0  0  0  0  0
    1.2137    7.2283    8.7793 C   0  0  0  0  0  0  0  0  0  0  0  0
    0.0374    6.9699    9.7533 C   0  0  1  0  0  0  0  0  0  0  0  0
    0.5093    6.0779   10.9233 C   0  0  1  0  0  0  0  0  0  0  0  0
   -0.6388    5.8409   11.9409 C   0  0  1  0  0  0  0  0  0  0  0  0
   -1.2495    7.1936   12.4142 C   0  0  1  0  0  0  0  0  0  0  0  0
   -1.6405    8.1083   11.2156 C   0  0  2  0  0  0  0  0  0  0  0  0
   -2.6728    8.0502   14.2182 C   0  0  0  0  0  0  0  0  0  0  0  0
    1.0566    4.8263   10.4175 O   0  0  0  0  0  0  0  0  0  0  0  0
   -0.5563    8.2072   10.2418 O   0  0  0  0  0  0  0  0  0  0  0  0
    3.0668    6.1679    7.5149 N   0  0  0  0  0  0  0  0  0  0  0  0
   -2.3993    6.9223   13.3017 N   0  0  0  0  0  0  0  0  0  0  0  0
   -1.6380    4.9849   11.4021 O   0  0  0  0  0  0  0  0  0  0  0  0
   -2.0466    9.4248   11.6915 O   0  0  0  0  0  0  0  0  0  0  0  0
    3.4068    5.2023   10.0897 O   0  0  0  0  0  0  0  0  0  0  0  0
   -1.0230   10.3177   12.2289 C   0  0  2  0  0  0  0  0  0  0  0  0
   -1.6538   11.6426   12.7441 C   0  0  1  0  0  0  0  0  0  0  0  0
   -2.1582   12.5337   11.5730 C   0  0  2  0  0  0  0  0  0  0  0  0
   -1.0364   12.7646   10.5194 C   0  0  1  0  0  0  0  0  0  0  0  0
   -0.4104   11.4189   10.0581 C   0  0  1  0  0  0  0  0  0  0  0  0
    0.7991   11.6386    9.1121 C   0  0  0  0  0  0  0  0  0  0  0  0
   -0.0190   10.6171   11.2137 O   0  0  0  0  0  0  0  0  0  0  0  0
   -1.5293   13.5534    9.3690 N   0  0  0  0  0  0  0  0  0  0  0  0
   -2.6902   11.3710   13.6858 O   0  0  0  0  0  0  0  0  0  0  0  0
   -2.6745   13.7727   12.0542 O   0  0  0  0  0  0  0  0  0  0  0  0
    0.3621   11.9929    7.8041 O   0  0  0  0  0  0  0  0  0  0  0  0
    4.3570    4.1166   10.2951 C   0  0  1  0  0  0  0  0  0  0  0  0
    3.8393    3.0783   11.3296 C   0  0  1  0  0  0  0  0  0  0  0  0
    4.9068    1.9824   11.6059 C   0  0  2  0  0  0  0  0  0  0  0  0
    5.4093    1.2953   10.2947 C   0  0  1  0  0  0  0  0  0  0  0  0
    5.8088    2.3175    9.1887 C   0  0  0  0  0  0  0  0  0  0  0  0
    4.7212    3.4098    8.9586 C   0  0  2  0  0  0  0  0  0  0  0  0
    6.5240    0.3674   10.5819 N   0  0  0  0  0  0  0  0  0  0  0  0
    5.1977    4.3659    7.9358 N   0  0  0  0  0  0  0  0  0  0  0  0
    3.4483    3.7199   12.5392 O   0  0  0  0  0  0  0  0  0  0  0  0
    4.3978    1.0095   12.5148 O   0  0  0  0  0  0  0  0  0  0  0  0
  1  2  1  0  0  0  0
  1 16  1  1  0  0  0
  2  3  1  0  0  0  0
  2 12  1  1  0  0  0
  4 11  1  1  0  0  0
  4  3  1  0  0  0  0
  5  4  1  0  0  0  0
  5 10  1  6  0  0  0
  6  7  1  0  0  0  0
  6  5  1  0  0  0  0
  6 14  1  6  0  0  0
  7  8  1  0  0  0  0
  7 13  1  6  0  0  0
  8 15  1  1  0  0  0
  8 11  1  0  0  0  0
  9 13  1  0  0  0  0
 10  1  1  0  0  0  0
 17 15  1  6  0  0  0
 17 18  1  0  0  0  0
 18 25  1  1  0  0  0
 19 18  1  0  0  0  0
 19 26  1  1  0  0  0
 20 19  1  0  0  0  0
 20 24  1  6  0  0  0
 21 23  1  0  0  0  0
 21 20  1  0  0  0  0
 21 22  1  6  0  0  0
 23 17  1  0  0  0  0
 27 22  1  0  0  0  0
 28 29  1  0  0  0  0
 28 16  1  6  0  0  0
 29 36  1  1  0  0  0
 30 37  1  1  0  0  0
 30 29  1  0  0  0  0
 31 30  1  0  0  0  0
 31 34  1  1  0  0  0
 32 31  1  0  0  0  0
 32 33  1  0  0  0  0
 33 28  1  0  0  0  0
 33 35  1  6  0  0  0
M  END
>  <CHROM.1>
147.86262256,71.11626065,156.00670963,66.22295502,-177.36468963,-131.32703720
-177.89566662,64.97910401,-76.73013766,27.92070564,50.32666720,-67.76770030
63.13879739,65.36224197,-108.22361761,179.88836312,0.98149893,7.14320291
10.74221613,-0.69157920,0.73702784,-0.56701608

>  <Name>
lig.pdb

>  <RI>
2.86754e+07

>  <Rbt.Current_Directory>
/home/itssahil/PROJECTS/Mol_Feturizer/New_Systems/rnas/2m4q

>  <Rbt.Executable>
rbdock ($Id: //depot/dev/client3/rdock/2013.1/src/exe/rbdock.cxx#4 $)

>  <Rbt.Library>
libRbt.so (2013.1, Build901 2013/11/27)

>  <Rbt.Parameter_File>
/export/apps/rDock/src/rDock_2013.1_src/data/scripts/dock_solv.prm

>  <Rbt.Receptor>
prm/pocket_docking_5.prm

>  <SCORE>
-43.2824

>  <SCORE.INTER>
-22.7749

>  <SCORE.INTER.CONST>
1

>  <SCORE.INTER.POLAR>
-4.18112

>  <SCORE.INTER.ROT>
10

>  <SCORE.INTER.SOLV>
14.5939

>  <SCORE.INTER.VDW>
-16.3775

>  <SCORE.INTER.norm>
-0.615539

>  <SCORE.INTRA>
-20.5075

>  <SCORE.INTRA.DIHEDRAL>
-29.5196

>  <SCORE.INTRA.DIHEDRAL.0>
44.8331

>  <SCORE.INTRA.POLAR>
-1.71109

>  <SCORE.INTRA.POLAR.0>
-0.108895

>  <SCORE.INTRA.REPUL>
-0.00912235

>  <SCORE.INTRA.REPUL.0>
0.00912235

>  <SCORE.INTRA.SOLV>
-0.0338735

>  <SCORE.INTRA.SOLV.lig_0>
-53.9067

>  <SCORE.INTRA.VDW>
0.132557

>  <SCORE.INTRA.VDW.0>
-2.93492

>  <SCORE.INTRA.norm>
-0.554256

>  <SCORE.RESTR>
0

>  <SCORE.RESTR.CAVITY>
0

>  <SCORE.RESTR.norm>
0

>  <SCORE.SYSTEM>
0

>  <SCORE.SYSTEM.CONST>
0

>  <SCORE.SYSTEM.DIHEDRAL>
0

>  <SCORE.SYSTEM.SOLV>
0

>  <SCORE.SYSTEM.norm>
0

>  <SCORE.heavy>
37

>  <SCORE.norm>
-1.1698

>  <RMSD>
9.621

$$$$
lig.pdb
 OpenBabel11021811453D
libRbt.so/2013.1/901 2013/11/27
 37 40  0  0  0  0  0  0  0  0999 V2000
    2.7878    6.5484    7.8504 C   0  0  2  0  0  0  0  0  0  0  0  0
    2.2806    7.9493    7.3738 C   0  0  1  0  0  0  0  0  0  0  0  0
    1.4075    8.6813    8.4348 C   0  0  0  0  0  0  0  0  0  0  0  0
    0.3082    7.7446    8.9944 C   0  0  1  0  0  0  0  0  0  0  0  0
    0.9509    6.4590    9.5614 C   0  0  1  0  0  0  0  0  0  0  0  0
   -0.1249    5.5212   10.1721 C   0  0  1  0  0  0  0  0  0  0  0  0
   -0.9939    6.2803   11.2187 C   0  0  1  0  0  0  0  0  0  0  0  0
   -1.5620    7.6137   10.6482 C   0  0  2  0  0  0  0  0  0  0  0  0
   -1.7081    4.7287   12.9783 C   0  0  0  0  0  0  0  0  0  0  0  0
    1.7375    5.7901    8.5338 O   0  0  0  0  0  0  0  0  0  0  0  0
   -0.5209    8.4031    9.9949 O   0  0  0  0  0  0  0  0  0  0  0  0
    3.4339    8.7999    7.0077 N   0  0  0  0  0  0  0  0  0  0  0  0
   -2.0647    5.3839   11.7014 N   0  0  0  0  0  0  0  0  0  0  0  0
   -0.9329    4.9342    9.1601 O   0  0  0  0  0  0  0  0  0  0  0  0
   -2.2232    8.3763   11.6998 O   0  0  0  0  0  0  0  0  0  0  0  0
    3.9641    6.6759    8.7063 O   0  0  0  0  0  0  0  0  0  0  0  0
   -3.4753    9.0589   11.3833 C   0  0  2  0  0  0  0  0  0  0  0  0
   -3.2983   10.0126   10.1677 C   0  0  1  0  0  0  0  0  0  0  0  0
   -2.4339   11.2540   10.5308 C   0  0  2  0  0  0  0  0  0  0  0  0
   -2.9892   11.9754   11.7930 C   0  0  1  0  0  0  0  0  0  0  0  0
   -3.1834   10.9807   12.9713 C   0  0  1  0  0  0  0  0  0  0  0  0
   -3.8630   11.6559   14.1913 C   0  0  0  0  0  0  0  0  0  0  0  0
   -3.9509    9.8181   12.5347 O   0  0  0  0  0  0  0  0  0  0  0  0
   -2.1323   13.1159   12.1847 N   0  0  0  0  0  0  0  0  0  0  0  0
   -2.7645    9.3057    9.0497 O   0  0  0  0  0  0  0  0  0  0  0  0
   -2.3336   12.1521    9.4278 O   0  0  0  0  0  0  0  0  0  0  0  0
   -5.1750   12.0989   13.8601 O   0  0  0  0  0  0  0  0  0  0  0  0
    4.7030    5.4615    9.0274 C   0  0  1  0  0  0  0  0  0  0  0  0
    3.9861    4.6152   10.1164 C   0  0  1  0  0  0  0  0  0  0  0  0
    4.8370    3.3759   10.5132 C   0  0  2  0  0  0  0  0  0  0  0  0
    5.2413    2.5094    9.2765 C   0  0  1  0  0  0  0  0  0  0  0  0
    5.8407    3.3548    8.1130 C   0  0  0  0  0  0  0  0  0  0  0  0
    4.9684    4.5976    7.7618 C   0  0  2  0  0  0  0  0  0  0  0  0
    6.1679    1.4278    9.6735 N   0  0  0  0  0  0  0  0  0  0  0  0
    5.6298    5.3714    6.6889 N   0  0  0  0  0  0  0  0  0  0  0  0
    3.6859    5.4096   11.2593 O   0  0  0  0  0  0  0  0  0  0  0  0
    4.1432    2.5822   11.4726 O   0  0  0  0  0  0  0  0  0  0  0  0
  1  2  1  0  0  0  0
  1 16  1  1  0  0  0
  2  3  1  0  0  0  0
  2 12  1  1  0  0  0
  4 11  1  1  0  0  0
  4  3  1  0  0  0  0
  5  4  1  0  0  0  0
  5 10  1  6  0  0  0
  6  7  1  0  0  0  0
  6  5  1  0  0  0  0
  6 14  1  6  0  0  0
  7  8  1  0  0  0  0
  7 13  1  6  0  0  0
  8 15  1  1  0  0  0
  8 11  1  0  0  0  0
  9 13  1  0  0  0  0
 10  1  1  0  0  0  0
 17 15  1  1  0  0  0
 17 18  1  0  0  0  0
 18 25  1  6  0  0  0
 19 18  1  0  0  0  0
 19 26  1  6  0  0  0
 20 19  1  0  0  0  0
 20 24  1  1  0  0  0
 21 23  1  0  0  0  0
 21 20  1  0  0  0  0
 21 22  1  1  0  0  0
 23 17  1  0  0  0  0
 27 22  1  0  0  0  0
 28 29  1  0  0  0  0
 28 16  1  6  0  0  0
 29 36  1  1  0  0  0
 30 37  1  1  0  0  0
 30 29  1  0  0  0  0
 31 30  1  0  0  0  0
 31 34  1  1  0  0  0
 32 31  1  0  0  0  0
 32 33  1  0  0  0  0
 33 28  1  0  0  0  0
 33 35  1  6  0  0  0
M  END
>  <CHROM.1>
74.27485302,-139.41023154,96.97470509,-50.06244772,-55.42799264,-168.78073972
72.06863167,-60.75046153,63.04426965,173.84410163,-71.78123252,-77.17157974
61.14371270,60.79293318,-62.56667082,-173.63036394,0.52755781,7.31724731
10.17357492,-0.40392199,0.63965314,-0.53579747

>  <Name>
lig.pdb

>  <RI>
3.60165e+07

>  <Rbt.Current_Directory>
/home/itssahil/PROJECTS/Mol_Feturizer/New_Systems/rnas/2m4q

>  <Rbt.Executable>
rbdock ($Id: //depot/dev/client3/rdock/2013.1/src/exe/rbdock.cxx#4 $)

>  <Rbt.Library>
libRbt.so (2013.1, Build901 2013/11/27)

>  <Rbt.Parameter_File>
/export/apps/rDock/src/rDock_2013.1_src/data/scripts/dock_solv.prm

>  <Rbt.Receptor>
prm/pocket_docking_8.prm

>  <SCORE>
-50.2208

>  <SCORE.INTER>
-33.9717

>  <SCORE.INTER.CONST>
1

>  <SCORE.INTER.POLAR>
-5.71632

>  <SCORE.INTER.ROT>
10

>  <SCORE.INTER.SOLV>
16.9534

>  <SCORE.INTER.VDW>
-19.5112

>  <SCORE.INTER.norm>
-0.918154

>  <SCORE.INTRA>
-16.2491

>  <SCORE.INTRA.DIHEDRAL>
-32.5139

>  <SCORE.INTRA.DIHEDRAL.0>
44.8331

>  <SCORE.INTRA.POLAR>
-0.0185916

>  <SCORE.INTRA.POLAR.0>
-0.108895

>  <SCORE.INTRA.REPUL>
-0.00912235

>  <SCORE.INTRA.REPUL.0>
0.00912235

>  <SCORE.INTRA.SOLV>
-0.579836

>  <SCORE.INTRA.SOLV.lig_0>
-53.9067

>  <SCORE.INTRA.VDW>
0.406655

>  <SCORE.INTRA.VDW.0>
-2.93492

>  <SCORE.INTRA.norm>
-0.439164

>  <SCORE.RESTR>
0

>  <SCORE.RESTR.CAVITY>
0

>  <SCORE.RESTR.norm>
0

>  <SCORE.SYSTEM>
0

>  <SCORE.SYSTEM.CONST>
0

>  <SCORE.SYSTEM.DIHEDRAL>
0

>  <SCORE.SYSTEM.SOLV>
0

>  <SCORE.SYSTEM.norm>
0

>  <SCORE.heavy>
37

>  <SCORE.norm>
-1.35732

>  <RMSD>
9.638

$$$$
lig.pdb
 OpenBabel11021811453D
libRbt.so/2013.1/901 2013/11/27
 37 40  0  0  0  0  0  0  0  0999 V2000
    2.3856    4.3765    9.8077 C   0  0  2  0  0  0  0  0  0  0  0  0
    1.3382    4.6358    8.6752 C   0  0  1  0  0  0  0  0  0  0  0  0
    0.4075    5.8500    8.9639 C   0  0  0  0  0  0  0  0  0  0  0  0
   -0.1826    5.7725   10.3938 C   0  0  1  0  0  0  0  0  0  0  0  0
    0.9591    5.6598   11.4288 C   0  0  1  0  0  0  0  0  0  0  0  0
    0.3979    5.6275   12.8758 C   0  0  1  0  0  0  0  0  0  0  0  0
   -0.5409    6.8434   13.1346 C   0  0  1  0  0  0  0  0  0  0  0  0
   -1.6321    6.9831   12.0319 C   0  0  2  0  0  0  0  0  0  0  0  0
   -1.4859    8.0390   15.0559 C   0  0  0  0  0  0  0  0  0  0  0  0
    1.7914    4.4994   11.1407 O   0  0  0  0  0  0  0  0  0  0  0  0
   -1.0537    6.9011   10.6930 O   0  0  0  0  0  0  0  0  0  0  0  0
    2.0357    4.8402    7.3871 N   0  0  0  0  0  0  0  0  0  0  0  0
   -1.1300    6.7224   14.4842 N   0  0  0  0  0  0  0  0  0  0  0  0
   -0.2644    4.3986   13.1455 O   0  0  0  0  0  0  0  0  0  0  0  0
   -2.3804    8.2211   12.2104 O   0  0  0  0  0  0  0  0  0  0  0  0
    3.5353    5.2676    9.6775 O   0  0  0  0  0  0  0  0  0  0  0  0
   -1.7038    9.4885   11.9464 C   0  0  2  0  0  0  0  0  0  0  0  0
   -2.6672   10.6902   12.1624 C   0  0  1  0  0  0  0  0  0  0  0  0
   -3.7544   10.7632   11.0523 C   0  0  2  0  0  0  0  0  0  0  0  0
   -3.1121   10.7469    9.6349 C   0  0  1  0  0  0  0  0  0  0  0  0
   -2.1316    9.5518    9.4739 C   0  0  1  0  0  0  0  0  0  0  0  0
   -1.3811    9.5990    8.1171 C   0  0  0  0  0  0  0  0  0  0  0  0
   -1.1836    9.5182   10.5837 O   0  0  0  0  0  0  0  0  0  0  0  0
   -4.1431   10.7462    8.5740 N   0  0  0  0  0  0  0  0  0  0  0  0
   -3.2449   10.6411   13.4656 O   0  0  0  0  0  0  0  0  0  0  0  0
   -4.5905   11.9054   11.2247 O   0  0  0  0  0  0  0  0  0  0  0  0
   -1.7155    8.4725    7.3131 O   0  0  0  0  0  0  0  0  0  0  0  0
    4.8465    4.7371   10.0287 C   0  0  1  0  0  0  0  0  0  0  0  0
    5.0116    4.5642   11.5647 C   0  0  1  0  0  0  0  0  0  0  0  0
    6.4480    4.0899   11.9238 C   0  0  2  0  0  0  0  0  0  0  0  0
    6.8617    2.7986   11.1459 C   0  0  1  0  0  0  0  0  0  0  0  0
    6.5803    2.8953    9.6164 C   0  0  0  0  0  0  0  0  0  0  0  0
    5.1379    3.3940    9.3010 C   0  0  2  0  0  0  0  0  0  0  0  0
    8.2790    2.4633   11.4007 N   0  0  0  0  0  0  0  0  0  0  0  0
    4.9695    3.5073    7.8361 N   0  0  0  0  0  0  0  0  0  0  0  0
    4.6922    5.7721   12.2477 O   0  0  0  0  0  0  0  0  0  0  0  0
    6.5677    3.8849   13.3293 O   0  0  0  0  0  0  0  0  0  0  0  0
  1  2  1  0  0  0  0
  1 16  1  1  0  0  0
  2  3  1  0  0  0  0
  2 12  1  6  0  0  0
  4 11  1  1  0  0  0
  4  3  1  0  0  0  0
  5  4  1  0  0  0  0
  5 10  1  6  0  0  0
  6  7  1  0  0  0  0
  6  5  1  0  0  0  0
  6 14  1  6  0  0  0
  7  8  1  0  0  0  0
  7 13  1  1  0  0  0
  8 15  1  6  0  0  0
  8 11  1  0  0  0  0
  9 13  1  0  0  0  0
 10  1  1  0  0  0  0
 17 15  1  6  0  0  0
 17 18  1  0  0  0  0
 18 25  1  1  0  0  0
 19 18  1  0  0  0  0
 19 26  1  1  0  0  0
 20 19  1  0  0  0  0
 20 24  1  6  0  0  0
 21 23  1  0  0  0  0
 21 20  1  0  0  0  0
 21 22  1  6  0  0  0
 23 17  1  0  0  0  0
 27 22  1  0  0  0  0
 28 29  1  0  0  0  0
 28 16  1  1  0  0  0
 29 36  1  1  0  0  0
 30 37  1  1  0  0  0
 30 29  1  0  0  0  0
 31 30  1  0  0  0  0
 31 34  1  6  0  0  0
 32 31  1  0  0  0  0
 32 33  1  0  0  0  0
 33 28  1  0  0  0  0
 33 35  1  6  0  0  0
M  END
>  <CHROM.1>
-38.50982730,69.73926945,153.12579291,-58.52916978,178.84238450,-144.15770861
-53.97888053,59.57425215,-116.43311777,155.70353804,62.95855001,-72.55351013
-58.89742257,-58.51532252,51.84658434,-172.84288502,0.89666208,6.64363218
10.89831657,0.01180232,0.62966079,-1.53446838

>  <Name>
lig.pdb

>  <RI>
3.87352e+07

>  <Rbt.Current_Directory>
/home/itssahil/PROJECTS/Mol_Feturizer/New_Systems/rnas/2m4q

>  <Rbt.Executable>
rbdock ($Id: //depot/dev/client3/rdock/2013.1/src/exe/rbdock.cxx#4 $)

>  <Rbt.Library>
libRbt.so (2013.1, Build901 2013/11/27)

>  <Rbt.Parameter_File>
/export/apps/rDock/src/rDock_2013.1_src/data/scripts/dock_solv.prm

>  <Rbt.Receptor>
prm/pocket_docking_4.prm

>  <SCORE>
-36.8474

>  <SCORE.INTER>
-21.0523

>  <SCORE.INTER.CONST>
1

>  <SCORE.INTER.POLAR>
-3.24057

>  <SCORE.INTER.ROT>
10

>  <SCORE.INTER.SOLV>
15.0376

>  <SCORE.INTER.VDW>
-18.5122

>  <SCORE.INTER.norm>
-0.56898

>  <SCORE.INTRA>
-15.7952

>  <SCORE.INTRA.DIHEDRAL>
-30.092

>  <SCORE.INTRA.DIHEDRAL.0>
44.8331

>  <SCORE.INTRA.POLAR>
-0.067093

>  <SCORE.INTRA.POLAR.0>
-0.108895

>  <SCORE.INTRA.REPUL>
-0.00912235

>  <SCORE.INTRA.REPUL.0>
0.00912235

>  <SCORE.INTRA.SOLV>
-0.261038

>  <SCORE.INTRA.SOLV.lig_0>
-53.9067

>  <SCORE.INTRA.VDW>
-0.344911

>  <SCORE.INTRA.VDW.0>
-2.93492

>  <SCORE.INTRA.norm>
-0.426897

>  <SCORE.RESTR>
0

>  <SCORE.RESTR.CAVITY>
0

>  <SCORE.RESTR.norm>
0

>  <SCORE.SYSTEM>
0

>  <SCORE.SYSTEM.CONST>
0

>  <SCORE.SYSTEM.DIHEDRAL>
0

>  <SCORE.SYSTEM.SOLV>
0

>  <SCORE.SYSTEM.norm>
0

>  <SCORE.heavy>
37

>  <SCORE.norm>
-0.995877

>  <RMSD>
9.639

$$$$
lig.pdb
 OpenBabel11021811453D
libRbt.so/2013.1/901 2013/11/27
 37 40  0  0  0  0  0  0  0  0999 V2000
   -0.2470    6.6305    6.9429 C   0  0  2  0  0  0  0  0  0  0  0  0
   -0.6672    7.6723    5.8543 C   0  0  1  0  0  0  0  0  0  0  0  0
   -0.9198    9.0964    6.4305 C   0  0  0  0  0  0  0  0  0  0  0  0
   -1.8447    9.0397    7.6716 C   0  0  1  0  0  0  0  0  0  0  0  0
   -1.2475    8.0851    8.7297 C   0  0  1  0  0  0  0  0  0  0  0  0
   -2.1312    8.0449   10.0053 C   0  0  1  0  0  0  0  0  0  0  0  0
   -2.3814    9.4815   10.5532 C   0  0  1  0  0  0  0  0  0  0  0  0
   -2.9047   10.4449    9.4468 C   0  0  2  0  0  0  0  0  0  0  0  0
   -2.5934    9.1244   12.9701 C   0  0  0  0  0  0  0  0  0  0  0  0
   -1.0499    6.7585    8.1612 O   0  0  0  0  0  0  0  0  0  0  0  0
   -2.0933   10.3597    8.2351 O   0  0  0  0  0  0  0  0  0  0  0  0
    0.3689    7.7395    4.8010 N   0  0  0  0  0  0  0  0  0  0  0  0
   -3.3044    9.4074   11.7046 N   0  0  0  0  0  0  0  0  0  0  0  0
   -3.3564    7.3650    9.7636 O   0  0  0  0  0  0  0  0  0  0  0  0
   -2.9644   11.8119    9.9490 O   0  0  0  0  0  0  0  0  0  0  0  0
    1.1754    6.7383    7.2556 O   0  0  0  0  0  0  0  0  0  0  0  0
   -3.7938   12.7805    9.2364 C   0  0  2  0  0  0  0  0  0  0  0  0
   -5.0941   12.1148    8.7026 C   0  0  1  0  0  0  0  0  0  0  0  0
   -4.8007   11.1395    7.5268 C   0  0  2  0  0  0  0  0  0  0  0  0
   -3.9739   11.8394    6.4094 C   0  0  1  0  0  0  0  0  0  0  0  0
   -2.7033   12.5201    6.9907 C   0  0  1  0  0  0  0  0  0  0  0  0
   -1.9413   13.3363    5.9139 C   0  0  0  0  0  0  0  0  0  0  0  0
   -3.0547   13.3694    8.1250 O   0  0  0  0  0  0  0  0  0  0  0  0
   -3.6321   10.8986    5.3201 N   0  0  0  0  0  0  0  0  0  0  0  0
   -5.7975   11.4688    9.7621 O   0  0  0  0  0  0  0  0  0  0  0  0
   -6.0063   10.5860    7.0038 O   0  0  0  0  0  0  0  0  0  0  0  0
   -1.4509   12.4840    4.8842 O   0  0  0  0  0  0  0  0  0  0  0  0
    1.5641    6.7110    8.6599 C   0  0  1  0  0  0  0  0  0  0  0  0
    1.6933    5.2591    9.1996 C   0  0  1  0  0  0  0  0  0  0  0  0
    2.0133    5.2532   10.7210 C   0  0  2  0  0  0  0  0  0  0  0  0
    3.2689    6.1167   11.0697 C   0  0  1  0  0  0  0  0  0  0  0  0
    3.2272    7.5355   10.4271 C   0  0  0  0  0  0  0  0  0  0  0  0
    2.8828    7.4972    8.9076 C   0  0  2  0  0  0  0  0  0  0  0  0
    3.4544    6.2067   12.5338 N   0  0  0  0  0  0  0  0  0  0  0  0
    2.8120    8.8799    8.3877 N   0  0  0  0  0  0  0  0  0  0  0  0
    0.5127    4.5107    8.9282 O   0  0  0  0  0  0  0  0  0  0  0  0
    2.1813    3.9175   11.1893 O   0  0  0  0  0  0  0  0  0  0  0  0
  1  2  1  0  0  0  0
  1 16  1  1  0  0  0
  2  3  1  0  0  0  0
  2 12  1  6  0  0  0
  4 11  1  1  0  0  0
  4  3  1  0  0  0  0
  5  4  1  0  0  0  0
  5 10  1  6  0  0  0
  6  7  1  0  0  0  0
  6  5  1  0  0  0  0
  6 14  1  6  0  0  0
  7  8  1  0  0  0  0
  7 13  1  1  0  0  0
  8 15  1  1  0  0  0
  8 11  1  0  0  0  0
  9 13  1  0  0  0  0
 10  1  1  0  0  0  0
 17 15  1  6  0  0  0
 17 18  1  0  0  0  0
 18 25  1  1  0  0  0
 19 18  1  0  0  0  0
 19 26  1  6  0  0  0
 20 19  1  0  0  0  0
 20 24  1  6  0  0  0
 21 23  1  0  0  0  0
 21 20  1  0  0  0  0
 21 22  1  6  0  0  0
 23 17  1  0  0  0  0
 27 22  1  0  0  0  0
 28 29  1  0  0  0  0
 28 16  1  6  0  0  0
 29 36  1  1  0  0  0
 30 37  1  6  0  0  0
 30 29  1  0  0  0  0
 31 30  1  0  0  0  0
 31 34  1  1  0  0  0
 32 31  1  0  0  0  0
 32 33  1  0  0  0  0
 33 28  1  0  0  0  0
 33 35  1  1  0  0  0
M  END
>  <CHROM.1>
87.33464983,-161.45828638,85.01322292,-54.25828285,36.87186662,135.28432851
68.72727139,169.09156735,-63.73592678,-163.16891744,-69.49903172,83.87859044
66.47038617,43.36519681,60.34869078,59.94338983,-1.23181280,8.96946866,8.59571945
-0.48861440,0.67842849,-1.22684660

>  <Name>
lig.pdb

>  <RI>
2.86754e+07

>  <Rbt.Current_Directory>
/home/itssahil/PROJECTS/Mol_Feturizer/New_Systems/rnas/2m4q

>  <Rbt.Executable>
rbdock ($Id: //depot/dev/client3/rdock/2013.1/src/exe/rbdock.cxx#4 $)

>  <Rbt.Library>
libRbt.so (2013.1, Build901 2013/11/27)

>  <Rbt.Parameter_File>
/export/apps/rDock/src/rDock_2013.1_src/data/scripts/dock_solv.prm

>  <Rbt.Receptor>
prm/pocket_docking_5.prm

>  <SCORE>
-37.8978

>  <SCORE.INTER>
-24.4908

>  <SCORE.INTER.CONST>
1

>  <SCORE.INTER.POLAR>
-3.29384

>  <SCORE.INTER.ROT>
10

>  <SCORE.INTER.SOLV>
23.3407

>  <SCORE.INTER.VDW>
-23.3946

>  <SCORE.INTER.norm>
-0.661913

>  <SCORE.INTRA>
-13.407

>  <SCORE.INTRA.DIHEDRAL>
-26.3799

>  <SCORE.INTRA.DIHEDRAL.0>
44.8331

>  <SCORE.INTRA.POLAR>
-0.768937

>  <SCORE.INTRA.POLAR.0>
-0.108895

>  <SCORE.INTRA.REPUL>
-0.00912235

>  <SCORE.INTRA.REPUL.0>
0.00912235

>  <SCORE.INTRA.SOLV>
1.33714

>  <SCORE.INTRA.SOLV.lig_0>
-53.9067

>  <SCORE.INTRA.VDW>
1.7744

>  <SCORE.INTRA.VDW.0>
-2.93492

>  <SCORE.INTRA.norm>
-0.362351

>  <SCORE.RESTR>
0

>  <SCORE.RESTR.CAVITY>
0

>  <SCORE.RESTR.norm>
0

>  <SCORE.SYSTEM>
0

>  <SCORE.SYSTEM.CONST>
0

>  <SCORE.SYSTEM.DIHEDRAL>
0

>  <SCORE.SYSTEM.SOLV>
0

>  <SCORE.SYSTEM.norm>
0

>  <SCORE.heavy>
37

>  <SCORE.norm>
-1.02426

>  <RMSD>
9.648

$$$$
lig.pdb
 OpenBabel11021811453D
libRbt.so/2013.1/901 2013/11/27
 37 40  0  0  0  0  0  0  0  0999 V2000
    0.5509    5.0411   10.7990 C   0  0  2  0  0  0  0  0  0  0  0  0
   -0.3465    5.0661    9.5179 C   0  0  1  0  0  0  0  0  0  0  0  0
   -1.0727    6.4261    9.3018 C   0  0  0  0  0  0  0  0  0  0  0  0
   -1.7747    6.8958   10.6002 C   0  0  1  0  0  0  0  0  0  0  0  0
   -0.7520    6.9634   11.7564 C   0  0  1  0  0  0  0  0  0  0  0  0
   -1.4191    7.4768   13.0606 C   0  0  1  0  0  0  0  0  0  0  0  0
   -2.1508    8.8299   12.8148 C   0  0  1  0  0  0  0  0  0  0  0  0
   -3.1140    8.7587   11.5928 C   0  0  2  0  0  0  0  0  0  0  0  0
   -2.8487   10.6995   14.2401 C   0  0  0  0  0  0  0  0  0  0  0  0
   -0.1131    5.6677   11.9442 O   0  0  0  0  0  0  0  0  0  0  0  0
   -2.4581    8.1706   10.4276 O   0  0  0  0  0  0  0  0  0  0  0  0
    0.4721    4.7459    8.3284 N   0  0  0  0  0  0  0  0  0  0  0  0
   -2.8532    9.2328   14.0507 N   0  0  0  0  0  0  0  0  0  0  0  0
   -2.3024    6.5052   13.6060 O   0  0  0  0  0  0  0  0  0  0  0  0
   -3.6487   10.0801   11.2886 O   0  0  0  0  0  0  0  0  0  0  0  0
    1.8437    5.6730   10.5503 O   0  0  0  0  0  0  0  0  0  0  0  0
   -2.7431   11.0906   10.7475 C   0  0  2  0  0  0  0  0  0  0  0  0
   -3.4606   12.4630   10.6050 C   0  0  1  0  0  0  0  0  0  0  0  0
   -4.5130   12.4463    9.4595 C   0  0  2  0  0  0  0  0  0  0  0  0
   -3.8839   11.9485    8.1259 C   0  0  1  0  0  0  0  0  0  0  0  0
   -3.1484   10.5933    8.3208 C   0  0  1  0  0  0  0  0  0  0  0  0
   -2.4012   10.1514    7.0353 C   0  0  0  0  0  0  0  0  0  0  0  0
   -2.2253   10.6728    9.4491 O   0  0  0  0  0  0  0  0  0  0  0  0
   -4.8951   11.8642    7.0495 N   0  0  0  0  0  0  0  0  0  0  0  0
   -4.0386   12.8576   11.8479 O   0  0  0  0  0  0  0  0  0  0  0  0
   -5.1167   13.7278    9.2961 O   0  0  0  0  0  0  0  0  0  0  0  0
   -1.9258    8.8149    7.1590 O   0  0  0  0  0  0  0  0  0  0  0  0
    2.7835    4.9742    9.6829 C   0  0  1  0  0  0  0  0  0  0  0  0
    3.3631    5.9065    8.5824 C   0  0  1  0  0  0  0  0  0  0  0  0
    4.2870    5.1194    7.6108 C   0  0  2  0  0  0  0  0  0  0  0  0
    5.4130    4.3366    8.3614 C   0  0  1  0  0  0  0  0  0  0  0  0
    4.8738    3.4966    9.5579 C   0  0  0  0  0  0  0  0  0  0  0  0
    3.9362    4.3170   10.4941 C   0  0  2  0  0  0  0  0  0  0  0  0
    6.1770    3.4870    7.4231 N   0  0  0  0  0  0  0  0  0  0  0  0
    3.4284    3.4377   11.5694 N   0  0  0  0  0  0  0  0  0  0  0  0
    2.3177    6.5590    7.8690 O   0  0  0  0  0  0  0  0  0  0  0  0
    4.8523    5.9974    6.6405 O   0  0  0  0  0  0  0  0  0  0  0  0
  1  2  1  0  0  0  0
  1 16  1  6  0  0  0
  2  3  1  0  0  0  0
  2 12  1  6  0  0  0
  4 11  1  6  0  0  0
  4  3  1  0  0  0  0
  5  4  1  0  0  0  0
  5 10  1  1  0  0  0
  6  7  1  0  0  0  0
  6  5  1  0  0  0  0
  6 14  1  6  0  0  0
  7  8  1  0  0  0  0
  7 13  1  1  0  0  0
  8 15  1  6  0  0  0
  8 11  1  0  0  0  0
  9 13  1  0  0  0  0
 10  1  1  0  0  0  0
 17 15  1  6  0  0  0
 17 18  1  0  0  0  0
 18 25  1  1  0  0  0
 19 18  1  0  0  0  0
 19 26  1  6  0  0  0
 20 19  1  0  0  0  0
 20 24  1  6  0  0  0
 21 23  1  0  0  0  0
 21 20  1  0  0  0  0
 21 22  1  6  0  0  0
 23 17  1  0  0  0  0
 27 22  1  0  0  0  0
 28 29  1  0  0  0  0
 28 16  1  1  0  0  0
 29 36  1  6  0  0  0
 30 37  1  6  0  0  0
 30 29  1  0  0  0  0
 31 30  1  0  0  0  0
 31 34  1  6  0  0  0
 32 31  1  0  0  0  0
 32 33  1  0  0  0  0
 33 28  1  0  0  0  0
 33 35  1  1  0  0  0
M  END
>  <CHROM.1>
-88.46782287,69.31485839,144.93287029,-64.39286492,-175.03726228,-70.34225212
62.61909160,-163.84748952,-170.25278947,-54.02178895,60.61852476,130.77856862
75.06918787,-68.01663792,-63.82406384,-165.44877800,-0.53644641,7.87359777
10.00210556,0.15496798,-0.72967988,1.99650402

>  <Name>
lig.pdb

>  <RI>
2.86754e+07

>  <Rbt.Current_Directory>
/home/itssahil/PROJECTS/Mol_Feturizer/New_Systems/rnas/2m4q

>  <Rbt.Executable>
rbdock ($Id: //depot/dev/client3/rdock/2013.1/src/exe/rbdock.cxx#4 $)

>  <Rbt.Library>
libRbt.so (2013.1, Build901 2013/11/27)

>  <Rbt.Parameter_File>
/export/apps/rDock/src/rDock_2013.1_src/data/scripts/dock_solv.prm

>  <Rbt.Receptor>
prm/pocket_docking_5.prm

>  <SCORE>
-63.7194

>  <SCORE.INTER>
-45.3708

>  <SCORE.INTER.CONST>
1

>  <SCORE.INTER.POLAR>
-6.73631

>  <SCORE.INTER.ROT>
10

>  <SCORE.INTER.SOLV>
18.4828

>  <SCORE.INTER.VDW>
-24.2204

>  <SCORE.INTER.norm>
-1.22624

>  <SCORE.INTRA>
-18.3486

>  <SCORE.INTRA.DIHEDRAL>
-30.7166

>  <SCORE.INTRA.DIHEDRAL.0>
44.8331

>  <SCORE.INTRA.POLAR>
-0.597725

>  <SCORE.INTRA.POLAR.0>
-0.108895

>  <SCORE.INTRA.REPUL>
-0.00912235

>  <SCORE.INTRA.REPUL.0>
0.00912235

>  <SCORE.INTRA.SOLV>
0.0963135

>  <SCORE.INTRA.SOLV.lig_0>
-53.9067

>  <SCORE.INTRA.VDW>
-0.960593

>  <SCORE.INTRA.VDW.0>
-2.93492

>  <SCORE.INTRA.norm>
-0.495908

>  <SCORE.RESTR>
0

>  <SCORE.RESTR.CAVITY>
0

>  <SCORE.RESTR.norm>
0

>  <SCORE.SYSTEM>
0

>  <SCORE.SYSTEM.CONST>
0

>  <SCORE.SYSTEM.DIHEDRAL>
0

>  <SCORE.SYSTEM.SOLV>
0

>  <SCORE.SYSTEM.norm>
0

>  <SCORE.heavy>
37

>  <SCORE.norm>
-1.72214

>  <RMSD>
9.651

$$$$
lig.pdb
 OpenBabel11021811453D
libRbt.so/2013.1/901 2013/11/27
 37 40  0  0  0  0  0  0  0  0999 V2000
    1.8027    4.6721    9.8976 C   0  0  2  0  0  0  0  0  0  0  0  0
    1.5520    4.7399    8.3550 C   0  0  1  0  0  0  0  0  0  0  0  0
    0.7598    6.0059    7.9153 C   0  0  0  0  0  0  0  0  0  0  0  0
   -0.5017    6.2064    8.7913 C   0  0  1  0  0  0  0  0  0  0  0  0
   -0.1029    6.2625   10.2830 C   0  0  1  0  0  0  0  0  0  0  0  0
   -1.3439    6.5099   11.1822 C   0  0  1  0  0  0  0  0  0  0  0  0
   -2.1269    7.7723   10.7131 C   0  0  1  0  0  0  0  0  0  0  0  0
   -2.4441    7.7290    9.1888 C   0  0  2  0  0  0  0  0  0  0  0  0
   -3.0779    8.5615   12.8313 C   0  0  0  0  0  0  0  0  0  0  0  0
    0.6125    5.0516   10.6622 O   0  0  0  0  0  0  0  0  0  0  0  0
   -1.2594    7.3889    8.4048 O   0  0  0  0  0  0  0  0  0  0  0  0
    2.8437    4.6880    7.6364 N   0  0  0  0  0  0  0  0  0  0  0  0
   -3.3502    7.9151   11.5294 N   0  0  0  0  0  0  0  0  0  0  0  0
   -2.1877    5.3663   11.2240 O   0  0  0  0  0  0  0  0  0  0  0  0
   -3.0220    8.9943    8.7532 O   0  0  0  0  0  0  0  0  0  0  0  0
    2.9425    5.4992   10.2840 O   0  0  0  0  0  0  0  0  0  0  0  0
   -2.1547   10.1673    8.6782 C   0  0  2  0  0  0  0  0  0  0  0  0
   -2.6322   11.2770    9.6576 C   0  0  1  0  0  0  0  0  0  0  0  0
   -3.9614   11.9310    9.1827 C   0  0  2  0  0  0  0  0  0  0  0  0
   -3.8495   12.4264    7.7117 C   0  0  1  0  0  0  0  0  0  0  0  0
   -3.3366   11.2978    6.7742 C   0  0  1  0  0  0  0  0  0  0  0  0
   -3.0899   11.8124    5.3318 C   0  0  0  0  0  0  0  0  0  0  0  0
   -2.1231   10.6960    7.3189 O   0  0  0  0  0  0  0  0  0  0  0  0
   -5.1314   12.9868    7.2309 N   0  0  0  0  0  0  0  0  0  0  0  0
   -2.7407   10.7623   10.9835 O   0  0  0  0  0  0  0  0  0  0  0  0
   -4.3540   12.9900   10.0532 O   0  0  0  0  0  0  0  0  0  0  0  0
   -2.0089   12.7386    5.3017 O   0  0  0  0  0  0  0  0  0  0  0  0
    3.3578    5.4702   11.6807 C   0  0  1  0  0  0  0  0  0  0  0  0
    2.3732    6.2498   12.5966 C   0  0  1  0  0  0  0  0  0  0  0  0
    2.8847    6.2886   14.0642 C   0  0  2  0  0  0  0  0  0  0  0  0
    3.1953    4.8630   14.6254 C   0  0  1  0  0  0  0  0  0  0  0  0
    4.0725    4.0092   13.6614 C   0  0  0  0  0  0  0  0  0  0  0  0
    3.5368    4.0146   12.1979 C   0  0  2  0  0  0  0  0  0  0  0  0
    3.8156    4.9495   15.9648 N   0  0  0  0  0  0  0  0  0  0  0  0
    4.4499    3.2281   11.3405 N   0  0  0  0  0  0  0  0  0  0  0  0
    2.1560    7.5672   12.1016 O   0  0  0  0  0  0  0  0  0  0  0  0
    1.9461    6.9600   14.9009 O   0  0  0  0  0  0  0  0  0  0  0  0
  1  2  1  0  0  0  0
  1 16  1  6  0  0  0
  2  3  1  0  0  0  0
  2 12  1  6  0  0  0
  4 11  1  6  0  0  0
  4  3  1  0  0  0  0
  5  4  1  0  0  0  0
  5 10  1  1  0  0  0
  6  7  1  0  0  0  0
  6  5  1  0  0  0  0
  6 14  1  6  0  0  0
  7  8  1  0  0  0  0
  7 13  1  1  0  0  0
  8 15  1  6  0  0  0
  8 11  1  0  0  0  0
  9 13  1  0  0  0  0
 10  1  1  0  0  0  0
 17 15  1  6  0  0  0
 17 18  1  0  0  0  0
 18 25  1  1  0  0  0
 19 18  1  0  0  0  0
 19 26  1  1  0  0  0
 20 19  1  0  0  0  0
 20 24  1  6  0  0  0
 21 23  1  0  0  0  0
 21 20  1  0  0  0  0
 21 22  1  6  0  0  0
 23 17  1  0  0  0  0
 27 22  1  0  0  0  0
 28 29  1  0  0  0  0
 28 16  1  6  0  0  0
 29 36  1  6  0  0  0
 30 37  1  1  0  0  0
 30 29  1  0  0  0  0
 31 30  1  0  0  0  0
 31 34  1  1  0  0  0
 32 31  1  0  0  0  0
 32 33  1  0  0  0  0
 33 28  1  0  0  0  0
 33 35  1  6  0  0  0
M  END
>  <CHROM.1>
-169.52824714,71.62964787,81.66694649,-174.16379195,-117.74391253,-176.00472804
67.79394625,-167.26627842,66.79111437,-90.59110249,62.85779985,-73.85811720
174.94012488,-179.69590841,-56.44891079,21.31761306,-0.35904792,7.77101630
10.24871504,-0.44811282,0.80690197,-1.58922056

>  <Name>
lig.pdb

>  <RI>
3.87352e+07

>  <Rbt.Current_Directory>
/home/itssahil/PROJECTS/Mol_Feturizer/New_Systems/rnas/2m4q

>  <Rbt.Executable>
rbdock ($Id: //depot/dev/client3/rdock/2013.1/src/exe/rbdock.cxx#4 $)

>  <Rbt.Library>
libRbt.so (2013.1, Build901 2013/11/27)

>  <Rbt.Parameter_File>
/export/apps/rDock/src/rDock_2013.1_src/data/scripts/dock_solv.prm

>  <Rbt.Receptor>
prm/pocket_docking_4.prm

>  <SCORE>
-46.0537

>  <SCORE.INTER>
-31.1565

>  <SCORE.INTER.CONST>
1

>  <SCORE.INTER.POLAR>
-4.27338

>  <SCORE.INTER.ROT>
10

>  <SCORE.INTER.SOLV>
14.626

>  <SCORE.INTER.VDW>
-21.6684

>  <SCORE.INTER.norm>
-0.842067

>  <SCORE.INTRA>
-14.8973

>  <SCORE.INTRA.DIHEDRAL>
-29.829

>  <SCORE.INTRA.DIHEDRAL.0>
44.8331

>  <SCORE.INTRA.POLAR>
-0.0608204

>  <SCORE.INTRA.POLAR.0>
-0.108895

>  <SCORE.INTRA.REPUL>
-0.00912235

>  <SCORE.INTRA.REPUL.0>
0.00912235

>  <SCORE.INTRA.SOLV>
0.149526

>  <SCORE.INTRA.SOLV.lig_0>
-53.9067

>  <SCORE.INTRA.VDW>
0.194864

>  <SCORE.INTRA.VDW.0>
-2.93492

>  <SCORE.INTRA.norm>
-0.402628

>  <SCORE.RESTR>
0

>  <SCORE.RESTR.CAVITY>
0

>  <SCORE.RESTR.norm>
0

>  <SCORE.SYSTEM>
0

>  <SCORE.SYSTEM.CONST>
0

>  <SCORE.SYSTEM.DIHEDRAL>
0

>  <SCORE.SYSTEM.SOLV>
0

>  <SCORE.SYSTEM.norm>
0

>  <SCORE.heavy>
37

>  <SCORE.norm>
-1.2447

>  <RMSD>
9.670

$$$$
lig.pdb
 OpenBabel11021811453D
libRbt.so/2013.1/901 2013/11/27
 37 40  0  0  0  0  0  0  0  0999 V2000
   -4.4232    2.0083   14.9425 C   0  0  2  0  0  0  0  0  0  0  0  0
   -3.3458    3.1141   14.6903 C   0  0  1  0  0  0  0  0  0  0  0  0
   -1.9234    2.5387   14.4267 C   0  0  0  0  0  0  0  0  0  0  0  0
   -1.5408    1.4861   15.4965 C   0  0  1  0  0  0  0  0  0  0  0  0
   -2.6135    0.3753   15.5492 C   0  0  1  0  0  0  0  0  0  0  0  0
   -2.2316   -0.7192   16.5815 C   0  0  1  0  0  0  0  0  0  0  0  0
   -0.7999   -1.2678   16.3054 C   0  0  1  0  0  0  0  0  0  0  0  0
    0.2482   -0.1231   16.1745 C   0  0  2  0  0  0  0  0  0  0  0  0
   -0.0912   -3.5598   16.8136 C   0  0  0  0  0  0  0  0  0  0  0  0
   -3.9242    0.9493   15.8227 O   0  0  0  0  0  0  0  0  0  0  0  0
   -0.2151    0.9263   15.2702 O   0  0  0  0  0  0  0  0  0  0  0  0
   -3.7576    3.9617   13.5504 N   0  0  0  0  0  0  0  0  0  0  0  0
   -0.4374   -2.2319   17.3648 N   0  0  0  0  0  0  0  0  0  0  0  0
   -2.3504   -0.2367   17.9137 O   0  0  0  0  0  0  0  0  0  0  0  0
    1.5357   -0.6581   15.7493 O   0  0  0  0  0  0  0  0  0  0  0  0
   -4.9033    1.4424   13.6848 O   0  0  0  0  0  0  0  0  0  0  0  0
    2.5504    0.2728   15.2619 C   0  0  2  0  0  0  0  0  0  0  0  0
    2.8545    0.0275   13.7565 C   0  0  1  0  0  0  0  0  0  0  0  0
    3.6256   -1.3052   13.5346 C   0  0  2  0  0  0  0  0  0  0  0  0
    4.8964   -1.3748   14.4301 C   0  0  1  0  0  0  0  0  0  0  0  0
    4.5533   -1.0900   15.9190 C   0  0  1  0  0  0  0  0  0  0  0  0
    5.8266   -1.0209   16.8023 C   0  0  0  0  0  0  0  0  0  0  0  0
    3.7800    0.1428   16.0362 O   0  0  0  0  0  0  0  0  0  0  0  0
    5.5967   -2.6688   14.2753 N   0  0  0  0  0  0  0  0  0  0  0  0
    1.6538    0.0777   12.9882 O   0  0  0  0  0  0  0  0  0  0  0  0
    3.9554   -1.4864   12.1592 O   0  0  0  0  0  0  0  0  0  0  0  0
    6.7767   -0.1141   16.2525 O   0  0  0  0  0  0  0  0  0  0  0  0
   -6.3097    1.0692   13.6032 C   0  0  1  0  0  0  0  0  0  0  0  0
   -6.6953    0.0157   14.6790 C   0  0  1  0  0  0  0  0  0  0  0  0
   -8.1726   -0.4397   14.5130 C   0  0  2  0  0  0  0  0  0  0  0  0
   -9.1694    0.7643   14.4953 C   0  0  1  0  0  0  0  0  0  0  0  0
   -8.7332    1.8989   13.5205 C   0  0  0  0  0  0  0  0  0  0  0  0
   -7.2414    2.3101   13.7060 C   0  0  2  0  0  0  0  0  0  0  0  0
  -10.5414    0.3058   14.1896 N   0  0  0  0  0  0  0  0  0  0  0  0
   -6.8942    3.3501   12.7134 N   0  0  0  0  0  0  0  0  0  0  0  0
   -5.8135   -1.1014   14.6333 O   0  0  0  0  0  0  0  0  0  0  0  0
   -8.5265   -1.3647   15.5382 O   0  0  0  0  0  0  0  0  0  0  0  0
  1  2  1  0  0  0  0
  1 16  1  6  0  0  0
  2  3  1  0  0  0  0
  2 12  1  6  0  0  0
  4 11  1  6  0  0  0
  4  3  1  0  0  0  0
  5  4  1  0  0  0  0
  5 10  1  1  0  0  0
  6  7  1  0  0  0  0
  6  5  1  0  0  0  0
  6 14  1  1  0  0  0
  7  8  1  0  0  0  0
  7 13  1  1  0  0  0
  8 15  1  6  0  0  0
  8 11  1  0  0  0  0
  9 13  1  0  0  0  0
 10  1  1  0  0  0  0
 17 15  1  1  0  0  0
 17 18  1  0  0  0  0
 18 25  1  6  0  0  0
 19 18  1  0  0  0  0
 19 26  1  6  0  0  0
 20 19  1  0  0  0  0
 20 24  1  1  0  0  0
 21 23  1  0  0  0  0
 21 20  1  0  0  0  0
 21 22  1  1  0  0  0
 23 17  1  0  0  0  0
 27 22  1  0  0  0  0
 28 29  1  0  0  0  0
 28 16  1  1  0  0  0
 29 36  1  6  0  0  0
 30 37  1  1  0  0  0
 30 29  1  0  0  0  0
 31 30  1  0  0  0  0
 31 34  1  6  0  0  0
 32 31  1  0  0  0  0
 32 33  1  0  0  0  0
 33 28  1  0  0  0  0
 33 35  1  6  0  0  0
M  END
>  <CHROM.1>
-51.08112732,165.48038715,122.78817692,-54.01596706,-114.63707347,-144.08166920
-5.63093914,101.17306311,52.05888188,-142.36923723,71.02907402,-58.76694171
-53.58352118,-54.35045082,-174.17650694,79.45139623,-1.66230732,0.14871333
14.94957528,-2.96153519,-0.03935297,2.51989545

>  <Name>
lig.pdb

>  <RI>
0

>  <Rbt.Current_Directory>
/home/itssahil/PROJECTS/Mol_Feturizer/New_Systems/rnas/2m4q

>  <Rbt.Executable>
rbdock ($Id: //depot/dev/client3/rdock/2013.1/src/exe/rbdock.cxx#4 $)

>  <Rbt.Library>
libRbt.so (2013.1, Build901 2013/11/27)

>  <Rbt.Parameter_File>
/export/apps/rDock/src/rDock_2013.1_src/data/scripts/dock_solv.prm

>  <Rbt.Receptor>
prm/blind_docking_20.prm

>  <SCORE>
9.2722

>  <SCORE.INTER>
-3.0378

>  <SCORE.INTER.CONST>
1

>  <SCORE.INTER.POLAR>
-1.80722

>  <SCORE.INTER.ROT>
10

>  <SCORE.INTER.SOLV>
24.5277

>  <SCORE.INTER.VDW>
-14.4437

>  <SCORE.INTER.norm>
-0.0821026

>  <SCORE.INTRA>
-9.28179

>  <SCORE.INTRA.DIHEDRAL>
-13.0174

>  <SCORE.INTRA.DIHEDRAL.0>
44.8331

>  <SCORE.INTRA.POLAR>
-1.3491

>  <SCORE.INTRA.POLAR.0>
-0.108895

>  <SCORE.INTRA.REPUL>
-0.00912235

>  <SCORE.INTRA.REPUL.0>
0.00912235

>  <SCORE.INTRA.SOLV>
-0.407643

>  <SCORE.INTRA.SOLV.lig_0>
-53.9067

>  <SCORE.INTRA.VDW>
2.06328

>  <SCORE.INTRA.VDW.0>
-2.93492

>  <SCORE.INTRA.norm>
-0.250859

>  <SCORE.RESTR>
21.5918

>  <SCORE.RESTR.CAVITY>
21.5918

>  <SCORE.RESTR.norm>
0.583562

>  <SCORE.SYSTEM>
0

>  <SCORE.SYSTEM.CONST>
0

>  <SCORE.SYSTEM.DIHEDRAL>
0

>  <SCORE.SYSTEM.SOLV>
0

>  <SCORE.SYSTEM.norm>
0

>  <SCORE.heavy>
37

>  <SCORE.norm>
0.2506

>  <RMSD>
9.688

$$$$
lig.pdb
 OpenBabel11021811453D
libRbt.so/2013.1/901 2013/11/27
 37 40  0  0  0  0  0  0  0  0999 V2000
    0.8526    5.1619   10.2179 C   0  0  2  0  0  0  0  0  0  0  0  0
   -0.0778    5.0485    8.9655 C   0  0  1  0  0  0  0  0  0  0  0  0
   -0.8727    6.3540    8.6692 C   0  0  0  0  0  0  0  0  0  0  0  0
   -1.5621    6.8894    9.9486 C   0  0  1  0  0  0  0  0  0  0  0  0
   -0.5142    7.0912   11.0660 C   0  0  1  0  0  0  0  0  0  0  0  0
   -1.1708    7.6722   12.3469 C   0  0  1  0  0  0  0  0  0  0  0  0
   -1.9715    8.9683   12.0217 C   0  0  1  0  0  0  0  0  0  0  0  0
   -2.9616    8.7605   10.8374 C   0  0  2  0  0  0  0  0  0  0  0  0
   -1.7472   10.1550   14.1560 C   0  0  0  0  0  0  0  0  0  0  0  0
    0.1896    5.8437   11.3317 O   0  0  0  0  0  0  0  0  0  0  0  0
   -2.3091    8.1152    9.7009 O   0  0  0  0  0  0  0  0  0  0  0  0
    0.7239    4.6755    7.7799 N   0  0  0  0  0  0  0  0  0  0  0  0
   -2.6599    9.4324   13.2439 N   0  0  0  0  0  0  0  0  0  0  0  0
   -1.9928    6.7063   12.9895 O   0  0  0  0  0  0  0  0  0  0  0  0
   -3.5657   10.0294   10.4505 O   0  0  0  0  0  0  0  0  0  0  0  0
    2.1073    5.8306    9.8845 O   0  0  0  0  0  0  0  0  0  0  0  0
   -2.7112   11.0566    9.8600 C   0  0  2  0  0  0  0  0  0  0  0  0
   -3.5474   12.2917    9.4197 C   0  0  1  0  0  0  0  0  0  0  0  0
   -4.4331   11.9753    8.1806 C   0  0  2  0  0  0  0  0  0  0  0  0
   -3.5852   11.3721    7.0234 C   0  0  1  0  0  0  0  0  0  0  0  0
   -2.7400   10.1638    7.5143 C   0  0  1  0  0  0  0  0  0  0  0  0
   -1.7879    9.6374    6.4085 C   0  0  0  0  0  0  0  0  0  0  0  0
   -1.9862   10.5230    8.7119 O   0  0  0  0  0  0  0  0  0  0  0  0
   -4.4321   11.0046    5.8674 N   0  0  0  0  0  0  0  0  0  0  0  0
   -4.3220   12.7869   10.5103 O   0  0  0  0  0  0  0  0  0  0  0  0
   -5.1446   13.1326    7.7473 O   0  0  0  0  0  0  0  0  0  0  0  0
   -2.5271    9.1120    5.3108 O   0  0  0  0  0  0  0  0  0  0  0  0
    3.1169    5.0593    9.1705 C   0  0  1  0  0  0  0  0  0  0  0  0
    3.9077    5.9334    8.1572 C   0  0  1  0  0  0  0  0  0  0  0  0
    4.9111    5.0731    7.3386 C   0  0  2  0  0  0  0  0  0  0  0  0
    5.8646    4.2373    8.2531 C   0  0  1  0  0  0  0  0  0  0  0  0
    5.1057    3.4546    9.3663 C   0  0  0  0  0  0  0  0  0  0  0  0
    4.0959    4.3484   10.1476 C   0  0  2  0  0  0  0  0  0  0  0  0
    6.7014    3.3250    7.4447 N   0  0  0  0  0  0  0  0  0  0  0  0
    3.3830    3.5222   11.1459 N   0  0  0  0  0  0  0  0  0  0  0  0
    3.0201    6.6349    7.2925 O   0  0  0  0  0  0  0  0  0  0  0  0
    5.6654    5.8963    6.4526 O   0  0  0  0  0  0  0  0  0  0  0  0
  1  2  1  0  0  0  0
  1 16  1  6  0  0  0
  2  3  1  0  0  0  0
  2 12  1  6  0  0  0
  4 11  1  6  0  0  0
  4  3  1  0  0  0  0
  5  4  1  0  0  0  0
  5 10  1  1  0  0  0
  6  7  1  0  0  0  0
  6  5  1  0  0  0  0
  6 14  1  6  0  0  0
  7  8  1  0  0  0  0
  7 13  1  1  0  0  0
  8 15  1  6  0  0  0
  8 11  1  0  0  0  0
  9 13  1  0  0  0  0
 10  1  1  0  0  0  0
 17 15  1  6  0  0  0
 17 18  1  0  0  0  0
 18 25  1  1  0  0  0
 19 18  1  0  0  0  0
 19 26  1  6  0  0  0
 20 19  1  0  0  0  0
 20 24  1  6  0  0  0
 21 23  1  0  0  0  0
 21 20  1  0  0  0  0
 21 22  1  6  0  0  0
 23 17  1  0  0  0  0
 27 22  1  0  0  0  0
 28 29  1  0  0  0  0
 28 16  1  1  0  0  0
 29 36  1  6  0  0  0
 30 37  1  1  0  0  0
 30 29  1  0  0  0  0
 31 30  1  0  0  0  0
 31 34  1  6  0  0  0
 32 31  1  0  0  0  0
 32 33  1  0  0  0  0
 33 28  1  0  0  0  0
 33 35  1  1  0  0  0
M  END
>  <CHROM.1>
43.47057157,66.77780785,79.27263757,57.89510332,175.86048869,-76.94138656
-58.69193381,-73.28684885,-64.62465743,79.99820560,175.87054802,144.62229701
174.43662808,-69.51424092,-41.75811362,-162.54847756,-0.26135179,7.78578170
9.29413157,0.13766856,-0.68081708,1.87287310

>  <Name>
lig.pdb

>  <RI>
3.87352e+07

>  <Rbt.Current_Directory>
/home/itssahil/PROJECTS/Mol_Feturizer/New_Systems/rnas/2m4q

>  <Rbt.Executable>
rbdock ($Id: //depot/dev/client3/rdock/2013.1/src/exe/rbdock.cxx#4 $)

>  <Rbt.Library>
libRbt.so (2013.1, Build901 2013/11/27)

>  <Rbt.Parameter_File>
/export/apps/rDock/src/rDock_2013.1_src/data/scripts/dock_solv.prm

>  <Rbt.Receptor>
prm/pocket_docking_4.prm

>  <SCORE>
-50.5193

>  <SCORE.INTER>
-28.6221

>  <SCORE.INTER.CONST>
1

>  <SCORE.INTER.POLAR>
-3.52817

>  <SCORE.INTER.ROT>
10

>  <SCORE.INTER.SOLV>
19.6087

>  <SCORE.INTER.VDW>
-24.1237

>  <SCORE.INTER.norm>
-0.773569

>  <SCORE.INTRA>
-21.8995

>  <SCORE.INTRA.DIHEDRAL>
-33.811

>  <SCORE.INTRA.DIHEDRAL.0>
44.8331

>  <SCORE.INTRA.POLAR>
-1.71134

>  <SCORE.INTRA.POLAR.0>
-0.108895

>  <SCORE.INTRA.REPUL>
-0.00912235

>  <SCORE.INTRA.REPUL.0>
0.00912235

>  <SCORE.INTRA.SOLV>
0.164984

>  <SCORE.INTRA.SOLV.lig_0>
-53.9067

>  <SCORE.INTRA.VDW>
0.787718

>  <SCORE.INTRA.VDW.0>
-2.93492

>  <SCORE.INTRA.norm>
-0.591878

>  <SCORE.RESTR>
0.00226427

>  <SCORE.RESTR.CAVITY>
0.00226427

>  <SCORE.RESTR.norm>
6.11965e-05

>  <SCORE.SYSTEM>
0

>  <SCORE.SYSTEM.CONST>
0

>  <SCORE.SYSTEM.DIHEDRAL>
0

>  <SCORE.SYSTEM.SOLV>
0

>  <SCORE.SYSTEM.norm>
0

>  <SCORE.heavy>
37

>  <SCORE.norm>
-1.36539

>  <RMSD>
9.714

$$$$
lig.pdb
 OpenBabel11021811453D
libRbt.so/2013.1/901 2013/11/27
 37 40  0  0  0  0  0  0  0  0999 V2000
    1.5707    4.6145   10.1897 C   0  0  2  0  0  0  0  0  0  0  0  0
    1.1242    4.7637    8.6979 C   0  0  1  0  0  0  0  0  0  0  0  0
    0.3432    6.0811    8.4181 C   0  0  0  0  0  0  0  0  0  0  0  0
   -0.7820    6.2943    9.4610 C   0  0  1  0  0  0  0  0  0  0  0  0
   -0.1896    6.2648   10.8877 C   0  0  1  0  0  0  0  0  0  0  0  0
   -1.2892    6.5229   11.9526 C   0  0  1  0  0  0  0  0  0  0  0  0
   -2.0651    7.8376   11.6424 C   0  0  1  0  0  0  0  0  0  0  0  0
   -2.5805    7.8780   10.1731 C   0  0  2  0  0  0  0  0  0  0  0  0
   -3.5371    9.4120   12.8121 C   0  0  0  0  0  0  0  0  0  0  0  0
    0.5102    5.0085   11.1199 O   0  0  0  0  0  0  0  0  0  0  0  0
   -1.5260    7.5244    9.2260 O   0  0  0  0  0  0  0  0  0  0  0  0
    2.3070    4.6903    7.8129 N   0  0  0  0  0  0  0  0  0  0  0  0
   -3.1631    7.9944   12.6187 N   0  0  0  0  0  0  0  0  0  0  0  0
   -2.1742    5.4154   12.0601 O   0  0  0  0  0  0  0  0  0  0  0  0
   -3.1488    9.1853    9.8689 O   0  0  0  0  0  0  0  0  0  0  0  0
    2.7896    5.3739   10.4544 O   0  0  0  0  0  0  0  0  0  0  0  0
   -2.2382   10.2960    9.6022 C   0  0  2  0  0  0  0  0  0  0  0  0
   -2.9983   11.5034    8.9832 C   0  0  1  0  0  0  0  0  0  0  0  0
   -3.4532   11.2109    7.5246 C   0  0  2  0  0  0  0  0  0  0  0  0
   -2.2592   10.7315    6.6492 C   0  0  1  0  0  0  0  0  0  0  0  0
   -1.5075    9.5482    7.3202 C   0  0  1  0  0  0  0  0  0  0  0  0
   -0.2352    9.1483    6.5280 C   0  0  0  0  0  0  0  0  0  0  0  0
   -1.1692    9.8780    8.7016 O   0  0  0  0  0  0  0  0  0  0  0  0
   -2.6978   10.3853    5.2794 N   0  0  0  0  0  0  0  0  0  0  0  0
   -4.0947   11.8837    9.8125 O   0  0  0  0  0  0  0  0  0  0  0  0
   -4.0907   12.3478    6.9463 O   0  0  0  0  0  0  0  0  0  0  0  0
   -0.5797    8.4810    5.3184 O   0  0  0  0  0  0  0  0  0  0  0  0
    4.0554    4.6519   10.4331 C   0  0  1  0  0  0  0  0  0  0  0  0
    5.2213    5.5374    9.9108 C   0  0  1  0  0  0  0  0  0  0  0  0
    6.5404    4.7214    9.8045 C   0  0  2  0  0  0  0  0  0  0  0  0
    6.9091    4.0066   11.1450 C   0  0  1  0  0  0  0  0  0  0  0  0
    5.7141    3.2194   11.7615 C   0  0  0  0  0  0  0  0  0  0  0  0
    4.4078    4.0664   11.8300 C   0  0  2  0  0  0  0  0  0  0  0  0
    8.0833    3.1262   10.9651 N   0  0  0  0  0  0  0  0  0  0  0  0
    3.3139    3.2341   12.3761 N   0  0  0  0  0  0  0  0  0  0  0  0
    4.8884    6.1261    8.6577 O   0  0  0  0  0  0  0  0  0  0  0  0
    7.6109    5.5593    9.3757 O   0  0  0  0  0  0  0  0  0  0  0  0
  1  2  1  0  0  0  0
  1 16  1  6  0  0  0
  2  3  1  0  0  0  0
  2 12  1  6  0  0  0
  4 11  1  6  0  0  0
  4  3  1  0  0  0  0
  5  4  1  0  0  0  0
  5 10  1  1  0  0  0
  6  7  1  0  0  0  0
  6  5  1  0  0  0  0
  6 14  1  6  0  0  0
  7  8  1  0  0  0  0
  7 13  1  1  0  0  0
  8 15  1  6  0  0  0
  8 11  1  0  0  0  0
  9 13  1  0  0  0  0
 10  1  1  0  0  0  0
 17 15  1  6  0  0  0
 17 18  1  0  0  0  0
 18 25  1  1  0  0  0
 19 18  1  0  0  0  0
 19 26  1  6  0  0  0
 20 19  1  0  0  0  0
 20 24  1  6  0  0  0
 21 23  1  0  0  0  0
 21 20  1  0  0  0  0
 21 22  1  6  0  0  0
 23 17  1  0  0  0  0
 27 22  1  0  0  0  0
 28 29  1  0  0  0  0
 28 16  1  1  0  0  0
 29 36  1  6  0  0  0
 30 37  1  1  0  0  0
 30 29  1  0  0  0  0
 31 30  1  0  0  0  0
 31 34  1  6  0  0  0
 32 31  1  0  0  0  0
 32 33  1  0  0  0  0
 33 28  1  0  0  0  0
 33 35  1  6  0  0  0
M  END
>  <CHROM.1>
-173.77627326,77.32123708,153.82765774,-159.31003804,166.84519239,-97.88470203
-176.89300282,-177.96237969,-72.57684401,-162.47861675,-178.11638478,146.85333264
-31.68692334,-59.59586728,-168.92158381,-65.81786339,0.51420840,7.16948392
9.59812404,0.47739034,-0.44839709,2.12645372

>  <Name>
lig.pdb

>  <RI>
0

>  <Rbt.Current_Directory>
/home/itssahil/PROJECTS/Mol_Feturizer/New_Systems/rnas/2m4q

>  <Rbt.Executable>
rbdock ($Id: //depot/dev/client3/rdock/2013.1/src/exe/rbdock.cxx#4 $)

>  <Rbt.Library>
libRbt.so (2013.1, Build901 2013/11/27)

>  <Rbt.Parameter_File>
/export/apps/rDock/src/rDock_2013.1_src/data/scripts/dock_solv.prm

>  <Rbt.Receptor>
prm/pocket_docking_3.prm

>  <SCORE>
-43.7995

>  <SCORE.INTER>
-25.2343

>  <SCORE.INTER.CONST>
1

>  <SCORE.INTER.POLAR>
-3.56487

>  <SCORE.INTER.ROT>
10

>  <SCORE.INTER.SOLV>
16.4483

>  <SCORE.INTER.VDW>
-20.6894

>  <SCORE.INTER.norm>
-0.682009

>  <SCORE.INTRA>
-18.5652

>  <SCORE.INTRA.DIHEDRAL>
-25.5189

>  <SCORE.INTRA.DIHEDRAL.0>
44.8331

>  <SCORE.INTRA.POLAR>
-1.97724

>  <SCORE.INTRA.POLAR.0>
-0.108895

>  <SCORE.INTRA.REPUL>
-0.00912235

>  <SCORE.INTRA.REPUL.0>
0.00912235

>  <SCORE.INTRA.SOLV>
0.0751996

>  <SCORE.INTRA.SOLV.lig_0>
-53.9067

>  <SCORE.INTRA.VDW>
0.924809

>  <SCORE.INTRA.VDW.0>
-2.93492

>  <SCORE.INTRA.norm>
-0.501763

>  <SCORE.RESTR>
1.93001e-05

>  <SCORE.RESTR.CAVITY>
1.93001e-05

>  <SCORE.RESTR.norm>
5.21624e-07

>  <SCORE.SYSTEM>
0

>  <SCORE.SYSTEM.CONST>
0

>  <SCORE.SYSTEM.DIHEDRAL>
0

>  <SCORE.SYSTEM.SOLV>
0

>  <SCORE.SYSTEM.norm>
0

>  <SCORE.heavy>
37

>  <SCORE.norm>
-1.18377

>  <RMSD>
9.755

$$$$
lig.pdb
 OpenBabel11021811453D
libRbt.so/2013.1/901 2013/11/27
 37 40  0  0  0  0  0  0  0  0999 V2000
   -4.0803    1.0707   15.1572 C   0  0  2  0  0  0  0  0  0  0  0  0
   -2.9709    2.1706   15.0766 C   0  0  1  0  0  0  0  0  0  0  0  0
   -1.6037    1.6293   14.5651 C   0  0  0  0  0  0  0  0  0  0  0  0
   -1.1940    0.3431   15.3246 C   0  0  1  0  0  0  0  0  0  0  0  0
   -2.3143   -0.7148   15.2103 C   0  0  1  0  0  0  0  0  0  0  0  0
   -1.9104   -2.0330   15.9238 C   0  0  1  0  0  0  0  0  0  0  0  0
   -0.5336   -2.5456   15.4057 C   0  0  1  0  0  0  0  0  0  0  0  0
    0.5580   -1.4355   15.4542 C   0  0  2  0  0  0  0  0  0  0  0  0
    0.3904   -3.3941   17.5129 C   0  0  0  0  0  0  0  0  0  0  0  0
   -3.5696   -0.1807   15.7213 O   0  0  0  0  0  0  0  0  0  0  0  0
    0.0805   -0.1888   14.8613 O   0  0  0  0  0  0  0  0  0  0  0  0
   -3.4252    3.2752   14.2041 N   0  0  0  0  0  0  0  0  0  0  0  0
   -0.1404   -3.7427   16.1773 N   0  0  0  0  0  0  0  0  0  0  0  0
   -1.9026   -1.8740   17.3367 O   0  0  0  0  0  0  0  0  0  0  0  0
    1.7805   -1.8954   14.8072 O   0  0  0  0  0  0  0  0  0  0  0  0
   -4.6830    0.8320   13.8486 O   0  0  0  0  0  0  0  0  0  0  0  0
    2.6883   -0.8989   14.2445 C   0  0  2  0  0  0  0  0  0  0  0  0
    3.9428   -1.5759   13.6227 C   0  0  1  0  0  0  0  0  0  0  0  0
    4.8806   -2.1644   14.7154 C   0  0  2  0  0  0  0  0  0  0  0  0
    5.2368   -1.0930   15.7865 C   0  0  1  0  0  0  0  0  0  0  0  0
    3.9578   -0.4180   16.3558 C   0  0  1  0  0  0  0  0  0  0  0  0
    4.3003    0.7453   17.3232 C   0  0  0  0  0  0  0  0  0  0  0  0
    3.1042    0.0529   15.2691 O   0  0  0  0  0  0  0  0  0  0  0  0
    6.0719   -1.6643   16.8658 N   0  0  0  0  0  0  0  0  0  0  0  0
    3.5578   -2.5639   12.6687 O   0  0  0  0  0  0  0  0  0  0  0  0
    6.0577   -2.7240   14.1369 O   0  0  0  0  0  0  0  0  0  0  0  0
    3.2930    0.8900   18.3191 O   0  0  0  0  0  0  0  0  0  0  0  0
   -6.1038    1.1178   13.6951 C   0  0  1  0  0  0  0  0  0  0  0  0
   -6.9656    0.3651   14.7472 C   0  0  1  0  0  0  0  0  0  0  0  0
   -8.4823    0.6069   14.5057 C   0  0  2  0  0  0  0  0  0  0  0  0
   -8.8410    2.1271   14.4409 C   0  0  1  0  0  0  0  0  0  0  0  0
   -7.9027    2.9320   13.4925 C   0  0  0  0  0  0  0  0  0  0  0  0
   -6.3935    2.6446   13.7542 C   0  0  2  0  0  0  0  0  0  0  0  0
  -10.2583    2.3167   14.0651 N   0  0  0  0  0  0  0  0  0  0  0  0
   -5.5760    3.4037   12.7832 N   0  0  0  0  0  0  0  0  0  0  0  0
   -6.6684   -1.0274   14.7430 O   0  0  0  0  0  0  0  0  0  0  0  0
   -9.2564   -0.0455   15.5091 O   0  0  0  0  0  0  0  0  0  0  0  0
  1  2  1  0  0  0  0
  1 16  1  6  0  0  0
  2  3  1  0  0  0  0
  2 12  1  6  0  0  0
  4 11  1  6  0  0  0
  4  3  1  0  0  0  0
  5  4  1  0  0  0  0
  5 10  1  1  0  0  0
  6  7  1  0  0  0  0
  6  5  1  0  0  0  0
  6 14  1  1  0  0  0
  7  8  1  0  0  0  0
  7 13  1  1  0  0  0
  8 15  1  6  0  0  0
  8 11  1  0  0  0  0
  9 13  1  0  0  0  0
 10  1  1  0  0  0  0
 17 15  1  1  0  0  0
 17 18  1  0  0  0  0
 18 25  1  6  0  0  0
 19 18  1  0  0  0  0
 19 26  1  6  0  0  0
 20 19  1  0  0  0  0
 20 24  1  1  0  0  0
 21 23  1  0  0  0  0
 21 20  1  0  0  0  0
 21 22  1  1  0  0  0
 23 17  1  0  0  0  0
 27 22  1  0  0  0  0
 28 29  1  0  0  0  0
 28 16  1  1  0  0  0
 29 36  1  6  0  0  0
 30 37  1  1  0  0  0
 30 29  1  0  0  0  0
 31 30  1  0  0  0  0
 31 34  1  6  0  0  0
 32 31  1  0  0  0  0
 32 33  1  0  0  0  0
 33 28  1  0  0  0  0
 33 35  1  6  0  0  0
M  END
>  <CHROM.1>
167.14114677,154.47125507,-77.85937850,-58.50153707,178.98241774,-117.41031943
42.38395216,-168.15046090,-149.84423422,-46.11662117,-178.29459384,-54.87746525
-58.94286934,55.44292555,-60.85911085,93.35937055,-1.46051880,-0.17247462
15.08212518,-2.86652444,0.01342319,2.79998610

>  <Name>
lig.pdb

>  <RI>
0

>  <Rbt.Current_Directory>
/home/itssahil/PROJECTS/Mol_Feturizer/New_Systems/rnas/2m4q

>  <Rbt.Executable>
rbdock ($Id: //depot/dev/client3/rdock/2013.1/src/exe/rbdock.cxx#4 $)

>  <Rbt.Library>
libRbt.so (2013.1, Build901 2013/11/27)

>  <Rbt.Parameter_File>
/export/apps/rDock/src/rDock_2013.1_src/data/scripts/dock_solv.prm

>  <Rbt.Receptor>
prm/blind_docking_20.prm

>  <SCORE>
-0.743669

>  <SCORE.INTER>
-8.58882

>  <SCORE.INTER.CONST>
1

>  <SCORE.INTER.POLAR>
-2.99781

>  <SCORE.INTER.ROT>
10

>  <SCORE.INTER.SOLV>
28.4637

>  <SCORE.INTER.VDW>
-15.4878

>  <SCORE.INTER.norm>
-0.23213

>  <SCORE.INTRA>
-9.19705

>  <SCORE.INTRA.DIHEDRAL>
-27.0817

>  <SCORE.INTRA.DIHEDRAL.0>
44.8331

>  <SCORE.INTRA.POLAR>
-0.0408657

>  <SCORE.INTRA.POLAR.0>
-0.108895

>  <SCORE.INTRA.REPUL>
-0.00912235

>  <SCORE.INTRA.REPUL.0>
0.00912235

>  <SCORE.INTRA.SOLV>
-0.892446

>  <SCORE.INTRA.SOLV.lig_0>
-53.9067

>  <SCORE.INTRA.VDW>
4.97457

>  <SCORE.INTRA.VDW.0>
-2.93492

>  <SCORE.INTRA.norm>
-0.248569

>  <SCORE.RESTR>
17.0422

>  <SCORE.RESTR.CAVITY>
17.0422

>  <SCORE.RESTR.norm>
0.4606

>  <SCORE.SYSTEM>
0

>  <SCORE.SYSTEM.CONST>
0

>  <SCORE.SYSTEM.DIHEDRAL>
0

>  <SCORE.SYSTEM.SOLV>
0

>  <SCORE.SYSTEM.norm>
0

>  <SCORE.heavy>
37

>  <SCORE.norm>
-0.0200992

>  <RMSD>
9.761

$$$$
lig.pdb
 OpenBabel11021811453D
libRbt.so/2013.1/901 2013/11/27
 37 40  0  0  0  0  0  0  0  0999 V2000
    2.1349    4.8437   10.0033 C   0  0  2  0  0  0  0  0  0  0  0  0
    1.5481    4.7355    8.5572 C   0  0  1  0  0  0  0  0  0  0  0  0
    0.5286    5.8629    8.2208 C   0  0  0  0  0  0  0  0  0  0  0  0
   -0.5269    6.0134    9.3442 C   0  0  1  0  0  0  0  0  0  0  0  0
    0.1767    6.2550   10.6984 C   0  0  1  0  0  0  0  0  0  0  0  0
   -0.8598    6.4563   11.8364 C   0  0  1  0  0  0  0  0  0  0  0  0
   -1.8764    7.5783   11.4696 C   0  0  1  0  0  0  0  0  0  0  0  0
   -2.5098    7.3549   10.0642 C   0  0  2  0  0  0  0  0  0  0  0  0
   -3.4374    9.0412   12.6684 C   0  0  0  0  0  0  0  0  0  0  0  0
    1.1019    5.1681   10.9896 O   0  0  0  0  0  0  0  0  0  0  0  0
   -1.4912    7.0670    9.0575 O   0  0  0  0  0  0  0  0  0  0  0  0
    2.6488    4.7504    7.5693 N   0  0  0  0  0  0  0  0  0  0  0  0
   -2.9008    7.6700   12.5303 N   0  0  0  0  0  0  0  0  0  0  0  0
   -1.5258    5.2398   12.1495 O   0  0  0  0  0  0  0  0  0  0  0  0
   -3.3208    8.5045    9.6831 O   0  0  0  0  0  0  0  0  0  0  0  0
    3.2199    5.8193   10.0610 O   0  0  0  0  0  0  0  0  0  0  0  0
   -2.6833    9.8173    9.6214 C   0  0  2  0  0  0  0  0  0  0  0  0
   -3.6956   10.9078    9.1689 C   0  0  1  0  0  0  0  0  0  0  0  0
   -4.0743   10.7545    7.6679 C   0  0  2  0  0  0  0  0  0  0  0  0
   -2.8037   10.6958    6.7711 C   0  0  1  0  0  0  0  0  0  0  0  0
   -1.8049    9.6185    7.2785 C   0  0  1  0  0  0  0  0  0  0  0  0
   -0.4759    9.6407    6.4788 C   0  0  0  0  0  0  0  0  0  0  0  0
   -1.5484    9.7939    8.7049 O   0  0  0  0  0  0  0  0  0  0  0  0
   -3.1544   10.4806    5.3501 N   0  0  0  0  0  0  0  0  0  0  0  0
   -4.8488   10.9001   10.0083 O   0  0  0  0  0  0  0  0  0  0  0  0
   -4.9513   11.7980    7.2489 O   0  0  0  0  0  0  0  0  0  0  0  0
   -0.4265    8.5650    5.5472 O   0  0  0  0  0  0  0  0  0  0  0  0
    4.4730    5.4030   10.6778 C   0  0  1  0  0  0  0  0  0  0  0  0
    4.2416    4.6811   12.0349 C   0  0  1  0  0  0  0  0  0  0  0  0
    5.5923    4.3320   12.7212 C   0  0  2  0  0  0  0  0  0  0  0  0
    6.5442    3.5187   11.7852 C   0  0  1  0  0  0  0  0  0  0  0  0
    6.6877    4.1509   10.3683 C   0  0  0  0  0  0  0  0  0  0  0  0
    5.3125    4.5044    9.7259 C   0  0  2  0  0  0  0  0  0  0  0  0
    7.8685    3.3334   12.4160 N   0  0  0  0  0  0  0  0  0  0  0  0
    5.5373    5.1444    8.4116 N   0  0  0  0  0  0  0  0  0  0  0  0
    3.4258    5.4693   12.8955 O   0  0  0  0  0  0  0  0  0  0  0  0
    5.3644    3.6240   13.9371 O   0  0  0  0  0  0  0  0  0  0  0  0
  1  2  1  0  0  0  0
  1 16  1  6  0  0  0
  2  3  1  0  0  0  0
  2 12  1  6  0  0  0
  4 11  1  6  0  0  0
  4  3  1  0  0  0  0
  5  4  1  0  0  0  0
  5 10  1  1  0  0  0
  6  7  1  0  0  0  0
  6  5  1  0  0  0  0
  6 14  1  6  0  0  0
  7  8  1  0  0  0  0
  7 13  1  1  0  0  0
  8 15  1  6  0  0  0
  8 11  1  0  0  0  0
  9 13  1  0  0  0  0
 10  1  1  0  0  0  0
 17 15  1  6  0  0  0
 17 18  1  0  0  0  0
 18 25  1  1  0  0  0
 19 18  1  0  0  0  0
 19 26  1  6  0  0  0
 20 19  1  0  0  0  0
 20 24  1  6  0  0  0
 21 23  1  0  0  0  0
 21 20  1  0  0  0  0
 21 22  1  6  0  0  0
 23 17  1  0  0  0  0
 27 22  1  0  0  0  0
 28 29  1  0  0  0  0
 28 16  1  6  0  0  0
 29 36  1  1  0  0  0
 30 37  1  1  0  0  0
 30 29  1  0  0  0  0
 31 30  1  0  0  0  0
 31 34  1  1  0  0  0
 32 31  1  0  0  0  0
 32 33  1  0  0  0  0
 33 28  1  0  0  0  0
 33 35  1  6  0  0  0
M  END
>  <CHROM.1>
-161.41631531,58.13724313,150.14955371,63.13117884,178.75211191,-129.57488022
179.85743600,-171.60832456,-103.31506392,163.88024957,76.42934716,-46.98023527
68.42745901,65.47927013,-59.48022601,52.00501264,0.44669870,7.02720627,9.81928967
-0.45359302,0.47943572,-1.24013206

>  <Name>
lig.pdb

>  <RI>
0

>  <Rbt.Current_Directory>
/home/itssahil/PROJECTS/Mol_Feturizer/New_Systems/rnas/2m4q

>  <Rbt.Executable>
rbdock ($Id: //depot/dev/client3/rdock/2013.1/src/exe/rbdock.cxx#4 $)

>  <Rbt.Library>
libRbt.so (2013.1, Build901 2013/11/27)

>  <Rbt.Parameter_File>
/export/apps/rDock/src/rDock_2013.1_src/data/scripts/dock_solv.prm

>  <Rbt.Receptor>
prm/pocket_docking_3.prm

>  <SCORE>
-45.1554

>  <SCORE.INTER>
-23.5018

>  <SCORE.INTER.CONST>
1

>  <SCORE.INTER.POLAR>
-2.68855

>  <SCORE.INTER.ROT>
10

>  <SCORE.INTER.SOLV>
16.9838

>  <SCORE.INTER.VDW>
-22.634

>  <SCORE.INTER.norm>
-0.635183

>  <SCORE.INTRA>
-21.6536

>  <SCORE.INTRA.DIHEDRAL>
-28.0323

>  <SCORE.INTRA.DIHEDRAL.0>
44.8331

>  <SCORE.INTRA.POLAR>
-1.87273

>  <SCORE.INTRA.POLAR.0>
-0.108895

>  <SCORE.INTRA.REPUL>
-0.00912235

>  <SCORE.INTRA.REPUL.0>
0.00912235

>  <SCORE.INTRA.SOLV>
0.0296728

>  <SCORE.INTRA.SOLV.lig_0>
-53.9067

>  <SCORE.INTRA.VDW>
-1.23939

>  <SCORE.INTRA.VDW.0>
-2.93492

>  <SCORE.INTRA.norm>
-0.585232

>  <SCORE.RESTR>
0

>  <SCORE.RESTR.CAVITY>
0

>  <SCORE.RESTR.norm>
0

>  <SCORE.SYSTEM>
0

>  <SCORE.SYSTEM.CONST>
0

>  <SCORE.SYSTEM.DIHEDRAL>
0

>  <SCORE.SYSTEM.SOLV>
0

>  <SCORE.SYSTEM.norm>
0

>  <SCORE.heavy>
37

>  <SCORE.norm>
-1.22042

>  <RMSD>
9.761

$$$$
lig.pdb
 OpenBabel11021811453D
libRbt.so/2013.1/901 2013/11/27
 37 40  0  0  0  0  0  0  0  0999 V2000
    2.0773    4.5496    9.7612 C   0  0  2  0  0  0  0  0  0  0  0  0
    1.7992    4.6163    8.2233 C   0  0  1  0  0  0  0  0  0  0  0  0
    0.9446    5.8487    7.8053 C   0  0  0  0  0  0  0  0  0  0  0  0
   -0.3104    5.9870    8.7024 C   0  0  1  0  0  0  0  0  0  0  0  0
    0.1093    6.0510   10.1881 C   0  0  1  0  0  0  0  0  0  0  0  0
   -1.1269    6.2370   11.1084 C   0  0  1  0  0  0  0  0  0  0  0  0
   -1.9727    7.4663   10.6609 C   0  0  1  0  0  0  0  0  0  0  0  0
   -2.3120    7.4189    9.1414 C   0  0  2  0  0  0  0  0  0  0  0  0
   -2.9187    8.1768   12.8089 C   0  0  0  0  0  0  0  0  0  0  0  0
    0.8838    4.8707   10.5471 O   0  0  0  0  0  0  0  0  0  0  0  0
   -1.1260    7.1371    8.3365 O   0  0  0  0  0  0  0  0  0  0  0  0
    3.0802    4.6268    7.4841 N   0  0  0  0  0  0  0  0  0  0  0  0
   -3.1879    7.5491   11.4972 N   0  0  0  0  0  0  0  0  0  0  0  0
   -1.9183    5.0566   11.1551 O   0  0  0  0  0  0  0  0  0  0  0  0
   -2.9524    8.6601    8.7242 O   0  0  0  0  0  0  0  0  0  0  0  0
    3.1852    5.4241   10.1357 O   0  0  0  0  0  0  0  0  0  0  0  0
   -2.1897    9.9026    8.8152 C   0  0  2  0  0  0  0  0  0  0  0  0
   -3.0869   11.1320    8.4954 C   0  0  1  0  0  0  0  0  0  0  0  0
   -3.4644   11.1926    6.9876 C   0  0  2  0  0  0  0  0  0  0  0  0
   -2.1972   11.1150    6.0876 C   0  0  1  0  0  0  0  0  0  0  0  0
   -1.3127    9.8936    6.4634 C   0  0  1  0  0  0  0  0  0  0  0  0
    0.0197    9.8790    5.6692 C   0  0  0  0  0  0  0  0  0  0  0  0
   -1.0538    9.8755    7.9001 O   0  0  0  0  0  0  0  0  0  0  0  0
   -2.5537   11.1023    4.6519 N   0  0  0  0  0  0  0  0  0  0  0  0
   -4.2433   11.1390    9.3305 O   0  0  0  0  0  0  0  0  0  0  0  0
   -4.2319   12.3583    6.6953 O   0  0  0  0  0  0  0  0  0  0  0  0
    0.8222   11.0064    6.0041 O   0  0  0  0  0  0  0  0  0  0  0  0
    4.1213    4.9384   11.1416 C   0  0  1  0  0  0  0  0  0  0  0  0
    3.4101    4.5957   12.4806 C   0  0  1  0  0  0  0  0  0  0  0  0
    4.4373    4.1725   13.5683 C   0  0  2  0  0  0  0  0  0  0  0  0
    5.3673    3.0104   13.0902 C   0  0  1  0  0  0  0  0  0  0  0  0
    5.9890    3.2696   11.6852 C   0  0  0  0  0  0  0  0  0  0  0  0
    4.9292    3.7115   10.6313 C   0  0  2  0  0  0  0  0  0  0  0  0
    6.4214    2.7361   14.0901 N   0  0  0  0  0  0  0  0  0  0  0  0
    5.6048    3.9866    9.3448 N   0  0  0  0  0  0  0  0  0  0  0  0
    2.6205    5.6921   12.9300 O   0  0  0  0  0  0  0  0  0  0  0  0
    3.7664    3.8105   14.7726 O   0  0  0  0  0  0  0  0  0  0  0  0
  1  2  1  0  0  0  0
  1 16  1  6  0  0  0
  2  3  1  0  0  0  0
  2 12  1  6  0  0  0
  4 11  1  6  0  0  0
  4  3  1  0  0  0  0
  5  4  1  0  0  0  0
  5 10  1  1  0  0  0
  6  7  1  0  0  0  0
  6  5  1  0  0  0  0
  6 14  1  6  0  0  0
  7  8  1  0  0  0  0
  7 13  1  1  0  0  0
  8 15  1  6  0  0  0
  8 11  1  0  0  0  0
  9 13  1  0  0  0  0
 10  1  1  0  0  0  0
 17 15  1  6  0  0  0
 17 18  1  0  0  0  0
 18 25  1  1  0  0  0
 19 18  1  0  0  0  0
 19 26  1  1  0  0  0
 20 19  1  0  0  0  0
 20 24  1  6  0  0  0
 21 23  1  0  0  0  0
 21 20  1  0  0  0  0
 21 22  1  6  0  0  0
 23 17  1  0  0  0  0
 27 22  1  0  0  0  0
 28 29  1  0  0  0  0
 28 16  1  6  0  0  0
 29 36  1  1  0  0  0
 30 37  1  1  0  0  0
 30 29  1  0  0  0  0
 31 30  1  0  0  0  0
 31 34  1  1  0  0  0
 32 31  1  0  0  0  0
 32 33  1  0  0  0  0
 33 28  1  0  0  0  0
 33 35  1  6  0  0  0
M  END
>  <CHROM.1>
-162.29275805,63.54381798,80.65995278,40.73831253,-173.04595484,-140.71228872
64.71824645,-57.83493264,64.20484082,98.05469879,-67.78778323,-58.24707438
179.73807302,-171.47290287,72.43029083,56.93674983,0.45154436,7.01267615
9.65531012,-0.72838992,0.49527940,-1.10785439

>  <Name>
lig.pdb

>  <RI>
3.87352e+07

>  <Rbt.Current_Directory>
/home/itssahil/PROJECTS/Mol_Feturizer/New_Systems/rnas/2m4q

>  <Rbt.Executable>
rbdock ($Id: //depot/dev/client3/rdock/2013.1/src/exe/rbdock.cxx#4 $)

>  <Rbt.Library>
libRbt.so (2013.1, Build901 2013/11/27)

>  <Rbt.Parameter_File>
/export/apps/rDock/src/rDock_2013.1_src/data/scripts/dock_solv.prm

>  <Rbt.Receptor>
prm/pocket_docking_4.prm

>  <SCORE>
-47.9125

>  <SCORE.INTER>
-27.5298

>  <SCORE.INTER.CONST>
1

>  <SCORE.INTER.POLAR>
-3.66955

>  <SCORE.INTER.ROT>
10

>  <SCORE.INTER.SOLV>
16.0678

>  <SCORE.INTER.VDW>
-21.7439

>  <SCORE.INTER.norm>
-0.744048

>  <SCORE.INTRA>
-20.6049

>  <SCORE.INTRA.DIHEDRAL>
-33.0101

>  <SCORE.INTRA.DIHEDRAL.0>
44.8331

>  <SCORE.INTRA.POLAR>
-1.03355

>  <SCORE.INTRA.POLAR.0>
-0.108895

>  <SCORE.INTRA.REPUL>
-0.00912235

>  <SCORE.INTRA.REPUL.0>
0.00912235

>  <SCORE.INTRA.SOLV>
-0.215073

>  <SCORE.INTRA.SOLV.lig_0>
-53.9067

>  <SCORE.INTRA.VDW>
-0.432689

>  <SCORE.INTRA.VDW.0>
-2.93492

>  <SCORE.INTRA.norm>
-0.55689

>  <SCORE.RESTR>
0.222205

>  <SCORE.RESTR.CAVITY>
0.222205

>  <SCORE.RESTR.norm>
0.00600553

>  <SCORE.SYSTEM>
0

>  <SCORE.SYSTEM.CONST>
0

>  <SCORE.SYSTEM.DIHEDRAL>
0

>  <SCORE.SYSTEM.SOLV>
0

>  <SCORE.SYSTEM.norm>
0

>  <SCORE.heavy>
37

>  <SCORE.norm>
-1.29493

>  <RMSD>
9.763

$$$$
lig.pdb
 OpenBabel11021811453D
libRbt.so/2013.1/901 2013/11/27
 37 40  0  0  0  0  0  0  0  0999 V2000
   -4.2130    1.3109   15.4083 C   0  0  2  0  0  0  0  0  0  0  0  0
   -3.0311    2.3105   15.6345 C   0  0  1  0  0  0  0  0  0  0  0  0
   -1.6671    1.7813   15.1026 C   0  0  0  0  0  0  0  0  0  0  0  0
   -1.4017    0.3353   15.5902 C   0  0  1  0  0  0  0  0  0  0  0  0
   -2.5767   -0.5815   15.1825 C   0  0  1  0  0  0  0  0  0  0  0  0
   -2.3155   -2.0484   15.6181 C   0  0  1  0  0  0  0  0  0  0  0  0
   -0.9395   -2.5491   15.0865 C   0  0  1  0  0  0  0  0  0  0  0  0
    0.2153   -1.5653   15.4397 C   0  0  2  0  0  0  0  0  0  0  0  0
   -0.2208   -3.8926   17.0080 C   0  0  0  0  0  0  0  0  0  0  0  0
   -3.8298   -0.0681   15.7192 O   0  0  0  0  0  0  0  0  0  0  0  0
   -0.1329   -0.1875   15.1016 O   0  0  0  0  0  0  0  0  0  0  0  0
   -3.3442    3.6069   14.9949 N   0  0  0  0  0  0  0  0  0  0  0  0
   -0.6856   -3.9094   15.6042 N   0  0  0  0  0  0  0  0  0  0  0  0
   -2.4056   -2.1917   17.0298 O   0  0  0  0  0  0  0  0  0  0  0  0
    1.4511   -1.9750   14.7844 O   0  0  0  0  0  0  0  0  0  0  0  0
   -4.7279    1.4022   14.0448 O   0  0  0  0  0  0  0  0  0  0  0  0
    2.1974   -0.9794   14.0191 C   0  0  2  0  0  0  0  0  0  0  0  0
    3.6610   -1.4456   13.7759 C   0  0  1  0  0  0  0  0  0  0  0  0
    4.4992   -1.4184   15.0861 C   0  0  2  0  0  0  0  0  0  0  0  0
    4.4120   -0.0281   15.7800 C   0  0  1  0  0  0  0  0  0  0  0  0
    2.9346    0.4145   15.9720 C   0  0  1  0  0  0  0  0  0  0  0  0
    2.8320    1.8555   16.5371 C   0  0  0  0  0  0  0  0  0  0  0  0
    2.2024    0.3035   14.7139 O   0  0  0  0  0  0  0  0  0  0  0  0
    5.1503   -0.0164   17.0619 N   0  0  0  0  0  0  0  0  0  0  0  0
    3.6813   -2.7331   13.1623 O   0  0  0  0  0  0  0  0  0  0  0  0
    5.8547   -1.7849   14.8380 O   0  0  0  0  0  0  0  0  0  0  0  0
    1.4710    2.2487   16.6798 O   0  0  0  0  0  0  0  0  0  0  0  0
   -6.1585    1.6223   13.8745 C   0  0  1  0  0  0  0  0  0  0  0  0
   -6.9134    0.3058   13.5378 C   0  0  1  0  0  0  0  0  0  0  0  0
   -8.4197    0.5778   13.2652 C   0  0  2  0  0  0  0  0  0  0  0  0
   -9.1056    1.3587   14.4330 C   0  0  1  0  0  0  0  0  0  0  0  0
   -8.2970    2.6127   14.8817 C   0  0  0  0  0  0  0  0  0  0  0  0
   -6.7893    2.3007   15.1236 C   0  0  2  0  0  0  0  0  0  0  0  0
  -10.4924    1.7263   14.0757 N   0  0  0  0  0  0  0  0  0  0  0  0
   -6.0856    3.5477   15.4940 N   0  0  0  0  0  0  0  0  0  0  0  0
   -6.3103   -0.3551   12.4302 O   0  0  0  0  0  0  0  0  0  0  0  0
   -9.1081   -0.6441   13.0108 O   0  0  0  0  0  0  0  0  0  0  0  0
  1  2  1  0  0  0  0
  1 16  1  6  0  0  0
  2  3  1  0  0  0  0
  2 12  1  6  0  0  0
  4 11  1  6  0  0  0
  4  3  1  0  0  0  0
  5  4  1  0  0  0  0
  5 10  1  1  0  0  0
  6  7  1  0  0  0  0
  6  5  1  0  0  0  0
  6 14  1  1  0  0  0
  7  8  1  0  0  0  0
  7 13  1  1  0  0  0
  8 15  1  6  0  0  0
  8 11  1  0  0  0  0
  9 13  1  0  0  0  0
 10  1  1  0  0  0  0
 17 15  1  1  0  0  0
 17 18  1  0  0  0  0
 18 25  1  1  0  0  0
 19 18  1  0  0  0  0
 19 26  1  6  0  0  0
 20 19  1  0  0  0  0
 20 24  1  1  0  0  0
 21 23  1  0  0  0  0
 21 20  1  0  0  0  0
 21 22  1  6  0  0  0
 23 17  1  0  0  0  0
 27 22  1  0  0  0  0
 28 29  1  0  0  0  0
 28 16  1  1  0  0  0
 29 36  1  6  0  0  0
 30 37  1  1  0  0  0
 30 29  1  0  0  0  0
 31 30  1  0  0  0  0
 31 34  1  6  0  0  0
 32 31  1  0  0  0  0
 32 33  1  0  0  0  0
 33 28  1  0  0  0  0
 33 35  1  6  0  0  0
M  END
>  <CHROM.1>
140.82753563,129.50699592,-78.57337129,-55.01799770,162.27294544,-126.75366938
-89.33355551,41.78916615,178.85382250,-59.93656344,-57.77965801,-100.28678109
174.16569173,-169.99246504,-95.15880658,-115.59485432,-1.83746436,0.02025300
15.00213591,-2.95513395,0.14066922,-2.95702715

>  <Name>
lig.pdb

>  <RI>
0

>  <Rbt.Current_Directory>
/home/itssahil/PROJECTS/Mol_Feturizer/New_Systems/rnas/2m4q

>  <Rbt.Executable>
rbdock ($Id: //depot/dev/client3/rdock/2013.1/src/exe/rbdock.cxx#4 $)

>  <Rbt.Library>
libRbt.so (2013.1, Build901 2013/11/27)

>  <Rbt.Parameter_File>
/export/apps/rDock/src/rDock_2013.1_src/data/scripts/dock_solv.prm

>  <Rbt.Receptor>
prm/blind_docking_20.prm

>  <SCORE>
5.0526

>  <SCORE.INTER>
-12.8532

>  <SCORE.INTER.CONST>
1

>  <SCORE.INTER.POLAR>
-3.89792

>  <SCORE.INTER.ROT>
10

>  <SCORE.INTER.SOLV>
24.2661

>  <SCORE.INTER.VDW>
-13.9311

>  <SCORE.INTER.norm>
-0.347385

>  <SCORE.INTRA>
-2.85911

>  <SCORE.INTRA.DIHEDRAL>
-12.4829

>  <SCORE.INTRA.DIHEDRAL.0>
44.8331

>  <SCORE.INTRA.POLAR>
-0.914601

>  <SCORE.INTRA.POLAR.0>
-0.108895

>  <SCORE.INTRA.REPUL>
-0.00912235

>  <SCORE.INTRA.REPUL.0>
0.00912235

>  <SCORE.INTRA.SOLV>
-0.0244531

>  <SCORE.INTRA.SOLV.lig_0>
-53.9067

>  <SCORE.INTRA.VDW>
6.54981

>  <SCORE.INTRA.VDW.0>
-2.93492

>  <SCORE.INTRA.norm>
-0.0772732

>  <SCORE.RESTR>
20.7649

>  <SCORE.RESTR.CAVITY>
20.7649

>  <SCORE.RESTR.norm>
0.561215

>  <SCORE.SYSTEM>
0

>  <SCORE.SYSTEM.CONST>
0

>  <SCORE.SYSTEM.DIHEDRAL>
0

>  <SCORE.SYSTEM.SOLV>
0

>  <SCORE.SYSTEM.norm>
0

>  <SCORE.heavy>
37

>  <SCORE.norm>
0.136557

>  <RMSD>
9.765

$$$$
lig.pdb
 OpenBabel11021811453D
libRbt.so/2013.1/901 2013/11/27
 37 40  0  0  0  0  0  0  0  0999 V2000
    3.0271    6.0568    8.0249 C   0  0  2  0  0  0  0  0  0  0  0  0
    2.7162    7.4203    7.3241 C   0  0  1  0  0  0  0  0  0  0  0  0
    1.8345    8.3692    8.1878 C   0  0  0  0  0  0  0  0  0  0  0  0
    0.5965    7.6250    8.7466 C   0  0  1  0  0  0  0  0  0  0  0  0
    1.0458    6.3750    9.5358 C   0  0  1  0  0  0  0  0  0  0  0  0
   -0.1737    5.6345   10.1475 C   0  0  1  0  0  0  0  0  0  0  0  0
   -1.0471    6.6078   10.9940 C   0  0  1  0  0  0  0  0  0  0  0  0
   -1.4171    7.8975   10.2029 C   0  0  2  0  0  0  0  0  0  0  0  0
   -1.9456    5.0174   12.6303 C   0  0  0  0  0  0  0  0  0  0  0  0
    1.8454    5.5009    8.6881 O   0  0  0  0  0  0  0  0  0  0  0  0
   -0.2439    8.4891    9.5645 O   0  0  0  0  0  0  0  0  0  0  0  0
    3.9813    8.1011    6.9727 N   0  0  0  0  0  0  0  0  0  0  0  0
   -2.2458    5.8901   11.4747 N   0  0  0  0  0  0  0  0  0  0  0  0
   -0.9459    4.9922    9.1412 O   0  0  0  0  0  0  0  0  0  0  0  0
   -2.0847    8.8556   11.0752 O   0  0  0  0  0  0  0  0  0  0  0  0
    4.1292    6.1901    8.9737 O   0  0  0  0  0  0  0  0  0  0  0  0
   -1.6428   10.2476   11.0489 C   0  0  2  0  0  0  0  0  0  0  0  0
   -2.5149   11.1271   11.9894 C   0  0  1  0  0  0  0  0  0  0  0  0
   -3.9522   11.3214   11.4270 C   0  0  2  0  0  0  0  0  0  0  0  0
   -3.9161   11.8486    9.9632 C   0  0  1  0  0  0  0  0  0  0  0  0
   -3.0072   10.9620    9.0669 C   0  0  1  0  0  0  0  0  0  0  0  0
   -2.8519   11.5508    7.6402 C   0  0  0  0  0  0  0  0  0  0  0  0
   -1.7003   10.7786    9.6913 O   0  0  0  0  0  0  0  0  0  0  0  0
   -5.2781   11.9697    9.3985 N   0  0  0  0  0  0  0  0  0  0  0  0
   -2.5324   10.5850   13.3086 O   0  0  0  0  0  0  0  0  0  0  0  0
   -4.7209   12.1823   12.2646 O   0  0  0  0  0  0  0  0  0  0  0  0
   -4.0800   11.4746    6.9237 O   0  0  0  0  0  0  0  0  0  0  0  0
    4.8125    4.9732    9.3934 C   0  0  1  0  0  0  0  0  0  0  0  0
    3.9345    4.1113   10.3433 C   0  0  1  0  0  0  0  0  0  0  0  0
    4.7163    2.8688   10.8554 C   0  0  2  0  0  0  0  0  0  0  0  0
    5.3167    2.0193    9.6885 C   0  0  1  0  0  0  0  0  0  0  0  0
    6.0906    2.8812    8.6463 C   0  0  0  0  0  0  0  0  0  0  0  0
    5.2803    4.1265    8.1758 C   0  0  2  0  0  0  0  0  0  0  0  0
    6.1726    0.9347   10.2148 N   0  0  0  0  0  0  0  0  0  0  0  0
    6.1013    4.9157    7.2322 N   0  0  0  0  0  0  0  0  0  0  0  0
    3.4522    4.8901   11.4334 O   0  0  0  0  0  0  0  0  0  0  0  0
    3.8816    2.0612   11.6816 O   0  0  0  0  0  0  0  0  0  0  0  0
  1  2  1  0  0  0  0
  1 16  1  1  0  0  0
  2  3  1  0  0  0  0
  2 12  1  1  0  0  0
  4 11  1  1  0  0  0
  4  3  1  0  0  0  0
  5  4  1  0  0  0  0
  5 10  1  6  0  0  0
  6  7  1  0  0  0  0
  6  5  1  0  0  0  0
  6 14  1  6  0  0  0
  7  8  1  0  0  0  0
  7 13  1  6  0  0  0
  8 15  1  1  0  0  0
  8 11  1  0  0  0  0
  9 13  1  0  0  0  0
 10  1  1  0  0  0  0
 17 15  1  6  0  0  0
 17 18  1  0  0  0  0
 18 25  1  1  0  0  0
 19 18  1  0  0  0  0
 19 26  1  1  0  0  0
 20 19  1  0  0  0  0
 20 24  1  6  0  0  0
 21 23  1  0  0  0  0
 21 20  1  0  0  0  0
 21 22  1  6  0  0  0
 23 17  1  0  0  0  0
 27 22  1  0  0  0  0
 28 29  1  0  0  0  0
 28 16  1  6  0  0  0
 29 36  1  1  0  0  0
 30 37  1  6  0  0  0
 30 29  1  0  0  0  0
 31 30  1  0  0  0  0
 31 34  1  1  0  0  0
 32 31  1  0  0  0  0
 32 33  1  0  0  0  0
 33 28  1  0  0  0  0
 33 35  1  6  0  0  0
M  END
>  <CHROM.1>
77.84118375,132.82035058,78.04423026,-55.31120392,177.21044809,-161.31320677
57.04636031,61.73564180,-68.60421440,-50.12813184,-173.13171076,-71.99411651
169.79826480,-65.99792086,-56.17611696,-54.02180603,0.57657795,7.23087492
9.80224596,-0.41951909,0.61881560,-0.79505117

>  <Name>
lig.pdb

>  <RI>
2.86754e+07

>  <Rbt.Current_Directory>
/home/itssahil/PROJECTS/Mol_Feturizer/New_Systems/rnas/2m4q

>  <Rbt.Executable>
rbdock ($Id: //depot/dev/client3/rdock/2013.1/src/exe/rbdock.cxx#4 $)

>  <Rbt.Library>
libRbt.so (2013.1, Build901 2013/11/27)

>  <Rbt.Parameter_File>
/export/apps/rDock/src/rDock_2013.1_src/data/scripts/dock_solv.prm

>  <Rbt.Receptor>
prm/pocket_docking_5.prm

>  <SCORE>
-40.1982

>  <SCORE.INTER>
-23.227

>  <SCORE.INTER.CONST>
1

>  <SCORE.INTER.POLAR>
-3.74674

>  <SCORE.INTER.ROT>
10

>  <SCORE.INTER.SOLV>
18.2849

>  <SCORE.INTER.VDW>
-19.3571

>  <SCORE.INTER.norm>
-0.627757

>  <SCORE.INTRA>
-16.9712

>  <SCORE.INTRA.DIHEDRAL>
-32.8211

>  <SCORE.INTRA.DIHEDRAL.0>
44.8331

>  <SCORE.INTRA.POLAR>
-0.0494935

>  <SCORE.INTRA.POLAR.0>
-0.108895

>  <SCORE.INTRA.REPUL>
-0.00912235

>  <SCORE.INTRA.REPUL.0>
0.00912235

>  <SCORE.INTRA.SOLV>
-0.751843

>  <SCORE.INTRA.SOLV.lig_0>
-53.9067

>  <SCORE.INTRA.VDW>
0.0291691

>  <SCORE.INTRA.VDW.0>
-2.93492

>  <SCORE.INTRA.norm>
-0.458681

>  <SCORE.RESTR>
0

>  <SCORE.RESTR.CAVITY>
0

>  <SCORE.RESTR.norm>
0

>  <SCORE.SYSTEM>
0

>  <SCORE.SYSTEM.CONST>
0

>  <SCORE.SYSTEM.DIHEDRAL>
0

>  <SCORE.SYSTEM.SOLV>
0

>  <SCORE.SYSTEM.norm>
0

>  <SCORE.heavy>
37

>  <SCORE.norm>
-1.08644

>  <RMSD>
9.778

$$$$
lig.pdb
 OpenBabel11021811453D
libRbt.so/2013.1/901 2013/11/27
 37 40  0  0  0  0  0  0  0  0999 V2000
    1.6241    4.7192    9.9770 C   0  0  2  0  0  0  0  0  0  0  0  0
    1.0840    4.7211    8.5089 C   0  0  1  0  0  0  0  0  0  0  0  0
    0.2210    5.9724    8.1722 C   0  0  0  0  0  0  0  0  0  0  0  0
   -0.8507    6.2201    9.2627 C   0  0  1  0  0  0  0  0  0  0  0  0
   -0.1751    6.3388   10.6472 C   0  0  1  0  0  0  0  0  0  0  0  0
   -1.2223    6.6343   11.7543 C   0  0  1  0  0  0  0  0  0  0  0  0
   -2.0819    7.8806   11.3873 C   0  0  1  0  0  0  0  0  0  0  0  0
   -2.6838    7.7728    9.9547 C   0  0  2  0  0  0  0  0  0  0  0  0
   -3.5225    9.4862   12.5538 C   0  0  0  0  0  0  0  0  0  0  0  0
    0.6010    5.1405   10.9366 O   0  0  0  0  0  0  0  0  0  0  0  0
   -1.6698    7.3900    8.9754 O   0  0  0  0  0  0  0  0  0  0  0  0
    2.2151    4.6284    7.5604 N   0  0  0  0  0  0  0  0  0  0  0  0
   -3.1275    8.0679   12.4144 N   0  0  0  0  0  0  0  0  0  0  0  0
   -2.0412    5.4998   12.0068 O   0  0  0  0  0  0  0  0  0  0  0  0
   -3.3357    9.0219    9.5814 O   0  0  0  0  0  0  0  0  0  0  0  0
    2.8156    5.5542   10.1021 O   0  0  0  0  0  0  0  0  0  0  0  0
   -2.5054   10.2049    9.3694 C   0  0  2  0  0  0  0  0  0  0  0  0
   -3.3406   11.3718    8.7699 C   0  0  1  0  0  0  0  0  0  0  0  0
   -3.7421   11.0931    7.2931 C   0  0  2  0  0  0  0  0  0  0  0  0
   -2.4976   10.7317    6.4313 C   0  0  1  0  0  0  0  0  0  0  0  0
   -1.6736    9.5866    7.0833 C   0  0  1  0  0  0  0  0  0  0  0  0
   -0.3588    9.3076    6.3089 C   0  0  0  0  0  0  0  0  0  0  0  0
   -1.3897    9.8962    8.4815 O   0  0  0  0  0  0  0  0  0  0  0  0
   -2.8807   10.3979    5.0419 N   0  0  0  0  0  0  0  0  0  0  0  0
   -4.4794   11.6432    9.5849 O   0  0  0  0  0  0  0  0  0  0  0  0
   -4.4507   12.1975    6.7349 O   0  0  0  0  0  0  0  0  0  0  0  0
   -0.4169    8.0476    5.6483 O   0  0  0  0  0  0  0  0  0  0  0  0
    4.0304    4.9293   10.6099 C   0  0  1  0  0  0  0  0  0  0  0  0
    5.2995    5.4401    9.8719 C   0  0  1  0  0  0  0  0  0  0  0  0
    6.5714    4.6915   10.3609 C   0  0  2  0  0  0  0  0  0  0  0  0
    6.7385    4.7516   11.9141 C   0  0  1  0  0  0  0  0  0  0  0  0
    5.4355    4.3728   12.6797 C   0  0  0  0  0  0  0  0  0  0  0  0
    4.1824    5.1293   12.1446 C   0  0  2  0  0  0  0  0  0  0  0  0
    7.8715    3.9092   12.3533 N   0  0  0  0  0  0  0  0  0  0  0  0
    2.9851    4.6769   12.8856 N   0  0  0  0  0  0  0  0  0  0  0  0
    5.1501    5.3153    8.4614 O   0  0  0  0  0  0  0  0  0  0  0  0
    7.7322    5.2075    9.7144 O   0  0  0  0  0  0  0  0  0  0  0  0
  1  2  1  0  0  0  0
  1 16  1  6  0  0  0
  2  3  1  0  0  0  0
  2 12  1  6  0  0  0
  4 11  1  6  0  0  0
  4  3  1  0  0  0  0
  5  4  1  0  0  0  0
  5 10  1  1  0  0  0
  6  7  1  0  0  0  0
  6  5  1  0  0  0  0
  6 14  1  6  0  0  0
  7  8  1  0  0  0  0
  7 13  1  1  0  0  0
  8 15  1  6  0  0  0
  8 11  1  0  0  0  0
  9 13  1  0  0  0  0
 10  1  1  0  0  0  0
 17 15  1  6  0  0  0
 17 18  1  0  0  0  0
 18 25  1  1  0  0  0
 19 18  1  0  0  0  0
 19 26  1  6  0  0  0
 20 19  1  0  0  0  0
 20 24  1  6  0  0  0
 21 23  1  0  0  0  0
 21 20  1  0  0  0  0
 21 22  1  6  0  0  0
 23 17  1  0  0  0  0
 27 22  1  0  0  0  0
 28 29  1  0  0  0  0
 28 16  1  6  0  0  0
 29 36  1  6  0  0  0
 30 37  1  6  0  0  0
 30 29  1  0  0  0  0
 31 30  1  0  0  0  0
 31 34  1  1  0  0  0
 32 31  1  0  0  0  0
 32 33  1  0  0  0  0
 33 28  1  0  0  0  0
 33 35  1  1  0  0  0
M  END
>  <CHROM.1>
-37.75301538,67.98437431,151.47358674,-158.57861405,171.25282635,-122.80747129
-54.05321130,-59.35076870,-110.45769079,-168.30951117,75.01292108,141.15105403
-64.60984871,-58.79601149,173.89582369,68.24675798,0.41972065,7.25275640
9.57976339,0.44518252,-0.44140255,1.96839465

>  <Name>
lig.pdb

>  <RI>
0

>  <Rbt.Current_Directory>
/home/itssahil/PROJECTS/Mol_Feturizer/New_Systems/rnas/2m4q

>  <Rbt.Executable>
rbdock ($Id: //depot/dev/client3/rdock/2013.1/src/exe/rbdock.cxx#4 $)

>  <Rbt.Library>
libRbt.so (2013.1, Build901 2013/11/27)

>  <Rbt.Parameter_File>
/export/apps/rDock/src/rDock_2013.1_src/data/scripts/dock_solv.prm

>  <Rbt.Receptor>
prm/pocket_docking_3.prm

>  <SCORE>
-46.0652

>  <SCORE.INTER>
-29.849

>  <SCORE.INTER.CONST>
1

>  <SCORE.INTER.POLAR>
-3.87076

>  <SCORE.INTER.ROT>
10

>  <SCORE.INTER.SOLV>
16.9978

>  <SCORE.INTER.VDW>
-22.9294

>  <SCORE.INTER.norm>
-0.80673

>  <SCORE.INTRA>
-16.3219

>  <SCORE.INTRA.DIHEDRAL>
-20.9036

>  <SCORE.INTRA.DIHEDRAL.0>
44.8331

>  <SCORE.INTRA.POLAR>
-1.73271

>  <SCORE.INTRA.POLAR.0>
-0.108895

>  <SCORE.INTRA.REPUL>
0.0148267

>  <SCORE.INTRA.REPUL.0>
0.00912235

>  <SCORE.INTRA.SOLV>
0.346159

>  <SCORE.INTRA.SOLV.lig_0>
-53.9067

>  <SCORE.INTRA.VDW>
-0.226102

>  <SCORE.INTRA.VDW.0>
-2.93492

>  <SCORE.INTRA.norm>
-0.441132

>  <SCORE.RESTR>
0.105758

>  <SCORE.RESTR.CAVITY>
0.105758

>  <SCORE.RESTR.norm>
0.00285832

>  <SCORE.SYSTEM>
0

>  <SCORE.SYSTEM.CONST>
0

>  <SCORE.SYSTEM.DIHEDRAL>
0

>  <SCORE.SYSTEM.SOLV>
0

>  <SCORE.SYSTEM.norm>
0

>  <SCORE.heavy>
37

>  <SCORE.norm>
-1.245

>  <RMSD>
9.785

$$$$
lig.pdb
 OpenBabel11021811453D
libRbt.so/2013.1/901 2013/11/27
 37 40  0  0  0  0  0  0  0  0999 V2000
    1.6965    4.8351    9.8264 C   0  0  2  0  0  0  0  0  0  0  0  0
    1.2433    4.8472    8.3292 C   0  0  1  0  0  0  0  0  0  0  0  0
    0.3308    6.0570    7.9722 C   0  0  0  0  0  0  0  0  0  0  0  0
   -0.8149    6.2142    9.0025 C   0  0  1  0  0  0  0  0  0  0  0  0
   -0.2289    6.3322   10.4273 C   0  0  1  0  0  0  0  0  0  0  0  0
   -1.3539    6.5380   11.4769 C   0  0  1  0  0  0  0  0  0  0  0  0
   -2.2610    7.7438   11.0897 C   0  0  1  0  0  0  0  0  0  0  0  0
   -2.7714    7.6421    9.6216 C   0  0  2  0  0  0  0  0  0  0  0  0
   -2.9606    8.5063   13.3130 C   0  0  0  0  0  0  0  0  0  0  0  0
    0.5968    5.1717   10.7333 O   0  0  0  0  0  0  0  0  0  0  0  0
   -1.6818    7.3439    8.6955 O   0  0  0  0  0  0  0  0  0  0  0  0
    2.4312    4.8443    7.4479 N   0  0  0  0  0  0  0  0  0  0  0  0
   -3.3735    7.8438   12.0569 N   0  0  0  0  0  0  0  0  0  0  0  0
   -2.1194    5.3528   11.6525 O   0  0  0  0  0  0  0  0  0  0  0  0
   -3.4712    8.8625    9.2405 O   0  0  0  0  0  0  0  0  0  0  0  0
    2.8287    5.7317   10.0426 O   0  0  0  0  0  0  0  0  0  0  0  0
   -2.6917   10.0842    9.0565 C   0  0  2  0  0  0  0  0  0  0  0  0
   -3.6133   11.2846    8.6980 C   0  0  1  0  0  0  0  0  0  0  0  0
   -4.1965   11.1539    7.2618 C   0  0  2  0  0  0  0  0  0  0  0  0
   -3.0676   10.9214    6.2161 C   0  0  1  0  0  0  0  0  0  0  0  0
   -2.1507    9.7368    6.6302 C   0  0  1  0  0  0  0  0  0  0  0  0
   -0.9420    9.5789    5.6708 C   0  0  0  0  0  0  0  0  0  0  0  0
   -1.6946    9.9034    8.0070 O   0  0  0  0  0  0  0  0  0  0  0  0
   -3.6205   10.7271    4.8578 N   0  0  0  0  0  0  0  0  0  0  0  0
   -4.6421   11.4354    9.6744 O   0  0  0  0  0  0  0  0  0  0  0  0
   -4.9863   12.2912    6.9212 O   0  0  0  0  0  0  0  0  0  0  0  0
   -0.6110    8.2054    5.4937 O   0  0  0  0  0  0  0  0  0  0  0  0
    3.8774    5.2909   10.9535 C   0  0  1  0  0  0  0  0  0  0  0  0
    5.2464    5.9512   10.6276 C   0  0  1  0  0  0  0  0  0  0  0  0
    6.3697    5.3953   11.5475 C   0  0  2  0  0  0  0  0  0  0  0  0
    6.0126    5.5164   13.0646 C   0  0  1  0  0  0  0  0  0  0  0  0
    4.5869    4.9830   13.3969 C   0  0  0  0  0  0  0  0  0  0  0  0
    3.4953    5.5481   12.4389 C   0  0  2  0  0  0  0  0  0  0  0  0
    7.0332    4.8475   13.8994 N   0  0  0  0  0  0  0  0  0  0  0  0
    2.1856    4.9556   12.7868 N   0  0  0  0  0  0  0  0  0  0  0  0
    5.5814    5.7719    9.2553 O   0  0  0  0  0  0  0  0  0  0  0  0
    7.6066    6.0482   11.2729 O   0  0  0  0  0  0  0  0  0  0  0  0
  1  2  1  0  0  0  0
  1 16  1  6  0  0  0
  2  3  1  0  0  0  0
  2 12  1  6  0  0  0
  4 11  1  6  0  0  0
  4  3  1  0  0  0  0
  5  4  1  0  0  0  0
  5 10  1  1  0  0  0
  6  7  1  0  0  0  0
  6  5  1  0  0  0  0
  6 14  1  6  0  0  0
  7  8  1  0  0  0  0
  7 13  1  1  0  0  0
  8 15  1  6  0  0  0
  8 11  1  0  0  0  0
  9 13  1  0  0  0  0
 10  1  1  0  0  0  0
 17 15  1  6  0  0  0
 17 18  1  0  0  0  0
 18 25  1  1  0  0  0
 19 18  1  0  0  0  0
 19 26  1  6  0  0  0
 20 19  1  0  0  0  0
 20 24  1  6  0  0  0
 21 23  1  0  0  0  0
 21 20  1  0  0  0  0
 21 22  1  6  0  0  0
 23 17  1  0  0  0  0
 27 22  1  0  0  0  0
 28 29  1  0  0  0  0
 28 16  1  6  0  0  0
 29 36  1  6  0  0  0
 30 37  1  1  0  0  0
 30 29  1  0  0  0  0
 31 30  1  0  0  0  0
 31 34  1  1  0  0  0
 32 31  1  0  0  0  0
 32 33  1  0  0  0  0
 33 28  1  0  0  0  0
 33 35  1  1  0  0  0
M  END
>  <CHROM.1>
-170.38434804,70.32575167,80.10750058,-168.08225679,-178.19011839,-140.94035297
178.62890087,62.21891440,-144.56583016,-37.82854119,-169.66894851,154.10462910
-59.08436582,63.33647036,170.01159907,60.26067879,0.20261849,7.41013070,9.67120201
-0.52395628,0.38625736,-1.23780196

>  <Name>
lig.pdb

>  <RI>
0

>  <Rbt.Current_Directory>
/home/itssahil/PROJECTS/Mol_Feturizer/New_Systems/rnas/2m4q

>  <Rbt.Executable>
rbdock ($Id: //depot/dev/client3/rdock/2013.1/src/exe/rbdock.cxx#4 $)

>  <Rbt.Library>
libRbt.so (2013.1, Build901 2013/11/27)

>  <Rbt.Parameter_File>
/export/apps/rDock/src/rDock_2013.1_src/data/scripts/dock_solv.prm

>  <Rbt.Receptor>
prm/pocket_docking_3.prm

>  <SCORE>
-38.9664

>  <SCORE.INTER>
-19.9035

>  <SCORE.INTER.CONST>
1

>  <SCORE.INTER.POLAR>
-1.75545

>  <SCORE.INTER.ROT>
10

>  <SCORE.INTER.SOLV>
18.6276

>  <SCORE.INTER.VDW>
-23.8933

>  <SCORE.INTER.norm>
-0.537932

>  <SCORE.INTRA>
-19.0637

>  <SCORE.INTRA.DIHEDRAL>
-29.441

>  <SCORE.INTRA.DIHEDRAL.0>
44.8331

>  <SCORE.INTRA.POLAR>
-1.10313

>  <SCORE.INTRA.POLAR.0>
-0.108895

>  <SCORE.INTRA.REPUL>
0.0116258

>  <SCORE.INTRA.REPUL.0>
0.00912235

>  <SCORE.INTRA.SOLV>
-0.617933

>  <SCORE.INTRA.SOLV.lig_0>
-53.9067

>  <SCORE.INTRA.VDW>
-0.341755

>  <SCORE.INTRA.VDW.0>
-2.93492

>  <SCORE.INTRA.norm>
-0.515236

>  <SCORE.RESTR>
0.000803907

>  <SCORE.RESTR.CAVITY>
0.000803907

>  <SCORE.RESTR.norm>
2.17272e-05

>  <SCORE.SYSTEM>
0

>  <SCORE.SYSTEM.CONST>
0

>  <SCORE.SYSTEM.DIHEDRAL>
0

>  <SCORE.SYSTEM.SOLV>
0

>  <SCORE.SYSTEM.norm>
0

>  <SCORE.heavy>
37

>  <SCORE.norm>
-1.05315

>  <RMSD>
9.795

$$$$
lig.pdb
 OpenBabel11021811453D
libRbt.so/2013.1/901 2013/11/27
 37 40  0  0  0  0  0  0  0  0999 V2000
   -3.9295    1.4565   15.5238 C   0  0  2  0  0  0  0  0  0  0  0  0
   -2.9150    2.4854   14.9245 C   0  0  1  0  0  0  0  0  0  0  0  0
   -1.6692    1.8145   14.2751 C   0  0  0  0  0  0  0  0  0  0  0  0
   -1.0464    0.7598   15.2232 C   0  0  1  0  0  0  0  0  0  0  0  0
   -2.1160   -0.2782   15.6307 C   0  0  1  0  0  0  0  0  0  0  0  0
   -1.5074   -1.3753   16.5447 C   0  0  1  0  0  0  0  0  0  0  0  0
   -0.2550   -2.0204   15.8798 C   0  0  1  0  0  0  0  0  0  0  0  0
    0.7699   -0.9485   15.4035 C   0  0  2  0  0  0  0  0  0  0  0  0
   -0.5098   -4.1698   17.0327 C   0  0  0  0  0  0  0  0  0  0  0  0
   -3.2524    0.3844   16.2566 O   0  0  0  0  0  0  0  0  0  0  0  0
    0.1190    0.1113   14.6374 O   0  0  0  0  0  0  0  0  0  0  0  0
   -3.5978    3.3362   13.9257 N   0  0  0  0  0  0  0  0  0  0  0  0
    0.3504   -2.9857   16.8205 N   0  0  0  0  0  0  0  0  0  0  0  0
   -1.1989   -0.8610   17.8339 O   0  0  0  0  0  0  0  0  0  0  0  0
    1.8414   -1.5735   14.6382 O   0  0  0  0  0  0  0  0  0  0  0  0
   -4.7916    0.8991   14.4852 O   0  0  0  0  0  0  0  0  0  0  0  0
    2.8520   -0.7153   14.0250 C   0  0  2  0  0  0  0  0  0  0  0  0
    4.0500   -1.5547   13.4969 C   0  0  1  0  0  0  0  0  0  0  0  0
    4.9032   -2.1358   14.6606 C   0  0  2  0  0  0  0  0  0  0  0  0
    5.3356   -1.0176   15.6529 C   0  0  1  0  0  0  0  0  0  0  0  0
    4.1142   -0.1823   16.1281 C   0  0  1  0  0  0  0  0  0  0  0  0
    4.5440    1.0198   17.0093 C   0  0  0  0  0  0  0  0  0  0  0  0
    3.3334    0.2748   14.9823 O   0  0  0  0  0  0  0  0  0  0  0  0
    6.0886   -1.5732   16.7987 N   0  0  0  0  0  0  0  0  0  0  0  0
    3.5942   -2.5778   12.6137 O   0  0  0  0  0  0  0  0  0  0  0  0
    6.0344   -2.8479   14.1639 O   0  0  0  0  0  0  0  0  0  0  0  0
    5.3845    0.5918   18.0760 O   0  0  0  0  0  0  0  0  0  0  0  0
   -6.2330    0.9900   14.6807 C   0  0  1  0  0  0  0  0  0  0  0  0
   -6.9076    1.9029   13.6187 C   0  0  1  0  0  0  0  0  0  0  0  0
   -8.4277    2.0637   13.9024 C   0  0  2  0  0  0  0  0  0  0  0  0
   -9.1584    0.6881   14.0346 C   0  0  1  0  0  0  0  0  0  0  0  0
   -8.4264   -0.2983   14.9933 C   0  0  0  0  0  0  0  0  0  0  0  0
   -6.9025   -0.4136   14.6879 C   0  0  2  0  0  0  0  0  0  0  0  0
  -10.5652    0.8782   14.4482 N   0  0  0  0  0  0  0  0  0  0  0  0
   -6.2749   -1.3241   15.6699 N   0  0  0  0  0  0  0  0  0  0  0  0
   -6.2665    3.1731   13.5618 O   0  0  0  0  0  0  0  0  0  0  0  0
   -9.0415    2.8589   12.8912 O   0  0  0  0  0  0  0  0  0  0  0  0
  1  2  1  0  0  0  0
  1 16  1  6  0  0  0
  2  3  1  0  0  0  0
  2 12  1  6  0  0  0
  4 11  1  6  0  0  0
  4  3  1  0  0  0  0
  5  4  1  0  0  0  0
  5 10  1  1  0  0  0
  6  7  1  0  0  0  0
  6  5  1  0  0  0  0
  6 14  1  1  0  0  0
  7  8  1  0  0  0  0
  7 13  1  1  0  0  0
  8 15  1  6  0  0  0
  8 11  1  0  0  0  0
  9 13  1  0  0  0  0
 10  1  1  0  0  0  0
 17 15  1  1  0  0  0
 17 18  1  0  0  0  0
 18 25  1  1  0  0  0
 19 18  1  0  0  0  0
 19 26  1  6  0  0  0
 20 19  1  0  0  0  0
 20 24  1  1  0  0  0
 21 23  1  0  0  0  0
 21 20  1  0  0  0  0
 21 22  1  6  0  0  0
 23 17  1  0  0  0  0
 27 22  1  0  0  0  0
 28 29  1  0  0  0  0
 28 16  1  6  0  0  0
 29 36  1  1  0  0  0
 30 37  1  6  0  0  0
 30 29  1  0  0  0  0
 31 30  1  0  0  0  0
 31 34  1  1  0  0  0
 32 31  1  0  0  0  0
 32 33  1  0  0  0  0
 33 28  1  0  0  0  0
 33 35  1  1  0  0  0
M  END
>  <CHROM.1>
22.95158005,175.75375489,68.50301757,-171.93646387,168.86629718,-125.87656165
38.29971302,-179.66829214,-52.40337675,-152.61895352,-170.12613975,114.76765244
162.10635799,-162.85710738,-48.38391266,-49.68723213,-1.36576268,-0.09048254
15.11782382,-2.90184577,0.01382286,2.75817017

>  <Name>
lig.pdb

>  <RI>
0

>  <Rbt.Current_Directory>
/home/itssahil/PROJECTS/Mol_Feturizer/New_Systems/rnas/2m4q

>  <Rbt.Executable>
rbdock ($Id: //depot/dev/client3/rdock/2013.1/src/exe/rbdock.cxx#4 $)

>  <Rbt.Library>
libRbt.so (2013.1, Build901 2013/11/27)

>  <Rbt.Parameter_File>
/export/apps/rDock/src/rDock_2013.1_src/data/scripts/dock_solv.prm

>  <Rbt.Receptor>
prm/blind_docking_20.prm

>  <SCORE>
-1.56923

>  <SCORE.INTER>
-5.87341

>  <SCORE.INTER.CONST>
1

>  <SCORE.INTER.POLAR>
-2.74807

>  <SCORE.INTER.ROT>
10

>  <SCORE.INTER.SOLV>
27.8443

>  <SCORE.INTER.VDW>
-14.3035

>  <SCORE.INTER.norm>
-0.158741

>  <SCORE.INTRA>
-15.4268

>  <SCORE.INTRA.DIHEDRAL>
-20.7588

>  <SCORE.INTRA.DIHEDRAL.0>
44.8331

>  <SCORE.INTRA.POLAR>
-1.90332

>  <SCORE.INTRA.POLAR.0>
-0.108895

>  <SCORE.INTRA.REPUL>
-0.00912235

>  <SCORE.INTRA.REPUL.0>
0.00912235

>  <SCORE.INTRA.SOLV>
-0.225132

>  <SCORE.INTRA.SOLV.lig_0>
-53.9067

>  <SCORE.INTRA.VDW>
1.58208

>  <SCORE.INTRA.VDW.0>
-2.93492

>  <SCORE.INTRA.norm>
-0.41694

>  <SCORE.RESTR>
19.7309

>  <SCORE.RESTR.CAVITY>
19.7309

>  <SCORE.RESTR.norm>
0.533269

>  <SCORE.SYSTEM>
0

>  <SCORE.SYSTEM.CONST>
0

>  <SCORE.SYSTEM.DIHEDRAL>
0

>  <SCORE.SYSTEM.SOLV>
0

>  <SCORE.SYSTEM.norm>
0

>  <SCORE.heavy>
37

>  <SCORE.norm>
-0.0424115

>  <RMSD>
9.810

$$$$
lig.pdb
 OpenBabel11021811453D
libRbt.so/2013.1/901 2013/11/27
 37 40  0  0  0  0  0  0  0  0999 V2000
    0.1141    6.0529   11.3300 C   0  0  2  0  0  0  0  0  0  0  0  0
   -1.4322    6.2372   11.4789 C   0  0  1  0  0  0  0  0  0  0  0  0
   -2.1039    6.8469   10.2137 C   0  0  0  0  0  0  0  0  0  0  0  0
   -1.3403    8.1039    9.7280 C   0  0  1  0  0  0  0  0  0  0  0  0
    0.1450    7.7554    9.4834 C   0  0  1  0  0  0  0  0  0  0  0  0
    0.9254    8.9869    8.9505 C   0  0  1  0  0  0  0  0  0  0  0  0
    0.2258    9.5870    7.6946 C   0  0  1  0  0  0  0  0  0  0  0  0
   -1.2891    9.8519    7.9415 C   0  0  2  0  0  0  0  0  0  0  0  0
    0.9432   10.9834    5.8107 C   0  0  0  0  0  0  0  0  0  0  0  0
    0.7443    7.2126   10.6951 O   0  0  0  0  0  0  0  0  0  0  0  0
   -1.9448    8.6920    8.5403 O   0  0  0  0  0  0  0  0  0  0  0  0
   -2.0617    4.9373   11.7975 N   0  0  0  0  0  0  0  0  0  0  0  0
    0.9414   10.8112    7.2795 N   0  0  0  0  0  0  0  0  0  0  0  0
    1.0951    9.9691    9.9644 O   0  0  0  0  0  0  0  0  0  0  0  0
   -1.9448   10.2494    6.7019 O   0  0  0  0  0  0  0  0  0  0  0  0
    0.4318    4.8326   10.5935 O   0  0  0  0  0  0  0  0  0  0  0  0
   -2.5021   11.5965    6.6094 C   0  0  2  0  0  0  0  0  0  0  0  0
   -4.0568   11.5573    6.6025 C   0  0  1  0  0  0  0  0  0  0  0  0
   -4.6122   10.9763    5.2707 C   0  0  2  0  0  0  0  0  0  0  0  0
   -4.0180   11.7227    4.0411 C   0  0  1  0  0  0  0  0  0  0  0  0
   -2.4658   11.7688    4.1055 C   0  0  1  0  0  0  0  0  0  0  0  0
   -1.8653   12.6257    2.9604 C   0  0  0  0  0  0  0  0  0  0  0  0
   -2.0250   12.2674    5.4049 O   0  0  0  0  0  0  0  0  0  0  0  0
   -4.4884   11.1301    2.7698 N   0  0  0  0  0  0  0  0  0  0  0  0
   -4.5449   10.8415    7.7356 O   0  0  0  0  0  0  0  0  0  0  0  0
   -6.0377   11.0062    5.2506 O   0  0  0  0  0  0  0  0  0  0  0  0
   -0.4457   12.5182    2.9374 O   0  0  0  0  0  0  0  0  0  0  0  0
    1.8062    4.6511   10.1442 C   0  0  1  0  0  0  0  0  0  0  0  0
    2.1045    5.4526    8.8462 C   0  0  1  0  0  0  0  0  0  0  0  0
    3.5438    5.1693    8.3310 C   0  0  2  0  0  0  0  0  0  0  0  0
    4.6293    5.4159    9.4286 C   0  0  1  0  0  0  0  0  0  0  0  0
    4.2862    4.7321   10.7859 C   0  0  0  0  0  0  0  0  0  0  0  0
    2.8289    5.0244   11.2547 C   0  0  2  0  0  0  0  0  0  0  0  0
    5.9643    4.9973    8.9504 N   0  0  0  0  0  0  0  0  0  0  0  0
    2.5674    4.3004   12.5176 N   0  0  0  0  0  0  0  0  0  0  0  0
    1.1406    5.1627    7.8390 O   0  0  0  0  0  0  0  0  0  0  0  0
    3.8205    5.9512    7.1718 O   0  0  0  0  0  0  0  0  0  0  0  0
  1  2  1  0  0  0  0
  1 16  1  6  0  0  0
  2  3  1  0  0  0  0
  2 12  1  6  0  0  0
  4 11  1  6  0  0  0
  4  3  1  0  0  0  0
  5  4  1  0  0  0  0
  5 10  1  1  0  0  0
  6  7  1  0  0  0  0
  6  5  1  0  0  0  0
  6 14  1  1  0  0  0
  7  8  1  0  0  0  0
  7 13  1  1  0  0  0
  8 15  1  6  0  0  0
  8 11  1  0  0  0  0
  9 13  1  0  0  0  0
 10  1  1  0  0  0  0
 17 15  1  6  0  0  0
 17 18  1  0  0  0  0
 18 25  1  1  0  0  0
 19 18  1  0  0  0  0
 19 26  1  1  0  0  0
 20 19  1  0  0  0  0
 20 24  1  6  0  0  0
 21 23  1  0  0  0  0
 21 20  1  0  0  0  0
 21 22  1  6  0  0  0
 23 17  1  0  0  0  0
 27 22  1  0  0  0  0
 28 29  1  0  0  0  0
 28 16  1  1  0  0  0
 29 36  1  6  0  0  0
 30 37  1  6  0  0  0
 30 29  1  0  0  0  0
 31 30  1  0  0  0  0
 31 34  1  6  0  0  0
 32 31  1  0  0  0  0
 32 33  1  0  0  0  0
 33 28  1  0  0  0  0
 33 35  1  1  0  0  0
M  END
>  <CHROM.1>
177.03640002,-115.24597828,145.52822892,-60.22465235,-109.63051309,168.23959444
-65.76264221,-61.21236505,-172.69647834,84.81230899,59.95785078,-80.05407263
-60.06475782,61.56929243,56.03749727,-155.99785119,-0.30951210,8.39188528
7.99962801,0.94938038,-0.27227356,2.24490614

>  <Name>
lig.pdb

>  <RI>
2.86754e+07

>  <Rbt.Current_Directory>
/home/itssahil/PROJECTS/Mol_Feturizer/New_Systems/rnas/2m4q

>  <Rbt.Executable>
rbdock ($Id: //depot/dev/client3/rdock/2013.1/src/exe/rbdock.cxx#4 $)

>  <Rbt.Library>
libRbt.so (2013.1, Build901 2013/11/27)

>  <Rbt.Parameter_File>
/export/apps/rDock/src/rDock_2013.1_src/data/scripts/dock_solv.prm

>  <Rbt.Receptor>
prm/pocket_docking_5.prm

>  <SCORE>
-35.8392

>  <SCORE.INTER>
-23.0332

>  <SCORE.INTER.CONST>
1

>  <SCORE.INTER.POLAR>
-2.73533

>  <SCORE.INTER.ROT>
10

>  <SCORE.INTER.SOLV>
19.3072

>  <SCORE.INTER.VDW>
-22.9401

>  <SCORE.INTER.norm>
-0.622519

>  <SCORE.INTRA>
-12.8348

>  <SCORE.INTRA.DIHEDRAL>
-24.6291

>  <SCORE.INTRA.DIHEDRAL.0>
44.8331

>  <SCORE.INTRA.POLAR>
0.108895

>  <SCORE.INTRA.POLAR.0>
-0.108895

>  <SCORE.INTRA.REPUL>
-0.00912235

>  <SCORE.INTRA.REPUL.0>
0.00912235

>  <SCORE.INTRA.SOLV>
-1.01682

>  <SCORE.INTRA.SOLV.lig_0>
-53.9067

>  <SCORE.INTRA.VDW>
-0.336421

>  <SCORE.INTRA.VDW.0>
-2.93492

>  <SCORE.INTRA.norm>
-0.346885

>  <SCORE.RESTR>
0.0287535

>  <SCORE.RESTR.CAVITY>
0.0287535

>  <SCORE.RESTR.norm>
0.000777121

>  <SCORE.SYSTEM>
0

>  <SCORE.SYSTEM.CONST>
0

>  <SCORE.SYSTEM.DIHEDRAL>
0

>  <SCORE.SYSTEM.SOLV>
0

>  <SCORE.SYSTEM.norm>
0

>  <SCORE.heavy>
37

>  <SCORE.norm>
-0.968627

>  <RMSD>
9.817

$$$$
lig.pdb
 OpenBabel11021811453D
libRbt.so/2013.1/901 2013/11/27
 37 40  0  0  0  0  0  0  0  0999 V2000
    1.3625    4.8434    9.8670 C   0  0  2  0  0  0  0  0  0  0  0  0
    0.9534    4.9344    8.3598 C   0  0  1  0  0  0  0  0  0  0  0  0
    0.1334    6.2136    8.0208 C   0  0  0  0  0  0  0  0  0  0  0  0
   -1.0279    6.4140    9.0259 C   0  0  1  0  0  0  0  0  0  0  0  0
   -0.4756    6.4462   10.4686 C   0  0  1  0  0  0  0  0  0  0  0  0
   -1.6136    6.6930   11.4951 C   0  0  1  0  0  0  0  0  0  0  0  0
   -2.4276    7.9689   11.1260 C   0  0  1  0  0  0  0  0  0  0  0  0
   -2.9021    7.9492    9.6425 C   0  0  2  0  0  0  0  0  0  0  0  0
   -3.1661    8.8239   13.3025 C   0  0  0  0  0  0  0  0  0  0  0  0
    0.2624    5.2236   10.7560 O   0  0  0  0  0  0  0  0  0  0  0  0
   -1.8091    7.6087    8.7352 O   0  0  0  0  0  0  0  0  0  0  0  0
    2.1627    4.8802    7.5100 N   0  0  0  0  0  0  0  0  0  0  0  0
   -3.5578    8.1120   12.0668 N   0  0  0  0  0  0  0  0  0  0  0  0
   -2.4607    5.5568   11.6102 O   0  0  0  0  0  0  0  0  0  0  0  0
   -3.5086    9.2256    9.2852 O   0  0  0  0  0  0  0  0  0  0  0  0
    2.5450    5.6545   10.1429 O   0  0  0  0  0  0  0  0  0  0  0  0
   -2.6493   10.4031    9.1906 C   0  0  2  0  0  0  0  0  0  0  0  0
   -3.4952   11.7004    9.0489 C   0  0  1  0  0  0  0  0  0  0  0  0
   -4.1808   11.7914    7.6555 C   0  0  2  0  0  0  0  0  0  0  0  0
   -3.1455   11.6130    6.5073 C   0  0  1  0  0  0  0  0  0  0  0  0
   -2.2994   10.3246    6.7063 C   0  0  1  0  0  0  0  0  0  0  0  0
   -1.1731   10.2037    5.6464 C   0  0  0  0  0  0  0  0  0  0  0  0
   -1.7413   10.2855    8.0547 O   0  0  0  0  0  0  0  0  0  0  0  0
   -3.8009   11.6292    5.1811 N   0  0  0  0  0  0  0  0  0  0  0  0
   -4.4419   11.7997   10.1112 O   0  0  0  0  0  0  0  0  0  0  0  0
   -4.8994   13.0149    7.5141 O   0  0  0  0  0  0  0  0  0  0  0  0
   -0.1901   11.2168    5.8331 O   0  0  0  0  0  0  0  0  0  0  0  0
    3.3060    5.3542   11.3490 C   0  0  1  0  0  0  0  0  0  0  0  0
    4.8351    5.3039   11.0745 C   0  0  1  0  0  0  0  0  0  0  0  0
    5.6200    4.8875   12.3503 C   0  0  2  0  0  0  0  0  0  0  0  0
    5.2798    5.7898   13.5808 C   0  0  1  0  0  0  0  0  0  0  0  0
    3.7471    5.9669   13.7981 C   0  0  0  0  0  0  0  0  0  0  0  0
    2.9966    6.3633   12.4911 C   0  0  2  0  0  0  0  0  0  0  0  0
    5.9295    5.2751   14.8051 N   0  0  0  0  0  0  0  0  0  0  0  0
    1.5474    6.4601   12.7701 N   0  0  0  0  0  0  0  0  0  0  0  0
    5.1271    4.4260    9.9921 O   0  0  0  0  0  0  0  0  0  0  0  0
    7.0227    4.8978   12.0974 O   0  0  0  0  0  0  0  0  0  0  0  0
  1  2  1  0  0  0  0
  1 16  1  6  0  0  0
  2  3  1  0  0  0  0
  2 12  1  6  0  0  0
  4 11  1  6  0  0  0
  4  3  1  0  0  0  0
  5  4  1  0  0  0  0
  5 10  1  1  0  0  0
  6  7  1  0  0  0  0
  6  5  1  0  0  0  0
  6 14  1  6  0  0  0
  7  8  1  0  0  0  0
  7 13  1  1  0  0  0
  8 15  1  6  0  0  0
  8 11  1  0  0  0  0
  9 13  1  0  0  0  0
 10  1  1  0  0  0  0
 17 15  1  6  0  0  0
 17 18  1  0  0  0  0
 18 25  1  1  0  0  0
 19 18  1  0  0  0  0
 19 26  1  6  0  0  0
 20 19  1  0  0  0  0
 20 24  1  6  0  0  0
 21 23  1  0  0  0  0
 21 20  1  0  0  0  0
 21 22  1  6  0  0  0
 23 17  1  0  0  0  0
 27 22  1  0  0  0  0
 28 29  1  0  0  0  0
 28 16  1  6  0  0  0
 29 36  1  6  0  0  0
 30 37  1  6  0  0  0
 30 29  1  0  0  0  0
 31 30  1  0  0  0  0
 31 34  1  1  0  0  0
 32 31  1  0  0  0  0
 32 33  1  0  0  0  0
 33 28  1  0  0  0  0
 33 35  1  1  0  0  0
M  END
>  <CHROM.1>
-47.07933354,69.07364827,85.70220182,-170.40733381,-170.04313107,-160.42615056
-56.59023212,-64.62324808,67.64670963,-68.13326434,-61.83740537,134.10043083
-59.20990259,-60.49596218,-176.88296274,17.44309790,-0.06924904,7.73243910
9.90933461,-0.58110627,0.48566327,-1.23949900

>  <Name>
lig.pdb

>  <RI>
3.87352e+07

>  <Rbt.Current_Directory>
/home/itssahil/PROJECTS/Mol_Feturizer/New_Systems/rnas/2m4q

>  <Rbt.Executable>
rbdock ($Id: //depot/dev/client3/rdock/2013.1/src/exe/rbdock.cxx#4 $)

>  <Rbt.Library>
libRbt.so (2013.1, Build901 2013/11/27)

>  <Rbt.Parameter_File>
/export/apps/rDock/src/rDock_2013.1_src/data/scripts/dock_solv.prm

>  <Rbt.Receptor>
prm/pocket_docking_4.prm

>  <SCORE>
-40.8737

>  <SCORE.INTER>
-21.0258

>  <SCORE.INTER.CONST>
1

>  <SCORE.INTER.POLAR>
-2.33436

>  <SCORE.INTER.ROT>
10

>  <SCORE.INTER.SOLV>
15.0699

>  <SCORE.INTER.VDW>
-21.5259

>  <SCORE.INTER.norm>
-0.568264

>  <SCORE.INTRA>
-19.848

>  <SCORE.INTRA.DIHEDRAL>
-31.1977

>  <SCORE.INTRA.DIHEDRAL.0>
44.8331

>  <SCORE.INTRA.POLAR>
-0.863147

>  <SCORE.INTRA.POLAR.0>
-0.108895

>  <SCORE.INTRA.REPUL>
-0.00912235

>  <SCORE.INTRA.REPUL.0>
0.00912235

>  <SCORE.INTRA.SOLV>
-0.471362

>  <SCORE.INTRA.SOLV.lig_0>
-53.9067

>  <SCORE.INTRA.VDW>
-1.03312

>  <SCORE.INTRA.VDW.0>
-2.93492

>  <SCORE.INTRA.norm>
-0.536432

>  <SCORE.RESTR>
0

>  <SCORE.RESTR.CAVITY>
0

>  <SCORE.RESTR.norm>
0

>  <SCORE.SYSTEM>
0

>  <SCORE.SYSTEM.CONST>
0

>  <SCORE.SYSTEM.DIHEDRAL>
0

>  <SCORE.SYSTEM.SOLV>
0

>  <SCORE.SYSTEM.norm>
0

>  <SCORE.heavy>
37

>  <SCORE.norm>
-1.1047

>  <RMSD>
9.835

$$$$
lig.pdb
 OpenBabel11021811453D
libRbt.so/2013.1/901 2013/11/27
 37 40  0  0  0  0  0  0  0  0999 V2000
    2.2685    4.4126    9.9076 C   0  0  2  0  0  0  0  0  0  0  0  0
    1.6273    4.6980    8.5095 C   0  0  1  0  0  0  0  0  0  0  0  0
    0.6680    5.9242    8.5112 C   0  0  0  0  0  0  0  0  0  0  0  0
   -0.3375    5.8437    9.6865 C   0  0  1  0  0  0  0  0  0  0  0  0
    0.4252    5.7041   11.0230 C   0  0  1  0  0  0  0  0  0  0  0  0
   -0.5576    5.6682   12.2240 C   0  0  1  0  0  0  0  0  0  0  0  0
   -1.5154    6.8964   12.1948 C   0  0  1  0  0  0  0  0  0  0  0  0
   -2.2088    7.0627   10.8099 C   0  0  2  0  0  0  0  0  0  0  0  0
   -2.6473    8.0359   14.0479 C   0  0  0  0  0  0  0  0  0  0  0  0
    1.2915    4.5333   10.9920 O   0  0  0  0  0  0  0  0  0  0  0  0
   -1.2446    6.9831    9.7155 O   0  0  0  0  0  0  0  0  0  0  0  0
    2.6926    4.9025    7.5040 N   0  0  0  0  0  0  0  0  0  0  0  0
   -2.4956    6.7730   13.2934 N   0  0  0  0  0  0  0  0  0  0  0  0
   -1.2860    4.4476   12.2590 O   0  0  0  0  0  0  0  0  0  0  0  0
   -2.9603    8.3108   10.7638 O   0  0  0  0  0  0  0  0  0  0  0  0
    3.4126    5.2865   10.1520 O   0  0  0  0  0  0  0  0  0  0  0  0
   -2.2202    9.5669   10.6728 C   0  0  2  0  0  0  0  0  0  0  0  0
   -3.1774   10.7873   10.7872 C   0  0  1  0  0  0  0  0  0  0  0  0
   -4.0675   10.9415    9.5208 C   0  0  2  0  0  0  0  0  0  0  0  0
   -3.2037   10.9663    8.2266 C   0  0  1  0  0  0  0  0  0  0  0  0
   -2.2384    9.7496    8.1695 C   0  0  1  0  0  0  0  0  0  0  0  0
   -1.2763    9.8318    6.9555 C   0  0  0  0  0  0  0  0  0  0  0  0
   -1.4847    9.6390    9.4149 O   0  0  0  0  0  0  0  0  0  0  0  0
   -4.0482   11.0430    7.0143 N   0  0  0  0  0  0  0  0  0  0  0  0
   -3.9604   10.7001   11.9762 O   0  0  0  0  0  0  0  0  0  0  0  0
   -4.8934   12.1005    9.6099 O   0  0  0  0  0  0  0  0  0  0  0  0
   -0.3965   10.9443    7.0801 O   0  0  0  0  0  0  0  0  0  0  0  0
    4.5974    4.6965   10.7619 C   0  0  1  0  0  0  0  0  0  0  0  0
    5.8339    5.6324   10.6550 C   0  0  1  0  0  0  0  0  0  0  0  0
    7.1073    4.9455   11.2240 C   0  0  2  0  0  0  0  0  0  0  0  0
    6.9006    4.4199   12.6817 C   0  0  1  0  0  0  0  0  0  0  0  0
    5.5933    3.5884   12.8472 C   0  0  0  0  0  0  0  0  0  0  0  0
    4.3461    4.3032   12.2453 C   0  0  2  0  0  0  0  0  0  0  0  0
    8.0773    3.6469   13.1331 N   0  0  0  0  0  0  0  0  0  0  0  0
    3.1622    3.4297   12.3961 N   0  0  0  0  0  0  0  0  0  0  0  0
    6.0413    6.0462    9.3084 O   0  0  0  0  0  0  0  0  0  0  0  0
    8.2199    5.8348   11.1680 O   0  0  0  0  0  0  0  0  0  0  0  0
  1  2  1  0  0  0  0
  1 16  1  1  0  0  0
  2  3  1  0  0  0  0
  2 12  1  6  0  0  0
  4 11  1  1  0  0  0
  4  3  1  0  0  0  0
  5  4  1  0  0  0  0
  5 10  1  6  0  0  0
  6  7  1  0  0  0  0
  6  5  1  0  0  0  0
  6 14  1  6  0  0  0
  7  8  1  0  0  0  0
  7 13  1  1  0  0  0
  8 15  1  1  0  0  0
  8 11  1  0  0  0  0
  9 13  1  0  0  0  0
 10  1  1  0  0  0  0
 17 15  1  6  0  0  0
 17 18  1  0  0  0  0
 18 25  1  1  0  0  0
 19 18  1  0  0  0  0
 19 26  1  1  0  0  0
 20 19  1  0  0  0  0
 20 24  1  6  0  0  0
 21 23  1  0  0  0  0
 21 20  1  0  0  0  0
 21 22  1  6  0  0  0
 23 17  1  0  0  0  0
 27 22  1  0  0  0  0
 28 29  1  0  0  0  0
 28 16  1  1  0  0  0
 29 36  1  6  0  0  0
 30 37  1  1  0  0  0
 30 29  1  0  0  0  0
 31 30  1  0  0  0  0
 31 34  1  6  0  0  0
 32 31  1  0  0  0  0
 32 33  1  0  0  0  0
 33 28  1  0  0  0  0
 33 35  1  6  0  0  0
M  END
>  <CHROM.1>
-55.80372164,72.70207437,133.57810253,-171.39552514,-173.96681090,-137.95418198
64.07051033,178.99022462,65.19492642,168.38423776,-177.14009128,166.41472726
-60.31184477,-59.16833087,173.83536736,-66.88309198,0.69474026,7.01406501
10.45777941,-0.45350220,0.37373466,-0.95000499

>  <Name>
lig.pdb

>  <RI>
0

>  <Rbt.Current_Directory>
/home/itssahil/PROJECTS/Mol_Feturizer/New_Systems/rnas/2m4q

>  <Rbt.Executable>
rbdock ($Id: //depot/dev/client3/rdock/2013.1/src/exe/rbdock.cxx#4 $)

>  <Rbt.Library>
libRbt.so (2013.1, Build901 2013/11/27)

>  <Rbt.Parameter_File>
/export/apps/rDock/src/rDock_2013.1_src/data/scripts/dock_solv.prm

>  <Rbt.Receptor>
prm/pocket_docking_3.prm

>  <SCORE>
-41.9217

>  <SCORE.INTER>
-21.0635

>  <SCORE.INTER.CONST>
1

>  <SCORE.INTER.POLAR>
-2.93602

>  <SCORE.INTER.ROT>
10

>  <SCORE.INTER.SOLV>
16.0712

>  <SCORE.INTER.VDW>
-19.8794

>  <SCORE.INTER.norm>
-0.569285

>  <SCORE.INTRA>
-20.8582

>  <SCORE.INTRA.DIHEDRAL>
-33.7064

>  <SCORE.INTRA.DIHEDRAL.0>
44.8331

>  <SCORE.INTRA.POLAR>
-1.07836

>  <SCORE.INTRA.POLAR.0>
-0.108895

>  <SCORE.INTRA.REPUL>
-0.00912235

>  <SCORE.INTRA.REPUL.0>
0.00912235

>  <SCORE.INTRA.SOLV>
-0.842478

>  <SCORE.INTRA.SOLV.lig_0>
-53.9067

>  <SCORE.INTRA.VDW>
0.128268

>  <SCORE.INTRA.VDW.0>
-2.93492

>  <SCORE.INTRA.norm>
-0.563735

>  <SCORE.RESTR>
0

>  <SCORE.RESTR.CAVITY>
0

>  <SCORE.RESTR.norm>
0

>  <SCORE.SYSTEM>
0

>  <SCORE.SYSTEM.CONST>
0

>  <SCORE.SYSTEM.DIHEDRAL>
0

>  <SCORE.SYSTEM.SOLV>
0

>  <SCORE.SYSTEM.norm>
0

>  <SCORE.heavy>
37

>  <SCORE.norm>
-1.13302

>  <RMSD>
9.851

$$$$
lig.pdb
 OpenBabel11021811453D
libRbt.so/2013.1/901 2013/11/27
 37 40  0  0  0  0  0  0  0  0999 V2000
    1.2262    4.8336   10.0200 C   0  0  2  0  0  0  0  0  0  0  0  0
    0.5392    5.1282    8.6458 C   0  0  1  0  0  0  0  0  0  0  0  0
   -0.2908    6.4453    8.6426 C   0  0  0  0  0  0  0  0  0  0  0  0
   -1.2316    6.5144    9.8710 C   0  0  1  0  0  0  0  0  0  0  0  0
   -0.4127    6.3498   11.1709 C   0  0  1  0  0  0  0  0  0  0  0  0
   -1.3251    6.4619   12.4218 C   0  0  1  0  0  0  0  0  0  0  0  0
   -2.1551    7.7797   12.3876 C   0  0  1  0  0  0  0  0  0  0  0  0
   -2.9051    7.9618   11.0346 C   0  0  2  0  0  0  0  0  0  0  0  0
   -3.2547    9.1630   14.0879 C   0  0  0  0  0  0  0  0  0  0  0  0
    0.3288    5.0961   11.1473 O   0  0  0  0  0  0  0  0  0  0  0  0
   -2.0169    7.7410    9.8962 O   0  0  0  0  0  0  0  0  0  0  0  0
    1.5613    5.1829    7.5781 N   0  0  0  0  0  0  0  0  0  0  0  0
   -3.0794    7.8006   13.5402 N   0  0  0  0  0  0  0  0  0  0  0  0
   -2.1689    5.3247   12.5491 O   0  0  0  0  0  0  0  0  0  0  0  0
   -3.5292    9.2775   10.9719 O   0  0  0  0  0  0  0  0  0  0  0  0
    2.4641    5.5946   10.1653 O   0  0  0  0  0  0  0  0  0  0  0  0
   -2.7059   10.4217   10.5885 C   0  0  2  0  0  0  0  0  0  0  0  0
   -3.5679   11.7095   10.4573 C   0  0  1  0  0  0  0  0  0  0  0  0
   -4.4979   11.6553    9.2115 C   0  0  2  0  0  0  0  0  0  0  0  0
   -3.6904   11.3309    7.9213 C   0  0  1  0  0  0  0  0  0  0  0  0
   -2.8177   10.0584    8.1074 C   0  0  1  0  0  0  0  0  0  0  0  0
   -1.9047    9.7995    6.8803 C   0  0  0  0  0  0  0  0  0  0  0  0
   -2.0214   10.1613    9.3268 O   0  0  0  0  0  0  0  0  0  0  0  0
   -4.5781   11.2095    6.7441 N   0  0  0  0  0  0  0  0  0  0  0  0
   -4.3039   11.9441   11.6564 O   0  0  0  0  0  0  0  0  0  0  0  0
   -5.2345   12.8676    9.0656 O   0  0  0  0  0  0  0  0  0  0  0  0
   -0.9901   10.8745    6.6928 O   0  0  0  0  0  0  0  0  0  0  0  0
    3.4174    5.1508   11.1743 C   0  0  1  0  0  0  0  0  0  0  0  0
    4.7579    4.6825   10.5418 C   0  0  1  0  0  0  0  0  0  0  0  0
    5.7233    4.1235   11.6248 C   0  0  2  0  0  0  0  0  0  0  0  0
    5.9545    5.1329   12.7959 C   0  0  1  0  0  0  0  0  0  0  0  0
    4.6270    5.7218   13.3604 C   0  0  0  0  0  0  0  0  0  0  0  0
    3.6805    6.2512   12.2412 C   0  0  2  0  0  0  0  0  0  0  0  0
    6.7559    4.5132   13.8728 N   0  0  0  0  0  0  0  0  0  0  0  0
    2.4273    6.7431   12.8534 N   0  0  0  0  0  0  0  0  0  0  0  0
    4.5268    3.7155    9.5226 O   0  0  0  0  0  0  0  0  0  0  0  0
    6.9666    3.7482   11.0374 O   0  0  0  0  0  0  0  0  0  0  0  0
  1  2  1  0  0  0  0
  1 16  1  1  0  0  0
  2  3  1  0  0  0  0
  2 12  1  6  0  0  0
  4 11  1  1  0  0  0
  4  3  1  0  0  0  0
  5  4  1  0  0  0  0
  5 10  1  6  0  0  0
  6  7  1  0  0  0  0
  6  5  1  0  0  0  0
  6 14  1  6  0  0  0
  7  8  1  0  0  0  0
  7 13  1  1  0  0  0
  8 15  1  6  0  0  0
  8 11  1  0  0  0  0
  9 13  1  0  0  0  0
 10  1  1  0  0  0  0
 17 15  1  6  0  0  0
 17 18  1  0  0  0  0
 18 25  1  1  0  0  0
 19 18  1  0  0  0  0
 19 26  1  6  0  0  0
 20 19  1  0  0  0  0
 20 24  1  6  0  0  0
 21 23  1  0  0  0  0
 21 20  1  0  0  0  0
 21 22  1  6  0  0  0
 23 17  1  0  0  0  0
 27 22  1  0  0  0  0
 28 29  1  0  0  0  0
 28 16  1  6  0  0  0
 29 36  1  6  0  0  0
 30 37  1  6  0  0  0
 30 29  1  0  0  0  0
 31 30  1  0  0  0  0
 31 34  1  1  0  0  0
 32 31  1  0  0  0  0
 32 33  1  0  0  0  0
 33 28  1  0  0  0  0
 33 35  1  1  0  0  0
M  END
>  <CHROM.1>
176.03934375,81.73786268,144.32124431,64.24083406,175.05583215,-161.92184036
174.76042685,-65.79359644,62.09093838,59.43888112,66.19695589,115.97765287
-48.97642454,61.73392605,65.10243426,-172.89402534,-0.11088734,7.54219890
10.52308341,-0.31344328,0.58863068,-1.36957337

>  <Name>
lig.pdb

>  <RI>
0

>  <Rbt.Current_Directory>
/home/itssahil/PROJECTS/Mol_Feturizer/New_Systems/rnas/2m4q

>  <Rbt.Executable>
rbdock ($Id: //depot/dev/client3/rdock/2013.1/src/exe/rbdock.cxx#4 $)

>  <Rbt.Library>
libRbt.so (2013.1, Build901 2013/11/27)

>  <Rbt.Parameter_File>
/export/apps/rDock/src/rDock_2013.1_src/data/scripts/dock_solv.prm

>  <Rbt.Receptor>
prm/pocket_docking_7.prm

>  <SCORE>
-40.1656

>  <SCORE.INTER>
-23.7471

>  <SCORE.INTER.CONST>
1

>  <SCORE.INTER.POLAR>
-3.15493

>  <SCORE.INTER.ROT>
10

>  <SCORE.INTER.SOLV>
15.6739

>  <SCORE.INTER.VDW>
-20.8063

>  <SCORE.INTER.norm>
-0.641813

>  <SCORE.INTRA>
-16.4186

>  <SCORE.INTRA.DIHEDRAL>
-30.6211

>  <SCORE.INTRA.DIHEDRAL.0>
44.8331

>  <SCORE.INTRA.POLAR>
0.108895

>  <SCORE.INTRA.POLAR.0>
-0.108895

>  <SCORE.INTRA.REPUL>
-0.00912235

>  <SCORE.INTRA.REPUL.0>
0.00912235

>  <SCORE.INTRA.SOLV>
-0.632944

>  <SCORE.INTRA.SOLV.lig_0>
-53.9067

>  <SCORE.INTRA.VDW>
-1.11619

>  <SCORE.INTRA.VDW.0>
-2.93492

>  <SCORE.INTRA.norm>
-0.443745

>  <SCORE.RESTR>
0

>  <SCORE.RESTR.CAVITY>
0

>  <SCORE.RESTR.norm>
0

>  <SCORE.SYSTEM>
0

>  <SCORE.SYSTEM.CONST>
0

>  <SCORE.SYSTEM.DIHEDRAL>
0

>  <SCORE.SYSTEM.SOLV>
0

>  <SCORE.SYSTEM.norm>
0

>  <SCORE.heavy>
37

>  <SCORE.norm>
-1.08556

>  <RMSD>
9.860

$$$$
lig.pdb
 OpenBabel11021811453D
libRbt.so/2013.1/901 2013/11/27
 37 40  0  0  0  0  0  0  0  0999 V2000
    1.2500    4.7324    9.8962 C   0  0  2  0  0  0  0  0  0  0  0  0
    0.7263    4.9682    8.4411 C   0  0  1  0  0  0  0  0  0  0  0  0
   -0.0339    6.3162    8.2715 C   0  0  0  0  0  0  0  0  0  0  0  0
   -1.0940    6.5023    9.3853 C   0  0  1  0  0  0  0  0  0  0  0  0
   -0.4251    6.3859   10.7732 C   0  0  1  0  0  0  0  0  0  0  0  0
   -1.4573    6.6151   11.9098 C   0  0  1  0  0  0  0  0  0  0  0  0
   -2.2142    7.9619   11.7095 C   0  0  1  0  0  0  0  0  0  0  0  0
   -2.8082    8.0895   10.2753 C   0  0  2  0  0  0  0  0  0  0  0  0
   -3.5954    9.5079   13.0193 C   0  0  0  0  0  0  0  0  0  0  0  0
    0.2529    5.1032   10.9029 O   0  0  0  0  0  0  0  0  0  0  0  0
   -1.8171    7.7601    9.2540 O   0  0  0  0  0  0  0  0  0  0  0  0
    1.8563    4.9123    7.4884 N   0  0  0  0  0  0  0  0  0  0  0  0
   -3.2523    8.0944   12.7525 N   0  0  0  0  0  0  0  0  0  0  0  0
   -2.3641    5.5247   12.0116 O   0  0  0  0  0  0  0  0  0  0  0  0
   -3.3576    9.4237   10.0690 O   0  0  0  0  0  0  0  0  0  0  0  0
    2.5012    5.4483   10.1294 O   0  0  0  0  0  0  0  0  0  0  0  0
   -2.4503   10.4970    9.6707 C   0  0  2  0  0  0  0  0  0  0  0  0
   -3.2270   11.8225    9.4290 C   0  0  1  0  0  0  0  0  0  0  0  0
   -4.0966   11.7536    8.1410 C   0  0  2  0  0  0  0  0  0  0  0  0
   -3.2477   11.3146    6.9128 C   0  0  1  0  0  0  0  0  0  0  0  0
   -2.4620   10.0067    7.2090 C   0  0  1  0  0  0  0  0  0  0  0  0
   -1.5071    9.6304    6.0459 C   0  0  0  0  0  0  0  0  0  0  0  0
   -1.7216   10.1303    8.4612 O   0  0  0  0  0  0  0  0  0  0  0  0
   -4.0824   11.1799    5.6989 N   0  0  0  0  0  0  0  0  0  0  0  0
   -4.0056   12.1630   10.5747 O   0  0  0  0  0  0  0  0  0  0  0  0
   -4.7521   12.9959    7.8952 O   0  0  0  0  0  0  0  0  0  0  0  0
   -0.4310   10.5582    5.9528 O   0  0  0  0  0  0  0  0  0  0  0  0
    3.3383    5.0058   11.2373 C   0  0  1  0  0  0  0  0  0  0  0  0
    4.7414    4.5406   10.7565 C   0  0  1  0  0  0  0  0  0  0  0  0
    5.5824    3.9829   11.9392 C   0  0  2  0  0  0  0  0  0  0  0  0
    5.6809    4.9920   13.1291 C   0  0  1  0  0  0  0  0  0  0  0  0
    4.2980    5.5780   13.5438 C   0  0  0  0  0  0  0  0  0  0  0  0
    3.4797    6.1061   12.3271 C   0  0  2  0  0  0  0  0  0  0  0  0
    6.3598    4.3734   14.2877 N   0  0  0  0  0  0  0  0  0  0  0  0
    2.1655    6.5951   12.7974 N   0  0  0  0  0  0  0  0  0  0  0  0
    4.6262    3.5737    9.7176 O   0  0  0  0  0  0  0  0  0  0  0  0
    6.8838    3.6105   11.4926 O   0  0  0  0  0  0  0  0  0  0  0  0
  1  2  1  0  0  0  0
  1 16  1  1  0  0  0
  2  3  1  0  0  0  0
  2 12  1  6  0  0  0
  4 11  1  6  0  0  0
  4  3  1  0  0  0  0
  5  4  1  0  0  0  0
  5 10  1  1  0  0  0
  6  7  1  0  0  0  0
  6  5  1  0  0  0  0
  6 14  1  6  0  0  0
  7  8  1  0  0  0  0
  7 13  1  1  0  0  0
  8 15  1  6  0  0  0
  8 11  1  0  0  0  0
  9 13  1  0  0  0  0
 10  1  1  0  0  0  0
 17 15  1  6  0  0  0
 17 18  1  0  0  0  0
 18 25  1  1  0  0  0
 19 18  1  0  0  0  0
 19 26  1  6  0  0  0
 20 19  1  0  0  0  0
 20 24  1  6  0  0  0
 21 23  1  0  0  0  0
 21 20  1  0  0  0  0
 21 22  1  6  0  0  0
 23 17  1  0  0  0  0
 27 22  1  0  0  0  0
 28 29  1  0  0  0  0
 28 16  1  6  0  0  0
 29 36  1  6  0  0  0
 30 37  1  6  0  0  0
 30 29  1  0  0  0  0
 31 30  1  0  0  0  0
 31 34  1  1  0  0  0
 32 31  1  0  0  0  0
 32 33  1  0  0  0  0
 33 28  1  0  0  0  0
 33 35  1  1  0  0  0
M  END
>  <CHROM.1>
-177.56167113,83.57608231,154.87521334,-162.17113549,177.09585530,-160.28520374
-57.27564457,-81.34883035,68.95920641,-53.13253670,60.37367517,119.42684820
-52.46498394,-64.32694722,-179.42806790,15.97696018,-0.03238923,7.52100685
10.08018388,-0.43953987,0.60486676,-1.35857576

>  <Name>
lig.pdb

>  <RI>
0

>  <Rbt.Current_Directory>
/home/itssahil/PROJECTS/Mol_Feturizer/New_Systems/rnas/2m4q

>  <Rbt.Executable>
rbdock ($Id: //depot/dev/client3/rdock/2013.1/src/exe/rbdock.cxx#4 $)

>  <Rbt.Library>
libRbt.so (2013.1, Build901 2013/11/27)

>  <Rbt.Parameter_File>
/export/apps/rDock/src/rDock_2013.1_src/data/scripts/dock_solv.prm

>  <Rbt.Receptor>
prm/pocket_docking_3.prm

>  <SCORE>
-43.3437

>  <SCORE.INTER>
-26.7561

>  <SCORE.INTER.CONST>
1

>  <SCORE.INTER.POLAR>
-3.52818

>  <SCORE.INTER.ROT>
10

>  <SCORE.INTER.SOLV>
15.5174

>  <SCORE.INTER.VDW>
-21.5159

>  <SCORE.INTER.norm>
-0.723137

>  <SCORE.INTRA>
-16.6

>  <SCORE.INTRA.DIHEDRAL>
-26.025

>  <SCORE.INTRA.DIHEDRAL.0>
44.8331

>  <SCORE.INTRA.POLAR>
-0.709267

>  <SCORE.INTRA.POLAR.0>
-0.108895

>  <SCORE.INTRA.REPUL>
-0.00912235

>  <SCORE.INTRA.REPUL.0>
0.00912235

>  <SCORE.INTRA.SOLV>
-0.531124

>  <SCORE.INTRA.SOLV.lig_0>
-53.9067

>  <SCORE.INTRA.VDW>
-0.864864

>  <SCORE.INTRA.VDW.0>
-2.93492

>  <SCORE.INTRA.norm>
-0.448649

>  <SCORE.RESTR>
0.0124111

>  <SCORE.RESTR.CAVITY>
0.0124111

>  <SCORE.RESTR.norm>
0.000335436

>  <SCORE.SYSTEM>
0

>  <SCORE.SYSTEM.CONST>
0

>  <SCORE.SYSTEM.DIHEDRAL>
0

>  <SCORE.SYSTEM.SOLV>
0

>  <SCORE.SYSTEM.norm>
0

>  <SCORE.heavy>
37

>  <SCORE.norm>
-1.17145

>  <RMSD>
9.864

$$$$
lig.pdb
 OpenBabel11021811453D
libRbt.so/2013.1/901 2013/11/27
 37 40  0  0  0  0  0  0  0  0999 V2000
   -0.2631    6.7892    7.1270 C   0  0  2  0  0  0  0  0  0  0  0  0
   -0.8796    7.5671    5.9179 C   0  0  1  0  0  0  0  0  0  0  0  0
   -1.3738    8.9951    6.2924 C   0  0  0  0  0  0  0  0  0  0  0  0
   -2.2543    8.9641    7.5663 C   0  0  1  0  0  0  0  0  0  0  0  0
   -1.4799    8.2975    8.7252 C   0  0  1  0  0  0  0  0  0  0  0  0
   -2.3223    8.2948   10.0291 C   0  0  1  0  0  0  0  0  0  0  0  0
   -2.8167    9.7313   10.3738 C   0  0  1  0  0  0  0  0  0  0  0  0
   -3.5209   10.4122    9.1627 C   0  0  2  0  0  0  0  0  0  0  0  0
   -2.9431    9.3336   12.7903 C   0  0  0  0  0  0  0  0  0  0  0  0
   -1.0570    6.9559    8.3465 O   0  0  0  0  0  0  0  0  0  0  0  0
   -2.7261   10.2897    7.9432 O   0  0  0  0  0  0  0  0  0  0  0  0
    0.1114    7.6558    4.8236 N   0  0  0  0  0  0  0  0  0  0  0  0
   -3.6937    9.6702   11.5614 N   0  0  0  0  0  0  0  0  0  0  0  0
   -3.4097    7.3833    9.9395 O   0  0  0  0  0  0  0  0  0  0  0  0
   -3.8162   11.8073    9.4643 O   0  0  0  0  0  0  0  0  0  0  0  0
    1.1217    7.1891    7.3612 O   0  0  0  0  0  0  0  0  0  0  0  0
   -2.7255   12.7776    9.4114 C   0  0  2  0  0  0  0  0  0  0  0  0
   -3.1430   14.1220   10.0725 C   0  0  1  0  0  0  0  0  0  0  0  0
   -4.1871   14.8878    9.2104 C   0  0  2  0  0  0  0  0  0  0  0  0
   -3.6887   15.0601    7.7462 C   0  0  1  0  0  0  0  0  0  0  0  0
   -3.2496   13.6997    7.1364 C   0  0  1  0  0  0  0  0  0  0  0  0
   -2.6235   13.8732    5.7277 C   0  0  0  0  0  0  0  0  0  0  0  0
   -2.3190   13.0176    8.0310 O   0  0  0  0  0  0  0  0  0  0  0  0
   -4.7060   15.7263    6.9037 N   0  0  0  0  0  0  0  0  0  0  0  0
   -3.6138   13.9021   11.4009 O   0  0  0  0  0  0  0  0  0  0  0  0
   -4.5124   16.1475    9.7942 O   0  0  0  0  0  0  0  0  0  0  0  0
   -2.0885   12.6412    5.2552 O   0  0  0  0  0  0  0  0  0  0  0  0
    1.7641    6.7222    8.5832 C   0  0  1  0  0  0  0  0  0  0  0  0
    1.3066    7.5338    9.8275 C   0  0  1  0  0  0  0  0  0  0  0  0
    2.0745    7.0848   11.1026 C   0  0  2  0  0  0  0  0  0  0  0  0
    1.9769    5.5437   11.3459 C   0  0  1  0  0  0  0  0  0  0  0  0
    2.3008    4.7066   10.0723 C   0  0  0  0  0  0  0  0  0  0  0  0
    1.5267    5.2027    8.8140 C   0  0  2  0  0  0  0  0  0  0  0  0
    2.8362    5.1351   12.4775 N   0  0  0  0  0  0  0  0  0  0  0  0
    1.9276    4.3931    7.6430 N   0  0  0  0  0  0  0  0  0  0  0  0
    1.4656    8.9315    9.6072 O   0  0  0  0  0  0  0  0  0  0  0  0
    1.6065    7.8001   12.2432 O   0  0  0  0  0  0  0  0  0  0  0  0
  1  2  1  0  0  0  0
  1 16  1  1  0  0  0
  2  3  1  0  0  0  0
  2 12  1  6  0  0  0
  4 11  1  1  0  0  0
  4  3  1  0  0  0  0
  5  4  1  0  0  0  0
  5 10  1  6  0  0  0
  6  7  1  0  0  0  0
  6  5  1  0  0  0  0
  6 14  1  6  0  0  0
  7  8  1  0  0  0  0
  7 13  1  1  0  0  0
  8 15  1  1  0  0  0
  8 11  1  0  0  0  0
  9 13  1  0  0  0  0
 10  1  1  0  0  0  0
 17 15  1  6  0  0  0
 17 18  1  0  0  0  0
 18 25  1  1  0  0  0
 19 18  1  0  0  0  0
 19 26  1  1  0  0  0
 20 19  1  0  0  0  0
 20 24  1  6  0  0  0
 21 23  1  0  0  0  0
 21 20  1  0  0  0  0
 21 22  1  6  0  0  0
 23 17  1  0  0  0  0
 27 22  1  0  0  0  0
 28 29  1  0  0  0  0
 28 16  1  6  0  0  0
 29 36  1  6  0  0  0
 30 37  1  1  0  0  0
 30 29  1  0  0  0  0
 31 30  1  0  0  0  0
 31 34  1  1  0  0  0
 32 31  1  0  0  0  0
 32 33  1  0  0  0  0
 33 28  1  0  0  0  0
 33 35  1  6  0  0  0
M  END
>  <CHROM.1>
-170.44345730,76.98488334,69.21868330,-56.15015408,-166.78355948,170.03506542
60.81785127,60.92291666,173.21672912,-53.17927828,-55.67729661,-77.21683751
57.23498403,-61.12628663,-62.06153927,83.58939598,-1.34279434,9.71826901
8.92097022,-0.18243699,0.99698017,-1.48315759

>  <Name>
lig.pdb

>  <RI>
3.60165e+07

>  <Rbt.Current_Directory>
/home/itssahil/PROJECTS/Mol_Feturizer/New_Systems/rnas/2m4q

>  <Rbt.Executable>
rbdock ($Id: //depot/dev/client3/rdock/2013.1/src/exe/rbdock.cxx#4 $)

>  <Rbt.Library>
libRbt.so (2013.1, Build901 2013/11/27)

>  <Rbt.Parameter_File>
/export/apps/rDock/src/rDock_2013.1_src/data/scripts/dock_solv.prm

>  <Rbt.Receptor>
prm/pocket_docking_8.prm

>  <SCORE>
-43.8629

>  <SCORE.INTER>
-24.1869

>  <SCORE.INTER.CONST>
1

>  <SCORE.INTER.POLAR>
-3.38875

>  <SCORE.INTER.ROT>
10

>  <SCORE.INTER.SOLV>
18.1297

>  <SCORE.INTER.VDW>
-21.1387

>  <SCORE.INTER.norm>
-0.6537

>  <SCORE.INTRA>
-19.676

>  <SCORE.INTRA.DIHEDRAL>
-38.4433

>  <SCORE.INTRA.DIHEDRAL.0>
44.8331

>  <SCORE.INTRA.POLAR>
0.0424384

>  <SCORE.INTRA.POLAR.0>
-0.108895

>  <SCORE.INTRA.REPUL>
-0.00912235

>  <SCORE.INTRA.REPUL.0>
0.00912235

>  <SCORE.INTRA.SOLV>
-1.10321

>  <SCORE.INTRA.SOLV.lig_0>
-53.9067

>  <SCORE.INTRA.VDW>
-0.00143275

>  <SCORE.INTRA.VDW.0>
-2.93492

>  <SCORE.INTRA.norm>
-0.531783

>  <SCORE.RESTR>
0

>  <SCORE.RESTR.CAVITY>
0

>  <SCORE.RESTR.norm>
0

>  <SCORE.SYSTEM>
0

>  <SCORE.SYSTEM.CONST>
0

>  <SCORE.SYSTEM.DIHEDRAL>
0

>  <SCORE.SYSTEM.SOLV>
0

>  <SCORE.SYSTEM.norm>
0

>  <SCORE.heavy>
37

>  <SCORE.norm>
-1.18548

>  <RMSD>
9.864

$$$$
lig.pdb
 OpenBabel11021811453D
libRbt.so/2013.1/901 2013/11/27
 37 40  0  0  0  0  0  0  0  0999 V2000
    1.9436    4.4793    9.7959 C   0  0  2  0  0  0  0  0  0  0  0  0
    1.3454    4.7377    8.3738 C   0  0  1  0  0  0  0  0  0  0  0  0
    0.4586    6.0153    8.3020 C   0  0  0  0  0  0  0  0  0  0  0  0
   -0.5710    6.0450    9.4587 C   0  0  1  0  0  0  0  0  0  0  0  0
    0.1582    5.9224   10.8154 C   0  0  1  0  0  0  0  0  0  0  0  0
   -0.8467    5.9964   11.9963 C   0  0  1  0  0  0  0  0  0  0  0  0
   -1.7312    7.2745   11.8937 C   0  0  1  0  0  0  0  0  0  0  0  0
   -2.3887    7.4177   10.4889 C   0  0  2  0  0  0  0  0  0  0  0  0
   -2.9274    8.5929   13.5804 C   0  0  0  0  0  0  0  0  0  0  0  0
    0.9558    4.7040   10.8537 O   0  0  0  0  0  0  0  0  0  0  0  0
   -1.4111    7.2343    9.4191 O   0  0  0  0  0  0  0  0  0  0  0  0
    2.4387    4.8359    7.3824 N   0  0  0  0  0  0  0  0  0  0  0  0
   -2.7366    7.2566   12.9762 N   0  0  0  0  0  0  0  0  0  0  0  0
   -1.6448    4.8220   12.0697 O   0  0  0  0  0  0  0  0  0  0  0  0
   -3.0659    8.7032   10.3726 O   0  0  0  0  0  0  0  0  0  0  0  0
    3.1317    5.2969   10.0253 O   0  0  0  0  0  0  0  0  0  0  0  0
   -2.2696    9.8832   10.0452 C   0  0  2  0  0  0  0  0  0  0  0  0
   -3.0973   11.1855   10.2392 C   0  0  1  0  0  0  0  0  0  0  0  0
   -4.2017   11.3329    9.1536 C   0  0  2  0  0  0  0  0  0  0  0  0
   -3.6041   11.2006    7.7228 C   0  0  1  0  0  0  0  0  0  0  0  0
   -2.7571    9.9049    7.5831 C   0  0  1  0  0  0  0  0  0  0  0  0
   -2.0438    9.8265    6.2078 C   0  0  0  0  0  0  0  0  0  0  0  0
   -1.7873    9.8112    8.6702 O   0  0  0  0  0  0  0  0  0  0  0  0
   -4.6588   11.2706    6.6878 N   0  0  0  0  0  0  0  0  0  0  0  0
   -3.6406   11.2422   11.5569 O   0  0  0  0  0  0  0  0  0  0  0  0
   -4.9101   12.5614    9.3032 O   0  0  0  0  0  0  0  0  0  0  0  0
   -1.8657    8.4724    5.8054 O   0  0  0  0  0  0  0  0  0  0  0  0
    4.2381    4.6934   10.7573 C   0  0  1  0  0  0  0  0  0  0  0  0
    3.8469    4.3476   12.2214 C   0  0  1  0  0  0  0  0  0  0  0  0
    5.0667    3.7954   13.0117 C   0  0  2  0  0  0  0  0  0  0  0  0
    5.7466    2.5863   12.2908 C   0  0  1  0  0  0  0  0  0  0  0  0
    6.0277    2.8591   10.7827 C   0  0  0  0  0  0  0  0  0  0  0  0
    4.7864    3.4308   10.0337 C   0  0  2  0  0  0  0  0  0  0  0  0
    6.9840    2.1843   12.9931 N   0  0  0  0  0  0  0  0  0  0  0  0
    5.1500    3.7097    8.6275 N   0  0  0  0  0  0  0  0  0  0  0  0
    3.2899    5.4815   12.8784 O   0  0  0  0  0  0  0  0  0  0  0  0
    4.6800    3.4334   14.3350 O   0  0  0  0  0  0  0  0  0  0  0  0
  1  2  1  0  0  0  0
  1 16  1  1  0  0  0
  2  3  1  0  0  0  0
  2 12  1  6  0  0  0
  4 11  1  1  0  0  0
  4  3  1  0  0  0  0
  5  4  1  0  0  0  0
  5 10  1  6  0  0  0
  6  7  1  0  0  0  0
  6  5  1  0  0  0  0
  6 14  1  6  0  0  0
  7  8  1  0  0  0  0
  7 13  1  1  0  0  0
  8 15  1  1  0  0  0
  8 11  1  0  0  0  0
  9 13  1  0  0  0  0
 10  1  1  0  0  0  0
 17 15  1  6  0  0  0
 17 18  1  0  0  0  0
 18 25  1  1  0  0  0
 19 18  1  0  0  0  0
 19 26  1  6  0  0  0
 20 19  1  0  0  0  0
 20 24  1  6  0  0  0
 21 23  1  0  0  0  0
 21 20  1  0  0  0  0
 21 22  1  6  0  0  0
 23 17  1  0  0  0  0
 27 22  1  0  0  0  0
 28 29  1  0  0  0  0
 28 16  1  6  0  0  0
 29 36  1  1  0  0  0
 30 37  1  1  0  0  0
 30 29  1  0  0  0  0
 31 30  1  0  0  0  0
 31 34  1  1  0  0  0
 32 31  1  0  0  0  0
 32 33  1  0  0  0  0
 33 28  1  0  0  0  0
 33 35  1  6  0  0  0
M  END
>  <CHROM.1>
-54.37100621,81.60756358,139.37127748,26.28475295,-168.79153448,-141.63305649
-52.77685060,-68.22932540,-150.36514516,178.49891354,-176.42508095,-64.37416672
-59.36181092,-171.78443773,173.22160199,-60.93019766,0.19608318,6.84182420
10.23823814,-0.33521256,0.65956491,-1.41108715

>  <Name>
lig.pdb

>  <RI>
3.87352e+07

>  <Rbt.Current_Directory>
/home/itssahil/PROJECTS/Mol_Feturizer/New_Systems/rnas/2m4q

>  <Rbt.Executable>
rbdock ($Id: //depot/dev/client3/rdock/2013.1/src/exe/rbdock.cxx#4 $)

>  <Rbt.Library>
libRbt.so (2013.1, Build901 2013/11/27)

>  <Rbt.Parameter_File>
/export/apps/rDock/src/rDock_2013.1_src/data/scripts/dock_solv.prm

>  <Rbt.Receptor>
prm/pocket_docking_4.prm

>  <SCORE>
-46.2201

>  <SCORE.INTER>
-28.2426

>  <SCORE.INTER.CONST>
1

>  <SCORE.INTER.POLAR>
-3.24032

>  <SCORE.INTER.ROT>
10

>  <SCORE.INTER.SOLV>
18.7827

>  <SCORE.INTER.VDW>
-24.5549

>  <SCORE.INTER.norm>
-0.763314

>  <SCORE.INTRA>
-17.9775

>  <SCORE.INTRA.DIHEDRAL>
-26.7209

>  <SCORE.INTRA.DIHEDRAL.0>
44.8331

>  <SCORE.INTRA.POLAR>
-1.15223

>  <SCORE.INTRA.POLAR.0>
-0.108895

>  <SCORE.INTRA.REPUL>
0.0520537

>  <SCORE.INTRA.REPUL.0>
0.00912235

>  <SCORE.INTRA.SOLV>
-0.673833

>  <SCORE.INTRA.SOLV.lig_0>
-53.9067

>  <SCORE.INTRA.VDW>
-0.622811

>  <SCORE.INTRA.VDW.0>
-2.93492

>  <SCORE.INTRA.norm>
-0.485878

>  <SCORE.RESTR>
0

>  <SCORE.RESTR.CAVITY>
0

>  <SCORE.RESTR.norm>
0

>  <SCORE.SYSTEM>
0

>  <SCORE.SYSTEM.CONST>
0

>  <SCORE.SYSTEM.DIHEDRAL>
0

>  <SCORE.SYSTEM.SOLV>
0

>  <SCORE.SYSTEM.norm>
0

>  <SCORE.heavy>
37

>  <SCORE.norm>
-1.24919

>  <RMSD>
9.868

$$$$
lig.pdb
 OpenBabel11021811453D
libRbt.so/2013.1/901 2013/11/27
 37 40  0  0  0  0  0  0  0  0999 V2000
    1.0647    4.9966    9.6895 C   0  0  2  0  0  0  0  0  0  0  0  0
    0.3402    5.1830    8.3157 C   0  0  1  0  0  0  0  0  0  0  0  0
   -0.4804    6.5030    8.2268 C   0  0  0  0  0  0  0  0  0  0  0  0
   -1.3846    6.6822    9.4715 C   0  0  1  0  0  0  0  0  0  0  0  0
   -0.5294    6.6181   10.7568 C   0  0  1  0  0  0  0  0  0  0  0  0
   -1.4043    6.8417   12.0194 C   0  0  1  0  0  0  0  0  0  0  0  0
   -2.2258    8.1598   11.8997 C   0  0  1  0  0  0  0  0  0  0  0  0
   -3.0135    8.2364   10.5581 C   0  0  2  0  0  0  0  0  0  0  0  0
   -3.4560    9.6937   13.3651 C   0  0  0  0  0  0  0  0  0  0  0  0
    0.2023    5.3598   10.8162 O   0  0  0  0  0  0  0  0  0  0  0  0
   -2.1603    7.9140    9.4171 O   0  0  0  0  0  0  0  0  0  0  0  0
    1.3312    5.1397    7.2185 N   0  0  0  0  0  0  0  0  0  0  0  0
   -3.1160    8.2845   13.0723 N   0  0  0  0  0  0  0  0  0  0  0  0
   -2.2519    5.7268   12.2645 O   0  0  0  0  0  0  0  0  0  0  0  0
   -3.6300    9.5482   10.4042 O   0  0  0  0  0  0  0  0  0  0  0  0
    2.3116    5.7554    9.7360 O   0  0  0  0  0  0  0  0  0  0  0  0
   -2.7932   10.6652    9.9730 C   0  0  2  0  0  0  0  0  0  0  0  0
   -3.6016   11.9937    9.9575 C   0  0  1  0  0  0  0  0  0  0  0  0
   -4.6465   12.0184    8.8054 C   0  0  2  0  0  0  0  0  0  0  0  0
   -3.9806   11.6966    7.4361 C   0  0  1  0  0  0  0  0  0  0  0  0
   -3.1556   10.3813    7.5056 C   0  0  1  0  0  0  0  0  0  0  0  0
   -2.3758   10.1183    6.1906 C   0  0  0  0  0  0  0  0  0  0  0  0
   -2.2439   10.4120    8.6454 O   0  0  0  0  0  0  0  0  0  0  0  0
   -4.9801   11.6502    6.3465 N   0  0  0  0  0  0  0  0  0  0  0  0
   -4.2092   12.2253   11.2271 O   0  0  0  0  0  0  0  0  0  0  0  0
   -5.3351   13.2663    8.7614 O   0  0  0  0  0  0  0  0  0  0  0  0
   -1.5020    9.0032    6.3336 O   0  0  0  0  0  0  0  0  0  0  0  0
    3.4688    5.1195   10.3526 C   0  0  1  0  0  0  0  0  0  0  0  0
    3.1627    4.6281   11.7951 C   0  0  1  0  0  0  0  0  0  0  0  0
    4.4349    4.0411   12.4690 C   0  0  2  0  0  0  0  0  0  0  0  0
    5.1062    2.9246   11.6049 C   0  0  1  0  0  0  0  0  0  0  0  0
    5.3022    3.3441   10.1172 C   0  0  0  0  0  0  0  0  0  0  0  0
    4.0100    3.9461    9.4873 C   0  0  2  0  0  0  0  0  0  0  0  0
    6.3879    2.4958   12.2046 N   0  0  0  0  0  0  0  0  0  0  0  0
    4.2934    4.3648    8.0974 N   0  0  0  0  0  0  0  0  0  0  0  0
    2.6126    5.6793   12.5825 O   0  0  0  0  0  0  0  0  0  0  0  0
    4.1263    3.5467   13.7697 O   0  0  0  0  0  0  0  0  0  0  0  0
  1  2  1  0  0  0  0
  1 16  1  6  0  0  0
  2  3  1  0  0  0  0
  2 12  1  6  0  0  0
  4 11  1  6  0  0  0
  4  3  1  0  0  0  0
  5  4  1  0  0  0  0
  5 10  1  1  0  0  0
  6  7  1  0  0  0  0
  6  5  1  0  0  0  0
  6 14  1  6  0  0  0
  7  8  1  0  0  0  0
  7 13  1  1  0  0  0
  8 15  1  6  0  0  0
  8 11  1  0  0  0  0
  9 13  1  0  0  0  0
 10  1  1  0  0  0  0
 17 15  1  6  0  0  0
 17 18  1  0  0  0  0
 18 25  1  1  0  0  0
 19 18  1  0  0  0  0
 19 26  1  6  0  0  0
 20 19  1  0  0  0  0
 20 24  1  6  0  0  0
 21 23  1  0  0  0  0
 21 20  1  0  0  0  0
 21 22  1  6  0  0  0
 23 17  1  0  0  0  0
 27 22  1  0  0  0  0
 28 29  1  0  0  0  0
 28 16  1  6  0  0  0
 29 36  1  1  0  0  0
 30 37  1  1  0  0  0
 30 29  1  0  0  0  0
 31 30  1  0  0  0  0
 31 34  1  1  0  0  0
 32 31  1  0  0  0  0
 32 33  1  0  0  0  0
 33 28  1  0  0  0  0
 33 35  1  6  0  0  0
M  END
>  <CHROM.1>
-69.54614978,78.48630294,154.33038717,57.77383297,-176.23898967,-139.03102142
174.72603642,-72.19996342,172.80443265,171.22516150,-61.32577920,-54.50357657
175.38191511,-66.41031317,67.01810815,-67.19414546,-0.40740062,7.43147746
10.03432901,-0.30750988,0.70194856,-1.39768140

>  <Name>
lig.pdb

>  <RI>
0

>  <Rbt.Current_Directory>
/home/itssahil/PROJECTS/Mol_Feturizer/New_Systems/rnas/2m4q

>  <Rbt.Executable>
rbdock ($Id: //depot/dev/client3/rdock/2013.1/src/exe/rbdock.cxx#4 $)

>  <Rbt.Library>
libRbt.so (2013.1, Build901 2013/11/27)

>  <Rbt.Parameter_File>
/export/apps/rDock/src/rDock_2013.1_src/data/scripts/dock_solv.prm

>  <Rbt.Receptor>
prm/pocket_docking_2.prm

>  <SCORE>
-42.1999

>  <SCORE.INTER>
-21.602

>  <SCORE.INTER.CONST>
1

>  <SCORE.INTER.POLAR>
-2.0022

>  <SCORE.INTER.ROT>
10

>  <SCORE.INTER.SOLV>
17.5594

>  <SCORE.INTER.VDW>
-23.8471

>  <SCORE.INTER.norm>
-0.583838

>  <SCORE.INTRA>
-21.3977

>  <SCORE.INTRA.DIHEDRAL>
-34.3115

>  <SCORE.INTRA.DIHEDRAL.0>
44.8331

>  <SCORE.INTRA.POLAR>
-0.925474

>  <SCORE.INTRA.POLAR.0>
-0.108895

>  <SCORE.INTRA.REPUL>
-0.00912235

>  <SCORE.INTRA.REPUL.0>
0.00912235

>  <SCORE.INTRA.SOLV>
0.263679

>  <SCORE.INTRA.SOLV.lig_0>
-53.9067

>  <SCORE.INTRA.VDW>
-1.1816

>  <SCORE.INTRA.VDW.0>
-2.93492

>  <SCORE.INTRA.norm>
-0.578317

>  <SCORE.RESTR>
0.799798

>  <SCORE.RESTR.CAVITY>
0.799798

>  <SCORE.RESTR.norm>
0.0216162

>  <SCORE.SYSTEM>
0

>  <SCORE.SYSTEM.CONST>
0

>  <SCORE.SYSTEM.DIHEDRAL>
0

>  <SCORE.SYSTEM.SOLV>
0

>  <SCORE.SYSTEM.norm>
0

>  <SCORE.heavy>
37

>  <SCORE.norm>
-1.14054

>  <RMSD>
9.871

$$$$
lig.pdb
 OpenBabel11021811453D
libRbt.so/2013.1/901 2013/11/27
 37 40  0  0  0  0  0  0  0  0999 V2000
    1.2155    4.9634    9.7691 C   0  0  2  0  0  0  0  0  0  0  0  0
    0.5933    5.1355    8.3442 C   0  0  1  0  0  0  0  0  0  0  0  0
   -0.2247    6.4505    8.1846 C   0  0  0  0  0  0  0  0  0  0  0  0
   -1.2189    6.6345    9.3578 C   0  0  1  0  0  0  0  0  0  0  0  0
   -0.4605    6.5847   10.7031 C   0  0  1  0  0  0  0  0  0  0  0  0
   -1.4269    6.8134   11.8961 C   0  0  1  0  0  0  0  0  0  0  0  0
   -2.2435    8.1263   11.7056 C   0  0  1  0  0  0  0  0  0  0  0  0
   -2.9306    8.1885   10.3091 C   0  0  2  0  0  0  0  0  0  0  0  0
   -3.5333    9.6685   13.1098 C   0  0  0  0  0  0  0  0  0  0  0  0
    0.2707    5.3307   10.8263 O   0  0  0  0  0  0  0  0  0  0  0  0
   -1.9942    7.8618    9.2366 O   0  0  0  0  0  0  0  0  0  0  0  0
    1.6626    5.0889    7.3234 N   0  0  0  0  0  0  0  0  0  0  0  0
   -3.2182    8.2553   12.8084 N   0  0  0  0  0  0  0  0  0  0  0  0
   -2.2852    5.6960   12.0870 O   0  0  0  0  0  0  0  0  0  0  0  0
   -3.5401    9.4959   10.0997 O   0  0  0  0  0  0  0  0  0  0  0  0
    2.4520    5.7290    9.9012 O   0  0  0  0  0  0  0  0  0  0  0  0
   -2.6913   10.5966    9.6506 C   0  0  2  0  0  0  0  0  0  0  0  0
   -3.4363   11.9570    9.7641 C   0  0  1  0  0  0  0  0  0  0  0  0
   -4.5705   12.0824    8.7069 C   0  0  2  0  0  0  0  0  0  0  0  0
   -4.0354   11.8008    7.2729 C   0  0  1  0  0  0  0  0  0  0  0  0
   -3.2688   10.4501    7.2123 C   0  0  1  0  0  0  0  0  0  0  0  0
   -2.6131   10.2197    5.8255 C   0  0  0  0  0  0  0  0  0  0  0  0
   -2.2657   10.3863    8.2711 O   0  0  0  0  0  0  0  0  0  0  0  0
   -5.1225   11.8501    6.2708 N   0  0  0  0  0  0  0  0  0  0  0  0
   -3.9257   12.1511   11.0898 O   0  0  0  0  0  0  0  0  0  0  0  0
   -5.2023   13.3587    8.7783 O   0  0  0  0  0  0  0  0  0  0  0  0
   -1.3783    9.5233    5.9577 O   0  0  0  0  0  0  0  0  0  0  0  0
    3.4754    5.2127   10.8011 C   0  0  1  0  0  0  0  0  0  0  0  0
    2.9102    4.9238   12.2200 C   0  0  1  0  0  0  0  0  0  0  0  0
    4.0365    4.4667   13.1894 C   0  0  2  0  0  0  0  0  0  0  0  0
    4.8493    3.2542   12.6297 C   0  0  1  0  0  0  0  0  0  0  0  0
    5.3140    3.4631   11.1572 C   0  0  0  0  0  0  0  0  0  0  0  0
    4.1603    3.9409   10.2249 C   0  0  2  0  0  0  0  0  0  0  0  0
    5.9989    2.9432   13.5059 N   0  0  0  0  0  0  0  0  0  0  0  0
    4.6931    4.1647    8.8635 N   0  0  0  0  0  0  0  0  0  0  0  0
    2.2303    6.0635   12.7363 O   0  0  0  0  0  0  0  0  0  0  0  0
    3.4946    4.1547   14.4703 O   0  0  0  0  0  0  0  0  0  0  0  0
  1  2  1  0  0  0  0
  1 16  1  6  0  0  0
  2  3  1  0  0  0  0
  2 12  1  6  0  0  0
  4 11  1  6  0  0  0
  4  3  1  0  0  0  0
  5  4  1  0  0  0  0
  5 10  1  1  0  0  0
  6  7  1  0  0  0  0
  6  5  1  0  0  0  0
  6 14  1  6  0  0  0
  7  8  1  0  0  0  0
  7 13  1  1  0  0  0
  8 15  1  6  0  0  0
  8 11  1  0  0  0  0
  9 13  1  0  0  0  0
 10  1  1  0  0  0  0
 17 15  1  6  0  0  0
 17 18  1  0  0  0  0
 18 25  1  1  0  0  0
 19 18  1  0  0  0  0
 19 26  1  6  0  0  0
 20 19  1  0  0  0  0
 20 24  1  6  0  0  0
 21 23  1  0  0  0  0
 21 20  1  0  0  0  0
 21 22  1  6  0  0  0
 23 17  1  0  0  0  0
 27 22  1  0  0  0  0
 28 29  1  0  0  0  0
 28 16  1  6  0  0  0
 29 36  1  1  0  0  0
 30 37  1  1  0  0  0
 30 29  1  0  0  0  0
 31 30  1  0  0  0  0
 31 34  1  1  0  0  0
 32 31  1  0  0  0  0
 32 33  1  0  0  0  0
 33 28  1  0  0  0  0
 33 35  1  6  0  0  0
M  END
>  <CHROM.1>
179.46197341,81.82653957,151.42770480,-158.63873511,-168.30789579,-149.69828766
-173.42948028,61.23828557,145.71718133,172.42049927,162.29921689,-52.78493405
71.51653229,59.94429831,-178.52649587,-169.14085515,-0.40669004,7.50678732
10.11615259,-0.38987383,0.69829727,-1.41430556

>  <Name>
lig.pdb

>  <RI>
0

>  <Rbt.Current_Directory>
/home/itssahil/PROJECTS/Mol_Feturizer/New_Systems/rnas/2m4q

>  <Rbt.Executable>
rbdock ($Id: //depot/dev/client3/rdock/2013.1/src/exe/rbdock.cxx#4 $)

>  <Rbt.Library>
libRbt.so (2013.1, Build901 2013/11/27)

>  <Rbt.Parameter_File>
/export/apps/rDock/src/rDock_2013.1_src/data/scripts/dock_solv.prm

>  <Rbt.Receptor>
prm/pocket_docking_2.prm

>  <SCORE>
-39.399

>  <SCORE.INTER>
-23.4604

>  <SCORE.INTER.CONST>
1

>  <SCORE.INTER.POLAR>
-2.50067

>  <SCORE.INTER.ROT>
10

>  <SCORE.INTER.SOLV>
17.2215

>  <SCORE.INTER.VDW>
-23.3119

>  <SCORE.INTER.norm>
-0.634065

>  <SCORE.INTRA>
-16.4232

>  <SCORE.INTRA.DIHEDRAL>
-28.6828

>  <SCORE.INTRA.DIHEDRAL.0>
44.8331

>  <SCORE.INTRA.POLAR>
-0.727654

>  <SCORE.INTRA.POLAR.0>
-0.108895

>  <SCORE.INTRA.REPUL>
0.143

>  <SCORE.INTRA.REPUL.0>
0.00912235

>  <SCORE.INTRA.SOLV>
-0.586839

>  <SCORE.INTRA.SOLV.lig_0>
-53.9067

>  <SCORE.INTRA.VDW>
-0.0293646

>  <SCORE.INTRA.VDW.0>
-2.93492

>  <SCORE.INTRA.norm>
-0.44387

>  <SCORE.RESTR>
0.48463

>  <SCORE.RESTR.CAVITY>
0.48463

>  <SCORE.RESTR.norm>
0.0130981

>  <SCORE.SYSTEM>
0

>  <SCORE.SYSTEM.CONST>
0

>  <SCORE.SYSTEM.DIHEDRAL>
0

>  <SCORE.SYSTEM.SOLV>
0

>  <SCORE.SYSTEM.norm>
0

>  <SCORE.heavy>
37

>  <SCORE.norm>
-1.06484

>  <RMSD>
9.881

$$$$
lig.pdb
 OpenBabel11021811453D
libRbt.so/2013.1/901 2013/11/27
 37 40  0  0  0  0  0  0  0  0999 V2000
    1.7299    4.7758    9.7836 C   0  0  2  0  0  0  0  0  0  0  0  0
    1.4019    4.7441    8.2544 C   0  0  1  0  0  0  0  0  0  0  0  0
    0.5980    5.9868    7.7715 C   0  0  0  0  0  0  0  0  0  0  0  0
   -0.6161    6.2582    8.6941 C   0  0  1  0  0  0  0  0  0  0  0  0
   -0.1420    6.4087   10.1570 C   0  0  1  0  0  0  0  0  0  0  0  0
   -1.3340    6.7283   11.0986 C   0  0  1  0  0  0  0  0  0  0  0  0
   -2.1304    7.9652   10.5863 C   0  0  1  0  0  0  0  0  0  0  0  0
   -2.5246    7.8246    9.0859 C   0  0  2  0  0  0  0  0  0  0  0  0
   -3.0768    9.2270   12.4641 C   0  0  0  0  0  0  0  0  0  0  0  0
    0.5827    5.2178   10.5797 O   0  0  0  0  0  0  0  0  0  0  0  0
   -1.3837    7.4207    8.2681 O   0  0  0  0  0  0  0  0  0  0  0  0
    2.6552    4.6310    7.4771 N   0  0  0  0  0  0  0  0  0  0  0  0
   -3.3098    8.1748   11.4513 N   0  0  0  0  0  0  0  0  0  0  0  0
   -2.1831    5.5991   11.2586 O   0  0  0  0  0  0  0  0  0  0  0  0
   -3.1144    9.0645    8.5964 O   0  0  0  0  0  0  0  0  0  0  0  0
    2.8938    5.6144   10.0566 O   0  0  0  0  0  0  0  0  0  0  0  0
   -2.2985    9.9418    7.7607 C   0  0  2  0  0  0  0  0  0  0  0  0
   -1.6791   11.0944    8.6012 C   0  0  1  0  0  0  0  0  0  0  0  0
   -2.7561   12.1236    9.0490 C   0  0  2  0  0  0  0  0  0  0  0  0
   -3.5839   12.6348    7.8343 C   0  0  1  0  0  0  0  0  0  0  0  0
   -4.1547   11.4521    7.0032 C   0  0  1  0  0  0  0  0  0  0  0  0
   -4.8664   11.9418    5.7148 C   0  0  0  0  0  0  0  0  0  0  0  0
   -3.0953   10.5027    6.6749 O   0  0  0  0  0  0  0  0  0  0  0  0
   -4.6552   13.5612    8.2617 N   0  0  0  0  0  0  0  0  0  0  0  0
   -0.9544   10.5705    9.7126 O   0  0  0  0  0  0  0  0  0  0  0  0
   -2.1666   13.2085    9.7624 O   0  0  0  0  0  0  0  0  0  0  0  0
   -5.5180   10.8621    5.0537 O   0  0  0  0  0  0  0  0  0  0  0  0
    3.3123    5.7609   11.4449 C   0  0  1  0  0  0  0  0  0  0  0  0
    3.9396    4.4534   12.0045 C   0  0  1  0  0  0  0  0  0  0  0  0
    4.2898    4.6005   13.5121 C   0  0  2  0  0  0  0  0  0  0  0  0
    5.1915    5.8455   13.7961 C   0  0  1  0  0  0  0  0  0  0  0  0
    4.6545    7.1481   13.1308 C   0  0  0  0  0  0  0  0  0  0  0  0
    4.2963    6.9513   11.6270 C   0  0  2  0  0  0  0  0  0  0  0  0
    5.3811    6.0360   15.2500 N   0  0  0  0  0  0  0  0  0  0  0  0
    3.7479    8.2139   11.0860 N   0  0  0  0  0  0  0  0  0  0  0  0
    3.0721    3.3443   11.7926 O   0  0  0  0  0  0  0  0  0  0  0  0
    4.9122    3.4133   13.9967 O   0  0  0  0  0  0  0  0  0  0  0  0
  1  2  1  0  0  0  0
  1 16  1  6  0  0  0
  2  3  1  0  0  0  0
  2 12  1  6  0  0  0
  4 11  1  6  0  0  0
  4  3  1  0  0  0  0
  5  4  1  0  0  0  0
  5 10  1  1  0  0  0
  6  7  1  0  0  0  0
  6  5  1  0  0  0  0
  6 14  1  6  0  0  0
  7  8  1  0  0  0  0
  7 13  1  1  0  0  0
  8 15  1  6  0  0  0
  8 11  1  0  0  0  0
  9 13  1  0  0  0  0
 10  1  1  0  0  0  0
 17 15  1  1  0  0  0
 17 18  1  0  0  0  0
 18 25  1  1  0  0  0
 19 18  1  0  0  0  0
 19 26  1  6  0  0  0
 20 19  1  0  0  0  0
 20 24  1  1  0  0  0
 21 23  1  0  0  0  0
 21 20  1  0  0  0  0
 21 22  1  6  0  0  0
 23 17  1  0  0  0  0
 27 22  1  0  0  0  0
 28 29  1  0  0  0  0
 28 16  1  6  0  0  0
 29 36  1  1  0  0  0
 30 37  1  6  0  0  0
 30 29  1  0  0  0  0
 31 30  1  0  0  0  0
 31 34  1  1  0  0  0
 32 31  1  0  0  0  0
 32 33  1  0  0  0  0
 33 28  1  0  0  0  0
 33 35  1  1  0  0  0
M  END
>  <CHROM.1>
69.19618972,103.26575489,98.91898134,-171.16230888,-98.18315471,179.05585132
174.59571803,-63.66149412,-173.02728795,147.15219003,-61.71436373,70.95434656
77.29738070,-59.27683370,-60.64818076,-175.20189618,-0.09854830,7.83118875
9.96850767,0.22994259,0.76537267,-2.53393602

>  <Name>
lig.pdb

>  <RI>
3.87352e+07

>  <Rbt.Current_Directory>
/home/itssahil/PROJECTS/Mol_Feturizer/New_Systems/rnas/2m4q

>  <Rbt.Executable>
rbdock ($Id: //depot/dev/client3/rdock/2013.1/src/exe/rbdock.cxx#4 $)

>  <Rbt.Library>
libRbt.so (2013.1, Build901 2013/11/27)

>  <Rbt.Parameter_File>
/export/apps/rDock/src/rDock_2013.1_src/data/scripts/dock_solv.prm

>  <Rbt.Receptor>
prm/pocket_docking_4.prm

>  <SCORE>
-43.212

>  <SCORE.INTER>
-28.3463

>  <SCORE.INTER.CONST>
1

>  <SCORE.INTER.POLAR>
-3.69712

>  <SCORE.INTER.ROT>
10

>  <SCORE.INTER.SOLV>
16.4177

>  <SCORE.INTER.VDW>
-22.3131

>  <SCORE.INTER.norm>
-0.766117

>  <SCORE.INTRA>
-14.8657

>  <SCORE.INTRA.DIHEDRAL>
-26.9953

>  <SCORE.INTRA.DIHEDRAL.0>
44.8331

>  <SCORE.INTRA.POLAR>
-0.154493

>  <SCORE.INTRA.POLAR.0>
-0.108895

>  <SCORE.INTRA.REPUL>
-0.00912235

>  <SCORE.INTRA.REPUL.0>
0.00912235

>  <SCORE.INTRA.SOLV>
-1.52267

>  <SCORE.INTRA.SOLV.lig_0>
-53.9067

>  <SCORE.INTRA.VDW>
-0.0357847

>  <SCORE.INTRA.VDW.0>
-2.93492

>  <SCORE.INTRA.norm>
-0.401775

>  <SCORE.RESTR>
0

>  <SCORE.RESTR.CAVITY>
0

>  <SCORE.RESTR.norm>
0

>  <SCORE.SYSTEM>
0

>  <SCORE.SYSTEM.CONST>
0

>  <SCORE.SYSTEM.DIHEDRAL>
0

>  <SCORE.SYSTEM.SOLV>
0

>  <SCORE.SYSTEM.norm>
0

>  <SCORE.heavy>
37

>  <SCORE.norm>
-1.16789

>  <RMSD>
9.890

$$$$
lig.pdb
 OpenBabel11021811453D
libRbt.so/2013.1/901 2013/11/27
 37 40  0  0  0  0  0  0  0  0999 V2000
   -4.6913    2.3526   14.3764 C   0  0  2  0  0  0  0  0  0  0  0  0
   -3.2861    2.8171   13.8697 C   0  0  1  0  0  0  0  0  0  0  0  0
   -2.2946    1.6391   13.6397 C   0  0  0  0  0  0  0  0  0  0  0  0
   -2.2664    0.6875   14.8614 C   0  0  1  0  0  0  0  0  0  0  0  0
   -3.6952    0.1886   15.1729 C   0  0  1  0  0  0  0  0  0  0  0  0
   -3.6904   -0.8050   16.3656 C   0  0  1  0  0  0  0  0  0  0  0  0
   -2.6808   -1.9651   16.1180 C   0  0  1  0  0  0  0  0  0  0  0  0
   -1.2694   -1.4363   15.7248 C   0  0  2  0  0  0  0  0  0  0  0  0
   -3.0376   -4.2209   17.0113 C   0  0  0  0  0  0  0  0  0  0  0  0
   -4.5861    1.3172   15.4069 O   0  0  0  0  0  0  0  0  0  0  0  0
   -1.3499   -0.4286   14.6704 O   0  0  0  0  0  0  0  0  0  0  0  0
   -3.4371    3.5904   12.6180 N   0  0  0  0  0  0  0  0  0  0  0  0
   -2.6341   -2.8308   17.3144 N   0  0  0  0  0  0  0  0  0  0  0  0
   -3.4189   -0.1386   17.5919 O   0  0  0  0  0  0  0  0  0  0  0  0
   -0.4021   -2.5413   15.3360 O   0  0  0  0  0  0  0  0  0  0  0  0
   -5.5245    1.8890   13.2704 O   0  0  0  0  0  0  0  0  0  0  0  0
    0.9868   -2.5294   15.7885 C   0  0  2  0  0  0  0  0  0  0  0  0
    1.1647   -1.5926   17.0171 C   0  0  1  0  0  0  0  0  0  0  0  0
    1.0283   -0.0939   16.6229 C   0  0  2  0  0  0  0  0  0  0  0  0
    1.9772    0.2651   15.4428 C   0  0  1  0  0  0  0  0  0  0  0  0
    1.7914   -0.7155   14.2515 C   0  0  1  0  0  0  0  0  0  0  0  0
    2.8234   -0.4555   13.1229 C   0  0  0  0  0  0  0  0  0  0  0  0
    1.8731   -2.0982   14.7129 O   0  0  0  0  0  0  0  0  0  0  0  0
    1.8026    1.6712   15.0173 N   0  0  0  0  0  0  0  0  0  0  0  0
    0.2553   -1.9506   18.0560 O   0  0  0  0  0  0  0  0  0  0  0  0
    1.2580    0.7564   17.7443 O   0  0  0  0  0  0  0  0  0  0  0  0
    4.0421   -1.1451   13.3813 O   0  0  0  0  0  0  0  0  0  0  0  0
   -6.9335    1.6361   13.5438 C   0  0  1  0  0  0  0  0  0  0  0  0
   -7.1592    1.0989   14.9849 C   0  0  1  0  0  0  0  0  0  0  0  0
   -8.6541    0.7446   15.2231 C   0  0  2  0  0  0  0  0  0  0  0  0
   -9.6097    1.9364   14.8909 C   0  0  1  0  0  0  0  0  0  0  0  0
   -9.3152    2.5818   13.5037 C   0  0  0  0  0  0  0  0  0  0  0  0
   -7.8038    2.9013   13.2981 C   0  0  2  0  0  0  0  0  0  0  0  0
  -11.0245    1.5180   14.9876 N   0  0  0  0  0  0  0  0  0  0  0  0
   -7.6024    3.4603   11.9437 N   0  0  0  0  0  0  0  0  0  0  0  0
   -6.3254   -0.0263   15.2425 O   0  0  0  0  0  0  0  0  0  0  0  0
   -8.8538    0.3045   16.5641 O   0  0  0  0  0  0  0  0  0  0  0  0
  1  2  1  0  0  0  0
  1 16  1  6  0  0  0
  2  3  1  0  0  0  0
  2 12  1  6  0  0  0
  4 11  1  6  0  0  0
  4  3  1  0  0  0  0
  5  4  1  0  0  0  0
  5 10  1  1  0  0  0
  6  7  1  0  0  0  0
  6  5  1  0  0  0  0
  6 14  1  1  0  0  0
  7  8  1  0  0  0  0
  7 13  1  1  0  0  0
  8 15  1  6  0  0  0
  8 11  1  0  0  0  0
  9 13  1  0  0  0  0
 10  1  1  0  0  0  0
 17 15  1  6  0  0  0
 17 18  1  0  0  0  0
 18 25  1  1  0  0  0
 19 18  1  0  0  0  0
 19 26  1  1  0  0  0
 20 19  1  0  0  0  0
 20 24  1  6  0  0  0
 21 23  1  0  0  0  0
 21 20  1  0  0  0  0
 21 22  1  6  0  0  0
 23 17  1  0  0  0  0
 27 22  1  0  0  0  0
 28 29  1  0  0  0  0
 28 16  1  1  0  0  0
 29 36  1  6  0  0  0
 30 37  1  1  0  0  0
 30 29  1  0  0  0  0
 31 30  1  0  0  0  0
 31 34  1  6  0  0  0
 32 31  1  0  0  0  0
 32 33  1  0  0  0  0
 33 28  1  0  0  0  0
 33 35  1  6  0  0  0
M  END
>  <CHROM.1>
70.30210335,-138.78456993,119.60215796,63.97007574,20.16265789,-169.88690938
-177.72494576,65.36605424,85.46459889,60.71443003,-56.51401681,-33.65448454
-56.49158036,-63.82885763,-60.13621073,69.05931197,-3.01450651,0.21480872
15.11960771,-2.84870252,-0.10596839,2.41497344

>  <Name>
lig.pdb

>  <RI>
0

>  <Rbt.Current_Directory>
/home/itssahil/PROJECTS/Mol_Feturizer/New_Systems/rnas/2m4q

>  <Rbt.Executable>
rbdock ($Id: //depot/dev/client3/rdock/2013.1/src/exe/rbdock.cxx#4 $)

>  <Rbt.Library>
libRbt.so (2013.1, Build901 2013/11/27)

>  <Rbt.Parameter_File>
/export/apps/rDock/src/rDock_2013.1_src/data/scripts/dock_solv.prm

>  <Rbt.Receptor>
prm/blind_docking_20.prm

>  <SCORE>
18.991

>  <SCORE.INTER>
6.62592

>  <SCORE.INTER.CONST>
1

>  <SCORE.INTER.POLAR>
-1.41952

>  <SCORE.INTER.ROT>
10

>  <SCORE.INTER.SOLV>
18.1857

>  <SCORE.INTER.VDW>
-7.17956

>  <SCORE.INTER.norm>
0.179079

>  <SCORE.INTRA>
-7.83236

>  <SCORE.INTRA.DIHEDRAL>
-24.6639

>  <SCORE.INTRA.DIHEDRAL.0>
44.8331

>  <SCORE.INTRA.POLAR>
-0.950863

>  <SCORE.INTRA.POLAR.0>
-0.108895

>  <SCORE.INTRA.REPUL>
0.0271972

>  <SCORE.INTRA.REPUL.0>
0.00912235

>  <SCORE.INTRA.SOLV>
1.73981

>  <SCORE.INTRA.SOLV.lig_0>
-53.9067

>  <SCORE.INTRA.VDW>
6.72663

>  <SCORE.INTRA.VDW.0>
-2.93492

>  <SCORE.INTRA.norm>
-0.211686

>  <SCORE.RESTR>
20.1974

>  <SCORE.RESTR.CAVITY>
20.1974

>  <SCORE.RESTR.norm>
0.545877

>  <SCORE.SYSTEM>
0

>  <SCORE.SYSTEM.CONST>
0

>  <SCORE.SYSTEM.DIHEDRAL>
0

>  <SCORE.SYSTEM.SOLV>
0

>  <SCORE.SYSTEM.norm>
0

>  <SCORE.heavy>
37

>  <SCORE.norm>
0.51327

>  <RMSD>
9.892

$$$$
lig.pdb
 OpenBabel11021811453D
libRbt.so/2013.1/901 2013/11/27
 37 40  0  0  0  0  0  0  0  0999 V2000
    2.1761    4.3700    9.8090 C   0  0  2  0  0  0  0  0  0  0  0  0
    1.5006    4.6017    8.4172 C   0  0  1  0  0  0  0  0  0  0  0  0
    0.5455    5.8309    8.3937 C   0  0  0  0  0  0  0  0  0  0  0  0
   -0.4301    5.8020    9.5963 C   0  0  1  0  0  0  0  0  0  0  0  0
    0.3659    5.7130   10.9176 C   0  0  1  0  0  0  0  0  0  0  0  0
   -0.5863    5.7296   12.1435 C   0  0  1  0  0  0  0  0  0  0  0  0
   -1.5406    6.9596   12.0890 C   0  0  1  0  0  0  0  0  0  0  0  0
   -2.2683    7.0731   10.7165 C   0  0  2  0  0  0  0  0  0  0  0  0
   -2.7008    8.2011   13.8572 C   0  0  0  0  0  0  0  0  0  0  0  0
    1.2273    4.5383   10.9120 O   0  0  0  0  0  0  0  0  0  0  0  0
   -1.3325    6.9455    9.6022 O   0  0  0  0  0  0  0  0  0  0  0  0
    2.5406    4.7611    7.3777 N   0  0  0  0  0  0  0  0  0  0  0  0
   -2.4930    6.8847   13.2161 N   0  0  0  0  0  0  0  0  0  0  0  0
   -1.3174    4.5144   12.2460 O   0  0  0  0  0  0  0  0  0  0  0  0
   -3.0168    8.3214   10.6391 O   0  0  0  0  0  0  0  0  0  0  0  0
    3.3288    5.2482    9.9890 O   0  0  0  0  0  0  0  0  0  0  0  0
   -2.2739    9.5722   10.5070 C   0  0  2  0  0  0  0  0  0  0  0  0
   -3.2072   10.7991   10.7128 C   0  0  1  0  0  0  0  0  0  0  0  0
   -4.1928   10.9789    9.5228 C   0  0  2  0  0  0  0  0  0  0  0  0
   -3.4334   11.0146    8.1649 C   0  0  1  0  0  0  0  0  0  0  0  0
   -2.4875    9.7905    8.0156 C   0  0  1  0  0  0  0  0  0  0  0  0
   -1.6232    9.8816    6.7306 C   0  0  0  0  0  0  0  0  0  0  0  0
   -1.6392    9.6558    9.1961 O   0  0  0  0  0  0  0  0  0  0  0  0
   -4.3699   11.1158    7.0242 N   0  0  0  0  0  0  0  0  0  0  0  0
   -3.8951   10.7019   11.9587 O   0  0  0  0  0  0  0  0  0  0  0  0
   -4.9978   12.1437    9.6923 O   0  0  0  0  0  0  0  0  0  0  0  0
   -0.7761   11.0254    6.7692 O   0  0  0  0  0  0  0  0  0  0  0  0
    4.5843    4.6400   10.4107 C   0  0  1  0  0  0  0  0  0  0  0  0
    5.7836    5.6173   10.2597 C   0  0  1  0  0  0  0  0  0  0  0  0
    7.1245    4.9190   10.6223 C   0  0  2  0  0  0  0  0  0  0  0  0
    7.0886    4.2576   12.0384 C   0  0  1  0  0  0  0  0  0  0  0  0
    5.8233    3.3769   12.2648 C   0  0  0  0  0  0  0  0  0  0  0  0
    4.5044    4.1067   11.8693 C   0  0  2  0  0  0  0  0  0  0  0  0
    8.3222    3.4814   12.2870 N   0  0  0  0  0  0  0  0  0  0  0  0
    3.3609    3.1891   12.0640 N   0  0  0  0  0  0  0  0  0  0  0  0
    5.8345    6.1573    8.9431 O   0  0  0  0  0  0  0  0  0  0  0  0
    8.2071    5.8417   10.5306 O   0  0  0  0  0  0  0  0  0  0  0  0
  1  2  1  0  0  0  0
  1 16  1  1  0  0  0
  2  3  1  0  0  0  0
  2 12  1  6  0  0  0
  4 11  1  1  0  0  0
  4  3  1  0  0  0  0
  5  4  1  0  0  0  0
  5 10  1  6  0  0  0
  6  7  1  0  0  0  0
  6  5  1  0  0  0  0
  6 14  1  6  0  0  0
  7  8  1  0  0  0  0
  7 13  1  1  0  0  0
  8 15  1  1  0  0  0
  8 11  1  0  0  0  0
  9 13  1  0  0  0  0
 10  1  1  0  0  0  0
 17 15  1  6  0  0  0
 17 18  1  0  0  0  0
 18 25  1  1  0  0  0
 19 18  1  0  0  0  0
 19 26  1  1  0  0  0
 20 19  1  0  0  0  0
 20 24  1  6  0  0  0
 21 23  1  0  0  0  0
 21 20  1  0  0  0  0
 21 22  1  6  0  0  0
 23 17  1  0  0  0  0
 27 22  1  0  0  0  0
 28 29  1  0  0  0  0
 28 16  1  1  0  0  0
 29 36  1  6  0  0  0
 30 37  1  1  0  0  0
 30 29  1  0  0  0  0
 31 30  1  0  0  0  0
 31 34  1  6  0  0  0
 32 31  1  0  0  0  0
 32 33  1  0  0  0  0
 33 28  1  0  0  0  0
 33 35  1  6  0  0  0
M  END
>  <CHROM.1>
-50.30359834,71.44608051,137.99336792,-20.59180349,-169.13660814,-129.32886449
-45.46789064,-60.32615351,62.09162208,-71.40977332,-177.04835230,167.37617798
-177.75209510,-177.74381955,74.82644723,46.16800276,0.63090513,6.99895554
10.24127321,0.42919691,-0.38888685,2.21978650

>  <Name>
lig.pdb

>  <RI>
0

>  <Rbt.Current_Directory>
/home/itssahil/PROJECTS/Mol_Feturizer/New_Systems/rnas/2m4q

>  <Rbt.Executable>
rbdock ($Id: //depot/dev/client3/rdock/2013.1/src/exe/rbdock.cxx#4 $)

>  <Rbt.Library>
libRbt.so (2013.1, Build901 2013/11/27)

>  <Rbt.Parameter_File>
/export/apps/rDock/src/rDock_2013.1_src/data/scripts/dock_solv.prm

>  <Rbt.Receptor>
prm/pocket_docking_3.prm

>  <SCORE>
-46.3102

>  <SCORE.INTER>
-30.183

>  <SCORE.INTER.CONST>
1

>  <SCORE.INTER.POLAR>
-4.34367

>  <SCORE.INTER.ROT>
10

>  <SCORE.INTER.SOLV>
17.552

>  <SCORE.INTER.VDW>
-21.7604

>  <SCORE.INTER.norm>
-0.815757

>  <SCORE.INTRA>
-16.2282

>  <SCORE.INTRA.DIHEDRAL>
-26.3216

>  <SCORE.INTRA.DIHEDRAL.0>
44.8331

>  <SCORE.INTRA.POLAR>
-0.977161

>  <SCORE.INTRA.POLAR.0>
-0.108895

>  <SCORE.INTRA.REPUL>
-0.00912235

>  <SCORE.INTRA.REPUL.0>
0.00912235

>  <SCORE.INTRA.SOLV>
-0.459398

>  <SCORE.INTRA.SOLV.lig_0>
-53.9067

>  <SCORE.INTRA.VDW>
0.530273

>  <SCORE.INTRA.VDW.0>
-2.93492

>  <SCORE.INTRA.norm>
-0.438599

>  <SCORE.RESTR>
0.101003

>  <SCORE.RESTR.CAVITY>
0.101003

>  <SCORE.RESTR.norm>
0.0027298

>  <SCORE.SYSTEM>
0

>  <SCORE.SYSTEM.CONST>
0

>  <SCORE.SYSTEM.DIHEDRAL>
0

>  <SCORE.SYSTEM.SOLV>
0

>  <SCORE.SYSTEM.norm>
0

>  <SCORE.heavy>
37

>  <SCORE.norm>
-1.25163

>  <RMSD>
9.898

$$$$
lig.pdb
 OpenBabel11021811453D
libRbt.so/2013.1/901 2013/11/27
 37 40  0  0  0  0  0  0  0  0999 V2000
    1.6130    4.7215   10.0647 C   0  0  2  0  0  0  0  0  0  0  0  0
    0.9777    4.8631    8.6422 C   0  0  1  0  0  0  0  0  0  0  0  0
    0.0818    6.1274    8.4914 C   0  0  0  0  0  0  0  0  0  0  0  0
   -0.9185    6.2453    9.6680 C   0  0  1  0  0  0  0  0  0  0  0  0
   -0.1548    6.2343   11.0111 C   0  0  1  0  0  0  0  0  0  0  0  0
   -1.1301    6.3984   12.2076 C   0  0  1  0  0  0  0  0  0  0  0  0
   -2.0246    7.6607   12.0260 C   0  0  1  0  0  0  0  0  0  0  0  0
   -2.7179    7.6887   10.6315 C   0  0  2  0  0  0  0  0  0  0  0  0
   -3.2506    9.1144   13.5744 C   0  0  0  0  0  0  0  0  0  0  0  0
    0.6508    5.0260   11.1260 O   0  0  0  0  0  0  0  0  0  0  0  0
   -1.7665    7.4244    9.5551 O   0  0  0  0  0  0  0  0  0  0  0  0
    2.0452    4.8862    7.6186 N   0  0  0  0  0  0  0  0  0  0  0  0
   -3.0024    7.7253   13.1318 N   0  0  0  0  0  0  0  0  0  0  0  0
   -1.9191    5.2304   12.3947 O   0  0  0  0  0  0  0  0  0  0  0  0
   -3.4056    8.9581   10.4305 O   0  0  0  0  0  0  0  0  0  0  0  0
    2.8016    5.5594   10.1978 O   0  0  0  0  0  0  0  0  0  0  0  0
   -2.6034   10.1531   10.1806 C   0  0  2  0  0  0  0  0  0  0  0  0
   -3.4816   11.4354   10.2364 C   0  0  1  0  0  0  0  0  0  0  0  0
   -4.4401   11.5305    9.0148 C   0  0  2  0  0  0  0  0  0  0  0  0
   -3.6597   11.3865    7.6760 C   0  0  1  0  0  0  0  0  0  0  0  0
   -2.7697   10.1124    7.6764 C   0  0  1  0  0  0  0  0  0  0  0  0
   -1.8832   10.0265    6.4064 C   0  0  0  0  0  0  0  0  0  0  0  0
   -1.9461   10.0673    8.8810 O   0  0  0  0  0  0  0  0  0  0  0  0
   -4.5736   11.4065    6.5128 N   0  0  0  0  0  0  0  0  0  0  0  0
   -4.1916   11.5031   11.4717 O   0  0  0  0  0  0  0  0  0  0  0  0
   -5.1924   12.7415    9.0435 O   0  0  0  0  0  0  0  0  0  0  0  0
   -2.6851    9.9384    5.2331 O   0  0  0  0  0  0  0  0  0  0  0  0
    3.9381    5.0116   10.9275 C   0  0  1  0  0  0  0  0  0  0  0  0
    3.5640    4.6334   12.3880 C   0  0  1  0  0  0  0  0  0  0  0  0
    4.8108    4.1427   13.1766 C   0  0  2  0  0  0  0  0  0  0  0  0
    5.5571    2.9784   12.4477 C   0  0  1  0  0  0  0  0  0  0  0  0
    5.8256    3.2780   10.9424 C   0  0  0  0  0  0  0  0  0  0  0  0
    4.5561    3.7868   10.1952 C   0  0  2  0  0  0  0  0  0  0  0  0
    6.8135    2.6392   13.1496 N   0  0  0  0  0  0  0  0  0  0  0  0
    4.9063    4.0963    8.7920 N   0  0  0  0  0  0  0  0  0  0  0  0
    2.9445    5.7298   13.0525 O   0  0  0  0  0  0  0  0  0  0  0  0
    4.4422    3.7495   14.4961 O   0  0  0  0  0  0  0  0  0  0  0  0
  1  2  1  0  0  0  0
  1 16  1  6  0  0  0
  2  3  1  0  0  0  0
  2 12  1  6  0  0  0
  4 11  1  6  0  0  0
  4  3  1  0  0  0  0
  5  4  1  0  0  0  0
  5 10  1  1  0  0  0
  6  7  1  0  0  0  0
  6  5  1  0  0  0  0
  6 14  1  6  0  0  0
  7  8  1  0  0  0  0
  7 13  1  1  0  0  0
  8 15  1  6  0  0  0
  8 11  1  0  0  0  0
  9 13  1  0  0  0  0
 10  1  1  0  0  0  0
 17 15  1  6  0  0  0
 17 18  1  0  0  0  0
 18 25  1  1  0  0  0
 19 18  1  0  0  0  0
 19 26  1  6  0  0  0
 20 19  1  0  0  0  0
 20 24  1  6  0  0  0
 21 23  1  0  0  0  0
 21 20  1  0  0  0  0
 21 22  1  6  0  0  0
 23 17  1  0  0  0  0
 27 22  1  0  0  0  0
 28 29  1  0  0  0  0
 28 16  1  6  0  0  0
 29 36  1  1  0  0  0
 30 37  1  1  0  0  0
 30 29  1  0  0  0  0
 31 30  1  0  0  0  0
 31 34  1  1  0  0  0
 32 31  1  0  0  0  0
 32 33  1  0  0  0  0
 33 28  1  0  0  0  0
 33 35  1  6  0  0  0
M  END
>  <CHROM.1>
-164.04541232,72.82927701,143.02459992,60.31051306,-170.20828954,-140.60256462
64.18688609,-62.05912784,-62.18450843,93.35478200,-175.75789972,-58.93339250
-60.46610403,62.81837346,80.19697536,60.56287257,-0.08475136,7.16774033,10.34229591
-0.38374206,0.64501999,-1.37720516

>  <Name>
lig.pdb

>  <RI>
0

>  <Rbt.Current_Directory>
/home/itssahil/PROJECTS/Mol_Feturizer/New_Systems/rnas/2m4q

>  <Rbt.Executable>
rbdock ($Id: //depot/dev/client3/rdock/2013.1/src/exe/rbdock.cxx#4 $)

>  <Rbt.Library>
libRbt.so (2013.1, Build901 2013/11/27)

>  <Rbt.Parameter_File>
/export/apps/rDock/src/rDock_2013.1_src/data/scripts/dock_solv.prm

>  <Rbt.Receptor>
prm/pocket_docking_3.prm

>  <SCORE>
-48.056

>  <SCORE.INTER>
-24.907

>  <SCORE.INTER.CONST>
1

>  <SCORE.INTER.POLAR>
-2.84152

>  <SCORE.INTER.ROT>
10

>  <SCORE.INTER.SOLV>
17.6284

>  <SCORE.INTER.VDW>
-23.2757

>  <SCORE.INTER.norm>
-0.673163

>  <SCORE.INTRA>
-23.1489

>  <SCORE.INTRA.DIHEDRAL>
-33.4872

>  <SCORE.INTRA.DIHEDRAL.0>
44.8331

>  <SCORE.INTRA.POLAR>
-1.75348

>  <SCORE.INTRA.POLAR.0>
-0.108895

>  <SCORE.INTRA.REPUL>
-0.00912235

>  <SCORE.INTRA.REPUL.0>
0.00912235

>  <SCORE.INTRA.SOLV>
0.370742

>  <SCORE.INTRA.SOLV.lig_0>
-53.9067

>  <SCORE.INTRA.VDW>
-0.583263

>  <SCORE.INTRA.VDW.0>
-2.93492

>  <SCORE.INTRA.norm>
-0.625647

>  <SCORE.RESTR>
0

>  <SCORE.RESTR.CAVITY>
0

>  <SCORE.RESTR.norm>
0

>  <SCORE.SYSTEM>
0

>  <SCORE.SYSTEM.CONST>
0

>  <SCORE.SYSTEM.DIHEDRAL>
0

>  <SCORE.SYSTEM.SOLV>
0

>  <SCORE.SYSTEM.norm>
0

>  <SCORE.heavy>
37

>  <SCORE.norm>
-1.29881

>  <RMSD>
9.904

$$$$
lig.pdb
 OpenBabel11021811453D
libRbt.so/2013.1/901 2013/11/27
 37 40  0  0  0  0  0  0  0  0999 V2000
    2.0424    4.5271    9.8599 C   0  0  2  0  0  0  0  0  0  0  0  0
    1.4304    4.8186    8.4500 C   0  0  1  0  0  0  0  0  0  0  0  0
    0.5175    6.0794    8.4241 C   0  0  0  0  0  0  0  0  0  0  0  0
   -0.5054    6.0510    9.5867 C   0  0  1  0  0  0  0  0  0  0  0  0
    0.2343    5.9000   10.9349 C   0  0  1  0  0  0  0  0  0  0  0  0
   -0.7646    5.9157   12.1230 C   0  0  1  0  0  0  0  0  0  0  0  0
   -1.6755    7.1781   12.0662 C   0  0  1  0  0  0  0  0  0  0  0  0
   -2.3443    7.3526   10.6703 C   0  0  2  0  0  0  0  0  0  0  0  0
   -3.1378    8.4448   13.5731 C   0  0  0  0  0  0  0  0  0  0  0  0
    1.0567    4.6976   10.9296 O   0  0  0  0  0  0  0  0  0  0  0  0
   -1.3697    7.2235    9.5898 O   0  0  0  0  0  0  0  0  0  0  0  0
    2.5154    4.9707    7.4564 N   0  0  0  0  0  0  0  0  0  0  0  0
   -2.6738    7.1050   13.1530 N   0  0  0  0  0  0  0  0  0  0  0  0
   -1.5383    4.7234   12.1630 O   0  0  0  0  0  0  0  0  0  0  0  0
   -3.0482    8.6269   10.5990 O   0  0  0  0  0  0  0  0  0  0  0  0
    3.2151    5.3611   10.1089 O   0  0  0  0  0  0  0  0  0  0  0  0
   -2.2738    9.8368   10.3334 C   0  0  2  0  0  0  0  0  0  0  0  0
   -3.1839   11.0976   10.3583 C   0  0  1  0  0  0  0  0  0  0  0  0
   -4.1340   11.1463    9.1276 C   0  0  2  0  0  0  0  0  0  0  0  0
   -3.3392   10.9972    7.7980 C   0  0  1  0  0  0  0  0  0  0  0  0
   -2.4179    9.7459    7.8292 C   0  0  1  0  0  0  0  0  0  0  0  0
   -1.5189    9.6588    6.5680 C   0  0  0  0  0  0  0  0  0  0  0  0
   -1.6036    9.7435    9.0409 O   0  0  0  0  0  0  0  0  0  0  0  0
   -4.2434   10.9730    6.6273 N   0  0  0  0  0  0  0  0  0  0  0  0
   -3.9057   11.1704   11.5864 O   0  0  0  0  0  0  0  0  0  0  0  0
   -4.9163   12.3385    9.1278 O   0  0  0  0  0  0  0  0  0  0  0  0
   -0.5011   10.6540    6.6010 O   0  0  0  0  0  0  0  0  0  0  0  0
    4.1915    4.8840   11.0800 C   0  0  1  0  0  0  0  0  0  0  0  0
    5.3734    4.1391   10.3986 C   0  0  1  0  0  0  0  0  0  0  0  0
    6.3521    3.5553   11.4561 C   0  0  2  0  0  0  0  0  0  0  0  0
    6.8527    4.6375   12.4670 C   0  0  1  0  0  0  0  0  0  0  0  0
    5.6945    5.4912   13.0651 C   0  0  0  0  0  0  0  0  0  0  0  0
    4.7261    6.0389   11.9738 C   0  0  2  0  0  0  0  0  0  0  0  0
    7.6605    4.0199   13.5404 N   0  0  0  0  0  0  0  0  0  0  0  0
    3.6314    6.7907   12.6247 N   0  0  0  0  0  0  0  0  0  0  0  0
    4.8950    3.1152    9.5324 O   0  0  0  0  0  0  0  0  0  0  0  0
    7.4571    2.9222   10.8159 O   0  0  0  0  0  0  0  0  0  0  0  0
  1  2  1  0  0  0  0
  1 16  1  1  0  0  0
  2  3  1  0  0  0  0
  2 12  1  6  0  0  0
  4 11  1  1  0  0  0
  4  3  1  0  0  0  0
  5  4  1  0  0  0  0
  5 10  1  6  0  0  0
  6  7  1  0  0  0  0
  6  5  1  0  0  0  0
  6 14  1  6  0  0  0
  7  8  1  0  0  0  0
  7 13  1  1  0  0  0
  8 15  1  1  0  0  0
  8 11  1  0  0  0  0
  9 13  1  0  0  0  0
 10  1  1  0  0  0  0
 17 15  1  6  0  0  0
 17 18  1  0  0  0  0
 18 25  1  1  0  0  0
 19 18  1  0  0  0  0
 19 26  1  6  0  0  0
 20 19  1  0  0  0  0
 20 24  1  6  0  0  0
 21 23  1  0  0  0  0
 21 20  1  0  0  0  0
 21 22  1  6  0  0  0
 23 17  1  0  0  0  0
 27 22  1  0  0  0  0
 28 29  1  0  0  0  0
 28 16  1  6  0  0  0
 29 36  1  1  0  0  0
 30 37  1  6  0  0  0
 30 29  1  0  0  0  0
 31 30  1  0  0  0  0
 31 34  1  1  0  0  0
 32 31  1  0  0  0  0
 32 33  1  0  0  0  0
 33 28  1  0  0  0  0
 33 35  1  1  0  0  0
M  END
>  <CHROM.1>
-174.60818315,80.32697488,153.59440119,26.55113446,-177.43680297,-156.24043007
-175.33073730,65.59344057,71.77106301,177.64842568,-57.41306594,96.17089071
-47.62310993,-57.16080243,75.48535628,66.07504086,0.48972670,7.08946566,10.29834858
-0.34591203,0.54333844,-1.29078176

>  <Name>
lig.pdb

>  <RI>
0

>  <Rbt.Current_Directory>
/home/itssahil/PROJECTS/Mol_Feturizer/New_Systems/rnas/2m4q

>  <Rbt.Executable>
rbdock ($Id: //depot/dev/client3/rdock/2013.1/src/exe/rbdock.cxx#4 $)

>  <Rbt.Library>
libRbt.so (2013.1, Build901 2013/11/27)

>  <Rbt.Parameter_File>
/export/apps/rDock/src/rDock_2013.1_src/data/scripts/dock_solv.prm

>  <Rbt.Receptor>
prm/pocket_docking_3.prm

>  <SCORE>
-39.9831

>  <SCORE.INTER>
-24.9845

>  <SCORE.INTER.CONST>
1

>  <SCORE.INTER.POLAR>
-3.46409

>  <SCORE.INTER.ROT>
10

>  <SCORE.INTER.SOLV>
16.0225

>  <SCORE.INTER.VDW>
-20.7169

>  <SCORE.INTER.norm>
-0.675256

>  <SCORE.INTRA>
-14.9986

>  <SCORE.INTRA.DIHEDRAL>
-27.9298

>  <SCORE.INTRA.DIHEDRAL.0>
44.8331

>  <SCORE.INTRA.POLAR>
-0.0825739

>  <SCORE.INTRA.POLAR.0>
-0.108895

>  <SCORE.INTRA.REPUL>
-0.00912235

>  <SCORE.INTRA.REPUL.0>
0.00912235

>  <SCORE.INTRA.SOLV>
-0.803626

>  <SCORE.INTRA.SOLV.lig_0>
-53.9067

>  <SCORE.INTRA.VDW>
-0.305543

>  <SCORE.INTRA.VDW.0>
-2.93492

>  <SCORE.INTRA.norm>
-0.405367

>  <SCORE.RESTR>
0

>  <SCORE.RESTR.CAVITY>
0

>  <SCORE.RESTR.norm>
0

>  <SCORE.SYSTEM>
0

>  <SCORE.SYSTEM.CONST>
0

>  <SCORE.SYSTEM.DIHEDRAL>
0

>  <SCORE.SYSTEM.SOLV>
0

>  <SCORE.SYSTEM.norm>
0

>  <SCORE.heavy>
37

>  <SCORE.norm>
-1.08062

>  <RMSD>
9.907

$$$$
lig.pdb
 OpenBabel11021811453D
libRbt.so/2013.1/901 2013/11/27
 37 40  0  0  0  0  0  0  0  0999 V2000
    2.3840    4.5554    9.5242 C   0  0  2  0  0  0  0  0  0  0  0  0
    1.9826    4.5311    8.0125 C   0  0  1  0  0  0  0  0  0  0  0  0
    1.0228    5.6896    7.6119 C   0  0  0  0  0  0  0  0  0  0  0  0
   -0.1641    5.7974    8.6011 C   0  0  1  0  0  0  0  0  0  0  0  0
    0.3659    5.9578   10.0436 C   0  0  1  0  0  0  0  0  0  0  0  0
   -0.8036    6.1152   11.0522 C   0  0  1  0  0  0  0  0  0  0  0  0
   -1.7567    7.2698   10.6217 C   0  0  1  0  0  0  0  0  0  0  0  0
   -2.2105    7.1291    9.1383 C   0  0  2  0  0  0  0  0  0  0  0  0
   -2.6012    8.1018   12.7684 C   0  0  0  0  0  0  0  0  0  0  0  0
    1.2382    4.8436   10.3897 O   0  0  0  0  0  0  0  0  0  0  0  0
   -1.0760    6.8787    8.2529 O   0  0  0  0  0  0  0  0  0  0  0  0
    3.1987    4.5808    7.1720 N   0  0  0  0  0  0  0  0  0  0  0  0
   -2.9054    7.3216   11.5495 N   0  0  0  0  0  0  0  0  0  0  0  0
   -1.5137    4.8942   11.2144 O   0  0  0  0  0  0  0  0  0  0  0  0
   -2.9576    8.3089    8.7207 O   0  0  0  0  0  0  0  0  0  0  0  0
    3.4613    5.5104    9.7691 O   0  0  0  0  0  0  0  0  0  0  0  0
   -2.2688    9.5969    8.6949 C   0  0  2  0  0  0  0  0  0  0  0  0
   -3.0877   10.6821    9.4502 C   0  0  1  0  0  0  0  0  0  0  0  0
   -4.3723   11.0816    8.6691 C   0  0  2  0  0  0  0  0  0  0  0  0
   -4.0363   11.4845    7.2039 C   0  0  1  0  0  0  0  0  0  0  0  0
   -3.1891   10.3893    6.4981 C   0  0  1  0  0  0  0  0  0  0  0  0
   -2.7310   10.8347    5.0846 C   0  0  0  0  0  0  0  0  0  0  0  0
   -2.0381   10.0277    7.3202 O   0  0  0  0  0  0  0  0  0  0  0  0
   -5.2606   11.7990    6.4354 N   0  0  0  0  0  0  0  0  0  0  0  0
   -3.3882   10.2505   10.7761 O   0  0  0  0  0  0  0  0  0  0  0  0
   -5.0795   12.1228    9.3392 O   0  0  0  0  0  0  0  0  0  0  0  0
   -3.8413   10.9302    4.1983 O   0  0  0  0  0  0  0  0  0  0  0  0
    4.2770    5.3201   10.9617 C   0  0  1  0  0  0  0  0  0  0  0  0
    3.4156    5.2788   12.2550 C   0  0  1  0  0  0  0  0  0  0  0  0
    4.3111    5.1726   13.5215 C   0  0  2  0  0  0  0  0  0  0  0  0
    5.3075    3.9702   13.4482 C   0  0  1  0  0  0  0  0  0  0  0  0
    6.0890    3.9109   12.1016 C   0  0  0  0  0  0  0  0  0  0  0  0
    5.1569    4.0419   10.8595 C   0  0  2  0  0  0  0  0  0  0  0  0
    6.2381    3.9885   14.5970 N   0  0  0  0  0  0  0  0  0  0  0  0
    5.9776    4.0287    9.6292 N   0  0  0  0  0  0  0  0  0  0  0  0
    2.5630    6.4166   12.3324 O   0  0  0  0  0  0  0  0  0  0  0  0
    3.5061    5.0821   14.6942 O   0  0  0  0  0  0  0  0  0  0  0  0
  1  2  1  0  0  0  0
  1 16  1  6  0  0  0
  2  3  1  0  0  0  0
  2 12  1  6  0  0  0
  4 11  1  6  0  0  0
  4  3  1  0  0  0  0
  5  4  1  0  0  0  0
  5 10  1  1  0  0  0
  6  7  1  0  0  0  0
  6  5  1  0  0  0  0
  6 14  1  6  0  0  0
  7  8  1  0  0  0  0
  7 13  1  1  0  0  0
  8 15  1  6  0  0  0
  8 11  1  0  0  0  0
  9 13  1  0  0  0  0
 10  1  1  0  0  0  0
 17 15  1  6  0  0  0
 17 18  1  0  0  0  0
 18 25  1  1  0  0  0
 19 18  1  0  0  0  0
 19 26  1  1  0  0  0
 20 19  1  0  0  0  0
 20 24  1  6  0  0  0
 21 23  1  0  0  0  0
 21 20  1  0  0  0  0
 21 22  1  6  0  0  0
 23 17  1  0  0  0  0
 27 22  1  0  0  0  0
 28 29  1  0  0  0  0
 28 16  1  6  0  0  0
 29 36  1  1  0  0  0
 30 37  1  1  0  0  0
 30 29  1  0  0  0  0
 31 30  1  0  0  0  0
 31 34  1  1  0  0  0
 32 31  1  0  0  0  0
 32 33  1  0  0  0  0
 33 28  1  0  0  0  0
 33 35  1  6  0  0  0
M  END
>  <CHROM.1>
71.49711286,63.56836489,84.35800054,178.11556007,-129.74464584,-157.81384244
-70.61375799,176.54419505,-68.17742166,84.94515611,-81.27661627,-55.88582317
-53.33133602,-172.91592322,-74.67221033,-175.69731454,0.10820362,7.16313463
9.80061605,-0.44172724,0.60681243,-1.49385011

>  <Name>
lig.pdb

>  <RI>
0

>  <Rbt.Current_Directory>
/home/itssahil/PROJECTS/Mol_Feturizer/New_Systems/rnas/2m4q

>  <Rbt.Executable>
rbdock ($Id: //depot/dev/client3/rdock/2013.1/src/exe/rbdock.cxx#4 $)

>  <Rbt.Library>
libRbt.so (2013.1, Build901 2013/11/27)

>  <Rbt.Parameter_File>
/export/apps/rDock/src/rDock_2013.1_src/data/scripts/dock_solv.prm

>  <Rbt.Receptor>
prm/pocket_docking_2.prm

>  <SCORE>
-41.6308

>  <SCORE.INTER>
-26.2532

>  <SCORE.INTER.CONST>
1

>  <SCORE.INTER.POLAR>
-2.79087

>  <SCORE.INTER.ROT>
10

>  <SCORE.INTER.SOLV>
18.6615

>  <SCORE.INTER.VDW>
-24.6864

>  <SCORE.INTER.norm>
-0.709545

>  <SCORE.INTRA>
-17.0414

>  <SCORE.INTRA.DIHEDRAL>
-29.561

>  <SCORE.INTRA.DIHEDRAL.0>
44.8331

>  <SCORE.INTRA.POLAR>
-0.807334

>  <SCORE.INTRA.POLAR.0>
-0.108895

>  <SCORE.INTRA.REPUL>
0.026892

>  <SCORE.INTRA.REPUL.0>
0.00912235

>  <SCORE.INTRA.SOLV>
0.730846

>  <SCORE.INTRA.SOLV.lig_0>
-53.9067

>  <SCORE.INTRA.VDW>
-0.015868

>  <SCORE.INTRA.VDW.0>
-2.93492

>  <SCORE.INTRA.norm>
-0.460579

>  <SCORE.RESTR>
1.66376

>  <SCORE.RESTR.CAVITY>
1.66376

>  <SCORE.RESTR.norm>
0.0449665

>  <SCORE.SYSTEM>
0

>  <SCORE.SYSTEM.CONST>
0

>  <SCORE.SYSTEM.DIHEDRAL>
0

>  <SCORE.SYSTEM.SOLV>
0

>  <SCORE.SYSTEM.norm>
0

>  <SCORE.heavy>
37

>  <SCORE.norm>
-1.12516

>  <RMSD>
9.916

$$$$
lig.pdb
 OpenBabel11021811453D
libRbt.so/2013.1/901 2013/11/27
 37 40  0  0  0  0  0  0  0  0999 V2000
    0.7096    5.3087   10.4672 C   0  0  2  0  0  0  0  0  0  0  0  0
   -0.2005    5.2258    9.1976 C   0  0  1  0  0  0  0  0  0  0  0  0
   -0.9653    6.5490    8.9010 C   0  0  0  0  0  0  0  0  0  0  0  0
   -1.6671    7.0845   10.1737 C   0  0  1  0  0  0  0  0  0  0  0  0
   -0.6355    7.2550   11.3113 C   0  0  1  0  0  0  0  0  0  0  0  0
   -1.3037    7.8354   12.5865 C   0  0  1  0  0  0  0  0  0  0  0  0
   -2.0739    9.1497   12.2609 C   0  0  1  0  0  0  0  0  0  0  0  0
   -3.0466    8.9729   11.0572 C   0  0  2  0  0  0  0  0  0  0  0  0
   -2.9791   11.0793   13.4739 C   0  0  0  0  0  0  0  0  0  0  0  0
    0.0399    5.9918   11.5763 O   0  0  0  0  0  0  0  0  0  0  0  0
   -2.3863    8.3268    9.9257 O   0  0  0  0  0  0  0  0  0  0  0  0
    0.6149    4.8496    8.0224 N   0  0  0  0  0  0  0  0  0  0  0  0
   -2.7750    9.6145   13.4756 N   0  0  0  0  0  0  0  0  0  0  0  0
   -2.1551    6.8790   13.2045 O   0  0  0  0  0  0  0  0  0  0  0  0
   -3.6197   10.2569   10.6732 O   0  0  0  0  0  0  0  0  0  0  0  0
    1.9824    5.9568   10.1629 O   0  0  0  0  0  0  0  0  0  0  0  0
   -2.7463   11.2540   10.0592 C   0  0  2  0  0  0  0  0  0  0  0  0
   -3.5024   12.5944    9.8346 C   0  0  1  0  0  0  0  0  0  0  0  0
   -4.5625   12.4747    8.7024 C   0  0  2  0  0  0  0  0  0  0  0  0
   -3.9299   11.9082    7.3982 C   0  0  1  0  0  0  0  0  0  0  0  0
   -3.1560   10.5889    7.6738 C   0  0  1  0  0  0  0  0  0  0  0  0
   -2.4065   10.0845    6.4128 C   0  0  0  0  0  0  0  0  0  0  0  0
   -2.2270   10.7667    8.7859 O   0  0  0  0  0  0  0  0  0  0  0  0
   -4.9465   11.7267    6.3389 N   0  0  0  0  0  0  0  0  0  0  0  0
   -4.0817   13.0534   11.0545 O   0  0  0  0  0  0  0  0  0  0  0  0
   -5.2024   13.7261    8.4618 O   0  0  0  0  0  0  0  0  0  0  0  0
   -1.8697    8.7835    6.6283 O   0  0  0  0  0  0  0  0  0  0  0  0
    3.2026    5.2937   10.6049 C   0  0  1  0  0  0  0  0  0  0  0  0
    3.1286    4.8759   12.1003 C   0  0  1  0  0  0  0  0  0  0  0  0
    4.4738    4.2589   12.5768 C   0  0  2  0  0  0  0  0  0  0  0  0
    4.9442    3.0785   11.6662 C   0  0  1  0  0  0  0  0  0  0  0  0
    4.8991    3.4278   10.1484 C   0  0  0  0  0  0  0  0  0  0  0  0
    3.5425    4.0625    9.7177 C   0  0  2  0  0  0  0  0  0  0  0  0
    6.2919    2.6157   12.0605 N   0  0  0  0  0  0  0  0  0  0  0  0
    3.6002    4.4110    8.2815 N   0  0  0  0  0  0  0  0  0  0  0  0
    2.7620    5.9825   12.9180 O   0  0  0  0  0  0  0  0  0  0  0  0
    4.3730    3.8324   13.9331 O   0  0  0  0  0  0  0  0  0  0  0  0
  1  2  1  0  0  0  0
  1 16  1  6  0  0  0
  2  3  1  0  0  0  0
  2 12  1  6  0  0  0
  4 11  1  6  0  0  0
  4  3  1  0  0  0  0
  5  4  1  0  0  0  0
  5 10  1  1  0  0  0
  6  7  1  0  0  0  0
  6  5  1  0  0  0  0
  6 14  1  6  0  0  0
  7  8  1  0  0  0  0
  7 13  1  1  0  0  0
  8 15  1  6  0  0  0
  8 11  1  0  0  0  0
  9 13  1  0  0  0  0
 10  1  1  0  0  0  0
 17 15  1  6  0  0  0
 17 18  1  0  0  0  0
 18 25  1  1  0  0  0
 19 18  1  0  0  0  0
 19 26  1  6  0  0  0
 20 19  1  0  0  0  0
 20 24  1  6  0  0  0
 21 23  1  0  0  0  0
 21 20  1  0  0  0  0
 21 22  1  6  0  0  0
 23 17  1  0  0  0  0
 27 22  1  0  0  0  0
 28 29  1  0  0  0  0
 28 16  1  6  0  0  0
 29 36  1  1  0  0  0
 30 37  1  1  0  0  0
 30 29  1  0  0  0  0
 31 30  1  0  0  0  0
 31 34  1  1  0  0  0
 32 31  1  0  0  0  0
 32 33  1  0  0  0  0
 33 28  1  0  0  0  0
 33 35  1  6  0  0  0
M  END
>  <CHROM.1>
138.47758208,69.19040753,153.11500392,-175.97073756,-175.05082197,-130.95419960
-57.48131212,62.30039535,-171.46574649,-63.70650070,64.10020034,-49.33278508
68.13670276,-59.61312118,-69.28933939,-178.43516205,-0.50256478,7.83448409
10.32459937,-0.17443911,0.77747271,-1.60911682

>  <Name>
lig.pdb

>  <RI>
0

>  <Rbt.Current_Directory>
/home/itssahil/PROJECTS/Mol_Feturizer/New_Systems/rnas/2m4q

>  <Rbt.Executable>
rbdock ($Id: //depot/dev/client3/rdock/2013.1/src/exe/rbdock.cxx#4 $)

>  <Rbt.Library>
libRbt.so (2013.1, Build901 2013/11/27)

>  <Rbt.Parameter_File>
/export/apps/rDock/src/rDock_2013.1_src/data/scripts/dock_solv.prm

>  <Rbt.Receptor>
prm/pocket_docking_3.prm

>  <SCORE>
-41.5815

>  <SCORE.INTER>
-17.7161

>  <SCORE.INTER.CONST>
1

>  <SCORE.INTER.POLAR>
-1.59998

>  <SCORE.INTER.ROT>
10

>  <SCORE.INTER.SOLV>
13.2556

>  <SCORE.INTER.VDW>
-21.1626

>  <SCORE.INTER.norm>
-0.478813

>  <SCORE.INTRA>
-23.8654

>  <SCORE.INTRA.DIHEDRAL>
-32.979

>  <SCORE.INTRA.DIHEDRAL.0>
44.8331

>  <SCORE.INTRA.POLAR>
-1.86702

>  <SCORE.INTRA.POLAR.0>
-0.108895

>  <SCORE.INTRA.REPUL>
-0.00912235

>  <SCORE.INTRA.REPUL.0>
0.00912235

>  <SCORE.INTRA.SOLV>
-0.0638847

>  <SCORE.INTRA.SOLV.lig_0>
-53.9067

>  <SCORE.INTRA.VDW>
-0.950471

>  <SCORE.INTRA.VDW.0>
-2.93492

>  <SCORE.INTRA.norm>
-0.64501

>  <SCORE.RESTR>
0

>  <SCORE.RESTR.CAVITY>
0

>  <SCORE.RESTR.norm>
0

>  <SCORE.SYSTEM>
0

>  <SCORE.SYSTEM.CONST>
0

>  <SCORE.SYSTEM.DIHEDRAL>
0

>  <SCORE.SYSTEM.SOLV>
0

>  <SCORE.SYSTEM.norm>
0

>  <SCORE.heavy>
37

>  <SCORE.norm>
-1.12382

>  <RMSD>
9.923

$$$$
lig.pdb
 OpenBabel11021811453D
libRbt.so/2013.1/901 2013/11/27
 37 40  0  0  0  0  0  0  0  0999 V2000
   -2.3644    7.6463    9.0007 C   0  0  2  0  0  0  0  0  0  0  0  0
   -1.8863    7.7365    7.5140 C   0  0  1  0  0  0  0  0  0  0  0  0
   -1.5318    9.1855    7.0684 C   0  0  0  0  0  0  0  0  0  0  0  0
   -2.6564   10.1782    7.4540 C   0  0  1  0  0  0  0  0  0  0  0  0
   -2.9373   10.0918    8.9710 C   0  0  1  0  0  0  0  0  0  0  0  0
   -4.0292   11.1107    9.3940 C   0  0  1  0  0  0  0  0  0  0  0  0
   -3.6587   12.5490    8.9242 C   0  0  1  0  0  0  0  0  0  0  0  0
   -3.2997   12.5935    7.4092 C   0  0  2  0  0  0  0  0  0  0  0  0
   -4.3324   14.8823    9.2650 C   0  0  0  0  0  0  0  0  0  0  0  0
   -3.2897    8.7285    9.3441 O   0  0  0  0  0  0  0  0  0  0  0  0
   -2.3477   11.5443    7.0536 O   0  0  0  0  0  0  0  0  0  0  0  0
   -0.7164    6.8546    7.3113 N   0  0  0  0  0  0  0  0  0  0  0  0
   -4.7662   13.4685    9.2580 N   0  0  0  0  0  0  0  0  0  0  0  0
   -5.3100   10.7252    8.9119 O   0  0  0  0  0  0  0  0  0  0  0  0
   -2.7958   13.9116    7.0441 O   0  0  0  0  0  0  0  0  0  0  0  0
   -1.2300    7.6338    9.9202 O   0  0  0  0  0  0  0  0  0  0  0  0
   -1.5508   14.3745    7.6520 C   0  0  2  0  0  0  0  0  0  0  0  0
   -1.1426   15.7677    7.0943 C   0  0  1  0  0  0  0  0  0  0  0  0
   -0.6688   15.6796    5.6152 C   0  0  2  0  0  0  0  0  0  0  0  0
    0.4460   14.6070    5.4455 C   0  0  1  0  0  0  0  0  0  0  0  0
    0.0107   13.2414    6.0464 C   0  0  1  0  0  0  0  0  0  0  0  0
    1.1602   12.2005    6.0077 C   0  0  0  0  0  0  0  0  0  0  0  0
   -0.4758   13.4180    7.4115 O   0  0  0  0  0  0  0  0  0  0  0  0
    0.8524   14.4691    4.0297 N   0  0  0  0  0  0  0  0  0  0  0  0
   -2.2081   16.7027    7.2531 O   0  0  0  0  0  0  0  0  0  0  0  0
   -0.2360   16.9511    5.1365 O   0  0  0  0  0  0  0  0  0  0  0  0
    2.2473   12.6147    6.8287 O   0  0  0  0  0  0  0  0  0  0  0  0
   -1.4206    7.0080   11.2225 C   0  0  1  0  0  0  0  0  0  0  0  0
   -0.2238    6.0950   11.6099 C   0  0  1  0  0  0  0  0  0  0  0  0
   -0.4900    5.3629   12.9553 C   0  0  2  0  0  0  0  0  0  0  0  0
   -0.8643    6.3505   14.1078 C   0  0  1  0  0  0  0  0  0  0  0  0
   -1.9716    7.3679   13.6995 C   0  0  0  0  0  0  0  0  0  0  0  0
   -1.6760    8.0629   12.3363 C   0  0  2  0  0  0  0  0  0  0  0  0
   -1.2523    5.6110   15.3279 N   0  0  0  0  0  0  0  0  0  0  0  0
   -2.7943    8.9696   11.9975 N   0  0  0  0  0  0  0  0  0  0  0  0
    0.0573    5.1608   10.5727 O   0  0  0  0  0  0  0  0  0  0  0  0
    0.6372    4.5719   13.3232 O   0  0  0  0  0  0  0  0  0  0  0  0
  1  2  1  0  0  0  0
  1 16  1  1  0  0  0
  2  3  1  0  0  0  0
  2 12  1  1  0  0  0
  4 11  1  1  0  0  0
  4  3  1  0  0  0  0
  5  4  1  0  0  0  0
  5 10  1  6  0  0  0
  6  7  1  0  0  0  0
  6  5  1  0  0  0  0
  6 14  1  6  0  0  0
  7  8  1  0  0  0  0
  7 13  1  6  0  0  0
  8 15  1  1  0  0  0
  8 11  1  0  0  0  0
  9 13  1  0  0  0  0
 10  1  1  0  0  0  0
 17 15  1  6  0  0  0
 17 18  1  0  0  0  0
 18 25  1  6  0  0  0
 19 18  1  0  0  0  0
 19 26  1  1  0  0  0
 20 19  1  0  0  0  0
 20 24  1  6  0  0  0
 21 23  1  0  0  0  0
 21 20  1  0  0  0  0
 21 22  1  1  0  0  0
 23 17  1  0  0  0  0
 27 22  1  0  0  0  0
 28 29  1  0  0  0  0
 28 16  1  6  0  0  0
 29 36  1  6  0  0  0
 30 37  1  1  0  0  0
 30 29  1  0  0  0  0
 31 30  1  0  0  0  0
 31 34  1  1  0  0  0
 32 31  1  0  0  0  0
 32 33  1  0  0  0  0
 33 28  1  0  0  0  0
 33 35  1  6  0  0  0
M  END
>  <CHROM.1>
65.35715052,63.63288963,161.00185542,-178.53596764,177.44358101,-154.63969898
63.10843116,175.66981514,64.07404820,-179.65392992,-63.37618489,135.54969818
-69.57934317,179.10946465,-58.64574964,9.15604291,-1.57324303,10.64807380
8.89393569,-1.56775972,0.58085887,-0.60909299

>  <Name>
lig.pdb

>  <RI>
3.60165e+07

>  <Rbt.Current_Directory>
/home/itssahil/PROJECTS/Mol_Feturizer/New_Systems/rnas/2m4q

>  <Rbt.Executable>
rbdock ($Id: //depot/dev/client3/rdock/2013.1/src/exe/rbdock.cxx#4 $)

>  <Rbt.Library>
libRbt.so (2013.1, Build901 2013/11/27)

>  <Rbt.Parameter_File>
/export/apps/rDock/src/rDock_2013.1_src/data/scripts/dock_solv.prm

>  <Rbt.Receptor>
prm/pocket_docking_8.prm

>  <SCORE>
-30.3134

>  <SCORE.INTER>
-10.5244

>  <SCORE.INTER.CONST>
1

>  <SCORE.INTER.POLAR>
-1.87106

>  <SCORE.INTER.ROT>
10

>  <SCORE.INTER.SOLV>
12.2632

>  <SCORE.INTER.VDW>
-15.1338

>  <SCORE.INTER.norm>
-0.284443

>  <SCORE.INTRA>
-19.789

>  <SCORE.INTRA.DIHEDRAL>
-31.9064

>  <SCORE.INTRA.DIHEDRAL.0>
44.8331

>  <SCORE.INTRA.POLAR>
-0.955121

>  <SCORE.INTRA.POLAR.0>
-0.108895

>  <SCORE.INTRA.REPUL>
-0.00912235

>  <SCORE.INTRA.REPUL.0>
0.00912235

>  <SCORE.INTRA.SOLV>
-0.269508

>  <SCORE.INTRA.SOLV.lig_0>
-53.9067

>  <SCORE.INTRA.VDW>
-0.408025

>  <SCORE.INTRA.VDW.0>
-2.93492

>  <SCORE.INTRA.norm>
-0.534839

>  <SCORE.RESTR>
0

>  <SCORE.RESTR.CAVITY>
0

>  <SCORE.RESTR.norm>
0

>  <SCORE.SYSTEM>
0

>  <SCORE.SYSTEM.CONST>
0

>  <SCORE.SYSTEM.DIHEDRAL>
0

>  <SCORE.SYSTEM.SOLV>
0

>  <SCORE.SYSTEM.norm>
0

>  <SCORE.heavy>
37

>  <SCORE.norm>
-0.819282

>  <RMSD>
9.925

$$$$
lig.pdb
 OpenBabel11021811453D
libRbt.so/2013.1/901 2013/11/27
 37 40  0  0  0  0  0  0  0  0999 V2000
    1.6065    4.8246    9.9643 C   0  0  2  0  0  0  0  0  0  0  0  0
    1.0551    4.9658    8.5072 C   0  0  1  0  0  0  0  0  0  0  0  0
    0.1889    6.2423    8.2980 C   0  0  0  0  0  0  0  0  0  0  0  0
   -0.8746    6.3836    9.4152 C   0  0  1  0  0  0  0  0  0  0  0  0
   -0.1885    6.3705   10.7995 C   0  0  1  0  0  0  0  0  0  0  0  0
   -1.2273    6.5578   11.9377 C   0  0  1  0  0  0  0  0  0  0  0  0
   -2.0904    7.8322   11.6978 C   0  0  1  0  0  0  0  0  0  0  0  0
   -2.7031    7.8608   10.2660 C   0  0  2  0  0  0  0  0  0  0  0  0
   -3.4426    9.3198   13.1022 C   0  0  0  0  0  0  0  0  0  0  0  0
    0.5905    5.1511   10.9674 O   0  0  0  0  0  0  0  0  0  0  0  0
   -1.6964    7.5745    9.2471 O   0  0  0  0  0  0  0  0  0  0  0  0
    2.1790    4.9654    7.5457 N   0  0  0  0  0  0  0  0  0  0  0  0
   -3.1281    7.9194   12.7460 N   0  0  0  0  0  0  0  0  0  0  0  0
   -2.0436    5.4033   12.0870 O   0  0  0  0  0  0  0  0  0  0  0  0
   -3.3586    9.1389   10.0185 O   0  0  0  0  0  0  0  0  0  0  0  0
    2.7985    5.6454   10.1595 O   0  0  0  0  0  0  0  0  0  0  0  0
   -2.5334   10.2833    9.6396 C   0  0  2  0  0  0  0  0  0  0  0  0
   -3.3157   11.6162    9.8129 C   0  0  1  0  0  0  0  0  0  0  0  0
   -4.4388   11.7674    8.7473 C   0  0  2  0  0  0  0  0  0  0  0  0
   -3.8776   11.5752    7.3085 C   0  0  1  0  0  0  0  0  0  0  0  0
   -3.0747   10.2499    7.1889 C   0  0  1  0  0  0  0  0  0  0  0  0
   -2.3949   10.1094    5.8016 C   0  0  0  0  0  0  0  0  0  0  0  0
   -2.0842   10.1566    8.2574 O   0  0  0  0  0  0  0  0  0  0  0  0
   -4.9524   11.6489    6.2946 N   0  0  0  0  0  0  0  0  0  0  0  0
   -3.8276   11.7278   11.1396 O   0  0  0  0  0  0  0  0  0  0  0  0
   -5.1052   13.0215    8.8758 O   0  0  0  0  0  0  0  0  0  0  0  0
   -3.3262   10.3562    4.7532 O   0  0  0  0  0  0  0  0  0  0  0  0
    3.4711    5.5667   11.4500 C   0  0  1  0  0  0  0  0  0  0  0  0
    4.5822    4.4797   11.4615 C   0  0  1  0  0  0  0  0  0  0  0  0
    5.2202    4.3456   12.8729 C   0  0  2  0  0  0  0  0  0  0  0  0
    5.7391    5.7129   13.4252 C   0  0  1  0  0  0  0  0  0  0  0  0
    4.6875    6.8559   13.3011 C   0  0  0  0  0  0  0  0  0  0  0  0
    4.0582    6.9417   11.8779 C   0  0  2  0  0  0  0  0  0  0  0  0
    6.2029    5.5731   14.8221 N   0  0  0  0  0  0  0  0  0  0  0  0
    3.0379    8.0123   11.8586 N   0  0  0  0  0  0  0  0  0  0  0  0
    4.0706    3.2275   11.0166 O   0  0  0  0  0  0  0  0  0  0  0  0
    6.2722    3.3840   12.8544 O   0  0  0  0  0  0  0  0  0  0  0  0
  1  2  1  0  0  0  0
  1 16  1  6  0  0  0
  2  3  1  0  0  0  0
  2 12  1  6  0  0  0
  4 11  1  6  0  0  0
  4  3  1  0  0  0  0
  5  4  1  0  0  0  0
  5 10  1  1  0  0  0
  6  7  1  0  0  0  0
  6  5  1  0  0  0  0
  6 14  1  6  0  0  0
  7  8  1  0  0  0  0
  7 13  1  1  0  0  0
  8 15  1  6  0  0  0
  8 11  1  0  0  0  0
  9 13  1  0  0  0  0
 10  1  1  0  0  0  0
 17 15  1  6  0  0  0
 17 18  1  0  0  0  0
 18 25  1  1  0  0  0
 19 18  1  0  0  0  0
 19 26  1  6  0  0  0
 20 19  1  0  0  0  0
 20 24  1  6  0  0  0
 21 23  1  0  0  0  0
 21 20  1  0  0  0  0
 21 22  1  6  0  0  0
 23 17  1  0  0  0  0
 27 22  1  0  0  0  0
 28 29  1  0  0  0  0
 28 16  1  6  0  0  0
 29 36  1  1  0  0  0
 30 37  1  6  0  0  0
 30 29  1  0  0  0  0
 31 30  1  0  0  0  0
 31 34  1  1  0  0  0
 32 31  1  0  0  0  0
 32 33  1  0  0  0  0
 33 28  1  0  0  0  0
 33 35  1  1  0  0  0
M  END
>  <CHROM.1>
-168.87994913,80.49667553,146.75469671,-156.90168369,-163.78158835,-176.87482620
-60.67364313,-69.74624122,-49.63203651,-171.36300063,-123.59515035,91.22085934
-175.32018359,-171.94015938,-176.04779333,61.11043795,-0.13251149,7.64701399
10.24721237,-0.28632388,0.65651556,-1.69744477

>  <Name>
lig.pdb

>  <RI>
0

>  <Rbt.Current_Directory>
/home/itssahil/PROJECTS/Mol_Feturizer/New_Systems/rnas/2m4q

>  <Rbt.Executable>
rbdock ($Id: //depot/dev/client3/rdock/2013.1/src/exe/rbdock.cxx#4 $)

>  <Rbt.Library>
libRbt.so (2013.1, Build901 2013/11/27)

>  <Rbt.Parameter_File>
/export/apps/rDock/src/rDock_2013.1_src/data/scripts/dock_solv.prm

>  <Rbt.Receptor>
prm/pocket_docking_3.prm

>  <SCORE>
-44.5968

>  <SCORE.INTER>
-28.5202

>  <SCORE.INTER.CONST>
1

>  <SCORE.INTER.POLAR>
-3.66401

>  <SCORE.INTER.ROT>
10

>  <SCORE.INTER.SOLV>
18.0591

>  <SCORE.INTER.VDW>
-23.0864

>  <SCORE.INTER.norm>
-0.770815

>  <SCORE.INTRA>
-16.0766

>  <SCORE.INTRA.DIHEDRAL>
-24.8448

>  <SCORE.INTRA.DIHEDRAL.0>
44.8331

>  <SCORE.INTRA.POLAR>
-0.978535

>  <SCORE.INTRA.POLAR.0>
-0.108895

>  <SCORE.INTRA.REPUL>
-0.00912235

>  <SCORE.INTRA.REPUL.0>
0.00912235

>  <SCORE.INTRA.SOLV>
-0.595395

>  <SCORE.INTRA.SOLV.lig_0>
-53.9067

>  <SCORE.INTRA.VDW>
0.0160762

>  <SCORE.INTRA.VDW.0>
-2.93492

>  <SCORE.INTRA.norm>
-0.434504

>  <SCORE.RESTR>
0

>  <SCORE.RESTR.CAVITY>
0

>  <SCORE.RESTR.norm>
0

>  <SCORE.SYSTEM>
0

>  <SCORE.SYSTEM.CONST>
0

>  <SCORE.SYSTEM.DIHEDRAL>
0

>  <SCORE.SYSTEM.SOLV>
0

>  <SCORE.SYSTEM.norm>
0

>  <SCORE.heavy>
37

>  <SCORE.norm>
-1.20532

>  <RMSD>
9.927

$$$$
lig.pdb
 OpenBabel11021811453D
libRbt.so/2013.1/901 2013/11/27
 37 40  0  0  0  0  0  0  0  0999 V2000
    1.4802    4.8481   10.0436 C   0  0  2  0  0  0  0  0  0  0  0  0
    0.9051    4.9011    8.5898 C   0  0  1  0  0  0  0  0  0  0  0  0
    0.0449    6.1691    8.3141 C   0  0  0  0  0  0  0  0  0  0  0  0
   -0.9983    6.3901    9.4374 C   0  0  1  0  0  0  0  0  0  0  0  0
   -0.2888    6.4591   10.8083 C   0  0  1  0  0  0  0  0  0  0  0  0
   -1.3067    6.7271   11.9492 C   0  0  1  0  0  0  0  0  0  0  0  0
   -2.1643    7.9910   11.6430 C   0  0  1  0  0  0  0  0  0  0  0  0
   -2.8011    7.9338   10.2226 C   0  0  2  0  0  0  0  0  0  0  0  0
   -3.5323    9.5731   12.9233 C   0  0  0  0  0  0  0  0  0  0  0  0
    0.4839    5.2462   11.0406 O   0  0  0  0  0  0  0  0  0  0  0  0
   -1.8140    7.5748    9.2074 O   0  0  0  0  0  0  0  0  0  0  0  0
    2.0125    4.8301    7.6119 N   0  0  0  0  0  0  0  0  0  0  0  0
   -3.1833    8.1534   12.7004 N   0  0  0  0  0  0  0  0  0  0  0  0
   -2.1289    5.5914   12.1852 O   0  0  0  0  0  0  0  0  0  0  0  0
   -3.4511    9.1992    9.9050 O   0  0  0  0  0  0  0  0  0  0  0  0
    2.6814    5.6694   10.1665 O   0  0  0  0  0  0  0  0  0  0  0  0
   -2.6144   10.3412    9.5449 C   0  0  2  0  0  0  0  0  0  0  0  0
   -3.4718   11.6268    9.3696 C   0  0  1  0  0  0  0  0  0  0  0  0
   -4.3522   11.5616    8.0888 C   0  0  2  0  0  0  0  0  0  0  0  0
   -3.4945   11.2277    6.8339 C   0  0  1  0  0  0  0  0  0  0  0  0
   -2.6286    9.9579    7.0644 C   0  0  1  0  0  0  0  0  0  0  0  0
   -1.6681    9.6901    5.8761 C   0  0  0  0  0  0  0  0  0  0  0  0
   -1.8808   10.0715    8.3131 O   0  0  0  0  0  0  0  0  0  0  0  0
   -4.3353   11.0958    5.6239 N   0  0  0  0  0  0  0  0  0  0  0  0
   -4.2543   11.8702   10.5371 O   0  0  0  0  0  0  0  0  0  0  0  0
   -5.0836   12.7717    7.9045 O   0  0  0  0  0  0  0  0  0  0  0  0
   -0.8010   10.7996    5.6650 O   0  0  0  0  0  0  0  0  0  0  0  0
    3.8708    5.0489   10.7358 C   0  0  1  0  0  0  0  0  0  0  0  0
    3.5783    4.3819   12.1090 C   0  0  1  0  0  0  0  0  0  0  0  0
    4.8782    3.8115   12.7431 C   0  0  2  0  0  0  0  0  0  0  0  0
    5.6381    2.8449   11.7777 C   0  0  1  0  0  0  0  0  0  0  0  0
    5.8264    3.4382   10.3493 C   0  0  0  0  0  0  0  0  0  0  0  0
    4.5050    4.0173    9.7601 C   0  0  2  0  0  0  0  0  0  0  0  0
    6.9375    2.4400   12.3555 N   0  0  0  0  0  0  0  0  0  0  0  0
    4.7790    4.6048    8.4307 N   0  0  0  0  0  0  0  0  0  0  0  0
    2.9449    5.3004   12.9937 O   0  0  0  0  0  0  0  0  0  0  0  0
    4.5854    3.1570   13.9750 O   0  0  0  0  0  0  0  0  0  0  0  0
  1  2  1  0  0  0  0
  1 16  1  6  0  0  0
  2  3  1  0  0  0  0
  2 12  1  6  0  0  0
  4 11  1  6  0  0  0
  4  3  1  0  0  0  0
  5  4  1  0  0  0  0
  5 10  1  1  0  0  0
  6  7  1  0  0  0  0
  6  5  1  0  0  0  0
  6 14  1  6  0  0  0
  7  8  1  0  0  0  0
  7 13  1  1  0  0  0
  8 15  1  6  0  0  0
  8 11  1  0  0  0  0
  9 13  1  0  0  0  0
 10  1  1  0  0  0  0
 17 15  1  6  0  0  0
 17 18  1  0  0  0  0
 18 25  1  1  0  0  0
 19 18  1  0  0  0  0
 19 26  1  6  0  0  0
 20 19  1  0  0  0  0
 20 24  1  6  0  0  0
 21 23  1  0  0  0  0
 21 20  1  0  0  0  0
 21 22  1  6  0  0  0
 23 17  1  0  0  0  0
 27 22  1  0  0  0  0
 28 29  1  0  0  0  0
 28 16  1  6  0  0  0
 29 36  1  1  0  0  0
 30 37  1  1  0  0  0
 30 29  1  0  0  0  0
 31 30  1  0  0  0  0
 31 34  1  1  0  0  0
 32 31  1  0  0  0  0
 32 33  1  0  0  0  0
 33 28  1  0  0  0  0
 33 35  1  6  0  0  0
M  END
>  <CHROM.1>
-164.40712093,75.61547254,149.70831543,-156.36930592,-174.78143792,-128.10881959
176.51281075,-69.03457011,58.58397416,-173.22469927,-179.78239975,-52.86429606
179.36673455,61.89985034,-177.64965751,58.67940140,-0.05399297,7.24927763
9.91444327,-0.48565614,0.60906593,-1.23416458

>  <Name>
lig.pdb

>  <RI>
0

>  <Rbt.Current_Directory>
/home/itssahil/PROJECTS/Mol_Feturizer/New_Systems/rnas/2m4q

>  <Rbt.Executable>
rbdock ($Id: //depot/dev/client3/rdock/2013.1/src/exe/rbdock.cxx#4 $)

>  <Rbt.Library>
libRbt.so (2013.1, Build901 2013/11/27)

>  <Rbt.Parameter_File>
/export/apps/rDock/src/rDock_2013.1_src/data/scripts/dock_solv.prm

>  <Rbt.Receptor>
prm/pocket_docking_2.prm

>  <SCORE>
-43.3579

>  <SCORE.INTER>
-24.5346

>  <SCORE.INTER.CONST>
1

>  <SCORE.INTER.POLAR>
-2.46161

>  <SCORE.INTER.ROT>
10

>  <SCORE.INTER.SOLV>
15.8493

>  <SCORE.INTER.VDW>
-23.7008

>  <SCORE.INTER.norm>
-0.663098

>  <SCORE.INTRA>
-20.0014

>  <SCORE.INTRA.DIHEDRAL>
-31.383

>  <SCORE.INTRA.DIHEDRAL.0>
44.8331

>  <SCORE.INTRA.POLAR>
-1.19565

>  <SCORE.INTRA.POLAR.0>
-0.108895

>  <SCORE.INTRA.REPUL>
-0.00912235

>  <SCORE.INTRA.REPUL.0>
0.00912235

>  <SCORE.INTRA.SOLV>
0.263875

>  <SCORE.INTRA.SOLV.lig_0>
-53.9067

>  <SCORE.INTRA.VDW>
-0.330999

>  <SCORE.INTRA.VDW.0>
-2.93492

>  <SCORE.INTRA.norm>
-0.540578

>  <SCORE.RESTR>
1.17815

>  <SCORE.RESTR.CAVITY>
1.17815

>  <SCORE.RESTR.norm>
0.0318419

>  <SCORE.SYSTEM>
0

>  <SCORE.SYSTEM.CONST>
0

>  <SCORE.SYSTEM.DIHEDRAL>
0

>  <SCORE.SYSTEM.SOLV>
0

>  <SCORE.SYSTEM.norm>
0

>  <SCORE.heavy>
37

>  <SCORE.norm>
-1.17183

>  <RMSD>
9.929

$$$$
lig.pdb
 OpenBabel11021811453D
libRbt.so/2013.1/901 2013/11/27
 37 40  0  0  0  0  0  0  0  0999 V2000
    0.9980    5.0895    9.6566 C   0  0  2  0  0  0  0  0  0  0  0  0
    0.2920    5.3394    8.2832 C   0  0  1  0  0  0  0  0  0  0  0  0
   -0.4935    6.6826    8.2305 C   0  0  0  0  0  0  0  0  0  0  0  0
   -1.4049    6.8444    9.4723 C   0  0  1  0  0  0  0  0  0  0  0  0
   -0.5643    6.7161   10.7624 C   0  0  1  0  0  0  0  0  0  0  0  0
   -1.4454    6.9210   12.0238 C   0  0  1  0  0  0  0  0  0  0  0  0
   -2.2315    8.2633   11.9402 C   0  0  1  0  0  0  0  0  0  0  0  0
   -3.0039    8.4042   10.5949 C   0  0  2  0  0  0  0  0  0  0  0  0
   -3.5564    9.7674   13.3530 C   0  0  0  0  0  0  0  0  0  0  0  0
    0.1342    5.4380   10.7869 O   0  0  0  0  0  0  0  0  0  0  0  0
   -2.1481    8.0971    9.4516 O   0  0  0  0  0  0  0  0  0  0  0  0
    1.2922    5.3062    7.1942 N   0  0  0  0  0  0  0  0  0  0  0  0
   -3.1297    8.3728   13.1083 N   0  0  0  0  0  0  0  0  0  0  0  0
   -2.3238    5.8212   12.2245 O   0  0  0  0  0  0  0  0  0  0  0  0
   -3.5849    9.7359   10.4788 O   0  0  0  0  0  0  0  0  0  0  0  0
    2.2634    5.8137    9.7392 O   0  0  0  0  0  0  0  0  0  0  0  0
   -2.7340   10.8295   10.0165 C   0  0  2  0  0  0  0  0  0  0  0  0
   -3.4763   12.1927   10.1140 C   0  0  1  0  0  0  0  0  0  0  0  0
   -4.6104   12.3077    9.0554 C   0  0  2  0  0  0  0  0  0  0  0  0
   -4.0761   12.0080    7.6248 C   0  0  1  0  0  0  0  0  0  0  0  0
   -3.3122   10.6553    7.5802 C   0  0  1  0  0  0  0  0  0  0  0  0
   -2.6572   10.4071    6.1961 C   0  0  0  0  0  0  0  0  0  0  0  0
   -2.3090   10.6020    8.6395 O   0  0  0  0  0  0  0  0  0  0  0  0
   -5.1633   12.0476    6.6224 N   0  0  0  0  0  0  0  0  0  0  0  0
   -3.9651   12.4035   11.4373 O   0  0  0  0  0  0  0  0  0  0  0  0
   -5.2397   13.5861    9.1118 O   0  0  0  0  0  0  0  0  0  0  0  0
   -2.0494    9.1204    6.1460 O   0  0  0  0  0  0  0  0  0  0  0  0
    3.4290    5.0871   10.2265 C   0  0  1  0  0  0  0  0  0  0  0  0
    3.1883    4.4804   11.6373 C   0  0  1  0  0  0  0  0  0  0  0  0
    4.4738    3.7938   12.1787 C   0  0  2  0  0  0  0  0  0  0  0  0
    5.0500    2.7363   11.1819 C   0  0  1  0  0  0  0  0  0  0  0  0
    5.1754    3.2791    9.7268 C   0  0  0  0  0  0  0  0  0  0  0  0
    3.8732    3.9775    9.2316 C   0  0  2  0  0  0  0  0  0  0  0  0
    6.3466    2.2132   11.6627 N   0  0  0  0  0  0  0  0  0  0  0  0
    4.0914    4.5079    7.8683 N   0  0  0  0  0  0  0  0  0  0  0  0
    2.7260    5.4756   12.5447 O   0  0  0  0  0  0  0  0  0  0  0  0
    4.2222    3.1967   13.4483 O   0  0  0  0  0  0  0  0  0  0  0  0
  1  2  1  0  0  0  0
  1 16  1  6  0  0  0
  2  3  1  0  0  0  0
  2 12  1  6  0  0  0
  4 11  1  6  0  0  0
  4  3  1  0  0  0  0
  5  4  1  0  0  0  0
  5 10  1  1  0  0  0
  6  7  1  0  0  0  0
  6  5  1  0  0  0  0
  6 14  1  6  0  0  0
  7  8  1  0  0  0  0
  7 13  1  1  0  0  0
  8 15  1  6  0  0  0
  8 11  1  0  0  0  0
  9 13  1  0  0  0  0
 10  1  1  0  0  0  0
 17 15  1  6  0  0  0
 17 18  1  0  0  0  0
 18 25  1  1  0  0  0
 19 18  1  0  0  0  0
 19 26  1  6  0  0  0
 20 19  1  0  0  0  0
 20 24  1  6  0  0  0
 21 23  1  0  0  0  0
 21 20  1  0  0  0  0
 21 22  1  6  0  0  0
 23 17  1  0  0  0  0
 27 22  1  0  0  0  0
 28 29  1  0  0  0  0
 28 16  1  6  0  0  0
 29 36  1  1  0  0  0
 30 37  1  1  0  0  0
 30 29  1  0  0  0  0
 31 30  1  0  0  0  0
 31 34  1  1  0  0  0
 32 31  1  0  0  0  0
 32 33  1  0  0  0  0
 33 28  1  0  0  0  0
 33 35  1  6  0  0  0
M  END
>  <CHROM.1>
153.78603571,82.02011012,160.66472236,-75.60670834,-173.43687742,-133.30047285
-167.34204688,-162.83234813,-175.63724479,-61.45404294,58.56322692,-56.74019176
178.13349295,-175.13691357,-74.00464892,-168.34054424,-0.45247109,7.51676667
9.99318925,-0.27933776,0.72811495,-1.38567833

>  <Name>
lig.pdb

>  <RI>
0

>  <Rbt.Current_Directory>
/home/itssahil/PROJECTS/Mol_Feturizer/New_Systems/rnas/2m4q

>  <Rbt.Executable>
rbdock ($Id: //depot/dev/client3/rdock/2013.1/src/exe/rbdock.cxx#4 $)

>  <Rbt.Library>
libRbt.so (2013.1, Build901 2013/11/27)

>  <Rbt.Parameter_File>
/export/apps/rDock/src/rDock_2013.1_src/data/scripts/dock_solv.prm

>  <Rbt.Receptor>
prm/pocket_docking_2.prm

>  <SCORE>
-44.9101

>  <SCORE.INTER>
-28.0229

>  <SCORE.INTER.CONST>
1

>  <SCORE.INTER.POLAR>
-3.40808

>  <SCORE.INTER.ROT>
10

>  <SCORE.INTER.SOLV>
17.6937

>  <SCORE.INTER.VDW>
-23.4863

>  <SCORE.INTER.norm>
-0.757377

>  <SCORE.INTRA>
-17.9315

>  <SCORE.INTRA.DIHEDRAL>
-30.2715

>  <SCORE.INTRA.DIHEDRAL.0>
44.8331

>  <SCORE.INTRA.POLAR>
-0.678541

>  <SCORE.INTRA.POLAR.0>
-0.108895

>  <SCORE.INTRA.REPUL>
-0.00912235

>  <SCORE.INTRA.REPUL.0>
0.00912235

>  <SCORE.INTRA.SOLV>
-0.0236535

>  <SCORE.INTRA.SOLV.lig_0>
-53.9067

>  <SCORE.INTRA.VDW>
-0.431277

>  <SCORE.INTRA.VDW.0>
-2.93492

>  <SCORE.INTRA.norm>
-0.484636

>  <SCORE.RESTR>
1.04441

>  <SCORE.RESTR.CAVITY>
1.04441

>  <SCORE.RESTR.norm>
0.0282273

>  <SCORE.SYSTEM>
0

>  <SCORE.SYSTEM.CONST>
0

>  <SCORE.SYSTEM.DIHEDRAL>
0

>  <SCORE.SYSTEM.SOLV>
0

>  <SCORE.SYSTEM.norm>
0

>  <SCORE.heavy>
37

>  <SCORE.norm>
-1.21379

>  <RMSD>
9.934

$$$$
lig.pdb
 OpenBabel11021811453D
libRbt.so/2013.1/901 2013/11/27
 37 40  0  0  0  0  0  0  0  0999 V2000
   -0.5524    7.5479   12.3875 C   0  0  2  0  0  0  0  0  0  0  0  0
   -1.4302    8.0676   13.5735 C   0  0  1  0  0  0  0  0  0  0  0  0
   -1.9979    9.4981   13.3382 C   0  0  0  0  0  0  0  0  0  0  0  0
   -0.8848   10.4703   12.8746 C   0  0  1  0  0  0  0  0  0  0  0  0
   -0.1879    9.9100   11.6146 C   0  0  1  0  0  0  0  0  0  0  0  0
    0.9023   10.8878   11.0999 C   0  0  1  0  0  0  0  0  0  0  0  0
    0.3133   12.3141   10.8867 C   0  0  1  0  0  0  0  0  0  0  0  0
   -0.4550   12.8218   12.1430 C   0  0  2  0  0  0  0  0  0  0  0  0
    1.7360   13.1174    9.0579 C   0  0  0  0  0  0  0  0  0  0  0  0
    0.3515    8.5834   11.8815 O   0  0  0  0  0  0  0  0  0  0  0  0
   -1.3903   11.8164   12.6411 O   0  0  0  0  0  0  0  0  0  0  0  0
   -2.5437    7.1260   13.8207 N   0  0  0  0  0  0  0  0  0  0  0  0
    1.4007   13.2339   10.4935 N   0  0  0  0  0  0  0  0  0  0  0  0
    2.0229   10.9186   11.9745 O   0  0  0  0  0  0  0  0  0  0  0  0
   -1.1340   14.0781   11.8510 O   0  0  0  0  0  0  0  0  0  0  0  0
   -1.3825    7.0228   11.3069 O   0  0  0  0  0  0  0  0  0  0  0  0
   -1.2224   15.0841   12.9064 C   0  0  2  0  0  0  0  0  0  0  0  0
   -2.6804   15.2138   13.4319 C   0  0  1  0  0  0  0  0  0  0  0  0
   -3.6130   15.8845   12.3829 C   0  0  2  0  0  0  0  0  0  0  0  0
   -3.0225   17.2373   11.8898 C   0  0  1  0  0  0  0  0  0  0  0  0
   -1.5548   17.0692   11.4067 C   0  0  1  0  0  0  0  0  0  0  0  0
   -0.9076   18.4306   11.0405 C   0  0  0  0  0  0  0  0  0  0  0  0
   -0.7613   16.3799   12.4200 O   0  0  0  0  0  0  0  0  0  0  0  0
   -3.8696   17.8469   10.8414 N   0  0  0  0  0  0  0  0  0  0  0  0
   -3.1787   13.9430   13.8461 O   0  0  0  0  0  0  0  0  0  0  0  0
   -4.9304   16.0570   12.9007 O   0  0  0  0  0  0  0  0  0  0  0  0
   -0.7644   19.2510   12.1954 O   0  0  0  0  0  0  0  0  0  0  0  0
   -0.9034    7.1927    9.9411 C   0  0  1  0  0  0  0  0  0  0  0  0
    0.1267    6.0978    9.5456 C   0  0  1  0  0  0  0  0  0  0  0  0
    0.6967    6.3529    8.1218 C   0  0  2  0  0  0  0  0  0  0  0  0
   -0.4286    6.5073    7.0477 C   0  0  1  0  0  0  0  0  0  0  0  0
   -1.5476    7.5017    7.4798 C   0  0  0  0  0  0  0  0  0  0  0  0
   -2.0755    7.2237    8.9195 C   0  0  2  0  0  0  0  0  0  0  0  0
    0.1430    6.8933    5.7399 N   0  0  0  0  0  0  0  0  0  0  0  0
   -3.0929    8.2380    9.2712 N   0  0  0  0  0  0  0  0  0  0  0  0
    1.1766    6.0199   10.5043 O   0  0  0  0  0  0  0  0  0  0  0  0
    1.5986    5.3126    7.7529 O   0  0  0  0  0  0  0  0  0  0  0  0
  1  2  1  0  0  0  0
  1 16  1  6  0  0  0
  2  3  1  0  0  0  0
  2 12  1  6  0  0  0
  4 11  1  6  0  0  0
  4  3  1  0  0  0  0
  5  4  1  0  0  0  0
  5 10  1  1  0  0  0
  6  7  1  0  0  0  0
  6  5  1  0  0  0  0
  6 14  1  1  0  0  0
  7  8  1  0  0  0  0
  7 13  1  1  0  0  0
  8 15  1  6  0  0  0
  8 11  1  0  0  0  0
  9 13  1  0  0  0  0
 10  1  1  0  0  0  0
 17 15  1  6  0  0  0
 17 18  1  0  0  0  0
 18 25  1  6  0  0  0
 19 18  1  0  0  0  0
 19 26  1  1  0  0  0
 20 19  1  0  0  0  0
 20 24  1  6  0  0  0
 21 23  1  0  0  0  0
 21 20  1  0  0  0  0
 21 22  1  1  0  0  0
 23 17  1  0  0  0  0
 27 22  1  0  0  0  0
 28 29  1  0  0  0  0
 28 16  1  1  0  0  0
 29 36  1  1  0  0  0
 30 37  1  6  0  0  0
 30 29  1  0  0  0  0
 31 30  1  0  0  0  0
 31 34  1  6  0  0  0
 32 31  1  0  0  0  0
 32 33  1  0  0  0  0
 33 28  1  0  0  0  0
 33 35  1  1  0  0  0
M  END
>  <CHROM.1>
-59.28997543,-144.50575594,80.23482676,-55.64098957,-109.21262541,146.47815623
63.91838340,161.43884340,66.04591956,-45.36096022,-163.01022043,82.36970559
-29.68411921,-56.86938419,130.25124961,171.21681698,-0.97519649,11.30709235
11.10184501,1.21936213,-1.01327975,3.11347576

>  <Name>
lig.pdb

>  <RI>
3.60165e+07

>  <Rbt.Current_Directory>
/home/itssahil/PROJECTS/Mol_Feturizer/New_Systems/rnas/2m4q

>  <Rbt.Executable>
rbdock ($Id: //depot/dev/client3/rdock/2013.1/src/exe/rbdock.cxx#4 $)

>  <Rbt.Library>
libRbt.so (2013.1, Build901 2013/11/27)

>  <Rbt.Parameter_File>
/export/apps/rDock/src/rDock_2013.1_src/data/scripts/dock_solv.prm

>  <Rbt.Receptor>
prm/pocket_docking_8.prm

>  <SCORE>
-40.2937

>  <SCORE.INTER>
-29.81

>  <SCORE.INTER.CONST>
1

>  <SCORE.INTER.POLAR>
-5.97047

>  <SCORE.INTER.ROT>
10

>  <SCORE.INTER.SOLV>
16.1009

>  <SCORE.INTER.VDW>
-15.6054

>  <SCORE.INTER.norm>
-0.805676

>  <SCORE.INTRA>
-10.8886

>  <SCORE.INTRA.DIHEDRAL>
-16.682

>  <SCORE.INTRA.DIHEDRAL.0>
44.8331

>  <SCORE.INTRA.POLAR>
-0.82531

>  <SCORE.INTRA.POLAR.0>
-0.108895

>  <SCORE.INTRA.REPUL>
-0.00912235

>  <SCORE.INTRA.REPUL.0>
0.00912235

>  <SCORE.INTRA.SOLV>
-1.36263

>  <SCORE.INTRA.SOLV.lig_0>
-53.9067

>  <SCORE.INTRA.VDW>
0.98536

>  <SCORE.INTRA.VDW.0>
-2.93492

>  <SCORE.INTRA.norm>
-0.294286

>  <SCORE.RESTR>
0.404961

>  <SCORE.RESTR.CAVITY>
0.404961

>  <SCORE.RESTR.norm>
0.0109449

>  <SCORE.SYSTEM>
0

>  <SCORE.SYSTEM.CONST>
0

>  <SCORE.SYSTEM.DIHEDRAL>
0

>  <SCORE.SYSTEM.SOLV>
0

>  <SCORE.SYSTEM.norm>
0

>  <SCORE.heavy>
37

>  <SCORE.norm>
-1.08902

>  <RMSD>
9.935

$$$$
lig.pdb
 OpenBabel11021811453D
libRbt.so/2013.1/901 2013/11/27
 37 40  0  0  0  0  0  0  0  0999 V2000
    1.0918    4.8476    9.8728 C   0  0  2  0  0  0  0  0  0  0  0  0
    0.4559    5.0674    8.4606 C   0  0  1  0  0  0  0  0  0  0  0  0
   -0.3434    6.3985    8.3460 C   0  0  0  0  0  0  0  0  0  0  0  0
   -1.3210    6.5659    9.5356 C   0  0  1  0  0  0  0  0  0  0  0  0
   -0.5479    6.4684   10.8698 C   0  0  1  0  0  0  0  0  0  0  0  0
   -1.4969    6.6795   12.0800 C   0  0  1  0  0  0  0  0  0  0  0  0
   -2.2951    8.0093   11.9345 C   0  0  1  0  0  0  0  0  0  0  0  0
   -2.9973    8.1195   10.5485 C   0  0  2  0  0  0  0  0  0  0  0  0
   -3.6237    9.5288   13.3273 C   0  0  0  0  0  0  0  0  0  0  0  0
    0.1652    5.2007   10.9507 O   0  0  0  0  0  0  0  0  0  0  0  0
   -2.0786    7.8076    9.4566 O   0  0  0  0  0  0  0  0  0  0  0  0
    1.5124    5.0321    7.4261 N   0  0  0  0  0  0  0  0  0  0  0  0
   -3.2549    8.1234   13.0520 N   0  0  0  0  0  0  0  0  0  0  0  0
   -2.3700    5.5705   12.2513 O   0  0  0  0  0  0  0  0  0  0  0  0
   -3.5890    9.4410   10.3815 O   0  0  0  0  0  0  0  0  0  0  0  0
    2.3415    5.5906   10.0104 O   0  0  0  0  0  0  0  0  0  0  0  0
   -2.7214   10.5482    9.9873 C   0  0  2  0  0  0  0  0  0  0  0  0
   -3.4974   11.8959    9.9992 C   0  0  1  0  0  0  0  0  0  0  0  0
   -4.5301   11.9759    8.8386 C   0  0  2  0  0  0  0  0  0  0  0  0
   -3.8588   11.6737    7.4675 C   0  0  1  0  0  0  0  0  0  0  0  0
   -3.0664   10.3373    7.5101 C   0  0  1  0  0  0  0  0  0  0  0  0
   -2.2804   10.0896    6.1959 C   0  0  0  0  0  0  0  0  0  0  0  0
   -2.1654   10.3163    8.6586 O   0  0  0  0  0  0  0  0  0  0  0  0
   -4.8485   11.6798    6.3680 N   0  0  0  0  0  0  0  0  0  0  0  0
   -4.1117   12.1092   11.2688 O   0  0  0  0  0  0  0  0  0  0  0  0
   -5.1881   13.2408    8.8211 O   0  0  0  0  0  0  0  0  0  0  0  0
   -1.4836    8.9138    6.2954 O   0  0  0  0  0  0  0  0  0  0  0  0
    3.3863    5.0100   10.8442 C   0  0  1  0  0  0  0  0  0  0  0  0
    4.7840    5.0968   10.1697 C   0  0  1  0  0  0  0  0  0  0  0  0
    5.8666    4.3868   11.0306 C   0  0  2  0  0  0  0  0  0  0  0  0
    5.8979    4.9131   12.5023 C   0  0  1  0  0  0  0  0  0  0  0  0
    4.4857    4.9635   13.1588 C   0  0  0  0  0  0  0  0  0  0  0  0
    3.4272    5.6640   12.2546 C   0  0  2  0  0  0  0  0  0  0  0  0
    6.8332    4.1168   13.3251 N   0  0  0  0  0  0  0  0  0  0  0  0
    2.1092    5.6241   12.9244 N   0  0  0  0  0  0  0  0  0  0  0  0
    4.7466    4.5525    8.8545 O   0  0  0  0  0  0  0  0  0  0  0  0
    7.1504    4.5211   10.4260 O   0  0  0  0  0  0  0  0  0  0  0  0
  1  2  1  0  0  0  0
  1 16  1  6  0  0  0
  2  3  1  0  0  0  0
  2 12  1  6  0  0  0
  4 11  1  6  0  0  0
  4  3  1  0  0  0  0
  5  4  1  0  0  0  0
  5 10  1  1  0  0  0
  6  7  1  0  0  0  0
  6  5  1  0  0  0  0
  6 14  1  6  0  0  0
  7  8  1  0  0  0  0
  7 13  1  1  0  0  0
  8 15  1  6  0  0  0
  8 11  1  0  0  0  0
  9 13  1  0  0  0  0
 10  1  1  0  0  0  0
 17 15  1  6  0  0  0
 17 18  1  0  0  0  0
 18 25  1  1  0  0  0
 19 18  1  0  0  0  0
 19 26  1  6  0  0  0
 20 19  1  0  0  0  0
 20 24  1  6  0  0  0
 21 23  1  0  0  0  0
 21 20  1  0  0  0  0
 21 22  1  6  0  0  0
 23 17  1  0  0  0  0
 27 22  1  0  0  0  0
 28 29  1  0  0  0  0
 28 16  1  6  0  0  0
 29 36  1  6  0  0  0
 30 37  1  6  0  0  0
 30 29  1  0  0  0  0
 31 30  1  0  0  0  0
 31 34  1  1  0  0  0
 32 31  1  0  0  0  0
 32 33  1  0  0  0  0
 33 28  1  0  0  0  0
 33 35  1  1  0  0  0
M  END
>  <CHROM.1>
-56.86345420,80.17216133,155.77931272,61.85622249,-174.29138141,-147.45232304
176.99964737,-74.47058288,175.58917882,-52.89942303,-53.16571230,135.24458135
61.58262804,65.04243337,172.02331036,76.03834321,-0.21218154,7.58793579,10.13276719
-0.32572296,0.58430562,-1.35704955

>  <Name>
lig.pdb

>  <RI>
0

>  <Rbt.Current_Directory>
/home/itssahil/PROJECTS/Mol_Feturizer/New_Systems/rnas/2m4q

>  <Rbt.Executable>
rbdock ($Id: //depot/dev/client3/rdock/2013.1/src/exe/rbdock.cxx#4 $)

>  <Rbt.Library>
libRbt.so (2013.1, Build901 2013/11/27)

>  <Rbt.Parameter_File>
/export/apps/rDock/src/rDock_2013.1_src/data/scripts/dock_solv.prm

>  <Rbt.Receptor>
prm/pocket_docking_2.prm

>  <SCORE>
-34.994

>  <SCORE.INTER>
-18.3199

>  <SCORE.INTER.CONST>
1

>  <SCORE.INTER.POLAR>
-2.01221

>  <SCORE.INTER.ROT>
10

>  <SCORE.INTER.SOLV>
16.4334

>  <SCORE.INTER.VDW>
-21.2504

>  <SCORE.INTER.norm>
-0.495133

>  <SCORE.INTRA>
-17.6636

>  <SCORE.INTRA.DIHEDRAL>
-29.3136

>  <SCORE.INTRA.DIHEDRAL.0>
44.8331

>  <SCORE.INTRA.POLAR>
-0.564904

>  <SCORE.INTRA.POLAR.0>
-0.108895

>  <SCORE.INTRA.REPUL>
-0.00912235

>  <SCORE.INTRA.REPUL.0>
0.00912235

>  <SCORE.INTRA.SOLV>
-0.0961549

>  <SCORE.INTRA.SOLV.lig_0>
-53.9067

>  <SCORE.INTRA.VDW>
-0.992475

>  <SCORE.INTRA.VDW.0>
-2.93492

>  <SCORE.INTRA.norm>
-0.477396

>  <SCORE.RESTR>
0.989519

>  <SCORE.RESTR.CAVITY>
0.989519

>  <SCORE.RESTR.norm>
0.0267437

>  <SCORE.SYSTEM>
0

>  <SCORE.SYSTEM.CONST>
0

>  <SCORE.SYSTEM.DIHEDRAL>
0

>  <SCORE.SYSTEM.SOLV>
0

>  <SCORE.SYSTEM.norm>
0

>  <SCORE.heavy>
37

>  <SCORE.norm>
-0.945785

>  <RMSD>
9.938

$$$$
lig.pdb
 OpenBabel11021811453D
libRbt.so/2013.1/901 2013/11/27
 37 40  0  0  0  0  0  0  0  0999 V2000
    1.2614    4.8904    9.6824 C   0  0  2  0  0  0  0  0  0  0  0  0
    0.6243    5.0640    8.2643 C   0  0  1  0  0  0  0  0  0  0  0  0
   -0.2110    6.3699    8.1206 C   0  0  0  0  0  0  0  0  0  0  0  0
   -1.1967    6.5342    9.3039 C   0  0  1  0  0  0  0  0  0  0  0  0
   -0.4256    6.4850   10.6419 C   0  0  1  0  0  0  0  0  0  0  0  0
   -1.3839    6.6943   11.8450 C   0  0  1  0  0  0  0  0  0  0  0  0
   -2.2181    7.9983   11.6704 C   0  0  1  0  0  0  0  0  0  0  0  0
   -2.9185    8.0610   10.2806 C   0  0  2  0  0  0  0  0  0  0  0  0
   -3.5129    9.5156   13.0969 C   0  0  0  0  0  0  0  0  0  0  0  0
    0.3219    5.2394   10.7504 O   0  0  0  0  0  0  0  0  0  0  0  0
   -1.9880    7.7526    9.1977 O   0  0  0  0  0  0  0  0  0  0  0  0
    1.6848    5.0370    7.2336 N   0  0  0  0  0  0  0  0  0  0  0  0
   -3.1843    8.1084   12.7828 N   0  0  0  0  0  0  0  0  0  0  0  0
   -2.2267    5.5653   12.0364 O   0  0  0  0  0  0  0  0  0  0  0  0
   -3.5459    9.3621   10.0852 O   0  0  0  0  0  0  0  0  0  0  0  0
    2.4897    5.6702    9.8083 O   0  0  0  0  0  0  0  0  0  0  0  0
   -2.7095   10.4823    9.6614 C   0  0  2  0  0  0  0  0  0  0  0  0
   -3.4803   11.8281    9.7767 C   0  0  1  0  0  0  0  0  0  0  0  0
   -4.5993   11.9446    8.7023 C   0  0  2  0  0  0  0  0  0  0  0  0
   -4.0362   11.6876    7.2745 C   0  0  1  0  0  0  0  0  0  0  0  0
   -3.2449   10.3514    7.2126 C   0  0  1  0  0  0  0  0  0  0  0  0
   -2.5629   10.1472    5.8344 C   0  0  0  0  0  0  0  0  0  0  0  0
   -2.2580   10.2941    8.2869 O   0  0  0  0  0  0  0  0  0  0  0  0
   -5.1077   11.7284    6.2553 N   0  0  0  0  0  0  0  0  0  0  0  0
   -3.9945   11.9996   11.0961 O   0  0  0  0  0  0  0  0  0  0  0  0
   -5.2548   13.2088    8.7765 O   0  0  0  0  0  0  0  0  0  0  0  0
   -1.3039    9.4989    5.9826 O   0  0  0  0  0  0  0  0  0  0  0  0
    3.6366    5.0301   10.4398 C   0  0  1  0  0  0  0  0  0  0  0  0
    3.2794    4.4399   11.8327 C   0  0  1  0  0  0  0  0  0  0  0  0
    4.5369    3.8483   12.5297 C   0  0  2  0  0  0  0  0  0  0  0  0
    5.2828    2.8085   11.6319 C   0  0  1  0  0  0  0  0  0  0  0  0
    5.5344    3.3267   10.1842 C   0  0  0  0  0  0  0  0  0  0  0  0
    4.2545    3.9299    9.5308 C   0  0  2  0  0  0  0  0  0  0  0  0
    6.5481    2.3796   12.2652 N   0  0  0  0  0  0  0  0  0  0  0  0
    4.5888    4.4436    8.1848 N   0  0  0  0  0  0  0  0  0  0  0  0
    2.6602    5.4229   12.6559 O   0  0  0  0  0  0  0  0  0  0  0  0
    4.1839    3.2640   13.7810 O   0  0  0  0  0  0  0  0  0  0  0  0
  1  2  1  0  0  0  0
  1 16  1  6  0  0  0
  2  3  1  0  0  0  0
  2 12  1  6  0  0  0
  4 11  1  6  0  0  0
  4  3  1  0  0  0  0
  5  4  1  0  0  0  0
  5 10  1  1  0  0  0
  6  7  1  0  0  0  0
  6  5  1  0  0  0  0
  6 14  1  6  0  0  0
  7  8  1  0  0  0  0
  7 13  1  1  0  0  0
  8 15  1  6  0  0  0
  8 11  1  0  0  0  0
  9 13  1  0  0  0  0
 10  1  1  0  0  0  0
 17 15  1  6  0  0  0
 17 18  1  0  0  0  0
 18 25  1  1  0  0  0
 19 18  1  0  0  0  0
 19 26  1  6  0  0  0
 20 19  1  0  0  0  0
 20 24  1  6  0  0  0
 21 23  1  0  0  0  0
 21 20  1  0  0  0  0
 21 22  1  6  0  0  0
 23 17  1  0  0  0  0
 27 22  1  0  0  0  0
 28 29  1  0  0  0  0
 28 16  1  6  0  0  0
 29 36  1  1  0  0  0
 30 37  1  1  0  0  0
 30 29  1  0  0  0  0
 31 30  1  0  0  0  0
 31 34  1  1  0  0  0
 32 31  1  0  0  0  0
 32 33  1  0  0  0  0
 33 28  1  0  0  0  0
 33 35  1  6  0  0  0
M  END
>  <CHROM.1>
-62.16061157,80.62214250,151.37808197,-157.05968836,-168.79747189,-136.01948504
177.99274100,-75.87759565,144.37351740,176.15557755,158.24342972,-53.12843103
63.33944142,-59.16484056,72.80812550,35.85652237,-0.30815967,7.33635268,9.91784887
-0.37322089,0.67463276,-1.33424268

>  <Name>
lig.pdb

>  <RI>
0

>  <Rbt.Current_Directory>
/home/itssahil/PROJECTS/Mol_Feturizer/New_Systems/rnas/2m4q

>  <Rbt.Executable>
rbdock ($Id: //depot/dev/client3/rdock/2013.1/src/exe/rbdock.cxx#4 $)

>  <Rbt.Library>
libRbt.so (2013.1, Build901 2013/11/27)

>  <Rbt.Parameter_File>
/export/apps/rDock/src/rDock_2013.1_src/data/scripts/dock_solv.prm

>  <Rbt.Receptor>
prm/pocket_docking_2.prm

>  <SCORE>
-47.2433

>  <SCORE.INTER>
-28.4979

>  <SCORE.INTER.CONST>
1

>  <SCORE.INTER.POLAR>
-3.35122

>  <SCORE.INTER.ROT>
10

>  <SCORE.INTER.SOLV>
18.1686

>  <SCORE.INTER.VDW>
-24.1507

>  <SCORE.INTER.norm>
-0.770214

>  <SCORE.INTRA>
-19.2245

>  <SCORE.INTRA.DIHEDRAL>
-24.4971

>  <SCORE.INTRA.DIHEDRAL.0>
44.8331

>  <SCORE.INTRA.POLAR>
-1.92819

>  <SCORE.INTRA.POLAR.0>
-0.108895

>  <SCORE.INTRA.REPUL>
0.045325

>  <SCORE.INTRA.REPUL.0>
0.00912235

>  <SCORE.INTRA.SOLV>
0.0908658

>  <SCORE.INTRA.SOLV.lig_0>
-53.9067

>  <SCORE.INTRA.VDW>
-0.692129

>  <SCORE.INTRA.VDW.0>
-2.93492

>  <SCORE.INTRA.norm>
-0.51958

>  <SCORE.RESTR>
0.479031

>  <SCORE.RESTR.CAVITY>
0.479031

>  <SCORE.RESTR.norm>
0.0129468

>  <SCORE.SYSTEM>
0

>  <SCORE.SYSTEM.CONST>
0

>  <SCORE.SYSTEM.DIHEDRAL>
0

>  <SCORE.SYSTEM.SOLV>
0

>  <SCORE.SYSTEM.norm>
0

>  <SCORE.heavy>
37

>  <SCORE.norm>
-1.27685

>  <RMSD>
9.940

$$$$
lig.pdb
 OpenBabel11021811453D
libRbt.so/2013.1/901 2013/11/27
 37 40  0  0  0  0  0  0  0  0999 V2000
    1.0308    5.0294    9.6784 C   0  0  2  0  0  0  0  0  0  0  0  0
    0.3220    5.2631    8.3036 C   0  0  1  0  0  0  0  0  0  0  0  0
   -0.4705    6.6016    8.2394 C   0  0  0  0  0  0  0  0  0  0  0  0
   -1.3813    6.7703    9.4807 C   0  0  1  0  0  0  0  0  0  0  0  0
   -0.5386    6.6582   10.7709 C   0  0  1  0  0  0  0  0  0  0  0  0
   -1.4194    6.8702   12.0314 C   0  0  1  0  0  0  0  0  0  0  0  0
   -2.2125    8.2076   11.9364 C   0  0  1  0  0  0  0  0  0  0  0  0
   -2.9870    8.3321   10.5907 C   0  0  2  0  0  0  0  0  0  0  0  0
   -3.4220    9.7319   13.4287 C   0  0  0  0  0  0  0  0  0  0  0  0
    0.1665    5.3839   10.8064 O   0  0  0  0  0  0  0  0  0  0  0  0
   -2.1310    8.0189    9.4493 O   0  0  0  0  0  0  0  0  0  0  0  0
    1.3211    5.2249    7.2137 N   0  0  0  0  0  0  0  0  0  0  0  0
   -3.1099    8.3232   13.1044 N   0  0  0  0  0  0  0  0  0  0  0  0
   -2.2919    5.7677   12.2433 O   0  0  0  0  0  0  0  0  0  0  0  0
   -3.5750    9.6597   10.4630 O   0  0  0  0  0  0  0  0  0  0  0  0
    2.2926    5.7608    9.7528 O   0  0  0  0  0  0  0  0  0  0  0  0
   -2.7047   10.7752   10.0997 C   0  0  2  0  0  0  0  0  0  0  0  0
   -3.4627   12.1294   10.2014 C   0  0  1  0  0  0  0  0  0  0  0  0
   -4.5267   12.2795    9.0765 C   0  0  2  0  0  0  0  0  0  0  0  0
   -3.8984   12.0390    7.6732 C   0  0  1  0  0  0  0  0  0  0  0  0
   -3.1224   10.6933    7.6261 C   0  0  1  0  0  0  0  0  0  0  0  0
   -2.3770   10.5031    6.2790 C   0  0  0  0  0  0  0  0  0  0  0  0
   -2.1896   10.6042    8.7456 O   0  0  0  0  0  0  0  0  0  0  0  0
   -4.9186   12.1119    6.6044 N   0  0  0  0  0  0  0  0  0  0  0  0
   -4.0380   12.2855   11.4973 O   0  0  0  0  0  0  0  0  0  0  0  0
   -5.1686   13.5512    9.1412 O   0  0  0  0  0  0  0  0  0  0  0  0
   -2.3463    9.1293    5.9059 O   0  0  0  0  0  0  0  0  0  0  0  0
    3.5215    4.9833    9.8481 C   0  0  1  0  0  0  0  0  0  0  0  0
    3.3785    3.7876   10.8309 C   0  0  1  0  0  0  0  0  0  0  0  0
    4.7267    3.0301   10.9917 C   0  0  2  0  0  0  0  0  0  0  0  0
    5.3281    2.5853    9.6190 C   0  0  1  0  0  0  0  0  0  0  0  0
    5.3584    3.7356    8.5685 C   0  0  0  0  0  0  0  0  0  0  0  0
    3.9947    4.4814    8.4543 C   0  0  2  0  0  0  0  0  0  0  0  0
    6.6744    2.0015    9.7999 N   0  0  0  0  0  0  0  0  0  0  0  0
    4.1221    5.5861    7.4793 N   0  0  0  0  0  0  0  0  0  0  0  0
    2.8910    4.2261   12.0949 O   0  0  0  0  0  0  0  0  0  0  0  0
    4.5664    1.9060   11.8533 O   0  0  0  0  0  0  0  0  0  0  0  0
  1  2  1  0  0  0  0
  1 16  1  6  0  0  0
  2  3  1  0  0  0  0
  2 12  1  6  0  0  0
  4 11  1  6  0  0  0
  4  3  1  0  0  0  0
  5  4  1  0  0  0  0
  5 10  1  1  0  0  0
  6  7  1  0  0  0  0
  6  5  1  0  0  0  0
  6 14  1  6  0  0  0
  7  8  1  0  0  0  0
  7 13  1  1  0  0  0
  8 15  1  6  0  0  0
  8 11  1  0  0  0  0
  9 13  1  0  0  0  0
 10  1  1  0  0  0  0
 17 15  1  6  0  0  0
 17 18  1  0  0  0  0
 18 25  1  1  0  0  0
 19 18  1  0  0  0  0
 19 26  1  6  0  0  0
 20 19  1  0  0  0  0
 20 24  1  6  0  0  0
 21 23  1  0  0  0  0
 21 20  1  0  0  0  0
 21 22  1  6  0  0  0
 23 17  1  0  0  0  0
 27 22  1  0  0  0  0
 28 29  1  0  0  0  0
 28 16  1  6  0  0  0
 29 36  1  1  0  0  0
 30 37  1  1  0  0  0
 30 29  1  0  0  0  0
 31 30  1  0  0  0  0
 31 34  1  1  0  0  0
 32 31  1  0  0  0  0
 32 33  1  0  0  0  0
 33 28  1  0  0  0  0
 33 35  1  6  0  0  0
M  END
>  <CHROM.1>
-51.10544374,76.88025513,154.26571888,62.44104773,-172.25060289,-115.18209250
-171.58957823,-160.02716392,-146.30571271,176.63797375,-174.86389630,-42.39306798
62.28982716,-164.02801260,176.72399016,-138.20302016,-0.36077053,7.41755663
9.72596690,0.30966876,-0.71533485,1.93965678

>  <Name>
lig.pdb

>  <RI>
0

>  <Rbt.Current_Directory>
/home/itssahil/PROJECTS/Mol_Feturizer/New_Systems/rnas/2m4q

>  <Rbt.Executable>
rbdock ($Id: //depot/dev/client3/rdock/2013.1/src/exe/rbdock.cxx#4 $)

>  <Rbt.Library>
libRbt.so (2013.1, Build901 2013/11/27)

>  <Rbt.Parameter_File>
/export/apps/rDock/src/rDock_2013.1_src/data/scripts/dock_solv.prm

>  <Rbt.Receptor>
prm/pocket_docking_3.prm

>  <SCORE>
-52.1805

>  <SCORE.INTER>
-36.4197

>  <SCORE.INTER.CONST>
1

>  <SCORE.INTER.POLAR>
-4.53441

>  <SCORE.INTER.ROT>
10

>  <SCORE.INTER.SOLV>
21.2182

>  <SCORE.INTER.VDW>
-26.5045

>  <SCORE.INTER.norm>
-0.984318

>  <SCORE.INTRA>
-15.7608

>  <SCORE.INTRA.DIHEDRAL>
-24.573

>  <SCORE.INTRA.DIHEDRAL.0>
44.8331

>  <SCORE.INTRA.POLAR>
-1.13434

>  <SCORE.INTRA.POLAR.0>
-0.108895

>  <SCORE.INTRA.REPUL>
0.0186801

>  <SCORE.INTRA.REPUL.0>
0.00912235

>  <SCORE.INTRA.SOLV>
-0.208445

>  <SCORE.INTRA.SOLV.lig_0>
-53.9067

>  <SCORE.INTRA.VDW>
0.393328

>  <SCORE.INTRA.VDW.0>
-2.93492

>  <SCORE.INTRA.norm>
-0.425967

>  <SCORE.RESTR>
0

>  <SCORE.RESTR.CAVITY>
0

>  <SCORE.RESTR.norm>
0

>  <SCORE.SYSTEM>
0

>  <SCORE.SYSTEM.CONST>
0

>  <SCORE.SYSTEM.DIHEDRAL>
0

>  <SCORE.SYSTEM.SOLV>
0

>  <SCORE.SYSTEM.norm>
0

>  <SCORE.heavy>
37

>  <SCORE.norm>
-1.41028

>  <RMSD>
9.944

$$$$
lig.pdb
 OpenBabel11021811453D
libRbt.so/2013.1/901 2013/11/27
 37 40  0  0  0  0  0  0  0  0999 V2000
    4.0147    5.3513    8.4431 C   0  0  2  0  0  0  0  0  0  0  0  0
    4.0924    6.8811    8.1258 C   0  0  1  0  0  0  0  0  0  0  0  0
    3.2612    7.7565    9.1090 C   0  0  0  0  0  0  0  0  0  0  0  0
    1.8270    7.1966    9.2777 C   0  0  1  0  0  0  0  0  0  0  0  0
    1.8882    5.7199    9.7283 C   0  0  1  0  0  0  0  0  0  0  0  0
    0.4631    5.1460    9.9507 C   0  0  1  0  0  0  0  0  0  0  0  0
   -0.3525    6.0468   10.9254 C   0  0  1  0  0  0  0  0  0  0  0  0
   -0.3294    7.5433   10.4941 C   0  0  2  0  0  0  0  0  0  0  0  0
   -1.9693    4.8478   12.3262 C   0  0  0  0  0  0  0  0  0  0  0  0
    2.6511    4.9295    8.7715 O   0  0  0  0  0  0  0  0  0  0  0  0
    1.0281    7.9943   10.1983 O   0  0  0  0  0  0  0  0  0  0  0  0
    5.5038    7.3229    8.1396 N   0  0  0  0  0  0  0  0  0  0  0  0
   -1.7298    5.5226   11.0322 N   0  0  0  0  0  0  0  0  0  0  0  0
   -0.2213    4.9703    8.7169 O   0  0  0  0  0  0  0  0  0  0  0  0
   -0.9537    8.3766   11.5141 O   0  0  0  0  0  0  0  0  0  0  0  0
    4.9340    4.9877    9.5179 O   0  0  0  0  0  0  0  0  0  0  0  0
   -0.7799    9.8247   11.4332 C   0  0  2  0  0  0  0  0  0  0  0  0
   -1.7212   10.5557   12.4324 C   0  0  1  0  0  0  0  0  0  0  0  0
   -3.2100   10.4679   11.9902 C   0  0  2  0  0  0  0  0  0  0  0  0
   -3.3894   10.9517   10.5220 C   0  0  1  0  0  0  0  0  0  0  0  0
   -2.4072   10.2218    9.5639 C   0  0  1  0  0  0  0  0  0  0  0  0
   -2.4783   10.7890    8.1218 C   0  0  0  0  0  0  0  0  0  0  0  0
   -1.0432   10.2980   10.0786 O   0  0  0  0  0  0  0  0  0  0  0  0
   -4.7912   10.8058   10.0722 N   0  0  0  0  0  0  0  0  0  0  0  0
   -1.5325   10.0565   13.7552 O   0  0  0  0  0  0  0  0  0  0  0  0
   -4.0548   11.1966   12.8784 O   0  0  0  0  0  0  0  0  0  0  0  0
   -3.7944   11.2395    7.8183 O   0  0  0  0  0  0  0  0  0  0  0  0
    4.7021    3.7262   10.2098 C   0  0  1  0  0  0  0  0  0  0  0  0
    5.7628    2.6536    9.8347 C   0  0  1  0  0  0  0  0  0  0  0  0
    5.4418    1.2891   10.5073 C   0  0  2  0  0  0  0  0  0  0  0  0
    5.2643    1.4144   12.0554 C   0  0  1  0  0  0  0  0  0  0  0  0
    4.3070    2.5736   12.4646 C   0  0  0  0  0  0  0  0  0  0  0  0
    4.6507    3.9166   11.7524 C   0  0  2  0  0  0  0  0  0  0  0  0
    4.8172    0.1313   12.6383 N   0  0  0  0  0  0  0  0  0  0  0  0
    3.6686    4.9473   12.1530 N   0  0  0  0  0  0  0  0  0  0  0  0
    5.8606    2.5102    8.4214 O   0  0  0  0  0  0  0  0  0  0  0  0
    6.4512    0.3316   10.1972 O   0  0  0  0  0  0  0  0  0  0  0  0
  1  2  1  0  0  0  0
  1 16  1  1  0  0  0
  2  3  1  0  0  0  0
  2 12  1  1  0  0  0
  4 11  1  1  0  0  0
  4  3  1  0  0  0  0
  5  4  1  0  0  0  0
  5 10  1  6  0  0  0
  6  7  1  0  0  0  0
  6  5  1  0  0  0  0
  6 14  1  6  0  0  0
  7  8  1  0  0  0  0
  7 13  1  6  0  0  0
  8 15  1  1  0  0  0
  8 11  1  0  0  0  0
  9 13  1  0  0  0  0
 10  1  1  0  0  0  0
 17 15  1  6  0  0  0
 17 18  1  0  0  0  0
 18 25  1  1  0  0  0
 19 18  1  0  0  0  0
 19 26  1  1  0  0  0
 20 19  1  0  0  0  0
 20 24  1  6  0  0  0
 21 23  1  0  0  0  0
 21 20  1  0  0  0  0
 21 22  1  6  0  0  0
 23 17  1  0  0  0  0
 27 22  1  0  0  0  0
 28 29  1  0  0  0  0
 28 16  1  6  0  0  0
 29 36  1  6  0  0  0
 30 37  1  1  0  0  0
 30 29  1  0  0  0  0
 31 30  1  0  0  0  0
 31 34  1  6  0  0  0
 32 31  1  0  0  0  0
 32 33  1  0  0  0  0
 33 28  1  0  0  0  0
 33 35  1  6  0  0  0
M  END
>  <CHROM.1>
177.76829658,167.17496175,106.25427318,-60.98514586,169.42704608,161.46157515
171.94602990,-59.87322310,-32.17589376,86.77311373,85.60330339,107.71412687
-179.13852768,-155.18327669,63.06470724,-57.95811349,1.20791100,6.51436206
10.40715771,-0.49098979,0.62030415,-0.78204922

>  <Name>
lig.pdb

>  <RI>
3.87352e+07

>  <Rbt.Current_Directory>
/home/itssahil/PROJECTS/Mol_Feturizer/New_Systems/rnas/2m4q

>  <Rbt.Executable>
rbdock ($Id: //depot/dev/client3/rdock/2013.1/src/exe/rbdock.cxx#4 $)

>  <Rbt.Library>
libRbt.so (2013.1, Build901 2013/11/27)

>  <Rbt.Parameter_File>
/export/apps/rDock/src/rDock_2013.1_src/data/scripts/dock_solv.prm

>  <Rbt.Receptor>
prm/pocket_docking_4.prm

>  <SCORE>
-36.9749

>  <SCORE.INTER>
-24.0257

>  <SCORE.INTER.CONST>
1

>  <SCORE.INTER.POLAR>
-3.97321

>  <SCORE.INTER.ROT>
10

>  <SCORE.INTER.SOLV>
18.8553

>  <SCORE.INTER.VDW>
-19.3249

>  <SCORE.INTER.norm>
-0.649343

>  <SCORE.INTRA>
-12.9512

>  <SCORE.INTRA.DIHEDRAL>
-23.8515

>  <SCORE.INTRA.DIHEDRAL.0>
44.8331

>  <SCORE.INTRA.POLAR>
-0.373346

>  <SCORE.INTRA.POLAR.0>
-0.108895

>  <SCORE.INTRA.REPUL>
-0.00912235

>  <SCORE.INTRA.REPUL.0>
0.00912235

>  <SCORE.INTRA.SOLV>
-0.629307

>  <SCORE.INTRA.SOLV.lig_0>
-53.9067

>  <SCORE.INTRA.VDW>
0.604216

>  <SCORE.INTRA.VDW.0>
-2.93492

>  <SCORE.INTRA.norm>
-0.350032

>  <SCORE.RESTR>
0.00200543

>  <SCORE.RESTR.CAVITY>
0.00200543

>  <SCORE.RESTR.norm>
5.42009e-05

>  <SCORE.SYSTEM>
0

>  <SCORE.SYSTEM.CONST>
0

>  <SCORE.SYSTEM.DIHEDRAL>
0

>  <SCORE.SYSTEM.SOLV>
0

>  <SCORE.SYSTEM.norm>
0

>  <SCORE.heavy>
37

>  <SCORE.norm>
-0.999321

>  <RMSD>
9.951

$$$$
lig.pdb
 OpenBabel11021811453D
libRbt.so/2013.1/901 2013/11/27
 37 40  0  0  0  0  0  0  0  0999 V2000
    1.5559    4.8088    9.8737 C   0  0  2  0  0  0  0  0  0  0  0  0
    0.9208    5.0041    8.4575 C   0  0  1  0  0  0  0  0  0  0  0  0
    0.0603    6.2963    8.3419 C   0  0  0  0  0  0  0  0  0  0  0  0
   -0.9330    6.4123    9.5246 C   0  0  1  0  0  0  0  0  0  0  0  0
   -0.1662    6.3459   10.8643 C   0  0  1  0  0  0  0  0  0  0  0  0
   -1.1331    6.5069   12.0680 C   0  0  1  0  0  0  0  0  0  0  0  0
   -1.9923    7.7980   11.9214 C   0  0  1  0  0  0  0  0  0  0  0  0
   -2.6886    7.8805   10.5305 C   0  0  2  0  0  0  0  0  0  0  0  0
   -3.4245    9.2435   13.2900 C   0  0  0  0  0  0  0  0  0  0  0  0
    0.6056    5.1131   10.9458 O   0  0  0  0  0  0  0  0  0  0  0  0
   -1.7480    7.6171    9.4445 O   0  0  0  0  0  0  0  0  0  0  0  0
    1.9856    5.0232    7.4311 N   0  0  0  0  0  0  0  0  0  0  0  0
   -2.9648    7.8618   13.0320 N   0  0  0  0  0  0  0  0  0  0  0  0
   -1.9539    5.3571   12.2284 O   0  0  0  0  0  0  0  0  0  0  0  0
   -3.3410    9.1733   10.3640 O   0  0  0  0  0  0  0  0  0  0  0  0
    2.7679    5.6096   10.0238 O   0  0  0  0  0  0  0  0  0  0  0  0
   -2.5270   10.3180    9.9628 C   0  0  2  0  0  0  0  0  0  0  0  0
   -3.2798   11.6545   10.2193 C   0  0  1  0  0  0  0  0  0  0  0  0
   -4.4660   11.8459    9.2312 C   0  0  2  0  0  0  0  0  0  0  0  0
   -3.9993   11.6853    7.7553 C   0  0  1  0  0  0  0  0  0  0  0  0
   -3.2224   10.3548    7.5513 C   0  0  1  0  0  0  0  0  0  0  0  0
   -2.6334   10.2433    6.1205 C   0  0  0  0  0  0  0  0  0  0  0  0
   -2.1677   10.2227    8.5520 O   0  0  0  0  0  0  0  0  0  0  0  0
   -5.1350   11.7973    6.8139 N   0  0  0  0  0  0  0  0  0  0  0  0
   -3.7054   11.7370   11.5782 O   0  0  0  0  0  0  0  0  0  0  0  0
   -5.1070   13.1034    9.4337 O   0  0  0  0  0  0  0  0  0  0  0  0
   -1.9764    8.9932    5.9386 O   0  0  0  0  0  0  0  0  0  0  0  0
    3.9284    4.9737   10.6343 C   0  0  1  0  0  0  0  0  0  0  0  0
    3.5887    4.3468   12.0155 C   0  0  1  0  0  0  0  0  0  0  0  0
    4.8594    3.7598   12.6922 C   0  0  2  0  0  0  0  0  0  0  0  0
    5.6163    2.7523   11.7671 C   0  0  1  0  0  0  0  0  0  0  0  0
    5.8512    3.3068   10.3300 C   0  0  0  0  0  0  0  0  0  0  0  0
    4.5582    3.9041    9.6975 C   0  0  2  0  0  0  0  0  0  0  0  0
    6.8919    2.3295   12.3837 N   0  0  0  0  0  0  0  0  0  0  0  0
    4.8765    4.4531    8.3616 N   0  0  0  0  0  0  0  0  0  0  0  0
    2.9589    5.3012   12.8641 O   0  0  0  0  0  0  0  0  0  0  0  0
    4.5230    3.1420   13.9319 O   0  0  0  0  0  0  0  0  0  0  0  0
  1  2  1  0  0  0  0
  1 16  1  6  0  0  0
  2  3  1  0  0  0  0
  2 12  1  6  0  0  0
  4 11  1  6  0  0  0
  4  3  1  0  0  0  0
  5  4  1  0  0  0  0
  5 10  1  1  0  0  0
  6  7  1  0  0  0  0
  6  5  1  0  0  0  0
  6 14  1  6  0  0  0
  7  8  1  0  0  0  0
  7 13  1  1  0  0  0
  8 15  1  6  0  0  0
  8 11  1  0  0  0  0
  9 13  1  0  0  0  0
 10  1  1  0  0  0  0
 17 15  1  6  0  0  0
 17 18  1  0  0  0  0
 18 25  1  1  0  0  0
 19 18  1  0  0  0  0
 19 26  1  6  0  0  0
 20 19  1  0  0  0  0
 20 24  1  6  0  0  0
 21 23  1  0  0  0  0
 21 20  1  0  0  0  0
 21 22  1  6  0  0  0
 23 17  1  0  0  0  0
 27 22  1  0  0  0  0
 28 29  1  0  0  0  0
 28 16  1  6  0  0  0
 29 36  1  1  0  0  0
 30 37  1  1  0  0  0
 30 29  1  0  0  0  0
 31 30  1  0  0  0  0
 31 34  1  1  0  0  0
 32 31  1  0  0  0  0
 32 33  1  0  0  0  0
 33 28  1  0  0  0  0
 33 35  1  6  0  0  0
M  END
>  <CHROM.1>
171.15716694,81.00377458,157.04915594,60.03083015,-164.07817957,-135.52057741
63.03098577,-172.66083353,-177.48946272,-52.92627186,50.71590156,-53.78452364
66.60486049,-58.65745767,-65.15739268,-169.09816419,-0.10440910,7.21395957
10.17290305,-0.32702268,0.66949357,-1.36794841

>  <Name>
lig.pdb

>  <RI>
0

>  <Rbt.Current_Directory>
/home/itssahil/PROJECTS/Mol_Feturizer/New_Systems/rnas/2m4q

>  <Rbt.Executable>
rbdock ($Id: //depot/dev/client3/rdock/2013.1/src/exe/rbdock.cxx#4 $)

>  <Rbt.Library>
libRbt.so (2013.1, Build901 2013/11/27)

>  <Rbt.Parameter_File>
/export/apps/rDock/src/rDock_2013.1_src/data/scripts/dock_solv.prm

>  <Rbt.Receptor>
prm/pocket_docking_2.prm

>  <SCORE>
-41.0439

>  <SCORE.INTER>
-22.1774

>  <SCORE.INTER.CONST>
1

>  <SCORE.INTER.POLAR>
-2.19218

>  <SCORE.INTER.ROT>
10

>  <SCORE.INTER.SOLV>
16.9221

>  <SCORE.INTER.VDW>
-23.385

>  <SCORE.INTER.norm>
-0.59939

>  <SCORE.INTRA>
-19.8343

>  <SCORE.INTRA.DIHEDRAL>
-32.8352

>  <SCORE.INTRA.DIHEDRAL.0>
44.8331

>  <SCORE.INTRA.POLAR>
-0.677771

>  <SCORE.INTRA.POLAR.0>
-0.108895

>  <SCORE.INTRA.REPUL>
-0.0079607

>  <SCORE.INTRA.REPUL.0>
0.00912235

>  <SCORE.INTRA.SOLV>
-0.710376

>  <SCORE.INTRA.SOLV.lig_0>
-53.9067

>  <SCORE.INTRA.VDW>
-0.717244

>  <SCORE.INTRA.VDW.0>
-2.93492

>  <SCORE.INTRA.norm>
-0.536061

>  <SCORE.RESTR>
0.967805

>  <SCORE.RESTR.CAVITY>
0.967805

>  <SCORE.RESTR.norm>
0.0261569

>  <SCORE.SYSTEM>
0

>  <SCORE.SYSTEM.CONST>
0

>  <SCORE.SYSTEM.DIHEDRAL>
0

>  <SCORE.SYSTEM.SOLV>
0

>  <SCORE.SYSTEM.norm>
0

>  <SCORE.heavy>
37

>  <SCORE.norm>
-1.10929

>  <RMSD>
9.952

$$$$
lig.pdb
 OpenBabel11021811453D
libRbt.so/2013.1/901 2013/11/27
 37 40  0  0  0  0  0  0  0  0999 V2000
    1.3449    4.8491    9.8892 C   0  0  2  0  0  0  0  0  0  0  0  0
    0.9202    5.0021    8.3914 C   0  0  1  0  0  0  0  0  0  0  0  0
    0.1028    6.2975    8.1128 C   0  0  0  0  0  0  0  0  0  0  0  0
   -1.0468    6.4625    9.1377 C   0  0  1  0  0  0  0  0  0  0  0  0
   -0.4789    6.4346   10.5744 C   0  0  1  0  0  0  0  0  0  0  0  0
   -1.6047    6.6450   11.6223 C   0  0  1  0  0  0  0  0  0  0  0  0
   -2.4164    7.9382   11.3134 C   0  0  1  0  0  0  0  0  0  0  0  0
   -2.9069    7.9800    9.8355 C   0  0  2  0  0  0  0  0  0  0  0  0
   -3.1433    8.7627   13.5055 C   0  0  0  0  0  0  0  0  0  0  0  0
    0.2562    5.1982   10.8047 O   0  0  0  0  0  0  0  0  0  0  0  0
   -1.8253    7.6713    8.9036 O   0  0  0  0  0  0  0  0  0  0  0  0
    2.1201    4.9768    7.5270 N   0  0  0  0  0  0  0  0  0  0  0  0
   -3.5358    8.0485   12.2715 N   0  0  0  0  0  0  0  0  0  0  0  0
   -2.4559    5.5088   11.7011 O   0  0  0  0  0  0  0  0  0  0  0  0
   -3.5110    9.2723    9.5363 O   0  0  0  0  0  0  0  0  0  0  0  0
    2.5342    5.6433   10.1844 O   0  0  0  0  0  0  0  0  0  0  0  0
   -2.6314   10.4120    9.2887 C   0  0  2  0  0  0  0  0  0  0  0  0
   -3.4423   11.7374    9.2210 C   0  0  1  0  0  0  0  0  0  0  0  0
   -4.3076   11.8177    7.9307 C   0  0  2  0  0  0  0  0  0  0  0  0
   -3.4452   11.5678    6.6596 C   0  0  1  0  0  0  0  0  0  0  0  0
   -2.6260   10.2529    6.7837 C   0  0  1  0  0  0  0  0  0  0  0  0
   -1.6595   10.0591    5.5859 C   0  0  0  0  0  0  0  0  0  0  0  0
   -1.8912   10.2281    8.0450 O   0  0  0  0  0  0  0  0  0  0  0  0
   -4.2741   11.5740    5.4342 N   0  0  0  0  0  0  0  0  0  0  0  0
   -4.2315   11.9025   10.3977 O   0  0  0  0  0  0  0  0  0  0  0  0
   -4.9950   13.0644    7.8485 O   0  0  0  0  0  0  0  0  0  0  0  0
   -1.3742   11.3047    4.9578 O   0  0  0  0  0  0  0  0  0  0  0  0
    3.5879    5.0176   10.9732 C   0  0  1  0  0  0  0  0  0  0  0  0
    3.0409    4.4062   12.2935 C   0  0  1  0  0  0  0  0  0  0  0  0
    4.1933    3.8303   13.1639 C   0  0  2  0  0  0  0  0  0  0  0  0
    5.0836    2.8138   12.3779 C   0  0  1  0  0  0  0  0  0  0  0  0
    5.5356    3.3518   10.9872 C   0  0  0  0  0  0  0  0  0  0  0  0
    4.3544    3.9385   10.1569 C   0  0  2  0  0  0  0  0  0  0  0  0
    6.2498    2.4013   13.1876 N   0  0  0  0  0  0  0  0  0  0  0  0
    4.8733    4.4724    8.8790 N   0  0  0  0  0  0  0  0  0  0  0  0
    2.2880    5.3690   13.0240 O   0  0  0  0  0  0  0  0  0  0  0  0
    3.6712    3.2264   14.3448 O   0  0  0  0  0  0  0  0  0  0  0  0
  1  2  1  0  0  0  0
  1 16  1  1  0  0  0
  2  3  1  0  0  0  0
  2 12  1  6  0  0  0
  4 11  1  6  0  0  0
  4  3  1  0  0  0  0
  5  4  1  0  0  0  0
  5 10  1  1  0  0  0
  6  7  1  0  0  0  0
  6  5  1  0  0  0  0
  6 14  1  6  0  0  0
  7  8  1  0  0  0  0
  7 13  1  1  0  0  0
  8 15  1  6  0  0  0
  8 11  1  0  0  0  0
  9 13  1  0  0  0  0
 10  1  1  0  0  0  0
 17 15  1  6  0  0  0
 17 18  1  0  0  0  0
 18 25  1  1  0  0  0
 19 18  1  0  0  0  0
 19 26  1  6  0  0  0
 20 19  1  0  0  0  0
 20 24  1  6  0  0  0
 21 23  1  0  0  0  0
 21 20  1  0  0  0  0
 21 22  1  6  0  0  0
 23 17  1  0  0  0  0
 27 22  1  0  0  0  0
 28 29  1  0  0  0  0
 28 16  1  6  0  0  0
 29 36  1  1  0  0  0
 30 37  1  1  0  0  0
 30 29  1  0  0  0  0
 31 30  1  0  0  0  0
 31 34  1  1  0  0  0
 32 31  1  0  0  0  0
 32 33  1  0  0  0  0
 33 28  1  0  0  0  0
 33 35  1  6  0  0  0
M  END
>  <CHROM.1>
-169.39137237,77.77828084,88.28088663,-168.55663099,-170.66445924,-135.46665609
63.08467283,-72.73126353,22.29488009,-52.32847707,-59.42600690,-52.25261168
71.07782375,-175.17954542,67.68384515,-53.59929671,-0.23619614,7.31398789
9.86294066,-0.59530636,0.61364618,-1.19157972

>  <Name>
lig.pdb

>  <RI>
0

>  <Rbt.Current_Directory>
/home/itssahil/PROJECTS/Mol_Feturizer/New_Systems/rnas/2m4q

>  <Rbt.Executable>
rbdock ($Id: //depot/dev/client3/rdock/2013.1/src/exe/rbdock.cxx#4 $)

>  <Rbt.Library>
libRbt.so (2013.1, Build901 2013/11/27)

>  <Rbt.Parameter_File>
/export/apps/rDock/src/rDock_2013.1_src/data/scripts/dock_solv.prm

>  <Rbt.Receptor>
prm/pocket_docking_3.prm

>  <SCORE>
-46.776

>  <SCORE.INTER>
-23.5101

>  <SCORE.INTER.CONST>
1

>  <SCORE.INTER.POLAR>
-2.14085

>  <SCORE.INTER.ROT>
10

>  <SCORE.INTER.SOLV>
16.9176

>  <SCORE.INTER.VDW>
-24.4431

>  <SCORE.INTER.norm>
-0.635409

>  <SCORE.INTRA>
-23.3276

>  <SCORE.INTRA.DIHEDRAL>
-28.5727

>  <SCORE.INTRA.DIHEDRAL.0>
44.8331

>  <SCORE.INTRA.POLAR>
-2.63562

>  <SCORE.INTRA.POLAR.0>
-0.108895

>  <SCORE.INTRA.REPUL>
-0.00912235

>  <SCORE.INTRA.REPUL.0>
0.00912235

>  <SCORE.INTRA.SOLV>
0.0625932

>  <SCORE.INTRA.SOLV.lig_0>
-53.9067

>  <SCORE.INTRA.VDW>
-0.0658222

>  <SCORE.INTRA.VDW.0>
-2.93492

>  <SCORE.INTRA.norm>
-0.630475

>  <SCORE.RESTR>
0.0617602

>  <SCORE.RESTR.CAVITY>
0.0617602

>  <SCORE.RESTR.norm>
0.00166919

>  <SCORE.SYSTEM>
0

>  <SCORE.SYSTEM.CONST>
0

>  <SCORE.SYSTEM.DIHEDRAL>
0

>  <SCORE.SYSTEM.SOLV>
0

>  <SCORE.SYSTEM.norm>
0

>  <SCORE.heavy>
37

>  <SCORE.norm>
-1.26422

>  <RMSD>
9.957

$$$$
lig.pdb
 OpenBabel11021811453D
libRbt.so/2013.1/901 2013/11/27
 37 40  0  0  0  0  0  0  0  0999 V2000
    2.4961    4.5699    9.6912 C   0  0  2  0  0  0  0  0  0  0  0  0
    2.9235    4.8117    8.2059 C   0  0  1  0  0  0  0  0  0  0  0  0
    2.4840    6.2009    7.6575 C   0  0  0  0  0  0  0  0  0  0  0  0
    0.9892    6.4719    7.9593 C   0  0  1  0  0  0  0  0  0  0  0  0
    0.7261    6.3391    9.4760 C   0  0  1  0  0  0  0  0  0  0  0  0
   -0.7564    6.6519    9.8135 C   0  0  1  0  0  0  0  0  0  0  0  0
   -1.1756    8.0390    9.2418 C   0  0  1  0  0  0  0  0  0  0  0  0
   -0.8241    8.1776    7.7307 C   0  0  2  0  0  0  0  0  0  0  0  0
   -2.9019    9.6380    9.9324 C   0  0  0  0  0  0  0  0  0  0  0  0
    1.1257    5.0194    9.9460 O   0  0  0  0  0  0  0  0  0  0  0  0
    0.5524    7.7694    7.4616 O   0  0  0  0  0  0  0  0  0  0  0  0
    4.3901    4.6691    8.0787 N   0  0  0  0  0  0  0  0  0  0  0  0
   -2.6148    8.2540    9.4975 N   0  0  0  0  0  0  0  0  0  0  0  0
   -1.6199    5.6216    9.3505 O   0  0  0  0  0  0  0  0  0  0  0  0
   -1.0715    9.5393    7.2735 O   0  0  0  0  0  0  0  0  0  0  0  0
    3.4242    5.2111   10.6186 O   0  0  0  0  0  0  0  0  0  0  0  0
   -1.1226    9.7932    5.8359 C   0  0  2  0  0  0  0  0  0  0  0  0
   -0.4105   11.1293    5.4802 C   0  0  1  0  0  0  0  0  0  0  0  0
   -1.2222   12.3625    5.9703 C   0  0  2  0  0  0  0  0  0  0  0  0
   -2.6926   12.3045    5.4640 C   0  0  1  0  0  0  0  0  0  0  0  0
   -3.3545   10.9413    5.8094 C   0  0  1  0  0  0  0  0  0  0  0  0
   -4.7726   10.8152    5.1935 C   0  0  0  0  0  0  0  0  0  0  0  0
   -2.5049    9.8377    5.3716 O   0  0  0  0  0  0  0  0  0  0  0  0
   -3.4884   13.4382    5.9835 N   0  0  0  0  0  0  0  0  0  0  0  0
    0.9221   11.1376    5.9889 O   0  0  0  0  0  0  0  0  0  0  0  0
   -0.5923   13.5812    5.5813 O   0  0  0  0  0  0  0  0  0  0  0  0
   -4.7312   11.0012    3.7825 O   0  0  0  0  0  0  0  0  0  0  0  0
    3.4001    4.7767   12.0095 C   0  0  1  0  0  0  0  0  0  0  0  0
    2.0017    4.9783   12.6577 C   0  0  1  0  0  0  0  0  0  0  0  0
    2.0233    4.5999   14.1655 C   0  0  2  0  0  0  0  0  0  0  0  0
    2.5750    3.1579   14.4107 C   0  0  1  0  0  0  0  0  0  0  0  0
    3.9128    2.8843   13.6601 C   0  0  0  0  0  0  0  0  0  0  0  0
    3.8546    3.2969   12.1584 C   0  0  2  0  0  0  0  0  0  0  0  0
    2.7183    2.8894   15.8576 N   0  0  0  0  0  0  0  0  0  0  0  0
    5.1731    3.0546   11.5337 N   0  0  0  0  0  0  0  0  0  0  0  0
    1.5483    6.3161   12.4784 O   0  0  0  0  0  0  0  0  0  0  0  0
    0.7229    4.7391   14.7324 O   0  0  0  0  0  0  0  0  0  0  0  0
  1  2  1  0  0  0  0
  1 16  1  1  0  0  0
  2  3  1  0  0  0  0
  2 12  1  1  0  0  0
  4 11  1  1  0  0  0
  4  3  1  0  0  0  0
  5  4  1  0  0  0  0
  5 10  1  6  0  0  0
  6  7  1  0  0  0  0
  6  5  1  0  0  0  0
  6 14  1  6  0  0  0
  7  8  1  0  0  0  0
  7 13  1  6  0  0  0
  8 15  1  1  0  0  0
  8 11  1  0  0  0  0
  9 13  1  0  0  0  0
 10  1  1  0  0  0  0
 17 15  1  1  0  0  0
 17 18  1  0  0  0  0
 18 25  1  1  0  0  0
 19 18  1  0  0  0  0
 19 26  1  6  0  0  0
 20 19  1  0  0  0  0
 20 24  1  1  0  0  0
 21 23  1  0  0  0  0
 21 20  1  0  0  0  0
 21 22  1  6  0  0  0
 23 17  1  0  0  0  0
 27 22  1  0  0  0  0
 28 29  1  0  0  0  0
 28 16  1  6  0  0  0
 29 36  1  1  0  0  0
 30 37  1  6  0  0  0
 30 29  1  0  0  0  0
 31 30  1  0  0  0  0
 31 34  1  1  0  0  0
 32 31  1  0  0  0  0
 32 33  1  0  0  0  0
 33 28  1  0  0  0  0
 33 35  1  1  0  0  0
M  END
>  <CHROM.1>
80.02620195,-165.07556754,138.36859761,-55.22103714,-139.68657776,-162.82384920
176.74409994,-65.79830666,56.40107331,174.77086870,60.19320502,-58.92729396
-61.91760245,57.73124454,-59.51758450,178.94561074,0.31027537,7.43987711
9.07030263,-1.00804185,0.49852181,-1.04942453

>  <Name>
lig.pdb

>  <RI>
0

>  <Rbt.Current_Directory>
/home/itssahil/PROJECTS/Mol_Feturizer/New_Systems/rnas/2m4q

>  <Rbt.Executable>
rbdock ($Id: //depot/dev/client3/rdock/2013.1/src/exe/rbdock.cxx#4 $)

>  <Rbt.Library>
libRbt.so (2013.1, Build901 2013/11/27)

>  <Rbt.Parameter_File>
/export/apps/rDock/src/rDock_2013.1_src/data/scripts/dock_solv.prm

>  <Rbt.Receptor>
prm/pocket_docking_6.prm

>  <SCORE>
-39.3944

>  <SCORE.INTER>
-22.6209

>  <SCORE.INTER.CONST>
1

>  <SCORE.INTER.POLAR>
-3.21225

>  <SCORE.INTER.ROT>
10

>  <SCORE.INTER.SOLV>
13.9325

>  <SCORE.INTER.VDW>
-19.2839

>  <SCORE.INTER.norm>
-0.611375

>  <SCORE.INTRA>
-16.7736

>  <SCORE.INTRA.DIHEDRAL>
-33.3305

>  <SCORE.INTRA.DIHEDRAL.0>
44.8331

>  <SCORE.INTRA.POLAR>
-0.0680561

>  <SCORE.INTRA.POLAR.0>
-0.108895

>  <SCORE.INTRA.REPUL>
0.227199

>  <SCORE.INTRA.REPUL.0>
0.00912235

>  <SCORE.INTRA.SOLV>
-0.980545

>  <SCORE.INTRA.SOLV.lig_0>
-53.9067

>  <SCORE.INTRA.VDW>
-0.522657

>  <SCORE.INTRA.VDW.0>
-2.93492

>  <SCORE.INTRA.norm>
-0.453339

>  <SCORE.RESTR>
0

>  <SCORE.RESTR.CAVITY>
0

>  <SCORE.RESTR.norm>
0

>  <SCORE.SYSTEM>
0

>  <SCORE.SYSTEM.CONST>
0

>  <SCORE.SYSTEM.DIHEDRAL>
0

>  <SCORE.SYSTEM.SOLV>
0

>  <SCORE.SYSTEM.norm>
0

>  <SCORE.heavy>
37

>  <SCORE.norm>
-1.06471

>  <RMSD>
9.959

$$$$
lig.pdb
 OpenBabel11021811453D
libRbt.so/2013.1/901 2013/11/27
 37 40  0  0  0  0  0  0  0  0999 V2000
    2.0048    4.5335    9.6993 C   0  0  2  0  0  0  0  0  0  0  0  0
    1.6825    5.2619    8.3530 C   0  0  1  0  0  0  0  0  0  0  0  0
    0.9987    6.6465    8.5507 C   0  0  0  0  0  0  0  0  0  0  0  0
   -0.1895    6.5453    9.5391 C   0  0  1  0  0  0  0  0  0  0  0  0
    0.2895    5.9402   10.8777 C   0  0  1  0  0  0  0  0  0  0  0  0
   -0.8724    5.8703   11.9047 C   0  0  1  0  0  0  0  0  0  0  0  0
   -1.5491    7.2633   12.0735 C   0  0  1  0  0  0  0  0  0  0  0  0
   -1.9475    7.8882   10.7035 C   0  0  2  0  0  0  0  0  0  0  0  0
   -3.1541    8.4412   13.5053 C   0  0  0  0  0  0  0  0  0  0  0  0
    0.8995    4.6363   10.6548 O   0  0  0  0  0  0  0  0  0  0  0  0
   -0.8448    7.8295    9.7473 O   0  0  0  0  0  0  0  0  0  0  0  0
    2.9237    5.4291    7.5661 N   0  0  0  0  0  0  0  0  0  0  0  0
   -2.7081    7.1325   12.9804 N   0  0  0  0  0  0  0  0  0  0  0  0
   -1.8225    4.8765   11.5427 O   0  0  0  0  0  0  0  0  0  0  0  0
   -2.4183    9.2555   10.8856 O   0  0  0  0  0  0  0  0  0  0  0  0
    3.2398    5.0404   10.2913 O   0  0  0  0  0  0  0  0  0  0  0  0
   -1.5820   10.3508   10.4009 C   0  0  2  0  0  0  0  0  0  0  0  0
   -2.3201   11.7138   10.5277 C   0  0  1  0  0  0  0  0  0  0  0  0
   -3.4874   11.8336    9.5064 C   0  0  2  0  0  0  0  0  0  0  0  0
   -2.9993   11.5397    8.0583 C   0  0  1  0  0  0  0  0  0  0  0  0
   -2.2379   10.1868    7.9836 C   0  0  1  0  0  0  0  0  0  0  0  0
   -1.6276    9.9441    6.5783 C   0  0  0  0  0  0  0  0  0  0  0  0
   -1.2014   10.1288    9.0101 O   0  0  0  0  0  0  0  0  0  0  0  0
   -4.1180   11.5839    7.0913 N   0  0  0  0  0  0  0  0  0  0  0  0
   -2.7663   11.9193   11.8668 O   0  0  0  0  0  0  0  0  0  0  0  0
   -4.1139   13.1120    9.5882 O   0  0  0  0  0  0  0  0  0  0  0  0
   -2.6486    9.8631    5.5891 O   0  0  0  0  0  0  0  0  0  0  0  0
    4.2861    4.0758   10.6053 C   0  0  1  0  0  0  0  0  0  0  0  0
    3.7739    2.9467   11.5429 C   0  0  1  0  0  0  0  0  0  0  0  0
    4.9275    1.9842   11.9428 C   0  0  2  0  0  0  0  0  0  0  0  0
    5.6827    1.4098   10.7004 C   0  0  1  0  0  0  0  0  0  0  0  0
    6.0901    2.5107    9.6757 C   0  0  0  0  0  0  0  0  0  0  0  0
    4.9113    3.4654    9.3188 C   0  0  2  0  0  0  0  0  0  0  0  0
    6.8596    0.6195   11.1203 N   0  0  0  0  0  0  0  0  0  0  0  0
    5.3918    4.5075    8.3858 N   0  0  0  0  0  0  0  0  0  0  0  0
    3.1476    3.4933   12.6990 O   0  0  0  0  0  0  0  0  0  0  0  0
    4.4321    0.9252   12.7583 O   0  0  0  0  0  0  0  0  0  0  0  0
  1  2  1  0  0  0  0
  1 16  1  1  0  0  0
  2  3  1  0  0  0  0
  2 12  1  1  0  0  0
  4 11  1  1  0  0  0
  4  3  1  0  0  0  0
  5  4  1  0  0  0  0
  5 10  1  6  0  0  0
  6  7  1  0  0  0  0
  6  5  1  0  0  0  0
  6 14  1  6  0  0  0
  7  8  1  0  0  0  0
  7 13  1  1  0  0  0
  8 15  1  1  0  0  0
  8 11  1  0  0  0  0
  9 13  1  0  0  0  0
 10  1  1  0  0  0  0
 17 15  1  6  0  0  0
 17 18  1  0  0  0  0
 18 25  1  1  0  0  0
 19 18  1  0  0  0  0
 19 26  1  6  0  0  0
 20 19  1  0  0  0  0
 20 24  1  6  0  0  0
 21 23  1  0  0  0  0
 21 20  1  0  0  0  0
 21 22  1  6  0  0  0
 23 17  1  0  0  0  0
 27 22  1  0  0  0  0
 28 29  1  0  0  0  0
 28 16  1  6  0  0  0
 29 36  1  1  0  0  0
 30 37  1  6  0  0  0
 30 29  1  0  0  0  0
 31 30  1  0  0  0  0
 31 34  1  1  0  0  0
 32 31  1  0  0  0  0
 32 33  1  0  0  0  0
 33 28  1  0  0  0  0
 33 35  1  6  0  0  0
M  END
>  <CHROM.1>
158.44176749,109.84934106,163.07018023,52.10861599,173.18208155,-125.00172471
68.87663745,-168.32756268,-62.45831259,89.82738031,-172.14505596,-55.91905959
-54.11132595,66.50983005,58.89556540,-166.01938682,0.43267532,6.79246715
10.10148066,-0.47729433,0.70779889,-1.07170878

>  <Name>
lig.pdb

>  <RI>
0

>  <Rbt.Current_Directory>
/home/itssahil/PROJECTS/Mol_Feturizer/New_Systems/rnas/2m4q

>  <Rbt.Executable>
rbdock ($Id: //depot/dev/client3/rdock/2013.1/src/exe/rbdock.cxx#4 $)

>  <Rbt.Library>
libRbt.so (2013.1, Build901 2013/11/27)

>  <Rbt.Parameter_File>
/export/apps/rDock/src/rDock_2013.1_src/data/scripts/dock_solv.prm

>  <Rbt.Receptor>
prm/pocket_docking_3.prm

>  <SCORE>
-46.0382

>  <SCORE.INTER>
-30.7006

>  <SCORE.INTER.CONST>
1

>  <SCORE.INTER.POLAR>
-4.70261

>  <SCORE.INTER.ROT>
10

>  <SCORE.INTER.SOLV>
18.2622

>  <SCORE.INTER.VDW>
-21.1458

>  <SCORE.INTER.norm>
-0.829746

>  <SCORE.INTRA>
-15.3498

>  <SCORE.INTRA.DIHEDRAL>
-25.9316

>  <SCORE.INTRA.DIHEDRAL.0>
44.8331

>  <SCORE.INTRA.POLAR>
-1.26193

>  <SCORE.INTRA.POLAR.0>
-0.108895

>  <SCORE.INTRA.REPUL>
-0.00912235

>  <SCORE.INTRA.REPUL.0>
0.00912235

>  <SCORE.INTRA.SOLV>
0.223593

>  <SCORE.INTRA.SOLV.lig_0>
-53.9067

>  <SCORE.INTRA.VDW>
1.84042

>  <SCORE.INTRA.VDW.0>
-2.93492

>  <SCORE.INTRA.norm>
-0.414859

>  <SCORE.RESTR>
0.0122122

>  <SCORE.RESTR.CAVITY>
0.0122122

>  <SCORE.RESTR.norm>
0.00033006

>  <SCORE.SYSTEM>
0

>  <SCORE.SYSTEM.CONST>
0

>  <SCORE.SYSTEM.DIHEDRAL>
0

>  <SCORE.SYSTEM.SOLV>
0

>  <SCORE.SYSTEM.norm>
0

>  <SCORE.heavy>
37

>  <SCORE.norm>
-1.24427

>  <RMSD>
9.961

$$$$
lig.pdb
 OpenBabel11021811453D
libRbt.so/2013.1/901 2013/11/27
 37 40  0  0  0  0  0  0  0  0999 V2000
    2.1725    4.5715    9.6734 C   0  0  2  0  0  0  0  0  0  0  0  0
    1.9157    4.6375    8.1317 C   0  0  1  0  0  0  0  0  0  0  0  0
    1.0677    5.8701    7.7013 C   0  0  0  0  0  0  0  0  0  0  0  0
   -0.1995    6.0095    8.5809 C   0  0  1  0  0  0  0  0  0  0  0  0
    0.1995    6.0741   10.0722 C   0  0  1  0  0  0  0  0  0  0  0  0
   -1.0492    6.2611   10.9752 C   0  0  1  0  0  0  0  0  0  0  0  0
   -1.8880    7.4906   10.5154 C   0  0  1  0  0  0  0  0  0  0  0  0
   -2.2063    7.4427    8.9914 C   0  0  2  0  0  0  0  0  0  0  0  0
   -2.8550    8.1636   12.6662 C   0  0  0  0  0  0  0  0  0  0  0  0
    0.9684    4.8935   10.4425 O   0  0  0  0  0  0  0  0  0  0  0  0
   -1.0094    7.1598    8.2031 O   0  0  0  0  0  0  0  0  0  0  0  0
    3.2069    4.6470    7.4103 N   0  0  0  0  0  0  0  0  0  0  0  0
   -3.1146    7.5744   11.3348 N   0  0  0  0  0  0  0  0  0  0  0  0
   -1.8417    5.0812   11.0115 O   0  0  0  0  0  0  0  0  0  0  0  0
   -2.8402    8.6839    8.5647 O   0  0  0  0  0  0  0  0  0  0  0  0
    3.2756    5.4456   10.0627 O   0  0  0  0  0  0  0  0  0  0  0  0
   -2.0194    9.6926    7.8993 C   0  0  2  0  0  0  0  0  0  0  0  0
   -1.8562   10.9557    8.7919 C   0  0  1  0  0  0  0  0  0  0  0  0
   -3.1835   11.7598    8.8998 C   0  0  2  0  0  0  0  0  0  0  0  0
   -3.7611   12.0822    7.4912 C   0  0  1  0  0  0  0  0  0  0  0  0
   -3.8749   10.7992    6.6214 C   0  0  1  0  0  0  0  0  0  0  0  0
   -4.3197   11.1222    5.1708 C   0  0  0  0  0  0  0  0  0  0  0  0
   -2.6092   10.0715    6.6199 O   0  0  0  0  0  0  0  0  0  0  0  0
   -5.0586   12.7863    7.5871 N   0  0  0  0  0  0  0  0  0  0  0  0
   -1.3483   10.5993   10.0763 O   0  0  0  0  0  0  0  0  0  0  0  0
   -3.0043   12.9489    9.6663 O   0  0  0  0  0  0  0  0  0  0  0  0
   -5.6613   11.5985    5.1460 O   0  0  0  0  0  0  0  0  0  0  0  0
    3.6400    5.4889   11.4731 C   0  0  1  0  0  0  0  0  0  0  0  0
    4.7330    4.4408   11.8239 C   0  0  1  0  0  0  0  0  0  0  0  0
    5.0371    4.4372   13.3486 C   0  0  2  0  0  0  0  0  0  0  0  0
    5.4010    5.8589   13.8874 C   0  0  1  0  0  0  0  0  0  0  0  0
    4.3908    6.9559   13.4360 C   0  0  0  0  0  0  0  0  0  0  0  0
    4.0984    6.9106   11.9059 C   0  0  2  0  0  0  0  0  0  0  0  0
    5.5388    5.8432   15.3595 N   0  0  0  0  0  0  0  0  0  0  0  0
    3.0959    7.9445   11.5692 N   0  0  0  0  0  0  0  0  0  0  0  0
    4.3506    3.1425   11.3815 O   0  0  0  0  0  0  0  0  0  0  0  0
    6.0777    3.5099   13.6466 O   0  0  0  0  0  0  0  0  0  0  0  0
  1  2  1  0  0  0  0
  1 16  1  6  0  0  0
  2  3  1  0  0  0  0
  2 12  1  6  0  0  0
  4 11  1  6  0  0  0
  4  3  1  0  0  0  0
  5  4  1  0  0  0  0
  5 10  1  1  0  0  0
  6  7  1  0  0  0  0
  6  5  1  0  0  0  0
  6 14  1  6  0  0  0
  7  8  1  0  0  0  0
  7 13  1  1  0  0  0
  8 15  1  6  0  0  0
  8 11  1  0  0  0  0
  9 13  1  0  0  0  0
 10  1  1  0  0  0  0
 17 15  1  1  0  0  0
 17 18  1  0  0  0  0
 18 25  1  1  0  0  0
 19 18  1  0  0  0  0
 19 26  1  6  0  0  0
 20 19  1  0  0  0  0
 20 24  1  1  0  0  0
 21 23  1  0  0  0  0
 21 20  1  0  0  0  0
 21 22  1  6  0  0  0
 23 17  1  0  0  0  0
 27 22  1  0  0  0  0
 28 29  1  0  0  0  0
 28 16  1  6  0  0  0
 29 36  1  1  0  0  0
 30 37  1  6  0  0  0
 30 29  1  0  0  0  0
 31 30  1  0  0  0  0
 31 34  1  1  0  0  0
 32 31  1  0  0  0  0
 32 33  1  0  0  0  0
 33 28  1  0  0  0  0
 33 35  1  1  0  0  0
M  END
>  <CHROM.1>
78.58514074,100.00281000,78.85170887,44.92562196,-111.97114702,-179.75399049
178.60551703,59.66725192,-67.62682445,-155.61954812,-178.02835678,90.96166465
62.52020840,-179.88536101,-62.37269836,58.75111582,0.12446232,7.55606263
9.89743737,-0.00004078,0.76021997,-2.22953571

>  <Name>
lig.pdb

>  <RI>
0

>  <Rbt.Current_Directory>
/home/itssahil/PROJECTS/Mol_Feturizer/New_Systems/rnas/2m4q

>  <Rbt.Executable>
rbdock ($Id: //depot/dev/client3/rdock/2013.1/src/exe/rbdock.cxx#4 $)

>  <Rbt.Library>
libRbt.so (2013.1, Build901 2013/11/27)

>  <Rbt.Parameter_File>
/export/apps/rDock/src/rDock_2013.1_src/data/scripts/dock_solv.prm

>  <Rbt.Receptor>
prm/pocket_docking_3.prm

>  <SCORE>
-42.7042

>  <SCORE.INTER>
-26.0465

>  <SCORE.INTER.CONST>
1

>  <SCORE.INTER.POLAR>
-3.14852

>  <SCORE.INTER.ROT>
10

>  <SCORE.INTER.SOLV>
15.9284

>  <SCORE.INTER.VDW>
-22.4454

>  <SCORE.INTER.norm>
-0.703958

>  <SCORE.INTRA>
-16.6578

>  <SCORE.INTRA.DIHEDRAL>
-24.9687

>  <SCORE.INTRA.DIHEDRAL.0>
44.8331

>  <SCORE.INTRA.POLAR>
-1.02995

>  <SCORE.INTRA.POLAR.0>
-0.108895

>  <SCORE.INTRA.REPUL>
-0.00912235

>  <SCORE.INTRA.REPUL.0>
0.00912235

>  <SCORE.INTRA.SOLV>
-0.725795

>  <SCORE.INTRA.SOLV.lig_0>
-53.9067

>  <SCORE.INTRA.VDW>
-0.263125

>  <SCORE.INTRA.VDW.0>
-2.93492

>  <SCORE.INTRA.norm>
-0.45021

>  <SCORE.RESTR>
0

>  <SCORE.RESTR.CAVITY>
0

>  <SCORE.RESTR.norm>
0

>  <SCORE.SYSTEM>
0

>  <SCORE.SYSTEM.CONST>
0

>  <SCORE.SYSTEM.DIHEDRAL>
0

>  <SCORE.SYSTEM.SOLV>
0

>  <SCORE.SYSTEM.norm>
0

>  <SCORE.heavy>
37

>  <SCORE.norm>
-1.15417

>  <RMSD>
9.962

$$$$
lig.pdb
 OpenBabel11021811453D
libRbt.so/2013.1/901 2013/11/27
 37 40  0  0  0  0  0  0  0  0999 V2000
   -3.9516    1.6357   15.4710 C   0  0  2  0  0  0  0  0  0  0  0  0
   -2.8670    2.7621   15.4291 C   0  0  1  0  0  0  0  0  0  0  0  0
   -1.4403    2.2308   15.1031 C   0  0  0  0  0  0  0  0  0  0  0  0
   -1.0828    1.0127   15.9904 C   0  0  1  0  0  0  0  0  0  0  0  0
   -2.1586   -0.0854   15.8349 C   0  0  1  0  0  0  0  0  0  0  0  0
   -1.8011   -1.3386   16.6784 C   0  0  1  0  0  0  0  0  0  0  0  0
   -0.3649   -1.8414   16.3448 C   0  0  1  0  0  0  0  0  0  0  0  0
    0.6880   -0.6966   16.4284 C   0  0  2  0  0  0  0  0  0  0  0  0
   -0.9823   -4.0913   17.1003 C   0  0  0  0  0  0  0  0  0  0  0  0
   -3.4738    0.4423   16.1727 O   0  0  0  0  0  0  0  0  0  0  0  0
    0.2463    0.4911   15.7018 O   0  0  0  0  0  0  0  0  0  0  0  0
   -3.2524    3.7899   14.4378 N   0  0  0  0  0  0  0  0  0  0  0  0
   -0.0272   -2.9703   17.2362 N   0  0  0  0  0  0  0  0  0  0  0  0
   -1.9477   -1.0839   18.0695 O   0  0  0  0  0  0  0  0  0  0  0  0
    1.9833   -1.1605   15.9470 O   0  0  0  0  0  0  0  0  0  0  0  0
   -4.4056    1.2897   14.1268 O   0  0  0  0  0  0  0  0  0  0  0  0
    2.8465   -0.2128   15.2466 C   0  0  2  0  0  0  0  0  0  0  0  0
    3.0227   -0.6166   13.7551 C   0  0  1  0  0  0  0  0  0  0  0  0
    3.8972   -1.8942   13.6039 C   0  0  2  0  0  0  0  0  0  0  0  0
    5.2512   -1.7403   14.3555 C   0  0  1  0  0  0  0  0  0  0  0  0
    5.0308   -1.3029   15.8304 C   0  0  1  0  0  0  0  0  0  0  0  0
    6.3722   -1.0133   16.5537 C   0  0  0  0  0  0  0  0  0  0  0  0
    4.1537   -0.1373   15.8900 O   0  0  0  0  0  0  0  0  0  0  0  0
    6.0584   -2.9774   14.2740 N   0  0  0  0  0  0  0  0  0  0  0  0
    1.7527   -0.7677   13.1236 O   0  0  0  0  0  0  0  0  0  0  0  0
    4.1054   -2.2162   12.2305 O   0  0  0  0  0  0  0  0  0  0  0  0
    7.2358   -2.1436   16.4925 O   0  0  0  0  0  0  0  0  0  0  0  0
   -5.8388    1.1304   13.9160 C   0  0  1  0  0  0  0  0  0  0  0  0
   -6.2897   -0.3484   14.0779 C   0  0  1  0  0  0  0  0  0  0  0  0
   -7.8016   -0.5118   13.7545 C   0  0  2  0  0  0  0  0  0  0  0  0
   -8.6979    0.4633   14.5851 C   0  0  1  0  0  0  0  0  0  0  0  0
   -8.1882    1.9353   14.5491 C   0  0  0  0  0  0  0  0  0  0  0  0
   -6.6651    2.0516   14.8578 C   0  0  2  0  0  0  0  0  0  0  0  0
  -10.1076    0.3830   14.1466 N   0  0  0  0  0  0  0  0  0  0  0  0
   -6.2521    3.4679   14.7529 N   0  0  0  0  0  0  0  0  0  0  0  0
   -5.5021   -1.2103   13.2628 O   0  0  0  0  0  0  0  0  0  0  0  0
   -8.2114   -1.8616   13.9589 O   0  0  0  0  0  0  0  0  0  0  0  0
  1  2  1  0  0  0  0
  1 16  1  6  0  0  0
  2  3  1  0  0  0  0
  2 12  1  6  0  0  0
  4 11  1  6  0  0  0
  4  3  1  0  0  0  0
  5  4  1  0  0  0  0
  5 10  1  1  0  0  0
  6  7  1  0  0  0  0
  6  5  1  0  0  0  0
  6 14  1  1  0  0  0
  7  8  1  0  0  0  0
  7 13  1  1  0  0  0
  8 15  1  6  0  0  0
  8 11  1  0  0  0  0
  9 13  1  0  0  0  0
 10  1  1  0  0  0  0
 17 15  1  1  0  0  0
 17 18  1  0  0  0  0
 18 25  1  1  0  0  0
 19 18  1  0  0  0  0
 19 26  1  6  0  0  0
 20 19  1  0  0  0  0
 20 24  1  1  0  0  0
 21 23  1  0  0  0  0
 21 20  1  0  0  0  0
 21 22  1  6  0  0  0
 23 17  1  0  0  0  0
 27 22  1  0  0  0  0
 28 29  1  0  0  0  0
 28 16  1  1  0  0  0
 29 36  1  6  0  0  0
 30 37  1  1  0  0  0
 30 29  1  0  0  0  0
 31 30  1  0  0  0  0
 31 34  1  6  0  0  0
 32 31  1  0  0  0  0
 32 33  1  0  0  0  0
 33 28  1  0  0  0  0
 33 35  1  6  0  0  0
M  END
>  <CHROM.1>
-46.74161838,146.15383785,58.71713003,-58.69768834,-113.64422620,-135.49069792
58.18707731,68.28988645,-56.15826202,111.58778901,-176.83029958,-93.19990410
-60.89154114,-59.25898428,-65.24539120,-63.67414397,-1.27873738,-0.27160741
15.10038437,-2.92828118,0.03526411,3.00472428

>  <Name>
lig.pdb

>  <RI>
0

>  <Rbt.Current_Directory>
/home/itssahil/PROJECTS/Mol_Feturizer/New_Systems/rnas/2m4q

>  <Rbt.Executable>
rbdock ($Id: //depot/dev/client3/rdock/2013.1/src/exe/rbdock.cxx#4 $)

>  <Rbt.Library>
libRbt.so (2013.1, Build901 2013/11/27)

>  <Rbt.Parameter_File>
/export/apps/rDock/src/rDock_2013.1_src/data/scripts/dock_solv.prm

>  <Rbt.Receptor>
prm/blind_docking_20.prm

>  <SCORE>
0.430089

>  <SCORE.INTER>
-8.53167

>  <SCORE.INTER.CONST>
1

>  <SCORE.INTER.POLAR>
-2.41071

>  <SCORE.INTER.ROT>
10

>  <SCORE.INTER.SOLV>
26.7452

>  <SCORE.INTER.VDW>
-16.8338

>  <SCORE.INTER.norm>
-0.230586

>  <SCORE.INTRA>
-11.568

>  <SCORE.INTRA.DIHEDRAL>
-19.7862

>  <SCORE.INTRA.DIHEDRAL.0>
44.8331

>  <SCORE.INTRA.POLAR>
-1.44184

>  <SCORE.INTRA.POLAR.0>
-0.108895

>  <SCORE.INTRA.REPUL>
-0.00912235

>  <SCORE.INTRA.REPUL.0>
0.00912235

>  <SCORE.INTRA.SOLV>
-0.329119

>  <SCORE.INTRA.SOLV.lig_0>
-53.9067

>  <SCORE.INTRA.VDW>
3.43758

>  <SCORE.INTRA.VDW.0>
-2.93492

>  <SCORE.INTRA.norm>
-0.312648

>  <SCORE.RESTR>
20.5297

>  <SCORE.RESTR.CAVITY>
20.5297

>  <SCORE.RESTR.norm>
0.554858

>  <SCORE.SYSTEM>
0

>  <SCORE.SYSTEM.CONST>
0

>  <SCORE.SYSTEM.DIHEDRAL>
0

>  <SCORE.SYSTEM.SOLV>
0

>  <SCORE.SYSTEM.norm>
0

>  <SCORE.heavy>
37

>  <SCORE.norm>
0.011624

>  <RMSD>
9.970

$$$$
lig.pdb
 OpenBabel11021811453D
libRbt.so/2013.1/901 2013/11/27
 37 40  0  0  0  0  0  0  0  0999 V2000
    2.2041    4.6361    9.8944 C   0  0  2  0  0  0  0  0  0  0  0  0
    1.6026    4.9028    8.4751 C   0  0  1  0  0  0  0  0  0  0  0  0
    0.6430    6.1280    8.4338 C   0  0  0  0  0  0  0  0  0  0  0  0
   -0.3953    6.0619    9.5811 C   0  0  1  0  0  0  0  0  0  0  0  0
    0.3294    5.9403   10.9403 C   0  0  1  0  0  0  0  0  0  0  0  0
   -0.6870    5.9191   12.1134 C   0  0  1  0  0  0  0  0  0  0  0  0
   -1.6442    7.1460   12.0412 C   0  0  1  0  0  0  0  0  0  0  0  0
   -2.2982    7.2937   10.6353 C   0  0  2  0  0  0  0  0  0  0  0  0
   -3.1121    8.3611   13.5848 C   0  0  0  0  0  0  0  0  0  0  0  0
    1.1968    4.7700   10.9491 O   0  0  0  0  0  0  0  0  0  0  0  0
   -1.3034    7.2008    9.5697 O   0  0  0  0  0  0  0  0  0  0  0  0
    2.6958    5.0951    7.4976 N   0  0  0  0  0  0  0  0  0  0  0  0
   -2.6551    7.0360   13.1132 N   0  0  0  0  0  0  0  0  0  0  0  0
   -1.4154    4.6984   12.1437 O   0  0  0  0  0  0  0  0  0  0  0  0
   -3.0488    8.5404   10.5517 O   0  0  0  0  0  0  0  0  0  0  0  0
    3.3404    5.5141   10.1596 O   0  0  0  0  0  0  0  0  0  0  0  0
   -2.3149    9.7810   10.3148 C   0  0  2  0  0  0  0  0  0  0  0  0
   -3.2338   11.0193   10.5168 C   0  0  1  0  0  0  0  0  0  0  0  0
   -4.2891   11.1446    9.3808 C   0  0  2  0  0  0  0  0  0  0  0  0
   -3.6127   11.1123    7.9796 C   0  0  1  0  0  0  0  0  0  0  0  0
   -2.6778    9.8794    7.8331 C   0  0  1  0  0  0  0  0  0  0  0  0
   -1.8924    9.9057    6.4957 C   0  0  0  0  0  0  0  0  0  0  0  0
   -1.7601    9.7992    8.9656 O   0  0  0  0  0  0  0  0  0  0  0  0
   -4.6161   11.1613    6.8936 N   0  0  0  0  0  0  0  0  0  0  0  0
   -3.8455   10.9846   11.8049 O   0  0  0  0  0  0  0  0  0  0  0  0
   -5.0822   12.3187    9.5418 O   0  0  0  0  0  0  0  0  0  0  0  0
   -1.0711    8.7497    6.3671 O   0  0  0  0  0  0  0  0  0  0  0  0
    4.5612    4.9056   10.6728 C   0  0  1  0  0  0  0  0  0  0  0  0
    5.4006    4.2445    9.5439 C   0  0  1  0  0  0  0  0  0  0  0  0
    6.6472    3.5189   10.1242 C   0  0  2  0  0  0  0  0  0  0  0  0
    7.5178    4.4557   11.0232 C   0  0  1  0  0  0  0  0  0  0  0  0
    6.6782    5.2352   12.0792 C   0  0  0  0  0  0  0  0  0  0  0  0
    5.4280    5.9293   11.4596 C   0  0  2  0  0  0  0  0  0  0  0  0
    8.6074    3.6961   11.6728 N   0  0  0  0  0  0  0  0  0  0  0  0
    4.6605    6.6004   12.5311 N   0  0  0  0  0  0  0  0  0  0  0  0
    4.6031    3.3465    8.7790 O   0  0  0  0  0  0  0  0  0  0  0  0
    7.4343    2.9640    9.0733 O   0  0  0  0  0  0  0  0  0  0  0  0
  1  2  1  0  0  0  0
  1 16  1  1  0  0  0
  2  3  1  0  0  0  0
  2 12  1  6  0  0  0
  4 11  1  1  0  0  0
  4  3  1  0  0  0  0
  5  4  1  0  0  0  0
  5 10  1  6  0  0  0
  6  7  1  0  0  0  0
  6  5  1  0  0  0  0
  6 14  1  6  0  0  0
  7  8  1  0  0  0  0
  7 13  1  1  0  0  0
  8 15  1  1  0  0  0
  8 11  1  0  0  0  0
  9 13  1  0  0  0  0
 10  1  1  0  0  0  0
 17 15  1  6  0  0  0
 17 18  1  0  0  0  0
 18 25  1  1  0  0  0
 19 18  1  0  0  0  0
 19 26  1  1  0  0  0
 20 19  1  0  0  0  0
 20 24  1  6  0  0  0
 21 23  1  0  0  0  0
 21 20  1  0  0  0  0
 21 22  1  6  0  0  0
 23 17  1  0  0  0  0
 27 22  1  0  0  0  0
 28 29  1  0  0  0  0
 28 16  1  6  0  0  0
 29 36  1  1  0  0  0
 30 37  1  6  0  0  0
 30 29  1  0  0  0  0
 31 30  1  0  0  0  0
 31 34  1  1  0  0  0
 32 31  1  0  0  0  0
 32 33  1  0  0  0  0
 33 28  1  0  0  0  0
 33 35  1  1  0  0  0
M  END
>  <CHROM.1>
171.92687019,79.46781078,149.91557877,23.88364600,-169.54702829,-131.28711385
172.08268463,-64.83518052,-178.40721352,-44.47277201,-55.42847173,80.09115549
-52.83726359,-66.35512002,54.45640967,-67.27140526,0.58830973,7.02988688
10.06244932,-0.21720601,0.53034648,-1.30694564

>  <Name>
lig.pdb

>  <RI>
3.87352e+07

>  <Rbt.Current_Directory>
/home/itssahil/PROJECTS/Mol_Feturizer/New_Systems/rnas/2m4q

>  <Rbt.Executable>
rbdock ($Id: //depot/dev/client3/rdock/2013.1/src/exe/rbdock.cxx#4 $)

>  <Rbt.Library>
libRbt.so (2013.1, Build901 2013/11/27)

>  <Rbt.Parameter_File>
/export/apps/rDock/src/rDock_2013.1_src/data/scripts/dock_solv.prm

>  <Rbt.Receptor>
prm/pocket_docking_4.prm

>  <SCORE>
-43.9159

>  <SCORE.INTER>
-26.4223

>  <SCORE.INTER.CONST>
1

>  <SCORE.INTER.POLAR>
-3.60807

>  <SCORE.INTER.ROT>
10

>  <SCORE.INTER.SOLV>
17.3284

>  <SCORE.INTER.VDW>
-21.6307

>  <SCORE.INTER.norm>
-0.714115

>  <SCORE.INTRA>
-17.4936

>  <SCORE.INTRA.DIHEDRAL>
-26.5424

>  <SCORE.INTRA.DIHEDRAL.0>
44.8331

>  <SCORE.INTRA.POLAR>
-0.882878

>  <SCORE.INTRA.POLAR.0>
-0.108895

>  <SCORE.INTRA.REPUL>
-0.00912235

>  <SCORE.INTRA.REPUL.0>
0.00912235

>  <SCORE.INTRA.SOLV>
-0.367837

>  <SCORE.INTRA.SOLV.lig_0>
-53.9067

>  <SCORE.INTRA.VDW>
-0.991094

>  <SCORE.INTRA.VDW.0>
-2.93492

>  <SCORE.INTRA.norm>
-0.472801

>  <SCORE.RESTR>
0

>  <SCORE.RESTR.CAVITY>
0

>  <SCORE.RESTR.norm>
0

>  <SCORE.SYSTEM>
0

>  <SCORE.SYSTEM.CONST>
0

>  <SCORE.SYSTEM.DIHEDRAL>
0

>  <SCORE.SYSTEM.SOLV>
0

>  <SCORE.SYSTEM.norm>
0

>  <SCORE.heavy>
37

>  <SCORE.norm>
-1.18692

>  <RMSD>
9.972

$$$$
lig.pdb
 OpenBabel11021811453D
libRbt.so/2013.1/901 2013/11/27
 37 40  0  0  0  0  0  0  0  0999 V2000
    2.0471    4.5785    9.6922 C   0  0  2  0  0  0  0  0  0  0  0  0
    1.6678    5.1746    8.2966 C   0  0  1  0  0  0  0  0  0  0  0  0
    0.9172    6.5352    8.3919 C   0  0  0  0  0  0  0  0  0  0  0  0
   -0.2493    6.4583    9.4079 C   0  0  1  0  0  0  0  0  0  0  0  0
    0.2801    5.9922   10.7826 C   0  0  1  0  0  0  0  0  0  0  0  0
   -0.8611    5.9510   11.8341 C   0  0  1  0  0  0  0  0  0  0  0  0
   -1.6054    7.3179   11.8998 C   0  0  1  0  0  0  0  0  0  0  0  0
   -2.0559    7.8051   10.4905 C   0  0  2  0  0  0  0  0  0  0  0  0
   -3.1504    8.5217   13.3755 C   0  0  0  0  0  0  0  0  0  0  0  0
    0.9525    4.7060   10.6570 O   0  0  0  0  0  0  0  0  0  0  0  0
   -0.9661    7.7214    9.5215 O   0  0  0  0  0  0  0  0  0  0  0  0
    2.8868    5.3366    7.4748 N   0  0  0  0  0  0  0  0  0  0  0  0
   -2.7425    7.2063   12.8366 N   0  0  0  0  0  0  0  0  0  0  0  0
   -1.7646    4.8844   11.5742 O   0  0  0  0  0  0  0  0  0  0  0  0
   -2.5931    9.1579   10.5676 O   0  0  0  0  0  0  0  0  0  0  0  0
    3.2633    5.1940   10.2162 O   0  0  0  0  0  0  0  0  0  0  0  0
   -1.7839   10.2594   10.0521 C   0  0  2  0  0  0  0  0  0  0  0  0
   -0.9544   10.9212   11.1891 C   0  0  1  0  0  0  0  0  0  0  0  0
   -1.8577   11.7251   12.1677 C   0  0  2  0  0  0  0  0  0  0  0  0
   -2.7538   12.7398   11.4000 C   0  0  1  0  0  0  0  0  0  0  0  0
   -3.5375   12.0441   10.2522 C   0  0  1  0  0  0  0  0  0  0  0  0
   -4.3293   13.0639    9.3924 C   0  0  0  0  0  0  0  0  0  0  0  0
   -2.6298   11.2637    9.4164 O   0  0  0  0  0  0  0  0  0  0  0  0
   -3.6649   13.4586   12.3175 N   0  0  0  0  0  0  0  0  0  0  0  0
   -0.1730    9.9436   11.8734 O   0  0  0  0  0  0  0  0  0  0  0  0
   -1.0792   12.3802   13.1668 O   0  0  0  0  0  0  0  0  0  0  0  0
   -4.9752   12.4147    8.3022 O   0  0  0  0  0  0  0  0  0  0  0  0
    4.2470    4.3217   10.8450 C   0  0  1  0  0  0  0  0  0  0  0  0
    3.6273    3.4811   11.9964 C   0  0  1  0  0  0  0  0  0  0  0  0
    4.7121    2.6307   12.7158 C   0  0  2  0  0  0  0  0  0  0  0  0
    5.5292    1.7423   11.7224 C   0  0  1  0  0  0  0  0  0  0  0  0
    6.0494    2.5354   10.4862 C   0  0  0  0  0  0  0  0  0  0  0  0
    4.9362    3.3897    9.8082 C   0  0  2  0  0  0  0  0  0  0  0  0
    6.6424    1.0631   12.4191 N   0  0  0  0  0  0  0  0  0  0  0  0
    5.5207    4.1481    8.6810 N   0  0  0  0  0  0  0  0  0  0  0  0
    2.9436    4.3180   12.9235 O   0  0  0  0  0  0  0  0  0  0  0  0
    4.1204    1.8262   13.7328 O   0  0  0  0  0  0  0  0  0  0  0  0
  1  2  1  0  0  0  0
  1 16  1  1  0  0  0
  2  3  1  0  0  0  0
  2 12  1  6  0  0  0
  4 11  1  1  0  0  0
  4  3  1  0  0  0  0
  5  4  1  0  0  0  0
  5 10  1  6  0  0  0
  6  7  1  0  0  0  0
  6  5  1  0  0  0  0
  6 14  1  6  0  0  0
  7  8  1  0  0  0  0
  7 13  1  1  0  0  0
  8 15  1  1  0  0  0
  8 11  1  0  0  0  0
  9 13  1  0  0  0  0
 10  1  1  0  0  0  0
 17 15  1  1  0  0  0
 17 18  1  0  0  0  0
 18 25  1  1  0  0  0
 19 18  1  0  0  0  0
 19 26  1  1  0  0  0
 20 19  1  0  0  0  0
 20 24  1  1  0  0  0
 21 23  1  0  0  0  0
 21 20  1  0  0  0  0
 21 22  1  6  0  0  0
 23 17  1  0  0  0  0
 27 22  1  0  0  0  0
 28 29  1  0  0  0  0
 28 16  1  6  0  0  0
 29 36  1  1  0  0  0
 30 37  1  1  0  0  0
 30 29  1  0  0  0  0
 31 30  1  0  0  0  0
 31 34  1  1  0  0  0
 32 31  1  0  0  0  0
 32 33  1  0  0  0  0
 33 28  1  0  0  0  0
 33 35  1  6  0  0  0
M  END
>  <CHROM.1>
144.34113691,106.10045154,156.74997346,44.64199624,-94.61956655,-137.50021350
60.95214709,55.70107929,176.59701759,-161.57168633,58.51024777,-55.25004187
70.33012867,-58.66119771,144.61386141,-164.28588604,0.42855493,7.10244555
10.87834687,-0.22706851,0.81998146,-1.29948498

>  <Name>
lig.pdb

>  <RI>
0

>  <Rbt.Current_Directory>
/home/itssahil/PROJECTS/Mol_Feturizer/New_Systems/rnas/2m4q

>  <Rbt.Executable>
rbdock ($Id: //depot/dev/client3/rdock/2013.1/src/exe/rbdock.cxx#4 $)

>  <Rbt.Library>
libRbt.so (2013.1, Build901 2013/11/27)

>  <Rbt.Parameter_File>
/export/apps/rDock/src/rDock_2013.1_src/data/scripts/dock_solv.prm

>  <Rbt.Receptor>
prm/pocket_docking_6.prm

>  <SCORE>
-46.2118

>  <SCORE.INTER>
-29.4198

>  <SCORE.INTER.CONST>
1

>  <SCORE.INTER.POLAR>
-4.47196

>  <SCORE.INTER.ROT>
10

>  <SCORE.INTER.SOLV>
14.6404

>  <SCORE.INTER.VDW>
-19.8534

>  <SCORE.INTER.norm>
-0.795129

>  <SCORE.INTRA>
-16.7921

>  <SCORE.INTRA.DIHEDRAL>
-21.6454

>  <SCORE.INTRA.DIHEDRAL.0>
44.8331

>  <SCORE.INTRA.POLAR>
-1.66888

>  <SCORE.INTRA.POLAR.0>
-0.108895

>  <SCORE.INTRA.REPUL>
-0.00912235

>  <SCORE.INTRA.REPUL.0>
0.00912235

>  <SCORE.INTRA.SOLV>
-0.0769438

>  <SCORE.INTRA.SOLV.lig_0>
-53.9067

>  <SCORE.INTRA.VDW>
-0.211101

>  <SCORE.INTRA.VDW.0>
-2.93492

>  <SCORE.INTRA.norm>
-0.45384

>  <SCORE.RESTR>
0

>  <SCORE.RESTR.CAVITY>
0

>  <SCORE.RESTR.norm>
0

>  <SCORE.SYSTEM>
0

>  <SCORE.SYSTEM.CONST>
0

>  <SCORE.SYSTEM.DIHEDRAL>
0

>  <SCORE.SYSTEM.SOLV>
0

>  <SCORE.SYSTEM.norm>
0

>  <SCORE.heavy>
37

>  <SCORE.norm>
-1.24897

>  <RMSD>
9.975

$$$$
lig.pdb
 OpenBabel11021811453D
libRbt.so/2013.1/901 2013/11/27
 37 40  0  0  0  0  0  0  0  0999 V2000
    1.4334    4.7498    9.8377 C   0  0  2  0  0  0  0  0  0  0  0  0
    0.9023    5.0385    8.3949 C   0  0  1  0  0  0  0  0  0  0  0  0
    0.1167    6.3781    8.2849 C   0  0  0  0  0  0  0  0  0  0  0  0
   -0.9443    6.4959    9.4071 C   0  0  1  0  0  0  0  0  0  0  0  0
   -0.2703    6.3322   10.7878 C   0  0  1  0  0  0  0  0  0  0  0  0
   -1.3041    6.4926   11.9347 C   0  0  1  0  0  0  0  0  0  0  0  0
   -2.0865    7.8323   11.7939 C   0  0  1  0  0  0  0  0  0  0  0  0
   -2.6859    8.0107   10.3673 C   0  0  2  0  0  0  0  0  0  0  0  0
   -3.4342    9.2935   13.2300 C   0  0  0  0  0  0  0  0  0  0  0  0
    0.4319    5.0580   10.8609 O   0  0  0  0  0  0  0  0  0  0  0  0
   -1.6910    7.7444    9.3314 O   0  0  0  0  0  0  0  0  0  0  0  0
    2.0311    5.0450    7.4392 N   0  0  0  0  0  0  0  0  0  0  0  0
   -3.1246    7.9002   12.8431 N   0  0  0  0  0  0  0  0  0  0  0  0
   -2.1902    5.3820   11.9904 O   0  0  0  0  0  0  0  0  0  0  0  0
   -3.2606    9.3421   10.2197 O   0  0  0  0  0  0  0  0  0  0  0  0
    2.6716    5.4783   10.1000 O   0  0  0  0  0  0  0  0  0  0  0  0
   -2.3897   10.4332    9.7898 C   0  0  2  0  0  0  0  0  0  0  0  0
   -3.0378   11.8148   10.0898 C   0  0  1  0  0  0  0  0  0  0  0  0
   -4.2515   12.0958    9.1582 C   0  0  2  0  0  0  0  0  0  0  0  0
   -3.8637   11.9190    7.6614 C   0  0  1  0  0  0  0  0  0  0  0  0
   -3.1888   10.5412    7.4129 C   0  0  1  0  0  0  0  0  0  0  0  0
   -2.6738   10.4046    5.9560 C   0  0  0  0  0  0  0  0  0  0  0  0
   -2.1015   10.3281    8.3635 O   0  0  0  0  0  0  0  0  0  0  0  0
   -5.0304   12.1169    6.7736 N   0  0  0  0  0  0  0  0  0  0  0  0
   -3.3952   11.9121   11.4672 O   0  0  0  0  0  0  0  0  0  0  0  0
   -4.7960   13.3916    9.3985 O   0  0  0  0  0  0  0  0  0  0  0  0
   -2.4020    9.0432    5.6397 O   0  0  0  0  0  0  0  0  0  0  0  0
    3.7608    4.7536   10.7421 C   0  0  1  0  0  0  0  0  0  0  0  0
    3.2939    4.0281   12.0352 C   0  0  1  0  0  0  0  0  0  0  0  0
    4.4891    3.3427   12.7557 C   0  0  2  0  0  0  0  0  0  0  0  0
    5.2875    2.3879   11.8097 C   0  0  1  0  0  0  0  0  0  0  0  0
    5.6522    3.0495   10.4470 C   0  0  0  0  0  0  0  0  0  0  0  0
    4.4317    3.7424    9.7695 C   0  0  2  0  0  0  0  0  0  0  0  0
    6.4970    1.8707   12.4847 N   0  0  0  0  0  0  0  0  0  0  0  0
    4.8712    4.3873    8.5132 N   0  0  0  0  0  0  0  0  0  0  0  0
    2.6267    4.9318   12.9103 O   0  0  0  0  0  0  0  0  0  0  0  0
    4.0370    2.6379   13.9092 O   0  0  0  0  0  0  0  0  0  0  0  0
  1  2  1  0  0  0  0
  1 16  1  1  0  0  0
  2  3  1  0  0  0  0
  2 12  1  6  0  0  0
  4 11  1  1  0  0  0
  4  3  1  0  0  0  0
  5  4  1  0  0  0  0
  5 10  1  6  0  0  0
  6  7  1  0  0  0  0
  6  5  1  0  0  0  0
  6 14  1  6  0  0  0
  7  8  1  0  0  0  0
  7 13  1  1  0  0  0
  8 15  1  1  0  0  0
  8 11  1  0  0  0  0
  9 13  1  0  0  0  0
 10  1  1  0  0  0  0
 17 15  1  6  0  0  0
 17 18  1  0  0  0  0
 18 25  1  1  0  0  0
 19 18  1  0  0  0  0
 19 26  1  6  0  0  0
 20 19  1  0  0  0  0
 20 24  1  6  0  0  0
 21 23  1  0  0  0  0
 21 20  1  0  0  0  0
 21 22  1  6  0  0  0
 23 17  1  0  0  0  0
 27 22  1  0  0  0  0
 28 29  1  0  0  0  0
 28 16  1  6  0  0  0
 29 36  1  1  0  0  0
 30 37  1  1  0  0  0
 30 29  1  0  0  0  0
 31 30  1  0  0  0  0
 31 34  1  1  0  0  0
 32 31  1  0  0  0  0
 32 33  1  0  0  0  0
 33 28  1  0  0  0  0
 33 35  1  6  0  0  0
M  END
>  <CHROM.1>
-65.43051509,87.15354799,151.38449051,-157.43329799,-163.13581122,-135.01699761
-175.03712309,-171.49474954,-163.94970884,65.26214257,-164.41358463,-51.43280379
66.10296689,-179.08502511,-66.19338811,-82.89461669,-0.17595865,7.20520515
10.10530144,-0.39084647,0.70812050,-1.31604708

>  <Name>
lig.pdb

>  <RI>
0

>  <Rbt.Current_Directory>
/home/itssahil/PROJECTS/Mol_Feturizer/New_Systems/rnas/2m4q

>  <Rbt.Executable>
rbdock ($Id: //depot/dev/client3/rdock/2013.1/src/exe/rbdock.cxx#4 $)

>  <Rbt.Library>
libRbt.so (2013.1, Build901 2013/11/27)

>  <Rbt.Parameter_File>
/export/apps/rDock/src/rDock_2013.1_src/data/scripts/dock_solv.prm

>  <Rbt.Receptor>
prm/pocket_docking_3.prm

>  <SCORE>
-51.311

>  <SCORE.INTER>
-30.9436

>  <SCORE.INTER.CONST>
1

>  <SCORE.INTER.POLAR>
-3.74334

>  <SCORE.INTER.ROT>
10

>  <SCORE.INTER.SOLV>
18.0147

>  <SCORE.INTER.VDW>
-24.4228

>  <SCORE.INTER.norm>
-0.836313

>  <SCORE.INTRA>
-20.3675

>  <SCORE.INTRA.DIHEDRAL>
-26.8459

>  <SCORE.INTRA.DIHEDRAL.0>
44.8331

>  <SCORE.INTRA.POLAR>
-2.03928

>  <SCORE.INTRA.POLAR.0>
-0.108895

>  <SCORE.INTRA.REPUL>
0.0725575

>  <SCORE.INTRA.REPUL.0>
0.00912235

>  <SCORE.INTRA.SOLV>
-0.652112

>  <SCORE.INTRA.SOLV.lig_0>
-53.9067

>  <SCORE.INTRA.VDW>
-0.0476738

>  <SCORE.INTRA.VDW.0>
-2.93492

>  <SCORE.INTRA.norm>
-0.550472

>  <SCORE.RESTR>
0

>  <SCORE.RESTR.CAVITY>
0

>  <SCORE.RESTR.norm>
0

>  <SCORE.SYSTEM>
0

>  <SCORE.SYSTEM.CONST>
0

>  <SCORE.SYSTEM.DIHEDRAL>
0

>  <SCORE.SYSTEM.SOLV>
0

>  <SCORE.SYSTEM.norm>
0

>  <SCORE.heavy>
37

>  <SCORE.norm>
-1.38678

>  <RMSD>
9.991

$$$$
lig.pdb
 OpenBabel11021811453D
libRbt.so/2013.1/901 2013/11/27
 37 40  0  0  0  0  0  0  0  0999 V2000
    2.0446    4.6517    9.9169 C   0  0  2  0  0  0  0  0  0  0  0  0
    1.4075    4.7775    8.4938 C   0  0  1  0  0  0  0  0  0  0  0  0
    0.4506    5.9975    8.3535 C   0  0  0  0  0  0  0  0  0  0  0  0
   -0.5581    6.0527    9.5277 C   0  0  1  0  0  0  0  0  0  0  0  0
    0.2011    6.0646   10.8734 C   0  0  1  0  0  0  0  0  0  0  0  0
   -0.7849    6.1670   12.0680 C   0  0  1  0  0  0  0  0  0  0  0  0
   -1.7402    7.3855   11.8969 C   0  0  1  0  0  0  0  0  0  0  0  0
   -2.4297    7.3946   10.5003 C   0  0  2  0  0  0  0  0  0  0  0  0
   -3.1498    8.7589   13.3600 C   0  0  0  0  0  0  0  0  0  0  0  0
    1.0651    4.8964   10.9780 O   0  0  0  0  0  0  0  0  0  0  0  0
   -1.4630    7.1896    9.4246 O   0  0  0  0  0  0  0  0  0  0  0  0
    2.4757    4.8647    7.4744 N   0  0  0  0  0  0  0  0  0  0  0  0
   -2.7234    7.3894   12.9998 N   0  0  0  0  0  0  0  0  0  0  0  0
   -1.5157    4.9594   12.2395 O   0  0  0  0  0  0  0  0  0  0  0  0
   -3.1787    8.6306   10.3106 O   0  0  0  0  0  0  0  0  0  0  0  0
    3.1898    5.5459   10.0636 O   0  0  0  0  0  0  0  0  0  0  0  0
   -2.4355    9.8696   10.0955 C   0  0  2  0  0  0  0  0  0  0  0  0
   -3.3406   11.1113   10.3361 C   0  0  1  0  0  0  0  0  0  0  0  0
   -4.4062   11.2731    9.2144 C   0  0  2  0  0  0  0  0  0  0  0  0
   -3.7443   11.2678    7.8059 C   0  0  1  0  0  0  0  0  0  0  0  0
   -2.8227   10.0301    7.6207 C   0  0  1  0  0  0  0  0  0  0  0  0
   -2.0506   10.0808    6.2762 C   0  0  0  0  0  0  0  0  0  0  0  0
   -1.8943    9.9147    8.7414 O   0  0  0  0  0  0  0  0  0  0  0  0
   -4.7582   11.3517    6.7318 N   0  0  0  0  0  0  0  0  0  0  0  0
   -3.9395   11.0516   11.6293 O   0  0  0  0  0  0  0  0  0  0  0  0
   -5.1863   12.4504    9.4112 O   0  0  0  0  0  0  0  0  0  0  0  0
   -1.8442    8.7699    5.7601 O   0  0  0  0  0  0  0  0  0  0  0  0
    4.3693    5.0293   10.7461 C   0  0  1  0  0  0  0  0  0  0  0  0
    5.3410    4.3130    9.7668 C   0  0  1  0  0  0  0  0  0  0  0  0
    6.5428    3.6862   10.5283 C   0  0  2  0  0  0  0  0  0  0  0  0
    7.2864    4.7260   11.4281 C   0  0  1  0  0  0  0  0  0  0  0  0
    6.3185    5.5544   12.3251 C   0  0  0  0  0  0  0  0  0  0  0  0
    5.1180    6.1465   11.5270 C   0  0  2  0  0  0  0  0  0  0  0  0
    8.3261    4.0648   12.2454 N   0  0  0  0  0  0  0  0  0  0  0  0
    4.2236    6.8709   12.4557 N   0  0  0  0  0  0  0  0  0  0  0  0
    4.6549    3.3255    9.0041 O   0  0  0  0  0  0  0  0  0  0  0  0
    7.4510    3.0800    9.6123 O   0  0  0  0  0  0  0  0  0  0  0  0
  1  2  1  0  0  0  0
  1 16  1  6  0  0  0
  2  3  1  0  0  0  0
  2 12  1  6  0  0  0
  4 11  1  6  0  0  0
  4  3  1  0  0  0  0
  5  4  1  0  0  0  0
  5 10  1  1  0  0  0
  6  7  1  0  0  0  0
  6  5  1  0  0  0  0
  6 14  1  6  0  0  0
  7  8  1  0  0  0  0
  7 13  1  1  0  0  0
  8 15  1  6  0  0  0
  8 11  1  0  0  0  0
  9 13  1  0  0  0  0
 10  1  1  0  0  0  0
 17 15  1  6  0  0  0
 17 18  1  0  0  0  0
 18 25  1  1  0  0  0
 19 18  1  0  0  0  0
 19 26  1  1  0  0  0
 20 19  1  0  0  0  0
 20 24  1  6  0  0  0
 21 23  1  0  0  0  0
 21 20  1  0  0  0  0
 21 22  1  6  0  0  0
 23 17  1  0  0  0  0
 27 22  1  0  0  0  0
 28 29  1  0  0  0  0
 28 16  1  6  0  0  0
 29 36  1  1  0  0  0
 30 37  1  6  0  0  0
 30 29  1  0  0  0  0
 31 30  1  0  0  0  0
 31 34  1  1  0  0  0
 32 31  1  0  0  0  0
 32 33  1  0  0  0  0
 33 28  1  0  0  0  0
 33 35  1  1  0  0  0
M  END
>  <CHROM.1>
43.75046149,71.98334461,149.09434175,60.98602338,-163.06413853,-138.27740873
179.98901051,61.13986430,-147.28818866,62.65257417,176.65466974,87.97098517
-50.27281237,-60.32079333,-62.74424049,58.88101086,0.42557245,7.16057297
10.03411280,-0.21257923,0.54737034,-1.41803538

>  <Name>
lig.pdb

>  <RI>
0

>  <Rbt.Current_Directory>
/home/itssahil/PROJECTS/Mol_Feturizer/New_Systems/rnas/2m4q

>  <Rbt.Executable>
rbdock ($Id: //depot/dev/client3/rdock/2013.1/src/exe/rbdock.cxx#4 $)

>  <Rbt.Library>
libRbt.so (2013.1, Build901 2013/11/27)

>  <Rbt.Parameter_File>
/export/apps/rDock/src/rDock_2013.1_src/data/scripts/dock_solv.prm

>  <Rbt.Receptor>
prm/pocket_docking_3.prm

>  <SCORE>
-39.5126

>  <SCORE.INTER>
-21.2538

>  <SCORE.INTER.CONST>
1

>  <SCORE.INTER.POLAR>
-2.38987

>  <SCORE.INTER.ROT>
10

>  <SCORE.INTER.SOLV>
17.8673

>  <SCORE.INTER.VDW>
-22.4254

>  <SCORE.INTER.norm>
-0.574428

>  <SCORE.INTRA>
-18.2587

>  <SCORE.INTRA.DIHEDRAL>
-28.4144

>  <SCORE.INTRA.DIHEDRAL.0>
44.8331

>  <SCORE.INTRA.POLAR>
-0.895344

>  <SCORE.INTRA.POLAR.0>
-0.108895

>  <SCORE.INTRA.REPUL>
0.0642919

>  <SCORE.INTRA.REPUL.0>
0.00912235

>  <SCORE.INTRA.SOLV>
-0.702631

>  <SCORE.INTRA.SOLV.lig_0>
-53.9067

>  <SCORE.INTRA.VDW>
-0.977538

>  <SCORE.INTRA.VDW.0>
-2.93492

>  <SCORE.INTRA.norm>
-0.49348

>  <SCORE.RESTR>
0

>  <SCORE.RESTR.CAVITY>
0

>  <SCORE.RESTR.norm>
0

>  <SCORE.SYSTEM>
0

>  <SCORE.SYSTEM.CONST>
0

>  <SCORE.SYSTEM.DIHEDRAL>
0

>  <SCORE.SYSTEM.SOLV>
0

>  <SCORE.SYSTEM.norm>
0

>  <SCORE.heavy>
37

>  <SCORE.norm>
-1.06791

>  <RMSD>
10.001

$$$$
lig.pdb
 OpenBabel11021811453D
libRbt.so/2013.1/901 2013/11/27
 37 40  0  0  0  0  0  0  0  0999 V2000
    1.4929    4.7830   10.0918 C   0  0  2  0  0  0  0  0  0  0  0  0
    0.8797    4.9737    8.6654 C   0  0  1  0  0  0  0  0  0  0  0  0
    0.0031    6.2541    8.5385 C   0  0  0  0  0  0  0  0  0  0  0  0
   -1.0120    6.3525    9.7042 C   0  0  1  0  0  0  0  0  0  0  0  0
   -0.2674    6.2928   11.0568 C   0  0  1  0  0  0  0  0  0  0  0  0
   -1.2571    6.4365   12.2440 C   0  0  1  0  0  0  0  0  0  0  0  0
   -2.1318    7.7158   12.0863 C   0  0  1  0  0  0  0  0  0  0  0  0
   -2.8051    7.7929   10.6838 C   0  0  2  0  0  0  0  0  0  0  0  0
   -3.3604    9.1420   13.6580 C   0  0  0  0  0  0  0  0  0  0  0  0
    0.5201    5.0706   11.1482 O   0  0  0  0  0  0  0  0  0  0  0  0
   -1.8422    7.5459    9.6134 O   0  0  0  0  0  0  0  0  0  0  0  0
    1.9616    5.0109    7.6576 N   0  0  0  0  0  0  0  0  0  0  0  0
   -3.1241    7.7626   13.1801 N   0  0  0  0  0  0  0  0  0  0  0  0
   -2.0644    5.2748   12.3870 O   0  0  0  0  0  0  0  0  0  0  0  0
   -3.4726    9.0769   10.5097 O   0  0  0  0  0  0  0  0  0  0  0  0
    2.6907    5.6002   10.2650 O   0  0  0  0  0  0  0  0  0  0  0  0
   -2.6559   10.2535   10.2224 C   0  0  2  0  0  0  0  0  0  0  0  0
   -3.5209   11.5460   10.2233 C   0  0  1  0  0  0  0  0  0  0  0  0
   -4.4686   11.6055    8.9912 C   0  0  2  0  0  0  0  0  0  0  0  0
   -3.6794   11.4038    7.6652 C   0  0  1  0  0  0  0  0  0  0  0  0
   -2.8030   10.1215    7.7201 C   0  0  1  0  0  0  0  0  0  0  0  0
   -1.9075    9.9794    6.4615 C   0  0  0  0  0  0  0  0  0  0  0  0
   -1.9894   10.1127    8.9323 O   0  0  0  0  0  0  0  0  0  0  0  0
   -4.5838   11.3901    6.4945 N   0  0  0  0  0  0  0  0  0  0  0  0
   -4.2398   11.6668   11.4494 O   0  0  0  0  0  0  0  0  0  0  0  0
   -5.2083   12.8244    8.9689 O   0  0  0  0  0  0  0  0  0  0  0  0
   -2.7001    9.9014    5.2812 O   0  0  0  0  0  0  0  0  0  0  0  0
    3.8165    5.0093   10.9774 C   0  0  1  0  0  0  0  0  0  0  0  0
    5.0134    4.7136   10.0307 C   0  0  1  0  0  0  0  0  0  0  0  0
    6.1647    3.9962   10.7904 C   0  0  2  0  0  0  0  0  0  0  0  0
    6.6135    4.7771   12.0681 C   0  0  1  0  0  0  0  0  0  0  0  0
    5.4168    5.2045   12.9697 C   0  0  0  0  0  0  0  0  0  0  0  0
    4.2771    5.9001   12.1660 C   0  0  2  0  0  0  0  0  0  0  0  0
    7.6026    3.9957   12.8408 N   0  0  0  0  0  0  0  0  0  0  0  0
    3.1622    6.2259   13.0816 N   0  0  0  0  0  0  0  0  0  0  0  0
    4.5932    3.9460    8.9074 O   0  0  0  0  0  0  0  0  0  0  0  0
    7.2747    3.7801    9.9227 O   0  0  0  0  0  0  0  0  0  0  0  0
  1  2  1  0  0  0  0
  1 16  1  1  0  0  0
  2  3  1  0  0  0  0
  2 12  1  6  0  0  0
  4 11  1  6  0  0  0
  4  3  1  0  0  0  0
  5  4  1  0  0  0  0
  5 10  1  1  0  0  0
  6  7  1  0  0  0  0
  6  5  1  0  0  0  0
  6 14  1  6  0  0  0
  7  8  1  0  0  0  0
  7 13  1  1  0  0  0
  8 15  1  6  0  0  0
  8 11  1  0  0  0  0
  9 13  1  0  0  0  0
 10  1  1  0  0  0  0
 17 15  1  6  0  0  0
 17 18  1  0  0  0  0
 18 25  1  1  0  0  0
 19 18  1  0  0  0  0
 19 26  1  6  0  0  0
 20 19  1  0  0  0  0
 20 24  1  6  0  0  0
 21 23  1  0  0  0  0
 21 20  1  0  0  0  0
 21 22  1  6  0  0  0
 23 17  1  0  0  0  0
 27 22  1  0  0  0  0
 28 29  1  0  0  0  0
 28 16  1  6  0  0  0
 29 36  1  6  0  0  0
 30 37  1  6  0  0  0
 30 29  1  0  0  0  0
 31 30  1  0  0  0  0
 31 34  1  1  0  0  0
 32 31  1  0  0  0  0
 32 33  1  0  0  0  0
 33 28  1  0  0  0  0
 33 35  1  1  0  0  0
M  END
>  <CHROM.1>
-167.74547631,76.57552018,143.06484420,-147.09094151,-173.83936326,-139.73687005
65.19848439,-63.87653741,-60.21984788,81.71202731,-174.11796144,109.86115896
59.13306368,62.46457934,-176.93753995,-59.38015744,0.04463842,7.41053655
10.18363982,-0.29368827,0.55953790,-1.36695423

>  <Name>
lig.pdb

>  <RI>
0

>  <Rbt.Current_Directory>
/home/itssahil/PROJECTS/Mol_Feturizer/New_Systems/rnas/2m4q

>  <Rbt.Executable>
rbdock ($Id: //depot/dev/client3/rdock/2013.1/src/exe/rbdock.cxx#4 $)

>  <Rbt.Library>
libRbt.so (2013.1, Build901 2013/11/27)

>  <Rbt.Parameter_File>
/export/apps/rDock/src/rDock_2013.1_src/data/scripts/dock_solv.prm

>  <Rbt.Receptor>
prm/pocket_docking_6.prm

>  <SCORE>
-46.5736

>  <SCORE.INTER>
-27.3172

>  <SCORE.INTER.CONST>
1

>  <SCORE.INTER.POLAR>
-3.71916

>  <SCORE.INTER.ROT>
10

>  <SCORE.INTER.SOLV>
17.4427

>  <SCORE.INTER.VDW>
-21.8951

>  <SCORE.INTER.norm>
-0.738302

>  <SCORE.INTRA>
-19.2564

>  <SCORE.INTRA.DIHEDRAL>
-23.822

>  <SCORE.INTRA.DIHEDRAL.0>
44.8331

>  <SCORE.INTRA.POLAR>
-2.02417

>  <SCORE.INTRA.POLAR.0>
-0.108895

>  <SCORE.INTRA.REPUL>
-0.00912235

>  <SCORE.INTRA.REPUL.0>
0.00912235

>  <SCORE.INTRA.SOLV>
-0.215651

>  <SCORE.INTRA.SOLV.lig_0>
-53.9067

>  <SCORE.INTRA.VDW>
-0.309773

>  <SCORE.INTRA.VDW.0>
-2.93492

>  <SCORE.INTRA.norm>
-0.520443

>  <SCORE.RESTR>
0

>  <SCORE.RESTR.CAVITY>
0

>  <SCORE.RESTR.norm>
0

>  <SCORE.SYSTEM>
0

>  <SCORE.SYSTEM.CONST>
0

>  <SCORE.SYSTEM.DIHEDRAL>
0

>  <SCORE.SYSTEM.SOLV>
0

>  <SCORE.SYSTEM.norm>
0

>  <SCORE.heavy>
37

>  <SCORE.norm>
-1.25875

>  <RMSD>
10.006

$$$$
lig.pdb
 OpenBabel11021811453D
libRbt.so/2013.1/901 2013/11/27
 37 40  0  0  0  0  0  0  0  0999 V2000
   -1.1126    7.9097    7.9453 C   0  0  2  0  0  0  0  0  0  0  0  0
   -1.8999    8.9574    7.0911 C   0  0  1  0  0  0  0  0  0  0  0  0
   -2.2101   10.2730    7.8637 C   0  0  0  0  0  0  0  0  0  0  0  0
   -2.8221    9.9718    9.2543 C   0  0  1  0  0  0  0  0  0  0  0  0
   -1.8824    9.0403   10.0521 C   0  0  1  0  0  0  0  0  0  0  0  0
   -2.4492    8.7590   11.4696 C   0  0  1  0  0  0  0  0  0  0  0  0
   -2.7649   10.0896   12.2157 C   0  0  1  0  0  0  0  0  0  0  0  0
   -3.6451   11.0453   11.3566 C   0  0  2  0  0  0  0  0  0  0  0  0
   -3.2814   10.9035   14.4706 C   0  0  0  0  0  0  0  0  0  0  0  0
   -1.6368    7.8114    9.3093 O   0  0  0  0  0  0  0  0  0  0  0  0
   -3.1170   11.1866   10.0020 O   0  0  0  0  0  0  0  0  0  0  0  0
   -1.1405    9.2712    5.8613 N   0  0  0  0  0  0  0  0  0  0  0  0
   -3.3925    9.7788   13.5167 N   0  0  0  0  0  0  0  0  0  0  0  0
   -3.5936    7.9173   11.4106 O   0  0  0  0  0  0  0  0  0  0  0  0
   -3.7775   12.3410   12.0111 O   0  0  0  0  0  0  0  0  0  0  0  0
    0.3156    8.2136    7.9682 O   0  0  0  0  0  0  0  0  0  0  0  0
   -2.7194   13.3297   11.8198 C   0  0  2  0  0  0  0  0  0  0  0  0
   -2.9525   14.5767   12.7193 C   0  0  1  0  0  0  0  0  0  0  0  0
   -4.1623   15.4226   12.2286 C   0  0  2  0  0  0  0  0  0  0  0  0
   -4.0234   15.7792   10.7202 C   0  0  1  0  0  0  0  0  0  0  0  0
   -3.7572   14.5104    9.8630 C   0  0  1  0  0  0  0  0  0  0  0  0
   -3.4811   14.8639    8.3780 C   0  0  0  0  0  0  0  0  0  0  0  0
   -2.6490   13.7418   10.4221 O   0  0  0  0  0  0  0  0  0  0  0  0
   -5.2037   16.5243   10.2299 N   0  0  0  0  0  0  0  0  0  0  0  0
   -3.0973   14.1896   14.0846 O   0  0  0  0  0  0  0  0  0  0  0  0
   -4.3253   16.5965   13.0215 O   0  0  0  0  0  0  0  0  0  0  0  0
   -3.1298   13.7003    7.6365 O   0  0  0  0  0  0  0  0  0  0  0  0
    1.2010    7.2575    8.6209 C   0  0  1  0  0  0  0  0  0  0  0  0
    1.2947    7.5035   10.1529 C   0  0  1  0  0  0  0  0  0  0  0  0
    2.3169    6.5365   10.8141 C   0  0  2  0  0  0  0  0  0  0  0  0
    2.0201    5.0377   10.4833 C   0  0  1  0  0  0  0  0  0  0  0  0
    1.7879    4.7863    8.9632 C   0  0  0  0  0  0  0  0  0  0  0  0
    0.7735    5.7897    8.3362 C   0  0  2  0  0  0  0  0  0  0  0  0
    3.0919    4.1627   11.0043 N   0  0  0  0  0  0  0  0  0  0  0  0
    0.6492    5.5177    6.8877 N   0  0  0  0  0  0  0  0  0  0  0  0
    1.6299    8.8596   10.4287 O   0  0  0  0  0  0  0  0  0  0  0  0
    2.3521    6.7380   12.2248 O   0  0  0  0  0  0  0  0  0  0  0  0
  1  2  1  0  0  0  0
  1 16  1  1  0  0  0
  2  3  1  0  0  0  0
  2 12  1  6  0  0  0
  4 11  1  1  0  0  0
  4  3  1  0  0  0  0
  5  4  1  0  0  0  0
  5 10  1  6  0  0  0
  6  7  1  0  0  0  0
  6  5  1  0  0  0  0
  6 14  1  6  0  0  0
  7  8  1  0  0  0  0
  7 13  1  1  0  0  0
  8 15  1  1  0  0  0
  8 11  1  0  0  0  0
  9 13  1  0  0  0  0
 10  1  1  0  0  0  0
 17 15  1  6  0  0  0
 17 18  1  0  0  0  0
 18 25  1  1  0  0  0
 19 18  1  0  0  0  0
 19 26  1  1  0  0  0
 20 19  1  0  0  0  0
 20 24  1  6  0  0  0
 21 23  1  0  0  0  0
 21 20  1  0  0  0  0
 21 22  1  6  0  0  0
 23 17  1  0  0  0  0
 27 22  1  0  0  0  0
 28 29  1  0  0  0  0
 28 16  1  1  0  0  0
 29 36  1  6  0  0  0
 30 37  1  1  0  0  0
 30 29  1  0  0  0  0
 31 30  1  0  0  0  0
 31 34  1  6  0  0  0
 32 31  1  0  0  0  0
 32 33  1  0  0  0  0
 33 28  1  0  0  0  0
 33 35  1  6  0  0  0
M  END
>  <CHROM.1>
-146.17123659,83.84407371,159.49265446,-175.78414938,-173.44086938,-174.41852011
66.81928112,-176.83046393,175.10012173,53.39069344,-52.73116518,-85.35345239
173.07278920,-63.75982018,-60.91136585,56.06259530,-1.64830386,10.27307786
10.31094500,0.21833381,1.02562129,-1.58423905

>  <Name>
lig.pdb

>  <RI>
0

>  <Rbt.Current_Directory>
/home/itssahil/PROJECTS/Mol_Feturizer/New_Systems/rnas/2m4q

>  <Rbt.Executable>
rbdock ($Id: //depot/dev/client3/rdock/2013.1/src/exe/rbdock.cxx#4 $)

>  <Rbt.Library>
libRbt.so (2013.1, Build901 2013/11/27)

>  <Rbt.Parameter_File>
/export/apps/rDock/src/rDock_2013.1_src/data/scripts/dock_solv.prm

>  <Rbt.Receptor>
prm/pocket_docking_6.prm

>  <SCORE>
-46.8475

>  <SCORE.INTER>
-28.9765

>  <SCORE.INTER.CONST>
1

>  <SCORE.INTER.POLAR>
-4.49353

>  <SCORE.INTER.ROT>
10

>  <SCORE.INTER.SOLV>
15.808

>  <SCORE.INTER.VDW>
-19.8753

>  <SCORE.INTER.norm>
-0.78315

>  <SCORE.INTRA>
-17.871

>  <SCORE.INTRA.DIHEDRAL>
-35.4578

>  <SCORE.INTRA.DIHEDRAL.0>
44.8331

>  <SCORE.INTRA.POLAR>
-0.0942217

>  <SCORE.INTRA.POLAR.0>
-0.108895

>  <SCORE.INTRA.REPUL>
-0.00912235

>  <SCORE.INTRA.REPUL.0>
0.00912235

>  <SCORE.INTRA.SOLV>
-0.863907

>  <SCORE.INTRA.SOLV.lig_0>
-53.9067

>  <SCORE.INTRA.VDW>
0.65585

>  <SCORE.INTRA.VDW.0>
-2.93492

>  <SCORE.INTRA.norm>
-0.483

>  <SCORE.RESTR>
0

>  <SCORE.RESTR.CAVITY>
0

>  <SCORE.RESTR.norm>
0

>  <SCORE.SYSTEM>
0

>  <SCORE.SYSTEM.CONST>
0

>  <SCORE.SYSTEM.DIHEDRAL>
0

>  <SCORE.SYSTEM.SOLV>
0

>  <SCORE.SYSTEM.norm>
0

>  <SCORE.heavy>
37

>  <SCORE.norm>
-1.26615

>  <RMSD>
10.010

$$$$
lig.pdb
 OpenBabel11021811453D
libRbt.so/2013.1/901 2013/11/27
 37 40  0  0  0  0  0  0  0  0999 V2000
   -0.9416    7.8970   12.5105 C   0  0  2  0  0  0  0  0  0  0  0  0
   -2.2702    8.6622   12.8212 C   0  0  1  0  0  0  0  0  0  0  0  0
   -3.0078    9.1586   11.5432 C   0  0  0  0  0  0  0  0  0  0  0  0
   -2.0360    9.8979   10.5904 C   0  0  1  0  0  0  0  0  0  0  0  0
   -0.8375    8.9846   10.2486 C   0  0  1  0  0  0  0  0  0  0  0  0
    0.1303    9.6837    9.2567 C   0  0  1  0  0  0  0  0  0  0  0  0
   -0.6336   10.1838    7.9945 C   0  0  1  0  0  0  0  0  0  0  0  0
   -1.8846   11.0332    8.3683 C   0  0  2  0  0  0  0  0  0  0  0  0
    0.1895   10.5174    5.7087 C   0  0  0  0  0  0  0  0  0  0  0  0
   -0.1589    8.5623   11.4665 O   0  0  0  0  0  0  0  0  0  0  0  0
   -2.6996   10.3686    9.3821 O   0  0  0  0  0  0  0  0  0  0  0  0
   -3.1726    7.7958   13.6103 N   0  0  0  0  0  0  0  0  0  0  0  0
    0.3011   10.9278    7.1251 N   0  0  0  0  0  0  0  0  0  0  0  0
    0.8365   10.7454    9.8857 O   0  0  0  0  0  0  0  0  0  0  0  0
   -2.6668   11.3386    7.1768 O   0  0  0  0  0  0  0  0  0  0  0  0
   -1.2056    6.5084   12.1435 O   0  0  0  0  0  0  0  0  0  0  0  0
   -2.3408   12.5445    6.4195 C   0  0  2  0  0  0  0  0  0  0  0  0
   -3.0722   13.7855    7.0057 C   0  0  1  0  0  0  0  0  0  0  0  0
   -4.6023   13.7356    6.7297 C   0  0  2  0  0  0  0  0  0  0  0  0
   -4.8934   13.5176    5.2165 C   0  0  1  0  0  0  0  0  0  0  0  0
   -4.1168   12.2899    4.6641 C   0  0  1  0  0  0  0  0  0  0  0  0
   -4.2885   12.1404    3.1297 C   0  0  0  0  0  0  0  0  0  0  0  0
   -2.7028   12.3820    5.0156 O   0  0  0  0  0  0  0  0  0  0  0  0
   -6.3450   13.3998    4.9567 N   0  0  0  0  0  0  0  0  0  0  0  0
   -2.7904   13.9222    8.3972 O   0  0  0  0  0  0  0  0  0  0  0  0
   -5.2515   14.9091    7.2142 O   0  0  0  0  0  0  0  0  0  0  0  0
   -3.2827   11.2910    2.5872 O   0  0  0  0  0  0  0  0  0  0  0  0
   -0.0748    5.6939   11.7173 C   0  0  1  0  0  0  0  0  0  0  0  0
    0.0891    5.6896   10.1715 C   0  0  1  0  0  0  0  0  0  0  0  0
    1.2387    4.7395    9.7326 C   0  0  2  0  0  0  0  0  0  0  0  0
    2.5859    5.0581   10.4589 C   0  0  1  0  0  0  0  0  0  0  0  0
    2.4242    5.2015   12.0019 C   0  0  0  0  0  0  0  0  0  0  0  0
    1.2487    6.1449   12.3980 C   0  0  2  0  0  0  0  0  0  0  0  0
    3.6127    4.0470   10.1284 N   0  0  0  0  0  0  0  0  0  0  0  0
    1.1302    6.1857   13.8717 N   0  0  0  0  0  0  0  0  0  0  0  0
   -1.1330    5.3333    9.5334 O   0  0  0  0  0  0  0  0  0  0  0  0
    1.4115    4.7872    8.3185 O   0  0  0  0  0  0  0  0  0  0  0  0
  1  2  1  0  0  0  0
  1 16  1  6  0  0  0
  2  3  1  0  0  0  0
  2 12  1  6  0  0  0
  4 11  1  6  0  0  0
  4  3  1  0  0  0  0
  5  4  1  0  0  0  0
  5 10  1  1  0  0  0
  6  7  1  0  0  0  0
  6  5  1  0  0  0  0
  6 14  1  1  0  0  0
  7  8  1  0  0  0  0
  7 13  1  6  0  0  0
  8 15  1  6  0  0  0
  8 11  1  0  0  0  0
  9 13  1  0  0  0  0
 10  1  1  0  0  0  0
 17 15  1  1  0  0  0
 17 18  1  0  0  0  0
 18 25  1  1  0  0  0
 19 18  1  0  0  0  0
 19 26  1  6  0  0  0
 20 19  1  0  0  0  0
 20 24  1  1  0  0  0
 21 23  1  0  0  0  0
 21 20  1  0  0  0  0
 21 22  1  6  0  0  0
 23 17  1  0  0  0  0
 27 22  1  0  0  0  0
 28 29  1  0  0  0  0
 28 16  1  6  0  0  0
 29 36  1  6  0  0  0
 30 37  1  6  0  0  0
 30 29  1  0  0  0  0
 31 30  1  0  0  0  0
 31 34  1  1  0  0  0
 32 31  1  0  0  0  0
 32 33  1  0  0  0  0
 33 28  1  0  0  0  0
 33 35  1  1  0  0  0
M  END
>  <CHROM.1>
44.64251375,-88.60746662,133.31907084,-174.66486931,-85.84601319,175.02988391
-63.97397565,-61.44738618,162.48008698,69.19837435,-46.93619758,-94.15850535
-170.17970289,-173.55003745,63.97674135,-175.53105728,-1.39337219,9.44512917
8.87235195,0.80614681,-0.85015639,1.82890341

>  <Name>
lig.pdb

>  <RI>
2.86754e+07

>  <Rbt.Current_Directory>
/home/itssahil/PROJECTS/Mol_Feturizer/New_Systems/rnas/2m4q

>  <Rbt.Executable>
rbdock ($Id: //depot/dev/client3/rdock/2013.1/src/exe/rbdock.cxx#4 $)

>  <Rbt.Library>
libRbt.so (2013.1, Build901 2013/11/27)

>  <Rbt.Parameter_File>
/export/apps/rDock/src/rDock_2013.1_src/data/scripts/dock_solv.prm

>  <Rbt.Receptor>
prm/pocket_docking_5.prm

>  <SCORE>
-38.366

>  <SCORE.INTER>
-23.2452

>  <SCORE.INTER.CONST>
1

>  <SCORE.INTER.POLAR>
-4.2046

>  <SCORE.INTER.ROT>
10

>  <SCORE.INTER.SOLV>
16.3299

>  <SCORE.INTER.VDW>
-17.1915

>  <SCORE.INTER.norm>
-0.62825

>  <SCORE.INTRA>
-15.1208

>  <SCORE.INTRA.DIHEDRAL>
-28.3906

>  <SCORE.INTRA.DIHEDRAL.0>
44.8331

>  <SCORE.INTRA.POLAR>
-0.281674

>  <SCORE.INTRA.POLAR.0>
-0.108895

>  <SCORE.INTRA.REPUL>
-0.00912235

>  <SCORE.INTRA.REPUL.0>
0.00912235

>  <SCORE.INTRA.SOLV>
-1.24152

>  <SCORE.INTRA.SOLV.lig_0>
-53.9067

>  <SCORE.INTRA.VDW>
0.698569

>  <SCORE.INTRA.VDW.0>
-2.93492

>  <SCORE.INTRA.norm>
-0.40867

>  <SCORE.RESTR>
0

>  <SCORE.RESTR.CAVITY>
0

>  <SCORE.RESTR.norm>
0

>  <SCORE.SYSTEM>
0

>  <SCORE.SYSTEM.CONST>
0

>  <SCORE.SYSTEM.DIHEDRAL>
0

>  <SCORE.SYSTEM.SOLV>
0

>  <SCORE.SYSTEM.norm>
0

>  <SCORE.heavy>
37

>  <SCORE.norm>
-1.03692

>  <RMSD>
10.014

$$$$
lig.pdb
 OpenBabel11021811453D
libRbt.so/2013.1/901 2013/11/27
 37 40  0  0  0  0  0  0  0  0999 V2000
    0.9338    4.7867    9.7622 C   0  0  2  0  0  0  0  0  0  0  0  0
    0.3307    5.0994    8.3531 C   0  0  1  0  0  0  0  0  0  0  0  0
   -0.3545    6.4951    8.2728 C   0  0  0  0  0  0  0  0  0  0  0  0
   -1.3253    6.7086    9.4606 C   0  0  1  0  0  0  0  0  0  0  0  0
   -0.5746    6.5086   10.7963 C   0  0  1  0  0  0  0  0  0  0  0  0
   -1.5134    6.7628   12.0061 C   0  0  1  0  0  0  0  0  0  0  0  0
   -2.1974    8.1580   11.8949 C   0  0  1  0  0  0  0  0  0  0  0  0
   -2.8758    8.3662   10.5084 C   0  0  2  0  0  0  0  0  0  0  0  0
   -3.4754    9.7397   13.2656 C   0  0  0  0  0  0  0  0  0  0  0  0
    0.0302    5.1842   10.8441 O   0  0  0  0  0  0  0  0  0  0  0  0
   -1.9765    8.0108    9.4135 O   0  0  0  0  0  0  0  0  0  0  0  0
    1.3897    5.0064    7.3248 N   0  0  0  0  0  0  0  0  0  0  0  0
   -3.1542    8.3191   13.0092 N   0  0  0  0  0  0  0  0  0  0  0  0
   -2.4769    5.7257   12.1390 O   0  0  0  0  0  0  0  0  0  0  0  0
   -3.3544    9.7367   10.3767 O   0  0  0  0  0  0  0  0  0  0  0  0
    2.2395    5.4190    9.9297 O   0  0  0  0  0  0  0  0  0  0  0  0
   -2.4519   10.7391    9.8159 C   0  0  2  0  0  0  0  0  0  0  0  0
   -3.0894   12.1565    9.8719 C   0  0  1  0  0  0  0  0  0  0  0  0
   -4.2640   12.2999    8.8621 C   0  0  2  0  0  0  0  0  0  0  0  0
   -3.8246   11.8878    7.4272 C   0  0  1  0  0  0  0  0  0  0  0  0
   -3.1622   10.4819    7.4222 C   0  0  1  0  0  0  0  0  0  0  0  0
   -2.5966   10.1146    6.0253 C   0  0  0  0  0  0  0  0  0  0  0  0
   -2.1137   10.4097    8.4355 O   0  0  0  0  0  0  0  0  0  0  0  0
   -4.9550   11.9556    6.4753 N   0  0  0  0  0  0  0  0  0  0  0  0
   -3.4952   12.4711   11.2027 O   0  0  0  0  0  0  0  0  0  0  0  0
   -4.7970   13.6224    8.8766 O   0  0  0  0  0  0  0  0  0  0  0  0
   -2.0403    8.8040    6.0319 O   0  0  0  0  0  0  0  0  0  0  0  0
    3.3689    4.5617   10.2667 C   0  0  1  0  0  0  0  0  0  0  0  0
    4.6339    4.9124    9.4343 C   0  0  1  0  0  0  0  0  0  0  0  0
    5.7962    3.9257    9.7388 C   0  0  2  0  0  0  0  0  0  0  0  0
    6.1136    3.8313   11.2666 C   0  0  1  0  0  0  0  0  0  0  0  0
    4.8406    3.6138   12.1385 C   0  0  0  0  0  0  0  0  0  0  0  0
    3.6940    4.6089   11.7867 C   0  0  2  0  0  0  0  0  0  0  0  0
    7.1187    2.7795   11.5302 N   0  0  0  0  0  0  0  0  0  0  0  0
    2.5097    4.3035   12.6184 N   0  0  0  0  0  0  0  0  0  0  0  0
    4.3359    4.9287    8.0420 O   0  0  0  0  0  0  0  0  0  0  0  0
    6.9644    4.2921    9.0088 O   0  0  0  0  0  0  0  0  0  0  0  0
  1  2  1  0  0  0  0
  1 16  1  1  0  0  0
  2  3  1  0  0  0  0
  2 12  1  6  0  0  0
  4 11  1  1  0  0  0
  4  3  1  0  0  0  0
  5  4  1  0  0  0  0
  5 10  1  1  0  0  0
  6  7  1  0  0  0  0
  6  5  1  0  0  0  0
  6 14  1  6  0  0  0
  7  8  1  0  0  0  0
  7 13  1  1  0  0  0
  8 15  1  6  0  0  0
  8 11  1  0  0  0  0
  9 13  1  0  0  0  0
 10  1  1  0  0  0  0
 17 15  1  6  0  0  0
 17 18  1  0  0  0  0
 18 25  1  1  0  0  0
 19 18  1  0  0  0  0
 19 26  1  6  0  0  0
 20 19  1  0  0  0  0
 20 24  1  6  0  0  0
 21 23  1  0  0  0  0
 21 20  1  0  0  0  0
 21 22  1  6  0  0  0
 23 17  1  0  0  0  0
 27 22  1  0  0  0  0
 28 29  1  0  0  0  0
 28 16  1  1  0  0  0
 29 36  1  6  0  0  0
 30 37  1  6  0  0  0
 30 29  1  0  0  0  0
 31 30  1  0  0  0  0
 31 34  1  6  0  0  0
 32 31  1  0  0  0  0
 32 33  1  0  0  0  0
 33 28  1  0  0  0  0
 33 35  1  1  0  0  0
M  END
>  <CHROM.1>
168.17948226,89.85240163,159.50943970,54.20218159,-174.95078555,-123.58027984
67.72995132,-161.27270619,-177.81169938,178.14983118,50.25613259,135.93663119
-57.33149814,178.84756780,-51.32666756,-32.81174143,-0.17025453,7.48791738
9.81106737,0.32662717,-0.64319007,1.89816552

>  <Name>
lig.pdb

>  <RI>
0

>  <Rbt.Current_Directory>
/home/itssahil/PROJECTS/Mol_Feturizer/New_Systems/rnas/2m4q

>  <Rbt.Executable>
rbdock ($Id: //depot/dev/client3/rdock/2013.1/src/exe/rbdock.cxx#4 $)

>  <Rbt.Library>
libRbt.so (2013.1, Build901 2013/11/27)

>  <Rbt.Parameter_File>
/export/apps/rDock/src/rDock_2013.1_src/data/scripts/dock_solv.prm

>  <Rbt.Receptor>
prm/pocket_docking_2.prm

>  <SCORE>
-38.0254

>  <SCORE.INTER>
-23.716

>  <SCORE.INTER.CONST>
1

>  <SCORE.INTER.POLAR>
-2.84481

>  <SCORE.INTER.ROT>
10

>  <SCORE.INTER.SOLV>
17.1777

>  <SCORE.INTER.VDW>
-22.3205

>  <SCORE.INTER.norm>
-0.640972

>  <SCORE.INTRA>
-15.3846

>  <SCORE.INTRA.DIHEDRAL>
-23.0097

>  <SCORE.INTRA.DIHEDRAL.0>
44.8331

>  <SCORE.INTRA.POLAR>
-0.866005

>  <SCORE.INTRA.POLAR.0>
-0.108895

>  <SCORE.INTRA.REPUL>
-0.00912235

>  <SCORE.INTRA.REPUL.0>
0.00912235

>  <SCORE.INTRA.SOLV>
-0.744442

>  <SCORE.INTRA.SOLV.lig_0>
-53.9067

>  <SCORE.INTRA.VDW>
-0.517517

>  <SCORE.INTRA.VDW.0>
-2.93492

>  <SCORE.INTRA.norm>
-0.4158

>  <SCORE.RESTR>
1.07518

>  <SCORE.RESTR.CAVITY>
1.07518

>  <SCORE.RESTR.norm>
0.029059

>  <SCORE.SYSTEM>
0

>  <SCORE.SYSTEM.CONST>
0

>  <SCORE.SYSTEM.DIHEDRAL>
0

>  <SCORE.SYSTEM.SOLV>
0

>  <SCORE.SYSTEM.norm>
0

>  <SCORE.heavy>
37

>  <SCORE.norm>
-1.02771

>  <RMSD>
10.025

$$$$
lig.pdb
 OpenBabel11021811453D
libRbt.so/2013.1/901 2013/11/27
 37 40  0  0  0  0  0  0  0  0999 V2000
    0.5469    5.2120   10.2743 C   0  0  2  0  0  0  0  0  0  0  0  0
   -0.2310    5.1370    8.9191 C   0  0  1  0  0  0  0  0  0  0  0  0
   -0.9484    6.4676    8.5469 C   0  0  0  0  0  0  0  0  0  0  0  0
   -1.7698    7.0113    9.7421 C   0  0  1  0  0  0  0  0  0  0  0  0
   -0.8568    7.1726   10.9781 C   0  0  1  0  0  0  0  0  0  0  0  0
   -1.6445    7.7609   12.1794 C   0  0  1  0  0  0  0  0  0  0  0  0
   -2.3646    9.0826   11.7776 C   0  0  1  0  0  0  0  0  0  0  0  0
   -3.2124    8.9143   10.4818 C   0  0  2  0  0  0  0  0  0  0  0  0
   -3.3949   11.0182   12.8755 C   0  0  0  0  0  0  0  0  0  0  0  0
   -0.2245    5.9028   11.3100 O   0  0  0  0  0  0  0  0  0  0  0  0
   -2.4477    8.2605    9.4228 O   0  0  0  0  0  0  0  0  0  0  0  0
    0.6952    4.7514    7.8323 N   0  0  0  0  0  0  0  0  0  0  0  0
   -3.1801    9.5556   12.9152 N   0  0  0  0  0  0  0  0  0  0  0  0
   -2.5636    6.8137   12.7081 O   0  0  0  0  0  0  0  0  0  0  0  0
   -3.7307   10.2037   10.0418 O   0  0  0  0  0  0  0  0  0  0  0  0
    1.8505    5.8469   10.1002 O   0  0  0  0  0  0  0  0  0  0  0  0
   -2.8140   11.1391    9.3949 C   0  0  2  0  0  0  0  0  0  0  0  0
   -3.5452   12.4544    9.0023 C   0  0  1  0  0  0  0  0  0  0  0  0
   -4.5341   12.2331    7.8221 C   0  0  2  0  0  0  0  0  0  0  0  0
   -3.8263   11.5488    6.6169 C   0  0  1  0  0  0  0  0  0  0  0  0
   -3.0803   10.2591    7.0593 C   0  0  1  0  0  0  0  0  0  0  0  0
   -2.2580    9.6403    5.8986 C   0  0  0  0  0  0  0  0  0  0  0  0
   -2.2205   10.5366    8.2062 O   0  0  0  0  0  0  0  0  0  0  0  0
   -4.7768   11.2725    5.5174 N   0  0  0  0  0  0  0  0  0  0  0  0
   -4.1955   13.0240   10.1369 O   0  0  0  0  0  0  0  0  0  0  0  0
   -5.1491   13.4582    7.4290 O   0  0  0  0  0  0  0  0  0  0  0  0
   -1.1821   10.4957    5.5270 O   0  0  0  0  0  0  0  0  0  0  0  0
    3.0216    5.1366   10.5979 C   0  0  1  0  0  0  0  0  0  0  0  0
    4.1384    5.0306    9.5220 C   0  0  1  0  0  0  0  0  0  0  0  0
    5.3374    4.1872   10.0400 C   0  0  2  0  0  0  0  0  0  0  0  0
    5.8920    4.7139   11.4034 C   0  0  1  0  0  0  0  0  0  0  0  0
    4.7733    4.9576   12.4602 C   0  0  0  0  0  0  0  0  0  0  0  0
    3.5823    5.7881   11.8940 C   0  0  2  0  0  0  0  0  0  0  0  0
    6.9296    3.8044   11.9348 N   0  0  0  0  0  0  0  0  0  0  0  0
    2.5451    5.9298   12.9387 N   0  0  0  0  0  0  0  0  0  0  0  0
    3.6245    4.4879    8.3100 O   0  0  0  0  0  0  0  0  0  0  0  0
    6.3746    4.1440    9.0633 O   0  0  0  0  0  0  0  0  0  0  0  0
  1  2  1  0  0  0  0
  1 16  1  6  0  0  0
  2  3  1  0  0  0  0
  2 12  1  6  0  0  0
  4 11  1  6  0  0  0
  4  3  1  0  0  0  0
  5  4  1  0  0  0  0
  5 10  1  1  0  0  0
  6  7  1  0  0  0  0
  6  5  1  0  0  0  0
  6 14  1  6  0  0  0
  7  8  1  0  0  0  0
  7 13  1  1  0  0  0
  8 15  1  6  0  0  0
  8 11  1  0  0  0  0
  9 13  1  0  0  0  0
 10  1  1  0  0  0  0
 17 15  1  6  0  0  0
 17 18  1  0  0  0  0
 18 25  1  1  0  0  0
 19 18  1  0  0  0  0
 19 26  1  6  0  0  0
 20 19  1  0  0  0  0
 20 24  1  6  0  0  0
 21 23  1  0  0  0  0
 21 20  1  0  0  0  0
 21 22  1  6  0  0  0
 23 17  1  0  0  0  0
 27 22  1  0  0  0  0
 28 29  1  0  0  0  0
 28 16  1  6  0  0  0
 29 36  1  6  0  0  0
 30 37  1  6  0  0  0
 30 29  1  0  0  0  0
 31 30  1  0  0  0  0
 31 34  1  1  0  0  0
 32 31  1  0  0  0  0
 32 33  1  0  0  0  0
 33 28  1  0  0  0  0
 33 35  1  1  0  0  0
M  END
>  <CHROM.1>
157.67273478,75.31086204,154.46132127,-170.87530891,-179.82837580,-127.63462992
-54.02822220,-81.78372573,66.71586963,74.17892287,59.08787743,129.32018204
53.28507340,-171.21101048,75.42957412,86.97301311,-0.41424594,7.94413929
9.73083358,0.31330685,-0.65235936,1.74696489

>  <Name>
lig.pdb

>  <RI>
0

>  <Rbt.Current_Directory>
/home/itssahil/PROJECTS/Mol_Feturizer/New_Systems/rnas/2m4q

>  <Rbt.Executable>
rbdock ($Id: //depot/dev/client3/rdock/2013.1/src/exe/rbdock.cxx#4 $)

>  <Rbt.Library>
libRbt.so (2013.1, Build901 2013/11/27)

>  <Rbt.Parameter_File>
/export/apps/rDock/src/rDock_2013.1_src/data/scripts/dock_solv.prm

>  <Rbt.Receptor>
prm/pocket_docking_2.prm

>  <SCORE>
-28.7892

>  <SCORE.INTER>
-13.1551

>  <SCORE.INTER.CONST>
1

>  <SCORE.INTER.POLAR>
-1.46895

>  <SCORE.INTER.ROT>
10

>  <SCORE.INTER.SOLV>
14.4939

>  <SCORE.INTER.VDW>
-18.9715

>  <SCORE.INTER.norm>
-0.355543

>  <SCORE.INTRA>
-17.3029

>  <SCORE.INTRA.DIHEDRAL>
-22.9924

>  <SCORE.INTRA.DIHEDRAL.0>
44.8331

>  <SCORE.INTRA.POLAR>
-1.64473

>  <SCORE.INTRA.POLAR.0>
-0.108895

>  <SCORE.INTRA.REPUL>
-0.00912235

>  <SCORE.INTRA.REPUL.0>
0.00912235

>  <SCORE.INTRA.SOLV>
-0.084002

>  <SCORE.INTRA.SOLV.lig_0>
-53.9067

>  <SCORE.INTRA.VDW>
-0.127001

>  <SCORE.INTRA.VDW.0>
-2.93492

>  <SCORE.INTRA.norm>
-0.467645

>  <SCORE.RESTR>
1.66872

>  <SCORE.RESTR.CAVITY>
1.66872

>  <SCORE.RESTR.norm>
0.0451005

>  <SCORE.SYSTEM>
0

>  <SCORE.SYSTEM.CONST>
0

>  <SCORE.SYSTEM.DIHEDRAL>
0

>  <SCORE.SYSTEM.SOLV>
0

>  <SCORE.SYSTEM.norm>
0

>  <SCORE.heavy>
37

>  <SCORE.norm>
-0.778088

>  <RMSD>
10.029

$$$$
lig.pdb
 OpenBabel11021811453D
libRbt.so/2013.1/901 2013/11/27
 37 40  0  0  0  0  0  0  0  0999 V2000
    3.3427    4.4751    8.6459 C   0  0  2  0  0  0  0  0  0  0  0  0
    3.4028    5.4073    7.3911 C   0  0  1  0  0  0  0  0  0  0  0  0
    2.7211    6.7885    7.6173 C   0  0  0  0  0  0  0  0  0  0  0  0
    1.3123    6.6198    8.2386 C   0  0  1  0  0  0  0  0  0  0  0  0
    1.4082    5.8009    9.5454 C   0  0  1  0  0  0  0  0  0  0  0  0
    0.0153    5.6559   10.2151 C   0  0  1  0  0  0  0  0  0  0  0  0
   -0.6517    7.0492   10.4169 C   0  0  1  0  0  0  0  0  0  0  0  0
   -0.6611    7.8871    9.1039 C   0  0  2  0  0  0  0  0  0  0  0  0
   -2.4347    8.0002   11.8064 C   0  0  0  0  0  0  0  0  0  0  0  0
    2.0270    4.5074    9.2886 O   0  0  0  0  0  0  0  0  0  0  0  0
    0.6533    7.8986    8.4667 O   0  0  0  0  0  0  0  0  0  0  0  0
    4.8109    5.6091    6.9858 N   0  0  0  0  0  0  0  0  0  0  0  0
   -2.0115    6.8611   10.9634 N   0  0  0  0  0  0  0  0  0  0  0  0
   -0.8270    4.7843    9.4718 O   0  0  0  0  0  0  0  0  0  0  0  0
   -1.1336    9.2406    9.3675 O   0  0  0  0  0  0  0  0  0  0  0  0
    4.3884    4.8153    9.6068 O   0  0  0  0  0  0  0  0  0  0  0  0
   -0.9650   10.2524    8.3274 C   0  0  2  0  0  0  0  0  0  0  0  0
   -0.0170   11.3893    8.8043 C   0  0  1  0  0  0  0  0  0  0  0  0
   -0.6839   12.2756    9.8949 C   0  0  2  0  0  0  0  0  0  0  0  0
   -2.0709   12.7997    9.4220 C   0  0  1  0  0  0  0  0  0  0  0  0
   -2.9725   11.6367    8.9221 C   0  0  1  0  0  0  0  0  0  0  0  0
   -4.3050   12.1561    8.3212 C   0  0  0  0  0  0  0  0  0  0  0  0
   -2.2550   10.8187    7.9487 O   0  0  0  0  0  0  0  0  0  0  0  0
   -2.7413   13.5861   10.4807 N   0  0  0  0  0  0  0  0  0  0  0  0
    1.2269   10.8509    9.2488 O   0  0  0  0  0  0  0  0  0  0  0  0
    0.1696   13.3523   10.2764 O   0  0  0  0  0  0  0  0  0  0  0  0
   -4.9681   13.0252    9.2334 O   0  0  0  0  0  0  0  0  0  0  0  0
    4.7727    3.7987   10.5778 C   0  0  1  0  0  0  0  0  0  0  0  0
    3.6125    3.4599   11.5552 C   0  0  1  0  0  0  0  0  0  0  0  0
    4.0724    2.4466   12.6409 C   0  0  2  0  0  0  0  0  0  0  0  0
    4.7071    1.1582   12.0236 C   0  0  1  0  0  0  0  0  0  0  0  0
    5.7818    1.4708   10.9396 C   0  0  0  0  0  0  0  0  0  0  0  0
    5.2877    2.5055    9.8842 C   0  0  2  0  0  0  0  0  0  0  0  0
    5.2635    0.2881   13.0816 N   0  0  0  0  0  0  0  0  0  0  0  0
    6.3790    2.7853    8.9261 N   0  0  0  0  0  0  0  0  0  0  0  0
    3.0934    4.6426   12.1547 O   0  0  0  0  0  0  0  0  0  0  0  0
    2.9844    2.1055   13.4963 O   0  0  0  0  0  0  0  0  0  0  0  0
  1  2  1  0  0  0  0
  1 16  1  1  0  0  0
  2  3  1  0  0  0  0
  2 12  1  1  0  0  0
  4 11  1  1  0  0  0
  4  3  1  0  0  0  0
  5  4  1  0  0  0  0
  5 10  1  6  0  0  0
  6  7  1  0  0  0  0
  6  5  1  0  0  0  0
  6 14  1  6  0  0  0
  7  8  1  0  0  0  0
  7 13  1  6  0  0  0
  8 15  1  1  0  0  0
  8 11  1  0  0  0  0
  9 13  1  0  0  0  0
 10  1  1  0  0  0  0
 17 15  1  1  0  0  0
 17 18  1  0  0  0  0
 18 25  1  1  0  0  0
 19 18  1  0  0  0  0
 19 26  1  6  0  0  0
 20 19  1  0  0  0  0
 20 24  1  1  0  0  0
 21 23  1  0  0  0  0
 21 20  1  0  0  0  0
 21 22  1  6  0  0  0
 23 17  1  0  0  0  0
 27 22  1  0  0  0  0
 28 29  1  0  0  0  0
 28 16  1  6  0  0  0
 29 36  1  1  0  0  0
 30 37  1  6  0  0  0
 30 29  1  0  0  0  0
 31 30  1  0  0  0  0
 31 34  1  1  0  0  0
 32 31  1  0  0  0  0
 32 33  1  0  0  0  0
 33 28  1  0  0  0  0
 33 35  1  6  0  0  0
M  END
>  <CHROM.1>
83.96139816,167.98692926,150.50094071,-57.31555189,-116.46634155,-159.24248158
172.85812319,176.52007530,-52.71297499,-166.81320093,-177.35433973,-65.12776293
176.79361371,-72.38704558,-175.81641115,-176.22372876,1.12842168,7.01233613
9.84057110,-0.78938363,0.57527650,-0.66431293

>  <Name>
lig.pdb

>  <RI>
0

>  <Rbt.Current_Directory>
/home/itssahil/PROJECTS/Mol_Feturizer/New_Systems/rnas/2m4q

>  <Rbt.Executable>
rbdock ($Id: //depot/dev/client3/rdock/2013.1/src/exe/rbdock.cxx#4 $)

>  <Rbt.Library>
libRbt.so (2013.1, Build901 2013/11/27)

>  <Rbt.Parameter_File>
/export/apps/rDock/src/rDock_2013.1_src/data/scripts/dock_solv.prm

>  <Rbt.Receptor>
prm/pocket_docking_6.prm

>  <SCORE>
-41.9246

>  <SCORE.INTER>
-25.2846

>  <SCORE.INTER.CONST>
1

>  <SCORE.INTER.POLAR>
-4.37793

>  <SCORE.INTER.ROT>
10

>  <SCORE.INTER.SOLV>
15.6821

>  <SCORE.INTER.VDW>
-17.7574

>  <SCORE.INTER.norm>
-0.683368

>  <SCORE.INTRA>
-16.64

>  <SCORE.INTRA.DIHEDRAL>
-30.6763

>  <SCORE.INTRA.DIHEDRAL.0>
44.8331

>  <SCORE.INTRA.POLAR>
-0.928394

>  <SCORE.INTRA.POLAR.0>
-0.108895

>  <SCORE.INTRA.REPUL>
0.397074

>  <SCORE.INTRA.REPUL.0>
0.00912235

>  <SCORE.INTRA.SOLV>
-0.0945129

>  <SCORE.INTRA.SOLV.lig_0>
-53.9067

>  <SCORE.INTRA.VDW>
-0.083426

>  <SCORE.INTRA.VDW.0>
-2.93492

>  <SCORE.INTRA.norm>
-0.449729

>  <SCORE.RESTR>
0

>  <SCORE.RESTR.CAVITY>
0

>  <SCORE.RESTR.norm>
0

>  <SCORE.SYSTEM>
0

>  <SCORE.SYSTEM.CONST>
0

>  <SCORE.SYSTEM.DIHEDRAL>
0

>  <SCORE.SYSTEM.SOLV>
0

>  <SCORE.SYSTEM.norm>
0

>  <SCORE.heavy>
37

>  <SCORE.norm>
-1.1331

>  <RMSD>
10.038

$$$$
lig.pdb
 OpenBabel11021811453D
libRbt.so/2013.1/901 2013/11/27
 37 40  0  0  0  0  0  0  0  0999 V2000
    1.4408    4.7643    9.8580 C   0  0  2  0  0  0  0  0  0  0  0  0
    1.0283    4.9818    8.3648 C   0  0  1  0  0  0  0  0  0  0  0  0
    0.2295    6.2977    8.1324 C   0  0  0  0  0  0  0  0  0  0  0  0
   -0.9247    6.4374    9.1558 C   0  0  1  0  0  0  0  0  0  0  0  0
   -0.3670    6.3454   10.5938 C   0  0  1  0  0  0  0  0  0  0  0  0
   -1.4970    6.5293   11.6421 C   0  0  1  0  0  0  0  0  0  0  0  0
   -2.2899    7.8441   11.3793 C   0  0  1  0  0  0  0  0  0  0  0  0
   -2.7698    7.9505    9.9012 C   0  0  2  0  0  0  0  0  0  0  0  0
   -2.9837    8.4357   13.6558 C   0  0  0  0  0  0  0  0  0  0  0  0
    0.3506    5.0914   10.7797 O   0  0  0  0  0  0  0  0  0  0  0  0
   -1.6859    7.6646    8.9646 O   0  0  0  0  0  0  0  0  0  0  0  0
    2.2336    4.9746    7.5076 N   0  0  0  0  0  0  0  0  0  0  0  0
   -3.4143    7.9314   12.3340 N   0  0  0  0  0  0  0  0  0  0  0  0
   -2.3633    5.4022   11.6707 O   0  0  0  0  0  0  0  0  0  0  0  0
   -3.3551    9.2614    9.6494 O   0  0  0  0  0  0  0  0  0  0  0  0
    2.6383    5.5306   10.1918 O   0  0  0  0  0  0  0  0  0  0  0  0
   -2.4591   10.3938    9.4281 C   0  0  2  0  0  0  0  0  0  0  0  0
   -3.1371   11.7304    9.8435 C   0  0  1  0  0  0  0  0  0  0  0  0
   -4.2745   12.1290    8.8600 C   0  0  2  0  0  0  0  0  0  0  0  0
   -3.7678   12.1367    7.3885 C   0  0  1  0  0  0  0  0  0  0  0  0
   -3.0673   10.7974    7.0265 C   0  0  1  0  0  0  0  0  0  0  0  0
   -2.4373   10.8395    5.6096 C   0  0  0  0  0  0  0  0  0  0  0  0
   -2.0579   10.4642    8.0272 O   0  0  0  0  0  0  0  0  0  0  0  0
   -4.8613   12.4473    6.4418 N   0  0  0  0  0  0  0  0  0  0  0  0
   -3.6034   11.6584   11.1896 O   0  0  0  0  0  0  0  0  0  0  0  0
   -4.8438   13.3875    9.2141 O   0  0  0  0  0  0  0  0  0  0  0  0
   -1.5251    9.7614    5.4279 O   0  0  0  0  0  0  0  0  0  0  0  0
    3.7626    4.8101   10.7756 C   0  0  1  0  0  0  0  0  0  0  0  0
    3.3107    3.8464   11.9084 C   0  0  1  0  0  0  0  0  0  0  0  0
    4.5330    3.1612   12.5819 C   0  0  2  0  0  0  0  0  0  0  0  0
    5.4612    2.4465   11.5467 C   0  0  1  0  0  0  0  0  0  0  0  0
    5.8208    3.3498   10.3291 C   0  0  0  0  0  0  0  0  0  0  0  0
    4.5706    4.0331    9.6977 C   0  0  2  0  0  0  0  0  0  0  0  0
    6.6837    1.9353   12.2027 N   0  0  0  0  0  0  0  0  0  0  0  0
    5.0014    4.9093    8.5868 N   0  0  0  0  0  0  0  0  0  0  0  0
    2.5211    4.5339   12.8735 O   0  0  0  0  0  0  0  0  0  0  0  0
    4.1001    2.2417   13.5812 O   0  0  0  0  0  0  0  0  0  0  0  0
  1  2  1  0  0  0  0
  1 16  1  1  0  0  0
  2  3  1  0  0  0  0
  2 12  1  6  0  0  0
  4 11  1  1  0  0  0
  4  3  1  0  0  0  0
  5  4  1  0  0  0  0
  5 10  1  6  0  0  0
  6  7  1  0  0  0  0
  6  5  1  0  0  0  0
  6 14  1  6  0  0  0
  7  8  1  0  0  0  0
  7 13  1  1  0  0  0
  8 15  1  6  0  0  0
  8 11  1  0  0  0  0
  9 13  1  0  0  0  0
 10  1  1  0  0  0  0
 17 15  1  6  0  0  0
 17 18  1  0  0  0  0
 18 25  1  1  0  0  0
 19 18  1  0  0  0  0
 19 26  1  1  0  0  0
 20 19  1  0  0  0  0
 20 24  1  6  0  0  0
 21 23  1  0  0  0  0
 21 20  1  0  0  0  0
 21 22  1  6  0  0  0
 23 17  1  0  0  0  0
 27 22  1  0  0  0  0
 28 29  1  0  0  0  0
 28 16  1  6  0  0  0
 29 36  1  1  0  0  0
 30 37  1  1  0  0  0
 30 29  1  0  0  0  0
 31 30  1  0  0  0  0
 31 34  1  1  0  0  0
 32 31  1  0  0  0  0
 32 33  1  0  0  0  0
 33 28  1  0  0  0  0
 33 35  1  6  0  0  0
M  END
>  <CHROM.1>
-172.05675444,78.88625542,81.15680876,-167.66239112,-152.97353366,-126.10988695
-174.81436706,-163.09113560,165.16790394,-55.50779517,165.73099314,-45.94084563
67.23309621,63.29901483,-60.29655114,-65.30816160,-0.13573717,7.22233444
9.90141733,-0.51404336,0.64607649,-1.15208784

>  <Name>
lig.pdb

>  <RI>
3.87352e+07

>  <Rbt.Current_Directory>
/home/itssahil/PROJECTS/Mol_Feturizer/New_Systems/rnas/2m4q

>  <Rbt.Executable>
rbdock ($Id: //depot/dev/client3/rdock/2013.1/src/exe/rbdock.cxx#4 $)

>  <Rbt.Library>
libRbt.so (2013.1, Build901 2013/11/27)

>  <Rbt.Parameter_File>
/export/apps/rDock/src/rDock_2013.1_src/data/scripts/dock_solv.prm

>  <Rbt.Receptor>
prm/pocket_docking_4.prm

>  <SCORE>
-49.872

>  <SCORE.INTER>
-29.8089

>  <SCORE.INTER.CONST>
1

>  <SCORE.INTER.POLAR>
-3.28972

>  <SCORE.INTER.ROT>
10

>  <SCORE.INTER.SOLV>
18.0563

>  <SCORE.INTER.VDW>
-25.1923

>  <SCORE.INTER.norm>
-0.805645

>  <SCORE.INTRA>
-20.0632

>  <SCORE.INTRA.DIHEDRAL>
-26.6329

>  <SCORE.INTRA.DIHEDRAL.0>
44.8331

>  <SCORE.INTRA.POLAR>
-2.07206

>  <SCORE.INTRA.POLAR.0>
-0.108895

>  <SCORE.INTRA.REPUL>
0.225751

>  <SCORE.INTRA.REPUL.0>
0.00912235

>  <SCORE.INTRA.SOLV>
-0.47906

>  <SCORE.INTRA.SOLV.lig_0>
-53.9067

>  <SCORE.INTRA.VDW>
-0.590955

>  <SCORE.INTRA.VDW.0>
-2.93492

>  <SCORE.INTRA.norm>
-0.542248

>  <SCORE.RESTR>
0

>  <SCORE.RESTR.CAVITY>
0

>  <SCORE.RESTR.norm>
0

>  <SCORE.SYSTEM>
0

>  <SCORE.SYSTEM.CONST>
0

>  <SCORE.SYSTEM.DIHEDRAL>
0

>  <SCORE.SYSTEM.SOLV>
0

>  <SCORE.SYSTEM.norm>
0

>  <SCORE.heavy>
37

>  <SCORE.norm>
-1.34789

>  <RMSD>
10.041

$$$$
lig.pdb
 OpenBabel11021811453D
libRbt.so/2013.1/901 2013/11/27
 37 40  0  0  0  0  0  0  0  0999 V2000
   -0.3111    6.5968    7.6001 C   0  0  2  0  0  0  0  0  0  0  0  0
   -1.0771    7.3105    6.4377 C   0  0  1  0  0  0  0  0  0  0  0  0
   -1.5687    8.7398    6.8111 C   0  0  0  0  0  0  0  0  0  0  0  0
   -2.3048    8.7378    8.1738 C   0  0  1  0  0  0  0  0  0  0  0  0
   -1.3905    8.1372    9.2649 C   0  0  1  0  0  0  0  0  0  0  0  0
   -2.0863    8.1657   10.6523 C   0  0  1  0  0  0  0  0  0  0  0  0
   -2.5816    9.6022   10.9958 C   0  0  1  0  0  0  0  0  0  0  0  0
   -3.4321   10.2168    9.8446 C   0  0  2  0  0  0  0  0  0  0  0  0
   -3.2471   10.8551   12.9960 C   0  0  0  0  0  0  0  0  0  0  0  0
   -0.9727    6.7923    8.8920 O   0  0  0  0  0  0  0  0  0  0  0  0
   -2.7710   10.0654    8.5509 O   0  0  0  0  0  0  0  0  0  0  0  0
   -0.2134    7.3799    5.2391 N   0  0  0  0  0  0  0  0  0  0  0  0
   -3.3226    9.5669   12.2735 N   0  0  0  0  0  0  0  0  0  0  0  0
   -3.1504    7.2249   10.7159 O   0  0  0  0  0  0  0  0  0  0  0  0
   -3.7331   11.6151   10.1250 O   0  0  0  0  0  0  0  0  0  0  0  0
    1.0788    7.0397    7.6664 O   0  0  0  0  0  0  0  0  0  0  0  0
   -2.8585   12.6421    9.5644 C   0  0  2  0  0  0  0  0  0  0  0  0
   -3.2486   14.0533   10.0887 C   0  0  1  0  0  0  0  0  0  0  0  0
   -4.6004   14.5367    9.4897 C   0  0  2  0  0  0  0  0  0  0  0  0
   -4.5903   14.4475    7.9360 C   0  0  1  0  0  0  0  0  0  0  0  0
   -4.1622   13.0329    7.4553 C   0  0  1  0  0  0  0  0  0  0  0  0
   -4.0152   12.9669    5.9125 C   0  0  0  0  0  0  0  0  0  0  0  0
   -2.9199   12.6283    8.1068 O   0  0  0  0  0  0  0  0  0  0  0  0
   -5.8967   14.8399    7.3635 N   0  0  0  0  0  0  0  0  0  0  0  0
   -3.2662   14.0707   11.5149 O   0  0  0  0  0  0  0  0  0  0  0  0
   -4.9144   15.8573    9.9267 O   0  0  0  0  0  0  0  0  0  0  0  0
   -5.2765   13.1405    5.2750 O   0  0  0  0  0  0  0  0  0  0  0  0
    1.8916    6.5558    8.7752 C   0  0  1  0  0  0  0  0  0  0  0  0
    1.4474    7.1689   10.1328 C   0  0  1  0  0  0  0  0  0  0  0  0
    2.3865    6.7159   11.2861 C   0  0  2  0  0  0  0  0  0  0  0  0
    2.5234    5.1608   11.3678 C   0  0  1  0  0  0  0  0  0  0  0  0
    2.8365    4.5059    9.9890 C   0  0  0  0  0  0  0  0  0  0  0  0
    1.8865    5.0029    8.8580 C   0  0  2  0  0  0  0  0  0  0  0  0
    3.5336    4.7747   12.3760 N   0  0  0  0  0  0  0  0  0  0  0  0
    2.2814    4.3765    7.5778 N   0  0  0  0  0  0  0  0  0  0  0  0
    1.3928    8.5896   10.0535 O   0  0  0  0  0  0  0  0  0  0  0  0
    1.9354    7.2426   12.5314 O   0  0  0  0  0  0  0  0  0  0  0  0
  1  2  1  0  0  0  0
  1 16  1  1  0  0  0
  2  3  1  0  0  0  0
  2 12  1  6  0  0  0
  4 11  1  1  0  0  0
  4  3  1  0  0  0  0
  5  4  1  0  0  0  0
  5 10  1  6  0  0  0
  6  7  1  0  0  0  0
  6  5  1  0  0  0  0
  6 14  1  6  0  0  0
  7  8  1  0  0  0  0
  7 13  1  1  0  0  0
  8 15  1  1  0  0  0
  8 11  1  0  0  0  0
  9 13  1  0  0  0  0
 10  1  1  0  0  0  0
 17 15  1  1  0  0  0
 17 18  1  0  0  0  0
 18 25  1  1  0  0  0
 19 18  1  0  0  0  0
 19 26  1  6  0  0  0
 20 19  1  0  0  0  0
 20 24  1  1  0  0  0
 21 23  1  0  0  0  0
 21 20  1  0  0  0  0
 21 22  1  6  0  0  0
 23 17  1  0  0  0  0
 27 22  1  0  0  0  0
 28 29  1  0  0  0  0
 28 16  1  6  0  0  0
 29 36  1  6  0  0  0
 30 37  1  1  0  0  0
 30 29  1  0  0  0  0
 31 30  1  0  0  0  0
 31 34  1  1  0  0  0
 32 31  1  0  0  0  0
 32 33  1  0  0  0  0
 33 28  1  0  0  0  0
 33 35  1  6  0  0  0
M  END
>  <CHROM.1>
-175.05553020,94.70963648,151.78201909,178.80969578,-174.14582228,174.52732563
61.75894676,-171.77624181,-66.25632374,-48.16475820,-62.66548304,-69.57587745
-179.51629209,-179.24802214,-68.83988785,84.69300047,-1.50307186,9.50555709
9.24977360,0.06025705,0.90670684,-1.79059128

>  <Name>
lig.pdb

>  <RI>
2.86754e+07

>  <Rbt.Current_Directory>
/home/itssahil/PROJECTS/Mol_Feturizer/New_Systems/rnas/2m4q

>  <Rbt.Executable>
rbdock ($Id: //depot/dev/client3/rdock/2013.1/src/exe/rbdock.cxx#4 $)

>  <Rbt.Library>
libRbt.so (2013.1, Build901 2013/11/27)

>  <Rbt.Parameter_File>
/export/apps/rDock/src/rDock_2013.1_src/data/scripts/dock_solv.prm

>  <Rbt.Receptor>
prm/pocket_docking_5.prm

>  <SCORE>
-51.4554

>  <SCORE.INTER>
-33.0587

>  <SCORE.INTER.CONST>
1

>  <SCORE.INTER.POLAR>
-4.67734

>  <SCORE.INTER.ROT>
10

>  <SCORE.INTER.SOLV>
18.3462

>  <SCORE.INTER.VDW>
-22.8301

>  <SCORE.INTER.norm>
-0.893479

>  <SCORE.INTRA>
-18.3967

>  <SCORE.INTRA.DIHEDRAL>
-36.177

>  <SCORE.INTRA.DIHEDRAL.0>
44.8331

>  <SCORE.INTRA.POLAR>
-0.00241648

>  <SCORE.INTRA.POLAR.0>
-0.108895

>  <SCORE.INTRA.REPUL>
-0.00912235

>  <SCORE.INTRA.REPUL.0>
0.00912235

>  <SCORE.INTRA.SOLV>
-0.346753

>  <SCORE.INTRA.SOLV.lig_0>
-53.9067

>  <SCORE.INTRA.VDW>
-0.0809558

>  <SCORE.INTRA.VDW.0>
-2.93492

>  <SCORE.INTRA.norm>
-0.497207

>  <SCORE.RESTR>
0

>  <SCORE.RESTR.CAVITY>
0

>  <SCORE.RESTR.norm>
0

>  <SCORE.SYSTEM>
0

>  <SCORE.SYSTEM.CONST>
0

>  <SCORE.SYSTEM.DIHEDRAL>
0

>  <SCORE.SYSTEM.SOLV>
0

>  <SCORE.SYSTEM.norm>
0

>  <SCORE.heavy>
37

>  <SCORE.norm>
-1.39069

>  <RMSD>
10.041

$$$$
lig.pdb
 OpenBabel11021811453D
libRbt.so/2013.1/901 2013/11/27
 37 40  0  0  0  0  0  0  0  0999 V2000
    1.4486    4.6861    9.7857 C   0  0  2  0  0  0  0  0  0  0  0  0
    0.9188    4.9782    8.3431 C   0  0  1  0  0  0  0  0  0  0  0  0
    0.1342    6.3186    8.2354 C   0  0  0  0  0  0  0  0  0  0  0  0
   -0.9276    6.4347    9.3570 C   0  0  1  0  0  0  0  0  0  0  0  0
   -0.2548    6.2676   10.7379 C   0  0  1  0  0  0  0  0  0  0  0  0
   -1.2894    6.4262   11.8842 C   0  0  1  0  0  0  0  0  0  0  0  0
   -2.0707    7.7668   11.7457 C   0  0  1  0  0  0  0  0  0  0  0  0
   -2.6689    7.9486   10.3190 C   0  0  2  0  0  0  0  0  0  0  0  0
   -3.3703    9.2214   13.2320 C   0  0  0  0  0  0  0  0  0  0  0  0
    0.4465    4.9927   10.8088 O   0  0  0  0  0  0  0  0  0  0  0  0
   -1.6734    7.6839    9.2834 O   0  0  0  0  0  0  0  0  0  0  0  0
    2.0483    4.9860    7.3883 N   0  0  0  0  0  0  0  0  0  0  0  0
   -3.1096    7.8331   12.7942 N   0  0  0  0  0  0  0  0  0  0  0  0
   -2.1762    5.3161   11.9369 O   0  0  0  0  0  0  0  0  0  0  0  0
   -3.2426    9.2807   10.1738 O   0  0  0  0  0  0  0  0  0  0  0  0
    2.6871    5.4132   10.0505 O   0  0  0  0  0  0  0  0  0  0  0  0
   -2.3726   10.3704    9.7385 C   0  0  2  0  0  0  0  0  0  0  0  0
   -3.0394   11.7519    9.9941 C   0  0  1  0  0  0  0  0  0  0  0  0
   -4.2355   12.0010    9.0311 C   0  0  2  0  0  0  0  0  0  0  0  0
   -3.8142   11.7951    7.5471 C   0  0  1  0  0  0  0  0  0  0  0  0
   -3.1218   10.4187    7.3433 C   0  0  1  0  0  0  0  0  0  0  0  0
   -2.5745   10.2552    5.9011 C   0  0  0  0  0  0  0  0  0  0  0  0
   -2.0531   10.2368    8.3213 O   0  0  0  0  0  0  0  0  0  0  0  0
   -4.9634   11.9625    6.6307 N   0  0  0  0  0  0  0  0  0  0  0  0
   -3.4270   11.8760   11.3612 O   0  0  0  0  0  0  0  0  0  0  0  0
   -4.7966   13.2965    9.2311 O   0  0  0  0  0  0  0  0  0  0  0  0
   -3.1987   11.1778    5.0141 O   0  0  0  0  0  0  0  0  0  0  0  0
    3.5168    4.9567   11.1583 C   0  0  1  0  0  0  0  0  0  0  0  0
    4.8951    4.4269   10.6728 C   0  0  1  0  0  0  0  0  0  0  0  0
    5.7249    3.8564   11.8574 C   0  0  2  0  0  0  0  0  0  0  0  0
    5.8759    4.8815   13.0279 C   0  0  1  0  0  0  0  0  0  0  0  0
    4.5220    5.5300   13.4451 C   0  0  0  0  0  0  0  0  0  0  0  0
    3.7134    6.0694   12.2269 C   0  0  2  0  0  0  0  0  0  0  0  0
    6.5410    4.2562   14.1910 N   0  0  0  0  0  0  0  0  0  0  0  0
    2.4248    6.6193   12.7006 N   0  0  0  0  0  0  0  0  0  0  0  0
    4.7306    3.4474    9.6525 O   0  0  0  0  0  0  0  0  0  0  0  0
    7.0057    3.4239   11.4053 O   0  0  0  0  0  0  0  0  0  0  0  0
  1  2  1  0  0  0  0
  1 16  1  1  0  0  0
  2  3  1  0  0  0  0
  2 12  1  6  0  0  0
  4 11  1  1  0  0  0
  4  3  1  0  0  0  0
  5  4  1  0  0  0  0
  5 10  1  6  0  0  0
  6  7  1  0  0  0  0
  6  5  1  0  0  0  0
  6 14  1  6  0  0  0
  7  8  1  0  0  0  0
  7 13  1  1  0  0  0
  8 15  1  1  0  0  0
  8 11  1  0  0  0  0
  9 13  1  0  0  0  0
 10  1  1  0  0  0  0
 17 15  1  6  0  0  0
 17 18  1  0  0  0  0
 18 25  1  1  0  0  0
 19 18  1  0  0  0  0
 19 26  1  6  0  0  0
 20 19  1  0  0  0  0
 20 24  1  6  0  0  0
 21 23  1  0  0  0  0
 21 20  1  0  0  0  0
 21 22  1  6  0  0  0
 23 17  1  0  0  0  0
 27 22  1  0  0  0  0
 28 29  1  0  0  0  0
 28 16  1  6  0  0  0
 29 36  1  6  0  0  0
 30 37  1  6  0  0  0
 30 29  1  0  0  0  0
 31 30  1  0  0  0  0
 31 34  1  1  0  0  0
 32 31  1  0  0  0  0
 32 33  1  0  0  0  0
 33 28  1  0  0  0  0
 33 35  1  1  0  0  0
M  END
>  <CHROM.1>
-49.88768435,87.55024602,148.52836978,-159.95146573,-165.19216551,-161.80280437
-61.30959328,-167.37420731,-18.96780940,68.86179840,76.41656389,115.36341505
-49.30800718,-64.37754423,58.53279719,51.31977135,-0.07069226,7.53569061
10.15843322,-0.32650675,0.65481353,-1.49285490

>  <Name>
lig.pdb

>  <RI>
0

>  <Rbt.Current_Directory>
/home/itssahil/PROJECTS/Mol_Feturizer/New_Systems/rnas/2m4q

>  <Rbt.Executable>
rbdock ($Id: //depot/dev/client3/rdock/2013.1/src/exe/rbdock.cxx#4 $)

>  <Rbt.Library>
libRbt.so (2013.1, Build901 2013/11/27)

>  <Rbt.Parameter_File>
/export/apps/rDock/src/rDock_2013.1_src/data/scripts/dock_solv.prm

>  <Rbt.Receptor>
prm/pocket_docking_3.prm

>  <SCORE>
-40.6471

>  <SCORE.INTER>
-28.1488

>  <SCORE.INTER.CONST>
1

>  <SCORE.INTER.POLAR>
-3.91619

>  <SCORE.INTER.ROT>
10

>  <SCORE.INTER.SOLV>
15.6644

>  <SCORE.INTER.VDW>
-21.2

>  <SCORE.INTER.norm>
-0.760778

>  <SCORE.INTRA>
-12.4983

>  <SCORE.INTRA.DIHEDRAL>
-21.5074

>  <SCORE.INTRA.DIHEDRAL.0>
44.8331

>  <SCORE.INTRA.POLAR>
-0.714987

>  <SCORE.INTRA.POLAR.0>
-0.108895

>  <SCORE.INTRA.REPUL>
-0.00912235

>  <SCORE.INTRA.REPUL.0>
0.00912235

>  <SCORE.INTRA.SOLV>
0.159212

>  <SCORE.INTRA.SOLV.lig_0>
-53.9067

>  <SCORE.INTRA.VDW>
0.65238

>  <SCORE.INTRA.VDW.0>
-2.93492

>  <SCORE.INTRA.norm>
-0.337792

>  <SCORE.RESTR>
0

>  <SCORE.RESTR.CAVITY>
0

>  <SCORE.RESTR.norm>
0

>  <SCORE.SYSTEM>
0

>  <SCORE.SYSTEM.CONST>
0

>  <SCORE.SYSTEM.DIHEDRAL>
0

>  <SCORE.SYSTEM.SOLV>
0

>  <SCORE.SYSTEM.norm>
0

>  <SCORE.heavy>
37

>  <SCORE.norm>
-1.09857

>  <RMSD>
10.044

$$$$
lig.pdb
 OpenBabel11021811453D
libRbt.so/2013.1/901 2013/11/27
 37 40  0  0  0  0  0  0  0  0999 V2000
    0.9531    4.7142    9.7967 C   0  0  2  0  0  0  0  0  0  0  0  0
    0.2980    4.9347    8.3933 C   0  0  1  0  0  0  0  0  0  0  0  0
   -0.4165    6.3112    8.2572 C   0  0  0  0  0  0  0  0  0  0  0  0
   -1.3518    6.5755    9.4632 C   0  0  1  0  0  0  0  0  0  0  0  0
   -0.5539    6.4658   10.7818 C   0  0  1  0  0  0  0  0  0  0  0  0
   -1.4572    6.7725   12.0064 C   0  0  1  0  0  0  0  0  0  0  0  0
   -2.1716    8.1467   11.8393 C   0  0  1  0  0  0  0  0  0  0  0  0
   -2.8992    8.2629   10.4670 C   0  0  2  0  0  0  0  0  0  0  0  0
   -3.4511    9.7793   13.1475 C   0  0  0  0  0  0  0  0  0  0  0  0
    0.0780    5.1572   10.8843 O   0  0  0  0  0  0  0  0  0  0  0  0
   -2.0296    7.8611    9.3643 O   0  0  0  0  0  0  0  0  0  0  0  0
    1.3243    4.8015    7.3366 N   0  0  0  0  0  0  0  0  0  0  0  0
   -3.0943    8.3546   12.9745 N   0  0  0  0  0  0  0  0  0  0  0  0
   -2.3954    5.7279   12.2306 O   0  0  0  0  0  0  0  0  0  0  0  0
   -3.4086    9.6149   10.2740 O   0  0  0  0  0  0  0  0  0  0  0  0
    2.2510    5.3780    9.8836 O   0  0  0  0  0  0  0  0  0  0  0  0
   -2.5131   10.6234    9.7129 C   0  0  2  0  0  0  0  0  0  0  0  0
   -3.1430   12.0422    9.8069 C   0  0  1  0  0  0  0  0  0  0  0  0
   -4.3370   12.2084    8.8237 C   0  0  2  0  0  0  0  0  0  0  0  0
   -3.9284   11.8201    7.3731 C   0  0  1  0  0  0  0  0  0  0  0  0
   -3.2726   10.4118    7.3299 C   0  0  1  0  0  0  0  0  0  0  0  0
   -2.7369   10.0671    5.9155 C   0  0  0  0  0  0  0  0  0  0  0  0
   -2.2042   10.3173    8.3203 O   0  0  0  0  0  0  0  0  0  0  0  0
   -5.0775   11.9095    6.4456 N   0  0  0  0  0  0  0  0  0  0  0  0
   -3.5204   12.3348   11.1510 O   0  0  0  0  0  0  0  0  0  0  0  0
   -4.8637   13.5326    8.8724 O   0  0  0  0  0  0  0  0  0  0  0  0
   -1.3998   10.5288    5.7532 O   0  0  0  0  0  0  0  0  0  0  0  0
    3.3942    4.5778   10.3039 C   0  0  1  0  0  0  0  0  0  0  0  0
    4.6415    4.8319    9.4119 C   0  0  1  0  0  0  0  0  0  0  0  0
    5.8183    3.8994    9.8155 C   0  0  2  0  0  0  0  0  0  0  0  0
    6.1623    3.9979   11.3373 C   0  0  1  0  0  0  0  0  0  0  0  0
    4.9064    3.8807   12.2521 C   0  0  0  0  0  0  0  0  0  0  0  0
    3.7444    4.8157   11.8003 C   0  0  2  0  0  0  0  0  0  0  0  0
    7.1819    2.9946   11.7112 N   0  0  0  0  0  0  0  0  0  0  0  0
    2.5774    4.6070   12.6845 N   0  0  0  0  0  0  0  0  0  0  0  0
    4.3200    4.6730    8.0339 O   0  0  0  0  0  0  0  0  0  0  0  0
    6.9704    4.1811    9.0249 O   0  0  0  0  0  0  0  0  0  0  0  0
  1  2  1  0  0  0  0
  1 16  1  6  0  0  0
  2  3  1  0  0  0  0
  2 12  1  6  0  0  0
  4 11  1  6  0  0  0
  4  3  1  0  0  0  0
  5  4  1  0  0  0  0
  5 10  1  1  0  0  0
  6  7  1  0  0  0  0
  6  5  1  0  0  0  0
  6 14  1  6  0  0  0
  7  8  1  0  0  0  0
  7 13  1  1  0  0  0
  8 15  1  6  0  0  0
  8 11  1  0  0  0  0
  9 13  1  0  0  0  0
 10  1  1  0  0  0  0
 17 15  1  6  0  0  0
 17 18  1  0  0  0  0
 18 25  1  1  0  0  0
 19 18  1  0  0  0  0
 19 26  1  6  0  0  0
 20 19  1  0  0  0  0
 20 24  1  6  0  0  0
 21 23  1  0  0  0  0
 21 20  1  0  0  0  0
 21 22  1  6  0  0  0
 23 17  1  0  0  0  0
 27 22  1  0  0  0  0
 28 29  1  0  0  0  0
 28 16  1  6  0  0  0
 29 36  1  6  0  0  0
 30 37  1  6  0  0  0
 30 29  1  0  0  0  0
 31 30  1  0  0  0  0
 31 34  1  1  0  0  0
 32 31  1  0  0  0  0
 32 33  1  0  0  0  0
 33 28  1  0  0  0  0
 33 35  1  1  0  0  0
M  END
>  <CHROM.1>
-31.92790548,85.61806880,160.39260848,-69.77741913,-170.30474482,-126.98232675
-60.51293400,-162.41731417,88.21473483,173.63155317,-58.45892419,134.88673442
178.11667881,-174.54712622,-57.03266039,-26.58929019,-0.16303545,7.51375638
9.79067197,0.36178940,-0.62212424,1.93361579

>  <Name>
lig.pdb

>  <RI>
0

>  <Rbt.Current_Directory>
/home/itssahil/PROJECTS/Mol_Feturizer/New_Systems/rnas/2m4q

>  <Rbt.Executable>
rbdock ($Id: //depot/dev/client3/rdock/2013.1/src/exe/rbdock.cxx#4 $)

>  <Rbt.Library>
libRbt.so (2013.1, Build901 2013/11/27)

>  <Rbt.Parameter_File>
/export/apps/rDock/src/rDock_2013.1_src/data/scripts/dock_solv.prm

>  <Rbt.Receptor>
prm/pocket_docking_2.prm

>  <SCORE>
-36.0726

>  <SCORE.INTER>
-20.5159

>  <SCORE.INTER.CONST>
1

>  <SCORE.INTER.POLAR>
-2.15643

>  <SCORE.INTER.ROT>
10

>  <SCORE.INTER.SOLV>
16.4499

>  <SCORE.INTER.VDW>
-22.2391

>  <SCORE.INTER.norm>
-0.554483

>  <SCORE.INTRA>
-16.3963

>  <SCORE.INTRA.DIHEDRAL>
-20.3023

>  <SCORE.INTRA.DIHEDRAL.0>
44.8331

>  <SCORE.INTRA.POLAR>
-1.85988

>  <SCORE.INTRA.POLAR.0>
-0.108895

>  <SCORE.INTRA.REPUL>
-0.00912235

>  <SCORE.INTRA.REPUL.0>
0.00912235

>  <SCORE.INTRA.SOLV>
-0.590739

>  <SCORE.INTRA.SOLV.lig_0>
-53.9067

>  <SCORE.INTRA.VDW>
0.41944

>  <SCORE.INTRA.VDW.0>
-2.93492

>  <SCORE.INTRA.norm>
-0.443142

>  <SCORE.RESTR>
0.839542

>  <SCORE.RESTR.CAVITY>
0.839542

>  <SCORE.RESTR.norm>
0.0226903

>  <SCORE.SYSTEM>
0

>  <SCORE.SYSTEM.CONST>
0

>  <SCORE.SYSTEM.DIHEDRAL>
0

>  <SCORE.SYSTEM.SOLV>
0

>  <SCORE.SYSTEM.norm>
0

>  <SCORE.heavy>
37

>  <SCORE.norm>
-0.974935

>  <RMSD>
10.055

$$$$
lig.pdb
 OpenBabel11021811453D
libRbt.so/2013.1/901 2013/11/27
 37 40  0  0  0  0  0  0  0  0999 V2000
    4.9430    5.1918    8.0579 C   0  0  2  0  0  0  0  0  0  0  0  0
    5.0425    6.3473    7.0082 C   0  0  1  0  0  0  0  0  0  0  0  0
    4.0161    7.4918    7.2536 C   0  0  0  0  0  0  0  0  0  0  0  0
    2.5905    6.9256    7.4683 C   0  0  1  0  0  0  0  0  0  0  0  0
    2.6002    5.8996    8.6236 C   0  0  1  0  0  0  0  0  0  0  0  0
    1.1736    5.3498    8.8920 C   0  0  1  0  0  0  0  0  0  0  0  0
    0.1635    6.5136    9.1195 C   0  0  1  0  0  0  0  0  0  0  0  0
    0.2323    7.5764    7.9829 C   0  0  2  0  0  0  0  0  0  0  0  0
   -2.1149    6.8991    9.9407 C   0  0  0  0  0  0  0  0  0  0  0  0
    3.5525    4.8328    8.3458 O   0  0  0  0  0  0  0  0  0  0  0  0
    1.6098    7.9760    7.7063 O   0  0  0  0  0  0  0  0  0  0  0  0
    6.4135    6.9022    7.0048 N   0  0  0  0  0  0  0  0  0  0  0  0
   -1.1952    5.9534    9.2722 N   0  0  0  0  0  0  0  0  0  0  0  0
    0.7443    4.4928    7.8418 O   0  0  0  0  0  0  0  0  0  0  0  0
   -0.5973    8.7286    8.3127 O   0  0  0  0  0  0  0  0  0  0  0  0
    5.6467    5.5362    9.2903 O   0  0  0  0  0  0  0  0  0  0  0  0
   -0.1833    9.5924    9.4156 C   0  0  2  0  0  0  0  0  0  0  0  0
   -1.3207   10.5774    9.8092 C   0  0  1  0  0  0  0  0  0  0  0  0
   -1.5408   11.6671    8.7211 C   0  0  2  0  0  0  0  0  0  0  0  0
   -0.2070   12.3882    8.3704 C   0  0  1  0  0  0  0  0  0  0  0  0
    0.9102   11.3671    8.0175 C   0  0  1  0  0  0  0  0  0  0  0  0
    2.2798   12.0619    7.7988 C   0  0  0  0  0  0  0  0  0  0  0  0
    1.0129   10.3460    9.0559 O   0  0  0  0  0  0  0  0  0  0  0  0
   -0.3961   13.3777    7.2870 N   0  0  0  0  0  0  0  0  0  0  0  0
   -2.5233    9.8656   10.0952 O   0  0  0  0  0  0  0  0  0  0  0  0
   -2.5402   12.6015    9.1228 O   0  0  0  0  0  0  0  0  0  0  0  0
    2.6040   12.9024    8.9014 O   0  0  0  0  0  0  0  0  0  0  0  0
    6.1946    4.4443   10.0851 C   0  0  1  0  0  0  0  0  0  0  0  0
    5.1981    3.2577   10.2085 C   0  0  1  0  0  0  0  0  0  0  0  0
    5.7622    2.1468   11.1384 C   0  0  2  0  0  0  0  0  0  0  0  0
    7.1846    1.6681   10.7008 C   0  0  1  0  0  0  0  0  0  0  0  0
    8.1680    2.8479   10.4390 C   0  0  0  0  0  0  0  0  0  0  0  0
    7.5559    3.9481    9.5204 C   0  0  2  0  0  0  0  0  0  0  0  0
    7.7473    0.7223   11.6881 N   0  0  0  0  0  0  0  0  0  0  0  0
    8.5286    5.0512    9.3645 N   0  0  0  0  0  0  0  0  0  0  0  0
    3.9288    3.7080   10.6708 O   0  0  0  0  0  0  0  0  0  0  0  0
    4.8617    1.0435   11.1989 O   0  0  0  0  0  0  0  0  0  0  0  0
  1  2  1  0  0  0  0
  1 16  1  1  0  0  0
  2  3  1  0  0  0  0
  2 12  1  1  0  0  0
  4 11  1  1  0  0  0
  4  3  1  0  0  0  0
  5  4  1  0  0  0  0
  5 10  1  6  0  0  0
  6  7  1  0  0  0  0
  6  5  1  0  0  0  0
  6 14  1  6  0  0  0
  7  8  1  0  0  0  0
  7 13  1  6  0  0  0
  8 15  1  1  0  0  0
  8 11  1  0  0  0  0
  9 13  1  0  0  0  0
 10  1  1  0  0  0  0
 17 15  1  6  0  0  0
 17 18  1  0  0  0  0
 18 25  1  6  0  0  0
 19 18  1  0  0  0  0
 19 26  1  1  0  0  0
 20 19  1  0  0  0  0
 20 24  1  6  0  0  0
 21 23  1  0  0  0  0
 21 20  1  0  0  0  0
 21 22  1  1  0  0  0
 23 17  1  0  0  0  0
 27 22  1  0  0  0  0
 28 29  1  0  0  0  0
 28 16  1  6  0  0  0
 29 36  1  1  0  0  0
 30 37  1  6  0  0  0
 30 29  1  0  0  0  0
 31 30  1  0  0  0  0
 31 34  1  1  0  0  0
 32 31  1  0  0  0  0
 32 33  1  0  0  0  0
 33 28  1  0  0  0  0
 33 35  1  1  0  0  0
M  END
>  <CHROM.1>
-51.12502900,68.52519695,160.21808975,-161.84673503,-168.20605332,-151.77762036
175.91614854,59.13046750,52.10129432,-66.59494897,-179.78850250,-43.48302137
161.48757761,-34.18596182,164.60949982,179.64642193,2.61533583,7.00256489
9.03122274,-0.84999981,0.12304513,-0.28245121

>  <Name>
lig.pdb

>  <RI>
0

>  <Rbt.Current_Directory>
/home/itssahil/PROJECTS/Mol_Feturizer/New_Systems/rnas/2m4q

>  <Rbt.Executable>
rbdock ($Id: //depot/dev/client3/rdock/2013.1/src/exe/rbdock.cxx#4 $)

>  <Rbt.Library>
libRbt.so (2013.1, Build901 2013/11/27)

>  <Rbt.Parameter_File>
/export/apps/rDock/src/rDock_2013.1_src/data/scripts/dock_solv.prm

>  <Rbt.Receptor>
prm/pocket_docking_6.prm

>  <SCORE>
-38.747

>  <SCORE.INTER>
-24.2919

>  <SCORE.INTER.CONST>
1

>  <SCORE.INTER.POLAR>
-4.98861

>  <SCORE.INTER.ROT>
10

>  <SCORE.INTER.SOLV>
12.0326

>  <SCORE.INTER.VDW>
-13.8434

>  <SCORE.INTER.norm>
-0.656537

>  <SCORE.INTRA>
-14.4591

>  <SCORE.INTRA.DIHEDRAL>
-31.4934

>  <SCORE.INTRA.DIHEDRAL.0>
44.8331

>  <SCORE.INTRA.POLAR>
-0.176874

>  <SCORE.INTRA.POLAR.0>
-0.108895

>  <SCORE.INTRA.REPUL>
-0.00912235

>  <SCORE.INTRA.REPUL.0>
0.00912235

>  <SCORE.INTRA.SOLV>
0.123024

>  <SCORE.INTRA.SOLV.lig_0>
-53.9067

>  <SCORE.INTRA.VDW>
1.87306

>  <SCORE.INTRA.VDW.0>
-2.93492

>  <SCORE.INTRA.norm>
-0.390787

>  <SCORE.RESTR>
0.00395415

>  <SCORE.RESTR.CAVITY>
0.00395415

>  <SCORE.RESTR.norm>
0.000106869

>  <SCORE.SYSTEM>
0

>  <SCORE.SYSTEM.CONST>
0

>  <SCORE.SYSTEM.DIHEDRAL>
0

>  <SCORE.SYSTEM.SOLV>
0

>  <SCORE.SYSTEM.norm>
0

>  <SCORE.heavy>
37

>  <SCORE.norm>
-1.04722

>  <RMSD>
10.058

$$$$
lig.pdb
 OpenBabel11021811453D
libRbt.so/2013.1/901 2013/11/27
 37 40  0  0  0  0  0  0  0  0999 V2000
    1.1248    4.7740    9.8853 C   0  0  2  0  0  0  0  0  0  0  0  0
    0.5735    5.0214    8.4424 C   0  0  1  0  0  0  0  0  0  0  0  0
   -0.1569    6.3876    8.2885 C   0  0  0  0  0  0  0  0  0  0  0  0
   -1.1861    6.6008    9.4263 C   0  0  1  0  0  0  0  0  0  0  0  0
   -0.4882    6.4692   10.7985 C   0  0  1  0  0  0  0  0  0  0  0  0
   -1.4878    6.7248   11.9583 C   0  0  1  0  0  0  0  0  0  0  0  0
   -2.2157    8.0896   11.7737 C   0  0  1  0  0  0  0  0  0  0  0  0
   -2.8395    8.2306   10.3534 C   0  0  2  0  0  0  0  0  0  0  0  0
   -3.5783    9.6671   13.0654 C   0  0  0  0  0  0  0  0  0  0  0  0
    0.1608    5.1702   10.9143 O   0  0  0  0  0  0  0  0  0  0  0  0
   -1.8808    7.8759    9.3099 O   0  0  0  0  0  0  0  0  0  0  0  0
    1.6794    4.9367    7.4639 N   0  0  0  0  0  0  0  0  0  0  0  0
   -3.2258    8.2486   12.8402 N   0  0  0  0  0  0  0  0  0  0  0  0
   -2.4186    5.6572   12.0827 O   0  0  0  0  0  0  0  0  0  0  0  0
   -3.3605    9.5778   10.1579 O   0  0  0  0  0  0  0  0  0  0  0  0
    2.3984    5.4590   10.0884 O   0  0  0  0  0  0  0  0  0  0  0  0
   -2.4684   10.5975    9.6119 C   0  0  2  0  0  0  0  0  0  0  0  0
   -3.1081   12.0112    9.7159 C   0  0  1  0  0  0  0  0  0  0  0  0
   -4.2974   12.1792    8.7274 C   0  0  2  0  0  0  0  0  0  0  0  0
   -3.8779   11.8077    7.2755 C   0  0  1  0  0  0  0  0  0  0  0  0
   -3.2126   10.4041    7.2225 C   0  0  1  0  0  0  0  0  0  0  0  0
   -2.6665   10.0767    5.8080 C   0  0  0  0  0  0  0  0  0  0  0  0
   -2.1494   10.3070    8.2182 O   0  0  0  0  0  0  0  0  0  0  0  0
   -5.0221   11.8986    6.3422 N   0  0  0  0  0  0  0  0  0  0  0  0
   -3.4953   12.2882   11.0605 O   0  0  0  0  0  0  0  0  0  0  0  0
   -4.8331   13.4994    8.7858 O   0  0  0  0  0  0  0  0  0  0  0  0
   -1.9720    8.8337    5.8077 O   0  0  0  0  0  0  0  0  0  0  0  0
    3.5472    4.6514   10.4784 C   0  0  1  0  0  0  0  0  0  0  0  0
    4.7271    4.7966    9.4769 C   0  0  1  0  0  0  0  0  0  0  0  0
    5.9041    3.8548    9.8575 C   0  0  2  0  0  0  0  0  0  0  0  0
    6.3700    4.0504   11.3368 C   0  0  1  0  0  0  0  0  0  0  0  0
    5.1875    4.0437   12.3514 C   0  0  0  0  0  0  0  0  0  0  0  0
    4.0214    4.9841   11.9216 C   0  0  2  0  0  0  0  0  0  0  0  0
    7.3860    3.0414   11.7052 N   0  0  0  0  0  0  0  0  0  0  0  0
    2.9223    4.8808   12.9058 N   0  0  0  0  0  0  0  0  0  0  0  0
    4.2930    4.5502    8.1433 O   0  0  0  0  0  0  0  0  0  0  0  0
    6.9978    4.0381    8.9620 O   0  0  0  0  0  0  0  0  0  0  0  0
  1  2  1  0  0  0  0
  1 16  1  1  0  0  0
  2  3  1  0  0  0  0
  2 12  1  6  0  0  0
  4 11  1  6  0  0  0
  4  3  1  0  0  0  0
  5  4  1  0  0  0  0
  5 10  1  1  0  0  0
  6  7  1  0  0  0  0
  6  5  1  0  0  0  0
  6 14  1  6  0  0  0
  7  8  1  0  0  0  0
  7 13  1  1  0  0  0
  8 15  1  6  0  0  0
  8 11  1  0  0  0  0
  9 13  1  0  0  0  0
 10  1  1  0  0  0  0
 17 15  1  6  0  0  0
 17 18  1  0  0  0  0
 18 25  1  1  0  0  0
 19 18  1  0  0  0  0
 19 26  1  6  0  0  0
 20 19  1  0  0  0  0
 20 24  1  6  0  0  0
 21 23  1  0  0  0  0
 21 20  1  0  0  0  0
 21 22  1  6  0  0  0
 23 17  1  0  0  0  0
 27 22  1  0  0  0  0
 28 29  1  0  0  0  0
 28 16  1  6  0  0  0
 29 36  1  6  0  0  0
 30 37  1  6  0  0  0
 30 29  1  0  0  0  0
 31 30  1  0  0  0  0
 31 34  1  1  0  0  0
 32 31  1  0  0  0  0
 32 33  1  0  0  0  0
 33 28  1  0  0  0  0
 33 35  1  1  0  0  0
M  END
>  <CHROM.1>
-179.36311561,89.50706882,157.78282437,59.82375012,-169.69558881,-122.55552542
61.49546660,58.82909223,175.51304150,168.63569908,-53.46731710,122.59410870
50.28896100,-177.09621553,65.26368539,-175.50582595,-0.07940400,7.46036067
9.78079747,0.31820663,-0.62251456,1.85186828

>  <Name>
lig.pdb

>  <RI>
0

>  <Rbt.Current_Directory>
/home/itssahil/PROJECTS/Mol_Feturizer/New_Systems/rnas/2m4q

>  <Rbt.Executable>
rbdock ($Id: //depot/dev/client3/rdock/2013.1/src/exe/rbdock.cxx#4 $)

>  <Rbt.Library>
libRbt.so (2013.1, Build901 2013/11/27)

>  <Rbt.Parameter_File>
/export/apps/rDock/src/rDock_2013.1_src/data/scripts/dock_solv.prm

>  <Rbt.Receptor>
prm/pocket_docking_2.prm

>  <SCORE>
-30.7664

>  <SCORE.INTER>
-15.7588

>  <SCORE.INTER.CONST>
1

>  <SCORE.INTER.POLAR>
-1.21104

>  <SCORE.INTER.ROT>
10

>  <SCORE.INTER.SOLV>
17.0705

>  <SCORE.INTER.VDW>
-22.4259

>  <SCORE.INTER.norm>
-0.425912

>  <SCORE.INTRA>
-15.6094

>  <SCORE.INTRA.DIHEDRAL>
-24.2313

>  <SCORE.INTRA.DIHEDRAL.0>
44.8331

>  <SCORE.INTRA.POLAR>
-0.782744

>  <SCORE.INTRA.POLAR.0>
-0.108895

>  <SCORE.INTRA.REPUL>
-0.00912235

>  <SCORE.INTRA.REPUL.0>
0.00912235

>  <SCORE.INTRA.SOLV>
-0.73425

>  <SCORE.INTRA.SOLV.lig_0>
-53.9067

>  <SCORE.INTRA.VDW>
-0.419673

>  <SCORE.INTRA.VDW.0>
-2.93492

>  <SCORE.INTRA.norm>
-0.421875

>  <SCORE.RESTR>
0.601692

>  <SCORE.RESTR.CAVITY>
0.601692

>  <SCORE.RESTR.norm>
0.016262

>  <SCORE.SYSTEM>
0

>  <SCORE.SYSTEM.CONST>
0

>  <SCORE.SYSTEM.DIHEDRAL>
0

>  <SCORE.SYSTEM.SOLV>
0

>  <SCORE.SYSTEM.norm>
0

>  <SCORE.heavy>
37

>  <SCORE.norm>
-0.831525

>  <RMSD>
10.067

$$$$
lig.pdb
 OpenBabel11021811453D
libRbt.so/2013.1/901 2013/11/27
 37 40  0  0  0  0  0  0  0  0999 V2000
    1.1147    4.7042    9.8366 C   0  0  2  0  0  0  0  0  0  0  0  0
    0.5988    5.0059    8.3909 C   0  0  1  0  0  0  0  0  0  0  0  0
   -0.1126    6.3851    8.2667 C   0  0  0  0  0  0  0  0  0  0  0  0
   -1.1645    6.5729    9.3879 C   0  0  1  0  0  0  0  0  0  0  0  0
   -0.4992    6.3875   10.7700 C   0  0  1  0  0  0  0  0  0  0  0  0
   -1.5217    6.6165   11.9154 C   0  0  1  0  0  0  0  0  0  0  0  0
   -2.2298    7.9954   11.7603 C   0  0  1  0  0  0  0  0  0  0  0  0
   -2.8199    8.1908   10.3321 C   0  0  2  0  0  0  0  0  0  0  0  0
   -3.6144    9.5448   13.0626 C   0  0  0  0  0  0  0  0  0  0  0  0
    0.1324    5.0777   10.8568 O   0  0  0  0  0  0  0  0  0  0  0  0
   -1.8420    7.8594    9.2989 O   0  0  0  0  0  0  0  0  0  0  0  0
    1.7253    4.9403    7.4348 N   0  0  0  0  0  0  0  0  0  0  0  0
   -3.2617    8.1312   12.8091 N   0  0  0  0  0  0  0  0  0  0  0  0
   -2.4670    5.5567   11.9835 O   0  0  0  0  0  0  0  0  0  0  0  0
   -3.3211    9.5499   10.1702 O   0  0  0  0  0  0  0  0  0  0  0  0
    2.3910    5.3668   10.0906 O   0  0  0  0  0  0  0  0  0  0  0  0
   -2.4214   10.5644    9.6269 C   0  0  2  0  0  0  0  0  0  0  0  0
   -3.0295   11.9876    9.7789 C   0  0  1  0  0  0  0  0  0  0  0  0
   -4.2379   12.2026    8.8232 C   0  0  2  0  0  0  0  0  0  0  0  0
   -3.8601   11.8573    7.3535 C   0  0  1  0  0  0  0  0  0  0  0  0
   -3.2250   10.4424    7.2521 C   0  0  1  0  0  0  0  0  0  0  0  0
   -2.7188   10.1378    5.8178 C   0  0  0  0  0  0  0  0  0  0  0  0
   -2.1410   10.3006    8.2197 O   0  0  0  0  0  0  0  0  0  0  0  0
   -5.0237   11.9930    6.4501 N   0  0  0  0  0  0  0  0  0  0  0  0
   -3.3794   12.2404   11.1384 O   0  0  0  0  0  0  0  0  0  0  0  0
   -4.7450   13.5314    8.9250 O   0  0  0  0  0  0  0  0  0  0  0  0
   -3.7898   10.1874    4.8808 O   0  0  0  0  0  0  0  0  0  0  0  0
    3.2427    4.8175   11.1379 C   0  0  1  0  0  0  0  0  0  0  0  0
    4.6689    4.4882   10.6149 C   0  0  1  0  0  0  0  0  0  0  0  0
    5.5296    3.8149   11.7207 C   0  0  2  0  0  0  0  0  0  0  0  0
    5.5735    4.6564   13.0375 C   0  0  1  0  0  0  0  0  0  0  0  0
    4.1619    5.1151   13.5117 C   0  0  0  0  0  0  0  0  0  0  0  0
    3.3255    5.7648   12.3684 C   0  0  2  0  0  0  0  0  0  0  0  0
    6.2753    3.9184   14.1093 N   0  0  0  0  0  0  0  0  0  0  0  0
    1.9870    6.1233   12.8854 N   0  0  0  0  0  0  0  0  0  0  0  0
    4.6056    3.6672    9.4532 O   0  0  0  0  0  0  0  0  0  0  0  0
    6.8496    3.5680   11.2429 O   0  0  0  0  0  0  0  0  0  0  0  0
  1  2  1  0  0  0  0
  1 16  1  1  0  0  0
  2  3  1  0  0  0  0
  2 12  1  6  0  0  0
  4 11  1  1  0  0  0
  4  3  1  0  0  0  0
  5  4  1  0  0  0  0
  5 10  1  6  0  0  0
  6  7  1  0  0  0  0
  6  5  1  0  0  0  0
  6 14  1  6  0  0  0
  7  8  1  0  0  0  0
  7 13  1  1  0  0  0
  8 15  1  6  0  0  0
  8 11  1  0  0  0  0
  9 13  1  0  0  0  0
 10  1  1  0  0  0  0
 17 15  1  6  0  0  0
 17 18  1  0  0  0  0
 18 25  1  1  0  0  0
 19 18  1  0  0  0  0
 19 26  1  6  0  0  0
 20 19  1  0  0  0  0
 20 24  1  6  0  0  0
 21 23  1  0  0  0  0
 21 20  1  0  0  0  0
 21 22  1  6  0  0  0
 23 17  1  0  0  0  0
 27 22  1  0  0  0  0
 28 29  1  0  0  0  0
 28 16  1  6  0  0  0
 29 36  1  6  0  0  0
 30 37  1  6  0  0  0
 30 29  1  0  0  0  0
 31 30  1  0  0  0  0
 31 34  1  1  0  0  0
 32 31  1  0  0  0  0
 32 33  1  0  0  0  0
 33 28  1  0  0  0  0
 33 35  1  1  0  0  0
M  END
>  <CHROM.1>
57.00187651,91.97033005,158.43814106,60.86803641,-169.20370665,-157.28861906
-175.26405206,-161.19342090,-60.36699152,-174.42778781,-165.83542622,125.21017496
-56.36137825,64.35656958,79.84013502,19.76297365,-0.26831323,7.56037633,10.10643543
-0.30243890,0.68546343,-1.54835390

>  <Name>
lig.pdb

>  <RI>
0

>  <Rbt.Current_Directory>
/home/itssahil/PROJECTS/Mol_Feturizer/New_Systems/rnas/2m4q

>  <Rbt.Executable>
rbdock ($Id: //depot/dev/client3/rdock/2013.1/src/exe/rbdock.cxx#4 $)

>  <Rbt.Library>
libRbt.so (2013.1, Build901 2013/11/27)

>  <Rbt.Parameter_File>
/export/apps/rDock/src/rDock_2013.1_src/data/scripts/dock_solv.prm

>  <Rbt.Receptor>
prm/pocket_docking_2.prm

>  <SCORE>
-42.8463

>  <SCORE.INTER>
-26.7342

>  <SCORE.INTER.CONST>
1

>  <SCORE.INTER.POLAR>
-3.61487

>  <SCORE.INTER.ROT>
10

>  <SCORE.INTER.SOLV>
17.492

>  <SCORE.INTER.VDW>
-21.8706

>  <SCORE.INTER.norm>
-0.722547

>  <SCORE.INTRA>
-17.1217

>  <SCORE.INTRA.DIHEDRAL>
-24.7191

>  <SCORE.INTRA.DIHEDRAL.0>
44.8331

>  <SCORE.INTRA.POLAR>
-1.16558

>  <SCORE.INTRA.POLAR.0>
-0.108895

>  <SCORE.INTRA.REPUL>
-0.00912235

>  <SCORE.INTRA.REPUL.0>
0.00912235

>  <SCORE.INTRA.SOLV>
0.234962

>  <SCORE.INTRA.SOLV.lig_0>
-53.9067

>  <SCORE.INTRA.VDW>
-0.870996

>  <SCORE.INTRA.VDW.0>
-2.93492

>  <SCORE.INTRA.norm>
-0.462748

>  <SCORE.RESTR>
1.00967

>  <SCORE.RESTR.CAVITY>
1.00967

>  <SCORE.RESTR.norm>
0.0272884

>  <SCORE.SYSTEM>
0

>  <SCORE.SYSTEM.CONST>
0

>  <SCORE.SYSTEM.DIHEDRAL>
0

>  <SCORE.SYSTEM.SOLV>
0

>  <SCORE.SYSTEM.norm>
0

>  <SCORE.heavy>
37

>  <SCORE.norm>
-1.15801

>  <RMSD>
10.068

$$$$
lig.pdb
 OpenBabel11021811453D
libRbt.so/2013.1/901 2013/11/27
 37 40  0  0  0  0  0  0  0  0999 V2000
    1.3090    4.7113    9.7844 C   0  0  2  0  0  0  0  0  0  0  0  0
    0.9213    5.0141    8.2995 C   0  0  1  0  0  0  0  0  0  0  0  0
    0.1837    6.3734    8.1209 C   0  0  0  0  0  0  0  0  0  0  0  0
   -0.9734    6.5179    9.1403 C   0  0  1  0  0  0  0  0  0  0  0  0
   -0.4347    6.3364   10.5770 C   0  0  1  0  0  0  0  0  0  0  0  0
   -1.5659    6.5228   11.6236 C   0  0  1  0  0  0  0  0  0  0  0  0
   -2.2975    7.8821   11.4146 C   0  0  1  0  0  0  0  0  0  0  0  0
   -2.7574    8.0764    9.9392 C   0  0  2  0  0  0  0  0  0  0  0  0
   -3.0651    8.7270   13.5850 C   0  0  0  0  0  0  0  0  0  0  0  0
    0.2251    5.0446   10.7113 O   0  0  0  0  0  0  0  0  0  0  0  0
   -1.6779    7.7851    8.9992 O   0  0  0  0  0  0  0  0  0  0  0  0
    2.1336    4.9920    7.4524 N   0  0  0  0  0  0  0  0  0  0  0  0
   -3.4263    7.9761   12.3633 N   0  0  0  0  0  0  0  0  0  0  0  0
   -2.4813    5.4352   11.5939 O   0  0  0  0  0  0  0  0  0  0  0  0
   -3.2819    9.4220    9.7426 O   0  0  0  0  0  0  0  0  0  0  0  0
    2.5357    5.4078   10.1623 O   0  0  0  0  0  0  0  0  0  0  0  0
   -2.3809   10.4538    9.2351 C   0  0  2  0  0  0  0  0  0  0  0  0
   -2.7886   11.8586    9.7631 C   0  0  1  0  0  0  0  0  0  0  0  0
   -4.1121   12.3559    9.1142 C   0  0  2  0  0  0  0  0  0  0  0  0
   -4.0359   12.2894    7.5612 C   0  0  1  0  0  0  0  0  0  0  0  0
   -3.5920   10.8804    7.0783 C   0  0  1  0  0  0  0  0  0  0  0  0
   -3.3795   10.8365    5.5424 C   0  0  0  0  0  0  0  0  0  0  0  0
   -2.3800   10.4616    7.7762 O   0  0  0  0  0  0  0  0  0  0  0  0
   -5.3154   12.6951    6.9393 N   0  0  0  0  0  0  0  0  0  0  0  0
   -2.8671   11.8551   11.1874 O   0  0  0  0  0  0  0  0  0  0  0  0
   -4.4403   13.6710    9.5569 O   0  0  0  0  0  0  0  0  0  0  0  0
   -2.9974    9.5314    5.1203 O   0  0  0  0  0  0  0  0  0  0  0  0
    3.2592    4.9201   11.3296 C   0  0  1  0  0  0  0  0  0  0  0  0
    4.6966    4.4512   10.9690 C   0  0  1  0  0  0  0  0  0  0  0  0
    5.4158    3.8461   12.2074 C   0  0  2  0  0  0  0  0  0  0  0  0
    5.4115    4.8166   13.4329 C   0  0  1  0  0  0  0  0  0  0  0  0
    4.0017    5.4080   13.7336 C   0  0  0  0  0  0  0  0  0  0  0  0
    3.3081    5.9843   12.4626 C   0  0  2  0  0  0  0  0  0  0  0  0
    5.9709    4.1534   14.6301 N   0  0  0  0  0  0  0  0  0  0  0  0
    1.9604    6.4762   12.8220 N   0  0  0  0  0  0  0  0  0  0  0  0
    4.6704    3.5185    9.8934 O   0  0  0  0  0  0  0  0  0  0  0  0
    6.7497    3.4702   11.8740 O   0  0  0  0  0  0  0  0  0  0  0  0
  1  2  1  0  0  0  0
  1 16  1  1  0  0  0
  2  3  1  0  0  0  0
  2 12  1  6  0  0  0
  4 11  1  1  0  0  0
  4  3  1  0  0  0  0
  5  4  1  0  0  0  0
  5 10  1  6  0  0  0
  6  7  1  0  0  0  0
  6  5  1  0  0  0  0
  6 14  1  6  0  0  0
  7  8  1  0  0  0  0
  7 13  1  1  0  0  0
  8 15  1  1  0  0  0
  8 11  1  0  0  0  0
  9 13  1  0  0  0  0
 10  1  1  0  0  0  0
 17 15  1  6  0  0  0
 17 18  1  0  0  0  0
 18 25  1  1  0  0  0
 19 18  1  0  0  0  0
 19 26  1  6  0  0  0
 20 19  1  0  0  0  0
 20 24  1  6  0  0  0
 21 23  1  0  0  0  0
 21 20  1  0  0  0  0
 21 22  1  6  0  0  0
 23 17  1  0  0  0  0
 27 22  1  0  0  0  0
 28 29  1  0  0  0  0
 28 16  1  6  0  0  0
 29 36  1  6  0  0  0
 30 37  1  6  0  0  0
 30 29  1  0  0  0  0
 31 30  1  0  0  0  0
 31 34  1  1  0  0  0
 32 31  1  0  0  0  0
 32 33  1  0  0  0  0
 33 28  1  0  0  0  0
 33 35  1  1  0  0  0
M  END
>  <CHROM.1>
-62.48039638,94.77516698,96.17747176,-172.17108562,-150.13614427,-160.90475475
-61.77057476,-58.93409062,-178.93621823,63.26980286,167.61225142,119.07210466
-53.39222472,-54.23631070,173.32081748,-179.46833729,-0.21663434,7.58478881
10.14602432,-0.27588074,0.71510087,-1.63592660

>  <Name>
lig.pdb

>  <RI>
3.87352e+07

>  <Rbt.Current_Directory>
/home/itssahil/PROJECTS/Mol_Feturizer/New_Systems/rnas/2m4q

>  <Rbt.Executable>
rbdock ($Id: //depot/dev/client3/rdock/2013.1/src/exe/rbdock.cxx#4 $)

>  <Rbt.Library>
libRbt.so (2013.1, Build901 2013/11/27)

>  <Rbt.Parameter_File>
/export/apps/rDock/src/rDock_2013.1_src/data/scripts/dock_solv.prm

>  <Rbt.Receptor>
prm/pocket_docking_4.prm

>  <SCORE>
-41.4033

>  <SCORE.INTER>
-27.2772

>  <SCORE.INTER.CONST>
1

>  <SCORE.INTER.POLAR>
-3.62026

>  <SCORE.INTER.ROT>
10

>  <SCORE.INTER.SOLV>
17.8981

>  <SCORE.INTER.VDW>
-22.35

>  <SCORE.INTER.norm>
-0.737223

>  <SCORE.INTRA>
-14.126

>  <SCORE.INTRA.DIHEDRAL>
-24.326

>  <SCORE.INTRA.DIHEDRAL.0>
44.8331

>  <SCORE.INTRA.POLAR>
-0.0694096

>  <SCORE.INTRA.POLAR.0>
-0.108895

>  <SCORE.INTRA.REPUL>
-0.00912235

>  <SCORE.INTRA.REPUL.0>
0.00912235

>  <SCORE.INTRA.SOLV>
-1.54509

>  <SCORE.INTRA.SOLV.lig_0>
-53.9067

>  <SCORE.INTRA.VDW>
-0.908881

>  <SCORE.INTRA.VDW.0>
-2.93492

>  <SCORE.INTRA.norm>
-0.381784

>  <SCORE.RESTR>
0

>  <SCORE.RESTR.CAVITY>
0

>  <SCORE.RESTR.norm>
0

>  <SCORE.SYSTEM>
0

>  <SCORE.SYSTEM.CONST>
0

>  <SCORE.SYSTEM.DIHEDRAL>
0

>  <SCORE.SYSTEM.SOLV>
0

>  <SCORE.SYSTEM.norm>
0

>  <SCORE.heavy>
37

>  <SCORE.norm>
-1.11901

>  <RMSD>
10.077

$$$$
lig.pdb
 OpenBabel11021811453D
libRbt.so/2013.1/901 2013/11/27
 37 40  0  0  0  0  0  0  0  0999 V2000
    2.0900    4.5392    9.6427 C   0  0  2  0  0  0  0  0  0  0  0  0
    1.7664    4.5614    8.1123 C   0  0  1  0  0  0  0  0  0  0  0  0
    0.8830    5.7710    7.6876 C   0  0  0  0  0  0  0  0  0  0  0  0
   -0.3472    5.9165    8.6173 C   0  0  1  0  0  0  0  0  0  0  0  0
    0.1145    6.0254   10.0878 C   0  0  1  0  0  0  0  0  0  0  0  0
   -1.0969    6.2194   11.0389 C   0  0  1  0  0  0  0  0  0  0  0  0
   -1.9723    7.4252   10.5845 C   0  0  1  0  0  0  0  0  0  0  0  0
   -2.3549    7.3331    9.0774 C   0  0  2  0  0  0  0  0  0  0  0  0
   -2.8621    8.1672   12.7459 C   0  0  0  0  0  0  0  0  0  0  0  0
    0.9154    4.8652   10.4547 O   0  0  0  0  0  0  0  0  0  0  0  0
   -1.1891    7.0457    8.2457 O   0  0  0  0  0  0  0  0  0  0  0  0
    3.0252    4.5691    7.3358 N   0  0  0  0  0  0  0  0  0  0  0  0
   -3.1638    7.5141   11.4538 N   0  0  0  0  0  0  0  0  0  0  0  0
   -1.8701    5.0304   11.1396 O   0  0  0  0  0  0  0  0  0  0  0  0
   -3.0244    8.5542    8.6469 O   0  0  0  0  0  0  0  0  0  0  0  0
    3.1960    5.4378    9.9615 O   0  0  0  0  0  0  0  0  0  0  0  0
   -2.2711    9.8057    8.6660 C   0  0  2  0  0  0  0  0  0  0  0  0
   -3.0926   10.9403    9.3415 C   0  0  1  0  0  0  0  0  0  0  0  0
   -4.2871   11.3932    8.4539 C   0  0  2  0  0  0  0  0  0  0  0  0
   -3.8126   11.7594    7.0177 C   0  0  1  0  0  0  0  0  0  0  0  0
   -2.9674   10.6139    6.3939 C   0  0  1  0  0  0  0  0  0  0  0  0
   -2.3733   11.0171    5.0188 C   0  0  0  0  0  0  0  0  0  0  0  0
   -1.9073   10.2061    7.3112 O   0  0  0  0  0  0  0  0  0  0  0  0
   -4.9525   12.1244    6.1483 N   0  0  0  0  0  0  0  0  0  0  0  0
   -3.5220   10.5419   10.6421 O   0  0  0  0  0  0  0  0  0  0  0  0
   -4.9928   12.4772    9.0540 O   0  0  0  0  0  0  0  0  0  0  0  0
   -1.5052   12.1379    5.1504 O   0  0  0  0  0  0  0  0  0  0  0  0
    4.2291    4.9465   10.8644 C   0  0  1  0  0  0  0  0  0  0  0  0
    3.6298    4.3919   12.1871 C   0  0  1  0  0  0  0  0  0  0  0  0
    4.7518    3.9630   13.1742 C   0  0  2  0  0  0  0  0  0  0  0  0
    5.7626    2.9603   12.5288 C   0  0  1  0  0  0  0  0  0  0  0  0
    6.2774    3.4301   11.1352 C   0  0  0  0  0  0  0  0  0  0  0  0
    5.1231    3.8704   10.1853 C   0  0  2  0  0  0  0  0  0  0  0  0
    6.8920    2.6908   13.4442 N   0  0  0  0  0  0  0  0  0  0  0  0
    5.6965    4.3489    8.9087 N   0  0  0  0  0  0  0  0  0  0  0  0
    2.7633    5.3472   12.7905 O   0  0  0  0  0  0  0  0  0  0  0  0
    4.1869    3.4079   14.3592 O   0  0  0  0  0  0  0  0  0  0  0  0
  1  2  1  0  0  0  0
  1 16  1  6  0  0  0
  2  3  1  0  0  0  0
  2 12  1  6  0  0  0
  4 11  1  6  0  0  0
  4  3  1  0  0  0  0
  5  4  1  0  0  0  0
  5 10  1  1  0  0  0
  6  7  1  0  0  0  0
  6  5  1  0  0  0  0
  6 14  1  6  0  0  0
  7  8  1  0  0  0  0
  7 13  1  1  0  0  0
  8 15  1  6  0  0  0
  8 11  1  0  0  0  0
  9 13  1  0  0  0  0
 10  1  1  0  0  0  0
 17 15  1  6  0  0  0
 17 18  1  0  0  0  0
 18 25  1  1  0  0  0
 19 18  1  0  0  0  0
 19 26  1  1  0  0  0
 20 19  1  0  0  0  0
 20 24  1  6  0  0  0
 21 23  1  0  0  0  0
 21 20  1  0  0  0  0
 21 22  1  6  0  0  0
 23 17  1  0  0  0  0
 27 22  1  0  0  0  0
 28 29  1  0  0  0  0
 28 16  1  6  0  0  0
 29 36  1  1  0  0  0
 30 37  1  1  0  0  0
 30 29  1  0  0  0  0
 31 30  1  0  0  0  0
 31 34  1  1  0  0  0
 32 31  1  0  0  0  0
 32 33  1  0  0  0  0
 33 28  1  0  0  0  0
 33 35  1  6  0  0  0
M  END
>  <CHROM.1>
-17.68281370,64.35422771,80.05898242,41.19350718,-132.52315537,-135.56883657
-71.32219033,-177.09433875,61.15500181,-52.45139043,63.31957966,-52.51583176
-59.43935184,-174.84279463,-64.25266100,-179.55607462,0.18951525,7.09697957
9.67522341,-0.57677077,0.55337457,-1.17772364

>  <Name>
lig.pdb

>  <RI>
3.87352e+07

>  <Rbt.Current_Directory>
/home/itssahil/PROJECTS/Mol_Feturizer/New_Systems/rnas/2m4q

>  <Rbt.Executable>
rbdock ($Id: //depot/dev/client3/rdock/2013.1/src/exe/rbdock.cxx#4 $)

>  <Rbt.Library>
libRbt.so (2013.1, Build901 2013/11/27)

>  <Rbt.Parameter_File>
/export/apps/rDock/src/rDock_2013.1_src/data/scripts/dock_solv.prm

>  <Rbt.Receptor>
prm/pocket_docking_4.prm

>  <SCORE>
-46.312

>  <SCORE.INTER>
-30.1765

>  <SCORE.INTER.CONST>
1

>  <SCORE.INTER.POLAR>
-3.95287

>  <SCORE.INTER.ROT>
10

>  <SCORE.INTER.SOLV>
16.7855

>  <SCORE.INTER.VDW>
-22.8033

>  <SCORE.INTER.norm>
-0.815582

>  <SCORE.INTRA>
-16.1354

>  <SCORE.INTRA.DIHEDRAL>
-26.2535

>  <SCORE.INTRA.DIHEDRAL.0>
44.8331

>  <SCORE.INTRA.POLAR>
-1.10311

>  <SCORE.INTRA.POLAR.0>
-0.108895

>  <SCORE.INTRA.REPUL>
0.0111716

>  <SCORE.INTRA.REPUL.0>
0.00912235

>  <SCORE.INTRA.SOLV>
0.478157

>  <SCORE.INTRA.SOLV.lig_0>
-53.9067

>  <SCORE.INTRA.VDW>
0.44695

>  <SCORE.INTRA.VDW.0>
-2.93492

>  <SCORE.INTRA.norm>
-0.436093

>  <SCORE.RESTR>
0

>  <SCORE.RESTR.CAVITY>
0

>  <SCORE.RESTR.norm>
0

>  <SCORE.SYSTEM>
0

>  <SCORE.SYSTEM.CONST>
0

>  <SCORE.SYSTEM.DIHEDRAL>
0

>  <SCORE.SYSTEM.SOLV>
0

>  <SCORE.SYSTEM.norm>
0

>  <SCORE.heavy>
37

>  <SCORE.norm>
-1.25168

>  <RMSD>
10.079

$$$$
lig.pdb
 OpenBabel11021811453D
libRbt.so/2013.1/901 2013/11/27
 37 40  0  0  0  0  0  0  0  0999 V2000
    0.9065    5.8812   11.7722 C   0  0  2  0  0  0  0  0  0  0  0  0
   -0.4967    5.8838   12.4638 C   0  0  1  0  0  0  0  0  0  0  0  0
   -1.5670    6.6999   11.6813 C   0  0  0  0  0  0  0  0  0  0  0  0
   -1.0275    8.0990   11.2936 C   0  0  1  0  0  0  0  0  0  0  0  0
    0.2870    7.9533   10.4947 C   0  0  1  0  0  0  0  0  0  0  0  0
    0.8262    9.3400   10.0521 C   0  0  1  0  0  0  0  0  0  0  0  0
   -0.2669   10.1421    9.2850 C   0  0  1  0  0  0  0  0  0  0  0  0
   -1.6077   10.2035   10.0753 C   0  0  2  0  0  0  0  0  0  0  0  0
    1.0630   11.4970    7.7328 C   0  0  0  0  0  0  0  0  0  0  0  0
    1.2703    7.2075   11.2686 O   0  0  0  0  0  0  0  0  0  0  0  0
   -2.0079    8.8828   10.5543 O   0  0  0  0  0  0  0  0  0  0  0  0
   -0.9669    4.4932   12.6444 N   0  0  0  0  0  0  0  0  0  0  0  0
    0.2519   11.4891    8.9694 N   0  0  0  0  0  0  0  0  0  0  0  0
    1.3243   10.0783   11.1604 O   0  0  0  0  0  0  0  0  0  0  0  0
   -2.6523   10.8095    9.2590 O   0  0  0  0  0  0  0  0  0  0  0  0
    0.9634    4.8941   10.6975 O   0  0  0  0  0  0  0  0  0  0  0  0
   -3.9125   11.1768    9.9000 C   0  0  2  0  0  0  0  0  0  0  0  0
   -4.8788   11.8501    8.8844 C   0  0  1  0  0  0  0  0  0  0  0  0
   -4.3918   13.2715    8.4816 C   0  0  2  0  0  0  0  0  0  0  0  0
   -4.1224   14.1499    9.7376 C   0  0  1  0  0  0  0  0  0  0  0  0
   -3.1814   13.4260   10.7406 C   0  0  1  0  0  0  0  0  0  0  0  0
   -3.0124   14.2292   12.0569 C   0  0  0  0  0  0  0  0  0  0  0  0
   -3.6739   12.0805   11.0202 O   0  0  0  0  0  0  0  0  0  0  0  0
   -3.5929   15.4797    9.3638 N   0  0  0  0  0  0  0  0  0  0  0  0
   -5.0697   11.0140    7.7445 O   0  0  0  0  0  0  0  0  0  0  0  0
   -5.3190   13.9034    7.6016 O   0  0  0  0  0  0  0  0  0  0  0  0
   -4.2546   14.3457   12.7430 O   0  0  0  0  0  0  0  0  0  0  0  0
    2.1654    4.8581    9.8741 C   0  0  1  0  0  0  0  0  0  0  0  0
    3.2638    3.9454   10.4880 C   0  0  1  0  0  0  0  0  0  0  0  0
    4.5700    3.9971    9.6463 C   0  0  2  0  0  0  0  0  0  0  0  0
    4.3206    3.6719    8.1377 C   0  0  1  0  0  0  0  0  0  0  0  0
    3.1330    4.4781    7.5315 C   0  0  0  0  0  0  0  0  0  0  0  0
    1.8514    4.4171    8.4162 C   0  0  2  0  0  0  0  0  0  0  0  0
    5.5529    3.8740    7.3462 N   0  0  0  0  0  0  0  0  0  0  0  0
    0.7927    5.2460    7.8004 N   0  0  0  0  0  0  0  0  0  0  0  0
    3.5204    4.3022   11.8424 O   0  0  0  0  0  0  0  0  0  0  0  0
    5.5484    3.1152   10.1911 O   0  0  0  0  0  0  0  0  0  0  0  0
  1  2  1  0  0  0  0
  1 16  1  6  0  0  0
  2  3  1  0  0  0  0
  2 12  1  6  0  0  0
  4 11  1  6  0  0  0
  4  3  1  0  0  0  0
  5  4  1  0  0  0  0
  5 10  1  1  0  0  0
  6  7  1  0  0  0  0
  6  5  1  0  0  0  0
  6 14  1  1  0  0  0
  7  8  1  0  0  0  0
  7 13  1  1  0  0  0
  8 15  1  6  0  0  0
  8 11  1  0  0  0  0
  9 13  1  0  0  0  0
 10  1  1  0  0  0  0
 17 15  1  6  0  0  0
 17 18  1  0  0  0  0
 18 25  1  6  0  0  0
 19 18  1  0  0  0  0
 19 26  1  6  0  0  0
 20 19  1  0  0  0  0
 20 24  1  6  0  0  0
 21 23  1  0  0  0  0
 21 20  1  0  0  0  0
 21 22  1  1  0  0  0
 23 17  1  0  0  0  0
 27 22  1  0  0  0  0
 28 29  1  0  0  0  0
 28 16  1  1  0  0  0
 29 36  1  1  0  0  0
 30 37  1  1  0  0  0
 30 29  1  0  0  0  0
 31 30  1  0  0  0  0
 31 34  1  6  0  0  0
 32 31  1  0  0  0  0
 32 33  1  0  0  0  0
 33 28  1  0  0  0  0
 33 35  1  6  0  0  0
M  END
>  <CHROM.1>
-62.76790105,-169.06505808,83.84606603,-61.96119292,178.05405234,174.36006587
-177.56576439,55.95436768,63.42139362,173.68829024,-175.67146670,87.20156410
69.10624403,-64.08918230,140.56122769,15.14615333,-0.40671323,8.68977080
9.97945738,0.50725130,-0.77932698,2.24594999

>  <Name>
lig.pdb

>  <RI>
2.86754e+07

>  <Rbt.Current_Directory>
/home/itssahil/PROJECTS/Mol_Feturizer/New_Systems/rnas/2m4q

>  <Rbt.Executable>
rbdock ($Id: //depot/dev/client3/rdock/2013.1/src/exe/rbdock.cxx#4 $)

>  <Rbt.Library>
libRbt.so (2013.1, Build901 2013/11/27)

>  <Rbt.Parameter_File>
/export/apps/rDock/src/rDock_2013.1_src/data/scripts/dock_solv.prm

>  <Rbt.Receptor>
prm/pocket_docking_5.prm

>  <SCORE>
-44.087

>  <SCORE.INTER>
-25.3948

>  <SCORE.INTER.CONST>
1

>  <SCORE.INTER.POLAR>
-3.85865

>  <SCORE.INTER.ROT>
10

>  <SCORE.INTER.SOLV>
15.4404

>  <SCORE.INTER.VDW>
-19.4812

>  <SCORE.INTER.norm>
-0.686345

>  <SCORE.INTRA>
-18.6922

>  <SCORE.INTRA.DIHEDRAL>
-35.0871

>  <SCORE.INTRA.DIHEDRAL.0>
44.8331

>  <SCORE.INTRA.POLAR>
0.105407

>  <SCORE.INTRA.POLAR.0>
-0.108895

>  <SCORE.INTRA.REPUL>
-0.00912235

>  <SCORE.INTRA.REPUL.0>
0.00912235

>  <SCORE.INTRA.SOLV>
-1.86579

>  <SCORE.INTRA.SOLV.lig_0>
-53.9067

>  <SCORE.INTRA.VDW>
-0.528562

>  <SCORE.INTRA.VDW.0>
-2.93492

>  <SCORE.INTRA.norm>
-0.505195

>  <SCORE.RESTR>
0

>  <SCORE.RESTR.CAVITY>
0

>  <SCORE.RESTR.norm>
0

>  <SCORE.SYSTEM>
0

>  <SCORE.SYSTEM.CONST>
0

>  <SCORE.SYSTEM.DIHEDRAL>
0

>  <SCORE.SYSTEM.SOLV>
0

>  <SCORE.SYSTEM.norm>
0

>  <SCORE.heavy>
37

>  <SCORE.norm>
-1.19154

>  <RMSD>
10.093

$$$$
lig.pdb
 OpenBabel11021811453D
libRbt.so/2013.1/901 2013/11/27
 37 40  0  0  0  0  0  0  0  0999 V2000
    1.3239    4.8432    9.6968 C   0  0  2  0  0  0  0  0  0  0  0  0
    0.6534    4.9523    8.2877 C   0  0  1  0  0  0  0  0  0  0  0  0
   -0.1672    6.2614    8.0962 C   0  0  0  0  0  0  0  0  0  0  0  0
   -1.1202    6.5020    9.2933 C   0  0  1  0  0  0  0  0  0  0  0  0
   -0.3161    6.5110   10.6126 C   0  0  1  0  0  0  0  0  0  0  0  0
   -1.2405    6.7972   11.8263 C   0  0  1  0  0  0  0  0  0  0  0  0
   -2.0608    8.1028   11.6041 C   0  0  1  0  0  0  0  0  0  0  0  0
   -2.7954    8.1035   10.2306 C   0  0  2  0  0  0  0  0  0  0  0  0
   -3.2810    9.7128   12.9944 C   0  0  0  0  0  0  0  0  0  0  0  0
    0.4167    5.2616   10.7678 O   0  0  0  0  0  0  0  0  0  0  0  0
   -1.8970    7.7251    9.1428 O   0  0  0  0  0  0  0  0  0  0  0  0
    1.6868    4.8556    7.2340 N   0  0  0  0  0  0  0  0  0  0  0  0
   -2.9968    8.2853   12.7327 N   0  0  0  0  0  0  0  0  0  0  0  0
   -2.0937    5.6926   12.0974 O   0  0  0  0  0  0  0  0  0  0  0  0
   -3.4094    9.4020    9.9827 O   0  0  0  0  0  0  0  0  0  0  0  0
    2.5655    5.6099    9.7513 O   0  0  0  0  0  0  0  0  0  0  0  0
   -2.5656   10.4901    9.4950 C   0  0  2  0  0  0  0  0  0  0  0  0
   -3.2192   11.8725    9.7792 C   0  0  1  0  0  0  0  0  0  0  0  0
   -4.4661   12.1153    8.8813 C   0  0  2  0  0  0  0  0  0  0  0  0
   -4.1259   11.9020    7.3778 C   0  0  1  0  0  0  0  0  0  0  0  0
   -3.4440   10.5251    7.1439 C   0  0  1  0  0  0  0  0  0  0  0  0
   -2.9758   10.3543    5.6749 C   0  0  0  0  0  0  0  0  0  0  0  0
   -2.3236   10.3493    8.0632 O   0  0  0  0  0  0  0  0  0  0  0  0
   -5.3234   12.0635    6.5243 N   0  0  0  0  0  0  0  0  0  0  0  0
   -3.5320   12.0034   11.1647 O   0  0  0  0  0  0  0  0  0  0  0  0
   -5.0170   13.4115    9.1048 O   0  0  0  0  0  0  0  0  0  0  0  0
   -4.0901   10.3052    4.7899 O   0  0  0  0  0  0  0  0  0  0  0  0
    3.7756    4.9108   10.1649 C   0  0  1  0  0  0  0  0  0  0  0  0
    3.6087    4.2302   11.5523 C   0  0  1  0  0  0  0  0  0  0  0  0
    4.9387    3.5734   12.0179 C   0  0  2  0  0  0  0  0  0  0  0  0
    5.5217    2.5879   10.9535 C   0  0  1  0  0  0  0  0  0  0  0  0
    5.5744    3.2021    9.5225 C   0  0  0  0  0  0  0  0  0  0  0  0
    4.2288    3.8678    9.1042 C   0  0  2  0  0  0  0  0  0  0  0  0
    6.8543    2.0977   11.3659 N   0  0  0  0  0  0  0  0  0  0  0  0
    4.3779    4.4691    7.7613 N   0  0  0  0  0  0  0  0  0  0  0  0
    3.1388    5.1624   12.5208 O   0  0  0  0  0  0  0  0  0  0  0  0
    4.7557    2.9085   13.2653 O   0  0  0  0  0  0  0  0  0  0  0  0
  1  2  1  0  0  0  0
  1 16  1  6  0  0  0
  2  3  1  0  0  0  0
  2 12  1  6  0  0  0
  4 11  1  6  0  0  0
  4  3  1  0  0  0  0
  5  4  1  0  0  0  0
  5 10  1  1  0  0  0
  6  7  1  0  0  0  0
  6  5  1  0  0  0  0
  6 14  1  6  0  0  0
  7  8  1  0  0  0  0
  7 13  1  1  0  0  0
  8 15  1  6  0  0  0
  8 11  1  0  0  0  0
  9 13  1  0  0  0  0
 10  1  1  0  0  0  0
 17 15  1  6  0  0  0
 17 18  1  0  0  0  0
 18 25  1  1  0  0  0
 19 18  1  0  0  0  0
 19 26  1  6  0  0  0
 20 19  1  0  0  0  0
 20 24  1  6  0  0  0
 21 23  1  0  0  0  0
 21 20  1  0  0  0  0
 21 22  1  6  0  0  0
 23 17  1  0  0  0  0
 27 22  1  0  0  0  0
 28 29  1  0  0  0  0
 28 16  1  6  0  0  0
 29 36  1  1  0  0  0
 30 37  1  1  0  0  0
 30 29  1  0  0  0  0
 31 30  1  0  0  0  0
 31 34  1  1  0  0  0
 32 31  1  0  0  0  0
 32 33  1  0  0  0  0
 33 28  1  0  0  0  0
 33 35  1  6  0  0  0
M  END
>  <CHROM.1>
-22.36739146,79.92121199,150.46405301,-123.00827537,-159.15729880,-125.29023974
179.74809370,-168.26760192,-66.05815306,88.43654180,-168.41301141,-55.78118635
-58.48926848,-58.86960636,55.91263293,-176.52103725,-0.27075652,7.35792181
9.74731647,-0.28238178,0.71069167,-1.43903745

>  <Name>
lig.pdb

>  <RI>
0

>  <Rbt.Current_Directory>
/home/itssahil/PROJECTS/Mol_Feturizer/New_Systems/rnas/2m4q

>  <Rbt.Executable>
rbdock ($Id: //depot/dev/client3/rdock/2013.1/src/exe/rbdock.cxx#4 $)

>  <Rbt.Library>
libRbt.so (2013.1, Build901 2013/11/27)

>  <Rbt.Parameter_File>
/export/apps/rDock/src/rDock_2013.1_src/data/scripts/dock_solv.prm

>  <Rbt.Receptor>
prm/pocket_docking_2.prm

>  <SCORE>
-46.8684

>  <SCORE.INTER>
-33.445

>  <SCORE.INTER.CONST>
1

>  <SCORE.INTER.POLAR>
-3.81634

>  <SCORE.INTER.ROT>
10

>  <SCORE.INTER.SOLV>
18.7456

>  <SCORE.INTER.VDW>
-26.0907

>  <SCORE.INTER.norm>
-0.903918

>  <SCORE.INTRA>
-14.3519

>  <SCORE.INTRA.DIHEDRAL>
-21.1481

>  <SCORE.INTRA.DIHEDRAL.0>
44.8331

>  <SCORE.INTRA.POLAR>
-1.7209

>  <SCORE.INTRA.POLAR.0>
-0.108895

>  <SCORE.INTRA.REPUL>
-0.00912235

>  <SCORE.INTRA.REPUL.0>
0.00912235

>  <SCORE.INTRA.SOLV>
0.70289

>  <SCORE.INTRA.SOLV.lig_0>
-53.9067

>  <SCORE.INTRA.VDW>
1.76737

>  <SCORE.INTRA.VDW.0>
-2.93492

>  <SCORE.INTRA.norm>
-0.387889

>  <SCORE.RESTR>
0.928486

>  <SCORE.RESTR.CAVITY>
0.928486

>  <SCORE.RESTR.norm>
0.0250942

>  <SCORE.SYSTEM>
0

>  <SCORE.SYSTEM.CONST>
0

>  <SCORE.SYSTEM.DIHEDRAL>
0

>  <SCORE.SYSTEM.SOLV>
0

>  <SCORE.SYSTEM.norm>
0

>  <SCORE.heavy>
37

>  <SCORE.norm>
-1.26671

>  <RMSD>
10.095

$$$$
lig.pdb
 OpenBabel11021811453D
libRbt.so/2013.1/901 2013/11/27
 37 40  0  0  0  0  0  0  0  0999 V2000
   -1.0541    7.3306    8.3006 C   0  0  2  0  0  0  0  0  0  0  0  0
   -1.8595    7.8479    7.0633 C   0  0  1  0  0  0  0  0  0  0  0  0
   -2.2643    9.3470    7.1755 C   0  0  0  0  0  0  0  0  0  0  0  0
   -2.9133    9.6478    8.5493 C   0  0  1  0  0  0  0  0  0  0  0  0
   -1.9596    9.2194    9.6870 C   0  0  1  0  0  0  0  0  0  0  0  0
   -2.5655    9.5526   11.0767 C   0  0  1  0  0  0  0  0  0  0  0  0
   -2.9756   11.0532   11.1586 C   0  0  1  0  0  0  0  0  0  0  0  0
   -3.8689   11.4802    9.9560 C   0  0  2  0  0  0  0  0  0  0  0  0
   -2.6655   11.6510   13.5166 C   0  0  0  0  0  0  0  0  0  0  0  0
   -1.6247    7.8071    9.5625 O   0  0  0  0  0  0  0  0  0  0  0  0
   -3.2969   11.0466    8.6838 O   0  0  0  0  0  0  0  0  0  0  0  0
   -1.0701    7.6379    5.8303 N   0  0  0  0  0  0  0  0  0  0  0  0
   -3.6363   11.3053   12.4559 N   0  0  0  0  0  0  0  0  0  0  0  0
   -3.6634    8.7012   11.3791 O   0  0  0  0  0  0  0  0  0  0  0  0
   -4.0907   12.9207    9.9733 O   0  0  0  0  0  0  0  0  0  0  0  0
    0.3552    7.7012    8.2057 O   0  0  0  0  0  0  0  0  0  0  0  0
   -2.9281   13.8050    9.9591 C   0  0  2  0  0  0  0  0  0  0  0  0
   -3.3614   15.2965   10.0387 C   0  0  1  0  0  0  0  0  0  0  0  0
   -4.0390   15.7704    8.7210 C   0  0  2  0  0  0  0  0  0  0  0  0
   -3.1426   15.4635    7.4865 C   0  0  1  0  0  0  0  0  0  0  0  0
   -2.7044   13.9725    7.4646 C   0  0  1  0  0  0  0  0  0  0  0  0
   -1.7011   13.6819    6.3178 C   0  0  0  0  0  0  0  0  0  0  0  0
   -2.1350   13.5904    8.7535 O   0  0  0  0  0  0  0  0  0  0  0  0
   -3.8108   15.8485    6.2240 N   0  0  0  0  0  0  0  0  0  0  0  0
   -4.1994   15.5150   11.1721 O   0  0  0  0  0  0  0  0  0  0  0  0
   -4.3723   17.1555    8.7826 O   0  0  0  0  0  0  0  0  0  0  0  0
   -1.3851   12.2948    6.2597 O   0  0  0  0  0  0  0  0  0  0  0  0
    1.2933    7.0306    9.0968 C   0  0  1  0  0  0  0  0  0  0  0  0
    1.2695    7.6357   10.5284 C   0  0  1  0  0  0  0  0  0  0  0  0
    2.3440    6.9721   11.4351 C   0  0  2  0  0  0  0  0  0  0  0  0
    2.2229    5.4137   11.4608 C   0  0  1  0  0  0  0  0  0  0  0  0
    2.1091    4.7904   10.0372 C   0  0  0  0  0  0  0  0  0  0  0  0
    1.0365    5.4980    9.1553 C   0  0  2  0  0  0  0  0  0  0  0  0
    3.3457    4.8119   12.2112 N   0  0  0  0  0  0  0  0  0  0  0  0
    1.0277    4.8838    7.8099 N   0  0  0  0  0  0  0  0  0  0  0  0
    1.4467    9.0478   10.4847 O   0  0  0  0  0  0  0  0  0  0  0  0
    2.2739    7.4992   12.7576 O   0  0  0  0  0  0  0  0  0  0  0  0
  1  2  1  0  0  0  0
  1 16  1  6  0  0  0
  2  3  1  0  0  0  0
  2 12  1  6  0  0  0
  4 11  1  6  0  0  0
  4  3  1  0  0  0  0
  5  4  1  0  0  0  0
  5 10  1  1  0  0  0
  6  7  1  0  0  0  0
  6  5  1  0  0  0  0
  6 14  1  6  0  0  0
  7  8  1  0  0  0  0
  7 13  1  1  0  0  0
  8 15  1  6  0  0  0
  8 11  1  0  0  0  0
  9 13  1  0  0  0  0
 10  1  1  0  0  0  0
 17 15  1  6  0  0  0
 17 18  1  0  0  0  0
 18 25  1  1  0  0  0
 19 18  1  0  0  0  0
 19 26  1  1  0  0  0
 20 19  1  0  0  0  0
 20 24  1  6  0  0  0
 21 23  1  0  0  0  0
 21 20  1  0  0  0  0
 21 22  1  6  0  0  0
 23 17  1  0  0  0  0
 27 22  1  0  0  0  0
 28 29  1  0  0  0  0
 28 16  1  6  0  0  0
 29 36  1  6  0  0  0
 30 37  1  1  0  0  0
 30 29  1  0  0  0  0
 31 30  1  0  0  0  0
 31 34  1  6  0  0  0
 32 31  1  0  0  0  0
 32 33  1  0  0  0  0
 33 28  1  0  0  0  0
 33 35  1  6  0  0  0
M  END
>  <CHROM.1>
-49.59168289,56.92667790,87.81479453,-57.16899944,-177.71450646,-165.48274527
-56.91584839,60.49617426,-175.99849775,-176.97634865,63.97796506,-79.48844066
178.47232751,61.20343945,62.92678153,-102.65922116,-1.48337292,10.30820428
9.43055187,-0.11405443,1.04575211,-1.59660479

>  <Name>
lig.pdb

>  <RI>
2.86754e+07

>  <Rbt.Current_Directory>
/home/itssahil/PROJECTS/Mol_Feturizer/New_Systems/rnas/2m4q

>  <Rbt.Executable>
rbdock ($Id: //depot/dev/client3/rdock/2013.1/src/exe/rbdock.cxx#4 $)

>  <Rbt.Library>
libRbt.so (2013.1, Build901 2013/11/27)

>  <Rbt.Parameter_File>
/export/apps/rDock/src/rDock_2013.1_src/data/scripts/dock_solv.prm

>  <Rbt.Receptor>
prm/pocket_docking_5.prm

>  <SCORE>
-45.6093

>  <SCORE.INTER>
-25.9808

>  <SCORE.INTER.CONST>
1

>  <SCORE.INTER.POLAR>
-4.60212

>  <SCORE.INTER.ROT>
10

>  <SCORE.INTER.SOLV>
12.5706

>  <SCORE.INTER.VDW>
-16.437

>  <SCORE.INTER.norm>
-0.702184

>  <SCORE.INTRA>
-19.6285

>  <SCORE.INTRA.DIHEDRAL>
-37.9072

>  <SCORE.INTRA.DIHEDRAL.0>
44.8331

>  <SCORE.INTRA.POLAR>
0.0242674

>  <SCORE.INTRA.POLAR.0>
-0.108895

>  <SCORE.INTRA.REPUL>
-0.00912235

>  <SCORE.INTRA.REPUL.0>
0.00912235

>  <SCORE.INTRA.SOLV>
-0.775895

>  <SCORE.INTRA.SOLV.lig_0>
-53.9067

>  <SCORE.INTRA.VDW>
-0.323826

>  <SCORE.INTRA.VDW.0>
-2.93492

>  <SCORE.INTRA.norm>
-0.530499

>  <SCORE.RESTR>
0

>  <SCORE.RESTR.CAVITY>
0

>  <SCORE.RESTR.norm>
0

>  <SCORE.SYSTEM>
0

>  <SCORE.SYSTEM.CONST>
0

>  <SCORE.SYSTEM.DIHEDRAL>
0

>  <SCORE.SYSTEM.SOLV>
0

>  <SCORE.SYSTEM.norm>
0

>  <SCORE.heavy>
37

>  <SCORE.norm>
-1.23268

>  <RMSD>
10.106

$$$$
lig.pdb
 OpenBabel11021811453D
libRbt.so/2013.1/901 2013/11/27
 37 40  0  0  0  0  0  0  0  0999 V2000
   -1.0086    7.3191    8.3033 C   0  0  2  0  0  0  0  0  0  0  0  0
   -1.8089    7.8948    7.0887 C   0  0  1  0  0  0  0  0  0  0  0  0
   -2.2328    9.3806    7.2796 C   0  0  0  0  0  0  0  0  0  0  0  0
   -2.8978    9.5973    8.6616 C   0  0  1  0  0  0  0  0  0  0  0  0
   -1.9493    9.1177    9.7830 C   0  0  1  0  0  0  0  0  0  0  0  0
   -2.5718    9.3664   11.1831 C   0  0  1  0  0  0  0  0  0  0  0  0
   -3.0008   10.8554   11.3437 C   0  0  1  0  0  0  0  0  0  0  0  0
   -3.8881   11.3379   10.1580 C   0  0  2  0  0  0  0  0  0  0  0  0
   -2.7242   10.9790   13.7772 C   0  0  0  0  0  0  0  0  0  0  0  0
   -1.5963    7.7184    9.5840 O   0  0  0  0  0  0  0  0  0  0  0  0
   -3.2995   10.9821    8.8693 O   0  0  0  0  0  0  0  0  0  0  0  0
   -1.0059    7.7624    5.8537 N   0  0  0  0  0  0  0  0  0  0  0  0
   -3.6761   11.0276   12.6465 N   0  0  0  0  0  0  0  0  0  0  0  0
   -3.6620    8.4870   11.4273 O   0  0  0  0  0  0  0  0  0  0  0  0
   -4.1275   12.7726   10.2526 O   0  0  0  0  0  0  0  0  0  0  0  0
    0.3969    7.7106    8.2427 O   0  0  0  0  0  0  0  0  0  0  0  0
   -2.9852   13.6777   10.1538 C   0  0  2  0  0  0  0  0  0  0  0  0
   -3.4329   15.1591   10.3075 C   0  0  1  0  0  0  0  0  0  0  0  0
   -4.2352   15.6497    9.0684 C   0  0  2  0  0  0  0  0  0  0  0  0
   -3.4504   15.3861    7.7507 C   0  0  1  0  0  0  0  0  0  0  0  0
   -2.9925   13.9040    7.6540 C   0  0  1  0  0  0  0  0  0  0  0  0
   -2.0935   13.6568    6.4142 C   0  0  0  0  0  0  0  0  0  0  0  0
   -2.3020   13.5039    8.8765 O   0  0  0  0  0  0  0  0  0  0  0  0
   -4.2369   15.7868    6.5635 N   0  0  0  0  0  0  0  0  0  0  0  0
   -4.1675   15.3375   11.5172 O   0  0  0  0  0  0  0  0  0  0  0  0
   -4.5834   17.0269    9.1926 O   0  0  0  0  0  0  0  0  0  0  0  0
   -1.5847   12.3269    6.4138 O   0  0  0  0  0  0  0  0  0  0  0  0
    1.3487    6.9429    9.0355 C   0  0  1  0  0  0  0  0  0  0  0  0
    1.3886    7.4166   10.5155 C   0  0  1  0  0  0  0  0  0  0  0  0
    2.4773    6.6515   11.3195 C   0  0  2  0  0  0  0  0  0  0  0  0
    2.3196    5.1001   11.2100 C   0  0  1  0  0  0  0  0  0  0  0  0
    2.1419    4.6104    9.7415 C   0  0  0  0  0  0  0  0  0  0  0  0
    1.0571    5.4169    8.9661 C   0  0  2  0  0  0  0  0  0  0  0  0
    3.4527    4.4096   11.8622 N   0  0  0  0  0  0  0  0  0  0  0  0
    0.9872    4.9270    7.5723 N   0  0  0  0  0  0  0  0  0  0  0  0
    1.5982    8.8230   10.5918 O   0  0  0  0  0  0  0  0  0  0  0  0
    2.4655    7.0585   12.6855 O   0  0  0  0  0  0  0  0  0  0  0  0
  1  2  1  0  0  0  0
  1 16  1  1  0  0  0
  2  3  1  0  0  0  0
  2 12  1  6  0  0  0
  4 11  1  1  0  0  0
  4  3  1  0  0  0  0
  5  4  1  0  0  0  0
  5 10  1  6  0  0  0
  6  7  1  0  0  0  0
  6  5  1  0  0  0  0
  6 14  1  6  0  0  0
  7  8  1  0  0  0  0
  7 13  1  1  0  0  0
  8 15  1  6  0  0  0
  8 11  1  0  0  0  0
  9 13  1  0  0  0  0
 10  1  1  0  0  0  0
 17 15  1  6  0  0  0
 17 18  1  0  0  0  0
 18 25  1  1  0  0  0
 19 18  1  0  0  0  0
 19 26  1  1  0  0  0
 20 19  1  0  0  0  0
 20 24  1  6  0  0  0
 21 23  1  0  0  0  0
 21 20  1  0  0  0  0
 21 22  1  6  0  0  0
 23 17  1  0  0  0  0
 27 22  1  0  0  0  0
 28 29  1  0  0  0  0
 28 16  1  6  0  0  0
 29 36  1  6  0  0  0
 30 37  1  1  0  0  0
 30 29  1  0  0  0  0
 31 30  1  0  0  0  0
 31 34  1  6  0  0  0
 32 31  1  0  0  0  0
 32 33  1  0  0  0  0
 33 28  1  0  0  0  0
 33 35  1  6  0  0  0
M  END
>  <CHROM.1>
-173.64267963,63.41564983,73.18112793,-57.03249877,-178.76714454,-161.38489516
64.32960059,61.86880606,174.55015668,59.40090660,-55.80268790,-82.51481883
-59.52385762,-58.58297606,171.48550930,24.21552429,-1.51223889,10.17284073
9.51671485,-0.11711011,1.02375932,-1.54933231

>  <Name>
lig.pdb

>  <RI>
0

>  <Rbt.Current_Directory>
/home/itssahil/PROJECTS/Mol_Feturizer/New_Systems/rnas/2m4q

>  <Rbt.Executable>
rbdock ($Id: //depot/dev/client3/rdock/2013.1/src/exe/rbdock.cxx#4 $)

>  <Rbt.Library>
libRbt.so (2013.1, Build901 2013/11/27)

>  <Rbt.Parameter_File>
/export/apps/rDock/src/rDock_2013.1_src/data/scripts/dock_solv.prm

>  <Rbt.Receptor>
prm/pocket_docking_6.prm

>  <SCORE>
-45.4961

>  <SCORE.INTER>
-25.6689

>  <SCORE.INTER.CONST>
1

>  <SCORE.INTER.POLAR>
-4.28622

>  <SCORE.INTER.ROT>
10

>  <SCORE.INTER.SOLV>
14.065

>  <SCORE.INTER.VDW>
-17.7802

>  <SCORE.INTER.norm>
-0.693753

>  <SCORE.INTRA>
-19.8272

>  <SCORE.INTRA.DIHEDRAL>
-38.0199

>  <SCORE.INTRA.DIHEDRAL.0>
44.8331

>  <SCORE.INTRA.POLAR>
0.0569126

>  <SCORE.INTRA.POLAR.0>
-0.108895

>  <SCORE.INTRA.REPUL>
-0.00858448

>  <SCORE.INTRA.REPUL.0>
0.00912235

>  <SCORE.INTRA.SOLV>
-0.619035

>  <SCORE.INTRA.SOLV.lig_0>
-53.9067

>  <SCORE.INTRA.VDW>
-0.658289

>  <SCORE.INTRA.VDW.0>
-2.93492

>  <SCORE.INTRA.norm>
-0.53587

>  <SCORE.RESTR>
0

>  <SCORE.RESTR.CAVITY>
0

>  <SCORE.RESTR.norm>
0

>  <SCORE.SYSTEM>
0

>  <SCORE.SYSTEM.CONST>
0

>  <SCORE.SYSTEM.DIHEDRAL>
0

>  <SCORE.SYSTEM.SOLV>
0

>  <SCORE.SYSTEM.norm>
0

>  <SCORE.heavy>
37

>  <SCORE.norm>
-1.22962

>  <RMSD>
10.120

$$$$
lig.pdb
 OpenBabel11021811453D
libRbt.so/2013.1/901 2013/11/27
 37 40  0  0  0  0  0  0  0  0999 V2000
   -4.3565    2.4312   14.5954 C   0  0  2  0  0  0  0  0  0  0  0  0
   -2.9511    2.6627   13.9486 C   0  0  1  0  0  0  0  0  0  0  0  0
   -2.1672    1.3425   13.6912 C   0  0  0  0  0  0  0  0  0  0  0  0
   -2.1660    0.4403   14.9502 C   0  0  1  0  0  0  0  0  0  0  0  0
   -3.6176    0.1716   15.4064 C   0  0  1  0  0  0  0  0  0  0  0  0
   -3.6483   -0.7695   16.6405 C   0  0  1  0  0  0  0  0  0  0  0  0
   -2.8454   -2.0754   16.3632 C   0  0  1  0  0  0  0  0  0  0  0  0
   -1.4141   -1.7773   15.8258 C   0  0  2  0  0  0  0  0  0  0  0  0
   -3.2958   -4.2744   17.3509 C   0  0  0  0  0  0  0  0  0  0  0  0
   -4.3093    1.4280   15.6615 O   0  0  0  0  0  0  0  0  0  0  0  0
   -1.4433   -0.8060   14.7351 O   0  0  0  0  0  0  0  0  0  0  0  0
   -3.1021    3.4060   12.6789 N   0  0  0  0  0  0  0  0  0  0  0  0
   -2.8158   -2.8964   17.5913 N   0  0  0  0  0  0  0  0  0  0  0  0
   -3.1712   -0.1091   17.8057 O   0  0  0  0  0  0  0  0  0  0  0  0
   -0.7564   -3.0123   15.4175 O   0  0  0  0  0  0  0  0  0  0  0  0
   -5.3464    2.0592   13.5883 O   0  0  0  0  0  0  0  0  0  0  0  0
    0.5918   -3.2801   15.9121 C   0  0  2  0  0  0  0  0  0  0  0  0
    0.7241   -2.8861   17.4108 C   0  0  1  0  0  0  0  0  0  0  0  0
    0.7000   -1.3428   17.6047 C   0  0  2  0  0  0  0  0  0  0  0  0
    1.7557   -0.6462   16.6980 C   0  0  1  0  0  0  0  0  0  0  0  0
    1.6103   -1.0939   15.2168 C   0  0  1  0  0  0  0  0  0  0  0  0
    2.7394   -0.5147   14.3246 C   0  0  0  0  0  0  0  0  0  0  0  0
    1.5809   -2.5507   15.1260 O   0  0  0  0  0  0  0  0  0  0  0  0
    1.6910    0.8262   16.8259 N   0  0  0  0  0  0  0  0  0  0  0  0
   -0.2813   -3.5323   18.1894 O   0  0  0  0  0  0  0  0  0  0  0  0
    0.8876   -0.9929   18.9742 O   0  0  0  0  0  0  0  0  0  0  0  0
    2.9230   -1.3108   13.1585 O   0  0  0  0  0  0  0  0  0  0  0  0
   -6.6737    1.6761   14.0523 C   0  0  1  0  0  0  0  0  0  0  0  0
   -7.5215    2.9094   14.4722 C   0  0  1  0  0  0  0  0  0  0  0  0
   -8.8956    2.4729   15.0540 C   0  0  2  0  0  0  0  0  0  0  0  0
   -9.6811    1.5304   14.0852 C   0  0  1  0  0  0  0  0  0  0  0  0
   -8.8112    0.3574   13.5419 C   0  0  0  0  0  0  0  0  0  0  0  0
   -7.4353    0.8359   12.9881 C   0  0  2  0  0  0  0  0  0  0  0  0
  -10.9098    1.0203   14.7303 N   0  0  0  0  0  0  0  0  0  0  0  0
   -6.6533   -0.3375   12.5422 N   0  0  0  0  0  0  0  0  0  0  0  0
   -6.8117    3.7186   15.4043 O   0  0  0  0  0  0  0  0  0  0  0  0
   -9.6818    3.6151   15.3844 O   0  0  0  0  0  0  0  0  0  0  0  0
  1  2  1  0  0  0  0
  1 16  1  6  0  0  0
  2  3  1  0  0  0  0
  2 12  1  6  0  0  0
  4 11  1  6  0  0  0
  4  3  1  0  0  0  0
  5  4  1  0  0  0  0
  5 10  1  1  0  0  0
  6  7  1  0  0  0  0
  6  5  1  0  0  0  0
  6 14  1  1  0  0  0
  7  8  1  0  0  0  0
  7 13  1  1  0  0  0
  8 15  1  6  0  0  0
  8 11  1  0  0  0  0
  9 13  1  0  0  0  0
 10  1  1  0  0  0  0
 17 15  1  6  0  0  0
 17 18  1  0  0  0  0
 18 25  1  1  0  0  0
 19 18  1  0  0  0  0
 19 26  1  1  0  0  0
 20 19  1  0  0  0  0
 20 24  1  6  0  0  0
 21 23  1  0  0  0  0
 21 20  1  0  0  0  0
 21 22  1  6  0  0  0
 23 17  1  0  0  0  0
 27 22  1  0  0  0  0
 28 29  1  0  0  0  0
 28 16  1  6  0  0  0
 29 36  1  1  0  0  0
 30 37  1  6  0  0  0
 30 29  1  0  0  0  0
 31 30  1  0  0  0  0
 31 34  1  1  0  0  0
 32 31  1  0  0  0  0
 32 33  1  0  0  0  0
 33 28  1  0  0  0  0
 33 35  1  1  0  0  0
M  END
>  <CHROM.1>
-25.80365957,-130.01655971,126.39396641,53.40652066,41.23041761,173.83779351
67.53161757,-171.05635593,156.76632011,73.34212129,69.37848523,76.43207283
-178.95761305,-172.89335640,76.47227619,-22.14828116,-3.10902100,-0.03036016
15.36947463,-2.70617138,-0.08918055,2.48916691

>  <Name>
lig.pdb

>  <RI>
0

>  <Rbt.Current_Directory>
/home/itssahil/PROJECTS/Mol_Feturizer/New_Systems/rnas/2m4q

>  <Rbt.Executable>
rbdock ($Id: //depot/dev/client3/rdock/2013.1/src/exe/rbdock.cxx#4 $)

>  <Rbt.Library>
libRbt.so (2013.1, Build901 2013/11/27)

>  <Rbt.Parameter_File>
/export/apps/rDock/src/rDock_2013.1_src/data/scripts/dock_solv.prm

>  <Rbt.Receptor>
prm/blind_docking_20.prm

>  <SCORE>
-3.8175

>  <SCORE.INTER>
-9.59303

>  <SCORE.INTER.CONST>
1

>  <SCORE.INTER.POLAR>
-4.08196

>  <SCORE.INTER.ROT>
10

>  <SCORE.INTER.SOLV>
22.8494

>  <SCORE.INTER.VDW>
-10.672

>  <SCORE.INTER.norm>
-0.259271

>  <SCORE.INTRA>
-15.9477

>  <SCORE.INTRA.DIHEDRAL>
-25.0212

>  <SCORE.INTRA.DIHEDRAL.0>
44.8331

>  <SCORE.INTRA.POLAR>
-1.21344

>  <SCORE.INTRA.POLAR.0>
-0.108895

>  <SCORE.INTRA.REPUL>
-0.00912235

>  <SCORE.INTRA.REPUL.0>
0.00912235

>  <SCORE.INTRA.SOLV>
0.526126

>  <SCORE.INTRA.SOLV.lig_0>
-53.9067

>  <SCORE.INTRA.VDW>
0.471176

>  <SCORE.INTRA.VDW.0>
-2.93492

>  <SCORE.INTRA.norm>
-0.431018

>  <SCORE.RESTR>
21.7232

>  <SCORE.RESTR.CAVITY>
21.7232

>  <SCORE.RESTR.norm>
0.587113

>  <SCORE.SYSTEM>
0

>  <SCORE.SYSTEM.CONST>
0

>  <SCORE.SYSTEM.DIHEDRAL>
0

>  <SCORE.SYSTEM.SOLV>
0

>  <SCORE.SYSTEM.norm>
0

>  <SCORE.heavy>
37

>  <SCORE.norm>
-0.103176

>  <RMSD>
10.129

$$$$
lig.pdb
 OpenBabel11021811453D
libRbt.so/2013.1/901 2013/11/27
 37 40  0  0  0  0  0  0  0  0999 V2000
    1.0177    5.0969    9.6397 C   0  0  2  0  0  0  0  0  0  0  0  0
    0.4470    5.2801    8.1948 C   0  0  1  0  0  0  0  0  0  0  0  0
   -0.3430    6.6086    8.0090 C   0  0  0  0  0  0  0  0  0  0  0  0
   -1.3732    6.8086    9.1482 C   0  0  1  0  0  0  0  0  0  0  0  0
   -0.6616    6.7454   10.5182 C   0  0  1  0  0  0  0  0  0  0  0  0
   -1.6640    6.9896   11.6781 C   0  0  1  0  0  0  0  0  0  0  0  0
   -2.4516    8.3161   11.4615 C   0  0  1  0  0  0  0  0  0  0  0  0
   -3.0899    8.3905   10.0426 C   0  0  2  0  0  0  0  0  0  0  0  0
   -2.8553    8.8761   13.8146 C   0  0  0  0  0  0  0  0  0  0  0  0
    0.0440    5.4794   10.6648 O   0  0  0  0  0  0  0  0  0  0  0  0
   -2.1233    8.0487    9.0021 O   0  0  0  0  0  0  0  0  0  0  0  0
    1.5494    5.2162    7.2107 N   0  0  0  0  0  0  0  0  0  0  0  0
   -3.4608    8.4609   12.5309 N   0  0  0  0  0  0  0  0  0  0  0  0
   -2.5467    5.8867   11.8387 O   0  0  0  0  0  0  0  0  0  0  0  0
   -3.6702    9.7079    9.8142 O   0  0  0  0  0  0  0  0  0  0  0  0
    2.2616    5.8417    9.8144 O   0  0  0  0  0  0  0  0  0  0  0  0
   -2.7998   10.7793    9.3360 C   0  0  2  0  0  0  0  0  0  0  0  0
   -3.4686   12.1697    9.5313 C   0  0  1  0  0  0  0  0  0  0  0  0
   -4.6620   12.3768    8.5552 C   0  0  2  0  0  0  0  0  0  0  0  0
   -4.2360   12.1092    7.0824 C   0  0  1  0  0  0  0  0  0  0  0  0
   -3.5417   10.7262    6.9387 C   0  0  1  0  0  0  0  0  0  0  0  0
   -2.9900   10.5028    5.5063 C   0  0  0  0  0  0  0  0  0  0  0  0
   -2.4759   10.5866    7.9266 O   0  0  0  0  0  0  0  0  0  0  0  0
   -5.3825   12.2368    6.1563 N   0  0  0  0  0  0  0  0  0  0  0  0
   -3.8605   12.3506   10.8909 O   0  0  0  0  0  0  0  0  0  0  0  0
   -5.2248   13.6791    8.6989 O   0  0  0  0  0  0  0  0  0  0  0  0
   -4.0225   10.6481    4.5367 O   0  0  0  0  0  0  0  0  0  0  0  0
    3.4409    5.0998   10.2421 C   0  0  1  0  0  0  0  0  0  0  0  0
    3.1228    4.1251   11.4104 C   0  0  1  0  0  0  0  0  0  0  0  0
    4.4111    3.4160   11.9150 C   0  0  2  0  0  0  0  0  0  0  0  0
    5.1916    2.7057   10.7617 C   0  0  1  0  0  0  0  0  0  0  0  0
    5.4067    3.6223    9.5202 C   0  0  0  0  0  0  0  0  0  0  0  0
    4.0960    4.3292    9.0607 C   0  0  2  0  0  0  0  0  0  0  0  0
    6.4802    2.1709   11.2512 N   0  0  0  0  0  0  0  0  0  0  0  0
    4.3948    5.2163    7.9157 N   0  0  0  0  0  0  0  0  0  0  0  0
    2.4705    4.8076   12.4763 O   0  0  0  0  0  0  0  0  0  0  0  0
    4.0956    2.4872   12.9491 O   0  0  0  0  0  0  0  0  0  0  0  0
  1  2  1  0  0  0  0
  1 16  1  6  0  0  0
  2  3  1  0  0  0  0
  2 12  1  6  0  0  0
  4 11  1  6  0  0  0
  4  3  1  0  0  0  0
  5  4  1  0  0  0  0
  5 10  1  1  0  0  0
  6  7  1  0  0  0  0
  6  5  1  0  0  0  0
  6 14  1  6  0  0  0
  7  8  1  0  0  0  0
  7 13  1  1  0  0  0
  8 15  1  6  0  0  0
  8 11  1  0  0  0  0
  9 13  1  0  0  0  0
 10  1  1  0  0  0  0
 17 15  1  6  0  0  0
 17 18  1  0  0  0  0
 18 25  1  1  0  0  0
 19 18  1  0  0  0  0
 19 26  1  6  0  0  0
 20 19  1  0  0  0  0
 20 24  1  6  0  0  0
 21 23  1  0  0  0  0
 21 20  1  0  0  0  0
 21 22  1  6  0  0  0
 23 17  1  0  0  0  0
 27 22  1  0  0  0  0
 28 29  1  0  0  0  0
 28 16  1  6  0  0  0
 29 36  1  1  0  0  0
 30 37  1  1  0  0  0
 30 29  1  0  0  0  0
 31 30  1  0  0  0  0
 31 34  1  1  0  0  0
 32 31  1  0  0  0  0
 32 33  1  0  0  0  0
 33 28  1  0  0  0  0
 33 35  1  6  0  0  0
M  END
>  <CHROM.1>
67.57879551,84.60031435,75.98069335,-166.83180427,-163.97652408,-123.68339676
63.76995200,-88.02434810,-56.03857906,80.32019709,-158.85691953,-45.24555711
65.97730969,-168.45053070,-178.11599114,-172.16826752,-0.52312025,7.53330513
9.62584481,-0.39593135,0.69399952,-1.29944776

>  <Name>
lig.pdb

>  <RI>
0

>  <Rbt.Current_Directory>
/home/itssahil/PROJECTS/Mol_Feturizer/New_Systems/rnas/2m4q

>  <Rbt.Executable>
rbdock ($Id: //depot/dev/client3/rdock/2013.1/src/exe/rbdock.cxx#4 $)

>  <Rbt.Library>
libRbt.so (2013.1, Build901 2013/11/27)

>  <Rbt.Parameter_File>
/export/apps/rDock/src/rDock_2013.1_src/data/scripts/dock_solv.prm

>  <Rbt.Receptor>
prm/pocket_docking_2.prm

>  <SCORE>
-42.185

>  <SCORE.INTER>
-23.1102

>  <SCORE.INTER.CONST>
1

>  <SCORE.INTER.POLAR>
-2.13218

>  <SCORE.INTER.ROT>
10

>  <SCORE.INTER.SOLV>
19.3838

>  <SCORE.INTER.VDW>
-25.0275

>  <SCORE.INTER.norm>
-0.624601

>  <SCORE.INTRA>
-20.3353

>  <SCORE.INTRA.DIHEDRAL>
-24.2019

>  <SCORE.INTRA.DIHEDRAL.0>
44.8331

>  <SCORE.INTRA.POLAR>
-2.38925

>  <SCORE.INTRA.POLAR.0>
-0.108895

>  <SCORE.INTRA.REPUL>
-0.00912235

>  <SCORE.INTRA.REPUL.0>
0.00912235

>  <SCORE.INTRA.SOLV>
0.104985

>  <SCORE.INTRA.SOLV.lig_0>
-53.9067

>  <SCORE.INTRA.VDW>
-0.117817

>  <SCORE.INTRA.VDW.0>
-2.93492

>  <SCORE.INTRA.norm>
-0.549604

>  <SCORE.RESTR>
1.26059

>  <SCORE.RESTR.CAVITY>
1.26059

>  <SCORE.RESTR.norm>
0.0340701

>  <SCORE.SYSTEM>
0

>  <SCORE.SYSTEM.CONST>
0

>  <SCORE.SYSTEM.DIHEDRAL>
0

>  <SCORE.SYSTEM.SOLV>
0

>  <SCORE.SYSTEM.norm>
0

>  <SCORE.heavy>
37

>  <SCORE.norm>
-1.14013

>  <RMSD>
10.133

$$$$
lig.pdb
 OpenBabel11021811453D
libRbt.so/2013.1/901 2013/11/27
 37 40  0  0  0  0  0  0  0  0999 V2000
   -0.0380    7.0533   10.8155 C   0  0  2  0  0  0  0  0  0  0  0  0
   -1.5381    7.1533   11.2479 C   0  0  1  0  0  0  0  0  0  0  0  0
   -2.4873    7.5678   10.0857 C   0  0  0  0  0  0  0  0  0  0  0  0
   -1.9404    8.8067    9.3342 C   0  0  1  0  0  0  0  0  0  0  0  0
   -0.5041    8.5290    8.8369 C   0  0  1  0  0  0  0  0  0  0  0  0
    0.0524    9.7384    8.0386 C   0  0  1  0  0  0  0  0  0  0  0  0
   -0.9215   10.1426    6.8920 C   0  0  1  0  0  0  0  0  0  0  0  0
   -2.3792   10.3358    7.4057 C   0  0  2  0  0  0  0  0  0  0  0  0
    0.4920   11.0261    5.0932 C   0  0  0  0  0  0  0  0  0  0  0  0
    0.3584    8.1699    9.9546 O   0  0  0  0  0  0  0  0  0  0  0  0
   -2.8074    9.2131    8.2363 O   0  0  0  0  0  0  0  0  0  0  0  0
   -1.9817    5.8610   11.8144 N   0  0  0  0  0  0  0  0  0  0  0  0
   -0.4054   11.3542    6.2220 N   0  0  0  0  0  0  0  0  0  0  0  0
    0.3262   10.8402    8.8945 O   0  0  0  0  0  0  0  0  0  0  0  0
   -3.2897   10.5440    6.2867 O   0  0  0  0  0  0  0  0  0  0  0  0
    0.2379    5.7790   10.1577 O   0  0  0  0  0  0  0  0  0  0  0  0
   -4.6867   10.8595    6.5744 C   0  0  2  0  0  0  0  0  0  0  0  0
   -5.1189   12.1737    5.8640 C   0  0  1  0  0  0  0  0  0  0  0  0
   -4.4533   13.4229    6.5094 C   0  0  2  0  0  0  0  0  0  0  0  0
   -4.6935   13.4561    8.0467 C   0  0  1  0  0  0  0  0  0  0  0  0
   -4.2811   12.1129    8.7109 C   0  0  1  0  0  0  0  0  0  0  0  0
   -4.6404   12.0802   10.2196 C   0  0  0  0  0  0  0  0  0  0  0  0
   -4.8977   10.9892    8.0121 O   0  0  0  0  0  0  0  0  0  0  0  0
   -4.0049   14.6040    8.6767 N   0  0  0  0  0  0  0  0  0  0  0  0
   -4.8538   12.0974    4.4645 O   0  0  0  0  0  0  0  0  0  0  0  0
   -4.9078   14.6253    5.8920 O   0  0  0  0  0  0  0  0  0  0  0  0
   -3.9358   11.0379   10.8863 O   0  0  0  0  0  0  0  0  0  0  0  0
    1.6019    5.5299    9.7089 C   0  0  1  0  0  0  0  0  0  0  0  0
    2.4215    4.7265   10.7572 C   0  0  1  0  0  0  0  0  0  0  0  0
    3.8984    4.5556   10.3023 C   0  0  2  0  0  0  0  0  0  0  0  0
    4.0139    3.9329    8.8730 C   0  0  1  0  0  0  0  0  0  0  0  0
    3.0969    4.6370    7.8284 C   0  0  0  0  0  0  0  0  0  0  0  0
    1.6320    4.8068    8.3324 C   0  0  2  0  0  0  0  0  0  0  0  0
    5.4203    3.9221    8.4169 N   0  0  0  0  0  0  0  0  0  0  0  0
    0.8435    5.5265    7.3088 N   0  0  0  0  0  0  0  0  0  0  0  0
    2.3551    5.3479   12.0366 O   0  0  0  0  0  0  0  0  0  0  0  0
    4.6229    3.7722   11.2473 O   0  0  0  0  0  0  0  0  0  0  0  0
  1  2  1  0  0  0  0
  1 16  1  6  0  0  0
  2  3  1  0  0  0  0
  2 12  1  6  0  0  0
  4 11  1  6  0  0  0
  4  3  1  0  0  0  0
  5  4  1  0  0  0  0
  5 10  1  1  0  0  0
  6  7  1  0  0  0  0
  6  5  1  0  0  0  0
  6 14  1  1  0  0  0
  7  8  1  0  0  0  0
  7 13  1  1  0  0  0
  8 15  1  6  0  0  0
  8 11  1  0  0  0  0
  9 13  1  0  0  0  0
 10  1  1  0  0  0  0
 17 15  1  1  0  0  0
 17 18  1  0  0  0  0
 18 25  1  6  0  0  0
 19 18  1  0  0  0  0
 19 26  1  6  0  0  0
 20 19  1  0  0  0  0
 20 24  1  1  0  0  0
 21 23  1  0  0  0  0
 21 20  1  0  0  0  0
 21 22  1  1  0  0  0
 23 17  1  0  0  0  0
 27 22  1  0  0  0  0
 28 29  1  0  0  0  0
 28 16  1  1  0  0  0
 29 36  1  1  0  0  0
 30 37  1  1  0  0  0
 30 29  1  0  0  0  0
 31 30  1  0  0  0  0
 31 34  1  6  0  0  0
 32 31  1  0  0  0  0
 32 33  1  0  0  0  0
 33 28  1  0  0  0  0
 33 35  1  6  0  0  0
M  END
>  <CHROM.1>
-36.79278324,-174.80285508,90.09664845,-58.85524181,125.29269731,-179.32190782
87.42552559,61.49174736,-163.48834479,-47.44075163,176.08611165,95.09885720
-176.80266776,-177.40012703,-61.83778354,-91.11321301,-1.01688090,8.84231095
8.59480831,0.61511640,-0.64648612,2.09603239

>  <Name>
lig.pdb

>  <RI>
0

>  <Rbt.Current_Directory>
/home/itssahil/PROJECTS/Mol_Feturizer/New_Systems/rnas/2m4q

>  <Rbt.Executable>
rbdock ($Id: //depot/dev/client3/rdock/2013.1/src/exe/rbdock.cxx#4 $)

>  <Rbt.Library>
libRbt.so (2013.1, Build901 2013/11/27)

>  <Rbt.Parameter_File>
/export/apps/rDock/src/rDock_2013.1_src/data/scripts/dock_solv.prm

>  <Rbt.Receptor>
prm/pocket_docking_6.prm

>  <SCORE>
-41.9639

>  <SCORE.INTER>
-28.6338

>  <SCORE.INTER.CONST>
1

>  <SCORE.INTER.POLAR>
-3.28843

>  <SCORE.INTER.ROT>
10

>  <SCORE.INTER.SOLV>
14.7139

>  <SCORE.INTER.VDW>
-23.2991

>  <SCORE.INTER.norm>
-0.773886

>  <SCORE.INTRA>
-13.3301

>  <SCORE.INTRA.DIHEDRAL>
-24.8501

>  <SCORE.INTRA.DIHEDRAL.0>
44.8331

>  <SCORE.INTRA.POLAR>
-0.101047

>  <SCORE.INTRA.POLAR.0>
-0.108895

>  <SCORE.INTRA.REPUL>
-0.00912235

>  <SCORE.INTRA.REPUL.0>
0.00912235

>  <SCORE.INTRA.SOLV>
-1.33407

>  <SCORE.INTRA.SOLV.lig_0>
-53.9067

>  <SCORE.INTRA.VDW>
0.151139

>  <SCORE.INTRA.VDW.0>
-2.93492

>  <SCORE.INTRA.norm>
-0.360273

>  <SCORE.RESTR>
0

>  <SCORE.RESTR.CAVITY>
0

>  <SCORE.RESTR.norm>
0

>  <SCORE.SYSTEM>
0

>  <SCORE.SYSTEM.CONST>
0

>  <SCORE.SYSTEM.DIHEDRAL>
0

>  <SCORE.SYSTEM.SOLV>
0

>  <SCORE.SYSTEM.norm>
0

>  <SCORE.heavy>
37

>  <SCORE.norm>
-1.13416

>  <RMSD>
10.137

$$$$
lig.pdb
 OpenBabel11021811453D
libRbt.so/2013.1/901 2013/11/27
 37 40  0  0  0  0  0  0  0  0999 V2000
    4.7869    4.5737    8.2410 C   0  0  2  0  0  0  0  0  0  0  0  0
    5.0255    5.7226    7.2065 C   0  0  1  0  0  0  0  0  0  0  0  0
    4.1256    6.9689    7.4525 C   0  0  0  0  0  0  0  0  0  0  0  0
    2.6442    6.5582    7.6422 C   0  0  1  0  0  0  0  0  0  0  0  0
    2.5268    5.5252    8.7851 C   0  0  1  0  0  0  0  0  0  0  0  0
    1.0455    5.1302    9.0287 C   0  0  1  0  0  0  0  0  0  0  0  0
    0.1640    6.3941    9.2573 C   0  0  1  0  0  0  0  0  0  0  0  0
    0.3632    7.4551    8.1344 C   0  0  2  0  0  0  0  0  0  0  0  0
   -2.0798    7.0343   10.0117 C   0  0  0  0  0  0  0  0  0  0  0  0
    3.3619    4.3645    8.5068 O   0  0  0  0  0  0  0  0  0  0  0  0
    1.7796    7.7061    7.8802 O   0  0  0  0  0  0  0  0  0  0  0  0
    6.4484    6.1258    7.2273 N   0  0  0  0  0  0  0  0  0  0  0  0
   -1.2493    5.9828    9.3859 N   0  0  0  0  0  0  0  0  0  0  0  0
    0.5407    4.3359    7.9630 O   0  0  0  0  0  0  0  0  0  0  0  0
   -0.3414    8.6869    8.4673 O   0  0  0  0  0  0  0  0  0  0  0  0
    5.5064    4.8269    9.4864 O   0  0  0  0  0  0  0  0  0  0  0  0
   -1.5499    9.0225    7.7185 C   0  0  2  0  0  0  0  0  0  0  0  0
   -1.2224    9.2872    6.2214 C   0  0  1  0  0  0  0  0  0  0  0  0
   -0.4437   10.6200    6.0293 C   0  0  2  0  0  0  0  0  0  0  0  0
   -1.1865   11.8074    6.7077 C   0  0  1  0  0  0  0  0  0  0  0  0
   -1.5248   11.4876    8.1905 C   0  0  1  0  0  0  0  0  0  0  0  0
   -2.3838   12.6037    8.8408 C   0  0  0  0  0  0  0  0  0  0  0  0
   -2.1990   10.1966    8.2917 O   0  0  0  0  0  0  0  0  0  0  0  0
   -0.4171   13.0654    6.5885 N   0  0  0  0  0  0  0  0  0  0  0  0
   -0.5216    8.1797    5.6585 O   0  0  0  0  0  0  0  0  0  0  0  0
   -0.2069   10.8836    4.6481 O   0  0  0  0  0  0  0  0  0  0  0  0
   -3.6588   12.6928    8.2133 O   0  0  0  0  0  0  0  0  0  0  0  0
    5.5357    3.7614   10.4802 C   0  0  1  0  0  0  0  0  0  0  0  0
    4.1794    3.6253   11.2272 C   0  0  1  0  0  0  0  0  0  0  0  0
    4.2621    2.5503   12.3474 C   0  0  2  0  0  0  0  0  0  0  0  0
    4.7732    1.1722   11.8150 C   0  0  1  0  0  0  0  0  0  0  0  0
    6.0614    1.2969   10.9473 C   0  0  0  0  0  0  0  0  0  0  0  0
    5.9437    2.3988    9.8515 C   0  0  2  0  0  0  0  0  0  0  0  0
    4.9782    0.2221   12.9290 N   0  0  0  0  0  0  0  0  0  0  0  0
    7.2200    2.4885    9.1098 N   0  0  0  0  0  0  0  0  0  0  0  0
    3.7658    4.8796   11.7593 O   0  0  0  0  0  0  0  0  0  0  0  0
    2.9972    2.3995   12.9869 O   0  0  0  0  0  0  0  0  0  0  0  0
  1  2  1  0  0  0  0
  1 16  1  1  0  0  0
  2  3  1  0  0  0  0
  2 12  1  1  0  0  0
  4 11  1  1  0  0  0
  4  3  1  0  0  0  0
  5  4  1  0  0  0  0
  5 10  1  6  0  0  0
  6  7  1  0  0  0  0
  6  5  1  0  0  0  0
  6 14  1  6  0  0  0
  7  8  1  0  0  0  0
  7 13  1  6  0  0  0
  8 15  1  1  0  0  0
  8 11  1  0  0  0  0
  9 13  1  0  0  0  0
 10  1  1  0  0  0  0
 17 15  1  1  0  0  0
 17 18  1  0  0  0  0
 18 25  1  1  0  0  0
 19 18  1  0  0  0  0
 19 26  1  6  0  0  0
 20 19  1  0  0  0  0
 20 24  1  1  0  0  0
 21 23  1  0  0  0  0
 21 20  1  0  0  0  0
 21 22  1  6  0  0  0
 23 17  1  0  0  0  0
 27 22  1  0  0  0  0
 28 29  1  0  0  0  0
 28 16  1  6  0  0  0
 29 36  1  1  0  0  0
 30 37  1  6  0  0  0
 30 29  1  0  0  0  0
 31 30  1  0  0  0  0
 31 34  1  1  0  0  0
 32 31  1  0  0  0  0
 32 33  1  0  0  0  0
 33 28  1  0  0  0  0
 33 35  1  1  0  0  0
M  END
>  <CHROM.1>
-41.09164069,-107.93855066,162.18953867,-61.48722913,-64.84517440,-171.67930438
170.53317410,34.94052158,64.66628176,-177.02512277,58.56949718,-75.23913354
-65.21099282,-172.63108925,176.90747688,-173.41237035,1.83709374,6.56484991
8.78449597,-0.84699116,0.44882333,-0.76843130

>  <Name>
lig.pdb

>  <RI>
0

>  <Rbt.Current_Directory>
/home/itssahil/PROJECTS/Mol_Feturizer/New_Systems/rnas/2m4q

>  <Rbt.Executable>
rbdock ($Id: //depot/dev/client3/rdock/2013.1/src/exe/rbdock.cxx#4 $)

>  <Rbt.Library>
libRbt.so (2013.1, Build901 2013/11/27)

>  <Rbt.Parameter_File>
/export/apps/rDock/src/rDock_2013.1_src/data/scripts/dock_solv.prm

>  <Rbt.Receptor>
prm/pocket_docking_6.prm

>  <SCORE>
-44.7038

>  <SCORE.INTER>
-30.5247

>  <SCORE.INTER.CONST>
1

>  <SCORE.INTER.POLAR>
-5.18251

>  <SCORE.INTER.ROT>
10

>  <SCORE.INTER.SOLV>
17.1402

>  <SCORE.INTER.VDW>
-19.0549

>  <SCORE.INTER.norm>
-0.824992

>  <SCORE.INTRA>
-14.1791

>  <SCORE.INTRA.DIHEDRAL>
-31.4827

>  <SCORE.INTRA.DIHEDRAL.0>
44.8331

>  <SCORE.INTRA.POLAR>
-0.0313605

>  <SCORE.INTRA.POLAR.0>
-0.108895

>  <SCORE.INTRA.REPUL>
-0.00912235

>  <SCORE.INTRA.REPUL.0>
0.00912235

>  <SCORE.INTRA.SOLV>
-0.518653

>  <SCORE.INTRA.SOLV.lig_0>
-53.9067

>  <SCORE.INTRA.VDW>
1.9738

>  <SCORE.INTRA.VDW.0>
-2.93492

>  <SCORE.INTRA.norm>
-0.383219

>  <SCORE.RESTR>
0

>  <SCORE.RESTR.CAVITY>
0

>  <SCORE.RESTR.norm>
0

>  <SCORE.SYSTEM>
0

>  <SCORE.SYSTEM.CONST>
0

>  <SCORE.SYSTEM.DIHEDRAL>
0

>  <SCORE.SYSTEM.SOLV>
0

>  <SCORE.SYSTEM.norm>
0

>  <SCORE.heavy>
37

>  <SCORE.norm>
-1.20821

>  <RMSD>
10.146

$$$$
lig.pdb
 OpenBabel11021811453D
libRbt.so/2013.1/901 2013/11/27
 37 40  0  0  0  0  0  0  0  0999 V2000
   -0.9564    8.0696    8.0944 C   0  0  2  0  0  0  0  0  0  0  0  0
   -1.6912    9.1059    7.1815 C   0  0  1  0  0  0  0  0  0  0  0  0
   -2.0664   10.4223    7.9233 C   0  0  0  0  0  0  0  0  0  0  0  0
   -2.7715   10.1222    9.2693 C   0  0  1  0  0  0  0  0  0  0  0  0
   -1.8818    9.2031   10.1360 C   0  0  1  0  0  0  0  0  0  0  0  0
   -2.5440    8.9235   11.5119 C   0  0  1  0  0  0  0  0  0  0  0  0
   -2.9229   10.2547   12.2267 C   0  0  1  0  0  0  0  0  0  0  0  0
   -3.7491   11.1982   11.3030 C   0  0  2  0  0  0  0  0  0  0  0  0
   -2.7172    9.4946   14.5492 C   0  0  0  0  0  0  0  0  0  0  0  0
   -1.5740    7.9730    9.4189 O   0  0  0  0  0  0  0  0  0  0  0  0
   -3.1287   11.3378    9.9879 O   0  0  0  0  0  0  0  0  0  0  0  0
   -0.8504    9.4207    6.0062 N   0  0  0  0  0  0  0  0  0  0  0  0
   -3.6372    9.9445   13.4824 N   0  0  0  0  0  0  0  0  0  0  0  0
   -3.6740    8.0711   11.3775 O   0  0  0  0  0  0  0  0  0  0  0  0
   -3.9385   12.4957   11.9396 O   0  0  0  0  0  0  0  0  0  0  0  0
    0.4639    8.3866    8.2155 O   0  0  0  0  0  0  0  0  0  0  0  0
   -2.7991   13.4067   12.0171 C   0  0  2  0  0  0  0  0  0  0  0  0
   -3.0706   14.5534   13.0320 C   0  0  1  0  0  0  0  0  0  0  0  0
   -4.1394   15.5512   12.5010 C   0  0  2  0  0  0  0  0  0  0  0  0
   -3.7668   16.0712   11.0824 C   0  0  1  0  0  0  0  0  0  0  0  0
   -3.4701   14.8951   10.1107 C   0  0  1  0  0  0  0  0  0  0  0  0
   -2.9654   15.3975    8.7326 C   0  0  0  0  0  0  0  0  0  0  0  0
   -2.5060   13.9743   10.7056 O   0  0  0  0  0  0  0  0  0  0  0  0
   -4.8133   16.9667   10.5427 N   0  0  0  0  0  0  0  0  0  0  0  0
   -3.4311   14.0208   14.3052 O   0  0  0  0  0  0  0  0  0  0  0  0
   -4.3315   16.6323   13.4107 O   0  0  0  0  0  0  0  0  0  0  0  0
   -4.0488   15.8637    7.9349 O   0  0  0  0  0  0  0  0  0  0  0  0
    1.3312    7.3871    8.8260 C   0  0  1  0  0  0  0  0  0  0  0  0
    1.4935    7.6138   10.3552 C   0  0  1  0  0  0  0  0  0  0  0  0
    2.4972    6.5974   10.9689 C   0  0  2  0  0  0  0  0  0  0  0  0
    2.1235    5.1160   10.6375 C   0  0  1  0  0  0  0  0  0  0  0  0
    1.8232    4.8898    9.1254 C   0  0  0  0  0  0  0  0  0  0  0  0
    0.8302    5.9418    8.5458 C   0  0  2  0  0  0  0  0  0  0  0  0
    3.1755    4.1907   11.1099 N   0  0  0  0  0  0  0  0  0  0  0  0
    0.6395    5.6896    7.1011 N   0  0  0  0  0  0  0  0  0  0  0  0
    1.8972    8.9515   10.6291 O   0  0  0  0  0  0  0  0  0  0  0  0
    2.5945    6.7833   12.3788 O   0  0  0  0  0  0  0  0  0  0  0  0
  1  2  1  0  0  0  0
  1 16  1  1  0  0  0
  2  3  1  0  0  0  0
  2 12  1  6  0  0  0
  4 11  1  1  0  0  0
  4  3  1  0  0  0  0
  5  4  1  0  0  0  0
  5 10  1  6  0  0  0
  6  7  1  0  0  0  0
  6  5  1  0  0  0  0
  6 14  1  6  0  0  0
  7  8  1  0  0  0  0
  7 13  1  1  0  0  0
  8 15  1  1  0  0  0
  8 11  1  0  0  0  0
  9 13  1  0  0  0  0
 10  1  1  0  0  0  0
 17 15  1  6  0  0  0
 17 18  1  0  0  0  0
 18 25  1  1  0  0  0
 19 18  1  0  0  0  0
 19 26  1  1  0  0  0
 20 19  1  0  0  0  0
 20 24  1  6  0  0  0
 21 23  1  0  0  0  0
 21 20  1  0  0  0  0
 21 22  1  6  0  0  0
 23 17  1  0  0  0  0
 27 22  1  0  0  0  0
 28 29  1  0  0  0  0
 28 16  1  1  0  0  0
 29 36  1  6  0  0  0
 30 37  1  1  0  0  0
 30 29  1  0  0  0  0
 31 30  1  0  0  0  0
 31 34  1  6  0  0  0
 32 31  1  0  0  0  0
 32 33  1  0  0  0  0
 33 28  1  0  0  0  0
 33 35  1  6  0  0  0
M  END
>  <CHROM.1>
-139.78659764,73.49468959,76.54566419,58.66551005,-165.14411272,-168.96645017
75.23849891,63.34256484,-78.33100190,28.03816840,56.87592873,-92.85613703
-59.04167767,-57.85674391,-58.89532533,-160.66863474,-1.58861702,10.44111509
10.46783656,0.08365456,1.04136721,-1.45559540

>  <Name>
lig.pdb

>  <RI>
0

>  <Rbt.Current_Directory>
/home/itssahil/PROJECTS/Mol_Feturizer/New_Systems/rnas/2m4q

>  <Rbt.Executable>
rbdock ($Id: //depot/dev/client3/rdock/2013.1/src/exe/rbdock.cxx#4 $)

>  <Rbt.Library>
libRbt.so (2013.1, Build901 2013/11/27)

>  <Rbt.Parameter_File>
/export/apps/rDock/src/rDock_2013.1_src/data/scripts/dock_solv.prm

>  <Rbt.Receptor>
prm/pocket_docking_7.prm

>  <SCORE>
-43.4565

>  <SCORE.INTER>
-26.2797

>  <SCORE.INTER.CONST>
1

>  <SCORE.INTER.POLAR>
-4.3038

>  <SCORE.INTER.ROT>
10

>  <SCORE.INTER.SOLV>
14.3361

>  <SCORE.INTER.VDW>
-18.2192

>  <SCORE.INTER.norm>
-0.710264

>  <SCORE.INTRA>
-17.1767

>  <SCORE.INTRA.DIHEDRAL>
-30.8479

>  <SCORE.INTRA.DIHEDRAL.0>
44.8331

>  <SCORE.INTRA.POLAR>
-0.639111

>  <SCORE.INTRA.POLAR.0>
-0.108895

>  <SCORE.INTRA.REPUL>
-0.00912235

>  <SCORE.INTRA.REPUL.0>
0.00912235

>  <SCORE.INTRA.SOLV>
-1.35925

>  <SCORE.INTRA.SOLV.lig_0>
-53.9067

>  <SCORE.INTRA.VDW>
1.14544

>  <SCORE.INTRA.VDW.0>
-2.93492

>  <SCORE.INTRA.norm>
-0.464235

>  <SCORE.RESTR>
0

>  <SCORE.RESTR.CAVITY>
0

>  <SCORE.RESTR.norm>
0

>  <SCORE.SYSTEM>
0

>  <SCORE.SYSTEM.CONST>
0

>  <SCORE.SYSTEM.DIHEDRAL>
0

>  <SCORE.SYSTEM.SOLV>
0

>  <SCORE.SYSTEM.norm>
0

>  <SCORE.heavy>
37

>  <SCORE.norm>
-1.1745

>  <RMSD>
10.147

$$$$
lig.pdb
 OpenBabel11021811453D
libRbt.so/2013.1/901 2013/11/27
 37 40  0  0  0  0  0  0  0  0999 V2000
    1.1970    4.8331    9.8140 C   0  0  2  0  0  0  0  0  0  0  0  0
    0.7519    5.0558    8.3309 C   0  0  1  0  0  0  0  0  0  0  0  0
   -0.0016    6.4001    8.1098 C   0  0  0  0  0  0  0  0  0  0  0  0
   -1.1207    6.5918    9.1633 C   0  0  1  0  0  0  0  0  0  0  0  0
   -0.5273    6.4884   10.5861 C   0  0  1  0  0  0  0  0  0  0  0  0
   -1.6198    6.7235   11.6635 C   0  0  1  0  0  0  0  0  0  0  0  0
   -2.3683    8.0663   11.4119 C   0  0  1  0  0  0  0  0  0  0  0  0
   -2.8845    8.1807    9.9467 C   0  0  2  0  0  0  0  0  0  0  0  0
   -3.0361    8.9524   13.5988 C   0  0  0  0  0  0  0  0  0  0  0  0
    0.1462    5.2088   10.7625 O   0  0  0  0  0  0  0  0  0  0  0  0
   -1.8389    7.8462    8.9831 O   0  0  0  0  0  0  0  0  0  0  0  0
    1.9317    4.9957    7.4410 N   0  0  0  0  0  0  0  0  0  0  0  0
   -3.4614    8.2039   12.3963 N   0  0  0  0  0  0  0  0  0  0  0  0
   -2.5279    5.6311   11.7251 O   0  0  0  0  0  0  0  0  0  0  0  0
   -3.4255    9.5116    9.7003 O   0  0  0  0  0  0  0  0  0  0  0  0
    2.4320    5.5546   10.1084 O   0  0  0  0  0  0  0  0  0  0  0  0
   -2.5371   10.5349    9.1550 C   0  0  2  0  0  0  0  0  0  0  0  0
   -3.0886   11.9609    9.4397 C   0  0  1  0  0  0  0  0  0  0  0  0
   -4.3564   12.2677    8.5920 C   0  0  2  0  0  0  0  0  0  0  0  0
   -4.0974   12.0074    7.0796 C   0  0  1  0  0  0  0  0  0  0  0  0
   -3.5151   10.5858    6.8439 C   0  0  1  0  0  0  0  0  0  0  0  0
   -3.1244   10.3604    5.3597 C   0  0  0  0  0  0  0  0  0  0  0  0
   -2.3683   10.3544    7.7172 O   0  0  0  0  0  0  0  0  0  0  0  0
   -5.3191   12.2306    6.2757 N   0  0  0  0  0  0  0  0  0  0  0  0
   -3.3306   12.1353   10.8345 O   0  0  0  0  0  0  0  0  0  0  0  0
   -4.8137   13.6001    8.8132 O   0  0  0  0  0  0  0  0  0  0  0  0
   -4.2705   10.4283    4.5176 O   0  0  0  0  0  0  0  0  0  0  0  0
    3.6629    4.7801   10.2028 C   0  0  1  0  0  0  0  0  0  0  0  0
    3.4926    3.5249   11.1038 C   0  0  1  0  0  0  0  0  0  0  0  0
    4.8399    2.7670   11.2692 C   0  0  2  0  0  0  0  0  0  0  0  0
    5.4969    2.4117    9.8959 C   0  0  1  0  0  0  0  0  0  0  0  0
    5.5575    3.6251    8.9203 C   0  0  0  0  0  0  0  0  0  0  0  0
    4.1930    4.3683    8.8000 C   0  0  2  0  0  0  0  0  0  0  0  0
    6.8402    1.8259   10.0922 N   0  0  0  0  0  0  0  0  0  0  0  0
    4.3481    5.5321    7.9006 N   0  0  0  0  0  0  0  0  0  0  0  0
    2.9536    3.8813   12.3727 O   0  0  0  0  0  0  0  0  0  0  0  0
    4.6564    1.5907   12.0531 O   0  0  0  0  0  0  0  0  0  0  0  0
  1  2  1  0  0  0  0
  1 16  1  1  0  0  0
  2  3  1  0  0  0  0
  2 12  1  6  0  0  0
  4 11  1  1  0  0  0
  4  3  1  0  0  0  0
  5  4  1  0  0  0  0
  5 10  1  1  0  0  0
  6  7  1  0  0  0  0
  6  5  1  0  0  0  0
  6 14  1  6  0  0  0
  7  8  1  0  0  0  0
  7 13  1  1  0  0  0
  8 15  1  6  0  0  0
  8 11  1  0  0  0  0
  9 13  1  0  0  0  0
 10  1  1  0  0  0  0
 17 15  1  6  0  0  0
 17 18  1  0  0  0  0
 18 25  1  1  0  0  0
 19 18  1  0  0  0  0
 19 26  1  6  0  0  0
 20 19  1  0  0  0  0
 20 24  1  6  0  0  0
 21 23  1  0  0  0  0
 21 20  1  0  0  0  0
 21 22  1  6  0  0  0
 23 17  1  0  0  0  0
 27 22  1  0  0  0  0
 28 29  1  0  0  0  0
 28 16  1  6  0  0  0
 29 36  1  1  0  0  0
 30 37  1  6  0  0  0
 30 29  1  0  0  0  0
 31 30  1  0  0  0  0
 31 34  1  1  0  0  0
 32 31  1  0  0  0  0
 32 33  1  0  0  0  0
 33 28  1  0  0  0  0
 33 35  1  6  0  0  0
M  END
>  <CHROM.1>
-171.81319138,92.40375930,92.83753316,59.21139951,-159.17836152,-104.69328553
178.34903636,52.23208517,-63.40699741,84.54495337,-168.85018506,-48.07575232
61.69527092,-55.99761697,-76.31241111,34.97558099,-0.32755269,7.29649943
9.48443874,0.40572524,-0.68849670,1.91390024

>  <Name>
lig.pdb

>  <RI>
0

>  <Rbt.Current_Directory>
/home/itssahil/PROJECTS/Mol_Feturizer/New_Systems/rnas/2m4q

>  <Rbt.Executable>
rbdock ($Id: //depot/dev/client3/rdock/2013.1/src/exe/rbdock.cxx#4 $)

>  <Rbt.Library>
libRbt.so (2013.1, Build901 2013/11/27)

>  <Rbt.Parameter_File>
/export/apps/rDock/src/rDock_2013.1_src/data/scripts/dock_solv.prm

>  <Rbt.Receptor>
prm/pocket_docking_3.prm

>  <SCORE>
-44.7972

>  <SCORE.INTER>
-28.004

>  <SCORE.INTER.CONST>
1

>  <SCORE.INTER.POLAR>
-2.31674

>  <SCORE.INTER.ROT>
10

>  <SCORE.INTER.SOLV>
21.569

>  <SCORE.INTER.VDW>
-28.4032

>  <SCORE.INTER.norm>
-0.756864

>  <SCORE.INTRA>
-16.7932

>  <SCORE.INTRA.DIHEDRAL>
-27.1262

>  <SCORE.INTRA.DIHEDRAL.0>
44.8331

>  <SCORE.INTRA.POLAR>
-1.41026

>  <SCORE.INTRA.POLAR.0>
-0.108895

>  <SCORE.INTRA.REPUL>
-0.00912235

>  <SCORE.INTRA.REPUL.0>
0.00912235

>  <SCORE.INTRA.SOLV>
0.328583

>  <SCORE.INTRA.SOLV.lig_0>
-53.9067

>  <SCORE.INTRA.VDW>
1.44605

>  <SCORE.INTRA.VDW.0>
-2.93492

>  <SCORE.INTRA.norm>
-0.453871

>  <SCORE.RESTR>
0

>  <SCORE.RESTR.CAVITY>
0

>  <SCORE.RESTR.norm>
0

>  <SCORE.SYSTEM>
0

>  <SCORE.SYSTEM.CONST>
0

>  <SCORE.SYSTEM.DIHEDRAL>
0

>  <SCORE.SYSTEM.SOLV>
0

>  <SCORE.SYSTEM.norm>
0

>  <SCORE.heavy>
37

>  <SCORE.norm>
-1.21074

>  <RMSD>
10.168

$$$$
lig.pdb
 OpenBabel11021811453D
libRbt.so/2013.1/901 2013/11/27
 37 40  0  0  0  0  0  0  0  0999 V2000
    1.0579    4.9231   10.9639 C   0  0  2  0  0  0  0  0  0  0  0  0
   -0.2070    5.2363   10.0984 C   0  0  1  0  0  0  0  0  0  0  0  0
   -0.9570    6.5243   10.5483 C   0  0  0  0  0  0  0  0  0  0  0  0
   -1.1964    6.5242   12.0786 C   0  0  1  0  0  0  0  0  0  0  0  0
    0.1469    6.3476   12.8214 C   0  0  1  0  0  0  0  0  0  0  0  0
   -0.0575    6.3908   14.3596 C   0  0  1  0  0  0  0  0  0  0  0  0
   -0.8222    7.6804   14.7823 C   0  0  1  0  0  0  0  0  0  0  0  0
   -2.1307    7.8785   13.9608 C   0  0  2  0  0  0  0  0  0  0  0  0
    0.0340    8.2062   17.0193 C   0  0  0  0  0  0  0  0  0  0  0  0
    0.8053    5.1208   12.3929 O   0  0  0  0  0  0  0  0  0  0  0  0
   -1.8921    7.7225   12.5281 O   0  0  0  0  0  0  0  0  0  0  0  0
    0.1788    5.3579    8.6758 N   0  0  0  0  0  0  0  0  0  0  0  0
   -1.0827    7.6350   16.2360 N   0  0  0  0  0  0  0  0  0  0  0  0
   -0.7205    5.2225   14.8254 O   0  0  0  0  0  0  0  0  0  0  0  0
   -2.7283    9.1738   14.2601 O   0  0  0  0  0  0  0  0  0  0  0  0
    2.2030    5.7204   10.5330 O   0  0  0  0  0  0  0  0  0  0  0  0
   -3.7559    9.6917   13.3603 C   0  0  2  0  0  0  0  0  0  0  0  0
   -3.1758   10.7916   12.4263 C   0  0  1  0  0  0  0  0  0  0  0  0
   -2.8582   12.1000   13.2055 C   0  0  2  0  0  0  0  0  0  0  0  0
   -4.0938   12.5834   14.0189 C   0  0  1  0  0  0  0  0  0  0  0  0
   -4.6620   11.4449   14.9112 C   0  0  1  0  0  0  0  0  0  0  0  0
   -5.9730   11.8690   15.6237 C   0  0  0  0  0  0  0  0  0  0  0  0
   -4.8757   10.2367   14.1201 O   0  0  0  0  0  0  0  0  0  0  0  0
   -3.7780   13.7884   14.8168 N   0  0  0  0  0  0  0  0  0  0  0  0
   -2.0332   10.3029   11.7261 O   0  0  0  0  0  0  0  0  0  0  0  0
   -2.3890   13.1211   12.3278 O   0  0  0  0  0  0  0  0  0  0  0  0
   -6.4195   10.8504   16.5127 O   0  0  0  0  0  0  0  0  0  0  0  0
    3.4450    5.0175   10.2377 C   0  0  1  0  0  0  0  0  0  0  0  0
    3.7485    3.9084   11.2836 C   0  0  1  0  0  0  0  0  0  0  0  0
    5.1231    3.2373   11.0057 C   0  0  2  0  0  0  0  0  0  0  0  0
    5.2407    2.7030    9.5413 C   0  0  1  0  0  0  0  0  0  0  0  0
    4.8119    3.7552    8.4752 C   0  0  0  0  0  0  0  0  0  0  0  0
    3.4400    4.4180    8.8027 C   0  0  2  0  0  0  0  0  0  0  0  0
    6.6070    2.2064    9.2716 N   0  0  0  0  0  0  0  0  0  0  0  0
    3.1318    5.4365    7.7756 N   0  0  0  0  0  0  0  0  0  0  0  0
    3.6998    4.4326   12.6066 O   0  0  0  0  0  0  0  0  0  0  0  0
    5.3626    2.1878   11.9399 O   0  0  0  0  0  0  0  0  0  0  0  0
  1  2  1  0  0  0  0
  1 16  1  6  0  0  0
  2  3  1  0  0  0  0
  2 12  1  6  0  0  0
  4 11  1  1  0  0  0
  4  3  1  0  0  0  0
  5  4  1  0  0  0  0
  5 10  1  1  0  0  0
  6  7  1  0  0  0  0
  6  5  1  0  0  0  0
  6 14  1  6  0  0  0
  7  8  1  0  0  0  0
  7 13  1  1  0  0  0
  8 15  1  6  0  0  0
  8 11  1  0  0  0  0
  9 13  1  0  0  0  0
 10  1  1  0  0  0  0
 17 15  1  1  0  0  0
 17 18  1  0  0  0  0
 18 25  1  1  0  0  0
 19 18  1  0  0  0  0
 19 26  1  6  0  0  0
 20 19  1  0  0  0  0
 20 24  1  1  0  0  0
 21 23  1  0  0  0  0
 21 20  1  0  0  0  0
 21 22  1  6  0  0  0
 23 17  1  0  0  0  0
 27 22  1  0  0  0  0
 28 29  1  0  0  0  0
 28 16  1  1  0  0  0
 29 36  1  1  0  0  0
 30 37  1  1  0  0  0
 30 29  1  0  0  0  0
 31 30  1  0  0  0  0
 31 34  1  6  0  0  0
 32 31  1  0  0  0  0
 32 33  1  0  0  0  0
 33 28  1  0  0  0  0
 33 35  1  6  0  0  0
M  END
>  <CHROM.1>
165.33307762,164.68844447,87.99391155,-173.11613329,-102.76865956,-127.76441278
45.17645040,-57.59294587,-175.55509953,67.75809643,-175.85985279,-42.13788867
-177.84581753,-171.15769972,172.74534607,-62.28781320,-0.19473718,7.30413602
12.45663907,0.15223100,0.80984545,-1.24952455

>  <Name>
lig.pdb

>  <RI>
0

>  <Rbt.Current_Directory>
/home/itssahil/PROJECTS/Mol_Feturizer/New_Systems/rnas/2m4q

>  <Rbt.Executable>
rbdock ($Id: //depot/dev/client3/rdock/2013.1/src/exe/rbdock.cxx#4 $)

>  <Rbt.Library>
libRbt.so (2013.1, Build901 2013/11/27)

>  <Rbt.Parameter_File>
/export/apps/rDock/src/rDock_2013.1_src/data/scripts/dock_solv.prm

>  <Rbt.Receptor>
prm/pocket_docking_7.prm

>  <SCORE>
-44.7572

>  <SCORE.INTER>
-26.8448

>  <SCORE.INTER.CONST>
1

>  <SCORE.INTER.POLAR>
-3.63948

>  <SCORE.INTER.ROT>
10

>  <SCORE.INTER.SOLV>
12.1882

>  <SCORE.INTER.VDW>
-20.0943

>  <SCORE.INTER.norm>
-0.725535

>  <SCORE.INTRA>
-17.9124

>  <SCORE.INTRA.DIHEDRAL>
-25.7117

>  <SCORE.INTRA.DIHEDRAL.0>
44.8331

>  <SCORE.INTRA.POLAR>
-1.39295

>  <SCORE.INTRA.POLAR.0>
-0.108895

>  <SCORE.INTRA.REPUL>
-0.00912235

>  <SCORE.INTRA.REPUL.0>
0.00912235

>  <SCORE.INTRA.SOLV>
-0.520615

>  <SCORE.INTRA.SOLV.lig_0>
-53.9067

>  <SCORE.INTRA.VDW>
-0.0145707

>  <SCORE.INTRA.VDW.0>
-2.93492

>  <SCORE.INTRA.norm>
-0.484118

>  <SCORE.RESTR>
0

>  <SCORE.RESTR.CAVITY>
0

>  <SCORE.RESTR.norm>
0

>  <SCORE.SYSTEM>
0

>  <SCORE.SYSTEM.CONST>
0

>  <SCORE.SYSTEM.DIHEDRAL>
0

>  <SCORE.SYSTEM.SOLV>
0

>  <SCORE.SYSTEM.norm>
0

>  <SCORE.heavy>
37

>  <SCORE.norm>
-1.20965

>  <RMSD>
10.175

$$$$
lig.pdb
 OpenBabel11021811453D
libRbt.so/2013.1/901 2013/11/27
 37 40  0  0  0  0  0  0  0  0999 V2000
    4.6815    3.1296   15.2342 C   0  0  2  0  0  0  0  0  0  0  0  0
    3.1514    3.2783   15.5234 C   0  0  1  0  0  0  0  0  0  0  0  0
    2.3222    3.6688   14.2649 C   0  0  0  0  0  0  0  0  0  0  0  0
    2.9659    4.8662   13.5228 C   0  0  1  0  0  0  0  0  0  0  0  0
    4.4340    4.5388   13.1696 C   0  0  1  0  0  0  0  0  0  0  0  0
    5.0908    5.7047   12.3829 C   0  0  1  0  0  0  0  0  0  0  0  0
    4.2355    6.0861   11.1380 C   0  0  1  0  0  0  0  0  0  0  0  0
    2.7424    6.3301   11.5087 C   0  0  2  0  0  0  0  0  0  0  0  0
    4.4993    7.3241    9.0377 C   0  0  0  0  0  0  0  0  0  0  0  0
    5.1823    4.2039   14.3738 O   0  0  0  0  0  0  0  0  0  0  0  0
    2.2127    5.2493   12.3363 O   0  0  0  0  0  0  0  0  0  0  0  0
    2.6260    2.0183   16.0927 N   0  0  0  0  0  0  0  0  0  0  0  0
    4.8404    7.2599   10.4752 N   0  0  0  0  0  0  0  0  0  0  0  0
    5.3132    6.8321   13.2202 O   0  0  0  0  0  0  0  0  0  0  0  0
    1.9428    6.5153   10.3042 O   0  0  0  0  0  0  0  0  0  0  0  0
    4.9841    1.8256   14.6505 O   0  0  0  0  0  0  0  0  0  0  0  0
    1.0145    5.4569    9.9145 C   0  0  2  0  0  0  0  0  0  0  0  0
    0.9061    5.3526    8.3666 C   0  0  1  0  0  0  0  0  0  0  0  0
    0.1509    6.5693    7.7590 C   0  0  2  0  0  0  0  0  0  0  0  0
   -1.2270    6.7781    8.4516 C   0  0  1  0  0  0  0  0  0  0  0  0
   -1.0772    6.8419    9.9972 C   0  0  1  0  0  0  0  0  0  0  0  0
   -2.4539    6.9128   10.7087 C   0  0  0  0  0  0  0  0  0  0  0  0
   -0.3076    5.6997   10.4815 O   0  0  0  0  0  0  0  0  0  0  0  0
   -1.9202    7.9749    7.9264 N   0  0  0  0  0  0  0  0  0  0  0  0
    2.1976    5.1876    7.7839 O   0  0  0  0  0  0  0  0  0  0  0  0
    0.0010    6.4299    6.3478 O   0  0  0  0  0  0  0  0  0  0  0  0
   -2.2991    6.8350   12.1219 O   0  0  0  0  0  0  0  0  0  0  0  0
    5.7814    1.7980   13.4309 C   0  0  1  0  0  0  0  0  0  0  0  0
    7.1957    1.2006   13.6739 C   0  0  1  0  0  0  0  0  0  0  0  0
    8.0621    1.2694   12.3848 C   0  0  2  0  0  0  0  0  0  0  0  0
    7.3559    0.6100   11.1557 C   0  0  1  0  0  0  0  0  0  0  0  0
    5.8864    1.0930   10.9691 C   0  0  0  0  0  0  0  0  0  0  0  0
    5.0600    1.0275   12.2888 C   0  0  2  0  0  0  0  0  0  0  0  0
    8.1415    0.8239    9.9216 N   0  0  0  0  0  0  0  0  0  0  0  0
    3.6988    1.5492   12.0394 N   0  0  0  0  0  0  0  0  0  0  0  0
    7.8453    1.8602   14.7557 O   0  0  0  0  0  0  0  0  0  0  0  0
    9.3358    0.6701   12.6084 O   0  0  0  0  0  0  0  0  0  0  0  0
  1  2  1  0  0  0  0
  1 16  1  6  0  0  0
  2  3  1  0  0  0  0
  2 12  1  6  0  0  0
  4 11  1  6  0  0  0
  4  3  1  0  0  0  0
  5  4  1  0  0  0  0
  5 10  1  1  0  0  0
  6  7  1  0  0  0  0
  6  5  1  0  0  0  0
  6 14  1  1  0  0  0
  7  8  1  0  0  0  0
  7 13  1  1  0  0  0
  8 15  1  6  0  0  0
  8 11  1  0  0  0  0
  9 13  1  0  0  0  0
 10  1  1  0  0  0  0
 17 15  1  6  0  0  0
 17 18  1  0  0  0  0
 18 25  1  6  0  0  0
 19 18  1  0  0  0  0
 19 26  1  6  0  0  0
 20 19  1  0  0  0  0
 20 24  1  6  0  0  0
 21 23  1  0  0  0  0
 21 20  1  0  0  0  0
 21 22  1  1  0  0  0
 23 17  1  0  0  0  0
 27 22  1  0  0  0  0
 28 29  1  0  0  0  0
 28 16  1  1  0  0  0
 29 36  1  1  0  0  0
 30 37  1  1  0  0  0
 30 29  1  0  0  0  0
 31 30  1  0  0  0  0
 31 34  1  6  0  0  0
 32 31  1  0  0  0  0
 32 33  1  0  0  0  0
 33 28  1  0  0  0  0
 33 35  1  6  0  0  0
M  END
>  <CHROM.1>
179.34789294,108.81638289,154.59557111,56.97274181,-146.12903551,129.36818912
-179.54126535,-65.69502928,174.15703391,146.81308108,-172.29325610,111.08395761
-59.53198335,-61.28081054,-178.21728268,165.65137499,3.36248533,4.36343537
11.61692052,0.56529779,-0.50994394,1.80335137

>  <Name>
lig.pdb

>  <RI>
2.86754e+07

>  <Rbt.Current_Directory>
/home/itssahil/PROJECTS/Mol_Feturizer/New_Systems/rnas/2m4q

>  <Rbt.Executable>
rbdock ($Id: //depot/dev/client3/rdock/2013.1/src/exe/rbdock.cxx#4 $)

>  <Rbt.Library>
libRbt.so (2013.1, Build901 2013/11/27)

>  <Rbt.Parameter_File>
/export/apps/rDock/src/rDock_2013.1_src/data/scripts/dock_solv.prm

>  <Rbt.Receptor>
prm/pocket_docking_5.prm

>  <SCORE>
-43.2734

>  <SCORE.INTER>
-34.6493

>  <SCORE.INTER.CONST>
1

>  <SCORE.INTER.POLAR>
-5.8638

>  <SCORE.INTER.ROT>
10

>  <SCORE.INTER.SOLV>
15.9355

>  <SCORE.INTER.VDW>
-19.132

>  <SCORE.INTER.norm>
-0.936467

>  <SCORE.INTRA>
-8.62416

>  <SCORE.INTRA.DIHEDRAL>
-16.8

>  <SCORE.INTRA.DIHEDRAL.0>
44.8331

>  <SCORE.INTRA.POLAR>
0.0898668

>  <SCORE.INTRA.POLAR.0>
-0.108895

>  <SCORE.INTRA.REPUL>
-0.00597549

>  <SCORE.INTRA.REPUL.0>
0.00912235

>  <SCORE.INTRA.SOLV>
-1.17661

>  <SCORE.INTRA.SOLV.lig_0>
-53.9067

>  <SCORE.INTRA.VDW>
0.0884566

>  <SCORE.INTRA.VDW.0>
-2.93492

>  <SCORE.INTRA.norm>
-0.233085

>  <SCORE.RESTR>
0

>  <SCORE.RESTR.CAVITY>
0

>  <SCORE.RESTR.norm>
0

>  <SCORE.SYSTEM>
0

>  <SCORE.SYSTEM.CONST>
0

>  <SCORE.SYSTEM.DIHEDRAL>
0

>  <SCORE.SYSTEM.SOLV>
0

>  <SCORE.SYSTEM.norm>
0

>  <SCORE.heavy>
37

>  <SCORE.norm>
-1.16955

>  <RMSD>
10.185

$$$$
lig.pdb
 OpenBabel11021811453D
libRbt.so/2013.1/901 2013/11/27
 37 40  0  0  0  0  0  0  0  0999 V2000
    4.5763    5.1625    8.2037 C   0  0  2  0  0  0  0  0  0  0  0  0
    4.8081    6.5872    7.6008 C   0  0  1  0  0  0  0  0  0  0  0  0
    3.9228    7.6856    8.2593 C   0  0  0  0  0  0  0  0  0  0  0  0
    2.4412    7.2394    8.3297 C   0  0  1  0  0  0  0  0  0  0  0  0
    2.3333    5.8881    9.0710 C   0  0  1  0  0  0  0  0  0  0  0  0
    0.8527    5.4391    9.1975 C   0  0  1  0  0  0  0  0  0  0  0  0
   -0.0141    6.5598    9.8450 C   0  0  1  0  0  0  0  0  0  0  0  0
    0.1761    7.9307    9.1304 C   0  0  2  0  0  0  0  0  0  0  0  0
   -2.1829    6.7372   10.9758 C   0  0  0  0  0  0  0  0  0  0  0  0
    3.1540    4.8813    8.4113 O   0  0  0  0  0  0  0  0  0  0  0  0
    1.5904    8.2474    8.9477 O   0  0  0  0  0  0  0  0  0  0  0  0
    6.2345    6.9571    7.7276 N   0  0  0  0  0  0  0  0  0  0  0  0
   -1.4287    6.1330    9.8564 N   0  0  0  0  0  0  0  0  0  0  0  0
    0.3243    5.0413    7.9389 O   0  0  0  0  0  0  0  0  0  0  0  0
   -0.5125    8.9861    9.8627 O   0  0  0  0  0  0  0  0  0  0  0  0
    5.3177    4.9896    9.4499 O   0  0  0  0  0  0  0  0  0  0  0  0
   -0.5378   10.3296    9.2896 C   0  0  2  0  0  0  0  0  0  0  0  0
   -0.2044   11.4011   10.3663 C   0  0  1  0  0  0  0  0  0  0  0  0
   -1.3579   11.5590   11.3980 C   0  0  2  0  0  0  0  0  0  0  0  0
   -2.7174   11.8164   10.6856 C   0  0  1  0  0  0  0  0  0  0  0  0
   -2.9944   10.7440    9.5952 C   0  0  1  0  0  0  0  0  0  0  0  0
   -4.2776   11.0630    8.7840 C   0  0  0  0  0  0  0  0  0  0  0  0
   -1.8441   10.6137    8.7057 O   0  0  0  0  0  0  0  0  0  0  0  0
   -3.8299   11.8985   11.6572 N   0  0  0  0  0  0  0  0  0  0  0  0
    1.0367   11.1025   11.0029 O   0  0  0  0  0  0  0  0  0  0  0  0
   -1.0684   12.5892   12.3405 O   0  0  0  0  0  0  0  0  0  0  0  0
   -5.4357   10.9616    9.6062 O   0  0  0  0  0  0  0  0  0  0  0  0
    5.0658    3.7820   10.2259 C   0  0  1  0  0  0  0  0  0  0  0  0
    6.0291    2.6269    9.8334 C   0  0  1  0  0  0  0  0  0  0  0  0
    5.6810    1.3213   10.6025 C   0  0  2  0  0  0  0  0  0  0  0  0
    5.6314    1.5361   12.1501 C   0  0  1  0  0  0  0  0  0  0  0  0
    4.7788    2.7727   12.5641 C   0  0  0  0  0  0  0  0  0  0  0  0
    5.1451    4.0534   11.7551 C   0  0  2  0  0  0  0  0  0  0  0  0
    5.1557    0.3150   12.8348 N   0  0  0  0  0  0  0  0  0  0  0  0
    4.2596    5.1631   12.1696 N   0  0  0  0  0  0  0  0  0  0  0  0
    6.0087    2.4061    8.4268 O   0  0  0  0  0  0  0  0  0  0  0  0
    6.6050    0.2876   10.2721 O   0  0  0  0  0  0  0  0  0  0  0  0
  1  2  1  0  0  0  0
  1 16  1  1  0  0  0
  2  3  1  0  0  0  0
  2 12  1  1  0  0  0
  4 11  1  1  0  0  0
  4  3  1  0  0  0  0
  5  4  1  0  0  0  0
  5 10  1  6  0  0  0
  6  7  1  0  0  0  0
  6  5  1  0  0  0  0
  6 14  1  6  0  0  0
  7  8  1  0  0  0  0
  7 13  1  6  0  0  0
  8 15  1  1  0  0  0
  8 11  1  0  0  0  0
  9 13  1  0  0  0  0
 10  1  1  0  0  0  0
 17 15  1  1  0  0  0
 17 18  1  0  0  0  0
 18 25  1  1  0  0  0
 19 18  1  0  0  0  0
 19 26  1  1  0  0  0
 20 19  1  0  0  0  0
 20 24  1  1  0  0  0
 21 23  1  0  0  0  0
 21 20  1  0  0  0  0
 21 22  1  6  0  0  0
 23 17  1  0  0  0  0
 27 22  1  0  0  0  0
 28 29  1  0  0  0  0
 28 16  1  6  0  0  0
 29 36  1  6  0  0  0
 30 37  1  1  0  0  0
 30 29  1  0  0  0  0
 31 30  1  0  0  0  0
 31 34  1  1  0  0  0
 32 31  1  0  0  0  0
 32 33  1  0  0  0  0
 33 28  1  0  0  0  0
 33 35  1  1  0  0  0
M  END
>  <CHROM.1>
175.29103968,-175.24221780,151.46312423,-178.14654491,-134.44381245,171.98693329
-59.12299396,63.90878118,-66.65559076,-51.95634239,-179.17632447,90.92056921
176.39907455,-63.26894204,-63.15492336,-55.74213638,1.66923969,6.84586923
9.92560861,-0.68755220,0.45343678,-0.49970528

>  <Name>
lig.pdb

>  <RI>
0

>  <Rbt.Current_Directory>
/home/itssahil/PROJECTS/Mol_Feturizer/New_Systems/rnas/2m4q

>  <Rbt.Executable>
rbdock ($Id: //depot/dev/client3/rdock/2013.1/src/exe/rbdock.cxx#4 $)

>  <Rbt.Library>
libRbt.so (2013.1, Build901 2013/11/27)

>  <Rbt.Parameter_File>
/export/apps/rDock/src/rDock_2013.1_src/data/scripts/dock_solv.prm

>  <Rbt.Receptor>
prm/pocket_docking_7.prm

>  <SCORE>
-37.1149

>  <SCORE.INTER>
-19.4704

>  <SCORE.INTER.CONST>
1

>  <SCORE.INTER.POLAR>
-3.31426

>  <SCORE.INTER.ROT>
10

>  <SCORE.INTER.SOLV>
16.6312

>  <SCORE.INTER.VDW>
-17.7431

>  <SCORE.INTER.norm>
-0.526227

>  <SCORE.INTRA>
-17.6445

>  <SCORE.INTRA.DIHEDRAL>
-32.2783

>  <SCORE.INTRA.DIHEDRAL.0>
44.8331

>  <SCORE.INTRA.POLAR>
-0.00362938

>  <SCORE.INTRA.POLAR.0>
-0.108895

>  <SCORE.INTRA.REPUL>
-0.00912235

>  <SCORE.INTRA.REPUL.0>
0.00912235

>  <SCORE.INTRA.SOLV>
-1.61479

>  <SCORE.INTRA.SOLV.lig_0>
-53.9067

>  <SCORE.INTRA.VDW>
-0.640045

>  <SCORE.INTRA.VDW.0>
-2.93492

>  <SCORE.INTRA.norm>
-0.476879

>  <SCORE.RESTR>
0

>  <SCORE.RESTR.CAVITY>
0

>  <SCORE.RESTR.norm>
0

>  <SCORE.SYSTEM>
0

>  <SCORE.SYSTEM.CONST>
0

>  <SCORE.SYSTEM.DIHEDRAL>
0

>  <SCORE.SYSTEM.SOLV>
0

>  <SCORE.SYSTEM.norm>
0

>  <SCORE.heavy>
37

>  <SCORE.norm>
-1.00311

>  <RMSD>
10.189

$$$$
lig.pdb
 OpenBabel11021811453D
libRbt.so/2013.1/901 2013/11/27
 37 40  0  0  0  0  0  0  0  0999 V2000
    1.6922    4.7362    9.7241 C   0  0  2  0  0  0  0  0  0  0  0  0
    1.2868    4.7258    8.2133 C   0  0  1  0  0  0  0  0  0  0  0  0
    0.4589    5.9744    7.7897 C   0  0  0  0  0  0  0  0  0  0  0  0
   -0.7066    6.2316    8.7769 C   0  0  1  0  0  0  0  0  0  0  0  0
   -0.1586    6.3617   10.2156 C   0  0  1  0  0  0  0  0  0  0  0  0
   -1.3012    6.6668   11.2212 C   0  0  1  0  0  0  0  0  0  0  0  0
   -2.1230    7.9100   10.7678 C   0  0  1  0  0  0  0  0  0  0  0  0
   -2.5932    7.7903    9.2876 C   0  0  2  0  0  0  0  0  0  0  0  0
   -2.8820    8.9276   12.8659 C   0  0  0  0  0  0  0  0  0  0  0  0
    0.5871    5.1657   10.5839 O   0  0  0  0  0  0  0  0  0  0  0  0
   -1.4953    7.3992    8.4071 O   0  0  0  0  0  0  0  0  0  0  0  0
    2.4988    4.6250    7.3717 N   0  0  0  0  0  0  0  0  0  0  0  0
   -3.2568    8.1062   11.6947 N   0  0  0  0  0  0  0  0  0  0  0  0
   -2.1406    5.5345   11.4082 O   0  0  0  0  0  0  0  0  0  0  0  0
   -3.2075    9.0363    8.8465 O   0  0  0  0  0  0  0  0  0  0  0  0
    2.8684    5.5720    9.9493 O   0  0  0  0  0  0  0  0  0  0  0  0
   -2.3451   10.0877    8.3129 C   0  0  2  0  0  0  0  0  0  0  0  0
   -2.3049   11.3141    9.2685 C   0  0  1  0  0  0  0  0  0  0  0  0
   -3.6542   12.0882    9.2688 C   0  0  2  0  0  0  0  0  0  0  0  0
   -4.0889   12.4599    7.8215 C   0  0  1  0  0  0  0  0  0  0  0  0
   -4.0818   11.2136    6.8930 C   0  0  1  0  0  0  0  0  0  0  0  0
   -4.3802   11.5903    5.4180 C   0  0  0  0  0  0  0  0  0  0  0  0
   -2.8066   10.5102    6.9950 O   0  0  0  0  0  0  0  0  0  0  0  0
   -5.4051   13.1352    7.8089 N   0  0  0  0  0  0  0  0  0  0  0  0
   -1.9258   10.9123   10.5836 O   0  0  0  0  0  0  0  0  0  0  0  0
   -3.5833   13.2463   10.0977 O   0  0  0  0  0  0  0  0  0  0  0  0
   -5.7012   12.1042    5.2831 O   0  0  0  0  0  0  0  0  0  0  0  0
    3.9690    5.0003   10.7146 C   0  0  1  0  0  0  0  0  0  0  0  0
    3.4915    4.4190   12.0748 C   0  0  1  0  0  0  0  0  0  0  0  0
    4.6926    3.9024   12.9160 C   0  0  2  0  0  0  0  0  0  0  0  0
    5.5786    2.8838   12.1277 C   0  0  1  0  0  0  0  0  0  0  0  0
    5.9604    3.3870   10.7033 C   0  0  0  0  0  0  0  0  0  0  0  0
    4.7318    3.9150    9.9030 C   0  0  2  0  0  0  0  0  0  0  0  0
    6.7867    2.5288   12.9025 N   0  0  0  0  0  0  0  0  0  0  0  0
    5.1851    4.4195    8.5887 N   0  0  0  0  0  0  0  0  0  0  0  0
    2.7421    5.3856   12.8038 O   0  0  0  0  0  0  0  0  0  0  0  0
    4.2343    3.3246   14.1357 O   0  0  0  0  0  0  0  0  0  0  0  0
  1  2  1  0  0  0  0
  1 16  1  6  0  0  0
  2  3  1  0  0  0  0
  2 12  1  6  0  0  0
  4 11  1  6  0  0  0
  4  3  1  0  0  0  0
  5  4  1  0  0  0  0
  5 10  1  1  0  0  0
  6  7  1  0  0  0  0
  6  5  1  0  0  0  0
  6 14  1  6  0  0  0
  7  8  1  0  0  0  0
  7 13  1  1  0  0  0
  8 15  1  6  0  0  0
  8 11  1  0  0  0  0
  9 13  1  0  0  0  0
 10  1  1  0  0  0  0
 17 15  1  1  0  0  0
 17 18  1  0  0  0  0
 18 25  1  1  0  0  0
 19 18  1  0  0  0  0
 19 26  1  1  0  0  0
 20 19  1  0  0  0  0
 20 24  1  1  0  0  0
 21 23  1  0  0  0  0
 21 20  1  0  0  0  0
 21 22  1  6  0  0  0
 23 17  1  0  0  0  0
 27 22  1  0  0  0  0
 28 29  1  0  0  0  0
 28 16  1  6  0  0  0
 29 36  1  1  0  0  0
 30 37  1  1  0  0  0
 30 29  1  0  0  0  0
 31 30  1  0  0  0  0
 31 34  1  1  0  0  0
 32 31  1  0  0  0  0
 32 33  1  0  0  0  0
 33 28  1  0  0  0  0
 33 35  1  6  0  0  0
M  END
>  <CHROM.1>
-48.25599997,86.31320932,87.09414770,-170.49688278,-111.92107160,-130.14673324
64.17231161,-177.15743496,-64.76760906,76.58819280,-170.39533515,-52.45333960
65.29101105,-65.64226922,-71.26266353,14.51111599,-0.12361409,7.40680413
9.78431783,-0.34311608,0.71283530,-1.48446203

>  <Name>
lig.pdb

>  <RI>
0

>  <Rbt.Current_Directory>
/home/itssahil/PROJECTS/Mol_Feturizer/New_Systems/rnas/2m4q

>  <Rbt.Executable>
rbdock ($Id: //depot/dev/client3/rdock/2013.1/src/exe/rbdock.cxx#4 $)

>  <Rbt.Library>
libRbt.so (2013.1, Build901 2013/11/27)

>  <Rbt.Parameter_File>
/export/apps/rDock/src/rDock_2013.1_src/data/scripts/dock_solv.prm

>  <Rbt.Receptor>
prm/pocket_docking_2.prm

>  <SCORE>
-43.3712

>  <SCORE.INTER>
-26.1447

>  <SCORE.INTER.CONST>
1

>  <SCORE.INTER.POLAR>
-3.07326

>  <SCORE.INTER.ROT>
10

>  <SCORE.INTER.SOLV>
15.5737

>  <SCORE.INTER.VDW>
-22.6435

>  <SCORE.INTER.norm>
-0.706614

>  <SCORE.INTRA>
-18.246

>  <SCORE.INTRA.DIHEDRAL>
-22.4018

>  <SCORE.INTRA.DIHEDRAL.0>
44.8331

>  <SCORE.INTRA.POLAR>
-2.16215

>  <SCORE.INTRA.POLAR.0>
-0.108895

>  <SCORE.INTRA.REPUL>
-0.00912235

>  <SCORE.INTRA.REPUL.0>
0.00912235

>  <SCORE.INTRA.SOLV>
0.936155

>  <SCORE.INTRA.SOLV.lig_0>
-53.9067

>  <SCORE.INTRA.VDW>
-0.11624

>  <SCORE.INTRA.VDW.0>
-2.93492

>  <SCORE.INTRA.norm>
-0.493135

>  <SCORE.RESTR>
1.0195

>  <SCORE.RESTR.CAVITY>
1.0195

>  <SCORE.RESTR.norm>
0.027554

>  <SCORE.SYSTEM>
0

>  <SCORE.SYSTEM.CONST>
0

>  <SCORE.SYSTEM.DIHEDRAL>
0

>  <SCORE.SYSTEM.SOLV>
0

>  <SCORE.SYSTEM.norm>
0

>  <SCORE.heavy>
37

>  <SCORE.norm>
-1.17219

>  <RMSD>
10.201

$$$$
lig.pdb
 OpenBabel11021811453D
libRbt.so/2013.1/901 2013/11/27
 37 40  0  0  0  0  0  0  0  0999 V2000
   -1.5356    7.7617    9.7333 C   0  0  2  0  0  0  0  0  0  0  0  0
   -2.0302    8.6009    8.5093 C   0  0  1  0  0  0  0  0  0  0  0  0
   -2.2847   10.0981    8.8522 C   0  0  0  0  0  0  0  0  0  0  0  0
   -3.1469   10.2383   10.1312 C   0  0  1  0  0  0  0  0  0  0  0  0
   -2.4789    9.4822   11.3015 C   0  0  1  0  0  0  0  0  0  0  0  0
   -3.2986    9.6450   12.6097 C   0  0  1  0  0  0  0  0  0  0  0  0
   -3.5524   11.1498   12.9226 C   0  0  1  0  0  0  0  0  0  0  0  0
   -4.1491   11.9074   11.6994 C   0  0  2  0  0  0  0  0  0  0  0  0
   -3.6464   11.1403   15.3731 C   0  0  0  0  0  0  0  0  0  0  0  0
   -2.2810    8.0818   10.9528 O   0  0  0  0  0  0  0  0  0  0  0  0
   -3.3957   11.6308   10.4788 O   0  0  0  0  0  0  0  0  0  0  0  0
   -1.0480    8.5040    7.4077 N   0  0  0  0  0  0  0  0  0  0  0  0
   -4.4166   11.2579   14.1161 N   0  0  0  0  0  0  0  0  0  0  0  0
   -4.5194    8.9186   12.5480 O   0  0  0  0  0  0  0  0  0  0  0  0
   -4.2133   13.3384   11.9691 O   0  0  0  0  0  0  0  0  0  0  0  0
   -0.1023    7.9386    9.9502 O   0  0  0  0  0  0  0  0  0  0  0  0
   -2.9614   14.0805   12.0959 C   0  0  2  0  0  0  0  0  0  0  0  0
   -3.2305   15.6033   12.2608 C   0  0  1  0  0  0  0  0  0  0  0  0
   -3.7548   16.2414   10.9425 C   0  0  2  0  0  0  0  0  0  0  0  0
   -2.8118   15.9171    9.7477 C   0  0  1  0  0  0  0  0  0  0  0  0
   -2.5420   14.3903    9.6407 C   0  0  1  0  0  0  0  0  0  0  0  0
   -1.4975   14.0638    8.5412 C   0  0  0  0  0  0  0  0  0  0  0  0
   -2.1127   13.8577   10.9304 O   0  0  0  0  0  0  0  0  0  0  0  0
   -3.3406   16.4623    8.4782 N   0  0  0  0  0  0  0  0  0  0  0  0
   -4.1182   15.8400   13.3519 O   0  0  0  0  0  0  0  0  0  0  0  0
   -3.9353   17.6484   11.0876 O   0  0  0  0  0  0  0  0  0  0  0  0
   -0.2177   14.5830    8.8872 O   0  0  0  0  0  0  0  0  0  0  0  0
    0.8095    7.1838    9.1000 C   0  0  1  0  0  0  0  0  0  0  0  0
    2.2962    7.5400    9.3812 C   0  0  1  0  0  0  0  0  0  0  0  0
    3.2457    6.7973    8.3994 C   0  0  2  0  0  0  0  0  0  0  0  0
    3.0091    5.2520    8.3953 C   0  0  1  0  0  0  0  0  0  0  0  0
    1.5059    4.8686    8.2495 C   0  0  0  0  0  0  0  0  0  0  0  0
    0.5878    5.6506    9.2365 C   0  0  2  0  0  0  0  0  0  0  0  0
    3.8233    4.5988    7.3482 N   0  0  0  0  0  0  0  0  0  0  0  0
   -0.8214    5.2693    8.9993 N   0  0  0  0  0  0  0  0  0  0  0  0
    2.5011    8.9476    9.3155 O   0  0  0  0  0  0  0  0  0  0  0  0
    4.6065    7.0923    8.7040 O   0  0  0  0  0  0  0  0  0  0  0  0
  1  2  1  0  0  0  0
  1 16  1  1  0  0  0
  2  3  1  0  0  0  0
  2 12  1  6  0  0  0
  4 11  1  1  0  0  0
  4  3  1  0  0  0  0
  5  4  1  0  0  0  0
  5 10  1  6  0  0  0
  6  7  1  0  0  0  0
  6  5  1  0  0  0  0
  6 14  1  6  0  0  0
  7  8  1  0  0  0  0
  7 13  1  1  0  0  0
  8 15  1  1  0  0  0
  8 11  1  0  0  0  0
  9 13  1  0  0  0  0
 10  1  1  0  0  0  0
 17 15  1  6  0  0  0
 17 18  1  0  0  0  0
 18 25  1  1  0  0  0
 19 18  1  0  0  0  0
 19 26  1  1  0  0  0
 20 19  1  0  0  0  0
 20 24  1  6  0  0  0
 21 23  1  0  0  0  0
 21 20  1  0  0  0  0
 21 22  1  6  0  0  0
 23 17  1  0  0  0  0
 27 22  1  0  0  0  0
 28 29  1  0  0  0  0
 28 16  1  1  0  0  0
 29 36  1  6  0  0  0
 30 37  1  1  0  0  0
 30 29  1  0  0  0  0
 31 30  1  0  0  0  0
 31 34  1  6  0  0  0
 32 31  1  0  0  0  0
 32 33  1  0  0  0  0
 33 28  1  0  0  0  0
 33 35  1  6  0  0  0
M  END
>  <CHROM.1>
52.67245872,67.44477701,82.49625012,65.02990953,175.17786626,-79.61982448
173.48039776,-72.16445985,66.08515071,-57.02449763,57.25508709,176.31590191
-62.71382624,-54.14560750,-64.52271047,138.47582536,-1.48280586,10.62419782
10.31459569,0.82544428,-0.71828463,2.91717129

>  <Name>
lig.pdb

>  <RI>
0

>  <Rbt.Current_Directory>
/home/itssahil/PROJECTS/Mol_Feturizer/New_Systems/rnas/2m4q

>  <Rbt.Executable>
rbdock ($Id: //depot/dev/client3/rdock/2013.1/src/exe/rbdock.cxx#4 $)

>  <Rbt.Library>
libRbt.so (2013.1, Build901 2013/11/27)

>  <Rbt.Parameter_File>
/export/apps/rDock/src/rDock_2013.1_src/data/scripts/dock_solv.prm

>  <Rbt.Receptor>
prm/pocket_docking_6.prm

>  <SCORE>
-42.7442

>  <SCORE.INTER>
-27.324

>  <SCORE.INTER.CONST>
1

>  <SCORE.INTER.POLAR>
-4.65491

>  <SCORE.INTER.ROT>
10

>  <SCORE.INTER.SOLV>
14.3818

>  <SCORE.INTER.VDW>
-17.7602

>  <SCORE.INTER.norm>
-0.738487

>  <SCORE.INTRA>
-15.4202

>  <SCORE.INTRA.DIHEDRAL>
-37.9441

>  <SCORE.INTRA.DIHEDRAL.0>
44.8331

>  <SCORE.INTRA.POLAR>
0.0911566

>  <SCORE.INTRA.POLAR.0>
-0.108895

>  <SCORE.INTRA.REPUL>
0.0657914

>  <SCORE.INTRA.REPUL.0>
0.00912235

>  <SCORE.INTRA.SOLV>
-0.310014

>  <SCORE.INTRA.SOLV.lig_0>
-53.9067

>  <SCORE.INTRA.VDW>
3.068

>  <SCORE.INTRA.VDW.0>
-2.93492

>  <SCORE.INTRA.norm>
-0.416762

>  <SCORE.RESTR>
0

>  <SCORE.RESTR.CAVITY>
0

>  <SCORE.RESTR.norm>
0

>  <SCORE.SYSTEM>
0

>  <SCORE.SYSTEM.CONST>
0

>  <SCORE.SYSTEM.DIHEDRAL>
0

>  <SCORE.SYSTEM.SOLV>
0

>  <SCORE.SYSTEM.norm>
0

>  <SCORE.heavy>
37

>  <SCORE.norm>
-1.15525

>  <RMSD>
10.202

$$$$
lig.pdb
 OpenBabel11021811453D
libRbt.so/2013.1/901 2013/11/27
 37 40  0  0  0  0  0  0  0  0999 V2000
   -0.8833    7.0285    7.9108 C   0  0  2  0  0  0  0  0  0  0  0  0
   -1.7614    7.6846    6.7948 C   0  0  1  0  0  0  0  0  0  0  0  0
   -2.1583    9.1566    7.1098 C   0  0  0  0  0  0  0  0  0  0  0  0
   -2.7233    9.2865    8.5461 C   0  0  1  0  0  0  0  0  0  0  0  0
   -1.7030    8.7316    9.5651 C   0  0  1  0  0  0  0  0  0  0  0  0
   -2.2242    8.8921   11.0185 C   0  0  1  0  0  0  0  0  0  0  0  0
   -2.6281   10.3693   11.3039 C   0  0  1  0  0  0  0  0  0  0  0  0
   -3.5919   10.9309   10.2167 C   0  0  2  0  0  0  0  0  0  0  0  0
   -2.1692   10.4834   13.7102 C   0  0  0  0  0  0  0  0  0  0  0  0
   -1.3767    7.3467    9.2526 O   0  0  0  0  0  0  0  0  0  0  0  0
   -3.0977   10.6565    8.8698 O   0  0  0  0  0  0  0  0  0  0  0  0
   -1.0477    7.6289    5.5005 N   0  0  0  0  0  0  0  0  0  0  0  0
   -3.2094   10.4598   12.6592 N   0  0  0  0  0  0  0  0  0  0  0  0
   -3.3021    8.0031   11.2818 O   0  0  0  0  0  0  0  0  0  0  0  0
   -3.8118   12.3575   10.4196 O   0  0  0  0  0  0  0  0  0  0  0  0
    0.5179    7.4175    7.7769 O   0  0  0  0  0  0  0  0  0  0  0  0
   -2.9395   13.3025    9.7269 C   0  0  2  0  0  0  0  0  0  0  0  0
   -3.3143   14.7696   10.0812 C   0  0  1  0  0  0  0  0  0  0  0  0
   -4.6717   15.1866    9.4460 C   0  0  2  0  0  0  0  0  0  0  0  0
   -4.6841   14.9095    7.9147 C   0  0  1  0  0  0  0  0  0  0  0  0
   -4.2707   13.4440    7.6036 C   0  0  1  0  0  0  0  0  0  0  0  0
   -4.1459   13.1903    6.0783 C   0  0  0  0  0  0  0  0  0  0  0  0
   -3.0216   13.1124    8.2827 O   0  0  0  0  0  0  0  0  0  0  0  0
   -5.9962   15.2391    7.3162 N   0  0  0  0  0  0  0  0  0  0  0  0
   -3.3117   14.9600   11.4948 O   0  0  0  0  0  0  0  0  0  0  0  0
   -4.9721   16.5527    9.7236 O   0  0  0  0  0  0  0  0  0  0  0  0
   -5.4261   13.2053    5.4553 O   0  0  0  0  0  0  0  0  0  0  0  0
    1.4821    6.7966    8.6763 C   0  0  1  0  0  0  0  0  0  0  0  0
    1.5406    7.5164   10.0529 C   0  0  1  0  0  0  0  0  0  0  0  0
    2.6418    6.9001   10.9610 C   0  0  2  0  0  0  0  0  0  0  0  0
    2.4864    5.3528   11.1204 C   0  0  1  0  0  0  0  0  0  0  0  0
    2.2904    4.6192    9.7598 C   0  0  0  0  0  0  0  0  0  0  0  0
    1.1933    5.2812    8.8727 C   0  0  2  0  0  0  0  0  0  0  0  0
    3.6298    4.7841   11.8655 N   0  0  0  0  0  0  0  0  0  0  0  0
    1.1061    4.5603    7.5842 N   0  0  0  0  0  0  0  0  0  0  0  0
    1.7478    8.9151    9.8849 O   0  0  0  0  0  0  0  0  0  0  0  0
    2.6472    7.5346   12.2373 O   0  0  0  0  0  0  0  0  0  0  0  0
  1  2  1  0  0  0  0
  1 16  1  1  0  0  0
  2  3  1  0  0  0  0
  2 12  1  6  0  0  0
  4 11  1  1  0  0  0
  4  3  1  0  0  0  0
  5  4  1  0  0  0  0
  5 10  1  6  0  0  0
  6  7  1  0  0  0  0
  6  5  1  0  0  0  0
  6 14  1  6  0  0  0
  7  8  1  0  0  0  0
  7 13  1  1  0  0  0
  8 15  1  1  0  0  0
  8 11  1  0  0  0  0
  9 13  1  0  0  0  0
 10  1  1  0  0  0  0
 17 15  1  1  0  0  0
 17 18  1  0  0  0  0
 18 25  1  1  0  0  0
 19 18  1  0  0  0  0
 19 26  1  6  0  0  0
 20 19  1  0  0  0  0
 20 24  1  1  0  0  0
 21 23  1  0  0  0  0
 21 20  1  0  0  0  0
 21 22  1  6  0  0  0
 23 17  1  0  0  0  0
 27 22  1  0  0  0  0
 28 29  1  0  0  0  0
 28 16  1  6  0  0  0
 29 36  1  6  0  0  0
 30 37  1  1  0  0  0
 30 29  1  0  0  0  0
 31 30  1  0  0  0  0
 31 34  1  6  0  0  0
 32 31  1  0  0  0  0
 32 33  1  0  0  0  0
 33 28  1  0  0  0  0
 33 35  1  6  0  0  0
M  END
>  <CHROM.1>
-52.49268900,91.96639707,79.43411805,-62.78044978,-179.23659199,-174.91426154
-176.71256108,-169.41891848,-70.16858489,-60.71839493,-175.98447775,-83.31237666
-54.83806828,-176.10546879,-57.91241093,20.52596191,-1.67072693,9.94927856
9.35522548,0.22999087,0.91390309,-1.99049462

>  <Name>
lig.pdb

>  <RI>
0

>  <Rbt.Current_Directory>
/home/itssahil/PROJECTS/Mol_Feturizer/New_Systems/rnas/2m4q

>  <Rbt.Executable>
rbdock ($Id: //depot/dev/client3/rdock/2013.1/src/exe/rbdock.cxx#4 $)

>  <Rbt.Library>
libRbt.so (2013.1, Build901 2013/11/27)

>  <Rbt.Parameter_File>
/export/apps/rDock/src/rDock_2013.1_src/data/scripts/dock_solv.prm

>  <Rbt.Receptor>
prm/pocket_docking_6.prm

>  <SCORE>
-51.6974

>  <SCORE.INTER>
-34.6802

>  <SCORE.INTER.CONST>
1

>  <SCORE.INTER.POLAR>
-5.33601

>  <SCORE.INTER.ROT>
10

>  <SCORE.INTER.SOLV>
16.8938

>  <SCORE.INTER.VDW>
-21.2314

>  <SCORE.INTER.norm>
-0.937303

>  <SCORE.INTRA>
-17.0172

>  <SCORE.INTRA.DIHEDRAL>
-34.0441

>  <SCORE.INTRA.DIHEDRAL.0>
44.8331

>  <SCORE.INTRA.POLAR>
0.0553375

>  <SCORE.INTRA.POLAR.0>
-0.108895

>  <SCORE.INTRA.REPUL>
-0.00912235

>  <SCORE.INTRA.REPUL.0>
0.00912235

>  <SCORE.INTRA.SOLV>
-1.00536

>  <SCORE.INTRA.SOLV.lig_0>
-53.9067

>  <SCORE.INTRA.VDW>
0.365017

>  <SCORE.INTRA.VDW.0>
-2.93492

>  <SCORE.INTRA.norm>
-0.459924

>  <SCORE.RESTR>
0

>  <SCORE.RESTR.CAVITY>
0

>  <SCORE.RESTR.norm>
0

>  <SCORE.SYSTEM>
0

>  <SCORE.SYSTEM.CONST>
0

>  <SCORE.SYSTEM.DIHEDRAL>
0

>  <SCORE.SYSTEM.SOLV>
0

>  <SCORE.SYSTEM.norm>
0

>  <SCORE.heavy>
37

>  <SCORE.norm>
-1.39723

>  <RMSD>
10.213

$$$$
lig.pdb
 OpenBabel11021811453D
libRbt.so/2013.1/901 2013/11/27
 37 40  0  0  0  0  0  0  0  0999 V2000
   -3.1416    9.6245    8.7567 C   0  0  2  0  0  0  0  0  0  0  0  0
   -4.3079   10.6176    8.4395 C   0  0  1  0  0  0  0  0  0  0  0  0
   -4.2384   11.9335    9.2686 C   0  0  0  0  0  0  0  0  0  0  0  0
   -4.0269   11.6337   10.7734 C   0  0  1  0  0  0  0  0  0  0  0  0
   -2.7653   10.7624   10.9642 C   0  0  1  0  0  0  0  0  0  0  0  0
   -2.5023   10.4851   12.4687 C   0  0  1  0  0  0  0  0  0  0  0  0
   -2.4520   11.8152   13.2781 C   0  0  1  0  0  0  0  0  0  0  0  0
   -3.6957   12.7121   13.0043 C   0  0  2  0  0  0  0  0  0  0  0  0
   -1.3437   12.4124   15.3826 C   0  0  0  0  0  0  0  0  0  0  0  0
   -2.8790    9.5308   10.1945 O   0  0  0  0  0  0  0  0  0  0  0  0
   -3.9522   12.8492   11.5728 O   0  0  0  0  0  0  0  0  0  0  0  0
   -4.3108   10.9399    6.9960 N   0  0  0  0  0  0  0  0  0  0  0  0
   -2.2997   11.5033   14.7143 N   0  0  0  0  0  0  0  0  0  0  0  0
   -3.4690    9.5914   13.0059 O   0  0  0  0  0  0  0  0  0  0  0  0
   -3.5343   14.0137   13.6403 O   0  0  0  0  0  0  0  0  0  0  0  0
   -1.9245    9.9931    8.0387 O   0  0  0  0  0  0  0  0  0  0  0  0
   -2.3777   14.8285   13.2763 C   0  0  2  0  0  0  0  0  0  0  0  0
   -2.5931   16.3144   13.6815 C   0  0  1  0  0  0  0  0  0  0  0  0
   -3.6634   17.0053   12.7887 C   0  0  2  0  0  0  0  0  0  0  0  0
   -3.3333   16.8294   11.2781 C   0  0  1  0  0  0  0  0  0  0  0  0
   -3.0916   15.3355   10.9240 C   0  0  1  0  0  0  0  0  0  0  0  0
   -2.6284   15.1578    9.4542 C   0  0  0  0  0  0  0  0  0  0  0  0
   -2.1224   14.7452   11.8424 O   0  0  0  0  0  0  0  0  0  0  0  0
   -4.3833   17.4242   10.4224 N   0  0  0  0  0  0  0  0  0  0  0  0
   -2.9166   16.4141   15.0672 O   0  0  0  0  0  0  0  0  0  0  0  0
   -3.8044   18.3834   13.1270 O   0  0  0  0  0  0  0  0  0  0  0  0
   -3.6751   15.4921    8.5487 O   0  0  0  0  0  0  0  0  0  0  0  0
   -0.9109    8.9630    7.8505 C   0  0  1  0  0  0  0  0  0  0  0  0
   -0.3316    8.4630    9.2035 C   0  0  1  0  0  0  0  0  0  0  0  0
    0.8141    7.4367    8.9774 C   0  0  2  0  0  0  0  0  0  0  0  0
    0.3787    6.2500    8.0576 C   0  0  1  0  0  0  0  0  0  0  0  0
   -0.3284    6.7220    6.7519 C   0  0  0  0  0  0  0  0  0  0  0  0
   -1.4547    7.7648    7.0217 C   0  0  2  0  0  0  0  0  0  0  0  0
    1.5304    5.3765    7.7468 N   0  0  0  0  0  0  0  0  0  0  0  0
   -2.0376    8.1987    5.7335 N   0  0  0  0  0  0  0  0  0  0  0  0
    0.1182    9.5564    9.9971 O   0  0  0  0  0  0  0  0  0  0  0  0
    1.2983    6.9480   10.2258 O   0  0  0  0  0  0  0  0  0  0  0  0
  1  2  1  0  0  0  0
  1 16  1  6  0  0  0
  2  3  1  0  0  0  0
  2 12  1  6  0  0  0
  4 11  1  1  0  0  0
  4  3  1  0  0  0  0
  5  4  1  0  0  0  0
  5 10  1  6  0  0  0
  6  7  1  0  0  0  0
  6  5  1  0  0  0  0
  6 14  1  1  0  0  0
  7  8  1  0  0  0  0
  7 13  1  1  0  0  0
  8 15  1  6  0  0  0
  8 11  1  0  0  0  0
  9 13  1  0  0  0  0
 10  1  1  0  0  0  0
 17 15  1  6  0  0  0
 17 18  1  0  0  0  0
 18 25  1  1  0  0  0
 19 18  1  0  0  0  0
 19 26  1  1  0  0  0
 20 19  1  0  0  0  0
 20 24  1  6  0  0  0
 21 23  1  0  0  0  0
 21 20  1  0  0  0  0
 21 22  1  6  0  0  0
 23 17  1  0  0  0  0
 27 22  1  0  0  0  0
 28 29  1  0  0  0  0
 28 16  1  1  0  0  0
 29 36  1  6  0  0  0
 30 37  1  1  0  0  0
 30 29  1  0  0  0  0
 31 30  1  0  0  0  0
 31 34  1  6  0  0  0
 32 31  1  0  0  0  0
 32 33  1  0  0  0  0
 33 28  1  0  0  0  0
 33 35  1  6  0  0  0
M  END
>  <CHROM.1>
77.64047610,58.22406879,138.65517436,62.73636433,162.05337199,-159.46218975
60.96772671,-171.69855014,-67.79547786,-7.15213184,-177.24265522,-63.02695772
-60.55005090,-61.97381341,-85.15661122,-176.09205155,-2.33115317,11.75928718
10.61633685,0.89105102,1.10610107,-2.00693311

>  <Name>
lig.pdb

>  <RI>
3.60165e+07

>  <Rbt.Current_Directory>
/home/itssahil/PROJECTS/Mol_Feturizer/New_Systems/rnas/2m4q

>  <Rbt.Executable>
rbdock ($Id: //depot/dev/client3/rdock/2013.1/src/exe/rbdock.cxx#4 $)

>  <Rbt.Library>
libRbt.so (2013.1, Build901 2013/11/27)

>  <Rbt.Parameter_File>
/export/apps/rDock/src/rDock_2013.1_src/data/scripts/dock_solv.prm

>  <Rbt.Receptor>
prm/pocket_docking_8.prm

>  <SCORE>
-41.0185

>  <SCORE.INTER>
-22.6623

>  <SCORE.INTER.CONST>
1

>  <SCORE.INTER.POLAR>
-3.43257

>  <SCORE.INTER.ROT>
10

>  <SCORE.INTER.SOLV>
13.7519

>  <SCORE.INTER.VDW>
-18.517

>  <SCORE.INTER.norm>
-0.612495

>  <SCORE.INTRA>
-18.3562

>  <SCORE.INTRA.DIHEDRAL>
-34.7545

>  <SCORE.INTRA.DIHEDRAL.0>
44.8331

>  <SCORE.INTRA.POLAR>
-0.047725

>  <SCORE.INTRA.POLAR.0>
-0.108895

>  <SCORE.INTRA.REPUL>
-0.00912235

>  <SCORE.INTRA.REPUL.0>
0.00912235

>  <SCORE.INTRA.SOLV>
0.0226604

>  <SCORE.INTRA.SOLV.lig_0>
-53.9067

>  <SCORE.INTRA.VDW>
-0.782373

>  <SCORE.INTRA.VDW.0>
-2.93492

>  <SCORE.INTRA.norm>
-0.496113

>  <SCORE.RESTR>
0

>  <SCORE.RESTR.CAVITY>
0

>  <SCORE.RESTR.norm>
0

>  <SCORE.SYSTEM>
0

>  <SCORE.SYSTEM.CONST>
0

>  <SCORE.SYSTEM.DIHEDRAL>
0

>  <SCORE.SYSTEM.SOLV>
0

>  <SCORE.SYSTEM.norm>
0

>  <SCORE.heavy>
37

>  <SCORE.norm>
-1.10861

>  <RMSD>
10.223

$$$$
lig.pdb
 OpenBabel11021811453D
libRbt.so/2013.1/901 2013/11/27
 37 40  0  0  0  0  0  0  0  0999 V2000
   -1.0320    7.3440    8.3826 C   0  0  2  0  0  0  0  0  0  0  0  0
   -1.8157    7.9214    7.1581 C   0  0  1  0  0  0  0  0  0  0  0  0
   -2.2294    9.4113    7.3392 C   0  0  0  0  0  0  0  0  0  0  0  0
   -2.9060    9.6388    8.7138 C   0  0  1  0  0  0  0  0  0  0  0  0
   -1.9724    9.1559    9.8463 C   0  0  1  0  0  0  0  0  0  0  0  0
   -2.6064    9.4152   11.2393 C   0  0  1  0  0  0  0  0  0  0  0  0
   -3.0247   10.9081   11.3900 C   0  0  1  0  0  0  0  0  0  0  0  0
   -3.8966   11.3932   10.1938 C   0  0  2  0  0  0  0  0  0  0  0  0
   -2.7607   11.1346   13.8175 C   0  0  0  0  0  0  0  0  0  0  0  0
   -1.6288    7.7531    9.6560 O   0  0  0  0  0  0  0  0  0  0  0  0
   -3.2984   11.0276    8.9123 O   0  0  0  0  0  0  0  0  0  0  0  0
   -1.0019    7.7777    5.9315 N   0  0  0  0  0  0  0  0  0  0  0  0
   -3.7113   11.0909   12.6855 N   0  0  0  0  0  0  0  0  0  0  0  0
   -3.7060    8.5455   11.4762 O   0  0  0  0  0  0  0  0  0  0  0  0
   -4.1253   12.8301   10.2806 O   0  0  0  0  0  0  0  0  0  0  0  0
    0.3772    7.7240    8.3342 O   0  0  0  0  0  0  0  0  0  0  0  0
   -2.9811   13.7275   10.1407 C   0  0  2  0  0  0  0  0  0  0  0  0
   -3.4124   15.2116   10.3138 C   0  0  1  0  0  0  0  0  0  0  0  0
   -4.2571   15.7104    9.1065 C   0  0  2  0  0  0  0  0  0  0  0  0
   -3.5240   15.4441    7.7598 C   0  0  1  0  0  0  0  0  0  0  0  0
   -3.0805   13.9591    7.6433 C   0  0  1  0  0  0  0  0  0  0  0  0
   -2.2303   13.7083    6.3703 C   0  0  0  0  0  0  0  0  0  0  0  0
   -2.3475   13.5516    8.8384 O   0  0  0  0  0  0  0  0  0  0  0  0
   -4.3516   15.8528    6.6037 N   0  0  0  0  0  0  0  0  0  0  0  0
   -4.0999   15.3926   11.5505 O   0  0  0  0  0  0  0  0  0  0  0  0
   -4.5907   17.0897    9.2462 O   0  0  0  0  0  0  0  0  0  0  0  0
   -3.0121   13.8900    5.1943 O   0  0  0  0  0  0  0  0  0  0  0  0
    1.3107    6.9703    9.1616 C   0  0  1  0  0  0  0  0  0  0  0  0
    1.3139    7.4666   10.6346 C   0  0  1  0  0  0  0  0  0  0  0  0
    2.3841    6.7161   11.4764 C   0  0  2  0  0  0  0  0  0  0  0  0
    2.2316    5.1628   11.3868 C   0  0  1  0  0  0  0  0  0  0  0  0
    2.0905    4.6504    9.9221 C   0  0  0  0  0  0  0  0  0  0  0  0
    1.0235    5.4429    9.1084 C   0  0  2  0  0  0  0  0  0  0  0  0
    3.3497    4.4847   12.0768 N   0  0  0  0  0  0  0  0  0  0  0  0
    0.9883    4.9317    7.7210 N   0  0  0  0  0  0  0  0  0  0  0  0
    1.5193    8.8744   10.6945 O   0  0  0  0  0  0  0  0  0  0  0  0
    2.3384    7.1438   12.8353 O   0  0  0  0  0  0  0  0  0  0  0  0
  1  2  1  0  0  0  0
  1 16  1  1  0  0  0
  2  3  1  0  0  0  0
  2 12  1  6  0  0  0
  4 11  1  1  0  0  0
  4  3  1  0  0  0  0
  5  4  1  0  0  0  0
  5 10  1  6  0  0  0
  6  7  1  0  0  0  0
  6  5  1  0  0  0  0
  6 14  1  6  0  0  0
  7  8  1  0  0  0  0
  7 13  1  1  0  0  0
  8 15  1  6  0  0  0
  8 11  1  0  0  0  0
  9 13  1  0  0  0  0
 10  1  1  0  0  0  0
 17 15  1  6  0  0  0
 17 18  1  0  0  0  0
 18 25  1  1  0  0  0
 19 18  1  0  0  0  0
 19 26  1  1  0  0  0
 20 19  1  0  0  0  0
 20 24  1  6  0  0  0
 21 23  1  0  0  0  0
 21 20  1  0  0  0  0
 21 22  1  6  0  0  0
 23 17  1  0  0  0  0
 27 22  1  0  0  0  0
 28 29  1  0  0  0  0
 28 16  1  6  0  0  0
 29 36  1  6  0  0  0
 30 37  1  1  0  0  0
 30 29  1  0  0  0  0
 31 30  1  0  0  0  0
 31 34  1  6  0  0  0
 32 31  1  0  0  0  0
 32 33  1  0  0  0  0
 33 28  1  0  0  0  0
 33 35  1  6  0  0  0
M  END
>  <CHROM.1>
83.06394353,65.61065215,77.21597345,-51.87313688,-177.88937274,-162.69014219
-59.15228135,-61.52858373,-66.24001873,-55.21842479,-60.75641297,-81.57816420
-179.54742827,-174.13031291,-173.22324933,-102.22436459,-1.60227333,10.26110791
9.55171124,-0.12010476,1.02897732,-1.58979835

>  <Name>
lig.pdb

>  <RI>
0

>  <Rbt.Current_Directory>
/home/itssahil/PROJECTS/Mol_Feturizer/New_Systems/rnas/2m4q

>  <Rbt.Executable>
rbdock ($Id: //depot/dev/client3/rdock/2013.1/src/exe/rbdock.cxx#4 $)

>  <Rbt.Library>
libRbt.so (2013.1, Build901 2013/11/27)

>  <Rbt.Parameter_File>
/export/apps/rDock/src/rDock_2013.1_src/data/scripts/dock_solv.prm

>  <Rbt.Receptor>
prm/pocket_docking_6.prm

>  <SCORE>
-44.1234

>  <SCORE.INTER>
-25.0307

>  <SCORE.INTER.CONST>
1

>  <SCORE.INTER.POLAR>
-3.93104

>  <SCORE.INTER.ROT>
10

>  <SCORE.INTER.SOLV>
13.1697

>  <SCORE.INTER.VDW>
-18.2403

>  <SCORE.INTER.norm>
-0.676506

>  <SCORE.INTRA>
-19.0926

>  <SCORE.INTRA.DIHEDRAL>
-36.6083

>  <SCORE.INTRA.DIHEDRAL.0>
44.8331

>  <SCORE.INTRA.POLAR>
-0.12436

>  <SCORE.INTRA.POLAR.0>
-0.108895

>  <SCORE.INTRA.REPUL>
-0.00912235

>  <SCORE.INTRA.REPUL.0>
0.00912235

>  <SCORE.INTRA.SOLV>
-0.545048

>  <SCORE.INTRA.SOLV.lig_0>
-53.9067

>  <SCORE.INTRA.VDW>
-0.0475457

>  <SCORE.INTRA.VDW.0>
-2.93492

>  <SCORE.INTRA.norm>
-0.516017

>  <SCORE.RESTR>
0

>  <SCORE.RESTR.CAVITY>
0

>  <SCORE.RESTR.norm>
0

>  <SCORE.SYSTEM>
0

>  <SCORE.SYSTEM.CONST>
0

>  <SCORE.SYSTEM.DIHEDRAL>
0

>  <SCORE.SYSTEM.SOLV>
0

>  <SCORE.SYSTEM.norm>
0

>  <SCORE.heavy>
37

>  <SCORE.norm>
-1.19252

>  <RMSD>
10.227

$$$$
lig.pdb
 OpenBabel11021811453D
libRbt.so/2013.1/901 2013/11/27
 37 40  0  0  0  0  0  0  0  0999 V2000
    2.3995    4.9285    9.3549 C   0  0  2  0  0  0  0  0  0  0  0  0
    2.1362    5.8807    8.1420 C   0  0  1  0  0  0  0  0  0  0  0  0
    1.4902    7.2363    8.5528 C   0  0  0  0  0  0  0  0  0  0  0  0
    0.2732    7.0141    9.4847 C   0  0  1  0  0  0  0  0  0  0  0  0
    0.6971    6.1793   10.7138 C   0  0  1  0  0  0  0  0  0  0  0  0
   -0.4938    5.9807   11.6896 C   0  0  1  0  0  0  0  0  0  0  0  0
   -1.1316    7.3491   12.0734 C   0  0  1  0  0  0  0  0  0  0  0  0
   -1.4735    8.2058   10.8183 C   0  0  2  0  0  0  0  0  0  0  0  0
   -2.7045    8.3136   13.6888 C   0  0  0  0  0  0  0  0  0  0  0  0
    1.2725    4.9099   10.2901 O   0  0  0  0  0  0  0  0  0  0  0  0
   -0.3477    8.2681    9.8897 O   0  0  0  0  0  0  0  0  0  0  0  0
    3.4028    6.1326    7.4209 N   0  0  0  0  0  0  0  0  0  0  0  0
   -2.3182    7.1103   12.9208 N   0  0  0  0  0  0  0  0  0  0  0  0
   -1.4639    5.0942   11.1468 O   0  0  0  0  0  0  0  0  0  0  0  0
   -1.9068    9.5397   11.2154 O   0  0  0  0  0  0  0  0  0  0  0  0
    3.6330    5.2870   10.0495 O   0  0  0  0  0  0  0  0  0  0  0  0
   -1.4662   10.6816   10.4179 C   0  0  2  0  0  0  0  0  0  0  0  0
   -1.9593   12.0191   11.0398 C   0  0  1  0  0  0  0  0  0  0  0  0
   -3.4968   12.1953   10.8817 C   0  0  2  0  0  0  0  0  0  0  0  0
   -3.9330   12.0179    9.3984 C   0  0  1  0  0  0  0  0  0  0  0  0
   -3.3907   10.6871    8.8065 C   0  0  1  0  0  0  0  0  0  0  0  0
   -3.7007   10.5597    7.2919 C   0  0  0  0  0  0  0  0  0  0  0  0
   -1.9557   10.5700    9.0481 O   0  0  0  0  0  0  0  0  0  0  0  0
   -5.4018   12.1155    9.2514 N   0  0  0  0  0  0  0  0  0  0  0  0
   -1.5537   12.1170   12.4038 O   0  0  0  0  0  0  0  0  0  0  0  0
   -3.9266   13.4535   11.3970 O   0  0  0  0  0  0  0  0  0  0  0  0
   -2.9352   11.4934    6.5372 O   0  0  0  0  0  0  0  0  0  0  0  0
    4.6830    4.2794   10.1288 C   0  0  1  0  0  0  0  0  0  0  0  0
    6.0938    4.8901    9.8990 C   0  0  1  0  0  0  0  0  0  0  0  0
    7.1880    3.7857    9.8914 C   0  0  2  0  0  0  0  0  0  0  0  0
    7.1431    2.8930   11.1739 C   0  0  1  0  0  0  0  0  0  0  0  0
    5.7106    2.3764   11.5039 C   0  0  0  0  0  0  0  0  0  0  0  0
    4.6423    3.5108   11.4802 C   0  0  2  0  0  0  0  0  0  0  0  0
    8.0966    1.7682   11.0646 N   0  0  0  0  0  0  0  0  0  0  0  0
    3.3086    2.9317   11.7506 N   0  0  0  0  0  0  0  0  0  0  0  0
    6.1286    5.6449    8.6920 O   0  0  0  0  0  0  0  0  0  0  0  0
    8.4801    4.3662    9.7331 O   0  0  0  0  0  0  0  0  0  0  0  0
  1  2  1  0  0  0  0
  1 16  1  1  0  0  0
  2  3  1  0  0  0  0
  2 12  1  1  0  0  0
  4 11  1  1  0  0  0
  4  3  1  0  0  0  0
  5  4  1  0  0  0  0
  5 10  1  6  0  0  0
  6  7  1  0  0  0  0
  6  5  1  0  0  0  0
  6 14  1  6  0  0  0
  7  8  1  0  0  0  0
  7 13  1  6  0  0  0
  8 15  1  1  0  0  0
  8 11  1  0  0  0  0
  9 13  1  0  0  0  0
 10  1  1  0  0  0  0
 17 15  1  1  0  0  0
 17 18  1  0  0  0  0
 18 25  1  1  0  0  0
 19 18  1  0  0  0  0
 19 26  1  6  0  0  0
 20 19  1  0  0  0  0
 20 24  1  1  0  0  0
 21 23  1  0  0  0  0
 21 20  1  0  0  0  0
 21 22  1  6  0  0  0
 23 17  1  0  0  0  0
 27 22  1  0  0  0  0
 28 29  1  0  0  0  0
 28 16  1  1  0  0  0
 29 36  1  6  0  0  0
 30 37  1  1  0  0  0
 30 29  1  0  0  0  0
 31 30  1  0  0  0  0
 31 34  1  6  0  0  0
 32 31  1  0  0  0  0
 32 33  1  0  0  0  0
 33 28  1  0  0  0  0
 33 35  1  6  0  0  0
M  END
>  <CHROM.1>
148.89883296,140.67556052,160.73433883,71.54766741,-176.76765697,-120.28236891
-50.22845308,-177.10572599,69.42447577,-63.57220453,66.19953213,138.91091673
-62.27302713,-171.85117821,-54.83163920,69.95198891,0.82873829,7.36883849
10.23831596,-0.41556224,0.56507295,-0.90231364

>  <Name>
lig.pdb

>  <RI>
3.60165e+07

>  <Rbt.Current_Directory>
/home/itssahil/PROJECTS/Mol_Feturizer/New_Systems/rnas/2m4q

>  <Rbt.Executable>
rbdock ($Id: //depot/dev/client3/rdock/2013.1/src/exe/rbdock.cxx#4 $)

>  <Rbt.Library>
libRbt.so (2013.1, Build901 2013/11/27)

>  <Rbt.Parameter_File>
/export/apps/rDock/src/rDock_2013.1_src/data/scripts/dock_solv.prm

>  <Rbt.Receptor>
prm/pocket_docking_8.prm

>  <SCORE>
-43.5562

>  <SCORE.INTER>
-29.9189

>  <SCORE.INTER.CONST>
1

>  <SCORE.INTER.POLAR>
-5.91738

>  <SCORE.INTER.ROT>
10

>  <SCORE.INTER.SOLV>
12.6161

>  <SCORE.INTER.VDW>
-14.6934

>  <SCORE.INTER.norm>
-0.80862

>  <SCORE.INTRA>
-13.6373

>  <SCORE.INTRA.DIHEDRAL>
-22.4152

>  <SCORE.INTRA.DIHEDRAL.0>
44.8331

>  <SCORE.INTRA.POLAR>
-0.710944

>  <SCORE.INTRA.POLAR.0>
-0.108895

>  <SCORE.INTRA.REPUL>
-0.00912235

>  <SCORE.INTRA.REPUL.0>
0.00912235

>  <SCORE.INTRA.SOLV>
-0.93471

>  <SCORE.INTRA.SOLV.lig_0>
-53.9067

>  <SCORE.INTRA.VDW>
0.500482

>  <SCORE.INTRA.VDW.0>
-2.93492

>  <SCORE.INTRA.norm>
-0.368576

>  <SCORE.RESTR>
0

>  <SCORE.RESTR.CAVITY>
0

>  <SCORE.RESTR.norm>
0

>  <SCORE.SYSTEM>
0

>  <SCORE.SYSTEM.CONST>
0

>  <SCORE.SYSTEM.DIHEDRAL>
0

>  <SCORE.SYSTEM.SOLV>
0

>  <SCORE.SYSTEM.norm>
0

>  <SCORE.heavy>
37

>  <SCORE.norm>
-1.1772

>  <RMSD>
10.235

$$$$
lig.pdb
 OpenBabel11021811453D
libRbt.so/2013.1/901 2013/11/27
 37 40  0  0  0  0  0  0  0  0999 V2000
    5.8035    6.8517    9.7231 C   0  0  2  0  0  0  0  0  0  0  0  0
    5.8997    8.2614   10.3945 C   0  0  1  0  0  0  0  0  0  0  0  0
    4.5130    8.9337   10.6153 C   0  0  0  0  0  0  0  0  0  0  0  0
    3.6565    8.8817    9.3258 C   0  0  1  0  0  0  0  0  0  0  0  0
    3.5205    7.4203    8.8431 C   0  0  1  0  0  0  0  0  0  0  0  0
    2.6269    7.3330    7.5768 C   0  0  1  0  0  0  0  0  0  0  0  0
    1.2523    8.0251    7.8182 C   0  0  1  0  0  0  0  0  0  0  0  0
    1.4166    9.4674    8.3829 C   0  0  2  0  0  0  0  0  0  0  0  0
   -0.2058    6.7115    6.3478 C   0  0  0  0  0  0  0  0  0  0  0  0
    4.8362    6.8347    8.6234 O   0  0  0  0  0  0  0  0  0  0  0  0
    2.3497    9.4995    9.5063 O   0  0  0  0  0  0  0  0  0  0  0  0
    6.6095    8.1513   11.6874 N   0  0  0  0  0  0  0  0  0  0  0  0
    0.4734    8.0074    6.5628 N   0  0  0  0  0  0  0  0  0  0  0  0
    3.2859    7.8784    6.4410 O   0  0  0  0  0  0  0  0  0  0  0  0
    0.1198   10.0185    8.7560 O   0  0  0  0  0  0  0  0  0  0  0  0
    5.4783    5.8206   10.7046 O   0  0  0  0  0  0  0  0  0  0  0  0
    0.0812   11.1277    9.7058 C   0  0  2  0  0  0  0  0  0  0  0  0
   -0.0534   10.6071   11.1652 C   0  0  1  0  0  0  0  0  0  0  0  0
   -1.4644   10.0106   11.4359 C   0  0  2  0  0  0  0  0  0  0  0  0
   -2.5845   11.0176   11.0445 C   0  0  1  0  0  0  0  0  0  0  0  0
   -2.3925   11.5383    9.5928 C   0  0  1  0  0  0  0  0  0  0  0  0
   -3.4202   12.6438    9.2349 C   0  0  0  0  0  0  0  0  0  0  0  0
   -1.0290   12.0243    9.4027 O   0  0  0  0  0  0  0  0  0  0  0  0
   -3.9293   10.4309   11.2343 N   0  0  0  0  0  0  0  0  0  0  0  0
    0.9816    9.6713   11.4607 O   0  0  0  0  0  0  0  0  0  0  0  0
   -1.5966    9.5970   12.7941 O   0  0  0  0  0  0  0  0  0  0  0  0
   -4.7507   12.1419    9.3069 O   0  0  0  0  0  0  0  0  0  0  0  0
    5.7567    4.4350   10.3489 C   0  0  1  0  0  0  0  0  0  0  0  0
    7.2827    4.1542   10.2543 C   0  0  1  0  0  0  0  0  0  0  0  0
    7.5562    2.6990    9.7801 C   0  0  2  0  0  0  0  0  0  0  0  0
    6.8234    1.6366   10.6622 C   0  0  1  0  0  0  0  0  0  0  0  0
    5.3173    1.9676   10.8850 C   0  0  0  0  0  0  0  0  0  0  0  0
    5.0864    3.4405   11.3389 C   0  0  2  0  0  0  0  0  0  0  0  0
    6.9866    0.2808   10.0956 N   0  0  0  0  0  0  0  0  0  0  0  0
    3.6347    3.6873   11.4773 N   0  0  0  0  0  0  0  0  0  0  0  0
    7.9185    5.0943    9.3944 O   0  0  0  0  0  0  0  0  0  0  0  0
    8.9576    2.4405    9.7497 O   0  0  0  0  0  0  0  0  0  0  0  0
  1  2  1  0  0  0  0
  1 16  1  1  0  0  0
  2  3  1  0  0  0  0
  2 12  1  1  0  0  0
  4 11  1  1  0  0  0
  4  3  1  0  0  0  0
  5  4  1  0  0  0  0
  5 10  1  6  0  0  0
  6  7  1  0  0  0  0
  6  5  1  0  0  0  0
  6 14  1  6  0  0  0
  7  8  1  0  0  0  0
  7 13  1  6  0  0  0
  8 15  1  1  0  0  0
  8 11  1  0  0  0  0
  9 13  1  0  0  0  0
 10  1  1  0  0  0  0
 17 15  1  6  0  0  0
 17 18  1  0  0  0  0
 18 25  1  6  0  0  0
 19 18  1  0  0  0  0
 19 26  1  1  0  0  0
 20 19  1  0  0  0  0
 20 24  1  6  0  0  0
 21 23  1  0  0  0  0
 21 20  1  0  0  0  0
 21 22  1  1  0  0  0
 23 17  1  0  0  0  0
 27 22  1  0  0  0  0
 28 29  1  0  0  0  0
 28 16  1  1  0  0  0
 29 36  1  6  0  0  0
 30 37  1  1  0  0  0
 30 29  1  0  0  0  0
 31 30  1  0  0  0  0
 31 34  1  6  0  0  0
 32 31  1  0  0  0  0
 32 33  1  0  0  0  0
 33 28  1  0  0  0  0
 33 35  1  6  0  0  0
M  END
>  <CHROM.1>
174.50126080,159.11579558,81.46102570,160.00396522,-91.37167400,-161.24618135
44.86825910,61.30940332,-61.52216932,-64.75337190,-60.48920863,68.13254418
178.29380344,61.01096478,65.62233350,-160.59639332,2.60006948,7.53790318
9.77509138,-0.23213326,0.66896759,-1.24336909

>  <Name>
lig.pdb

>  <RI>
2.86754e+07

>  <Rbt.Current_Directory>
/home/itssahil/PROJECTS/Mol_Feturizer/New_Systems/rnas/2m4q

>  <Rbt.Executable>
rbdock ($Id: //depot/dev/client3/rdock/2013.1/src/exe/rbdock.cxx#4 $)

>  <Rbt.Library>
libRbt.so (2013.1, Build901 2013/11/27)

>  <Rbt.Parameter_File>
/export/apps/rDock/src/rDock_2013.1_src/data/scripts/dock_solv.prm

>  <Rbt.Receptor>
prm/pocket_docking_5.prm

>  <SCORE>
-25.3424

>  <SCORE.INTER>
-9.64897

>  <SCORE.INTER.CONST>
1

>  <SCORE.INTER.POLAR>
-2.97582

>  <SCORE.INTER.ROT>
10

>  <SCORE.INTER.SOLV>
11.8484

>  <SCORE.INTER.VDW>
-10.7294

>  <SCORE.INTER.norm>
-0.260783

>  <SCORE.INTRA>
-15.6935

>  <SCORE.INTRA.DIHEDRAL>
-32.0042

>  <SCORE.INTRA.DIHEDRAL.0>
44.8331

>  <SCORE.INTRA.POLAR>
-0.235707

>  <SCORE.INTRA.POLAR.0>
-0.108895

>  <SCORE.INTRA.REPUL>
-0.00912235

>  <SCORE.INTRA.REPUL.0>
0.00912235

>  <SCORE.INTRA.SOLV>
-0.420118

>  <SCORE.INTRA.SOLV.lig_0>
-53.9067

>  <SCORE.INTRA.VDW>
1.36566

>  <SCORE.INTRA.VDW.0>
-2.93492

>  <SCORE.INTRA.norm>
-0.424149

>  <SCORE.RESTR>
5.14882e-05

>  <SCORE.RESTR.CAVITY>
5.14882e-05

>  <SCORE.RESTR.norm>
1.39157e-06

>  <SCORE.SYSTEM>
0

>  <SCORE.SYSTEM.CONST>
0

>  <SCORE.SYSTEM.DIHEDRAL>
0

>  <SCORE.SYSTEM.SOLV>
0

>  <SCORE.SYSTEM.norm>
0

>  <SCORE.heavy>
37

>  <SCORE.norm>
-0.68493

>  <RMSD>
10.237

$$$$
lig.pdb
 OpenBabel11021811453D
libRbt.so/2013.1/901 2013/11/27
 37 40  0  0  0  0  0  0  0  0999 V2000
    4.6094    4.9297    8.3511 C   0  0  2  0  0  0  0  0  0  0  0  0
    4.9293    6.2912    7.6504 C   0  0  1  0  0  0  0  0  0  0  0  0
    4.0084    7.4558    8.1190 C   0  0  0  0  0  0  0  0  0  0  0  0
    2.5177    7.0370    8.0824 C   0  0  1  0  0  0  0  0  0  0  0  0
    2.3092    5.7594    8.9260 C   0  0  1  0  0  0  0  0  0  0  0  0
    0.8140    5.3428    8.9454 C   0  0  1  0  0  0  0  0  0  0  0  0
   -0.0870    6.5284    9.4028 C   0  0  1  0  0  0  0  0  0  0  0  0
    0.2012    7.8268    8.5921 C   0  0  2  0  0  0  0  0  0  0  0  0
   -2.4180    7.1806    9.7967 C   0  0  0  0  0  0  0  0  0  0  0  0
    3.1679    4.6868    8.4418 O   0  0  0  0  0  0  0  0  0  0  0  0
    1.6330    8.1075    8.5222 O   0  0  0  0  0  0  0  0  0  0  0  0
    6.3444    6.6526    7.8839 N   0  0  0  0  0  0  0  0  0  0  0  0
   -1.5049    6.1227    9.3126 N   0  0  0  0  0  0  0  0  0  0  0  0
    0.4014    4.8402    7.6810 O   0  0  0  0  0  0  0  0  0  0  0  0
   -0.5321    8.9527    9.1570 O   0  0  0  0  0  0  0  0  0  0  0  0
    5.2227    4.8602    9.6746 O   0  0  0  0  0  0  0  0  0  0  0  0
   -0.3251   10.2788    8.5804 C   0  0  2  0  0  0  0  0  0  0  0  0
   -1.0815   11.3655    9.3962 C   0  0  1  0  0  0  0  0  0  0  0  0
   -2.6219   11.2596    9.2066 C   0  0  2  0  0  0  0  0  0  0  0  0
   -3.0033   11.2576    7.6978 C   0  0  1  0  0  0  0  0  0  0  0  0
   -2.2002   10.1818    6.9147 C   0  0  1  0  0  0  0  0  0  0  0  0
   -2.4680   10.2582    5.3886 C   0  0  0  0  0  0  0  0  0  0  0  0
   -0.7727   10.3102    7.1922 O   0  0  0  0  0  0  0  0  0  0  0  0
   -4.4607   11.0873    7.5088 N   0  0  0  0  0  0  0  0  0  0  0  0
   -0.7132   11.3055   10.7729 O   0  0  0  0  0  0  0  0  0  0  0  0
   -3.2997   12.3007    9.9067 O   0  0  0  0  0  0  0  0  0  0  0  0
   -1.9907   11.4871    4.8509 O   0  0  0  0  0  0  0  0  0  0  0  0
    4.9366    3.6887   10.4930 C   0  0  1  0  0  0  0  0  0  0  0  0
    5.7891    2.4602   10.0682 C   0  0  1  0  0  0  0  0  0  0  0  0
    5.4000    1.1978   10.8879 C   0  0  2  0  0  0  0  0  0  0  0  0
    5.4648    1.4448   12.4302 C   0  0  1  0  0  0  0  0  0  0  0  0
    4.7296    2.7471   12.8676 C   0  0  0  0  0  0  0  0  0  0  0  0
    5.1325    3.9826   12.0074 C   0  0  2  0  0  0  0  0  0  0  0  0
    4.9491    0.2742   13.1717 N   0  0  0  0  0  0  0  0  0  0  0  0
    4.3557    5.1606   12.4503 N   0  0  0  0  0  0  0  0  0  0  0  0
    5.6633    2.2148    8.6712 O   0  0  0  0  0  0  0  0  0  0  0  0
    6.2259    0.0943   10.5247 O   0  0  0  0  0  0  0  0  0  0  0  0
  1  2  1  0  0  0  0
  1 16  1  1  0  0  0
  2  3  1  0  0  0  0
  2 12  1  1  0  0  0
  4 11  1  1  0  0  0
  4  3  1  0  0  0  0
  5  4  1  0  0  0  0
  5 10  1  6  0  0  0
  6  7  1  0  0  0  0
  6  5  1  0  0  0  0
  6 14  1  6  0  0  0
  7  8  1  0  0  0  0
  7 13  1  6  0  0  0
  8 15  1  1  0  0  0
  8 11  1  0  0  0  0
  9 13  1  0  0  0  0
 10  1  1  0  0  0  0
 17 15  1  1  0  0  0
 17 18  1  0  0  0  0
 18 25  1  1  0  0  0
 19 18  1  0  0  0  0
 19 26  1  1  0  0  0
 20 19  1  0  0  0  0
 20 24  1  1  0  0  0
 21 23  1  0  0  0  0
 21 20  1  0  0  0  0
 21 22  1  6  0  0  0
 23 17  1  0  0  0  0
 27 22  1  0  0  0  0
 28 29  1  0  0  0  0
 28 16  1  6  0  0  0
 29 36  1  6  0  0  0
 30 37  1  1  0  0  0
 30 29  1  0  0  0  0
 31 30  1  0  0  0  0
 31 34  1  1  0  0  0
 32 31  1  0  0  0  0
 32 33  1  0  0  0  0
 33 28  1  0  0  0  0
 33 35  1  1  0  0  0
M  END
>  <CHROM.1>
81.44973055,176.28345861,177.17714001,55.06235408,-174.54853972,175.75267710
178.47733219,60.40313210,64.99370818,-74.43661021,-62.59231888,79.21803579
172.71003214,67.09568674,68.18513252,179.46877765,1.63411555,6.68787466,9.16720832
-0.65408246,0.59258883,-0.95696707

>  <Name>
lig.pdb

>  <RI>
2.86754e+07

>  <Rbt.Current_Directory>
/home/itssahil/PROJECTS/Mol_Feturizer/New_Systems/rnas/2m4q

>  <Rbt.Executable>
rbdock ($Id: //depot/dev/client3/rdock/2013.1/src/exe/rbdock.cxx#4 $)

>  <Rbt.Library>
libRbt.so (2013.1, Build901 2013/11/27)

>  <Rbt.Parameter_File>
/export/apps/rDock/src/rDock_2013.1_src/data/scripts/dock_solv.prm

>  <Rbt.Receptor>
prm/pocket_docking_5.prm

>  <SCORE>
-41.517

>  <SCORE.INTER>
-22.4288

>  <SCORE.INTER.CONST>
1

>  <SCORE.INTER.POLAR>
-3.53586

>  <SCORE.INTER.ROT>
10

>  <SCORE.INTER.SOLV>
16.8858

>  <SCORE.INTER.VDW>
-19.0616

>  <SCORE.INTER.norm>
-0.606183

>  <SCORE.INTRA>
-19.0882

>  <SCORE.INTRA.DIHEDRAL>
-40.0477

>  <SCORE.INTRA.DIHEDRAL.0>
44.8331

>  <SCORE.INTRA.POLAR>
-0.109468

>  <SCORE.INTRA.POLAR.0>
-0.108895

>  <SCORE.INTRA.REPUL>
-0.00912235

>  <SCORE.INTRA.REPUL.0>
0.00912235

>  <SCORE.INTRA.SOLV>
-1.62628

>  <SCORE.INTRA.SOLV.lig_0>
-53.9067

>  <SCORE.INTRA.VDW>
2.16659

>  <SCORE.INTRA.VDW.0>
-2.93492

>  <SCORE.INTRA.norm>
-0.515897

>  <SCORE.RESTR>
0

>  <SCORE.RESTR.CAVITY>
0

>  <SCORE.RESTR.norm>
0

>  <SCORE.SYSTEM>
0

>  <SCORE.SYSTEM.CONST>
0

>  <SCORE.SYSTEM.DIHEDRAL>
0

>  <SCORE.SYSTEM.SOLV>
0

>  <SCORE.SYSTEM.norm>
0

>  <SCORE.heavy>
37

>  <SCORE.norm>
-1.12208

>  <RMSD>
10.271

$$$$
lig.pdb
 OpenBabel11021811453D
libRbt.so/2013.1/901 2013/11/27
 37 40  0  0  0  0  0  0  0  0999 V2000
   -0.0940    7.0636    7.1301 C   0  0  2  0  0  0  0  0  0  0  0  0
   -0.6984    7.6663    5.8192 C   0  0  1  0  0  0  0  0  0  0  0  0
   -1.3181    9.0802    6.0206 C   0  0  0  0  0  0  0  0  0  0  0  0
   -2.2637    9.1049    7.2470 C   0  0  1  0  0  0  0  0  0  0  0  0
   -1.5075    8.6203    8.5043 C   0  0  1  0  0  0  0  0  0  0  0  0
   -2.4189    8.6792    9.7595 C   0  0  1  0  0  0  0  0  0  0  0  0
   -3.0379   10.0985    9.9304 C   0  0  1  0  0  0  0  0  0  0  0  0
   -3.7222   10.5978    8.6233 C   0  0  2  0  0  0  0  0  0  0  0  0
   -3.2689    9.9352   12.3664 C   0  0  0  0  0  0  0  0  0  0  0  0
   -0.9651    7.2860    8.2864 O   0  0  0  0  0  0  0  0  0  0  0  0
   -2.8536   10.4193    7.4624 O   0  0  0  0  0  0  0  0  0  0  0  0
    0.3428    7.7254    4.7704 N   0  0  0  0  0  0  0  0  0  0  0  0
   -3.9728   10.0852   11.0745 N   0  0  0  0  0  0  0  0  0  0  0  0
   -3.4285    7.6791    9.7121 O   0  0  0  0  0  0  0  0  0  0  0  0
   -4.1373   11.9877    8.7652 O   0  0  0  0  0  0  0  0  0  0  0  0
    1.2418    7.5942    7.3881 O   0  0  0  0  0  0  0  0  0  0  0  0
   -3.1350   13.0358    8.5896 C   0  0  2  0  0  0  0  0  0  0  0  0
   -3.6797   14.4130    9.0640 C   0  0  1  0  0  0  0  0  0  0  0  0
   -4.7719   14.9625    8.1021 C   0  0  2  0  0  0  0  0  0  0  0  0
   -4.2654   14.9838    6.6308 C   0  0  1  0  0  0  0  0  0  0  0  0
   -3.6985   13.5994    6.2095 C   0  0  1  0  0  0  0  0  0  0  0  0
   -3.0660   13.6406    4.7937 C   0  0  0  0  0  0  0  0  0  0  0  0
   -2.7274   13.1268    7.1918 O   0  0  0  0  0  0  0  0  0  0  0  0
   -5.3225   15.4399    5.7017 N   0  0  0  0  0  0  0  0  0  0  0  0
   -4.1522   14.3292   10.4073 O   0  0  0  0  0  0  0  0  0  0  0  0
   -5.2161   16.2542    8.5116 O   0  0  0  0  0  0  0  0  0  0  0  0
   -4.0564   13.8950    3.8029 O   0  0  0  0  0  0  0  0  0  0  0  0
    1.9364    7.1291    8.5819 C   0  0  1  0  0  0  0  0  0  0  0  0
    1.3729    7.7830    9.8746 C   0  0  1  0  0  0  0  0  0  0  0  0
    2.1894    7.3482   11.1242 C   0  0  2  0  0  0  0  0  0  0  0  0
    2.2939    5.7941   11.2572 C   0  0  1  0  0  0  0  0  0  0  0  0
    2.7283    5.0996    9.9318 C   0  0  0  0  0  0  0  0  0  0  0  0
    1.8995    5.5790    8.7022 C   0  0  2  0  0  0  0  0  0  0  0  0
    3.1962    5.4215   12.3676 N   0  0  0  0  0  0  0  0  0  0  0  0
    2.4063    4.9144    7.4821 N   0  0  0  0  0  0  0  0  0  0  0  0
    1.3479    9.2017    9.7553 O   0  0  0  0  0  0  0  0  0  0  0  0
    1.6285    7.9130   12.3066 O   0  0  0  0  0  0  0  0  0  0  0  0
  1  2  1  0  0  0  0
  1 16  1  1  0  0  0
  2  3  1  0  0  0  0
  2 12  1  6  0  0  0
  4 11  1  1  0  0  0
  4  3  1  0  0  0  0
  5  4  1  0  0  0  0
  5 10  1  6  0  0  0
  6  7  1  0  0  0  0
  6  5  1  0  0  0  0
  6 14  1  6  0  0  0
  7  8  1  0  0  0  0
  7 13  1  1  0  0  0
  8 15  1  1  0  0  0
  8 11  1  0  0  0  0
  9 13  1  0  0  0  0
 10  1  1  0  0  0  0
 17 15  1  6  0  0  0
 17 18  1  0  0  0  0
 18 25  1  1  0  0  0
 19 18  1  0  0  0  0
 19 26  1  1  0  0  0
 20 19  1  0  0  0  0
 20 24  1  6  0  0  0
 21 23  1  0  0  0  0
 21 20  1  0  0  0  0
 21 22  1  6  0  0  0
 23 17  1  0  0  0  0
 27 22  1  0  0  0  0
 28 29  1  0  0  0  0
 28 16  1  6  0  0  0
 29 36  1  6  0  0  0
 30 37  1  1  0  0  0
 30 29  1  0  0  0  0
 31 30  1  0  0  0  0
 31 34  1  1  0  0  0
 32 31  1  0  0  0  0
 32 33  1  0  0  0  0
 33 28  1  0  0  0  0
 33 35  1  6  0  0  0
M  END
>  <CHROM.1>
105.04908358,80.41370105,69.32052809,-148.24812217,-168.15140215,179.77616655
59.84683912,-86.86997175,-65.69738481,-153.99113267,177.82835774,-75.49427163
-62.65898123,-63.06957068,176.52728300,-174.90002550,-1.51154905,9.96791676
8.47263895,-0.28471597,0.90272615,-1.50635663

>  <Name>
lig.pdb

>  <RI>
0

>  <Rbt.Current_Directory>
/home/itssahil/PROJECTS/Mol_Feturizer/New_Systems/rnas/2m4q

>  <Rbt.Executable>
rbdock ($Id: //depot/dev/client3/rdock/2013.1/src/exe/rbdock.cxx#4 $)

>  <Rbt.Library>
libRbt.so (2013.1, Build901 2013/11/27)

>  <Rbt.Parameter_File>
/export/apps/rDock/src/rDock_2013.1_src/data/scripts/dock_solv.prm

>  <Rbt.Receptor>
prm/pocket_docking_7.prm

>  <SCORE>
-39.1654

>  <SCORE.INTER>
-20.1883

>  <SCORE.INTER.CONST>
1

>  <SCORE.INTER.POLAR>
-3.29209

>  <SCORE.INTER.ROT>
10

>  <SCORE.INTER.SOLV>
16.9956

>  <SCORE.INTER.VDW>
-18.4171

>  <SCORE.INTER.norm>
-0.54563

>  <SCORE.INTRA>
-18.9771

>  <SCORE.INTRA.DIHEDRAL>
-30.3028

>  <SCORE.INTRA.DIHEDRAL.0>
44.8331

>  <SCORE.INTRA.POLAR>
-1.27453

>  <SCORE.INTRA.POLAR.0>
-0.108895

>  <SCORE.INTRA.REPUL>
-0.00912235

>  <SCORE.INTRA.REPUL.0>
0.00912235

>  <SCORE.INTRA.SOLV>
-0.606422

>  <SCORE.INTRA.SOLV.lig_0>
-53.9067

>  <SCORE.INTRA.VDW>
0.856509

>  <SCORE.INTRA.VDW.0>
-2.93492

>  <SCORE.INTRA.norm>
-0.512894

>  <SCORE.RESTR>
0

>  <SCORE.RESTR.CAVITY>
0

>  <SCORE.RESTR.norm>
0

>  <SCORE.SYSTEM>
0

>  <SCORE.SYSTEM.CONST>
0

>  <SCORE.SYSTEM.DIHEDRAL>
0

>  <SCORE.SYSTEM.SOLV>
0

>  <SCORE.SYSTEM.norm>
0

>  <SCORE.heavy>
37

>  <SCORE.norm>
-1.05852

>  <RMSD>
10.281

$$$$
lig.pdb
 OpenBabel11021811453D
libRbt.so/2013.1/901 2013/11/27
 37 40  0  0  0  0  0  0  0  0999 V2000
   -0.2927    6.5215    7.6954 C   0  0  2  0  0  0  0  0  0  0  0  0
   -0.9132    7.3424    6.5172 C   0  0  1  0  0  0  0  0  0  0  0  0
   -1.2824    8.8025    6.9119 C   0  0  0  0  0  0  0  0  0  0  0  0
   -2.0954    8.8350    8.2298 C   0  0  1  0  0  0  0  0  0  0  0  0
   -1.3121    8.1136    9.3493 C   0  0  1  0  0  0  0  0  0  0  0  0
   -2.0835    8.1718   10.6951 C   0  0  1  0  0  0  0  0  0  0  0  0
   -2.4539    9.6402   11.0600 C   0  0  1  0  0  0  0  0  0  0  0  0
   -3.1689   10.3708    9.8847 C   0  0  2  0  0  0  0  0  0  0  0  0
   -2.4521    9.4094   13.5014 C   0  0  0  0  0  0  0  0  0  0  0  0
   -1.0079    6.7450    8.9538 O   0  0  0  0  0  0  0  0  0  0  0  0
   -2.4496   10.1913    8.6261 O   0  0  0  0  0  0  0  0  0  0  0  0
    0.0234    7.3593    5.3726 N   0  0  0  0  0  0  0  0  0  0  0  0
   -3.2701    9.6426   12.2917 N   0  0  0  0  0  0  0  0  0  0  0  0
   -3.2374    7.3416   10.6652 O   0  0  0  0  0  0  0  0  0  0  0  0
   -3.3461   11.7836   10.1964 O   0  0  0  0  0  0  0  0  0  0  0  0
    1.1278    6.8197    7.8560 O   0  0  0  0  0  0  0  0  0  0  0  0
   -2.5384   12.7632    9.4741 C   0  0  2  0  0  0  0  0  0  0  0  0
   -2.5864   14.1507   10.1750 C   0  0  1  0  0  0  0  0  0  0  0  0
   -3.9788   14.8266   10.0192 C   0  0  2  0  0  0  0  0  0  0  0  0
   -4.4106   14.8856    8.5252 C   0  0  1  0  0  0  0  0  0  0  0  0
   -4.3147   13.4867    7.8549 C   0  0  1  0  0  0  0  0  0  0  0  0
   -4.6102   13.5535    6.3335 C   0  0  0  0  0  0  0  0  0  0  0  0
   -3.0021   12.8952    8.0971 O   0  0  0  0  0  0  0  0  0  0  0  0
   -5.7639   15.4643    8.3760 N   0  0  0  0  0  0  0  0  0  0  0  0
   -2.2062   14.0335   11.5448 O   0  0  0  0  0  0  0  0  0  0  0  0
   -3.9900   16.1248   10.6091 O   0  0  0  0  0  0  0  0  0  0  0  0
   -3.6237   14.3274    5.6588 O   0  0  0  0  0  0  0  0  0  0  0  0
    1.8449    6.1426    8.9289 C   0  0  1  0  0  0  0  0  0  0  0  0
    3.0171    5.2763    8.3887 C   0  0  1  0  0  0  0  0  0  0  0  0
    3.7069    4.4879    9.5376 C   0  0  2  0  0  0  0  0  0  0  0  0
    4.1629    5.4175   10.7088 C   0  0  1  0  0  0  0  0  0  0  0  0
    3.0432    6.3929   11.1805 C   0  0  0  0  0  0  0  0  0  0  0  0
    2.3645    7.1463    9.9971 C   0  0  2  0  0  0  0  0  0  0  0  0
    4.6787    4.6200   11.8420 N   0  0  0  0  0  0  0  0  0  0  0  0
    1.2837    8.0085   10.5223 N   0  0  0  0  0  0  0  0  0  0  0  0
    2.5652    4.3917    7.3685 O   0  0  0  0  0  0  0  0  0  0  0  0
    4.8118    3.7407    9.0351 O   0  0  0  0  0  0  0  0  0  0  0  0
  1  2  1  0  0  0  0
  1 16  1  1  0  0  0
  2  3  1  0  0  0  0
  2 12  1  6  0  0  0
  4 11  1  1  0  0  0
  4  3  1  0  0  0  0
  5  4  1  0  0  0  0
  5 10  1  6  0  0  0
  6  7  1  0  0  0  0
  6  5  1  0  0  0  0
  6 14  1  6  0  0  0
  7  8  1  0  0  0  0
  7 13  1  1  0  0  0
  8 15  1  1  0  0  0
  8 11  1  0  0  0  0
  9 13  1  0  0  0  0
 10  1  1  0  0  0  0
 17 15  1  1  0  0  0
 17 18  1  0  0  0  0
 18 25  1  1  0  0  0
 19 18  1  0  0  0  0
 19 26  1  6  0  0  0
 20 19  1  0  0  0  0
 20 24  1  1  0  0  0
 21 23  1  0  0  0  0
 21 20  1  0  0  0  0
 21 22  1  6  0  0  0
 23 17  1  0  0  0  0
 27 22  1  0  0  0  0
 28 29  1  0  0  0  0
 28 16  1  6  0  0  0
 29 36  1  6  0  0  0
 30 37  1  6  0  0  0
 30 29  1  0  0  0  0
 31 30  1  0  0  0  0
 31 34  1  1  0  0  0
 32 31  1  0  0  0  0
 32 33  1  0  0  0  0
 33 28  1  0  0  0  0
 33 35  1  1  0  0  0
M  END
>  <CHROM.1>
91.88138011,108.94229071,75.98420673,-76.45239736,-165.36943169,179.21990695
173.89927696,-63.07840946,64.39507492,-88.53873981,177.59331485,119.76370976
62.79205609,-53.06013449,-70.24382670,-179.27273001,-1.03134499,9.46107560
9.24363868,0.09855997,0.90561553,-1.72818332

>  <Name>
lig.pdb

>  <RI>
0

>  <Rbt.Current_Directory>
/home/itssahil/PROJECTS/Mol_Feturizer/New_Systems/rnas/2m4q

>  <Rbt.Executable>
rbdock ($Id: //depot/dev/client3/rdock/2013.1/src/exe/rbdock.cxx#4 $)

>  <Rbt.Library>
libRbt.so (2013.1, Build901 2013/11/27)

>  <Rbt.Parameter_File>
/export/apps/rDock/src/rDock_2013.1_src/data/scripts/dock_solv.prm

>  <Rbt.Receptor>
prm/pocket_docking_7.prm

>  <SCORE>
-42.0772

>  <SCORE.INTER>
-28.6669

>  <SCORE.INTER.CONST>
1

>  <SCORE.INTER.POLAR>
-4.45829

>  <SCORE.INTER.ROT>
10

>  <SCORE.INTER.SOLV>
15.9891

>  <SCORE.INTER.VDW>
-19.8467

>  <SCORE.INTER.norm>
-0.774781

>  <SCORE.INTRA>
-13.4246

>  <SCORE.INTRA.DIHEDRAL>
-24.5028

>  <SCORE.INTRA.DIHEDRAL.0>
44.8331

>  <SCORE.INTRA.POLAR>
-0.169965

>  <SCORE.INTRA.POLAR.0>
-0.108895

>  <SCORE.INTRA.REPUL>
-0.00912235

>  <SCORE.INTRA.REPUL.0>
0.00912235

>  <SCORE.INTRA.SOLV>
-1.27341

>  <SCORE.INTRA.SOLV.lig_0>
-53.9067

>  <SCORE.INTRA.VDW>
0.086958

>  <SCORE.INTRA.VDW.0>
-2.93492

>  <SCORE.INTRA.norm>
-0.362828

>  <SCORE.RESTR>
0.0143083

>  <SCORE.RESTR.CAVITY>
0.0143083

>  <SCORE.RESTR.norm>
0.000386712

>  <SCORE.SYSTEM>
0

>  <SCORE.SYSTEM.CONST>
0

>  <SCORE.SYSTEM.DIHEDRAL>
0

>  <SCORE.SYSTEM.SOLV>
0

>  <SCORE.SYSTEM.norm>
0

>  <SCORE.heavy>
37

>  <SCORE.norm>
-1.13722

>  <RMSD>
10.295

$$$$
lig.pdb
 OpenBabel11021811453D
libRbt.so/2013.1/901 2013/11/27
 37 40  0  0  0  0  0  0  0  0999 V2000
   -0.5693    6.8089   10.3294 C   0  0  2  0  0  0  0  0  0  0  0  0
   -2.0350    7.1304    9.8870 C   0  0  1  0  0  0  0  0  0  0  0  0
   -2.4989    8.5614   10.2877 C   0  0  0  0  0  0  0  0  0  0  0  0
   -2.1879    8.8517   11.7770 C   0  0  1  0  0  0  0  0  0  0  0  0
   -0.6834    8.6329   12.0527 C   0  0  1  0  0  0  0  0  0  0  0  0
   -0.3341    8.9622   13.5289 C   0  0  1  0  0  0  0  0  0  0  0  0
   -0.8213   10.3921   13.9092 C   0  0  1  0  0  0  0  0  0  0  0  0
   -2.3194   10.6141   13.5451 C   0  0  2  0  0  0  0  0  0  0  0  0
    0.8149   11.1172   15.5858 C   0  0  0  0  0  0  0  0  0  0  0  0
   -0.2937    7.2770   11.6896 O   0  0  0  0  0  0  0  0  0  0  0  0
   -2.6068   10.1880   12.1778 O   0  0  0  0  0  0  0  0  0  0  0  0
   -2.1640    6.9583    8.4236 N   0  0  0  0  0  0  0  0  0  0  0  0
   -0.5595   10.6279   15.3442 N   0  0  0  0  0  0  0  0  0  0  0  0
   -0.8636    7.9848   14.4154 O   0  0  0  0  0  0  0  0  0  0  0  0
   -2.6931   12.0072   13.7552 O   0  0  0  0  0  0  0  0  0  0  0  0
    0.4000    7.3680    9.3912 O   0  0  0  0  0  0  0  0  0  0  0  0
   -4.0192   12.4452   13.3267 C   0  0  2  0  0  0  0  0  0  0  0  0
   -4.1845   13.9809   13.5080 C   0  0  1  0  0  0  0  0  0  0  0  0
   -4.2751   14.3769   15.0096 C   0  0  2  0  0  0  0  0  0  0  0  0
   -5.3768   13.5568   15.7414 C   0  0  1  0  0  0  0  0  0  0  0  0
   -5.1944   12.0315   15.5056 C   0  0  1  0  0  0  0  0  0  0  0  0
   -6.3607   11.2093   16.1141 C   0  0  0  0  0  0  0  0  0  0  0  0
   -5.0573   11.7497   14.0797 O   0  0  0  0  0  0  0  0  0  0  0  0
   -5.4213   13.8787   17.1847 N   0  0  0  0  0  0  0  0  0  0  0  0
   -3.1364   14.6801   12.8393 O   0  0  0  0  0  0  0  0  0  0  0  0
   -4.4919   15.7782   15.1604 O   0  0  0  0  0  0  0  0  0  0  0  0
   -6.4426   11.4101   17.5213 O   0  0  0  0  0  0  0  0  0  0  0  0
    1.7605    6.8471    9.4322 C   0  0  1  0  0  0  0  0  0  0  0  0
    2.0340    5.8432    8.2774 C   0  0  1  0  0  0  0  0  0  0  0  0
    3.4565    5.2270    8.3958 C   0  0  2  0  0  0  0  0  0  0  0  0
    4.5723    6.3174    8.4943 C   0  0  1  0  0  0  0  0  0  0  0  0
    4.2567    7.4146    9.5547 C   0  0  0  0  0  0  0  0  0  0  0  0
    2.8152    7.9898    9.4137 C   0  0  2  0  0  0  0  0  0  0  0  0
    5.8900    5.6986    8.7526 N   0  0  0  0  0  0  0  0  0  0  0  0
    2.5784    8.9825   10.4841 N   0  0  0  0  0  0  0  0  0  0  0  0
    1.0416    4.8225    8.2478 O   0  0  0  0  0  0  0  0  0  0  0  0
    3.7118    4.3501    7.3015 O   0  0  0  0  0  0  0  0  0  0  0  0
  1  2  1  0  0  0  0
  1 16  1  6  0  0  0
  2  3  1  0  0  0  0
  2 12  1  6  0  0  0
  4 11  1  6  0  0  0
  4  3  1  0  0  0  0
  5  4  1  0  0  0  0
  5 10  1  1  0  0  0
  6  7  1  0  0  0  0
  6  5  1  0  0  0  0
  6 14  1  1  0  0  0
  7  8  1  0  0  0  0
  7 13  1  1  0  0  0
  8 15  1  6  0  0  0
  8 11  1  0  0  0  0
  9 13  1  0  0  0  0
 10  1  1  0  0  0  0
 17 15  1  1  0  0  0
 17 18  1  0  0  0  0
 18 25  1  1  0  0  0
 19 18  1  0  0  0  0
 19 26  1  6  0  0  0
 20 19  1  0  0  0  0
 20 24  1  1  0  0  0
 21 23  1  0  0  0  0
 21 20  1  0  0  0  0
 21 22  1  6  0  0  0
 23 17  1  0  0  0  0
 27 22  1  0  0  0  0
 28 29  1  0  0  0  0
 28 16  1  6  0  0  0
 29 36  1  1  0  0  0
 30 37  1  6  0  0  0
 30 29  1  0  0  0  0
 31 30  1  0  0  0  0
 31 34  1  1  0  0  0
 32 31  1  0  0  0  0
 32 33  1  0  0  0  0
 33 28  1  0  0  0  0
 33 35  1  1  0  0  0
M  END
>  <CHROM.1>
171.22900045,173.23779949,85.38220535,-172.04945356,-174.62533846,-162.65334253
-53.45631799,-58.00240514,-60.44742448,76.49892659,175.38100288,102.15621665
-178.49232077,56.89894399,-58.70619742,-60.14050518,-1.13181939,9.53107239
12.19700941,0.91247551,-0.04924139,-2.42070009

>  <Name>
lig.pdb

>  <RI>
3.60165e+07

>  <Rbt.Current_Directory>
/home/itssahil/PROJECTS/Mol_Feturizer/New_Systems/rnas/2m4q

>  <Rbt.Executable>
rbdock ($Id: //depot/dev/client3/rdock/2013.1/src/exe/rbdock.cxx#4 $)

>  <Rbt.Library>
libRbt.so (2013.1, Build901 2013/11/27)

>  <Rbt.Parameter_File>
/export/apps/rDock/src/rDock_2013.1_src/data/scripts/dock_solv.prm

>  <Rbt.Receptor>
prm/pocket_docking_8.prm

>  <SCORE>
-50.4454

>  <SCORE.INTER>
-29.3504

>  <SCORE.INTER.CONST>
1

>  <SCORE.INTER.POLAR>
-4.93485

>  <SCORE.INTER.ROT>
10

>  <SCORE.INTER.SOLV>
13.0831

>  <SCORE.INTER.VDW>
-17.7451

>  <SCORE.INTER.norm>
-0.793254

>  <SCORE.INTRA>
-21.1129

>  <SCORE.INTRA.DIHEDRAL>
-34.6518

>  <SCORE.INTRA.DIHEDRAL.0>
44.8331

>  <SCORE.INTRA.POLAR>
-0.870538

>  <SCORE.INTRA.POLAR.0>
-0.108895

>  <SCORE.INTRA.REPUL>
-0.00912235

>  <SCORE.INTRA.REPUL.0>
0.00912235

>  <SCORE.INTRA.SOLV>
-1.30998

>  <SCORE.INTRA.SOLV.lig_0>
-53.9067

>  <SCORE.INTRA.VDW>
-0.126582

>  <SCORE.INTRA.VDW.0>
-2.93492

>  <SCORE.INTRA.norm>
-0.570619

>  <SCORE.RESTR>
0.0178536

>  <SCORE.RESTR.CAVITY>
0.0178536

>  <SCORE.RESTR.norm>
0.000482528

>  <SCORE.SYSTEM>
0

>  <SCORE.SYSTEM.CONST>
0

>  <SCORE.SYSTEM.DIHEDRAL>
0

>  <SCORE.SYSTEM.SOLV>
0

>  <SCORE.SYSTEM.norm>
0

>  <SCORE.heavy>
37

>  <SCORE.norm>
-1.36339

>  <RMSD>
10.305

$$$$
lig.pdb
 OpenBabel11021811453D
libRbt.so/2013.1/901 2013/11/27
 37 40  0  0  0  0  0  0  0  0999 V2000
   -1.0889    7.8492    8.2271 C   0  0  2  0  0  0  0  0  0  0  0  0
   -1.8214    8.7456    7.1750 C   0  0  1  0  0  0  0  0  0  0  0  0
   -2.2127   10.1478    7.7270 C   0  0  0  0  0  0  0  0  0  0  0  0
   -2.9292   10.0283    9.0949 C   0  0  1  0  0  0  0  0  0  0  0  0
   -2.0421    9.2430   10.0868 C   0  0  1  0  0  0  0  0  0  0  0  0
   -2.7161    9.1482   11.4819 C   0  0  1  0  0  0  0  0  0  0  0  0
   -3.1110   10.5613   12.0052 C   0  0  1  0  0  0  0  0  0  0  0  0
   -3.9342   11.3636   10.9541 C   0  0  2  0  0  0  0  0  0  0  0  0
   -2.9773    9.8600   14.3513 C   0  0  0  0  0  0  0  0  0  0  0  0
   -1.7190    7.9291    9.5469 O   0  0  0  0  0  0  0  0  0  0  0  0
   -3.3017   11.3276    9.6379 O   0  0  0  0  0  0  0  0  0  0  0  0
   -0.9710    8.9040    5.9753 N   0  0  0  0  0  0  0  0  0  0  0  0
   -3.8358   10.4194   13.2849 N   0  0  0  0  0  0  0  0  0  0  0  0
   -3.8390    8.2764   11.4549 O   0  0  0  0  0  0  0  0  0  0  0  0
   -4.1385   12.7341   11.4062 O   0  0  0  0  0  0  0  0  0  0  0  0
    0.3280    8.1911    8.3167 O   0  0  0  0  0  0  0  0  0  0  0  0
   -2.9764   13.6125   11.5150 C   0  0  2  0  0  0  0  0  0  0  0  0
   -3.2347   14.7542   12.5389 C   0  0  1  0  0  0  0  0  0  0  0  0
   -4.2662   15.7872   12.0015 C   0  0  2  0  0  0  0  0  0  0  0  0
   -3.8541   16.3135   10.5961 C   0  0  1  0  0  0  0  0  0  0  0  0
   -3.5721   15.1412    9.6154 C   0  0  1  0  0  0  0  0  0  0  0  0
   -3.0293   15.6458    8.2527 C   0  0  0  0  0  0  0  0  0  0  0  0
   -2.6443   14.1873   10.2159 O   0  0  0  0  0  0  0  0  0  0  0  0
   -4.8660   17.2437   10.0491 N   0  0  0  0  0  0  0  0  0  0  0  0
   -3.6324   14.2167   13.7989 O   0  0  0  0  0  0  0  0  0  0  0  0
   -4.4451   16.8624   12.9209 O   0  0  0  0  0  0  0  0  0  0  0  0
   -4.0465   16.3210    7.5201 O   0  0  0  0  0  0  0  0  0  0  0  0
    1.2186    7.2268    8.9499 C   0  0  1  0  0  0  0  0  0  0  0  0
    1.3210    7.4501   10.4848 C   0  0  1  0  0  0  0  0  0  0  0  0
    2.3484    6.4749   11.1256 C   0  0  2  0  0  0  0  0  0  0  0  0
    2.0518    4.9808   10.7743 C   0  0  1  0  0  0  0  0  0  0  0  0
    1.8110    4.7516    9.2520 C   0  0  0  0  0  0  0  0  0  0  0  0
    0.7915    5.7626    8.6459 C   0  0  2  0  0  0  0  0  0  0  0  0
    3.1280    4.0997   11.2759 N   0  0  0  0  0  0  0  0  0  0  0  0
    0.6591    5.5120    7.1943 N   0  0  0  0  0  0  0  0  0  0  0  0
    1.6559    8.8025   10.7788 O   0  0  0  0  0  0  0  0  0  0  0  0
    2.3917    6.6555   12.5388 O   0  0  0  0  0  0  0  0  0  0  0  0
  1  2  1  0  0  0  0
  1 16  1  1  0  0  0
  2  3  1  0  0  0  0
  2 12  1  6  0  0  0
  4 11  1  1  0  0  0
  4  3  1  0  0  0  0
  5  4  1  0  0  0  0
  5 10  1  6  0  0  0
  6  7  1  0  0  0  0
  6  5  1  0  0  0  0
  6 14  1  6  0  0  0
  7  8  1  0  0  0  0
  7 13  1  1  0  0  0
  8 15  1  1  0  0  0
  8 11  1  0  0  0  0
  9 13  1  0  0  0  0
 10  1  1  0  0  0  0
 17 15  1  6  0  0  0
 17 18  1  0  0  0  0
 18 25  1  1  0  0  0
 19 18  1  0  0  0  0
 19 26  1  1  0  0  0
 20 19  1  0  0  0  0
 20 24  1  6  0  0  0
 21 23  1  0  0  0  0
 21 20  1  0  0  0  0
 21 22  1  6  0  0  0
 23 17  1  0  0  0  0
 27 22  1  0  0  0  0
 28 29  1  0  0  0  0
 28 16  1  1  0  0  0
 29 36  1  6  0  0  0
 30 37  1  1  0  0  0
 30 29  1  0  0  0  0
 31 30  1  0  0  0  0
 31 34  1  6  0  0  0
 32 31  1  0  0  0  0
 32 33  1  0  0  0  0
 33 28  1  0  0  0  0
 33 35  1  6  0  0  0
M  END
>  <CHROM.1>
-87.59730567,66.56357328,64.88792044,60.83999708,-155.53049263,-163.00539634
-61.88262087,-174.62217881,-70.09159911,-68.37713835,-175.53237357,-88.90051288
57.00163599,54.03540490,-55.21523967,-162.78529752,-1.73170702,10.48431441
10.30502269,0.01555902,1.05388421,-1.45535364

>  <Name>
lig.pdb

>  <RI>
0

>  <Rbt.Current_Directory>
/home/itssahil/PROJECTS/Mol_Feturizer/New_Systems/rnas/2m4q

>  <Rbt.Executable>
rbdock ($Id: //depot/dev/client3/rdock/2013.1/src/exe/rbdock.cxx#4 $)

>  <Rbt.Library>
libRbt.so (2013.1, Build901 2013/11/27)

>  <Rbt.Parameter_File>
/export/apps/rDock/src/rDock_2013.1_src/data/scripts/dock_solv.prm

>  <Rbt.Receptor>
prm/pocket_docking_7.prm

>  <SCORE>
-53.7615

>  <SCORE.INTER>
-39.2549

>  <SCORE.INTER.CONST>
1

>  <SCORE.INTER.POLAR>
-6.5775

>  <SCORE.INTER.ROT>
10

>  <SCORE.INTER.SOLV>
16.2078

>  <SCORE.INTER.VDW>
-19.9142

>  <SCORE.INTER.norm>
-1.06094

>  <SCORE.INTRA>
-14.5066

>  <SCORE.INTRA.DIHEDRAL>
-34.1132

>  <SCORE.INTRA.DIHEDRAL.0>
44.8331

>  <SCORE.INTRA.POLAR>
0.0862049

>  <SCORE.INTRA.POLAR.0>
-0.108895

>  <SCORE.INTRA.REPUL>
0.323173

>  <SCORE.INTRA.REPUL.0>
0.00912235

>  <SCORE.INTRA.SOLV>
-0.978077

>  <SCORE.INTRA.SOLV.lig_0>
-53.9067

>  <SCORE.INTRA.VDW>
1.13004

>  <SCORE.INTRA.VDW.0>
-2.93492

>  <SCORE.INTRA.norm>
-0.392071

>  <SCORE.RESTR>
0

>  <SCORE.RESTR.CAVITY>
0

>  <SCORE.RESTR.norm>
0

>  <SCORE.SYSTEM>
0

>  <SCORE.SYSTEM.CONST>
0

>  <SCORE.SYSTEM.DIHEDRAL>
0

>  <SCORE.SYSTEM.SOLV>
0

>  <SCORE.SYSTEM.norm>
0

>  <SCORE.heavy>
37

>  <SCORE.norm>
-1.45301

>  <RMSD>
10.319

$$$$
lig.pdb
 OpenBabel11021811453D
libRbt.so/2013.1/901 2013/11/27
 37 40  0  0  0  0  0  0  0  0999 V2000
   -0.8673    7.9762   10.2483 C   0  0  2  0  0  0  0  0  0  0  0  0
   -2.2485    8.7015   10.3652 C   0  0  1  0  0  0  0  0  0  0  0  0
   -2.6361    9.4973    9.0845 C   0  0  0  0  0  0  0  0  0  0  0  0
   -1.4657   10.3940    8.6099 C   0  0  1  0  0  0  0  0  0  0  0  0
   -0.1985    9.5361    8.3966 C   0  0  1  0  0  0  0  0  0  0  0  0
    0.9792   10.4026    7.8752 C   0  0  1  0  0  0  0  0  0  0  0  0
    0.5620   11.1994    6.6033 C   0  0  1  0  0  0  0  0  0  0  0  0
   -0.7628   11.9898    6.8186 C   0  0  2  0  0  0  0  0  0  0  0  0
    1.6933   12.3209    4.7388 C   0  0  0  0  0  0  0  0  0  0  0  0
    0.1462    8.8281    9.6221 O   0  0  0  0  0  0  0  0  0  0  0  0
   -1.7996   11.1465    7.4081 O   0  0  0  0  0  0  0  0  0  0  0  0
   -3.3058    7.7149   10.6757 N   0  0  0  0  0  0  0  0  0  0  0  0
    1.6745   12.0834    6.1983 N   0  0  0  0  0  0  0  0  0  0  0  0
    1.4703   11.2704    8.8888 O   0  0  0  0  0  0  0  0  0  0  0  0
   -1.2116   12.5820    5.5646 O   0  0  0  0  0  0  0  0  0  0  0  0
   -0.9930    6.7152    9.5227 O   0  0  0  0  0  0  0  0  0  0  0  0
   -2.3887   13.4469    5.5843 C   0  0  2  0  0  0  0  0  0  0  0  0
   -2.4092   14.3884    4.3466 C   0  0  1  0  0  0  0  0  0  0  0  0
   -1.3067   15.4821    4.4368 C   0  0  2  0  0  0  0  0  0  0  0  0
   -1.3881   16.2518    5.7869 C   0  0  1  0  0  0  0  0  0  0  0  0
   -1.4000   15.2731    6.9941 C   0  0  1  0  0  0  0  0  0  0  0  0
   -1.6179   16.0162    8.3382 C   0  0  0  0  0  0  0  0  0  0  0  0
   -2.4187   14.2445    6.8055 O   0  0  0  0  0  0  0  0  0  0  0  0
   -0.2998   17.2464    5.9087 N   0  0  0  0  0  0  0  0  0  0  0  0
   -2.3071   13.6332    3.1409 O   0  0  0  0  0  0  0  0  0  0  0  0
   -1.3779   16.3776    3.3294 O   0  0  0  0  0  0  0  0  0  0  0  0
   -1.4965   15.1206    9.4384 O   0  0  0  0  0  0  0  0  0  0  0  0
    0.1703    5.8382    9.4822 C   0  0  1  0  0  0  0  0  0  0  0  0
    1.2836    6.3916    8.5492 C   0  0  1  0  0  0  0  0  0  0  0  0
    2.4731    5.3959    8.4446 C   0  0  2  0  0  0  0  0  0  0  0  0
    3.0368    4.9910    9.8453 C   0  0  1  0  0  0  0  0  0  0  0  0
    1.9232    4.5593   10.8460 C   0  0  0  0  0  0  0  0  0  0  0  0
    0.7414    5.5735   10.9043 C   0  0  2  0  0  0  0  0  0  0  0  0
    4.0641    3.9360    9.7130 N   0  0  0  0  0  0  0  0  0  0  0  0
   -0.2919    5.0668   11.8331 N   0  0  0  0  0  0  0  0  0  0  0  0
    0.7606    6.6921    7.2593 O   0  0  0  0  0  0  0  0  0  0  0  0
    3.5077    5.9403    7.6293 O   0  0  0  0  0  0  0  0  0  0  0  0
  1  2  1  0  0  0  0
  1 16  1  6  0  0  0
  2  3  1  0  0  0  0
  2 12  1  6  0  0  0
  4 11  1  6  0  0  0
  4  3  1  0  0  0  0
  5  4  1  0  0  0  0
  5 10  1  1  0  0  0
  6  7  1  0  0  0  0
  6  5  1  0  0  0  0
  6 14  1  1  0  0  0
  7  8  1  0  0  0  0
  7 13  1  1  0  0  0
  8 15  1  6  0  0  0
  8 11  1  0  0  0  0
  9 13  1  0  0  0  0
 10  1  1  0  0  0  0
 17 15  1  1  0  0  0
 17 18  1  0  0  0  0
 18 25  1  6  0  0  0
 19 18  1  0  0  0  0
 19 26  1  6  0  0  0
 20 19  1  0  0  0  0
 20 24  1  1  0  0  0
 21 23  1  0  0  0  0
 21 20  1  0  0  0  0
 21 22  1  1  0  0  0
 23 17  1  0  0  0  0
 27 22  1  0  0  0  0
 28 29  1  0  0  0  0
 28 16  1  1  0  0  0
 29 36  1  6  0  0  0
 30 37  1  6  0  0  0
 30 29  1  0  0  0  0
 31 30  1  0  0  0  0
 31 34  1  6  0  0  0
 32 31  1  0  0  0  0
 32 33  1  0  0  0  0
 33 28  1  0  0  0  0
 33 35  1  1  0  0  0
M  END
>  <CHROM.1>
-177.47366239,-175.54335069,150.40810385,-173.61854545,158.55827903,-172.11913022
65.21332155,64.51872792,-174.37573571,76.15754546,-175.45686795,-72.66117634
-61.47573626,-61.01556800,-101.83083642,172.34355002,-0.26038773,10.41333009
7.79722957,1.25353748,-0.65761268,2.52082275

>  <Name>
lig.pdb

>  <RI>
3.60165e+07

>  <Rbt.Current_Directory>
/home/itssahil/PROJECTS/Mol_Feturizer/New_Systems/rnas/2m4q

>  <Rbt.Executable>
rbdock ($Id: //depot/dev/client3/rdock/2013.1/src/exe/rbdock.cxx#4 $)

>  <Rbt.Library>
libRbt.so (2013.1, Build901 2013/11/27)

>  <Rbt.Parameter_File>
/export/apps/rDock/src/rDock_2013.1_src/data/scripts/dock_solv.prm

>  <Rbt.Receptor>
prm/pocket_docking_8.prm

>  <SCORE>
-39.0155

>  <SCORE.INTER>
-19.4327

>  <SCORE.INTER.CONST>
1

>  <SCORE.INTER.POLAR>
-4.24931

>  <SCORE.INTER.ROT>
10

>  <SCORE.INTER.SOLV>
11.0146

>  <SCORE.INTER.VDW>
-12.729

>  <SCORE.INTER.norm>
-0.525209

>  <SCORE.INTRA>
-19.5827

>  <SCORE.INTRA.DIHEDRAL>
-37.0889

>  <SCORE.INTRA.DIHEDRAL.0>
44.8331

>  <SCORE.INTRA.POLAR>
-0.0437147

>  <SCORE.INTRA.POLAR.0>
-0.108895

>  <SCORE.INTRA.REPUL>
-0.00912235

>  <SCORE.INTRA.REPUL.0>
0.00912235

>  <SCORE.INTRA.SOLV>
-1.93652

>  <SCORE.INTRA.SOLV.lig_0>
-53.9067

>  <SCORE.INTRA.VDW>
0.124213

>  <SCORE.INTRA.VDW.0>
-2.93492

>  <SCORE.INTRA.norm>
-0.529263

>  <SCORE.RESTR>
0

>  <SCORE.RESTR.CAVITY>
0

>  <SCORE.RESTR.norm>
0

>  <SCORE.SYSTEM>
0

>  <SCORE.SYSTEM.CONST>
0

>  <SCORE.SYSTEM.DIHEDRAL>
0

>  <SCORE.SYSTEM.SOLV>
0

>  <SCORE.SYSTEM.norm>
0

>  <SCORE.heavy>
37

>  <SCORE.norm>
-1.05447

>  <RMSD>
10.324

$$$$
lig.pdb
 OpenBabel11021811453D
libRbt.so/2013.1/901 2013/11/27
 37 40  0  0  0  0  0  0  0  0999 V2000
    1.4873    4.7028   10.0843 C   0  0  2  0  0  0  0  0  0  0  0  0
    1.1449    4.9596    8.5796 C   0  0  1  0  0  0  0  0  0  0  0  0
    0.5602    6.3780    8.3149 C   0  0  0  0  0  0  0  0  0  0  0  0
   -0.5813    6.7049    9.3093 C   0  0  1  0  0  0  0  0  0  0  0  0
   -0.0752    6.5495   10.7609 C   0  0  1  0  0  0  0  0  0  0  0  0
   -1.1867    6.9168   11.7805 C   0  0  1  0  0  0  0  0  0  0  0  0
   -1.7651    8.3329   11.4855 C   0  0  1  0  0  0  0  0  0  0  0  0
   -2.1911    8.4902    9.9956 C   0  0  2  0  0  0  0  0  0  0  0  0
   -3.0189   10.0435   12.7166 C   0  0  0  0  0  0  0  0  0  0  0  0
    0.4396    5.2040   10.9767 O   0  0  0  0  0  0  0  0  0  0  0  0
   -1.1432    8.0305    9.0876 O   0  0  0  0  0  0  0  0  0  0  0  0
    2.3534    4.7581    7.7511 N   0  0  0  0  0  0  0  0  0  0  0  0
   -2.8835    8.6025   12.4126 N   0  0  0  0  0  0  0  0  0  0  0  0
   -2.2143    5.9344   11.8005 O   0  0  0  0  0  0  0  0  0  0  0  0
   -2.5652    9.8710    9.7164 O   0  0  0  0  0  0  0  0  0  0  0  0
    2.7796    5.2835   10.4381 O   0  0  0  0  0  0  0  0  0  0  0  0
   -3.5533   10.1276    8.6715 C   0  0  2  0  0  0  0  0  0  0  0  0
   -2.9276    9.9548    7.2583 C   0  0  1  0  0  0  0  0  0  0  0  0
   -1.9269   11.0990    6.9279 C   0  0  2  0  0  0  0  0  0  0  0  0
   -2.5816   12.4955    7.1356 C   0  0  1  0  0  0  0  0  0  0  0  0
   -3.2240   12.6128    8.5459 C   0  0  1  0  0  0  0  0  0  0  0  0
   -3.9979   13.9460    8.7191 C   0  0  0  0  0  0  0  0  0  0  0  0
   -4.1005   11.4737    8.8023 O   0  0  0  0  0  0  0  0  0  0  0  0
   -1.6147   13.5879    6.8900 N   0  0  0  0  0  0  0  0  0  0  0  0
   -2.3214    8.6698    7.1324 O   0  0  0  0  0  0  0  0  0  0  0  0
   -1.4100   10.9652    5.6056 O   0  0  0  0  0  0  0  0  0  0  0  0
   -4.2828   14.1923   10.0923 O   0  0  0  0  0  0  0  0  0  0  0  0
    3.8419    4.3734   10.8472 C   0  0  1  0  0  0  0  0  0  0  0  0
    5.1303    4.5645    9.9989 C   0  0  1  0  0  0  0  0  0  0  0  0
    6.2157    3.5208   10.3857 C   0  0  2  0  0  0  0  0  0  0  0  0
    6.5237    3.5207   11.9184 C   0  0  1  0  0  0  0  0  0  0  0  0
    5.2373    3.4656   12.7958 C   0  0  0  0  0  0  0  0  0  0  0  0
    4.1681    4.5129   12.3613 C   0  0  2  0  0  0  0  0  0  0  0  0
    7.4476    2.4208   12.2684 N   0  0  0  0  0  0  0  0  0  0  0  0
    2.9636    4.3607   13.2059 N   0  0  0  0  0  0  0  0  0  0  0  0
    4.8357    4.4959    8.6075 O   0  0  0  0  0  0  0  0  0  0  0  0
    7.4086    3.7426    9.6377 O   0  0  0  0  0  0  0  0  0  0  0  0
  1  2  1  0  0  0  0
  1 16  1  1  0  0  0
  2  3  1  0  0  0  0
  2 12  1  6  0  0  0
  4 11  1  1  0  0  0
  4  3  1  0  0  0  0
  5  4  1  0  0  0  0
  5 10  1  1  0  0  0
  6  7  1  0  0  0  0
  6  5  1  0  0  0  0
  6 14  1  6  0  0  0
  7  8  1  0  0  0  0
  7 13  1  1  0  0  0
  8 15  1  6  0  0  0
  8 11  1  0  0  0  0
  9 13  1  0  0  0  0
 10  1  1  0  0  0  0
 17 15  1  1  0  0  0
 17 18  1  0  0  0  0
 18 25  1  1  0  0  0
 19 18  1  0  0  0  0
 19 26  1  6  0  0  0
 20 19  1  0  0  0  0
 20 24  1  1  0  0  0
 21 23  1  0  0  0  0
 21 20  1  0  0  0  0
 21 22  1  6  0  0  0
 23 17  1  0  0  0  0
 27 22  1  0  0  0  0
 28 29  1  0  0  0  0
 28 16  1  6  0  0  0
 29 36  1  6  0  0  0
 30 37  1  6  0  0  0
 30 29  1  0  0  0  0
 31 30  1  0  0  0  0
 31 34  1  6  0  0  0
 32 31  1  0  0  0  0
 32 33  1  0  0  0  0
 33 28  1  0  0  0  0
 33 35  1  1  0  0  0
M  END
>  <CHROM.1>
-50.13023391,-151.01387821,149.91285017,-69.65765123,-75.50207196,-116.16403822
179.52298910,-65.51541589,-165.15060586,58.71769384,-176.65791422,125.45979537
-62.83952943,61.59630499,-178.05520217,-166.91749794,0.34703990,7.55871147
9.78940636,0.54484280,-0.59340087,2.10150584

>  <Name>
lig.pdb

>  <RI>
0

>  <Rbt.Current_Directory>
/home/itssahil/PROJECTS/Mol_Feturizer/New_Systems/rnas/2m4q

>  <Rbt.Executable>
rbdock ($Id: //depot/dev/client3/rdock/2013.1/src/exe/rbdock.cxx#4 $)

>  <Rbt.Library>
libRbt.so (2013.1, Build901 2013/11/27)

>  <Rbt.Parameter_File>
/export/apps/rDock/src/rDock_2013.1_src/data/scripts/dock_solv.prm

>  <Rbt.Receptor>
prm/pocket_docking_2.prm

>  <SCORE>
-14.0995

>  <SCORE.INTER>
-5.68061

>  <SCORE.INTER.CONST>
1

>  <SCORE.INTER.POLAR>
-0.748331

>  <SCORE.INTER.ROT>
10

>  <SCORE.INTER.SOLV>
11.9068

>  <SCORE.INTER.VDW>
-15.5282

>  <SCORE.INTER.norm>
-0.15353

>  <SCORE.INTRA>
-10.7539

>  <SCORE.INTRA.DIHEDRAL>
-22.5528

>  <SCORE.INTRA.DIHEDRAL.0>
44.8331

>  <SCORE.INTRA.POLAR>
-0.309862

>  <SCORE.INTRA.POLAR.0>
-0.108895

>  <SCORE.INTRA.REPUL>
0.143225

>  <SCORE.INTRA.REPUL.0>
0.00912235

>  <SCORE.INTRA.SOLV>
-0.239476

>  <SCORE.INTRA.SOLV.lig_0>
-53.9067

>  <SCORE.INTRA.VDW>
0.979591

>  <SCORE.INTRA.VDW.0>
-2.93492

>  <SCORE.INTRA.norm>
-0.290647

>  <SCORE.RESTR>
2.33509

>  <SCORE.RESTR.CAVITY>
2.33509

>  <SCORE.RESTR.norm>
0.0631105

>  <SCORE.SYSTEM>
0

>  <SCORE.SYSTEM.CONST>
0

>  <SCORE.SYSTEM.DIHEDRAL>
0

>  <SCORE.SYSTEM.SOLV>
0

>  <SCORE.SYSTEM.norm>
0

>  <SCORE.heavy>
37

>  <SCORE.norm>
-0.381066

>  <RMSD>
10.366

$$$$
lig.pdb
 OpenBabel11021811453D
libRbt.so/2013.1/901 2013/11/27
 37 40  0  0  0  0  0  0  0  0999 V2000
    2.9304    4.2283    9.4096 C   0  0  2  0  0  0  0  0  0  0  0  0
    3.2392    4.7608    7.9714 C   0  0  1  0  0  0  0  0  0  0  0  0
    2.7382    6.2154    7.7330 C   0  0  0  0  0  0  0  0  0  0  0  0
    1.2670    6.3799    8.1883 C   0  0  1  0  0  0  0  0  0  0  0  0
    1.1227    5.9533    9.6663 C   0  0  1  0  0  0  0  0  0  0  0  0
   -0.3343    6.1523   10.1636 C   0  0  1  0  0  0  0  0  0  0  0  0
   -0.8168    7.6099    9.9006 C   0  0  1  0  0  0  0  0  0  0  0  0
   -0.5841    8.0437    8.4228 C   0  0  2  0  0  0  0  0  0  0  0  0
   -2.4009    7.7844   11.7645 C   0  0  0  0  0  0  0  0  0  0  0  0
    1.5769    4.5807    9.8441 O   0  0  0  0  0  0  0  0  0  0  0  0
    0.7738    7.7349    7.9817 O   0  0  0  0  0  0  0  0  0  0  0  0
    4.6939    4.6882    7.7137 N   0  0  0  0  0  0  0  0  0  0  0  0
   -2.2354    7.7299   10.2959 N   0  0  0  0  0  0  0  0  0  0  0  0
   -1.2150    5.2039    9.5750 O   0  0  0  0  0  0  0  0  0  0  0  0
   -0.8863    9.4597    8.2545 O   0  0  0  0  0  0  0  0  0  0  0  0
    3.9169    4.7085   10.3734 O   0  0  0  0  0  0  0  0  0  0  0  0
   -1.5888    9.8834    7.0459 C   0  0  2  0  0  0  0  0  0  0  0  0
   -0.6203    9.9435    5.8305 C   0  0  1  0  0  0  0  0  0  0  0  0
    0.3828   11.1263    5.9516 C   0  0  2  0  0  0  0  0  0  0  0  0
   -0.3608   12.4701    6.2027 C   0  0  1  0  0  0  0  0  0  0  0  0
   -1.3423   12.3557    7.4023 C   0  0  1  0  0  0  0  0  0  0  0  0
   -2.1898   13.6428    7.5801 C   0  0  0  0  0  0  0  0  0  0  0  0
   -2.2068   11.1901    7.2432 O   0  0  0  0  0  0  0  0  0  0  0  0
    0.5904   13.5879    6.3880 N   0  0  0  0  0  0  0  0  0  0  0  0
    0.0510    8.6963    5.6626 O   0  0  0  0  0  0  0  0  0  0  0  0
    1.2215   11.2101    4.8014 O   0  0  0  0  0  0  0  0  0  0  0  0
   -1.3898   14.7129    8.0723 O   0  0  0  0  0  0  0  0  0  0  0  0
    4.3929    3.7688   11.3805 C   0  0  1  0  0  0  0  0  0  0  0  0
    5.5044    2.8347   10.8253 C   0  0  1  0  0  0  0  0  0  0  0  0
    5.9291    1.7784   11.8840 C   0  0  2  0  0  0  0  0  0  0  0  0
    6.3430    2.4297   13.2436 C   0  0  1  0  0  0  0  0  0  0  0  0
    5.3062    3.4734   13.7569 C   0  0  0  0  0  0  0  0  0  0  0  0
    4.8924    4.4994   12.6592 C   0  0  2  0  0  0  0  0  0  0  0  0
    6.5976    1.3930   14.2666 N   0  0  0  0  0  0  0  0  0  0  0  0
    3.8721    5.4182   13.2090 N   0  0  0  0  0  0  0  0  0  0  0  0
    5.0806    2.2025    9.6218 O   0  0  0  0  0  0  0  0  0  0  0  0
    6.9850    0.9645   11.3795 O   0  0  0  0  0  0  0  0  0  0  0  0
  1  2  1  0  0  0  0
  1 16  1  1  0  0  0
  2  3  1  0  0  0  0
  2 12  1  1  0  0  0
  4 11  1  1  0  0  0
  4  3  1  0  0  0  0
  5  4  1  0  0  0  0
  5 10  1  6  0  0  0
  6  7  1  0  0  0  0
  6  5  1  0  0  0  0
  6 14  1  6  0  0  0
  7  8  1  0  0  0  0
  7 13  1  6  0  0  0
  8 15  1  1  0  0  0
  8 11  1  0  0  0  0
  9 13  1  0  0  0  0
 10  1  1  0  0  0  0
 17 15  1  1  0  0  0
 17 18  1  0  0  0  0
 18 25  1  1  0  0  0
 19 18  1  0  0  0  0
 19 26  1  6  0  0  0
 20 19  1  0  0  0  0
 20 24  1  1  0  0  0
 21 23  1  0  0  0  0
 21 20  1  0  0  0  0
 21 22  1  6  0  0  0
 23 17  1  0  0  0  0
 27 22  1  0  0  0  0
 28 29  1  0  0  0  0
 28 16  1  6  0  0  0
 29 36  1  6  0  0  0
 30 37  1  6  0  0  0
 30 29  1  0  0  0  0
 31 30  1  0  0  0  0
 31 34  1  1  0  0  0
 32 31  1  0  0  0  0
 32 33  1  0  0  0  0
 33 28  1  0  0  0  0
 33 35  1  1  0  0  0
M  END
>  <CHROM.1>
-64.07320303,-139.61906789,75.30899226,-55.44229253,-77.88260313,-138.91989758
-62.30064569,-171.14106560,-71.43970624,-53.74878846,50.28243512,81.30118331
68.39884514,-159.43358112,-179.66871573,-58.29169899,1.66458150,7.01765566
9.21430127,-0.88517375,0.57316387,-0.91062243

>  <Name>
lig.pdb

>  <RI>
3.60165e+07

>  <Rbt.Current_Directory>
/home/itssahil/PROJECTS/Mol_Feturizer/New_Systems/rnas/2m4q

>  <Rbt.Executable>
rbdock ($Id: //depot/dev/client3/rdock/2013.1/src/exe/rbdock.cxx#4 $)

>  <Rbt.Library>
libRbt.so (2013.1, Build901 2013/11/27)

>  <Rbt.Parameter_File>
/export/apps/rDock/src/rDock_2013.1_src/data/scripts/dock_solv.prm

>  <Rbt.Receptor>
prm/pocket_docking_8.prm

>  <SCORE>
-32.8627

>  <SCORE.INTER>
-11.1584

>  <SCORE.INTER.CONST>
1

>  <SCORE.INTER.POLAR>
-2.39421

>  <SCORE.INTER.ROT>
10

>  <SCORE.INTER.SOLV>
11.3531

>  <SCORE.INTER.VDW>
-13.5093

>  <SCORE.INTER.norm>
-0.301578

>  <SCORE.INTRA>
-21.7043

>  <SCORE.INTRA.DIHEDRAL>
-25.7566

>  <SCORE.INTRA.DIHEDRAL.0>
44.8331

>  <SCORE.INTRA.POLAR>
-2.68604

>  <SCORE.INTRA.POLAR.0>
-0.108895

>  <SCORE.INTRA.REPUL>
-0.00912235

>  <SCORE.INTRA.REPUL.0>
0.00912235

>  <SCORE.INTRA.SOLV>
-0.490993

>  <SCORE.INTRA.SOLV.lig_0>
-53.9067

>  <SCORE.INTRA.VDW>
0.597702

>  <SCORE.INTRA.VDW.0>
-2.93492

>  <SCORE.INTRA.norm>
-0.586602

>  <SCORE.RESTR>
0

>  <SCORE.RESTR.CAVITY>
0

>  <SCORE.RESTR.norm>
0

>  <SCORE.SYSTEM>
0

>  <SCORE.SYSTEM.CONST>
0

>  <SCORE.SYSTEM.DIHEDRAL>
0

>  <SCORE.SYSTEM.SOLV>
0

>  <SCORE.SYSTEM.norm>
0

>  <SCORE.heavy>
37

>  <SCORE.norm>
-0.88818

>  <RMSD>
10.383

$$$$
lig.pdb
 OpenBabel11021811453D
libRbt.so/2013.1/901 2013/11/27
 37 40  0  0  0  0  0  0  0  0999 V2000
    4.7334    6.6314    8.9079 C   0  0  2  0  0  0  0  0  0  0  0  0
    4.9493    8.1655    9.1251 C   0  0  1  0  0  0  0  0  0  0  0  0
    3.7351    8.8683    9.8000 C   0  0  0  0  0  0  0  0  0  0  0  0
    2.4090    8.4887    9.0955 C   0  0  1  0  0  0  0  0  0  0  0  0
    2.2474    6.9523    9.0704 C   0  0  1  0  0  0  0  0  0  0  0  0
    0.9028    6.5445    8.4108 C   0  0  1  0  0  0  0  0  0  0  0  0
   -0.2939    7.2716    9.0935 C   0  0  1  0  0  0  0  0  0  0  0  0
   -0.0687    8.8104    9.1804 C   0  0  2  0  0  0  0  0  0  0  0  0
   -1.6461    7.6437    7.0818 C   0  0  0  0  0  0  0  0  0  0  0  0
    3.3888    6.3336    8.4096 O   0  0  0  0  0  0  0  0  0  0  0  0
    1.2544    9.1287    9.7113 O   0  0  0  0  0  0  0  0  0  0  0  0
    6.1659    8.3887    9.9361 N   0  0  0  0  0  0  0  0  0  0  0  0
   -1.5401    6.9341    8.3750 N   0  0  0  0  0  0  0  0  0  0  0  0
    0.9207    6.7857    7.0097 O   0  0  0  0  0  0  0  0  0  0  0  0
   -1.1212    9.4348    9.9722 O   0  0  0  0  0  0  0  0  0  0  0  0
    5.0014    5.8820   10.1323 O   0  0  0  0  0  0  0  0  0  0  0  0
   -1.0276   10.8656   10.2511 C   0  0  2  0  0  0  0  0  0  0  0  0
   -1.9107   11.2546   11.4706 C   0  0  1  0  0  0  0  0  0  0  0  0
   -3.4270   11.1753   11.1321 C   0  0  2  0  0  0  0  0  0  0  0  0
   -3.7609   11.9973    9.8536 C   0  0  1  0  0  0  0  0  0  0  0  0
   -2.8334   11.6019    8.6709 C   0  0  1  0  0  0  0  0  0  0  0  0
   -3.0613   12.5056    7.4308 C   0  0  0  0  0  0  0  0  0  0  0  0
   -1.4342   11.6432    9.0856 O   0  0  0  0  0  0  0  0  0  0  0  0
   -5.1883   11.8699    9.4864 N   0  0  0  0  0  0  0  0  0  0  0  0
   -1.5798   10.4548   12.6044 O   0  0  0  0  0  0  0  0  0  0  0  0
   -4.2240   11.5967   12.2369 O   0  0  0  0  0  0  0  0  0  0  0  0
   -2.7345   13.8602    7.7234 O   0  0  0  0  0  0  0  0  0  0  0  0
    5.4267    4.4946    9.9978 C   0  0  1  0  0  0  0  0  0  0  0  0
    6.9649    4.3735    9.8093 C   0  0  1  0  0  0  0  0  0  0  0  0
    7.3855    2.8958    9.5712 C   0  0  2  0  0  0  0  0  0  0  0  0
    6.8600    1.9385   10.6899 C   0  0  1  0  0  0  0  0  0  0  0  0
    5.3444    2.1345   10.9936 C   0  0  0  0  0  0  0  0  0  0  0  0
    4.9622    3.6305   11.2045 C   0  0  2  0  0  0  0  0  0  0  0  0
    7.1521    0.5285   10.3545 N   0  0  0  0  0  0  0  0  0  0  0  0
    3.5050    3.7348   11.4349 N   0  0  0  0  0  0  0  0  0  0  0  0
    7.4117    5.2046    8.7429 O   0  0  0  0  0  0  0  0  0  0  0  0
    8.8024    2.7943    9.4536 O   0  0  0  0  0  0  0  0  0  0  0  0
  1  2  1  0  0  0  0
  1 16  1  1  0  0  0
  2  3  1  0  0  0  0
  2 12  1  1  0  0  0
  4 11  1  1  0  0  0
  4  3  1  0  0  0  0
  5  4  1  0  0  0  0
  5 10  1  6  0  0  0
  6  7  1  0  0  0  0
  6  5  1  0  0  0  0
  6 14  1  6  0  0  0
  7  8  1  0  0  0  0
  7 13  1  6  0  0  0
  8 15  1  1  0  0  0
  8 11  1  0  0  0  0
  9 13  1  0  0  0  0
 10  1  1  0  0  0  0
 17 15  1  6  0  0  0
 17 18  1  0  0  0  0
 18 25  1  1  0  0  0
 19 18  1  0  0  0  0
 19 26  1  1  0  0  0
 20 19  1  0  0  0  0
 20 24  1  6  0  0  0
 21 23  1  0  0  0  0
 21 20  1  0  0  0  0
 21 22  1  6  0  0  0
 23 17  1  0  0  0  0
 27 22  1  0  0  0  0
 28 29  1  0  0  0  0
 28 16  1  1  0  0  0
 29 36  1  6  0  0  0
 30 37  1  1  0  0  0
 30 29  1  0  0  0  0
 31 30  1  0  0  0  0
 31 34  1  6  0  0  0
 32 31  1  0  0  0  0
 32 33  1  0  0  0  0
 33 28  1  0  0  0  0
 33 35  1  6  0  0  0
M  END
>  <CHROM.1>
-59.91631774,175.50491235,-74.92751674,66.49204124,-160.25064959,-153.39096906
-55.41343355,-50.63432348,62.97073284,-39.69712539,66.10507920,86.22727123
174.95789927,-64.22324960,-51.44766313,73.34188246,1.70386887,7.66220710
9.60568514,-0.64680041,0.27381147,-0.37847266

>  <Name>
lig.pdb

>  <RI>
2.86754e+07

>  <Rbt.Current_Directory>
/home/itssahil/PROJECTS/Mol_Feturizer/New_Systems/rnas/2m4q

>  <Rbt.Executable>
rbdock ($Id: //depot/dev/client3/rdock/2013.1/src/exe/rbdock.cxx#4 $)

>  <Rbt.Library>
libRbt.so (2013.1, Build901 2013/11/27)

>  <Rbt.Parameter_File>
/export/apps/rDock/src/rDock_2013.1_src/data/scripts/dock_solv.prm

>  <Rbt.Receptor>
prm/pocket_docking_5.prm

>  <SCORE>
-37.644

>  <SCORE.INTER>
-23.5522

>  <SCORE.INTER.CONST>
1

>  <SCORE.INTER.POLAR>
-4.91233

>  <SCORE.INTER.ROT>
10

>  <SCORE.INTER.SOLV>
12.8837

>  <SCORE.INTER.VDW>
-13.8883

>  <SCORE.INTER.norm>
-0.636547

>  <SCORE.INTRA>
-14.0918

>  <SCORE.INTRA.DIHEDRAL>
-34.0374

>  <SCORE.INTRA.DIHEDRAL.0>
44.8331

>  <SCORE.INTRA.POLAR>
0.0588222

>  <SCORE.INTRA.POLAR.0>
-0.108895

>  <SCORE.INTRA.REPUL>
-0.00912235

>  <SCORE.INTRA.REPUL.0>
0.00912235

>  <SCORE.INTRA.SOLV>
-1.41475

>  <SCORE.INTRA.SOLV.lig_0>
-53.9067

>  <SCORE.INTRA.VDW>
3.47989

>  <SCORE.INTRA.VDW.0>
-2.93492

>  <SCORE.INTRA.norm>
-0.38086

>  <SCORE.RESTR>
0

>  <SCORE.RESTR.CAVITY>
0

>  <SCORE.RESTR.norm>
0

>  <SCORE.SYSTEM>
0

>  <SCORE.SYSTEM.CONST>
0

>  <SCORE.SYSTEM.DIHEDRAL>
0

>  <SCORE.SYSTEM.SOLV>
0

>  <SCORE.SYSTEM.norm>
0

>  <SCORE.heavy>
37

>  <SCORE.norm>
-1.01741

>  <RMSD>
10.397

$$$$
lig.pdb
 OpenBabel11021811453D
libRbt.so/2013.1/901 2013/11/27
 37 40  0  0  0  0  0  0  0  0999 V2000
   -0.0651    6.7183    8.3903 C   0  0  2  0  0  0  0  0  0  0  0  0
   -0.8800    6.8345    7.0601 C   0  0  1  0  0  0  0  0  0  0  0  0
   -1.4892    8.2491    6.8331 C   0  0  0  0  0  0  0  0  0  0  0  0
   -2.2307    8.7464    8.0987 C   0  0  1  0  0  0  0  0  0  0  0  0
   -1.2768    8.7154    9.3138 C   0  0  1  0  0  0  0  0  0  0  0  0
   -1.9808    9.2536   10.5883 C   0  0  1  0  0  0  0  0  0  0  0  0
   -2.5941   10.6623   10.3313 C   0  0  1  0  0  0  0  0  0  0  0  0
   -3.4852   10.6864    9.0540 C   0  0  2  0  0  0  0  0  0  0  0  0
   -3.2077   12.5474   11.7748 C   0  0  0  0  0  0  0  0  0  0  0  0
   -0.7482    7.3721    9.5088 O   0  0  0  0  0  0  0  0  0  0  0  0
   -2.8062   10.0720    7.9158 O   0  0  0  0  0  0  0  0  0  0  0  0
   -0.0178    6.4754    5.9132 N   0  0  0  0  0  0  0  0  0  0  0  0
   -3.3373   11.0942   11.5330 N   0  0  0  0  0  0  0  0  0  0  0  0
   -2.9647    8.3414   11.0591 O   0  0  0  0  0  0  0  0  0  0  0  0
   -3.9012   12.0497    8.7494 O   0  0  0  0  0  0  0  0  0  0  0  0
    1.2835    7.2555    8.2318 O   0  0  0  0  0  0  0  0  0  0  0  0
   -3.1192   12.8176    7.7836 C   0  0  2  0  0  0  0  0  0  0  0  0
   -3.6129   14.2906    7.7121 C   0  0  1  0  0  0  0  0  0  0  0  0
   -5.0073   14.3980    7.0308 C   0  0  2  0  0  0  0  0  0  0  0  0
   -5.0121   13.6879    5.6460 C   0  0  1  0  0  0  0  0  0  0  0  0
   -4.4796   12.2320    5.7571 C   0  0  1  0  0  0  0  0  0  0  0  0
   -4.3497   11.5567    4.3667 C   0  0  0  0  0  0  0  0  0  0  0  0
   -3.1999   12.2104    6.4596 O   0  0  0  0  0  0  0  0  0  0  0  0
   -6.3535   13.7262    5.0235 N   0  0  0  0  0  0  0  0  0  0  0  0
   -3.6117   14.8830    9.0096 O   0  0  0  0  0  0  0  0  0  0  0  0
   -5.4192   15.7581    6.9124 O   0  0  0  0  0  0  0  0  0  0  0  0
   -4.3830   10.1383    4.4867 O   0  0  0  0  0  0  0  0  0  0  0  0
    2.3078    6.8000    9.1631 C   0  0  1  0  0  0  0  0  0  0  0  0
    2.0366    7.2924   10.6123 C   0  0  1  0  0  0  0  0  0  0  0  0
    3.1894    6.8781   11.5697 C   0  0  2  0  0  0  0  0  0  0  0  0
    3.4811    5.3430   11.5226 C   0  0  1  0  0  0  0  0  0  0  0  0
    3.6240    4.7968   10.0704 C   0  0  0  0  0  0  0  0  0  0  0  0
    2.4600    5.2525    9.1396 C   0  0  2  0  0  0  0  0  0  0  0  0
    4.6738    5.0100   12.3305 N   0  0  0  0  0  0  0  0  0  0  0  0
    2.6967    4.7377    7.7735 N   0  0  0  0  0  0  0  0  0  0  0  0
    1.8385    8.7022   10.6397 O   0  0  0  0  0  0  0  0  0  0  0  0
    2.9010    7.2899   12.9035 O   0  0  0  0  0  0  0  0  0  0  0  0
  1  2  1  0  0  0  0
  1 16  1  6  0  0  0
  2  3  1  0  0  0  0
  2 12  1  6  0  0  0
  4 11  1  6  0  0  0
  4  3  1  0  0  0  0
  5  4  1  0  0  0  0
  5 10  1  1  0  0  0
  6  7  1  0  0  0  0
  6  5  1  0  0  0  0
  6 14  1  6  0  0  0
  7  8  1  0  0  0  0
  7 13  1  1  0  0  0
  8 15  1  6  0  0  0
  8 11  1  0  0  0  0
  9 13  1  0  0  0  0
 10  1  1  0  0  0  0
 17 15  1  1  0  0  0
 17 18  1  0  0  0  0
 18 25  1  1  0  0  0
 19 18  1  0  0  0  0
 19 26  1  6  0  0  0
 20 19  1  0  0  0  0
 20 24  1  1  0  0  0
 21 23  1  0  0  0  0
 21 20  1  0  0  0  0
 21 22  1  6  0  0  0
 23 17  1  0  0  0  0
 27 22  1  0  0  0  0
 28 29  1  0  0  0  0
 28 16  1  6  0  0  0
 29 36  1  6  0  0  0
 30 37  1  1  0  0  0
 30 29  1  0  0  0  0
 31 30  1  0  0  0  0
 31 34  1  1  0  0  0
 32 31  1  0  0  0  0
 32 33  1  0  0  0  0
 33 28  1  0  0  0  0
 33 35  1  6  0  0  0
M  END
>  <CHROM.1>
68.67839628,95.39795536,143.51559943,-71.69919810,-173.47194812,-157.86922309
-56.86958137,-173.55419307,-157.04109515,68.61123765,-171.63541315,-67.09236021
63.51220959,-59.62701547,-176.97917641,-27.19570941,-1.35108387,9.56412956
8.65352940,0.01865608,0.83967290,-2.03925661

>  <Name>
lig.pdb

>  <RI>
3.87352e+07

>  <Rbt.Current_Directory>
/home/itssahil/PROJECTS/Mol_Feturizer/New_Systems/rnas/2m4q

>  <Rbt.Executable>
rbdock ($Id: //depot/dev/client3/rdock/2013.1/src/exe/rbdock.cxx#4 $)

>  <Rbt.Library>
libRbt.so (2013.1, Build901 2013/11/27)

>  <Rbt.Parameter_File>
/export/apps/rDock/src/rDock_2013.1_src/data/scripts/dock_solv.prm

>  <Rbt.Receptor>
prm/pocket_docking_4.prm

>  <SCORE>
-39.4776

>  <SCORE.INTER>
-22.883

>  <SCORE.INTER.CONST>
1

>  <SCORE.INTER.POLAR>
-3.40338

>  <SCORE.INTER.ROT>
10

>  <SCORE.INTER.SOLV>
16.3445

>  <SCORE.INTER.VDW>
-19.6256

>  <SCORE.INTER.norm>
-0.61846

>  <SCORE.INTRA>
-16.5946

>  <SCORE.INTRA.DIHEDRAL>
-30.7885

>  <SCORE.INTRA.DIHEDRAL.0>
44.8331

>  <SCORE.INTRA.POLAR>
-0.0130863

>  <SCORE.INTRA.POLAR.0>
-0.108895

>  <SCORE.INTRA.REPUL>
0.0467925

>  <SCORE.INTRA.REPUL.0>
0.00912235

>  <SCORE.INTRA.SOLV>
-0.720953

>  <SCORE.INTRA.SOLV.lig_0>
-53.9067

>  <SCORE.INTRA.VDW>
-1.02935

>  <SCORE.INTRA.VDW.0>
-2.93492

>  <SCORE.INTRA.norm>
-0.448503

>  <SCORE.RESTR>
0

>  <SCORE.RESTR.CAVITY>
0

>  <SCORE.RESTR.norm>
0

>  <SCORE.SYSTEM>
0

>  <SCORE.SYSTEM.CONST>
0

>  <SCORE.SYSTEM.DIHEDRAL>
0

>  <SCORE.SYSTEM.SOLV>
0

>  <SCORE.SYSTEM.norm>
0

>  <SCORE.heavy>
37

>  <SCORE.norm>
-1.06696

>  <RMSD>
10.398

$$$$
lig.pdb
 OpenBabel11021811453D
libRbt.so/2013.1/901 2013/11/27
 37 40  0  0  0  0  0  0  0  0999 V2000
   -1.8468    7.2966   11.8259 C   0  0  2  0  0  0  0  0  0  0  0  0
   -3.0392    7.8504   10.9782 C   0  0  1  0  0  0  0  0  0  0  0  0
   -3.4245    9.3146   11.3409 C   0  0  0  0  0  0  0  0  0  0  0  0
   -3.5762    9.4879   12.8726 C   0  0  1  0  0  0  0  0  0  0  0  0
   -2.2808    9.0373   13.5841 C   0  0  1  0  0  0  0  0  0  0  0  0
   -2.3875    9.2442   15.1188 C   0  0  1  0  0  0  0  0  0  0  0  0
   -2.7881   10.7116   15.4549 C   0  0  1  0  0  0  0  0  0  0  0  0
   -4.0487   11.1683   14.6621 C   0  0  2  0  0  0  0  0  0  0  0  0
   -1.6882   10.9679   17.6317 C   0  0  0  0  0  0  0  0  0  0  0  0
   -1.9679    7.6567   13.2404 O   0  0  0  0  0  0  0  0  0  0  0  0
   -3.9311   10.8518   13.2409 O   0  0  0  0  0  0  0  0  0  0  0  0
   -2.7102    7.7658    9.5386 N   0  0  0  0  0  0  0  0  0  0  0  0
   -2.9755   10.8408   16.9148 N   0  0  0  0  0  0  0  0  0  0  0  0
   -3.2925    8.3163   15.7033 O   0  0  0  0  0  0  0  0  0  0  0  0
   -4.2926   12.5904   14.8694 O   0  0  0  0  0  0  0  0  0  0  0  0
   -0.5649    7.7487   11.2922 O   0  0  0  0  0  0  0  0  0  0  0  0
   -3.1553   13.5060   14.8256 C   0  0  2  0  0  0  0  0  0  0  0  0
   -3.5860   14.9487   15.2153 C   0  0  1  0  0  0  0  0  0  0  0  0
   -4.4647   15.6051   14.1121 C   0  0  2  0  0  0  0  0  0  0  0  0
   -3.7677   15.5338   12.7224 C   0  0  1  0  0  0  0  0  0  0  0  0
   -3.3232   14.0824   12.3884 C   0  0  1  0  0  0  0  0  0  0  0  0
   -2.5072   14.0169   11.0708 C   0  0  0  0  0  0  0  0  0  0  0  0
   -2.5568   13.5174   13.4952 O   0  0  0  0  0  0  0  0  0  0  0  0
   -4.6276   16.0939   11.6570 N   0  0  0  0  0  0  0  0  0  0  0  0
   -4.2401   14.9511   16.4829 O   0  0  0  0  0  0  0  0  0  0  0  0
   -4.7983   16.9493   14.4514 O   0  0  0  0  0  0  0  0  0  0  0  0
   -1.2839   14.7348   11.1956 O   0  0  0  0  0  0  0  0  0  0  0  0
    0.4410    6.7361   10.9974 C   0  0  1  0  0  0  0  0  0  0  0  0
    0.2536    6.1256    9.5802 C   0  0  1  0  0  0  0  0  0  0  0  0
    1.2749    4.9818    9.3234 C   0  0  2  0  0  0  0  0  0  0  0  0
    2.7509    5.4335    9.5711 C   0  0  1  0  0  0  0  0  0  0  0  0
    2.9398    6.1707   10.9308 C   0  0  0  0  0  0  0  0  0  0  0  0
    1.8837    7.2941   11.1572 C   0  0  2  0  0  0  0  0  0  0  0  0
    3.6768    4.2861    9.4609 N   0  0  0  0  0  0  0  0  0  0  0  0
    2.0990    7.9066   12.4860 N   0  0  0  0  0  0  0  0  0  0  0  0
   -1.0807    5.6620    9.4005 O   0  0  0  0  0  0  0  0  0  0  0  0
    1.1259    4.4687    8.0020 O   0  0  0  0  0  0  0  0  0  0  0  0
  1  2  1  0  0  0  0
  1 16  1  6  0  0  0
  2  3  1  0  0  0  0
  2 12  1  6  0  0  0
  4 11  1  6  0  0  0
  4  3  1  0  0  0  0
  5  4  1  0  0  0  0
  5 10  1  1  0  0  0
  6  7  1  0  0  0  0
  6  5  1  0  0  0  0
  6 14  1  6  0  0  0
  7  8  1  0  0  0  0
  7 13  1  1  0  0  0
  8 15  1  6  0  0  0
  8 11  1  0  0  0  0
  9 13  1  0  0  0  0
 10  1  1  0  0  0  0
 17 15  1  6  0  0  0
 17 18  1  0  0  0  0
 18 25  1  1  0  0  0
 19 18  1  0  0  0  0
 19 26  1  1  0  0  0
 20 19  1  0  0  0  0
 20 24  1  6  0  0  0
 21 23  1  0  0  0  0
 21 20  1  0  0  0  0
 21 22  1  6  0  0  0
 23 17  1  0  0  0  0
 27 22  1  0  0  0  0
 28 29  1  0  0  0  0
 28 16  1  6  0  0  0
 29 36  1  1  0  0  0
 30 37  1  6  0  0  0
 30 29  1  0  0  0  0
 31 30  1  0  0  0  0
 31 34  1  1  0  0  0
 32 31  1  0  0  0  0
 32 33  1  0  0  0  0
 33 28  1  0  0  0  0
 33 35  1  1  0  0  0
M  END
>  <CHROM.1>
-71.61863974,43.48943781,79.35119289,64.88321303,-174.00188403,-126.78906612
-56.97836750,-59.92820348,64.26365335,-91.58328837,-179.16667612,85.24405024
179.16604809,173.22596388,78.34651490,-57.72999047,-1.84347074,10.12603112
12.61080853,0.16785900,-1.09147717,2.22387299

>  <Name>
lig.pdb

>  <RI>
3.60165e+07

>  <Rbt.Current_Directory>
/home/itssahil/PROJECTS/Mol_Feturizer/New_Systems/rnas/2m4q

>  <Rbt.Executable>
rbdock ($Id: //depot/dev/client3/rdock/2013.1/src/exe/rbdock.cxx#4 $)

>  <Rbt.Library>
libRbt.so (2013.1, Build901 2013/11/27)

>  <Rbt.Parameter_File>
/export/apps/rDock/src/rDock_2013.1_src/data/scripts/dock_solv.prm

>  <Rbt.Receptor>
prm/pocket_docking_8.prm

>  <SCORE>
-51.0669

>  <SCORE.INTER>
-35.5636

>  <SCORE.INTER.CONST>
1

>  <SCORE.INTER.POLAR>
-5.83303

>  <SCORE.INTER.ROT>
10

>  <SCORE.INTER.SOLV>
14.3965

>  <SCORE.INTER.VDW>
-19.3312

>  <SCORE.INTER.norm>
-0.96118

>  <SCORE.INTRA>
-15.5032

>  <SCORE.INTRA.DIHEDRAL>
-29.9493

>  <SCORE.INTRA.DIHEDRAL.0>
44.8331

>  <SCORE.INTRA.POLAR>
0.0548382

>  <SCORE.INTRA.POLAR.0>
-0.108895

>  <SCORE.INTRA.REPUL>
-0.00912235

>  <SCORE.INTRA.REPUL.0>
0.00912235

>  <SCORE.INTRA.SOLV>
-0.361569

>  <SCORE.INTRA.SOLV.lig_0>
-53.9067

>  <SCORE.INTRA.VDW>
-0.488661

>  <SCORE.INTRA.VDW.0>
-2.93492

>  <SCORE.INTRA.norm>
-0.419006

>  <SCORE.RESTR>
0

>  <SCORE.RESTR.CAVITY>
0

>  <SCORE.RESTR.norm>
0

>  <SCORE.SYSTEM>
0

>  <SCORE.SYSTEM.CONST>
0

>  <SCORE.SYSTEM.DIHEDRAL>
0

>  <SCORE.SYSTEM.SOLV>
0

>  <SCORE.SYSTEM.norm>
0

>  <SCORE.heavy>
37

>  <SCORE.norm>
-1.38019

>  <RMSD>
10.399

$$$$
lig.pdb
 OpenBabel11021811453D
libRbt.so/2013.1/901 2013/11/27
 37 40  0  0  0  0  0  0  0  0999 V2000
    0.2589    6.9505    6.6638 C   0  0  2  0  0  0  0  0  0  0  0  0
   -0.4480    7.7158    5.4969 C   0  0  1  0  0  0  0  0  0  0  0  0
   -1.0694    9.0733    5.9386 C   0  0  0  0  0  0  0  0  0  0  0  0
   -1.9224    8.9050    7.2204 C   0  0  1  0  0  0  0  0  0  0  0  0
   -1.0696    8.2675    8.3401 C   0  0  1  0  0  0  0  0  0  0  0  0
   -1.8869    8.1300    9.6526 C   0  0  1  0  0  0  0  0  0  0  0  0
   -2.5098    9.4970   10.0650 C   0  0  1  0  0  0  0  0  0  0  0  0
   -3.2948   10.1576    8.8929 C   0  0  2  0  0  0  0  0  0  0  0  0
   -3.3333   10.4787   12.1559 C   0  0  0  0  0  0  0  0  0  0  0  0
   -0.5276    6.9895    7.8987 O   0  0  0  0  0  0  0  0  0  0  0  0
   -2.5117   10.1627    7.6598 O   0  0  0  0  0  0  0  0  0  0  0  0
    0.5124    7.9445    4.3956 N   0  0  0  0  0  0  0  0  0  0  0  0
   -3.3578    9.3029   11.2593 N   0  0  0  0  0  0  0  0  0  0  0  0
   -2.8843    7.1233    9.5369 O   0  0  0  0  0  0  0  0  0  0  0  0
   -3.7162   11.5043    9.2580 O   0  0  0  0  0  0  0  0  0  0  0  0
    1.6031    7.4706    6.8983 O   0  0  0  0  0  0  0  0  0  0  0  0
   -2.8119   12.6171    8.9791 C   0  0  2  0  0  0  0  0  0  0  0  0
   -3.0027   13.7629   10.0131 C   0  0  1  0  0  0  0  0  0  0  0  0
   -4.3581   14.4996    9.8127 C   0  0  2  0  0  0  0  0  0  0  0  0
   -4.5264   14.9757    8.3406 C   0  0  1  0  0  0  0  0  0  0  0  0
   -4.2935   13.8090    7.3406 C   0  0  1  0  0  0  0  0  0  0  0  0
   -4.3229   14.2957    5.8680 C   0  0  0  0  0  0  0  0  0  0  0  0
   -3.0330   13.1326    7.6323 O   0  0  0  0  0  0  0  0  0  0  0  0
   -5.8428   15.6158    8.1266 N   0  0  0  0  0  0  0  0  0  0  0  0
   -2.8628   13.2662   11.3429 O   0  0  0  0  0  0  0  0  0  0  0  0
   -4.4920   15.5885   10.7236 O   0  0  0  0  0  0  0  0  0  0  0  0
   -5.5530   14.9501    5.5747 O   0  0  0  0  0  0  0  0  0  0  0  0
    2.2916    7.0462    8.1107 C   0  0  1  0  0  0  0  0  0  0  0  0
    2.7622    5.5673    8.0249 C   0  0  1  0  0  0  0  0  0  0  0  0
    3.4070    5.1060    9.3623 C   0  0  2  0  0  0  0  0  0  0  0  0
    4.5578    6.0559    9.8284 C   0  0  1  0  0  0  0  0  0  0  0  0
    4.1537    7.5604    9.7948 C   0  0  0  0  0  0  0  0  0  0  0  0
    3.4928    7.9753    8.4458 C   0  0  2  0  0  0  0  0  0  0  0  0
    5.0454    5.6712   11.1701 N   0  0  0  0  0  0  0  0  0  0  0  0
    3.0935    9.3977    8.5144 N   0  0  0  0  0  0  0  0  0  0  0  0
    1.6829    4.7122    7.6624 O   0  0  0  0  0  0  0  0  0  0  0  0
    3.8811    3.7664    9.2504 O   0  0  0  0  0  0  0  0  0  0  0  0
  1  2  1  0  0  0  0
  1 16  1  1  0  0  0
  2  3  1  0  0  0  0
  2 12  1  6  0  0  0
  4 11  1  1  0  0  0
  4  3  1  0  0  0  0
  5  4  1  0  0  0  0
  5 10  1  6  0  0  0
  6  7  1  0  0  0  0
  6  5  1  0  0  0  0
  6 14  1  6  0  0  0
  7  8  1  0  0  0  0
  7 13  1  1  0  0  0
  8 15  1  1  0  0  0
  8 11  1  0  0  0  0
  9 13  1  0  0  0  0
 10  1  1  0  0  0  0
 17 15  1  1  0  0  0
 17 18  1  0  0  0  0
 18 25  1  1  0  0  0
 19 18  1  0  0  0  0
 19 26  1  1  0  0  0
 20 19  1  0  0  0  0
 20 24  1  1  0  0  0
 21 23  1  0  0  0  0
 21 20  1  0  0  0  0
 21 22  1  6  0  0  0
 23 17  1  0  0  0  0
 27 22  1  0  0  0  0
 28 29  1  0  0  0  0
 28 16  1  6  0  0  0
 29 36  1  1  0  0  0
 30 37  1  6  0  0  0
 30 29  1  0  0  0  0
 31 30  1  0  0  0  0
 31 34  1  1  0  0  0
 32 31  1  0  0  0  0
 32 33  1  0  0  0  0
 33 28  1  0  0  0  0
 33 35  1  1  0  0  0
M  END
>  <CHROM.1>
-156.25238848,89.18532561,146.29188107,-60.23381720,-150.17122889,168.32297523
179.96998146,-78.99904238,-56.82444406,49.97036477,-176.74938634,72.79350846
-174.32615685,-176.59755122,-66.17585438,-175.19186634,-1.02504087,9.72474640
8.53198516,0.13157197,0.82320319,-1.75353334

>  <Name>
lig.pdb

>  <RI>
2.86754e+07

>  <Rbt.Current_Directory>
/home/itssahil/PROJECTS/Mol_Feturizer/New_Systems/rnas/2m4q

>  <Rbt.Executable>
rbdock ($Id: //depot/dev/client3/rdock/2013.1/src/exe/rbdock.cxx#4 $)

>  <Rbt.Library>
libRbt.so (2013.1, Build901 2013/11/27)

>  <Rbt.Parameter_File>
/export/apps/rDock/src/rDock_2013.1_src/data/scripts/dock_solv.prm

>  <Rbt.Receptor>
prm/pocket_docking_5.prm

>  <SCORE>
-36.1755

>  <SCORE.INTER>
-19.9109

>  <SCORE.INTER.CONST>
1

>  <SCORE.INTER.POLAR>
-3.31261

>  <SCORE.INTER.ROT>
10

>  <SCORE.INTER.SOLV>
20.0651

>  <SCORE.INTER.VDW>
-19.1869

>  <SCORE.INTER.norm>
-0.538133

>  <SCORE.INTRA>
-16.269

>  <SCORE.INTRA.DIHEDRAL>
-31.285

>  <SCORE.INTRA.DIHEDRAL.0>
44.8331

>  <SCORE.INTRA.POLAR>
-0.229535

>  <SCORE.INTRA.POLAR.0>
-0.108895

>  <SCORE.INTRA.REPUL>
-0.00912235

>  <SCORE.INTRA.REPUL.0>
0.00912235

>  <SCORE.INTRA.SOLV>
-0.803445

>  <SCORE.INTRA.SOLV.lig_0>
-53.9067

>  <SCORE.INTRA.VDW>
0.601225

>  <SCORE.INTRA.VDW.0>
-2.93492

>  <SCORE.INTRA.norm>
-0.439704

>  <SCORE.RESTR>
0.00442047

>  <SCORE.RESTR.CAVITY>
0.00442047

>  <SCORE.RESTR.norm>
0.000119472

>  <SCORE.SYSTEM>
0

>  <SCORE.SYSTEM.CONST>
0

>  <SCORE.SYSTEM.DIHEDRAL>
0

>  <SCORE.SYSTEM.SOLV>
0

>  <SCORE.SYSTEM.norm>
0

>  <SCORE.heavy>
37

>  <SCORE.norm>
-0.977717

>  <RMSD>
10.406

$$$$
lig.pdb
 OpenBabel11021811453D
libRbt.so/2013.1/901 2013/11/27
 37 40  0  0  0  0  0  0  0  0999 V2000
   -0.0945    6.3650   11.2380 C   0  0  2  0  0  0  0  0  0  0  0  0
   -1.6043    6.3923   11.6467 C   0  0  1  0  0  0  0  0  0  0  0  0
   -2.4818    7.2650   10.7022 C   0  0  0  0  0  0  0  0  0  0  0  0
   -1.8417    8.6569   10.4747 C   0  0  1  0  0  0  0  0  0  0  0  0
   -0.4019    8.4927    9.9387 C   0  0  1  0  0  0  0  0  0  0  0  0
    0.2483    9.8738    9.6569 C   0  0  1  0  0  0  0  0  0  0  0  0
   -0.6550   10.7327    8.7226 C   0  0  1  0  0  0  0  0  0  0  0  0
   -2.1212   10.8138    9.2422 C   0  0  2  0  0  0  0  0  0  0  0  0
    0.9605   12.0974    7.4811 C   0  0  0  0  0  0  0  0  0  0  0  0
    0.3938    7.6933   10.8606 O   0  0  0  0  0  0  0  0  0  0  0  0
   -2.6403    9.4931    9.5887 O   0  0  0  0  0  0  0  0  0  0  0  0
   -2.1363    5.0127   11.6847 N   0  0  0  0  0  0  0  0  0  0  0  0
   -0.0505   12.0711    8.5601 N   0  0  0  0  0  0  0  0  0  0  0  0
    0.5418   10.5627   10.8655 O   0  0  0  0  0  0  0  0  0  0  0  0
   -2.9724   11.4768    8.2621 O   0  0  0  0  0  0  0  0  0  0  0  0
    0.1435    5.4087   10.1603 O   0  0  0  0  0  0  0  0  0  0  0  0
   -4.2730   11.9806    8.6962 C   0  0  2  0  0  0  0  0  0  0  0  0
   -5.1448   12.3963    7.4773 C   0  0  1  0  0  0  0  0  0  0  0  0
   -4.6038   13.6857    6.7955 C   0  0  2  0  0  0  0  0  0  0  0  0
   -4.4199   14.8334    7.8302 C   0  0  1  0  0  0  0  0  0  0  0  0
   -3.5733   14.3655    9.0467 C   0  0  1  0  0  0  0  0  0  0  0  0
   -3.4955   15.4539   10.1492 C   0  0  0  0  0  0  0  0  0  0  0  0
   -4.1087   13.1212    9.5910 O   0  0  0  0  0  0  0  0  0  0  0  0
   -3.8405   16.0406    7.2013 N   0  0  0  0  0  0  0  0  0  0  0  0
   -5.2589   11.3171    6.5516 O   0  0  0  0  0  0  0  0  0  0  0  0
   -5.4480   14.0928    5.7208 O   0  0  0  0  0  0  0  0  0  0  0  0
   -4.7944   15.7793   10.6333 O   0  0  0  0  0  0  0  0  0  0  0  0
    1.4957    5.3144    9.6249 C   0  0  1  0  0  0  0  0  0  0  0  0
    2.3707    4.3117   10.4282 C   0  0  1  0  0  0  0  0  0  0  0  0
    3.8336    4.2982    9.9021 C   0  0  2  0  0  0  0  0  0  0  0  0
    3.9115    4.0343    8.3632 C   0  0  1  0  0  0  0  0  0  0  0  0
    2.9417    4.9366    7.5429 C   0  0  0  0  0  0  0  0  0  0  0  0
    1.4924    4.9378    8.1161 C   0  0  2  0  0  0  0  0  0  0  0  0
    5.3004    4.1744    7.8760 N   0  0  0  0  0  0  0  0  0  0  0  0
    0.6514    5.8543    7.3160 N   0  0  0  0  0  0  0  0  0  0  0  0
    2.3364    4.6112   11.8199 O   0  0  0  0  0  0  0  0  0  0  0  0
    4.6093    3.3365   10.6127 O   0  0  0  0  0  0  0  0  0  0  0  0
  1  2  1  0  0  0  0
  1 16  1  6  0  0  0
  2  3  1  0  0  0  0
  2 12  1  6  0  0  0
  4 11  1  6  0  0  0
  4  3  1  0  0  0  0
  5  4  1  0  0  0  0
  5 10  1  1  0  0  0
  6  7  1  0  0  0  0
  6  5  1  0  0  0  0
  6 14  1  1  0  0  0
  7  8  1  0  0  0  0
  7 13  1  1  0  0  0
  8 15  1  6  0  0  0
  8 11  1  0  0  0  0
  9 13  1  0  0  0  0
 10  1  1  0  0  0  0
 17 15  1  6  0  0  0
 17 18  1  0  0  0  0
 18 25  1  6  0  0  0
 19 18  1  0  0  0  0
 19 26  1  6  0  0  0
 20 19  1  0  0  0  0
 20 24  1  6  0  0  0
 21 23  1  0  0  0  0
 21 20  1  0  0  0  0
 21 22  1  1  0  0  0
 23 17  1  0  0  0  0
 27 22  1  0  0  0  0
 28 29  1  0  0  0  0
 28 16  1  1  0  0  0
 29 36  1  1  0  0  0
 30 37  1  1  0  0  0
 30 29  1  0  0  0  0
 31 30  1  0  0  0  0
 31 34  1  6  0  0  0
 32 31  1  0  0  0  0
 32 33  1  0  0  0  0
 33 28  1  0  0  0  0
 33 35  1  6  0  0  0
M  END
>  <CHROM.1>
175.29439463,-163.24586845,85.25090089,-56.17884170,-168.83235016,177.15507326
63.22070671,-58.42864086,60.09657671,-177.45677302,58.56593521,87.13049006
-176.94350586,57.04109421,170.84827408,-86.75785028,-0.95333718,9.24288929
9.19943111,0.80564042,-0.58300345,2.49186711

>  <Name>
lig.pdb

>  <RI>
0

>  <Rbt.Current_Directory>
/home/itssahil/PROJECTS/Mol_Feturizer/New_Systems/rnas/2m4q

>  <Rbt.Executable>
rbdock ($Id: //depot/dev/client3/rdock/2013.1/src/exe/rbdock.cxx#4 $)

>  <Rbt.Library>
libRbt.so (2013.1, Build901 2013/11/27)

>  <Rbt.Parameter_File>
/export/apps/rDock/src/rDock_2013.1_src/data/scripts/dock_solv.prm

>  <Rbt.Receptor>
prm/pocket_docking_6.prm

>  <SCORE>
-52.9411

>  <SCORE.INTER>
-33.5564

>  <SCORE.INTER.CONST>
1

>  <SCORE.INTER.POLAR>
-4.71762

>  <SCORE.INTER.ROT>
10

>  <SCORE.INTER.SOLV>
15.771

>  <SCORE.INTER.VDW>
-22.1692

>  <SCORE.INTER.norm>
-0.90693

>  <SCORE.INTRA>
-19.3847

>  <SCORE.INTRA.DIHEDRAL>
-37.0166

>  <SCORE.INTRA.DIHEDRAL.0>
44.8331

>  <SCORE.INTRA.POLAR>
0.108895

>  <SCORE.INTRA.POLAR.0>
-0.108895

>  <SCORE.INTRA.REPUL>
-0.00912235

>  <SCORE.INTRA.REPUL.0>
0.00912235

>  <SCORE.INTRA.SOLV>
-2.08545

>  <SCORE.INTRA.SOLV.lig_0>
-53.9067

>  <SCORE.INTRA.VDW>
-0.15832

>  <SCORE.INTRA.VDW.0>
-2.93492

>  <SCORE.INTRA.norm>
-0.523912

>  <SCORE.RESTR>
0

>  <SCORE.RESTR.CAVITY>
0

>  <SCORE.RESTR.norm>
0

>  <SCORE.SYSTEM>
0

>  <SCORE.SYSTEM.CONST>
0

>  <SCORE.SYSTEM.DIHEDRAL>
0

>  <SCORE.SYSTEM.SOLV>
0

>  <SCORE.SYSTEM.norm>
0

>  <SCORE.heavy>
37

>  <SCORE.norm>
-1.43084

>  <RMSD>
10.408

$$$$
lig.pdb
 OpenBabel11021811453D
libRbt.so/2013.1/901 2013/11/27
 37 40  0  0  0  0  0  0  0  0999 V2000
   -1.5464    8.3971   11.9485 C   0  0  2  0  0  0  0  0  0  0  0  0
   -2.4277    9.1977   12.9632 C   0  0  1  0  0  0  0  0  0  0  0  0
   -3.2092   10.3729   12.3060 C   0  0  0  0  0  0  0  0  0  0  0  0
   -2.2753   11.2403   11.4260 C   0  0  1  0  0  0  0  0  0  0  0  0
   -1.5707   10.3544   10.3743 C   0  0  1  0  0  0  0  0  0  0  0  0
   -0.6628   11.2062    9.4470 C   0  0  1  0  0  0  0  0  0  0  0  0
   -1.4636   12.3829    8.8140 C   0  0  1  0  0  0  0  0  0  0  0  0
   -2.2312   13.2103    9.8875 C   0  0  2  0  0  0  0  0  0  0  0  0
   -0.3479   12.6962    6.6527 C   0  0  0  0  0  0  0  0  0  0  0  0
   -0.8306    9.2834   11.0280 O   0  0  0  0  0  0  0  0  0  0  0  0
   -2.9829   12.3454   10.7934 O   0  0  0  0  0  0  0  0  0  0  0  0
   -3.3778    8.2815   13.6307 N   0  0  0  0  0  0  0  0  0  0  0  0
   -0.5437   13.2238    8.0204 N   0  0  0  0  0  0  0  0  0  0  0  0
    0.4853   11.6783   10.1402 O   0  0  0  0  0  0  0  0  0  0  0  0
   -3.1002   14.1907    9.2488 O   0  0  0  0  0  0  0  0  0  0  0  0
   -2.3463    7.4277   11.2049 O   0  0  0  0  0  0  0  0  0  0  0  0
   -3.1094   15.5564    9.7673 C   0  0  2  0  0  0  0  0  0  0  0  0
   -4.3594   16.3343    9.2664 C   0  0  1  0  0  0  0  0  0  0  0  0
   -4.2671   16.6555    7.7471 C   0  0  2  0  0  0  0  0  0  0  0  0
   -2.9285   17.3717    7.4047 C   0  0  1  0  0  0  0  0  0  0  0  0
   -1.7089   16.5795    7.9528 C   0  0  1  0  0  0  0  0  0  0  0  0
   -0.3780   17.3473    7.7395 C   0  0  0  0  0  0  0  0  0  0  0  0
   -1.8993   16.2656    9.3658 O   0  0  0  0  0  0  0  0  0  0  0  0
   -2.8035   17.6180    5.9513 N   0  0  0  0  0  0  0  0  0  0  0  0
   -5.5535   15.6219    9.5843 O   0  0  0  0  0  0  0  0  0  0  0  0
   -5.3870   17.4249    7.3145 O   0  0  0  0  0  0  0  0  0  0  0  0
    0.0119   17.3157    6.3704 O   0  0  0  0  0  0  0  0  0  0  0  0
   -1.6859    6.6748   10.1460 C   0  0  1  0  0  0  0  0  0  0  0  0
   -1.2369    7.5916    8.9738 C   0  0  1  0  0  0  0  0  0  0  0  0
   -0.6229    6.7578    7.8140 C   0  0  2  0  0  0  0  0  0  0  0  0
    0.5341    5.8245    8.2980 C   0  0  1  0  0  0  0  0  0  0  0  0
    0.1541    4.9905    9.5581 C   0  0  0  0  0  0  0  0  0  0  0  0
   -0.4765    5.8605   10.6869 C   0  0  2  0  0  0  0  0  0  0  0  0
    0.9920    4.9440    7.2020 N   0  0  0  0  0  0  0  0  0  0  0  0
   -0.8548    4.9900   11.8211 N   0  0  0  0  0  0  0  0  0  0  0  0
   -2.3229    8.3851    8.5064 O   0  0  0  0  0  0  0  0  0  0  0  0
   -0.1678    7.6158    6.7707 O   0  0  0  0  0  0  0  0  0  0  0  0
  1  2  1  0  0  0  0
  1 16  1  6  0  0  0
  2  3  1  0  0  0  0
  2 12  1  6  0  0  0
  4 11  1  6  0  0  0
  4  3  1  0  0  0  0
  5  4  1  0  0  0  0
  5 10  1  1  0  0  0
  6  7  1  0  0  0  0
  6  5  1  0  0  0  0
  6 14  1  1  0  0  0
  7  8  1  0  0  0  0
  7 13  1  1  0  0  0
  8 15  1  6  0  0  0
  8 11  1  0  0  0  0
  9 13  1  0  0  0  0
 10  1  1  0  0  0  0
 17 15  1  6  0  0  0
 17 18  1  0  0  0  0
 18 25  1  6  0  0  0
 19 18  1  0  0  0  0
 19 26  1  1  0  0  0
 20 19  1  0  0  0  0
 20 24  1  6  0  0  0
 21 23  1  0  0  0  0
 21 20  1  0  0  0  0
 21 22  1  1  0  0  0
 23 17  1  0  0  0  0
 27 22  1  0  0  0  0
 28 29  1  0  0  0  0
 28 16  1  1  0  0  0
 29 36  1  6  0  0  0
 30 37  1  6  0  0  0
 30 29  1  0  0  0  0
 31 30  1  0  0  0  0
 31 34  1  6  0  0  0
 32 31  1  0  0  0  0
 32 33  1  0  0  0  0
 33 28  1  0  0  0  0
 33 35  1  1  0  0  0
M  END
>  <CHROM.1>
-42.38584500,-134.54783489,84.41637351,58.95360570,-163.29922983,175.37170130
166.44123684,-68.00830647,-73.54787030,144.05069653,72.66676916,-65.56804631
-59.85585076,-60.44893744,-175.97160458,-159.59785278,-1.80870324,11.47276881
9.31746131,1.24837821,-0.91538893,2.67503661

>  <Name>
lig.pdb

>  <RI>
0

>  <Rbt.Current_Directory>
/home/itssahil/PROJECTS/Mol_Feturizer/New_Systems/rnas/2m4q

>  <Rbt.Executable>
rbdock ($Id: //depot/dev/client3/rdock/2013.1/src/exe/rbdock.cxx#4 $)

>  <Rbt.Library>
libRbt.so (2013.1, Build901 2013/11/27)

>  <Rbt.Parameter_File>
/export/apps/rDock/src/rDock_2013.1_src/data/scripts/dock_solv.prm

>  <Rbt.Receptor>
prm/pocket_docking_7.prm

>  <SCORE>
-52.1062

>  <SCORE.INTER>
-38.0476

>  <SCORE.INTER.CONST>
1

>  <SCORE.INTER.POLAR>
-6.35256

>  <SCORE.INTER.ROT>
10

>  <SCORE.INTER.SOLV>
17.3673

>  <SCORE.INTER.VDW>
-20.2456

>  <SCORE.INTER.norm>
-1.02831

>  <SCORE.INTRA>
-14.3626

>  <SCORE.INTRA.DIHEDRAL>
-30.0119

>  <SCORE.INTRA.DIHEDRAL.0>
44.8331

>  <SCORE.INTRA.POLAR>
-0.0223616

>  <SCORE.INTRA.POLAR.0>
-0.108895

>  <SCORE.INTRA.REPUL>
-0.00488126

>  <SCORE.INTRA.REPUL.0>
0.00912235

>  <SCORE.INTRA.SOLV>
-0.249563

>  <SCORE.INTRA.SOLV.lig_0>
-53.9067

>  <SCORE.INTRA.VDW>
0.868563

>  <SCORE.INTRA.VDW.0>
-2.93492

>  <SCORE.INTRA.norm>
-0.388179

>  <SCORE.RESTR>
0.304008

>  <SCORE.RESTR.CAVITY>
0.304008

>  <SCORE.RESTR.norm>
0.00821643

>  <SCORE.SYSTEM>
0

>  <SCORE.SYSTEM.CONST>
0

>  <SCORE.SYSTEM.DIHEDRAL>
0

>  <SCORE.SYSTEM.SOLV>
0

>  <SCORE.SYSTEM.norm>
0

>  <SCORE.heavy>
37

>  <SCORE.norm>
-1.40828

>  <RMSD>
10.420

$$$$
lig.pdb
 OpenBabel11021811453D
libRbt.so/2013.1/901 2013/11/27
 37 40  0  0  0  0  0  0  0  0999 V2000
   -0.9851    7.0022    9.9178 C   0  0  2  0  0  0  0  0  0  0  0  0
   -2.2305    7.6605    9.2374 C   0  0  1  0  0  0  0  0  0  0  0  0
   -2.5339    9.0936    9.7645 C   0  0  0  0  0  0  0  0  0  0  0  0
   -2.5414    9.1282   11.3129 C   0  0  1  0  0  0  0  0  0  0  0  0
   -1.2024    8.5828   11.8579 C   0  0  1  0  0  0  0  0  0  0  0  0
   -1.1637    8.6494   13.4083 C   0  0  1  0  0  0  0  0  0  0  0  0
   -1.4847   10.0886   13.9106 C   0  0  1  0  0  0  0  0  0  0  0  0
   -2.7961   10.6468   13.2823 C   0  0  2  0  0  0  0  0  0  0  0  0
   -1.1155   11.3839   15.9599 C   0  0  0  0  0  0  0  0  0  0  0  0
   -0.9666    7.2328   11.3640 O   0  0  0  0  0  0  0  0  0  0  0  0
   -2.8173   10.4603   11.8337 O   0  0  0  0  0  0  0  0  0  0  0  0
   -2.0354    7.7015    7.7718 N   0  0  0  0  0  0  0  0  0  0  0  0
   -1.5354   10.0867   15.3873 N   0  0  0  0  0  0  0  0  0  0  0  0
   -2.0418    7.6934   13.9884 O   0  0  0  0  0  0  0  0  0  0  0  0
   -2.9742   12.0490   13.6383 O   0  0  0  0  0  0  0  0  0  0  0  0
    0.2575    7.4708    9.3104 O   0  0  0  0  0  0  0  0  0  0  0  0
   -4.2103   12.7175   13.2398 C   0  0  2  0  0  0  0  0  0  0  0  0
   -4.1147   14.2520   13.4742 C   0  0  1  0  0  0  0  0  0  0  0  0
   -4.1290   14.6050   14.9892 C   0  0  2  0  0  0  0  0  0  0  0  0
   -5.3487   13.9560   15.7056 C   0  0  1  0  0  0  0  0  0  0  0  0
   -5.4261   12.4308   15.4169 C   0  0  1  0  0  0  0  0  0  0  0  0
   -6.7104   11.7949   16.0108 C   0  0  0  0  0  0  0  0  0  0  0  0
   -5.3462   12.1800   13.9809 O   0  0  0  0  0  0  0  0  0  0  0  0
   -5.3305   14.2302   17.1592 N   0  0  0  0  0  0  0  0  0  0  0  0
   -2.9678   14.7886   12.8174 O   0  0  0  0  0  0  0  0  0  0  0  0
   -4.1068   16.0166   15.1892 O   0  0  0  0  0  0  0  0  0  0  0  0
   -6.7761   12.0042   17.4176 O   0  0  0  0  0  0  0  0  0  0  0  0
    1.4388    6.6287    9.4493 C   0  0  1  0  0  0  0  0  0  0  0  0
    1.8279    6.4136   10.9388 C   0  0  1  0  0  0  0  0  0  0  0  0
    3.1438    5.5947   11.0615 C   0  0  2  0  0  0  0  0  0  0  0  0
    3.0812    4.2443   10.2763 C   0  0  1  0  0  0  0  0  0  0  0  0
    2.5638    4.4146    8.8165 C   0  0  0  0  0  0  0  0  0  0  0  0
    1.2560    5.2585    8.7369 C   0  0  2  0  0  0  0  0  0  0  0  0
    4.3945    3.5652   10.2940 N   0  0  0  0  0  0  0  0  0  0  0  0
    0.8619    5.4164    7.3202 N   0  0  0  0  0  0  0  0  0  0  0  0
    1.9427    7.6600   11.6176 O   0  0  0  0  0  0  0  0  0  0  0  0
    3.4583    5.3603   12.4318 O   0  0  0  0  0  0  0  0  0  0  0  0
  1  2  1  0  0  0  0
  1 16  1  6  0  0  0
  2  3  1  0  0  0  0
  2 12  1  6  0  0  0
  4 11  1  6  0  0  0
  4  3  1  0  0  0  0
  5  4  1  0  0  0  0
  5 10  1  1  0  0  0
  6  7  1  0  0  0  0
  6  5  1  0  0  0  0
  6 14  1  1  0  0  0
  7  8  1  0  0  0  0
  7 13  1  1  0  0  0
  8 15  1  6  0  0  0
  8 11  1  0  0  0  0
  9 13  1  0  0  0  0
 10  1  1  0  0  0  0
 17 15  1  1  0  0  0
 17 18  1  0  0  0  0
 18 25  1  1  0  0  0
 19 18  1  0  0  0  0
 19 26  1  6  0  0  0
 20 19  1  0  0  0  0
 20 24  1  1  0  0  0
 21 23  1  0  0  0  0
 21 20  1  0  0  0  0
 21 22  1  6  0  0  0
 23 17  1  0  0  0  0
 27 22  1  0  0  0  0
 28 29  1  0  0  0  0
 28 16  1  1  0  0  0
 29 36  1  6  0  0  0
 30 37  1  1  0  0  0
 30 29  1  0  0  0  0
 31 30  1  0  0  0  0
 31 34  1  6  0  0  0
 32 31  1  0  0  0  0
 32 33  1  0  0  0  0
 33 28  1  0  0  0  0
 33 35  1  6  0  0  0
M  END
>  <CHROM.1>
-69.92160384,-174.65116069,149.39425900,-169.15570193,-169.78338289,-157.35069882
-176.25227141,-175.77144046,-58.10680642,86.05579390,-178.73120090,-60.54134800
-175.12389813,-170.26851719,168.87643665,-135.19672743,-1.59507035,9.44785977
12.43084696,0.70943995,0.72322629,-1.87545357

>  <Name>
lig.pdb

>  <RI>
3.60165e+07

>  <Rbt.Current_Directory>
/home/itssahil/PROJECTS/Mol_Feturizer/New_Systems/rnas/2m4q

>  <Rbt.Executable>
rbdock ($Id: //depot/dev/client3/rdock/2013.1/src/exe/rbdock.cxx#4 $)

>  <Rbt.Library>
libRbt.so (2013.1, Build901 2013/11/27)

>  <Rbt.Parameter_File>
/export/apps/rDock/src/rDock_2013.1_src/data/scripts/dock_solv.prm

>  <Rbt.Receptor>
prm/pocket_docking_8.prm

>  <SCORE>
-53.5296

>  <SCORE.INTER>
-34.0848

>  <SCORE.INTER.CONST>
1

>  <SCORE.INTER.POLAR>
-5.37429

>  <SCORE.INTER.ROT>
10

>  <SCORE.INTER.SOLV>
13.8415

>  <SCORE.INTER.VDW>
-19.6894

>  <SCORE.INTER.norm>
-0.92121

>  <SCORE.INTRA>
-19.6171

>  <SCORE.INTRA.DIHEDRAL>
-35.7092

>  <SCORE.INTRA.DIHEDRAL.0>
44.8331

>  <SCORE.INTRA.POLAR>
-0.992208

>  <SCORE.INTRA.POLAR.0>
-0.108895

>  <SCORE.INTRA.REPUL>
0.254848

>  <SCORE.INTRA.REPUL.0>
0.00912235

>  <SCORE.INTRA.SOLV>
-0.583845

>  <SCORE.INTRA.SOLV.lig_0>
-53.9067

>  <SCORE.INTRA.VDW>
0.628719

>  <SCORE.INTRA.VDW.0>
-2.93492

>  <SCORE.INTRA.norm>
-0.530191

>  <SCORE.RESTR>
0.172249

>  <SCORE.RESTR.CAVITY>
0.172249

>  <SCORE.RESTR.norm>
0.00465537

>  <SCORE.SYSTEM>
0

>  <SCORE.SYSTEM.CONST>
0

>  <SCORE.SYSTEM.DIHEDRAL>
0

>  <SCORE.SYSTEM.SOLV>
0

>  <SCORE.SYSTEM.norm>
0

>  <SCORE.heavy>
37

>  <SCORE.norm>
-1.44675

>  <RMSD>
10.423

$$$$
lig.pdb
 OpenBabel11021811453D
libRbt.so/2013.1/901 2013/11/27
 37 40  0  0  0  0  0  0  0  0999 V2000
   -1.2131    7.2455    8.1692 C   0  0  2  0  0  0  0  0  0  0  0  0
   -1.9371    8.1213    7.0940 C   0  0  1  0  0  0  0  0  0  0  0  0
   -2.1426    9.5986    7.5403 C   0  0  0  0  0  0  0  0  0  0  0  0
   -2.7540    9.6716    8.9615 C   0  0  1  0  0  0  0  0  0  0  0  0
   -1.8707    8.8845    9.9554 C   0  0  1  0  0  0  0  0  0  0  0  0
   -2.4353    8.9798   11.3983 C   0  0  1  0  0  0  0  0  0  0  0  0
   -2.6457   10.4660   11.8153 C   0  0  1  0  0  0  0  0  0  0  0  0
   -3.4687   11.2581   10.7564 C   0  0  2  0  0  0  0  0  0  0  0  0
   -2.3234   10.9378   14.2002 C   0  0  0  0  0  0  0  0  0  0  0  0
   -1.7231    7.5029    9.5178 O   0  0  0  0  0  0  0  0  0  0  0  0
   -2.9517   11.0443    9.4071 O   0  0  0  0  0  0  0  0  0  0  0  0
   -1.1753    8.0870    5.8266 N   0  0  0  0  0  0  0  0  0  0  0  0
   -3.2746   10.5102   13.1516 N   0  0  0  0  0  0  0  0  0  0  0  0
   -3.6369    8.2318   11.5332 O   0  0  0  0  0  0  0  0  0  0  0  0
   -3.5000   12.6760   11.0929 O   0  0  0  0  0  0  0  0  0  0  0  0
    0.2331    7.4429    8.1243 O   0  0  0  0  0  0  0  0  0  0  0  0
   -2.4339   13.5362   10.5856 C   0  0  2  0  0  0  0  0  0  0  0  0
   -2.3054   14.8282   11.4417 C   0  0  1  0  0  0  0  0  0  0  0  0
   -3.5112   15.7864   11.2227 C   0  0  2  0  0  0  0  0  0  0  0  0
   -3.7282   16.0794    9.7098 C   0  0  1  0  0  0  0  0  0  0  0  0
   -3.8163   14.7635    8.8876 C   0  0  1  0  0  0  0  0  0  0  0  0
   -3.8957   15.0390    7.3631 C   0  0  0  0  0  0  0  0  0  0  0  0
   -2.6832   13.8953    9.1937 O   0  0  0  0  0  0  0  0  0  0  0  0
   -4.9154   16.9342    9.4896 N   0  0  0  0  0  0  0  0  0  0  0  0
   -2.1337   14.5013   12.8195 O   0  0  0  0  0  0  0  0  0  0  0  0
   -3.3496   16.9948   11.9623 O   0  0  0  0  0  0  0  0  0  0  0  0
   -5.1627   15.5854    7.0118 O   0  0  0  0  0  0  0  0  0  0  0  0
    1.0726    6.4538    8.7883 C   0  0  1  0  0  0  0  0  0  0  0  0
    1.8350    5.5604    7.7701 C   0  0  1  0  0  0  0  0  0  0  0  0
    2.6478    4.4516    8.4963 C   0  0  2  0  0  0  0  0  0  0  0  0
    3.6027    5.0315    9.5897 C   0  0  1  0  0  0  0  0  0  0  0  0
    2.8922    6.0373   10.5444 C   0  0  0  0  0  0  0  0  0  0  0  0
    2.0726    7.1180    9.7768 C   0  0  2  0  0  0  0  0  0  0  0  0
    4.2464    3.9430   10.3557 N   0  0  0  0  0  0  0  0  0  0  0  0
    1.3905    7.9972   10.7510 N   0  0  0  0  0  0  0  0  0  0  0  0
    0.9366    4.9910    6.8234 O   0  0  0  0  0  0  0  0  0  0  0  0
    3.3828    3.6750    7.5537 O   0  0  0  0  0  0  0  0  0  0  0  0
  1  2  1  0  0  0  0
  1 16  1  1  0  0  0
  2  3  1  0  0  0  0
  2 12  1  6  0  0  0
  4 11  1  1  0  0  0
  4  3  1  0  0  0  0
  5  4  1  0  0  0  0
  5 10  1  6  0  0  0
  6  7  1  0  0  0  0
  6  5  1  0  0  0  0
  6 14  1  6  0  0  0
  7  8  1  0  0  0  0
  7 13  1  1  0  0  0
  8 15  1  1  0  0  0
  8 11  1  0  0  0  0
  9 13  1  0  0  0  0
 10  1  1  0  0  0  0
 17 15  1  1  0  0  0
 17 18  1  0  0  0  0
 18 25  1  1  0  0  0
 19 18  1  0  0  0  0
 19 26  1  1  0  0  0
 20 19  1  0  0  0  0
 20 24  1  1  0  0  0
 21 23  1  0  0  0  0
 21 20  1  0  0  0  0
 21 22  1  6  0  0  0
 23 17  1  0  0  0  0
 27 22  1  0  0  0  0
 28 29  1  0  0  0  0
 28 16  1  6  0  0  0
 29 36  1  6  0  0  0
 30 37  1  6  0  0  0
 30 29  1  0  0  0  0
 31 30  1  0  0  0  0
 31 34  1  1  0  0  0
 32 31  1  0  0  0  0
 32 33  1  0  0  0  0
 33 28  1  0  0  0  0
 33 35  1  1  0  0  0
M  END
>  <CHROM.1>
-66.33707360,88.85070594,106.96736711,-49.00623382,-158.32025792,-163.52749391
-54.84136524,62.83232638,-71.39342711,-68.64292959,-57.72880755,108.04242907
68.46570103,63.56941464,-24.38722114,-170.46887694,-1.38873680,10.13035605
9.69586389,0.36880188,0.99764029,-1.83888284

>  <Name>
lig.pdb

>  <RI>
0

>  <Rbt.Current_Directory>
/home/itssahil/PROJECTS/Mol_Feturizer/New_Systems/rnas/2m4q

>  <Rbt.Executable>
rbdock ($Id: //depot/dev/client3/rdock/2013.1/src/exe/rbdock.cxx#4 $)

>  <Rbt.Library>
libRbt.so (2013.1, Build901 2013/11/27)

>  <Rbt.Parameter_File>
/export/apps/rDock/src/rDock_2013.1_src/data/scripts/dock_solv.prm

>  <Rbt.Receptor>
prm/pocket_docking_6.prm

>  <SCORE>
-34.6072

>  <SCORE.INTER>
-21.388

>  <SCORE.INTER.CONST>
1

>  <SCORE.INTER.POLAR>
-3.78154

>  <SCORE.INTER.ROT>
10

>  <SCORE.INTER.SOLV>
17.5683

>  <SCORE.INTER.VDW>
-17.7763

>  <SCORE.INTER.norm>
-0.578054

>  <SCORE.INTRA>
-13.2568

>  <SCORE.INTRA.DIHEDRAL>
-25.2993

>  <SCORE.INTRA.DIHEDRAL.0>
44.8331

>  <SCORE.INTRA.POLAR>
0.0693555

>  <SCORE.INTRA.POLAR.0>
-0.108895

>  <SCORE.INTRA.REPUL>
-0.00912235

>  <SCORE.INTRA.REPUL.0>
0.00912235

>  <SCORE.INTRA.SOLV>
-1.11803

>  <SCORE.INTRA.SOLV.lig_0>
-53.9067

>  <SCORE.INTRA.VDW>
-0.238385

>  <SCORE.INTRA.VDW.0>
-2.93492

>  <SCORE.INTRA.norm>
-0.358293

>  <SCORE.RESTR>
0.0375933

>  <SCORE.RESTR.CAVITY>
0.0375933

>  <SCORE.RESTR.norm>
0.00101603

>  <SCORE.SYSTEM>
0

>  <SCORE.SYSTEM.CONST>
0

>  <SCORE.SYSTEM.DIHEDRAL>
0

>  <SCORE.SYSTEM.SOLV>
0

>  <SCORE.SYSTEM.norm>
0

>  <SCORE.heavy>
37

>  <SCORE.norm>
-0.935331

>  <RMSD>
10.426

$$$$
lig.pdb
 OpenBabel11021811453D
libRbt.so/2013.1/901 2013/11/27
 37 40  0  0  0  0  0  0  0  0999 V2000
   -1.2655    7.0603    8.2499 C   0  0  2  0  0  0  0  0  0  0  0  0
   -2.0120    7.7674    7.0710 C   0  0  1  0  0  0  0  0  0  0  0  0
   -2.3557    9.2570    7.3656 C   0  0  0  0  0  0  0  0  0  0  0  0
   -3.0308    9.4099    8.7512 C   0  0  1  0  0  0  0  0  0  0  0  0
   -2.1295    8.7967    9.8462 C   0  0  1  0  0  0  0  0  0  0  0  0
   -2.7606    8.9777   11.2528 C   0  0  1  0  0  0  0  0  0  0  0  0
   -3.1087   10.4729   11.5172 C   0  0  1  0  0  0  0  0  0  0  0  0
   -3.9477   11.0901   10.3591 C   0  0  2  0  0  0  0  0  0  0  0  0
   -2.9140   10.2152   13.9482 C   0  0  0  0  0  0  0  0  0  0  0  0
   -1.8515    7.3979    9.5490 O   0  0  0  0  0  0  0  0  0  0  0  0
   -3.3582   10.7963    9.0553 O   0  0  0  0  0  0  0  0  0  0  0  0
   -1.1969    7.6801    5.8399 N   0  0  0  0  0  0  0  0  0  0  0  0
   -3.7953   10.5877   12.8205 N   0  0  0  0  0  0  0  0  0  0  0  0
   -3.9020    8.1460   11.4176 O   0  0  0  0  0  0  0  0  0  0  0  0
   -4.1085   12.5254   10.5562 O   0  0  0  0  0  0  0  0  0  0  0  0
    0.1605    7.3749    8.2362 O   0  0  0  0  0  0  0  0  0  0  0  0
   -3.1686   13.4288    9.8971 C   0  0  2  0  0  0  0  0  0  0  0  0
   -3.6047   14.9113   10.0722 C   0  0  1  0  0  0  0  0  0  0  0  0
   -4.8768   15.2395    9.2391 C   0  0  2  0  0  0  0  0  0  0  0  0
   -4.6925   14.8326    7.7483 C   0  0  1  0  0  0  0  0  0  0  0  0
   -4.2235   13.3564    7.6206 C   0  0  1  0  0  0  0  0  0  0  0  0
   -3.9042   12.9767    6.1509 C   0  0  0  0  0  0  0  0  0  0  0  0
   -3.0656   13.1144    8.4762 O   0  0  0  0  0  0  0  0  0  0  0  0
   -5.9231   15.0780    6.9648 N   0  0  0  0  0  0  0  0  0  0  0  0
   -3.7828   15.2215   11.4530 O   0  0  0  0  0  0  0  0  0  0  0  0
   -5.2281   16.6165    9.3564 O   0  0  0  0  0  0  0  0  0  0  0  0
   -4.8652   12.0560    5.6447 O   0  0  0  0  0  0  0  0  0  0  0  0
    1.0857    6.3444    8.6901 C   0  0  1  0  0  0  0  0  0  0  0  0
    2.5501    6.8625    8.7486 C   0  0  1  0  0  0  0  0  0  0  0  0
    3.5323    5.7230    9.1411 C   0  0  2  0  0  0  0  0  0  0  0  0
    3.1158    5.0071   10.4670 C   0  0  1  0  0  0  0  0  0  0  0  0
    1.6130    4.5962   10.4884 C   0  0  0  0  0  0  0  0  0  0  0  0
    0.6655    5.7602   10.0687 C   0  0  2  0  0  0  0  0  0  0  0  0
    3.9848    3.8400   10.7290 N   0  0  0  0  0  0  0  0  0  0  0  0
   -0.7318    5.2756   10.0647 N   0  0  0  0  0  0  0  0  0  0  0  0
    2.9289    7.4520    7.5090 O   0  0  0  0  0  0  0  0  0  0  0  0
    4.8624    6.2252    9.2426 O   0  0  0  0  0  0  0  0  0  0  0  0
  1  2  1  0  0  0  0
  1 16  1  1  0  0  0
  2  3  1  0  0  0  0
  2 12  1  6  0  0  0
  4 11  1  1  0  0  0
  4  3  1  0  0  0  0
  5  4  1  0  0  0  0
  5 10  1  6  0  0  0
  6  7  1  0  0  0  0
  6  5  1  0  0  0  0
  6 14  1  6  0  0  0
  7  8  1  0  0  0  0
  7 13  1  1  0  0  0
  8 15  1  1  0  0  0
  8 11  1  0  0  0  0
  9 13  1  0  0  0  0
 10  1  1  0  0  0  0
 17 15  1  6  0  0  0
 17 18  1  0  0  0  0
 18 25  1  1  0  0  0
 19 18  1  0  0  0  0
 19 26  1  6  0  0  0
 20 19  1  0  0  0  0
 20 24  1  6  0  0  0
 21 23  1  0  0  0  0
 21 20  1  0  0  0  0
 21 22  1  6  0  0  0
 23 17  1  0  0  0  0
 27 22  1  0  0  0  0
 28 29  1  0  0  0  0
 28 16  1  1  0  0  0
 29 36  1  6  0  0  0
 30 37  1  1  0  0  0
 30 29  1  0  0  0  0
 31 30  1  0  0  0  0
 31 34  1  6  0  0  0
 32 31  1  0  0  0  0
 32 33  1  0  0  0  0
 33 28  1  0  0  0  0
 33 35  1  6  0  0  0
M  END
>  <CHROM.1>
77.54890101,94.69743381,65.07401927,-175.05912286,172.68126102,-146.61026349
-68.95112069,57.18738675,-110.74154872,-172.74441689,66.22162450,-174.58221650
-55.72163751,64.67034094,-77.84281943,-97.77624937,-1.77700985,9.79258874
9.28217203,-0.20762539,0.88458141,-1.35630586

>  <Name>
lig.pdb

>  <RI>
3.87352e+07

>  <Rbt.Current_Directory>
/home/itssahil/PROJECTS/Mol_Feturizer/New_Systems/rnas/2m4q

>  <Rbt.Executable>
rbdock ($Id: //depot/dev/client3/rdock/2013.1/src/exe/rbdock.cxx#4 $)

>  <Rbt.Library>
libRbt.so (2013.1, Build901 2013/11/27)

>  <Rbt.Parameter_File>
/export/apps/rDock/src/rDock_2013.1_src/data/scripts/dock_solv.prm

>  <Rbt.Receptor>
prm/pocket_docking_4.prm

>  <SCORE>
-40.0151

>  <SCORE.INTER>
-28.4318

>  <SCORE.INTER.CONST>
1

>  <SCORE.INTER.POLAR>
-4.87294

>  <SCORE.INTER.ROT>
10

>  <SCORE.INTER.SOLV>
17.4945

>  <SCORE.INTER.VDW>
-18.8096

>  <SCORE.INTER.norm>
-0.768428

>  <SCORE.INTRA>
-11.5833

>  <SCORE.INTRA.DIHEDRAL>
-26.7423

>  <SCORE.INTRA.DIHEDRAL.0>
44.8331

>  <SCORE.INTRA.POLAR>
-0.599626

>  <SCORE.INTRA.POLAR.0>
-0.108895

>  <SCORE.INTRA.REPUL>
-0.00505078

>  <SCORE.INTRA.REPUL.0>
0.00912235

>  <SCORE.INTRA.SOLV>
-1.0884

>  <SCORE.INTRA.SOLV.lig_0>
-53.9067

>  <SCORE.INTRA.VDW>
4.39605

>  <SCORE.INTRA.VDW.0>
-2.93492

>  <SCORE.INTRA.norm>
-0.313062

>  <SCORE.RESTR>
0

>  <SCORE.RESTR.CAVITY>
0

>  <SCORE.RESTR.norm>
0

>  <SCORE.SYSTEM>
0

>  <SCORE.SYSTEM.CONST>
0

>  <SCORE.SYSTEM.DIHEDRAL>
0

>  <SCORE.SYSTEM.SOLV>
0

>  <SCORE.SYSTEM.norm>
0

>  <SCORE.heavy>
37

>  <SCORE.norm>
-1.08149

>  <RMSD>
10.428

$$$$
lig.pdb
 OpenBabel11021811453D
libRbt.so/2013.1/901 2013/11/27
 37 40  0  0  0  0  0  0  0  0999 V2000
   -1.2025    8.0842   11.6560 C   0  0  2  0  0  0  0  0  0  0  0  0
   -2.4408    8.9124   12.1333 C   0  0  1  0  0  0  0  0  0  0  0  0
   -3.2660    9.5173   10.9598 C   0  0  0  0  0  0  0  0  0  0  0  0
   -2.3457   10.2434    9.9474 C   0  0  1  0  0  0  0  0  0  0  0  0
   -1.2494    9.2770    9.4459 C   0  0  1  0  0  0  0  0  0  0  0  0
   -0.3395    9.9652    8.3932 C   0  0  1  0  0  0  0  0  0  0  0  0
   -1.1889   10.5747    7.2383 C   0  0  1  0  0  0  0  0  0  0  0  0
   -2.3385   11.4789    7.7742 C   0  0  2  0  0  0  0  0  0  0  0  0
    0.4479   10.3878    5.4218 C   0  0  0  0  0  0  0  0  0  0  0  0
   -0.4838    8.7525   10.5688 O   0  0  0  0  0  0  0  0  0  0  0  0
   -3.0921   10.8146    8.8346 O   0  0  0  0  0  0  0  0  0  0  0  0
   -3.3166    8.0638   12.9702 N   0  0  0  0  0  0  0  0  0  0  0  0
   -0.2970   11.3034    6.3128 N   0  0  0  0  0  0  0  0  0  0  0  0
    0.4935   10.9483    8.9943 O   0  0  0  0  0  0  0  0  0  0  0  0
   -3.2119   11.8918    6.6828 O   0  0  0  0  0  0  0  0  0  0  0  0
   -1.5922    6.7348   11.2561 O   0  0  0  0  0  0  0  0  0  0  0  0
   -4.6559   11.8802    6.9033 C   0  0  2  0  0  0  0  0  0  0  0  0
   -5.4221   12.2322    5.5966 C   0  0  1  0  0  0  0  0  0  0  0  0
   -5.2503   13.7302    5.2141 C   0  0  2  0  0  0  0  0  0  0  0  0
   -5.6217   14.6603    6.4053 C   0  0  1  0  0  0  0  0  0  0  0  0
   -4.8609   14.2524    7.6976 C   0  0  1  0  0  0  0  0  0  0  0  0
   -5.3212   15.0817    8.9251 C   0  0  0  0  0  0  0  0  0  0  0  0
   -5.0220   12.8242    7.9537 O   0  0  0  0  0  0  0  0  0  0  0  0
   -5.3944   16.0835    6.0712 N   0  0  0  0  0  0  0  0  0  0  0  0
   -5.0253   11.3667    4.5345 O   0  0  0  0  0  0  0  0  0  0  0  0
   -6.0097   14.0554    4.0518 O   0  0  0  0  0  0  0  0  0  0  0  0
   -5.3619   16.4702    8.6127 O   0  0  0  0  0  0  0  0  0  0  0  0
   -0.6723    5.9875   10.4080 C   0  0  1  0  0  0  0  0  0  0  0  0
   -0.6605    6.5236    8.9490 C   0  0  1  0  0  0  0  0  0  0  0  0
    0.2522    5.6534    8.0397 C   0  0  2  0  0  0  0  0  0  0  0  0
    1.6979    5.5029    8.6153 C   0  0  1  0  0  0  0  0  0  0  0  0
    1.7130    5.0957   10.1192 C   0  0  0  0  0  0  0  0  0  0  0  0
    0.7696    5.9788   10.9904 C   0  0  2  0  0  0  0  0  0  0  0  0
    2.4898    4.5534    7.8045 N   0  0  0  0  0  0  0  0  0  0  0  0
    0.8019    5.4965   12.3882 N   0  0  0  0  0  0  0  0  0  0  0  0
   -1.9821    6.5905    8.4231 O   0  0  0  0  0  0  0  0  0  0  0  0
    0.2947    6.1883    6.7192 O   0  0  0  0  0  0  0  0  0  0  0  0
  1  2  1  0  0  0  0
  1 16  1  6  0  0  0
  2  3  1  0  0  0  0
  2 12  1  6  0  0  0
  4 11  1  6  0  0  0
  4  3  1  0  0  0  0
  5  4  1  0  0  0  0
  5 10  1  1  0  0  0
  6  7  1  0  0  0  0
  6  5  1  0  0  0  0
  6 14  1  1  0  0  0
  7  8  1  0  0  0  0
  7 13  1  6  0  0  0
  8 15  1  6  0  0  0
  8 11  1  0  0  0  0
  9 13  1  0  0  0  0
 10  1  1  0  0  0  0
 17 15  1  6  0  0  0
 17 18  1  0  0  0  0
 18 25  1  6  0  0  0
 19 18  1  0  0  0  0
 19 26  1  6  0  0  0
 20 19  1  0  0  0  0
 20 24  1  6  0  0  0
 21 23  1  0  0  0  0
 21 20  1  0  0  0  0
 21 22  1  1  0  0  0
 23 17  1  0  0  0  0
 27 22  1  0  0  0  0
 28 29  1  0  0  0  0
 28 16  1  1  0  0  0
 29 36  1  6  0  0  0
 30 37  1  6  0  0  0
 30 29  1  0  0  0  0
 31 30  1  0  0  0  0
 31 34  1  6  0  0  0
 32 31  1  0  0  0  0
 32 33  1  0  0  0  0
 33 28  1  0  0  0  0
 33 35  1  1  0  0  0
M  END
>  <CHROM.1>
174.08218037,137.82043530,77.21862982,59.01823636,-175.14580406,161.01837077
61.74424737,-35.95800735,-47.56956690,74.26251604,150.68364153,-73.18200434
-178.70043984,170.25538474,-175.33117926,49.14275607,-2.14650669,9.95181669
8.42722669,0.57539903,-0.88370020,1.86292289

>  <Name>
lig.pdb

>  <RI>
2.86754e+07

>  <Rbt.Current_Directory>
/home/itssahil/PROJECTS/Mol_Feturizer/New_Systems/rnas/2m4q

>  <Rbt.Executable>
rbdock ($Id: //depot/dev/client3/rdock/2013.1/src/exe/rbdock.cxx#4 $)

>  <Rbt.Library>
libRbt.so (2013.1, Build901 2013/11/27)

>  <Rbt.Parameter_File>
/export/apps/rDock/src/rDock_2013.1_src/data/scripts/dock_solv.prm

>  <Rbt.Receptor>
prm/pocket_docking_5.prm

>  <SCORE>
-43.1772

>  <SCORE.INTER>
-28.55

>  <SCORE.INTER.CONST>
1

>  <SCORE.INTER.POLAR>
-3.3845

>  <SCORE.INTER.ROT>
10

>  <SCORE.INTER.SOLV>
17.9086

>  <SCORE.INTER.VDW>
-23.9879

>  <SCORE.INTER.norm>
-0.771623

>  <SCORE.INTRA>
-14.6271

>  <SCORE.INTRA.DIHEDRAL>
-28.0146

>  <SCORE.INTRA.DIHEDRAL.0>
44.8331

>  <SCORE.INTRA.POLAR>
-0.750544

>  <SCORE.INTRA.POLAR.0>
-0.108895

>  <SCORE.INTRA.REPUL>
-0.00912235

>  <SCORE.INTRA.REPUL.0>
0.00912235

>  <SCORE.INTRA.SOLV>
-0.114173

>  <SCORE.INTRA.SOLV.lig_0>
-53.9067

>  <SCORE.INTRA.VDW>
2.03468

>  <SCORE.INTRA.VDW.0>
-2.93492

>  <SCORE.INTRA.norm>
-0.395328

>  <SCORE.RESTR>
0

>  <SCORE.RESTR.CAVITY>
0

>  <SCORE.RESTR.norm>
0

>  <SCORE.SYSTEM>
0

>  <SCORE.SYSTEM.CONST>
0

>  <SCORE.SYSTEM.DIHEDRAL>
0

>  <SCORE.SYSTEM.SOLV>
0

>  <SCORE.SYSTEM.norm>
0

>  <SCORE.heavy>
37

>  <SCORE.norm>
-1.16695

>  <RMSD>
10.429

$$$$
lig.pdb
 OpenBabel11021811453D
libRbt.so/2013.1/901 2013/11/27
 37 40  0  0  0  0  0  0  0  0999 V2000
   -0.9118    7.4653   10.1618 C   0  0  2  0  0  0  0  0  0  0  0  0
   -2.1846    7.6209    9.2658 C   0  0  1  0  0  0  0  0  0  0  0  0
   -2.6940    9.0889    9.1699 C   0  0  0  0  0  0  0  0  0  0  0  0
   -2.8007    9.7347   10.5737 C   0  0  1  0  0  0  0  0  0  0  0  0
   -1.4407    9.6406   11.3010 C   0  0  1  0  0  0  0  0  0  0  0  0
   -1.5057   10.3226   12.6939 C   0  0  1  0  0  0  0  0  0  0  0  0
   -2.0318   11.7839   12.5729 C   0  0  1  0  0  0  0  0  0  0  0  0
   -3.3609   11.8603   11.7643 C   0  0  2  0  0  0  0  0  0  0  0  0
   -1.1742   13.4223   14.1835 C   0  0  0  0  0  0  0  0  0  0  0  0
   -1.0105    8.2519   11.3933 O   0  0  0  0  0  0  0  0  0  0  0  0
   -3.2701   11.1124   10.5129 O   0  0  0  0  0  0  0  0  0  0  0  0
   -1.9065    7.1023    7.9088 N   0  0  0  0  0  0  0  0  0  0  0  0
   -2.1725   12.3622   13.9252 N   0  0  0  0  0  0  0  0  0  0  0  0
   -2.2934    9.5652   13.6036 O   0  0  0  0  0  0  0  0  0  0  0  0
   -3.7319   13.2495   11.5251 O   0  0  0  0  0  0  0  0  0  0  0  0
    0.2986    7.8198    9.4256 O   0  0  0  0  0  0  0  0  0  0  0  0
   -2.8910   14.0530   10.6412 C   0  0  2  0  0  0  0  0  0  0  0  0
   -3.4261   15.5094   10.5351 C   0  0  1  0  0  0  0  0  0  0  0  0
   -4.7547   15.5773    9.7289 C   0  0  2  0  0  0  0  0  0  0  0  0
   -4.6079   14.8818    8.3444 C   0  0  1  0  0  0  0  0  0  0  0  0
   -4.0385   13.4434    8.4937 C   0  0  1  0  0  0  0  0  0  0  0  0
   -3.7583   12.7872    7.1163 C   0  0  0  0  0  0  0  0  0  0  0  0
   -2.8288   13.4572    9.3110 O   0  0  0  0  0  0  0  0  0  0  0  0
   -5.8870   14.8818    7.6011 N   0  0  0  0  0  0  0  0  0  0  0  0
   -3.5644   16.0881   11.8315 O   0  0  0  0  0  0  0  0  0  0  0  0
   -5.2002   16.9240    9.5828 O   0  0  0  0  0  0  0  0  0  0  0  0
   -4.9751   12.4884    6.4399 O   0  0  0  0  0  0  0  0  0  0  0  0
    1.4363    6.9135    9.5163 C   0  0  1  0  0  0  0  0  0  0  0  0
    1.9395    6.7561   10.9786 C   0  0  1  0  0  0  0  0  0  0  0  0
    3.2109    5.8635   11.0405 C   0  0  2  0  0  0  0  0  0  0  0  0
    3.0020    4.4789   10.3457 C   0  0  1  0  0  0  0  0  0  0  0  0
    2.3711    4.6013    8.9262 C   0  0  0  0  0  0  0  0  0  0  0  0
    1.1129    5.5206    8.9050 C   0  0  2  0  0  0  0  0  0  0  0  0
    4.2699    3.7200   10.2950 N   0  0  0  0  0  0  0  0  0  0  0  0
    0.6076    5.6254    7.5190 N   0  0  0  0  0  0  0  0  0  0  0  0
    2.1852    8.0281   11.5695 O   0  0  0  0  0  0  0  0  0  0  0  0
    3.6286    5.6852   12.3917 O   0  0  0  0  0  0  0  0  0  0  0  0
  1  2  1  0  0  0  0
  1 16  1  6  0  0  0
  2  3  1  0  0  0  0
  2 12  1  6  0  0  0
  4 11  1  6  0  0  0
  4  3  1  0  0  0  0
  5  4  1  0  0  0  0
  5 10  1  1  0  0  0
  6  7  1  0  0  0  0
  6  5  1  0  0  0  0
  6 14  1  1  0  0  0
  7  8  1  0  0  0  0
  7 13  1  1  0  0  0
  8 15  1  6  0  0  0
  8 11  1  0  0  0  0
  9 13  1  0  0  0  0
 10  1  1  0  0  0  0
 17 15  1  1  0  0  0
 17 18  1  0  0  0  0
 18 25  1  1  0  0  0
 19 18  1  0  0  0  0
 19 26  1  6  0  0  0
 20 19  1  0  0  0  0
 20 24  1  1  0  0  0
 21 23  1  0  0  0  0
 21 20  1  0  0  0  0
 21 22  1  6  0  0  0
 23 17  1  0  0  0  0
 27 22  1  0  0  0  0
 28 29  1  0  0  0  0
 28 16  1  1  0  0  0
 29 36  1  6  0  0  0
 30 37  1  1  0  0  0
 30 29  1  0  0  0  0
 31 30  1  0  0  0  0
 31 34  1  6  0  0  0
 32 31  1  0  0  0  0
 32 33  1  0  0  0  0
 33 28  1  0  0  0  0
 33 35  1  6  0  0  0
M  END
>  <CHROM.1>
174.62181916,67.39122305,110.56544697,179.41013043,-178.72140643,-133.15465466
60.28555387,-158.58943777,-69.95843078,-66.56772066,-61.85839547,-60.49633497
178.19258953,59.46540517,-79.01191243,-147.38733608,-1.48737575,10.23373204
10.30599971,0.44545047,0.87842633,-2.16447984

>  <Name>
lig.pdb

>  <RI>
0

>  <Rbt.Current_Directory>
/home/itssahil/PROJECTS/Mol_Feturizer/New_Systems/rnas/2m4q

>  <Rbt.Executable>
rbdock ($Id: //depot/dev/client3/rdock/2013.1/src/exe/rbdock.cxx#4 $)

>  <Rbt.Library>
libRbt.so (2013.1, Build901 2013/11/27)

>  <Rbt.Parameter_File>
/export/apps/rDock/src/rDock_2013.1_src/data/scripts/dock_solv.prm

>  <Rbt.Receptor>
prm/pocket_docking_7.prm

>  <SCORE>
-56.6654

>  <SCORE.INTER>
-39.3222

>  <SCORE.INTER.CONST>
1

>  <SCORE.INTER.POLAR>
-6.56467

>  <SCORE.INTER.ROT>
10

>  <SCORE.INTER.SOLV>
12.8817

>  <SCORE.INTER.VDW>
-18.8932

>  <SCORE.INTER.norm>
-1.06276

>  <SCORE.INTRA>
-17.3431

>  <SCORE.INTRA.DIHEDRAL>
-30.9362

>  <SCORE.INTRA.DIHEDRAL.0>
44.8331

>  <SCORE.INTRA.POLAR>
-0.180179

>  <SCORE.INTRA.POLAR.0>
-0.108895

>  <SCORE.INTRA.REPUL>
-0.00912235

>  <SCORE.INTRA.REPUL.0>
0.00912235

>  <SCORE.INTRA.SOLV>
-0.317122

>  <SCORE.INTRA.SOLV.lig_0>
-53.9067

>  <SCORE.INTRA.VDW>
-1.05827

>  <SCORE.INTRA.VDW.0>
-2.93492

>  <SCORE.INTRA.norm>
-0.468734

>  <SCORE.RESTR>
0

>  <SCORE.RESTR.CAVITY>
0

>  <SCORE.RESTR.norm>
0

>  <SCORE.SYSTEM>
0

>  <SCORE.SYSTEM.CONST>
0

>  <SCORE.SYSTEM.DIHEDRAL>
0

>  <SCORE.SYSTEM.SOLV>
0

>  <SCORE.SYSTEM.norm>
0

>  <SCORE.heavy>
37

>  <SCORE.norm>
-1.5315

>  <RMSD>
10.438

$$$$
lig.pdb
 OpenBabel11021811453D
libRbt.so/2013.1/901 2013/11/27
 37 40  0  0  0  0  0  0  0  0999 V2000
   -0.7143    8.0342   10.3419 C   0  0  2  0  0  0  0  0  0  0  0  0
   -2.0514    8.8190   10.5506 C   0  0  1  0  0  0  0  0  0  0  0  0
   -2.7005    9.2943    9.2178 C   0  0  0  0  0  0  0  0  0  0  0  0
   -1.6617   10.0029    8.3134 C   0  0  1  0  0  0  0  0  0  0  0  0
   -0.4542    9.0705    8.0686 C   0  0  1  0  0  0  0  0  0  0  0  0
    0.5827    9.7381    7.1258 C   0  0  1  0  0  0  0  0  0  0  0  0
   -0.0937   10.2176    5.8070 C   0  0  1  0  0  0  0  0  0  0  0  0
   -1.3564   11.0873    6.0817 C   0  0  2  0  0  0  0  0  0  0  0  0
    1.6952   10.0100    4.1425 C   0  0  0  0  0  0  0  0  0  0  0  0
    0.1407    8.6685    9.3361 O   0  0  0  0  0  0  0  0  0  0  0  0
   -2.2417   10.4532    7.0553 O   0  0  0  0  0  0  0  0  0  0  0  0
   -3.0118    7.9792   11.2988 N   0  0  0  0  0  0  0  0  0  0  0  0
    0.9028   10.9330    4.9834 N   0  0  0  0  0  0  0  0  0  0  0  0
    1.2592   10.8064    7.7759 O   0  0  0  0  0  0  0  0  0  0  0  0
   -2.0576   11.3740    4.8365 O   0  0  0  0  0  0  0  0  0  0  0  0
   -0.9699    6.6405    9.9887 O   0  0  0  0  0  0  0  0  0  0  0  0
   -2.9398   12.5371    4.7854 C   0  0  2  0  0  0  0  0  0  0  0  0
   -3.9822   12.3961    3.6399 C   0  0  1  0  0  0  0  0  0  0  0  0
   -3.3206   12.5356    2.2390 C   0  0  2  0  0  0  0  0  0  0  0  0
   -2.4835   13.8439    2.1408 C   0  0  1  0  0  0  0  0  0  0  0  0
   -1.4803   13.9614    3.3220 C   0  0  1  0  0  0  0  0  0  0  0  0
   -0.7354   15.3220    3.3142 C   0  0  0  0  0  0  0  0  0  0  0  0
   -2.1666   13.7595    4.5946 O   0  0  0  0  0  0  0  0  0  0  0  0
   -1.7954   13.9488    0.8354 N   0  0  0  0  0  0  0  0  0  0  0  0
   -4.7014   11.1707    3.7650 O   0  0  0  0  0  0  0  0  0  0  0  0
   -4.2953   12.4699    1.2002 O   0  0  0  0  0  0  0  0  0  0  0  0
    0.1998   15.3944    4.3855 O   0  0  0  0  0  0  0  0  0  0  0  0
    0.1633    5.7241    9.9846 C   0  0  1  0  0  0  0  0  0  0  0  0
    1.1101    5.9754    8.7777 C   0  0  1  0  0  0  0  0  0  0  0  0
    2.2575    4.9270    8.7380 C   0  0  2  0  0  0  0  0  0  0  0  0
    3.0433    4.8514   10.0873 C   0  0  1  0  0  0  0  0  0  0  0  0
    2.1084    4.7345   11.3283 C   0  0  0  0  0  0  0  0  0  0  0  0
    0.9610    5.7891   11.3179 C   0  0  2  0  0  0  0  0  0  0  0  0
    4.0257    3.7467   10.0618 N   0  0  0  0  0  0  0  0  0  0  0  0
    0.0927    5.5780   12.4964 N   0  0  0  0  0  0  0  0  0  0  0  0
    0.3822    5.9752    7.5539 O   0  0  0  0  0  0  0  0  0  0  0  0
    3.1464    5.2024    7.6583 O   0  0  0  0  0  0  0  0  0  0  0  0
  1  2  1  0  0  0  0
  1 16  1  6  0  0  0
  2  3  1  0  0  0  0
  2 12  1  6  0  0  0
  4 11  1  6  0  0  0
  4  3  1  0  0  0  0
  5  4  1  0  0  0  0
  5 10  1  1  0  0  0
  6  7  1  0  0  0  0
  6  5  1  0  0  0  0
  6 14  1  1  0  0  0
  7  8  1  0  0  0  0
  7 13  1  1  0  0  0
  8 15  1  6  0  0  0
  8 11  1  0  0  0  0
  9 13  1  0  0  0  0
 10  1  1  0  0  0  0
 17 15  1  6  0  0  0
 17 18  1  0  0  0  0
 18 25  1  6  0  0  0
 19 18  1  0  0  0  0
 19 26  1  6  0  0  0
 20 19  1  0  0  0  0
 20 24  1  6  0  0  0
 21 23  1  0  0  0  0
 21 20  1  0  0  0  0
 21 22  1  1  0  0  0
 23 17  1  0  0  0  0
 27 22  1  0  0  0  0
 28 29  1  0  0  0  0
 28 16  1  1  0  0  0
 29 36  1  6  0  0  0
 30 37  1  6  0  0  0
 30 29  1  0  0  0  0
 31 30  1  0  0  0  0
 31 34  1  6  0  0  0
 32 31  1  0  0  0  0
 32 33  1  0  0  0  0
 33 28  1  0  0  0  0
 33 35  1  1  0  0  0
M  END
>  <CHROM.1>
-145.40097929,-157.60525650,85.61878211,60.44051672,-158.40744330,-169.75768741
167.82310531,61.98762458,-178.63542883,-176.96470167,-175.71993139,-72.49587171
-48.97636525,-58.45365509,40.93517655,55.23708539,-0.63060612,9.55632538
6.91020442,1.21628052,-0.42344735,2.23808535

>  <Name>
lig.pdb

>  <RI>
3.60165e+07

>  <Rbt.Current_Directory>
/home/itssahil/PROJECTS/Mol_Feturizer/New_Systems/rnas/2m4q

>  <Rbt.Executable>
rbdock ($Id: //depot/dev/client3/rdock/2013.1/src/exe/rbdock.cxx#4 $)

>  <Rbt.Library>
libRbt.so (2013.1, Build901 2013/11/27)

>  <Rbt.Parameter_File>
/export/apps/rDock/src/rDock_2013.1_src/data/scripts/dock_solv.prm

>  <Rbt.Receptor>
prm/pocket_docking_8.prm

>  <SCORE>
-45.0523

>  <SCORE.INTER>
-27.2864

>  <SCORE.INTER.CONST>
1

>  <SCORE.INTER.POLAR>
-4.48076

>  <SCORE.INTER.ROT>
10

>  <SCORE.INTER.SOLV>
13.618

>  <SCORE.INTER.VDW>
-18.0611

>  <SCORE.INTER.norm>
-0.73747

>  <SCORE.INTRA>
-17.7659

>  <SCORE.INTRA.DIHEDRAL>
-34.2456

>  <SCORE.INTRA.DIHEDRAL.0>
44.8331

>  <SCORE.INTRA.POLAR>
0.101765

>  <SCORE.INTRA.POLAR.0>
-0.108895

>  <SCORE.INTRA.REPUL>
0.0048234

>  <SCORE.INTRA.REPUL.0>
0.00912235

>  <SCORE.INTRA.SOLV>
-1.71765

>  <SCORE.INTRA.SOLV.lig_0>
-53.9067

>  <SCORE.INTRA.VDW>
-0.154418

>  <SCORE.INTRA.VDW.0>
-2.93492

>  <SCORE.INTRA.norm>
-0.48016

>  <SCORE.RESTR>
0

>  <SCORE.RESTR.CAVITY>
0

>  <SCORE.RESTR.norm>
0

>  <SCORE.SYSTEM>
0

>  <SCORE.SYSTEM.CONST>
0

>  <SCORE.SYSTEM.DIHEDRAL>
0

>  <SCORE.SYSTEM.SOLV>
0

>  <SCORE.SYSTEM.norm>
0

>  <SCORE.heavy>
37

>  <SCORE.norm>
-1.21763

>  <RMSD>
10.457

$$$$
lig.pdb
 OpenBabel11021811453D
libRbt.so/2013.1/901 2013/11/27
 37 40  0  0  0  0  0  0  0  0999 V2000
   -0.9820    7.4329   10.1826 C   0  0  2  0  0  0  0  0  0  0  0  0
   -2.2747    7.5412    9.3084 C   0  0  1  0  0  0  0  0  0  0  0  0
   -2.7867    9.0024    9.1452 C   0  0  0  0  0  0  0  0  0  0  0  0
   -2.8619    9.7229   10.5143 C   0  0  1  0  0  0  0  0  0  0  0  0
   -1.4858    9.6668   11.2147 C   0  0  1  0  0  0  0  0  0  0  0  0
   -1.5197   10.4228   12.5701 C   0  0  1  0  0  0  0  0  0  0  0  0
   -2.0489   11.8759   12.3826 C   0  0  1  0  0  0  0  0  0  0  0  0
   -3.3959   11.9099   11.6012 C   0  0  2  0  0  0  0  0  0  0  0  0
   -2.0005   13.9939   13.6177 C   0  0  0  0  0  0  0  0  0  0  0  0
   -1.0532    8.2847   11.3719 O   0  0  0  0  0  0  0  0  0  0  0  0
   -3.3330   11.0957   10.3901 O   0  0  0  0  0  0  0  0  0  0  0  0
   -2.0271    6.9502    7.9753 N   0  0  0  0  0  0  0  0  0  0  0  0
   -2.1592   12.5262   13.7047 N   0  0  0  0  0  0  0  0  0  0  0  0
   -2.2864    9.7160   13.5367 O   0  0  0  0  0  0  0  0  0  0  0  0
   -3.7726   13.2845   11.2961 O   0  0  0  0  0  0  0  0  0  0  0  0
    0.2114    7.7463    9.4014 O   0  0  0  0  0  0  0  0  0  0  0  0
   -2.9399   14.0456   10.3680 C   0  0  2  0  0  0  0  0  0  0  0  0
   -3.4783   15.4945   10.1960 C   0  0  1  0  0  0  0  0  0  0  0  0
   -4.8132   15.5217    9.3977 C   0  0  2  0  0  0  0  0  0  0  0  0
   -4.6758   14.7605    8.0473 C   0  0  1  0  0  0  0  0  0  0  0  0
   -4.1028   13.3317    8.2613 C   0  0  1  0  0  0  0  0  0  0  0  0
   -3.8321   12.6103    6.9150 C   0  0  0  0  0  0  0  0  0  0  0  0
   -2.8870   13.3865    9.0676 O   0  0  0  0  0  0  0  0  0  0  0  0
   -5.9605   14.7230    7.3148 N   0  0  0  0  0  0  0  0  0  0  0  0
   -3.6076   16.1348   11.4640 O   0  0  0  0  0  0  0  0  0  0  0  0
   -5.2620   16.8593    9.1905 O   0  0  0  0  0  0  0  0  0  0  0  0
   -5.0533   12.2401    6.2834 O   0  0  0  0  0  0  0  0  0  0  0  0
    1.3587    6.8571    9.5313 C   0  0  1  0  0  0  0  0  0  0  0  0
    1.7666    6.6472   11.0164 C   0  0  1  0  0  0  0  0  0  0  0  0
    3.0490    5.7752   11.1274 C   0  0  2  0  0  0  0  0  0  0  0  0
    2.9149    4.4175   10.3641 C   0  0  1  0  0  0  0  0  0  0  0  0
    2.3775    4.5885    8.9116 C   0  0  0  0  0  0  0  0  0  0  0  0
    1.1050    5.4857    8.8433 C   0  0  2  0  0  0  0  0  0  0  0  0
    4.1985    3.6838   10.3679 N   0  0  0  0  0  0  0  0  0  0  0  0
    0.6910    5.6398    7.4318 N   0  0  0  0  0  0  0  0  0  0  0  0
    1.9466    7.8973   11.6740 O   0  0  0  0  0  0  0  0  0  0  0  0
    3.3794    5.5475   12.4951 O   0  0  0  0  0  0  0  0  0  0  0  0
  1  2  1  0  0  0  0
  1 16  1  6  0  0  0
  2  3  1  0  0  0  0
  2 12  1  6  0  0  0
  4 11  1  6  0  0  0
  4  3  1  0  0  0  0
  5  4  1  0  0  0  0
  5 10  1  1  0  0  0
  6  7  1  0  0  0  0
  6  5  1  0  0  0  0
  6 14  1  1  0  0  0
  7  8  1  0  0  0  0
  7 13  1  1  0  0  0
  8 15  1  6  0  0  0
  8 11  1  0  0  0  0
  9 13  1  0  0  0  0
 10  1  1  0  0  0  0
 17 15  1  1  0  0  0
 17 18  1  0  0  0  0
 18 25  1  1  0  0  0
 19 18  1  0  0  0  0
 19 26  1  6  0  0  0
 20 19  1  0  0  0  0
 20 24  1  1  0  0  0
 21 23  1  0  0  0  0
 21 20  1  0  0  0  0
 21 22  1  6  0  0  0
 23 17  1  0  0  0  0
 27 22  1  0  0  0  0
 28 29  1  0  0  0  0
 28 16  1  1  0  0  0
 29 36  1  6  0  0  0
 30 37  1  1  0  0  0
 30 29  1  0  0  0  0
 31 30  1  0  0  0  0
 31 34  1  6  0  0  0
 32 31  1  0  0  0  0
 32 33  1  0  0  0  0
 33 28  1  0  0  0  0
 33 35  1  6  0  0  0
M  END
>  <CHROM.1>
56.57181960,66.42358386,152.02709553,-64.53337803,-178.59372382,-134.11234566
178.67369199,-151.21261944,-71.79535959,-56.80326811,179.95868346,-52.52884458
65.64379264,62.85288449,66.24559722,-145.95121978,-1.57678694,10.21387611
10.17709920,0.42078957,0.89383126,-2.16242822

>  <Name>
lig.pdb

>  <RI>
2.86754e+07

>  <Rbt.Current_Directory>
/home/itssahil/PROJECTS/Mol_Feturizer/New_Systems/rnas/2m4q

>  <Rbt.Executable>
rbdock ($Id: //depot/dev/client3/rdock/2013.1/src/exe/rbdock.cxx#4 $)

>  <Rbt.Library>
libRbt.so (2013.1, Build901 2013/11/27)

>  <Rbt.Parameter_File>
/export/apps/rDock/src/rDock_2013.1_src/data/scripts/dock_solv.prm

>  <Rbt.Receptor>
prm/pocket_docking_5.prm

>  <SCORE>
-49.5818

>  <SCORE.INTER>
-30.7587

>  <SCORE.INTER.CONST>
1

>  <SCORE.INTER.POLAR>
-4.90333

>  <SCORE.INTER.ROT>
10

>  <SCORE.INTER.SOLV>
12.7589

>  <SCORE.INTER.VDW>
-18.6809

>  <SCORE.INTER.norm>
-0.831315

>  <SCORE.INTRA>
-18.8466

>  <SCORE.INTRA.DIHEDRAL>
-30.7889

>  <SCORE.INTRA.DIHEDRAL.0>
44.8331

>  <SCORE.INTRA.POLAR>
-0.689474

>  <SCORE.INTRA.POLAR.0>
-0.108895

>  <SCORE.INTRA.REPUL>
-0.00912235

>  <SCORE.INTRA.REPUL.0>
0.00912235

>  <SCORE.INTRA.SOLV>
0.382709

>  <SCORE.INTRA.SOLV.lig_0>
-53.9067

>  <SCORE.INTRA.VDW>
-1.25364

>  <SCORE.INTRA.VDW.0>
-2.93492

>  <SCORE.INTRA.norm>
-0.509366

>  <SCORE.RESTR>
0.0234222

>  <SCORE.RESTR.CAVITY>
0.0234222

>  <SCORE.RESTR.norm>
0.000633033

>  <SCORE.SYSTEM>
0

>  <SCORE.SYSTEM.CONST>
0

>  <SCORE.SYSTEM.DIHEDRAL>
0

>  <SCORE.SYSTEM.SOLV>
0

>  <SCORE.SYSTEM.norm>
0

>  <SCORE.heavy>
37

>  <SCORE.norm>
-1.34005

>  <RMSD>
10.464

$$$$
lig.pdb
 OpenBabel11021811453D
libRbt.so/2013.1/901 2013/11/27
 37 40  0  0  0  0  0  0  0  0999 V2000
    6.8288    3.7327    8.6547 C   0  0  2  0  0  0  0  0  0  0  0  0
    5.9986    3.4542    7.3585 C   0  0  1  0  0  0  0  0  0  0  0  0
    4.7244    4.3412    7.2413 C   0  0  0  0  0  0  0  0  0  0  0  0
    3.9076    4.3201    8.5571 C   0  0  1  0  0  0  0  0  0  0  0  0
    4.8043    4.7490    9.7401 C   0  0  1  0  0  0  0  0  0  0  0  0
    3.9983    4.7820   11.0663 C   0  0  1  0  0  0  0  0  0  0  0  0
    2.7220    5.6630   10.9189 C   0  0  1  0  0  0  0  0  0  0  0  0
    1.8787    5.2640    9.6716 C   0  0  2  0  0  0  0  0  0  0  0  0
    2.4836    6.4638   13.2245 C   0  0  0  0  0  0  0  0  0  0  0  0
    5.9707    3.8812    9.8323 O   0  0  0  0  0  0  0  0  0  0  0  0
    2.7114    5.1476    8.4771 O   0  0  0  0  0  0  0  0  0  0  0  0
    6.8521    3.6515    6.1667 N   0  0  0  0  0  0  0  0  0  0  0  0
    1.9344    5.5882   12.1667 N   0  0  0  0  0  0  0  0  0  0  0  0
    3.6706    3.4697   11.5044 O   0  0  0  0  0  0  0  0  0  0  0  0
    0.7908    6.2126    9.4682 O   0  0  0  0  0  0  0  0  0  0  0  0
    7.6814    4.9073    8.4933 O   0  0  0  0  0  0  0  0  0  0  0  0
   -0.5352    5.6930    9.1432 C   0  0  2  0  0  0  0  0  0  0  0  0
   -1.4718    6.8293    8.6430 C   0  0  1  0  0  0  0  0  0  0  0  0
   -1.8692    7.7967    9.7946 C   0  0  2  0  0  0  0  0  0  0  0  0
   -2.4550    7.0163   11.0069 C   0  0  1  0  0  0  0  0  0  0  0  0
   -1.5047    5.8697   11.4516 C   0  0  1  0  0  0  0  0  0  0  0  0
   -2.1351    4.9976   12.5690 C   0  0  0  0  0  0  0  0  0  0  0  0
   -1.1314    5.0449   10.3063 O   0  0  0  0  0  0  0  0  0  0  0  0
   -2.7706    7.9232   12.1322 N   0  0  0  0  0  0  0  0  0  0  0  0
   -0.8755    7.5254    7.5501 O   0  0  0  0  0  0  0  0  0  0  0  0
   -2.7792    8.7949    9.3376 O   0  0  0  0  0  0  0  0  0  0  0  0
   -3.1532    4.1542   12.0405 O   0  0  0  0  0  0  0  0  0  0  0  0
    8.5385    5.2808    9.6113 C   0  0  1  0  0  0  0  0  0  0  0  0
    9.6504    4.2257    9.8696 C   0  0  1  0  0  0  0  0  0  0  0  0
   10.4917    4.5940   11.1240 C   0  0  2  0  0  0  0  0  0  0  0  0
   11.0724    6.0435   11.0481 C   0  0  1  0  0  0  0  0  0  0  0  0
   10.0021    7.1062   10.6573 C   0  0  0  0  0  0  0  0  0  0  0  0
    9.1680    6.6883    9.4089 C   0  0  2  0  0  0  0  0  0  0  0  0
   11.7394    6.4092   12.3159 N   0  0  0  0  0  0  0  0  0  0  0  0
    8.1450    7.7211    9.1366 N   0  0  0  0  0  0  0  0  0  0  0  0
    9.0917    2.9225   10.0001 O   0  0  0  0  0  0  0  0  0  0  0  0
   11.5394    3.6469   11.3164 O   0  0  0  0  0  0  0  0  0  0  0  0
  1  2  1  0  0  0  0
  1 16  1  6  0  0  0
  2  3  1  0  0  0  0
  2 12  1  6  0  0  0
  4 11  1  6  0  0  0
  4  3  1  0  0  0  0
  5  4  1  0  0  0  0
  5 10  1  1  0  0  0
  6  7  1  0  0  0  0
  6  5  1  0  0  0  0
  6 14  1  6  0  0  0
  7  8  1  0  0  0  0
  7 13  1  1  0  0  0
  8 15  1  6  0  0  0
  8 11  1  0  0  0  0
  9 13  1  0  0  0  0
 10  1  1  0  0  0  0
 17 15  1  1  0  0  0
 17 18  1  0  0  0  0
 18 25  1  6  0  0  0
 19 18  1  0  0  0  0
 19 26  1  6  0  0  0
 20 19  1  0  0  0  0
 20 24  1  1  0  0  0
 21 23  1  0  0  0  0
 21 20  1  0  0  0  0
 21 22  1  1  0  0  0
 23 17  1  0  0  0  0
 27 22  1  0  0  0  0
 28 29  1  0  0  0  0
 28 16  1  6  0  0  0
 29 36  1  1  0  0  0
 30 37  1  6  0  0  0
 30 29  1  0  0  0  0
 31 30  1  0  0  0  0
 31 34  1  1  0  0  0
 32 31  1  0  0  0  0
 32 33  1  0  0  0  0
 33 28  1  0  0  0  0
 33 35  1  1  0  0  0
M  END
>  <CHROM.1>
79.15443776,-136.17900446,79.43189596,-56.77622623,-166.82151379,-178.83641332
178.93823714,53.05526362,73.99635516,-50.10699567,-177.34043105,67.02130472
-59.70764509,-178.75865628,-68.28282688,-57.06645848,3.90247802,5.46009108
10.03825165,0.06541682,0.12029107,-1.78373403

>  <Name>
lig.pdb

>  <RI>
3.60165e+07

>  <Rbt.Current_Directory>
/home/itssahil/PROJECTS/Mol_Feturizer/New_Systems/rnas/2m4q

>  <Rbt.Executable>
rbdock ($Id: //depot/dev/client3/rdock/2013.1/src/exe/rbdock.cxx#4 $)

>  <Rbt.Library>
libRbt.so (2013.1, Build901 2013/11/27)

>  <Rbt.Parameter_File>
/export/apps/rDock/src/rDock_2013.1_src/data/scripts/dock_solv.prm

>  <Rbt.Receptor>
prm/pocket_docking_8.prm

>  <SCORE>
-41.58

>  <SCORE.INTER>
-22.8456

>  <SCORE.INTER.CONST>
1

>  <SCORE.INTER.POLAR>
-3.07918

>  <SCORE.INTER.ROT>
10

>  <SCORE.INTER.SOLV>
15.779

>  <SCORE.INTER.VDW>
-20.4928

>  <SCORE.INTER.norm>
-0.61745

>  <SCORE.INTRA>
-18.7344

>  <SCORE.INTRA.DIHEDRAL>
-34.6573

>  <SCORE.INTRA.DIHEDRAL.0>
44.8331

>  <SCORE.INTRA.POLAR>
-0.078495

>  <SCORE.INTRA.POLAR.0>
-0.108895

>  <SCORE.INTRA.REPUL>
-0.00912235

>  <SCORE.INTRA.REPUL.0>
0.00912235

>  <SCORE.INTRA.SOLV>
-1.62512

>  <SCORE.INTRA.SOLV.lig_0>
-53.9067

>  <SCORE.INTRA.VDW>
-0.280702

>  <SCORE.INTRA.VDW.0>
-2.93492

>  <SCORE.INTRA.norm>
-0.506335

>  <SCORE.RESTR>
0

>  <SCORE.RESTR.CAVITY>
0

>  <SCORE.RESTR.norm>
0

>  <SCORE.SYSTEM>
0

>  <SCORE.SYSTEM.CONST>
0

>  <SCORE.SYSTEM.DIHEDRAL>
0

>  <SCORE.SYSTEM.SOLV>
0

>  <SCORE.SYSTEM.norm>
0

>  <SCORE.heavy>
37

>  <SCORE.norm>
-1.12379

>  <RMSD>
10.486

$$$$
lig.pdb
 OpenBabel11021811453D
libRbt.so/2013.1/901 2013/11/27
 37 40  0  0  0  0  0  0  0  0999 V2000
   -1.0538    7.3144   10.1334 C   0  0  2  0  0  0  0  0  0  0  0  0
   -1.9983    7.4339    8.8921 C   0  0  1  0  0  0  0  0  0  0  0  0
   -2.5150    8.8822    8.6491 C   0  0  0  0  0  0  0  0  0  0  0  0
   -3.0713    9.5021    9.9549 C   0  0  1  0  0  0  0  0  0  0  0  0
   -1.9950    9.4500   11.0623 C   0  0  1  0  0  0  0  0  0  0  0  0
   -2.5099   10.1078   12.3706 C   0  0  1  0  0  0  0  0  0  0  0  0
   -3.0345   11.5492   12.0985 C   0  0  1  0  0  0  0  0  0  0  0  0
   -4.0559   11.5860   10.9231 C   0  0  2  0  0  0  0  0  0  0  0  0
   -2.9393   13.3573   13.7524 C   0  0  0  0  0  0  0  0  0  0  0  0
   -1.5560    8.0778   11.2780 O   0  0  0  0  0  0  0  0  0  0  0  0
   -3.5568   10.8612    9.7572 O   0  0  0  0  0  0  0  0  0  0  0  0
   -1.2984    6.9471    7.6834 N   0  0  0  0  0  0  0  0  0  0  0  0
   -3.6047   12.1010   13.3449 N   0  0  0  0  0  0  0  0  0  0  0  0
   -3.5051    9.3066   12.9946 O   0  0  0  0  0  0  0  0  0  0  0  0
   -4.3939   12.9631   10.5857 O   0  0  0  0  0  0  0  0  0  0  0  0
    0.3074    7.7268    9.8026 O   0  0  0  0  0  0  0  0  0  0  0  0
   -3.4548   13.7319    9.7726 C   0  0  2  0  0  0  0  0  0  0  0  0
   -3.9397   15.1993    9.5986 C   0  0  1  0  0  0  0  0  0  0  0  0
   -5.1865   15.2876    8.6726 C   0  0  2  0  0  0  0  0  0  0  0  0
   -4.9314   14.5675    7.3168 C   0  0  1  0  0  0  0  0  0  0  0  0
   -4.4158   13.1179    7.5366 C   0  0  1  0  0  0  0  0  0  0  0  0
   -4.0275   12.4339    6.1995 C   0  0  0  0  0  0  0  0  0  0  0  0
   -3.2863   13.1143    8.4616 O   0  0  0  0  0  0  0  0  0  0  0  0
   -6.1364   14.5877    6.4588 N   0  0  0  0  0  0  0  0  0  0  0  0
   -4.1813   15.8011   10.8691 O   0  0  0  0  0  0  0  0  0  0  0  0
   -5.5815   16.6426    8.4686 O   0  0  0  0  0  0  0  0  0  0  0  0
   -3.5970   11.0949    6.4212 O   0  0  0  0  0  0  0  0  0  0  0  0
    1.3909    6.8065   10.1237 C   0  0  1  0  0  0  0  0  0  0  0  0
    1.2379    6.2022   11.5476 C   0  0  1  0  0  0  0  0  0  0  0  0
    2.4521    5.3001   11.9068 C   0  0  2  0  0  0  0  0  0  0  0  0
    2.7132    4.1956   10.8317 C   0  0  1  0  0  0  0  0  0  0  0  0
    2.7371    4.7569    9.3784 C   0  0  0  0  0  0  0  0  0  0  0  0
    1.5144    5.6719    9.0673 C   0  0  2  0  0  0  0  0  0  0  0  0
    3.9574    3.4550   11.1309 N   0  0  0  0  0  0  0  0  0  0  0  0
    1.6389    6.2030    7.6927 N   0  0  0  0  0  0  0  0  0  0  0  0
    1.0665    7.2297   12.5184 O   0  0  0  0  0  0  0  0  0  0  0  0
    2.2720    4.7115   13.1924 O   0  0  0  0  0  0  0  0  0  0  0  0
  1  2  1  0  0  0  0
  1 16  1  6  0  0  0
  2  3  1  0  0  0  0
  2 12  1  6  0  0  0
  4 11  1  6  0  0  0
  4  3  1  0  0  0  0
  5  4  1  0  0  0  0
  5 10  1  1  0  0  0
  6  7  1  0  0  0  0
  6  5  1  0  0  0  0
  6 14  1  6  0  0  0
  7  8  1  0  0  0  0
  7 13  1  1  0  0  0
  8 15  1  6  0  0  0
  8 11  1  0  0  0  0
  9 13  1  0  0  0  0
 10  1  1  0  0  0  0
 17 15  1  1  0  0  0
 17 18  1  0  0  0  0
 18 25  1  1  0  0  0
 19 18  1  0  0  0  0
 19 26  1  6  0  0  0
 20 19  1  0  0  0  0
 20 24  1  1  0  0  0
 21 23  1  0  0  0  0
 21 20  1  0  0  0  0
 21 22  1  6  0  0  0
 23 17  1  0  0  0  0
 27 22  1  0  0  0  0
 28 29  1  0  0  0  0
 28 16  1  6  0  0  0
 29 36  1  1  0  0  0
 30 37  1  1  0  0  0
 30 29  1  0  0  0  0
 31 30  1  0  0  0  0
 31 34  1  1  0  0  0
 32 31  1  0  0  0  0
 32 33  1  0  0  0  0
 33 28  1  0  0  0  0
 33 35  1  6  0  0  0
M  END
>  <CHROM.1>
-166.03467533,79.10800588,121.93487500,-59.66650403,-176.18331791,-127.61389423
-59.61733835,-88.41151510,-178.23295560,56.44624599,63.93472423,-44.77521714
67.99241404,-178.74983157,169.15198611,-72.73121425,-1.87371421,9.94401955
10.01624461,-0.03633154,0.94946992,-1.71963685

>  <Name>
lig.pdb

>  <RI>
3.60165e+07

>  <Rbt.Current_Directory>
/home/itssahil/PROJECTS/Mol_Feturizer/New_Systems/rnas/2m4q

>  <Rbt.Executable>
rbdock ($Id: //depot/dev/client3/rdock/2013.1/src/exe/rbdock.cxx#4 $)

>  <Rbt.Library>
libRbt.so (2013.1, Build901 2013/11/27)

>  <Rbt.Parameter_File>
/export/apps/rDock/src/rDock_2013.1_src/data/scripts/dock_solv.prm

>  <Rbt.Receptor>
prm/pocket_docking_8.prm

>  <SCORE>
-51.1441

>  <SCORE.INTER>
-29.6771

>  <SCORE.INTER.CONST>
1

>  <SCORE.INTER.POLAR>
-4.36183

>  <SCORE.INTER.ROT>
10

>  <SCORE.INTER.SOLV>
14.1926

>  <SCORE.INTER.VDW>
-20.2428

>  <SCORE.INTER.norm>
-0.802084

>  <SCORE.INTRA>
-21.467

>  <SCORE.INTRA.DIHEDRAL>
-27.8454

>  <SCORE.INTRA.DIHEDRAL.0>
44.8331

>  <SCORE.INTRA.POLAR>
-1.90642

>  <SCORE.INTRA.POLAR.0>
-0.108895

>  <SCORE.INTRA.REPUL>
-0.00912235

>  <SCORE.INTRA.REPUL.0>
0.00912235

>  <SCORE.INTRA.SOLV>
-0.232013

>  <SCORE.INTRA.SOLV.lig_0>
-53.9067

>  <SCORE.INTRA.VDW>
-0.900823

>  <SCORE.INTRA.VDW.0>
-2.93492

>  <SCORE.INTRA.norm>
-0.580189

>  <SCORE.RESTR>
0

>  <SCORE.RESTR.CAVITY>
0

>  <SCORE.RESTR.norm>
0

>  <SCORE.SYSTEM>
0

>  <SCORE.SYSTEM.CONST>
0

>  <SCORE.SYSTEM.DIHEDRAL>
0

>  <SCORE.SYSTEM.SOLV>
0

>  <SCORE.SYSTEM.norm>
0

>  <SCORE.heavy>
37

>  <SCORE.norm>
-1.38227

>  <RMSD>
10.550

$$$$
lig.pdb
 OpenBabel11021811453D
libRbt.so/2013.1/901 2013/11/27
 37 40  0  0  0  0  0  0  0  0999 V2000
   -1.5191    8.4066   11.3453 C   0  0  2  0  0  0  0  0  0  0  0  0
   -2.6238    9.1498   12.1667 C   0  0  1  0  0  0  0  0  0  0  0  0
   -3.4642   10.1420   11.3106 C   0  0  0  0  0  0  0  0  0  0  0  0
   -2.5493   11.0621   10.4649 C   0  0  1  0  0  0  0  0  0  0  0  0
   -1.6019   10.2061    9.5948 C   0  0  1  0  0  0  0  0  0  0  0  0
   -0.7042   11.1031    8.7008 C   0  0  1  0  0  0  0  0  0  0  0  0
   -1.5670   12.0960    7.8662 C   0  0  1  0  0  0  0  0  0  0  0  0
   -2.5712   12.8869    8.7563 C   0  0  2  0  0  0  0  0  0  0  0  0
   -1.2650   13.4061    5.8153 C   0  0  0  0  0  0  0  0  0  0  0  0
   -0.8157    9.3103   10.4323 O   0  0  0  0  0  0  0  0  0  0  0  0
   -3.3109   11.9978    9.6486 O   0  0  0  0  0  0  0  0  0  0  0  0
   -3.5206    8.1621   12.8053 N   0  0  0  0  0  0  0  0  0  0  0  0
   -0.6734   12.9949    7.1068 N   0  0  0  0  0  0  0  0  0  0  0  0
    0.2706   11.7916    9.4737 O   0  0  0  0  0  0  0  0  0  0  0  0
   -3.4740   13.6758    7.9273 O   0  0  0  0  0  0  0  0  0  0  0  0
   -2.0785    7.2743   10.6121 O   0  0  0  0  0  0  0  0  0  0  0  0
   -4.8760   13.2738    7.8464 C   0  0  2  0  0  0  0  0  0  0  0  0
   -5.0445   12.0177    6.9451 C   0  0  1  0  0  0  0  0  0  0  0  0
   -4.8034   12.3491    5.4445 C   0  0  2  0  0  0  0  0  0  0  0  0
   -5.6829   13.5482    4.9857 C   0  0  1  0  0  0  0  0  0  0  0  0
   -5.5105   14.7687    5.9325 C   0  0  1  0  0  0  0  0  0  0  0  0
   -6.4809   15.9232    5.5693 C   0  0  0  0  0  0  0  0  0  0  0  0
   -5.6927   14.3636    7.3232 O   0  0  0  0  0  0  0  0  0  0  0  0
   -5.4079   13.9132    3.5787 N   0  0  0  0  0  0  0  0  0  0  0  0
   -4.1990   10.9609    7.3954 O   0  0  0  0  0  0  0  0  0  0  0  0
   -5.0246   11.2052    4.6224 O   0  0  0  0  0  0  0  0  0  0  0  0
   -6.2537   17.0569    6.4001 O   0  0  0  0  0  0  0  0  0  0  0  0
   -1.1622    6.4557    9.8284 C   0  0  1  0  0  0  0  0  0  0  0  0
   -0.5203    7.2564    8.6609 C   0  0  1  0  0  0  0  0  0  0  0  0
    0.3772    6.3415    7.7809 C   0  0  2  0  0  0  0  0  0  0  0  0
    1.4512    5.5751    8.6194 C   0  0  1  0  0  0  0  0  0  0  0  0
    0.8529    4.8728    9.8751 C   0  0  0  0  0  0  0  0  0  0  0  0
   -0.0562    5.8184   10.7166 C   0  0  2  0  0  0  0  0  0  0  0  0
    2.1854    4.6087    7.7750 N   0  0  0  0  0  0  0  0  0  0  0  0
   -0.6234    5.0646   11.8557 N   0  0  0  0  0  0  0  0  0  0  0  0
   -1.5209    7.8926    7.8724 O   0  0  0  0  0  0  0  0  0  0  0  0
    1.0002    7.1004    6.7476 O   0  0  0  0  0  0  0  0  0  0  0  0
  1  2  1  0  0  0  0
  1 16  1  6  0  0  0
  2  3  1  0  0  0  0
  2 12  1  6  0  0  0
  4 11  1  6  0  0  0
  4  3  1  0  0  0  0
  5  4  1  0  0  0  0
  5 10  1  1  0  0  0
  6  7  1  0  0  0  0
  6  5  1  0  0  0  0
  6 14  1  1  0  0  0
  7  8  1  0  0  0  0
  7 13  1  1  0  0  0
  8 15  1  6  0  0  0
  8 11  1  0  0  0  0
  9 13  1  0  0  0  0
 10  1  1  0  0  0  0
 17 15  1  6  0  0  0
 17 18  1  0  0  0  0
 18 25  1  1  0  0  0
 19 18  1  0  0  0  0
 19 26  1  6  0  0  0
 20 19  1  0  0  0  0
 20 24  1  6  0  0  0
 21 23  1  0  0  0  0
 21 20  1  0  0  0  0
 21 22  1  6  0  0  0
 23 17  1  0  0  0  0
 27 22  1  0  0  0  0
 28 29  1  0  0  0  0
 28 16  1  1  0  0  0
 29 36  1  6  0  0  0
 30 37  1  6  0  0  0
 30 29  1  0  0  0  0
 31 30  1  0  0  0  0
 31 34  1  6  0  0  0
 32 31  1  0  0  0  0
 32 33  1  0  0  0  0
 33 28  1  0  0  0  0
 33 35  1  1  0  0  0
M  END
>  <CHROM.1>
77.91692717,109.94259643,148.11723367,63.86961203,-75.07090096,-178.20884511
170.93837560,101.78140187,-176.71741137,-36.93128503,-174.79743572,-64.43511683
178.55950073,-177.31164812,-71.98419041,71.16737894,-2.40118765,10.39269190
8.33828612,0.64328679,-0.89945004,1.89428383

>  <Name>
lig.pdb

>  <RI>
0

>  <Rbt.Current_Directory>
/home/itssahil/PROJECTS/Mol_Feturizer/New_Systems/rnas/2m4q

>  <Rbt.Executable>
rbdock ($Id: //depot/dev/client3/rdock/2013.1/src/exe/rbdock.cxx#4 $)

>  <Rbt.Library>
libRbt.so (2013.1, Build901 2013/11/27)

>  <Rbt.Parameter_File>
/export/apps/rDock/src/rDock_2013.1_src/data/scripts/dock_solv.prm

>  <Rbt.Receptor>
prm/pocket_docking_6.prm

>  <SCORE>
-41.6831

>  <SCORE.INTER>
-28.0586

>  <SCORE.INTER.CONST>
1

>  <SCORE.INTER.POLAR>
-4.08655

>  <SCORE.INTER.ROT>
10

>  <SCORE.INTER.SOLV>
17.2005

>  <SCORE.INTER.VDW>
-21.084

>  <SCORE.INTER.norm>
-0.75834

>  <SCORE.INTRA>
-13.6246

>  <SCORE.INTRA.DIHEDRAL>
-27.2209

>  <SCORE.INTRA.DIHEDRAL.0>
44.8331

>  <SCORE.INTRA.POLAR>
-0.0726366

>  <SCORE.INTRA.POLAR.0>
-0.108895

>  <SCORE.INTRA.REPUL>
0.0876569

>  <SCORE.INTRA.REPUL.0>
0.00912235

>  <SCORE.INTRA.SOLV>
0.625149

>  <SCORE.INTRA.SOLV.lig_0>
-53.9067

>  <SCORE.INTRA.VDW>
-0.518007

>  <SCORE.INTRA.VDW.0>
-2.93492

>  <SCORE.INTRA.norm>
-0.368231

>  <SCORE.RESTR>
0

>  <SCORE.RESTR.CAVITY>
0

>  <SCORE.RESTR.norm>
0

>  <SCORE.SYSTEM>
0

>  <SCORE.SYSTEM.CONST>
0

>  <SCORE.SYSTEM.DIHEDRAL>
0

>  <SCORE.SYSTEM.SOLV>
0

>  <SCORE.SYSTEM.norm>
0

>  <SCORE.heavy>
37

>  <SCORE.norm>
-1.12657

>  <RMSD>
10.553

$$$$
lig.pdb
 OpenBabel11021811453D
libRbt.so/2013.1/901 2013/11/27
 37 40  0  0  0  0  0  0  0  0999 V2000
   -0.8251    7.0587   10.0156 C   0  0  2  0  0  0  0  0  0  0  0  0
   -1.7148    7.3124    8.7541 C   0  0  1  0  0  0  0  0  0  0  0  0
   -2.1927    8.7885    8.6249 C   0  0  0  0  0  0  0  0  0  0  0  0
   -2.7907    9.2996    9.9592 C   0  0  1  0  0  0  0  0  0  0  0  0
   -1.7625    9.1221   11.0988 C   0  0  1  0  0  0  0  0  0  0  0  0
   -2.3184    9.6698   12.4407 C   0  0  1  0  0  0  0  0  0  0  0  0
   -2.8032   11.1416   12.2816 C   0  0  1  0  0  0  0  0  0  0  0  0
   -3.7740   11.3089   11.0751 C   0  0  2  0  0  0  0  0  0  0  0  0
   -2.4709   11.4962   14.6853 C   0  0  0  0  0  0  0  0  0  0  0  0
   -1.3595    7.7262   11.2047 O   0  0  0  0  0  0  0  0  0  0  0  0
   -3.2411   10.6819    9.8682 O   0  0  0  0  0  0  0  0  0  0  0  0
   -0.9749    6.9217    7.5345 N   0  0  0  0  0  0  0  0  0  0  0  0
   -3.4138   11.5908   13.5499 N   0  0  0  0  0  0  0  0  0  0  0  0
   -3.3540    8.8383   12.9485 O   0  0  0  0  0  0  0  0  0  0  0  0
   -4.0709   12.7185   10.8525 O   0  0  0  0  0  0  0  0  0  0  0  0
    0.5564    7.4679    9.7782 O   0  0  0  0  0  0  0  0  0  0  0  0
   -2.9582   13.6378   10.6274 C   0  0  2  0  0  0  0  0  0  0  0  0
   -3.1002   14.9110   11.5091 C   0  0  1  0  0  0  0  0  0  0  0  0
   -4.2647   15.8209   11.0234 C   0  0  2  0  0  0  0  0  0  0  0  0
   -4.1301   16.1441    9.5071 C   0  0  1  0  0  0  0  0  0  0  0  0
   -3.9558   14.8479    8.6676 C   0  0  1  0  0  0  0  0  0  0  0  0
   -3.6841   15.1600    7.1725 C   0  0  0  0  0  0  0  0  0  0  0  0
   -2.8868   14.0224    9.2219 O   0  0  0  0  0  0  0  0  0  0  0  0
   -5.2713   16.9516    9.0231 N   0  0  0  0  0  0  0  0  0  0  0  0
   -3.2449   14.5555   12.8829 O   0  0  0  0  0  0  0  0  0  0  0  0
   -4.3428   17.0151   11.7987 O   0  0  0  0  0  0  0  0  0  0  0  0
   -2.4401   15.8340    7.0131 O   0  0  0  0  0  0  0  0  0  0  0  0
    1.6133    6.5451   10.1722 C   0  0  1  0  0  0  0  0  0  0  0  0
    1.3890    5.9804   11.6029 C   0  0  1  0  0  0  0  0  0  0  0  0
    2.5751    5.0755   12.0404 C   0  0  2  0  0  0  0  0  0  0  0  0
    2.8716    3.9401   11.0075 C   0  0  1  0  0  0  0  0  0  0  0  0
    2.9679    4.4625    9.5427 C   0  0  0  0  0  0  0  0  0  0  0  0
    1.7713    5.3816    9.1525 C   0  0  2  0  0  0  0  0  0  0  0  0
    4.0922    3.1947   11.3823 N   0  0  0  0  0  0  0  0  0  0  0  0
    1.9641    5.8748    7.7715 N   0  0  0  0  0  0  0  0  0  0  0  0
    1.1859    7.0351   12.5378 O   0  0  0  0  0  0  0  0  0  0  0  0
    2.3301    4.5232   13.3314 O   0  0  0  0  0  0  0  0  0  0  0  0
  1  2  1  0  0  0  0
  1 16  1  6  0  0  0
  2  3  1  0  0  0  0
  2 12  1  6  0  0  0
  4 11  1  6  0  0  0
  4  3  1  0  0  0  0
  5  4  1  0  0  0  0
  5 10  1  1  0  0  0
  6  7  1  0  0  0  0
  6  5  1  0  0  0  0
  6 14  1  6  0  0  0
  7  8  1  0  0  0  0
  7 13  1  1  0  0  0
  8 15  1  6  0  0  0
  8 11  1  0  0  0  0
  9 13  1  0  0  0  0
 10  1  1  0  0  0  0
 17 15  1  6  0  0  0
 17 18  1  0  0  0  0
 18 25  1  1  0  0  0
 19 18  1  0  0  0  0
 19 26  1  1  0  0  0
 20 19  1  0  0  0  0
 20 24  1  6  0  0  0
 21 23  1  0  0  0  0
 21 20  1  0  0  0  0
 21 22  1  6  0  0  0
 23 17  1  0  0  0  0
 27 22  1  0  0  0  0
 28 29  1  0  0  0  0
 28 16  1  6  0  0  0
 29 36  1  1  0  0  0
 30 37  1  1  0  0  0
 30 29  1  0  0  0  0
 31 30  1  0  0  0  0
 31 34  1  1  0  0  0
 32 31  1  0  0  0  0
 32 33  1  0  0  0  0
 33 28  1  0  0  0  0
 33 35  1  6  0  0  0
M  END
>  <CHROM.1>
-165.04295567,56.52241212,58.24637654,-59.82481191,-132.35030065,-133.19933288
72.47143456,-165.53323627,64.82037687,-151.24212304,57.71894981,-46.82695312
70.83435401,56.79009191,67.43915101,-57.69468532,-1.47267151,10.08944070
10.59996175,-0.22392616,1.02898446,-1.36266874

>  <Name>
lig.pdb

>  <RI>
0

>  <Rbt.Current_Directory>
/home/itssahil/PROJECTS/Mol_Feturizer/New_Systems/rnas/2m4q

>  <Rbt.Executable>
rbdock ($Id: //depot/dev/client3/rdock/2013.1/src/exe/rbdock.cxx#4 $)

>  <Rbt.Library>
libRbt.so (2013.1, Build901 2013/11/27)

>  <Rbt.Parameter_File>
/export/apps/rDock/src/rDock_2013.1_src/data/scripts/dock_solv.prm

>  <Rbt.Receptor>
prm/pocket_docking_7.prm

>  <SCORE>
-45.8236

>  <SCORE.INTER>
-24.5419

>  <SCORE.INTER.CONST>
1

>  <SCORE.INTER.POLAR>
-3.75479

>  <SCORE.INTER.ROT>
10

>  <SCORE.INTER.SOLV>
12.9488

>  <SCORE.INTER.VDW>
-18.4283

>  <SCORE.INTER.norm>
-0.663295

>  <SCORE.INTRA>
-21.2817

>  <SCORE.INTRA.DIHEDRAL>
-26.5609

>  <SCORE.INTRA.DIHEDRAL.0>
44.8331

>  <SCORE.INTRA.POLAR>
-2.62151

>  <SCORE.INTRA.POLAR.0>
-0.108895

>  <SCORE.INTRA.REPUL>
-0.00912235

>  <SCORE.INTRA.REPUL.0>
0.00912235

>  <SCORE.INTRA.SOLV>
0.673992

>  <SCORE.INTRA.SOLV.lig_0>
-53.9067

>  <SCORE.INTRA.VDW>
0.62051

>  <SCORE.INTRA.VDW.0>
-2.93492

>  <SCORE.INTRA.norm>
-0.575181

>  <SCORE.RESTR>
0

>  <SCORE.RESTR.CAVITY>
0

>  <SCORE.RESTR.norm>
0

>  <SCORE.SYSTEM>
0

>  <SCORE.SYSTEM.CONST>
0

>  <SCORE.SYSTEM.DIHEDRAL>
0

>  <SCORE.SYSTEM.SOLV>
0

>  <SCORE.SYSTEM.norm>
0

>  <SCORE.heavy>
37

>  <SCORE.norm>
-1.23848

>  <RMSD>
10.565

$$$$
lig.pdb
 OpenBabel11021811453D
libRbt.so/2013.1/901 2013/11/27
 37 40  0  0  0  0  0  0  0  0999 V2000
   -1.6953    7.0332    9.6488 C   0  0  2  0  0  0  0  0  0  0  0  0
   -2.2232    7.7273    8.3501 C   0  0  1  0  0  0  0  0  0  0  0  0
   -2.3836    9.2688    8.4978 C   0  0  0  0  0  0  0  0  0  0  0  0
   -3.1576    9.6273    9.7906 C   0  0  1  0  0  0  0  0  0  0  0  0
   -2.4561    8.9987   11.0154 C   0  0  1  0  0  0  0  0  0  0  0  0
   -3.1848    9.3811   12.3316 C   0  0  1  0  0  0  0  0  0  0  0  0
   -3.3459   10.9261   12.4486 C   0  0  1  0  0  0  0  0  0  0  0  0
   -3.9795   11.5453   11.1674 C   0  0  2  0  0  0  0  0  0  0  0  0
   -3.2974   11.2097   14.8840 C   0  0  0  0  0  0  0  0  0  0  0  0
   -2.3478    7.5552   10.8516 O   0  0  0  0  0  0  0  0  0  0  0  0
   -3.3170   11.0657    9.9571 O   0  0  0  0  0  0  0  0  0  0  0  0
   -1.3166    7.4285    7.2203 N   0  0  0  0  0  0  0  0  0  0  0  0
   -4.1287   11.2416   13.6613 N   0  0  0  0  0  0  0  0  0  0  0  0
   -4.4407    8.7228   12.4367 O   0  0  0  0  0  0  0  0  0  0  0  0
   -3.9578   13.0008   11.2415 O   0  0  0  0  0  0  0  0  0  0  0  0
   -0.2445    7.1568    9.7609 O   0  0  0  0  0  0  0  0  0  0  0  0
   -2.8165   13.7108   10.6694 C   0  0  2  0  0  0  0  0  0  0  0  0
   -2.7402   15.1681   11.2071 C   0  0  1  0  0  0  0  0  0  0  0  0
   -3.8843   16.0535   10.6352 C   0  0  2  0  0  0  0  0  0  0  0  0
   -3.9274   15.9809    9.0812 C   0  0  1  0  0  0  0  0  0  0  0  0
   -3.9679   14.5081    8.5865 C   0  0  1  0  0  0  0  0  0  0  0  0
   -3.8736   14.4151    7.0409 C   0  0  0  0  0  0  0  0  0  0  0  0
   -2.9026   13.7312    9.2132 O   0  0  0  0  0  0  0  0  0  0  0  0
   -5.0561   16.7655    8.5345 N   0  0  0  0  0  0  0  0  0  0  0  0
   -2.7286   15.1759   12.6334 O   0  0  0  0  0  0  0  0  0  0  0  0
   -3.7652   17.4018   11.0837 O   0  0  0  0  0  0  0  0  0  0  0  0
   -3.8910   13.0573    6.6125 O   0  0  0  0  0  0  0  0  0  0  0  0
    0.4954    6.0099   10.2720 C   0  0  1  0  0  0  0  0  0  0  0  0
    1.8657    5.8371    9.5589 C   0  0  1  0  0  0  0  0  0  0  0  0
    2.5950    4.5547   10.0496 C   0  0  2  0  0  0  0  0  0  0  0  0
    2.7398    4.5095   11.6055 C   0  0  1  0  0  0  0  0  0  0  0  0
    1.4043    4.8137   12.3484 C   0  0  0  0  0  0  0  0  0  0  0  0
    0.6963    6.0941   11.8118 C   0  0  2  0  0  0  0  0  0  0  0  0
    3.3029    3.2143   12.0432 N   0  0  0  0  0  0  0  0  0  0  0  0
   -0.5828    6.2824   12.5300 N   0  0  0  0  0  0  0  0  0  0  0  0
    1.7018    5.8158    8.1446 O   0  0  0  0  0  0  0  0  0  0  0  0
    3.8718    4.4388    9.4267 O   0  0  0  0  0  0  0  0  0  0  0  0
  1  2  1  0  0  0  0
  1 16  1  1  0  0  0
  2  3  1  0  0  0  0
  2 12  1  6  0  0  0
  4 11  1  1  0  0  0
  4  3  1  0  0  0  0
  5  4  1  0  0  0  0
  5 10  1  6  0  0  0
  6  7  1  0  0  0  0
  6  5  1  0  0  0  0
  6 14  1  6  0  0  0
  7  8  1  0  0  0  0
  7 13  1  1  0  0  0
  8 15  1  1  0  0  0
  8 11  1  0  0  0  0
  9 13  1  0  0  0  0
 10  1  1  0  0  0  0
 17 15  1  1  0  0  0
 17 18  1  0  0  0  0
 18 25  1  1  0  0  0
 19 18  1  0  0  0  0
 19 26  1  6  0  0  0
 20 19  1  0  0  0  0
 20 24  1  1  0  0  0
 21 23  1  0  0  0  0
 21 20  1  0  0  0  0
 21 22  1  6  0  0  0
 23 17  1  0  0  0  0
 27 22  1  0  0  0  0
 28 29  1  0  0  0  0
 28 16  1  6  0  0  0
 29 36  1  6  0  0  0
 30 37  1  6  0  0  0
 30 29  1  0  0  0  0
 31 30  1  0  0  0  0
 31 34  1  6  0  0  0
 32 31  1  0  0  0  0
 32 33  1  0  0  0  0
 33 28  1  0  0  0  0
 33 35  1  1  0  0  0
M  END
>  <CHROM.1>
-45.58594385,92.15321443,80.74331646,64.16776918,-162.62726089,-141.22543127
-61.37516504,55.93538911,179.06418883,-172.74967853,-53.85204678,143.17291647
175.26462121,-170.45855467,102.66751074,-47.51285030,-1.80697211,10.00408195
10.43089151,-0.31451619,1.03130642,-1.24963398

>  <Name>
lig.pdb

>  <RI>
0

>  <Rbt.Current_Directory>
/home/itssahil/PROJECTS/Mol_Feturizer/New_Systems/rnas/2m4q

>  <Rbt.Executable>
rbdock ($Id: //depot/dev/client3/rdock/2013.1/src/exe/rbdock.cxx#4 $)

>  <Rbt.Library>
libRbt.so (2013.1, Build901 2013/11/27)

>  <Rbt.Parameter_File>
/export/apps/rDock/src/rDock_2013.1_src/data/scripts/dock_solv.prm

>  <Rbt.Receptor>
prm/pocket_docking_7.prm

>  <SCORE>
-46.216

>  <SCORE.INTER>
-30.2565

>  <SCORE.INTER.CONST>
1

>  <SCORE.INTER.POLAR>
-4.72532

>  <SCORE.INTER.ROT>
10

>  <SCORE.INTER.SOLV>
13.9998

>  <SCORE.INTER.VDW>
-19.3532

>  <SCORE.INTER.norm>
-0.817743

>  <SCORE.INTRA>
-15.9595

>  <SCORE.INTRA.DIHEDRAL>
-24.5816

>  <SCORE.INTRA.DIHEDRAL.0>
44.8331

>  <SCORE.INTRA.POLAR>
-0.872152

>  <SCORE.INTRA.POLAR.0>
-0.108895

>  <SCORE.INTRA.REPUL>
-0.00912235

>  <SCORE.INTRA.REPUL.0>
0.00912235

>  <SCORE.INTRA.SOLV>
-1.1541

>  <SCORE.INTRA.SOLV.lig_0>
-53.9067

>  <SCORE.INTRA.VDW>
-0.0806885

>  <SCORE.INTRA.VDW.0>
-2.93492

>  <SCORE.INTRA.norm>
-0.431337

>  <SCORE.RESTR>
0

>  <SCORE.RESTR.CAVITY>
0

>  <SCORE.RESTR.norm>
0

>  <SCORE.SYSTEM>
0

>  <SCORE.SYSTEM.CONST>
0

>  <SCORE.SYSTEM.DIHEDRAL>
0

>  <SCORE.SYSTEM.SOLV>
0

>  <SCORE.SYSTEM.norm>
0

>  <SCORE.heavy>
37

>  <SCORE.norm>
-1.24908

>  <RMSD>
10.573

$$$$
lig.pdb
 OpenBabel11021811453D
libRbt.so/2013.1/901 2013/11/27
 37 40  0  0  0  0  0  0  0  0999 V2000
    0.9733    4.9850    9.7991 C   0  0  2  0  0  0  0  0  0  0  0  0
    0.6541    4.9468    8.2681 C   0  0  1  0  0  0  0  0  0  0  0  0
    0.0859    6.2904    7.7243 C   0  0  0  0  0  0  0  0  0  0  0  0
   -1.0663    6.8111    8.6187 C   0  0  1  0  0  0  0  0  0  0  0  0
   -0.5819    6.9373   10.0805 C   0  0  1  0  0  0  0  0  0  0  0  0
   -1.7041    7.5023   10.9922 C   0  0  1  0  0  0  0  0  0  0  0  0
   -2.2656    8.8376   10.4193 C   0  0  1  0  0  0  0  0  0  0  0  0
   -2.6695    8.7054    8.9208 C   0  0  2  0  0  0  0  0  0  0  0  0
   -3.0229    9.3808   12.6876 C   0  0  0  0  0  0  0  0  0  0  0  0
   -0.0822    5.6561   10.5611 O   0  0  0  0  0  0  0  0  0  0  0  0
   -1.6133    8.0718    8.1355 O   0  0  0  0  0  0  0  0  0  0  0  0
    1.8722    4.5811    7.5130 N   0  0  0  0  0  0  0  0  0  0  0  0
   -3.3944    9.2889   11.2591 N   0  0  0  0  0  0  0  0  0  0  0  0
   -2.7407    6.5487   11.1866 O   0  0  0  0  0  0  0  0  0  0  0  0
   -3.0274   10.0080    8.3733 O   0  0  0  0  0  0  0  0  0  0  0  0
    2.2657    5.6154   10.0533 O   0  0  0  0  0  0  0  0  0  0  0  0
   -4.3867   10.5012    8.5802 C   0  0  2  0  0  0  0  0  0  0  0  0
   -4.8113   11.4625    7.4338 C   0  0  1  0  0  0  0  0  0  0  0  0
   -4.0510   12.8176    7.5073 C   0  0  2  0  0  0  0  0  0  0  0  0
   -4.1830   13.4600    8.9186 C   0  0  1  0  0  0  0  0  0  0  0  0
   -3.7825   12.4555   10.0349 C   0  0  1  0  0  0  0  0  0  0  0  0
   -4.0381   13.0339   11.4514 C   0  0  0  0  0  0  0  0  0  0  0  0
   -4.4925   11.1917    9.8610 O   0  0  0  0  0  0  0  0  0  0  0  0
   -3.4050   14.7145    9.0165 N   0  0  0  0  0  0  0  0  0  0  0  0
   -4.6467   10.8323    6.1648 O   0  0  0  0  0  0  0  0  0  0  0  0
   -4.4959   13.7135    6.4911 O   0  0  0  0  0  0  0  0  0  0  0  0
   -4.4110   12.0034   12.3604 O   0  0  0  0  0  0  0  0  0  0  0  0
    3.2644    4.8432   10.7816 C   0  0  1  0  0  0  0  0  0  0  0  0
    4.6917    5.0417   10.1988 C   0  0  1  0  0  0  0  0  0  0  0  0
    5.7250    4.1365   10.9269 C   0  0  2  0  0  0  0  0  0  0  0  0
    5.6986    4.3296   12.4780 C   0  0  1  0  0  0  0  0  0  0  0  0
    4.2596    4.2692   13.0725 C   0  0  0  0  0  0  0  0  0  0  0  0
    3.2521    5.1740   12.3011 C   0  0  2  0  0  0  0  0  0  0  0  0
    6.5853    3.3518   13.1441 N   0  0  0  0  0  0  0  0  0  0  0  0
    1.9054    5.0205   12.8928 N   0  0  0  0  0  0  0  0  0  0  0  0
    4.7047    4.7971    8.7961 O   0  0  0  0  0  0  0  0  0  0  0  0
    7.0360    4.3687   10.4180 O   0  0  0  0  0  0  0  0  0  0  0  0
  1  2  1  0  0  0  0
  1 16  1  6  0  0  0
  2  3  1  0  0  0  0
  2 12  1  6  0  0  0
  4 11  1  6  0  0  0
  4  3  1  0  0  0  0
  5  4  1  0  0  0  0
  5 10  1  1  0  0  0
  6  7  1  0  0  0  0
  6  5  1  0  0  0  0
  6 14  1  6  0  0  0
  7  8  1  0  0  0  0
  7 13  1  1  0  0  0
  8 15  1  6  0  0  0
  8 11  1  0  0  0  0
  9 13  1  0  0  0  0
 10  1  1  0  0  0  0
 17 15  1  6  0  0  0
 17 18  1  0  0  0  0
 18 25  1  6  0  0  0
 19 18  1  0  0  0  0
 19 26  1  6  0  0  0
 20 19  1  0  0  0  0
 20 24  1  6  0  0  0
 21 23  1  0  0  0  0
 21 20  1  0  0  0  0
 21 22  1  1  0  0  0
 23 17  1  0  0  0  0
 27 22  1  0  0  0  0
 28 29  1  0  0  0  0
 28 16  1  6  0  0  0
 29 36  1  6  0  0  0
 30 37  1  6  0  0  0
 30 29  1  0  0  0  0
 31 30  1  0  0  0  0
 31 34  1  1  0  0  0
 32 31  1  0  0  0  0
 32 33  1  0  0  0  0
 33 28  1  0  0  0  0
 33 35  1  1  0  0  0
M  END
>  <CHROM.1>
-29.65514074,-83.71524455,53.87809983,-68.02480453,-152.12529291,-122.86106493
75.98767776,59.19815355,146.86522302,-62.50800509,-174.30202648,139.95704423
-179.19972249,64.21248741,-69.05049528,77.24011976,-0.44248955,8.01501697
9.91814181,-0.11937822,0.73323456,-1.66284781

>  <Name>
lig.pdb

>  <RI>
0

>  <Rbt.Current_Directory>
/home/itssahil/PROJECTS/Mol_Feturizer/New_Systems/rnas/2m4q

>  <Rbt.Executable>
rbdock ($Id: //depot/dev/client3/rdock/2013.1/src/exe/rbdock.cxx#4 $)

>  <Rbt.Library>
libRbt.so (2013.1, Build901 2013/11/27)

>  <Rbt.Parameter_File>
/export/apps/rDock/src/rDock_2013.1_src/data/scripts/dock_solv.prm

>  <Rbt.Receptor>
prm/pocket_docking_2.prm

>  <SCORE>
-30.5798

>  <SCORE.INTER>
-14.7509

>  <SCORE.INTER.CONST>
1

>  <SCORE.INTER.POLAR>
-1.28915

>  <SCORE.INTER.ROT>
10

>  <SCORE.INTER.SOLV>
15.6049

>  <SCORE.INTER.VDW>
-21.0051

>  <SCORE.INTER.norm>
-0.398674

>  <SCORE.INTRA>
-17.2275

>  <SCORE.INTRA.DIHEDRAL>
-19.4451

>  <SCORE.INTRA.DIHEDRAL.0>
44.8331

>  <SCORE.INTRA.POLAR>
-3.00083

>  <SCORE.INTRA.POLAR.0>
-0.108895

>  <SCORE.INTRA.REPUL>
-0.00912235

>  <SCORE.INTRA.REPUL.0>
0.00912235

>  <SCORE.INTRA.SOLV>
0.822782

>  <SCORE.INTRA.SOLV.lig_0>
-53.9067

>  <SCORE.INTRA.VDW>
2.33205

>  <SCORE.INTRA.VDW.0>
-2.93492

>  <SCORE.INTRA.norm>
-0.465608

>  <SCORE.RESTR>
1.39865

>  <SCORE.RESTR.CAVITY>
1.39865

>  <SCORE.RESTR.norm>
0.0378015

>  <SCORE.SYSTEM>
0

>  <SCORE.SYSTEM.CONST>
0

>  <SCORE.SYSTEM.DIHEDRAL>
0

>  <SCORE.SYSTEM.SOLV>
0

>  <SCORE.SYSTEM.norm>
0

>  <SCORE.heavy>
37

>  <SCORE.norm>
-0.826481

>  <RMSD>
10.576

$$$$
lig.pdb
 OpenBabel11021811453D
libRbt.so/2013.1/901 2013/11/27
 37 40  0  0  0  0  0  0  0  0999 V2000
   -0.9092    7.3150    8.3658 C   0  0  2  0  0  0  0  0  0  0  0  0
   -1.6454    7.9733    7.1526 C   0  0  1  0  0  0  0  0  0  0  0  0
   -2.0629    9.4502    7.4138 C   0  0  0  0  0  0  0  0  0  0  0  0
   -2.7902    9.5917    8.7739 C   0  0  1  0  0  0  0  0  0  0  0  0
   -1.9006    9.0329    9.9070 C   0  0  1  0  0  0  0  0  0  0  0  0
   -2.5860    9.2047   11.2891 C   0  0  1  0  0  0  0  0  0  0  0  0
   -3.0071   10.6867   11.5200 C   0  0  1  0  0  0  0  0  0  0  0  0
   -3.8326   11.2514   10.3259 C   0  0  2  0  0  0  0  0  0  0  0  0
   -2.8756   10.5002   13.9617 C   0  0  0  0  0  0  0  0  0  0  0  0
   -1.5527    7.6438    9.6397 O   0  0  0  0  0  0  0  0  0  0  0  0
   -3.1873   10.9664    9.0467 O   0  0  0  0  0  0  0  0  0  0  0  0
   -0.7863    7.9054    5.9505 N   0  0  0  0  0  0  0  0  0  0  0  0
   -3.7415   10.7886   12.7980 N   0  0  0  0  0  0  0  0  0  0  0  0
   -3.6953    8.3263   11.4283 O   0  0  0  0  0  0  0  0  0  0  0  0
   -4.0617   12.6807   10.4965 O   0  0  0  0  0  0  0  0  0  0  0  0
    0.5015    7.6914    8.3946 O   0  0  0  0  0  0  0  0  0  0  0  0
   -3.1066   13.6149    9.9059 C   0  0  2  0  0  0  0  0  0  0  0  0
   -3.2485   15.0297   10.5358 C   0  0  1  0  0  0  0  0  0  0  0  0
   -4.5681   15.7261   10.0959 C   0  0  2  0  0  0  0  0  0  0  0  0
   -4.7093   15.7344    8.5461 C   0  0  1  0  0  0  0  0  0  0  0  0
   -4.5264   14.3084    7.9557 C   0  0  1  0  0  0  0  0  0  0  0  0
   -4.5285   14.3208    6.4045 C   0  0  0  0  0  0  0  0  0  0  0  0
   -3.2992   13.7013    8.4623 O   0  0  0  0  0  0  0  0  0  0  0  0
   -5.9944   16.3332    8.1235 N   0  0  0  0  0  0  0  0  0  0  0  0
   -3.1361   14.9593   11.9561 O   0  0  0  0  0  0  0  0  0  0  0  0
   -4.6554   17.0466   10.6271 O   0  0  0  0  0  0  0  0  0  0  0  0
   -4.7612   13.0148    5.8872 O   0  0  0  0  0  0  0  0  0  0  0  0
    1.3999    6.8890    9.2150 C   0  0  1  0  0  0  0  0  0  0  0  0
    2.2010    5.8621    8.3665 C   0  0  1  0  0  0  0  0  0  0  0  0
    3.0798    4.9525    9.2707 C   0  0  2  0  0  0  0  0  0  0  0  0
    4.0113    5.7755   10.2188 C   0  0  1  0  0  0  0  0  0  0  0  0
    3.2553    6.9035   10.9829 C   0  0  0  0  0  0  0  0  0  0  0  0
    2.3709    7.7775   10.0434 C   0  0  2  0  0  0  0  0  0  0  0  0
    4.7206    4.8844   11.1616 N   0  0  0  0  0  0  0  0  0  0  0  0
    1.6503    8.7864   10.8497 N   0  0  0  0  0  0  0  0  0  0  0  0
    1.3267    5.0797    7.5596 O   0  0  0  0  0  0  0  0  0  0  0  0
    3.8478    4.0529    8.4753 O   0  0  0  0  0  0  0  0  0  0  0  0
  1  2  1  0  0  0  0
  1 16  1  1  0  0  0
  2  3  1  0  0  0  0
  2 12  1  6  0  0  0
  4 11  1  1  0  0  0
  4  3  1  0  0  0  0
  5  4  1  0  0  0  0
  5 10  1  6  0  0  0
  6  7  1  0  0  0  0
  6  5  1  0  0  0  0
  6 14  1  6  0  0  0
  7  8  1  0  0  0  0
  7 13  1  1  0  0  0
  8 15  1  1  0  0  0
  8 11  1  0  0  0  0
  9 13  1  0  0  0  0
 10  1  1  0  0  0  0
 17 15  1  1  0  0  0
 17 18  1  0  0  0  0
 18 25  1  1  0  0  0
 19 18  1  0  0  0  0
 19 26  1  6  0  0  0
 20 19  1  0  0  0  0
 20 24  1  1  0  0  0
 21 23  1  0  0  0  0
 21 20  1  0  0  0  0
 21 22  1  6  0  0  0
 23 17  1  0  0  0  0
 27 22  1  0  0  0  0
 28 29  1  0  0  0  0
 28 16  1  6  0  0  0
 29 36  1  1  0  0  0
 30 37  1  6  0  0  0
 30 29  1  0  0  0  0
 31 30  1  0  0  0  0
 31 34  1  1  0  0  0
 32 31  1  0  0  0  0
 32 33  1  0  0  0  0
 33 28  1  0  0  0  0
 33 35  1  1  0  0  0
M  END
>  <CHROM.1>
-70.01890424,92.00218750,66.38849552,-56.08312442,-162.57966300,-163.20154641
61.96591530,-141.43074200,-162.63905281,8.19456002,-169.69657889,100.02593710
146.58731220,64.15713887,-60.79945710,61.54392900,-1.55170312,10.17334720
9.48263828,0.18482078,0.89415148,-1.79600269

>  <Name>
lig.pdb

>  <RI>
2.86754e+07

>  <Rbt.Current_Directory>
/home/itssahil/PROJECTS/Mol_Feturizer/New_Systems/rnas/2m4q

>  <Rbt.Executable>
rbdock ($Id: //depot/dev/client3/rdock/2013.1/src/exe/rbdock.cxx#4 $)

>  <Rbt.Library>
libRbt.so (2013.1, Build901 2013/11/27)

>  <Rbt.Parameter_File>
/export/apps/rDock/src/rDock_2013.1_src/data/scripts/dock_solv.prm

>  <Rbt.Receptor>
prm/pocket_docking_5.prm

>  <SCORE>
-38.3883

>  <SCORE.INTER>
-28.2282

>  <SCORE.INTER.CONST>
1

>  <SCORE.INTER.POLAR>
-4.60877

>  <SCORE.INTER.ROT>
10

>  <SCORE.INTER.SOLV>
15.8882

>  <SCORE.INTER.VDW>
-19.019

>  <SCORE.INTER.norm>
-0.762925

>  <SCORE.INTRA>
-10.1601

>  <SCORE.INTRA.DIHEDRAL>
-18.7452

>  <SCORE.INTRA.DIHEDRAL.0>
44.8331

>  <SCORE.INTRA.POLAR>
0.108895

>  <SCORE.INTRA.POLAR.0>
-0.108895

>  <SCORE.INTRA.REPUL>
0.0448278

>  <SCORE.INTRA.REPUL.0>
0.00912235

>  <SCORE.INTRA.SOLV>
-1.92528

>  <SCORE.INTRA.SOLV.lig_0>
-53.9067

>  <SCORE.INTRA.VDW>
-0.419225

>  <SCORE.INTRA.VDW.0>
-2.93492

>  <SCORE.INTRA.norm>
-0.274596

>  <SCORE.RESTR>
0

>  <SCORE.RESTR.CAVITY>
0

>  <SCORE.RESTR.norm>
0

>  <SCORE.SYSTEM>
0

>  <SCORE.SYSTEM.CONST>
0

>  <SCORE.SYSTEM.DIHEDRAL>
0

>  <SCORE.SYSTEM.SOLV>
0

>  <SCORE.SYSTEM.norm>
0

>  <SCORE.heavy>
37

>  <SCORE.norm>
-1.03752

>  <RMSD>
10.608

$$$$
lig.pdb
 OpenBabel11021811453D
libRbt.so/2013.1/901 2013/11/27
 37 40  0  0  0  0  0  0  0  0999 V2000
   -1.6182    7.0898    9.5944 C   0  0  2  0  0  0  0  0  0  0  0  0
   -2.2116    7.7646    8.3139 C   0  0  1  0  0  0  0  0  0  0  0  0
   -2.4278    9.2984    8.4705 C   0  0  0  0  0  0  0  0  0  0  0  0
   -3.1762    9.6243    9.7868 C   0  0  1  0  0  0  0  0  0  0  0  0
   -2.4142    9.0217   10.9884 C   0  0  1  0  0  0  0  0  0  0  0  0
   -3.1177    9.3732   12.3268 C   0  0  1  0  0  0  0  0  0  0  0  0
   -3.3356   10.9105   12.4528 C   0  0  1  0  0  0  0  0  0  0  0  0
   -4.0311   11.5063   11.1928 C   0  0  2  0  0  0  0  0  0  0  0  0
   -3.2430   11.1041   14.8957 C   0  0  0  0  0  0  0  0  0  0  0  0
   -2.2544    7.5839   10.8176 O   0  0  0  0  0  0  0  0  0  0  0  0
   -3.3869   11.0550    9.9619 O   0  0  0  0  0  0  0  0  0  0  0  0
   -1.3282    7.5034    7.1568 N   0  0  0  0  0  0  0  0  0  0  0  0
   -4.0936   11.1931   13.6892 N   0  0  0  0  0  0  0  0  0  0  0  0
   -4.3430    8.6659   12.4675 O   0  0  0  0  0  0  0  0  0  0  0  0
   -4.0644   12.9615   11.2701 O   0  0  0  0  0  0  0  0  0  0  0  0
   -0.1707    7.2701    9.6635 O   0  0  0  0  0  0  0  0  0  0  0  0
   -3.0181   13.7196   10.5886 C   0  0  2  0  0  0  0  0  0  0  0  0
   -3.1078   15.2321   10.9389 C   0  0  1  0  0  0  0  0  0  0  0  0
   -4.3517   15.9013   10.2872 C   0  0  2  0  0  0  0  0  0  0  0  0
   -4.3984   15.6288    8.7557 C   0  0  1  0  0  0  0  0  0  0  0  0
   -4.2710   14.1105    8.4491 C   0  0  1  0  0  0  0  0  0  0  0  0
   -4.1788   13.8345    6.9254 C   0  0  0  0  0  0  0  0  0  0  0  0
   -3.1175   13.5461    9.1435 O   0  0  0  0  0  0  0  0  0  0  0  0
   -5.6152   16.2036    8.1412 N   0  0  0  0  0  0  0  0  0  0  0  0
   -3.0859   15.4212   12.3526 O   0  0  0  0  0  0  0  0  0  0  0  0
   -4.3870   17.3002   10.5616 O   0  0  0  0  0  0  0  0  0  0  0  0
   -2.9144   14.2409    6.4120 O   0  0  0  0  0  0  0  0  0  0  0  0
    0.5868    6.3515   10.5039 C   0  0  1  0  0  0  0  0  0  0  0  0
    1.7521    5.6781    9.7262 C   0  0  1  0  0  0  0  0  0  0  0  0
    2.4859    4.6319   10.6118 C   0  0  2  0  0  0  0  0  0  0  0  0
    2.9666    5.2341   11.9720 C   0  0  1  0  0  0  0  0  0  0  0  0
    1.8504    6.0318   12.7107 C   0  0  0  0  0  0  0  0  0  0  0  0
    1.1270    7.0533   11.7823 C   0  0  2  0  0  0  0  0  0  0  0  0
    3.5261    4.1799   12.8446 N   0  0  0  0  0  0  0  0  0  0  0  0
    0.0526    7.7285   12.5421 N   0  0  0  0  0  0  0  0  0  0  0  0
    1.2797    5.0802    8.5234 O   0  0  0  0  0  0  0  0  0  0  0  0
    3.5837    4.0624    9.9032 O   0  0  0  0  0  0  0  0  0  0  0  0
  1  2  1  0  0  0  0
  1 16  1  1  0  0  0
  2  3  1  0  0  0  0
  2 12  1  6  0  0  0
  4 11  1  1  0  0  0
  4  3  1  0  0  0  0
  5  4  1  0  0  0  0
  5 10  1  6  0  0  0
  6  7  1  0  0  0  0
  6  5  1  0  0  0  0
  6 14  1  6  0  0  0
  7  8  1  0  0  0  0
  7 13  1  1  0  0  0
  8 15  1  1  0  0  0
  8 11  1  0  0  0  0
  9 13  1  0  0  0  0
 10  1  1  0  0  0  0
 17 15  1  1  0  0  0
 17 18  1  0  0  0  0
 18 25  1  1  0  0  0
 19 18  1  0  0  0  0
 19 26  1  6  0  0  0
 20 19  1  0  0  0  0
 20 24  1  1  0  0  0
 21 23  1  0  0  0  0
 21 20  1  0  0  0  0
 21 22  1  6  0  0  0
 23 17  1  0  0  0  0
 27 22  1  0  0  0  0
 28 29  1  0  0  0  0
 28 16  1  6  0  0  0
 29 36  1  6  0  0  0
 30 37  1  6  0  0  0
 30 29  1  0  0  0  0
 31 30  1  0  0  0  0
 31 34  1  1  0  0  0
 32 31  1  0  0  0  0
 32 33  1  0  0  0  0
 33 28  1  0  0  0  0
 33 35  1  1  0  0  0
M  END
>  <CHROM.1>
-46.58071648,96.24331383,76.97430836,-177.45504737,-172.39016354,-159.46532808
60.94034711,-99.15109265,72.03030557,-3.22033953,-56.64534668,126.81195188
-175.63597620,59.64718943,-178.58132992,28.16001284,-1.84859400,10.11468745
10.44393090,-0.18507442,1.00871280,-1.45603522

>  <Name>
lig.pdb

>  <RI>
0

>  <Rbt.Current_Directory>
/home/itssahil/PROJECTS/Mol_Feturizer/New_Systems/rnas/2m4q

>  <Rbt.Executable>
rbdock ($Id: //depot/dev/client3/rdock/2013.1/src/exe/rbdock.cxx#4 $)

>  <Rbt.Library>
libRbt.so (2013.1, Build901 2013/11/27)

>  <Rbt.Parameter_File>
/export/apps/rDock/src/rDock_2013.1_src/data/scripts/dock_solv.prm

>  <Rbt.Receptor>
prm/pocket_docking_7.prm

>  <SCORE>
-34.5622

>  <SCORE.INTER>
-21.5186

>  <SCORE.INTER.CONST>
1

>  <SCORE.INTER.POLAR>
-3.0757

>  <SCORE.INTER.ROT>
10

>  <SCORE.INTER.SOLV>
14.7077

>  <SCORE.INTER.VDW>
-19.2626

>  <SCORE.INTER.norm>
-0.581583

>  <SCORE.INTRA>
-13.0436

>  <SCORE.INTRA.DIHEDRAL>
-20.2239

>  <SCORE.INTRA.DIHEDRAL.0>
44.8331

>  <SCORE.INTRA.POLAR>
-0.559558

>  <SCORE.INTRA.POLAR.0>
-0.108895

>  <SCORE.INTRA.REPUL>
-0.00912235

>  <SCORE.INTRA.REPUL.0>
0.00912235

>  <SCORE.INTRA.SOLV>
-0.804154

>  <SCORE.INTRA.SOLV.lig_0>
-53.9067

>  <SCORE.INTRA.VDW>
-0.581487

>  <SCORE.INTRA.VDW.0>
-2.93492

>  <SCORE.INTRA.norm>
-0.35253

>  <SCORE.RESTR>
0

>  <SCORE.RESTR.CAVITY>
0

>  <SCORE.RESTR.norm>
0

>  <SCORE.SYSTEM>
0

>  <SCORE.SYSTEM.CONST>
0

>  <SCORE.SYSTEM.DIHEDRAL>
0

>  <SCORE.SYSTEM.SOLV>
0

>  <SCORE.SYSTEM.norm>
0

>  <SCORE.heavy>
37

>  <SCORE.norm>
-0.934113

>  <RMSD>
10.609

$$$$
lig.pdb
 OpenBabel11021811453D
libRbt.so/2013.1/901 2013/11/27
 37 40  0  0  0  0  0  0  0  0999 V2000
   -0.9684    7.2288    8.0165 C   0  0  2  0  0  0  0  0  0  0  0  0
   -1.8200    7.7967    6.8336 C   0  0  1  0  0  0  0  0  0  0  0  0
   -2.2798    9.2673    7.0568 C   0  0  0  0  0  0  0  0  0  0  0  0
   -2.9096    9.4475    8.4603 C   0  0  1  0  0  0  0  0  0  0  0  0
   -1.9153    8.9809    9.5471 C   0  0  1  0  0  0  0  0  0  0  0  0
   -2.5030    9.1941   10.9680 C   0  0  1  0  0  0  0  0  0  0  0  0
   -2.9688   10.6680   11.1610 C   0  0  1  0  0  0  0  0  0  0  0  0
   -3.9040   11.1400   10.0083 C   0  0  2  0  0  0  0  0  0  0  0  0
   -2.6269   10.7441   13.5882 C   0  0  0  0  0  0  0  0  0  0  0  0
   -1.5291    7.5950    9.3190 O   0  0  0  0  0  0  0  0  0  0  0  0
   -3.3439   10.8174    8.6983 O   0  0  0  0  0  0  0  0  0  0  0  0
   -1.0504    7.7030    5.5740 N   0  0  0  0  0  0  0  0  0  0  0  0
   -3.6101   10.8044   12.4852 N   0  0  0  0  0  0  0  0  0  0  0  0
   -3.5604    8.2809   11.2319 O   0  0  0  0  0  0  0  0  0  0  0  0
   -4.1808   12.5660   10.1292 O   0  0  0  0  0  0  0  0  0  0  0  0
    0.4232    7.6611    7.9203 O   0  0  0  0  0  0  0  0  0  0  0  0
   -3.2752   13.5093    9.4781 C   0  0  2  0  0  0  0  0  0  0  0  0
   -3.6789   14.9776    9.7935 C   0  0  1  0  0  0  0  0  0  0  0  0
   -4.9993   15.3787    9.0755 C   0  0  2  0  0  0  0  0  0  0  0  0
   -4.9203   15.0851    7.5492 C   0  0  1  0  0  0  0  0  0  0  0  0
   -4.4806   13.6190    7.2792 C   0  0  1  0  0  0  0  0  0  0  0  0
   -4.2652   13.3498    5.7667 C   0  0  0  0  0  0  0  0  0  0  0  0
   -3.2714   13.3031    8.0338 O   0  0  0  0  0  0  0  0  0  0  0  0
   -6.1971   15.3995    6.8714 N   0  0  0  0  0  0  0  0  0  0  0  0
   -3.7602   15.1832   11.2027 O   0  0  0  0  0  0  0  0  0  0  0  0
   -5.3237   16.7456    9.3198 O   0  0  0  0  0  0  0  0  0  0  0  0
   -5.5099   13.1496    5.1049 O   0  0  0  0  0  0  0  0  0  0  0  0
    1.4439    6.6310    7.7757 C   0  0  1  0  0  0  0  0  0  0  0  0
    2.8676    7.2387    7.6341 C   0  0  1  0  0  0  0  0  0  0  0  0
    3.9280    6.1295    7.3843 C   0  0  2  0  0  0  0  0  0  0  0  0
    3.8814    5.0048    8.4692 C   0  0  1  0  0  0  0  0  0  0  0  0
    2.4409    4.4704    8.7278 C   0  0  0  0  0  0  0  0  0  0  0  0
    1.4066    5.6145    8.9520 C   0  0  2  0  0  0  0  0  0  0  0  0
    4.7986    3.8992    8.1192 N   0  0  0  0  0  0  0  0  0  0  0  0
    0.0617    5.0279    9.1377 N   0  0  0  0  0  0  0  0  0  0  0  0
    2.9015    8.2136    6.5968 O   0  0  0  0  0  0  0  0  0  0  0  0
    5.2336    6.6966    7.3101 O   0  0  0  0  0  0  0  0  0  0  0  0
  1  2  1  0  0  0  0
  1 16  1  1  0  0  0
  2  3  1  0  0  0  0
  2 12  1  6  0  0  0
  4 11  1  1  0  0  0
  4  3  1  0  0  0  0
  5  4  1  0  0  0  0
  5 10  1  6  0  0  0
  6  7  1  0  0  0  0
  6  5  1  0  0  0  0
  6 14  1  6  0  0  0
  7  8  1  0  0  0  0
  7 13  1  1  0  0  0
  8 15  1  6  0  0  0
  8 11  1  0  0  0  0
  9 13  1  0  0  0  0
 10  1  1  0  0  0  0
 17 15  1  1  0  0  0
 17 18  1  0  0  0  0
 18 25  1  1  0  0  0
 19 18  1  0  0  0  0
 19 26  1  6  0  0  0
 20 19  1  0  0  0  0
 20 24  1  1  0  0  0
 21 23  1  0  0  0  0
 21 20  1  0  0  0  0
 21 22  1  6  0  0  0
 23 17  1  0  0  0  0
 27 22  1  0  0  0  0
 28 29  1  0  0  0  0
 28 16  1  1  0  0  0
 29 36  1  6  0  0  0
 30 37  1  1  0  0  0
 30 29  1  0  0  0  0
 31 30  1  0  0  0  0
 31 34  1  6  0  0  0
 32 31  1  0  0  0  0
 32 33  1  0  0  0  0
 33 28  1  0  0  0  0
 33 35  1  6  0  0  0
M  END
>  <CHROM.1>
-56.90885004,89.08023252,72.14411834,-56.70375875,-176.35277852,-118.57882707
-65.97892660,-152.89799889,-78.92149797,27.87479990,50.85786006,177.93494968
-62.65420691,-162.37123690,164.90647581,162.83663107,-1.62286633,9.99375757
8.65203228,-0.20197604,0.83858834,-1.20518088

>  <Name>
lig.pdb

>  <RI>
2.86754e+07

>  <Rbt.Current_Directory>
/home/itssahil/PROJECTS/Mol_Feturizer/New_Systems/rnas/2m4q

>  <Rbt.Executable>
rbdock ($Id: //depot/dev/client3/rdock/2013.1/src/exe/rbdock.cxx#4 $)

>  <Rbt.Library>
libRbt.so (2013.1, Build901 2013/11/27)

>  <Rbt.Parameter_File>
/export/apps/rDock/src/rDock_2013.1_src/data/scripts/dock_solv.prm

>  <Rbt.Receptor>
prm/pocket_docking_5.prm

>  <SCORE>
-50.8034

>  <SCORE.INTER>
-37.0041

>  <SCORE.INTER.CONST>
1

>  <SCORE.INTER.POLAR>
-5.8612

>  <SCORE.INTER.ROT>
10

>  <SCORE.INTER.SOLV>
18.9634

>  <SCORE.INTER.VDW>
-21.7199

>  <SCORE.INTER.norm>
-1.00011

>  <SCORE.INTRA>
-13.7993

>  <SCORE.INTRA.DIHEDRAL>
-25.0259

>  <SCORE.INTRA.DIHEDRAL.0>
44.8331

>  <SCORE.INTRA.POLAR>
-0.690458

>  <SCORE.INTRA.POLAR.0>
-0.108895

>  <SCORE.INTRA.REPUL>
-0.00912235

>  <SCORE.INTRA.REPUL.0>
0.00912235

>  <SCORE.INTRA.SOLV>
-1.26848

>  <SCORE.INTRA.SOLV.lig_0>
-53.9067

>  <SCORE.INTRA.VDW>
1.74109

>  <SCORE.INTRA.VDW.0>
-2.93492

>  <SCORE.INTRA.norm>
-0.372953

>  <SCORE.RESTR>
0

>  <SCORE.RESTR.CAVITY>
0

>  <SCORE.RESTR.norm>
0

>  <SCORE.SYSTEM>
0

>  <SCORE.SYSTEM.CONST>
0

>  <SCORE.SYSTEM.DIHEDRAL>
0

>  <SCORE.SYSTEM.SOLV>
0

>  <SCORE.SYSTEM.norm>
0

>  <SCORE.heavy>
37

>  <SCORE.norm>
-1.37306

>  <RMSD>
10.628

$$$$
lig.pdb
 OpenBabel11021811453D
libRbt.so/2013.1/901 2013/11/27
 37 40  0  0  0  0  0  0  0  0999 V2000
   -0.5372    8.0169    9.3486 C   0  0  2  0  0  0  0  0  0  0  0  0
   -0.9286    8.8534    8.0860 C   0  0  1  0  0  0  0  0  0  0  0  0
   -1.2855   10.3328    8.4142 C   0  0  0  0  0  0  0  0  0  0  0  0
   -2.2904   10.4161    9.5899 C   0  0  1  0  0  0  0  0  0  0  0  0
   -1.7246    9.6710   10.8196 C   0  0  1  0  0  0  0  0  0  0  0  0
   -2.6915    9.7782   12.0292 C   0  0  1  0  0  0  0  0  0  0  0  0
   -3.0447   11.2657   12.3279 C   0  0  1  0  0  0  0  0  0  0  0  0
   -3.5339   12.0163   11.0537 C   0  0  2  0  0  0  0  0  0  0  0  0
   -3.4061   11.2820   14.7533 C   0  0  0  0  0  0  0  0  0  0  0  0
   -1.4274    8.2858   10.4801 O   0  0  0  0  0  0  0  0  0  0  0  0
   -2.6376   11.7911    9.9224 O   0  0  0  0  0  0  0  0  0  0  0  0
    0.1737    8.8156    7.1005 N   0  0  0  0  0  0  0  0  0  0  0  0
   -4.0406   11.3182   13.4180 N   0  0  0  0  0  0  0  0  0  0  0  0
   -3.8645    9.0015   11.8232 O   0  0  0  0  0  0  0  0  0  0  0  0
   -3.6909   13.4388   11.3299 O   0  0  0  0  0  0  0  0  0  0  0  0
    0.8537    8.2513    9.7268 O   0  0  0  0  0  0  0  0  0  0  0  0
   -2.4915   14.2406   11.5594 C   0  0  2  0  0  0  0  0  0  0  0  0
   -2.6349   15.1020   12.8463 C   0  0  1  0  0  0  0  0  0  0  0  0
   -3.6612   16.2553   12.6558 C   0  0  2  0  0  0  0  0  0  0  0  0
   -3.3277   17.1012   11.3928 C   0  0  1  0  0  0  0  0  0  0  0  0
   -3.1589   16.1991   10.1385 C   0  0  1  0  0  0  0  0  0  0  0  0
   -2.6929   17.0109    8.9015 C   0  0  0  0  0  0  0  0  0  0  0  0
   -2.2286   15.1090   10.4170 O   0  0  0  0  0  0  0  0  0  0  0  0
   -4.3390   18.1569   11.1666 N   0  0  0  0  0  0  0  0  0  0  0  0
   -2.9646   14.2806   13.9649 O   0  0  0  0  0  0  0  0  0  0  0  0
   -3.7352   17.0762   13.8194 O   0  0  0  0  0  0  0  0  0  0  0  0
   -3.7045   17.9206    8.4814 O   0  0  0  0  0  0  0  0  0  0  0  0
    1.6225    7.1152   10.2188 C   0  0  1  0  0  0  0  0  0  0  0  0
    0.9423    6.4386   11.4419 C   0  0  1  0  0  0  0  0  0  0  0  0
    1.8249    5.2918   12.0104 C   0  0  2  0  0  0  0  0  0  0  0  0
    2.2242    4.2485   10.9168 C   0  0  1  0  0  0  0  0  0  0  0  0
    2.7855    4.9105    9.6228 C   0  0  0  0  0  0  0  0  0  0  0  0
    1.8823    6.0676    9.0992 C   0  0  2  0  0  0  0  0  0  0  0  0
    3.1793    3.2587   11.4591 N   0  0  0  0  0  0  0  0  0  0  0  0
    2.5088    6.6742    7.9047 N   0  0  0  0  0  0  0  0  0  0  0  0
    0.6469    7.3977   12.4521 O   0  0  0  0  0  0  0  0  0  0  0  0
    1.1644    4.6472   13.0967 O   0  0  0  0  0  0  0  0  0  0  0  0
  1  2  1  0  0  0  0
  1 16  1  1  0  0  0
  2  3  1  0  0  0  0
  2 12  1  6  0  0  0
  4 11  1  1  0  0  0
  4  3  1  0  0  0  0
  5  4  1  0  0  0  0
  5 10  1  6  0  0  0
  6  7  1  0  0  0  0
  6  5  1  0  0  0  0
  6 14  1  6  0  0  0
  7  8  1  0  0  0  0
  7 13  1  1  0  0  0
  8 15  1  1  0  0  0
  8 11  1  0  0  0  0
  9 13  1  0  0  0  0
 10  1  1  0  0  0  0
 17 15  1  6  0  0  0
 17 18  1  0  0  0  0
 18 25  1  1  0  0  0
 19 18  1  0  0  0  0
 19 26  1  1  0  0  0
 20 19  1  0  0  0  0
 20 24  1  6  0  0  0
 21 23  1  0  0  0  0
 21 20  1  0  0  0  0
 21 22  1  6  0  0  0
 23 17  1  0  0  0  0
 27 22  1  0  0  0  0
 28 29  1  0  0  0  0
 28 16  1  6  0  0  0
 29 36  1  1  0  0  0
 30 37  1  1  0  0  0
 30 29  1  0  0  0  0
 31 30  1  0  0  0  0
 31 34  1  1  0  0  0
 32 31  1  0  0  0  0
 32 33  1  0  0  0  0
 33 28  1  0  0  0  0
 33 35  1  6  0  0  0
M  END
>  <CHROM.1>
-172.42127872,69.49571781,85.35373390,179.69525250,-130.81913702,-142.31809037
-62.05294134,63.11651109,-66.73651349,-37.62491602,-177.66733244,-56.20304308
70.92480528,-177.85251177,-77.86671456,-47.71382024,-1.37848703,10.76558291
10.93383010,-0.51258115,1.04190535,-0.90171837

>  <Name>
lig.pdb

>  <RI>
3.60165e+07

>  <Rbt.Current_Directory>
/home/itssahil/PROJECTS/Mol_Feturizer/New_Systems/rnas/2m4q

>  <Rbt.Executable>
rbdock ($Id: //depot/dev/client3/rdock/2013.1/src/exe/rbdock.cxx#4 $)

>  <Rbt.Library>
libRbt.so (2013.1, Build901 2013/11/27)

>  <Rbt.Parameter_File>
/export/apps/rDock/src/rDock_2013.1_src/data/scripts/dock_solv.prm

>  <Rbt.Receptor>
prm/pocket_docking_8.prm

>  <SCORE>
-40.6025

>  <SCORE.INTER>
-21.0496

>  <SCORE.INTER.CONST>
1

>  <SCORE.INTER.POLAR>
-4.49603

>  <SCORE.INTER.ROT>
10

>  <SCORE.INTER.SOLV>
11.8426

>  <SCORE.INTER.VDW>
-13.2605

>  <SCORE.INTER.norm>
-0.568907

>  <SCORE.INTRA>
-19.553

>  <SCORE.INTRA.DIHEDRAL>
-28.8262

>  <SCORE.INTRA.DIHEDRAL.0>
44.8331

>  <SCORE.INTRA.POLAR>
-1.30238

>  <SCORE.INTRA.POLAR.0>
-0.108895

>  <SCORE.INTRA.REPUL>
-0.00912235

>  <SCORE.INTRA.REPUL.0>
0.00912235

>  <SCORE.INTRA.SOLV>
0.631353

>  <SCORE.INTRA.SOLV.lig_0>
-53.9067

>  <SCORE.INTRA.VDW>
-0.981811

>  <SCORE.INTRA.VDW.0>
-2.93492

>  <SCORE.INTRA.norm>
-0.528458

>  <SCORE.RESTR>
0

>  <SCORE.RESTR.CAVITY>
0

>  <SCORE.RESTR.norm>
0

>  <SCORE.SYSTEM>
0

>  <SCORE.SYSTEM.CONST>
0

>  <SCORE.SYSTEM.DIHEDRAL>
0

>  <SCORE.SYSTEM.SOLV>
0

>  <SCORE.SYSTEM.norm>
0

>  <SCORE.heavy>
37

>  <SCORE.norm>
-1.09737

>  <RMSD>
10.667

$$$$
lig.pdb
 OpenBabel11021811453D
libRbt.so/2013.1/901 2013/11/27
 37 40  0  0  0  0  0  0  0  0999 V2000
   -0.3803    7.0902    7.5402 C   0  0  2  0  0  0  0  0  0  0  0  0
   -1.1850    7.5850    6.2933 C   0  0  1  0  0  0  0  0  0  0  0  0
   -1.6875    9.0524    6.4278 C   0  0  0  0  0  0  0  0  0  0  0  0
   -2.3895    9.2786    7.7897 C   0  0  1  0  0  0  0  0  0  0  0  0
   -1.4399    8.8843    8.9431 C   0  0  1  0  0  0  0  0  0  0  0  0
   -2.1014    9.1452   10.3229 C   0  0  1  0  0  0  0  0  0  0  0  0
   -2.6085   10.6145   10.4269 C   0  0  1  0  0  0  0  0  0  0  0  0
   -3.4959   11.0128    9.2103 C   0  0  2  0  0  0  0  0  0  0  0  0
   -2.4372   11.3556   12.7582 C   0  0  0  0  0  0  0  0  0  0  0  0
   -1.0124    7.4994    8.7964 O   0  0  0  0  0  0  0  0  0  0  0  0
   -2.8649   10.6468    7.9447 O   0  0  0  0  0  0  0  0  0  0  0  0
   -0.3523    7.4548    5.0778 N   0  0  0  0  0  0  0  0  0  0  0  0
   -3.3170   10.7932   11.7111 N   0  0  0  0  0  0  0  0  0  0  0  0
   -3.1501    8.2192   10.5763 O   0  0  0  0  0  0  0  0  0  0  0  0
   -3.8097   12.4356    9.2535 O   0  0  0  0  0  0  0  0  0  0  0  0
    1.0044    7.5513    7.4919 O   0  0  0  0  0  0  0  0  0  0  0  0
   -3.1138   13.3308    8.3325 C   0  0  2  0  0  0  0  0  0  0  0  0
   -3.3899   14.8197    8.6872 C   0  0  1  0  0  0  0  0  0  0  0  0
   -4.8543   15.2281    8.3578 C   0  0  2  0  0  0  0  0  0  0  0  0
   -5.2179   14.8769    6.8860 C   0  0  1  0  0  0  0  0  0  0  0  0
   -4.8944   13.3912    6.5644 C   0  0  1  0  0  0  0  0  0  0  0  0
   -5.1230   13.0615    5.0659 C   0  0  0  0  0  0  0  0  0  0  0  0
   -3.5249   13.0721    6.9568 O   0  0  0  0  0  0  0  0  0  0  0  0
   -6.6304   15.1991    6.5864 N   0  0  0  0  0  0  0  0  0  0  0  0
   -3.0631   15.0786   10.0513 O   0  0  0  0  0  0  0  0  0  0  0  0
   -5.0760   16.6109    8.6262 O   0  0  0  0  0  0  0  0  0  0  0  0
   -4.9736   11.6661    4.8252 O   0  0  0  0  0  0  0  0  0  0  0  0
    2.0559    6.5562    7.6590 C   0  0  1  0  0  0  0  0  0  0  0  0
    3.4601    7.2099    7.7893 C   0  0  1  0  0  0  0  0  0  0  0  0
    4.5757    6.1300    7.8692 C   0  0  2  0  0  0  0  0  0  0  0  0
    4.3139    5.0848    9.0019 C   0  0  1  0  0  0  0  0  0  0  0  0
    2.8652    4.5118    8.9758 C   0  0  0  0  0  0  0  0  0  0  0  0
    1.7800    5.6257    8.8742 C   0  0  2  0  0  0  0  0  0  0  0  0
    5.3123    3.9954    8.9523 N   0  0  0  0  0  0  0  0  0  0  0  0
    0.4421    4.9993    8.8025 N   0  0  0  0  0  0  0  0  0  0  0  0
    3.7025    8.1087    6.7118 O   0  0  0  0  0  0  0  0  0  0  0  0
    5.8508    6.7433    8.0419 O   0  0  0  0  0  0  0  0  0  0  0  0
  1  2  1  0  0  0  0
  1 16  1  6  0  0  0
  2  3  1  0  0  0  0
  2 12  1  6  0  0  0
  4 11  1  1  0  0  0
  4  3  1  0  0  0  0
  5  4  1  0  0  0  0
  5 10  1  6  0  0  0
  6  7  1  0  0  0  0
  6  5  1  0  0  0  0
  6 14  1  6  0  0  0
  7  8  1  0  0  0  0
  7 13  1  1  0  0  0
  8 15  1  6  0  0  0
  8 11  1  0  0  0  0
  9 13  1  0  0  0  0
 10  1  1  0  0  0  0
 17 15  1  1  0  0  0
 17 18  1  0  0  0  0
 18 25  1  1  0  0  0
 19 18  1  0  0  0  0
 19 26  1  6  0  0  0
 20 19  1  0  0  0  0
 20 24  1  1  0  0  0
 21 23  1  0  0  0  0
 21 20  1  0  0  0  0
 21 22  1  6  0  0  0
 23 17  1  0  0  0  0
 27 22  1  0  0  0  0
 28 29  1  0  0  0  0
 28 16  1  1  0  0  0
 29 36  1  6  0  0  0
 30 37  1  1  0  0  0
 30 29  1  0  0  0  0
 31 30  1  0  0  0  0
 31 34  1  6  0  0  0
 32 31  1  0  0  0  0
 32 33  1  0  0  0  0
 33 28  1  0  0  0  0
 33 35  1  6  0  0  0
M  END
>  <CHROM.1>
-178.13332030,104.86268821,95.82473836,-71.65903994,-170.16806162,-128.19745566
178.81676853,-155.63426871,-173.15451269,61.80693419,-56.85642092,-171.81899332
58.78864376,179.63123480,-153.80117964,-175.59987965,-1.27340673,9.86248111
8.21497000,0.00674552,0.80927968,-1.60924027

>  <Name>
lig.pdb

>  <RI>
0

>  <Rbt.Current_Directory>
/home/itssahil/PROJECTS/Mol_Feturizer/New_Systems/rnas/2m4q

>  <Rbt.Executable>
rbdock ($Id: //depot/dev/client3/rdock/2013.1/src/exe/rbdock.cxx#4 $)

>  <Rbt.Library>
libRbt.so (2013.1, Build901 2013/11/27)

>  <Rbt.Parameter_File>
/export/apps/rDock/src/rDock_2013.1_src/data/scripts/dock_solv.prm

>  <Rbt.Receptor>
prm/pocket_docking_6.prm

>  <SCORE>
-42.8874

>  <SCORE.INTER>
-31.5311

>  <SCORE.INTER.CONST>
1

>  <SCORE.INTER.POLAR>
-4.26431

>  <SCORE.INTER.ROT>
10

>  <SCORE.INTER.SOLV>
17.2329

>  <SCORE.INTER.VDW>
-22.8173

>  <SCORE.INTER.norm>
-0.852191

>  <SCORE.INTRA>
-11.3564

>  <SCORE.INTRA.DIHEDRAL>
-24.4394

>  <SCORE.INTRA.DIHEDRAL.0>
44.8331

>  <SCORE.INTRA.POLAR>
0.0786432

>  <SCORE.INTRA.POLAR.0>
-0.108895

>  <SCORE.INTRA.REPUL>
-0.00912235

>  <SCORE.INTRA.REPUL.0>
0.00912235

>  <SCORE.INTRA.SOLV>
-2.29365

>  <SCORE.INTRA.SOLV.lig_0>
-53.9067

>  <SCORE.INTRA.VDW>
1.78841

>  <SCORE.INTRA.VDW.0>
-2.93492

>  <SCORE.INTRA.norm>
-0.306929

>  <SCORE.RESTR>
0

>  <SCORE.RESTR.CAVITY>
0

>  <SCORE.RESTR.norm>
0

>  <SCORE.SYSTEM>
0

>  <SCORE.SYSTEM.CONST>
0

>  <SCORE.SYSTEM.DIHEDRAL>
0

>  <SCORE.SYSTEM.SOLV>
0

>  <SCORE.SYSTEM.norm>
0

>  <SCORE.heavy>
37

>  <SCORE.norm>
-1.15912

>  <RMSD>
10.721

$$$$
lig.pdb
 OpenBabel11021811453D
libRbt.so/2013.1/901 2013/11/27
 37 40  0  0  0  0  0  0  0  0999 V2000
   -0.9865    7.1306   10.6806 C   0  0  2  0  0  0  0  0  0  0  0  0
   -1.6367    7.1710    9.2583 C   0  0  1  0  0  0  0  0  0  0  0  0
   -2.1227    8.5908    8.8439 C   0  0  0  0  0  0  0  0  0  0  0  0
   -2.9685    9.2404    9.9672 C   0  0  1  0  0  0  0  0  0  0  0  0
   -2.1619    9.2667   11.2848 C   0  0  1  0  0  0  0  0  0  0  0  0
   -2.9688    9.9557   12.4179 C   0  0  1  0  0  0  0  0  0  0  0  0
   -3.4559   11.3672   11.9737 C   0  0  1  0  0  0  0  0  0  0  0  0
   -4.1936   11.3249   10.6025 C   0  0  2  0  0  0  0  0  0  0  0  0
   -3.4940   12.5137   14.1412 C   0  0  0  0  0  0  0  0  0  0  0  0
   -1.7475    7.9194   11.6522 O   0  0  0  0  0  0  0  0  0  0  0  0
   -3.4319   10.5738    9.6078 O   0  0  0  0  0  0  0  0  0  0  0  0
   -0.6757    6.6628    8.2554 N   0  0  0  0  0  0  0  0  0  0  0  0
   -4.3003   11.9461   13.0390 N   0  0  0  0  0  0  0  0  0  0  0  0
   -4.0569    9.1454   12.8434 O   0  0  0  0  0  0  0  0  0  0  0  0
   -4.4827   12.6760   10.1384 O   0  0  0  0  0  0  0  0  0  0  0  0
    0.4035    7.5761   10.6384 O   0  0  0  0  0  0  0  0  0  0  0  0
   -3.4163   13.4320    9.4864 C   0  0  2  0  0  0  0  0  0  0  0  0
   -3.7330   14.9546    9.4853 C   0  0  1  0  0  0  0  0  0  0  0  0
   -4.8989   15.2995    8.5149 C   0  0  2  0  0  0  0  0  0  0  0  0
   -4.6299   14.7341    7.0902 C   0  0  1  0  0  0  0  0  0  0  0  0
   -4.2840   13.2197    7.1407 C   0  0  1  0  0  0  0  0  0  0  0  0
   -3.8804   12.6725    5.7464 C   0  0  0  0  0  0  0  0  0  0  0  0
   -3.2256   12.9717    8.1152 O   0  0  0  0  0  0  0  0  0  0  0  0
   -5.7660   14.9984    6.1803 N   0  0  0  0  0  0  0  0  0  0  0  0
   -3.9952   15.4128   10.8104 O   0  0  0  0  0  0  0  0  0  0  0  0
   -5.1360   16.7050    8.4738 O   0  0  0  0  0  0  0  0  0  0  0  0
   -2.6776   13.2832    5.2906 O   0  0  0  0  0  0  0  0  0  0  0  0
    1.3678    6.8659   11.4688 C   0  0  1  0  0  0  0  0  0  0  0  0
    2.0578    5.7066   10.6967 C   0  0  1  0  0  0  0  0  0  0  0  0
    3.0095    4.9024   11.6267 C   0  0  2  0  0  0  0  0  0  0  0  0
    4.0491    5.8177   12.3513 C   0  0  1  0  0  0  0  0  0  0  0  0
    3.3971    7.0640   13.0216 C   0  0  0  0  0  0  0  0  0  0  0  0
    2.4355    7.8283   12.0624 C   0  0  2  0  0  0  0  0  0  0  0  0
    4.8365    5.0426   13.3338 N   0  0  0  0  0  0  0  0  0  0  0  0
    1.8209    8.9614   12.7875 N   0  0  0  0  0  0  0  0  0  0  0  0
    1.0904    4.8491   10.0996 O   0  0  0  0  0  0  0  0  0  0  0  0
    3.6743    3.8775   10.8924 O   0  0  0  0  0  0  0  0  0  0  0  0
  1  2  1  0  0  0  0
  1 16  1  6  0  0  0
  2  3  1  0  0  0  0
  2 12  1  6  0  0  0
  4 11  1  6  0  0  0
  4  3  1  0  0  0  0
  5  4  1  0  0  0  0
  5 10  1  1  0  0  0
  6  7  1  0  0  0  0
  6  5  1  0  0  0  0
  6 14  1  6  0  0  0
  7  8  1  0  0  0  0
  7 13  1  1  0  0  0
  8 15  1  6  0  0  0
  8 11  1  0  0  0  0
  9 13  1  0  0  0  0
 10  1  1  0  0  0  0
 17 15  1  6  0  0  0
 17 18  1  0  0  0  0
 18 25  1  1  0  0  0
 19 18  1  0  0  0  0
 19 26  1  6  0  0  0
 20 19  1  0  0  0  0
 20 24  1  6  0  0  0
 21 23  1  0  0  0  0
 21 20  1  0  0  0  0
 21 22  1  6  0  0  0
 23 17  1  0  0  0  0
 27 22  1  0  0  0  0
 28 29  1  0  0  0  0
 28 16  1  6  0  0  0
 29 36  1  1  0  0  0
 30 37  1  6  0  0  0
 30 29  1  0  0  0  0
 31 30  1  0  0  0  0
 31 34  1  1  0  0  0
 32 31  1  0  0  0  0
 32 33  1  0  0  0  0
 33 28  1  0  0  0  0
 33 35  1  1  0  0  0
M  END
>  <CHROM.1>
135.59852870,80.68071934,79.55615876,-53.68156054,-161.30397173,-140.56430694
-55.95104656,-177.19674827,64.52906741,-51.57669707,-63.73424494,92.47370722
-60.77639566,-65.38545099,-174.83763712,60.83112882,-1.64453694,10.06242670
10.25475123,-0.26626576,0.88771179,-1.59171741

>  <Name>
lig.pdb

>  <RI>
0

>  <Rbt.Current_Directory>
/home/itssahil/PROJECTS/Mol_Feturizer/New_Systems/rnas/2m4q

>  <Rbt.Executable>
rbdock ($Id: //depot/dev/client3/rdock/2013.1/src/exe/rbdock.cxx#4 $)

>  <Rbt.Library>
libRbt.so (2013.1, Build901 2013/11/27)

>  <Rbt.Parameter_File>
/export/apps/rDock/src/rDock_2013.1_src/data/scripts/dock_solv.prm

>  <Rbt.Receptor>
prm/pocket_docking_6.prm

>  <SCORE>
-43.194

>  <SCORE.INTER>
-24.7852

>  <SCORE.INTER.CONST>
1

>  <SCORE.INTER.POLAR>
-4.26578

>  <SCORE.INTER.ROT>
10

>  <SCORE.INTER.SOLV>
12.2817

>  <SCORE.INTER.VDW>
-16.6648

>  <SCORE.INTER.norm>
-0.66987

>  <SCORE.INTRA>
-18.4088

>  <SCORE.INTRA.DIHEDRAL>
-28.1741

>  <SCORE.INTRA.DIHEDRAL.0>
44.8331

>  <SCORE.INTRA.POLAR>
-0.926031

>  <SCORE.INTRA.POLAR.0>
-0.108895

>  <SCORE.INTRA.REPUL>
0.000323675

>  <SCORE.INTRA.REPUL.0>
0.00912235

>  <SCORE.INTRA.SOLV>
-0.663922

>  <SCORE.INTRA.SOLV.lig_0>
-53.9067

>  <SCORE.INTRA.VDW>
-0.842878

>  <SCORE.INTRA.VDW.0>
-2.93492

>  <SCORE.INTRA.norm>
-0.497534

>  <SCORE.RESTR>
0

>  <SCORE.RESTR.CAVITY>
0

>  <SCORE.RESTR.norm>
0

>  <SCORE.SYSTEM>
0

>  <SCORE.SYSTEM.CONST>
0

>  <SCORE.SYSTEM.DIHEDRAL>
0

>  <SCORE.SYSTEM.SOLV>
0

>  <SCORE.SYSTEM.norm>
0

>  <SCORE.heavy>
37

>  <SCORE.norm>
-1.1674

>  <RMSD>
10.748

$$$$
lig.pdb
 OpenBabel11021811453D
libRbt.so/2013.1/901 2013/11/27
 37 40  0  0  0  0  0  0  0  0999 V2000
   -0.4652    6.9273    7.1175 C   0  0  2  0  0  0  0  0  0  0  0  0
   -0.9937    7.6773    5.8505 C   0  0  1  0  0  0  0  0  0  0  0  0
   -1.2549    9.1923    6.0964 C   0  0  0  0  0  0  0  0  0  0  0  0
   -2.0908    9.4125    7.3816 C   0  0  1  0  0  0  0  0  0  0  0  0
   -1.3909    8.7432    8.5856 C   0  0  1  0  0  0  0  0  0  0  0  0
   -2.1840    8.9882    9.8974 C   0  0  1  0  0  0  0  0  0  0  0  0
   -2.4450   10.5088   10.1128 C   0  0  1  0  0  0  0  0  0  0  0  0
   -3.0748   11.1766    8.8544 C   0  0  2  0  0  0  0  0  0  0  0  0
   -2.5332   10.4336   12.5624 C   0  0  0  0  0  0  0  0  0  0  0  0
   -1.1873    7.3238    8.3285 O   0  0  0  0  0  0  0  0  0  0  0  0
   -2.3452   10.8234    7.6392 O   0  0  0  0  0  0  0  0  0  0  0  0
   -0.0344    7.5133    4.7367 N   0  0  0  0  0  0  0  0  0  0  0  0
   -3.2846   10.6910   11.3149 N   0  0  0  0  0  0  0  0  0  0  0  0
   -3.3989    8.2497    9.9120 O   0  0  0  0  0  0  0  0  0  0  0  0
   -3.1467   12.6221    9.0276 O   0  0  0  0  0  0  0  0  0  0  0  0
    0.9706    7.1299    7.2903 O   0  0  0  0  0  0  0  0  0  0  0  0
   -2.6476   13.4781    7.9543 C   0  0  2  0  0  0  0  0  0  0  0  0
   -2.8438   14.9809    8.3033 C   0  0  1  0  0  0  0  0  0  0  0  0
   -4.3436   15.3913    8.2593 C   0  0  2  0  0  0  0  0  0  0  0  0
   -4.9956   14.9924    6.9036 C   0  0  1  0  0  0  0  0  0  0  0  0
   -4.7463   13.4934    6.5775 C   0  0  1  0  0  0  0  0  0  0  0  0
   -5.2713   13.1138    5.1680 C   0  0  0  0  0  0  0  0  0  0  0  0
   -3.3266   13.1754    6.6990 O   0  0  0  0  0  0  0  0  0  0  0  0
   -6.4387   15.3171    6.8815 N   0  0  0  0  0  0  0  0  0  0  0  0
   -2.2497   15.2842    9.5641 O   0  0  0  0  0  0  0  0  0  0  0  0
   -4.5041   16.7846    8.5166 O   0  0  0  0  0  0  0  0  0  0  0  0
   -6.6131   13.5558    4.9905 O   0  0  0  0  0  0  0  0  0  0  0  0
    1.7243    6.0867    7.9741 C   0  0  1  0  0  0  0  0  0  0  0  0
    3.2223    6.4665    8.1420 C   0  0  1  0  0  0  0  0  0  0  0  0
    4.0267    5.3020    8.7855 C   0  0  2  0  0  0  0  0  0  0  0  0
    3.3968    4.8138   10.1304 C   0  0  1  0  0  0  0  0  0  0  0  0
    1.8642    4.5542   10.0236 C   0  0  0  0  0  0  0  0  0  0  0  0
    1.0996    5.7359    9.3544 C   0  0  2  0  0  0  0  0  0  0  0  0
    4.1002    3.6154   10.6353 N   0  0  0  0  0  0  0  0  0  0  0  0
   -0.3342    5.3902    9.2441 N   0  0  0  0  0  0  0  0  0  0  0  0
    3.7920    6.8452    6.8931 O   0  0  0  0  0  0  0  0  0  0  0  0
    5.3857    5.6847    8.9816 O   0  0  0  0  0  0  0  0  0  0  0  0
  1  2  1  0  0  0  0
  1 16  1  1  0  0  0
  2  3  1  0  0  0  0
  2 12  1  6  0  0  0
  4 11  1  1  0  0  0
  4  3  1  0  0  0  0
  5  4  1  0  0  0  0
  5 10  1  6  0  0  0
  6  7  1  0  0  0  0
  6  5  1  0  0  0  0
  6 14  1  6  0  0  0
  7  8  1  0  0  0  0
  7 13  1  1  0  0  0
  8 15  1  1  0  0  0
  8 11  1  0  0  0  0
  9 13  1  0  0  0  0
 10  1  1  0  0  0  0
 17 15  1  1  0  0  0
 17 18  1  0  0  0  0
 18 25  1  1  0  0  0
 19 18  1  0  0  0  0
 19 26  1  6  0  0  0
 20 19  1  0  0  0  0
 20 24  1  1  0  0  0
 21 23  1  0  0  0  0
 21 20  1  0  0  0  0
 21 22  1  6  0  0  0
 23 17  1  0  0  0  0
 27 22  1  0  0  0  0
 28 29  1  0  0  0  0
 28 16  1  1  0  0  0
 29 36  1  6  0  0  0
 30 37  1  1  0  0  0
 30 29  1  0  0  0  0
 31 30  1  0  0  0  0
 31 34  1  6  0  0  0
 32 31  1  0  0  0  0
 32 33  1  0  0  0  0
 33 28  1  0  0  0  0
 33 35  1  6  0  0  0
M  END
>  <CHROM.1>
-44.20464680,130.98930212,72.59291139,-53.21381686,178.43593923,-152.14937749
-64.19321461,58.26094479,-50.02936380,-59.31059637,-177.06895512,-177.40721096
-44.59914665,-61.83034774,38.77578024,157.77782705,-1.32417551,9.80009071
8.22564072,-0.00307947,0.89212748,-1.70424293

>  <Name>
lig.pdb

>  <RI>
2.86754e+07

>  <Rbt.Current_Directory>
/home/itssahil/PROJECTS/Mol_Feturizer/New_Systems/rnas/2m4q

>  <Rbt.Executable>
rbdock ($Id: //depot/dev/client3/rdock/2013.1/src/exe/rbdock.cxx#4 $)

>  <Rbt.Library>
libRbt.so (2013.1, Build901 2013/11/27)

>  <Rbt.Parameter_File>
/export/apps/rDock/src/rDock_2013.1_src/data/scripts/dock_solv.prm

>  <Rbt.Receptor>
prm/pocket_docking_5.prm

>  <SCORE>
-44.0264

>  <SCORE.INTER>
-36.7848

>  <SCORE.INTER.CONST>
1

>  <SCORE.INTER.POLAR>
-6.32696

>  <SCORE.INTER.ROT>
10

>  <SCORE.INTER.SOLV>
20.0555

>  <SCORE.INTER.VDW>
-20.3851

>  <SCORE.INTER.norm>
-0.994183

>  <SCORE.INTRA>
-7.28391

>  <SCORE.INTRA.DIHEDRAL>
-30.6702

>  <SCORE.INTRA.DIHEDRAL.0>
44.8331

>  <SCORE.INTRA.POLAR>
0.00237115

>  <SCORE.INTRA.POLAR.0>
-0.108895

>  <SCORE.INTRA.REPUL>
0.582588

>  <SCORE.INTRA.REPUL.0>
0.00912235

>  <SCORE.INTRA.SOLV>
-0.769073

>  <SCORE.INTRA.SOLV.lig_0>
-53.9067

>  <SCORE.INTRA.VDW>
5.51472

>  <SCORE.INTRA.VDW.0>
-2.93492

>  <SCORE.INTRA.norm>
-0.196862

>  <SCORE.RESTR>
0.0422595

>  <SCORE.RESTR.CAVITY>
0.0422595

>  <SCORE.RESTR.norm>
0.00114215

>  <SCORE.SYSTEM>
0

>  <SCORE.SYSTEM.CONST>
0

>  <SCORE.SYSTEM.DIHEDRAL>
0

>  <SCORE.SYSTEM.SOLV>
0

>  <SCORE.SYSTEM.norm>
0

>  <SCORE.heavy>
37

>  <SCORE.norm>
-1.1899

>  <RMSD>
10.765

$$$$
lig.pdb
 OpenBabel11021811453D
libRbt.so/2013.1/901 2013/11/27
 37 40  0  0  0  0  0  0  0  0999 V2000
    3.3658   10.2074    8.1090 C   0  0  2  0  0  0  0  0  0  0  0  0
    3.7007   11.6895    8.4807 C   0  0  1  0  0  0  0  0  0  0  0  0
    2.4369   12.5546    8.7601 C   0  0  0  0  0  0  0  0  0  0  0  0
    1.3856   12.3850    7.6353 C   0  0  1  0  0  0  0  0  0  0  0  0
    1.0366   10.8898    7.4623 C   0  0  1  0  0  0  0  0  0  0  0  0
   -0.0509   10.6944    6.3719 C   0  0  1  0  0  0  0  0  0  0  0  0
   -1.2978   11.5808    6.6659 C   0  0  1  0  0  0  0  0  0  0  0  0
   -0.9098   13.0680    6.9182 C   0  0  2  0  0  0  0  0  0  0  0  0
   -3.6630   11.4278    6.0366 C   0  0  0  0  0  0  0  0  0  0  0  0
    2.2391   10.1185    7.1775 O   0  0  0  0  0  0  0  0  0  0  0  0
    0.1886   13.1799    7.8746 O   0  0  0  0  0  0  0  0  0  0  0  0
    4.5932   11.7192    9.6599 N   0  0  0  0  0  0  0  0  0  0  0  0
   -2.2642   11.4412    5.5570 N   0  0  0  0  0  0  0  0  0  0  0  0
    0.4682   10.9498    5.0731 O   0  0  0  0  0  0  0  0  0  0  0  0
   -2.0727   13.8300    7.3560 O   0  0  0  0  0  0  0  0  0  0  0  0
    3.1042    9.4097    9.3039 O   0  0  0  0  0  0  0  0  0  0  0  0
   -2.0745   15.2767    7.1533 C   0  0  2  0  0  0  0  0  0  0  0  0
   -1.5420   16.0166    8.4133 C   0  0  1  0  0  0  0  0  0  0  0  0
   -2.5500   15.9391    9.5956 C   0  0  2  0  0  0  0  0  0  0  0  0
   -3.9643   16.4212    9.1605 C   0  0  1  0  0  0  0  0  0  0  0  0
   -4.4427   15.6821    7.8798 C   0  0  1  0  0  0  0  0  0  0  0  0
   -5.7890   16.2470    7.3556 C   0  0  0  0  0  0  0  0  0  0  0  0
   -3.4190   15.7492    6.8410 O   0  0  0  0  0  0  0  0  0  0  0  0
   -4.9440   16.2849   10.2605 N   0  0  0  0  0  0  0  0  0  0  0  0
   -0.2569   15.5187    8.7810 O   0  0  0  0  0  0  0  0  0  0  0  0
   -2.0798   16.6758   10.7223 O   0  0  0  0  0  0  0  0  0  0  0  0
   -6.6348   15.1977    6.8964 O   0  0  0  0  0  0  0  0  0  0  0  0
    1.9886    8.4728    9.2618 C   0  0  1  0  0  0  0  0  0  0  0  0
    2.3937    7.1143    8.6241 C   0  0  1  0  0  0  0  0  0  0  0  0
    1.1681    6.1658    8.5005 C   0  0  2  0  0  0  0  0  0  0  0  0
    0.4258    5.9700    9.8623 C   0  0  1  0  0  0  0  0  0  0  0  0
    0.1267    7.3153   10.5893 C   0  0  0  0  0  0  0  0  0  0  0  0
    1.3755    8.2440   10.6726 C   0  0  2  0  0  0  0  0  0  0  0  0
   -0.8131    5.1846    9.6771 N   0  0  0  0  0  0  0  0  0  0  0  0
    0.9964    9.5151   11.3269 N   0  0  0  0  0  0  0  0  0  0  0  0
    3.0089    7.3136    7.3555 O   0  0  0  0  0  0  0  0  0  0  0  0
    1.5653    4.9064    7.9639 O   0  0  0  0  0  0  0  0  0  0  0  0
  1  2  1  0  0  0  0
  1 16  1  1  0  0  0
  2  3  1  0  0  0  0
  2 12  1  1  0  0  0
  4 11  1  1  0  0  0
  4  3  1  0  0  0  0
  5  4  1  0  0  0  0
  5 10  1  6  0  0  0
  6  7  1  0  0  0  0
  6  5  1  0  0  0  0
  6 14  1  6  0  0  0
  7  8  1  0  0  0  0
  7 13  1  6  0  0  0
  8 15  1  1  0  0  0
  8 11  1  0  0  0  0
  9 13  1  0  0  0  0
 10  1  1  0  0  0  0
 17 15  1  1  0  0  0
 17 18  1  0  0  0  0
 18 25  1  1  0  0  0
 19 18  1  0  0  0  0
 19 26  1  1  0  0  0
 20 19  1  0  0  0  0
 20 24  1  1  0  0  0
 21 23  1  0  0  0  0
 21 20  1  0  0  0  0
 21 22  1  6  0  0  0
 23 17  1  0  0  0  0
 27 22  1  0  0  0  0
 28 29  1  0  0  0  0
 28 16  1  1  0  0  0
 29 36  1  6  0  0  0
 30 37  1  1  0  0  0
 30 29  1  0  0  0  0
 31 30  1  0  0  0  0
 31 34  1  6  0  0  0
 32 31  1  0  0  0  0
 32 33  1  0  0  0  0
 33 28  1  0  0  0  0
 33 35  1  6  0  0  0
M  END
>  <CHROM.1>
81.87487888,-156.67438870,141.99900223,-172.54936348,-93.34788908,137.82387302
65.48126553,-59.03610452,-140.21929691,179.91217087,54.03414495,84.48514293
70.55434576,64.85492845,123.95514937,-47.29700266,-0.37170674,11.63505580
8.24790056,-0.94316056,-0.23785674,0.08153171

>  <Name>
lig.pdb

>  <RI>
3.60165e+07

>  <Rbt.Current_Directory>
/home/itssahil/PROJECTS/Mol_Feturizer/New_Systems/rnas/2m4q

>  <Rbt.Executable>
rbdock ($Id: //depot/dev/client3/rdock/2013.1/src/exe/rbdock.cxx#4 $)

>  <Rbt.Library>
libRbt.so (2013.1, Build901 2013/11/27)

>  <Rbt.Parameter_File>
/export/apps/rDock/src/rDock_2013.1_src/data/scripts/dock_solv.prm

>  <Rbt.Receptor>
prm/pocket_docking_8.prm

>  <SCORE>
-33.8106

>  <SCORE.INTER>
-22.2768

>  <SCORE.INTER.CONST>
1

>  <SCORE.INTER.POLAR>
-5.03427

>  <SCORE.INTER.ROT>
10

>  <SCORE.INTER.SOLV>
10.9006

>  <SCORE.INTER.VDW>
-11.9705

>  <SCORE.INTER.norm>
-0.602075

>  <SCORE.INTRA>
-11.5338

>  <SCORE.INTRA.DIHEDRAL>
-19.3066

>  <SCORE.INTRA.DIHEDRAL.0>
44.8331

>  <SCORE.INTRA.POLAR>
-0.24924

>  <SCORE.INTRA.POLAR.0>
-0.108895

>  <SCORE.INTRA.REPUL>
-0.00912235

>  <SCORE.INTRA.REPUL.0>
0.00912235

>  <SCORE.INTRA.SOLV>
-1.17575

>  <SCORE.INTRA.SOLV.lig_0>
-53.9067

>  <SCORE.INTRA.VDW>
-0.399579

>  <SCORE.INTRA.VDW.0>
-2.93492

>  <SCORE.INTRA.norm>
-0.311724

>  <SCORE.RESTR>
0

>  <SCORE.RESTR.CAVITY>
0

>  <SCORE.RESTR.norm>
0

>  <SCORE.SYSTEM>
0

>  <SCORE.SYSTEM.CONST>
0

>  <SCORE.SYSTEM.DIHEDRAL>
0

>  <SCORE.SYSTEM.SOLV>
0

>  <SCORE.SYSTEM.norm>
0

>  <SCORE.heavy>
37

>  <SCORE.norm>
-0.913799

>  <RMSD>
10.798

$$$$
lig.pdb
 OpenBabel11021811453D
libRbt.so/2013.1/901 2013/11/27
 37 40  0  0  0  0  0  0  0  0999 V2000
   -0.9623    7.4077   10.8473 C   0  0  2  0  0  0  0  0  0  0  0  0
   -1.6944    7.1455    9.4900 C   0  0  1  0  0  0  0  0  0  0  0  0
   -2.3175    8.4299    8.8688 C   0  0  0  0  0  0  0  0  0  0  0  0
   -3.1472    9.2106    9.9181 C   0  0  1  0  0  0  0  0  0  0  0  0
   -2.2709    9.5303   11.1498 C   0  0  1  0  0  0  0  0  0  0  0  0
   -3.0646   10.3542   12.1991 C   0  0  1  0  0  0  0  0  0  0  0  0
   -3.6898   11.6249   11.5502 C   0  0  1  0  0  0  0  0  0  0  0  0
   -4.4993   11.2847   10.2637 C   0  0  2  0  0  0  0  0  0  0  0  0
   -3.6913   12.9859   13.5901 C   0  0  0  0  0  0  0  0  0  0  0  0
   -1.7276    8.3035   11.7173 O   0  0  0  0  0  0  0  0  0  0  0  0
   -3.7376   10.4217    9.3644 O   0  0  0  0  0  0  0  0  0  0  0  0
   -0.7547    6.5333    8.5258 N   0  0  0  0  0  0  0  0  0  0  0  0
   -4.5158   12.3260   12.5548 N   0  0  0  0  0  0  0  0  0  0  0  0
   -4.0567    9.5599   12.8364 O   0  0  0  0  0  0  0  0  0  0  0  0
   -4.9238   12.5065    9.5916 O   0  0  0  0  0  0  0  0  0  0  0  0
    0.3821    7.9343   10.6288 O   0  0  0  0  0  0  0  0  0  0  0  0
   -3.9538   13.2200    8.7647 C   0  0  2  0  0  0  0  0  0  0  0  0
   -4.1925   14.7556    8.8251 C   0  0  1  0  0  0  0  0  0  0  0  0
   -5.4930   15.1660    8.0769 C   0  0  2  0  0  0  0  0  0  0  0  0
   -5.5063   14.6060    6.6249 C   0  0  1  0  0  0  0  0  0  0  0  0
   -5.2298   13.0767    6.6079 C   0  0  1  0  0  0  0  0  0  0  0  0
   -5.1045   12.5283    5.1623 C   0  0  0  0  0  0  0  0  0  0  0  0
   -4.0296   12.7680    7.3796 O   0  0  0  0  0  0  0  0  0  0  0  0
   -6.7708   14.9339    5.9306 N   0  0  0  0  0  0  0  0  0  0  0  0
   -4.1952   15.2093   10.1774 O   0  0  0  0  0  0  0  0  0  0  0  0
   -5.6661   16.5814    8.0835 O   0  0  0  0  0  0  0  0  0  0  0  0
   -4.9096   11.1179    5.1700 O   0  0  0  0  0  0  0  0  0  0  0  0
    1.2731    8.0153   11.7793 C   0  0  1  0  0  0  0  0  0  0  0  0
    1.7621    6.6124   12.2362 C   0  0  1  0  0  0  0  0  0  0  0  0
    2.6317    6.7131   13.5210 C   0  0  2  0  0  0  0  0  0  0  0  0
    3.8181    7.7184   13.3608 C   0  0  1  0  0  0  0  0  0  0  0  0
    3.3743    9.0925   12.7756 C   0  0  0  0  0  0  0  0  0  0  0  0
    2.4882    8.9455   11.5021 C   0  0  2  0  0  0  0  0  0  0  0  0
    4.5315    7.8976   14.6435 N   0  0  0  0  0  0  0  0  0  0  0  0
    2.0681   10.2867   11.0416 N   0  0  0  0  0  0  0  0  0  0  0  0
    0.6606    5.7330   12.4386 O   0  0  0  0  0  0  0  0  0  0  0  0
    3.1161    5.4262   13.8965 O   0  0  0  0  0  0  0  0  0  0  0  0
  1  2  1  0  0  0  0
  1 16  1  6  0  0  0
  2  3  1  0  0  0  0
  2 12  1  6  0  0  0
  4 11  1  6  0  0  0
  4  3  1  0  0  0  0
  5  4  1  0  0  0  0
  5 10  1  1  0  0  0
  6  7  1  0  0  0  0
  6  5  1  0  0  0  0
  6 14  1  6  0  0  0
  7  8  1  0  0  0  0
  7 13  1  1  0  0  0
  8 15  1  6  0  0  0
  8 11  1  0  0  0  0
  9 13  1  0  0  0  0
 10  1  1  0  0  0  0
 17 15  1  1  0  0  0
 17 18  1  0  0  0  0
 18 25  1  1  0  0  0
 19 18  1  0  0  0  0
 19 26  1  6  0  0  0
 20 19  1  0  0  0  0
 20 24  1  1  0  0  0
 21 23  1  0  0  0  0
 21 20  1  0  0  0  0
 21 22  1  6  0  0  0
 23 17  1  0  0  0  0
 27 22  1  0  0  0  0
 28 29  1  0  0  0  0
 28 16  1  6  0  0  0
 29 36  1  1  0  0  0
 30 37  1  6  0  0  0
 30 29  1  0  0  0  0
 31 30  1  0  0  0  0
 31 34  1  1  0  0  0
 32 31  1  0  0  0  0
 32 33  1  0  0  0  0
 33 28  1  0  0  0  0
 33 35  1  1  0  0  0
M  END
>  <CHROM.1>
154.84213665,79.45365562,71.70419604,61.59092519,-146.40677633,-169.75148652
61.38611376,-89.90617929,-177.46884493,69.15549186,179.01611255,72.00257935
171.43916519,-66.52982474,-60.98345925,175.45793274,-2.01696194,10.44020869
10.29824029,0.06905981,0.84357384,-2.29692125

>  <Name>
lig.pdb

>  <RI>
0

>  <Rbt.Current_Directory>
/home/itssahil/PROJECTS/Mol_Feturizer/New_Systems/rnas/2m4q

>  <Rbt.Executable>
rbdock ($Id: //depot/dev/client3/rdock/2013.1/src/exe/rbdock.cxx#4 $)

>  <Rbt.Library>
libRbt.so (2013.1, Build901 2013/11/27)

>  <Rbt.Parameter_File>
/export/apps/rDock/src/rDock_2013.1_src/data/scripts/dock_solv.prm

>  <Rbt.Receptor>
prm/pocket_docking_6.prm

>  <SCORE>
-40.7031

>  <SCORE.INTER>
-24.2375

>  <SCORE.INTER.CONST>
1

>  <SCORE.INTER.POLAR>
-4.04398

>  <SCORE.INTER.ROT>
10

>  <SCORE.INTER.SOLV>
13.4137

>  <SCORE.INTER.VDW>
-17.4163

>  <SCORE.INTER.norm>
-0.655067

>  <SCORE.INTRA>
-16.4656

>  <SCORE.INTRA.DIHEDRAL>
-31.7397

>  <SCORE.INTRA.DIHEDRAL.0>
44.8331

>  <SCORE.INTRA.POLAR>
0.106924

>  <SCORE.INTRA.POLAR.0>
-0.108895

>  <SCORE.INTRA.REPUL>
-0.00912235

>  <SCORE.INTRA.REPUL.0>
0.00912235

>  <SCORE.INTRA.SOLV>
-1.89393

>  <SCORE.INTRA.SOLV.lig_0>
-53.9067

>  <SCORE.INTRA.VDW>
0.0332802

>  <SCORE.INTRA.VDW.0>
-2.93492

>  <SCORE.INTRA.norm>
-0.445017

>  <SCORE.RESTR>
0

>  <SCORE.RESTR.CAVITY>
0

>  <SCORE.RESTR.norm>
0

>  <SCORE.SYSTEM>
0

>  <SCORE.SYSTEM.CONST>
0

>  <SCORE.SYSTEM.DIHEDRAL>
0

>  <SCORE.SYSTEM.SOLV>
0

>  <SCORE.SYSTEM.norm>
0

>  <SCORE.heavy>
37

>  <SCORE.norm>
-1.10008

>  <RMSD>
10.831

$$$$
lig.pdb
 OpenBabel11021811453D
libRbt.so/2013.1/901 2013/11/27
 37 40  0  0  0  0  0  0  0  0999 V2000
   -0.3272    9.5097    6.2091 C   0  0  2  0  0  0  0  0  0  0  0  0
   -0.8642   10.5908    5.2141 C   0  0  1  0  0  0  0  0  0  0  0  0
   -1.3494   11.8905    5.9206 C   0  0  0  0  0  0  0  0  0  0  0  0
   -2.2958   11.5628    7.1021 C   0  0  1  0  0  0  0  0  0  0  0  0
   -1.5962   10.5970    8.0845 C   0  0  1  0  0  0  0  0  0  0  0  0
   -2.5056   10.2878    9.3039 C   0  0  1  0  0  0  0  0  0  0  0  0
   -2.9893   11.6033    9.9838 C   0  0  1  0  0  0  0  0  0  0  0  0
   -3.6157   12.5940    8.9579 C   0  0  2  0  0  0  0  0  0  0  0  0
   -3.2249   10.8258   12.2976 C   0  0  0  0  0  0  0  0  0  0  0  0
   -1.1804    9.3842    7.3929 O   0  0  0  0  0  0  0  0  0  0  0  0
   -2.7607   12.7623    7.7855 O   0  0  0  0  0  0  0  0  0  0  0  0
    0.1843   10.9247    4.2258 N   0  0  0  0  0  0  0  0  0  0  0  0
   -3.9283   11.2686   11.0744 N   0  0  0  0  0  0  0  0  0  0  0  0
   -3.6045    9.4652    8.9333 O   0  0  0  0  0  0  0  0  0  0  0  0
   -3.8991   13.8742    9.5947 O   0  0  0  0  0  0  0  0  0  0  0  0
    1.0511    9.7914    6.6011 O   0  0  0  0  0  0  0  0  0  0  0  0
   -2.7777   14.6730   10.0829 C   0  0  2  0  0  0  0  0  0  0  0  0
   -3.2798   15.9011   10.8942 C   0  0  1  0  0  0  0  0  0  0  0  0
   -3.9488   16.9635    9.9757 C   0  0  2  0  0  0  0  0  0  0  0  0
   -3.0123   17.3563    8.7965 C   0  0  1  0  0  0  0  0  0  0  0  0
   -2.5066   16.0992    8.0353 C   0  0  1  0  0  0  0  0  0  0  0  0
   -1.4660   16.4641    6.9443 C   0  0  0  0  0  0  0  0  0  0  0  0
   -1.9492   15.1273    8.9713 O   0  0  0  0  0  0  0  0  0  0  0  0
   -3.6691   18.3144    7.8804 N   0  0  0  0  0  0  0  0  0  0  0  0
   -4.1518   15.4857   11.9438 O   0  0  0  0  0  0  0  0  0  0  0  0
   -4.3458   18.1123   10.7214 O   0  0  0  0  0  0  0  0  0  0  0  0
   -2.0168   17.3811    6.0045 O   0  0  0  0  0  0  0  0  0  0  0  0
    1.6511    8.9436    7.6235 C   0  0  1  0  0  0  0  0  0  0  0  0
    1.7771    7.4671    7.1543 C   0  0  1  0  0  0  0  0  0  0  0  0
    2.3289    6.5627    8.2922 C   0  0  2  0  0  0  0  0  0  0  0  0
    3.6720    7.1012    8.8837 C   0  0  1  0  0  0  0  0  0  0  0  0
    3.6143    8.6173    9.2384 C   0  0  0  0  0  0  0  0  0  0  0  0
    3.0362    9.4841    8.0794 C   0  0  2  0  0  0  0  0  0  0  0  0
    4.0878    6.3014   10.0557 N   0  0  0  0  0  0  0  0  0  0  0  0
    2.9667   10.8963    8.5132 N   0  0  0  0  0  0  0  0  0  0  0  0
    0.5268    6.9776    6.6804 O   0  0  0  0  0  0  0  0  0  0  0  0
    2.4889    5.2237    7.8306 O   0  0  0  0  0  0  0  0  0  0  0  0
  1  2  1  0  0  0  0
  1 16  1  1  0  0  0
  2  3  1  0  0  0  0
  2 12  1  6  0  0  0
  4 11  1  1  0  0  0
  4  3  1  0  0  0  0
  5  4  1  0  0  0  0
  5 10  1  6  0  0  0
  6  7  1  0  0  0  0
  6  5  1  0  0  0  0
  6 14  1  6  0  0  0
  7  8  1  0  0  0  0
  7 13  1  1  0  0  0
  8 15  1  1  0  0  0
  8 11  1  0  0  0  0
  9 13  1  0  0  0  0
 10  1  1  0  0  0  0
 17 15  1  6  0  0  0
 17 18  1  0  0  0  0
 18 25  1  1  0  0  0
 19 18  1  0  0  0  0
 19 26  1  1  0  0  0
 20 19  1  0  0  0  0
 20 24  1  6  0  0  0
 21 23  1  0  0  0  0
 21 20  1  0  0  0  0
 21 22  1  6  0  0  0
 23 17  1  0  0  0  0
 27 22  1  0  0  0  0
 28 29  1  0  0  0  0
 28 16  1  6  0  0  0
 29 36  1  1  0  0  0
 30 37  1  6  0  0  0
 30 29  1  0  0  0  0
 31 30  1  0  0  0  0
 31 34  1  1  0  0  0
 32 31  1  0  0  0  0
 32 33  1  0  0  0  0
 33 28  1  0  0  0  0
 33 35  1  1  0  0  0
M  END
>  <CHROM.1>
-163.04306002,65.04286033,79.27110072,-178.60632048,-172.38749609,174.33341258
-56.35167186,-68.80527529,-58.25927389,172.60491451,167.06162062,63.87243625
163.54772525,37.73205298,175.90131835,56.50503331,-1.10066046,11.81147505
8.41165613,-0.59938126,0.86661215,-0.67779635

>  <Name>
lig.pdb

>  <RI>
3.60165e+07

>  <Rbt.Current_Directory>
/home/itssahil/PROJECTS/Mol_Feturizer/New_Systems/rnas/2m4q

>  <Rbt.Executable>
rbdock ($Id: //depot/dev/client3/rdock/2013.1/src/exe/rbdock.cxx#4 $)

>  <Rbt.Library>
libRbt.so (2013.1, Build901 2013/11/27)

>  <Rbt.Parameter_File>
/export/apps/rDock/src/rDock_2013.1_src/data/scripts/dock_solv.prm

>  <Rbt.Receptor>
prm/pocket_docking_8.prm

>  <SCORE>
-42.5013

>  <SCORE.INTER>
-22.0079

>  <SCORE.INTER.CONST>
1

>  <SCORE.INTER.POLAR>
-5.3039

>  <SCORE.INTER.ROT>
10

>  <SCORE.INTER.SOLV>
14.4104

>  <SCORE.INTER.VDW>
-12.0624

>  <SCORE.INTER.norm>
-0.594807

>  <SCORE.INTRA>
-20.4935

>  <SCORE.INTRA.DIHEDRAL>
-37.5368

>  <SCORE.INTRA.DIHEDRAL.0>
44.8331

>  <SCORE.INTRA.POLAR>
-0.441097

>  <SCORE.INTRA.POLAR.0>
-0.108895

>  <SCORE.INTRA.REPUL>
-0.00912235

>  <SCORE.INTRA.REPUL.0>
0.00912235

>  <SCORE.INTRA.SOLV>
-0.968938

>  <SCORE.INTRA.SOLV.lig_0>
-53.9067

>  <SCORE.INTRA.VDW>
0.304745

>  <SCORE.INTRA.VDW.0>
-2.93492

>  <SCORE.INTRA.norm>
-0.553878

>  <SCORE.RESTR>
0

>  <SCORE.RESTR.CAVITY>
0

>  <SCORE.RESTR.norm>
0

>  <SCORE.SYSTEM>
0

>  <SCORE.SYSTEM.CONST>
0

>  <SCORE.SYSTEM.DIHEDRAL>
0

>  <SCORE.SYSTEM.SOLV>
0

>  <SCORE.SYSTEM.norm>
0

>  <SCORE.heavy>
37

>  <SCORE.norm>
-1.14868

>  <RMSD>
10.858

$$$$
lig.pdb
 OpenBabel11021811453D
libRbt.so/2013.1/901 2013/11/27
 37 40  0  0  0  0  0  0  0  0999 V2000
   -0.6787    8.0841    8.4789 C   0  0  2  0  0  0  0  0  0  0  0  0
   -1.5161    8.2534    7.1685 C   0  0  1  0  0  0  0  0  0  0  0  0
   -2.2394    9.6288    7.0739 C   0  0  0  0  0  0  0  0  0  0  0  0
   -3.0032    9.9482    8.3828 C   0  0  1  0  0  0  0  0  0  0  0  0
   -2.0355    9.8851    9.5857 C   0  0  1  0  0  0  0  0  0  0  0  0
   -2.7651   10.2473   10.9071 C   0  0  1  0  0  0  0  0  0  0  0  0
   -3.4924   11.6192   10.7819 C   0  0  1  0  0  0  0  0  0  0  0  0
   -4.3977   11.6862    9.5162 C   0  0  2  0  0  0  0  0  0  0  0  0
   -3.3739   12.2820   13.1400 C   0  0  0  0  0  0  0  0  0  0  0  0
   -1.3985    8.5768    9.6554 O   0  0  0  0  0  0  0  0  0  0  0  0
   -3.6853   11.2340    8.3238 O   0  0  0  0  0  0  0  0  0  0  0  0
   -0.6416    8.0702    5.9898 N   0  0  0  0  0  0  0  0  0  0  0  0
   -4.2535   11.8794   12.0213 N   0  0  0  0  0  0  0  0  0  0  0  0
   -3.6670    9.2198   11.2975 O   0  0  0  0  0  0  0  0  0  0  0  0
   -4.9253   13.0333    9.3387 O   0  0  0  0  0  0  0  0  0  0  0  0
    0.6206    8.7407    8.3637 O   0  0  0  0  0  0  0  0  0  0  0  0
   -4.1441   13.9906    8.5594 C   0  0  2  0  0  0  0  0  0  0  0  0
   -4.8224   15.3901    8.5538 C   0  0  1  0  0  0  0  0  0  0  0  0
   -6.1250   15.3951    7.7033 C   0  0  2  0  0  0  0  0  0  0  0  0
   -5.8639   14.8410    6.2727 C   0  0  1  0  0  0  0  0  0  0  0  0
   -5.1546   13.4590    6.3241 C   0  0  1  0  0  0  0  0  0  0  0  0
   -4.7653   12.9565    4.9091 C   0  0  0  0  0  0  0  0  0  0  0  0
   -3.9792   13.5221    7.1877 O   0  0  0  0  0  0  0  0  0  0  0  0
   -7.1122   14.7782    5.4812 N   0  0  0  0  0  0  0  0  0  0  0  0
   -5.0603   15.8369    9.8873 O   0  0  0  0  0  0  0  0  0  0  0  0
   -6.7017   16.6983    7.6525 O   0  0  0  0  0  0  0  0  0  0  0  0
   -4.3121   11.6075    4.9569 O   0  0  0  0  0  0  0  0  0  0  0  0
    1.7266    8.1946    9.1398 C   0  0  1  0  0  0  0  0  0  0  0  0
    1.2882    7.7971   10.5771 C   0  0  1  0  0  0  0  0  0  0  0  0
    2.5012    7.3082   11.4179 C   0  0  2  0  0  0  0  0  0  0  0  0
    3.2912    6.1585   10.7124 C   0  0  1  0  0  0  0  0  0  0  0  0
    3.6269    6.4771    9.2245 C   0  0  0  0  0  0  0  0  0  0  0  0
    2.3892    6.9833    8.4242 C   0  0  2  0  0  0  0  0  0  0  0  0
    4.5165    5.8223   11.4685 N   0  0  0  0  0  0  0  0  0  0  0  0
    2.8017    7.3113    7.0423 N   0  0  0  0  0  0  0  0  0  0  0  0
    0.6285    8.8808   11.2236 O   0  0  0  0  0  0  0  0  0  0  0  0
    2.0750    6.8974   12.7145 O   0  0  0  0  0  0  0  0  0  0  0  0
  1  2  1  0  0  0  0
  1 16  1  6  0  0  0
  2  3  1  0  0  0  0
  2 12  1  6  0  0  0
  4 11  1  6  0  0  0
  4  3  1  0  0  0  0
  5  4  1  0  0  0  0
  5 10  1  1  0  0  0
  6  7  1  0  0  0  0
  6  5  1  0  0  0  0
  6 14  1  6  0  0  0
  7  8  1  0  0  0  0
  7 13  1  1  0  0  0
  8 15  1  6  0  0  0
  8 11  1  0  0  0  0
  9 13  1  0  0  0  0
 10  1  1  0  0  0  0
 17 15  1  1  0  0  0
 17 18  1  0  0  0  0
 18 25  1  1  0  0  0
 19 18  1  0  0  0  0
 19 26  1  6  0  0  0
 20 19  1  0  0  0  0
 20 24  1  1  0  0  0
 21 23  1  0  0  0  0
 21 20  1  0  0  0  0
 21 22  1  6  0  0  0
 23 17  1  0  0  0  0
 27 22  1  0  0  0  0
 28 29  1  0  0  0  0
 28 16  1  6  0  0  0
 29 36  1  1  0  0  0
 30 37  1  1  0  0  0
 30 29  1  0  0  0  0
 31 30  1  0  0  0  0
 31 34  1  1  0  0  0
 32 31  1  0  0  0  0
 32 33  1  0  0  0  0
 33 28  1  0  0  0  0
 33 35  1  6  0  0  0
M  END
>  <CHROM.1>
-49.11181365,88.90885875,75.30077619,-60.15936757,-176.54274558,-151.41632306
-157.79296796,67.60318942,-170.82983614,66.77006845,64.37516553,-41.72759683
-178.77832817,-172.35551887,-179.69223900,-144.48136279,-2.03841051,10.63572269
8.90926529,-0.17569657,0.76873726,-1.64351046

>  <Name>
lig.pdb

>  <RI>
0

>  <Rbt.Current_Directory>
/home/itssahil/PROJECTS/Mol_Feturizer/New_Systems/rnas/2m4q

>  <Rbt.Executable>
rbdock ($Id: //depot/dev/client3/rdock/2013.1/src/exe/rbdock.cxx#4 $)

>  <Rbt.Library>
libRbt.so (2013.1, Build901 2013/11/27)

>  <Rbt.Parameter_File>
/export/apps/rDock/src/rDock_2013.1_src/data/scripts/dock_solv.prm

>  <Rbt.Receptor>
prm/pocket_docking_6.prm

>  <SCORE>
-39.8356

>  <SCORE.INTER>
-25.7241

>  <SCORE.INTER.CONST>
1

>  <SCORE.INTER.POLAR>
-4.74314

>  <SCORE.INTER.ROT>
10

>  <SCORE.INTER.SOLV>
14.9749

>  <SCORE.INTER.VDW>
-16.5972

>  <SCORE.INTER.norm>
-0.695247

>  <SCORE.INTRA>
-14.1114

>  <SCORE.INTRA.DIHEDRAL>
-30.4989

>  <SCORE.INTRA.DIHEDRAL.0>
44.8331

>  <SCORE.INTRA.POLAR>
0.0187769

>  <SCORE.INTRA.POLAR.0>
-0.108895

>  <SCORE.INTRA.REPUL>
-0.00912235

>  <SCORE.INTRA.REPUL.0>
0.00912235

>  <SCORE.INTRA.SOLV>
-0.502192

>  <SCORE.INTRA.SOLV.lig_0>
-53.9067

>  <SCORE.INTRA.VDW>
1.37084

>  <SCORE.INTRA.VDW.0>
-2.93492

>  <SCORE.INTRA.norm>
-0.381391

>  <SCORE.RESTR>
0

>  <SCORE.RESTR.CAVITY>
0

>  <SCORE.RESTR.norm>
0

>  <SCORE.SYSTEM>
0

>  <SCORE.SYSTEM.CONST>
0

>  <SCORE.SYSTEM.DIHEDRAL>
0

>  <SCORE.SYSTEM.SOLV>
0

>  <SCORE.SYSTEM.norm>
0

>  <SCORE.heavy>
37

>  <SCORE.norm>
-1.07664

>  <RMSD>
10.869

$$$$
lig.pdb
 OpenBabel11021811453D
libRbt.so/2013.1/901 2013/11/27
 37 40  0  0  0  0  0  0  0  0999 V2000
   -1.9708   10.4903   12.4375 C   0  0  2  0  0  0  0  0  0  0  0  0
   -2.5665   11.7699   13.1118 C   0  0  1  0  0  0  0  0  0  0  0  0
   -3.2315   12.7468   12.0982 C   0  0  0  0  0  0  0  0  0  0  0  0
   -2.2988   13.0184   10.8919 C   0  0  1  0  0  0  0  0  0  0  0  0
   -1.8944   11.6830   10.2282 C   0  0  1  0  0  0  0  0  0  0  0  0
   -0.9960   11.9281    8.9862 C   0  0  1  0  0  0  0  0  0  0  0  0
   -1.6763   12.9191    7.9954 C   0  0  1  0  0  0  0  0  0  0  0  0
   -2.1488   14.2222    8.7060 C   0  0  2  0  0  0  0  0  0  0  0  0
   -1.4582   13.7017    5.6815 C   0  0  0  0  0  0  0  0  0  0  0  0
   -1.2538   10.8076   11.2004 O   0  0  0  0  0  0  0  0  0  0  0  0
   -2.8994   13.9260    9.9236 O   0  0  0  0  0  0  0  0  0  0  0  0
   -3.5517   11.3783   14.1432 N   0  0  0  0  0  0  0  0  0  0  0  0
   -0.7499   13.2017    6.8796 N   0  0  0  0  0  0  0  0  0  0  0  0
    0.2961   12.3843    9.3653 O   0  0  0  0  0  0  0  0  0  0  0  0
   -2.9280   15.0469    7.7910 O   0  0  0  0  0  0  0  0  0  0  0  0
   -3.0089    9.4949   12.1845 O   0  0  0  0  0  0  0  0  0  0  0  0
   -3.9081   15.9740    8.3513 C   0  0  2  0  0  0  0  0  0  0  0  0
   -4.3025   17.0626    7.3131 C   0  0  1  0  0  0  0  0  0  0  0  0
   -3.1406   18.0658    7.0610 C   0  0  2  0  0  0  0  0  0  0  0  0
   -2.6148   18.6638    8.3981 C   0  0  1  0  0  0  0  0  0  0  0  0
   -2.2657   17.5441    9.4179 C   0  0  1  0  0  0  0  0  0  0  0  0
   -1.8703   18.1250   10.8008 C   0  0  0  0  0  0  0  0  0  0  0  0
   -3.3817   16.6126    9.5528 O   0  0  0  0  0  0  0  0  0  0  0  0
   -1.4642   19.5657    8.1715 N   0  0  0  0  0  0  0  0  0  0  0  0
   -4.7523   16.4596    6.1012 O   0  0  0  0  0  0  0  0  0  0  0  0
   -3.5363   19.0957    6.1577 O   0  0  0  0  0  0  0  0  0  0  0  0
   -1.2234   17.1391   11.5989 O   0  0  0  0  0  0  0  0  0  0  0  0
   -2.6029    8.2303   11.5846 C   0  0  1  0  0  0  0  0  0  0  0  0
   -2.3444    8.3673   10.0580 C   0  0  1  0  0  0  0  0  0  0  0  0
   -2.0073    6.9897    9.4210 C   0  0  2  0  0  0  0  0  0  0  0  0
   -0.8256    6.2695   10.1482 C   0  0  1  0  0  0  0  0  0  0  0  0
   -0.9954    6.2374   11.6967 C   0  0  0  0  0  0  0  0  0  0  0  0
   -1.3530    7.6329   12.2912 C   0  0  2  0  0  0  0  0  0  0  0  0
   -0.6314    4.9058    9.6111 N   0  0  0  0  0  0  0  0  0  0  0  0
   -1.5473    7.5066   13.7519 N   0  0  0  0  0  0  0  0  0  0  0  0
   -3.4601    8.9662    9.4068 O   0  0  0  0  0  0  0  0  0  0  0  0
   -1.7208    7.1399    8.0328 O   0  0  0  0  0  0  0  0  0  0  0  0
  1  2  1  0  0  0  0
  1 16  1  6  0  0  0
  2  3  1  0  0  0  0
  2 12  1  1  0  0  0
  4 11  1  6  0  0  0
  4  3  1  0  0  0  0
  5  4  1  0  0  0  0
  5 10  1  1  0  0  0
  6  7  1  0  0  0  0
  6  5  1  0  0  0  0
  6 14  1  1  0  0  0
  7  8  1  0  0  0  0
  7 13  1  6  0  0  0
  8 15  1  6  0  0  0
  8 11  1  0  0  0  0
  9 13  1  0  0  0  0
 10  1  1  0  0  0  0
 17 15  1  6  0  0  0
 17 18  1  0  0  0  0
 18 25  1  6  0  0  0
 19 18  1  0  0  0  0
 19 26  1  6  0  0  0
 20 19  1  0  0  0  0
 20 24  1  6  0  0  0
 21 23  1  0  0  0  0
 21 20  1  0  0  0  0
 21 22  1  1  0  0  0
 23 17  1  0  0  0  0
 27 22  1  0  0  0  0
 28 29  1  0  0  0  0
 28 16  1  1  0  0  0
 29 36  1  6  0  0  0
 30 37  1  6  0  0  0
 30 29  1  0  0  0  0
 31 30  1  0  0  0  0
 31 34  1  6  0  0  0
 32 31  1  0  0  0  0
 32 33  1  0  0  0  0
 33 28  1  0  0  0  0
 33 35  1  1  0  0  0
M  END
>  <CHROM.1>
-31.33783197,154.41874791,158.81097521,-57.35344482,161.86741528,-178.66276062
-175.56879508,-162.31580099,-164.58152956,54.67705861,-174.79301805,-77.18948925
-152.98359168,-170.19223287,151.22400745,-168.78647061,-2.22350090,12.60357381
9.71760967,0.54270221,-1.44703054,1.82359507

>  <Name>
lig.pdb

>  <RI>
3.60165e+07

>  <Rbt.Current_Directory>
/home/itssahil/PROJECTS/Mol_Feturizer/New_Systems/rnas/2m4q

>  <Rbt.Executable>
rbdock ($Id: //depot/dev/client3/rdock/2013.1/src/exe/rbdock.cxx#4 $)

>  <Rbt.Library>
libRbt.so (2013.1, Build901 2013/11/27)

>  <Rbt.Parameter_File>
/export/apps/rDock/src/rDock_2013.1_src/data/scripts/dock_solv.prm

>  <Rbt.Receptor>
prm/pocket_docking_8.prm

>  <SCORE>
-46.6131

>  <SCORE.INTER>
-32.4033

>  <SCORE.INTER.CONST>
1

>  <SCORE.INTER.POLAR>
-5.77773

>  <SCORE.INTER.ROT>
10

>  <SCORE.INTER.SOLV>
14.6478

>  <SCORE.INTER.VDW>
-17.4924

>  <SCORE.INTER.norm>
-0.875765

>  <SCORE.INTRA>
-14.2097

>  <SCORE.INTRA.DIHEDRAL>
-29.4754

>  <SCORE.INTRA.DIHEDRAL.0>
44.8331

>  <SCORE.INTRA.POLAR>
-0.191473

>  <SCORE.INTRA.POLAR.0>
-0.108895

>  <SCORE.INTRA.REPUL>
-0.00445566

>  <SCORE.INTRA.REPUL.0>
0.00912235

>  <SCORE.INTRA.SOLV>
-1.3659

>  <SCORE.INTRA.SOLV.lig_0>
-53.9067

>  <SCORE.INTRA.VDW>
1.8842

>  <SCORE.INTRA.VDW.0>
-2.93492

>  <SCORE.INTRA.norm>
-0.384047

>  <SCORE.RESTR>
0

>  <SCORE.RESTR.CAVITY>
0

>  <SCORE.RESTR.norm>
0

>  <SCORE.SYSTEM>
0

>  <SCORE.SYSTEM.CONST>
0

>  <SCORE.SYSTEM.DIHEDRAL>
0

>  <SCORE.SYSTEM.SOLV>
0

>  <SCORE.SYSTEM.norm>
0

>  <SCORE.heavy>
37

>  <SCORE.norm>
-1.25981

>  <RMSD>
11.036

$$$$
lig.pdb
 OpenBabel11021811453D
libRbt.so/2013.1/901 2013/11/27
 37 40  0  0  0  0  0  0  0  0999 V2000
   -0.9480    8.6473    8.2550 C   0  0  2  0  0  0  0  0  0  0  0  0
   -2.0203    8.6267    7.1162 C   0  0  1  0  0  0  0  0  0  0  0  0
   -2.6866   10.0126    6.8732 C   0  0  0  0  0  0  0  0  0  0  0  0
   -3.1609   10.6444    8.2054 C   0  0  1  0  0  0  0  0  0  0  0  0
   -1.9776   10.7369    9.1947 C   0  0  1  0  0  0  0  0  0  0  0  0
   -2.4141   11.4101   10.5236 C   0  0  1  0  0  0  0  0  0  0  0  0
   -3.0905   12.7870   10.2527 C   0  0  1  0  0  0  0  0  0  0  0  0
   -4.2250   12.6807    9.1907 C   0  0  2  0  0  0  0  0  0  0  0  0
   -2.6995   14.4225   12.0376 C   0  0  0  0  0  0  0  0  0  0  0  0
   -1.3978    9.4189    9.4157 O   0  0  0  0  0  0  0  0  0  0  0  0
   -3.7838   11.9463    8.0076 O   0  0  0  0  0  0  0  0  0  0  0  0
   -1.4058    8.1442    5.8603 N   0  0  0  0  0  0  0  0  0  0  0  0
   -3.5785   13.3470   11.5299 N   0  0  0  0  0  0  0  0  0  0  0  0
   -3.2650   10.5577   11.2792 O   0  0  0  0  0  0  0  0  0  0  0  0
   -4.7174   14.0064    8.8378 O   0  0  0  0  0  0  0  0  0  0  0  0
    0.3303    9.1579    7.7672 O   0  0  0  0  0  0  0  0  0  0  0  0
   -3.9602   14.7961    7.8699 C   0  0  2  0  0  0  0  0  0  0  0  0
   -4.7621   16.0528    7.4267 C   0  0  1  0  0  0  0  0  0  0  0  0
   -5.9759   15.6747    6.5303 C   0  0  2  0  0  0  0  0  0  0  0  0
   -5.5344   14.7829    5.3337 C   0  0  1  0  0  0  0  0  0  0  0  0
   -4.7076   13.5591    5.8177 C   0  0  1  0  0  0  0  0  0  0  0  0
   -4.1450   12.7356    4.6295 C   0  0  0  0  0  0  0  0  0  0  0  0
   -3.6273   13.9913    6.6995 O   0  0  0  0  0  0  0  0  0  0  0  0
   -6.6934   14.3624    4.5163 N   0  0  0  0  0  0  0  0  0  0  0  0
   -5.1618   16.8182    8.5621 O   0  0  0  0  0  0  0  0  0  0  0  0
   -6.6640   16.8386    6.0774 O   0  0  0  0  0  0  0  0  0  0  0  0
   -5.1573   11.9136    4.0577 O   0  0  0  0  0  0  0  0  0  0  0  0
    1.5332    8.7828    8.4995 C   0  0  1  0  0  0  0  0  0  0  0  0
    1.6898    9.5946    9.8158 C   0  0  1  0  0  0  0  0  0  0  0  0
    3.0260    9.2491   10.5316 C   0  0  2  0  0  0  0  0  0  0  0  0
    3.1938    7.7136   10.7724 C   0  0  1  0  0  0  0  0  0  0  0  0
    2.9096    6.8648    9.4971 C   0  0  0  0  0  0  0  0  0  0  0  0
    1.5725    7.2574    8.7994 C   0  0  2  0  0  0  0  0  0  0  0  0
    4.5340    7.4111   11.3187 N   0  0  0  0  0  0  0  0  0  0  0  0
    1.4034    6.4453    7.5749 N   0  0  0  0  0  0  0  0  0  0  0  0
    1.5984   10.9929    9.5626 O   0  0  0  0  0  0  0  0  0  0  0  0
    3.1300    9.9609   11.7622 O   0  0  0  0  0  0  0  0  0  0  0  0
  1  2  1  0  0  0  0
  1 16  1  6  0  0  0
  2  3  1  0  0  0  0
  2 12  1  6  0  0  0
  4 11  1  6  0  0  0
  4  3  1  0  0  0  0
  5  4  1  0  0  0  0
  5 10  1  1  0  0  0
  6  7  1  0  0  0  0
  6  5  1  0  0  0  0
  6 14  1  6  0  0  0
  7  8  1  0  0  0  0
  7 13  1  1  0  0  0
  8 15  1  6  0  0  0
  8 11  1  0  0  0  0
  9 13  1  0  0  0  0
 10  1  1  0  0  0  0
 17 15  1  1  0  0  0
 17 18  1  0  0  0  0
 18 25  1  1  0  0  0
 19 18  1  0  0  0  0
 19 26  1  6  0  0  0
 20 19  1  0  0  0  0
 20 24  1  1  0  0  0
 21 23  1  0  0  0  0
 21 20  1  0  0  0  0
 21 22  1  6  0  0  0
 23 17  1  0  0  0  0
 27 22  1  0  0  0  0
 28 29  1  0  0  0  0
 28 16  1  1  0  0  0
 29 36  1  6  0  0  0
 30 37  1  1  0  0  0
 30 29  1  0  0  0  0
 31 30  1  0  0  0  0
 31 34  1  6  0  0  0
 32 31  1  0  0  0  0
 32 33  1  0  0  0  0
 33 28  1  0  0  0  0
 33 35  1  6  0  0  0
M  END
>  <CHROM.1>
-158.19897335,80.97750045,103.31495225,-174.68185385,169.65546935,-157.04307061
-85.03024941,175.55352622,-77.93100771,-156.06534026,-175.06623576,-76.90795656
58.03644244,178.62537448,74.08009466,-179.70016891,-1.99128466,11.43990117
8.37177763,0.13260474,0.75831597,-2.19308811

>  <Name>
lig.pdb

>  <RI>
0

>  <Rbt.Current_Directory>
/home/itssahil/PROJECTS/Mol_Feturizer/New_Systems/rnas/2m4q

>  <Rbt.Executable>
rbdock ($Id: //depot/dev/client3/rdock/2013.1/src/exe/rbdock.cxx#4 $)

>  <Rbt.Library>
libRbt.so (2013.1, Build901 2013/11/27)

>  <Rbt.Parameter_File>
/export/apps/rDock/src/rDock_2013.1_src/data/scripts/dock_solv.prm

>  <Rbt.Receptor>
prm/pocket_docking_6.prm

>  <SCORE>
-36.7111

>  <SCORE.INTER>
-19.0875

>  <SCORE.INTER.CONST>
1

>  <SCORE.INTER.POLAR>
-4.08371

>  <SCORE.INTER.ROT>
10

>  <SCORE.INTER.SOLV>
12.0452

>  <SCORE.INTER.VDW>
-13.3943

>  <SCORE.INTER.norm>
-0.515877

>  <SCORE.INTRA>
-17.6236

>  <SCORE.INTRA.DIHEDRAL>
-30.1945

>  <SCORE.INTRA.DIHEDRAL.0>
44.8331

>  <SCORE.INTRA.POLAR>
-0.850324

>  <SCORE.INTRA.POLAR.0>
-0.108895

>  <SCORE.INTRA.REPUL>
-0.00912235

>  <SCORE.INTRA.REPUL.0>
0.00912235

>  <SCORE.INTRA.SOLV>
-0.535535

>  <SCORE.INTRA.SOLV.lig_0>
-53.9067

>  <SCORE.INTRA.VDW>
0.678114

>  <SCORE.INTRA.VDW.0>
-2.93492

>  <SCORE.INTRA.norm>
-0.476314

>  <SCORE.RESTR>
0

>  <SCORE.RESTR.CAVITY>
0

>  <SCORE.RESTR.norm>
0

>  <SCORE.SYSTEM>
0

>  <SCORE.SYSTEM.CONST>
0

>  <SCORE.SYSTEM.DIHEDRAL>
0

>  <SCORE.SYSTEM.SOLV>
0

>  <SCORE.SYSTEM.norm>
0

>  <SCORE.heavy>
37

>  <SCORE.norm>
-0.992192

>  <RMSD>
11.056

$$$$
lig.pdb
 OpenBabel11021811453D
libRbt.so/2013.1/901 2013/11/27
 37 40  0  0  0  0  0  0  0  0999 V2000
   -1.9579    9.5154   10.4630 C   0  0  2  0  0  0  0  0  0  0  0  0
   -3.0195   10.3957   11.2015 C   0  0  1  0  0  0  0  0  0  0  0  0
   -3.5671   11.5620   10.3277 C   0  0  0  0  0  0  0  0  0  0  0  0
   -2.4115   12.3517    9.6644 C   0  0  1  0  0  0  0  0  0  0  0  0
   -1.5162   11.3904    8.8509 C   0  0  1  0  0  0  0  0  0  0  0  0
   -0.3752   12.1629    8.1361 C   0  0  1  0  0  0  0  0  0  0  0  0
   -0.9472   13.3327    7.2810 C   0  0  1  0  0  0  0  0  0  0  0  0
   -1.9115   14.2388    8.1028 C   0  0  2  0  0  0  0  0  0  0  0  0
   -0.2134   14.7846    5.4460 C   0  0  0  0  0  0  0  0  0  0  0  0
   -1.0033   10.3293    9.7070 O   0  0  0  0  0  0  0  0  0  0  0  0
   -2.8965   13.4468    8.8351 O   0  0  0  0  0  0  0  0  0  0  0  0
   -4.1421    9.5472   11.6569 N   0  0  0  0  0  0  0  0  0  0  0  0
    0.1728   14.1007    6.6991 N   0  0  0  0  0  0  0  0  0  0  0  0
    0.5935   12.6303    9.0659 O   0  0  0  0  0  0  0  0  0  0  0  0
   -2.5572   15.2146    7.2337 O   0  0  0  0  0  0  0  0  0  0  0  0
   -2.5993    8.5373    9.5886 O   0  0  0  0  0  0  0  0  0  0  0  0
   -3.6904   15.9727    7.7581 C   0  0  2  0  0  0  0  0  0  0  0  0
   -4.1018   17.1089    6.7791 C   0  0  1  0  0  0  0  0  0  0  0  0
   -3.0453   18.2502    6.7449 C   0  0  2  0  0  0  0  0  0  0  0  0
   -2.7311   18.7679    8.1784 C   0  0  1  0  0  0  0  0  0  0  0  0
   -2.3589   17.5980    9.1315 C   0  0  1  0  0  0  0  0  0  0  0  0
   -2.1761   18.0804   10.5944 C   0  0  0  0  0  0  0  0  0  0  0  0
   -3.3666   16.5439    9.0609 O   0  0  0  0  0  0  0  0  0  0  0  0
   -1.6766   19.8053    8.1595 N   0  0  0  0  0  0  0  0  0  0  0  0
   -4.3531   16.5821    5.4775 O   0  0  0  0  0  0  0  0  0  0  0  0
   -3.4649   19.3150    5.8943 O   0  0  0  0  0  0  0  0  0  0  0  0
   -1.8813   16.9860   11.4562 O   0  0  0  0  0  0  0  0  0  0  0  0
   -1.7740    7.4602    9.0571 C   0  0  1  0  0  0  0  0  0  0  0  0
   -0.9777    7.9045    7.7983 C   0  0  1  0  0  0  0  0  0  0  0  0
   -0.1803    6.7158    7.1913 C   0  0  2  0  0  0  0  0  0  0  0  0
    0.7396    6.0156    8.2435 C   0  0  1  0  0  0  0  0  0  0  0  0
   -0.0035    5.6799    9.5713 C   0  0  0  0  0  0  0  0  0  0  0  0
   -0.8064    6.8914   10.1336 C   0  0  2  0  0  0  0  0  0  0  0  0
    1.3668    4.8056    7.6703 N   0  0  0  0  0  0  0  0  0  0  0  0
   -1.5211    6.4770   11.3603 N   0  0  0  0  0  0  0  0  0  0  0  0
   -1.8454    8.4800    6.8269 O   0  0  0  0  0  0  0  0  0  0  0  0
    0.5857    7.1508    6.0707 O   0  0  0  0  0  0  0  0  0  0  0  0
  1  2  1  0  0  0  0
  1 16  1  6  0  0  0
  2  3  1  0  0  0  0
  2 12  1  6  0  0  0
  4 11  1  6  0  0  0
  4  3  1  0  0  0  0
  5  4  1  0  0  0  0
  5 10  1  1  0  0  0
  6  7  1  0  0  0  0
  6  5  1  0  0  0  0
  6 14  1  1  0  0  0
  7  8  1  0  0  0  0
  7 13  1  1  0  0  0
  8 15  1  6  0  0  0
  8 11  1  0  0  0  0
  9 13  1  0  0  0  0
 10  1  1  0  0  0  0
 17 15  1  6  0  0  0
 17 18  1  0  0  0  0
 18 25  1  6  0  0  0
 19 18  1  0  0  0  0
 19 26  1  6  0  0  0
 20 19  1  0  0  0  0
 20 24  1  6  0  0  0
 21 23  1  0  0  0  0
 21 20  1  0  0  0  0
 21 22  1  1  0  0  0
 23 17  1  0  0  0  0
 27 22  1  0  0  0  0
 28 29  1  0  0  0  0
 28 16  1  1  0  0  0
 29 36  1  6  0  0  0
 30 37  1  6  0  0  0
 30 29  1  0  0  0  0
 31 30  1  0  0  0  0
 31 34  1  6  0  0  0
 32 31  1  0  0  0  0
 32 33  1  0  0  0  0
 33 28  1  0  0  0  0
 33 35  1  1  0  0  0
M  END
>  <CHROM.1>
72.34155438,167.80630708,153.72367773,-174.39202204,171.13723154,-166.98518411
-178.65235688,57.70841610,177.99577952,45.87621708,-57.47103552,-82.62360565
60.74013639,-58.48846157,54.46179316,60.37761243,-1.77904613,12.36313504
8.50299439,1.14029461,-1.10016518,2.65444156

>  <Name>
lig.pdb

>  <RI>
3.60165e+07

>  <Rbt.Current_Directory>
/home/itssahil/PROJECTS/Mol_Feturizer/New_Systems/rnas/2m4q

>  <Rbt.Executable>
rbdock ($Id: //depot/dev/client3/rdock/2013.1/src/exe/rbdock.cxx#4 $)

>  <Rbt.Library>
libRbt.so (2013.1, Build901 2013/11/27)

>  <Rbt.Parameter_File>
/export/apps/rDock/src/rDock_2013.1_src/data/scripts/dock_solv.prm

>  <Rbt.Receptor>
prm/pocket_docking_8.prm

>  <SCORE>
-44.7205

>  <SCORE.INTER>
-23.902

>  <SCORE.INTER.CONST>
1

>  <SCORE.INTER.POLAR>
-3.40565

>  <SCORE.INTER.ROT>
10

>  <SCORE.INTER.SOLV>
17.6554

>  <SCORE.INTER.VDW>
-20.7343

>  <SCORE.INTER.norm>
-0.646

>  <SCORE.INTRA>
-20.8186

>  <SCORE.INTRA.DIHEDRAL>
-38.1845

>  <SCORE.INTRA.DIHEDRAL.0>
44.8331

>  <SCORE.INTRA.POLAR>
-0.181826

>  <SCORE.INTRA.POLAR.0>
-0.108895

>  <SCORE.INTRA.REPUL>
-0.00912235

>  <SCORE.INTRA.REPUL.0>
0.00912235

>  <SCORE.INTRA.SOLV>
-1.43917

>  <SCORE.INTRA.SOLV.lig_0>
-53.9067

>  <SCORE.INTRA.VDW>
-0.34291

>  <SCORE.INTRA.VDW.0>
-2.93492

>  <SCORE.INTRA.norm>
-0.562664

>  <SCORE.RESTR>
0

>  <SCORE.RESTR.CAVITY>
0

>  <SCORE.RESTR.norm>
0

>  <SCORE.SYSTEM>
0

>  <SCORE.SYSTEM.CONST>
0

>  <SCORE.SYSTEM.DIHEDRAL>
0

>  <SCORE.SYSTEM.SOLV>
0

>  <SCORE.SYSTEM.norm>
0

>  <SCORE.heavy>
37

>  <SCORE.norm>
-1.20866

>  <RMSD>
11.130

$$$$
lig.pdb
 OpenBabel11021811453D
libRbt.so/2013.1/901 2013/11/27
 37 40  0  0  0  0  0  0  0  0999 V2000
   -2.5964   10.5584   11.5841 C   0  0  2  0  0  0  0  0  0  0  0  0
   -3.2690   11.7847   12.2848 C   0  0  1  0  0  0  0  0  0  0  0  0
   -4.1927   12.6047   11.3371 C   0  0  0  0  0  0  0  0  0  0  0  0
   -3.4763   12.9274   10.0023 C   0  0  1  0  0  0  0  0  0  0  0  0
   -2.9823   11.6212    9.3411 C   0  0  1  0  0  0  0  0  0  0  0  0
   -2.3007   11.9109    7.9769 C   0  0  1  0  0  0  0  0  0  0  0  0
   -3.2383   12.7443    7.0533 C   0  0  1  0  0  0  0  0  0  0  0  0
   -3.7882   14.0122    7.7717 C   0  0  2  0  0  0  0  0  0  0  0  0
   -2.5287   11.9656    4.8388 C   0  0  0  0  0  0  0  0  0  0  0  0
   -2.1021   10.8959   10.2474 O   0  0  0  0  0  0  0  0  0  0  0  0
   -4.3211   13.6900    9.0931 O   0  0  0  0  0  0  0  0  0  0  0  0
   -4.0436   11.3263   13.4585 N   0  0  0  0  0  0  0  0  0  0  0  0
   -2.5175   13.0821    5.8085 N   0  0  0  0  0  0  0  0  0  0  0  0
   -1.0456   12.5553    8.1531 O   0  0  0  0  0  0  0  0  0  0  0  0
   -4.7897   14.6722    6.9435 O   0  0  0  0  0  0  0  0  0  0  0  0
   -3.5105    9.4214   11.5181 O   0  0  0  0  0  0  0  0  0  0  0  0
   -5.4666   15.8521    7.4760 C   0  0  2  0  0  0  0  0  0  0  0  0
   -5.5325   16.9845    6.4120 C   0  0  1  0  0  0  0  0  0  0  0  0
   -4.1325   17.6096    6.1491 C   0  0  2  0  0  0  0  0  0  0  0  0
   -3.4612   18.0631    7.4778 C   0  0  1  0  0  0  0  0  0  0  0  0
   -3.4476   16.9135    8.5236 C   0  0  1  0  0  0  0  0  0  0  0  0
   -2.9063   17.3886    9.8975 C   0  0  0  0  0  0  0  0  0  0  0  0
   -4.7829   16.3413    8.6684 O   0  0  0  0  0  0  0  0  0  0  0  0
   -2.1010   18.5950    7.2423 N   0  0  0  0  0  0  0  0  0  0  0  0
   -6.1326   16.5074    5.2091 O   0  0  0  0  0  0  0  0  0  0  0  0
   -4.2166   18.6891    5.2211 O   0  0  0  0  0  0  0  0  0  0  0  0
   -3.3226   16.5103   10.9380 O   0  0  0  0  0  0  0  0  0  0  0  0
   -2.9755    8.1487   11.0513 C   0  0  1  0  0  0  0  0  0  0  0  0
   -2.3245    8.2720    9.6452 C   0  0  1  0  0  0  0  0  0  0  0  0
   -1.8477    6.8866    9.1251 C   0  0  2  0  0  0  0  0  0  0  0  0
   -0.9059    6.1606   10.1398 C   0  0  1  0  0  0  0  0  0  0  0  0
   -1.4758    6.1414   11.5898 C   0  0  0  0  0  0  0  0  0  0  0  0
   -1.9611    7.5446   12.0635 C   0  0  2  0  0  0  0  0  0  0  0  0
   -0.5929    4.7911    9.6786 N   0  0  0  0  0  0  0  0  0  0  0  0
   -2.5328    7.4307   13.4228 N   0  0  0  0  0  0  0  0  0  0  0  0
   -3.2240    8.8767    8.7217 O   0  0  0  0  0  0  0  0  0  0  0  0
   -1.2058    7.0239    7.8598 O   0  0  0  0  0  0  0  0  0  0  0  0
  1  2  1  0  0  0  0
  1 16  1  6  0  0  0
  2  3  1  0  0  0  0
  2 12  1  1  0  0  0
  4 11  1  6  0  0  0
  4  3  1  0  0  0  0
  5  4  1  0  0  0  0
  5 10  1  1  0  0  0
  6  7  1  0  0  0  0
  6  5  1  0  0  0  0
  6 14  1  1  0  0  0
  7  8  1  0  0  0  0
  7 13  1  6  0  0  0
  8 15  1  6  0  0  0
  8 11  1  0  0  0  0
  9 13  1  0  0  0  0
 10  1  1  0  0  0  0
 17 15  1  6  0  0  0
 17 18  1  0  0  0  0
 18 25  1  6  0  0  0
 19 18  1  0  0  0  0
 19 26  1  6  0  0  0
 20 19  1  0  0  0  0
 20 24  1  6  0  0  0
 21 23  1  0  0  0  0
 21 20  1  0  0  0  0
 21 22  1  1  0  0  0
 23 17  1  0  0  0  0
 27 22  1  0  0  0  0
 28 29  1  0  0  0  0
 28 16  1  1  0  0  0
 29 36  1  6  0  0  0
 30 37  1  6  0  0  0
 30 29  1  0  0  0  0
 31 30  1  0  0  0  0
 31 34  1  6  0  0  0
 32 31  1  0  0  0  0
 32 33  1  0  0  0  0
 33 28  1  0  0  0  0
 33 35  1  1  0  0  0
M  END
>  <CHROM.1>
109.29437978,177.30947562,81.19694310,-171.75679705,134.64696131,-172.17254336
177.74082971,-68.45842575,159.59315683,29.87897648,-47.51870880,-56.18939601
-178.55536004,-165.49094103,136.90940264,157.45698770,-3.11589547,12.36050986
8.99184897,0.68782689,-1.30081756,1.91173585

>  <Name>
lig.pdb

>  <RI>
3.60165e+07

>  <Rbt.Current_Directory>
/home/itssahil/PROJECTS/Mol_Feturizer/New_Systems/rnas/2m4q

>  <Rbt.Executable>
rbdock ($Id: //depot/dev/client3/rdock/2013.1/src/exe/rbdock.cxx#4 $)

>  <Rbt.Library>
libRbt.so (2013.1, Build901 2013/11/27)

>  <Rbt.Parameter_File>
/export/apps/rDock/src/rDock_2013.1_src/data/scripts/dock_solv.prm

>  <Rbt.Receptor>
prm/pocket_docking_8.prm

>  <SCORE>
-43.9208

>  <SCORE.INTER>
-30.2799

>  <SCORE.INTER.CONST>
1

>  <SCORE.INTER.POLAR>
-5.39061

>  <SCORE.INTER.ROT>
10

>  <SCORE.INTER.SOLV>
16.1335

>  <SCORE.INTER.VDW>
-17.8624

>  <SCORE.INTER.norm>
-0.818375

>  <SCORE.INTRA>
-13.641

>  <SCORE.INTRA.DIHEDRAL>
-27.1287

>  <SCORE.INTRA.DIHEDRAL.0>
44.8331

>  <SCORE.INTRA.POLAR>
-0.464811

>  <SCORE.INTRA.POLAR.0>
-0.108895

>  <SCORE.INTRA.REPUL>
-0.00912235

>  <SCORE.INTRA.REPUL.0>
0.00912235

>  <SCORE.INTRA.SOLV>
-0.149723

>  <SCORE.INTRA.SOLV.lig_0>
-53.9067

>  <SCORE.INTRA.VDW>
1.62421

>  <SCORE.INTRA.VDW.0>
-2.93492

>  <SCORE.INTRA.norm>
-0.368675

>  <SCORE.RESTR>
0

>  <SCORE.RESTR.CAVITY>
0

>  <SCORE.RESTR.norm>
0

>  <SCORE.SYSTEM>
0

>  <SCORE.SYSTEM.CONST>
0

>  <SCORE.SYSTEM.DIHEDRAL>
0

>  <SCORE.SYSTEM.SOLV>
0

>  <SCORE.SYSTEM.norm>
0

>  <SCORE.heavy>
37

>  <SCORE.norm>
-1.18705

>  <RMSD>
11.358

$$$$
lig.pdb
 OpenBabel11021811453D
libRbt.so/2013.1/901 2013/11/27
 37 40  0  0  0  0  0  0  0  0999 V2000
    1.7943   11.0604    7.5194 C   0  0  2  0  0  0  0  0  0  0  0  0
    2.2451   12.5577    7.5646 C   0  0  1  0  0  0  0  0  0  0  0  0
    1.0544   13.5602    7.5324 C   0  0  0  0  0  0  0  0  0  0  0  0
    0.0623   13.2110    6.3954 C   0  0  1  0  0  0  0  0  0  0  0  0
   -0.4159   11.7494    6.5447 C   0  0  1  0  0  0  0  0  0  0  0  0
   -1.4485   11.3862    5.4440 C   0  0  1  0  0  0  0  0  0  0  0  0
   -2.6212   12.4114    5.4225 C   0  0  1  0  0  0  0  0  0  0  0  0
   -2.1099   13.8812    5.3552 C   0  0  2  0  0  0  0  0  0  0  0  0
   -4.5245   11.0607    4.6695 C   0  0  0  0  0  0  0  0  0  0  0  0
    0.7230   10.8412    6.5449 O   0  0  0  0  0  0  0  0  0  0  0  0
   -1.0662   14.1309    6.3461 O   0  0  0  0  0  0  0  0  0  0  0  0
    3.0627   12.7967    8.7737 N   0  0  0  0  0  0  0  0  0  0  0  0
   -3.5271   12.0884    4.3008 N   0  0  0  0  0  0  0  0  0  0  0  0
   -0.8293   11.2848    4.1681 O   0  0  0  0  0  0  0  0  0  0  0  0
   -3.2197   14.8136    5.5087 O   0  0  0  0  0  0  0  0  0  0  0  0
    1.3857   10.5920    8.8408 O   0  0  0  0  0  0  0  0  0  0  0  0
   -3.8055   14.9872    6.8356 C   0  0  2  0  0  0  0  0  0  0  0  0
   -4.9761   16.0104    6.7984 C   0  0  1  0  0  0  0  0  0  0  0  0
   -4.4651   17.4618    6.5703 C   0  0  2  0  0  0  0  0  0  0  0  0
   -3.3623   17.8378    7.6021 C   0  0  1  0  0  0  0  0  0  0  0  0
   -2.2309   16.7726    7.6313 C   0  0  1  0  0  0  0  0  0  0  0  0
   -1.1945   17.0613    8.7488 C   0  0  0  0  0  0  0  0  0  0  0  0
   -2.7950   15.4352    7.7878 O   0  0  0  0  0  0  0  0  0  0  0  0
   -2.8229   19.1916    7.3477 N   0  0  0  0  0  0  0  0  0  0  0  0
   -5.9427   15.6306    5.8206 O   0  0  0  0  0  0  0  0  0  0  0  0
   -5.5406   18.3976    6.6036 O   0  0  0  0  0  0  0  0  0  0  0  0
   -0.3178   18.1163    8.3673 O   0  0  0  0  0  0  0  0  0  0  0  0
    1.0606    9.1790    8.9878 C   0  0  1  0  0  0  0  0  0  0  0  0
   -0.2376    8.7980    8.2225 C   0  0  1  0  0  0  0  0  0  0  0  0
   -0.6188    7.3114    8.4711 C   0  0  2  0  0  0  0  0  0  0  0  0
    0.5557    6.3322    8.1464 C   0  0  1  0  0  0  0  0  0  0  0  0
    1.9047    6.7668    8.7939 C   0  0  0  0  0  0  0  0  0  0  0  0
    2.2380    8.2677    8.5385 C   0  0  2  0  0  0  0  0  0  0  0  0
    0.2077    4.9482    8.5328 N   0  0  0  0  0  0  0  0  0  0  0  0
    3.5012    8.6116    9.2265 N   0  0  0  0  0  0  0  0  0  0  0  0
   -1.3103    9.6624    8.5827 O   0  0  0  0  0  0  0  0  0  0  0  0
   -1.7798    6.9631    7.7211 O   0  0  0  0  0  0  0  0  0  0  0  0
  1  2  1  0  0  0  0
  1 16  1  1  0  0  0
  2  3  1  0  0  0  0
  2 12  1  1  0  0  0
  4 11  1  1  0  0  0
  4  3  1  0  0  0  0
  5  4  1  0  0  0  0
  5 10  1  6  0  0  0
  6  7  1  0  0  0  0
  6  5  1  0  0  0  0
  6 14  1  6  0  0  0
  7  8  1  0  0  0  0
  7 13  1  6  0  0  0
  8 15  1  1  0  0  0
  8 11  1  0  0  0  0
  9 13  1  0  0  0  0
 10  1  1  0  0  0  0
 17 15  1  6  0  0  0
 17 18  1  0  0  0  0
 18 25  1  6  0  0  0
 19 18  1  0  0  0  0
 19 26  1  1  0  0  0
 20 19  1  0  0  0  0
 20 24  1  6  0  0  0
 21 23  1  0  0  0  0
 21 20  1  0  0  0  0
 21 22  1  1  0  0  0
 23 17  1  0  0  0  0
 27 22  1  0  0  0  0
 28 29  1  0  0  0  0
 28 16  1  6  0  0  0
 29 36  1  1  0  0  0
 30 37  1  6  0  0  0
 30 29  1  0  0  0  0
 31 30  1  0  0  0  0
 31 34  1  1  0  0  0
 32 31  1  0  0  0  0
 32 33  1  0  0  0  0
 33 28  1  0  0  0  0
 33 35  1  1  0  0  0
M  END
>  <CHROM.1>
78.48577138,74.12561235,84.98216049,151.21984749,-179.67530236,-174.21832817
-178.45134576,-172.72229874,-76.84500166,-52.62234858,-178.13053811,-68.03334615
-57.10610525,66.15131827,177.22969957,-173.74835543,-1.14587553,12.49153749
7.19036709,-1.04744318,-0.46852039,0.09357981

>  <Name>
lig.pdb

>  <RI>
3.60165e+07

>  <Rbt.Current_Directory>
/home/itssahil/PROJECTS/Mol_Feturizer/New_Systems/rnas/2m4q

>  <Rbt.Executable>
rbdock ($Id: //depot/dev/client3/rdock/2013.1/src/exe/rbdock.cxx#4 $)

>  <Rbt.Library>
libRbt.so (2013.1, Build901 2013/11/27)

>  <Rbt.Parameter_File>
/export/apps/rDock/src/rDock_2013.1_src/data/scripts/dock_solv.prm

>  <Rbt.Receptor>
prm/pocket_docking_8.prm

>  <SCORE>
-37.9406

>  <SCORE.INTER>
-18.2834

>  <SCORE.INTER.CONST>
1

>  <SCORE.INTER.POLAR>
-3.5633

>  <SCORE.INTER.ROT>
10

>  <SCORE.INTER.SOLV>
12.7558

>  <SCORE.INTER.VDW>
-14.8298

>  <SCORE.INTER.norm>
-0.494145

>  <SCORE.INTRA>
-19.6573

>  <SCORE.INTRA.DIHEDRAL>
-36.2255

>  <SCORE.INTRA.DIHEDRAL.0>
44.8331

>  <SCORE.INTRA.POLAR>
-0.0647344

>  <SCORE.INTRA.POLAR.0>
-0.108895

>  <SCORE.INTRA.REPUL>
-0.00912235

>  <SCORE.INTRA.REPUL.0>
0.00912235

>  <SCORE.INTRA.SOLV>
-0.667011

>  <SCORE.INTRA.SOLV.lig_0>
-53.9067

>  <SCORE.INTRA.VDW>
-0.94529

>  <SCORE.INTRA.VDW.0>
-2.93492

>  <SCORE.INTRA.norm>
-0.531277

>  <SCORE.RESTR>
0

>  <SCORE.RESTR.CAVITY>
0

>  <SCORE.RESTR.norm>
0

>  <SCORE.SYSTEM>
0

>  <SCORE.SYSTEM.CONST>
0

>  <SCORE.SYSTEM.DIHEDRAL>
0

>  <SCORE.SYSTEM.SOLV>
0

>  <SCORE.SYSTEM.norm>
0

>  <SCORE.heavy>
37

>  <SCORE.norm>
-1.02542

>  <RMSD>
11.381

$$$$
lig.pdb
 OpenBabel11021811453D
libRbt.so/2013.1/901 2013/11/27
 37 40  0  0  0  0  0  0  0  0999 V2000
    0.4843    9.4375    7.9238 C   0  0  2  0  0  0  0  0  0  0  0  0
    1.3642   10.4766    7.1536 C   0  0  1  0  0  0  0  0  0  0  0  0
    0.8417   11.9379    7.2784 C   0  0  0  0  0  0  0  0  0  0  0  0
   -0.6753   12.0152    6.9760 C   0  0  1  0  0  0  0  0  0  0  0  0
   -1.4460   11.0446    7.8987 C   0  0  1  0  0  0  0  0  0  0  0  0
   -2.9755   11.1356    7.6494 C   0  0  1  0  0  0  0  0  0  0  0  0
   -3.4705   12.6081    7.7652 C   0  0  1  0  0  0  0  0  0  0  0  0
   -2.6242   13.5786    6.8888 C   0  0  2  0  0  0  0  0  0  0  0  0
   -5.1343   12.6278    5.9638 C   0  0  0  0  0  0  0  0  0  0  0  0
   -0.9466    9.6859    7.7349 O   0  0  0  0  0  0  0  0  0  0  0  0
   -1.1923   13.3722    7.0914 O   0  0  0  0  0  0  0  0  0  0  0  0
    2.7599   10.4054    7.6377 N   0  0  0  0  0  0  0  0  0  0  0  0
   -4.9071   12.6648    7.4246 N   0  0  0  0  0  0  0  0  0  0  0  0
   -3.3286   10.5705    6.3934 O   0  0  0  0  0  0  0  0  0  0  0  0
   -3.0021   14.9617    7.1512 O   0  0  0  0  0  0  0  0  0  0  0  0
    0.8152    9.4168    9.3460 O   0  0  0  0  0  0  0  0  0  0  0  0
   -2.0926   16.0244    6.7300 C   0  0  2  0  0  0  0  0  0  0  0  0
   -2.4517   17.3712    7.4199 C   0  0  1  0  0  0  0  0  0  0  0  0
   -3.7817   17.9626    6.8712 C   0  0  2  0  0  0  0  0  0  0  0  0
   -3.7529   18.0643    5.3185 C   0  0  1  0  0  0  0  0  0  0  0  0
   -3.3566   16.7078    4.6719 C   0  0  1  0  0  0  0  0  0  0  0  0
   -3.1905   16.8274    3.1342 C   0  0  0  0  0  0  0  0  0  0  0  0
   -2.1346   16.1913    5.2812 O   0  0  0  0  0  0  0  0  0  0  0  0
   -5.0404   18.5610    4.7853 N   0  0  0  0  0  0  0  0  0  0  0  0
   -2.4881   17.2140    8.8371 O   0  0  0  0  0  0  0  0  0  0  0  0
   -4.0659   19.2279    7.4640 O   0  0  0  0  0  0  0  0  0  0  0  0
   -4.4345   17.1318    2.5119 O   0  0  0  0  0  0  0  0  0  0  0  0
    0.2214    8.3672   10.1643 C   0  0  1  0  0  0  0  0  0  0  0  0
   -1.3010    8.5917   10.3835 C   0  0  1  0  0  0  0  0  0  0  0  0
   -1.8944    7.5164   11.3369 C   0  0  2  0  0  0  0  0  0  0  0  0
   -1.5844    6.0603   10.8600 C   0  0  1  0  0  0  0  0  0  0  0  0
   -0.0829    5.8451   10.5036 C   0  0  0  0  0  0  0  0  0  0  0  0
    0.4769    6.9555    9.5641 C   0  0  2  0  0  0  0  0  0  0  0  0
   -2.0345    5.0720   11.8633 N   0  0  0  0  0  0  0  0  0  0  0  0
    1.9139    6.7079    9.3172 N   0  0  0  0  0  0  0  0  0  0  0  0
   -1.5537    9.9022   10.8796 O   0  0  0  0  0  0  0  0  0  0  0  0
   -3.2996    7.7037   11.4854 O   0  0  0  0  0  0  0  0  0  0  0  0
  1  2  1  0  0  0  0
  1 16  1  1  0  0  0
  2  3  1  0  0  0  0
  2 12  1  1  0  0  0
  4 11  1  1  0  0  0
  4  3  1  0  0  0  0
  5  4  1  0  0  0  0
  5 10  1  6  0  0  0
  6  7  1  0  0  0  0
  6  5  1  0  0  0  0
  6 14  1  6  0  0  0
  7  8  1  0  0  0  0
  7 13  1  6  0  0  0
  8 15  1  1  0  0  0
  8 11  1  0  0  0  0
  9 13  1  0  0  0  0
 10  1  1  0  0  0  0
 17 15  1  6  0  0  0
 17 18  1  0  0  0  0
 18 25  1  1  0  0  0
 19 18  1  0  0  0  0
 19 26  1  1  0  0  0
 20 19  1  0  0  0  0
 20 24  1  6  0  0  0
 21 23  1  0  0  0  0
 21 20  1  0  0  0  0
 21 22  1  6  0  0  0
 23 17  1  0  0  0  0
 27 22  1  0  0  0  0
 28 29  1  0  0  0  0
 28 16  1  6  0  0  0
 29 36  1  1  0  0  0
 30 37  1  6  0  0  0
 30 29  1  0  0  0  0
 31 30  1  0  0  0  0
 31 34  1  1  0  0  0
 32 31  1  0  0  0  0
 32 33  1  0  0  0  0
 33 28  1  0  0  0  0
 33 35  1  1  0  0  0
M  END
>  <CHROM.1>
76.21314028,162.91822533,-78.69052543,88.43772931,-164.44508748,-171.27962677
-176.27514631,164.91106291,-65.45331881,-47.35529267,-176.76581205,-71.50399393
-177.46687186,54.48530235,177.89409534,-170.02284520,-1.91263274,12.19216672
7.77064454,-1.27006316,0.32152312,-0.53216446

>  <Name>
lig.pdb

>  <RI>
3.60165e+07

>  <Rbt.Current_Directory>
/home/itssahil/PROJECTS/Mol_Feturizer/New_Systems/rnas/2m4q

>  <Rbt.Executable>
rbdock ($Id: //depot/dev/client3/rdock/2013.1/src/exe/rbdock.cxx#4 $)

>  <Rbt.Library>
libRbt.so (2013.1, Build901 2013/11/27)

>  <Rbt.Parameter_File>
/export/apps/rDock/src/rDock_2013.1_src/data/scripts/dock_solv.prm

>  <Rbt.Receptor>
prm/pocket_docking_8.prm

>  <SCORE>
-37.0213

>  <SCORE.INTER>
-22.6066

>  <SCORE.INTER.CONST>
1

>  <SCORE.INTER.POLAR>
-5.17935

>  <SCORE.INTER.ROT>
10

>  <SCORE.INTER.SOLV>
10.613

>  <SCORE.INTER.VDW>
-11.6109

>  <SCORE.INTER.norm>
-0.610988

>  <SCORE.INTRA>
-14.4148

>  <SCORE.INTRA.DIHEDRAL>
-34.6269

>  <SCORE.INTRA.DIHEDRAL.0>
44.8331

>  <SCORE.INTRA.POLAR>
-0.0540545

>  <SCORE.INTRA.POLAR.0>
-0.108895

>  <SCORE.INTRA.REPUL>
-0.00912235

>  <SCORE.INTRA.REPUL.0>
0.00912235

>  <SCORE.INTRA.SOLV>
-0.765007

>  <SCORE.INTRA.SOLV.lig_0>
-53.9067

>  <SCORE.INTRA.VDW>
3.51061

>  <SCORE.INTRA.VDW.0>
-2.93492

>  <SCORE.INTRA.norm>
-0.389588

>  <SCORE.RESTR>
0

>  <SCORE.RESTR.CAVITY>
0

>  <SCORE.RESTR.norm>
0

>  <SCORE.SYSTEM>
0

>  <SCORE.SYSTEM.CONST>
0

>  <SCORE.SYSTEM.DIHEDRAL>
0

>  <SCORE.SYSTEM.SOLV>
0

>  <SCORE.SYSTEM.norm>
0

>  <SCORE.heavy>
37

>  <SCORE.norm>
-1.00058

>  <RMSD>
11.389

$$$$
lig.pdb
 OpenBabel11021811453D
libRbt.so/2013.1/901 2013/11/27
 37 40  0  0  0  0  0  0  0  0999 V2000
   -0.3103    7.4377    7.4796 C   0  0  2  0  0  0  0  0  0  0  0  0
   -0.9789    7.5011    6.0667 C   0  0  1  0  0  0  0  0  0  0  0  0
   -1.5276    8.9133    5.7084 C   0  0  0  0  0  0  0  0  0  0  0  0
   -2.3854    9.4875    6.8631 C   0  0  1  0  0  0  0  0  0  0  0  0
   -1.5646    9.5009    8.1721 C   0  0  1  0  0  0  0  0  0  0  0  0
   -2.3850   10.1158    9.3376 C   0  0  1  0  0  0  0  0  0  0  0  0
   -2.9349   11.5206    8.9492 C   0  0  1  0  0  0  0  0  0  0  0  0
   -3.6869   11.4961    7.5854 C   0  0  2  0  0  0  0  0  0  0  0  0
   -3.9020   13.5008   10.0249 C   0  0  0  0  0  0  0  0  0  0  0  0
   -1.0909    8.1597    8.4868 O   0  0  0  0  0  0  0  0  0  0  0  0
   -2.9073   10.8125    6.5564 O   0  0  0  0  0  0  0  0  0  0  0  0
   -0.0103    7.0686    5.0360 N   0  0  0  0  0  0  0  0  0  0  0  0
   -3.7892   12.0264   10.0435 N   0  0  0  0  0  0  0  0  0  0  0  0
   -3.4338    9.2468    9.7456 O   0  0  0  0  0  0  0  0  0  0  0  0
   -4.0367   12.8496    7.1728 O   0  0  0  0  0  0  0  0  0  0  0  0
    1.0598    7.9415    7.4383 O   0  0  0  0  0  0  0  0  0  0  0  0
   -5.4148   13.1215    6.7717 C   0  0  2  0  0  0  0  0  0  0  0  0
   -5.6113   12.8737    5.2490 C   0  0  1  0  0  0  0  0  0  0  0  0
   -4.8943   13.9562    4.3922 C   0  0  2  0  0  0  0  0  0  0  0  0
   -5.3120   15.3891    4.8332 C   0  0  1  0  0  0  0  0  0  0  0  0
   -5.1327   15.5822    6.3649 C   0  0  1  0  0  0  0  0  0  0  0  0
   -5.6718   16.9567    6.8409 C   0  0  0  0  0  0  0  0  0  0  0  0
   -5.7811   14.4964    7.0942 O   0  0  0  0  0  0  0  0  0  0  0  0
   -4.5817   16.4242    4.0693 N   0  0  0  0  0  0  0  0  0  0  0  0
   -5.1903   11.5570    4.8973 O   0  0  0  0  0  0  0  0  0  0  0  0
   -5.1362   13.7555    3.0013 O   0  0  0  0  0  0  0  0  0  0  0  0
   -5.3754   17.1688    8.2173 O   0  0  0  0  0  0  0  0  0  0  0  0
    1.9511    7.5699    8.5298 C   0  0  1  0  0  0  0  0  0  0  0  0
    2.6923    6.2334    8.2461 C   0  0  1  0  0  0  0  0  0  0  0  0
    3.5626    5.8063    9.4616 C   0  0  2  0  0  0  0  0  0  0  0  0
    4.5478    6.9324    9.9146 C   0  0  1  0  0  0  0  0  0  0  0  0
    3.8530    8.3176   10.0765 C   0  0  0  0  0  0  0  0  0  0  0  0
    2.9749    8.6970    8.8462 C   0  0  2  0  0  0  0  0  0  0  0  0
    5.2504    6.5470   11.1571 N   0  0  0  0  0  0  0  0  0  0  0  0
    2.3124    9.9946    9.1002 N   0  0  0  0  0  0  0  0  0  0  0  0
    1.7695    5.2060    7.8990 O   0  0  0  0  0  0  0  0  0  0  0  0
    4.2766    4.6085    9.1663 O   0  0  0  0  0  0  0  0  0  0  0  0
  1  2  1  0  0  0  0
  1 16  1  6  0  0  0
  2  3  1  0  0  0  0
  2 12  1  6  0  0  0
  4 11  1  6  0  0  0
  4  3  1  0  0  0  0
  5  4  1  0  0  0  0
  5 10  1  1  0  0  0
  6  7  1  0  0  0  0
  6  5  1  0  0  0  0
  6 14  1  6  0  0  0
  7  8  1  0  0  0  0
  7 13  1  1  0  0  0
  8 15  1  6  0  0  0
  8 11  1  0  0  0  0
  9 13  1  0  0  0  0
 10  1  1  0  0  0  0
 17 15  1  6  0  0  0
 17 18  1  0  0  0  0
 18 25  1  6  0  0  0
 19 18  1  0  0  0  0
 19 26  1  6  0  0  0
 20 19  1  0  0  0  0
 20 24  1  6  0  0  0
 21 23  1  0  0  0  0
 21 20  1  0  0  0  0
 21 22  1  1  0  0  0
 23 17  1  0  0  0  0
 27 22  1  0  0  0  0
 28 29  1  0  0  0  0
 28 16  1  6  0  0  0
 29 36  1  1  0  0  0
 30 37  1  6  0  0  0
 30 29  1  0  0  0  0
 31 30  1  0  0  0  0
 31 34  1  1  0  0  0
 32 31  1  0  0  0  0
 32 33  1  0  0  0  0
 33 28  1  0  0  0  0
 33 35  1  1  0  0  0
M  END
>  <CHROM.1>
-151.76633840,-129.72762530,157.00662011,57.38444602,-89.20119061,-160.90480209
163.48373884,33.74141915,-174.07107661,173.91428752,-81.07661852,88.74531300
87.83006737,-61.14672396,72.17649473,-41.23972184,-1.60972051,10.51140428
7.52301608,0.22571285,0.78444502,-2.22642401

>  <Name>
lig.pdb

>  <RI>
0

>  <Rbt.Current_Directory>
/home/itssahil/PROJECTS/Mol_Feturizer/New_Systems/rnas/2m4q

>  <Rbt.Executable>
rbdock ($Id: //depot/dev/client3/rdock/2013.1/src/exe/rbdock.cxx#4 $)

>  <Rbt.Library>
libRbt.so (2013.1, Build901 2013/11/27)

>  <Rbt.Parameter_File>
/export/apps/rDock/src/rDock_2013.1_src/data/scripts/dock_solv.prm

>  <Rbt.Receptor>
prm/pocket_docking_7.prm

>  <SCORE>
-34.4461

>  <SCORE.INTER>
-24.9281

>  <SCORE.INTER.CONST>
1

>  <SCORE.INTER.POLAR>
-4.97701

>  <SCORE.INTER.ROT>
10

>  <SCORE.INTER.SOLV>
17.585

>  <SCORE.INTER.VDW>
-16.157

>  <SCORE.INTER.norm>
-0.673733

>  <SCORE.INTRA>
-9.51794

>  <SCORE.INTRA.DIHEDRAL>
-16.8328

>  <SCORE.INTRA.DIHEDRAL.0>
44.8331

>  <SCORE.INTRA.POLAR>
0.0797608

>  <SCORE.INTRA.POLAR.0>
-0.108895

>  <SCORE.INTRA.REPUL>
-0.00912235

>  <SCORE.INTRA.REPUL.0>
0.00912235

>  <SCORE.INTRA.SOLV>
-1.47822

>  <SCORE.INTRA.SOLV.lig_0>
-53.9067

>  <SCORE.INTRA.VDW>
-0.587993

>  <SCORE.INTRA.VDW.0>
-2.93492

>  <SCORE.INTRA.norm>
-0.257242

>  <SCORE.RESTR>
0

>  <SCORE.RESTR.CAVITY>
0

>  <SCORE.RESTR.norm>
0

>  <SCORE.SYSTEM>
0

>  <SCORE.SYSTEM.CONST>
0

>  <SCORE.SYSTEM.DIHEDRAL>
0

>  <SCORE.SYSTEM.SOLV>
0

>  <SCORE.SYSTEM.norm>
0

>  <SCORE.heavy>
37

>  <SCORE.norm>
-0.930975

>  <RMSD>
11.502

$$$$
lig.pdb
 OpenBabel11021811453D
libRbt.so/2013.1/901 2013/11/27
 37 40  0  0  0  0  0  0  0  0999 V2000
   -1.9436    9.7266   10.4007 C   0  0  2  0  0  0  0  0  0  0  0  0
   -2.7626   10.6498   11.3620 C   0  0  1  0  0  0  0  0  0  0  0  0
   -3.8336   11.5079   10.6269 C   0  0  0  0  0  0  0  0  0  0  0  0
   -3.2253   12.2235    9.3953 C   0  0  1  0  0  0  0  0  0  0  0  0
   -2.5695   11.1873    8.4553 C   0  0  1  0  0  0  0  0  0  0  0  0
   -1.9918   11.8723    7.1878 C   0  0  1  0  0  0  0  0  0  0  0  0
   -3.0776   12.7358    6.4793 C   0  0  1  0  0  0  0  0  0  0  0  0
   -3.7809   13.7140    7.4667 C   0  0  2  0  0  0  0  0  0  0  0  0
   -2.3263   12.5776    4.1503 C   0  0  0  0  0  0  0  0  0  0  0  0
   -1.5571   10.4229    9.1715 O   0  0  0  0  0  0  0  0  0  0  0  0
   -4.2083   13.0299    8.6845 O   0  0  0  0  0  0  0  0  0  0  0  0
   -3.4145    9.8302   12.4064 N   0  0  0  0  0  0  0  0  0  0  0  0
   -2.4637   13.4468    5.3388 N   0  0  0  0  0  0  0  0  0  0  0  0
   -0.8400   12.6460    7.4984 O   0  0  0  0  0  0  0  0  0  0  0  0
   -4.9004   14.3797    6.8125 O   0  0  0  0  0  0  0  0  0  0  0  0
   -2.6811    8.5062   10.0854 O   0  0  0  0  0  0  0  0  0  0  0  0
   -5.5646   15.4763    7.5127 C   0  0  2  0  0  0  0  0  0  0  0  0
   -6.4361   16.3150    6.5350 C   0  0  1  0  0  0  0  0  0  0  0  0
   -5.5618   17.1503    5.5563 C   0  0  2  0  0  0  0  0  0  0  0  0
   -4.5180   18.0084    6.3283 C   0  0  1  0  0  0  0  0  0  0  0  0
   -3.6938   17.1383    7.3179 C   0  0  1  0  0  0  0  0  0  0  0  0
   -2.7447   17.9994    8.1919 C   0  0  0  0  0  0  0  0  0  0  0  0
   -4.5835   16.3419    8.1579 O   0  0  0  0  0  0  0  0  0  0  0  0
   -3.6375   18.7522    5.4009 N   0  0  0  0  0  0  0  0  0  0  0  0
   -7.3554   15.4763    5.8379 O   0  0  0  0  0  0  0  0  0  0  0  0
   -6.3707   17.9638    4.7095 O   0  0  0  0  0  0  0  0  0  0  0  0
   -1.6791   18.5309    7.4113 O   0  0  0  0  0  0  0  0  0  0  0  0
   -1.9572    7.4300    9.4209 C   0  0  1  0  0  0  0  0  0  0  0  0
   -1.2398    7.9206    8.1322 C   0  0  1  0  0  0  0  0  0  0  0  0
   -0.5553    6.7396    7.3878 C   0  0  2  0  0  0  0  0  0  0  0  0
    0.4064    5.9275    8.3150 C   0  0  1  0  0  0  0  0  0  0  0  0
   -0.2471    5.5380    9.6748 C   0  0  0  0  0  0  0  0  0  0  0  0
   -0.9393    6.7451   10.3766 C   0  0  2  0  0  0  0  0  0  0  0  0
    0.9229    4.7310    7.6167 N   0  0  0  0  0  0  0  0  0  0  0  0
   -1.5764    6.2826   11.6286 N   0  0  0  0  0  0  0  0  0  0  0  0
   -2.1496    8.6004    7.2733 O   0  0  0  0  0  0  0  0  0  0  0  0
    0.1423    7.2129    6.2385 O   0  0  0  0  0  0  0  0  0  0  0  0
  1  2  1  0  0  0  0
  1 16  1  6  0  0  0
  2  3  1  0  0  0  0
  2 12  1  1  0  0  0
  4 11  1  6  0  0  0
  4  3  1  0  0  0  0
  5  4  1  0  0  0  0
  5 10  1  1  0  0  0
  6  7  1  0  0  0  0
  6  5  1  0  0  0  0
  6 14  1  1  0  0  0
  7  8  1  0  0  0  0
  7 13  1  6  0  0  0
  8 15  1  6  0  0  0
  8 11  1  0  0  0  0
  9 13  1  0  0  0  0
 10  1  1  0  0  0  0
 17 15  1  6  0  0  0
 17 18  1  0  0  0  0
 18 25  1  6  0  0  0
 19 18  1  0  0  0  0
 19 26  1  1  0  0  0
 20 19  1  0  0  0  0
 20 24  1  6  0  0  0
 21 23  1  0  0  0  0
 21 20  1  0  0  0  0
 21 22  1  1  0  0  0
 23 17  1  0  0  0  0
 27 22  1  0  0  0  0
 28 29  1  0  0  0  0
 28 16  1  1  0  0  0
 29 36  1  6  0  0  0
 30 37  1  6  0  0  0
 30 29  1  0  0  0  0
 31 30  1  0  0  0  0
 31 34  1  6  0  0  0
 32 31  1  0  0  0  0
 32 33  1  0  0  0  0
 33 28  1  0  0  0  0
 33 35  1  1  0  0  0
M  END
>  <CHROM.1>
178.63910581,-171.23752092,80.23371851,-62.63614781,163.78729390,-168.17943361
-53.36829195,-61.89473569,-70.19235772,-164.60211825,-69.30166108,-53.21573043
-42.93228197,-64.77299611,56.63524683,-176.91660830,-2.84000789,12.04946117
7.92449185,0.82826946,-1.04817897,2.19893288

>  <Name>
lig.pdb

>  <RI>
0

>  <Rbt.Current_Directory>
/home/itssahil/PROJECTS/Mol_Feturizer/New_Systems/rnas/2m4q

>  <Rbt.Executable>
rbdock ($Id: //depot/dev/client3/rdock/2013.1/src/exe/rbdock.cxx#4 $)

>  <Rbt.Library>
libRbt.so (2013.1, Build901 2013/11/27)

>  <Rbt.Parameter_File>
/export/apps/rDock/src/rDock_2013.1_src/data/scripts/dock_solv.prm

>  <Rbt.Receptor>
prm/pocket_docking_7.prm

>  <SCORE>
-47.341

>  <SCORE.INTER>
-27.6405

>  <SCORE.INTER.CONST>
1

>  <SCORE.INTER.POLAR>
-3.87456

>  <SCORE.INTER.ROT>
10

>  <SCORE.INTER.SOLV>
16.9534

>  <SCORE.INTER.VDW>
-21.4296

>  <SCORE.INTER.norm>
-0.747042

>  <SCORE.INTRA>
-20.2912

>  <SCORE.INTRA.DIHEDRAL>
-38.172

>  <SCORE.INTRA.DIHEDRAL.0>
44.8331

>  <SCORE.INTRA.POLAR>
-0.495338

>  <SCORE.INTRA.POLAR.0>
-0.108895

>  <SCORE.INTRA.REPUL>
-0.00912235

>  <SCORE.INTRA.REPUL.0>
0.00912235

>  <SCORE.INTRA.SOLV>
-0.604085

>  <SCORE.INTRA.SOLV.lig_0>
-53.9067

>  <SCORE.INTRA.VDW>
0.82656

>  <SCORE.INTRA.VDW.0>
-2.93492

>  <SCORE.INTRA.norm>
-0.548412

>  <SCORE.RESTR>
0.590815

>  <SCORE.RESTR.CAVITY>
0.590815

>  <SCORE.RESTR.norm>
0.015968

>  <SCORE.SYSTEM>
0

>  <SCORE.SYSTEM.CONST>
0

>  <SCORE.SYSTEM.DIHEDRAL>
0

>  <SCORE.SYSTEM.SOLV>
0

>  <SCORE.SYSTEM.norm>
0

>  <SCORE.heavy>
37

>  <SCORE.norm>
-1.27949

>  <RMSD>
11.577

$$$$
lig.pdb
 OpenBabel11021811453D
libRbt.so/2013.1/901 2013/11/27
 37 40  0  0  0  0  0  0  0  0999 V2000
   -1.9731    7.9909    7.8478 C   0  0  2  0  0  0  0  0  0  0  0  0
   -1.9936    8.1326    6.2900 C   0  0  1  0  0  0  0  0  0  0  0  0
   -1.9663    9.6121    5.8062 C   0  0  0  0  0  0  0  0  0  0  0  0
   -3.0236   10.4625    6.5532 C   0  0  1  0  0  0  0  0  0  0  0  0
   -2.8080   10.3487    8.0790 C   0  0  1  0  0  0  0  0  0  0  0  0
   -3.8259   11.2292    8.8524 C   0  0  1  0  0  0  0  0  0  0  0  0
   -3.7897   12.7000    8.3403 C   0  0  1  0  0  0  0  0  0  0  0  0
   -3.9261   12.7817    6.7908 C   0  0  2  0  0  0  0  0  0  0  0  0
   -4.5408   14.9282    9.0367 C   0  0  0  0  0  0  0  0  0  0  0  0
   -2.8658    8.9541    8.4962 O   0  0  0  0  0  0  0  0  0  0  0  0
   -3.0157   11.8544    6.1236 O   0  0  0  0  0  0  0  0  0  0  0  0
   -0.8498    7.3983    5.7067 N   0  0  0  0  0  0  0  0  0  0  0  0
   -4.8383   13.4795    9.0301 N   0  0  0  0  0  0  0  0  0  0  0  0
   -5.1389   10.6892    8.7758 O   0  0  0  0  0  0  0  0  0  0  0  0
   -3.7175   14.1497    6.3331 O   0  0  0  0  0  0  0  0  0  0  0  0
   -0.6162    8.1199    8.3718 O   0  0  0  0  0  0  0  0  0  0  0  0
   -4.3479   14.5704    5.0842 C   0  0  2  0  0  0  0  0  0  0  0  0
   -3.3733   15.4302    4.2300 C   0  0  1  0  0  0  0  0  0  0  0  0
   -3.1363   16.8315    4.8626 C   0  0  2  0  0  0  0  0  0  0  0  0
   -4.4848   17.5514    5.1546 C   0  0  1  0  0  0  0  0  0  0  0  0
   -5.4407   16.6451    5.9795 C   0  0  1  0  0  0  0  0  0  0  0  0
   -6.8378   17.2941    6.1619 C   0  0  0  0  0  0  0  0  0  0  0  0
   -5.5628   15.3317    5.3539 O   0  0  0  0  0  0  0  0  0  0  0  0
   -4.2687   18.8550    5.8197 N   0  0  0  0  0  0  0  0  0  0  0  0
   -2.1475   14.7333    4.0149 O   0  0  0  0  0  0  0  0  0  0  0  0
   -2.2938   17.6331    4.0375 O   0  0  0  0  0  0  0  0  0  0  0  0
   -7.8183   16.6140    5.3851 O   0  0  0  0  0  0  0  0  0  0  0  0
   -0.4171    7.8978    9.7983 C   0  0  1  0  0  0  0  0  0  0  0  0
   -0.8339    9.1342   10.6432 C   0  0  1  0  0  0  0  0  0  0  0  0
   -0.5236    8.9132   12.1505 C   0  0  2  0  0  0  0  0  0  0  0  0
   -1.1542    7.5932   12.7019 C   0  0  1  0  0  0  0  0  0  0  0  0
   -0.8633    6.3579   11.7979 C   0  0  0  0  0  0  0  0  0  0  0  0
   -1.1677    6.6290   10.2937 C   0  0  2  0  0  0  0  0  0  0  0  0
   -0.7173    7.3432   14.0921 N   0  0  0  0  0  0  0  0  0  0  0  0
   -0.8175    5.4307    9.5007 N   0  0  0  0  0  0  0  0  0  0  0  0
   -0.1969   10.3138   10.1634 O   0  0  0  0  0  0  0  0  0  0  0  0
   -0.9598   10.0323   12.9179 O   0  0  0  0  0  0  0  0  0  0  0  0
  1  2  1  0  0  0  0
  1 16  1  1  0  0  0
  2  3  1  0  0  0  0
  2 12  1  6  0  0  0
  4 11  1  6  0  0  0
  4  3  1  0  0  0  0
  5  4  1  0  0  0  0
  5 10  1  1  0  0  0
  6  7  1  0  0  0  0
  6  5  1  0  0  0  0
  6 14  1  6  0  0  0
  7  8  1  0  0  0  0
  7 13  1  1  0  0  0
  8 15  1  6  0  0  0
  8 11  1  0  0  0  0
  9 13  1  0  0  0  0
 10  1  1  0  0  0  0
 17 15  1  1  0  0  0
 17 18  1  0  0  0  0
 18 25  1  1  0  0  0
 19 18  1  0  0  0  0
 19 26  1  6  0  0  0
 20 19  1  0  0  0  0
 20 24  1  1  0  0  0
 21 23  1  0  0  0  0
 21 20  1  0  0  0  0
 21 22  1  6  0  0  0
 23 17  1  0  0  0  0
 27 22  1  0  0  0  0
 28 29  1  0  0  0  0
 28 16  1  6  0  0  0
 29 36  1  6  0  0  0
 30 37  1  1  0  0  0
 30 29  1  0  0  0  0
 31 30  1  0  0  0  0
 31 34  1  1  0  0  0
 32 31  1  0  0  0  0
 32 33  1  0  0  0  0
 33 28  1  0  0  0  0
 33 35  1  6  0  0  0
M  END
>  <CHROM.1>
-168.67340744,-153.45592930,156.82088947,-54.44707562,-138.03412917,-174.91071853
65.85973757,-168.56231675,108.82403134,-41.29798089,-67.33251140,-78.92313997
-53.71556286,59.84137883,-79.81778860,40.53533303,-2.87599080,11.76697069
7.83676160,-0.64364544,1.13540550,-1.41334341

>  <Name>
lig.pdb

>  <RI>
3.60165e+07

>  <Rbt.Current_Directory>
/home/itssahil/PROJECTS/Mol_Feturizer/New_Systems/rnas/2m4q

>  <Rbt.Executable>
rbdock ($Id: //depot/dev/client3/rdock/2013.1/src/exe/rbdock.cxx#4 $)

>  <Rbt.Library>
libRbt.so (2013.1, Build901 2013/11/27)

>  <Rbt.Parameter_File>
/export/apps/rDock/src/rDock_2013.1_src/data/scripts/dock_solv.prm

>  <Rbt.Receptor>
prm/pocket_docking_8.prm

>  <SCORE>
-41.0473

>  <SCORE.INTER>
-27.5224

>  <SCORE.INTER.CONST>
1

>  <SCORE.INTER.POLAR>
-4.99005

>  <SCORE.INTER.ROT>
10

>  <SCORE.INTER.SOLV>
15.987

>  <SCORE.INTER.VDW>
-17.3104

>  <SCORE.INTER.norm>
-0.743849

>  <SCORE.INTRA>
-13.5249

>  <SCORE.INTRA.DIHEDRAL>
-25.2973

>  <SCORE.INTRA.DIHEDRAL.0>
44.8331

>  <SCORE.INTRA.POLAR>
0.108895

>  <SCORE.INTRA.POLAR.0>
-0.108895

>  <SCORE.INTRA.REPUL>
-0.00912235

>  <SCORE.INTRA.REPUL.0>
0.00912235

>  <SCORE.INTRA.SOLV>
-1.58749

>  <SCORE.INTRA.SOLV.lig_0>
-53.9067

>  <SCORE.INTRA.VDW>
-0.40715

>  <SCORE.INTRA.VDW.0>
-2.93492

>  <SCORE.INTRA.norm>
-0.365539

>  <SCORE.RESTR>
0

>  <SCORE.RESTR.CAVITY>
0

>  <SCORE.RESTR.norm>
0

>  <SCORE.SYSTEM>
0

>  <SCORE.SYSTEM.CONST>
0

>  <SCORE.SYSTEM.DIHEDRAL>
0

>  <SCORE.SYSTEM.SOLV>
0

>  <SCORE.SYSTEM.norm>
0

>  <SCORE.heavy>
37

>  <SCORE.norm>
-1.10939

>  <RMSD>
11.599

$$$$
lig.pdb
 OpenBabel11021811453D
libRbt.so/2013.1/901 2013/11/27
 37 40  0  0  0  0  0  0  0  0999 V2000
   -1.8856    8.1631    7.8357 C   0  0  2  0  0  0  0  0  0  0  0  0
   -1.9277    8.3385    6.2819 C   0  0  1  0  0  0  0  0  0  0  0  0
   -1.9529    9.8285    5.8312 C   0  0  0  0  0  0  0  0  0  0  0  0
   -3.0286   10.6277    6.6080 C   0  0  1  0  0  0  0  0  0  0  0  0
   -2.7927   10.4871    8.1285 C   0  0  1  0  0  0  0  0  0  0  0  0
   -3.8296   11.3171    8.9320 C   0  0  1  0  0  0  0  0  0  0  0  0
   -3.8461   12.7992    8.4528 C   0  0  1  0  0  0  0  0  0  0  0  0
   -4.0020   12.9108    6.9070 C   0  0  2  0  0  0  0  0  0  0  0  0
   -4.6138   14.9729    9.2890 C   0  0  0  0  0  0  0  0  0  0  0  0
   -2.8013    9.0825    8.5148 O   0  0  0  0  0  0  0  0  0  0  0  0
   -3.0699   12.0283    6.2098 O   0  0  0  0  0  0  0  0  0  0  0  0
   -0.7675    7.6546    5.6705 N   0  0  0  0  0  0  0  0  0  0  0  0
   -4.9114   13.5292    9.1707 N   0  0  0  0  0  0  0  0  0  0  0  0
   -5.1255   10.7369    8.8568 O   0  0  0  0  0  0  0  0  0  0  0  0
   -3.8423   14.2947    6.4780 O   0  0  0  0  0  0  0  0  0  0  0  0
   -0.5277    8.3240    8.3485 O   0  0  0  0  0  0  0  0  0  0  0  0
   -4.2722   14.6606    5.1307 C   0  0  2  0  0  0  0  0  0  0  0  0
   -3.1075   15.3115    4.3317 C   0  0  1  0  0  0  0  0  0  0  0  0
   -2.7644   16.7310    4.8675 C   0  0  2  0  0  0  0  0  0  0  0  0
   -4.0336   17.6293    4.9314 C   0  0  1  0  0  0  0  0  0  0  0  0
   -5.1826   16.9274    5.7077 C   0  0  1  0  0  0  0  0  0  0  0  0
   -6.4968   17.7505    5.6634 C   0  0  0  0  0  0  0  0  0  0  0  0
   -5.4020   15.5819    5.1853 O   0  0  0  0  0  0  0  0  0  0  0  0
   -3.7272   18.9581    5.5051 N   0  0  0  0  0  0  0  0  0  0  0  0
   -1.9647   14.4579    4.3269 O   0  0  0  0  0  0  0  0  0  0  0  0
   -1.7405   17.3428    4.0860 O   0  0  0  0  0  0  0  0  0  0  0  0
   -7.6270   16.9137    5.8863 O   0  0  0  0  0  0  0  0  0  0  0  0
   -0.1908    7.6506    9.5963 C   0  0  1  0  0  0  0  0  0  0  0  0
   -0.9847    8.2279   10.8016 C   0  0  1  0  0  0  0  0  0  0  0  0
   -0.5406    7.5632   12.1351 C   0  0  2  0  0  0  0  0  0  0  0  0
   -0.6215    6.0030   12.0796 C   0  0  1  0  0  0  0  0  0  0  0  0
    0.0519    5.4053   10.8079 C   0  0  0  0  0  0  0  0  0  0  0  0
   -0.4047    6.1135    9.4969 C   0  0  2  0  0  0  0  0  0  0  0  0
   -0.0549    5.4037   13.3068 N   0  0  0  0  0  0  0  0  0  0  0  0
    0.3160    5.5250    8.3472 N   0  0  0  0  0  0  0  0  0  0  0  0
   -0.8434    9.6431   10.8703 O   0  0  0  0  0  0  0  0  0  0  0  0
   -1.3140    8.0640   13.2226 O   0  0  0  0  0  0  0  0  0  0  0  0
  1  2  1  0  0  0  0
  1 16  1  1  0  0  0
  2  3  1  0  0  0  0
  2 12  1  6  0  0  0
  4 11  1  6  0  0  0
  4  3  1  0  0  0  0
  5  4  1  0  0  0  0
  5 10  1  1  0  0  0
  6  7  1  0  0  0  0
  6  5  1  0  0  0  0
  6 14  1  6  0  0  0
  7  8  1  0  0  0  0
  7 13  1  1  0  0  0
  8 15  1  6  0  0  0
  8 11  1  0  0  0  0
  9 13  1  0  0  0  0
 10  1  1  0  0  0  0
 17 15  1  1  0  0  0
 17 18  1  0  0  0  0
 18 25  1  1  0  0  0
 19 18  1  0  0  0  0
 19 26  1  6  0  0  0
 20 19  1  0  0  0  0
 20 24  1  1  0  0  0
 21 23  1  0  0  0  0
 21 20  1  0  0  0  0
 21 22  1  6  0  0  0
 23 17  1  0  0  0  0
 27 22  1  0  0  0  0
 28 29  1  0  0  0  0
 28 16  1  6  0  0  0
 29 36  1  1  0  0  0
 30 37  1  1  0  0  0
 30 29  1  0  0  0  0
 31 30  1  0  0  0  0
 31 34  1  1  0  0  0
 32 31  1  0  0  0  0
 32 33  1  0  0  0  0
 33 28  1  0  0  0  0
 33 35  1  6  0  0  0
M  END
>  <CHROM.1>
-175.57863861,-165.16848332,152.83537577,-171.41108793,-124.07239599,-153.76310689
-56.48113584,-171.22278110,156.92176422,59.74230939,-50.98465125,-65.87748290
-176.73181811,-173.89771707,-171.29753621,-140.36092423,-2.71019997,11.57320358
7.78065929,-0.94144722,0.97519980,-1.02448991

>  <Name>
lig.pdb

>  <RI>
3.60165e+07

>  <Rbt.Current_Directory>
/home/itssahil/PROJECTS/Mol_Feturizer/New_Systems/rnas/2m4q

>  <Rbt.Executable>
rbdock ($Id: //depot/dev/client3/rdock/2013.1/src/exe/rbdock.cxx#4 $)

>  <Rbt.Library>
libRbt.so (2013.1, Build901 2013/11/27)

>  <Rbt.Parameter_File>
/export/apps/rDock/src/rDock_2013.1_src/data/scripts/dock_solv.prm

>  <Rbt.Receptor>
prm/pocket_docking_8.prm

>  <SCORE>
-49.2207

>  <SCORE.INTER>
-34.49

>  <SCORE.INTER.CONST>
1

>  <SCORE.INTER.POLAR>
-5.66614

>  <SCORE.INTER.ROT>
10

>  <SCORE.INTER.SOLV>
16.6204

>  <SCORE.INTER.VDW>
-19.913

>  <SCORE.INTER.norm>
-0.932163

>  <SCORE.INTRA>
-14.778

>  <SCORE.INTRA.DIHEDRAL>
-26.8978

>  <SCORE.INTRA.DIHEDRAL.0>
44.8331

>  <SCORE.INTRA.POLAR>
-0.243462

>  <SCORE.INTRA.POLAR.0>
-0.108895

>  <SCORE.INTRA.REPUL>
-0.00912235

>  <SCORE.INTRA.REPUL.0>
0.00912235

>  <SCORE.INTRA.SOLV>
-1.27753

>  <SCORE.INTRA.SOLV.lig_0>
-53.9067

>  <SCORE.INTRA.VDW>
0.182991

>  <SCORE.INTRA.VDW.0>
-2.93492

>  <SCORE.INTRA.norm>
-0.399407

>  <SCORE.RESTR>
0.0473227

>  <SCORE.RESTR.CAVITY>
0.0473227

>  <SCORE.RESTR.norm>
0.00127899

>  <SCORE.SYSTEM>
0

>  <SCORE.SYSTEM.CONST>
0

>  <SCORE.SYSTEM.DIHEDRAL>
0

>  <SCORE.SYSTEM.SOLV>
0

>  <SCORE.SYSTEM.norm>
0

>  <SCORE.heavy>
37

>  <SCORE.norm>
-1.33029

>  <RMSD>
11.654

$$$$
lig.pdb
 OpenBabel11021811453D
libRbt.so/2013.1/901 2013/11/27
 37 40  0  0  0  0  0  0  0  0999 V2000
   -1.7284    8.5336    8.0870 C   0  0  2  0  0  0  0  0  0  0  0  0
   -0.9758    8.9117    6.7687 C   0  0  1  0  0  0  0  0  0  0  0  0
   -0.8151   10.4476    6.5708 C   0  0  0  0  0  0  0  0  0  0  0  0
   -2.1617   11.1815    6.7875 C   0  0  1  0  0  0  0  0  0  0  0  0
   -2.7319   10.8344    8.1809 C   0  0  1  0  0  0  0  0  0  0  0  0
   -4.0599   11.5938    8.4442 C   0  0  1  0  0  0  0  0  0  0  0  0
   -3.8768   13.1253    8.2253 C   0  0  1  0  0  0  0  0  0  0  0  0
   -3.2240   13.4437    6.8474 C   0  0  2  0  0  0  0  0  0  0  0  0
   -5.0325   15.2119    8.7947 C   0  0  0  0  0  0  0  0  0  0  0  0
   -2.8916    9.3929    8.3183 O   0  0  0  0  0  0  0  0  0  0  0  0
   -2.0387   12.6226    6.6139 O   0  0  0  0  0  0  0  0  0  0  0  0
    0.3551    8.2669    6.7510 N   0  0  0  0  0  0  0  0  0  0  0  0
   -5.1822   13.7979    8.3882 N   0  0  0  0  0  0  0  0  0  0  0  0
   -5.1158   11.0814    7.6416 O   0  0  0  0  0  0  0  0  0  0  0  0
   -2.9121   14.8641    6.7482 O   0  0  0  0  0  0  0  0  0  0  0  0
   -0.8295    8.5711    9.2373 O   0  0  0  0  0  0  0  0  0  0  0  0
   -2.8475   15.4723    5.4216 C   0  0  2  0  0  0  0  0  0  0  0  0
   -2.5292   16.9914    5.5199 C   0  0  1  0  0  0  0  0  0  0  0  0
   -3.7309   17.7954    6.0938 C   0  0  2  0  0  0  0  0  0  0  0  0
   -5.0360   17.4984    5.2998 C   0  0  1  0  0  0  0  0  0  0  0  0
   -5.2973   15.9699    5.1960 C   0  0  1  0  0  0  0  0  0  0  0  0
   -6.5181   15.6525    4.2930 C   0  0  0  0  0  0  0  0  0  0  0  0
   -4.1056   15.2819    4.7081 O   0  0  0  0  0  0  0  0  0  0  0  0
   -6.1967   18.2063    5.8832 N   0  0  0  0  0  0  0  0  0  0  0  0
   -1.3398   17.2061    6.2773 O   0  0  0  0  0  0  0  0  0  0  0  0
   -3.4507   19.1934    6.1178 O   0  0  0  0  0  0  0  0  0  0  0  0
   -7.7359   15.8027    5.0154 O   0  0  0  0  0  0  0  0  0  0  0  0
   -1.3483    8.1068   10.5176 C   0  0  1  0  0  0  0  0  0  0  0  0
   -0.8476    6.6765   10.8639 C   0  0  1  0  0  0  0  0  0  0  0  0
   -1.4884    6.1629   12.1840 C   0  0  2  0  0  0  0  0  0  0  0  0
   -1.2800    7.1554   13.3737 C   0  0  1  0  0  0  0  0  0  0  0  0
   -1.6484    8.6249   13.0096 C   0  0  0  0  0  0  0  0  0  0  0  0
   -1.0031    9.0921   11.6702 C   0  0  2  0  0  0  0  0  0  0  0  0
   -2.0250    6.7062   14.5691 N   0  0  0  0  0  0  0  0  0  0  0  0
   -1.4419   10.4726   11.3717 N   0  0  0  0  0  0  0  0  0  0  0  0
   -1.1067    5.7757    9.7920 O   0  0  0  0  0  0  0  0  0  0  0  0
   -0.9793    4.8735   12.5157 O   0  0  0  0  0  0  0  0  0  0  0  0
  1  2  1  0  0  0  0
  1 16  1  1  0  0  0
  2  3  1  0  0  0  0
  2 12  1  1  0  0  0
  4 11  1  1  0  0  0
  4  3  1  0  0  0  0
  5  4  1  0  0  0  0
  5 10  1  6  0  0  0
  6  7  1  0  0  0  0
  6  5  1  0  0  0  0
  6 14  1  6  0  0  0
  7  8  1  0  0  0  0
  7 13  1  6  0  0  0
  8 15  1  1  0  0  0
  8 11  1  0  0  0  0
  9 13  1  0  0  0  0
 10  1  1  0  0  0  0
 17 15  1  1  0  0  0
 17 18  1  0  0  0  0
 18 25  1  1  0  0  0
 19 18  1  0  0  0  0
 19 26  1  6  0  0  0
 20 19  1  0  0  0  0
 20 24  1  1  0  0  0
 21 23  1  0  0  0  0
 21 20  1  0  0  0  0
 21 22  1  6  0  0  0
 23 17  1  0  0  0  0
 27 22  1  0  0  0  0
 28 29  1  0  0  0  0
 28 16  1  6  0  0  0
 29 36  1  6  0  0  0
 30 37  1  1  0  0  0
 30 29  1  0  0  0  0
 31 30  1  0  0  0  0
 31 34  1  1  0  0  0
 32 31  1  0  0  0  0
 32 33  1  0  0  0  0
 33 28  1  0  0  0  0
 33 35  1  6  0  0  0
M  END
>  <CHROM.1>
-61.96879876,-154.04162721,154.47166519,40.84442996,178.98667880,-173.69647755
169.88524775,170.50401168,-81.61041102,-57.66587251,-175.90424881,102.38985315
170.19790466,56.87774444,-172.86856571,-58.57533803,-2.85679242,11.93121650
8.16059889,-1.07332621,0.91732586,-0.93654304

>  <Name>
lig.pdb

>  <RI>
3.60165e+07

>  <Rbt.Current_Directory>
/home/itssahil/PROJECTS/Mol_Feturizer/New_Systems/rnas/2m4q

>  <Rbt.Executable>
rbdock ($Id: //depot/dev/client3/rdock/2013.1/src/exe/rbdock.cxx#4 $)

>  <Rbt.Library>
libRbt.so (2013.1, Build901 2013/11/27)

>  <Rbt.Parameter_File>
/export/apps/rDock/src/rDock_2013.1_src/data/scripts/dock_solv.prm

>  <Rbt.Receptor>
prm/pocket_docking_8.prm

>  <SCORE>
-44.3682

>  <SCORE.INTER>
-27.676

>  <SCORE.INTER.CONST>
1

>  <SCORE.INTER.POLAR>
-5.52602

>  <SCORE.INTER.ROT>
10

>  <SCORE.INTER.SOLV>
14.8369

>  <SCORE.INTER.VDW>
-15.2429

>  <SCORE.INTER.norm>
-0.748001

>  <SCORE.INTRA>
-16.6922

>  <SCORE.INTRA.DIHEDRAL>
-29.849

>  <SCORE.INTRA.DIHEDRAL.0>
44.8331

>  <SCORE.INTRA.POLAR>
-0.0197431

>  <SCORE.INTRA.POLAR.0>
-0.108895

>  <SCORE.INTRA.REPUL>
-0.00912235

>  <SCORE.INTRA.REPUL.0>
0.00912235

>  <SCORE.INTRA.SOLV>
-1.41776

>  <SCORE.INTRA.SOLV.lig_0>
-53.9067

>  <SCORE.INTRA.VDW>
-0.946087

>  <SCORE.INTRA.VDW.0>
-2.93492

>  <SCORE.INTRA.norm>
-0.451141

>  <SCORE.RESTR>
0

>  <SCORE.RESTR.CAVITY>
0

>  <SCORE.RESTR.norm>
0

>  <SCORE.SYSTEM>
0

>  <SCORE.SYSTEM.CONST>
0

>  <SCORE.SYSTEM.DIHEDRAL>
0

>  <SCORE.SYSTEM.SOLV>
0

>  <SCORE.SYSTEM.norm>
0

>  <SCORE.heavy>
37

>  <SCORE.norm>
-1.19914

>  <RMSD>
11.774

$$$$
lig.pdb
 OpenBabel11021811453D
libRbt.so/2013.1/901 2013/11/27
 37 40  0  0  0  0  0  0  0  0999 V2000
   -0.5753   11.3792   11.3098 C   0  0  2  0  0  0  0  0  0  0  0  0
   -1.6968   12.1028   12.1258 C   0  0  1  0  0  0  0  0  0  0  0  0
   -2.8118   12.7164   11.2290 C   0  0  0  0  0  0  0  0  0  0  0  0
   -2.2027   13.5503   10.0746 C   0  0  1  0  0  0  0  0  0  0  0  0
   -1.2182   12.6815    9.2603 C   0  0  1  0  0  0  0  0  0  0  0  0
   -0.6272   13.4792    8.0670 C   0  0  1  0  0  0  0  0  0  0  0  0
   -1.7614   14.0947    7.1943 C   0  0  1  0  0  0  0  0  0  0  0  0
   -2.7862   14.8965    8.0505 C   0  0  2  0  0  0  0  0  0  0  0  0
   -0.7478   14.1186    4.9614 C   0  0  0  0  0  0  0  0  0  0  0  0
   -0.1771   12.1471   10.1279 O   0  0  0  0  0  0  0  0  0  0  0  0
   -3.2251   14.1320    9.2152 O   0  0  0  0  0  0  0  0  0  0  0  0
   -2.3000   11.1587   13.0915 N   0  0  0  0  0  0  0  0  0  0  0  0
   -1.1587   14.9250    6.1311 N   0  0  0  0  0  0  0  0  0  0  0  0
    0.2801   14.4790    8.5127 O   0  0  0  0  0  0  0  0  0  0  0  0
   -3.9188   15.3114    7.2321 O   0  0  0  0  0  0  0  0  0  0  0  0
   -0.9868   10.0312   10.9276 O   0  0  0  0  0  0  0  0  0  0  0  0
   -4.8127   16.3435    7.7513 C   0  0  2  0  0  0  0  0  0  0  0  0
   -5.9094   16.7063    6.7100 C   0  0  1  0  0  0  0  0  0  0  0  0
   -5.3193   17.4868    5.5006 C   0  0  2  0  0  0  0  0  0  0  0  0
   -4.4997   18.7218    5.9749 C   0  0  1  0  0  0  0  0  0  0  0  0
   -3.4402   18.3206    7.0389 C   0  0  1  0  0  0  0  0  0  0  0  0
   -2.7087   19.5584    7.6211 C   0  0  0  0  0  0  0  0  0  0  0  0
   -4.0608   17.5421    8.1067 O   0  0  0  0  0  0  0  0  0  0  0  0
   -3.8782   19.4288    4.8338 N   0  0  0  0  0  0  0  0  0  0  0  0
   -6.6106   15.5364    6.2926 O   0  0  0  0  0  0  0  0  0  0  0  0
   -6.3437   17.8702    4.5858 O   0  0  0  0  0  0  0  0  0  0  0  0
   -2.1106   19.2503    8.8760 O   0  0  0  0  0  0  0  0  0  0  0  0
   -0.6700    9.5836    9.5774 C   0  0  1  0  0  0  0  0  0  0  0  0
    0.7828    9.0412    9.4703 C   0  0  1  0  0  0  0  0  0  0  0  0
    1.1318    8.6600    8.0040 C   0  0  2  0  0  0  0  0  0  0  0  0
    0.0944    7.6695    7.3822 C   0  0  1  0  0  0  0  0  0  0  0  0
   -1.3809    8.1238    7.5945 C   0  0  0  0  0  0  0  0  0  0  0  0
   -1.6821    8.5164    9.0723 C   0  0  2  0  0  0  0  0  0  0  0  0
    0.3757    7.4463    5.9480 N   0  0  0  0  0  0  0  0  0  0  0  0
   -3.0815    8.9831    9.1783 N   0  0  0  0  0  0  0  0  0  0  0  0
    1.7158    9.9869    9.9828 O   0  0  0  0  0  0  0  0  0  0  0  0
    2.4469    8.1150    7.9309 O   0  0  0  0  0  0  0  0  0  0  0  0
  1  2  1  0  0  0  0
  1 16  1  6  0  0  0
  2  3  1  0  0  0  0
  2 12  1  1  0  0  0
  4 11  1  6  0  0  0
  4  3  1  0  0  0  0
  5  4  1  0  0  0  0
  5 10  1  1  0  0  0
  6  7  1  0  0  0  0
  6  5  1  0  0  0  0
  6 14  1  1  0  0  0
  7  8  1  0  0  0  0
  7 13  1  6  0  0  0
  8 15  1  6  0  0  0
  8 11  1  0  0  0  0
  9 13  1  0  0  0  0
 10  1  1  0  0  0  0
 17 15  1  6  0  0  0
 17 18  1  0  0  0  0
 18 25  1  6  0  0  0
 19 18  1  0  0  0  0
 19 26  1  6  0  0  0
 20 19  1  0  0  0  0
 20 24  1  6  0  0  0
 21 23  1  0  0  0  0
 21 20  1  0  0  0  0
 21 22  1  1  0  0  0
 23 17  1  0  0  0  0
 27 22  1  0  0  0  0
 28 29  1  0  0  0  0
 28 16  1  1  0  0  0
 29 36  1  6  0  0  0
 30 37  1  1  0  0  0
 30 29  1  0  0  0  0
 31 30  1  0  0  0  0
 31 34  1  6  0  0  0
 32 31  1  0  0  0  0
 32 33  1  0  0  0  0
 33 28  1  0  0  0  0
 33 35  1  6  0  0  0
M  END
>  <CHROM.1>
-55.70598235,-164.90295287,83.56450259,-173.26104969,176.89233024,137.96335250
-163.13977659,-179.54741552,159.61435797,103.70722335,-175.26185541,83.21146816
-45.95029826,62.45829906,-173.76379294,166.82708431,-2.05009527,13.38378451
8.21873327,0.16230166,-1.12300520,1.45729744

>  <Name>
lig.pdb

>  <RI>
3.60165e+07

>  <Rbt.Current_Directory>
/home/itssahil/PROJECTS/Mol_Feturizer/New_Systems/rnas/2m4q

>  <Rbt.Executable>
rbdock ($Id: //depot/dev/client3/rdock/2013.1/src/exe/rbdock.cxx#4 $)

>  <Rbt.Library>
libRbt.so (2013.1, Build901 2013/11/27)

>  <Rbt.Parameter_File>
/export/apps/rDock/src/rDock_2013.1_src/data/scripts/dock_solv.prm

>  <Rbt.Receptor>
prm/pocket_docking_8.prm

>  <SCORE>
-41.3619

>  <SCORE.INTER>
-24.6414

>  <SCORE.INTER.CONST>
1

>  <SCORE.INTER.POLAR>
-4.83711

>  <SCORE.INTER.ROT>
10

>  <SCORE.INTER.SOLV>
13.0626

>  <SCORE.INTER.VDW>
-14.9248

>  <SCORE.INTER.norm>
-0.665984

>  <SCORE.INTRA>
-16.7205

>  <SCORE.INTRA.DIHEDRAL>
-28.1295

>  <SCORE.INTRA.DIHEDRAL.0>
44.8331

>  <SCORE.INTRA.POLAR>
-0.710045

>  <SCORE.INTRA.POLAR.0>
-0.108895

>  <SCORE.INTRA.REPUL>
-0.00912235

>  <SCORE.INTRA.REPUL.0>
0.00912235

>  <SCORE.INTRA.SOLV>
-2.08972

>  <SCORE.INTRA.SOLV.lig_0>
-53.9067

>  <SCORE.INTRA.VDW>
0.848856

>  <SCORE.INTRA.VDW.0>
-2.93492

>  <SCORE.INTRA.norm>
-0.451906

>  <SCORE.RESTR>
0

>  <SCORE.RESTR.CAVITY>
0

>  <SCORE.RESTR.norm>
0

>  <SCORE.SYSTEM>
0

>  <SCORE.SYSTEM.CONST>
0

>  <SCORE.SYSTEM.DIHEDRAL>
0

>  <SCORE.SYSTEM.SOLV>
0

>  <SCORE.SYSTEM.norm>
0

>  <SCORE.heavy>
37

>  <SCORE.norm>
-1.11789

>  <RMSD>
11.824

$$$$
lig.pdb
 OpenBabel11021811453D
libRbt.so/2013.1/901 2013/11/27
 37 40  0  0  0  0  0  0  0  0999 V2000
   -1.9520    8.3871    7.8702 C   0  0  2  0  0  0  0  0  0  0  0  0
   -2.0135    8.5180    6.3125 C   0  0  1  0  0  0  0  0  0  0  0  0
   -2.0608    9.9943    5.8204 C   0  0  0  0  0  0  0  0  0  0  0  0
   -3.1368   10.8031    6.5866 C   0  0  1  0  0  0  0  0  0  0  0  0
   -2.8824   10.7082    8.1077 C   0  0  1  0  0  0  0  0  0  0  0  0
   -3.9198   11.5491    8.8992 C   0  0  1  0  0  0  0  0  0  0  0  0
   -3.9585   13.0168    8.3786 C   0  0  1  0  0  0  0  0  0  0  0  0
   -4.1329   13.0828    6.8322 C   0  0  2  0  0  0  0  0  0  0  0  0
   -4.8020   15.2167    9.0590 C   0  0  0  0  0  0  0  0  0  0  0  0
   -2.8707    9.3151    8.5335 O   0  0  0  0  0  0  0  0  0  0  0  0
   -3.1986   12.1913    6.1495 O   0  0  0  0  0  0  0  0  0  0  0  0
   -0.8525    7.8300    5.7074 N   0  0  0  0  0  0  0  0  0  0  0  0
   -5.0240   13.7548    9.0879 N   0  0  0  0  0  0  0  0  0  0  0  0
   -5.2097   10.9526    8.8553 O   0  0  0  0  0  0  0  0  0  0  0  0
   -3.9939   14.4556    6.3626 O   0  0  0  0  0  0  0  0  0  0  0  0
   -0.5905    8.5776    8.3626 O   0  0  0  0  0  0  0  0  0  0  0  0
   -4.7357   14.8633    5.1720 C   0  0  2  0  0  0  0  0  0  0  0  0
   -3.7838   15.4731    4.1040 C   0  0  1  0  0  0  0  0  0  0  0  0
   -3.2462   16.8662    4.5400 C   0  0  2  0  0  0  0  0  0  0  0  0
   -4.4115   17.8208    4.9309 C   0  0  1  0  0  0  0  0  0  0  0  0
   -5.3566   17.1598    5.9727 C   0  0  1  0  0  0  0  0  0  0  0  0
   -6.5966   18.0431    6.2702 C   0  0  0  0  0  0  0  0  0  0  0  0
   -5.7677   15.8347    5.5182 O   0  0  0  0  0  0  0  0  0  0  0  0
   -3.9042   19.1243    5.4126 N   0  0  0  0  0  0  0  0  0  0  0  0
   -2.7233   14.5680    3.8029 O   0  0  0  0  0  0  0  0  0  0  0  0
   -2.4276   17.4431    3.5249 O   0  0  0  0  0  0  0  0  0  0  0  0
   -7.1331   18.5854    5.0679 O   0  0  0  0  0  0  0  0  0  0  0  0
   -0.1436    7.7321    9.4623 C   0  0  1  0  0  0  0  0  0  0  0  0
   -0.8299    8.1121   10.8042 C   0  0  1  0  0  0  0  0  0  0  0  0
   -0.2687    7.2642   11.9804 C   0  0  2  0  0  0  0  0  0  0  0  0
   -0.3503    5.7284   11.7004 C   0  0  1  0  0  0  0  0  0  0  0  0
    0.2101    5.3361   10.3005 C   0  0  0  0  0  0  0  0  0  0  0  0
   -0.3616    6.2235    9.1540 C   0  0  2  0  0  0  0  0  0  0  0  0
    0.3233    4.9628   12.7710 N   0  0  0  0  0  0  0  0  0  0  0  0
    0.2566    5.8230    7.8715 N   0  0  0  0  0  0  0  0  0  0  0  0
   -0.6865    9.5036   11.0704 O   0  0  0  0  0  0  0  0  0  0  0  0
   -0.9447    7.5864   13.1932 O   0  0  0  0  0  0  0  0  0  0  0  0
  1  2  1  0  0  0  0
  1 16  1  1  0  0  0
  2  3  1  0  0  0  0
  2 12  1  6  0  0  0
  4 11  1  6  0  0  0
  4  3  1  0  0  0  0
  5  4  1  0  0  0  0
  5 10  1  1  0  0  0
  6  7  1  0  0  0  0
  6  5  1  0  0  0  0
  6 14  1  6  0  0  0
  7  8  1  0  0  0  0
  7 13  1  1  0  0  0
  8 15  1  6  0  0  0
  8 11  1  0  0  0  0
  9 13  1  0  0  0  0
 10  1  1  0  0  0  0
 17 15  1  1  0  0  0
 17 18  1  0  0  0  0
 18 25  1  1  0  0  0
 19 18  1  0  0  0  0
 19 26  1  6  0  0  0
 20 19  1  0  0  0  0
 20 24  1  1  0  0  0
 21 23  1  0  0  0  0
 21 20  1  0  0  0  0
 21 22  1  6  0  0  0
 23 17  1  0  0  0  0
 27 22  1  0  0  0  0
 28 29  1  0  0  0  0
 28 16  1  6  0  0  0
 29 36  1  1  0  0  0
 30 37  1  1  0  0  0
 30 29  1  0  0  0  0
 31 30  1  0  0  0  0
 31 34  1  1  0  0  0
 32 31  1  0  0  0  0
 32 33  1  0  0  0  0
 33 28  1  0  0  0  0
 33 35  1  6  0  0  0
M  END
>  <CHROM.1>
-58.86523346,-149.72935493,157.85221133,-55.19730634,-125.63120292,-141.25880700
73.24169551,-53.21949942,43.26066758,42.75071146,-168.14723581,-71.35425770
-172.31316608,-170.47423821,91.01764103,-36.35974558,-2.80616189,11.72899737
7.65414800,-0.83027514,1.01684592,-1.12450317

>  <Name>
lig.pdb

>  <RI>
3.60165e+07

>  <Rbt.Current_Directory>
/home/itssahil/PROJECTS/Mol_Feturizer/New_Systems/rnas/2m4q

>  <Rbt.Executable>
rbdock ($Id: //depot/dev/client3/rdock/2013.1/src/exe/rbdock.cxx#4 $)

>  <Rbt.Library>
libRbt.so (2013.1, Build901 2013/11/27)

>  <Rbt.Parameter_File>
/export/apps/rDock/src/rDock_2013.1_src/data/scripts/dock_solv.prm

>  <Rbt.Receptor>
prm/pocket_docking_8.prm

>  <SCORE>
-47.6709

>  <SCORE.INTER>
-33.5735

>  <SCORE.INTER.CONST>
1

>  <SCORE.INTER.POLAR>
-5.52373

>  <SCORE.INTER.ROT>
10

>  <SCORE.INTER.SOLV>
15.9693

>  <SCORE.INTER.VDW>
-19.5597

>  <SCORE.INTER.norm>
-0.907393

>  <SCORE.INTRA>
-14.0974

>  <SCORE.INTRA.DIHEDRAL>
-20.9166

>  <SCORE.INTRA.DIHEDRAL.0>
44.8331

>  <SCORE.INTRA.POLAR>
-0.944394

>  <SCORE.INTRA.POLAR.0>
-0.108895

>  <SCORE.INTRA.REPUL>
-0.00912235

>  <SCORE.INTRA.REPUL.0>
0.00912235

>  <SCORE.INTRA.SOLV>
-0.0112527

>  <SCORE.INTRA.SOLV.lig_0>
-53.9067

>  <SCORE.INTRA.VDW>
-0.376889

>  <SCORE.INTRA.VDW.0>
-2.93492

>  <SCORE.INTRA.norm>
-0.38101

>  <SCORE.RESTR>
0

>  <SCORE.RESTR.CAVITY>
0

>  <SCORE.RESTR.norm>
0

>  <SCORE.SYSTEM>
0

>  <SCORE.SYSTEM.CONST>
0

>  <SCORE.SYSTEM.DIHEDRAL>
0

>  <SCORE.SYSTEM.SOLV>
0

>  <SCORE.SYSTEM.norm>
0

>  <SCORE.heavy>
37

>  <SCORE.norm>
-1.2884

>  <RMSD>
11.934

$$$$
lig.pdb
 OpenBabel11021811453D
libRbt.so/2013.1/901 2013/11/27
 37 40  0  0  0  0  0  0  0  0999 V2000
    0.3259   -0.0848   16.0065 C   0  0  2  0  0  0  0  0  0  0  0  0
   -0.9394   -0.9430   16.3374 C   0  0  1  0  0  0  0  0  0  0  0  0
   -2.1375   -0.6666   15.3825 C   0  0  0  0  0  0  0  0  0  0  0  0
   -2.3983    0.8536   15.2409 C   0  0  1  0  0  0  0  0  0  0  0  0
   -1.1099    1.5673   14.7742 C   0  0  1  0  0  0  0  0  0  0  0  0
   -1.3551    3.0876   14.5786 C   0  0  1  0  0  0  0  0  0  0  0  0
   -2.5668    3.3375   13.6319 C   0  0  1  0  0  0  0  0  0  0  0  0
   -3.8293    2.5415   14.0778 C   0  0  2  0  0  0  0  0  0  0  0  0
   -1.6504    5.5400   13.0636 C   0  0  0  0  0  0  0  0  0  0  0  0
   -0.0203    1.3061   15.7051 O   0  0  0  0  0  0  0  0  0  0  0  0
   -3.5119    1.1414   14.3470 O   0  0  0  0  0  0  0  0  0  0  0  0
   -0.5928   -2.3803   16.2959 N   0  0  0  0  0  0  0  0  0  0  0  0
   -2.8277    4.7896   13.5514 N   0  0  0  0  0  0  0  0  0  0  0  0
   -1.5312    3.7471   15.8259 O   0  0  0  0  0  0  0  0  0  0  0  0
   -4.8856    2.6628   13.0808 O   0  0  0  0  0  0  0  0  0  0  0  0
    1.0883   -0.6705   14.9073 O   0  0  0  0  0  0  0  0  0  0  0  0
   -6.2062    2.1234   13.3957 C   0  0  2  0  0  0  0  0  0  0  0  0
   -6.5665    2.3679   14.8887 C   0  0  1  0  0  0  0  0  0  0  0  0
   -5.7126    1.4812   15.8397 C   0  0  2  0  0  0  0  0  0  0  0  0
   -5.7938   -0.0188   15.4330 C   0  0  1  0  0  0  0  0  0  0  0  0
   -5.4607   -0.2136   13.9275 C   0  0  1  0  0  0  0  0  0  0  0  0
   -5.6697   -1.6826   13.4750 C   0  0  0  0  0  0  0  0  0  0  0  0
   -6.2584    0.6941   13.1082 O   0  0  0  0  0  0  0  0  0  0  0  0
   -4.9293   -0.8590   16.2905 N   0  0  0  0  0  0  0  0  0  0  0  0
   -6.4513    3.7524   15.2117 O   0  0  0  0  0  0  0  0  0  0  0  0
   -6.0973    1.6665   17.2002 O   0  0  0  0  0  0  0  0  0  0  0  0
   -4.7381   -2.0375   12.4583 O   0  0  0  0  0  0  0  0  0  0  0  0
    2.4953   -0.3090   14.7908 C   0  0  1  0  0  0  0  0  0  0  0  0
    3.3753   -1.0538   15.8335 C   0  0  1  0  0  0  0  0  0  0  0  0
    4.8549   -0.5825   15.7566 C   0  0  2  0  0  0  0  0  0  0  0  0
    5.4429   -0.6965   14.3126 C   0  0  1  0  0  0  0  0  0  0  0  0
    4.5130   -0.0747   13.2280 C   0  0  0  0  0  0  0  0  0  0  0  0
    3.0364   -0.5569   13.3541 C   0  0  2  0  0  0  0  0  0  0  0  0
    6.7963   -0.1048   14.2483 N   0  0  0  0  0  0  0  0  0  0  0  0
    2.2131    0.1162   12.3261 N   0  0  0  0  0  0  0  0  0  0  0  0
    2.8575   -0.8819   17.1487 O   0  0  0  0  0  0  0  0  0  0  0  0
    5.6584   -1.3119   16.6808 O   0  0  0  0  0  0  0  0  0  0  0  0
  1  2  1  0  0  0  0
  1 16  1  6  0  0  0
  2  3  1  0  0  0  0
  2 12  1  6  0  0  0
  4 11  1  6  0  0  0
  4  3  1  0  0  0  0
  5  4  1  0  0  0  0
  5 10  1  1  0  0  0
  6  7  1  0  0  0  0
  6  5  1  0  0  0  0
  6 14  1  1  0  0  0
  7  8  1  0  0  0  0
  7 13  1  1  0  0  0
  8 15  1  6  0  0  0
  8 11  1  0  0  0  0
  9 13  1  0  0  0  0
 10  1  1  0  0  0  0
 17 15  1  1  0  0  0
 17 18  1  0  0  0  0
 18 25  1  1  0  0  0
 19 18  1  0  0  0  0
 19 26  1  1  0  0  0
 20 19  1  0  0  0  0
 20 24  1  1  0  0  0
 21 23  1  0  0  0  0
 21 20  1  0  0  0  0
 21 22  1  6  0  0  0
 23 17  1  0  0  0  0
 27 22  1  0  0  0  0
 28 29  1  0  0  0  0
 28 16  1  6  0  0  0
 29 36  1  1  0  0  0
 30 37  1  1  0  0  0
 30 29  1  0  0  0  0
 31 30  1  0  0  0  0
 31 34  1  1  0  0  0
 32 31  1  0  0  0  0
 32 33  1  0  0  0  0
 33 28  1  0  0  0  0
 33 35  1  6  0  0  0
M  END
>  <CHROM.1>
80.57261707,-172.49837025,58.23346448,-57.36260582,38.00028557,-158.07911534
-179.39243155,-67.30357717,-147.38476237,52.72649017,51.74463000,76.54560533
177.80087817,179.93311429,-73.71149954,-92.76265133,-1.37172208,0.74764191
14.76681895,0.23123524,-0.00956254,2.86680247

>  <Name>
lig.pdb

>  <RI>
0

>  <Rbt.Current_Directory>
/home/itssahil/PROJECTS/Mol_Feturizer/New_Systems/rnas/2m4q

>  <Rbt.Executable>
rbdock ($Id: //depot/dev/client3/rdock/2013.1/src/exe/rbdock.cxx#4 $)

>  <Rbt.Library>
libRbt.so (2013.1, Build901 2013/11/27)

>  <Rbt.Parameter_File>
/export/apps/rDock/src/rDock_2013.1_src/data/scripts/dock_solv.prm

>  <Rbt.Receptor>
prm/blind_docking_20.prm

>  <SCORE>
-5.32297

>  <SCORE.INTER>
-19.4956

>  <SCORE.INTER.CONST>
1

>  <SCORE.INTER.POLAR>
-5.15369

>  <SCORE.INTER.ROT>
10

>  <SCORE.INTER.SOLV>
21.573

>  <SCORE.INTER.VDW>
-13.2758

>  <SCORE.INTER.norm>
-0.526909

>  <SCORE.INTRA>
-10.2146

>  <SCORE.INTRA.DIHEDRAL>
-32.4364

>  <SCORE.INTRA.DIHEDRAL.0>
44.8331

>  <SCORE.INTRA.POLAR>
-0.104203

>  <SCORE.INTRA.POLAR.0>
-0.108895

>  <SCORE.INTRA.REPUL>
0.0166859

>  <SCORE.INTRA.REPUL.0>
0.00912235

>  <SCORE.INTRA.SOLV>
0.123821

>  <SCORE.INTRA.SOLV.lig_0>
-53.9067

>  <SCORE.INTRA.VDW>
6.21258

>  <SCORE.INTRA.VDW.0>
-2.93492

>  <SCORE.INTRA.norm>
-0.27607

>  <SCORE.RESTR>
24.3873

>  <SCORE.RESTR.CAVITY>
24.3873

>  <SCORE.RESTR.norm>
0.659115

>  <SCORE.SYSTEM>
0

>  <SCORE.SYSTEM.CONST>
0

>  <SCORE.SYSTEM.DIHEDRAL>
0

>  <SCORE.SYSTEM.SOLV>
0

>  <SCORE.SYSTEM.norm>
0

>  <SCORE.heavy>
37

>  <SCORE.norm>
-0.143864

>  <RMSD>
12.089

$$$$
lig.pdb
 OpenBabel11021811453D
libRbt.so/2013.1/901 2013/11/27
 37 40  0  0  0  0  0  0  0  0999 V2000
   -2.5373   10.6614   10.3082 C   0  0  2  0  0  0  0  0  0  0  0  0
   -2.9068   11.8755   11.2227 C   0  0  1  0  0  0  0  0  0  0  0  0
   -4.0462   12.7613   10.6390 C   0  0  0  0  0  0  0  0  0  0  0  0
   -3.7703   13.1198    9.1576 C   0  0  1  0  0  0  0  0  0  0  0  0
   -3.5613   11.8292    8.3341 C   0  0  1  0  0  0  0  0  0  0  0  0
   -3.3289   12.1570    6.8347 C   0  0  1  0  0  0  0  0  0  0  0  0
   -4.4735   13.0555    6.2787 C   0  0  1  0  0  0  0  0  0  0  0  0
   -4.7194   14.3070    7.1729 C   0  0  2  0  0  0  0  0  0  0  0  0
   -4.3694   12.2957    3.9494 C   0  0  0  0  0  0  0  0  0  0  0  0
   -2.4722   11.0410    8.8952 O   0  0  0  0  0  0  0  0  0  0  0  0
   -4.8253   13.9443    8.5839 O   0  0  0  0  0  0  0  0  0  0  0  0
   -3.2937   11.3900   12.5652 N   0  0  0  0  0  0  0  0  0  0  0  0
   -4.1647   13.4252    4.8819 N   0  0  0  0  0  0  0  0  0  0  0  0
   -2.0565   12.7570    6.6284 O   0  0  0  0  0  0  0  0  0  0  0  0
   -5.9019   15.0302    6.7219 O   0  0  0  0  0  0  0  0  0  0  0  0
   -3.4715    9.5549   10.4967 O   0  0  0  0  0  0  0  0  0  0  0  0
   -6.1332   16.3775    7.2368 C   0  0  2  0  0  0  0  0  0  0  0  0
   -6.7289   17.3002    6.1357 C   0  0  1  0  0  0  0  0  0  0  0  0
   -5.6792   17.6397    5.0390 C   0  0  2  0  0  0  0  0  0  0  0  0
   -4.3741   18.2086    5.6674 C   0  0  1  0  0  0  0  0  0  0  0  0
   -3.8327   17.2742    6.7851 C   0  0  1  0  0  0  0  0  0  0  0  0
   -2.6107   17.8926    7.5135 C   0  0  0  0  0  0  0  0  0  0  0  0
   -4.8910   16.9551    7.7387 O   0  0  0  0  0  0  0  0  0  0  0  0
   -3.3461   18.4686    4.6359 N   0  0  0  0  0  0  0  0  0  0  0  0
   -7.9065   16.7194    5.5785 O   0  0  0  0  0  0  0  0  0  0  0  0
   -6.2177   18.5379    4.0712 O   0  0  0  0  0  0  0  0  0  0  0  0
   -3.0229   18.6259    8.6623 O   0  0  0  0  0  0  0  0  0  0  0  0
   -2.9156    8.2458   10.8147 C   0  0  1  0  0  0  0  0  0  0  0  0
   -1.7476    7.8631    9.8630 C   0  0  1  0  0  0  0  0  0  0  0  0
   -1.2338    6.4255   10.1566 C   0  0  2  0  0  0  0  0  0  0  0  0
   -0.8492    6.2247   11.6585 C   0  0  1  0  0  0  0  0  0  0  0  0
   -1.9511    6.7262   12.6393 C   0  0  0  0  0  0  0  0  0  0  0  0
   -2.4524    8.1616   12.2968 C   0  0  2  0  0  0  0  0  0  0  0  0
   -0.5069    4.8119   11.9286 N   0  0  0  0  0  0  0  0  0  0  0  0
   -3.5284    8.5408   13.2380 N   0  0  0  0  0  0  0  0  0  0  0  0
   -2.1414    7.9912    8.5006 O   0  0  0  0  0  0  0  0  0  0  0  0
   -0.1292    6.1096    9.3128 O   0  0  0  0  0  0  0  0  0  0  0  0
  1  2  1  0  0  0  0
  1 16  1  6  0  0  0
  2  3  1  0  0  0  0
  2 12  1  1  0  0  0
  4 11  1  6  0  0  0
  4  3  1  0  0  0  0
  5  4  1  0  0  0  0
  5 10  1  1  0  0  0
  6  7  1  0  0  0  0
  6  5  1  0  0  0  0
  6 14  1  1  0  0  0
  7  8  1  0  0  0  0
  7 13  1  6  0  0  0
  8 15  1  6  0  0  0
  8 11  1  0  0  0  0
  9 13  1  0  0  0  0
 10  1  1  0  0  0  0
 17 15  1  6  0  0  0
 17 18  1  0  0  0  0
 18 25  1  6  0  0  0
 19 18  1  0  0  0  0
 19 26  1  6  0  0  0
 20 19  1  0  0  0  0
 20 24  1  6  0  0  0
 21 23  1  0  0  0  0
 21 20  1  0  0  0  0
 21 22  1  1  0  0  0
 23 17  1  0  0  0  0
 27 22  1  0  0  0  0
 28 29  1  0  0  0  0
 28 16  1  6  0  0  0
 29 36  1  6  0  0  0
 30 37  1  6  0  0  0
 30 29  1  0  0  0  0
 31 30  1  0  0  0  0
 31 34  1  6  0  0  0
 32 31  1  0  0  0  0
 32 33  1  0  0  0  0
 33 28  1  0  0  0  0
 33 35  1  1  0  0  0
M  END
>  <CHROM.1>
91.83190764,-166.80179914,74.27784542,-169.33536212,142.76047125,-126.55991416
178.46629858,-64.65422479,92.44961798,61.25993099,-62.17347143,-48.22025823
-41.42045886,-58.64682440,-32.09246627,-173.53392030,-3.57894761,12.57343089
8.40435081,0.34059538,-1.26441346,1.43687057

>  <Name>
lig.pdb

>  <RI>
0

>  <Rbt.Current_Directory>
/home/itssahil/PROJECTS/Mol_Feturizer/New_Systems/rnas/2m4q

>  <Rbt.Executable>
rbdock ($Id: //depot/dev/client3/rdock/2013.1/src/exe/rbdock.cxx#4 $)

>  <Rbt.Library>
libRbt.so (2013.1, Build901 2013/11/27)

>  <Rbt.Parameter_File>
/export/apps/rDock/src/rDock_2013.1_src/data/scripts/dock_solv.prm

>  <Rbt.Receptor>
prm/pocket_docking_7.prm

>  <SCORE>
-44.7412

>  <SCORE.INTER>
-30.6188

>  <SCORE.INTER.CONST>
1

>  <SCORE.INTER.POLAR>
-4.36259

>  <SCORE.INTER.ROT>
10

>  <SCORE.INTER.SOLV>
16.2244

>  <SCORE.INTER.VDW>
-21.5453

>  <SCORE.INTER.norm>
-0.827534

>  <SCORE.INTRA>
-14.2647

>  <SCORE.INTRA.DIHEDRAL>
-22.636

>  <SCORE.INTRA.DIHEDRAL.0>
44.8331

>  <SCORE.INTRA.POLAR>
-1.12236

>  <SCORE.INTRA.POLAR.0>
-0.108895

>  <SCORE.INTRA.REPUL>
-0.00912235

>  <SCORE.INTRA.REPUL.0>
0.00912235

>  <SCORE.INTRA.SOLV>
-0.615573

>  <SCORE.INTRA.SOLV.lig_0>
-53.9067

>  <SCORE.INTRA.VDW>
1.22269

>  <SCORE.INTRA.VDW.0>
-2.93492

>  <SCORE.INTRA.norm>
-0.385533

>  <SCORE.RESTR>
0.142287

>  <SCORE.RESTR.CAVITY>
0.142287

>  <SCORE.RESTR.norm>
0.0038456

>  <SCORE.SYSTEM>
0

>  <SCORE.SYSTEM.CONST>
0

>  <SCORE.SYSTEM.DIHEDRAL>
0

>  <SCORE.SYSTEM.SOLV>
0

>  <SCORE.SYSTEM.norm>
0

>  <SCORE.heavy>
37

>  <SCORE.norm>
-1.20922

>  <RMSD>
12.149

$$$$
lig.pdb
 OpenBabel11021811453D
libRbt.so/2013.1/901 2013/11/27
 37 40  0  0  0  0  0  0  0  0999 V2000
   -1.0233    8.5875    6.3509 C   0  0  2  0  0  0  0  0  0  0  0  0
    0.0527    9.2220    5.4092 C   0  0  1  0  0  0  0  0  0  0  0  0
   -0.1188   10.7585    5.2263 C   0  0  0  0  0  0  0  0  0  0  0  0
   -1.5846   11.1184    4.8787 C   0  0  1  0  0  0  0  0  0  0  0  0
   -2.5351   10.5547    5.9586 C   0  0  1  0  0  0  0  0  0  0  0  0
   -4.0086   10.9411    5.6600 C   0  0  1  0  0  0  0  0  0  0  0  0
   -4.1510   12.4802    5.4667 C   0  0  1  0  0  0  0  0  0  0  0  0
   -3.1258   13.0358    4.4340 C   0  0  2  0  0  0  0  0  0  0  0  0
   -5.8674   14.2231    5.2919 C   0  0  0  0  0  0  0  0  0  0  0  0
   -2.3636    9.1134    6.0822 O   0  0  0  0  0  0  0  0  0  0  0  0
   -1.7748   12.5525    4.7077 O   0  0  0  0  0  0  0  0  0  0  0  0
    1.4060    8.9320    5.9307 N   0  0  0  0  0  0  0  0  0  0  0  0
   -5.5442   12.7945    5.0878 N   0  0  0  0  0  0  0  0  0  0  0  0
   -4.5106   10.2318    4.5346 O   0  0  0  0  0  0  0  0  0  0  0  0
   -3.1713   14.4924    4.4050 O   0  0  0  0  0  0  0  0  0  0  0  0
   -0.6730    8.7771    7.7559 O   0  0  0  0  0  0  0  0  0  0  0  0
   -2.5337   15.1874    3.2895 C   0  0  2  0  0  0  0  0  0  0  0  0
   -2.6582   16.7293    3.4492 C   0  0  1  0  0  0  0  0  0  0  0  0
   -4.1198   17.2147    3.2299 C   0  0  2  0  0  0  0  0  0  0  0  0
   -4.6868   16.6966    1.8765 C   0  0  1  0  0  0  0  0  0  0  0  0
   -4.5109   15.1581    1.7435 C   0  0  1  0  0  0  0  0  0  0  0  0
   -4.9461   14.6455    0.3456 C   0  0  0  0  0  0  0  0  0  0  0  0
   -3.1292   14.7778    2.0222 O   0  0  0  0  0  0  0  0  0  0  0  0
   -6.0992   17.0965    1.6934 N   0  0  0  0  0  0  0  0  0  0  0  0
   -2.1475   17.1448    4.7145 O   0  0  0  0  0  0  0  0  0  0  0  0
   -4.2087   18.6354    3.3143 O   0  0  0  0  0  0  0  0  0  0  0  0
   -6.3263   14.2958    0.3407 O   0  0  0  0  0  0  0  0  0  0  0  0
   -0.9194    7.6697    8.6707 C   0  0  1  0  0  0  0  0  0  0  0  0
    0.4030    7.0435    9.1954 C   0  0  1  0  0  0  0  0  0  0  0  0
    0.1195    5.8051   10.0916 C   0  0  2  0  0  0  0  0  0  0  0  0
   -0.8734    6.1260   11.2556 C   0  0  1  0  0  0  0  0  0  0  0  0
   -2.1509    6.8768   10.7738 C   0  0  0  0  0  0  0  0  0  0  0  0
   -1.8228    8.0974    9.8622 C   0  0  2  0  0  0  0  0  0  0  0  0
   -1.2320    4.8964   11.9941 N   0  0  0  0  0  0  0  0  0  0  0  0
   -3.0845    8.7208    9.4075 N   0  0  0  0  0  0  0  0  0  0  0  0
    1.2643    6.6994    8.1150 O   0  0  0  0  0  0  0  0  0  0  0  0
    1.3378    5.2747   10.6076 O   0  0  0  0  0  0  0  0  0  0  0  0
  1  2  1  0  0  0  0
  1 16  1  1  0  0  0
  2  3  1  0  0  0  0
  2 12  1  1  0  0  0
  4 11  1  1  0  0  0
  4  3  1  0  0  0  0
  5  4  1  0  0  0  0
  5 10  1  6  0  0  0
  6  7  1  0  0  0  0
  6  5  1  0  0  0  0
  6 14  1  6  0  0  0
  7  8  1  0  0  0  0
  7 13  1  6  0  0  0
  8 15  1  1  0  0  0
  8 11  1  0  0  0  0
  9 13  1  0  0  0  0
 10  1  1  0  0  0  0
 17 15  1  1  0  0  0
 17 18  1  0  0  0  0
 18 25  1  1  0  0  0
 19 18  1  0  0  0  0
 19 26  1  6  0  0  0
 20 19  1  0  0  0  0
 20 24  1  1  0  0  0
 21 23  1  0  0  0  0
 21 20  1  0  0  0  0
 21 22  1  6  0  0  0
 23 17  1  0  0  0  0
 27 22  1  0  0  0  0
 28 29  1  0  0  0  0
 28 16  1  1  0  0  0
 29 36  1  6  0  0  0
 30 37  1  1  0  0  0
 30 29  1  0  0  0  0
 31 30  1  0  0  0  0
 31 34  1  6  0  0  0
 32 31  1  0  0  0  0
 32 33  1  0  0  0  0
 33 28  1  0  0  0  0
 33 35  1  6  0  0  0
M  END
>  <CHROM.1>
145.55139623,-165.32558908,162.31269682,178.86679051,-178.72842108,-140.21128370
63.78469576,65.33373633,-90.07432047,161.42522487,57.94816693,111.62296580
178.81340717,176.54915887,-46.67646792,150.73796006,-2.48221908,11.43635188
5.74274334,-1.23176737,0.15438255,-0.70346224

>  <Name>
lig.pdb

>  <RI>
0

>  <Rbt.Current_Directory>
/home/itssahil/PROJECTS/Mol_Feturizer/New_Systems/rnas/2m4q

>  <Rbt.Executable>
rbdock ($Id: //depot/dev/client3/rdock/2013.1/src/exe/rbdock.cxx#4 $)

>  <Rbt.Library>
libRbt.so (2013.1, Build901 2013/11/27)

>  <Rbt.Parameter_File>
/export/apps/rDock/src/rDock_2013.1_src/data/scripts/dock_solv.prm

>  <Rbt.Receptor>
prm/pocket_docking_7.prm

>  <SCORE>
-41.927

>  <SCORE.INTER>
-26.1499

>  <SCORE.INTER.CONST>
1

>  <SCORE.INTER.POLAR>
-4.09165

>  <SCORE.INTER.ROT>
10

>  <SCORE.INTER.SOLV>
16.5255

>  <SCORE.INTER.VDW>
-19.5696

>  <SCORE.INTER.norm>
-0.706754

>  <SCORE.INTRA>
-15.8063

>  <SCORE.INTRA.DIHEDRAL>
-24.5114

>  <SCORE.INTRA.DIHEDRAL.0>
44.8331

>  <SCORE.INTRA.POLAR>
-1.0022

>  <SCORE.INTRA.POLAR.0>
-0.108895

>  <SCORE.INTRA.REPUL>
-0.00912235

>  <SCORE.INTRA.REPUL.0>
0.00912235

>  <SCORE.INTRA.SOLV>
-0.933259

>  <SCORE.INTRA.SOLV.lig_0>
-53.9067

>  <SCORE.INTRA.VDW>
0.369126

>  <SCORE.INTRA.VDW.0>
-2.93492

>  <SCORE.INTRA.norm>
-0.427197

>  <SCORE.RESTR>
0.0291881

>  <SCORE.RESTR.CAVITY>
0.0291881

>  <SCORE.RESTR.norm>
0.000788866

>  <SCORE.SYSTEM>
0

>  <SCORE.SYSTEM.CONST>
0

>  <SCORE.SYSTEM.DIHEDRAL>
0

>  <SCORE.SYSTEM.SOLV>
0

>  <SCORE.SYSTEM.norm>
0

>  <SCORE.heavy>
37

>  <SCORE.norm>
-1.13316

>  <RMSD>
12.222

$$$$
lig.pdb
 OpenBabel11021811453D
libRbt.so/2013.1/901 2013/11/27
 37 40  0  0  0  0  0  0  0  0999 V2000
   -1.2572    9.2448    7.9325 C   0  0  2  0  0  0  0  0  0  0  0  0
   -2.1920    9.0545    6.6928 C   0  0  1  0  0  0  0  0  0  0  0  0
   -2.3682   10.3516    5.8500 C   0  0  0  0  0  0  0  0  0  0  0  0
   -2.7193   11.5598    6.7532 C   0  0  1  0  0  0  0  0  0  0  0  0
   -1.6455   11.7252    7.8518 C   0  0  1  0  0  0  0  0  0  0  0  0
   -1.9475   12.9587    8.7445 C   0  0  1  0  0  0  0  0  0  0  0  0
   -2.1340   14.2394    7.8775 C   0  0  1  0  0  0  0  0  0  0  0  0
   -3.1604   14.0204    6.7265 C   0  0  2  0  0  0  0  0  0  0  0  0
   -2.0635   16.6674    8.2153 C   0  0  0  0  0  0  0  0  0  0  0  0
   -1.5281   10.5017    8.6338 O   0  0  0  0  0  0  0  0  0  0  0  0
   -2.8842   12.7896    5.9899 O   0  0  0  0  0  0  0  0  0  0  0  0
   -1.6671    7.9714    5.8331 N   0  0  0  0  0  0  0  0  0  0  0  0
   -2.5164   15.3663    8.7533 N   0  0  0  0  0  0  0  0  0  0  0  0
   -3.0780   12.7302    9.5759 O   0  0  0  0  0  0  0  0  0  0  0  0
   -3.1826   15.1756    5.8379 O   0  0  0  0  0  0  0  0  0  0  0  0
    0.1499    9.1673    7.5495 O   0  0  0  0  0  0  0  0  0  0  0  0
   -4.2939   15.3116    4.8996 C   0  0  2  0  0  0  0  0  0  0  0  0
   -3.7882   15.7543    3.4972 C   0  0  1  0  0  0  0  0  0  0  0  0
   -3.2965   17.2302    3.5018 C   0  0  2  0  0  0  0  0  0  0  0  0
   -4.3813   18.1818    4.0845 C   0  0  1  0  0  0  0  0  0  0  0  0
   -4.8832   17.6842    5.4687 C   0  0  1  0  0  0  0  0  0  0  0  0
   -6.0596   18.5444    6.0001 C   0  0  0  0  0  0  0  0  0  0  0  0
   -5.2682   16.2779    5.3950 O   0  0  0  0  0  0  0  0  0  0  0  0
   -3.8945   19.5769    4.1562 N   0  0  0  0  0  0  0  0  0  0  0  0
   -2.7802   14.8630    3.0237 O   0  0  0  0  0  0  0  0  0  0  0  0
   -2.8970   17.6440    2.1970 O   0  0  0  0  0  0  0  0  0  0  0  0
   -7.0926   18.6482    5.0257 O   0  0  0  0  0  0  0  0  0  0  0  0
    1.0121    8.2759    8.3149 C   0  0  1  0  0  0  0  0  0  0  0  0
    1.2068    8.7683    9.7764 C   0  0  1  0  0  0  0  0  0  0  0  0
    2.2051    7.8581   10.5459 C   0  0  2  0  0  0  0  0  0  0  0  0
    1.8010    6.3490   10.4901 C   0  0  1  0  0  0  0  0  0  0  0  0
    1.4686    5.8628    9.0476 C   0  0  0  0  0  0  0  0  0  0  0  0
    0.4822    6.8138    8.3051 C   0  0  2  0  0  0  0  0  0  0  0  0
    2.8464    5.5023   11.1036 N   0  0  0  0  0  0  0  0  0  0  0  0
    0.2602    6.3120    6.9317 N   0  0  0  0  0  0  0  0  0  0  0  0
    1.6375   10.1253    9.8007 O   0  0  0  0  0  0  0  0  0  0  0  0
    2.3320    8.2904   11.8982 O   0  0  0  0  0  0  0  0  0  0  0  0
  1  2  1  0  0  0  0
  1 16  1  6  0  0  0
  2  3  1  0  0  0  0
  2 12  1  6  0  0  0
  4 11  1  6  0  0  0
  4  3  1  0  0  0  0
  5  4  1  0  0  0  0
  5 10  1  1  0  0  0
  6  7  1  0  0  0  0
  6  5  1  0  0  0  0
  6 14  1  6  0  0  0
  7  8  1  0  0  0  0
  7 13  1  1  0  0  0
  8 15  1  6  0  0  0
  8 11  1  0  0  0  0
  9 13  1  0  0  0  0
 10  1  1  0  0  0  0
 17 15  1  1  0  0  0
 17 18  1  0  0  0  0
 18 25  1  1  0  0  0
 19 18  1  0  0  0  0
 19 26  1  6  0  0  0
 20 19  1  0  0  0  0
 20 24  1  1  0  0  0
 21 23  1  0  0  0  0
 21 20  1  0  0  0  0
 21 22  1  6  0  0  0
 23 17  1  0  0  0  0
 27 22  1  0  0  0  0
 28 29  1  0  0  0  0
 28 16  1  1  0  0  0
 29 36  1  6  0  0  0
 30 37  1  1  0  0  0
 30 29  1  0  0  0  0
 31 30  1  0  0  0  0
 31 34  1  6  0  0  0
 32 31  1  0  0  0  0
 32 33  1  0  0  0  0
 33 28  1  0  0  0  0
 33 35  1  6  0  0  0
M  END
>  <CHROM.1>
-108.26573051,-165.20833701,151.01488161,-172.88099986,-136.93645800,-129.70247430
-163.07774111,-170.33709518,52.21833910,61.11402843,-172.47869455,-67.32164176
64.64752990,-55.98473929,-62.91509514,-55.56310565,-1.83743950,12.40758485
7.07234040,0.27081933,1.08411304,-2.31399114

>  <Name>
lig.pdb

>  <RI>
3.60165e+07

>  <Rbt.Current_Directory>
/home/itssahil/PROJECTS/Mol_Feturizer/New_Systems/rnas/2m4q

>  <Rbt.Executable>
rbdock ($Id: //depot/dev/client3/rdock/2013.1/src/exe/rbdock.cxx#4 $)

>  <Rbt.Library>
libRbt.so (2013.1, Build901 2013/11/27)

>  <Rbt.Parameter_File>
/export/apps/rDock/src/rDock_2013.1_src/data/scripts/dock_solv.prm

>  <Rbt.Receptor>
prm/pocket_docking_8.prm

>  <SCORE>
-36.1474

>  <SCORE.INTER>
-20.8442

>  <SCORE.INTER.CONST>
1

>  <SCORE.INTER.POLAR>
-4.60164

>  <SCORE.INTER.ROT>
10

>  <SCORE.INTER.SOLV>
11.6382

>  <SCORE.INTER.VDW>
-12.7034

>  <SCORE.INTER.norm>
-0.563358

>  <SCORE.INTRA>
-15.3031

>  <SCORE.INTRA.DIHEDRAL>
-24.5978

>  <SCORE.INTRA.DIHEDRAL.0>
44.8331

>  <SCORE.INTRA.POLAR>
-1.11561

>  <SCORE.INTRA.POLAR.0>
-0.108895

>  <SCORE.INTRA.REPUL>
0.245731

>  <SCORE.INTRA.REPUL.0>
0.00912235

>  <SCORE.INTRA.SOLV>
-0.423943

>  <SCORE.INTRA.SOLV.lig_0>
-53.9067

>  <SCORE.INTRA.VDW>
-0.227841

>  <SCORE.INTRA.VDW.0>
-2.93492

>  <SCORE.INTRA.norm>
-0.413599

>  <SCORE.RESTR>
0

>  <SCORE.RESTR.CAVITY>
0

>  <SCORE.RESTR.norm>
0

>  <SCORE.SYSTEM>
0

>  <SCORE.SYSTEM.CONST>
0

>  <SCORE.SYSTEM.DIHEDRAL>
0

>  <SCORE.SYSTEM.SOLV>
0

>  <SCORE.SYSTEM.norm>
0

>  <SCORE.heavy>
37

>  <SCORE.norm>
-0.976957

>  <RMSD>
12.270

$$$$
lig.pdb
 OpenBabel11021811453D
libRbt.so/2013.1/901 2013/11/27
 37 40  0  0  0  0  0  0  0  0999 V2000
   -1.1488   -0.8785   16.3306 C   0  0  2  0  0  0  0  0  0  0  0  0
   -2.5938   -1.4137   16.5999 C   0  0  1  0  0  0  0  0  0  0  0  0
   -3.6329   -0.9395   15.5420 C   0  0  0  0  0  0  0  0  0  0  0  0
   -3.5351    0.5889   15.3108 C   0  0  1  0  0  0  0  0  0  0  0  0
   -2.0911    0.9699   14.9146 C   0  0  1  0  0  0  0  0  0  0  0  0
   -1.9746    2.4916   14.6309 C   0  0  1  0  0  0  0  0  0  0  0  0
   -3.0334    2.9436   13.5814 C   0  0  1  0  0  0  0  0  0  0  0  0
   -4.4693    2.4755   13.9625 C   0  0  2  0  0  0  0  0  0  0  0  0
   -1.7397    4.8213   12.6791 C   0  0  0  0  0  0  0  0  0  0  0  0
   -1.1525    0.5329   15.9394 O   0  0  0  0  0  0  0  0  0  0  0  0
   -4.4936    1.0593   14.3198 O   0  0  0  0  0  0  0  0  0  0  0  0
   -2.5773   -2.8918   16.6518 N   0  0  0  0  0  0  0  0  0  0  0  0
   -2.9552    4.4095   13.4140 N   0  0  0  0  0  0  0  0  0  0  0  0
   -2.0804    3.2500   15.8289 O   0  0  0  0  0  0  0  0  0  0  0  0
   -5.4027    2.7647   12.8810 O   0  0  0  0  0  0  0  0  0  0  0  0
   -0.4663   -1.6854   15.3228 O   0  0  0  0  0  0  0  0  0  0  0  0
   -6.8082    2.9840   13.2135 C   0  0  2  0  0  0  0  0  0  0  0  0
   -7.0480    2.8396   14.7433 C   0  0  1  0  0  0  0  0  0  0  0  0
   -6.9195    1.3609   15.2091 C   0  0  2  0  0  0  0  0  0  0  0  0
   -7.8273    0.4238   14.3608 C   0  0  1  0  0  0  0  0  0  0  0  0
   -7.5803    0.6252   12.8397 C   0  0  1  0  0  0  0  0  0  0  0  0
   -8.5716   -0.2013   11.9790 C   0  0  0  0  0  0  0  0  0  0  0  0
   -7.6585    2.0415   12.4945 O   0  0  0  0  0  0  0  0  0  0  0  0
   -7.6579   -0.9927   14.7526 N   0  0  0  0  0  0  0  0  0  0  0  0
   -6.1743    3.7007   15.4710 O   0  0  0  0  0  0  0  0  0  0  0  0
   -7.2057    1.2325   16.6002 O   0  0  0  0  0  0  0  0  0  0  0  0
   -8.2674   -0.0754   10.5938 O   0  0  0  0  0  0  0  0  0  0  0  0
    0.9412   -1.4047   15.0698 C   0  0  1  0  0  0  0  0  0  0  0  0
    1.1318   -0.3780   13.9183 C   0  0  1  0  0  0  0  0  0  0  0  0
    2.6388   -0.1663   13.6002 C   0  0  2  0  0  0  0  0  0  0  0  0
    3.4671    0.2220   14.8678 C   0  0  1  0  0  0  0  0  0  0  0  0
    3.1919   -0.7142   16.0826 C   0  0  0  0  0  0  0  0  0  0  0  0
    1.6705   -0.9160   16.3534 C   0  0  2  0  0  0  0  0  0  0  0  0
    4.9117    0.2706   14.5567 N   0  0  0  0  0  0  0  0  0  0  0  0
    1.4956   -1.8538   17.4836 N   0  0  0  0  0  0  0  0  0  0  0  0
    0.4213   -0.7855   12.7535 O   0  0  0  0  0  0  0  0  0  0  0  0
    2.7989    0.8163   12.5800 O   0  0  0  0  0  0  0  0  0  0  0  0
  1  2  1  0  0  0  0
  1 16  1  6  0  0  0
  2  3  1  0  0  0  0
  2 12  1  6  0  0  0
  4 11  1  6  0  0  0
  4  3  1  0  0  0  0
  5  4  1  0  0  0  0
  5 10  1  1  0  0  0
  6  7  1  0  0  0  0
  6  5  1  0  0  0  0
  6 14  1  1  0  0  0
  7  8  1  0  0  0  0
  7 13  1  1  0  0  0
  8 15  1  6  0  0  0
  8 11  1  0  0  0  0
  9 13  1  0  0  0  0
 10  1  1  0  0  0  0
 17 15  1  1  0  0  0
 17 18  1  0  0  0  0
 18 25  1  1  0  0  0
 19 18  1  0  0  0  0
 19 26  1  1  0  0  0
 20 19  1  0  0  0  0
 20 24  1  1  0  0  0
 21 23  1  0  0  0  0
 21 20  1  0  0  0  0
 21 22  1  6  0  0  0
 23 17  1  0  0  0  0
 27 22  1  0  0  0  0
 28 29  1  0  0  0  0
 28 16  1  1  0  0  0
 29 36  1  6  0  0  0
 30 37  1  6  0  0  0
 30 29  1  0  0  0  0
 31 30  1  0  0  0  0
 31 34  1  6  0  0  0
 32 31  1  0  0  0  0
 32 33  1  0  0  0  0
 33 28  1  0  0  0  0
 33 35  1  1  0  0  0
M  END
>  <CHROM.1>
85.19499911,-152.56592127,72.27603379,-60.95865409,-0.75132293,-173.30201307
177.46036815,-61.69401505,-175.91131665,-172.48400219,72.93141399,-92.07110184
-83.63444530,-172.56513644,-55.93114828,-166.77268540,-2.77574691,0.74469233
14.51256657,0.24646796,0.03158627,2.63196395

>  <Name>
lig.pdb

>  <RI>
0

>  <Rbt.Current_Directory>
/home/itssahil/PROJECTS/Mol_Feturizer/New_Systems/rnas/2m4q

>  <Rbt.Executable>
rbdock ($Id: //depot/dev/client3/rdock/2013.1/src/exe/rbdock.cxx#4 $)

>  <Rbt.Library>
libRbt.so (2013.1, Build901 2013/11/27)

>  <Rbt.Parameter_File>
/export/apps/rDock/src/rDock_2013.1_src/data/scripts/dock_solv.prm

>  <Rbt.Receptor>
prm/blind_docking_20.prm

>  <SCORE>
-0.119381

>  <SCORE.INTER>
-14.7307

>  <SCORE.INTER.CONST>
1

>  <SCORE.INTER.POLAR>
-3.66218

>  <SCORE.INTER.ROT>
10

>  <SCORE.INTER.SOLV>
23.3224

>  <SCORE.INTER.VDW>
-15.654

>  <SCORE.INTER.norm>
-0.398126

>  <SCORE.INTRA>
-8.21732

>  <SCORE.INTRA.DIHEDRAL>
-24.4089

>  <SCORE.INTRA.DIHEDRAL.0>
44.8331

>  <SCORE.INTRA.POLAR>
-0.104882

>  <SCORE.INTRA.POLAR.0>
-0.108895

>  <SCORE.INTRA.REPUL>
0.0135951

>  <SCORE.INTRA.REPUL.0>
0.00912235

>  <SCORE.INTRA.SOLV>
-0.180004

>  <SCORE.INTRA.SOLV.lig_0>
-53.9067

>  <SCORE.INTRA.VDW>
4.36577

>  <SCORE.INTRA.VDW.0>
-2.93492

>  <SCORE.INTRA.norm>
-0.22209

>  <SCORE.RESTR>
22.8286

>  <SCORE.RESTR.CAVITY>
22.8286

>  <SCORE.RESTR.norm>
0.61699

>  <SCORE.SYSTEM>
0

>  <SCORE.SYSTEM.CONST>
0

>  <SCORE.SYSTEM.DIHEDRAL>
0

>  <SCORE.SYSTEM.SOLV>
0

>  <SCORE.SYSTEM.norm>
0

>  <SCORE.heavy>
37

>  <SCORE.norm>
-0.00322652

>  <RMSD>
12.364

$$$$
lig.pdb
 OpenBabel11021811453D
libRbt.so/2013.1/901 2013/11/27
 37 40  0  0  0  0  0  0  0  0999 V2000
    1.0998   -1.0829   16.6567 C   0  0  2  0  0  0  0  0  0  0  0  0
   -0.1118   -1.8564   17.2737 C   0  0  1  0  0  0  0  0  0  0  0  0
   -1.4343   -1.6669   16.4744 C   0  0  0  0  0  0  0  0  0  0  0  0
   -1.6975   -0.1694   16.1791 C   0  0  1  0  0  0  0  0  0  0  0  0
   -0.4844    0.4431   15.4439 C   0  0  1  0  0  0  0  0  0  0  0  0
   -0.7402    1.9335   15.0934 C   0  0  1  0  0  0  0  0  0  0  0  0
   -2.0751    2.0981   14.3076 C   0  0  1  0  0  0  0  0  0  0  0  0
   -3.2665    1.4007   15.0290 C   0  0  2  0  0  0  0  0  0  0  0  0
   -2.6075    3.8340   12.6591 C   0  0  0  0  0  0  0  0  0  0  0  0
    0.7274    0.2688   16.2334 O   0  0  0  0  0  0  0  0  0  0  0  0
   -2.9274    0.0365   15.4261 O   0  0  0  0  0  0  0  0  0  0  0  0
    0.2102   -3.2970   17.3664 N   0  0  0  0  0  0  0  0  0  0  0  0
   -2.3302    3.5357   14.0808 N   0  0  0  0  0  0  0  0  0  0  0  0
   -0.7243    2.7482   16.2585 O   0  0  0  0  0  0  0  0  0  0  0  0
   -4.4565    1.4269   14.1878 O   0  0  0  0  0  0  0  0  0  0  0  0
    1.6865   -1.8229   15.5428 O   0  0  0  0  0  0  0  0  0  0  0  0
   -5.1492    2.6993   14.0000 C   0  0  2  0  0  0  0  0  0  0  0  0
   -5.7705    3.1980   15.3357 C   0  0  1  0  0  0  0  0  0  0  0  0
   -6.9842    2.3259   15.7672 C   0  0  2  0  0  0  0  0  0  0  0  0
   -8.0277    2.2078   14.6187 C   0  0  1  0  0  0  0  0  0  0  0  0
   -7.3595    1.7407   13.2956 C   0  0  1  0  0  0  0  0  0  0  0  0
   -8.3589    1.7492   12.1092 C   0  0  0  0  0  0  0  0  0  0  0  0
   -6.1964    2.5695   12.9926 O   0  0  0  0  0  0  0  0  0  0  0  0
   -9.1512    1.3233   14.9979 N   0  0  0  0  0  0  0  0  0  0  0  0
   -4.7768    3.2631   16.3569 O   0  0  0  0  0  0  0  0  0  0  0  0
   -7.5847    2.8321   16.9574 O   0  0  0  0  0  0  0  0  0  0  0  0
   -8.3372    0.5040   11.4189 O   0  0  0  0  0  0  0  0  0  0  0  0
    2.8159   -1.2183   14.8480 C   0  0  1  0  0  0  0  0  0  0  0  0
    2.3572   -0.1824   13.7837 C   0  0  1  0  0  0  0  0  0  0  0  0
    3.5698    0.3785   12.9887 C   0  0  2  0  0  0  0  0  0  0  0  0
    4.6793    0.9592   13.9244 C   0  0  1  0  0  0  0  0  0  0  0  0
    5.0629   -0.0084   15.0838 C   0  0  0  0  0  0  0  0  0  0  0  0
    3.8184   -0.5633   15.8402 C   0  0  2  0  0  0  0  0  0  0  0  0
    5.8742    1.3468   13.1446 N   0  0  0  0  0  0  0  0  0  0  0  0
    4.2640   -1.5093   16.8861 N   0  0  0  0  0  0  0  0  0  0  0  0
    1.3952   -0.7533   12.9027 O   0  0  0  0  0  0  0  0  0  0  0  0
    3.1392    1.3651   12.0544 O   0  0  0  0  0  0  0  0  0  0  0  0
  1  2  1  0  0  0  0
  1 16  1  6  0  0  0
  2  3  1  0  0  0  0
  2 12  1  6  0  0  0
  4 11  1  6  0  0  0
  4  3  1  0  0  0  0
  5  4  1  0  0  0  0
  5 10  1  1  0  0  0
  6  7  1  0  0  0  0
  6  5  1  0  0  0  0
  6 14  1  1  0  0  0
  7  8  1  0  0  0  0
  7 13  1  1  0  0  0
  8 15  1  6  0  0  0
  8 11  1  0  0  0  0
  9 13  1  0  0  0  0
 10  1  1  0  0  0  0
 17 15  1  1  0  0  0
 17 18  1  0  0  0  0
 18 25  1  1  0  0  0
 19 18  1  0  0  0  0
 19 26  1  1  0  0  0
 20 19  1  0  0  0  0
 20 24  1  1  0  0  0
 21 23  1  0  0  0  0
 21 20  1  0  0  0  0
 21 22  1  6  0  0  0
 23 17  1  0  0  0  0
 27 22  1  0  0  0  0
 28 29  1  0  0  0  0
 28 16  1  1  0  0  0
 29 36  1  6  0  0  0
 30 37  1  6  0  0  0
 30 29  1  0  0  0  0
 31 30  1  0  0  0  0
 31 34  1  6  0  0  0
 32 31  1  0  0  0  0
 32 33  1  0  0  0  0
 33 28  1  0  0  0  0
 33 35  1  1  0  0  0
M  END
>  <CHROM.1>
-13.14995728,-72.08241003,128.38525953,60.47549965,-65.92872727,179.02819052
75.18272168,63.79833229,-129.31742818,-53.56676955,-169.78343681,-82.45507517
-68.58981776,-90.47765131,-158.21615740,-45.54794338,-1.65057188,0.87750888
14.78481141,0.19076756,-0.14543153,2.25613148

>  <Name>
lig.pdb

>  <RI>
0

>  <Rbt.Current_Directory>
/home/itssahil/PROJECTS/Mol_Feturizer/New_Systems/rnas/2m4q

>  <Rbt.Executable>
rbdock ($Id: //depot/dev/client3/rdock/2013.1/src/exe/rbdock.cxx#4 $)

>  <Rbt.Library>
libRbt.so (2013.1, Build901 2013/11/27)

>  <Rbt.Parameter_File>
/export/apps/rDock/src/rDock_2013.1_src/data/scripts/dock_solv.prm

>  <Rbt.Receptor>
prm/blind_docking_20.prm

>  <SCORE>
-10.2002

>  <SCORE.INTER>
-20.0369

>  <SCORE.INTER.CONST>
1

>  <SCORE.INTER.POLAR>
-4.35048

>  <SCORE.INTER.ROT>
10

>  <SCORE.INTER.SOLV>
23.0563

>  <SCORE.INTER.VDW>
-16.8084

>  <SCORE.INTER.norm>
-0.541539

>  <SCORE.INTRA>
-11.3802

>  <SCORE.INTRA.DIHEDRAL>
-24.9847

>  <SCORE.INTRA.DIHEDRAL.0>
44.8331

>  <SCORE.INTRA.POLAR>
-0.118902

>  <SCORE.INTRA.POLAR.0>
-0.108895

>  <SCORE.INTRA.REPUL>
-0.00912235

>  <SCORE.INTRA.REPUL.0>
0.00912235

>  <SCORE.INTRA.SOLV>
-0.181123

>  <SCORE.INTRA.SOLV.lig_0>
-53.9067

>  <SCORE.INTRA.VDW>
1.65263

>  <SCORE.INTRA.VDW.0>
-2.93492

>  <SCORE.INTRA.norm>
-0.307572

>  <SCORE.RESTR>
21.2169

>  <SCORE.RESTR.CAVITY>
21.2169

>  <SCORE.RESTR.norm>
0.57343

>  <SCORE.SYSTEM>
0

>  <SCORE.SYSTEM.CONST>
0

>  <SCORE.SYSTEM.DIHEDRAL>
0

>  <SCORE.SYSTEM.SOLV>
0

>  <SCORE.SYSTEM.norm>
0

>  <SCORE.heavy>
37

>  <SCORE.norm>
-0.275681

>  <RMSD>
12.413

$$$$
lig.pdb
 OpenBabel11021811453D
libRbt.so/2013.1/901 2013/11/27
 37 40  0  0  0  0  0  0  0  0999 V2000
    1.0195   -1.2700   16.7820 C   0  0  2  0  0  0  0  0  0  0  0  0
   -0.2202   -2.0004   17.3959 C   0  0  1  0  0  0  0  0  0  0  0  0
   -1.5256   -1.7946   16.5728 C   0  0  0  0  0  0  0  0  0  0  0  0
   -1.7468   -0.2974   16.2436 C   0  0  1  0  0  0  0  0  0  0  0  0
   -0.5079    0.2697   15.5148 C   0  0  1  0  0  0  0  0  0  0  0  0
   -0.7210    1.7586   15.1305 C   0  0  1  0  0  0  0  0  0  0  0  0
   -2.0397    1.9401   14.3213 C   0  0  1  0  0  0  0  0  0  0  0  0
   -3.2587    1.2873   15.0383 C   0  0  2  0  0  0  0  0  0  0  0  0
   -2.5803    3.6455   12.6441 C   0  0  0  0  0  0  0  0  0  0  0  0
    0.6873    0.0816   16.3260 O   0  0  0  0  0  0  0  0  0  0  0  0
   -2.9598   -0.0765   15.4679 O   0  0  0  0  0  0  0  0  0  0  0  0
    0.0641   -3.4463   17.5223 N   0  0  0  0  0  0  0  0  0  0  0  0
   -2.2552    3.3786   14.0619 N   0  0  0  0  0  0  0  0  0  0  0  0
   -0.7019    2.5963   16.2792 O   0  0  0  0  0  0  0  0  0  0  0  0
   -4.4352    1.3258   14.1787 O   0  0  0  0  0  0  0  0  0  0  0  0
    1.6037   -2.0469   15.6922 O   0  0  0  0  0  0  0  0  0  0  0  0
   -5.0766    2.6150   13.9328 C   0  0  2  0  0  0  0  0  0  0  0  0
   -5.5467    3.2666   15.2644 C   0  0  1  0  0  0  0  0  0  0  0  0
   -6.7585    2.5095   15.8795 C   0  0  2  0  0  0  0  0  0  0  0  0
   -7.9075    2.3514   14.8419 C   0  0  1  0  0  0  0  0  0  0  0  0
   -7.3879    1.7296   13.5157 C   0  0  1  0  0  0  0  0  0  0  0  0
   -8.4901    1.6913   12.4248 C   0  0  0  0  0  0  0  0  0  0  0  0
   -6.2169    2.4580   13.0365 O   0  0  0  0  0  0  0  0  0  0  0  0
   -9.0350    1.5720   15.3984 N   0  0  0  0  0  0  0  0  0  0  0  0
   -4.4616    3.3637   16.1852 O   0  0  0  0  0  0  0  0  0  0  0  0
   -7.2210    3.1542   17.0643 O   0  0  0  0  0  0  0  0  0  0  0  0
   -8.2585    0.6277   11.5070 O   0  0  0  0  0  0  0  0  0  0  0  0
    2.6850   -1.4366   14.9292 C   0  0  1  0  0  0  0  0  0  0  0  0
    2.1503   -0.5487   13.7708 C   0  0  1  0  0  0  0  0  0  0  0  0
    3.3175    0.0140   12.9116 C   0  0  2  0  0  0  0  0  0  0  0  0
    4.3848    0.7637   13.7733 C   0  0  1  0  0  0  0  0  0  0  0  0
    4.8399   -0.0522   15.0203 C   0  0  0  0  0  0  0  0  0  0  0  0
    3.6404   -0.6151   15.8407 C   0  0  2  0  0  0  0  0  0  0  0  0
    5.5467    1.1548   12.9468 N   0  0  0  0  0  0  0  0  0  0  0  0
    4.1554   -1.4166   16.9719 N   0  0  0  0  0  0  0  0  0  0  0  0
    1.2295   -1.2726   12.9610 O   0  0  0  0  0  0  0  0  0  0  0  0
    2.8147    0.8681   11.8871 O   0  0  0  0  0  0  0  0  0  0  0  0
  1  2  1  0  0  0  0
  1 16  1  6  0  0  0
  2  3  1  0  0  0  0
  2 12  1  6  0  0  0
  4 11  1  6  0  0  0
  4  3  1  0  0  0  0
  5  4  1  0  0  0  0
  5 10  1  1  0  0  0
  6  7  1  0  0  0  0
  6  5  1  0  0  0  0
  6 14  1  1  0  0  0
  7  8  1  0  0  0  0
  7 13  1  1  0  0  0
  8 15  1  6  0  0  0
  8 11  1  0  0  0  0
  9 13  1  0  0  0  0
 10  1  1  0  0  0  0
 17 15  1  1  0  0  0
 17 18  1  0  0  0  0
 18 25  1  1  0  0  0
 19 18  1  0  0  0  0
 19 26  1  1  0  0  0
 20 19  1  0  0  0  0
 20 24  1  1  0  0  0
 21 23  1  0  0  0  0
 21 20  1  0  0  0  0
 21 22  1  6  0  0  0
 23 17  1  0  0  0  0
 27 22  1  0  0  0  0
 28 29  1  0  0  0  0
 28 16  1  1  0  0  0
 29 36  1  6  0  0  0
 30 37  1  6  0  0  0
 30 29  1  0  0  0  0
 31 30  1  0  0  0  0
 31 34  1  6  0  0  0
 32 31  1  0  0  0  0
 32 33  1  0  0  0  0
 33 28  1  0  0  0  0
 33 35  1  1  0  0  0
M  END
>  <CHROM.1>
120.34619318,-70.84568509,131.64942157,-55.93520275,-59.14351659,173.94872414
-175.12728847,64.24521586,-152.70516918,-52.16735721,66.34187202,-85.86323332
-84.11454721,-68.38116741,-174.03944382,-33.70944655,-1.68744751,0.77092551
14.83789393,0.19797960,-0.18785092,2.21221241

>  <Name>
lig.pdb

>  <RI>
0

>  <Rbt.Current_Directory>
/home/itssahil/PROJECTS/Mol_Feturizer/New_Systems/rnas/2m4q

>  <Rbt.Executable>
rbdock ($Id: //depot/dev/client3/rdock/2013.1/src/exe/rbdock.cxx#4 $)

>  <Rbt.Library>
libRbt.so (2013.1, Build901 2013/11/27)

>  <Rbt.Parameter_File>
/export/apps/rDock/src/rDock_2013.1_src/data/scripts/dock_solv.prm

>  <Rbt.Receptor>
prm/blind_docking_20.prm

>  <SCORE>
-5.82683

>  <SCORE.INTER>
-9.96791

>  <SCORE.INTER.CONST>
1

>  <SCORE.INTER.POLAR>
-3.7567

>  <SCORE.INTER.ROT>
10

>  <SCORE.INTER.SOLV>
24.0469

>  <SCORE.INTER.VDW>
-12.4052

>  <SCORE.INTER.norm>
-0.269403

>  <SCORE.INTRA>
-15.949

>  <SCORE.INTRA.DIHEDRAL>
-29.4004

>  <SCORE.INTRA.DIHEDRAL.0>
44.8331

>  <SCORE.INTRA.POLAR>
-0.93997

>  <SCORE.INTRA.POLAR.0>
-0.108895

>  <SCORE.INTRA.REPUL>
-0.00912235

>  <SCORE.INTRA.REPUL.0>
0.00912235

>  <SCORE.INTRA.SOLV>
0.235491

>  <SCORE.INTRA.SOLV.lig_0>
-53.9067

>  <SCORE.INTRA.VDW>
1.87494

>  <SCORE.INTRA.VDW.0>
-2.93492

>  <SCORE.INTRA.norm>
-0.431055

>  <SCORE.RESTR>
20.0901

>  <SCORE.RESTR.CAVITY>
20.0901

>  <SCORE.RESTR.norm>
0.542976

>  <SCORE.SYSTEM>
0

>  <SCORE.SYSTEM.CONST>
0

>  <SCORE.SYSTEM.DIHEDRAL>
0

>  <SCORE.SYSTEM.SOLV>
0

>  <SCORE.SYSTEM.norm>
0

>  <SCORE.heavy>
37

>  <SCORE.norm>
-0.157482

>  <RMSD>
12.441

$$$$
lig.pdb
 OpenBabel11021811453D
libRbt.so/2013.1/901 2013/11/27
 37 40  0  0  0  0  0  0  0  0999 V2000
    0.9654   -1.1811   16.8228 C   0  0  2  0  0  0  0  0  0  0  0  0
   -0.2758   -1.9632   17.3659 C   0  0  1  0  0  0  0  0  0  0  0  0
   -1.5537   -1.7685   16.4984 C   0  0  0  0  0  0  0  0  0  0  0  0
   -1.8046   -0.2687   16.2041 C   0  0  1  0  0  0  0  0  0  0  0  0
   -0.5552    0.3537   15.5415 C   0  0  1  0  0  0  0  0  0  0  0  0
   -0.7956    1.8470   15.1924 C   0  0  1  0  0  0  0  0  0  0  0  0
   -2.0867    2.0167   14.3374 C   0  0  1  0  0  0  0  0  0  0  0  0
   -3.3134    1.3096   14.9866 C   0  0  2  0  0  0  0  0  0  0  0  0
   -2.6079    3.7567   12.6899 C   0  0  0  0  0  0  0  0  0  0  0  0
    0.6127    0.1740   16.3935 O   0  0  0  0  0  0  0  0  0  0  0  0
   -2.9926   -0.0578   15.3879 O   0  0  0  0  0  0  0  0  0  0  0  0
    0.0446   -3.4040   17.4616 N   0  0  0  0  0  0  0  0  0  0  0  0
   -2.3329    3.4559   14.1115 N   0  0  0  0  0  0  0  0  0  0  0  0
   -0.8447    2.6501   16.3647 O   0  0  0  0  0  0  0  0  0  0  0  0
   -4.4564    1.3418   14.0828 O   0  0  0  0  0  0  0  0  0  0  0  0
    1.6131   -1.9087   15.7349 O   0  0  0  0  0  0  0  0  0  0  0  0
   -5.1351    2.6165   13.8628 C   0  0  2  0  0  0  0  0  0  0  0  0
   -5.6446    3.2153   15.2046 C   0  0  1  0  0  0  0  0  0  0  0  0
   -6.8402    2.4035   15.7804 C   0  0  2  0  0  0  0  0  0  0  0  0
   -7.9688    2.2383   14.7216 C   0  0  1  0  0  0  0  0  0  0  0  0
   -7.4109    1.6706   13.3867 C   0  0  1  0  0  0  0  0  0  0  0  0
   -8.4957    1.6280   12.2788 C   0  0  0  0  0  0  0  0  0  0  0  0
   -6.2571    2.4487   12.9455 O   0  0  0  0  0  0  0  0  0  0  0  0
   -9.0786    1.4084   15.2395 N   0  0  0  0  0  0  0  0  0  0  0  0
   -4.5763    3.3209   16.1439 O   0  0  0  0  0  0  0  0  0  0  0  0
   -7.3398    2.9999   16.9754 O   0  0  0  0  0  0  0  0  0  0  0  0
   -8.3333    2.7104   11.3681 O   0  0  0  0  0  0  0  0  0  0  0  0
    2.7717   -1.2909   15.1025 C   0  0  1  0  0  0  0  0  0  0  0  0
    2.3764   -0.4589   13.8504 C   0  0  1  0  0  0  0  0  0  0  0  0
    3.6343    0.1107   13.1361 C   0  0  2  0  0  0  0  0  0  0  0  0
    4.5548    0.9212   14.1055 C   0  0  1  0  0  0  0  0  0  0  0  0
    4.8575    0.1615   15.4318 C   0  0  0  0  0  0  0  0  0  0  0  0
    3.5728   -0.4105   16.1034 C   0  0  2  0  0  0  0  0  0  0  0  0
    5.8076    1.3202   13.4293 N   0  0  0  0  0  0  0  0  0  0  0  0
    3.9501   -1.1578   17.3226 N   0  0  0  0  0  0  0  0  0  0  0  0
    1.5933   -1.2374   12.9514 O   0  0  0  0  0  0  0  0  0  0  0  0
    3.2532    0.9144   12.0223 O   0  0  0  0  0  0  0  0  0  0  0  0
  1  2  1  0  0  0  0
  1 16  1  6  0  0  0
  2  3  1  0  0  0  0
  2 12  1  6  0  0  0
  4 11  1  6  0  0  0
  4  3  1  0  0  0  0
  5  4  1  0  0  0  0
  5 10  1  1  0  0  0
  6  7  1  0  0  0  0
  6  5  1  0  0  0  0
  6 14  1  1  0  0  0
  7  8  1  0  0  0  0
  7 13  1  1  0  0  0
  8 15  1  6  0  0  0
  8 11  1  0  0  0  0
  9 13  1  0  0  0  0
 10  1  1  0  0  0  0
 17 15  1  1  0  0  0
 17 18  1  0  0  0  0
 18 25  1  1  0  0  0
 19 18  1  0  0  0  0
 19 26  1  1  0  0  0
 20 19  1  0  0  0  0
 20 24  1  1  0  0  0
 21 23  1  0  0  0  0
 21 20  1  0  0  0  0
 21 22  1  6  0  0  0
 23 17  1  0  0  0  0
 27 22  1  0  0  0  0
 28 29  1  0  0  0  0
 28 16  1  1  0  0  0
 29 36  1  6  0  0  0
 30 37  1  6  0  0  0
 30 29  1  0  0  0  0
 31 30  1  0  0  0  0
 31 34  1  6  0  0  0
 32 31  1  0  0  0  0
 32 33  1  0  0  0  0
 33 28  1  0  0  0  0
 33 35  1  1  0  0  0
M  END
>  <CHROM.1>
-167.65543514,-71.63561697,131.53959173,61.42067119,-57.52755240,178.65441741
178.48063809,-63.90192011,101.97539172,53.55205764,161.38109278,-93.26042871
-67.49585069,-167.62310008,86.11377516,-7.35981585,-1.68303988,0.87961997
14.86786493,0.22282706,-0.16657894,2.22671566

>  <Name>
lig.pdb

>  <RI>
0

>  <Rbt.Current_Directory>
/home/itssahil/PROJECTS/Mol_Feturizer/New_Systems/rnas/2m4q

>  <Rbt.Executable>
rbdock ($Id: //depot/dev/client3/rdock/2013.1/src/exe/rbdock.cxx#4 $)

>  <Rbt.Library>
libRbt.so (2013.1, Build901 2013/11/27)

>  <Rbt.Parameter_File>
/export/apps/rDock/src/rDock_2013.1_src/data/scripts/dock_solv.prm

>  <Rbt.Receptor>
prm/blind_docking_20.prm

>  <SCORE>
-0.829648

>  <SCORE.INTER>
-8.78169

>  <SCORE.INTER.CONST>
1

>  <SCORE.INTER.POLAR>
-3.06974

>  <SCORE.INTER.ROT>
10

>  <SCORE.INTER.SOLV>
23.9589

>  <SCORE.INTER.VDW>
-13.8749

>  <SCORE.INTER.norm>
-0.237343

>  <SCORE.INTRA>
-12.5302

>  <SCORE.INTRA.DIHEDRAL>
-26.5929

>  <SCORE.INTRA.DIHEDRAL.0>
44.8331

>  <SCORE.INTRA.POLAR>
-0.861522

>  <SCORE.INTRA.POLAR.0>
-0.108895

>  <SCORE.INTRA.REPUL>
0.293442

>  <SCORE.INTRA.REPUL.0>
0.00912235

>  <SCORE.INTRA.SOLV>
0.359753

>  <SCORE.INTRA.SOLV.lig_0>
-53.9067

>  <SCORE.INTRA.VDW>
2.04836

>  <SCORE.INTRA.VDW.0>
-2.93492

>  <SCORE.INTRA.norm>
-0.338654

>  <SCORE.RESTR>
20.4822

>  <SCORE.RESTR.CAVITY>
20.4822

>  <SCORE.RESTR.norm>
0.553574

>  <SCORE.SYSTEM>
0

>  <SCORE.SYSTEM.CONST>
0

>  <SCORE.SYSTEM.DIHEDRAL>
0

>  <SCORE.SYSTEM.SOLV>
0

>  <SCORE.SYSTEM.norm>
0

>  <SCORE.heavy>
37

>  <SCORE.norm>
-0.0224229

>  <RMSD>
12.473

$$$$
lig.pdb
 OpenBabel11021811453D
libRbt.so/2013.1/901 2013/11/27
 37 40  0  0  0  0  0  0  0  0999 V2000
    2.0774   -1.8012   14.7839 C   0  0  2  0  0  0  0  0  0  0  0  0
    1.8768   -1.1125   13.3937 C   0  0  1  0  0  0  0  0  0  0  0  0
    0.5962   -0.2300   13.3232 C   0  0  0  0  0  0  0  0  0  0  0  0
   -0.6394   -0.9969   13.8564 C   0  0  1  0  0  0  0  0  0  0  0  0
   -0.3652   -1.5050   15.2896 C   0  0  1  0  0  0  0  0  0  0  0  0
   -1.6056   -2.2380   15.8674 C   0  0  1  0  0  0  0  0  0  0  0  0
   -2.8754   -1.3407   15.7719 C   0  0  1  0  0  0  0  0  0  0  0  0
   -3.0828   -0.7743   14.3358 C   0  0  2  0  0  0  0  0  0  0  0  0
   -4.4472   -3.1560   15.2737 C   0  0  0  0  0  0  0  0  0  0  0  0
    0.8239   -2.3463   15.3101 O   0  0  0  0  0  0  0  0  0  0  0  0
   -1.8521   -0.1914   13.8073 O   0  0  0  0  0  0  0  0  0  0  0  0
    3.0635   -0.2924   13.0668 N   0  0  0  0  0  0  0  0  0  0  0  0
   -4.0481   -2.1088   16.2387 N   0  0  0  0  0  0  0  0  0  0  0  0
   -1.8103   -3.4905   15.2264 O   0  0  0  0  0  0  0  0  0  0  0  0
   -4.1744    0.1915   14.3224 O   0  0  0  0  0  0  0  0  0  0  0  0
    2.6779   -0.8819   15.7467 O   0  0  0  0  0  0  0  0  0  0  0  0
   -4.2878    1.1303   15.4358 C   0  0  2  0  0  0  0  0  0  0  0  0
   -4.3529    2.5972   14.9235 C   0  0  1  0  0  0  0  0  0  0  0  0
   -2.9852    3.0684   14.3512 C   0  0  2  0  0  0  0  0  0  0  0  0
   -1.8368    2.8329   15.3748 C   0  0  1  0  0  0  0  0  0  0  0  0
   -1.8298    1.3654   15.8864 C   0  0  1  0  0  0  0  0  0  0  0  0
   -0.7792    1.1493   17.0071 C   0  0  0  0  0  0  0  0  0  0  0  0
   -3.1601    0.9814   16.3493 O   0  0  0  0  0  0  0  0  0  0  0  0
   -0.5235    3.2145   14.8110 N   0  0  0  0  0  0  0  0  0  0  0  0
   -5.4046    2.7495   13.9720 O   0  0  0  0  0  0  0  0  0  0  0  0
   -3.0399    4.4343   13.9454 O   0  0  0  0  0  0  0  0  0  0  0  0
   -0.8660   -0.1698   17.5362 O   0  0  0  0  0  0  0  0  0  0  0  0
    4.1056   -0.6143   15.6281 C   0  0  1  0  0  0  0  0  0  0  0  0
    4.7255   -0.1560   16.9778 C   0  0  1  0  0  0  0  0  0  0  0  0
    6.2253    0.2166   16.8076 C   0  0  2  0  0  0  0  0  0  0  0  0
    7.0543   -0.9330   16.1480 C   0  0  1  0  0  0  0  0  0  0  0  0
    6.3839   -1.5040   14.8625 C   0  0  0  0  0  0  0  0  0  0  0  0
    4.8773   -1.8441   15.0707 C   0  0  2  0  0  0  0  0  0  0  0  0
    8.4369   -0.4900   15.8687 N   0  0  0  0  0  0  0  0  0  0  0  0
    4.3051   -2.3287   13.7960 N   0  0  0  0  0  0  0  0  0  0  0  0
    3.9928    0.9341   17.5277 O   0  0  0  0  0  0  0  0  0  0  0  0
    6.7927    0.5832   18.0627 O   0  0  0  0  0  0  0  0  0  0  0  0
  1  2  1  0  0  0  0
  1 16  1  1  0  0  0
  2  3  1  0  0  0  0
  2 12  1  1  0  0  0
  4 11  1  1  0  0  0
  4  3  1  0  0  0  0
  5  4  1  0  0  0  0
  5 10  1  6  0  0  0
  6  7  1  0  0  0  0
  6  5  1  0  0  0  0
  6 14  1  6  0  0  0
  7  8  1  0  0  0  0
  7 13  1  6  0  0  0
  8 15  1  1  0  0  0
  8 11  1  0  0  0  0
  9 13  1  0  0  0  0
 10  1  1  0  0  0  0
 17 15  1  6  0  0  0
 17 18  1  0  0  0  0
 18 25  1  6  0  0  0
 19 18  1  0  0  0  0
 19 26  1  1  0  0  0
 20 19  1  0  0  0  0
 20 24  1  6  0  0  0
 21 23  1  0  0  0  0
 21 20  1  0  0  0  0
 21 22  1  1  0  0  0
 23 17  1  0  0  0  0
 27 22  1  0  0  0  0
 28 29  1  0  0  0  0
 28 16  1  1  0  0  0
 29 36  1  6  0  0  0
 30 37  1  1  0  0  0
 30 29  1  0  0  0  0
 31 30  1  0  0  0  0
 31 34  1  6  0  0  0
 32 31  1  0  0  0  0
 32 33  1  0  0  0  0
 33 28  1  0  0  0  0
 33 35  1  6  0  0  0
M  END
>  <CHROM.1>
-81.77555905,40.61211936,-71.94559472,65.13297498,126.52901547,-76.30287922
-44.68551525,-66.32872949,175.19563174,-107.90506668,-177.08072440,-155.66550089
61.72020910,-52.78904347,-56.00689063,-128.72552271,0.37194056,-0.11987320
15.30140294,0.15138963,0.10813744,-3.08691825

>  <Name>
lig.pdb

>  <RI>
0

>  <Rbt.Current_Directory>
/home/itssahil/PROJECTS/Mol_Feturizer/New_Systems/rnas/2m4q

>  <Rbt.Executable>
rbdock ($Id: //depot/dev/client3/rdock/2013.1/src/exe/rbdock.cxx#4 $)

>  <Rbt.Library>
libRbt.so (2013.1, Build901 2013/11/27)

>  <Rbt.Parameter_File>
/export/apps/rDock/src/rDock_2013.1_src/data/scripts/dock_solv.prm

>  <Rbt.Receptor>
prm/blind_docking_20.prm

>  <SCORE>
16.3598

>  <SCORE.INTER>
-8.67051

>  <SCORE.INTER.CONST>
1

>  <SCORE.INTER.POLAR>
-2.89344

>  <SCORE.INTER.ROT>
10

>  <SCORE.INTER.SOLV>
20.0744

>  <SCORE.INTER.VDW>
-13.0937

>  <SCORE.INTER.norm>
-0.234338

>  <SCORE.INTRA>
6.22381

>  <SCORE.INTRA.DIHEDRAL>
-24.704

>  <SCORE.INTRA.DIHEDRAL.0>
44.8331

>  <SCORE.INTRA.POLAR>
-0.0402386

>  <SCORE.INTRA.POLAR.0>
-0.108895

>  <SCORE.INTRA.REPUL>
0.399078

>  <SCORE.INTRA.REPUL.0>
0.00912235

>  <SCORE.INTRA.SOLV>
3.02471

>  <SCORE.INTRA.SOLV.lig_0>
-53.9067

>  <SCORE.INTRA.VDW>
15.2049

>  <SCORE.INTRA.VDW.0>
-2.93492

>  <SCORE.INTRA.norm>
0.168211

>  <SCORE.RESTR>
18.8065

>  <SCORE.RESTR.CAVITY>
18.8065

>  <SCORE.RESTR.norm>
0.508283

>  <SCORE.SYSTEM>
0

>  <SCORE.SYSTEM.CONST>
0

>  <SCORE.SYSTEM.DIHEDRAL>
0

>  <SCORE.SYSTEM.SOLV>
0

>  <SCORE.SYSTEM.norm>
0

>  <SCORE.heavy>
37

>  <SCORE.norm>
0.442156

>  <RMSD>
12.545

$$$$
lig.pdb
 OpenBabel11021811453D
libRbt.so/2013.1/901 2013/11/27
 37 40  0  0  0  0  0  0  0  0999 V2000
    1.1143   -1.6215   16.3028 C   0  0  2  0  0  0  0  0  0  0  0  0
   -0.1117   -2.5088   16.6988 C   0  0  1  0  0  0  0  0  0  0  0  0
   -1.3958   -2.1846   15.8804 C   0  0  0  0  0  0  0  0  0  0  0  0
   -1.6727   -0.6609   15.8579 C   0  0  1  0  0  0  0  0  0  0  0  0
   -0.4362    0.0907   15.3159 C   0  0  1  0  0  0  0  0  0  0  0  0
   -0.7027    1.6179   15.2382 C   0  0  1  0  0  0  0  0  0  0  0  0
   -1.9995    1.9150   14.4277 C   0  0  1  0  0  0  0  0  0  0  0  0
   -3.2119    1.0829   14.9414 C   0  0  2  0  0  0  0  0  0  0  0  0
   -2.5054    3.9207   13.1106 C   0  0  0  0  0  0  0  0  0  0  0  0
    0.7376   -0.2178   16.1216 O   0  0  0  0  0  0  0  0  0  0  0  0
   -2.8669   -0.3284   15.0928 O   0  0  0  0  0  0  0  0  0  0  0  0
    0.2329   -3.9379   16.5364 N   0  0  0  0  0  0  0  0  0  0  0  0
   -2.2705    3.3671   14.4616 N   0  0  0  0  0  0  0  0  0  0  0  0
   -0.7610    2.1987   16.5347 O   0  0  0  0  0  0  0  0  0  0  0  0
   -4.3585    1.2559   14.0583 O   0  0  0  0  0  0  0  0  0  0  0  0
    1.7702   -2.1328   15.1024 O   0  0  0  0  0  0  0  0  0  0  0  0
   -4.9755    2.5769   13.9681 C   0  0  2  0  0  0  0  0  0  0  0  0
   -5.4842    3.0506   15.3593 C   0  0  1  0  0  0  0  0  0  0  0  0
   -6.7258    2.2377   15.8257 C   0  0  2  0  0  0  0  0  0  0  0  0
   -7.8395    2.2400   14.7387 C   0  0  1  0  0  0  0  0  0  0  0  0
   -7.2811    1.7942   13.3584 C   0  0  1  0  0  0  0  0  0  0  0  0
   -8.3447    1.9217   12.2364 C   0  0  0  0  0  0  0  0  0  0  0  0
   -6.0854    2.5611   13.0214 O   0  0  0  0  0  0  0  0  0  0  0  0
   -8.9951    1.4114   15.1468 N   0  0  0  0  0  0  0  0  0  0  0  0
   -4.4310    3.0046   16.3202 O   0  0  0  0  0  0  0  0  0  0  0  0
   -7.2219    2.7243   17.0709 O   0  0  0  0  0  0  0  0  0  0  0  0
   -8.2414    3.1811   11.5803 O   0  0  0  0  0  0  0  0  0  0  0  0
    3.0109   -1.4928   14.6839 C   0  0  1  0  0  0  0  0  0  0  0  0
    3.0014   -1.1401   13.1700 C   0  0  1  0  0  0  0  0  0  0  0  0
    4.3680   -0.5479   12.7242 C   0  0  2  0  0  0  0  0  0  0  0  0
    4.8053    0.6696   13.6019 C   0  0  1  0  0  0  0  0  0  0  0  0
    4.6952    0.3866   15.1301 C   0  0  0  0  0  0  0  0  0  0  0  0
    3.3189   -0.2253   15.5305 C   0  0  2  0  0  0  0  0  0  0  0  0
    6.1704    1.1112   13.2448 N   0  0  0  0  0  0  0  0  0  0  0  0
    3.3149   -0.5112   16.9815 N   0  0  0  0  0  0  0  0  0  0  0  0
    2.6642   -2.2800   12.3862 O   0  0  0  0  0  0  0  0  0  0  0  0
    4.3260   -0.1804   11.3476 O   0  0  0  0  0  0  0  0  0  0  0  0
  1  2  1  0  0  0  0
  1 16  1  6  0  0  0
  2  3  1  0  0  0  0
  2 12  1  6  0  0  0
  4 11  1  6  0  0  0
  4  3  1  0  0  0  0
  5  4  1  0  0  0  0
  5 10  1  1  0  0  0
  6  7  1  0  0  0  0
  6  5  1  0  0  0  0
  6 14  1  1  0  0  0
  7  8  1  0  0  0  0
  7 13  1  1  0  0  0
  8 15  1  6  0  0  0
  8 11  1  0  0  0  0
  9 13  1  0  0  0  0
 10  1  1  0  0  0  0
 17 15  1  1  0  0  0
 17 18  1  0  0  0  0
 18 25  1  1  0  0  0
 19 18  1  0  0  0  0
 19 26  1  1  0  0  0
 20 19  1  0  0  0  0
 20 24  1  1  0  0  0
 21 23  1  0  0  0  0
 21 20  1  0  0  0  0
 21 22  1  6  0  0  0
 23 17  1  0  0  0  0
 27 22  1  0  0  0  0
 28 29  1  0  0  0  0
 28 16  1  1  0  0  0
 29 36  1  6  0  0  0
 30 37  1  6  0  0  0
 30 29  1  0  0  0  0
 31 30  1  0  0  0  0
 31 34  1  1  0  0  0
 32 31  1  0  0  0  0
 32 33  1  0  0  0  0
 33 28  1  0  0  0  0
 33 35  1  1  0  0  0
M  END
>  <CHROM.1>
127.53534009,-65.52170605,129.39651606,-171.24755360,-59.25965346,-173.92269730
-87.50843233,-171.03789711,93.23726220,176.22637543,36.86846362,-131.53230549
-72.71813162,58.13867761,-155.73311865,13.44867080,-1.49784206,0.67205114
14.67047727,0.19995811,-0.21829250,2.31379778

>  <Name>
lig.pdb

>  <RI>
0

>  <Rbt.Current_Directory>
/home/itssahil/PROJECTS/Mol_Feturizer/New_Systems/rnas/2m4q

>  <Rbt.Executable>
rbdock ($Id: //depot/dev/client3/rdock/2013.1/src/exe/rbdock.cxx#4 $)

>  <Rbt.Library>
libRbt.so (2013.1, Build901 2013/11/27)

>  <Rbt.Parameter_File>
/export/apps/rDock/src/rDock_2013.1_src/data/scripts/dock_solv.prm

>  <Rbt.Receptor>
prm/blind_docking_20.prm

>  <SCORE>
6.44987

>  <SCORE.INTER>
-5.91606

>  <SCORE.INTER.CONST>
1

>  <SCORE.INTER.POLAR>
-2.74467

>  <SCORE.INTER.ROT>
10

>  <SCORE.INTER.SOLV>
25.1874

>  <SCORE.INTER.VDW>
-13.4576

>  <SCORE.INTER.norm>
-0.159894

>  <SCORE.INTRA>
-5.31805

>  <SCORE.INTRA.DIHEDRAL>
-19.9988

>  <SCORE.INTRA.DIHEDRAL.0>
44.8331

>  <SCORE.INTRA.POLAR>
-1.58465

>  <SCORE.INTRA.POLAR.0>
-0.108895

>  <SCORE.INTRA.REPUL>
-0.00912235

>  <SCORE.INTRA.REPUL.0>
0.00912235

>  <SCORE.INTRA.SOLV>
0.518874

>  <SCORE.INTRA.SOLV.lig_0>
-53.9067

>  <SCORE.INTRA.VDW>
9.85535

>  <SCORE.INTRA.VDW.0>
-2.93492

>  <SCORE.INTRA.norm>
-0.143731

>  <SCORE.RESTR>
17.684

>  <SCORE.RESTR.CAVITY>
17.684

>  <SCORE.RESTR.norm>
0.477946

>  <SCORE.SYSTEM>
0

>  <SCORE.SYSTEM.CONST>
0

>  <SCORE.SYSTEM.DIHEDRAL>
0

>  <SCORE.SYSTEM.SOLV>
0

>  <SCORE.SYSTEM.norm>
0

>  <SCORE.heavy>
37

>  <SCORE.norm>
0.174321

>  <RMSD>
12.564

$$$$
lig.pdb
 OpenBabel11021811453D
libRbt.so/2013.1/901 2013/11/27
 37 40  0  0  0  0  0  0  0  0999 V2000
    1.0885   -1.2581   16.6945 C   0  0  2  0  0  0  0  0  0  0  0  0
   -0.1179   -2.1810   17.0684 C   0  0  1  0  0  0  0  0  0  0  0  0
   -1.3712   -1.9480   16.1746 C   0  0  0  0  0  0  0  0  0  0  0  0
   -1.7099   -0.4401   16.0717 C   0  0  1  0  0  0  0  0  0  0  0  0
   -0.4799    0.3417   15.5586 C   0  0  1  0  0  0  0  0  0  0  0  0
   -0.8056    1.8513   15.4011 C   0  0  1  0  0  0  0  0  0  0  0  0
   -2.0707    2.0571   14.5158 C   0  0  1  0  0  0  0  0  0  0  0  0
   -3.2719    1.1947   15.0054 C   0  0  2  0  0  0  0  0  0  0  0  0
   -2.5453    3.9928   13.0869 C   0  0  0  0  0  0  0  0  0  0  0  0
    0.6632    0.1189   16.4337 O   0  0  0  0  0  0  0  0  0  0  0  0
   -2.8765   -0.1926   15.2353 O   0  0  0  0  0  0  0  0  0  0  0  0
    0.2939   -3.5992   16.9859 N   0  0  0  0  0  0  0  0  0  0  0  0
   -2.4035    3.4960   14.4726 N   0  0  0  0  0  0  0  0  0  0  0  0
   -0.9540    2.4824   16.6664 O   0  0  0  0  0  0  0  0  0  0  0  0
   -4.3783    1.2802   14.0604 O   0  0  0  0  0  0  0  0  0  0  0  0
    1.8254   -1.7897   15.5513 O   0  0  0  0  0  0  0  0  0  0  0  0
   -5.0698    2.5583   13.9109 C   0  0  2  0  0  0  0  0  0  0  0  0
   -5.5962    3.0708   15.2816 C   0  0  1  0  0  0  0  0  0  0  0  0
   -6.7868    2.2132   15.7983 C   0  0  2  0  0  0  0  0  0  0  0  0
   -7.9054    2.0990   14.7224 C   0  0  1  0  0  0  0  0  0  0  0  0
   -7.3310    1.6176   13.3608 C   0  0  1  0  0  0  0  0  0  0  0  0
   -8.4069    1.6292   12.2434 C   0  0  0  0  0  0  0  0  0  0  0  0
   -6.1828    2.4331   12.9760 O   0  0  0  0  0  0  0  0  0  0  0  0
   -9.0096    1.2278   15.1809 N   0  0  0  0  0  0  0  0  0  0  0  0
   -4.5363    3.1319   16.2342 O   0  0  0  0  0  0  0  0  0  0  0  0
   -7.3021    2.7321   17.0225 O   0  0  0  0  0  0  0  0  0  0  0  0
   -8.3254    2.8240   11.4732 O   0  0  0  0  0  0  0  0  0  0  0  0
    2.7575   -0.8984   14.8725 C   0  0  1  0  0  0  0  0  0  0  0  0
    4.2375   -1.2904   15.1414 C   0  0  1  0  0  0  0  0  0  0  0  0
    5.2142   -0.2718   14.4890 C   0  0  2  0  0  0  0  0  0  0  0  0
    4.9343   -0.0697   12.9643 C   0  0  1  0  0  0  0  0  0  0  0  0
    3.4302    0.1920   12.6529 C   0  0  0  0  0  0  0  0  0  0  0  0
    2.4856   -0.8380   13.3425 C   0  0  2  0  0  0  0  0  0  0  0  0
    5.7819    1.0091   12.4132 N   0  0  0  0  0  0  0  0  0  0  0  0
    1.0801   -0.4903   13.0408 N   0  0  0  0  0  0  0  0  0  0  0  0
    4.4854   -1.4051   16.5389 O   0  0  0  0  0  0  0  0  0  0  0  0
    6.5656   -0.6735   14.6987 O   0  0  0  0  0  0  0  0  0  0  0  0
  1  2  1  0  0  0  0
  1 16  1  6  0  0  0
  2  3  1  0  0  0  0
  2 12  1  6  0  0  0
  4 11  1  6  0  0  0
  4  3  1  0  0  0  0
  5  4  1  0  0  0  0
  5 10  1  1  0  0  0
  6  7  1  0  0  0  0
  6  5  1  0  0  0  0
  6 14  1  1  0  0  0
  7  8  1  0  0  0  0
  7 13  1  1  0  0  0
  8 15  1  6  0  0  0
  8 11  1  0  0  0  0
  9 13  1  0  0  0  0
 10  1  1  0  0  0  0
 17 15  1  1  0  0  0
 17 18  1  0  0  0  0
 18 25  1  1  0  0  0
 19 18  1  0  0  0  0
 19 26  1  1  0  0  0
 20 19  1  0  0  0  0
 20 24  1  1  0  0  0
 21 23  1  0  0  0  0
 21 20  1  0  0  0  0
 21 22  1  6  0  0  0
 23 17  1  0  0  0  0
 27 22  1  0  0  0  0
 28 29  1  0  0  0  0
 28 16  1  1  0  0  0
 29 36  1  1  0  0  0
 30 37  1  6  0  0  0
 30 29  1  0  0  0  0
 31 30  1  0  0  0  0
 31 34  1  1  0  0  0
 32 31  1  0  0  0  0
 32 33  1  0  0  0  0
 33 28  1  0  0  0  0
 33 35  1  1  0  0  0
M  END
>  <CHROM.1>
112.95406876,-67.28436134,127.37615810,-167.59606632,-55.38617399,164.98697524
175.74347551,60.50830229,96.78765636,173.15457104,-38.45144091,108.67618543
51.15487060,83.97513810,70.58658015,-45.70142122,-1.49567128,0.72716284,14.80347339
0.20715374,-0.19120503,2.26666854

>  <Name>
lig.pdb

>  <RI>
0

>  <Rbt.Current_Directory>
/home/itssahil/PROJECTS/Mol_Feturizer/New_Systems/rnas/2m4q

>  <Rbt.Executable>
rbdock ($Id: //depot/dev/client3/rdock/2013.1/src/exe/rbdock.cxx#4 $)

>  <Rbt.Library>
libRbt.so (2013.1, Build901 2013/11/27)

>  <Rbt.Parameter_File>
/export/apps/rDock/src/rDock_2013.1_src/data/scripts/dock_solv.prm

>  <Rbt.Receptor>
prm/blind_docking_20.prm

>  <SCORE>
-16.9644

>  <SCORE.INTER>
-21.8477

>  <SCORE.INTER.CONST>
1

>  <SCORE.INTER.POLAR>
-3.80379

>  <SCORE.INTER.ROT>
10

>  <SCORE.INTER.SOLV>
24.2261

>  <SCORE.INTER.VDW>
-20.2279

>  <SCORE.INTER.norm>
-0.590479

>  <SCORE.INTRA>
-12.4925

>  <SCORE.INTRA.DIHEDRAL>
-21.734

>  <SCORE.INTRA.DIHEDRAL.0>
44.8331

>  <SCORE.INTRA.POLAR>
-1.25372

>  <SCORE.INTRA.POLAR.0>
-0.108895

>  <SCORE.INTRA.REPUL>
-0.00912235

>  <SCORE.INTRA.REPUL.0>
0.00912235

>  <SCORE.INTRA.SOLV>
0.660371

>  <SCORE.INTRA.SOLV.lig_0>
-53.9067

>  <SCORE.INTRA.VDW>
2.35255

>  <SCORE.INTRA.VDW.0>
-2.93492

>  <SCORE.INTRA.norm>
-0.337636

>  <SCORE.RESTR>
17.3759

>  <SCORE.RESTR.CAVITY>
17.3759

>  <SCORE.RESTR.norm>
0.469618

>  <SCORE.SYSTEM>
0

>  <SCORE.SYSTEM.CONST>
0

>  <SCORE.SYSTEM.DIHEDRAL>
0

>  <SCORE.SYSTEM.SOLV>
0

>  <SCORE.SYSTEM.norm>
0

>  <SCORE.heavy>
37

>  <SCORE.norm>
-0.458497

>  <RMSD>
12.580

$$$$
lig.pdb
 OpenBabel11021811453D
libRbt.so/2013.1/901 2013/11/27
 37 40  0  0  0  0  0  0  0  0999 V2000
    0.2491   -0.1758   16.1188 C   0  0  2  0  0  0  0  0  0  0  0  0
   -0.9741   -1.0523   16.5463 C   0  0  1  0  0  0  0  0  0  0  0  0
   -2.2149   -0.8689   15.6240 C   0  0  0  0  0  0  0  0  0  0  0  0
   -2.5310    0.6316   15.4065 C   0  0  1  0  0  0  0  0  0  0  0  0
   -1.2849    1.3567   14.8508 C   0  0  1  0  0  0  0  0  0  0  0  0
   -1.5874    2.8548   14.5788 C   0  0  1  0  0  0  0  0  0  0  0  0
   -2.8405    3.0117   13.6669 C   0  0  1  0  0  0  0  0  0  0  0  0
   -4.0587    2.2042   14.2054 C   0  0  2  0  0  0  0  0  0  0  0  0
   -2.0176    5.2058   12.9438 C   0  0  0  0  0  0  0  0  0  0  0  0
   -0.1539    1.1838   15.7525 O   0  0  0  0  0  0  0  0  0  0  0  0
   -3.6855    0.8324   14.5412 O   0  0  0  0  0  0  0  0  0  0  0  0
   -0.5818   -2.4781   16.5731 N   0  0  0  0  0  0  0  0  0  0  0  0
   -3.1523    4.4479   13.5141 N   0  0  0  0  0  0  0  0  0  0  0  0
   -1.7394    3.5796   15.7925 O   0  0  0  0  0  0  0  0  0  0  0  0
   -5.1543    2.2346   13.2445 O   0  0  0  0  0  0  0  0  0  0  0  0
    0.9897   -0.8003   15.0261 O   0  0  0  0  0  0  0  0  0  0  0  0
   -6.1949    1.2140   13.3416 C   0  0  2  0  0  0  0  0  0  0  0  0
   -7.6105    1.8575   13.3198 C   0  0  1  0  0  0  0  0  0  0  0  0
   -7.9112    2.6321   14.6350 C   0  0  2  0  0  0  0  0  0  0  0  0
   -7.6714    1.7340   15.8832 C   0  0  1  0  0  0  0  0  0  0  0  0
   -6.2600    1.0841   15.8474 C   0  0  1  0  0  0  0  0  0  0  0  0
   -6.0565    0.0804   17.0125 C   0  0  0  0  0  0  0  0  0  0  0  0
   -6.0330    0.4308   14.5617 O   0  0  0  0  0  0  0  0  0  0  0  0
   -7.8885    2.4849   17.1392 N   0  0  0  0  0  0  0  0  0  0  0  0
   -7.7659    2.6877   12.1703 O   0  0  0  0  0  0  0  0  0  0  0  0
   -9.2351    3.1617   14.6295 O   0  0  0  0  0  0  0  0  0  0  0  0
   -4.8280   -0.6244   16.8660 O   0  0  0  0  0  0  0  0  0  0  0  0
    2.3767   -0.3977   14.8310 C   0  0  1  0  0  0  0  0  0  0  0  0
    3.3343   -1.1080   15.8283 C   0  0  1  0  0  0  0  0  0  0  0  0
    4.7925   -0.5932   15.6681 C   0  0  2  0  0  0  0  0  0  0  0  0
    5.3043   -0.7001   14.1949 C   0  0  1  0  0  0  0  0  0  0  0  0
    4.2984   -0.1145   13.1591 C   0  0  0  0  0  0  0  0  0  0  0  0
    2.8461   -0.6398   13.3683 C   0  0  2  0  0  0  0  0  0  0  0  0
    6.6337   -0.0685   14.0535 N   0  0  0  0  0  0  0  0  0  0  0  0
    1.9482    0.0006   12.3829 N   0  0  0  0  0  0  0  0  0  0  0  0
    2.8837   -0.9421   17.1688 O   0  0  0  0  0  0  0  0  0  0  0  0
    5.6668   -1.2912   16.5513 O   0  0  0  0  0  0  0  0  0  0  0  0
  1  2  1  0  0  0  0
  1 16  1  6  0  0  0
  2  3  1  0  0  0  0
  2 12  1  6  0  0  0
  4 11  1  6  0  0  0
  4  3  1  0  0  0  0
  5  4  1  0  0  0  0
  5 10  1  1  0  0  0
  6  7  1  0  0  0  0
  6  5  1  0  0  0  0
  6 14  1  1  0  0  0
  7  8  1  0  0  0  0
  7 13  1  1  0  0  0
  8 15  1  6  0  0  0
  8 11  1  0  0  0  0
  9 13  1  0  0  0  0
 10  1  1  0  0  0  0
 17 15  1  1  0  0  0
 17 18  1  0  0  0  0
 18 25  1  6  0  0  0
 19 18  1  0  0  0  0
 19 26  1  6  0  0  0
 20 19  1  0  0  0  0
 20 24  1  1  0  0  0
 21 23  1  0  0  0  0
 21 20  1  0  0  0  0
 21 22  1  1  0  0  0
 23 17  1  0  0  0  0
 27 22  1  0  0  0  0
 28 29  1  0  0  0  0
 28 16  1  6  0  0  0
 29 36  1  1  0  0  0
 30 37  1  1  0  0  0
 30 29  1  0  0  0  0
 31 30  1  0  0  0  0
 31 34  1  1  0  0  0
 32 31  1  0  0  0  0
 32 33  1  0  0  0  0
 33 28  1  0  0  0  0
 33 35  1  6  0  0  0
M  END
>  <CHROM.1>
-34.41828990,160.38420503,58.04294272,-54.09227266,130.33656233,-158.38807379
99.86236041,-26.08711587,172.70596639,-60.52368299,179.34297994,79.74882729
64.71870864,-49.51675929,-70.90372660,-92.76325504,-1.86481276,0.89974154
14.90034532,0.20676245,-0.14827862,2.39171750

>  <Name>
lig.pdb

>  <RI>
0

>  <Rbt.Current_Directory>
/home/itssahil/PROJECTS/Mol_Feturizer/New_Systems/rnas/2m4q

>  <Rbt.Executable>
rbdock ($Id: //depot/dev/client3/rdock/2013.1/src/exe/rbdock.cxx#4 $)

>  <Rbt.Library>
libRbt.so (2013.1, Build901 2013/11/27)

>  <Rbt.Parameter_File>
/export/apps/rDock/src/rDock_2013.1_src/data/scripts/dock_solv.prm

>  <Rbt.Receptor>
prm/blind_docking_20.prm

>  <SCORE>
11.7405

>  <SCORE.INTER>
-2.22571

>  <SCORE.INTER.CONST>
1

>  <SCORE.INTER.POLAR>
-2.93496

>  <SCORE.INTER.ROT>
10

>  <SCORE.INTER.SOLV>
21.3562

>  <SCORE.INTER.VDW>
-9.086

>  <SCORE.INTER.norm>
-0.0601544

>  <SCORE.INTRA>
-5.98501

>  <SCORE.INTRA.DIHEDRAL>
-19.1017

>  <SCORE.INTRA.DIHEDRAL.0>
44.8331

>  <SCORE.INTRA.POLAR>
-0.122859

>  <SCORE.INTRA.POLAR.0>
-0.108895

>  <SCORE.INTRA.REPUL>
-0.00912235

>  <SCORE.INTRA.REPUL.0>
0.00912235

>  <SCORE.INTRA.SOLV>
-0.494496

>  <SCORE.INTRA.SOLV.lig_0>
-53.9067

>  <SCORE.INTRA.VDW>
4.27641

>  <SCORE.INTRA.VDW.0>
-2.93492

>  <SCORE.INTRA.norm>
-0.161757

>  <SCORE.RESTR>
19.9513

>  <SCORE.RESTR.CAVITY>
19.9513

>  <SCORE.RESTR.norm>
0.539223

>  <SCORE.SYSTEM>
0

>  <SCORE.SYSTEM.CONST>
0

>  <SCORE.SYSTEM.DIHEDRAL>
0

>  <SCORE.SYSTEM.SOLV>
0

>  <SCORE.SYSTEM.norm>
0

>  <SCORE.heavy>
37

>  <SCORE.norm>
0.317312

>  <RMSD>
12.598

$$$$
lig.pdb
 OpenBabel11021811453D
libRbt.so/2013.1/901 2013/11/27
 37 40  0  0  0  0  0  0  0  0999 V2000
    0.2812   -1.7344   17.2056 C   0  0  2  0  0  0  0  0  0  0  0  0
   -1.0150   -2.6028   17.3195 C   0  0  1  0  0  0  0  0  0  0  0  0
   -2.1074   -2.2173   16.2795 C   0  0  0  0  0  0  0  0  0  0  0  0
   -2.3460   -0.6870   16.2629 C   0  0  1  0  0  0  0  0  0  0  0  0
   -1.0134    0.0506   16.0026 C   0  0  1  0  0  0  0  0  0  0  0  0
   -1.2310    1.5860   15.9342 C   0  0  1  0  0  0  0  0  0  0  0  0
   -2.3379    1.9446   14.8984 C   0  0  1  0  0  0  0  0  0  0  0  0
   -3.6428    1.1269   15.1325 C   0  0  2  0  0  0  0  0  0  0  0  0
   -2.5626    4.0032   13.5849 C   0  0  0  0  0  0  0  0  0  0  0  0
   -0.0264   -0.3160   17.0094 O   0  0  0  0  0  0  0  0  0  0  0  0
   -3.3606   -0.2973   15.2930 O   0  0  0  0  0  0  0  0  0  0  0  0
   -0.6719   -4.0339   17.1717 N   0  0  0  0  0  0  0  0  0  0  0  0
   -2.5831    3.4012   14.9355 N   0  0  0  0  0  0  0  0  0  0  0  0
   -1.5316    2.1227   17.2161 O   0  0  0  0  0  0  0  0  0  0  0  0
   -4.5906    1.3601   14.0499 O   0  0  0  0  0  0  0  0  0  0  0  0
    1.1501   -2.2206   16.1373 O   0  0  0  0  0  0  0  0  0  0  0  0
   -5.2029    2.6812   13.9325 C   0  0  2  0  0  0  0  0  0  0  0  0
   -5.8075    3.1380   15.2906 C   0  0  1  0  0  0  0  0  0  0  0  0
   -7.0764    2.3178   15.6609 C   0  0  2  0  0  0  0  0  0  0  0  0
   -8.1125    2.3310   14.4998 C   0  0  1  0  0  0  0  0  0  0  0  0
   -7.4592    1.9020   13.1564 C   0  0  1  0  0  0  0  0  0  0  0  0
   -8.4432    2.0408   11.9652 C   0  0  0  0  0  0  0  0  0  0  0  0
   -6.2449    2.6746   12.9114 O   0  0  0  0  0  0  0  0  0  0  0  0
   -9.2915    1.4960   14.8178 N   0  0  0  0  0  0  0  0  0  0  0  0
   -4.8229    3.0825   16.3212 O   0  0  0  0  0  0  0  0  0  0  0  0
   -7.6582    2.7893   16.8744 O   0  0  0  0  0  0  0  0  0  0  0  0
   -8.6236    0.7906   11.3081 O   0  0  0  0  0  0  0  0  0  0  0  0
    1.7209   -1.2355   15.2275 C   0  0  1  0  0  0  0  0  0  0  0  0
    3.2699   -1.3417   15.1527 C   0  0  1  0  0  0  0  0  0  0  0  0
    3.8655   -0.2218   14.2536 C   0  0  2  0  0  0  0  0  0  0  0  0
    3.2159   -0.1897   12.8321 C   0  0  1  0  0  0  0  0  0  0  0  0
    1.6587   -0.2189   12.8757 C   0  0  0  0  0  0  0  0  0  0  0  0
    1.1043   -1.3415   13.8038 C   0  0  2  0  0  0  0  0  0  0  0  0
    3.6996    0.9746   12.0598 N   0  0  0  0  0  0  0  0  0  0  0  0
   -0.3726   -1.2683   13.8306 N   0  0  0  0  0  0  0  0  0  0  0  0
    3.8439   -1.3034   16.4553 O   0  0  0  0  0  0  0  0  0  0  0  0
    5.2801   -0.3646   14.1521 O   0  0  0  0  0  0  0  0  0  0  0  0
  1  2  1  0  0  0  0
  1 16  1  6  0  0  0
  2  3  1  0  0  0  0
  2 12  1  6  0  0  0
  4 11  1  6  0  0  0
  4  3  1  0  0  0  0
  5  4  1  0  0  0  0
  5 10  1  1  0  0  0
  6  7  1  0  0  0  0
  6  5  1  0  0  0  0
  6 14  1  1  0  0  0
  7  8  1  0  0  0  0
  7 13  1  1  0  0  0
  8 15  1  6  0  0  0
  8 11  1  0  0  0  0
  9 13  1  0  0  0  0
 10  1  1  0  0  0  0
 17 15  1  1  0  0  0
 17 18  1  0  0  0  0
 18 25  1  1  0  0  0
 19 18  1  0  0  0  0
 19 26  1  1  0  0  0
 20 19  1  0  0  0  0
 20 24  1  1  0  0  0
 21 23  1  0  0  0  0
 21 20  1  0  0  0  0
 21 22  1  6  0  0  0
 23 17  1  0  0  0  0
 27 22  1  0  0  0  0
 28 29  1  0  0  0  0
 28 16  1  1  0  0  0
 29 36  1  1  0  0  0
 30 37  1  6  0  0  0
 30 29  1  0  0  0  0
 31 30  1  0  0  0  0
 31 34  1  1  0  0  0
 32 31  1  0  0  0  0
 32 33  1  0  0  0  0
 33 28  1  0  0  0  0
 33 35  1  1  0  0  0
M  END
>  <CHROM.1>
82.35892612,-68.47508600,130.43501021,64.13348165,-50.69719192,134.35974135
-92.38527183,-168.72216599,-121.67261059,-39.46612828,74.53944888,125.51176983
-56.83697250,73.83454430,179.22196495,-69.92985438,-2.15369532,0.55124538
14.92136424,0.25599998,-0.20364207,2.25258721

>  <Name>
lig.pdb

>  <RI>
0

>  <Rbt.Current_Directory>
/home/itssahil/PROJECTS/Mol_Feturizer/New_Systems/rnas/2m4q

>  <Rbt.Executable>
rbdock ($Id: //depot/dev/client3/rdock/2013.1/src/exe/rbdock.cxx#4 $)

>  <Rbt.Library>
libRbt.so (2013.1, Build901 2013/11/27)

>  <Rbt.Parameter_File>
/export/apps/rDock/src/rDock_2013.1_src/data/scripts/dock_solv.prm

>  <Rbt.Receptor>
prm/blind_docking_20.prm

>  <SCORE>
5.0524

>  <SCORE.INTER>
-6.83698

>  <SCORE.INTER.CONST>
1

>  <SCORE.INTER.POLAR>
-4.72994

>  <SCORE.INTER.ROT>
10

>  <SCORE.INTER.SOLV>
23.8655

>  <SCORE.INTER.VDW>
-7.01336

>  <SCORE.INTER.norm>
-0.184783

>  <SCORE.INTRA>
-5.00049

>  <SCORE.INTRA.DIHEDRAL>
-14.9699

>  <SCORE.INTRA.DIHEDRAL.0>
44.8331

>  <SCORE.INTRA.POLAR>
-1.08611

>  <SCORE.INTRA.POLAR.0>
-0.108895

>  <SCORE.INTRA.REPUL>
0.116644

>  <SCORE.INTRA.REPUL.0>
0.00912235

>  <SCORE.INTRA.SOLV>
1.67897

>  <SCORE.INTRA.SOLV.lig_0>
-53.9067

>  <SCORE.INTRA.VDW>
4.75451

>  <SCORE.INTRA.VDW.0>
-2.93492

>  <SCORE.INTRA.norm>
-0.135148

>  <SCORE.RESTR>
16.8899

>  <SCORE.RESTR.CAVITY>
16.8899

>  <SCORE.RESTR.norm>
0.456483

>  <SCORE.SYSTEM>
0

>  <SCORE.SYSTEM.CONST>
0

>  <SCORE.SYSTEM.DIHEDRAL>
0

>  <SCORE.SYSTEM.SOLV>
0

>  <SCORE.SYSTEM.norm>
0

>  <SCORE.heavy>
37

>  <SCORE.norm>
0.136551

>  <RMSD>
12.612

$$$$
lig.pdb
 OpenBabel11021811453D
libRbt.so/2013.1/901 2013/11/27
 37 40  0  0  0  0  0  0  0  0999 V2000
    1.0289   -1.3415   16.7598 C   0  0  2  0  0  0  0  0  0  0  0  0
   -0.1846   -2.2364   17.1765 C   0  0  1  0  0  0  0  0  0  0  0  0
   -1.4497   -2.0052   16.2991 C   0  0  0  0  0  0  0  0  0  0  0  0
   -1.7673   -0.4952   16.1657 C   0  0  1  0  0  0  0  0  0  0  0  0
   -0.5348    0.2549   15.6128 C   0  0  1  0  0  0  0  0  0  0  0  0
   -0.8404    1.7652   15.4245 C   0  0  1  0  0  0  0  0  0  0  0  0
   -2.1177    1.9695   14.5564 C   0  0  1  0  0  0  0  0  0  0  0  0
   -3.3230    1.1378   15.0873 C   0  0  2  0  0  0  0  0  0  0  0  0
   -2.5685    3.8818   13.0890 C   0  0  0  0  0  0  0  0  0  0  0  0
    0.6200    0.0354   16.4732 O   0  0  0  0  0  0  0  0  0  0  0  0
   -2.9446   -0.2496   15.3437 O   0  0  0  0  0  0  0  0  0  0  0  0
    0.2042   -3.6623   17.1211 N   0  0  0  0  0  0  0  0  0  0  0  0
   -2.4293    3.4119   14.4843 N   0  0  0  0  0  0  0  0  0  0  0  0
   -0.9570    2.4286   16.6766 O   0  0  0  0  0  0  0  0  0  0  0  0
   -4.4444    1.2179   14.1597 O   0  0  0  0  0  0  0  0  0  0  0  0
    1.7375   -1.9116   15.6172 O   0  0  0  0  0  0  0  0  0  0  0  0
   -5.1012    2.5090   13.9704 C   0  0  2  0  0  0  0  0  0  0  0  0
   -5.6609    3.0521   15.3158 C   0  0  1  0  0  0  0  0  0  0  0  0
   -6.8873    2.2287   15.8036 C   0  0  2  0  0  0  0  0  0  0  0  0
   -7.9719    2.1245   14.6925 C   0  0  1  0  0  0  0  0  0  0  0  0
   -7.3638    1.6116   13.3573 C   0  0  1  0  0  0  0  0  0  0  0  0
   -8.4015    1.6317   12.2045 C   0  0  0  0  0  0  0  0  0  0  0  0
   -6.1851    2.3957   13.0005 O   0  0  0  0  0  0  0  0  0  0  0  0
   -9.1103    1.2847   15.1252 N   0  0  0  0  0  0  0  0  0  0  0  0
   -4.6321    3.1027   16.3025 O   0  0  0  0  0  0  0  0  0  0  0  0
   -7.4309    2.7760   17.0029 O   0  0  0  0  0  0  0  0  0  0  0  0
   -8.2876    2.8278   11.4404 O   0  0  0  0  0  0  0  0  0  0  0  0
    2.6323   -1.0370   14.8700 C   0  0  1  0  0  0  0  0  0  0  0  0
    4.1262   -1.4001   15.0996 C   0  0  1  0  0  0  0  0  0  0  0  0
    5.0648   -0.3966   14.3721 C   0  0  2  0  0  0  0  0  0  0  0  0
    4.7272   -0.2589   12.8520 C   0  0  1  0  0  0  0  0  0  0  0  0
    3.2095   -0.0279   12.5860 C   0  0  0  0  0  0  0  0  0  0  0  0
    2.3044   -1.0409   13.3499 C   0  0  2  0  0  0  0  0  0  0  0  0
    5.5397    0.8073   12.2281 N   0  0  0  0  0  0  0  0  0  0  0  0
    0.8843   -0.7224   13.0865 N   0  0  0  0  0  0  0  0  0  0  0  0
    4.4261   -1.4559   16.4905 O   0  0  0  0  0  0  0  0  0  0  0  0
    6.4282   -0.7734   14.5477 O   0  0  0  0  0  0  0  0  0  0  0  0
  1  2  1  0  0  0  0
  1 16  1  6  0  0  0
  2  3  1  0  0  0  0
  2 12  1  6  0  0  0
  4 11  1  6  0  0  0
  4  3  1  0  0  0  0
  5  4  1  0  0  0  0
  5 10  1  1  0  0  0
  6  7  1  0  0  0  0
  6  5  1  0  0  0  0
  6 14  1  1  0  0  0
  7  8  1  0  0  0  0
  7 13  1  1  0  0  0
  8 15  1  6  0  0  0
  8 11  1  0  0  0  0
  9 13  1  0  0  0  0
 10  1  1  0  0  0  0
 17 15  1  1  0  0  0
 17 18  1  0  0  0  0
 18 25  1  1  0  0  0
 19 18  1  0  0  0  0
 19 26  1  1  0  0  0
 20 19  1  0  0  0  0
 20 24  1  1  0  0  0
 21 23  1  0  0  0  0
 21 20  1  0  0  0  0
 21 22  1  6  0  0  0
 23 17  1  0  0  0  0
 27 22  1  0  0  0  0
 28 29  1  0  0  0  0
 28 16  1  1  0  0  0
 29 36  1  1  0  0  0
 30 37  1  6  0  0  0
 30 29  1  0  0  0  0
 31 30  1  0  0  0  0
 31 34  1  1  0  0  0
 32 31  1  0  0  0  0
 32 33  1  0  0  0  0
 33 28  1  0  0  0  0
 33 35  1  1  0  0  0
M  END
>  <CHROM.1>
141.46082759,-66.02365347,126.54550477,48.17300063,-58.77250085,162.69610476
178.65864494,-178.78857127,95.45192449,174.57449183,-44.68371212,109.05257833
-57.61385093,-62.33443312,-170.01077364,-49.17030205,-1.57765563,0.65102793
14.81626406,0.20064173,-0.21491116,2.21036072

>  <Name>
lig.pdb

>  <RI>
0

>  <Rbt.Current_Directory>
/home/itssahil/PROJECTS/Mol_Feturizer/New_Systems/rnas/2m4q

>  <Rbt.Executable>
rbdock ($Id: //depot/dev/client3/rdock/2013.1/src/exe/rbdock.cxx#4 $)

>  <Rbt.Library>
libRbt.so (2013.1, Build901 2013/11/27)

>  <Rbt.Parameter_File>
/export/apps/rDock/src/rDock_2013.1_src/data/scripts/dock_solv.prm

>  <Rbt.Receptor>
prm/blind_docking_20.prm

>  <SCORE>
-10.0158

>  <SCORE.INTER>
-13.4476

>  <SCORE.INTER.CONST>
1

>  <SCORE.INTER.POLAR>
-2.64318

>  <SCORE.INTER.ROT>
10

>  <SCORE.INTER.SOLV>
24.6301

>  <SCORE.INTER.VDW>
-18.6312

>  <SCORE.INTER.norm>
-0.36345

>  <SCORE.INTRA>
-13.434

>  <SCORE.INTRA.DIHEDRAL>
-26.4931

>  <SCORE.INTRA.DIHEDRAL.0>
44.8331

>  <SCORE.INTRA.POLAR>
-0.99083

>  <SCORE.INTRA.POLAR.0>
-0.108895

>  <SCORE.INTRA.REPUL>
0.248277

>  <SCORE.INTRA.REPUL.0>
0.00912235

>  <SCORE.INTRA.SOLV>
0.459473

>  <SCORE.INTRA.SOLV.lig_0>
-53.9067

>  <SCORE.INTRA.VDW>
1.71021

>  <SCORE.INTRA.VDW.0>
-2.93492

>  <SCORE.INTRA.norm>
-0.363082

>  <SCORE.RESTR>
16.8659

>  <SCORE.RESTR.CAVITY>
16.8659

>  <SCORE.RESTR.norm>
0.455836

>  <SCORE.SYSTEM>
0

>  <SCORE.SYSTEM.CONST>
0

>  <SCORE.SYSTEM.DIHEDRAL>
0

>  <SCORE.SYSTEM.SOLV>
0

>  <SCORE.SYSTEM.norm>
0

>  <SCORE.heavy>
37

>  <SCORE.norm>
-0.270696

>  <RMSD>
12.627

$$$$
lig.pdb
 OpenBabel11021811453D
libRbt.so/2013.1/901 2013/11/27
 37 40  0  0  0  0  0  0  0  0999 V2000
    1.2742   -1.2286   16.4405 C   0  0  2  0  0  0  0  0  0  0  0  0
    0.1591   -2.1434   17.0460 C   0  0  1  0  0  0  0  0  0  0  0  0
   -1.1915   -2.0588   16.2764 C   0  0  0  0  0  0  0  0  0  0  0  0
   -1.6099   -0.5856   16.0448 C   0  0  1  0  0  0  0  0  0  0  0  0
   -0.4795    0.1738   15.3148 C   0  0  1  0  0  0  0  0  0  0  0  0
   -0.8908    1.6428   15.0275 C   0  0  1  0  0  0  0  0  0  0  0  0
   -2.2511    1.7009   14.2706 C   0  0  1  0  0  0  0  0  0  0  0  0
   -3.3516    0.8598   14.9832 C   0  0  2  0  0  0  0  0  0  0  0  0
   -2.9624    3.4416   12.6965 C   0  0  0  0  0  0  0  0  0  0  0  0
    0.7593    0.0935   16.0770 O   0  0  0  0  0  0  0  0  0  0  0  0
   -2.8691   -0.4771   15.3205 O   0  0  0  0  0  0  0  0  0  0  0  0
    0.6262   -3.5465   17.0765 N   0  0  0  0  0  0  0  0  0  0  0  0
   -2.6540    3.1128   14.1050 N   0  0  0  0  0  0  0  0  0  0  0  0
   -0.9336    2.4105   16.2236 O   0  0  0  0  0  0  0  0  0  0  0  0
   -4.5549    0.7970   14.1631 O   0  0  0  0  0  0  0  0  0  0  0  0
    1.9097   -1.8629   15.2888 O   0  0  0  0  0  0  0  0  0  0  0  0
   -5.7373    0.1362   14.7101 C   0  0  2  0  0  0  0  0  0  0  0  0
   -6.5652   -0.5463   13.5843 C   0  0  1  0  0  0  0  0  0  0  0  0
   -7.2737    0.4993   12.6761 C   0  0  2  0  0  0  0  0  0  0  0  0
   -8.1101    1.5029   13.5218 C   0  0  1  0  0  0  0  0  0  0  0  0
   -7.2548    2.1348   14.6552 C   0  0  1  0  0  0  0  0  0  0  0  0
   -8.1072    3.0326   15.5900 C   0  0  0  0  0  0  0  0  0  0  0  0
   -6.5769    1.0937   15.4219 O   0  0  0  0  0  0  0  0  0  0  0  0
   -8.7305    2.5415   12.6704 N   0  0  0  0  0  0  0  0  0  0  0  0
   -5.7449   -1.4343   12.8272 O   0  0  0  0  0  0  0  0  0  0  0  0
   -8.0811   -0.1390   11.6891 O   0  0  0  0  0  0  0  0  0  0  0  0
   -7.2845    3.6979   16.5428 O   0  0  0  0  0  0  0  0  0  0  0  0
    3.0093   -1.1542   14.6465 C   0  0  1  0  0  0  0  0  0  0  0  0
    2.5023   -0.0483   13.6789 C   0  0  1  0  0  0  0  0  0  0  0  0
    3.6861    0.6290   12.9326 C   0  0  2  0  0  0  0  0  0  0  0  0
    4.7776    1.1698   13.9123 C   0  0  1  0  0  0  0  0  0  0  0  0
    5.2075    0.1204   14.9809 C   0  0  0  0  0  0  0  0  0  0  0  0
    3.9913   -0.5488   15.6893 C   0  0  2  0  0  0  0  0  0  0  0  0
    5.9507    1.6726   13.1659 N   0  0  0  0  0  0  0  0  0  0  0  0
    4.4815   -1.5641   16.6465 N   0  0  0  0  0  0  0  0  0  0  0  0
    1.5581   -0.5781   12.7541 O   0  0  0  0  0  0  0  0  0  0  0  0
    3.2100    1.6755   12.0901 O   0  0  0  0  0  0  0  0  0  0  0  0
  1  2  1  0  0  0  0
  1 16  1  6  0  0  0
  2  3  1  0  0  0  0
  2 12  1  6  0  0  0
  4 11  1  6  0  0  0
  4  3  1  0  0  0  0
  5  4  1  0  0  0  0
  5 10  1  1  0  0  0
  6  7  1  0  0  0  0
  6  5  1  0  0  0  0
  6 14  1  1  0  0  0
  7  8  1  0  0  0  0
  7 13  1  1  0  0  0
  8 15  1  6  0  0  0
  8 11  1  0  0  0  0
  9 13  1  0  0  0  0
 10  1  1  0  0  0  0
 17 15  1  6  0  0  0
 17 18  1  0  0  0  0
 18 25  1  6  0  0  0
 19 18  1  0  0  0  0
 19 26  1  6  0  0  0
 20 19  1  0  0  0  0
 20 24  1  6  0  0  0
 21 23  1  0  0  0  0
 21 20  1  0  0  0  0
 21 22  1  1  0  0  0
 23 17  1  0  0  0  0
 27 22  1  0  0  0  0
 28 29  1  0  0  0  0
 28 16  1  1  0  0  0
 29 36  1  6  0  0  0
 30 37  1  1  0  0  0
 30 29  1  0  0  0  0
 31 30  1  0  0  0  0
 31 34  1  6  0  0  0
 32 31  1  0  0  0  0
 32 33  1  0  0  0  0
 33 28  1  0  0  0  0
 33 35  1  1  0  0  0
M  END
>  <CHROM.1>
38.99978595,-175.35096243,127.24594334,-60.11500149,-147.85476306,-177.58632154
-175.36776866,-176.14485212,-174.58164585,65.82070497,-179.21994693,-80.60946445
62.36011853,-96.54682937,177.81015371,-160.90351910,-1.66085470,0.45419636
14.59358133,0.17066290,-0.03536606,2.51441985

>  <Name>
lig.pdb

>  <RI>
0

>  <Rbt.Current_Directory>
/home/itssahil/PROJECTS/Mol_Feturizer/New_Systems/rnas/2m4q

>  <Rbt.Executable>
rbdock ($Id: //depot/dev/client3/rdock/2013.1/src/exe/rbdock.cxx#4 $)

>  <Rbt.Library>
libRbt.so (2013.1, Build901 2013/11/27)

>  <Rbt.Parameter_File>
/export/apps/rDock/src/rDock_2013.1_src/data/scripts/dock_solv.prm

>  <Rbt.Receptor>
prm/blind_docking_20.prm

>  <SCORE>
-7.72956

>  <SCORE.INTER>
-15.766

>  <SCORE.INTER.CONST>
1

>  <SCORE.INTER.POLAR>
-3.21306

>  <SCORE.INTER.ROT>
10

>  <SCORE.INTER.SOLV>
25.8815

>  <SCORE.INTER.VDW>
-18.6943

>  <SCORE.INTER.norm>
-0.426108

>  <SCORE.INTRA>
-15.7771

>  <SCORE.INTRA.DIHEDRAL>
-29.6552

>  <SCORE.INTRA.DIHEDRAL.0>
44.8331

>  <SCORE.INTRA.POLAR>
0.0870182

>  <SCORE.INTRA.POLAR.0>
-0.108895

>  <SCORE.INTRA.REPUL>
0.0410891

>  <SCORE.INTRA.REPUL.0>
0.00912235

>  <SCORE.INTRA.SOLV>
-2.10472

>  <SCORE.INTRA.SOLV.lig_0>
-53.9067

>  <SCORE.INTRA.VDW>
-0.398454

>  <SCORE.INTRA.VDW.0>
-2.93492

>  <SCORE.INTRA.norm>
-0.426408

>  <SCORE.RESTR>
23.8135

>  <SCORE.RESTR.CAVITY>
23.8135

>  <SCORE.RESTR.norm>
0.643609

>  <SCORE.SYSTEM>
0

>  <SCORE.SYSTEM.CONST>
0

>  <SCORE.SYSTEM.DIHEDRAL>
0

>  <SCORE.SYSTEM.SOLV>
0

>  <SCORE.SYSTEM.norm>
0

>  <SCORE.heavy>
37

>  <SCORE.norm>
-0.208907

>  <RMSD>
12.661

$$$$
lig.pdb
 OpenBabel11021811453D
libRbt.so/2013.1/901 2013/11/27
 37 40  0  0  0  0  0  0  0  0999 V2000
    1.3326   -1.2881   16.5106 C   0  0  2  0  0  0  0  0  0  0  0  0
    0.1332   -2.1171   17.0774 C   0  0  1  0  0  0  0  0  0  0  0  0
   -1.1943   -1.8919   16.2960 C   0  0  0  0  0  0  0  0  0  0  0  0
   -1.4780   -0.3816   16.1025 C   0  0  1  0  0  0  0  0  0  0  0  0
   -0.2755    0.2948   15.4070 C   0  0  1  0  0  0  0  0  0  0  0  0
   -0.5517    1.8019   15.1579 C   0  0  1  0  0  0  0  0  0  0  0  0
   -1.8914    2.0012   14.3883 C   0  0  1  0  0  0  0  0  0  0  0  0
   -3.0711    1.2413   15.0643 C   0  0  2  0  0  0  0  0  0  0  0  0
   -2.5166    3.8253   12.8731 C   0  0  0  0  0  0  0  0  0  0  0  0
    0.9412    0.0840   16.1799 O   0  0  0  0  0  0  0  0  0  0  0  0
   -2.7130   -0.1419   15.3681 O   0  0  0  0  0  0  0  0  0  0  0  0
    0.4743   -3.5563   17.0724 N   0  0  0  0  0  0  0  0  0  0  0  0
   -2.1659    3.4473   14.2592 N   0  0  0  0  0  0  0  0  0  0  0  0
   -0.5425    2.5368   16.3750 O   0  0  0  0  0  0  0  0  0  0  0  0
   -4.2643    1.3082   14.2298 O   0  0  0  0  0  0  0  0  0  0  0  0
    1.9250   -1.9439   15.3480 O   0  0  0  0  0  0  0  0  0  0  0  0
   -4.9702    2.5828   14.1242 C   0  0  2  0  0  0  0  0  0  0  0  0
   -5.5243    3.0292   15.5070 C   0  0  1  0  0  0  0  0  0  0  0  0
   -6.7113    2.1354   15.9675 C   0  0  2  0  0  0  0  0  0  0  0  0
   -7.8116    2.0535   14.8700 C   0  0  1  0  0  0  0  0  0  0  0  0
   -7.2100    1.6384   13.4984 C   0  0  1  0  0  0  0  0  0  0  0  0
   -8.2687    1.6846   12.3654 C   0  0  0  0  0  0  0  0  0  0  0  0
   -6.0669    2.4840   13.1672 O   0  0  0  0  0  0  0  0  0  0  0  0
   -8.9112    1.1496   15.2731 N   0  0  0  0  0  0  0  0  0  0  0  0
   -4.4801    3.0625   16.4782 O   0  0  0  0  0  0  0  0  0  0  0  0
   -7.2522    2.5946   17.2044 O   0  0  0  0  0  0  0  0  0  0  0  0
   -9.0066    2.9015   12.4102 O   0  0  0  0  0  0  0  0  0  0  0  0
    3.2515   -1.5100   14.9284 C   0  0  1  0  0  0  0  0  0  0  0  0
    3.2234   -0.8150   13.5383 C   0  0  1  0  0  0  0  0  0  0  0  0
    4.6585   -0.4474   13.0666 C   0  0  2  0  0  0  0  0  0  0  0  0
    5.4350    0.4015   14.1251 C   0  0  1  0  0  0  0  0  0  0  0  0
    5.3651   -0.2048   15.5587 C   0  0  0  0  0  0  0  0  0  0  0  0
    3.9129   -0.5782   15.9833 C   0  0  2  0  0  0  0  0  0  0  0  0
    6.8385    0.6058   13.7073 N   0  0  0  0  0  0  0  0  0  0  0  0
    3.9396   -1.1921   17.3285 N   0  0  0  0  0  0  0  0  0  0  0  0
    2.5689   -1.6346   12.5752 O   0  0  0  0  0  0  0  0  0  0  0  0
    4.6119    0.2361   11.8166 O   0  0  0  0  0  0  0  0  0  0  0  0
  1  2  1  0  0  0  0
  1 16  1  6  0  0  0
  2  3  1  0  0  0  0
  2 12  1  6  0  0  0
  4 11  1  6  0  0  0
  4  3  1  0  0  0  0
  5  4  1  0  0  0  0
  5 10  1  1  0  0  0
  6  7  1  0  0  0  0
  6  5  1  0  0  0  0
  6 14  1  1  0  0  0
  7  8  1  0  0  0  0
  7 13  1  1  0  0  0
  8 15  1  6  0  0  0
  8 11  1  0  0  0  0
  9 13  1  0  0  0  0
 10  1  1  0  0  0  0
 17 15  1  1  0  0  0
 17 18  1  0  0  0  0
 18 25  1  1  0  0  0
 19 18  1  0  0  0  0
 19 26  1  1  0  0  0
 20 19  1  0  0  0  0
 20 24  1  1  0  0  0
 21 23  1  0  0  0  0
 21 20  1  0  0  0  0
 21 22  1  6  0  0  0
 23 17  1  0  0  0  0
 27 22  1  0  0  0  0
 28 29  1  0  0  0  0
 28 16  1  1  0  0  0
 29 36  1  6  0  0  0
 30 37  1  6  0  0  0
 30 29  1  0  0  0  0
 31 30  1  0  0  0  0
 31 34  1  6  0  0  0
 32 31  1  0  0  0  0
 32 33  1  0  0  0  0
 33 28  1  0  0  0  0
 33 35  1  1  0  0  0
M  END
>  <CHROM.1>
-146.35323708,-71.77473053,131.17307768,59.94800787,-62.79104309,-163.60059722
79.70885820,173.85785350,47.19796062,172.33441830,-59.59440994,-113.69304903
-62.59605272,-66.00900878,77.81846656,-172.90832855,-1.33692986,0.69846195
14.88939320,0.18457179,-0.19820150,2.24765099

>  <Name>
lig.pdb

>  <RI>
0

>  <Rbt.Current_Directory>
/home/itssahil/PROJECTS/Mol_Feturizer/New_Systems/rnas/2m4q

>  <Rbt.Executable>
rbdock ($Id: //depot/dev/client3/rdock/2013.1/src/exe/rbdock.cxx#4 $)

>  <Rbt.Library>
libRbt.so (2013.1, Build901 2013/11/27)

>  <Rbt.Parameter_File>
/export/apps/rDock/src/rDock_2013.1_src/data/scripts/dock_solv.prm

>  <Rbt.Receptor>
prm/blind_docking_20.prm

>  <SCORE>
8.01584

>  <SCORE.INTER>
-1.08517

>  <SCORE.INTER.CONST>
1

>  <SCORE.INTER.POLAR>
-1.3492

>  <SCORE.INTER.ROT>
10

>  <SCORE.INTER.SOLV>
24.0956

>  <SCORE.INTER.VDW>
-14.5247

>  <SCORE.INTER.norm>
-0.0293289

>  <SCORE.INTRA>
-9.54685

>  <SCORE.INTRA.DIHEDRAL>
-28.1938

>  <SCORE.INTRA.DIHEDRAL.0>
44.8331

>  <SCORE.INTRA.POLAR>
0.0384097

>  <SCORE.INTRA.POLAR.0>
-0.108895

>  <SCORE.INTRA.REPUL>
-0.00912235

>  <SCORE.INTRA.REPUL.0>
0.00912235

>  <SCORE.INTRA.SOLV>
0.0776015

>  <SCORE.INTRA.SOLV.lig_0>
-53.9067

>  <SCORE.INTRA.VDW>
4.42626

>  <SCORE.INTRA.VDW.0>
-2.93492

>  <SCORE.INTRA.norm>
-0.258023

>  <SCORE.RESTR>
18.6479

>  <SCORE.RESTR.CAVITY>
18.6479

>  <SCORE.RESTR.norm>
0.503996

>  <SCORE.SYSTEM>
0

>  <SCORE.SYSTEM.CONST>
0

>  <SCORE.SYSTEM.DIHEDRAL>
0

>  <SCORE.SYSTEM.SOLV>
0

>  <SCORE.SYSTEM.norm>
0

>  <SCORE.heavy>
37

>  <SCORE.norm>
0.216644

>  <RMSD>
12.703

$$$$
lig.pdb
 OpenBabel11021811453D
libRbt.so/2013.1/901 2013/11/27
 37 40  0  0  0  0  0  0  0  0999 V2000
    0.9891   -1.1515   16.7715 C   0  0  2  0  0  0  0  0  0  0  0  0
   -0.2250   -1.9656   17.3286 C   0  0  1  0  0  0  0  0  0  0  0  0
   -1.5940   -1.5026   16.7497 C   0  0  0  0  0  0  0  0  0  0  0  0
   -1.7445    0.0365   16.8374 C   0  0  1  0  0  0  0  0  0  0  0  0
   -0.5550    0.7226   16.1290 C   0  0  1  0  0  0  0  0  0  0  0  0
   -0.7040    2.2675   16.1607 C   0  0  1  0  0  0  0  0  0  0  0  0
   -2.0864    2.7040   15.5907 C   0  0  1  0  0  0  0  0  0  0  0  0
   -3.2634    1.9374   16.2638 C   0  0  2  0  0  0  0  0  0  0  0  0
   -1.6935    4.8927   14.5566 C   0  0  0  0  0  0  0  0  0  0  0  0
    0.7048    0.2841   16.7144 O   0  0  0  0  0  0  0  0  0  0  0  0
   -3.0158    0.4982   16.2965 O   0  0  0  0  0  0  0  0  0  0  0  0
   -0.0302   -3.4054   17.0514 N   0  0  0  0  0  0  0  0  0  0  0  0
   -2.2278    4.1682   15.7299 N   0  0  0  0  0  0  0  0  0  0  0  0
   -0.5026    2.7789   17.4720 O   0  0  0  0  0  0  0  0  0  0  0  0
   -4.5203    2.2433   15.5920 O   0  0  0  0  0  0  0  0  0  0  0  0
    1.3966   -1.6435   15.4583 O   0  0  0  0  0  0  0  0  0  0  0  0
   -5.1383    1.2093   14.7656 C   0  0  2  0  0  0  0  0  0  0  0  0
   -5.6979    1.8115   13.4455 C   0  0  1  0  0  0  0  0  0  0  0  0
   -6.9525    2.6948   13.7020 C   0  0  2  0  0  0  0  0  0  0  0  0
   -8.0267    1.9210   14.5199 C   0  0  1  0  0  0  0  0  0  0  0  0
   -7.4180    1.3071   15.8114 C   0  0  1  0  0  0  0  0  0  0  0  0
   -8.4414    0.4195   16.5671 C   0  0  0  0  0  0  0  0  0  0  0  0
   -6.2138    0.5452   15.4941 O   0  0  0  0  0  0  0  0  0  0  0  0
   -9.1932    2.7775   14.8269 N   0  0  0  0  0  0  0  0  0  0  0  0
   -4.6795    2.5289   12.7508 O   0  0  0  0  0  0  0  0  0  0  0  0
   -7.4943    3.1875   12.4784 O   0  0  0  0  0  0  0  0  0  0  0  0
   -9.7291    1.0271   16.5781 O   0  0  0  0  0  0  0  0  0  0  0  0
    2.3812   -0.8642   14.7187 C   0  0  1  0  0  0  0  0  0  0  0  0
    3.8328   -1.3443   14.9992 C   0  0  1  0  0  0  0  0  0  0  0  0
    4.8714   -0.4398   14.2778 C   0  0  2  0  0  0  0  0  0  0  0  0
    4.5877   -0.3109   12.7459 C   0  0  1  0  0  0  0  0  0  0  0  0
    3.1023    0.0387   12.4311 C   0  0  0  0  0  0  0  0  0  0  0  0
    2.0955   -0.8772   13.1901 C   0  0  2  0  0  0  0  0  0  0  0  0
    5.5030    0.6691   12.1229 N   0  0  0  0  0  0  0  0  0  0  0  0
    0.7146   -0.4485   12.8789 N   0  0  0  0  0  0  0  0  0  0  0  0
    4.0892   -1.3916   16.3990 O   0  0  0  0  0  0  0  0  0  0  0  0
    6.1933   -0.9240   14.5009 O   0  0  0  0  0  0  0  0  0  0  0  0
  1  2  1  0  0  0  0
  1 16  1  6  0  0  0
  2  3  1  0  0  0  0
  2 12  1  6  0  0  0
  4 11  1  6  0  0  0
  4  3  1  0  0  0  0
  5  4  1  0  0  0  0
  5 10  1  1  0  0  0
  6  7  1  0  0  0  0
  6  5  1  0  0  0  0
  6 14  1  1  0  0  0
  7  8  1  0  0  0  0
  7 13  1  1  0  0  0
  8 15  1  6  0  0  0
  8 11  1  0  0  0  0
  9 13  1  0  0  0  0
 10  1  1  0  0  0  0
 17 15  1  1  0  0  0
 17 18  1  0  0  0  0
 18 25  1  1  0  0  0
 19 18  1  0  0  0  0
 19 26  1  6  0  0  0
 20 19  1  0  0  0  0
 20 24  1  1  0  0  0
 21 23  1  0  0  0  0
 21 20  1  0  0  0  0
 21 22  1  6  0  0  0
 23 17  1  0  0  0  0
 27 22  1  0  0  0  0
 28 29  1  0  0  0  0
 28 16  1  1  0  0  0
 29 36  1  1  0  0  0
 30 37  1  6  0  0  0
 30 29  1  0  0  0  0
 31 30  1  0  0  0  0
 31 34  1  1  0  0  0
 32 31  1  0  0  0  0
 32 33  1  0  0  0  0
 33 28  1  0  0  0  0
 33 35  1  1  0  0  0
M  END
>  <CHROM.1>
141.71731623,108.18901800,88.92176582,-172.28040878,-138.21926548,170.99576940
-65.78325255,163.44891948,-41.54542118,107.36107790,86.28633802,91.98855567
179.01816817,-175.12414639,-157.56287815,-50.97734479,-1.66553306,0.73084108
15.12864280,0.14441291,-0.20155874,2.35937402

>  <Name>
lig.pdb

>  <RI>
0

>  <Rbt.Current_Directory>
/home/itssahil/PROJECTS/Mol_Feturizer/New_Systems/rnas/2m4q

>  <Rbt.Executable>
rbdock ($Id: //depot/dev/client3/rdock/2013.1/src/exe/rbdock.cxx#4 $)

>  <Rbt.Library>
libRbt.so (2013.1, Build901 2013/11/27)

>  <Rbt.Parameter_File>
/export/apps/rDock/src/rDock_2013.1_src/data/scripts/dock_solv.prm

>  <Rbt.Receptor>
prm/blind_docking_20.prm

>  <SCORE>
16.9941

>  <SCORE.INTER>
1.20124

>  <SCORE.INTER.CONST>
1

>  <SCORE.INTER.POLAR>
-2.06874

>  <SCORE.INTER.ROT>
10

>  <SCORE.INTER.SOLV>
22.8485

>  <SCORE.INTER.VDW>
-10.1862

>  <SCORE.INTER.norm>
0.0324659

>  <SCORE.INTRA>
-8.96415

>  <SCORE.INTRA.DIHEDRAL>
-16.1046

>  <SCORE.INTRA.DIHEDRAL.0>
44.8331

>  <SCORE.INTRA.POLAR>
-0.437431

>  <SCORE.INTRA.POLAR.0>
-0.108895

>  <SCORE.INTRA.REPUL>
-0.00912235

>  <SCORE.INTRA.REPUL.0>
0.00912235

>  <SCORE.INTRA.SOLV>
-0.957886

>  <SCORE.INTRA.SOLV.lig_0>
-53.9067

>  <SCORE.INTRA.VDW>
1.09995

>  <SCORE.INTRA.VDW.0>
-2.93492

>  <SCORE.INTRA.norm>
-0.242274

>  <SCORE.RESTR>
24.757

>  <SCORE.RESTR.CAVITY>
24.757

>  <SCORE.RESTR.norm>
0.669109

>  <SCORE.SYSTEM>
0

>  <SCORE.SYSTEM.CONST>
0

>  <SCORE.SYSTEM.DIHEDRAL>
0

>  <SCORE.SYSTEM.SOLV>
0

>  <SCORE.SYSTEM.norm>
0

>  <SCORE.heavy>
37

>  <SCORE.norm>
0.459301

>  <RMSD>
12.795

$$$$
lig.pdb
 OpenBabel11021811453D
libRbt.so/2013.1/901 2013/11/27
 37 40  0  0  0  0  0  0  0  0999 V2000
   -2.1648   10.6703    8.3824 C   0  0  2  0  0  0  0  0  0  0  0  0
   -3.2984   11.2968    9.2597 C   0  0  1  0  0  0  0  0  0  0  0  0
   -4.5635   11.6897    8.4417 C   0  0  0  0  0  0  0  0  0  0  0  0
   -4.1819   12.5099    7.1845 C   0  0  1  0  0  0  0  0  0  0  0  0
   -3.1631   11.7217    6.3312 C   0  0  1  0  0  0  0  0  0  0  0  0
   -2.7978   12.5009    5.0392 C   0  0  1  0  0  0  0  0  0  0  0  0
   -4.0800   12.8950    4.2471 C   0  0  1  0  0  0  0  0  0  0  0  0
   -5.1254   13.6146    5.1500 C   0  0  2  0  0  0  0  0  0  0  0  0
   -3.6140   12.9182    1.8396 C   0  0  0  0  0  0  0  0  0  0  0  0
   -1.9845   11.3952    7.1227 O   0  0  0  0  0  0  0  0  0  0  0  0
   -5.3479   12.8863    6.3965 O   0  0  0  0  0  0  0  0  0  0  0  0
   -3.6757   10.3547   10.3356 N   0  0  0  0  0  0  0  0  0  0  0  0
   -3.6960   13.7174    3.0812 N   0  0  0  0  0  0  0  0  0  0  0  0
   -2.0019   13.6421    5.3319 O   0  0  0  0  0  0  0  0  0  0  0  0
   -6.3733   13.8145    4.4237 O   0  0  0  0  0  0  0  0  0  0  0  0
   -2.4177    9.2552    8.1251 O   0  0  0  0  0  0  0  0  0  0  0  0
   -7.4618   14.5244    5.0908 C   0  0  2  0  0  0  0  0  0  0  0  0
   -8.6370   14.7926    4.1082 C   0  0  1  0  0  0  0  0  0  0  0  0
   -8.2657   15.8669    3.0461 C   0  0  2  0  0  0  0  0  0  0  0  0
   -7.7308   17.1630    3.7213 C   0  0  1  0  0  0  0  0  0  0  0  0
   -6.5826   16.8460    4.7197 C   0  0  1  0  0  0  0  0  0  0  0  0
   -6.1313   18.1079    5.5008 C   0  0  0  0  0  0  0  0  0  0  0  0
   -6.9875   15.7892    5.6420 O   0  0  0  0  0  0  0  0  0  0  0  0
   -7.3108   18.1629    2.7151 N   0  0  0  0  0  0  0  0  0  0  0  0
   -9.0698   13.5767    3.5010 O   0  0  0  0  0  0  0  0  0  0  0  0
   -9.3721   16.1510    2.1925 O   0  0  0  0  0  0  0  0  0  0  0  0
   -4.8649   17.8974    6.1165 O   0  0  0  0  0  0  0  0  0  0  0  0
   -1.2875    8.3389    8.2098 C   0  0  1  0  0  0  0  0  0  0  0  0
   -1.3891    7.4028    9.4465 C   0  0  1  0  0  0  0  0  0  0  0  0
   -0.1285    6.5015    9.5720 C   0  0  2  0  0  0  0  0  0  0  0  0
    0.1662    5.7025    8.2611 C   0  0  1  0  0  0  0  0  0  0  0  0
    0.1404    6.5977    6.9861 C   0  0  0  0  0  0  0  0  0  0  0  0
   -1.1284    7.4995    6.9104 C   0  0  2  0  0  0  0  0  0  0  0  0
    1.4482    4.9736    8.3673 N   0  0  0  0  0  0  0  0  0  0  0  0
   -1.0510    8.3514    5.7039 N   0  0  0  0  0  0  0  0  0  0  0  0
   -1.5924    8.1567   10.6373 O   0  0  0  0  0  0  0  0  0  0  0  0
   -0.2603    5.6126   10.6785 O   0  0  0  0  0  0  0  0  0  0  0  0
  1  2  1  0  0  0  0
  1 16  1  6  0  0  0
  2  3  1  0  0  0  0
  2 12  1  1  0  0  0
  4 11  1  6  0  0  0
  4  3  1  0  0  0  0
  5  4  1  0  0  0  0
  5 10  1  1  0  0  0
  6  7  1  0  0  0  0
  6  5  1  0  0  0  0
  6 14  1  1  0  0  0
  7  8  1  0  0  0  0
  7 13  1  6  0  0  0
  8 15  1  6  0  0  0
  8 11  1  0  0  0  0
  9 13  1  0  0  0  0
 10  1  1  0  0  0  0
 17 15  1  6  0  0  0
 17 18  1  0  0  0  0
 18 25  1  6  0  0  0
 19 18  1  0  0  0  0
 19 26  1  1  0  0  0
 20 19  1  0  0  0  0
 20 24  1  6  0  0  0
 21 23  1  0  0  0  0
 21 20  1  0  0  0  0
 21 22  1  1  0  0  0
 23 17  1  0  0  0  0
 27 22  1  0  0  0  0
 28 29  1  0  0  0  0
 28 16  1  6  0  0  0
 29 36  1  1  0  0  0
 30 37  1  1  0  0  0
 30 29  1  0  0  0  0
 31 30  1  0  0  0  0
 31 34  1  1  0  0  0
 32 31  1  0  0  0  0
 32 33  1  0  0  0  0
 33 28  1  0  0  0  0
 33 35  1  6  0  0  0
M  END
>  <CHROM.1>
152.61671244,-177.60946535,97.95883237,62.34308275,173.03840477,-137.96426616
-177.15206140,-172.32762903,-163.71128306,-36.08881145,179.85247264,109.99463710
179.93949540,69.89654032,177.16487301,-162.41420983,-3.95606675,11.98834227
6.25882525,0.46275217,-0.92131117,1.62690054

>  <Name>
lig.pdb

>  <RI>
3.60165e+07

>  <Rbt.Current_Directory>
/home/itssahil/PROJECTS/Mol_Feturizer/New_Systems/rnas/2m4q

>  <Rbt.Executable>
rbdock ($Id: //depot/dev/client3/rdock/2013.1/src/exe/rbdock.cxx#4 $)

>  <Rbt.Library>
libRbt.so (2013.1, Build901 2013/11/27)

>  <Rbt.Parameter_File>
/export/apps/rDock/src/rDock_2013.1_src/data/scripts/dock_solv.prm

>  <Rbt.Receptor>
prm/pocket_docking_8.prm

>  <SCORE>
-33.1671

>  <SCORE.INTER>
-15.4405

>  <SCORE.INTER.CONST>
1

>  <SCORE.INTER.POLAR>
-1.16115

>  <SCORE.INTER.ROT>
10

>  <SCORE.INTER.SOLV>
16.3962

>  <SCORE.INTER.VDW>
-22.1552

>  <SCORE.INTER.norm>
-0.417311

>  <SCORE.INTRA>
-17.7265

>  <SCORE.INTRA.DIHEDRAL>
-26.0389

>  <SCORE.INTRA.DIHEDRAL.0>
44.8331

>  <SCORE.INTRA.POLAR>
-0.897931

>  <SCORE.INTRA.POLAR.0>
-0.108895

>  <SCORE.INTRA.REPUL>
-0.00912235

>  <SCORE.INTRA.REPUL.0>
0.00912235

>  <SCORE.INTRA.SOLV>
-1.62507

>  <SCORE.INTRA.SOLV.lig_0>
-53.9067

>  <SCORE.INTRA.VDW>
-0.795969

>  <SCORE.INTRA.VDW.0>
-2.93492

>  <SCORE.INTRA.norm>
-0.479096

>  <SCORE.RESTR>
0

>  <SCORE.RESTR.CAVITY>
0

>  <SCORE.RESTR.norm>
0

>  <SCORE.SYSTEM>
0

>  <SCORE.SYSTEM.CONST>
0

>  <SCORE.SYSTEM.DIHEDRAL>
0

>  <SCORE.SYSTEM.SOLV>
0

>  <SCORE.SYSTEM.norm>
0

>  <SCORE.heavy>
37

>  <SCORE.norm>
-0.896407

>  <RMSD>
12.830

$$$$
lig.pdb
 OpenBabel11021811453D
libRbt.so/2013.1/901 2013/11/27
 37 40  0  0  0  0  0  0  0  0999 V2000
    2.4954   -1.5945   14.4854 C   0  0  2  0  0  0  0  0  0  0  0  0
    2.0281   -0.9673   13.1306 C   0  0  1  0  0  0  0  0  0  0  0  0
    0.6295   -0.2889   13.2165 C   0  0  0  0  0  0  0  0  0  0  0  0
   -0.4030   -1.2239   13.8938 C   0  0  1  0  0  0  0  0  0  0  0  0
    0.1143   -1.6608   15.2826 C   0  0  1  0  0  0  0  0  0  0  0  0
   -0.9228   -2.5623   16.0047 C   0  0  1  0  0  0  0  0  0  0  0  0
   -2.3160   -1.8681   16.0646 C   0  0  1  0  0  0  0  0  0  0  0  0
   -2.7769   -1.3634   14.6649 C   0  0  2  0  0  0  0  0  0  0  0  0
   -4.1447   -2.1283   17.6777 C   0  0  0  0  0  0  0  0  0  0  0  0
    1.4109   -2.3131   15.1581 O   0  0  0  0  0  0  0  0  0  0  0  0
   -1.7208   -0.6109   13.9926 O   0  0  0  0  0  0  0  0  0  0  0  0
    3.0293    0.0164   12.6641 N   0  0  0  0  0  0  0  0  0  0  0  0
   -3.2946   -2.7959   16.6684 N   0  0  0  0  0  0  0  0  0  0  0  0
   -1.0107   -3.8420   15.3912 O   0  0  0  0  0  0  0  0  0  0  0  0
   -3.9958   -0.5732   14.7849 O   0  0  0  0  0  0  0  0  0  0  0  0
    3.0605   -0.5793   15.3700 O   0  0  0  0  0  0  0  0  0  0  0  0
   -4.0292    0.5123   15.7618 C   0  0  2  0  0  0  0  0  0  0  0  0
   -4.2643    1.8825   15.0647 C   0  0  1  0  0  0  0  0  0  0  0  0
   -3.0200    2.3338   14.2475 C   0  0  2  0  0  0  0  0  0  0  0  0
   -1.7340    2.3109   15.1237 C   0  0  1  0  0  0  0  0  0  0  0  0
   -1.5563    0.9371   15.8283 C   0  0  1  0  0  0  0  0  0  0  0  0
   -0.3557    0.9427   16.8106 C   0  0  0  0  0  0  0  0  0  0  0  0
   -2.7841    0.5577   16.5209 O   0  0  0  0  0  0  0  0  0  0  0  0
   -0.5359    2.6722   14.3348 N   0  0  0  0  0  0  0  0  0  0  0  0
   -5.4394    1.8387   14.2573 O   0  0  0  0  0  0  0  0  0  0  0  0
   -3.2239    3.6203   13.6673 O   0  0  0  0  0  0  0  0  0  0  0  0
   -0.2865   -0.2818   17.5340 O   0  0  0  0  0  0  0  0  0  0  0  0
    4.3498   -0.8615   15.9882 C   0  0  1  0  0  0  0  0  0  0  0  0
    5.4186   -1.2788   14.9396 C   0  0  1  0  0  0  0  0  0  0  0  0
    6.7570   -1.6682   15.6283 C   0  0  2  0  0  0  0  0  0  0  0  0
    7.2850   -0.5477   16.5820 C   0  0  1  0  0  0  0  0  0  0  0  0
    6.1918   -0.0153   17.5563 C   0  0  0  0  0  0  0  0  0  0  0  0
    4.8611    0.3430   16.8286 C   0  0  2  0  0  0  0  0  0  0  0  0
    8.4751   -1.0103   17.3275 N   0  0  0  0  0  0  0  0  0  0  0  0
    3.8637    0.7887   17.8256 N   0  0  0  0  0  0  0  0  0  0  0  0
    4.9403   -2.3442   14.1249 O   0  0  0  0  0  0  0  0  0  0  0  0
    7.7421   -1.9967   14.6519 O   0  0  0  0  0  0  0  0  0  0  0  0
  1  2  1  0  0  0  0
  1 16  1  1  0  0  0
  2  3  1  0  0  0  0
  2 12  1  1  0  0  0
  4 11  1  1  0  0  0
  4  3  1  0  0  0  0
  5  4  1  0  0  0  0
  5 10  1  6  0  0  0
  6  7  1  0  0  0  0
  6  5  1  0  0  0  0
  6 14  1  6  0  0  0
  7  8  1  0  0  0  0
  7 13  1  6  0  0  0
  8 15  1  1  0  0  0
  8 11  1  0  0  0  0
  9 13  1  0  0  0  0
 10  1  1  0  0  0  0
 17 15  1  6  0  0  0
 17 18  1  0  0  0  0
 18 25  1  6  0  0  0
 19 18  1  0  0  0  0
 19 26  1  1  0  0  0
 20 19  1  0  0  0  0
 20 24  1  6  0  0  0
 21 23  1  0  0  0  0
 21 20  1  0  0  0  0
 21 22  1  1  0  0  0
 23 17  1  0  0  0  0
 27 22  1  0  0  0  0
 28 29  1  0  0  0  0
 28 16  1  6  0  0  0
 29 36  1  1  0  0  0
 30 37  1  6  0  0  0
 30 29  1  0  0  0  0
 31 30  1  0  0  0  0
 31 34  1  1  0  0  0
 32 31  1  0  0  0  0
 32 33  1  0  0  0  0
 33 28  1  0  0  0  0
 33 35  1  1  0  0  0
M  END
>  <CHROM.1>
-67.32655615,50.84769030,134.92272247,72.07120357,118.87533598,-130.96095552
-40.67095749,88.09474078,174.63812252,78.44397963,-178.18919975,52.21767157
172.83932137,-177.52310970,-57.35338297,-172.80484075,0.67087901,-0.42084062
15.37887568,0.16619799,0.02658219,2.89841108

>  <Name>
lig.pdb

>  <RI>
0

>  <Rbt.Current_Directory>
/home/itssahil/PROJECTS/Mol_Feturizer/New_Systems/rnas/2m4q

>  <Rbt.Executable>
rbdock ($Id: //depot/dev/client3/rdock/2013.1/src/exe/rbdock.cxx#4 $)

>  <Rbt.Library>
libRbt.so (2013.1, Build901 2013/11/27)

>  <Rbt.Parameter_File>
/export/apps/rDock/src/rDock_2013.1_src/data/scripts/dock_solv.prm

>  <Rbt.Receptor>
prm/blind_docking_20.prm

>  <SCORE>
12.9003

>  <SCORE.INTER>
-2.78908

>  <SCORE.INTER.CONST>
1

>  <SCORE.INTER.POLAR>
-1.8464

>  <SCORE.INTER.ROT>
10

>  <SCORE.INTER.SOLV>
19.7066

>  <SCORE.INTER.VDW>
-12.5402

>  <SCORE.INTER.norm>
-0.0753806

>  <SCORE.INTRA>
-1.82971

>  <SCORE.INTRA.DIHEDRAL>
-21.2867

>  <SCORE.INTRA.DIHEDRAL.0>
44.8331

>  <SCORE.INTRA.POLAR>
-0.0500171

>  <SCORE.INTRA.POLAR.0>
-0.108895

>  <SCORE.INTRA.REPUL>
-0.00912235

>  <SCORE.INTRA.REPUL.0>
0.00912235

>  <SCORE.INTRA.SOLV>
2.2141

>  <SCORE.INTRA.SOLV.lig_0>
-53.9067

>  <SCORE.INTRA.VDW>
7.92227

>  <SCORE.INTRA.VDW.0>
-2.93492

>  <SCORE.INTRA.norm>
-0.0494516

>  <SCORE.RESTR>
17.5191

>  <SCORE.RESTR.CAVITY>
17.5191

>  <SCORE.RESTR.norm>
0.47349

>  <SCORE.SYSTEM>
0

>  <SCORE.SYSTEM.CONST>
0

>  <SCORE.SYSTEM.DIHEDRAL>
0

>  <SCORE.SYSTEM.SOLV>
0

>  <SCORE.SYSTEM.norm>
0

>  <SCORE.heavy>
37

>  <SCORE.norm>
0.348658

>  <RMSD>
12.833

$$$$
lig.pdb
 OpenBabel11021811453D
libRbt.so/2013.1/901 2013/11/27
 37 40  0  0  0  0  0  0  0  0999 V2000
   -1.8300   13.2613    9.1728 C   0  0  2  0  0  0  0  0  0  0  0  0
   -2.4367   14.6276    9.6336 C   0  0  1  0  0  0  0  0  0  0  0  0
   -3.1838   15.3840    8.4963 C   0  0  0  0  0  0  0  0  0  0  0  0
   -2.3208   15.4526    7.2119 C   0  0  1  0  0  0  0  0  0  0  0  0
   -1.9027   14.0286    6.7821 C   0  0  1  0  0  0  0  0  0  0  0  0
   -1.0748   14.0637    5.4695 C   0  0  1  0  0  0  0  0  0  0  0  0
   -1.8366   14.8379    4.3528 C   0  0  1  0  0  0  0  0  0  0  0  0
   -2.3192   16.2370    4.8383 C   0  0  2  0  0  0  0  0  0  0  0  0
   -1.0606   13.7226    2.3113 C   0  0  0  0  0  0  0  0  0  0  0  0
   -1.1854   13.3636    7.8617 O   0  0  0  0  0  0  0  0  0  0  0  0
   -2.9990   16.1510    6.1283 O   0  0  0  0  0  0  0  0  0  0  0  0
   -3.3563   14.4074   10.7709 N   0  0  0  0  0  0  0  0  0  0  0  0
   -0.9759   14.9338    3.1557 N   0  0  0  0  0  0  0  0  0  0  0  0
    0.2175   14.6146    5.6885 O   0  0  0  0  0  0  0  0  0  0  0  0
   -3.1703   16.8592    3.8317 O   0  0  0  0  0  0  0  0  0  0  0  0
   -2.8438   12.2103    9.1623 O   0  0  0  0  0  0  0  0  0  0  0  0
   -4.4558   16.2368    3.5250 C   0  0  2  0  0  0  0  0  0  0  0  0
   -5.2175   17.0403    2.4328 C   0  0  1  0  0  0  0  0  0  0  0  0
   -5.7346   18.4031    2.9761 C   0  0  2  0  0  0  0  0  0  0  0  0
   -6.5650   18.2102    4.2780 C   0  0  1  0  0  0  0  0  0  0  0  0
   -5.7815   17.3739    5.3278 C   0  0  1  0  0  0  0  0  0  0  0  0
   -6.6461   17.0571    6.5761 C   0  0  0  0  0  0  0  0  0  0  0  0
   -5.2795   16.1424    4.7255 O   0  0  0  0  0  0  0  0  0  0  0  0
   -7.0014   19.5080    4.8382 N   0  0  0  0  0  0  0  0  0  0  0  0
   -4.4023   17.2082    1.2744 O   0  0  0  0  0  0  0  0  0  0  0  0
   -6.4866   19.1005    1.9853 O   0  0  0  0  0  0  0  0  0  0  0  0
   -5.8787   17.1800    7.7691 O   0  0  0  0  0  0  0  0  0  0  0  0
   -2.4949   10.9267    9.7579 C   0  0  1  0  0  0  0  0  0  0  0  0
   -3.4308   10.5624   10.9443 C   0  0  1  0  0  0  0  0  0  0  0  0
   -2.9822    9.2389   11.6258 C   0  0  2  0  0  0  0  0  0  0  0  0
   -2.8481    8.0598   10.6082 C   0  0  1  0  0  0  0  0  0  0  0  0
   -2.0247    8.4419    9.3418 C   0  0  0  0  0  0  0  0  0  0  0  0
   -2.4928    9.7841    8.7029 C   0  0  2  0  0  0  0  0  0  0  0  0
   -2.2809    6.8622   11.2639 N   0  0  0  0  0  0  0  0  0  0  0  0
   -1.6312   10.0998    7.5430 N   0  0  0  0  0  0  0  0  0  0  0  0
   -3.4864   11.6250   11.8906 O   0  0  0  0  0  0  0  0  0  0  0  0
   -3.8804    8.8908   12.6765 O   0  0  0  0  0  0  0  0  0  0  0  0
  1  2  1  0  0  0  0
  1 16  1  6  0  0  0
  2  3  1  0  0  0  0
  2 12  1  1  0  0  0
  4 11  1  6  0  0  0
  4  3  1  0  0  0  0
  5  4  1  0  0  0  0
  5 10  1  1  0  0  0
  6  7  1  0  0  0  0
  6  5  1  0  0  0  0
  6 14  1  1  0  0  0
  7  8  1  0  0  0  0
  7 13  1  6  0  0  0
  8 15  1  6  0  0  0
  8 11  1  0  0  0  0
  9 13  1  0  0  0  0
 10  1  1  0  0  0  0
 17 15  1  1  0  0  0
 17 18  1  0  0  0  0
 18 25  1  6  0  0  0
 19 18  1  0  0  0  0
 19 26  1  6  0  0  0
 20 19  1  0  0  0  0
 20 24  1  1  0  0  0
 21 23  1  0  0  0  0
 21 20  1  0  0  0  0
 21 22  1  1  0  0  0
 23 17  1  0  0  0  0
 27 22  1  0  0  0  0
 28 29  1  0  0  0  0
 28 16  1  6  0  0  0
 29 36  1  1  0  0  0
 30 37  1  1  0  0  0
 30 29  1  0  0  0  0
 31 30  1  0  0  0  0
 31 34  1  1  0  0  0
 32 31  1  0  0  0  0
 32 33  1  0  0  0  0
 33 28  1  0  0  0  0
 33 35  1  6  0  0  0
M  END
>  <CHROM.1>
24.52226613,65.46632144,83.89440257,-58.13944097,179.99522537,-134.02184668
-54.41369247,-168.79347144,-139.41791764,167.08955202,-173.14253852,119.73546264
-173.77655221,69.08138405,-165.38815532,83.30397023,-3.34903698,14.13307825
6.89375619,-1.28813140,0.72721524,-0.92733493

>  <Name>
lig.pdb

>  <RI>
3.60165e+07

>  <Rbt.Current_Directory>
/home/itssahil/PROJECTS/Mol_Feturizer/New_Systems/rnas/2m4q

>  <Rbt.Executable>
rbdock ($Id: //depot/dev/client3/rdock/2013.1/src/exe/rbdock.cxx#4 $)

>  <Rbt.Library>
libRbt.so (2013.1, Build901 2013/11/27)

>  <Rbt.Parameter_File>
/export/apps/rDock/src/rDock_2013.1_src/data/scripts/dock_solv.prm

>  <Rbt.Receptor>
prm/pocket_docking_8.prm

>  <SCORE>
-35.0846

>  <SCORE.INTER>
-19.5743

>  <SCORE.INTER.CONST>
1

>  <SCORE.INTER.POLAR>
-4.36915

>  <SCORE.INTER.ROT>
10

>  <SCORE.INTER.SOLV>
12.5249

>  <SCORE.INTER.VDW>
-12.9273

>  <SCORE.INTER.norm>
-0.529035

>  <SCORE.INTRA>
-15.5234

>  <SCORE.INTRA.DIHEDRAL>
-21.2599

>  <SCORE.INTRA.DIHEDRAL.0>
44.8331

>  <SCORE.INTRA.POLAR>
-1.17935

>  <SCORE.INTRA.POLAR.0>
-0.108895

>  <SCORE.INTRA.REPUL>
-0.000292828

>  <SCORE.INTRA.REPUL.0>
0.00912235

>  <SCORE.INTRA.SOLV>
-0.283745

>  <SCORE.INTRA.SOLV.lig_0>
-53.9067

>  <SCORE.INTRA.VDW>
-0.740382

>  <SCORE.INTRA.VDW.0>
-2.93492

>  <SCORE.INTRA.norm>
-0.419552

>  <SCORE.RESTR>
0.0131261

>  <SCORE.RESTR.CAVITY>
0.0131261

>  <SCORE.RESTR.norm>
0.00035476

>  <SCORE.SYSTEM>
0

>  <SCORE.SYSTEM.CONST>
0

>  <SCORE.SYSTEM.DIHEDRAL>
0

>  <SCORE.SYSTEM.SOLV>
0

>  <SCORE.SYSTEM.norm>
0

>  <SCORE.heavy>
37

>  <SCORE.norm>
-0.948232

>  <RMSD>
12.870

$$$$
lig.pdb
 OpenBabel11021811453D
libRbt.so/2013.1/901 2013/11/27
 37 40  0  0  0  0  0  0  0  0999 V2000
    0.6409   -1.0944   16.7153 C   0  0  2  0  0  0  0  0  0  0  0  0
   -0.5002   -2.0291   17.2362 C   0  0  1  0  0  0  0  0  0  0  0  0
   -1.7787   -1.9929   16.3484 C   0  0  0  0  0  0  0  0  0  0  0  0
   -2.2119   -0.5353   16.0540 C   0  0  1  0  0  0  0  0  0  0  0  0
   -1.0406    0.2425   15.4134 C   0  0  1  0  0  0  0  0  0  0  0  0
   -1.4617    1.6952   15.0642 C   0  0  1  0  0  0  0  0  0  0  0  0
   -2.7502    1.7048   14.1888 C   0  0  1  0  0  0  0  0  0  0  0  0
   -3.8881    0.8458   14.8161 C   0  0  2  0  0  0  0  0  0  0  0  0
   -2.7291    3.6113   12.6465 C   0  0  0  0  0  0  0  0  0  0  0  0
    0.1271    0.2075   16.2837 O   0  0  0  0  0  0  0  0  0  0  0  0
   -3.4039   -0.4721   15.2191 O   0  0  0  0  0  0  0  0  0  0  0  0
   -0.0024   -3.4184   17.3333 N   0  0  0  0  0  0  0  0  0  0  0  0
   -3.1723    3.1026   13.9625 N   0  0  0  0  0  0  0  0  0  0  0  0
   -1.6302    2.4803   16.2376 O   0  0  0  0  0  0  0  0  0  0  0  0
   -5.0116    0.7379   13.8939 O   0  0  0  0  0  0  0  0  0  0  0  0
    1.3923   -1.7295   15.6362 O   0  0  0  0  0  0  0  0  0  0  0  0
   -6.2749    0.2017   14.3944 C   0  0  2  0  0  0  0  0  0  0  0  0
   -7.4858    0.9280   13.7426 C   0  0  1  0  0  0  0  0  0  0  0  0
   -7.6255    2.3895   14.2568 C   0  0  2  0  0  0  0  0  0  0  0  0
   -7.6537    2.4376   15.8120 C   0  0  1  0  0  0  0  0  0  0  0  0
   -6.4467    1.6715   16.4218 C   0  0  1  0  0  0  0  0  0  0  0  0
   -6.5337    1.5936   17.9686 C   0  0  0  0  0  0  0  0  0  0  0  0
   -6.3493    0.3337   15.8454 O   0  0  0  0  0  0  0  0  0  0  0  0
   -7.7165    3.8296   16.3088 N   0  0  0  0  0  0  0  0  0  0  0  0
   -7.3957    0.8745   12.3201 O   0  0  0  0  0  0  0  0  0  0  0  0
   -8.7763    3.0228   13.7019 O   0  0  0  0  0  0  0  0  0  0  0  0
   -7.7336    0.9450   18.3771 O   0  0  0  0  0  0  0  0  0  0  0  0
    2.3458   -0.9088   14.9005 C   0  0  1  0  0  0  0  0  0  0  0  0
    3.8159   -1.2526   15.2703 C   0  0  1  0  0  0  0  0  0  0  0  0
    4.8122   -0.3020   14.5485 C   0  0  2  0  0  0  0  0  0  0  0  0
    4.5938   -0.2729   13.0008 C   0  0  1  0  0  0  0  0  0  0  0  0
    3.1021   -0.0635   12.6023 C   0  0  0  0  0  0  0  0  0  0  0  0
    2.1365   -1.0210   13.3636 C   0  0  2  0  0  0  0  0  0  0  0  0
    5.4564    0.7475   12.3677 N   0  0  0  0  0  0  0  0  0  0  0  0
    0.7424   -0.7241   12.9691 N   0  0  0  0  0  0  0  0  0  0  0  0
    4.0071   -1.2092   16.6806 O   0  0  0  0  0  0  0  0  0  0  0  0
    6.1564   -0.6634   14.8554 O   0  0  0  0  0  0  0  0  0  0  0  0
  1  2  1  0  0  0  0
  1 16  1  6  0  0  0
  2  3  1  0  0  0  0
  2 12  1  6  0  0  0
  4 11  1  6  0  0  0
  4  3  1  0  0  0  0
  5  4  1  0  0  0  0
  5 10  1  1  0  0  0
  6  7  1  0  0  0  0
  6  5  1  0  0  0  0
  6 14  1  1  0  0  0
  7  8  1  0  0  0  0
  7 13  1  1  0  0  0
  8 15  1  6  0  0  0
  8 11  1  0  0  0  0
  9 13  1  0  0  0  0
 10  1  1  0  0  0  0
 17 15  1  6  0  0  0
 17 18  1  0  0  0  0
 18 25  1  6  0  0  0
 19 18  1  0  0  0  0
 19 26  1  6  0  0  0
 20 19  1  0  0  0  0
 20 24  1  6  0  0  0
 21 23  1  0  0  0  0
 21 20  1  0  0  0  0
 21 22  1  1  0  0  0
 23 17  1  0  0  0  0
 27 22  1  0  0  0  0
 28 29  1  0  0  0  0
 28 16  1  1  0  0  0
 29 36  1  1  0  0  0
 30 37  1  6  0  0  0
 30 29  1  0  0  0  0
 31 30  1  0  0  0  0
 31 34  1  6  0  0  0
 32 31  1  0  0  0  0
 32 33  1  0  0  0  0
 33 28  1  0  0  0  0
 33 35  1  1  0  0  0
M  END
>  <CHROM.1>
133.16687408,-168.01628430,98.60201811,68.82790454,143.53029074,170.32169849
75.90284185,68.92955219,58.74229093,-83.66483752,-171.49399470,106.49723606
72.42154817,-169.32676112,101.98527126,174.78490618,-1.91999898,0.44682297
15.05671099,0.09112592,-0.22567685,2.17341912

>  <Name>
lig.pdb

>  <RI>
0

>  <Rbt.Current_Directory>
/home/itssahil/PROJECTS/Mol_Feturizer/New_Systems/rnas/2m4q

>  <Rbt.Executable>
rbdock ($Id: //depot/dev/client3/rdock/2013.1/src/exe/rbdock.cxx#4 $)

>  <Rbt.Library>
libRbt.so (2013.1, Build901 2013/11/27)

>  <Rbt.Parameter_File>
/export/apps/rDock/src/rDock_2013.1_src/data/scripts/dock_solv.prm

>  <Rbt.Receptor>
prm/blind_docking_20.prm

>  <SCORE>
-3.77747

>  <SCORE.INTER>
-15.3471

>  <SCORE.INTER.CONST>
1

>  <SCORE.INTER.POLAR>
-3.48043

>  <SCORE.INTER.ROT>
10

>  <SCORE.INTER.SOLV>
21.9801

>  <SCORE.INTER.VDW>
-16.2233

>  <SCORE.INTER.norm>
-0.414787

>  <SCORE.INTRA>
-12.1715

>  <SCORE.INTRA.DIHEDRAL>
-21.8589

>  <SCORE.INTRA.DIHEDRAL.0>
44.8331

>  <SCORE.INTRA.POLAR>
0.108362

>  <SCORE.INTRA.POLAR.0>
-0.108895

>  <SCORE.INTRA.REPUL>
-0.00912235

>  <SCORE.INTRA.REPUL.0>
0.00912235

>  <SCORE.INTRA.SOLV>
-1.48011

>  <SCORE.INTRA.SOLV.lig_0>
-53.9067

>  <SCORE.INTRA.VDW>
-0.824841

>  <SCORE.INTRA.VDW.0>
-2.93492

>  <SCORE.INTRA.norm>
-0.328961

>  <SCORE.RESTR>
23.7412

>  <SCORE.RESTR.CAVITY>
23.7412

>  <SCORE.RESTR.norm>
0.641654

>  <SCORE.SYSTEM>
0

>  <SCORE.SYSTEM.CONST>
0

>  <SCORE.SYSTEM.DIHEDRAL>
0

>  <SCORE.SYSTEM.SOLV>
0

>  <SCORE.SYSTEM.norm>
0

>  <SCORE.heavy>
37

>  <SCORE.norm>
-0.102094

>  <RMSD>
12.874

$$$$
lig.pdb
 OpenBabel11021811453D
libRbt.so/2013.1/901 2013/11/27
 37 40  0  0  0  0  0  0  0  0999 V2000
    0.7779   -1.5401   16.3438 C   0  0  2  0  0  0  0  0  0  0  0  0
   -0.4615   -2.4566   16.6100 C   0  0  1  0  0  0  0  0  0  0  0  0
   -1.7177   -2.0477   15.7863 C   0  0  0  0  0  0  0  0  0  0  0  0
   -1.9918   -0.5279   15.9054 C   0  0  1  0  0  0  0  0  0  0  0  0
   -0.7374    0.2679   15.4808 C   0  0  1  0  0  0  0  0  0  0  0  0
   -0.9993    1.7966   15.5456 C   0  0  1  0  0  0  0  0  0  0  0  0
   -2.2685    2.1779   14.7267 C   0  0  1  0  0  0  0  0  0  0  0  0
   -3.4981    1.3045   15.1160 C   0  0  2  0  0  0  0  0  0  0  0  0
   -2.9049    3.9594   16.2872 C   0  0  0  0  0  0  0  0  0  0  0  0
    0.4090   -0.1237   16.2899 O   0  0  0  0  0  0  0  0  0  0  0  0
   -3.1599   -0.1164   15.1385 O   0  0  0  0  0  0  0  0  0  0  0  0
   -0.1134   -3.8643   16.3186 N   0  0  0  0  0  0  0  0  0  0  0  0
   -2.5387    3.6207   14.8950 N   0  0  0  0  0  0  0  0  0  0  0  0
   -1.0995    2.2468   16.8906 O   0  0  0  0  0  0  0  0  0  0  0  0
   -4.6149    1.5689   14.2174 O   0  0  0  0  0  0  0  0  0  0  0  0
    1.4722   -1.9333   15.1207 O   0  0  0  0  0  0  0  0  0  0  0  0
   -5.3016    2.8542   14.3188 C   0  0  2  0  0  0  0  0  0  0  0  0
   -6.0634    2.9740   15.6693 C   0  0  1  0  0  0  0  0  0  0  0  0
   -7.3032    2.0356   15.7163 C   0  0  2  0  0  0  0  0  0  0  0  0
   -8.2216    2.2557   14.4793 C   0  0  1  0  0  0  0  0  0  0  0  0
   -7.4147    2.1621   13.1543 C   0  0  1  0  0  0  0  0  0  0  0  0
   -8.2870    2.5136   11.9207 C   0  0  0  0  0  0  0  0  0  0  0  0
   -6.2380    3.0241   13.2130 O   0  0  0  0  0  0  0  0  0  0  0  0
   -9.3661    1.3184   14.4821 N   0  0  0  0  0  0  0  0  0  0  0  0
   -5.1809    2.7389   16.7650 O   0  0  0  0  0  0  0  0  0  0  0  0
   -8.0296    2.2024   16.9320 O   0  0  0  0  0  0  0  0  0  0  0  0
   -8.6826    1.3348   11.2268 O   0  0  0  0  0  0  0  0  0  0  0  0
    2.8714   -1.5496   14.9830 C   0  0  1  0  0  0  0  0  0  0  0  0
    3.1675   -0.9189   13.5935 C   0  0  1  0  0  0  0  0  0  0  0  0
    4.6818   -0.6062   13.4314 C   0  0  2  0  0  0  0  0  0  0  0  0
    5.2377    0.2724   14.5988 C   0  0  1  0  0  0  0  0  0  0  0  0
    4.8395   -0.2655   16.0058 C   0  0  0  0  0  0  0  0  0  0  0  0
    3.3184   -0.5856   16.1185 C   0  0  2  0  0  0  0  0  0  0  0  0
    6.7042    0.4251   14.4888 N   0  0  0  0  0  0  0  0  0  0  0  0
    3.0334   -1.1374   17.4608 N   0  0  0  0  0  0  0  0  0  0  0  0
    2.7110   -1.7667   12.5446 O   0  0  0  0  0  0  0  0  0  0  0  0
    4.9291    0.0199   12.1750 O   0  0  0  0  0  0  0  0  0  0  0  0
  1  2  1  0  0  0  0
  1 16  1  6  0  0  0
  2  3  1  0  0  0  0
  2 12  1  6  0  0  0
  4 11  1  6  0  0  0
  4  3  1  0  0  0  0
  5  4  1  0  0  0  0
  5 10  1  1  0  0  0
  6  7  1  0  0  0  0
  6  5  1  0  0  0  0
  6 14  1  1  0  0  0
  7  8  1  0  0  0  0
  7 13  1  1  0  0  0
  8 15  1  6  0  0  0
  8 11  1  0  0  0  0
  9 13  1  0  0  0  0
 10  1  1  0  0  0  0
 17 15  1  6  0  0  0
 17 18  1  0  0  0  0
 18 25  1  1  0  0  0
 19 18  1  0  0  0  0
 19 26  1  1  0  0  0
 20 19  1  0  0  0  0
 20 24  1  6  0  0  0
 21 23  1  0  0  0  0
 21 20  1  0  0  0  0
 21 22  1  6  0  0  0
 23 17  1  0  0  0  0
 27 22  1  0  0  0  0
 28 29  1  0  0  0  0
 28 16  1  6  0  0  0
 29 36  1  6  0  0  0
 30 37  1  6  0  0  0
 30 29  1  0  0  0  0
 31 30  1  0  0  0  0
 31 34  1  1  0  0  0
 32 31  1  0  0  0  0
 32 33  1  0  0  0  0
 33 28  1  0  0  0  0
 33 35  1  1  0  0  0
M  END
>  <CHROM.1>
-111.31498969,-70.75924722,-65.67656664,-54.59104134,-67.27606134,-157.55015022
172.70486203,-62.65952659,-102.55421855,64.67255555,63.80602945,-132.62370141
88.73355594,-170.80385636,-171.88592908,164.81592723,-1.70741551,0.64371546
14.96578973,0.17397779,-0.21612930,2.09482938

>  <Name>
lig.pdb

>  <RI>
0

>  <Rbt.Current_Directory>
/home/itssahil/PROJECTS/Mol_Feturizer/New_Systems/rnas/2m4q

>  <Rbt.Executable>
rbdock ($Id: //depot/dev/client3/rdock/2013.1/src/exe/rbdock.cxx#4 $)

>  <Rbt.Library>
libRbt.so (2013.1, Build901 2013/11/27)

>  <Rbt.Parameter_File>
/export/apps/rDock/src/rDock_2013.1_src/data/scripts/dock_solv.prm

>  <Rbt.Receptor>
prm/blind_docking_20.prm

>  <SCORE>
14.3745

>  <SCORE.INTER>
-6.78237

>  <SCORE.INTER.CONST>
1

>  <SCORE.INTER.POLAR>
-2.63062

>  <SCORE.INTER.ROT>
10

>  <SCORE.INTER.SOLV>
23.6293

>  <SCORE.INTER.VDW>
-13.8959

>  <SCORE.INTER.norm>
-0.183307

>  <SCORE.INTRA>
0.774215

>  <SCORE.INTRA.DIHEDRAL>
-23.766

>  <SCORE.INTRA.DIHEDRAL.0>
44.8331

>  <SCORE.INTRA.POLAR>
0.108895

>  <SCORE.INTRA.POLAR.0>
-0.108895

>  <SCORE.INTRA.REPUL>
-0.00912235

>  <SCORE.INTRA.REPUL.0>
0.00912235

>  <SCORE.INTRA.SOLV>
-0.0671908

>  <SCORE.INTRA.SOLV.lig_0>
-53.9067

>  <SCORE.INTRA.VDW>
12.3662

>  <SCORE.INTRA.VDW.0>
-2.93492

>  <SCORE.INTRA.norm>
0.0209247

>  <SCORE.RESTR>
20.3827

>  <SCORE.RESTR.CAVITY>
20.3827

>  <SCORE.RESTR.norm>
0.550883

>  <SCORE.SYSTEM>
0

>  <SCORE.SYSTEM.CONST>
0

>  <SCORE.SYSTEM.DIHEDRAL>
0

>  <SCORE.SYSTEM.SOLV>
0

>  <SCORE.SYSTEM.norm>
0

>  <SCORE.heavy>
37

>  <SCORE.norm>
0.3885

>  <RMSD>
12.909

$$$$
lig.pdb
 OpenBabel11021811453D
libRbt.so/2013.1/901 2013/11/27
 37 40  0  0  0  0  0  0  0  0999 V2000
    2.2400   -1.6581   14.5927 C   0  0  2  0  0  0  0  0  0  0  0  0
    1.7611   -1.0541   13.2315 C   0  0  1  0  0  0  0  0  0  0  0  0
    0.3599   -0.3808   13.3159 C   0  0  0  0  0  0  0  0  0  0  0  0
   -0.6638   -1.3099   14.0143 C   0  0  1  0  0  0  0  0  0  0  0  0
   -0.1356   -1.7229   15.4063 C   0  0  1  0  0  0  0  0  0  0  0  0
   -1.1638   -2.6178   16.1491 C   0  0  1  0  0  0  0  0  0  0  0  0
   -2.5598   -1.9291   16.2072 C   0  0  1  0  0  0  0  0  0  0  0  0
   -3.0321   -1.4483   14.8029 C   0  0  2  0  0  0  0  0  0  0  0  0
   -4.0339   -3.8604   15.8745 C   0  0  0  0  0  0  0  0  0  0  0  0
    1.1632   -2.3711   15.2835 O   0  0  0  0  0  0  0  0  0  0  0  0
   -1.9838   -0.7015   14.1121 O   0  0  0  0  0  0  0  0  0  0  0  0
    2.7546   -0.0732   12.7433 N   0  0  0  0  0  0  0  0  0  0  0  0
   -3.5302   -2.8519   16.8316 N   0  0  0  0  0  0  0  0  0  0  0  0
   -1.2497   -3.9072   15.5561 O   0  0  0  0  0  0  0  0  0  0  0  0
   -4.2539   -0.6620   14.9185 O   0  0  0  0  0  0  0  0  0  0  0  0
    2.8060   -0.6267   15.4578 O   0  0  0  0  0  0  0  0  0  0  0  0
   -4.2737    0.4615   15.8520 C   0  0  2  0  0  0  0  0  0  0  0  0
   -5.3628    1.4978   15.4537 C   0  0  1  0  0  0  0  0  0  0  0  0
   -4.9776    2.2690   14.1588 C   0  0  2  0  0  0  0  0  0  0  0  0
   -3.5581    2.8956   14.2794 C   0  0  1  0  0  0  0  0  0  0  0  0
   -2.5084    1.8344   14.7123 C   0  0  1  0  0  0  0  0  0  0  0  0
   -1.1167    2.4698   14.9690 C   0  0  0  0  0  0  0  0  0  0  0  0
   -2.9701    1.1151   15.8958 O   0  0  0  0  0  0  0  0  0  0  0  0
   -3.1573    3.5716   13.0260 N   0  0  0  0  0  0  0  0  0  0  0  0
   -6.6358    0.8657   15.3335 O   0  0  0  0  0  0  0  0  0  0  0  0
   -5.9518    3.2606   13.8410 O   0  0  0  0  0  0  0  0  0  0  0  0
   -0.2161    1.5135   15.5184 O   0  0  0  0  0  0  0  0  0  0  0  0
    4.1449   -0.8482   15.9890 C   0  0  1  0  0  0  0  0  0  0  0  0
    5.1950   -1.0383   14.8587 C   0  0  1  0  0  0  0  0  0  0  0  0
    6.5962   -1.3689   15.4456 C   0  0  2  0  0  0  0  0  0  0  0  0
    7.0639   -0.3158   16.5021 C   0  0  1  0  0  0  0  0  0  0  0  0
    5.9753   -0.0059   17.5729 C   0  0  0  0  0  0  0  0  0  0  0  0
    4.5826    0.2990   16.9434 C   0  0  2  0  0  0  0  0  0  0  0  0
    8.3273   -0.7397   17.1425 N   0  0  0  0  0  0  0  0  0  0  0  0
    3.5985    0.5300   18.0230 N   0  0  0  0  0  0  0  0  0  0  0  0
    4.7784   -2.0476   13.9448 O   0  0  0  0  0  0  0  0  0  0  0  0
    7.5582   -1.4875   14.4005 O   0  0  0  0  0  0  0  0  0  0  0  0
  1  2  1  0  0  0  0
  1 16  1  1  0  0  0
  2  3  1  0  0  0  0
  2 12  1  1  0  0  0
  4 11  1  1  0  0  0
  4  3  1  0  0  0  0
  5  4  1  0  0  0  0
  5 10  1  6  0  0  0
  6  7  1  0  0  0  0
  6  5  1  0  0  0  0
  6 14  1  6  0  0  0
  7  8  1  0  0  0  0
  7 13  1  6  0  0  0
  8 15  1  1  0  0  0
  8 11  1  0  0  0  0
  9 13  1  0  0  0  0
 10  1  1  0  0  0  0
 17 15  1  6  0  0  0
 17 18  1  0  0  0  0
 18 25  1  6  0  0  0
 19 18  1  0  0  0  0
 19 26  1  1  0  0  0
 20 19  1  0  0  0  0
 20 24  1  6  0  0  0
 21 23  1  0  0  0  0
 21 20  1  0  0  0  0
 21 22  1  1  0  0  0
 23 17  1  0  0  0  0
 27 22  1  0  0  0  0
 28 29  1  0  0  0  0
 28 16  1  6  0  0  0
 29 36  1  6  0  0  0
 30 37  1  6  0  0  0
 30 29  1  0  0  0  0
 31 30  1  0  0  0  0
 31 34  1  1  0  0  0
 32 31  1  0  0  0  0
 32 33  1  0  0  0  0
 33 28  1  0  0  0  0
 33 35  1  1  0  0  0
M  END
>  <CHROM.1>
-71.72750269,52.51637429,-80.54311881,-60.25294522,156.99002037,-126.32859737
66.81306437,39.99414344,172.93574345,-38.07112001,175.52325070,58.48588066
-60.05151836,-44.14302950,-61.03871647,-64.50379992,0.13571843,-0.33184000
15.19087167,0.17604600,0.04716042,2.93598550

>  <Name>
lig.pdb

>  <RI>
0

>  <Rbt.Current_Directory>
/home/itssahil/PROJECTS/Mol_Feturizer/New_Systems/rnas/2m4q

>  <Rbt.Executable>
rbdock ($Id: //depot/dev/client3/rdock/2013.1/src/exe/rbdock.cxx#4 $)

>  <Rbt.Library>
libRbt.so (2013.1, Build901 2013/11/27)

>  <Rbt.Parameter_File>
/export/apps/rDock/src/rDock_2013.1_src/data/scripts/dock_solv.prm

>  <Rbt.Receptor>
prm/blind_docking_20.prm

>  <SCORE>
1.27557

>  <SCORE.INTER>
-4.9181

>  <SCORE.INTER.CONST>
1

>  <SCORE.INTER.POLAR>
-1.96611

>  <SCORE.INTER.ROT>
10

>  <SCORE.INTER.SOLV>
22.0299

>  <SCORE.INTER.VDW>
-14.335

>  <SCORE.INTER.norm>
-0.132922

>  <SCORE.INTRA>
-9.58928

>  <SCORE.INTRA.DIHEDRAL>
-29.9799

>  <SCORE.INTRA.DIHEDRAL.0>
44.8331

>  <SCORE.INTRA.POLAR>
0.103105

>  <SCORE.INTRA.POLAR.0>
-0.108895

>  <SCORE.INTRA.REPUL>
0.117931

>  <SCORE.INTRA.REPUL.0>
0.00912235

>  <SCORE.INTRA.SOLV>
1.00958

>  <SCORE.INTRA.SOLV.lig_0>
-53.9067

>  <SCORE.INTRA.VDW>
3.95567

>  <SCORE.INTRA.VDW.0>
-2.93492

>  <SCORE.INTRA.norm>
-0.25917

>  <SCORE.RESTR>
15.7829

>  <SCORE.RESTR.CAVITY>
15.7829

>  <SCORE.RESTR.norm>
0.426566

>  <SCORE.SYSTEM>
0

>  <SCORE.SYSTEM.CONST>
0

>  <SCORE.SYSTEM.DIHEDRAL>
0

>  <SCORE.SYSTEM.SOLV>
0

>  <SCORE.SYSTEM.norm>
0

>  <SCORE.heavy>
37

>  <SCORE.norm>
0.0344748

>  <RMSD>
12.952

$$$$
lig.pdb
 OpenBabel11021811453D
libRbt.so/2013.1/901 2013/11/27
 37 40  0  0  0  0  0  0  0  0999 V2000
    1.0256   -1.4024   16.6497 C   0  0  2  0  0  0  0  0  0  0  0  0
   -0.0937   -2.3882   17.1211 C   0  0  1  0  0  0  0  0  0  0  0  0
   -1.3947   -2.2940   16.2713 C   0  0  0  0  0  0  0  0  0  0  0  0
   -1.8478   -0.8220   16.1070 C   0  0  1  0  0  0  0  0  0  0  0  0
   -0.7000    0.0176   15.5027 C   0  0  1  0  0  0  0  0  0  0  0  0
   -1.1424    1.4892   15.2833 C   0  0  1  0  0  0  0  0  0  0  0  0
   -2.4530    1.5560   14.4438 C   0  0  1  0  0  0  0  0  0  0  0  0
   -3.5670    0.6370   15.0274 C   0  0  2  0  0  0  0  0  0  0  0  0
   -2.7854    3.4810   12.9613 C   0  0  0  0  0  0  0  0  0  0  0  0
    0.4898   -0.0754   16.3381 O   0  0  0  0  0  0  0  0  0  0  0  0
   -3.0614   -0.7040   15.3099 O   0  0  0  0  0  0  0  0  0  0  0  0
    0.4183   -3.7756   17.0927 N   0  0  0  0  0  0  0  0  0  0  0  0
   -2.8927    2.9629   14.3423 N   0  0  0  0  0  0  0  0  0  0  0  0
   -1.2875    2.1749   16.5203 O   0  0  0  0  0  0  0  0  0  0  0  0
   -4.7128    0.5921   14.1276 O   0  0  0  0  0  0  0  0  0  0  0  0
    1.7545   -1.9401   15.5042 O   0  0  0  0  0  0  0  0  0  0  0  0
   -5.9104   -0.1242   14.5596 C   0  0  2  0  0  0  0  0  0  0  0  0
   -6.7925   -0.5205   13.3416 C   0  0  1  0  0  0  0  0  0  0  0  0
   -7.4748    0.7200   12.6970 C   0  0  2  0  0  0  0  0  0  0  0  0
   -8.2472    1.5526   13.7610 C   0  0  1  0  0  0  0  0  0  0  0  0
   -7.3398    1.8968   14.9750 C   0  0  1  0  0  0  0  0  0  0  0  0
   -8.1308    2.6077   16.1042 C   0  0  0  0  0  0  0  0  0  0  0  0
   -6.6910    0.6918   15.4833 O   0  0  0  0  0  0  0  0  0  0  0  0
   -8.8406    2.7709   13.1677 N   0  0  0  0  0  0  0  0  0  0  0  0
   -6.0291   -1.2583   12.3890 O   0  0  0  0  0  0  0  0  0  0  0  0
   -8.3314    0.3367   11.6233 O   0  0  0  0  0  0  0  0  0  0  0  0
   -7.4927    3.8230   16.4828 O   0  0  0  0  0  0  0  0  0  0  0  0
    2.6482   -1.0397   14.7868 C   0  0  1  0  0  0  0  0  0  0  0  0
    4.1428   -1.4035   15.0104 C   0  0  1  0  0  0  0  0  0  0  0  0
    5.0797   -0.3748   14.3167 C   0  0  2  0  0  0  0  0  0  0  0  0
    4.7465   -0.1927   12.8002 C   0  0  1  0  0  0  0  0  0  0  0  0
    3.2287    0.0400   12.5361 C   0  0  0  0  0  0  0  0  0  0  0  0
    2.3253   -0.9992   13.2661 C   0  0  2  0  0  0  0  0  0  0  0  0
    5.5566    0.8950   12.2114 N   0  0  0  0  0  0  0  0  0  0  0  0
    0.9048   -0.6787   13.0075 N   0  0  0  0  0  0  0  0  0  0  0  0
    4.4383   -1.5000   16.4000 O   0  0  0  0  0  0  0  0  0  0  0  0
    6.4440   -0.7512   14.4855 O   0  0  0  0  0  0  0  0  0  0  0  0
  1  2  1  0  0  0  0
  1 16  1  6  0  0  0
  2  3  1  0  0  0  0
  2 12  1  6  0  0  0
  4 11  1  6  0  0  0
  4  3  1  0  0  0  0
  5  4  1  0  0  0  0
  5 10  1  1  0  0  0
  6  7  1  0  0  0  0
  6  5  1  0  0  0  0
  6 14  1  1  0  0  0
  7  8  1  0  0  0  0
  7 13  1  1  0  0  0
  8 15  1  6  0  0  0
  8 11  1  0  0  0  0
  9 13  1  0  0  0  0
 10  1  1  0  0  0  0
 17 15  1  6  0  0  0
 17 18  1  0  0  0  0
 18 25  1  6  0  0  0
 19 18  1  0  0  0  0
 19 26  1  6  0  0  0
 20 19  1  0  0  0  0
 20 24  1  6  0  0  0
 21 23  1  0  0  0  0
 21 20  1  0  0  0  0
 21 22  1  1  0  0  0
 23 17  1  0  0  0  0
 27 22  1  0  0  0  0
 28 29  1  0  0  0  0
 28 16  1  1  0  0  0
 29 36  1  1  0  0  0
 30 37  1  6  0  0  0
 30 29  1  0  0  0  0
 31 30  1  0  0  0  0
 31 34  1  1  0  0  0
 32 31  1  0  0  0  0
 32 33  1  0  0  0  0
 33 28  1  0  0  0  0
 33 35  1  1  0  0  0
M  END
>  <CHROM.1>
-85.39721691,-174.58385052,112.41662390,62.00585398,-159.04376932,168.31485036
173.59777926,-62.01077741,-127.31503633,-41.28372965,61.77206242,109.89177184
174.85070688,-65.78871282,-64.04779386,57.89356738,-1.74871704,0.17818055
14.64243384,0.17593245,-0.12336432,2.31161010

>  <Name>
lig.pdb

>  <RI>
0

>  <Rbt.Current_Directory>
/home/itssahil/PROJECTS/Mol_Feturizer/New_Systems/rnas/2m4q

>  <Rbt.Executable>
rbdock ($Id: //depot/dev/client3/rdock/2013.1/src/exe/rbdock.cxx#4 $)

>  <Rbt.Library>
libRbt.so (2013.1, Build901 2013/11/27)

>  <Rbt.Parameter_File>
/export/apps/rDock/src/rDock_2013.1_src/data/scripts/dock_solv.prm

>  <Rbt.Receptor>
prm/blind_docking_20.prm

>  <SCORE>
-10.2076

>  <SCORE.INTER>
-17.0582

>  <SCORE.INTER.CONST>
1

>  <SCORE.INTER.POLAR>
-2.34313

>  <SCORE.INTER.ROT>
10

>  <SCORE.INTER.SOLV>
26.1532

>  <SCORE.INTER.VDW>
-22.5461

>  <SCORE.INTER.norm>
-0.461031

>  <SCORE.INTRA>
-14.3344

>  <SCORE.INTRA.DIHEDRAL>
-25.7068

>  <SCORE.INTRA.DIHEDRAL.0>
44.8331

>  <SCORE.INTRA.POLAR>
0.107837

>  <SCORE.INTRA.POLAR.0>
-0.108895

>  <SCORE.INTRA.REPUL>
-0.00912235

>  <SCORE.INTRA.REPUL.0>
0.00912235

>  <SCORE.INTRA.SOLV>
-1.85826

>  <SCORE.INTRA.SOLV.lig_0>
-53.9067

>  <SCORE.INTRA.VDW>
-0.872857

>  <SCORE.INTRA.VDW.0>
-2.93492

>  <SCORE.INTRA.norm>
-0.387415

>  <SCORE.RESTR>
21.1849

>  <SCORE.RESTR.CAVITY>
21.1849

>  <SCORE.RESTR.norm>
0.572566

>  <SCORE.SYSTEM>
0

>  <SCORE.SYSTEM.CONST>
0

>  <SCORE.SYSTEM.DIHEDRAL>
0

>  <SCORE.SYSTEM.SOLV>
0

>  <SCORE.SYSTEM.norm>
0

>  <SCORE.heavy>
37

>  <SCORE.norm>
-0.27588

>  <RMSD>
12.956

$$$$
lig.pdb
 OpenBabel11021811453D
libRbt.so/2013.1/901 2013/11/27
 37 40  0  0  0  0  0  0  0  0999 V2000
    2.2670   -1.5222   14.4892 C   0  0  2  0  0  0  0  0  0  0  0  0
    1.7734   -0.8866   13.1478 C   0  0  1  0  0  0  0  0  0  0  0  0
    0.3545   -0.2542   13.2519 C   0  0  0  0  0  0  0  0  0  0  0  0
   -0.6445   -1.2330   13.9173 C   0  0  1  0  0  0  0  0  0  0  0  0
   -0.1067   -1.6774   15.2959 C   0  0  1  0  0  0  0  0  0  0  0  0
   -1.1112   -2.6236   16.0069 C   0  0  1  0  0  0  0  0  0  0  0  0
   -2.5253   -1.9748   16.0852 C   0  0  1  0  0  0  0  0  0  0  0  0
   -3.0089   -1.4607   14.6967 C   0  0  2  0  0  0  0  0  0  0  0  0
   -3.4098   -2.9487   18.1547 C   0  0  0  0  0  0  0  0  0  0  0  0
    1.2091   -2.2862   15.1542 O   0  0  0  0  0  0  0  0  0  0  0  0
   -1.9804   -0.6637   14.0329 O   0  0  0  0  0  0  0  0  0  0  0  0
    2.7407    0.1361   12.6940 N   0  0  0  0  0  0  0  0  0  0  0  0
   -3.4710   -2.9434   16.6771 N   0  0  0  0  0  0  0  0  0  0  0  0
   -1.1619   -3.8945   15.3716 O   0  0  0  0  0  0  0  0  0  0  0  0
   -4.2515   -0.7116   14.8360 O   0  0  0  0  0  0  0  0  0  0  0  0
    2.8044   -0.5051   15.3889 O   0  0  0  0  0  0  0  0  0  0  0  0
   -4.2988    0.3868   15.7979 C   0  0  2  0  0  0  0  0  0  0  0  0
   -5.3609    1.4447   15.3840 C   0  0  1  0  0  0  0  0  0  0  0  0
   -4.9159    2.2460   14.1271 C   0  0  2  0  0  0  0  0  0  0  0  0
   -3.4967    2.8542   14.3219 C   0  0  1  0  0  0  0  0  0  0  0  0
   -2.4756    1.7709   14.7683 C   0  0  1  0  0  0  0  0  0  0  0  0
   -1.0896    2.3845   15.0982 C   0  0  0  0  0  0  0  0  0  0  0  0
   -2.9920    1.0252   15.9122 O   0  0  0  0  0  0  0  0  0  0  0  0
   -3.0388    3.5590   13.1046 N   0  0  0  0  0  0  0  0  0  0  0  0
   -6.6338    0.8294   15.1952 O   0  0  0  0  0  0  0  0  0  0  0  0
   -5.8670    3.2559   13.7968 O   0  0  0  0  0  0  0  0  0  0  0  0
   -0.1950    1.3870   15.5798 O   0  0  0  0  0  0  0  0  0  0  0  0
    4.0784   -0.7820   16.0402 C   0  0  1  0  0  0  0  0  0  0  0  0
    5.1589   -1.2543   15.0275 C   0  0  1  0  0  0  0  0  0  0  0  0
    6.4791   -1.6364   15.7542 C   0  0  2  0  0  0  0  0  0  0  0  0
    7.0073   -0.4881   16.6741 C   0  0  1  0  0  0  0  0  0  0  0  0
    5.9056    0.0968   17.6079 C   0  0  0  0  0  0  0  0  0  0  0  0
    4.5932    0.4461   16.8435 C   0  0  2  0  0  0  0  0  0  0  0  0
    8.1772   -0.9390   17.4578 N   0  0  0  0  0  0  0  0  0  0  0  0
    3.5855    0.9438   17.8049 N   0  0  0  0  0  0  0  0  0  0  0  0
    4.6788   -2.3430   14.2453 O   0  0  0  0  0  0  0  0  0  0  0  0
    7.4760   -2.0160   14.8088 O   0  0  0  0  0  0  0  0  0  0  0  0
  1  2  1  0  0  0  0
  1 16  1  1  0  0  0
  2  3  1  0  0  0  0
  2 12  1  1  0  0  0
  4 11  1  1  0  0  0
  4  3  1  0  0  0  0
  5  4  1  0  0  0  0
  5 10  1  6  0  0  0
  6  7  1  0  0  0  0
  6  5  1  0  0  0  0
  6 14  1  6  0  0  0
  7  8  1  0  0  0  0
  7 13  1  6  0  0  0
  8 15  1  1  0  0  0
  8 11  1  0  0  0  0
  9 13  1  0  0  0  0
 10  1  1  0  0  0  0
 17 15  1  6  0  0  0
 17 18  1  0  0  0  0
 18 25  1  6  0  0  0
 19 18  1  0  0  0  0
 19 26  1  1  0  0  0
 20 19  1  0  0  0  0
 20 24  1  6  0  0  0
 21 23  1  0  0  0  0
 21 20  1  0  0  0  0
 21 22  1  1  0  0  0
 23 17  1  0  0  0  0
 27 22  1  0  0  0  0
 28 29  1  0  0  0  0
 28 16  1  6  0  0  0
 29 36  1  1  0  0  0
 30 37  1  6  0  0  0
 30 29  1  0  0  0  0
 31 30  1  0  0  0  0
 31 34  1  1  0  0  0
 32 31  1  0  0  0  0
 32 33  1  0  0  0  0
 33 28  1  0  0  0  0
 33 35  1  1  0  0  0
M  END
>  <CHROM.1>
159.05107698,53.02700080,82.63063163,-165.68535104,153.67311551,-133.50200472
-56.33563304,-61.39925047,176.55196772,-51.98300490,175.10825551,49.69898749
174.44046393,60.16816996,-57.32344993,71.64930549,0.15439150,-0.33329775
15.24628351,0.20139711,0.03618760,2.83562151

>  <Name>
lig.pdb

>  <RI>
0

>  <Rbt.Current_Directory>
/home/itssahil/PROJECTS/Mol_Feturizer/New_Systems/rnas/2m4q

>  <Rbt.Executable>
rbdock ($Id: //depot/dev/client3/rdock/2013.1/src/exe/rbdock.cxx#4 $)

>  <Rbt.Library>
libRbt.so (2013.1, Build901 2013/11/27)

>  <Rbt.Parameter_File>
/export/apps/rDock/src/rDock_2013.1_src/data/scripts/dock_solv.prm

>  <Rbt.Receptor>
prm/blind_docking_20.prm

>  <SCORE>
-6.83138

>  <SCORE.INTER>
-8.85385

>  <SCORE.INTER.CONST>
1

>  <SCORE.INTER.POLAR>
-2.82032

>  <SCORE.INTER.ROT>
10

>  <SCORE.INTER.SOLV>
22.4594

>  <SCORE.INTER.VDW>
-14.2547

>  <SCORE.INTER.norm>
-0.239293

>  <SCORE.INTRA>
-14.0374

>  <SCORE.INTRA.DIHEDRAL>
-31.2047

>  <SCORE.INTRA.DIHEDRAL.0>
44.8331

>  <SCORE.INTRA.POLAR>
-0.16994

>  <SCORE.INTRA.POLAR.0>
-0.108895

>  <SCORE.INTRA.REPUL>
0.0530325

>  <SCORE.INTRA.REPUL.0>
0.00912235

>  <SCORE.INTRA.SOLV>
1.2942

>  <SCORE.INTRA.SOLV.lig_0>
-53.9067

>  <SCORE.INTRA.VDW>
1.23049

>  <SCORE.INTRA.VDW.0>
-2.93492

>  <SCORE.INTRA.norm>
-0.379389

>  <SCORE.RESTR>
16.0599

>  <SCORE.RESTR.CAVITY>
16.0599

>  <SCORE.RESTR.norm>
0.43405

>  <SCORE.SYSTEM>
0

>  <SCORE.SYSTEM.CONST>
0

>  <SCORE.SYSTEM.DIHEDRAL>
0

>  <SCORE.SYSTEM.SOLV>
0

>  <SCORE.SYSTEM.norm>
0

>  <SCORE.heavy>
37

>  <SCORE.norm>
-0.184632

>  <RMSD>
12.970

$$$$
lig.pdb
 OpenBabel11021811453D
libRbt.so/2013.1/901 2013/11/27
 37 40  0  0  0  0  0  0  0  0999 V2000
    1.0408   -1.5192   16.7070 C   0  0  2  0  0  0  0  0  0  0  0  0
   -0.0826   -2.5192   17.1373 C   0  0  1  0  0  0  0  0  0  0  0  0
   -1.3762   -2.3978   16.2796 C   0  0  0  0  0  0  0  0  0  0  0  0
   -1.8278   -0.9212   16.1579 C   0  0  1  0  0  0  0  0  0  0  0  0
   -0.6748   -0.0633   15.5905 C   0  0  1  0  0  0  0  0  0  0  0  0
   -1.1152    1.4147   15.4137 C   0  0  1  0  0  0  0  0  0  0  0  0
   -2.4184    1.5082   14.5653 C   0  0  1  0  0  0  0  0  0  0  0  0
   -3.5375    0.5716   15.1100 C   0  0  2  0  0  0  0  0  0  0  0  0
   -2.8659    3.4383   13.1203 C   0  0  0  0  0  0  0  0  0  0  0  0
    0.5077   -0.1829   16.4328 O   0  0  0  0  0  0  0  0  0  0  0  0
   -3.0343   -0.7778   15.3544 O   0  0  0  0  0  0  0  0  0  0  0  0
    0.4297   -3.9050   17.0697 N   0  0  0  0  0  0  0  0  0  0  0  0
   -2.8572    2.9177   14.5045 N   0  0  0  0  0  0  0  0  0  0  0  0
   -1.2711    2.0610   16.6704 O   0  0  0  0  0  0  0  0  0  0  0  0
   -4.6755    0.5554   14.1993 O   0  0  0  0  0  0  0  0  0  0  0  0
    1.7797   -2.0207   15.5515 O   0  0  0  0  0  0  0  0  0  0  0  0
   -5.9292   -0.0351   14.6611 C   0  0  2  0  0  0  0  0  0  0  0  0
   -6.7437   -0.6157   13.4703 C   0  0  1  0  0  0  0  0  0  0  0  0
   -7.3269    0.5097   12.5684 C   0  0  2  0  0  0  0  0  0  0  0  0
   -8.1323    1.5424   13.4090 C   0  0  1  0  0  0  0  0  0  0  0  0
   -7.2946    2.0704   14.6069 C   0  0  1  0  0  0  0  0  0  0  0  0
   -8.1283    2.9958   15.5316 C   0  0  0  0  0  0  0  0  0  0  0  0
   -6.7342    0.9565   15.3662 O   0  0  0  0  0  0  0  0  0  0  0  0
   -8.6312    2.6525   12.5680 N   0  0  0  0  0  0  0  0  0  0  0  0
   -5.9506   -1.5351   12.7218 O   0  0  0  0  0  0  0  0  0  0  0  0
   -8.1250   -0.0332   11.5189 O   0  0  0  0  0  0  0  0  0  0  0  0
   -9.4491    3.1612   15.0261 O   0  0  0  0  0  0  0  0  0  0  0  0
    2.6700   -1.0949   14.8630 C   0  0  1  0  0  0  0  0  0  0  0  0
    4.1665   -1.4282   15.1187 C   0  0  1  0  0  0  0  0  0  0  0  0
    5.0967   -0.3734   14.4559 C   0  0  2  0  0  0  0  0  0  0  0  0
    4.7951   -0.1849   12.9336 C   0  0  1  0  0  0  0  0  0  0  0  0
    3.2792    0.0173   12.6358 C   0  0  0  0  0  0  0  0  0  0  0  0
    2.3819   -1.0476   13.3355 C   0  0  2  0  0  0  0  0  0  0  0  0
    5.5948    0.9253   12.3733 N   0  0  0  0  0  0  0  0  0  0  0  0
    0.9612   -0.7556   13.0463 N   0  0  0  0  0  0  0  0  0  0  0  0
    4.4316   -1.5308   16.5139 O   0  0  0  0  0  0  0  0  0  0  0  0
    6.4646   -0.7217   14.6536 O   0  0  0  0  0  0  0  0  0  0  0  0
  1  2  1  0  0  0  0
  1 16  1  6  0  0  0
  2  3  1  0  0  0  0
  2 12  1  6  0  0  0
  4 11  1  6  0  0  0
  4  3  1  0  0  0  0
  5  4  1  0  0  0  0
  5 10  1  1  0  0  0
  6  7  1  0  0  0  0
  6  5  1  0  0  0  0
  6 14  1  1  0  0  0
  7  8  1  0  0  0  0
  7 13  1  1  0  0  0
  8 15  1  6  0  0  0
  8 11  1  0  0  0  0
  9 13  1  0  0  0  0
 10  1  1  0  0  0  0
 17 15  1  6  0  0  0
 17 18  1  0  0  0  0
 18 25  1  6  0  0  0
 19 18  1  0  0  0  0
 19 26  1  6  0  0  0
 20 19  1  0  0  0  0
 20 24  1  6  0  0  0
 21 23  1  0  0  0  0
 21 20  1  0  0  0  0
 21 22  1  1  0  0  0
 23 17  1  0  0  0  0
 27 22  1  0  0  0  0
 28 29  1  0  0  0  0
 28 16  1  1  0  0  0
 29 36  1  1  0  0  0
 30 37  1  6  0  0  0
 30 29  1  0  0  0  0
 31 30  1  0  0  0  0
 31 34  1  1  0  0  0
 32 31  1  0  0  0  0
 32 33  1  0  0  0  0
 33 28  1  0  0  0  0
 33 35  1  1  0  0  0
M  END
>  <CHROM.1>
-88.16984276,-167.38377650,118.10554203,-172.60969088,-151.41185702,167.74786242
66.32132402,-59.14047771,-1.69681938,61.08063324,179.71902188,108.22166043
-55.42274118,-58.46859212,173.37853284,-178.59441268,-1.77501891,0.11075688
14.62021740,0.20506831,-0.08194535,2.40518644

>  <Name>
lig.pdb

>  <RI>
0

>  <Rbt.Current_Directory>
/home/itssahil/PROJECTS/Mol_Feturizer/New_Systems/rnas/2m4q

>  <Rbt.Executable>
rbdock ($Id: //depot/dev/client3/rdock/2013.1/src/exe/rbdock.cxx#4 $)

>  <Rbt.Library>
libRbt.so (2013.1, Build901 2013/11/27)

>  <Rbt.Parameter_File>
/export/apps/rDock/src/rDock_2013.1_src/data/scripts/dock_solv.prm

>  <Rbt.Receptor>
prm/blind_docking_20.prm

>  <SCORE>
-8.23911

>  <SCORE.INTER>
-13.195

>  <SCORE.INTER.CONST>
1

>  <SCORE.INTER.POLAR>
-2.37436

>  <SCORE.INTER.ROT>
10

>  <SCORE.INTER.SOLV>
26.4204

>  <SCORE.INTER.VDW>
-19.9556

>  <SCORE.INTER.norm>
-0.356621

>  <SCORE.INTRA>
-14.2279

>  <SCORE.INTRA.DIHEDRAL>
-23.7834

>  <SCORE.INTRA.DIHEDRAL.0>
44.8331

>  <SCORE.INTRA.POLAR>
-0.55602

>  <SCORE.INTRA.POLAR.0>
-0.108895

>  <SCORE.INTRA.REPUL>
-0.00912235

>  <SCORE.INTRA.REPUL.0>
0.00912235

>  <SCORE.INTRA.SOLV>
-0.961742

>  <SCORE.INTRA.SOLV.lig_0>
-53.9067

>  <SCORE.INTRA.VDW>
0.0807304

>  <SCORE.INTRA.VDW.0>
-2.93492

>  <SCORE.INTRA.norm>
-0.384538

>  <SCORE.RESTR>
19.1838

>  <SCORE.RESTR.CAVITY>
19.1838

>  <SCORE.RESTR.norm>
0.518481

>  <SCORE.SYSTEM>
0

>  <SCORE.SYSTEM.CONST>
0

>  <SCORE.SYSTEM.DIHEDRAL>
0

>  <SCORE.SYSTEM.SOLV>
0

>  <SCORE.SYSTEM.norm>
0

>  <SCORE.heavy>
37

>  <SCORE.norm>
-0.222679

>  <RMSD>
13.014

$$$$
lig.pdb
 OpenBabel11021811453D
libRbt.so/2013.1/901 2013/11/27
 37 40  0  0  0  0  0  0  0  0999 V2000
    2.1673   -1.4477   14.4183 C   0  0  2  0  0  0  0  0  0  0  0  0
    1.6374   -0.7322   13.1321 C   0  0  1  0  0  0  0  0  0  0  0  0
    0.2319   -0.0896   13.3202 C   0  0  0  0  0  0  0  0  0  0  0  0
   -0.7577   -1.0919   13.9645 C   0  0  1  0  0  0  0  0  0  0  0  0
   -0.1796   -1.6193   15.2968 C   0  0  1  0  0  0  0  0  0  0  0  0
   -1.1725   -2.5916   15.9885 C   0  0  1  0  0  0  0  0  0  0  0  0
   -2.5740   -1.9312   16.1516 C   0  0  1  0  0  0  0  0  0  0  0  0
   -3.0972   -1.3345   14.8113 C   0  0  2  0  0  0  0  0  0  0  0  0
   -3.5468   -2.8675   18.1988 C   0  0  0  0  0  0  0  0  0  0  0  0
    1.1220   -2.2350   15.0760 O   0  0  0  0  0  0  0  0  0  0  0  0
   -2.0808   -0.5140   14.1576 O   0  0  0  0  0  0  0  0  0  0  0  0
    2.6029    0.3026   12.7026 N   0  0  0  0  0  0  0  0  0  0  0  0
   -3.5126   -2.9200   16.7212 N   0  0  0  0  0  0  0  0  0  0  0  0
   -1.2625   -3.8243   15.2857 O   0  0  0  0  0  0  0  0  0  0  0  0
   -4.3238   -0.5794   15.0350 O   0  0  0  0  0  0  0  0  0  0  0  0
    2.7490   -0.4892   15.3539 O   0  0  0  0  0  0  0  0  0  0  0  0
   -4.2632    0.6160   15.8723 C   0  0  2  0  0  0  0  0  0  0  0  0
   -5.5953    1.4154   15.7997 C   0  0  1  0  0  0  0  0  0  0  0  0
   -5.7804    2.1013   14.4158 C   0  0  2  0  0  0  0  0  0  0  0  0
   -4.5364    2.9588   14.0430 C   0  0  1  0  0  0  0  0  0  0  0  0
   -3.2256    2.1323   14.1623 C   0  0  1  0  0  0  0  0  0  0  0  0
   -1.9670    3.0080   13.9267 C   0  0  0  0  0  0  0  0  0  0  0  0
   -3.1560    1.4734   15.4632 O   0  0  0  0  0  0  0  0  0  0  0  0
   -4.6763    3.5582   12.6977 N   0  0  0  0  0  0  0  0  0  0  0  0
   -6.7016    0.5762   16.1257 O   0  0  0  0  0  0  0  0  0  0  0  0
   -6.9722    2.8836   14.3841 O   0  0  0  0  0  0  0  0  0  0  0  0
   -2.0756    3.7344   12.7070 O   0  0  0  0  0  0  0  0  0  0  0  0
    3.9809   -0.8687   16.0339 C   0  0  1  0  0  0  0  0  0  0  0  0
    5.2371   -0.5830   15.1642 C   0  0  1  0  0  0  0  0  0  0  0  0
    6.5306   -1.0833   15.8669 C   0  0  2  0  0  0  0  0  0  0  0  0
    6.6829   -0.5108   17.3136 C   0  0  1  0  0  0  0  0  0  0  0  0
    5.3879   -0.6640   18.1663 C   0  0  0  0  0  0  0  0  0  0  0  0
    4.1133   -0.1707   17.4173 C   0  0  2  0  0  0  0  0  0  0  0  0
    7.8413   -1.1209   18.0006 N   0  0  0  0  0  0  0  0  0  0  0  0
    2.9267   -0.3976   18.2705 N   0  0  0  0  0  0  0  0  0  0  0  0
    5.1037   -1.1692   13.8734 O   0  0  0  0  0  0  0  0  0  0  0  0
    7.6777   -0.7666   15.0822 O   0  0  0  0  0  0  0  0  0  0  0  0
  1  2  1  0  0  0  0
  1 16  1  1  0  0  0
  2  3  1  0  0  0  0
  2 12  1  1  0  0  0
  4 11  1  1  0  0  0
  4  3  1  0  0  0  0
  5  4  1  0  0  0  0
  5 10  1  6  0  0  0
  6  7  1  0  0  0  0
  6  5  1  0  0  0  0
  6 14  1  6  0  0  0
  7  8  1  0  0  0  0
  7 13  1  6  0  0  0
  8 15  1  1  0  0  0
  8 11  1  0  0  0  0
  9 13  1  0  0  0  0
 10  1  1  0  0  0  0
 17 15  1  6  0  0  0
 17 18  1  0  0  0  0
 18 25  1  6  0  0  0
 19 18  1  0  0  0  0
 19 26  1  1  0  0  0
 20 19  1  0  0  0  0
 20 24  1  6  0  0  0
 21 23  1  0  0  0  0
 21 20  1  0  0  0  0
 21 22  1  1  0  0  0
 23 17  1  0  0  0  0
 27 22  1  0  0  0  0
 28 29  1  0  0  0  0
 28 16  1  6  0  0  0
 29 36  1  6  0  0  0
 30 37  1  6  0  0  0
 30 29  1  0  0  0  0
 31 30  1  0  0  0  0
 31 34  1  1  0  0  0
 32 31  1  0  0  0  0
 32 33  1  0  0  0  0
 33 28  1  0  0  0  0
 33 35  1  1  0  0  0
M  END
>  <CHROM.1>
146.73493688,64.06700044,91.11388458,-166.26084251,170.34647761,-138.79414473
176.55215422,-176.56438985,-51.98775844,159.31122924,-69.12114974,83.72095029
-62.65439263,-175.25861727,-177.82811388,-69.56596583,-0.16489312,-0.17153188
15.23396246,-0.23741831,0.01604310,-0.61690470

>  <Name>
lig.pdb

>  <RI>
0

>  <Rbt.Current_Directory>
/home/itssahil/PROJECTS/Mol_Feturizer/New_Systems/rnas/2m4q

>  <Rbt.Executable>
rbdock ($Id: //depot/dev/client3/rdock/2013.1/src/exe/rbdock.cxx#4 $)

>  <Rbt.Library>
libRbt.so (2013.1, Build901 2013/11/27)

>  <Rbt.Parameter_File>
/export/apps/rDock/src/rDock_2013.1_src/data/scripts/dock_solv.prm

>  <Rbt.Receptor>
prm/blind_docking_20.prm

>  <SCORE>
-0.853452

>  <SCORE.INTER>
1.37629

>  <SCORE.INTER.CONST>
1

>  <SCORE.INTER.POLAR>
-2.51972

>  <SCORE.INTER.ROT>
10

>  <SCORE.INTER.SOLV>
21.5733

>  <SCORE.INTER.VDW>
-8.14117

>  <SCORE.INTER.norm>
0.0371971

>  <SCORE.INTRA>
-20.3151

>  <SCORE.INTRA.DIHEDRAL>
-30.5011

>  <SCORE.INTRA.DIHEDRAL.0>
44.8331

>  <SCORE.INTRA.POLAR>
-1.27504

>  <SCORE.INTRA.POLAR.0>
-0.108895

>  <SCORE.INTRA.REPUL>
-0.00912235

>  <SCORE.INTRA.REPUL.0>
0.00912235

>  <SCORE.INTRA.SOLV>
-0.157183

>  <SCORE.INTRA.SOLV.lig_0>
-53.9067

>  <SCORE.INTRA.VDW>
-0.605213

>  <SCORE.INTRA.VDW.0>
-2.93492

>  <SCORE.INTRA.norm>
-0.549057

>  <SCORE.RESTR>
18.0854

>  <SCORE.RESTR.CAVITY>
18.0854

>  <SCORE.RESTR.norm>
0.488794

>  <SCORE.SYSTEM>
0

>  <SCORE.SYSTEM.CONST>
0

>  <SCORE.SYSTEM.DIHEDRAL>
0

>  <SCORE.SYSTEM.SOLV>
0

>  <SCORE.SYSTEM.norm>
0

>  <SCORE.heavy>
37

>  <SCORE.norm>
-0.0230663

>  <RMSD>
13.072

$$$$
lig.pdb
 OpenBabel11021811453D
libRbt.so/2013.1/901 2013/11/27
 37 40  0  0  0  0  0  0  0  0999 V2000
   -2.8895   11.8432    8.3822 C   0  0  2  0  0  0  0  0  0  0  0  0
   -4.1406   12.6595    8.8467 C   0  0  1  0  0  0  0  0  0  0  0  0
   -5.0668   13.0882    7.6711 C   0  0  0  0  0  0  0  0  0  0  0  0
   -4.2505   13.7389    6.5270 C   0  0  1  0  0  0  0  0  0  0  0  0
   -3.1348   12.7760    6.0629 C   0  0  1  0  0  0  0  0  0  0  0  0
   -2.3292   13.3842    4.8836 C   0  0  1  0  0  0  0  0  0  0  0  0
   -3.2788   13.8183    3.7276 C   0  0  1  0  0  0  0  0  0  0  0  0
   -4.4421   14.7208    4.2359 C   0  0  2  0  0  0  0  0  0  0  0  0
   -3.0305   14.2200    1.3212 C   0  0  0  0  0  0  0  0  0  0  0  0
   -2.2754   12.4187    7.1835 O   0  0  0  0  0  0  0  0  0  0  0  0
   -5.0929   14.1447    5.4100 O   0  0  0  0  0  0  0  0  0  0  0  0
   -4.9164   11.8694    9.8273 N   0  0  0  0  0  0  0  0  0  0  0  0
   -2.4857   14.4801    2.6712 N   0  0  0  0  0  0  0  0  0  0  0  0
   -1.5170   14.4676    5.3174 O   0  0  0  0  0  0  0  0  0  0  0  0
   -5.4010   14.9658    3.1659 O   0  0  0  0  0  0  0  0  0  0  0  0
   -3.2277   10.4403    8.1589 O   0  0  0  0  0  0  0  0  0  0  0  0
   -6.7493   15.3990    3.5241 C   0  0  2  0  0  0  0  0  0  0  0  0
   -7.3626   16.2921    2.4084 C   0  0  1  0  0  0  0  0  0  0  0  0
   -6.6733   17.6851    2.3420 C   0  0  2  0  0  0  0  0  0  0  0  0
   -6.6656   18.3752    3.7368 C   0  0  1  0  0  0  0  0  0  0  0  0
   -6.0776   17.4365    4.8271 C   0  0  1  0  0  0  0  0  0  0  0  0
   -6.1883   18.0569    6.2445 C   0  0  0  0  0  0  0  0  0  0  0  0
   -6.7343   16.1332    4.7847 O   0  0  0  0  0  0  0  0  0  0  0  0
   -5.9504   19.6695    3.6957 N   0  0  0  0  0  0  0  0  0  0  0  0
   -7.3212   15.6214    1.1503 O   0  0  0  0  0  0  0  0  0  0  0  0
   -7.2873   18.5172    1.3602 O   0  0  0  0  0  0  0  0  0  0  0  0
   -5.4475   17.2939    7.1913 O   0  0  0  0  0  0  0  0  0  0  0  0
   -2.1610    9.5474    7.7244 C   0  0  1  0  0  0  0  0  0  0  0  0
   -2.0774    8.2693    8.6052 C   0  0  1  0  0  0  0  0  0  0  0  0
   -0.8742    7.3781    8.1867 C   0  0  2  0  0  0  0  0  0  0  0  0
   -0.8895    7.0331    6.6620 C   0  0  1  0  0  0  0  0  0  0  0  0
   -1.1077    8.2840    5.7590 C   0  0  0  0  0  0  0  0  0  0  0  0
   -2.3093    9.1599    6.2256 C   0  0  2  0  0  0  0  0  0  0  0  0
    0.3416    6.3118    6.2744 N   0  0  0  0  0  0  0  0  0  0  0  0
   -2.4158   10.3485    5.3519 N   0  0  0  0  0  0  0  0  0  0  0  0
   -1.9987    8.6096    9.9857 O   0  0  0  0  0  0  0  0  0  0  0  0
   -0.8425    6.1858    8.9672 O   0  0  0  0  0  0  0  0  0  0  0  0
  1  2  1  0  0  0  0
  1 16  1  6  0  0  0
  2  3  1  0  0  0  0
  2 12  1  1  0  0  0
  4 11  1  6  0  0  0
  4  3  1  0  0  0  0
  5  4  1  0  0  0  0
  5 10  1  1  0  0  0
  6  7  1  0  0  0  0
  6  5  1  0  0  0  0
  6 14  1  1  0  0  0
  7  8  1  0  0  0  0
  7 13  1  6  0  0  0
  8 15  1  6  0  0  0
  8 11  1  0  0  0  0
  9 13  1  0  0  0  0
 10  1  1  0  0  0  0
 17 15  1  6  0  0  0
 17 18  1  0  0  0  0
 18 25  1  6  0  0  0
 19 18  1  0  0  0  0
 19 26  1  6  0  0  0
 20 19  1  0  0  0  0
 20 24  1  6  0  0  0
 21 23  1  0  0  0  0
 21 20  1  0  0  0  0
 21 22  1  1  0  0  0
 23 17  1  0  0  0  0
 27 22  1  0  0  0  0
 28 29  1  0  0  0  0
 28 16  1  1  0  0  0
 29 36  1  1  0  0  0
 30 37  1  1  0  0  0
 30 29  1  0  0  0  0
 31 30  1  0  0  0  0
 31 34  1  6  0  0  0
 32 31  1  0  0  0  0
 32 33  1  0  0  0  0
 33 28  1  0  0  0  0
 33 35  1  6  0  0  0
M  END
>  <CHROM.1>
-65.12658845,160.14352092,146.46921021,58.89062450,150.15419875,-179.83572790
60.87314669,-58.73532242,-170.10105387,68.90426535,-52.21165842,129.01163251
67.47400336,81.29877409,-68.79114024,-97.64701383,-3.90829277,13.11349612
5.62581627,0.63365998,-1.00860489,1.81656180

>  <Name>
lig.pdb

>  <RI>
3.60165e+07

>  <Rbt.Current_Directory>
/home/itssahil/PROJECTS/Mol_Feturizer/New_Systems/rnas/2m4q

>  <Rbt.Executable>
rbdock ($Id: //depot/dev/client3/rdock/2013.1/src/exe/rbdock.cxx#4 $)

>  <Rbt.Library>
libRbt.so (2013.1, Build901 2013/11/27)

>  <Rbt.Parameter_File>
/export/apps/rDock/src/rDock_2013.1_src/data/scripts/dock_solv.prm

>  <Rbt.Receptor>
prm/pocket_docking_8.prm

>  <SCORE>
-43.3142

>  <SCORE.INTER>
-30.9232

>  <SCORE.INTER.CONST>
1

>  <SCORE.INTER.POLAR>
-5.90061

>  <SCORE.INTER.ROT>
10

>  <SCORE.INTER.SOLV>
16.9851

>  <SCORE.INTER.VDW>
-16.8751

>  <SCORE.INTER.norm>
-0.835761

>  <SCORE.INTRA>
-12.4452

>  <SCORE.INTRA.DIHEDRAL>
-26.1995

>  <SCORE.INTRA.DIHEDRAL.0>
44.8331

>  <SCORE.INTRA.POLAR>
0.0983901

>  <SCORE.INTRA.POLAR.0>
-0.108895

>  <SCORE.INTRA.REPUL>
-0.00912235

>  <SCORE.INTRA.REPUL.0>
0.00912235

>  <SCORE.INTRA.SOLV>
-1.1861

>  <SCORE.INTRA.SOLV.lig_0>
-53.9067

>  <SCORE.INTRA.VDW>
0.958691

>  <SCORE.INTRA.VDW.0>
-2.93492

>  <SCORE.INTRA.norm>
-0.336357

>  <SCORE.RESTR>
0.0541872

>  <SCORE.RESTR.CAVITY>
0.0541872

>  <SCORE.RESTR.norm>
0.00146452

>  <SCORE.SYSTEM>
0

>  <SCORE.SYSTEM.CONST>
0

>  <SCORE.SYSTEM.DIHEDRAL>
0

>  <SCORE.SYSTEM.SOLV>
0

>  <SCORE.SYSTEM.norm>
0

>  <SCORE.heavy>
37

>  <SCORE.norm>
-1.17065

>  <RMSD>
13.098

$$$$
lig.pdb
 OpenBabel11021811453D
libRbt.so/2013.1/901 2013/11/27
 37 40  0  0  0  0  0  0  0  0999 V2000
    4.1118   -1.3738   14.0617 C   0  0  2  0  0  0  0  0  0  0  0  0
    3.5598   -1.0340   12.6380 C   0  0  1  0  0  0  0  0  0  0  0  0
    2.2026   -0.2718   12.6700 C   0  0  0  0  0  0  0  0  0  0  0  0
    1.1921   -0.9719   13.6122 C   0  0  1  0  0  0  0  0  0  0  0  0
    1.8047   -1.1220   15.0227 C   0  0  1  0  0  0  0  0  0  0  0  0
    0.7949   -1.7793   16.0014 C   0  0  1  0  0  0  0  0  0  0  0  0
   -0.5585   -1.0078   16.0041 C   0  0  1  0  0  0  0  0  0  0  0  0
   -1.1130   -0.7976   14.5637 C   0  0  2  0  0  0  0  0  0  0  0  0
   -1.0550   -1.8017   18.2706 C   0  0  0  0  0  0  0  0  0  0  0  0
    3.0582   -1.8612   14.9547 O   0  0  0  0  0  0  0  0  0  0  0  0
   -0.0862   -0.2755   13.6656 O   0  0  0  0  0  0  0  0  0  0  0  0
    4.5586   -0.2382   11.8919 N   0  0  0  0  0  0  0  0  0  0  0  0
   -1.5211   -1.7203   16.8694 N   0  0  0  0  0  0  0  0  0  0  0  0
    0.6029   -3.1551   15.6985 O   0  0  0  0  0  0  0  0  0  0  0  0
   -2.2838    0.0703   14.5909 O   0  0  0  0  0  0  0  0  0  0  0  0
    4.7904   -0.2239   14.6531 O   0  0  0  0  0  0  0  0  0  0  0  0
   -2.1604    1.3876   15.2100 C   0  0  2  0  0  0  0  0  0  0  0  0
   -3.4568    1.7640   15.9823 C   0  0  1  0  0  0  0  0  0  0  0  0
   -4.6371    2.0637   15.0144 C   0  0  2  0  0  0  0  0  0  0  0  0
   -4.2347    3.1250   13.9496 C   0  0  1  0  0  0  0  0  0  0  0  0
   -2.9174    2.7273   13.2270 C   0  0  1  0  0  0  0  0  0  0  0  0
   -2.4304    3.8387   12.2606 C   0  0  0  0  0  0  0  0  0  0  0  0
   -1.8798    2.4041   14.2018 O   0  0  0  0  0  0  0  0  0  0  0  0
   -5.3296    3.3638   12.9837 N   0  0  0  0  0  0  0  0  0  0  0  0
   -3.7916    0.7471   16.9249 O   0  0  0  0  0  0  0  0  0  0  0  0
   -5.8005    2.4706   15.7315 O   0  0  0  0  0  0  0  0  0  0  0  0
   -2.2281    5.0638   12.9575 O   0  0  0  0  0  0  0  0  0  0  0  0
    5.8535   -0.4858   15.6149 C   0  0  1  0  0  0  0  0  0  0  0  0
    5.3865   -1.4348   16.7540 C   0  0  1  0  0  0  0  0  0  0  0  0
    6.5033   -1.6236   17.8191 C   0  0  2  0  0  0  0  0  0  0  0  0
    7.8549   -2.0929   17.1893 C   0  0  1  0  0  0  0  0  0  0  0  0
    8.2794   -1.2385   15.9574 C   0  0  0  0  0  0  0  0  0  0  0  0
    7.1255   -1.0566   14.9258 C   0  0  2  0  0  0  0  0  0  0  0  0
    8.9273   -2.1194   18.2068 N   0  0  0  0  0  0  0  0  0  0  0  0
    7.5919   -0.1948   13.8179 N   0  0  0  0  0  0  0  0  0  0  0  0
    4.1896   -0.9529   17.3561 O   0  0  0  0  0  0  0  0  0  0  0  0
    6.0797   -2.5372   18.8279 O   0  0  0  0  0  0  0  0  0  0  0  0
  1  2  1  0  0  0  0
  1 16  1  1  0  0  0
  2  3  1  0  0  0  0
  2 12  1  1  0  0  0
  4 11  1  1  0  0  0
  4  3  1  0  0  0  0
  5  4  1  0  0  0  0
  5 10  1  6  0  0  0
  6  7  1  0  0  0  0
  6  5  1  0  0  0  0
  6 14  1  6  0  0  0
  7  8  1  0  0  0  0
  7 13  1  1  0  0  0
  8 15  1  1  0  0  0
  8 11  1  0  0  0  0
  9 13  1  0  0  0  0
 10  1  1  0  0  0  0
 17 15  1  6  0  0  0
 17 18  1  0  0  0  0
 18 25  1  1  0  0  0
 19 18  1  0  0  0  0
 19 26  1  1  0  0  0
 20 19  1  0  0  0  0
 20 24  1  6  0  0  0
 21 23  1  0  0  0  0
 21 20  1  0  0  0  0
 21 22  1  1  0  0  0
 23 17  1  0  0  0  0
 27 22  1  0  0  0  0
 28 29  1  0  0  0  0
 28 16  1  6  0  0  0
 29 36  1  1  0  0  0
 30 37  1  1  0  0  0
 30 29  1  0  0  0  0
 31 30  1  0  0  0  0
 31 34  1  1  0  0  0
 32 31  1  0  0  0  0
 32 33  1  0  0  0  0
 33 28  1  0  0  0  0
 33 35  1  6  0  0  0
M  END
>  <CHROM.1>
67.18158787,55.47067942,61.11489682,67.20332470,-142.60988435,-152.02330797
-178.24122375,64.54131296,57.97193839,-140.89247833,-86.05389967,-52.71186870
96.00007062,-57.56489996,-60.40630131,16.76564316,1.28445500,-0.04394410
15.15498174,-0.32552076,0.19824212,-0.95461191

>  <Name>
lig.pdb

>  <RI>
0

>  <Rbt.Current_Directory>
/home/itssahil/PROJECTS/Mol_Feturizer/New_Systems/rnas/2m4q

>  <Rbt.Executable>
rbdock ($Id: //depot/dev/client3/rdock/2013.1/src/exe/rbdock.cxx#4 $)

>  <Rbt.Library>
libRbt.so (2013.1, Build901 2013/11/27)

>  <Rbt.Parameter_File>
/export/apps/rDock/src/rDock_2013.1_src/data/scripts/dock_solv.prm

>  <Rbt.Receptor>
prm/blind_docking_20.prm

>  <SCORE>
-3.50702

>  <SCORE.INTER>
-9.87452

>  <SCORE.INTER.CONST>
1

>  <SCORE.INTER.POLAR>
-3.62861

>  <SCORE.INTER.ROT>
10

>  <SCORE.INTER.SOLV>
23.8106

>  <SCORE.INTER.VDW>
-12.6912

>  <SCORE.INTER.norm>
-0.266879

>  <SCORE.INTRA>
-13.6337

>  <SCORE.INTRA.DIHEDRAL>
-24.1589

>  <SCORE.INTRA.DIHEDRAL.0>
44.8331

>  <SCORE.INTRA.POLAR>
-0.70046

>  <SCORE.INTRA.POLAR.0>
-0.108895

>  <SCORE.INTRA.REPUL>
-0.00416531

>  <SCORE.INTRA.REPUL.0>
0.00912235

>  <SCORE.INTRA.SOLV>
0.657004

>  <SCORE.INTRA.SOLV.lig_0>
-53.9067

>  <SCORE.INTRA.VDW>
0.519643

>  <SCORE.INTRA.VDW.0>
-2.93492

>  <SCORE.INTRA.norm>
-0.368479

>  <SCORE.RESTR>
20.0012

>  <SCORE.RESTR.CAVITY>
20.0012

>  <SCORE.RESTR.norm>
0.540573

>  <SCORE.SYSTEM>
0

>  <SCORE.SYSTEM.CONST>
0

>  <SCORE.SYSTEM.DIHEDRAL>
0

>  <SCORE.SYSTEM.SOLV>
0

>  <SCORE.SYSTEM.norm>
0

>  <SCORE.heavy>
37

>  <SCORE.norm>
-0.0947843

>  <RMSD>
13.104

$$$$
lig.pdb
 OpenBabel11021811453D
libRbt.so/2013.1/901 2013/11/27
 37 40  0  0  0  0  0  0  0  0999 V2000
    3.5566   -1.4609   14.1323 C   0  0  2  0  0  0  0  0  0  0  0  0
    2.9087   -1.0660   12.7643 C   0  0  1  0  0  0  0  0  0  0  0  0
    1.5359   -0.3480   12.9180 C   0  0  0  0  0  0  0  0  0  0  0  0
    0.6049   -1.1255   13.8812 C   0  0  1  0  0  0  0  0  0  0  0  0
    1.3072   -1.3284   15.2425 C   0  0  1  0  0  0  0  0  0  0  0  0
    0.3779   -2.0650   16.2442 C   0  0  1  0  0  0  0  0  0  0  0  0
   -0.9931   -1.3361   16.3690 C   0  0  1  0  0  0  0  0  0  0  0  0
   -1.6410   -1.0698   14.9778 C   0  0  2  0  0  0  0  0  0  0  0  0
   -1.4388   -2.0802   18.6628 C   0  0  0  0  0  0  0  0  0  0  0  0
    2.5737   -2.0248   15.0603 O   0  0  0  0  0  0  0  0  0  0  0  0
   -0.6861   -0.4717   14.0481 O   0  0  0  0  0  0  0  0  0  0  0  0
    3.8376   -0.2033   12.0024 N   0  0  0  0  0  0  0  0  0  0  0  0
   -1.8807   -2.1206   17.2521 N   0  0  0  0  0  0  0  0  0  0  0  0
    0.2052   -3.4289   15.8814 O   0  0  0  0  0  0  0  0  0  0  0  0
   -2.8310   -0.2404   15.1210 O   0  0  0  0  0  0  0  0  0  0  0  0
    4.2389   -0.3225   14.7415 O   0  0  0  0  0  0  0  0  0  0  0  0
   -2.6853    1.0934   15.6986 C   0  0  2  0  0  0  0  0  0  0  0  0
   -4.0501    1.6275   16.2189 C   0  0  1  0  0  0  0  0  0  0  0  0
   -5.0152    1.9768   15.0500 C   0  0  2  0  0  0  0  0  0  0  0  0
   -4.3371    2.9358   14.0290 C   0  0  1  0  0  0  0  0  0  0  0  0
   -2.9622    2.3814   13.5621 C   0  0  1  0  0  0  0  0  0  0  0  0
   -2.2127    3.3883   12.6507 C   0  0  0  0  0  0  0  0  0  0  0  0
   -2.1405    2.0221   14.7141 O   0  0  0  0  0  0  0  0  0  0  0  0
   -5.2247    3.2169   12.8794 N   0  0  0  0  0  0  0  0  0  0  0  0
   -4.6370    0.6996   17.1295 O   0  0  0  0  0  0  0  0  0  0  0  0
   -6.2373    2.5262   15.5378 O   0  0  0  0  0  0  0  0  0  0  0  0
   -2.2844    4.7063   13.1846 O   0  0  0  0  0  0  0  0  0  0  0  0
    5.2909   -0.6026   15.7104 C   0  0  1  0  0  0  0  0  0  0  0  0
    6.4048   -1.5080   15.1140 C   0  0  1  0  0  0  0  0  0  0  0  0
    7.4656   -1.8737   16.1902 C   0  0  2  0  0  0  0  0  0  0  0  0
    8.0587   -0.6112   16.8961 C   0  0  1  0  0  0  0  0  0  0  0  0
    6.9621    0.3816   17.3857 C   0  0  0  0  0  0  0  0  0  0  0  0
    5.9084    0.7044   16.2837 C   0  0  2  0  0  0  0  0  0  0  0  0
    8.9503   -1.0019   18.0089 N   0  0  0  0  0  0  0  0  0  0  0  0
    4.8788    1.6076   16.8418 N   0  0  0  0  0  0  0  0  0  0  0  0
    5.8467   -2.6827   14.5343 O   0  0  0  0  0  0  0  0  0  0  0  0
    8.5073   -2.6590   15.6158 O   0  0  0  0  0  0  0  0  0  0  0  0
  1  2  1  0  0  0  0
  1 16  1  1  0  0  0
  2  3  1  0  0  0  0
  2 12  1  1  0  0  0
  4 11  1  1  0  0  0
  4  3  1  0  0  0  0
  5  4  1  0  0  0  0
  5 10  1  6  0  0  0
  6  7  1  0  0  0  0
  6  5  1  0  0  0  0
  6 14  1  6  0  0  0
  7  8  1  0  0  0  0
  7 13  1  1  0  0  0
  8 15  1  1  0  0  0
  8 11  1  0  0  0  0
  9 13  1  0  0  0  0
 10  1  1  0  0  0  0
 17 15  1  6  0  0  0
 17 18  1  0  0  0  0
 18 25  1  1  0  0  0
 19 18  1  0  0  0  0
 19 26  1  1  0  0  0
 20 19  1  0  0  0  0
 20 24  1  6  0  0  0
 21 23  1  0  0  0  0
 21 20  1  0  0  0  0
 21 22  1  1  0  0  0
 23 17  1  0  0  0  0
 27 22  1  0  0  0  0
 28 29  1  0  0  0  0
 28 16  1  6  0  0  0
 29 36  1  1  0  0  0
 30 37  1  6  0  0  0
 30 29  1  0  0  0  0
 31 30  1  0  0  0  0
 31 34  1  1  0  0  0
 32 31  1  0  0  0  0
 32 33  1  0  0  0  0
 33 28  1  0  0  0  0
 33 35  1  1  0  0  0
M  END
>  <CHROM.1>
59.95863081,60.53802657,70.15077300,69.69196627,-160.57473633,-157.16701488
-55.62543808,69.64581712,44.35649345,53.62844701,-73.23581548,56.50528148
97.86326404,-168.55804432,84.34079412,-152.19126469,1.00808048,-0.05575800
15.20656744,-0.27879490,0.10018245,-0.67251200

>  <Name>
lig.pdb

>  <RI>
0

>  <Rbt.Current_Directory>
/home/itssahil/PROJECTS/Mol_Feturizer/New_Systems/rnas/2m4q

>  <Rbt.Executable>
rbdock ($Id: //depot/dev/client3/rdock/2013.1/src/exe/rbdock.cxx#4 $)

>  <Rbt.Library>
libRbt.so (2013.1, Build901 2013/11/27)

>  <Rbt.Parameter_File>
/export/apps/rDock/src/rDock_2013.1_src/data/scripts/dock_solv.prm

>  <Rbt.Receptor>
prm/blind_docking_20.prm

>  <SCORE>
10.1708

>  <SCORE.INTER>
3.57549

>  <SCORE.INTER.CONST>
1

>  <SCORE.INTER.POLAR>
-2.88212

>  <SCORE.INTER.ROT>
10

>  <SCORE.INTER.SOLV>
23.2491

>  <SCORE.INTER.VDW>
-6.02565

>  <SCORE.INTER.norm>
0.096635

>  <SCORE.INTRA>
-13.7255

>  <SCORE.INTRA.DIHEDRAL>
-29.4657

>  <SCORE.INTRA.DIHEDRAL.0>
44.8331

>  <SCORE.INTRA.POLAR>
0.0619183

>  <SCORE.INTRA.POLAR.0>
-0.108895

>  <SCORE.INTRA.REPUL>
-0.00912235

>  <SCORE.INTRA.REPUL.0>
0.00912235

>  <SCORE.INTRA.SOLV>
-0.725242

>  <SCORE.INTRA.SOLV.lig_0>
-53.9067

>  <SCORE.INTRA.VDW>
1.20507

>  <SCORE.INTRA.VDW.0>
-2.93492

>  <SCORE.INTRA.norm>
-0.370959

>  <SCORE.RESTR>
20.3208

>  <SCORE.RESTR.CAVITY>
20.3208

>  <SCORE.RESTR.norm>
0.549212

>  <SCORE.SYSTEM>
0

>  <SCORE.SYSTEM.CONST>
0

>  <SCORE.SYSTEM.DIHEDRAL>
0

>  <SCORE.SYSTEM.SOLV>
0

>  <SCORE.SYSTEM.norm>
0

>  <SCORE.heavy>
37

>  <SCORE.norm>
0.274887

>  <RMSD>
13.116

$$$$
lig.pdb
 OpenBabel11021811453D
libRbt.so/2013.1/901 2013/11/27
 37 40  0  0  0  0  0  0  0  0999 V2000
    2.3956   -1.3305   14.7287 C   0  0  2  0  0  0  0  0  0  0  0  0
    1.8177   -1.1542   13.2858 C   0  0  1  0  0  0  0  0  0  0  0  0
    0.4511   -0.4088   13.2570 C   0  0  0  0  0  0  0  0  0  0  0  0
   -0.5356   -1.0137   14.2863 C   0  0  1  0  0  0  0  0  0  0  0  0
    0.1002   -1.0021   15.6945 C   0  0  1  0  0  0  0  0  0  0  0  0
   -0.8860   -1.5605   16.7553 C   0  0  1  0  0  0  0  0  0  0  0  0
   -2.2493   -0.8090   16.6963 C   0  0  1  0  0  0  0  0  0  0  0  0
   -2.8282   -0.7634   15.2510 C   0  0  2  0  0  0  0  0  0  0  0  0
   -4.2921   -0.5221   18.0223 C   0  0  0  0  0  0  0  0  0  0  0  0
    1.3621   -1.7297   15.6866 O   0  0  0  0  0  0  0  0  0  0  0  0
   -1.8221   -0.3304   14.2846 O   0  0  0  0  0  0  0  0  0  0  0  0
    2.7945   -0.4330   12.4412 N   0  0  0  0  0  0  0  0  0  0  0  0
   -3.1891   -1.4340   17.6498 N   0  0  0  0  0  0  0  0  0  0  0  0
   -1.0642   -2.9633   16.6071 O   0  0  0  0  0  0  0  0  0  0  0  0
   -4.0099    0.0887   15.2028 O   0  0  0  0  0  0  0  0  0  0  0  0
    3.0677   -0.1152   15.1803 O   0  0  0  0  0  0  0  0  0  0  0  0
   -3.9384    1.3370   14.4476 C   0  0  2  0  0  0  0  0  0  0  0  0
   -3.8469    2.5614   15.4022 C   0  0  1  0  0  0  0  0  0  0  0  0
   -5.1882    2.8101   16.1498 C   0  0  2  0  0  0  0  0  0  0  0  0
   -6.3783    2.9058   15.1517 C   0  0  1  0  0  0  0  0  0  0  0  0
   -6.4119    1.6812   14.1952 C   0  0  1  0  0  0  0  0  0  0  0  0
   -7.5082    1.8276   13.1075 C   0  0  0  0  0  0  0  0  0  0  0  0
   -5.1031    1.4795   13.5806 O   0  0  0  0  0  0  0  0  0  0  0  0
   -7.6661    3.0730   15.8603 N   0  0  0  0  0  0  0  0  0  0  0  0
   -2.7566    2.4091   16.3092 O   0  0  0  0  0  0  0  0  0  0  0  0
   -5.1118    3.9730   16.9716 O   0  0  0  0  0  0  0  0  0  0  0  0
   -7.3925    3.0776   12.4358 O   0  0  0  0  0  0  0  0  0  0  0  0
    4.5208   -0.1450   15.2880 C   0  0  1  0  0  0  0  0  0  0  0  0
    5.0202   -1.3882   16.0762 C   0  0  1  0  0  0  0  0  0  0  0  0
    6.5632   -1.3505   16.2630 C   0  0  2  0  0  0  0  0  0  0  0  0
    7.3238   -1.1773   14.9082 C   0  0  1  0  0  0  0  0  0  0  0  0
    6.7534   -0.0191   14.0358 C   0  0  0  0  0  0  0  0  0  0  0  0
    5.2029   -0.0826   13.8918 C   0  0  2  0  0  0  0  0  0  0  0  0
    8.7733   -0.9985   15.1388 N   0  0  0  0  0  0  0  0  0  0  0  0
    4.7382    1.0749   13.0971 N   0  0  0  0  0  0  0  0  0  0  0  0
    4.3608   -1.4890   17.3342 O   0  0  0  0  0  0  0  0  0  0  0  0
    7.0115   -2.5220   16.9400 O   0  0  0  0  0  0  0  0  0  0  0  0
  1  2  1  0  0  0  0
  1 16  1  1  0  0  0
  2  3  1  0  0  0  0
  2 12  1  6  0  0  0
  4 11  1  1  0  0  0
  4  3  1  0  0  0  0
  5  4  1  0  0  0  0
  5 10  1  6  0  0  0
  6  7  1  0  0  0  0
  6  5  1  0  0  0  0
  6 14  1  6  0  0  0
  7  8  1  0  0  0  0
  7 13  1  1  0  0  0
  8 15  1  1  0  0  0
  8 11  1  0  0  0  0
  9 13  1  0  0  0  0
 10  1  1  0  0  0  0
 17 15  1  1  0  0  0
 17 18  1  0  0  0  0
 18 25  1  1  0  0  0
 19 18  1  0  0  0  0
 19 26  1  6  0  0  0
 20 19  1  0  0  0  0
 20 24  1  1  0  0  0
 21 23  1  0  0  0  0
 21 20  1  0  0  0  0
 21 22  1  6  0  0  0
 23 17  1  0  0  0  0
 27 22  1  0  0  0  0
 28 29  1  0  0  0  0
 28 16  1  6  0  0  0
 29 36  1  1  0  0  0
 30 37  1  6  0  0  0
 30 29  1  0  0  0  0
 31 30  1  0  0  0  0
 31 34  1  1  0  0  0
 32 31  1  0  0  0  0
 32 33  1  0  0  0  0
 33 28  1  0  0  0  0
 33 35  1  1  0  0  0
M  END
>  <CHROM.1>
67.50432920,112.86458645,159.01846377,144.20053309,-105.64640501,-109.15199025
173.63865647,-78.09919684,51.83440810,172.12972072,176.66045129,-49.36145038
-58.10009877,48.69639868,56.85725645,-99.81700887,-0.29236191,0.10961837
15.19773452,-0.15809294,0.20097132,-0.94368019

>  <Name>
lig.pdb

>  <RI>
0

>  <Rbt.Current_Directory>
/home/itssahil/PROJECTS/Mol_Feturizer/New_Systems/rnas/2m4q

>  <Rbt.Executable>
rbdock ($Id: //depot/dev/client3/rdock/2013.1/src/exe/rbdock.cxx#4 $)

>  <Rbt.Library>
libRbt.so (2013.1, Build901 2013/11/27)

>  <Rbt.Parameter_File>
/export/apps/rDock/src/rDock_2013.1_src/data/scripts/dock_solv.prm

>  <Rbt.Receptor>
prm/blind_docking_20.prm

>  <SCORE>
17.1219

>  <SCORE.INTER>
-2.08281

>  <SCORE.INTER.CONST>
1

>  <SCORE.INTER.POLAR>
-1.42062

>  <SCORE.INTER.ROT>
10

>  <SCORE.INTER.SOLV>
19.3139

>  <SCORE.INTER.VDW>
-13.3578

>  <SCORE.INTER.norm>
-0.0562923

>  <SCORE.INTRA>
0.500039

>  <SCORE.INTRA.DIHEDRAL>
-14.3516

>  <SCORE.INTRA.DIHEDRAL.0>
44.8331

>  <SCORE.INTRA.POLAR>
-0.404268

>  <SCORE.INTRA.POLAR.0>
-0.108895

>  <SCORE.INTRA.REPUL>
-0.00912235

>  <SCORE.INTRA.REPUL.0>
0.00912235

>  <SCORE.INTRA.SOLV>
1.15446

>  <SCORE.INTRA.SOLV.lig_0>
-53.9067

>  <SCORE.INTRA.VDW>
8.51872

>  <SCORE.INTRA.VDW.0>
-2.93492

>  <SCORE.INTRA.norm>
0.0135146

>  <SCORE.RESTR>
18.7047

>  <SCORE.RESTR.CAVITY>
18.7047

>  <SCORE.RESTR.norm>
0.505532

>  <SCORE.SYSTEM>
0

>  <SCORE.SYSTEM.CONST>
0

>  <SCORE.SYSTEM.DIHEDRAL>
0

>  <SCORE.SYSTEM.SOLV>
0

>  <SCORE.SYSTEM.norm>
0

>  <SCORE.heavy>
37

>  <SCORE.norm>
0.462754

>  <RMSD>
13.160

$$$$
lig.pdb
 OpenBabel11021811453D
libRbt.so/2013.1/901 2013/11/27
 37 40  0  0  0  0  0  0  0  0999 V2000
    2.6180   -1.3463   14.4550 C   0  0  2  0  0  0  0  0  0  0  0  0
    1.9671   -0.9455   13.0902 C   0  0  1  0  0  0  0  0  0  0  0  0
    0.5317   -0.3618   13.2407 C   0  0  0  0  0  0  0  0  0  0  0  0
   -0.3458   -1.2653   14.1423 C   0  0  1  0  0  0  0  0  0  0  0  0
    0.3420   -1.4700   15.5106 C   0  0  1  0  0  0  0  0  0  0  0  0
   -0.5383   -2.3346   16.4526 C   0  0  1  0  0  0  0  0  0  0  0  0
   -1.9723   -1.7385   16.5749 C   0  0  1  0  0  0  0  0  0  0  0  0
   -2.6110   -1.4645   15.1809 C   0  0  2  0  0  0  0  0  0  0  0  0
   -2.3454   -2.6947   18.8020 C   0  0  0  0  0  0  0  0  0  0  0  0
    1.6703   -2.0403   15.3298 O   0  0  0  0  0  0  0  0  0  0  0  0
   -1.6942   -0.7389   14.3052 O   0  0  0  0  0  0  0  0  0  0  0  0
    2.8303    0.0329   12.3935 N   0  0  0  0  0  0  0  0  0  0  0  0
   -2.8042   -2.6412   17.3971 N   0  0  0  0  0  0  0  0  0  0  0  0
   -0.5784   -3.6893   16.0228 O   0  0  0  0  0  0  0  0  0  0  0  0
   -3.8743   -0.7531   15.3309 O   0  0  0  0  0  0  0  0  0  0  0  0
    3.1804   -0.1820   15.1337 O   0  0  0  0  0  0  0  0  0  0  0  0
   -3.8929    0.4747   16.1221 C   0  0  2  0  0  0  0  0  0  0  0  0
   -5.3515    0.9423   16.3913 C   0  0  1  0  0  0  0  0  0  0  0  0
   -6.0316    1.4794   15.0994 C   0  0  2  0  0  0  0  0  0  0  0  0
   -5.1591    2.5734   14.4184 C   0  0  1  0  0  0  0  0  0  0  0  0
   -3.7024    2.0775   14.1998 C   0  0  1  0  0  0  0  0  0  0  0  0
   -2.7864    3.2011   13.6478 C   0  0  0  0  0  0  0  0  0  0  0  0
   -3.1578    1.5350   15.4410 O   0  0  0  0  0  0  0  0  0  0  0  0
   -5.7667    3.0391   13.1526 N   0  0  0  0  0  0  0  0  0  0  0  0
   -6.1107   -0.1054   16.9917 O   0  0  0  0  0  0  0  0  0  0  0  0
   -7.3443    1.9650   15.3723 O   0  0  0  0  0  0  0  0  0  0  0  0
   -1.6787    2.6515   12.9420 O   0  0  0  0  0  0  0  0  0  0  0  0
    4.5466   -0.2825   15.6311 C   0  0  1  0  0  0  0  0  0  0  0  0
    4.6945   -1.3973   16.7042 C   0  0  1  0  0  0  0  0  0  0  0  0
    6.1341   -1.4231   17.2906 C   0  0  2  0  0  0  0  0  0  0  0  0
    7.2285   -1.5368   16.1800 C   0  0  1  0  0  0  0  0  0  0  0  0
    7.0248   -0.5158   15.0207 C   0  0  0  0  0  0  0  0  0  0  0  0
    5.5643   -0.5074   14.4769 C   0  0  2  0  0  0  0  0  0  0  0  0
    8.5820   -1.4105   16.7615 N   0  0  0  0  0  0  0  0  0  0  0  0
    5.4424    0.5199   13.4200 N   0  0  0  0  0  0  0  0  0  0  0  0
    3.7297   -1.2357   17.7389 O   0  0  0  0  0  0  0  0  0  0  0  0
    6.2687   -2.4838   18.2332 O   0  0  0  0  0  0  0  0  0  0  0  0
  1  2  1  0  0  0  0
  1 16  1  1  0  0  0
  2  3  1  0  0  0  0
  2 12  1  1  0  0  0
  4 11  1  1  0  0  0
  4  3  1  0  0  0  0
  5  4  1  0  0  0  0
  5 10  1  6  0  0  0
  6  7  1  0  0  0  0
  6  5  1  0  0  0  0
  6 14  1  6  0  0  0
  7  8  1  0  0  0  0
  7 13  1  6  0  0  0
  8 15  1  1  0  0  0
  8 11  1  0  0  0  0
  9 13  1  0  0  0  0
 10  1  1  0  0  0  0
 17 15  1  6  0  0  0
 17 18  1  0  0  0  0
 18 25  1  6  0  0  0
 19 18  1  0  0  0  0
 19 26  1  1  0  0  0
 20 19  1  0  0  0  0
 20 24  1  6  0  0  0
 21 23  1  0  0  0  0
 21 20  1  0  0  0  0
 21 22  1  1  0  0  0
 23 17  1  0  0  0  0
 27 22  1  0  0  0  0
 28 29  1  0  0  0  0
 28 16  1  6  0  0  0
 29 36  1  1  0  0  0
 30 37  1  1  0  0  0
 30 29  1  0  0  0  0
 31 30  1  0  0  0  0
 31 34  1  1  0  0  0
 32 31  1  0  0  0  0
 32 33  1  0  0  0  0
 33 28  1  0  0  0  0
 33 35  1  6  0  0  0
M  END
>  <CHROM.1>
177.33725150,52.77904757,66.55440216,-173.17583005,-169.39149087,-130.61691541
-179.21042230,63.85195667,-155.54320552,65.17502726,74.13069769,-61.78797459
73.60530417,-51.20428101,57.06081177,-33.30688185,0.09051781,-0.37345995
15.37757736,-0.19141392,0.10835356,-0.80672501

>  <Name>
lig.pdb

>  <RI>
0

>  <Rbt.Current_Directory>
/home/itssahil/PROJECTS/Mol_Feturizer/New_Systems/rnas/2m4q

>  <Rbt.Executable>
rbdock ($Id: //depot/dev/client3/rdock/2013.1/src/exe/rbdock.cxx#4 $)

>  <Rbt.Library>
libRbt.so (2013.1, Build901 2013/11/27)

>  <Rbt.Parameter_File>
/export/apps/rDock/src/rDock_2013.1_src/data/scripts/dock_solv.prm

>  <Rbt.Receptor>
prm/blind_docking_20.prm

>  <SCORE>
-6.07064

>  <SCORE.INTER>
-7.3715

>  <SCORE.INTER.CONST>
1

>  <SCORE.INTER.POLAR>
-3.08523

>  <SCORE.INTER.ROT>
10

>  <SCORE.INTER.SOLV>
21.2711

>  <SCORE.INTER.VDW>
-11.9872

>  <SCORE.INTER.norm>
-0.19923

>  <SCORE.INTRA>
-18.4043

>  <SCORE.INTRA.DIHEDRAL>
-31.2011

>  <SCORE.INTRA.DIHEDRAL.0>
44.8331

>  <SCORE.INTRA.POLAR>
-0.900014

>  <SCORE.INTRA.POLAR.0>
-0.108895

>  <SCORE.INTRA.REPUL>
-0.00912235

>  <SCORE.INTRA.REPUL.0>
0.00912235

>  <SCORE.INTRA.SOLV>
0.0409366

>  <SCORE.INTRA.SOLV.lig_0>
-53.9067

>  <SCORE.INTRA.VDW>
0.281409

>  <SCORE.INTRA.VDW.0>
-2.93492

>  <SCORE.INTRA.norm>
-0.497414

>  <SCORE.RESTR>
19.7052

>  <SCORE.RESTR.CAVITY>
19.7052

>  <SCORE.RESTR.norm>
0.532572

>  <SCORE.SYSTEM>
0

>  <SCORE.SYSTEM.CONST>
0

>  <SCORE.SYSTEM.DIHEDRAL>
0

>  <SCORE.SYSTEM.SOLV>
0

>  <SCORE.SYSTEM.norm>
0

>  <SCORE.heavy>
37

>  <SCORE.norm>
-0.164071

>  <RMSD>
13.196

$$$$
lig.pdb
 OpenBabel11021811453D
libRbt.so/2013.1/901 2013/11/27
 37 40  0  0  0  0  0  0  0  0999 V2000
   -0.7577   -0.8898   16.5994 C   0  0  2  0  0  0  0  0  0  0  0  0
   -1.9485   -1.5643   17.3570 C   0  0  1  0  0  0  0  0  0  0  0  0
   -3.2802   -1.5460   16.5508 C   0  0  0  0  0  0  0  0  0  0  0  0
   -3.5769   -0.1305   15.9964 C   0  0  1  0  0  0  0  0  0  0  0  0
   -2.3820    0.3647   15.1512 C   0  0  1  0  0  0  0  0  0  0  0  0
   -2.6715    1.7635   14.5436 C   0  0  1  0  0  0  0  0  0  0  0  0
   -4.0150    1.7594   13.7552 C   0  0  1  0  0  0  0  0  0  0  0  0
   -5.1864    1.1787   14.6018 C   0  0  2  0  0  0  0  0  0  0  0  0
   -3.1271    3.7487   12.6289 C   0  0  0  0  0  0  0  0  0  0  0  0
   -1.1614    0.3574   15.9462 O   0  0  0  0  0  0  0  0  0  0  0  0
   -4.8160   -0.0861   15.2318 O   0  0  0  0  0  0  0  0  0  0  0  0
   -1.5957   -2.9588   17.7012 N   0  0  0  0  0  0  0  0  0  0  0  0
   -4.3018    3.1284   13.2789 N   0  0  0  0  0  0  0  0  0  0  0  0
   -2.6647    2.7729   15.5449 O   0  0  0  0  0  0  0  0  0  0  0  0
   -6.3826    1.0315   13.7820 O   0  0  0  0  0  0  0  0  0  0  0  0
   -0.1634   -1.8049   15.6289 O   0  0  0  0  0  0  0  0  0  0  0  0
   -7.1145    2.2349   13.3948 C   0  0  2  0  0  0  0  0  0  0  0  0
   -7.2740    3.2026   14.6018 C   0  0  1  0  0  0  0  0  0  0  0  0
   -8.2706    2.6456   15.6585 C   0  0  2  0  0  0  0  0  0  0  0  0
   -9.6292    2.2634   15.0027 C   0  0  1  0  0  0  0  0  0  0  0  0
   -9.4215    1.3249   13.7815 C   0  0  1  0  0  0  0  0  0  0  0  0
  -10.7523    1.0448   13.0352 C   0  0  0  0  0  0  0  0  0  0  0  0
   -8.4305    1.8882   12.8694 O   0  0  0  0  0  0  0  0  0  0  0  0
  -10.5573    1.6686   15.9893 N   0  0  0  0  0  0  0  0  0  0  0  0
   -6.0033    3.4984   15.1782 O   0  0  0  0  0  0  0  0  0  0  0  0
   -8.4580    3.5706   16.7275 O   0  0  0  0  0  0  0  0  0  0  0  0
  -11.3448   -0.1666   13.4923 O   0  0  0  0  0  0  0  0  0  0  0  0
    1.2311   -1.5918   15.2628 C   0  0  1  0  0  0  0  0  0  0  0  0
    1.3694   -0.7425   13.9683 C   0  0  1  0  0  0  0  0  0  0  0  0
    2.8586   -0.6089   13.5422 C   0  0  2  0  0  0  0  0  0  0  0  0
    3.7620   -0.0624   14.6951 C   0  0  1  0  0  0  0  0  0  0  0  0
    3.5440   -0.8114   16.0439 C   0  0  0  0  0  0  0  0  0  0  0  0
    2.0378   -0.9415   16.4225 C   0  0  2  0  0  0  0  0  0  0  0  0
    5.1873   -0.0881   14.3026 N   0  0  0  0  0  0  0  0  0  0  0  0
    1.9150   -1.7062   17.6824 N   0  0  0  0  0  0  0  0  0  0  0  0
    0.5893   -1.2960   12.9135 O   0  0  0  0  0  0  0  0  0  0  0  0
    2.9734    0.2159   12.3854 O   0  0  0  0  0  0  0  0  0  0  0  0
  1  2  1  0  0  0  0
  1 16  1  6  0  0  0
  2  3  1  0  0  0  0
  2 12  1  6  0  0  0
  4 11  1  6  0  0  0
  4  3  1  0  0  0  0
  5  4  1  0  0  0  0
  5 10  1  1  0  0  0
  6  7  1  0  0  0  0
  6  5  1  0  0  0  0
  6 14  1  1  0  0  0
  7  8  1  0  0  0  0
  7 13  1  1  0  0  0
  8 15  1  6  0  0  0
  8 11  1  0  0  0  0
  9 13  1  0  0  0  0
 10  1  1  0  0  0  0
 17 15  1  1  0  0  0
 17 18  1  0  0  0  0
 18 25  1  1  0  0  0
 19 18  1  0  0  0  0
 19 26  1  1  0  0  0
 20 19  1  0  0  0  0
 20 24  1  1  0  0  0
 21 23  1  0  0  0  0
 21 20  1  0  0  0  0
 21 22  1  6  0  0  0
 23 17  1  0  0  0  0
 27 22  1  0  0  0  0
 28 29  1  0  0  0  0
 28 16  1  1  0  0  0
 29 36  1  6  0  0  0
 30 37  1  6  0  0  0
 30 29  1  0  0  0  0
 31 30  1  0  0  0  0
 31 34  1  6  0  0  0
 32 31  1  0  0  0  0
 32 33  1  0  0  0  0
 33 28  1  0  0  0  0
 33 35  1  1  0  0  0
M  END
>  <CHROM.1>
-165.03615847,-72.98959995,47.86896156,-63.89610258,-44.41440182,-154.48981275
42.59128950,48.15599103,-94.84864459,-162.11018168,-59.19310304,-95.13280152
-166.22556366,-171.39604420,-154.66511920,-154.34915535,-3.26237518,0.62299579
14.89061339,0.21137756,-0.13126294,2.35351261

>  <Name>
lig.pdb

>  <RI>
0

>  <Rbt.Current_Directory>
/home/itssahil/PROJECTS/Mol_Feturizer/New_Systems/rnas/2m4q

>  <Rbt.Executable>
rbdock ($Id: //depot/dev/client3/rdock/2013.1/src/exe/rbdock.cxx#4 $)

>  <Rbt.Library>
libRbt.so (2013.1, Build901 2013/11/27)

>  <Rbt.Parameter_File>
/export/apps/rDock/src/rDock_2013.1_src/data/scripts/dock_solv.prm

>  <Rbt.Receptor>
prm/blind_docking_20.prm

>  <SCORE>
34.6567

>  <SCORE.INTER>
21.7007

>  <SCORE.INTER.CONST>
1

>  <SCORE.INTER.POLAR>
-2.15517

>  <SCORE.INTER.ROT>
10

>  <SCORE.INTER.SOLV>
20.9105

>  <SCORE.INTER.VDW>
4.41418

>  <SCORE.INTER.norm>
0.586505

>  <SCORE.INTRA>
-7.10642

>  <SCORE.INTRA.DIHEDRAL>
-25.4012

>  <SCORE.INTRA.DIHEDRAL.0>
44.8331

>  <SCORE.INTRA.POLAR>
-0.981918

>  <SCORE.INTRA.POLAR.0>
-0.108895

>  <SCORE.INTRA.REPUL>
-0.00912235

>  <SCORE.INTRA.REPUL.0>
0.00912235

>  <SCORE.INTRA.SOLV>
0.847746

>  <SCORE.INTRA.SOLV.lig_0>
-53.9067

>  <SCORE.INTRA.VDW>
8.55442

>  <SCORE.INTRA.VDW.0>
-2.93492

>  <SCORE.INTRA.norm>
-0.192065

>  <SCORE.RESTR>
20.0625

>  <SCORE.RESTR.CAVITY>
20.0625

>  <SCORE.RESTR.norm>
0.542229

>  <SCORE.SYSTEM>
0

>  <SCORE.SYSTEM.CONST>
0

>  <SCORE.SYSTEM.DIHEDRAL>
0

>  <SCORE.SYSTEM.SOLV>
0

>  <SCORE.SYSTEM.norm>
0

>  <SCORE.heavy>
37

>  <SCORE.norm>
0.936669

>  <RMSD>
13.211

$$$$
lig.pdb
 OpenBabel11021811453D
libRbt.so/2013.1/901 2013/11/27
 37 40  0  0  0  0  0  0  0  0999 V2000
   -0.1967   -0.3588   16.9077 C   0  0  2  0  0  0  0  0  0  0  0  0
   -0.9291   -1.3896   15.9868 C   0  0  1  0  0  0  0  0  0  0  0  0
   -1.9670   -0.7320   15.0308 C   0  0  0  0  0  0  0  0  0  0  0  0
   -2.9009    0.2340   15.8014 C   0  0  1  0  0  0  0  0  0  0  0  0
   -2.0603    1.2882   16.5561 C   0  0  1  0  0  0  0  0  0  0  0  0
   -2.9732    2.2993   17.3005 C   0  0  1  0  0  0  0  0  0  0  0  0
   -4.0114    2.9318   16.3265 C   0  0  1  0  0  0  0  0  0  0  0  0
   -4.7872    1.8499   15.5178 C   0  0  2  0  0  0  0  0  0  0  0  0
   -4.2282    5.0054   17.6176 C   0  0  0  0  0  0  0  0  0  0  0  0
   -1.1204    0.6358   17.4578 O   0  0  0  0  0  0  0  0  0  0  0  0
   -3.8795    0.8686   14.9288 O   0  0  0  0  0  0  0  0  0  0  0  0
    0.0650   -2.1466   15.1952 N   0  0  0  0  0  0  0  0  0  0  0  0
   -4.9212    3.8098   17.0909 N   0  0  0  0  0  0  0  0  0  0  0  0
   -3.6151    1.6925   18.4146 O   0  0  0  0  0  0  0  0  0  0  0  0
   -5.6221    2.4764   14.5005 O   0  0  0  0  0  0  0  0  0  0  0  0
    0.8977    0.2984   16.1984 O   0  0  0  0  0  0  0  0  0  0  0  0
   -6.1604    1.6413   13.4296 C   0  0  2  0  0  0  0  0  0  0  0  0
   -7.6892    1.8701   13.2594 C   0  0  1  0  0  0  0  0  0  0  0  0
   -8.4959    1.2803   14.4516 C   0  0  2  0  0  0  0  0  0  0  0  0
   -8.1285   -0.2123   14.6948 C   0  0  1  0  0  0  0  0  0  0  0  0
   -6.5912   -0.4006   14.8243 C   0  0  1  0  0  0  0  0  0  0  0  0
   -6.1995   -1.8979   14.9305 C   0  0  0  0  0  0  0  0  0  0  0  0
   -5.9047    0.2309   13.7012 O   0  0  0  0  0  0  0  0  0  0  0  0
   -8.8405   -0.7597   15.8704 N   0  0  0  0  0  0  0  0  0  0  0  0
   -7.9700    3.2550   13.0650 O   0  0  0  0  0  0  0  0  0  0  0  0
   -9.8990    1.4384   14.2524 O   0  0  0  0  0  0  0  0  0  0  0  0
   -4.7841   -2.0525   14.9390 O   0  0  0  0  0  0  0  0  0  0  0  0
    2.0636   -0.5066   15.8569 C   0  0  1  0  0  0  0  0  0  0  0  0
    2.4296   -0.3905   14.3507 C   0  0  1  0  0  0  0  0  0  0  0  0
    3.6140   -1.3300   13.9879 C   0  0  2  0  0  0  0  0  0  0  0  0
    4.8579   -1.1037   14.9074 C   0  0  1  0  0  0  0  0  0  0  0  0
    4.4963   -1.0811   16.4228 C   0  0  0  0  0  0  0  0  0  0  0  0
    3.2918   -0.1442   16.7393 C   0  0  2  0  0  0  0  0  0  0  0  0
    5.9055   -2.1098   14.6307 N   0  0  0  0  0  0  0  0  0  0  0  0
    2.9807   -0.2192   18.1832 N   0  0  0  0  0  0  0  0  0  0  0  0
    1.2975   -0.6644   13.5316 O   0  0  0  0  0  0  0  0  0  0  0  0
    3.9722   -1.1729   12.6173 O   0  0  0  0  0  0  0  0  0  0  0  0
  1  2  1  0  0  0  0
  1 16  1  6  0  0  0
  2  3  1  0  0  0  0
  2 12  1  6  0  0  0
  4 11  1  6  0  0  0
  4  3  1  0  0  0  0
  5  4  1  0  0  0  0
  5 10  1  1  0  0  0
  6  7  1  0  0  0  0
  6  5  1  0  0  0  0
  6 14  1  1  0  0  0
  7  8  1  0  0  0  0
  7 13  1  1  0  0  0
  8 15  1  6  0  0  0
  8 11  1  0  0  0  0
  9 13  1  0  0  0  0
 10  1  1  0  0  0  0
 17 15  1  1  0  0  0
 17 18  1  0  0  0  0
 18 25  1  1  0  0  0
 19 18  1  0  0  0  0
 19 26  1  6  0  0  0
 20 19  1  0  0  0  0
 20 24  1  1  0  0  0
 21 23  1  0  0  0  0
 21 20  1  0  0  0  0
 21 22  1  6  0  0  0
 23 17  1  0  0  0  0
 27 22  1  0  0  0  0
 28 29  1  0  0  0  0
 28 16  1  1  0  0  0
 29 36  1  6  0  0  0
 30 37  1  6  0  0  0
 30 29  1  0  0  0  0
 31 30  1  0  0  0  0
 31 34  1  1  0  0  0
 32 31  1  0  0  0  0
 32 33  1  0  0  0  0
 33 28  1  0  0  0  0
 33 35  1  1  0  0  0
M  END
>  <CHROM.1>
-96.03901298,164.76291609,67.84206384,64.56164103,130.40055091,-69.03920792
62.92094911,56.69231228,175.28657374,-173.79871379,-46.47713982,128.11442710
-165.85293465,175.38984254,-168.10016700,65.84537714,-2.40126348,0.38577935
15.37157566,-0.12229525,-0.18424023,0.76328902

>  <Name>
lig.pdb

>  <RI>
0

>  <Rbt.Current_Directory>
/home/itssahil/PROJECTS/Mol_Feturizer/New_Systems/rnas/2m4q

>  <Rbt.Executable>
rbdock ($Id: //depot/dev/client3/rdock/2013.1/src/exe/rbdock.cxx#4 $)

>  <Rbt.Library>
libRbt.so (2013.1, Build901 2013/11/27)

>  <Rbt.Parameter_File>
/export/apps/rDock/src/rDock_2013.1_src/data/scripts/dock_solv.prm

>  <Rbt.Receptor>
prm/blind_docking_20.prm

>  <SCORE>
11.5841

>  <SCORE.INTER>
-7.7532

>  <SCORE.INTER.CONST>
1

>  <SCORE.INTER.POLAR>
-3.38338

>  <SCORE.INTER.ROT>
10

>  <SCORE.INTER.SOLV>
19.1404

>  <SCORE.INTER.VDW>
-10.5377

>  <SCORE.INTER.norm>
-0.209546

>  <SCORE.INTRA>
-12.127

>  <SCORE.INTRA.DIHEDRAL>
-25.087

>  <SCORE.INTRA.DIHEDRAL.0>
44.8331

>  <SCORE.INTRA.POLAR>
-0.818192

>  <SCORE.INTRA.POLAR.0>
-0.108895

>  <SCORE.INTRA.REPUL>
-0.00912235

>  <SCORE.INTRA.REPUL.0>
0.00912235

>  <SCORE.INTRA.SOLV>
0.708677

>  <SCORE.INTRA.SOLV.lig_0>
-53.9067

>  <SCORE.INTRA.VDW>
2.88964

>  <SCORE.INTRA.VDW.0>
-2.93492

>  <SCORE.INTRA.norm>
-0.327757

>  <SCORE.RESTR>
31.4643

>  <SCORE.RESTR.CAVITY>
31.4643

>  <SCORE.RESTR.norm>
0.850386

>  <SCORE.SYSTEM>
0

>  <SCORE.SYSTEM.CONST>
0

>  <SCORE.SYSTEM.DIHEDRAL>
0

>  <SCORE.SYSTEM.SOLV>
0

>  <SCORE.SYSTEM.norm>
0

>  <SCORE.heavy>
37

>  <SCORE.norm>
0.313083

>  <RMSD>
13.233

$$$$
lig.pdb
 OpenBabel11021811453D
libRbt.so/2013.1/901 2013/11/27
 37 40  0  0  0  0  0  0  0  0999 V2000
  -13.4935    6.0779    6.2044 C   0  0  2  0  0  0  0  0  0  0  0  0
  -13.1404    4.8396    7.0928 C   0  0  1  0  0  0  0  0  0  0  0  0
  -11.6431    4.4232    7.0009 C   0  0  0  0  0  0  0  0  0  0  0  0
  -11.1824    4.3211    5.5257 C   0  0  1  0  0  0  0  0  0  0  0  0
  -11.4579    5.6543    4.7949 C   0  0  1  0  0  0  0  0  0  0  0  0
  -10.9627    5.5962    3.3249 C   0  0  1  0  0  0  0  0  0  0  0  0
   -9.4677    5.1634    3.2591 C   0  0  1  0  0  0  0  0  0  0  0  0
   -9.2009    3.8619    4.0723 C   0  0  2  0  0  0  0  0  0  0  0  0
   -9.8761    5.8772    0.9488 C   0  0  0  0  0  0  0  0  0  0  0  0
  -12.8713    5.9966    4.8810 O   0  0  0  0  0  0  0  0  0  0  0  0
   -9.7816    3.9382    5.4104 O   0  0  0  0  0  0  0  0  0  0  0  0
  -13.4923    5.1193    8.5019 N   0  0  0  0  0  0  0  0  0  0  0  0
   -9.0649    5.0246    1.8443 N   0  0  0  0  0  0  0  0  0  0  0  0
  -11.7817    4.7415    2.5373 O   0  0  0  0  0  0  0  0  0  0  0  0
   -7.7715    3.5824    4.1306 O   0  0  0  0  0  0  0  0  0  0  0  0
  -13.1229    7.3255    6.8667 O   0  0  0  0  0  0  0  0  0  0  0  0
   -7.0538    3.3578    2.8783 C   0  0  2  0  0  0  0  0  0  0  0  0
   -7.7524    2.2616    2.0245 C   0  0  1  0  0  0  0  0  0  0  0  0
   -7.5854    0.8486    2.6531 C   0  0  2  0  0  0  0  0  0  0  0  0
   -6.0882    0.5339    2.9382 C   0  0  1  0  0  0  0  0  0  0  0  0
   -5.4206    1.6695    3.7630 C   0  0  1  0  0  0  0  0  0  0  0  0
   -3.8970    1.4368    3.9387 C   0  0  0  0  0  0  0  0  0  0  0  0
   -5.6733    2.9661    3.1414 O   0  0  0  0  0  0  0  0  0  0  0  0
   -5.9282   -0.7796    3.5997 N   0  0  0  0  0  0  0  0  0  0  0  0
   -9.1251    2.5883    1.8157 O   0  0  0  0  0  0  0  0  0  0  0  0
   -8.1735   -0.1549    1.8281 O   0  0  0  0  0  0  0  0  0  0  0  0
   -3.6475    0.2390    4.6669 O   0  0  0  0  0  0  0  0  0  0  0  0
  -14.0440    7.8652    7.8587 C   0  0  1  0  0  0  0  0  0  0  0  0
  -13.3008    8.6469    8.9780 C   0  0  1  0  0  0  0  0  0  0  0  0
  -14.2902    9.1306   10.0754 C   0  0  2  0  0  0  0  0  0  0  0  0
  -15.4807    9.9535    9.4842 C   0  0  1  0  0  0  0  0  0  0  0  0
  -16.1600    9.2514    8.2704 C   0  0  0  0  0  0  0  0  0  0  0  0
  -15.1319    8.7641    7.2053 C   0  0  2  0  0  0  0  0  0  0  0  0
  -16.4734   10.2690   10.5335 N   0  0  0  0  0  0  0  0  0  0  0  0
  -15.8498    8.0660    6.1168 N   0  0  0  0  0  0  0  0  0  0  0  0
  -12.2633    7.8543    9.5463 O   0  0  0  0  0  0  0  0  0  0  0  0
  -13.6024    9.8905   11.0659 O   0  0  0  0  0  0  0  0  0  0  0  0
  1  2  1  0  0  0  0
  1 16  1  1  0  0  0
  2  3  1  0  0  0  0
  2 12  1  1  0  0  0
  4 11  1  1  0  0  0
  4  3  1  0  0  0  0
  5  4  1  0  0  0  0
  5 10  1  6  0  0  0
  6  7  1  0  0  0  0
  6  5  1  0  0  0  0
  6 14  1  6  0  0  0
  7  8  1  0  0  0  0
  7 13  1  6  0  0  0
  8 15  1  1  0  0  0
  8 11  1  0  0  0  0
  9 13  1  0  0  0  0
 10  1  1  0  0  0  0
 17 15  1  1  0  0  0
 17 18  1  0  0  0  0
 18 25  1  1  0  0  0
 19 18  1  0  0  0  0
 19 26  1  6  0  0  0
 20 19  1  0  0  0  0
 20 24  1  1  0  0  0
 21 23  1  0  0  0  0
 21 20  1  0  0  0  0
 21 22  1  6  0  0  0
 23 17  1  0  0  0  0
 27 22  1  0  0  0  0
 28 29  1  0  0  0  0
 28 16  1  6  0  0  0
 29 36  1  1  0  0  0
 30 37  1  1  0  0  0
 30 29  1  0  0  0  0
 31 30  1  0  0  0  0
 31 34  1  1  0  0  0
 32 31  1  0  0  0  0
 32 33  1  0  0  0  0
 33 28  1  0  0  0  0
 33 35  1  6  0  0  0
M  END
>  <CHROM.1>
-118.35942476,-60.83119508,26.32384648,-49.76382969,-52.60954097,-81.72925361
62.28519843,-169.79768653,-62.48156098,88.07901541,-170.43346589,148.96969300
-151.42251955,-170.15428751,90.95071744,-163.61885876,-10.65627110,5.00246840
5.37732927,2.51129737,-0.60414854,1.34855279

>  <Name>
lig.pdb

>  <RI>
0

>  <Rbt.Current_Directory>
/home/afrankz/demos/rdock_decoys_rna/rnas/2m4q

>  <Rbt.Executable>
rbdock ($Id: //depot/dev/client3/rdock/2013.1/src/exe/rbdock.cxx#4 $)

>  <Rbt.Library>
libRbt.so (2013.1, Build901 2013/11/27)

>  <Rbt.Parameter_File>
/export/apps/rDock/src/rDock_2013.1_src/data/scripts/dock_solv.prm

>  <Rbt.Receptor>
prm/blind_docking_80.prm

>  <SCORE>
15.2724

>  <SCORE.INTER>
-4.25811

>  <SCORE.INTER.CONST>
1

>  <SCORE.INTER.POLAR>
-2.31632

>  <SCORE.INTER.ROT>
10

>  <SCORE.INTER.SOLV>
20.7734

>  <SCORE.INTER.VDW>
-12.3088

>  <SCORE.INTER.norm>
-0.115084

>  <SCORE.INTRA>
-5.03822

>  <SCORE.INTRA.DIHEDRAL>
-26.4489

>  <SCORE.INTRA.DIHEDRAL.0>
44.8331

>  <SCORE.INTRA.POLAR>
-1.43447

>  <SCORE.INTRA.POLAR.0>
-0.108895

>  <SCORE.INTRA.REPUL>
-0.00912235

>  <SCORE.INTRA.REPUL.0>
0.00912235

>  <SCORE.INTRA.SOLV>
1.97471

>  <SCORE.INTRA.SOLV.lig_0>
-53.9067

>  <SCORE.INTRA.VDW>
12.1217

>  <SCORE.INTRA.VDW.0>
-2.93492

>  <SCORE.INTRA.norm>
-0.136168

>  <SCORE.RESTR>
24.5688

>  <SCORE.RESTR.CAVITY>
24.5688

>  <SCORE.RESTR.norm>
0.66402

>  <SCORE.SYSTEM>
0

>  <SCORE.SYSTEM.CONST>
0

>  <SCORE.SYSTEM.DIHEDRAL>
0

>  <SCORE.SYSTEM.SOLV>
0

>  <SCORE.SYSTEM.norm>
0

>  <SCORE.heavy>
37

>  <SCORE.norm>
0.412768

>  <RMSD>
13.278

$$$$
lig.pdb
 OpenBabel11021811453D
libRbt.so/2013.1/901 2013/11/27
 37 40  0  0  0  0  0  0  0  0999 V2000
    1.9391   -1.6253   14.7044 C   0  0  2  0  0  0  0  0  0  0  0  0
    1.5069   -0.9634   13.3545 C   0  0  1  0  0  0  0  0  0  0  0  0
    0.1728   -0.1678   13.4585 C   0  0  0  0  0  0  0  0  0  0  0  0
   -0.9256   -1.0098   14.1540 C   0  0  1  0  0  0  0  0  0  0  0  0
   -0.4269   -1.4864   15.5366 C   0  0  1  0  0  0  0  0  0  0  0  0
   -1.5262   -2.2945   16.2769 C   0  0  1  0  0  0  0  0  0  0  0  0
   -2.8541   -1.4837   16.3547 C   0  0  1  0  0  0  0  0  0  0  0  0
   -3.2910   -0.9446   14.9602 C   0  0  2  0  0  0  0  0  0  0  0  0
   -3.6296   -2.5786   18.4074 C   0  0  0  0  0  0  0  0  0  0  0  0
    0.8073   -2.2472   15.3954 O   0  0  0  0  0  0  0  0  0  0  0  0
   -2.1846   -0.2864   14.2700 O   0  0  0  0  0  0  0  0  0  0  0  0
    2.5813   -0.0697   12.8701 N   0  0  0  0  0  0  0  0  0  0  0  0
   -3.8992   -2.3234   16.9759 N   0  0  0  0  0  0  0  0  0  0  0  0
   -1.7321   -3.5633   15.6691 O   0  0  0  0  0  0  0  0  0  0  0  0
   -4.4362   -0.0530   15.0953 O   0  0  0  0  0  0  0  0  0  0  0  0
    2.6018   -0.6601   15.5772 O   0  0  0  0  0  0  0  0  0  0  0  0
   -4.3153    1.3163   14.6011 C   0  0  2  0  0  0  0  0  0  0  0  0
   -4.3945    2.3396   15.7695 C   0  0  1  0  0  0  0  0  0  0  0  0
   -5.8297    2.4252   16.3636 C   0  0  2  0  0  0  0  0  0  0  0  0
   -6.8836    2.6920   15.2500 C   0  0  1  0  0  0  0  0  0  0  0  0
   -6.7467    1.6696   14.0875 C   0  0  1  0  0  0  0  0  0  0  0  0
   -7.6980    2.0042   12.9088 C   0  0  0  0  0  0  0  0  0  0  0  0
   -5.3627    1.6046   13.6273 O   0  0  0  0  0  0  0  0  0  0  0  0
   -8.2576    2.7055   15.7982 N   0  0  0  0  0  0  0  0  0  0  0  0
   -3.4256    2.0332   16.7705 O   0  0  0  0  0  0  0  0  0  0  0  0
   -5.9044    3.4129   17.3893 O   0  0  0  0  0  0  0  0  0  0  0  0
   -7.3875    3.2775   12.3522 O   0  0  0  0  0  0  0  0  0  0  0  0
    4.0514   -0.5439   15.4813 C   0  0  1  0  0  0  0  0  0  0  0  0
    4.6962   -0.1670   16.8445 C   0  0  1  0  0  0  0  0  0  0  0  0
    6.2293    0.0466   16.6991 C   0  0  2  0  0  0  0  0  0  0  0  0
    6.9419   -1.1778   16.0380 C   0  0  1  0  0  0  0  0  0  0  0  0
    6.2341   -1.6620   14.7371 C   0  0  0  0  0  0  0  0  0  0  0  0
    4.6971   -1.8429   14.9208 C   0  0  2  0  0  0  0  0  0  0  0  0
    8.3676   -0.8808   15.7827 N   0  0  0  0  0  0  0  0  0  0  0  0
    4.0959   -2.2518   13.6329 N   0  0  0  0  0  0  0  0  0  0  0  0
    4.0746    0.9891   17.3965 O   0  0  0  0  0  0  0  0  0  0  0  0
    6.8135    0.3389   17.9660 O   0  0  0  0  0  0  0  0  0  0  0  0
  1  2  1  0  0  0  0
  1 16  1  1  0  0  0
  2  3  1  0  0  0  0
  2 12  1  1  0  0  0
  4 11  1  1  0  0  0
  4  3  1  0  0  0  0
  5  4  1  0  0  0  0
  5 10  1  6  0  0  0
  6  7  1  0  0  0  0
  6  5  1  0  0  0  0
  6 14  1  6  0  0  0
  7  8  1  0  0  0  0
  7 13  1  6  0  0  0
  8 15  1  1  0  0  0
  8 11  1  0  0  0  0
  9 13  1  0  0  0  0
 10  1  1  0  0  0  0
 17 15  1  1  0  0  0
 17 18  1  0  0  0  0
 18 25  1  1  0  0  0
 19 18  1  0  0  0  0
 19 26  1  1  0  0  0
 20 19  1  0  0  0  0
 20 24  1  1  0  0  0
 21 23  1  0  0  0  0
 21 20  1  0  0  0  0
 21 22  1  6  0  0  0
 23 17  1  0  0  0  0
 27 22  1  0  0  0  0
 28 29  1  0  0  0  0
 28 16  1  1  0  0  0
 29 36  1  6  0  0  0
 30 37  1  1  0  0  0
 30 29  1  0  0  0  0
 31 30  1  0  0  0  0
 31 34  1  6  0  0  0
 32 31  1  0  0  0  0
 32 33  1  0  0  0  0
 33 28  1  0  0  0  0
 33 35  1  6  0  0  0
M  END
>  <CHROM.1>
154.56676272,122.09577685,68.53754008,61.18703364,-114.57506632,-91.12587766
63.12829998,58.61333355,61.83518539,-49.55858230,39.18813606,-148.32498990
-57.36107098,62.39219410,-55.47477263,-135.88454084,-0.69974640,-0.06489488
15.34849145,0.22320528,0.05948365,-3.13905080

>  <Name>
lig.pdb

>  <RI>
0

>  <Rbt.Current_Directory>
/home/itssahil/PROJECTS/Mol_Feturizer/New_Systems/rnas/2m4q

>  <Rbt.Executable>
rbdock ($Id: //depot/dev/client3/rdock/2013.1/src/exe/rbdock.cxx#4 $)

>  <Rbt.Library>
libRbt.so (2013.1, Build901 2013/11/27)

>  <Rbt.Parameter_File>
/export/apps/rDock/src/rDock_2013.1_src/data/scripts/dock_solv.prm

>  <Rbt.Receptor>
prm/blind_docking_20.prm

>  <SCORE>
-0.816717

>  <SCORE.INTER>
-14.2645

>  <SCORE.INTER.CONST>
1

>  <SCORE.INTER.POLAR>
-2.7413

>  <SCORE.INTER.ROT>
10

>  <SCORE.INTER.SOLV>
20.9336

>  <SCORE.INTER.VDW>
-17.6165

>  <SCORE.INTER.norm>
-0.385527

>  <SCORE.INTRA>
-5.73821

>  <SCORE.INTRA.DIHEDRAL>
-17.1848

>  <SCORE.INTRA.DIHEDRAL.0>
44.8331

>  <SCORE.INTRA.POLAR>
-0.653901

>  <SCORE.INTRA.POLAR.0>
-0.108895

>  <SCORE.INTRA.REPUL>
-0.00912235

>  <SCORE.INTRA.REPUL.0>
0.00912235

>  <SCORE.INTRA.SOLV>
-0.428664

>  <SCORE.INTRA.SOLV.lig_0>
-53.9067

>  <SCORE.INTRA.VDW>
5.3374

>  <SCORE.INTRA.VDW.0>
-2.93492

>  <SCORE.INTRA.norm>
-0.155087

>  <SCORE.RESTR>
19.186

>  <SCORE.RESTR.CAVITY>
19.186

>  <SCORE.RESTR.norm>
0.51854

>  <SCORE.SYSTEM>
0

>  <SCORE.SYSTEM.CONST>
0

>  <SCORE.SYSTEM.DIHEDRAL>
0

>  <SCORE.SYSTEM.SOLV>
0

>  <SCORE.SYSTEM.norm>
0

>  <SCORE.heavy>
37

>  <SCORE.norm>
-0.0220734

>  <RMSD>
13.322

$$$$
lig.pdb
 OpenBabel11021811453D
libRbt.so/2013.1/901 2013/11/27
 37 40  0  0  0  0  0  0  0  0999 V2000
    2.4382   -1.3636   14.6218 C   0  0  2  0  0  0  0  0  0  0  0  0
    1.8712   -1.0226   13.2042 C   0  0  1  0  0  0  0  0  0  0  0  0
    0.5213   -0.2484   13.2512 C   0  0  0  0  0  0  0  0  0  0  0  0
   -0.4833   -0.9371   14.2080 C   0  0  1  0  0  0  0  0  0  0  0  0
    0.1457   -1.0889   15.6111 C   0  0  1  0  0  0  0  0  0  0  0  0
   -0.8574   -1.7347   16.6042 C   0  0  1  0  0  0  0  0  0  0  0  0
   -2.2038   -0.9513   16.6219 C   0  0  1  0  0  0  0  0  0  0  0  0
   -2.7746   -0.7399   15.1881 C   0  0  2  0  0  0  0  0  0  0  0  0
   -3.7062   -2.8737   16.8685 C   0  0  0  0  0  0  0  0  0  0  0  0
    1.3917   -1.8392   15.5293 O   0  0  0  0  0  0  0  0  0  0  0  0
   -1.7546   -0.2292   14.2757 O   0  0  0  0  0  0  0  0  0  0  0  0
    2.8675   -0.2376   12.4435 N   0  0  0  0  0  0  0  0  0  0  0  0
   -3.1616   -1.6530   17.5012 N   0  0  0  0  0  0  0  0  0  0  0  0
   -1.0652   -3.1096   16.3075 O   0  0  0  0  0  0  0  0  0  0  0  0
   -3.9372    0.1383   15.2277 O   0  0  0  0  0  0  0  0  0  0  0  0
    3.1343   -0.2181   15.2014 O   0  0  0  0  0  0  0  0  0  0  0  0
   -3.8995    1.3794   14.4582 C   0  0  2  0  0  0  0  0  0  0  0  0
   -3.8481    2.6169   15.3987 C   0  0  1  0  0  0  0  0  0  0  0  0
   -5.1993    2.8345   16.1382 C   0  0  2  0  0  0  0  0  0  0  0  0
   -6.3875    2.8835   15.1344 C   0  0  1  0  0  0  0  0  0  0  0  0
   -6.3809    1.6474   14.1922 C   0  0  1  0  0  0  0  0  0  0  0  0
   -7.4765    1.7487   13.0987 C   0  0  0  0  0  0  0  0  0  0  0  0
   -5.0642    1.4773   13.5851 O   0  0  0  0  0  0  0  0  0  0  0  0
   -7.6827    3.0207   15.8360 N   0  0  0  0  0  0  0  0  0  0  0  0
   -2.7577    2.5074   16.3117 O   0  0  0  0  0  0  0  0  0  0  0  0
   -5.1607    4.0086   16.9466 O   0  0  0  0  0  0  0  0  0  0  0  0
   -8.7603    1.9419   13.6833 O   0  0  0  0  0  0  0  0  0  0  0  0
    4.5325   -0.3927   15.5736 C   0  0  1  0  0  0  0  0  0  0  0  0
    4.6987   -1.3777   16.7646 C   0  0  1  0  0  0  0  0  0  0  0  0
    6.1857   -1.4751   17.2078 C   0  0  2  0  0  0  0  0  0  0  0  0
    7.1394   -1.8314   16.0215 C   0  0  1  0  0  0  0  0  0  0  0  0
    6.9005   -0.9441   14.7632 C   0  0  0  0  0  0  0  0  0  0  0  0
    5.3960   -0.8567   14.3663 C   0  0  2  0  0  0  0  0  0  0  0  0
    8.5538   -1.7706   16.4482 N   0  0  0  0  0  0  0  0  0  0  0  0
    5.2496    0.0413   13.2003 N   0  0  0  0  0  0  0  0  0  0  0  0
    3.8692   -0.9961   17.8573 O   0  0  0  0  0  0  0  0  0  0  0  0
    6.3294   -2.4211   18.2642 O   0  0  0  0  0  0  0  0  0  0  0  0
  1  2  1  0  0  0  0
  1 16  1  1  0  0  0
  2  3  1  0  0  0  0
  2 12  1  1  0  0  0
  4 11  1  1  0  0  0
  4  3  1  0  0  0  0
  5  4  1  0  0  0  0
  5 10  1  6  0  0  0
  6  7  1  0  0  0  0
  6  5  1  0  0  0  0
  6 14  1  6  0  0  0
  7  8  1  0  0  0  0
  7 13  1  1  0  0  0
  8 15  1  1  0  0  0
  8 11  1  0  0  0  0
  9 13  1  0  0  0  0
 10  1  1  0  0  0  0
 17 15  1  1  0  0  0
 17 18  1  0  0  0  0
 18 25  1  1  0  0  0
 19 18  1  0  0  0  0
 19 26  1  6  0  0  0
 20 19  1  0  0  0  0
 20 24  1  1  0  0  0
 21 23  1  0  0  0  0
 21 20  1  0  0  0  0
 21 22  1  6  0  0  0
 23 17  1  0  0  0  0
 27 22  1  0  0  0  0
 28 29  1  0  0  0  0
 28 16  1  6  0  0  0
 29 36  1  1  0  0  0
 30 37  1  1  0  0  0
 30 29  1  0  0  0  0
 31 30  1  0  0  0  0
 31 34  1  1  0  0  0
 32 31  1  0  0  0  0
 32 33  1  0  0  0  0
 33 28  1  0  0  0  0
 33 35  1  6  0  0  0
M  END
>  <CHROM.1>
-60.68681722,120.99592457,-75.09753415,59.81622480,-111.33871388,-121.98247000
-58.33455408,-57.77881464,-55.32985429,-159.36243918,-173.71822586,-67.38020221
-57.72141683,65.85396344,-69.98283542,20.61086326,-0.33903718,-0.09785220
15.37187602,-0.20478415,0.18062011,-0.95180291

>  <Name>
lig.pdb

>  <RI>
0

>  <Rbt.Current_Directory>
/home/itssahil/PROJECTS/Mol_Feturizer/New_Systems/rnas/2m4q

>  <Rbt.Executable>
rbdock ($Id: //depot/dev/client3/rdock/2013.1/src/exe/rbdock.cxx#4 $)

>  <Rbt.Library>
libRbt.so (2013.1, Build901 2013/11/27)

>  <Rbt.Parameter_File>
/export/apps/rDock/src/rDock_2013.1_src/data/scripts/dock_solv.prm

>  <Rbt.Receptor>
prm/blind_docking_20.prm

>  <SCORE>
-2.63077

>  <SCORE.INTER>
-10.9185

>  <SCORE.INTER.CONST>
1

>  <SCORE.INTER.POLAR>
-3.13574

>  <SCORE.INTER.ROT>
10

>  <SCORE.INTER.SOLV>
19.3472

>  <SCORE.INTER.VDW>
-13.5422

>  <SCORE.INTER.norm>
-0.295093

>  <SCORE.INTRA>
-8.48874

>  <SCORE.INTRA.DIHEDRAL>
-19.8932

>  <SCORE.INTRA.DIHEDRAL.0>
44.8331

>  <SCORE.INTRA.POLAR>
-1.40694

>  <SCORE.INTRA.POLAR.0>
-0.108895

>  <SCORE.INTRA.REPUL>
-0.00912235

>  <SCORE.INTRA.REPUL.0>
0.00912235

>  <SCORE.INTRA.SOLV>
0.784508

>  <SCORE.INTRA.SOLV.lig_0>
-53.9067

>  <SCORE.INTRA.VDW>
5.89482

>  <SCORE.INTRA.VDW.0>
-2.93492

>  <SCORE.INTRA.norm>
-0.229425

>  <SCORE.RESTR>
16.7764

>  <SCORE.RESTR.CAVITY>
16.7764

>  <SCORE.RESTR.norm>
0.453417

>  <SCORE.SYSTEM>
0

>  <SCORE.SYSTEM.CONST>
0

>  <SCORE.SYSTEM.DIHEDRAL>
0

>  <SCORE.SYSTEM.SOLV>
0

>  <SCORE.SYSTEM.norm>
0

>  <SCORE.heavy>
37

>  <SCORE.norm>
-0.0711019

>  <RMSD>
13.377

$$$$
lig.pdb
 OpenBabel11021811453D
libRbt.so/2013.1/901 2013/11/27
 37 40  0  0  0  0  0  0  0  0999 V2000
    3.3210   -1.6870   13.8584 C   0  0  2  0  0  0  0  0  0  0  0  0
    2.4704   -0.8486   12.8482 C   0  0  1  0  0  0  0  0  0  0  0  0
    1.2421   -0.1540   13.5060 C   0  0  0  0  0  0  0  0  0  0  0  0
    0.4328   -1.1533   14.3693 C   0  0  1  0  0  0  0  0  0  0  0  0
    1.3567   -1.8102   15.4191 C   0  0  1  0  0  0  0  0  0  0  0  0
    0.5610   -2.7831   16.3302 C   0  0  1  0  0  0  0  0  0  0  0  0
   -0.6699   -2.0691   16.9640 C   0  0  1  0  0  0  0  0  0  0  0  0
   -1.5395   -1.3451   15.8935 C   0  0  2  0  0  0  0  0  0  0  0  0
   -2.3905   -2.3980   18.6801 C   0  0  0  0  0  0  0  0  0  0  0  0
    2.4783   -2.4704   14.7646 O   0  0  0  0  0  0  0  0  0  0  0  0
   -0.7205   -0.5275   15.0022 O   0  0  0  0  0  0  0  0  0  0  0  0
    3.3259    0.1676   12.1978 N   0  0  0  0  0  0  0  0  0  0  0  0
   -1.4532   -3.0516   17.7414 N   0  0  0  0  0  0  0  0  0  0  0  0
    0.1699   -3.9516   15.6208 O   0  0  0  0  0  0  0  0  0  0  0  0
   -2.5791   -0.5501   16.5352 O   0  0  0  0  0  0  0  0  0  0  0  0
    4.2310   -0.8338   14.6177 O   0  0  0  0  0  0  0  0  0  0  0  0
   -3.7700   -0.2061   15.7624 C   0  0  2  0  0  0  0  0  0  0  0  0
   -3.3926    0.2072   14.3114 C   0  0  1  0  0  0  0  0  0  0  0  0
   -2.6757    1.5872   14.2738 C   0  0  2  0  0  0  0  0  0  0  0  0
   -3.5068    2.6725   15.0177 C   0  0  1  0  0  0  0  0  0  0  0  0
   -3.8916    2.2051   16.4491 C   0  0  1  0  0  0  0  0  0  0  0  0
   -4.8338    3.2164   17.1533 C   0  0  0  0  0  0  0  0  0  0  0  0
   -4.5024    0.8798   16.4048 O   0  0  0  0  0  0  0  0  0  0  0  0
   -2.7985    3.9710   15.0457 N   0  0  0  0  0  0  0  0  0  0  0  0
   -2.6123   -0.8109   13.6874 O   0  0  0  0  0  0  0  0  0  0  0  0
   -2.3936    1.9847   12.9337 O   0  0  0  0  0  0  0  0  0  0  0  0
   -5.0060    2.8783   18.5257 O   0  0  0  0  0  0  0  0  0  0  0  0
    4.8996   -1.4167   15.7740 C   0  0  1  0  0  0  0  0  0  0  0  0
    6.4436   -1.4498   15.5976 C   0  0  1  0  0  0  0  0  0  0  0  0
    7.1295   -2.1620   16.7974 C   0  0  2  0  0  0  0  0  0  0  0  0
    6.7149   -1.5459   18.1730 C   0  0  1  0  0  0  0  0  0  0  0  0
    5.1732   -1.3764   18.3219 C   0  0  0  0  0  0  0  0  0  0  0  0
    4.5235   -0.6778   17.0897 C   0  0  2  0  0  0  0  0  0  0  0  0
    7.2683   -2.3385   19.2917 N   0  0  0  0  0  0  0  0  0  0  0  0
    3.0595   -0.6026   17.2862 N   0  0  0  0  0  0  0  0  0  0  0  0
    6.7999   -2.0737   14.3682 O   0  0  0  0  0  0  0  0  0  0  0  0
    8.5467   -2.1372   16.6470 O   0  0  0  0  0  0  0  0  0  0  0  0
  1  2  1  0  0  0  0
  1 16  1  1  0  0  0
  2  3  1  0  0  0  0
  2 12  1  1  0  0  0
  4 11  1  1  0  0  0
  4  3  1  0  0  0  0
  5  4  1  0  0  0  0
  5 10  1  6  0  0  0
  6  7  1  0  0  0  0
  6  5  1  0  0  0  0
  6 14  1  6  0  0  0
  7  8  1  0  0  0  0
  7 13  1  6  0  0  0
  8 15  1  1  0  0  0
  8 11  1  0  0  0  0
  9 13  1  0  0  0  0
 10  1  1  0  0  0  0
 17 15  1  1  0  0  0
 17 18  1  0  0  0  0
 18 25  1  1  0  0  0
 19 18  1  0  0  0  0
 19 26  1  6  0  0  0
 20 19  1  0  0  0  0
 20 24  1  1  0  0  0
 21 23  1  0  0  0  0
 21 20  1  0  0  0  0
 21 22  1  6  0  0  0
 23 17  1  0  0  0  0
 27 22  1  0  0  0  0
 28 29  1  0  0  0  0
 28 16  1  6  0  0  0
 29 36  1  6  0  0  0
 30 37  1  6  0  0  0
 30 29  1  0  0  0  0
 31 30  1  0  0  0  0
 31 34  1  1  0  0  0
 32 31  1  0  0  0  0
 32 33  1  0  0  0  0
 33 28  1  0  0  0  0
 33 35  1  1  0  0  0
M  END
>  <CHROM.1>
-79.79247003,-157.63465857,163.27880250,-175.99468306,-41.99543406,168.24231406
67.04782838,164.62211216,-170.95663691,-136.51972930,65.54863149,117.06506193
63.96540436,-57.52553461,-62.53136970,-177.76079185,0.83896989,-0.60733884
15.76278385,-0.15606732,0.27238501,-1.18690210

>  <Name>
lig.pdb

>  <RI>
0

>  <Rbt.Current_Directory>
/home/itssahil/PROJECTS/Mol_Feturizer/New_Systems/rnas/2m4q

>  <Rbt.Executable>
rbdock ($Id: //depot/dev/client3/rdock/2013.1/src/exe/rbdock.cxx#4 $)

>  <Rbt.Library>
libRbt.so (2013.1, Build901 2013/11/27)

>  <Rbt.Parameter_File>
/export/apps/rDock/src/rDock_2013.1_src/data/scripts/dock_solv.prm

>  <Rbt.Receptor>
prm/blind_docking_20.prm

>  <SCORE>
21.8365

>  <SCORE.INTER>
5.95463

>  <SCORE.INTER.CONST>
1

>  <SCORE.INTER.POLAR>
-2.22524

>  <SCORE.INTER.ROT>
10

>  <SCORE.INTER.SOLV>
24.0659

>  <SCORE.INTER.VDW>
-6.90141

>  <SCORE.INTER.norm>
0.160936

>  <SCORE.INTRA>
-8.96959

>  <SCORE.INTRA.DIHEDRAL>
-28.1348

>  <SCORE.INTRA.DIHEDRAL.0>
44.8331

>  <SCORE.INTRA.POLAR>
-0.0717727

>  <SCORE.INTRA.POLAR.0>
-0.108895

>  <SCORE.INTRA.REPUL>
-0.00912235

>  <SCORE.INTRA.REPUL.0>
0.00912235

>  <SCORE.INTRA.SOLV>
-0.285464

>  <SCORE.INTRA.SOLV.lig_0>
-53.9067

>  <SCORE.INTRA.VDW>
5.5302

>  <SCORE.INTRA.VDW.0>
-2.93492

>  <SCORE.INTRA.norm>
-0.242421

>  <SCORE.RESTR>
24.8515

>  <SCORE.RESTR.CAVITY>
24.8515

>  <SCORE.RESTR.norm>
0.671661

>  <SCORE.SYSTEM>
0

>  <SCORE.SYSTEM.CONST>
0

>  <SCORE.SYSTEM.DIHEDRAL>
0

>  <SCORE.SYSTEM.SOLV>
0

>  <SCORE.SYSTEM.norm>
0

>  <SCORE.heavy>
37

>  <SCORE.norm>
0.590176

>  <RMSD>
13.494

$$$$
lig.pdb
 OpenBabel11021811453D
libRbt.so/2013.1/901 2013/11/27
 37 40  0  0  0  0  0  0  0  0999 V2000
    2.0091   -1.6076   14.6780 C   0  0  2  0  0  0  0  0  0  0  0  0
    1.6033   -0.9120   13.3370 C   0  0  1  0  0  0  0  0  0  0  0  0
    0.2859   -0.0893   13.4445 C   0  0  0  0  0  0  0  0  0  0  0  0
   -0.8365   -0.9194   14.1153 C   0  0  1  0  0  0  0  0  0  0  0  0
   -0.3604   -1.4318   15.4930 C   0  0  1  0  0  0  0  0  0  0  0  0
   -1.4835   -2.2289   16.2093 C   0  0  1  0  0  0  0  0  0  0  0  0
   -2.7939   -1.3906   16.2910 C   0  0  1  0  0  0  0  0  0  0  0  0
   -3.2069   -0.8168   14.9030 C   0  0  2  0  0  0  0  0  0  0  0  0
   -4.3840   -3.2237   15.9372 C   0  0  0  0  0  0  0  0  0  0  0  0
    0.8581   -2.2170   15.3481 O   0  0  0  0  0  0  0  0  0  0  0  0
   -2.0804   -0.1707   14.2342 O   0  0  0  0  0  0  0  0  0  0  0  0
    2.7011   -0.0335   12.8779 N   0  0  0  0  0  0  0  0  0  0  0  0
   -3.8625   -2.2182   16.8880 N   0  0  0  0  0  0  0  0  0  0  0  0
   -1.7118   -3.4816   15.5766 O   0  0  0  0  0  0  0  0  0  0  0  0
   -4.3334    0.0972   15.0450 O   0  0  0  0  0  0  0  0  0  0  0  0
    2.6852   -0.6733   15.5738 O   0  0  0  0  0  0  0  0  0  0  0  0
   -4.2043    1.4505   14.5106 C   0  0  2  0  0  0  0  0  0  0  0  0
   -4.1802    2.5022   15.6561 C   0  0  1  0  0  0  0  0  0  0  0  0
   -5.5721    2.6448   16.3360 C   0  0  2  0  0  0  0  0  0  0  0  0
   -6.6859    2.9181   15.2840 C   0  0  1  0  0  0  0  0  0  0  0  0
   -6.6520    1.8658   14.1408 C   0  0  1  0  0  0  0  0  0  0  0  0
   -7.6655    2.2022   13.0157 C   0  0  0  0  0  0  0  0  0  0  0  0
   -5.3022    1.7482   13.5971 O   0  0  0  0  0  0  0  0  0  0  0  0
   -8.0216    2.9859   15.9161 N   0  0  0  0  0  0  0  0  0  0  0  0
   -3.1595    2.1893   16.6020 O   0  0  0  0  0  0  0  0  0  0  0  0
   -5.5534    3.6576   17.3397 O   0  0  0  0  0  0  0  0  0  0  0  0
   -8.9998    2.1818   13.5123 O   0  0  0  0  0  0  0  0  0  0  0  0
    4.0049   -1.0441   16.0686 C   0  0  1  0  0  0  0  0  0  0  0  0
    5.0006   -1.3323   14.9103 C   0  0  1  0  0  0  0  0  0  0  0  0
    6.3717   -1.8190   15.4581 C   0  0  2  0  0  0  0  0  0  0  0  0
    6.9758   -0.8355   16.5124 C   0  0  1  0  0  0  0  0  0  0  0  0
    5.9533   -0.4234   17.6135 C   0  0  0  0  0  0  0  0  0  0  0  0
    4.5868    0.0374   17.0226 C   0  0  2  0  0  0  0  0  0  0  0  0
    8.2012   -1.4008   17.1164 N   0  0  0  0  0  0  0  0  0  0  0  0
    3.6599    0.3598   18.1291 N   0  0  0  0  0  0  0  0  0  0  0  0
    4.4555   -2.2796   13.9975 O   0  0  0  0  0  0  0  0  0  0  0  0
    7.2897   -2.0277   14.3878 O   0  0  0  0  0  0  0  0  0  0  0  0
  1  2  1  0  0  0  0
  1 16  1  1  0  0  0
  2  3  1  0  0  0  0
  2 12  1  1  0  0  0
  4 11  1  1  0  0  0
  4  3  1  0  0  0  0
  5  4  1  0  0  0  0
  5 10  1  6  0  0  0
  6  7  1  0  0  0  0
  6  5  1  0  0  0  0
  6 14  1  6  0  0  0
  7  8  1  0  0  0  0
  7 13  1  6  0  0  0
  8 15  1  1  0  0  0
  8 11  1  0  0  0  0
  9 13  1  0  0  0  0
 10  1  1  0  0  0  0
 17 15  1  1  0  0  0
 17 18  1  0  0  0  0
 18 25  1  1  0  0  0
 19 18  1  0  0  0  0
 19 26  1  1  0  0  0
 20 19  1  0  0  0  0
 20 24  1  1  0  0  0
 21 23  1  0  0  0  0
 21 20  1  0  0  0  0
 21 22  1  6  0  0  0
 23 17  1  0  0  0  0
 27 22  1  0  0  0  0
 28 29  1  0  0  0  0
 28 16  1  6  0  0  0
 29 36  1  6  0  0  0
 30 37  1  6  0  0  0
 30 29  1  0  0  0  0
 31 30  1  0  0  0  0
 31 34  1  1  0  0  0
 32 31  1  0  0  0  0
 32 33  1  0  0  0  0
 33 28  1  0  0  0  0
 33 35  1  1  0  0  0
M  END
>  <CHROM.1>
72.35711781,125.42342583,-75.01582362,-55.21215652,-112.41414490,-124.79970472
65.49973958,-56.47718007,-62.53695895,115.37675493,-156.04384613,56.50915648
173.88434073,-55.99044364,72.50341825,-47.24406665,-0.68514044,-0.15145746
15.32174021,0.20848996,0.15523936,-2.73653785

>  <Name>
lig.pdb

>  <RI>
0

>  <Rbt.Current_Directory>
/home/itssahil/PROJECTS/Mol_Feturizer/New_Systems/rnas/2m4q

>  <Rbt.Executable>
rbdock ($Id: //depot/dev/client3/rdock/2013.1/src/exe/rbdock.cxx#4 $)

>  <Rbt.Library>
libRbt.so (2013.1, Build901 2013/11/27)

>  <Rbt.Parameter_File>
/export/apps/rDock/src/rDock_2013.1_src/data/scripts/dock_solv.prm

>  <Rbt.Receptor>
prm/blind_docking_20.prm

>  <SCORE>
-6.32582

>  <SCORE.INTER>
-18.6861

>  <SCORE.INTER.CONST>
1

>  <SCORE.INTER.POLAR>
-3.56866

>  <SCORE.INTER.ROT>
10

>  <SCORE.INTER.SOLV>
21.3746

>  <SCORE.INTER.VDW>
-17.9534

>  <SCORE.INTER.norm>
-0.505029

>  <SCORE.INTRA>
-4.87138

>  <SCORE.INTRA.DIHEDRAL>
-16.6854

>  <SCORE.INTRA.DIHEDRAL.0>
44.8331

>  <SCORE.INTRA.POLAR>
-0.546226

>  <SCORE.INTRA.POLAR.0>
-0.108895

>  <SCORE.INTRA.REPUL>
-0.00912235

>  <SCORE.INTRA.REPUL.0>
0.00912235

>  <SCORE.INTRA.SOLV>
0.397862

>  <SCORE.INTRA.SOLV.lig_0>
-53.9067

>  <SCORE.INTRA.VDW>
5.17517

>  <SCORE.INTRA.VDW.0>
-2.93492

>  <SCORE.INTRA.norm>
-0.131659

>  <SCORE.RESTR>
17.2316

>  <SCORE.RESTR.CAVITY>
17.2316

>  <SCORE.RESTR.norm>
0.46572

>  <SCORE.SYSTEM>
0

>  <SCORE.SYSTEM.CONST>
0

>  <SCORE.SYSTEM.DIHEDRAL>
0

>  <SCORE.SYSTEM.SOLV>
0

>  <SCORE.SYSTEM.norm>
0

>  <SCORE.heavy>
37

>  <SCORE.norm>
-0.170968

>  <RMSD>
13.497

$$$$
lig.pdb
 OpenBabel11021811453D
libRbt.so/2013.1/901 2013/11/27
 37 40  0  0  0  0  0  0  0  0999 V2000
  -13.1502    5.5933    6.9361 C   0  0  2  0  0  0  0  0  0  0  0  0
  -13.8036    4.2519    6.4660 C   0  0  1  0  0  0  0  0  0  0  0  0
  -12.7621    3.1783    6.0343 C   0  0  0  0  0  0  0  0  0  0  0  0
  -11.7194    3.7746    5.0565 C   0  0  1  0  0  0  0  0  0  0  0  0
  -11.0459    5.0101    5.6946 C   0  0  1  0  0  0  0  0  0  0  0  0
   -9.9615    5.6011    4.7541 C   0  0  1  0  0  0  0  0  0  0  0  0
   -8.9412    4.5050    4.3250 C   0  0  1  0  0  0  0  0  0  0  0  0
   -9.6494    3.2371    3.7619 C   0  0  2  0  0  0  0  0  0  0  0  0
   -6.7032    4.3503    3.3343 C   0  0  0  0  0  0  0  0  0  0  0  0
  -12.0488    6.0011    6.0611 O   0  0  0  0  0  0  0  0  0  0  0  0
  -10.7280    2.7917    4.6405 O   0  0  0  0  0  0  0  0  0  0  0  0
  -14.6591    3.7087    7.5433 N   0  0  0  0  0  0  0  0  0  0  0  0
   -7.9876    5.0831    3.3556 N   0  0  0  0  0  0  0  0  0  0  0  0
  -10.5473    6.2312    3.6222 O   0  0  0  0  0  0  0  0  0  0  0  0
   -8.6804    2.1729    3.5317 O   0  0  0  0  0  0  0  0  0  0  0  0
  -12.6950    5.5020    8.3206 O   0  0  0  0  0  0  0  0  0  0  0  0
   -8.5798    1.6000    2.1917 C   0  0  2  0  0  0  0  0  0  0  0  0
   -8.1563    0.1050    2.2551 C   0  0  1  0  0  0  0  0  0  0  0  0
   -6.6731   -0.0551    2.6961 C   0  0  2  0  0  0  0  0  0  0  0  0
   -5.7275    0.8069    1.8103 C   0  0  1  0  0  0  0  0  0  0  0  0
   -6.2062    2.2841    1.7464 C   0  0  1  0  0  0  0  0  0  0  0  0
   -5.3543    3.1252    0.7599 C   0  0  0  0  0  0  0  0  0  0  0  0
   -7.6195    2.3460    1.3856 O   0  0  0  0  0  0  0  0  0  0  0  0
   -4.3238    0.7133    2.2680 N   0  0  0  0  0  0  0  0  0  0  0  0
   -9.0407   -0.6309    3.0983 O   0  0  0  0  0  0  0  0  0  0  0  0
   -6.2783   -1.4253    2.6873 O   0  0  0  0  0  0  0  0  0  0  0  0
   -5.4486    2.6053   -0.5623 O   0  0  0  0  0  0  0  0  0  0  0  0
  -13.3593    6.3424    9.3088 C   0  0  1  0  0  0  0  0  0  0  0  0
  -13.5484    7.7992    8.8005 C   0  0  1  0  0  0  0  0  0  0  0  0
  -14.1699    8.7012    9.9038 C   0  0  2  0  0  0  0  0  0  0  0  0
  -15.4973    8.1098   10.4800 C   0  0  1  0  0  0  0  0  0  0  0  0
  -15.3718    6.6074   10.8733 C   0  0  0  0  0  0  0  0  0  0  0  0
  -14.7255    5.7437    9.7486 C   0  0  2  0  0  0  0  0  0  0  0  0
  -15.9786    8.9151   11.6228 N   0  0  0  0  0  0  0  0  0  0  0  0
  -14.5952    4.3474   10.2187 N   0  0  0  0  0  0  0  0  0  0  0  0
  -12.3139    8.3398    8.3412 O   0  0  0  0  0  0  0  0  0  0  0  0
  -14.3863   10.0192    9.4059 O   0  0  0  0  0  0  0  0  0  0  0  0
  1  2  1  0  0  0  0
  1 16  1  1  0  0  0
  2  3  1  0  0  0  0
  2 12  1  1  0  0  0
  4 11  1  1  0  0  0
  4  3  1  0  0  0  0
  5  4  1  0  0  0  0
  5 10  1  6  0  0  0
  6  7  1  0  0  0  0
  6  5  1  0  0  0  0
  6 14  1  6  0  0  0
  7  8  1  0  0  0  0
  7 13  1  6  0  0  0
  8 15  1  1  0  0  0
  8 11  1  0  0  0  0
  9 13  1  0  0  0  0
 10  1  1  0  0  0  0
 17 15  1  1  0  0  0
 17 18  1  0  0  0  0
 18 25  1  1  0  0  0
 19 18  1  0  0  0  0
 19 26  1  6  0  0  0
 20 19  1  0  0  0  0
 20 24  1  1  0  0  0
 21 23  1  0  0  0  0
 21 20  1  0  0  0  0
 21 22  1  6  0  0  0
 23 17  1  0  0  0  0
 27 22  1  0  0  0  0
 28 29  1  0  0  0  0
 28 16  1  6  0  0  0
 29 36  1  1  0  0  0
 30 37  1  6  0  0  0
 30 29  1  0  0  0  0
 31 30  1  0  0  0  0
 31 34  1  1  0  0  0
 32 31  1  0  0  0  0
 32 33  1  0  0  0  0
 33 28  1  0  0  0  0
 33 35  1  1  0  0  0
M  END
>  <CHROM.1>
-159.48577913,-123.37082298,155.75238145,78.45755764,-149.30101479,-114.30748140
-49.83977681,-162.72791374,60.94211967,-175.26360300,-174.15043435,-45.02361710
-167.47140590,-171.05686787,58.43232091,108.29958656,-10.57414928,4.25292244
5.45259349,2.58122750,0.72863298,0.10355749

>  <Name>
lig.pdb

>  <RI>
0

>  <Rbt.Current_Directory>
/home/afrankz/demos/rdock_decoys_rna/rnas/2m4q

>  <Rbt.Executable>
rbdock ($Id: //depot/dev/client3/rdock/2013.1/src/exe/rbdock.cxx#4 $)

>  <Rbt.Library>
libRbt.so (2013.1, Build901 2013/11/27)

>  <Rbt.Parameter_File>
/export/apps/rDock/src/rDock_2013.1_src/data/scripts/dock_solv.prm

>  <Rbt.Receptor>
prm/blind_docking_80.prm

>  <SCORE>
27.2181

>  <SCORE.INTER>
-0.85261

>  <SCORE.INTER.CONST>
1

>  <SCORE.INTER.POLAR>
-2.87335

>  <SCORE.INTER.ROT>
10

>  <SCORE.INTER.SOLV>
21.6137

>  <SCORE.INTER.VDW>
-8.46181

>  <SCORE.INTER.norm>
-0.0230435

>  <SCORE.INTRA>
-0.882273

>  <SCORE.INTRA.DIHEDRAL>
-17.0895

>  <SCORE.INTRA.DIHEDRAL.0>
44.8331

>  <SCORE.INTRA.POLAR>
-0.0113619

>  <SCORE.INTRA.POLAR.0>
-0.108895

>  <SCORE.INTRA.REPUL>
-0.00912235

>  <SCORE.INTRA.REPUL.0>
0.00912235

>  <SCORE.INTRA.SOLV>
0.247481

>  <SCORE.INTRA.SOLV.lig_0>
-53.9067

>  <SCORE.INTRA.VDW>
7.62298

>  <SCORE.INTRA.VDW.0>
-2.93492

>  <SCORE.INTRA.norm>
-0.0238452

>  <SCORE.RESTR>
28.953

>  <SCORE.RESTR.CAVITY>
28.953

>  <SCORE.RESTR.norm>
0.782514

>  <SCORE.SYSTEM>
0

>  <SCORE.SYSTEM.CONST>
0

>  <SCORE.SYSTEM.DIHEDRAL>
0

>  <SCORE.SYSTEM.SOLV>
0

>  <SCORE.SYSTEM.norm>
0

>  <SCORE.heavy>
37

>  <SCORE.norm>
0.735625

>  <RMSD>
13.526

$$$$
lig.pdb
 OpenBabel11021811453D
libRbt.so/2013.1/901 2013/11/27
 37 40  0  0  0  0  0  0  0  0999 V2000
    2.0341   -1.7176   14.7548 C   0  0  2  0  0  0  0  0  0  0  0  0
    1.6077   -1.0305   13.4157 C   0  0  1  0  0  0  0  0  0  0  0  0
    0.3273   -0.1556   13.5533 C   0  0  0  0  0  0  0  0  0  0  0  0
   -0.8014   -0.9296   14.2784 C   0  0  1  0  0  0  0  0  0  0  0  0
   -0.2966   -1.4357   15.6482 C   0  0  1  0  0  0  0  0  0  0  0  0
   -1.4231   -2.1758   16.4180 C   0  0  1  0  0  0  0  0  0  0  0  0
   -2.6970   -1.2861   16.5293 C   0  0  1  0  0  0  0  0  0  0  0  0
   -3.1367   -0.7213   15.1459 C   0  0  2  0  0  0  0  0  0  0  0  0
   -3.3024   -2.7594   18.3939 C   0  0  0  0  0  0  0  0  0  0  0  0
    0.8852   -2.2699   15.4759 O   0  0  0  0  0  0  0  0  0  0  0  0
   -2.0109   -0.1313   14.4262 O   0  0  0  0  0  0  0  0  0  0  0  0
    2.7212   -0.2035   12.9021 N   0  0  0  0  0  0  0  0  0  0  0  0
   -3.7744   -2.0610   17.1788 N   0  0  0  0  0  0  0  0  0  0  0  0
   -1.7213   -3.4297   15.8177 O   0  0  0  0  0  0  0  0  0  0  0  0
   -4.2218    0.2380   15.3096 O   0  0  0  0  0  0  0  0  0  0  0  0
    2.7766   -0.7945   15.6086 O   0  0  0  0  0  0  0  0  0  0  0  0
   -4.2715    1.3930   14.4165 C   0  0  2  0  0  0  0  0  0  0  0  0
   -4.0700    2.7174   15.2065 C   0  0  1  0  0  0  0  0  0  0  0  0
   -5.3016    3.0498   16.0968 C   0  0  2  0  0  0  0  0  0  0  0  0
   -6.6169    3.0328   15.2651 C   0  0  1  0  0  0  0  0  0  0  0  0
   -6.7612    1.7079   14.4655 C   0  0  1  0  0  0  0  0  0  0  0  0
   -7.9963    1.7310   13.5273 C   0  0  0  0  0  0  0  0  0  0  0  0
   -5.5445    1.4372   13.7053 O   0  0  0  0  0  0  0  0  0  0  0  0
   -7.7995    3.2798   16.1189 N   0  0  0  0  0  0  0  0  0  0  0  0
   -2.8651    2.6680   15.9683 O   0  0  0  0  0  0  0  0  0  0  0  0
   -5.1321    4.2981   16.7649 O   0  0  0  0  0  0  0  0  0  0  0  0
   -8.1255    0.4972   12.8284 O   0  0  0  0  0  0  0  0  0  0  0  0
    4.2260   -0.9378   15.6615 C   0  0  1  0  0  0  0  0  0  0  0  0
    4.7252   -1.2754   17.0943 C   0  0  1  0  0  0  0  0  0  0  0  0
    6.2781   -1.3284   17.1486 C   0  0  2  0  0  0  0  0  0  0  0  0
    6.8795   -2.2982   16.0801 C   0  0  1  0  0  0  0  0  0  0  0  0
    6.2935   -2.0691   14.6547 C   0  0  0  0  0  0  0  0  0  0  0  0
    4.7366   -2.0016   14.6485 C   0  0  2  0  0  0  0  0  0  0  0  0
    8.3553   -2.2111   16.0634 N   0  0  0  0  0  0  0  0  0  0  0  0
    4.2647   -1.7314   13.2731 N   0  0  0  0  0  0  0  0  0  0  0  0
    4.2176   -0.3408   18.0411 O   0  0  0  0  0  0  0  0  0  0  0  0
    6.7184   -1.6911   18.4548 O   0  0  0  0  0  0  0  0  0  0  0  0
  1  2  1  0  0  0  0
  1 16  1  1  0  0  0
  2  3  1  0  0  0  0
  2 12  1  1  0  0  0
  4 11  1  1  0  0  0
  4  3  1  0  0  0  0
  5  4  1  0  0  0  0
  5 10  1  6  0  0  0
  6  7  1  0  0  0  0
  6  5  1  0  0  0  0
  6 14  1  6  0  0  0
  7  8  1  0  0  0  0
  7 13  1  6  0  0  0
  8 15  1  1  0  0  0
  8 11  1  0  0  0  0
  9 13  1  0  0  0  0
 10  1  1  0  0  0  0
 17 15  1  1  0  0  0
 17 18  1  0  0  0  0
 18 25  1  1  0  0  0
 19 18  1  0  0  0  0
 19 26  1  6  0  0  0
 20 19  1  0  0  0  0
 20 24  1  1  0  0  0
 21 23  1  0  0  0  0
 21 20  1  0  0  0  0
 21 22  1  6  0  0  0
 23 17  1  0  0  0  0
 27 22  1  0  0  0  0
 28 29  1  0  0  0  0
 28 16  1  1  0  0  0
 29 36  1  1  0  0  0
 30 37  1  1  0  0  0
 30 29  1  0  0  0  0
 31 30  1  0  0  0  0
 31 34  1  6  0  0  0
 32 31  1  0  0  0  0
 32 33  1  0  0  0  0
 33 28  1  0  0  0  0
 33 35  1  6  0  0  0
M  END
>  <CHROM.1>
-59.15197324,144.76811275,47.13355648,-159.27583843,-115.26134247,-102.40181004
39.30135189,179.99572304,-178.67878248,-28.35494978,-177.81909580,-118.44279993
-42.77730064,-132.29850039,174.90484623,-147.33633475,-0.58611466,-0.27692926
15.43099571,0.29570005,0.02496485,2.96912968

>  <Name>
lig.pdb

>  <RI>
0

>  <Rbt.Current_Directory>
/home/itssahil/PROJECTS/Mol_Feturizer/New_Systems/rnas/2m4q

>  <Rbt.Executable>
rbdock ($Id: //depot/dev/client3/rdock/2013.1/src/exe/rbdock.cxx#4 $)

>  <Rbt.Library>
libRbt.so (2013.1, Build901 2013/11/27)

>  <Rbt.Parameter_File>
/export/apps/rDock/src/rDock_2013.1_src/data/scripts/dock_solv.prm

>  <Rbt.Receptor>
prm/blind_docking_20.prm

>  <SCORE>
25.4124

>  <SCORE.INTER>
-4.35346

>  <SCORE.INTER.CONST>
1

>  <SCORE.INTER.POLAR>
-2.38983

>  <SCORE.INTER.ROT>
10

>  <SCORE.INTER.SOLV>
22.9962

>  <SCORE.INTER.VDW>
-12.8683

>  <SCORE.INTER.norm>
-0.117661

>  <SCORE.INTRA>
11.3502

>  <SCORE.INTRA.DIHEDRAL>
-5.49874

>  <SCORE.INTRA.DIHEDRAL.0>
44.8331

>  <SCORE.INTRA.POLAR>
-0.115588

>  <SCORE.INTRA.POLAR.0>
-0.108895

>  <SCORE.INTRA.REPUL>
0.768818

>  <SCORE.INTRA.REPUL.0>
0.00912235

>  <SCORE.INTRA.SOLV>
-0.613174

>  <SCORE.INTRA.SOLV.lig_0>
-53.9067

>  <SCORE.INTRA.VDW>
10.955

>  <SCORE.INTRA.VDW.0>
-2.93492

>  <SCORE.INTRA.norm>
0.306761

>  <SCORE.RESTR>
18.4156

>  <SCORE.RESTR.CAVITY>
18.4156

>  <SCORE.RESTR.norm>
0.49772

>  <SCORE.SYSTEM>
0

>  <SCORE.SYSTEM.CONST>
0

>  <SCORE.SYSTEM.DIHEDRAL>
0

>  <SCORE.SYSTEM.SOLV>
0

>  <SCORE.SYSTEM.norm>
0

>  <SCORE.heavy>
37

>  <SCORE.norm>
0.686821

>  <RMSD>
13.547

$$$$
lig.pdb
 OpenBabel11021811453D
libRbt.so/2013.1/901 2013/11/27
 37 40  0  0  0  0  0  0  0  0999 V2000
   -3.4351   12.3180   10.3957 C   0  0  2  0  0  0  0  0  0  0  0  0
   -4.3148   11.5869    9.3286 C   0  0  1  0  0  0  0  0  0  0  0  0
   -4.2924   12.2785    7.9340 C   0  0  0  0  0  0  0  0  0  0  0  0
   -4.5513   13.8001    8.0621 C   0  0  1  0  0  0  0  0  0  0  0  0
   -3.5287   14.4278    9.0356 C   0  0  1  0  0  0  0  0  0  0  0  0
   -3.7354   15.9622    9.1473 C   0  0  1  0  0  0  0  0  0  0  0  0
   -3.7237   16.6282    7.7390 C   0  0  1  0  0  0  0  0  0  0  0  0
   -4.7025   15.9244    6.7528 C   0  0  2  0  0  0  0  0  0  0  0  0
   -2.8311   18.8449    8.2899 C   0  0  0  0  0  0  0  0  0  0  0  0
   -3.5977   13.7723   10.3348 O   0  0  0  0  0  0  0  0  0  0  0  0
   -4.5298   14.4740    6.7708 O   0  0  0  0  0  0  0  0  0  0  0  0
   -3.8715   10.1823    9.1935 N   0  0  0  0  0  0  0  0  0  0  0  0
   -4.0216   18.0684    7.8813 N   0  0  0  0  0  0  0  0  0  0  0  0
   -4.9295   16.2725    9.8540 O   0  0  0  0  0  0  0  0  0  0  0  0
   -4.5412   16.4601    5.4068 O   0  0  0  0  0  0  0  0  0  0  0  0
   -2.0272   11.9558   10.2571 O   0  0  0  0  0  0  0  0  0  0  0  0
   -5.5310   16.1057    4.3926 C   0  0  2  0  0  0  0  0  0  0  0  0
   -5.2934   16.9040    3.0792 C   0  0  1  0  0  0  0  0  0  0  0  0
   -5.6508   18.4086    3.2473 C   0  0  2  0  0  0  0  0  0  0  0  0
   -7.0899   18.5844    3.8131 C   0  0  1  0  0  0  0  0  0  0  0  0
   -7.2947   17.7437    5.1041 C   0  0  1  0  0  0  0  0  0  0  0  0
   -8.7622   17.8004    5.6036 C   0  0  0  0  0  0  0  0  0  0  0  0
   -6.8813   16.3613    4.8822 O   0  0  0  0  0  0  0  0  0  0  0  0
   -7.4109   20.0105    4.0406 N   0  0  0  0  0  0  0  0  0  0  0  0
   -3.9545   16.7269    2.6204 O   0  0  0  0  0  0  0  0  0  0  0  0
   -5.4912   19.1161    2.0196 O   0  0  0  0  0  0  0  0  0  0  0  0
   -9.6331   17.1337    4.6957 O   0  0  0  0  0  0  0  0  0  0  0  0
   -1.1019   12.4313   11.2777 C   0  0  1  0  0  0  0  0  0  0  0  0
   -0.8025   13.9493   11.1295 C   0  0  1  0  0  0  0  0  0  0  0  0
    0.2591   14.4148   12.1656 C   0  0  2  0  0  0  0  0  0  0  0  0
   -0.1343   14.0405   13.6316 C   0  0  1  0  0  0  0  0  0  0  0  0
   -0.5697   12.5520   13.7818 C   0  0  0  0  0  0  0  0  0  0  0  0
   -1.6177   12.1214   12.7117 C   0  0  2  0  0  0  0  0  0  0  0  0
    0.9619   14.3660   14.5689 N   0  0  0  0  0  0  0  0  0  0  0  0
   -1.9376   10.6885   12.8901 N   0  0  0  0  0  0  0  0  0  0  0  0
   -0.3835   14.2560    9.8036 O   0  0  0  0  0  0  0  0  0  0  0  0
    0.4833   15.8179   12.0526 O   0  0  0  0  0  0  0  0  0  0  0  0
  1  2  1  0  0  0  0
  1 16  1  6  0  0  0
  2  3  1  0  0  0  0
  2 12  1  6  0  0  0
  4 11  1  6  0  0  0
  4  3  1  0  0  0  0
  5  4  1  0  0  0  0
  5 10  1  1  0  0  0
  6  7  1  0  0  0  0
  6  5  1  0  0  0  0
  6 14  1  6  0  0  0
  7  8  1  0  0  0  0
  7 13  1  1  0  0  0
  8 15  1  6  0  0  0
  8 11  1  0  0  0  0
  9 13  1  0  0  0  0
 10  1  1  0  0  0  0
 17 15  1  1  0  0  0
 17 18  1  0  0  0  0
 18 25  1  1  0  0  0
 19 18  1  0  0  0  0
 19 26  1  6  0  0  0
 20 19  1  0  0  0  0
 20 24  1  1  0  0  0
 21 23  1  0  0  0  0
 21 20  1  0  0  0  0
 21 22  1  6  0  0  0
 23 17  1  0  0  0  0
 27 22  1  0  0  0  0
 28 29  1  0  0  0  0
 28 16  1  6  0  0  0
 29 36  1  6  0  0  0
 30 37  1  1  0  0  0
 30 29  1  0  0  0  0
 31 30  1  0  0  0  0
 31 34  1  1  0  0  0
 32 31  1  0  0  0  0
 32 33  1  0  0  0  0
 33 28  1  0  0  0  0
 33 35  1  6  0  0  0
M  END
>  <CHROM.1>
-51.49620892,-169.01177725,80.61633670,-63.89260036,173.01460892,-172.90261236
-58.73693098,-76.58308486,67.74344744,-69.63931068,-178.32520919,-74.35814781
57.63815048,-57.49776139,-62.57469789,176.25589216,-3.80118114,15.23224379
8.17869922,0.79938518,0.76547576,2.70507118

>  <Name>
lig.pdb

>  <RI>
3.60165e+07

>  <Rbt.Current_Directory>
/home/itssahil/PROJECTS/Mol_Feturizer/New_Systems/rnas/2m4q

>  <Rbt.Executable>
rbdock ($Id: //depot/dev/client3/rdock/2013.1/src/exe/rbdock.cxx#4 $)

>  <Rbt.Library>
libRbt.so (2013.1, Build901 2013/11/27)

>  <Rbt.Parameter_File>
/export/apps/rDock/src/rDock_2013.1_src/data/scripts/dock_solv.prm

>  <Rbt.Receptor>
prm/pocket_docking_8.prm

>  <SCORE>
-45.8161

>  <SCORE.INTER>
-25.2024

>  <SCORE.INTER.CONST>
1

>  <SCORE.INTER.POLAR>
-4.78603

>  <SCORE.INTER.ROT>
10

>  <SCORE.INTER.SOLV>
11.8144

>  <SCORE.INTER.VDW>
-15.053

>  <SCORE.INTER.norm>
-0.681145

>  <SCORE.INTRA>
-20.6254

>  <SCORE.INTRA.DIHEDRAL>
-39.3791

>  <SCORE.INTRA.DIHEDRAL.0>
44.8331

>  <SCORE.INTRA.POLAR>
0.0331357

>  <SCORE.INTRA.POLAR.0>
-0.108895

>  <SCORE.INTRA.REPUL>
-0.00912235

>  <SCORE.INTRA.REPUL.0>
0.00912235

>  <SCORE.INTRA.SOLV>
-1.62223

>  <SCORE.INTRA.SOLV.lig_0>
-53.9067

>  <SCORE.INTRA.VDW>
-0.191825

>  <SCORE.INTRA.VDW.0>
-2.93492

>  <SCORE.INTRA.norm>
-0.557444

>  <SCORE.RESTR>
0.01167

>  <SCORE.RESTR.CAVITY>
0.01167

>  <SCORE.RESTR.norm>
0.000315405

>  <SCORE.SYSTEM>
0

>  <SCORE.SYSTEM.CONST>
0

>  <SCORE.SYSTEM.DIHEDRAL>
0

>  <SCORE.SYSTEM.SOLV>
0

>  <SCORE.SYSTEM.norm>
0

>  <SCORE.heavy>
37

>  <SCORE.norm>
-1.23827

>  <RMSD>
13.576

$$$$
lig.pdb
 OpenBabel11021811453D
libRbt.so/2013.1/901 2013/11/27
 37 40  0  0  0  0  0  0  0  0999 V2000
  -14.3052    7.4306    7.8625 C   0  0  2  0  0  0  0  0  0  0  0  0
  -13.5708    6.2445    8.5703 C   0  0  1  0  0  0  0  0  0  0  0  0
  -12.1898    5.9086    7.9347 C   0  0  0  0  0  0  0  0  0  0  0  0
  -12.3007    5.7823    6.3950 C   0  0  1  0  0  0  0  0  0  0  0  0
  -12.9112    7.0727    5.8038 C   0  0  1  0  0  0  0  0  0  0  0  0
  -12.9909    6.9923    4.2556 C   0  0  1  0  0  0  0  0  0  0  0  0
  -11.6014    6.6408    3.6453 C   0  0  1  0  0  0  0  0  0  0  0  0
  -10.9707    5.3844    4.3160 C   0  0  2  0  0  0  0  0  0  0  0  0
  -10.4636    6.0997    1.5414 C   0  0  0  0  0  0  0  0  0  0  0  0
  -14.2117    7.3390    6.4037 O   0  0  0  0  0  0  0  0  0  0  0  0
  -11.0201    5.4737    5.7732 O   0  0  0  0  0  0  0  0  0  0  0  0
  -13.3948    6.5519   10.0063 N   0  0  0  0  0  0  0  0  0  0  0  0
  -11.7413    6.4767    2.1836 N   0  0  0  0  0  0  0  0  0  0  0  0
  -13.9864    6.0674    3.8370 O   0  0  0  0  0  0  0  0  0  0  0  0
   -9.6060    5.1865    3.8436 O   0  0  0  0  0  0  0  0  0  0  0  0
  -13.7969    8.7185    8.3265 O   0  0  0  0  0  0  0  0  0  0  0  0
   -8.7837    4.1700    4.4952 C   0  0  2  0  0  0  0  0  0  0  0  0
   -7.5917    3.7519    3.5880 C   0  0  1  0  0  0  0  0  0  0  0  0
   -8.0661    2.9247    2.3589 C   0  0  2  0  0  0  0  0  0  0  0  0
   -8.9464    1.7191    2.7992 C   0  0  1  0  0  0  0  0  0  0  0  0
  -10.1032    2.1762    3.7310 C   0  0  1  0  0  0  0  0  0  0  0  0
  -10.9069    0.9719    4.2876 C   0  0  0  0  0  0  0  0  0  0  0  0
   -9.5841    2.9951    4.8226 O   0  0  0  0  0  0  0  0  0  0  0  0
   -9.4580    0.9684    1.6316 N   0  0  0  0  0  0  0  0  0  0  0  0
   -6.8358    4.8960    3.1950 O   0  0  0  0  0  0  0  0  0  0  0  0
   -6.9591    2.4922    1.5710 O   0  0  0  0  0  0  0  0  0  0  0  0
  -10.2410   -0.2551    4.0077 O   0  0  0  0  0  0  0  0  0  0  0  0
  -14.6555    9.5117    9.1969 C   0  0  1  0  0  0  0  0  0  0  0  0
  -13.8947   10.7114    9.8279 C   0  0  1  0  0  0  0  0  0  0  0  0
  -14.8002   11.4864   10.8263 C   0  0  2  0  0  0  0  0  0  0  0  0
  -16.1539   11.9303   10.1826 C   0  0  1  0  0  0  0  0  0  0  0  0
  -16.8740   10.7742    9.4259 C   0  0  0  0  0  0  0  0  0  0  0  0
  -15.9261   10.0111    8.4523 C   0  0  2  0  0  0  0  0  0  0  0  0
  -17.0456   12.5317   11.1972 N   0  0  0  0  0  0  0  0  0  0  0  0
  -16.6695    8.9022    7.8157 N   0  0  0  0  0  0  0  0  0  0  0  0
  -12.6984   10.2744   10.4645 O   0  0  0  0  0  0  0  0  0  0  0  0
  -14.1066   12.6135   11.3556 O   0  0  0  0  0  0  0  0  0  0  0  0
  1  2  1  0  0  0  0
  1 16  1  1  0  0  0
  2  3  1  0  0  0  0
  2 12  1  1  0  0  0
  4 11  1  6  0  0  0
  4  3  1  0  0  0  0
  5  4  1  0  0  0  0
  5 10  1  1  0  0  0
  6  7  1  0  0  0  0
  6  5  1  0  0  0  0
  6 14  1  1  0  0  0
  7  8  1  0  0  0  0
  7 13  1  6  0  0  0
  8 15  1  1  0  0  0
  8 11  1  0  0  0  0
  9 13  1  0  0  0  0
 10  1  1  0  0  0  0
 17 15  1  6  0  0  0
 17 18  1  0  0  0  0
 18 25  1  6  0  0  0
 19 18  1  0  0  0  0
 19 26  1  1  0  0  0
 20 19  1  0  0  0  0
 20 24  1  6  0  0  0
 21 23  1  0  0  0  0
 21 20  1  0  0  0  0
 21 22  1  1  0  0  0
 23 17  1  0  0  0  0
 27 22  1  0  0  0  0
 28 29  1  0  0  0  0
 28 16  1  6  0  0  0
 29 36  1  1  0  0  0
 30 37  1  6  0  0  0
 30 29  1  0  0  0  0
 31 30  1  0  0  0  0
 31 34  1  1  0  0  0
 32 31  1  0  0  0  0
 32 33  1  0  0  0  0
 33 28  1  0  0  0  0
 33 35  1  1  0  0  0
M  END
>  <CHROM.1>
17.97661916,171.58153679,-178.24538999,114.91590249,160.23375143,-107.69855828
-54.90049996,165.96414155,10.70952176,-48.95155429,-144.34580226,169.04460166
-29.64718959,-35.80570421,178.39617815,-101.55343510,-12.12031206,6.43754556
6.08584985,2.42877788,0.83838031,0.01453910

>  <Name>
lig.pdb

>  <RI>
0

>  <Rbt.Current_Directory>
/home/afrankz/demos/rdock_decoys_rna/rnas/2m4q

>  <Rbt.Executable>
rbdock ($Id: //depot/dev/client3/rdock/2013.1/src/exe/rbdock.cxx#4 $)

>  <Rbt.Library>
libRbt.so (2013.1, Build901 2013/11/27)

>  <Rbt.Parameter_File>
/export/apps/rDock/src/rDock_2013.1_src/data/scripts/dock_solv.prm

>  <Rbt.Receptor>
prm/blind_docking_80.prm

>  <SCORE>
33.5089

>  <SCORE.INTER>
1.6689

>  <SCORE.INTER.CONST>
1

>  <SCORE.INTER.POLAR>
-1.51089

>  <SCORE.INTER.ROT>
10

>  <SCORE.INTER.SOLV>
25.3279

>  <SCORE.INTER.VDW>
-12.5604

>  <SCORE.INTER.norm>
0.0451054

>  <SCORE.INTRA>
2.02342

>  <SCORE.INTRA.DIHEDRAL>
-7.91555

>  <SCORE.INTRA.DIHEDRAL.0>
44.8331

>  <SCORE.INTRA.POLAR>
0.000387936

>  <SCORE.INTRA.POLAR.0>
-0.108895

>  <SCORE.INTRA.REPUL>
-0.00912235

>  <SCORE.INTRA.REPUL.0>
0.00912235

>  <SCORE.INTRA.SOLV>
-0.672683

>  <SCORE.INTRA.SOLV.lig_0>
-53.9067

>  <SCORE.INTRA.VDW>
6.36183

>  <SCORE.INTRA.VDW.0>
-2.93492

>  <SCORE.INTRA.norm>
0.0546869

>  <SCORE.RESTR>
29.8166

>  <SCORE.RESTR.CAVITY>
29.8166

>  <SCORE.RESTR.norm>
0.805854

>  <SCORE.SYSTEM>
0

>  <SCORE.SYSTEM.CONST>
0

>  <SCORE.SYSTEM.DIHEDRAL>
0

>  <SCORE.SYSTEM.SOLV>
0

>  <SCORE.SYSTEM.norm>
0

>  <SCORE.heavy>
37

>  <SCORE.norm>
0.905646

>  <RMSD>
14.330

$$$$
lig.pdb
 OpenBabel11021811453D
libRbt.so/2013.1/901 2013/11/27
 37 40  0  0  0  0  0  0  0  0999 V2000
  -14.7184    6.7502    8.1540 C   0  0  2  0  0  0  0  0  0  0  0  0
  -14.3162    5.3644    8.7579 C   0  0  1  0  0  0  0  0  0  0  0  0
  -12.9794    4.8083    8.1856 C   0  0  0  0  0  0  0  0  0  0  0  0
  -12.9646    4.8754    6.6383 C   0  0  1  0  0  0  0  0  0  0  0  0
  -13.2358    6.3232    6.1717 C   0  0  1  0  0  0  0  0  0  0  0  0
  -13.1804    6.4291    4.6240 C   0  0  1  0  0  0  0  0  0  0  0  0
  -11.8409    5.8533    4.0755 C   0  0  1  0  0  0  0  0  0  0  0  0
  -11.5506    4.4256    4.6263 C   0  0  2  0  0  0  0  0  0  0  0  0
  -11.4626    7.1971    2.0593 C   0  0  0  0  0  0  0  0  0  0  0  0
  -14.5052    6.7982    6.7058 O   0  0  0  0  0  0  0  0  0  0  0  0
  -11.7211    4.3661    6.0759 O   0  0  0  0  0  0  0  0  0  0  0  0
  -14.2202    5.4700   10.2300 N   0  0  0  0  0  0  0  0  0  0  0  0
  -11.8698    5.8816    2.5985 N   0  0  0  0  0  0  0  0  0  0  0  0
  -14.3000    5.7918    4.0223 O   0  0  0  0  0  0  0  0  0  0  0  0
  -10.2170    3.9894    4.2318 O   0  0  0  0  0  0  0  0  0  0  0  0
  -14.0027    7.8403    8.8114 O   0  0  0  0  0  0  0  0  0  0  0  0
  -10.0556    3.3198    2.9435 C   0  0  2  0  0  0  0  0  0  0  0  0
   -9.1914    2.0349    3.0877 C   0  0  1  0  0  0  0  0  0  0  0  0
   -7.6995    2.3731    3.3705 C   0  0  2  0  0  0  0  0  0  0  0  0
   -7.1385    3.3669    2.3124 C   0  0  1  0  0  0  0  0  0  0  0  0
   -8.0496    4.6185    2.1755 C   0  0  1  0  0  0  0  0  0  0  0  0
   -7.5794    5.5530    1.0301 C   0  0  0  0  0  0  0  0  0  0  0  0
   -9.4386    4.2172    1.9727 O   0  0  0  0  0  0  0  0  0  0  0  0
   -5.7411    3.7467    2.6149 N   0  0  0  0  0  0  0  0  0  0  0  0
   -9.7364    1.1739    4.0858 O   0  0  0  0  0  0  0  0  0  0  0  0
   -6.9066    1.1898    3.4355 O   0  0  0  0  0  0  0  0  0  0  0  0
   -7.3755    4.8183   -0.1724 O   0  0  0  0  0  0  0  0  0  0  0  0
  -14.7949    8.8630    9.4824 C   0  0  1  0  0  0  0  0  0  0  0  0
  -15.2682    8.4021   10.8895 C   0  0  1  0  0  0  0  0  0  0  0  0
  -16.1905    9.4670   11.5471 C   0  0  2  0  0  0  0  0  0  0  0  0
  -15.5295   10.8829   11.5913 C   0  0  1  0  0  0  0  0  0  0  0  0
  -14.9256   11.3137   10.2211 C   0  0  0  0  0  0  0  0  0  0  0  0
  -14.0255   10.2104    9.5875 C   0  0  2  0  0  0  0  0  0  0  0  0
  -16.4875   11.8946   12.0861 N   0  0  0  0  0  0  0  0  0  0  0  0
  -13.5360   10.6753    8.2716 N   0  0  0  0  0  0  0  0  0  0  0  0
  -15.9248    7.1408   10.8152 O   0  0  0  0  0  0  0  0  0  0  0  0
  -16.5725    9.0542   12.8568 O   0  0  0  0  0  0  0  0  0  0  0  0
  1  2  1  0  0  0  0
  1 16  1  1  0  0  0
  2  3  1  0  0  0  0
  2 12  1  1  0  0  0
  4 11  1  1  0  0  0
  4  3  1  0  0  0  0
  5  4  1  0  0  0  0
  5 10  1  6  0  0  0
  6  7  1  0  0  0  0
  6  5  1  0  0  0  0
  6 14  1  6  0  0  0
  7  8  1  0  0  0  0
  7 13  1  6  0  0  0
  8 15  1  1  0  0  0
  8 11  1  0  0  0  0
  9 13  1  0  0  0  0
 10  1  1  0  0  0  0
 17 15  1  1  0  0  0
 17 18  1  0  0  0  0
 18 25  1  1  0  0  0
 19 18  1  0  0  0  0
 19 26  1  6  0  0  0
 20 19  1  0  0  0  0
 20 24  1  1  0  0  0
 21 23  1  0  0  0  0
 21 20  1  0  0  0  0
 21 22  1  6  0  0  0
 23 17  1  0  0  0  0
 27 22  1  0  0  0  0
 28 29  1  0  0  0  0
 28 16  1  1  0  0  0
 29 36  1  6  0  0  0
 30 37  1  1  0  0  0
 30 29  1  0  0  0  0
 31 30  1  0  0  0  0
 31 34  1  6  0  0  0
 32 31  1  0  0  0  0
 32 33  1  0  0  0  0
 33 28  1  0  0  0  0
 33 35  1  6  0  0  0
M  END
>  <CHROM.1>
72.88009857,-87.37875308,84.29080782,-58.03259019,-133.00696212,-120.23751258
64.99734279,56.31882768,49.97176146,-44.58323128,-172.18772610,80.40118296
-55.10980740,-176.02956519,-156.73547260,75.25998268,-12.12702006,6.09626558
6.20252425,2.99138860,0.95167844,-0.41921967

>  <Name>
lig.pdb

>  <RI>
0

>  <Rbt.Current_Directory>
/home/afrankz/demos/rdock_decoys_rna/rnas/2m4q

>  <Rbt.Executable>
rbdock ($Id: //depot/dev/client3/rdock/2013.1/src/exe/rbdock.cxx#4 $)

>  <Rbt.Library>
libRbt.so (2013.1, Build901 2013/11/27)

>  <Rbt.Parameter_File>
/export/apps/rDock/src/rDock_2013.1_src/data/scripts/dock_solv.prm

>  <Rbt.Receptor>
prm/blind_docking_80.prm

>  <SCORE>
36.2559

>  <SCORE.INTER>
17.3414

>  <SCORE.INTER.CONST>
1

>  <SCORE.INTER.POLAR>
-2.07477

>  <SCORE.INTER.ROT>
10

>  <SCORE.INTER.SOLV>
19.1703

>  <SCORE.INTER.VDW>
1.82005

>  <SCORE.INTER.norm>
0.468687

>  <SCORE.INTRA>
-14.7276

>  <SCORE.INTRA.DIHEDRAL>
-21.9078

>  <SCORE.INTRA.DIHEDRAL.0>
44.8331

>  <SCORE.INTRA.POLAR>
-1.34759

>  <SCORE.INTRA.POLAR.0>
-0.108895

>  <SCORE.INTRA.REPUL>
-0.00912235

>  <SCORE.INTRA.REPUL.0>
0.00912235

>  <SCORE.INTRA.SOLV>
0.130482

>  <SCORE.INTRA.SOLV.lig_0>
-53.9067

>  <SCORE.INTRA.VDW>
0.788492

>  <SCORE.INTRA.VDW.0>
-2.93492

>  <SCORE.INTRA.norm>
-0.398043

>  <SCORE.RESTR>
33.6421

>  <SCORE.RESTR.CAVITY>
33.6421

>  <SCORE.RESTR.norm>
0.909247

>  <SCORE.SYSTEM>
0

>  <SCORE.SYSTEM.CONST>
0

>  <SCORE.SYSTEM.DIHEDRAL>
0

>  <SCORE.SYSTEM.SOLV>
0

>  <SCORE.SYSTEM.norm>
0

>  <SCORE.heavy>
37

>  <SCORE.norm>
0.97989

>  <RMSD>
14.416

$$$$
lig.pdb
 OpenBabel11021811453D
libRbt.so/2013.1/901 2013/11/27
 37 40  0  0  0  0  0  0  0  0999 V2000
  -14.3743    7.2457    6.6261 C   0  0  2  0  0  0  0  0  0  0  0  0
  -15.0486    6.5155    5.4181 C   0  0  1  0  0  0  0  0  0  0  0  0
  -14.4030    5.1363    5.0944 C   0  0  0  0  0  0  0  0  0  0  0  0
  -12.8605    5.2487    5.0110 C   0  0  1  0  0  0  0  0  0  0  0  0
  -12.3055    5.8544    6.3196 C   0  0  1  0  0  0  0  0  0  0  0  0
  -10.7558    5.9354    6.2824 C   0  0  1  0  0  0  0  0  0  0  0  0
  -10.1350    4.5477    5.9424 C   0  0  1  0  0  0  0  0  0  0  0  0
  -10.7703    3.9215    4.6654 C   0  0  2  0  0  0  0  0  0  0  0  0
   -8.0227    4.9368    7.1259 C   0  0  0  0  0  0  0  0  0  0  0  0
  -12.9135    7.1534    6.5745 O   0  0  0  0  0  0  0  0  0  0  0  0
  -12.2294    3.9697    4.7147 O   0  0  0  0  0  0  0  0  0  0  0  0
  -16.4924    6.3374    5.6850 N   0  0  0  0  0  0  0  0  0  0  0  0
   -8.6694    4.6892    5.8191 N   0  0  0  0  0  0  0  0  0  0  0  0
  -10.3125    6.9348    5.3733 O   0  0  0  0  0  0  0  0  0  0  0  0
  -10.2917    2.5580    4.4752 O   0  0  0  0  0  0  0  0  0  0  0  0
  -14.8733    6.7319    7.8987 O   0  0  0  0  0  0  0  0  0  0  0  0
   -9.9360    2.1262    3.1258 C   0  0  2  0  0  0  0  0  0  0  0  0
   -8.4678    2.5107    2.7865 C   0  0  1  0  0  0  0  0  0  0  0  0
   -8.3035    4.0461    2.5979 C   0  0  2  0  0  0  0  0  0  0  0  0
   -9.3298    4.5983    1.5665 C   0  0  1  0  0  0  0  0  0  0  0  0
  -10.7782    4.1624    1.9236 C   0  0  1  0  0  0  0  0  0  0  0  0
  -11.7954    4.5890    0.8330 C   0  0  0  0  0  0  0  0  0  0  0  0
  -10.8361    2.7202    2.1432 O   0  0  0  0  0  0  0  0  0  0  0  0
   -9.2254    6.0680    1.4339 N   0  0  0  0  0  0  0  0  0  0  0  0
   -7.5751    2.0012    3.7755 O   0  0  0  0  0  0  0  0  0  0  0  0
   -6.9685    4.3790    2.2233 O   0  0  0  0  0  0  0  0  0  0  0  0
  -12.0379    5.9910    0.8862 O   0  0  0  0  0  0  0  0  0  0  0  0
  -15.1095    7.6910    8.9704 C   0  0  1  0  0  0  0  0  0  0  0  0
  -14.1002    8.8723    8.9266 C   0  0  1  0  0  0  0  0  0  0  0  0
  -14.3074    9.8313   10.1327 C   0  0  2  0  0  0  0  0  0  0  0  0
  -15.7837   10.3323   10.2494 C   0  0  1  0  0  0  0  0  0  0  0  0
  -16.8253    9.1770   10.1604 C   0  0  0  0  0  0  0  0  0  0  0  0
  -16.5688    8.2282    8.9509 C   0  0  2  0  0  0  0  0  0  0  0  0
  -15.9748   11.1198   11.4860 N   0  0  0  0  0  0  0  0  0  0  0  0
  -17.5642    7.1345    8.9680 N   0  0  0  0  0  0  0  0  0  0  0  0
  -12.7601    8.3926    8.8864 O   0  0  0  0  0  0  0  0  0  0  0  0
  -13.4112   10.9365   10.0496 O   0  0  0  0  0  0  0  0  0  0  0  0
  1  2  1  0  0  0  0
  1 16  1  1  0  0  0
  2  3  1  0  0  0  0
  2 12  1  1  0  0  0
  4 11  1  1  0  0  0
  4  3  1  0  0  0  0
  5  4  1  0  0  0  0
  5 10  1  6  0  0  0
  6  7  1  0  0  0  0
  6  5  1  0  0  0  0
  6 14  1  6  0  0  0
  7  8  1  0  0  0  0
  7 13  1  6  0  0  0
  8 15  1  1  0  0  0
  8 11  1  0  0  0  0
  9 13  1  0  0  0  0
 10  1  1  0  0  0  0
 17 15  1  1  0  0  0
 17 18  1  0  0  0  0
 18 25  1  1  0  0  0
 19 18  1  0  0  0  0
 19 26  1  6  0  0  0
 20 19  1  0  0  0  0
 20 24  1  1  0  0  0
 21 23  1  0  0  0  0
 21 20  1  0  0  0  0
 21 22  1  6  0  0  0
 23 17  1  0  0  0  0
 27 22  1  0  0  0  0
 28 29  1  0  0  0  0
 28 16  1  6  0  0  0
 29 36  1  1  0  0  0
 30 37  1  6  0  0  0
 30 29  1  0  0  0  0
 31 30  1  0  0  0  0
 31 34  1  1  0  0  0
 32 31  1  0  0  0  0
 32 33  1  0  0  0  0
 33 28  1  0  0  0  0
 33 35  1  1  0  0  0
M  END
>  <CHROM.1>
-176.56721765,-137.81673886,70.56623559,-54.78545158,85.54810942,-140.51070962
-38.38616822,63.93051300,-73.82320120,92.62335457,-174.58986756,-33.12968843
68.00816678,57.46908737,70.35355019,-50.71033391,-12.18854665,6.02641271
5.73588328,2.20704373,-0.15252039,1.01089463

>  <Name>
lig.pdb

>  <RI>
1.95696e+07

>  <Rbt.Current_Directory>
/home/itssahil/PROJECTS/Mol_Feturizer/New_Systems/rnas/2m4q

>  <Rbt.Executable>
rbdock ($Id: //depot/dev/client3/rdock/2013.1/src/exe/rbdock.cxx#4 $)

>  <Rbt.Library>
libRbt.so (2013.1, Build901 2013/11/27)

>  <Rbt.Parameter_File>
/export/apps/rDock/src/rDock_2013.1_src/data/scripts/dock_solv.prm

>  <Rbt.Receptor>
prm/blind_docking_100.prm

>  <SCORE>
30.3487

>  <SCORE.INTER>
28.9602

>  <SCORE.INTER.CONST>
1

>  <SCORE.INTER.POLAR>
-2.40669

>  <SCORE.INTER.ROT>
10

>  <SCORE.INTER.SOLV>
19.3447

>  <SCORE.INTER.VDW>
10.6142

>  <SCORE.INTER.norm>
0.782708

>  <SCORE.INTRA>
-14.7099

>  <SCORE.INTRA.DIHEDRAL>
-22.273

>  <SCORE.INTRA.DIHEDRAL.0>
44.8331

>  <SCORE.INTRA.POLAR>
-1.84682

>  <SCORE.INTRA.POLAR.0>
-0.108895

>  <SCORE.INTRA.REPUL>
0.00013449

>  <SCORE.INTRA.REPUL.0>
0.00912235

>  <SCORE.INTRA.SOLV>
1.235

>  <SCORE.INTRA.SOLV.lig_0>
-53.9067

>  <SCORE.INTRA.VDW>
2.08766

>  <SCORE.INTRA.VDW.0>
-2.93492

>  <SCORE.INTRA.norm>
-0.397564

>  <SCORE.RESTR>
16.0984

>  <SCORE.RESTR.CAVITY>
16.0984

>  <SCORE.RESTR.norm>
0.435093

>  <SCORE.SYSTEM>
0

>  <SCORE.SYSTEM.CONST>
0

>  <SCORE.SYSTEM.DIHEDRAL>
0

>  <SCORE.SYSTEM.SOLV>
0

>  <SCORE.SYSTEM.norm>
0

>  <SCORE.heavy>
37

>  <SCORE.norm>
0.820236

>  <RMSD>
14.661

$$$$
lig.pdb
 OpenBabel11021811453D
libRbt.so/2013.1/901 2013/11/27
 37 40  0  0  0  0  0  0  0  0999 V2000
  -15.4255    4.7794    9.0782 C   0  0  2  0  0  0  0  0  0  0  0  0
  -14.9418    3.3035    8.8914 C   0  0  1  0  0  0  0  0  0  0  0  0
  -13.5633    3.1936    8.1762 C   0  0  0  0  0  0  0  0  0  0  0  0
  -13.5309    4.0589    6.8920 C   0  0  1  0  0  0  0  0  0  0  0  0
  -13.8900    5.5222    7.2343 C   0  0  1  0  0  0  0  0  0  0  0  0
  -13.8196    6.4227    5.9719 C   0  0  1  0  0  0  0  0  0  0  0  0
  -12.4375    6.2838    5.2668 C   0  0  1  0  0  0  0  0  0  0  0  0
  -12.0619    4.7945    5.0077 C   0  0  2  0  0  0  0  0  0  0  0  0
  -13.0499    6.3342    2.8927 C   0  0  0  0  0  0  0  0  0  0  0  0
  -15.1953    5.5863    7.8778 O   0  0  0  0  0  0  0  0  0  0  0  0
  -12.2488    3.9791    6.2052 O   0  0  0  0  0  0  0  0  0  0  0  0
  -14.8739    2.6300   10.2064 N   0  0  0  0  0  0  0  0  0  0  0  0
  -12.4471    7.0772    4.0204 N   0  0  0  0  0  0  0  0  0  0  0  0
  -14.8862    6.1395    5.0753 O   0  0  0  0  0  0  0  0  0  0  0  0
  -10.6970    4.6937    4.5063 O   0  0  0  0  0  0  0  0  0  0  0  0
  -14.7925    5.3995   10.2389 O   0  0  0  0  0  0  0  0  0  0  0  0
   -9.8145    3.6842    5.0858 C   0  0  2  0  0  0  0  0  0  0  0  0
   -8.3233    4.1058    4.9543 C   0  0  1  0  0  0  0  0  0  0  0  0
   -7.8328    4.0348    3.4797 C   0  0  2  0  0  0  0  0  0  0  0  0
   -8.1266    2.6394    2.8565 C   0  0  1  0  0  0  0  0  0  0  0  0
   -9.6180    2.2425    3.0405 C   0  0  1  0  0  0  0  0  0  0  0  0
   -9.8967    0.7985    2.5469 C   0  0  0  0  0  0  0  0  0  0  0  0
  -10.0162    2.3932    4.4370 O   0  0  0  0  0  0  0  0  0  0  0  0
   -7.7256    2.5876    1.4335 N   0  0  0  0  0  0  0  0  0  0  0  0
   -8.1169    5.3996    5.5182 O   0  0  0  0  0  0  0  0  0  0  0  0
   -6.4480    4.3604    3.3815 O   0  0  0  0  0  0  0  0  0  0  0  0
  -11.2822    0.4866    2.6477 O   0  0  0  0  0  0  0  0  0  0  0  0
  -14.9776    6.8328   10.4262 C   0  0  1  0  0  0  0  0  0  0  0  0
  -14.1623    7.6641    9.3964 C   0  0  1  0  0  0  0  0  0  0  0  0
  -14.2969    9.1879    9.6741 C   0  0  2  0  0  0  0  0  0  0  0  0
  -15.7881    9.6517    9.7451 C   0  0  1  0  0  0  0  0  0  0  0  0
  -16.6606    8.7503   10.6692 C   0  0  0  0  0  0  0  0  0  0  0  0
  -16.4798    7.2313   10.3717 C   0  0  2  0  0  0  0  0  0  0  0  0
  -15.8782   11.0695   10.1546 N   0  0  0  0  0  0  0  0  0  0  0  0
  -17.2981    6.4466   11.3214 N   0  0  0  0  0  0  0  0  0  0  0  0
  -12.7943    7.2690    9.3958 O   0  0  0  0  0  0  0  0  0  0  0  0
  -13.5880    9.9376    8.6907 O   0  0  0  0  0  0  0  0  0  0  0  0
  1  2  1  0  0  0  0
  1 16  1  1  0  0  0
  2  3  1  0  0  0  0
  2 12  1  1  0  0  0
  4 11  1  1  0  0  0
  4  3  1  0  0  0  0
  5  4  1  0  0  0  0
  5 10  1  6  0  0  0
  6  7  1  0  0  0  0
  6  5  1  0  0  0  0
  6 14  1  6  0  0  0
  7  8  1  0  0  0  0
  7 13  1  6  0  0  0
  8 15  1  1  0  0  0
  8 11  1  0  0  0  0
  9 13  1  0  0  0  0
 10  1  1  0  0  0  0
 17 15  1  6  0  0  0
 17 18  1  0  0  0  0
 18 25  1  6  0  0  0
 19 18  1  0  0  0  0
 19 26  1  1  0  0  0
 20 19  1  0  0  0  0
 20 24  1  6  0  0  0
 21 23  1  0  0  0  0
 21 20  1  0  0  0  0
 21 22  1  1  0  0  0
 23 17  1  0  0  0  0
 27 22  1  0  0  0  0
 28 29  1  0  0  0  0
 28 16  1  6  0  0  0
 29 36  1  1  0  0  0
 30 37  1  6  0  0  0
 30 29  1  0  0  0  0
 31 30  1  0  0  0  0
 31 34  1  1  0  0  0
 32 31  1  0  0  0  0
 32 33  1  0  0  0  0
 33 28  1  0  0  0  0
 33 35  1  1  0  0  0
M  END
>  <CHROM.1>
-170.61652733,134.17924995,-83.75690338,58.10346688,-153.96745976,170.63033065
-43.48790343,-8.68885408,-176.37857260,66.80010298,-174.34972503,-72.56431966
55.97212568,160.46445672,-57.24468458,63.85590974,-12.59505436,5.32004940
6.64888052,2.57516310,0.73519155,0.15002780

>  <Name>
lig.pdb

>  <RI>
1.95696e+07

>  <Rbt.Current_Directory>
/home/itssahil/PROJECTS/Mol_Feturizer/New_Systems/rnas/2m4q

>  <Rbt.Executable>
rbdock ($Id: //depot/dev/client3/rdock/2013.1/src/exe/rbdock.cxx#4 $)

>  <Rbt.Library>
libRbt.so (2013.1, Build901 2013/11/27)

>  <Rbt.Parameter_File>
/export/apps/rDock/src/rDock_2013.1_src/data/scripts/dock_solv.prm

>  <Rbt.Receptor>
prm/blind_docking_100.prm

>  <SCORE>
-11.9802

>  <SCORE.INTER>
-17.0529

>  <SCORE.INTER.CONST>
1

>  <SCORE.INTER.POLAR>
-3.26587

>  <SCORE.INTER.ROT>
10

>  <SCORE.INTER.SOLV>
21.8802

>  <SCORE.INTER.VDW>
-18.0425

>  <SCORE.INTER.norm>
-0.46089

>  <SCORE.INTRA>
-7.18897

>  <SCORE.INTRA.DIHEDRAL>
-22.9697

>  <SCORE.INTRA.DIHEDRAL.0>
44.8331

>  <SCORE.INTRA.POLAR>
-0.137524

>  <SCORE.INTRA.POLAR.0>
-0.108895

>  <SCORE.INTRA.REPUL>
-0.00912235

>  <SCORE.INTRA.REPUL.0>
0.00912235

>  <SCORE.INTRA.SOLV>
-1.58392

>  <SCORE.INTRA.SOLV.lig_0>
-53.9067

>  <SCORE.INTRA.VDW>
5.60106

>  <SCORE.INTRA.VDW.0>
-2.93492

>  <SCORE.INTRA.norm>
-0.194296

>  <SCORE.RESTR>
12.2617

>  <SCORE.RESTR.CAVITY>
12.2617

>  <SCORE.RESTR.norm>
0.331398

>  <SCORE.SYSTEM>
0

>  <SCORE.SYSTEM.CONST>
0

>  <SCORE.SYSTEM.DIHEDRAL>
0

>  <SCORE.SYSTEM.SOLV>
0

>  <SCORE.SYSTEM.norm>
0

>  <SCORE.heavy>
37

>  <SCORE.norm>
-0.323788

>  <RMSD>
14.719

$$$$
lig.pdb
 OpenBabel11021811453D
libRbt.so/2013.1/901 2013/11/27
 37 40  0  0  0  0  0  0  0  0999 V2000
  -15.8265    6.4199    8.3217 C   0  0  2  0  0  0  0  0  0  0  0  0
  -15.8724    4.8567    8.3611 C   0  0  1  0  0  0  0  0  0  0  0  0
  -14.6555    4.1874    7.6576 C   0  0  0  0  0  0  0  0  0  0  0  0
  -14.4173    4.7985    6.2545 C   0  0  1  0  0  0  0  0  0  0  0  0
  -14.2486    6.3301    6.3693 C   0  0  1  0  0  0  0  0  0  0  0  0
  -13.9616    6.9642    4.9818 C   0  0  1  0  0  0  0  0  0  0  0  0
  -12.7503    6.2681    4.2928 C   0  0  1  0  0  0  0  0  0  0  0  0
  -12.9070    4.7186    4.2640 C   0  0  2  0  0  0  0  0  0  0  0  0
  -11.3123    6.3826    2.3097 C   0  0  0  0  0  0  0  0  0  0  0  0
  -15.4163    6.9219    7.0084 O   0  0  0  0  0  0  0  0  0  0  0  0
  -13.2794    4.1937    5.5753 O   0  0  0  0  0  0  0  0  0  0  0  0
  -15.9507    4.3946    9.7639 N   0  0  0  0  0  0  0  0  0  0  0  0
  -12.5731    6.8318    2.9386 N   0  0  0  0  0  0  0  0  0  0  0  0
  -15.1150    6.9327    4.1510 O   0  0  0  0  0  0  0  0  0  0  0  0
  -11.6866    4.0929    3.7703 O   0  0  0  0  0  0  0  0  0  0  0  0
  -14.9530    6.9488    9.3657 O   0  0  0  0  0  0  0  0  0  0  0  0
  -10.9201    3.2461    4.6810 C   0  0  2  0  0  0  0  0  0  0  0  0
  -10.0375    4.1049    5.6307 C   0  0  1  0  0  0  0  0  0  0  0  0
   -8.8550    4.7719    4.8714 C   0  0  2  0  0  0  0  0  0  0  0  0
   -8.0370    3.7187    4.0692 C   0  0  1  0  0  0  0  0  0  0  0  0
   -8.9607    2.8605    3.1604 C   0  0  1  0  0  0  0  0  0  0  0  0
   -8.1807    1.7181    2.4583 C   0  0  0  0  0  0  0  0  0  0  0  0
  -10.0758    2.3209    3.9330 O   0  0  0  0  0  0  0  0  0  0  0  0
   -6.9530    4.3555    3.2895 N   0  0  0  0  0  0  0  0  0  0  0  0
  -10.8331    5.0675    6.3200 O   0  0  0  0  0  0  0  0  0  0  0  0
   -8.0166    5.5027    5.7639 O   0  0  0  0  0  0  0  0  0  0  0  0
   -9.0418    0.9594    1.6156 O   0  0  0  0  0  0  0  0  0  0  0  0
  -15.0172    8.3782    9.6426 C   0  0  1  0  0  0  0  0  0  0  0  0
  -15.6554    8.6741   11.0287 C   0  0  1  0  0  0  0  0  0  0  0  0
  -15.8028   10.2040   11.2626 C   0  0  2  0  0  0  0  0  0  0  0  0
  -14.4538   10.9697   11.0686 C   0  0  1  0  0  0  0  0  0  0  0  0
  -13.7249   10.5890    9.7451 C   0  0  0  0  0  0  0  0  0  0  0  0
  -13.6174    9.0479    9.5400 C   0  0  2  0  0  0  0  0  0  0  0  0
  -14.6623   12.4310   11.1536 N   0  0  0  0  0  0  0  0  0  0  0  0
  -12.9628    8.7721    8.2428 N   0  0  0  0  0  0  0  0  0  0  0  0
  -16.9132    8.0192   11.1576 O   0  0  0  0  0  0  0  0  0  0  0  0
  -16.3395   10.4602   12.5580 O   0  0  0  0  0  0  0  0  0  0  0  0
  1  2  1  0  0  0  0
  1 16  1  1  0  0  0
  2  3  1  0  0  0  0
  2 12  1  1  0  0  0
  4 11  1  1  0  0  0
  4  3  1  0  0  0  0
  5  4  1  0  0  0  0
  5 10  1  6  0  0  0
  6  7  1  0  0  0  0
  6  5  1  0  0  0  0
  6 14  1  6  0  0  0
  7  8  1  0  0  0  0
  7 13  1  6  0  0  0
  8 15  1  1  0  0  0
  8 11  1  0  0  0  0
  9 13  1  0  0  0  0
 10  1  1  0  0  0  0
 17 15  1  6  0  0  0
 17 18  1  0  0  0  0
 18 25  1  6  0  0  0
 19 18  1  0  0  0  0
 19 26  1  1  0  0  0
 20 19  1  0  0  0  0
 20 24  1  6  0  0  0
 21 23  1  0  0  0  0
 21 20  1  0  0  0  0
 21 22  1  1  0  0  0
 23 17  1  0  0  0  0
 27 22  1  0  0  0  0
 28 29  1  0  0  0  0
 28 16  1  1  0  0  0
 29 36  1  6  0  0  0
 30 37  1  1  0  0  0
 30 29  1  0  0  0  0
 31 30  1  0  0  0  0
 31 34  1  6  0  0  0
 32 31  1  0  0  0  0
 32 33  1  0  0  0  0
 33 28  1  0  0  0  0
 33 35  1  6  0  0  0
M  END
>  <CHROM.1>
79.20960932,114.83068413,170.54659681,61.91530426,-80.19944969,-167.49583990
51.21490493,-55.94185481,-179.07155024,-41.30338046,-177.39819918,110.45815713
-58.31279544,-171.09235891,76.83374485,61.95989979,-12.80785350,6.14701780
6.65831091,2.19384547,0.35331829,0.63900644

>  <Name>
lig.pdb

>  <RI>
1.95696e+07

>  <Rbt.Current_Directory>
/home/itssahil/PROJECTS/Mol_Feturizer/New_Systems/rnas/2m4q

>  <Rbt.Executable>
rbdock ($Id: //depot/dev/client3/rdock/2013.1/src/exe/rbdock.cxx#4 $)

>  <Rbt.Library>
libRbt.so (2013.1, Build901 2013/11/27)

>  <Rbt.Parameter_File>
/export/apps/rDock/src/rDock_2013.1_src/data/scripts/dock_solv.prm

>  <Rbt.Receptor>
prm/blind_docking_100.prm

>  <SCORE>
-16.4719

>  <SCORE.INTER>
-11.8825

>  <SCORE.INTER.CONST>
1

>  <SCORE.INTER.POLAR>
-2.88603

>  <SCORE.INTER.ROT>
10

>  <SCORE.INTER.SOLV>
18.3561

>  <SCORE.INTER.VDW>
-14.687

>  <SCORE.INTER.norm>
-0.32115

>  <SCORE.INTRA>
-14.6953

>  <SCORE.INTRA.DIHEDRAL>
-25.3489

>  <SCORE.INTRA.DIHEDRAL.0>
44.8331

>  <SCORE.INTRA.POLAR>
-0.468045

>  <SCORE.INTRA.POLAR.0>
-0.108895

>  <SCORE.INTRA.REPUL>
-0.00912235

>  <SCORE.INTRA.REPUL.0>
0.00912235

>  <SCORE.INTRA.SOLV>
-0.087322

>  <SCORE.INTRA.SOLV.lig_0>
-53.9067

>  <SCORE.INTRA.VDW>
-0.340207

>  <SCORE.INTRA.VDW.0>
-2.93492

>  <SCORE.INTRA.norm>
-0.39717

>  <SCORE.RESTR>
10.1059

>  <SCORE.RESTR.CAVITY>
10.1059

>  <SCORE.RESTR.norm>
0.273134

>  <SCORE.SYSTEM>
0

>  <SCORE.SYSTEM.CONST>
0

>  <SCORE.SYSTEM.DIHEDRAL>
0

>  <SCORE.SYSTEM.SOLV>
0

>  <SCORE.SYSTEM.norm>
0

>  <SCORE.heavy>
37

>  <SCORE.norm>
-0.445186

>  <RMSD>
14.724

$$$$
lig.pdb
 OpenBabel11021811453D
libRbt.so/2013.1/901 2013/11/27
 37 40  0  0  0  0  0  0  0  0999 V2000
  -15.2098    6.7101    8.7118 C   0  0  2  0  0  0  0  0  0  0  0  0
  -14.7652    5.2513    9.0605 C   0  0  1  0  0  0  0  0  0  0  0  0
  -13.4526    4.8199    8.3430 C   0  0  0  0  0  0  0  0  0  0  0  0
  -13.5141    5.1395    6.8287 C   0  0  1  0  0  0  0  0  0  0  0  0
  -13.8218    6.6392    6.6194 C   0  0  1  0  0  0  0  0  0  0  0  0
  -13.8431    6.9978    5.1093 C   0  0  1  0  0  0  0  0  0  0  0  0
  -12.5265    6.5432    4.4118 C   0  0  1  0  0  0  0  0  0  0  0  0
  -12.1958    5.0498    4.7065 C   0  0  2  0  0  0  0  0  0  0  0  0
  -11.3409    6.5982    2.2658 C   0  0  0  0  0  0  0  0  0  0  0  0
  -15.0681    6.9981    7.2828 O   0  0  0  0  0  0  0  0  0  0  0  0
  -12.2947    4.7510    6.1329 O   0  0  0  0  0  0  0  0  0  0  0  0
  -14.5984    5.1164   10.5239 N   0  0  0  0  0  0  0  0  0  0  0  0
  -12.6277    6.8122    2.9625 N   0  0  0  0  0  0  0  0  0  0  0  0
  -14.9845    6.4480    4.4639 O   0  0  0  0  0  0  0  0  0  0  0  0
  -10.8789    4.7075    4.1839 O   0  0  0  0  0  0  0  0  0  0  0  0
  -14.4734    7.6902    9.5053 O   0  0  0  0  0  0  0  0  0  0  0  0
  -10.0908    3.6985    4.8873 C   0  0  2  0  0  0  0  0  0  0  0  0
   -8.5795    4.0651    4.8772 C   0  0  1  0  0  0  0  0  0  0  0  0
   -7.9585    3.9088    3.4595 C   0  0  2  0  0  0  0  0  0  0  0  0
   -8.2446    2.4957    2.8737 C   0  0  1  0  0  0  0  0  0  0  0  0
   -9.7600    2.1562    2.9348 C   0  0  1  0  0  0  0  0  0  0  0  0
  -10.0447    0.7003    2.4814 C   0  0  0  0  0  0  0  0  0  0  0  0
  -10.2791    2.3855    4.2799 O   0  0  0  0  0  0  0  0  0  0  0  0
   -7.7167    2.3638    1.4980 N   0  0  0  0  0  0  0  0  0  0  0  0
   -8.3786    5.3768    5.4004 O   0  0  0  0  0  0  0  0  0  0  0  0
   -6.5596    4.1845    3.4769 O   0  0  0  0  0  0  0  0  0  0  0  0
  -11.4427    0.4306    2.4901 O   0  0  0  0  0  0  0  0  0  0  0  0
  -15.2136    8.8309   10.0297 C   0  0  1  0  0  0  0  0  0  0  0  0
  -15.8084    8.5413   11.4363 C   0  0  1  0  0  0  0  0  0  0  0  0
  -16.6736    9.7330   11.9349 C   0  0  2  0  0  0  0  0  0  0  0  0
  -15.8971   11.0893   11.9002 C   0  0  1  0  0  0  0  0  0  0  0  0
  -15.1772   11.3418   10.5416 C   0  0  0  0  0  0  0  0  0  0  0  0
  -14.3389   10.1161   10.0688 C   0  0  2  0  0  0  0  0  0  0  0  0
  -16.7926   12.2159   12.2393 N   0  0  0  0  0  0  0  0  0  0  0  0
  -13.7331   10.4166    8.7535 N   0  0  0  0  0  0  0  0  0  0  0  0
  -16.5654    7.3353   11.4279 O   0  0  0  0  0  0  0  0  0  0  0  0
  -17.1676    9.4749   13.2468 O   0  0  0  0  0  0  0  0  0  0  0  0
  1  2  1  0  0  0  0
  1 16  1  1  0  0  0
  2  3  1  0  0  0  0
  2 12  1  1  0  0  0
  4 11  1  1  0  0  0
  4  3  1  0  0  0  0
  5  4  1  0  0  0  0
  5 10  1  6  0  0  0
  6  7  1  0  0  0  0
  6  5  1  0  0  0  0
  6 14  1  6  0  0  0
  7  8  1  0  0  0  0
  7 13  1  6  0  0  0
  8 15  1  1  0  0  0
  8 11  1  0  0  0  0
  9 13  1  0  0  0  0
 10  1  1  0  0  0  0
 17 15  1  6  0  0  0
 17 18  1  0  0  0  0
 18 25  1  6  0  0  0
 19 18  1  0  0  0  0
 19 26  1  1  0  0  0
 20 19  1  0  0  0  0
 20 24  1  6  0  0  0
 21 23  1  0  0  0  0
 21 20  1  0  0  0  0
 21 22  1  1  0  0  0
 23 17  1  0  0  0  0
 27 22  1  0  0  0  0
 28 29  1  0  0  0  0
 28 16  1  1  0  0  0
 29 36  1  6  0  0  0
 30 37  1  1  0  0  0
 30 29  1  0  0  0  0
 31 30  1  0  0  0  0
 31 34  1  6  0  0  0
 32 31  1  0  0  0  0
 32 33  1  0  0  0  0
 33 28  1  0  0  0  0
 33 35  1  6  0  0  0
M  END
>  <CHROM.1>
160.49598324,148.37601912,171.28511339,-56.42873016,-142.85234735,-139.31004312
172.04616478,42.50828425,-177.47177761,65.58969007,66.85807002,89.98914624
-59.18572403,62.80649080,59.49835846,-158.43085853,-12.74865022,6.11844658
6.78052734,2.43719046,0.78307613,0.20432255

>  <Name>
lig.pdb

>  <RI>
1.95696e+07

>  <Rbt.Current_Directory>
/home/itssahil/PROJECTS/Mol_Feturizer/New_Systems/rnas/2m4q

>  <Rbt.Executable>
rbdock ($Id: //depot/dev/client3/rdock/2013.1/src/exe/rbdock.cxx#4 $)

>  <Rbt.Library>
libRbt.so (2013.1, Build901 2013/11/27)

>  <Rbt.Parameter_File>
/export/apps/rDock/src/rDock_2013.1_src/data/scripts/dock_solv.prm

>  <Rbt.Receptor>
prm/blind_docking_100.prm

>  <SCORE>
-6.56788

>  <SCORE.INTER>
-6.51225

>  <SCORE.INTER.CONST>
1

>  <SCORE.INTER.POLAR>
-2.35713

>  <SCORE.INTER.ROT>
10

>  <SCORE.INTER.SOLV>
16.9288

>  <SCORE.INTER.VDW>
-12.394

>  <SCORE.INTER.norm>
-0.176007

>  <SCORE.INTRA>
-13.2567

>  <SCORE.INTRA.DIHEDRAL>
-23.0304

>  <SCORE.INTRA.DIHEDRAL.0>
44.8331

>  <SCORE.INTRA.POLAR>
-0.807269

>  <SCORE.INTRA.POLAR.0>
-0.108895

>  <SCORE.INTRA.REPUL>
-0.00912235

>  <SCORE.INTRA.REPUL.0>
0.00912235

>  <SCORE.INTRA.SOLV>
-1.57381

>  <SCORE.INTRA.SOLV.lig_0>
-53.9067

>  <SCORE.INTRA.VDW>
1.83571

>  <SCORE.INTRA.VDW.0>
-2.93492

>  <SCORE.INTRA.norm>
-0.35829

>  <SCORE.RESTR>
13.2011

>  <SCORE.RESTR.CAVITY>
13.2011

>  <SCORE.RESTR.norm>
0.356786

>  <SCORE.SYSTEM>
0

>  <SCORE.SYSTEM.CONST>
0

>  <SCORE.SYSTEM.DIHEDRAL>
0

>  <SCORE.SYSTEM.SOLV>
0

>  <SCORE.SYSTEM.norm>
0

>  <SCORE.heavy>
37

>  <SCORE.norm>
-0.17751

>  <RMSD>
14.774

$$$$
lig.pdb
 OpenBabel11021811453D
libRbt.so/2013.1/901 2013/11/27
 37 40  0  0  0  0  0  0  0  0999 V2000
  -15.6764    6.0559    9.4957 C   0  0  2  0  0  0  0  0  0  0  0  0
  -15.2525    4.5527    9.5841 C   0  0  1  0  0  0  0  0  0  0  0  0
  -13.9553    4.2311    8.7855 C   0  0  0  0  0  0  0  0  0  0  0  0
  -14.0281    4.8057    7.3490 C   0  0  1  0  0  0  0  0  0  0  0  0
  -14.3129    6.3233    7.4031 C   0  0  1  0  0  0  0  0  0  0  0  0
  -14.3448    6.9351    5.9768 C   0  0  1  0  0  0  0  0  0  0  0  0
  -13.0438    6.5871    5.1939 C   0  0  1  0  0  0  0  0  0  0  0  0
  -12.7350    5.0607    5.2248 C   0  0  2  0  0  0  0  0  0  0  0  0
  -11.9323    6.8470    3.0235 C   0  0  0  0  0  0  0  0  0  0  0  0
  -15.5456    6.5818    8.1351 O   0  0  0  0  0  0  0  0  0  0  0  0
  -12.8232    4.5240    6.5805 O   0  0  0  0  0  0  0  0  0  0  0  0
  -15.0719    4.1672   11.0006 N   0  0  0  0  0  0  0  0  0  0  0  0
  -13.1565    7.1013    3.8134 N   0  0  0  0  0  0  0  0  0  0  0  0
  -15.5023    6.5204    5.2628 O   0  0  0  0  0  0  0  0  0  0  0  0
  -11.4298    4.7935    4.6334 O   0  0  0  0  0  0  0  0  0  0  0  0
  -14.9150    6.8751   10.4347 O   0  0  0  0  0  0  0  0  0  0  0  0
  -10.5901    3.7611    5.2357 C   0  0  2  0  0  0  0  0  0  0  0  0
   -9.1018    4.2101    5.2822 C   0  0  1  0  0  0  0  0  0  0  0  0
   -8.4648    4.2396    3.8633 C   0  0  2  0  0  0  0  0  0  0  0  0
   -8.6671    2.8828    3.1284 C   0  0  1  0  0  0  0  0  0  0  0  0
  -10.1613    2.4550    3.1356 C   0  0  1  0  0  0  0  0  0  0  0  0
  -10.3606    1.0418    2.5279 C   0  0  0  0  0  0  0  0  0  0  0  0
  -10.7003    2.5113    4.4912 O   0  0  0  0  0  0  0  0  0  0  0  0
   -8.1246    2.9268    1.7528 N   0  0  0  0  0  0  0  0  0  0  0  0
   -8.9785    5.4681    5.9431 O   0  0  0  0  0  0  0  0  0  0  0  0
   -7.0838    4.5892    3.9261 O   0  0  0  0  0  0  0  0  0  0  0  0
   -9.2197    0.2230    2.7632 O   0  0  0  0  0  0  0  0  0  0  0  0
  -15.1439    8.3143   10.4179 C   0  0  1  0  0  0  0  0  0  0  0  0
  -15.7653    8.8200   11.7500 C   0  0  1  0  0  0  0  0  0  0  0  0
  -16.0906   10.3385   11.6756 C   0  0  2  0  0  0  0  0  0  0  0  0
  -14.8528   11.1934   11.2504 C   0  0  1  0  0  0  0  0  0  0  0  0
  -14.1289   10.6287    9.9915 C   0  0  0  0  0  0  0  0  0  0  0  0
  -13.8408    9.1008   10.0986 C   0  0  2  0  0  0  0  0  0  0  0  0
  -15.2354   12.6072   11.0482 N   0  0  0  0  0  0  0  0  0  0  0  0
  -13.2025    8.6351    8.8485 N   0  0  0  0  0  0  0  0  0  0  0  0
  -16.9284    8.0693   12.0836 O   0  0  0  0  0  0  0  0  0  0  0  0
  -16.6096   10.7980   12.9211 O   0  0  0  0  0  0  0  0  0  0  0  0
  1  2  1  0  0  0  0
  1 16  1  1  0  0  0
  2  3  1  0  0  0  0
  2 12  1  1  0  0  0
  4 11  1  1  0  0  0
  4  3  1  0  0  0  0
  5  4  1  0  0  0  0
  5 10  1  6  0  0  0
  6  7  1  0  0  0  0
  6  5  1  0  0  0  0
  6 14  1  6  0  0  0
  7  8  1  0  0  0  0
  7 13  1  6  0  0  0
  8 15  1  1  0  0  0
  8 11  1  0  0  0  0
  9 13  1  0  0  0  0
 10  1  1  0  0  0  0
 17 15  1  6  0  0  0
 17 18  1  0  0  0  0
 18 25  1  6  0  0  0
 19 18  1  0  0  0  0
 19 26  1  1  0  0  0
 20 19  1  0  0  0  0
 20 24  1  6  0  0  0
 21 23  1  0  0  0  0
 21 20  1  0  0  0  0
 21 22  1  1  0  0  0
 23 17  1  0  0  0  0
 27 22  1  0  0  0  0
 28 29  1  0  0  0  0
 28 16  1  1  0  0  0
 29 36  1  6  0  0  0
 30 37  1  1  0  0  0
 30 29  1  0  0  0  0
 31 30  1  0  0  0  0
 31 34  1  6  0  0  0
 32 31  1  0  0  0  0
 32 33  1  0  0  0  0
 33 28  1  0  0  0  0
 33 35  1  6  0  0  0
M  END
>  <CHROM.1>
177.26286375,141.91158610,177.99625187,175.13331825,-139.17396911,176.63512189
179.95730125,59.47458829,30.91836940,-169.02192212,55.80893720,115.31897160
65.64837548,-173.39651706,-69.68989108,-64.62402816,-12.87005018,6.06394859
7.12136702,2.42123606,0.79047212,0.20972873

>  <Name>
lig.pdb

>  <RI>
1.95696e+07

>  <Rbt.Current_Directory>
/home/itssahil/PROJECTS/Mol_Feturizer/New_Systems/rnas/2m4q

>  <Rbt.Executable>
rbdock ($Id: //depot/dev/client3/rdock/2013.1/src/exe/rbdock.cxx#4 $)

>  <Rbt.Library>
libRbt.so (2013.1, Build901 2013/11/27)

>  <Rbt.Parameter_File>
/export/apps/rDock/src/rDock_2013.1_src/data/scripts/dock_solv.prm

>  <Rbt.Receptor>
prm/blind_docking_100.prm

>  <SCORE>
-21.2948

>  <SCORE.INTER>
-22.9003

>  <SCORE.INTER.CONST>
1

>  <SCORE.INTER.POLAR>
-4.13726

>  <SCORE.INTER.ROT>
10

>  <SCORE.INTER.SOLV>
19.5532

>  <SCORE.INTER.VDW>
-18.2604

>  <SCORE.INTER.norm>
-0.618926

>  <SCORE.INTRA>
-8.65824

>  <SCORE.INTRA.DIHEDRAL>
-23.3

>  <SCORE.INTRA.DIHEDRAL.0>
44.8331

>  <SCORE.INTRA.POLAR>
0.0793016

>  <SCORE.INTRA.POLAR.0>
-0.108895

>  <SCORE.INTRA.REPUL>
-0.00912235

>  <SCORE.INTRA.REPUL.0>
0.00912235

>  <SCORE.INTRA.SOLV>
-1.04866

>  <SCORE.INTRA.SOLV.lig_0>
-53.9067

>  <SCORE.INTRA.VDW>
3.29207

>  <SCORE.INTRA.VDW.0>
-2.93492

>  <SCORE.INTRA.norm>
-0.234006

>  <SCORE.RESTR>
10.2637

>  <SCORE.RESTR.CAVITY>
10.2637

>  <SCORE.RESTR.norm>
0.277397

>  <SCORE.SYSTEM>
0

>  <SCORE.SYSTEM.CONST>
0

>  <SCORE.SYSTEM.DIHEDRAL>
0

>  <SCORE.SYSTEM.SOLV>
0

>  <SCORE.SYSTEM.norm>
0

>  <SCORE.heavy>
37

>  <SCORE.norm>
-0.575536

>  <RMSD>
14.790

$$$$
lig.pdb
 OpenBabel11021811453D
libRbt.so/2013.1/901 2013/11/27
 37 40  0  0  0  0  0  0  0  0999 V2000
   -7.1432   -0.2605   12.4118 C   0  0  2  0  0  0  0  0  0  0  0  0
   -7.5523   -0.8639   11.0277 C   0  0  1  0  0  0  0  0  0  0  0  0
   -7.9568   -2.3652   11.1062 C   0  0  0  0  0  0  0  0  0  0  0  0
   -6.9034   -3.1861   11.8907 C   0  0  1  0  0  0  0  0  0  0  0  0
   -6.6928   -2.5697   13.2918 C   0  0  1  0  0  0  0  0  0  0  0  0
   -5.6751   -3.4007   14.1185 C   0  0  1  0  0  0  0  0  0  0  0  0
   -6.0938   -4.9003   14.1695 C   0  0  1  0  0  0  0  0  0  0  0  0
   -6.3805   -5.4746   12.7503 C   0  0  2  0  0  0  0  0  0  0  0  0
   -5.3748   -5.8586   16.3093 C   0  0  0  0  0  0  0  0  0  0  0  0
   -6.2911   -1.1742   13.1762 O   0  0  0  0  0  0  0  0  0  0  0  0
   -7.2603   -4.5953   11.9846 O   0  0  0  0  0  0  0  0  0  0  0  0
   -8.6653   -0.0794   10.4504 N   0  0  0  0  0  0  0  0  0  0  0  0
   -5.0514   -5.6710   14.8784 N   0  0  0  0  0  0  0  0  0  0  0  0
   -4.3546   -3.2515   13.6128 O   0  0  0  0  0  0  0  0  0  0  0  0
   -6.9314   -6.8205   12.8477 O   0  0  0  0  0  0  0  0  0  0  0  0
   -8.3190    0.1141   13.1927 O   0  0  0  0  0  0  0  0  0  0  0  0
   -8.3823   -6.9765   12.9130 C   0  0  2  0  0  0  0  0  0  0  0  0
   -8.7707   -8.4474   13.2358 C   0  0  1  0  0  0  0  0  0  0  0  0
   -8.4816   -9.3956   12.0369 C   0  0  2  0  0  0  0  0  0  0  0  0
   -9.1406   -8.8661   10.7303 C   0  0  1  0  0  0  0  0  0  0  0  0
   -8.7544   -7.3844   10.4644 C   0  0  1  0  0  0  0  0  0  0  0  0
   -9.5103   -6.8007    9.2420 C   0  0  0  0  0  0  0  0  0  0  0  0
   -8.9988   -6.5735   11.6537 O   0  0  0  0  0  0  0  0  0  0  0  0
   -8.8119   -9.7260    9.5722 N   0  0  0  0  0  0  0  0  0  0  0  0
   -8.1204   -8.8876   14.4265 O   0  0  0  0  0  0  0  0  0  0  0  0
   -8.9021  -10.7282   12.3212 O   0  0  0  0  0  0  0  0  0  0  0  0
  -10.8665   -6.5190    9.5714 O   0  0  0  0  0  0  0  0  0  0  0  0
   -8.2711    1.3714   13.9282 C   0  0  1  0  0  0  0  0  0  0  0  0
   -9.4764    1.5243   14.8977 C   0  0  1  0  0  0  0  0  0  0  0  0
   -9.4583    2.9115   15.5996 C   0  0  2  0  0  0  0  0  0  0  0  0
   -8.0980    3.2010   16.3134 C   0  0  1  0  0  0  0  0  0  0  0  0
   -6.8641    2.9253   15.4028 C   0  0  0  0  0  0  0  0  0  0  0  0
   -6.9325    1.5345   14.7029 C   0  0  2  0  0  0  0  0  0  0  0  0
   -8.0652    4.5818   16.8412 N   0  0  0  0  0  0  0  0  0  0  0  0
   -5.7563    1.3730   13.8209 N   0  0  0  0  0  0  0  0  0  0  0  0
  -10.7075    1.3206   14.2118 O   0  0  0  0  0  0  0  0  0  0  0  0
  -10.5383    3.0158   16.5240 O   0  0  0  0  0  0  0  0  0  0  0  0
  1  2  1  0  0  0  0
  1 16  1  1  0  0  0
  2  3  1  0  0  0  0
  2 12  1  1  0  0  0
  4 11  1  1  0  0  0
  4  3  1  0  0  0  0
  5  4  1  0  0  0  0
  5 10  1  6  0  0  0
  6  7  1  0  0  0  0
  6  5  1  0  0  0  0
  6 14  1  6  0  0  0
  7  8  1  0  0  0  0
  7 13  1  6  0  0  0
  8 15  1  1  0  0  0
  8 11  1  0  0  0  0
  9 13  1  0  0  0  0
 10  1  1  0  0  0  0
 17 15  1  6  0  0  0
 17 18  1  0  0  0  0
 18 25  1  1  0  0  0
 19 18  1  0  0  0  0
 19 26  1  1  0  0  0
 20 19  1  0  0  0  0
 20 24  1  6  0  0  0
 21 23  1  0  0  0  0
 21 20  1  0  0  0  0
 21 22  1  6  0  0  0
 23 17  1  0  0  0  0
 27 22  1  0  0  0  0
 28 29  1  0  0  0  0
 28 16  1  1  0  0  0
 29 36  1  6  0  0  0
 30 37  1  1  0  0  0
 30 29  1  0  0  0  0
 31 30  1  0  0  0  0
 31 34  1  6  0  0  0
 32 31  1  0  0  0  0
 32 33  1  0  0  0  0
 33 28  1  0  0  0  0
 33 35  1  6  0  0  0
M  END
>  <CHROM.1>
132.68317277,91.03412022,95.84900873,-157.51078312,-171.12178753,-138.66124333
-171.83521300,69.40165648,75.28528857,54.91234279,-175.04468453,-170.22064101
178.73967699,-61.76207366,-65.44654540,-154.77947975,-7.85110894,-3.18778316
13.12169939,1.54651253,-0.78163380,0.27704192

>  <Name>
lig.pdb

>  <RI>
0

>  <Rbt.Current_Directory>
/home/afrankz/demos/rdock_decoys_rna/rnas/2m4q

>  <Rbt.Executable>
rbdock ($Id: //depot/dev/client3/rdock/2013.1/src/exe/rbdock.cxx#4 $)

>  <Rbt.Library>
libRbt.so (2013.1, Build901 2013/11/27)

>  <Rbt.Parameter_File>
/export/apps/rDock/src/rDock_2013.1_src/data/scripts/dock_solv.prm

>  <Rbt.Receptor>
prm/blind_docking_40.prm

>  <SCORE>
-15.5255

>  <SCORE.INTER>
-22.9427

>  <SCORE.INTER.CONST>
1

>  <SCORE.INTER.POLAR>
-3.66516

>  <SCORE.INTER.ROT>
10

>  <SCORE.INTER.SOLV>
25.5942

>  <SCORE.INTER.VDW>
-21.876

>  <SCORE.INTER.norm>
-0.620072

>  <SCORE.INTRA>
-11.0013

>  <SCORE.INTRA.DIHEDRAL>
-25.443

>  <SCORE.INTRA.DIHEDRAL.0>
44.8331

>  <SCORE.INTRA.POLAR>
-0.195456

>  <SCORE.INTRA.POLAR.0>
-0.108895

>  <SCORE.INTRA.REPUL>
0.0978672

>  <SCORE.INTRA.REPUL.0>
0.00912235

>  <SCORE.INTRA.SOLV>
-1.47743

>  <SCORE.INTRA.SOLV.lig_0>
-53.9067

>  <SCORE.INTRA.VDW>
2.63411

>  <SCORE.INTRA.VDW.0>
-2.93492

>  <SCORE.INTRA.norm>
-0.297334

>  <SCORE.RESTR>
18.4186

>  <SCORE.RESTR.CAVITY>
18.4186

>  <SCORE.RESTR.norm>
0.497799

>  <SCORE.SYSTEM>
0

>  <SCORE.SYSTEM.CONST>
0

>  <SCORE.SYSTEM.DIHEDRAL>
0

>  <SCORE.SYSTEM.SOLV>
0

>  <SCORE.SYSTEM.norm>
0

>  <SCORE.heavy>
37

>  <SCORE.norm>
-0.419607

>  <RMSD>
14.791

$$$$
lig.pdb
 OpenBabel11021811453D
libRbt.so/2013.1/901 2013/11/27
 37 40  0  0  0  0  0  0  0  0999 V2000
  -15.6704    6.0272    9.0451 C   0  0  2  0  0  0  0  0  0  0  0  0
  -15.3970    4.4920    9.1702 C   0  0  1  0  0  0  0  0  0  0  0  0
  -14.2013    4.0069    8.2991 C   0  0  0  0  0  0  0  0  0  0  0  0
  -14.3199    4.5328    6.8471 C   0  0  1  0  0  0  0  0  0  0  0  0
  -14.4435    6.0730    6.8537 C   0  0  1  0  0  0  0  0  0  0  0  0
  -14.5169    6.6319    5.4074 C   0  0  1  0  0  0  0  0  0  0  0  0
  -13.3190    6.1207    4.5528 C   0  0  1  0  0  0  0  0  0  0  0  0
  -13.1663    4.5725    4.6297 C   0  0  2  0  0  0  0  0  0  0  0  0
  -12.1851    6.6790    2.4513 C   0  0  0  0  0  0  0  0  0  0  0  0
  -15.5865    6.4861    7.6567 O   0  0  0  0  0  0  0  0  0  0  0  0
  -13.2094    4.0981    6.0105 O   0  0  0  0  0  0  0  0  0  0  0  0
  -15.1536    4.1419   10.5865 N   0  0  0  0  0  0  0  0  0  0  0  0
  -13.4792    6.5929    3.1620 N   0  0  0  0  0  0  0  0  0  0  0  0
  -15.7598    6.3151    4.7938 O   0  0  0  0  0  0  0  0  0  0  0  0
  -11.9420    4.1482    3.9621 O   0  0  0  0  0  0  0  0  0  0  0  0
  -14.7628    6.7958    9.8923 O   0  0  0  0  0  0  0  0  0  0  0  0
  -11.0586    3.2136    4.6549 C   0  0  2  0  0  0  0  0  0  0  0  0
  -10.0932    3.9661    5.6142 C   0  0  1  0  0  0  0  0  0  0  0  0
   -9.0195    4.7757    4.8321 C   0  0  2  0  0  0  0  0  0  0  0  0
   -8.2747    3.8748    3.8047 C   0  0  1  0  0  0  0  0  0  0  0  0
   -9.2762    3.1157    2.8903 C   0  0  1  0  0  0  0  0  0  0  0  0
   -8.5556    2.1115    1.9529 C   0  0  0  0  0  0  0  0  0  0  0  0
  -10.2842    2.4330    3.6960 O   0  0  0  0  0  0  0  0  0  0  0  0
   -7.3005    4.6536    3.0091 N   0  0  0  0  0  0  0  0  0  0  0  0
  -10.8266    4.7937    6.5152 O   0  0  0  0  0  0  0  0  0  0  0  0
   -8.1017    5.4077    5.7219 O   0  0  0  0  0  0  0  0  0  0  0  0
   -7.8814    1.1088    2.7061 O   0  0  0  0  0  0  0  0  0  0  0  0
  -14.9729    8.2354    9.9787 C   0  0  1  0  0  0  0  0  0  0  0  0
  -15.6130    8.6494   11.3334 C   0  0  1  0  0  0  0  0  0  0  0  0
  -15.9174   10.1737   11.3665 C   0  0  2  0  0  0  0  0  0  0  0  0
  -14.6609   11.0403   11.0285 C   0  0  1  0  0  0  0  0  0  0  0  0
  -13.9205   10.5604    9.7443 C   0  0  0  0  0  0  0  0  0  0  0  0
  -13.6541    9.0249    9.7424 C   0  0  2  0  0  0  0  0  0  0  0  0
  -15.0216   12.4704   10.9254 N   0  0  0  0  0  0  0  0  0  0  0  0
  -12.9982    8.6444    8.4726 N   0  0  0  0  0  0  0  0  0  0  0  0
  -16.7917    7.8926   11.5892 O   0  0  0  0  0  0  0  0  0  0  0  0
  -16.4540   10.5467   12.6333 O   0  0  0  0  0  0  0  0  0  0  0  0
  1  2  1  0  0  0  0
  1 16  1  1  0  0  0
  2  3  1  0  0  0  0
  2 12  1  1  0  0  0
  4 11  1  6  0  0  0
  4  3  1  0  0  0  0
  5  4  1  0  0  0  0
  5 10  1  1  0  0  0
  6  7  1  0  0  0  0
  6  5  1  0  0  0  0
  6 14  1  6  0  0  0
  7  8  1  0  0  0  0
  7 13  1  6  0  0  0
  8 15  1  1  0  0  0
  8 11  1  0  0  0  0
  9 13  1  0  0  0  0
 10  1  1  0  0  0  0
 17 15  1  6  0  0  0
 17 18  1  0  0  0  0
 18 25  1  6  0  0  0
 19 18  1  0  0  0  0
 19 26  1  1  0  0  0
 20 19  1  0  0  0  0
 20 24  1  6  0  0  0
 21 23  1  0  0  0  0
 21 20  1  0  0  0  0
 21 22  1  1  0  0  0
 23 17  1  0  0  0  0
 27 22  1  0  0  0  0
 28 29  1  0  0  0  0
 28 16  1  1  0  0  0
 29 36  1  6  0  0  0
 30 37  1  1  0  0  0
 30 29  1  0  0  0  0
 31 30  1  0  0  0  0
 31 34  1  6  0  0  0
 32 31  1  0  0  0  0
 32 33  1  0  0  0  0
 33 28  1  0  0  0  0
 33 35  1  6  0  0  0
M  END
>  <CHROM.1>
-116.83749981,132.09488122,155.11580728,68.85094418,-84.90187176,-174.52723655
48.96804296,144.43356125,62.14758629,178.86828651,-57.73682615,105.25018384
176.23137556,-63.32746673,75.60627065,72.42445124,-12.90205717,6.05732591
6.90486232,2.26406873,0.53827713,0.50552644

>  <Name>
lig.pdb

>  <RI>
1.95696e+07

>  <Rbt.Current_Directory>
/home/itssahil/PROJECTS/Mol_Feturizer/New_Systems/rnas/2m4q

>  <Rbt.Executable>
rbdock ($Id: //depot/dev/client3/rdock/2013.1/src/exe/rbdock.cxx#4 $)

>  <Rbt.Library>
libRbt.so (2013.1, Build901 2013/11/27)

>  <Rbt.Parameter_File>
/export/apps/rDock/src/rDock_2013.1_src/data/scripts/dock_solv.prm

>  <Rbt.Receptor>
prm/blind_docking_100.prm

>  <SCORE>
-0.0815983

>  <SCORE.INTER>
0.421973

>  <SCORE.INTER.CONST>
1

>  <SCORE.INTER.POLAR>
-2.16234

>  <SCORE.INTER.ROT>
10

>  <SCORE.INTER.SOLV>
18.9249

>  <SCORE.INTER.VDW>
-9.08583

>  <SCORE.INTER.norm>
0.0114047

>  <SCORE.INTRA>
-10.5418

>  <SCORE.INTRA.DIHEDRAL>
-19.3219

>  <SCORE.INTRA.DIHEDRAL.0>
44.8331

>  <SCORE.INTRA.POLAR>
-0.447948

>  <SCORE.INTRA.POLAR.0>
-0.108895

>  <SCORE.INTRA.REPUL>
-0.00912235

>  <SCORE.INTRA.REPUL.0>
0.00912235

>  <SCORE.INTRA.SOLV>
-0.221894

>  <SCORE.INTRA.SOLV.lig_0>
-53.9067

>  <SCORE.INTRA.VDW>
0.798722

>  <SCORE.INTRA.VDW.0>
-2.93492

>  <SCORE.INTRA.norm>
-0.284913

>  <SCORE.RESTR>
10.0382

>  <SCORE.RESTR.CAVITY>
10.0382

>  <SCORE.RESTR.norm>
0.271303

>  <SCORE.SYSTEM>
0

>  <SCORE.SYSTEM.CONST>
0

>  <SCORE.SYSTEM.DIHEDRAL>
0

>  <SCORE.SYSTEM.SOLV>
0

>  <SCORE.SYSTEM.norm>
0

>  <SCORE.heavy>
37

>  <SCORE.norm>
-0.00220536

>  <RMSD>
14.801

$$$$
lig.pdb
 OpenBabel11021811453D
libRbt.so/2013.1/901 2013/11/27
 37 40  0  0  0  0  0  0  0  0999 V2000
   -7.7570   -4.9535   11.3102 C   0  0  2  0  0  0  0  0  0  0  0  0
   -7.1759   -6.0467   12.2665 C   0  0  1  0  0  0  0  0  0  0  0  0
   -6.8588   -5.5107   13.6933 C   0  0  0  0  0  0  0  0  0  0  0  0
   -6.0383   -4.1987   13.6264 C   0  0  1  0  0  0  0  0  0  0  0  0
   -6.7862   -3.1535   12.7687 C   0  0  1  0  0  0  0  0  0  0  0  0
   -6.0080   -1.8112   12.7228 C   0  0  1  0  0  0  0  0  0  0  0  0
   -5.6903   -1.3039   14.1610 C   0  0  1  0  0  0  0  0  0  0  0  0
   -5.0114   -2.4035   15.0307 C   0  0  2  0  0  0  0  0  0  0  0  0
   -5.6586    1.1430   14.3208 C   0  0  0  0  0  0  0  0  0  0  0  0
   -7.0417   -3.6816   11.4353 O   0  0  0  0  0  0  0  0  0  0  0  0
   -5.7323   -3.6713   14.9493 O   0  0  0  0  0  0  0  0  0  0  0  0
   -8.1205   -7.1809   12.3608 N   0  0  0  0  0  0  0  0  0  0  0  0
   -4.8661   -0.0808   14.0727 N   0  0  0  0  0  0  0  0  0  0  0  0
   -4.8241   -1.9268   11.9440 O   0  0  0  0  0  0  0  0  0  0  0  0
   -4.8849   -1.9541   16.4115 O   0  0  0  0  0  0  0  0  0  0  0  0
   -9.1865   -4.7595   11.5371 O   0  0  0  0  0  0  0  0  0  0  0  0
   -3.8067   -2.5062   17.2280 C   0  0  2  0  0  0  0  0  0  0  0  0
   -3.4440   -3.9478   16.7712 C   0  0  1  0  0  0  0  0  0  0  0  0
   -4.5636   -4.9653   17.1331 C   0  0  2  0  0  0  0  0  0  0  0  0
   -4.9325   -4.8813   18.6426 C   0  0  1  0  0  0  0  0  0  0  0  0
   -5.2537   -3.4202   19.0640 C   0  0  1  0  0  0  0  0  0  0  0  0
   -5.4899   -3.2984   20.5923 C   0  0  0  0  0  0  0  0  0  0  0  0
   -4.1860   -2.5209   18.6366 O   0  0  0  0  0  0  0  0  0  0  0  0
   -6.0445   -5.7972   18.9792 N   0  0  0  0  0  0  0  0  0  0  0  0
   -3.1397   -3.9702   15.3778 O   0  0  0  0  0  0  0  0  0  0  0  0
   -4.1909   -6.2925   16.7681 O   0  0  0  0  0  0  0  0  0  0  0  0
   -4.4931   -4.0105   21.3180 O   0  0  0  0  0  0  0  0  0  0  0  0
  -10.0486   -4.6464   10.3675 C   0  0  1  0  0  0  0  0  0  0  0  0
   -9.9472   -5.8950    9.4473 C   0  0  1  0  0  0  0  0  0  0  0  0
  -10.7990   -5.7125    8.1595 C   0  0  2  0  0  0  0  0  0  0  0  0
  -12.2846   -5.3419    8.4746 C   0  0  1  0  0  0  0  0  0  0  0  0
  -12.4148   -4.1775    9.5017 C   0  0  0  0  0  0  0  0  0  0  0  0
  -11.5296   -4.3901   10.7667 C   0  0  2  0  0  0  0  0  0  0  0  0
  -13.0239   -5.0333    7.2319 N   0  0  0  0  0  0  0  0  0  0  0  0
  -11.6698   -3.2222   11.6631 N   0  0  0  0  0  0  0  0  0  0  0  0
   -8.5899   -6.1748    9.1205 O   0  0  0  0  0  0  0  0  0  0  0  0
  -10.7384   -6.8857    7.3522 O   0  0  0  0  0  0  0  0  0  0  0  0
  1  2  1  0  0  0  0
  1 16  1  1  0  0  0
  2  3  1  0  0  0  0
  2 12  1  1  0  0  0
  4 11  1  1  0  0  0
  4  3  1  0  0  0  0
  5  4  1  0  0  0  0
  5 10  1  6  0  0  0
  6  7  1  0  0  0  0
  6  5  1  0  0  0  0
  6 14  1  6  0  0  0
  7  8  1  0  0  0  0
  7 13  1  6  0  0  0
  8 15  1  1  0  0  0
  8 11  1  0  0  0  0
  9 13  1  0  0  0  0
 10  1  1  0  0  0  0
 17 15  1  6  0  0  0
 17 18  1  0  0  0  0
 18 25  1  6  0  0  0
 19 18  1  0  0  0  0
 19 26  1  1  0  0  0
 20 19  1  0  0  0  0
 20 24  1  6  0  0  0
 21 23  1  0  0  0  0
 21 20  1  0  0  0  0
 21 22  1  1  0  0  0
 23 17  1  0  0  0  0
 27 22  1  0  0  0  0
 28 29  1  0  0  0  0
 28 16  1  1  0  0  0
 29 36  1  6  0  0  0
 30 37  1  1  0  0  0
 30 29  1  0  0  0  0
 31 30  1  0  0  0  0
 31 34  1  6  0  0  0
 32 31  1  0  0  0  0
 32 33  1  0  0  0  0
 33 28  1  0  0  0  0
 33 35  1  1  0  0  0
M  END
>  <CHROM.1>
65.88001459,-153.02412736,102.64542567,74.12951132,-29.41646578,-136.26958589
-166.03739114,-171.39574605,45.36221859,-40.96899175,-178.98190494,57.89746859
-58.21559978,62.10686933,-173.81227707,57.49080195,-7.06996661,-4.03558128
13.66350425,2.73764528,-0.90180979,-0.70435779

>  <Name>
lig.pdb

>  <RI>
0

>  <Rbt.Current_Directory>
/home/afrankz/demos/rdock_decoys_rna/rnas/2m4q

>  <Rbt.Executable>
rbdock ($Id: //depot/dev/client3/rdock/2013.1/src/exe/rbdock.cxx#4 $)

>  <Rbt.Library>
libRbt.so (2013.1, Build901 2013/11/27)

>  <Rbt.Parameter_File>
/export/apps/rDock/src/rDock_2013.1_src/data/scripts/dock_solv.prm

>  <Rbt.Receptor>
prm/blind_docking_40.prm

>  <SCORE>
-3.48172

>  <SCORE.INTER>
-15.3676

>  <SCORE.INTER.CONST>
1

>  <SCORE.INTER.POLAR>
-4.23773

>  <SCORE.INTER.ROT>
10

>  <SCORE.INTER.SOLV>
18.5001

>  <SCORE.INTER.VDW>
-12.5527

>  <SCORE.INTER.norm>
-0.41534

>  <SCORE.INTRA>
-9.11751

>  <SCORE.INTRA.DIHEDRAL>
-26.0227

>  <SCORE.INTRA.DIHEDRAL.0>
44.8331

>  <SCORE.INTRA.POLAR>
0.0271483

>  <SCORE.INTRA.POLAR.0>
-0.108895

>  <SCORE.INTRA.REPUL>
-0.00912235

>  <SCORE.INTRA.REPUL.0>
0.00912235

>  <SCORE.INTRA.SOLV>
0.693918

>  <SCORE.INTRA.SOLV.lig_0>
-53.9067

>  <SCORE.INTRA.VDW>
3.50017

>  <SCORE.INTRA.VDW.0>
-2.93492

>  <SCORE.INTRA.norm>
-0.246419

>  <SCORE.RESTR>
21.0034

>  <SCORE.RESTR.CAVITY>
21.0034

>  <SCORE.RESTR.norm>
0.567659

>  <SCORE.SYSTEM>
0

>  <SCORE.SYSTEM.CONST>
0

>  <SCORE.SYSTEM.DIHEDRAL>
0

>  <SCORE.SYSTEM.SOLV>
0

>  <SCORE.SYSTEM.norm>
0

>  <SCORE.heavy>
37

>  <SCORE.norm>
-0.0941006

>  <RMSD>
15.092

$$$$
lig.pdb
 OpenBabel11021811453D
libRbt.so/2013.1/901 2013/11/27
 37 40  0  0  0  0  0  0  0  0999 V2000
  -14.6920    6.0768    7.7863 C   0  0  2  0  0  0  0  0  0  0  0  0
  -14.2246    4.5845    7.8274 C   0  0  1  0  0  0  0  0  0  0  0  0
  -13.1170    4.2575    6.7833 C   0  0  0  0  0  0  0  0  0  0  0  0
  -13.5031    4.7823    5.3782 C   0  0  1  0  0  0  0  0  0  0  0  0
  -13.8050    6.2961    5.4465 C   0  0  1  0  0  0  0  0  0  0  0  0
  -14.1498    6.8591    4.0415 C   0  0  1  0  0  0  0  0  0  0  0  0
  -13.0346    6.5063    3.0127 C   0  0  1  0  0  0  0  0  0  0  0  0
  -12.6912    4.9870    3.0226 C   0  0  2  0  0  0  0  0  0  0  0  0
  -12.3474    7.6589    0.9601 C   0  0  0  0  0  0  0  0  0  0  0  0
  -14.8621    6.5588    6.4137 O   0  0  0  0  0  0  0  0  0  0  0  0
  -12.4803    4.4947    4.3816 O   0  0  0  0  0  0  0  0  0  0  0  0
  -13.7417    4.2497    9.1848 N   0  0  0  0  0  0  0  0  0  0  0  0
  -13.4465    6.9720    1.6724 N   0  0  0  0  0  0  0  0  0  0  0  0
  -15.4216    6.4019    3.5998 O   0  0  0  0  0  0  0  0  0  0  0  0
  -11.5336    4.7214    2.1777 O   0  0  0  0  0  0  0  0  0  0  0  0
  -13.7694    6.9394    8.5193 O   0  0  0  0  0  0  0  0  0  0  0  0
  -10.3748    5.6043    2.2857 C   0  0  2  0  0  0  0  0  0  0  0  0
   -9.1300    4.9771    1.5960 C   0  0  1  0  0  0  0  0  0  0  0  0
   -8.5802    3.7613    2.3957 C   0  0  2  0  0  0  0  0  0  0  0  0
   -8.3250    4.1371    3.8842 C   0  0  1  0  0  0  0  0  0  0  0  0
   -9.5812    4.7914    4.5239 C   0  0  1  0  0  0  0  0  0  0  0  0
   -9.3003    5.2952    5.9639 C   0  0  0  0  0  0  0  0  0  0  0  0
  -10.0700    5.8818    3.6851 O   0  0  0  0  0  0  0  0  0  0  0  0
   -7.8679    2.9675    4.6663 N   0  0  0  0  0  0  0  0  0  0  0  0
   -9.4276    4.6299    0.2449 O   0  0  0  0  0  0  0  0  0  0  0  0
   -7.4016    3.2362    1.7888 O   0  0  0  0  0  0  0  0  0  0  0  0
  -10.3670    6.1141    6.4319 O   0  0  0  0  0  0  0  0  0  0  0  0
  -14.3287    7.8178    9.5388 C   0  0  1  0  0  0  0  0  0  0  0  0
  -14.7326    9.2013    8.9566 C   0  0  1  0  0  0  0  0  0  0  0  0
  -15.2359   10.1552   10.0765 C   0  0  2  0  0  0  0  0  0  0  0  0
  -16.3867    9.5235   10.9253 C   0  0  1  0  0  0  0  0  0  0  0  0
  -16.0608    8.0789   11.4097 C   0  0  0  0  0  0  0  0  0  0  0  0
  -15.5402    7.1630   10.2613 C   0  0  2  0  0  0  0  0  0  0  0  0
  -16.7369   10.3955   12.0667 N   0  0  0  0  0  0  0  0  0  0  0  0
  -15.2060    5.8315   10.8117 N   0  0  0  0  0  0  0  0  0  0  0  0
  -13.6484    9.7868    8.2430 O   0  0  0  0  0  0  0  0  0  0  0  0
  -15.6522   11.3998    9.5204 O   0  0  0  0  0  0  0  0  0  0  0  0
  1  2  1  0  0  0  0
  1 16  1  6  0  0  0
  2  3  1  0  0  0  0
  2 12  1  1  0  0  0
  4 11  1  6  0  0  0
  4  3  1  0  0  0  0
  5  4  1  0  0  0  0
  5 10  1  1  0  0  0
  6  7  1  0  0  0  0
  6  5  1  0  0  0  0
  6 14  1  6  0  0  0
  7  8  1  0  0  0  0
  7 13  1  6  0  0  0
  8 15  1  6  0  0  0
  8 11  1  0  0  0  0
  9 13  1  0  0  0  0
 10  1  1  0  0  0  0
 17 15  1  1  0  0  0
 17 18  1  0  0  0  0
 18 25  1  6  0  0  0
 19 18  1  0  0  0  0
 19 26  1  6  0  0  0
 20 19  1  0  0  0  0
 20 24  1  1  0  0  0
 21 23  1  0  0  0  0
 21 20  1  0  0  0  0
 21 22  1  1  0  0  0
 23 17  1  0  0  0  0
 27 22  1  0  0  0  0
 28 29  1  0  0  0  0
 28 16  1  6  0  0  0
 29 36  1  1  0  0  0
 30 37  1  6  0  0  0
 30 29  1  0  0  0  0
 31 30  1  0  0  0  0
 31 34  1  1  0  0  0
 32 31  1  0  0  0  0
 32 33  1  0  0  0  0
 33 28  1  0  0  0  0
 33 35  1  1  0  0  0
M  END
>  <CHROM.1>
-91.81976361,45.16289197,135.24312712,-56.21187174,165.75931989,-127.56044659
67.43434505,-51.52978350,168.66738707,110.02666567,73.48153747,-89.97715179
-49.05898117,-176.07292526,-48.40215688,98.09902455,-12.69908799,6.30254524
5.91966851,-2.39839196,0.72523481,-1.42500054

>  <Name>
lig.pdb

>  <RI>
1.95696e+07

>  <Rbt.Current_Directory>
/home/itssahil/PROJECTS/Mol_Feturizer/New_Systems/rnas/2m4q

>  <Rbt.Executable>
rbdock ($Id: //depot/dev/client3/rdock/2013.1/src/exe/rbdock.cxx#4 $)

>  <Rbt.Library>
libRbt.so (2013.1, Build901 2013/11/27)

>  <Rbt.Parameter_File>
/export/apps/rDock/src/rDock_2013.1_src/data/scripts/dock_solv.prm

>  <Rbt.Receptor>
prm/blind_docking_100.prm

>  <SCORE>
-16.3066

>  <SCORE.INTER>
-14.2122

>  <SCORE.INTER.CONST>
1

>  <SCORE.INTER.POLAR>
-2.86822

>  <SCORE.INTER.ROT>
10

>  <SCORE.INTER.SOLV>
18.3847

>  <SCORE.INTER.VDW>
-16.309

>  <SCORE.INTER.norm>
-0.384115

>  <SCORE.INTRA>
-11.7301

>  <SCORE.INTRA.DIHEDRAL>
-21.9625

>  <SCORE.INTRA.DIHEDRAL.0>
44.8331

>  <SCORE.INTRA.POLAR>
-0.780813

>  <SCORE.INTRA.POLAR.0>
-0.108895

>  <SCORE.INTRA.REPUL>
-0.00912235

>  <SCORE.INTRA.REPUL.0>
0.00912235

>  <SCORE.INTRA.SOLV>
0.317521

>  <SCORE.INTRA.SOLV.lig_0>
-53.9067

>  <SCORE.INTRA.VDW>
1.79275

>  <SCORE.INTRA.VDW.0>
-2.93492

>  <SCORE.INTRA.norm>
-0.31703

>  <SCORE.RESTR>
9.63578

>  <SCORE.RESTR.CAVITY>
9.63578

>  <SCORE.RESTR.norm>
0.260427

>  <SCORE.SYSTEM>
0

>  <SCORE.SYSTEM.CONST>
0

>  <SCORE.SYSTEM.DIHEDRAL>
0

>  <SCORE.SYSTEM.SOLV>
0

>  <SCORE.SYSTEM.norm>
0

>  <SCORE.heavy>
37

>  <SCORE.norm>
-0.440718

>  <RMSD>
15.137

$$$$
lig.pdb
 OpenBabel11021811453D
libRbt.so/2013.1/901 2013/11/27
 37 40  0  0  0  0  0  0  0  0999 V2000
  -15.3911    4.5223    9.1650 C   0  0  2  0  0  0  0  0  0  0  0  0
  -14.8146    3.0792    8.9854 C   0  0  1  0  0  0  0  0  0  0  0  0
  -13.4725    3.0464    8.1970 C   0  0  0  0  0  0  0  0  0  0  0  0
  -13.5713    3.8770    6.8934 C   0  0  1  0  0  0  0  0  0  0  0  0
  -14.0143    5.3204    7.2215 C   0  0  1  0  0  0  0  0  0  0  0  0
  -14.0766    6.1894    5.9368 C   0  0  1  0  0  0  0  0  0  0  0  0
  -12.7283    6.1282    5.1589 C   0  0  1  0  0  0  0  0  0  0  0  0
  -12.2624    4.6623    4.9136 C   0  0  2  0  0  0  0  0  0  0  0  0
  -11.5654    7.0415    3.2025 C   0  0  0  0  0  0  0  0  0  0  0  0
  -15.2842    5.3108    7.9354 O   0  0  0  0  0  0  0  0  0  0  0  0
  -12.3257    3.8683    6.1381 O   0  0  0  0  0  0  0  0  0  0  0  0
  -14.6279    2.4476   10.3097 N   0  0  0  0  0  0  0  0  0  0  0  0
  -12.8616    6.8852    3.8971 N   0  0  0  0  0  0  0  0  0  0  0  0
  -15.1673    5.8086    5.1080 O   0  0  0  0  0  0  0  0  0  0  0  0
  -10.9229    4.6434    4.3391 O   0  0  0  0  0  0  0  0  0  0  0  0
  -14.7418    5.2159   10.2739 O   0  0  0  0  0  0  0  0  0  0  0  0
  -10.7878    4.5105    2.8906 C   0  0  2  0  0  0  0  0  0  0  0  0
  -11.4031    3.1713    2.3941 C   0  0  1  0  0  0  0  0  0  0  0  0
  -10.5457    1.9479    2.8279 C   0  0  2  0  0  0  0  0  0  0  0  0
   -9.0584    2.1263    2.4061 C   0  0  1  0  0  0  0  0  0  0  0  0
   -8.4943    3.4906    2.8919 C   0  0  1  0  0  0  0  0  0  0  0  0
   -7.0578    3.7430    2.3636 C   0  0  0  0  0  0  0  0  0  0  0  0
   -9.3844    4.5787    2.4979 O   0  0  0  0  0  0  0  0  0  0  0  0
   -8.2241    0.9988    2.8763 N   0  0  0  0  0  0  0  0  0  0  0  0
  -12.7559    3.0496    2.8294 O   0  0  0  0  0  0  0  0  0  0  0  0
  -11.0842    0.7327    2.3117 O   0  0  0  0  0  0  0  0  0  0  0  0
   -6.3929    4.7251    3.1515 O   0  0  0  0  0  0  0  0  0  0  0  0
  -14.9411    6.6555   10.3820 C   0  0  1  0  0  0  0  0  0  0  0  0
  -14.2037    7.4311    9.2546 C   0  0  1  0  0  0  0  0  0  0  0  0
  -14.3489    8.9674    9.4441 C   0  0  2  0  0  0  0  0  0  0  0  0
  -15.8413    9.4136    9.5762 C   0  0  1  0  0  0  0  0  0  0  0  0
  -16.6408    8.5606   10.6061 C   0  0  0  0  0  0  0  0  0  0  0  0
  -16.4508    7.0284   10.3938 C   0  0  2  0  0  0  0  0  0  0  0  0
  -15.9322   10.8532    9.9008 N   0  0  0  0  0  0  0  0  0  0  0  0
  -17.1968    6.2942   11.4387 N   0  0  0  0  0  0  0  0  0  0  0  0
  -12.8313    7.0562    9.1957 O   0  0  0  0  0  0  0  0  0  0  0  0
  -13.7135    9.6631    8.3745 O   0  0  0  0  0  0  0  0  0  0  0  0
  1  2  1  0  0  0  0
  1 16  1  1  0  0  0
  2  3  1  0  0  0  0
  2 12  1  1  0  0  0
  4 11  1  1  0  0  0
  4  3  1  0  0  0  0
  5  4  1  0  0  0  0
  5 10  1  6  0  0  0
  6  7  1  0  0  0  0
  6  5  1  0  0  0  0
  6 14  1  6  0  0  0
  7  8  1  0  0  0  0
  7 13  1  6  0  0  0
  8 15  1  1  0  0  0
  8 11  1  0  0  0  0
  9 13  1  0  0  0  0
 10  1  1  0  0  0  0
 17 15  1  1  0  0  0
 17 18  1  0  0  0  0
 18 25  1  1  0  0  0
 19 18  1  0  0  0  0
 19 26  1  6  0  0  0
 20 19  1  0  0  0  0
 20 24  1  1  0  0  0
 21 23  1  0  0  0  0
 21 20  1  0  0  0  0
 21 22  1  6  0  0  0
 23 17  1  0  0  0  0
 27 22  1  0  0  0  0
 28 29  1  0  0  0  0
 28 16  1  6  0  0  0
 29 36  1  1  0  0  0
 30 37  1  6  0  0  0
 30 29  1  0  0  0  0
 31 30  1  0  0  0  0
 31 34  1  1  0  0  0
 32 31  1  0  0  0  0
 32 33  1  0  0  0  0
 33 28  1  0  0  0  0
 33 35  1  1  0  0  0
M  END
>  <CHROM.1>
45.14762839,-97.18043048,171.46567164,63.97038669,-61.02467418,166.32829609
69.53255256,-56.73364344,-160.07208770,160.61055292,70.92597400,-70.30368916
53.68989024,-77.20136696,178.80933239,-160.46501469,-12.81719258,5.21450344
6.34982534,2.70134926,0.85861333,0.02500981

>  <Name>
lig.pdb

>  <RI>
1.95696e+07

>  <Rbt.Current_Directory>
/home/itssahil/PROJECTS/Mol_Feturizer/New_Systems/rnas/2m4q

>  <Rbt.Executable>
rbdock ($Id: //depot/dev/client3/rdock/2013.1/src/exe/rbdock.cxx#4 $)

>  <Rbt.Library>
libRbt.so (2013.1, Build901 2013/11/27)

>  <Rbt.Parameter_File>
/export/apps/rDock/src/rDock_2013.1_src/data/scripts/dock_solv.prm

>  <Rbt.Receptor>
prm/blind_docking_100.prm

>  <SCORE>
-7.36462

>  <SCORE.INTER>
-16.7811

>  <SCORE.INTER.CONST>
1

>  <SCORE.INTER.POLAR>
-4.62456

>  <SCORE.INTER.ROT>
10

>  <SCORE.INTER.SOLV>
18.8976

>  <SCORE.INTER.VDW>
-12.3381

>  <SCORE.INTER.norm>
-0.453542

>  <SCORE.INTRA>
-7.68333

>  <SCORE.INTRA.DIHEDRAL>
-32.247

>  <SCORE.INTRA.DIHEDRAL.0>
44.8331

>  <SCORE.INTRA.POLAR>
0.0988811

>  <SCORE.INTRA.POLAR.0>
-0.108895

>  <SCORE.INTRA.REPUL>
-0.00912235

>  <SCORE.INTRA.REPUL.0>
0.00912235

>  <SCORE.INTRA.SOLV>
-0.470016

>  <SCORE.INTRA.SOLV.lig_0>
-53.9067

>  <SCORE.INTRA.VDW>
8.38461

>  <SCORE.INTRA.VDW.0>
-2.93492

>  <SCORE.INTRA.norm>
-0.207658

>  <SCORE.RESTR>
17.0998

>  <SCORE.RESTR.CAVITY>
17.0998

>  <SCORE.RESTR.norm>
0.462156

>  <SCORE.SYSTEM>
0

>  <SCORE.SYSTEM.CONST>
0

>  <SCORE.SYSTEM.DIHEDRAL>
0

>  <SCORE.SYSTEM.SOLV>
0

>  <SCORE.SYSTEM.norm>
0

>  <SCORE.heavy>
37

>  <SCORE.norm>
-0.199044

>  <RMSD>
15.170

$$$$
lig.pdb
 OpenBabel11021811453D
libRbt.so/2013.1/901 2013/11/27
 37 40  0  0  0  0  0  0  0  0999 V2000
  -15.7571    6.1939    9.6717 C   0  0  2  0  0  0  0  0  0  0  0  0
  -15.4235    4.6754    9.8444 C   0  0  1  0  0  0  0  0  0  0  0  0
  -14.0515    4.2727    9.2284 C   0  0  0  0  0  0  0  0  0  0  0  0
  -13.9093    4.8123    7.7836 C   0  0  1  0  0  0  0  0  0  0  0  0
  -14.1228    6.3426    7.7700 C   0  0  1  0  0  0  0  0  0  0  0  0
  -13.9395    6.9177    6.3398 C   0  0  1  0  0  0  0  0  0  0  0  0
  -12.5671    6.4889    5.7404 C   0  0  1  0  0  0  0  0  0  0  0  0
  -12.3412    4.9510    5.8416 C   0  0  2  0  0  0  0  0  0  0  0  0
  -11.1181    6.7929    3.7854 C   0  0  0  0  0  0  0  0  0  0  0  0
  -15.4255    6.6774    8.3295 O   0  0  0  0  0  0  0  0  0  0  0  0
  -12.6306    4.4546    7.1846 O   0  0  0  0  0  0  0  0  0  0  0  0
  -15.4470    4.3190   11.2797 N   0  0  0  0  0  0  0  0  0  0  0  0
  -12.4745    6.9715    4.3470 N   0  0  0  0  0  0  0  0  0  0  0  0
  -15.0141    6.5390    5.4892 O   0  0  0  0  0  0  0  0  0  0  0  0
  -10.9854    4.6078    5.4309 O   0  0  0  0  0  0  0  0  0  0  0  0
  -15.0837    7.0009   10.6855 O   0  0  0  0  0  0  0  0  0  0  0  0
  -10.7870    3.4174    4.6078 C   0  0  2  0  0  0  0  0  0  0  0  0
   -9.3116    3.3115    4.1275 C   0  0  1  0  0  0  0  0  0  0  0  0
   -8.9725    4.3965    3.0656 C   0  0  2  0  0  0  0  0  0  0  0  0
   -9.9958    4.3744    1.8933 C   0  0  1  0  0  0  0  0  0  0  0  0
  -11.4567    4.4470    2.4187 C   0  0  1  0  0  0  0  0  0  0  0  0
  -12.4910    4.2887    1.2736 C   0  0  0  0  0  0  0  0  0  0  0  0
  -11.6767    3.4391    3.4517 O   0  0  0  0  0  0  0  0  0  0  0  0
   -9.7199    5.4488    0.9145 N   0  0  0  0  0  0  0  0  0  0  0  0
   -8.4183    3.3619    5.2384 O   0  0  0  0  0  0  0  0  0  0  0  0
   -7.6379    4.2480    2.5858 O   0  0  0  0  0  0  0  0  0  0  0  0
  -12.4622    5.4164    0.4047 O   0  0  0  0  0  0  0  0  0  0  0  0
  -15.2829    8.4440   10.6447 C   0  0  1  0  0  0  0  0  0  0  0  0
  -15.8129    8.9966   11.9974 C   0  0  1  0  0  0  0  0  0  0  0  0
  -16.1101   10.5197   11.9027 C   0  0  2  0  0  0  0  0  0  0  0  0
  -14.8823   11.3357   11.3827 C   0  0  1  0  0  0  0  0  0  0  0  0
  -14.2468   10.7236   10.0984 C   0  0  0  0  0  0  0  0  0  0  0  0
  -13.9851    9.1928   10.2283 C   0  0  2  0  0  0  0  0  0  0  0  0
  -15.2465   12.7522   11.1666 N   0  0  0  0  0  0  0  0  0  0  0  0
  -13.4324    8.6819    8.9552 N   0  0  0  0  0  0  0  0  0  0  0  0
  -16.9695    8.2809   12.4189 O   0  0  0  0  0  0  0  0  0  0  0  0
  -16.5440   11.0217   13.1642 O   0  0  0  0  0  0  0  0  0  0  0  0
  1  2  1  0  0  0  0
  1 16  1  1  0  0  0
  2  3  1  0  0  0  0
  2 12  1  1  0  0  0
  4 11  1  1  0  0  0
  4  3  1  0  0  0  0
  5  4  1  0  0  0  0
  5 10  1  6  0  0  0
  6  7  1  0  0  0  0
  6  5  1  0  0  0  0
  6 14  1  6  0  0  0
  7  8  1  0  0  0  0
  7 13  1  6  0  0  0
  8 15  1  1  0  0  0
  8 11  1  0  0  0  0
  9 13  1  0  0  0  0
 10  1  1  0  0  0  0
 17 15  1  6  0  0  0
 17 18  1  0  0  0  0
 18 25  1  1  0  0  0
 19 18  1  0  0  0  0
 19 26  1  6  0  0  0
 20 19  1  0  0  0  0
 20 24  1  6  0  0  0
 21 23  1  0  0  0  0
 21 20  1  0  0  0  0
 21 22  1  6  0  0  0
 23 17  1  0  0  0  0
 27 22  1  0  0  0  0
 28 29  1  0  0  0  0
 28 16  1  1  0  0  0
 29 36  1  6  0  0  0
 30 37  1  1  0  0  0
 30 29  1  0  0  0  0
 31 30  1  0  0  0  0
 31 34  1  6  0  0  0
 32 31  1  0  0  0  0
 32 33  1  0  0  0  0
 33 28  1  0  0  0  0
 33 35  1  6  0  0  0
M  END
>  <CHROM.1>
-162.29025197,-138.94699761,170.79368328,71.78782954,173.05783103,179.19656802
-48.64071025,-160.37704421,-68.27662921,-69.29002257,-170.33266670,124.87651945
-179.82013607,-72.21703043,-72.49762885,-173.35405089,-13.12094490,6.44325235
7.02068592,2.81955202,1.04742119,-0.14264090

>  <Name>
lig.pdb

>  <RI>
1.95696e+07

>  <Rbt.Current_Directory>
/home/itssahil/PROJECTS/Mol_Feturizer/New_Systems/rnas/2m4q

>  <Rbt.Executable>
rbdock ($Id: //depot/dev/client3/rdock/2013.1/src/exe/rbdock.cxx#4 $)

>  <Rbt.Library>
libRbt.so (2013.1, Build901 2013/11/27)

>  <Rbt.Parameter_File>
/export/apps/rDock/src/rDock_2013.1_src/data/scripts/dock_solv.prm

>  <Rbt.Receptor>
prm/blind_docking_100.prm

>  <SCORE>
-10.3393

>  <SCORE.INTER>
-11.9816

>  <SCORE.INTER.CONST>
1

>  <SCORE.INTER.POLAR>
-3.00026

>  <SCORE.INTER.ROT>
10

>  <SCORE.INTER.SOLV>
16.5179

>  <SCORE.INTER.VDW>
-13.7595

>  <SCORE.INTER.norm>
-0.323827

>  <SCORE.INTRA>
-8.16673

>  <SCORE.INTRA.DIHEDRAL>
-25.9204

>  <SCORE.INTRA.DIHEDRAL.0>
44.8331

>  <SCORE.INTRA.POLAR>
0.0215607

>  <SCORE.INTRA.POLAR.0>
-0.108895

>  <SCORE.INTRA.REPUL>
-0.00822873

>  <SCORE.INTRA.REPUL.0>
0.00912235

>  <SCORE.INTRA.SOLV>
0.037418

>  <SCORE.INTRA.SOLV.lig_0>
-53.9067

>  <SCORE.INTRA.VDW>
4.7426

>  <SCORE.INTRA.VDW.0>
-2.93492

>  <SCORE.INTRA.norm>
-0.220722

>  <SCORE.RESTR>
9.80907

>  <SCORE.RESTR.CAVITY>
9.80907

>  <SCORE.RESTR.norm>
0.26511

>  <SCORE.SYSTEM>
0

>  <SCORE.SYSTEM.CONST>
0

>  <SCORE.SYSTEM.DIHEDRAL>
0

>  <SCORE.SYSTEM.SOLV>
0

>  <SCORE.SYSTEM.norm>
0

>  <SCORE.heavy>
37

>  <SCORE.norm>
-0.27944

>  <RMSD>
15.190

$$$$
lig.pdb
 OpenBabel11021811453D
libRbt.so/2013.1/901 2013/11/27
 37 40  0  0  0  0  0  0  0  0999 V2000
   -3.9321   -3.2270   16.1981 C   0  0  2  0  0  0  0  0  0  0  0  0
   -5.0288   -4.2526   16.6368 C   0  0  1  0  0  0  0  0  0  0  0  0
   -5.9039   -4.7614   15.4539 C   0  0  0  0  0  0  0  0  0  0  0  0
   -6.4202   -3.5810   14.5943 C   0  0  1  0  0  0  0  0  0  0  0  0
   -5.2298   -2.7249   14.1068 C   0  0  1  0  0  0  0  0  0  0  0  0
   -5.7150   -1.5599   13.2030 C   0  0  1  0  0  0  0  0  0  0  0  0
   -6.5997   -2.0930   12.0368 C   0  0  1  0  0  0  0  0  0  0  0  0
   -7.7423   -3.0200   12.5481 C   0  0  2  0  0  0  0  0  0  0  0  0
   -7.9047   -1.3841   10.0854 C   0  0  0  0  0  0  0  0  0  0  0  0
   -4.4513   -2.2469   15.2415 O   0  0  0  0  0  0  0  0  0  0  0  0
   -7.2380   -4.0296   13.4755 O   0  0  0  0  0  0  0  0  0  0  0  0
   -4.3938   -5.4031   17.3154 N   0  0  0  0  0  0  0  0  0  0  0  0
   -7.1206   -0.9484   11.2611 N   0  0  0  0  0  0  0  0  0  0  0  0
   -6.4010   -0.5706   13.9594 O   0  0  0  0  0  0  0  0  0  0  0  0
   -8.4404   -3.6338   11.4254 O   0  0  0  0  0  0  0  0  0  0  0  0
   -2.7631   -3.9074   15.6477 O   0  0  0  0  0  0  0  0  0  0  0  0
   -7.7164   -4.5930   10.5950 C   0  0  2  0  0  0  0  0  0  0  0  0
   -8.4297   -4.7969    9.2282 C   0  0  1  0  0  0  0  0  0  0  0  0
   -9.7658   -5.5778    9.3869 C   0  0  2  0  0  0  0  0  0  0  0  0
   -9.5496   -6.9089   10.1637 C   0  0  1  0  0  0  0  0  0  0  0  0
   -8.8038   -6.6641   11.5051 C   0  0  1  0  0  0  0  0  0  0  0  0
   -8.4601   -7.9939   12.2261 C   0  0  0  0  0  0  0  0  0  0  0  0
   -7.5959   -5.8758   11.2794 O   0  0  0  0  0  0  0  0  0  0  0  0
  -10.8272   -7.6230   10.3786 N   0  0  0  0  0  0  0  0  0  0  0  0
   -8.6240   -3.5450    8.5727 O   0  0  0  0  0  0  0  0  0  0  0  0
  -10.3770   -5.8151    8.1206 O   0  0  0  0  0  0  0  0  0  0  0  0
   -9.5330   -8.9233   12.1145 O   0  0  0  0  0  0  0  0  0  0  0  0
   -1.5735   -3.1067   15.3875 C   0  0  1  0  0  0  0  0  0  0  0  0
   -1.9253   -1.7305   14.7563 C   0  0  1  0  0  0  0  0  0  0  0  0
   -0.6395   -0.9333   14.3980 C   0  0  2  0  0  0  0  0  0  0  0  0
    0.3282   -0.7834   15.6166 C   0  0  1  0  0  0  0  0  0  0  0  0
    0.5917   -2.1317   16.3517 C   0  0  0  0  0  0  0  0  0  0  0  0
   -0.7211   -2.9077   16.6729 C   0  0  2  0  0  0  0  0  0  0  0  0
    1.5994   -0.1515   15.2032 N   0  0  0  0  0  0  0  0  0  0  0  0
   -0.3826   -4.1937   17.3203 N   0  0  0  0  0  0  0  0  0  0  0  0
   -2.7537   -1.8957   13.6100 O   0  0  0  0  0  0  0  0  0  0  0  0
   -0.9782    0.3467   13.8702 O   0  0  0  0  0  0  0  0  0  0  0  0
  1  2  1  0  0  0  0
  1 16  1  6  0  0  0
  2  3  1  0  0  0  0
  2 12  1  6  0  0  0
  4 11  1  6  0  0  0
  4  3  1  0  0  0  0
  5  4  1  0  0  0  0
  5 10  1  1  0  0  0
  6  7  1  0  0  0  0
  6  5  1  0  0  0  0
  6 14  1  1  0  0  0
  7  8  1  0  0  0  0
  7 13  1  1  0  0  0
  8 15  1  6  0  0  0
  8 11  1  0  0  0  0
  9 13  1  0  0  0  0
 10  1  1  0  0  0  0
 17 15  1  1  0  0  0
 17 18  1  0  0  0  0
 18 25  1  1  0  0  0
 19 18  1  0  0  0  0
 19 26  1  6  0  0  0
 20 19  1  0  0  0  0
 20 24  1  1  0  0  0
 21 23  1  0  0  0  0
 21 20  1  0  0  0  0
 21 22  1  6  0  0  0
 23 17  1  0  0  0  0
 27 22  1  0  0  0  0
 28 29  1  0  0  0  0
 28 16  1  1  0  0  0
 29 36  1  6  0  0  0
 30 37  1  1  0  0  0
 30 29  1  0  0  0  0
 31 30  1  0  0  0  0
 31 34  1  6  0  0  0
 32 31  1  0  0  0  0
 32 33  1  0  0  0  0
 33 28  1  0  0  0  0
 33 35  1  6  0  0  0
M  END
>  <CHROM.1>
51.45275486,66.69088829,176.52414004,59.68581112,-162.12378349,-170.62232785
164.10956236,64.83291297,-39.95868728,-172.03237443,179.09109389,-41.54953334
-59.38255584,-76.12490340,-66.28081735,162.66636720,-5.46635795,-3.61051244
13.20806239,0.00145027,0.67419660,2.51293921

>  <Name>
lig.pdb

>  <RI>
0

>  <Rbt.Current_Directory>
/home/afrankz/demos/rdock_decoys_rna/rnas/2m4q

>  <Rbt.Executable>
rbdock ($Id: //depot/dev/client3/rdock/2013.1/src/exe/rbdock.cxx#4 $)

>  <Rbt.Library>
libRbt.so (2013.1, Build901 2013/11/27)

>  <Rbt.Parameter_File>
/export/apps/rDock/src/rDock_2013.1_src/data/scripts/dock_solv.prm

>  <Rbt.Receptor>
prm/blind_docking_40.prm

>  <SCORE>
-17.9513

>  <SCORE.INTER>
-20.4593

>  <SCORE.INTER.CONST>
1

>  <SCORE.INTER.POLAR>
-3.92168

>  <SCORE.INTER.ROT>
10

>  <SCORE.INTER.SOLV>
22.3409

>  <SCORE.INTER.VDW>
-18.2809

>  <SCORE.INTER.norm>
-0.552953

>  <SCORE.INTRA>
-12.3019

>  <SCORE.INTRA.DIHEDRAL>
-36.1784

>  <SCORE.INTRA.DIHEDRAL.0>
44.8331

>  <SCORE.INTRA.POLAR>
-0.64387

>  <SCORE.INTRA.POLAR.0>
-0.108895

>  <SCORE.INTRA.REPUL>
-0.00912235

>  <SCORE.INTRA.REPUL.0>
0.00912235

>  <SCORE.INTRA.SOLV>
0.89353

>  <SCORE.INTRA.SOLV.lig_0>
-53.9067

>  <SCORE.INTRA.VDW>
7.57532

>  <SCORE.INTRA.VDW.0>
-2.93492

>  <SCORE.INTRA.norm>
-0.332483

>  <SCORE.RESTR>
14.8099

>  <SCORE.RESTR.CAVITY>
14.8099

>  <SCORE.RESTR.norm>
0.400267

>  <SCORE.SYSTEM>
0

>  <SCORE.SYSTEM.CONST>
0

>  <SCORE.SYSTEM.DIHEDRAL>
0

>  <SCORE.SYSTEM.SOLV>
0

>  <SCORE.SYSTEM.norm>
0

>  <SCORE.heavy>
37

>  <SCORE.norm>
-0.485169

>  <RMSD>
15.285

$$$$
lig.pdb
 OpenBabel11021811453D
libRbt.so/2013.1/901 2013/11/27
 37 40  0  0  0  0  0  0  0  0999 V2000
  -15.4509    8.8963    9.8491 C   0  0  2  0  0  0  0  0  0  0  0  0
  -13.9673    9.2496   10.1972 C   0  0  1  0  0  0  0  0  0  0  0  0
  -12.9366    8.6039    9.2254 C   0  0  0  0  0  0  0  0  0  0  0  0
  -13.2207    7.0933    9.0348 C   0  0  1  0  0  0  0  0  0  0  0  0
  -14.6751    6.8877    8.5556 C   0  0  1  0  0  0  0  0  0  0  0  0
  -14.9736    5.3841    8.3111 C   0  0  1  0  0  0  0  0  0  0  0  0
  -13.9210    4.7583    7.3483 C   0  0  1  0  0  0  0  0  0  0  0  0
  -12.4621    5.0506    7.8094 C   0  0  2  0  0  0  0  0  0  0  0  0
  -15.1721    3.0135    6.1634 C   0  0  0  0  0  0  0  0  0  0  0  0
  -15.6093    7.4822    9.5022 O   0  0  0  0  0  0  0  0  0  0  0  0
  -12.2733    6.4645    8.1243 O   0  0  0  0  0  0  0  0  0  0  0  0
  -13.7918   10.7182   10.2029 N   0  0  0  0  0  0  0  0  0  0  0  0
  -14.1814    3.3095    7.2207 N   0  0  0  0  0  0  0  0  0  0  0  0
  -15.0430    4.6655    9.5360 O   0  0  0  0  0  0  0  0  0  0  0  0
  -11.5101    4.6010    6.8014 O   0  0  0  0  0  0  0  0  0  0  0  0
  -15.9575    9.7452    8.7742 O   0  0  0  0  0  0  0  0  0  0  0  0
  -10.3314    5.4233    6.5402 C   0  0  2  0  0  0  0  0  0  0  0  0
  -10.6394    6.5178    5.4792 C   0  0  1  0  0  0  0  0  0  0  0  0
  -10.8253    5.9081    4.0602 C   0  0  2  0  0  0  0  0  0  0  0  0
   -9.6155    5.0093    3.6721 C   0  0  1  0  0  0  0  0  0  0  0  0
   -9.3210    3.9536    4.7740 C   0  0  1  0  0  0  0  0  0  0  0  0
   -8.0364    3.1403    4.4664 C   0  0  0  0  0  0  0  0  0  0  0  0
   -9.2206    4.5965    6.0809 O   0  0  0  0  0  0  0  0  0  0  0  0
   -9.8175    4.3710    2.3529 N   0  0  0  0  0  0  0  0  0  0  0  0
  -11.7696    7.2937    5.8732 O   0  0  0  0  0  0  0  0  0  0  0  0
  -11.0421    6.9268    3.0863 O   0  0  0  0  0  0  0  0  0  0  0  0
   -8.2584    2.2269    3.3969 O   0  0  0  0  0  0  0  0  0  0  0  0
  -17.0987   10.6024    9.0689 C   0  0  1  0  0  0  0  0  0  0  0  0
  -16.7333   11.7333   10.0708 C   0  0  1  0  0  0  0  0  0  0  0  0
  -17.9851   12.5756   10.4457 C   0  0  2  0  0  0  0  0  0  0  0  0
  -18.7285   13.1315    9.1878 C   0  0  1  0  0  0  0  0  0  0  0  0
  -18.9880   12.0413    8.1053 C   0  0  0  0  0  0  0  0  0  0  0  0
  -17.7137   11.2071    7.7748 C   0  0  2  0  0  0  0  0  0  0  0  0
  -19.9892   13.7997    9.5754 N   0  0  0  0  0  0  0  0  0  0  0  0
  -18.0555   10.1654    6.7822 N   0  0  0  0  0  0  0  0  0  0  0  0
  -16.1166   11.1973   11.2370 O   0  0  0  0  0  0  0  0  0  0  0  0
  -17.6245   13.6401   11.3224 O   0  0  0  0  0  0  0  0  0  0  0  0
  1  2  1  0  0  0  0
  1 16  1  6  0  0  0
  2  3  1  0  0  0  0
  2 12  1  6  0  0  0
  4 11  1  6  0  0  0
  4  3  1  0  0  0  0
  5  4  1  0  0  0  0
  5 10  1  1  0  0  0
  6  7  1  0  0  0  0
  6  5  1  0  0  0  0
  6 14  1  1  0  0  0
  7  8  1  0  0  0  0
  7 13  1  1  0  0  0
  8 15  1  6  0  0  0
  8 11  1  0  0  0  0
  9 13  1  0  0  0  0
 10  1  1  0  0  0  0
 17 15  1  6  0  0  0
 17 18  1  0  0  0  0
 18 25  1  1  0  0  0
 19 18  1  0  0  0  0
 19 26  1  6  0  0  0
 20 19  1  0  0  0  0
 20 24  1  6  0  0  0
 21 23  1  0  0  0  0
 21 20  1  0  0  0  0
 21 22  1  6  0  0  0
 23 17  1  0  0  0  0
 27 22  1  0  0  0  0
 28 29  1  0  0  0  0
 28 16  1  6  0  0  0
 29 36  1  1  0  0  0
 30 37  1  1  0  0  0
 30 29  1  0  0  0  0
 31 30  1  0  0  0  0
 31 34  1  1  0  0  0
 32 31  1  0  0  0  0
 32 33  1  0  0  0  0
 33 28  1  0  0  0  0
 33 35  1  6  0  0  0
M  END
>  <CHROM.1>
-161.78281422,141.20971918,86.47942847,-54.99904218,-86.81572579,-118.72895365
-154.83525547,-166.28822556,-72.62190461,21.42851652,58.24908833,68.04879981
-57.70080642,-176.11628089,81.51276358,57.96784855,-13.85260155,7.59650808
7.55208395,2.72910841,0.80425818,-0.44442902

>  <Name>
lig.pdb

>  <RI>
0

>  <Rbt.Current_Directory>
/home/afrankz/demos/rdock_decoys_rna/rnas/2m4q

>  <Rbt.Executable>
rbdock ($Id: //depot/dev/client3/rdock/2013.1/src/exe/rbdock.cxx#4 $)

>  <Rbt.Library>
libRbt.so (2013.1, Build901 2013/11/27)

>  <Rbt.Parameter_File>
/export/apps/rDock/src/rDock_2013.1_src/data/scripts/dock_solv.prm

>  <Rbt.Receptor>
prm/blind_docking_80.prm

>  <SCORE>
7.27259

>  <SCORE.INTER>
-10.1308

>  <SCORE.INTER.CONST>
1

>  <SCORE.INTER.POLAR>
-1.96324

>  <SCORE.INTER.ROT>
10

>  <SCORE.INTER.SOLV>
18.831

>  <SCORE.INTER.VDW>
-16.7534

>  <SCORE.INTER.norm>
-0.273805

>  <SCORE.INTRA>
-8.99009

>  <SCORE.INTRA.DIHEDRAL>
-20.1794

>  <SCORE.INTRA.DIHEDRAL.0>
44.8331

>  <SCORE.INTRA.POLAR>
-0.896713

>  <SCORE.INTRA.POLAR.0>
-0.108895

>  <SCORE.INTRA.REPUL>
0.286057

>  <SCORE.INTRA.REPUL.0>
0.00912235

>  <SCORE.INTRA.SOLV>
0.760156

>  <SCORE.INTRA.SOLV.lig_0>
-53.9067

>  <SCORE.INTRA.VDW>
2.33806

>  <SCORE.INTRA.VDW.0>
-2.93492

>  <SCORE.INTRA.norm>
-0.242976

>  <SCORE.RESTR>
26.3935

>  <SCORE.RESTR.CAVITY>
26.3935

>  <SCORE.RESTR.norm>
0.713337

>  <SCORE.SYSTEM>
0

>  <SCORE.SYSTEM.CONST>
0

>  <SCORE.SYSTEM.DIHEDRAL>
0

>  <SCORE.SYSTEM.SOLV>
0

>  <SCORE.SYSTEM.norm>
0

>  <SCORE.heavy>
37

>  <SCORE.norm>
0.196557

>  <RMSD>
15.403

$$$$
lig.pdb
 OpenBabel11021811453D
libRbt.so/2013.1/901 2013/11/27
 37 40  0  0  0  0  0  0  0  0999 V2000
  -16.6873    8.9219    8.9876 C   0  0  2  0  0  0  0  0  0  0  0  0
  -16.0078    8.0689   10.1090 C   0  0  1  0  0  0  0  0  0  0  0  0
  -14.5441    7.6607    9.7701 C   0  0  0  0  0  0  0  0  0  0  0  0
  -14.4483    7.0612    8.3451 C   0  0  1  0  0  0  0  0  0  0  0  0
  -15.0242    8.0584    7.3149 C   0  0  1  0  0  0  0  0  0  0  0  0
  -14.8982    7.5024    5.8711 C   0  0  1  0  0  0  0  0  0  0  0  0
  -13.4287    7.0878    5.5618 C   0  0  1  0  0  0  0  0  0  0  0  0
  -12.8444    6.1487    6.6586 C   0  0  2  0  0  0  0  0  0  0  0  0
  -12.0252    6.5849    3.6148 C   0  0  0  0  0  0  0  0  0  0  0  0
  -16.4009    8.3958    7.6511 O   0  0  0  0  0  0  0  0  0  0  0  0
  -13.0869    6.6756    7.9992 O   0  0  0  0  0  0  0  0  0  0  0  0
  -16.0323    8.8134   11.3868 N   0  0  0  0  0  0  0  0  0  0  0  0
  -13.3705    6.4741    4.2190 N   0  0  0  0  0  0  0  0  0  0  0  0
  -15.7952    6.4208    5.6540 O   0  0  0  0  0  0  0  0  0  0  0  0
  -11.4234    5.9202    6.4285 O   0  0  0  0  0  0  0  0  0  0  0  0
  -16.2924   10.3248    9.0791 O   0  0  0  0  0  0  0  0  0  0  0  0
  -10.8831    4.5859    6.6766 C   0  0  2  0  0  0  0  0  0  0  0  0
   -9.5701    4.3584    5.8748 C   0  0  1  0  0  0  0  0  0  0  0  0
   -9.8427    4.2266    4.3489 C   0  0  2  0  0  0  0  0  0  0  0  0
  -10.9242    3.1447    4.0629 C   0  0  1  0  0  0  0  0  0  0  0  0
  -12.2045    3.3898    4.9092 C   0  0  1  0  0  0  0  0  0  0  0  0
  -13.2379    2.2456    4.7381 C   0  0  0  0  0  0  0  0  0  0  0  0
  -11.8586    3.5624    6.3171 O   0  0  0  0  0  0  0  0  0  0  0  0
  -11.2384    3.0627    2.6196 N   0  0  0  0  0  0  0  0  0  0  0  0
   -8.6262    5.3902    6.1558 O   0  0  0  0  0  0  0  0  0  0  0  0
   -8.6403    3.9533    3.6327 O   0  0  0  0  0  0  0  0  0  0  0  0
  -13.6800    2.1593    3.3874 O   0  0  0  0  0  0  0  0  0  0  0  0
  -15.8394   10.8179   10.3736 C   0  0  1  0  0  0  0  0  0  0  0  0
  -14.3217   11.1533   10.3696 C   0  0  1  0  0  0  0  0  0  0  0  0
  -13.8394   11.5846   11.7833 C   0  0  2  0  0  0  0  0  0  0  0  0
  -14.6917   12.7550   12.3729 C   0  0  1  0  0  0  0  0  0  0  0  0
  -16.2255   12.5023   12.2662 C   0  0  0  0  0  0  0  0  0  0  0  0
  -16.6627   12.0521   10.8397 C   0  0  2  0  0  0  0  0  0  0  0  0
  -14.3002   13.0377   13.7703 N   0  0  0  0  0  0  0  0  0  0  0  0
  -18.1172   11.7839   10.8363 N   0  0  0  0  0  0  0  0  0  0  0  0
  -13.5601   10.0498    9.8902 O   0  0  0  0  0  0  0  0  0  0  0  0
  -12.4594   11.9398   11.7517 O   0  0  0  0  0  0  0  0  0  0  0  0
  1  2  1  0  0  0  0
  1 16  1  6  0  0  0
  2  3  1  0  0  0  0
  2 12  1  1  0  0  0
  4 11  1  6  0  0  0
  4  3  1  0  0  0  0
  5  4  1  0  0  0  0
  5 10  1  1  0  0  0
  6  7  1  0  0  0  0
  6  5  1  0  0  0  0
  6 14  1  1  0  0  0
  7  8  1  0  0  0  0
  7 13  1  6  0  0  0
  8 15  1  6  0  0  0
  8 11  1  0  0  0  0
  9 13  1  0  0  0  0
 10  1  1  0  0  0  0
 17 15  1  6  0  0  0
 17 18  1  0  0  0  0
 18 25  1  6  0  0  0
 19 18  1  0  0  0  0
 19 26  1  6  0  0  0
 20 19  1  0  0  0  0
 20 24  1  6  0  0  0
 21 23  1  0  0  0  0
 21 20  1  0  0  0  0
 21 22  1  1  0  0  0
 23 17  1  0  0  0  0
 27 22  1  0  0  0  0
 28 29  1  0  0  0  0
 28 16  1  6  0  0  0
 29 36  1  1  0  0  0
 30 37  1  6  0  0  0
 30 29  1  0  0  0  0
 31 30  1  0  0  0  0
 31 34  1  1  0  0  0
 32 31  1  0  0  0  0
 32 33  1  0  0  0  0
 33 28  1  0  0  0  0
 33 35  1  1  0  0  0
M  END
>  <CHROM.1>
-173.01563223,-141.27349835,155.39698468,-172.34843518,157.21541151,-23.81891512
-46.68860236,-58.31246472,-62.30455849,85.41667754,-176.16230260,111.23065200
-173.29967851,64.14646965,-70.22881200,-50.85491117,-13.56875266,7.48607645
7.69079223,1.96302637,-0.09512211,0.78399397

>  <Name>
lig.pdb

>  <RI>
0

>  <Rbt.Current_Directory>
/home/itssahil/PROJECTS/Mol_Feturizer/New_Systems/rnas/2m4q

>  <Rbt.Executable>
rbdock ($Id: //depot/dev/client3/rdock/2013.1/src/exe/rbdock.cxx#4 $)

>  <Rbt.Library>
libRbt.so (2013.1, Build901 2013/11/27)

>  <Rbt.Parameter_File>
/export/apps/rDock/src/rDock_2013.1_src/data/scripts/dock_solv.prm

>  <Rbt.Receptor>
prm/blind_docking_60.prm

>  <SCORE>
-5.13829

>  <SCORE.INTER>
-13.2688

>  <SCORE.INTER.CONST>
1

>  <SCORE.INTER.POLAR>
-2.83614

>  <SCORE.INTER.ROT>
10

>  <SCORE.INTER.SOLV>
17.7757

>  <SCORE.INTER.VDW>
-15.584

>  <SCORE.INTER.norm>
-0.358617

>  <SCORE.INTRA>
-2.19063

>  <SCORE.INTRA.DIHEDRAL>
-21.9124

>  <SCORE.INTRA.DIHEDRAL.0>
44.8331

>  <SCORE.INTRA.POLAR>
-1.00657

>  <SCORE.INTRA.POLAR.0>
-0.108895

>  <SCORE.INTRA.REPUL>
-0.00912235

>  <SCORE.INTRA.REPUL.0>
0.00912235

>  <SCORE.INTRA.SOLV>
2.03803

>  <SCORE.INTRA.SOLV.lig_0>
-53.9067

>  <SCORE.INTRA.VDW>
11.2145

>  <SCORE.INTRA.VDW.0>
-2.93492

>  <SCORE.INTRA.norm>
-0.0592061

>  <SCORE.RESTR>
10.3212

>  <SCORE.RESTR.CAVITY>
10.3212

>  <SCORE.RESTR.norm>
0.278951

>  <SCORE.SYSTEM>
0

>  <SCORE.SYSTEM.CONST>
0

>  <SCORE.SYSTEM.DIHEDRAL>
0

>  <SCORE.SYSTEM.SOLV>
0

>  <SCORE.SYSTEM.norm>
0

>  <SCORE.heavy>
37

>  <SCORE.norm>
-0.138873

>  <RMSD>
15.416

$$$$
lig.pdb
 OpenBabel11021811453D
libRbt.so/2013.1/901 2013/11/27
 37 40  0  0  0  0  0  0  0  0999 V2000
   -4.1412   -3.0427   15.7389 C   0  0  2  0  0  0  0  0  0  0  0  0
   -5.2446   -3.9800   16.3314 C   0  0  1  0  0  0  0  0  0  0  0  0
   -6.1579   -4.6189   15.2445 C   0  0  0  0  0  0  0  0  0  0  0  0
   -6.6747   -3.5487   14.2512 C   0  0  1  0  0  0  0  0  0  0  0  0
   -5.4820   -2.7877   13.6302 C   0  0  1  0  0  0  0  0  0  0  0  0
   -5.9691   -1.7391   12.5943 C   0  0  1  0  0  0  0  0  0  0  0  0
   -6.8921   -2.3997   11.5273 C   0  0  1  0  0  0  0  0  0  0  0  0
   -8.0377   -3.2290   12.1800 C   0  0  2  0  0  0  0  0  0  0  0  0
   -8.5320   -0.6013   11.2268 C   0  0  0  0  0  0  0  0  0  0  0  0
   -4.6668   -2.1836   14.6755 O   0  0  0  0  0  0  0  0  0  0  0  0
   -7.5282   -4.1209   13.2186 O   0  0  0  0  0  0  0  0  0  0  0  0
   -4.6131   -5.0464   17.1387 N   0  0  0  0  0  0  0  0  0  0  0  0
   -7.4120   -1.3542   10.6220 N   0  0  0  0  0  0  0  0  0  0  0  0
   -6.6182   -0.6464   13.2316 O   0  0  0  0  0  0  0  0  0  0  0  0
   -8.7745   -3.9678   11.1623 O   0  0  0  0  0  0  0  0  0  0  0  0
   -2.9986   -3.8126   15.2549 O   0  0  0  0  0  0  0  0  0  0  0  0
   -8.0574   -4.9604   10.3658 C   0  0  2  0  0  0  0  0  0  0  0  0
   -8.8350   -5.2955    9.0613 C   0  0  1  0  0  0  0  0  0  0  0  0
  -10.1268   -6.1113    9.3544 C   0  0  2  0  0  0  0  0  0  0  0  0
   -9.8134   -7.3695   10.2149 C   0  0  1  0  0  0  0  0  0  0  0  0
   -9.0066   -6.9945   11.4892 C   0  0  1  0  0  0  0  0  0  0  0  0
   -8.5691   -8.2511   12.2866 C   0  0  0  0  0  0  0  0  0  0  0  0
   -7.8467   -6.1813   11.1362 O   0  0  0  0  0  0  0  0  0  0  0  0
  -11.0466   -8.1123   10.5556 N   0  0  0  0  0  0  0  0  0  0  0  0
   -9.1166   -4.1059    8.3263 O   0  0  0  0  0  0  0  0  0  0  0  0
  -10.7956   -6.4680    8.1466 O   0  0  0  0  0  0  0  0  0  0  0  0
   -8.2029   -7.9046   13.6182 O   0  0  0  0  0  0  0  0  0  0  0  0
   -1.7136   -3.1314   15.1613 C   0  0  1  0  0  0  0  0  0  0  0  0
   -1.8685   -1.6606   14.6828 C   0  0  1  0  0  0  0  0  0  0  0  0
   -0.4816   -0.9829   14.4970 C   0  0  2  0  0  0  0  0  0  0  0  0
    0.4091   -1.0866   15.7774 C   0  0  1  0  0  0  0  0  0  0  0  0
    0.4723   -2.5315   16.3573 C   0  0  0  0  0  0  0  0  0  0  0  0
   -0.9365   -3.1809   16.5074 C   0  0  2  0  0  0  0  0  0  0  0  0
    1.7673   -0.5640   15.5161 N   0  0  0  0  0  0  0  0  0  0  0  0
   -0.7861   -4.5629   17.0122 N   0  0  0  0  0  0  0  0  0  0  0  0
   -2.6280   -1.5964   13.4800 O   0  0  0  0  0  0  0  0  0  0  0  0
   -0.6412    0.3796   14.1099 O   0  0  0  0  0  0  0  0  0  0  0  0
  1  2  1  0  0  0  0
  1 16  1  6  0  0  0
  2  3  1  0  0  0  0
  2 12  1  6  0  0  0
  4 11  1  6  0  0  0
  4  3  1  0  0  0  0
  5  4  1  0  0  0  0
  5 10  1  1  0  0  0
  6  7  1  0  0  0  0
  6  5  1  0  0  0  0
  6 14  1  1  0  0  0
  7  8  1  0  0  0  0
  7 13  1  1  0  0  0
  8 15  1  6  0  0  0
  8 11  1  0  0  0  0
  9 13  1  0  0  0  0
 10  1  1  0  0  0  0
 17 15  1  1  0  0  0
 17 18  1  0  0  0  0
 18 25  1  1  0  0  0
 19 18  1  0  0  0  0
 19 26  1  6  0  0  0
 20 19  1  0  0  0  0
 20 24  1  1  0  0  0
 21 23  1  0  0  0  0
 21 20  1  0  0  0  0
 21 22  1  6  0  0  0
 23 17  1  0  0  0  0
 27 22  1  0  0  0  0
 28 29  1  0  0  0  0
 28 16  1  1  0  0  0
 29 36  1  6  0  0  0
 30 37  1  1  0  0  0
 30 29  1  0  0  0  0
 31 30  1  0  0  0  0
 31 34  1  6  0  0  0
 32 31  1  0  0  0  0
 32 33  1  0  0  0  0
 33 28  1  0  0  0  0
 33 35  1  6  0  0  0
M  END
>  <CHROM.1>
-55.03780332,61.39796937,-78.75211091,159.39617196,-161.18758909,-156.70834408
104.16809973,61.11774522,-162.35824624,61.64795200,-135.02034665,-37.81997212
172.00212913,173.59545682,-60.86806740,-80.06322720,-5.62448644,-3.72693399
13.09989963,-0.05825898,0.65875894,2.59092500

>  <Name>
lig.pdb

>  <RI>
0

>  <Rbt.Current_Directory>
/home/afrankz/demos/rdock_decoys_rna/rnas/2m4q

>  <Rbt.Executable>
rbdock ($Id: //depot/dev/client3/rdock/2013.1/src/exe/rbdock.cxx#4 $)

>  <Rbt.Library>
libRbt.so (2013.1, Build901 2013/11/27)

>  <Rbt.Parameter_File>
/export/apps/rDock/src/rDock_2013.1_src/data/scripts/dock_solv.prm

>  <Rbt.Receptor>
prm/blind_docking_40.prm

>  <SCORE>
-3.48409

>  <SCORE.INTER>
-12.3835

>  <SCORE.INTER.CONST>
1

>  <SCORE.INTER.POLAR>
-3.20926

>  <SCORE.INTER.ROT>
10

>  <SCORE.INTER.SOLV>
22.2467

>  <SCORE.INTER.VDW>
-15.2404

>  <SCORE.INTER.norm>
-0.334689

>  <SCORE.INTRA>
-5.87384

>  <SCORE.INTRA.DIHEDRAL>
-21.5561

>  <SCORE.INTRA.DIHEDRAL.0>
44.8331

>  <SCORE.INTRA.POLAR>
0.0361919

>  <SCORE.INTRA.POLAR.0>
-0.108895

>  <SCORE.INTRA.REPUL>
-0.00912235

>  <SCORE.INTRA.REPUL.0>
0.00912235

>  <SCORE.INTRA.SOLV>
-0.374355

>  <SCORE.INTRA.SOLV.lig_0>
-53.9067

>  <SCORE.INTRA.VDW>
5.01397

>  <SCORE.INTRA.VDW.0>
-2.93492

>  <SCORE.INTRA.norm>
-0.158752

>  <SCORE.RESTR>
14.7732

>  <SCORE.RESTR.CAVITY>
14.7732

>  <SCORE.RESTR.norm>
0.399277

>  <SCORE.SYSTEM>
0

>  <SCORE.SYSTEM.CONST>
0

>  <SCORE.SYSTEM.DIHEDRAL>
0

>  <SCORE.SYSTEM.SOLV>
0

>  <SCORE.SYSTEM.norm>
0

>  <SCORE.heavy>
37

>  <SCORE.norm>
-0.0941647

>  <RMSD>
15.450

$$$$
lig.pdb
 OpenBabel11021811453D
libRbt.so/2013.1/901 2013/11/27
 37 40  0  0  0  0  0  0  0  0999 V2000
  -16.8465    9.0446    9.0536 C   0  0  2  0  0  0  0  0  0  0  0  0
  -16.1654    8.1354   10.1291 C   0  0  1  0  0  0  0  0  0  0  0  0
  -14.7461    7.6487    9.7139 C   0  0  0  0  0  0  0  0  0  0  0  0
  -14.7539    7.0679    8.2780 C   0  0  1  0  0  0  0  0  0  0  0  0
  -15.3187    8.1134    7.2905 C   0  0  1  0  0  0  0  0  0  0  0  0
  -15.2947    7.5746    5.8349 C   0  0  1  0  0  0  0  0  0  0  0  0
  -13.8686    7.0806    5.4490 C   0  0  1  0  0  0  0  0  0  0  0  0
  -13.2887    6.0915    6.5034 C   0  0  2  0  0  0  0  0  0  0  0  0
  -12.6554    6.7158    3.3493 C   0  0  0  0  0  0  0  0  0  0  0  0
  -16.6556    8.5245    7.6978 O   0  0  0  0  0  0  0  0  0  0  0  0
  -13.4355    6.6097    7.8612 O   0  0  0  0  0  0  0  0  0  0  0  0
  -16.0852    8.8592   11.4164 N   0  0  0  0  0  0  0  0  0  0  0  0
  -13.9106    6.4865    4.0969 N   0  0  0  0  0  0  0  0  0  0  0  0
  -16.2630    6.5505    5.6472 O   0  0  0  0  0  0  0  0  0  0  0  0
  -11.8961    5.7847    6.2014 O   0  0  0  0  0  0  0  0  0  0  0  0
  -16.3660   10.4206    9.1446 O   0  0  0  0  0  0  0  0  0  0  0  0
  -11.3651    4.4855    6.6064 C   0  0  2  0  0  0  0  0  0  0  0  0
   -9.8269    4.4191    6.3869 C   0  0  1  0  0  0  0  0  0  0  0  0
   -9.4628    4.3661    4.8755 C   0  0  2  0  0  0  0  0  0  0  0  0
  -10.2294    3.2207    4.1528 C   0  0  1  0  0  0  0  0  0  0  0  0
  -11.7570    3.3043    4.4266 C   0  0  1  0  0  0  0  0  0  0  0  0
  -12.5186    2.0934    3.8267 C   0  0  0  0  0  0  0  0  0  0  0  0
  -12.0119    3.4117    5.8601 O   0  0  0  0  0  0  0  0  0  0  0  0
   -9.9408    3.2084    2.7019 N   0  0  0  0  0  0  0  0  0  0  0  0
   -9.1791    5.5039    7.0489 O   0  0  0  0  0  0  0  0  0  0  0  0
   -8.0547    4.2396    4.6891 O   0  0  0  0  0  0  0  0  0  0  0  0
  -13.9267    2.2793    3.9277 O   0  0  0  0  0  0  0  0  0  0  0  0
  -15.8936   10.8886   10.4414 C   0  0  1  0  0  0  0  0  0  0  0  0
  -14.3693   11.1926   10.4301 C   0  0  1  0  0  0  0  0  0  0  0  0
  -13.8680   11.5968   11.8452 C   0  0  2  0  0  0  0  0  0  0  0  0
  -14.6916   12.7774   12.4549 C   0  0  1  0  0  0  0  0  0  0  0  0
  -16.2310   12.5578   12.3567 C   0  0  0  0  0  0  0  0  0  0  0  0
  -16.6877   12.1339   10.9283 C   0  0  2  0  0  0  0  0  0  0  0  0
  -14.2843   13.0351   13.8527 N   0  0  0  0  0  0  0  0  0  0  0  0
  -18.1474   11.8959   10.9325 N   0  0  0  0  0  0  0  0  0  0  0  0
  -13.6343   10.0794    9.9320 O   0  0  0  0  0  0  0  0  0  0  0  0
  -12.4812   11.9237   11.8075 O   0  0  0  0  0  0  0  0  0  0  0  0
  1  2  1  0  0  0  0
  1 16  1  6  0  0  0
  2  3  1  0  0  0  0
  2 12  1  1  0  0  0
  4 11  1  6  0  0  0
  4  3  1  0  0  0  0
  5  4  1  0  0  0  0
  5 10  1  1  0  0  0
  6  7  1  0  0  0  0
  6  5  1  0  0  0  0
  6 14  1  1  0  0  0
  7  8  1  0  0  0  0
  7 13  1  6  0  0  0
  8 15  1  6  0  0  0
  8 11  1  0  0  0  0
  9 13  1  0  0  0  0
 10  1  1  0  0  0  0
 17 15  1  6  0  0  0
 17 18  1  0  0  0  0
 18 25  1  6  0  0  0
 19 18  1  0  0  0  0
 19 26  1  1  0  0  0
 20 19  1  0  0  0  0
 20 24  1  6  0  0  0
 21 23  1  0  0  0  0
 21 20  1  0  0  0  0
 21 22  1  1  0  0  0
 23 17  1  0  0  0  0
 27 22  1  0  0  0  0
 28 29  1  0  0  0  0
 28 16  1  6  0  0  0
 29 36  1  1  0  0  0
 30 37  1  6  0  0  0
 30 29  1  0  0  0  0
 31 30  1  0  0  0  0
 31 34  1  1  0  0  0
 32 31  1  0  0  0  0
 32 33  1  0  0  0  0
 33 28  1  0  0  0  0
 33 35  1  1  0  0  0
M  END
>  <CHROM.1>
-164.75504363,-151.13145971,146.47554192,-174.95481643,-171.85209105,-27.20455792
-171.95665947,-68.04807897,-172.04337901,57.81796259,71.74131383,113.89759447
-177.66759074,64.52315118,-69.46877674,-61.82790135,-13.64757731,7.52882690
7.74008884,1.98577308,-0.16813188,0.81160920

>  <Name>
lig.pdb

>  <RI>
0

>  <Rbt.Current_Directory>
/home/itssahil/PROJECTS/Mol_Feturizer/New_Systems/rnas/2m4q

>  <Rbt.Executable>
rbdock ($Id: //depot/dev/client3/rdock/2013.1/src/exe/rbdock.cxx#4 $)

>  <Rbt.Library>
libRbt.so (2013.1, Build901 2013/11/27)

>  <Rbt.Parameter_File>
/export/apps/rDock/src/rDock_2013.1_src/data/scripts/dock_solv.prm

>  <Rbt.Receptor>
prm/blind_docking_60.prm

>  <SCORE>
-3.02219

>  <SCORE.INTER>
-10.8019

>  <SCORE.INTER.CONST>
1

>  <SCORE.INTER.POLAR>
-2.88067

>  <SCORE.INTER.ROT>
10

>  <SCORE.INTER.SOLV>
18.504

>  <SCORE.INTER.VDW>
-14.0337

>  <SCORE.INTER.norm>
-0.291943

>  <SCORE.INTRA>
-3.40138

>  <SCORE.INTRA.DIHEDRAL>
-25.8901

>  <SCORE.INTRA.DIHEDRAL.0>
44.8331

>  <SCORE.INTRA.POLAR>
-0.030257

>  <SCORE.INTRA.POLAR.0>
-0.108895

>  <SCORE.INTRA.REPUL>
-0.00912235

>  <SCORE.INTRA.REPUL.0>
0.00912235

>  <SCORE.INTRA.SOLV>
0.338391

>  <SCORE.INTRA.SOLV.lig_0>
-53.9067

>  <SCORE.INTRA.VDW>
9.52297

>  <SCORE.INTRA.VDW.0>
-2.93492

>  <SCORE.INTRA.norm>
-0.0919292

>  <SCORE.RESTR>
11.1811

>  <SCORE.RESTR.CAVITY>
11.1811

>  <SCORE.RESTR.norm>
0.302191

>  <SCORE.SYSTEM>
0

>  <SCORE.SYSTEM.CONST>
0

>  <SCORE.SYSTEM.DIHEDRAL>
0

>  <SCORE.SYSTEM.SOLV>
0

>  <SCORE.SYSTEM.norm>
0

>  <SCORE.heavy>
37

>  <SCORE.norm>
-0.0816809

>  <RMSD>
15.462

$$$$
lig.pdb
 OpenBabel11021811453D
libRbt.so/2013.1/901 2013/11/27
 37 40  0  0  0  0  0  0  0  0999 V2000
  -15.4655    5.4652    8.3914 C   0  0  2  0  0  0  0  0  0  0  0  0
  -14.9773    3.9835    8.2753 C   0  0  1  0  0  0  0  0  0  0  0  0
  -13.8612    3.7852    7.2082 C   0  0  0  0  0  0  0  0  0  0  0  0
  -14.2491    4.4520    5.8652 C   0  0  1  0  0  0  0  0  0  0  0  0
  -14.5726    5.9456    6.0933 C   0  0  1  0  0  0  0  0  0  0  0  0
  -14.9198    6.6509    4.7548 C   0  0  1  0  0  0  0  0  0  0  0  0
  -13.7957    6.4254    3.7002 C   0  0  1  0  0  0  0  0  0  0  0  0
  -13.4310    4.9186    3.5495 C   0  0  2  0  0  0  0  0  0  0  0  0
  -14.5338    8.4625    2.5516 C   0  0  0  0  0  0  0  0  0  0  0  0
  -15.6371    6.0889    7.0774 O   0  0  0  0  0  0  0  0  0  0  0  0
  -13.2185    4.2866    4.8491 O   0  0  0  0  0  0  0  0  0  0  0  0
  -14.4951    3.5120    9.5917 N   0  0  0  0  0  0  0  0  0  0  0  0
  -14.2089    7.0263    2.4151 N   0  0  0  0  0  0  0  0  0  0  0  0
  -16.1833    6.2264    4.2599 O   0  0  0  0  0  0  0  0  0  0  0  0
  -12.2664    4.7607    2.6872 O   0  0  0  0  0  0  0  0  0  0  0  0
  -14.5581    6.2568    9.2175 O   0  0  0  0  0  0  0  0  0  0  0  0
  -11.2232    5.7823    2.7313 C   0  0  2  0  0  0  0  0  0  0  0  0
   -9.9400    5.3005    1.9964 C   0  0  1  0  0  0  0  0  0  0  0  0
   -9.2100    4.1782    2.7885 C   0  0  2  0  0  0  0  0  0  0  0  0
   -8.9412    4.6120    4.2587 C   0  0  1  0  0  0  0  0  0  0  0  0
  -10.2412    5.1183    4.9437 C   0  0  1  0  0  0  0  0  0  0  0  0
   -9.9649    5.6813    6.3626 C   0  0  0  0  0  0  0  0  0  0  0  0
  -10.8968    6.1230    4.1118 O   0  0  0  0  0  0  0  0  0  0  0  0
   -8.3095    3.5237    5.0366 N   0  0  0  0  0  0  0  0  0  0  0  0
  -10.2485    4.8926    0.6648 O   0  0  0  0  0  0  0  0  0  0  0  0
   -8.0016    3.7912    2.1377 O   0  0  0  0  0  0  0  0  0  0  0  0
  -11.1748    6.0974    6.9875 O   0  0  0  0  0  0  0  0  0  0  0  0
  -14.9259    7.6397    9.4936 C   0  0  1  0  0  0  0  0  0  0  0  0
  -15.6376    7.7891   10.8674 C   0  0  1  0  0  0  0  0  0  0  0  0
  -16.1072    9.2530   11.0989 C   0  0  2  0  0  0  0  0  0  0  0  0
  -14.9454   10.2855   10.9309 C   0  0  1  0  0  0  0  0  0  0  0  0
  -14.1284   10.0720    9.6215 C   0  0  0  0  0  0  0  0  0  0  0  0
  -13.6961    8.5886    9.4179 C   0  0  2  0  0  0  0  0  0  0  0  0
  -15.4575   11.6702   11.0125 N   0  0  0  0  0  0  0  0  0  0  0  0
  -12.9742    8.4619    8.1334 N   0  0  0  0  0  0  0  0  0  0  0  0
  -16.7322    6.8844   10.9720 O   0  0  0  0  0  0  0  0  0  0  0  0
  -16.7096    9.3853   12.3839 O   0  0  0  0  0  0  0  0  0  0  0  0
  1  2  1  0  0  0  0
  1 16  1  1  0  0  0
  2  3  1  0  0  0  0
  2 12  1  1  0  0  0
  4 11  1  6  0  0  0
  4  3  1  0  0  0  0
  5  4  1  0  0  0  0
  5 10  1  1  0  0  0
  6  7  1  0  0  0  0
  6  5  1  0  0  0  0
  6 14  1  6  0  0  0
  7  8  1  0  0  0  0
  7 13  1  6  0  0  0
  8 15  1  6  0  0  0
  8 11  1  0  0  0  0
  9 13  1  0  0  0  0
 10  1  1  0  0  0  0
 17 15  1  1  0  0  0
 17 18  1  0  0  0  0
 18 25  1  6  0  0  0
 19 18  1  0  0  0  0
 19 26  1  6  0  0  0
 20 19  1  0  0  0  0
 20 24  1  1  0  0  0
 21 23  1  0  0  0  0
 21 20  1  0  0  0  0
 21 22  1  1  0  0  0
 23 17  1  0  0  0  0
 27 22  1  0  0  0  0
 28 29  1  0  0  0  0
 28 16  1  1  0  0  0
 29 36  1  6  0  0  0
 30 37  1  1  0  0  0
 30 29  1  0  0  0  0
 31 30  1  0  0  0  0
 31 34  1  6  0  0  0
 32 31  1  0  0  0  0
 32 33  1  0  0  0  0
 33 28  1  0  0  0  0
 33 35  1  6  0  0  0
M  END
>  <CHROM.1>
174.60659413,34.50357529,56.34899196,42.48364033,167.58390678,-176.01879828
65.57714885,175.70546019,-178.05356291,90.75510495,103.58975539,96.54655371
-141.48310656,-147.33040314,-59.52106421,-61.05334280,-13.23333775,6.30405844
6.38860368,2.21565505,-0.51233066,1.47130784

>  <Name>
lig.pdb

>  <RI>
1.95696e+07

>  <Rbt.Current_Directory>
/home/itssahil/PROJECTS/Mol_Feturizer/New_Systems/rnas/2m4q

>  <Rbt.Executable>
rbdock ($Id: //depot/dev/client3/rdock/2013.1/src/exe/rbdock.cxx#4 $)

>  <Rbt.Library>
libRbt.so (2013.1, Build901 2013/11/27)

>  <Rbt.Parameter_File>
/export/apps/rDock/src/rDock_2013.1_src/data/scripts/dock_solv.prm

>  <Rbt.Receptor>
prm/blind_docking_100.prm

>  <SCORE>
-17.3463

>  <SCORE.INTER>
-18.4536

>  <SCORE.INTER.CONST>
1

>  <SCORE.INTER.POLAR>
-3.90082

>  <SCORE.INTER.ROT>
10

>  <SCORE.INTER.SOLV>
16.6527

>  <SCORE.INTER.VDW>
-15.1172

>  <SCORE.INTER.norm>
-0.498745

>  <SCORE.INTRA>
-10.7848

>  <SCORE.INTRA.DIHEDRAL>
-18.036

>  <SCORE.INTRA.DIHEDRAL.0>
44.8331

>  <SCORE.INTRA.POLAR>
-0.692912

>  <SCORE.INTRA.POLAR.0>
-0.108895

>  <SCORE.INTRA.REPUL>
-0.00569897

>  <SCORE.INTRA.REPUL.0>
0.00912235

>  <SCORE.INTRA.SOLV>
-0.0852896

>  <SCORE.INTRA.SOLV.lig_0>
-53.9067

>  <SCORE.INTRA.VDW>
0.660212

>  <SCORE.INTRA.VDW.0>
-2.93492

>  <SCORE.INTRA.norm>
-0.291482

>  <SCORE.RESTR>
11.8921

>  <SCORE.RESTR.CAVITY>
11.8921

>  <SCORE.RESTR.norm>
0.321409

>  <SCORE.SYSTEM>
0

>  <SCORE.SYSTEM.CONST>
0

>  <SCORE.SYSTEM.DIHEDRAL>
0

>  <SCORE.SYSTEM.SOLV>
0

>  <SCORE.SYSTEM.norm>
0

>  <SCORE.heavy>
37

>  <SCORE.norm>
-0.468818

>  <RMSD>
15.485

$$$$
lig.pdb
 OpenBabel11021811453D
libRbt.so/2013.1/901 2013/11/27
 37 40  0  0  0  0  0  0  0  0999 V2000
   -7.3209   -0.5933   11.8009 C   0  0  2  0  0  0  0  0  0  0  0  0
   -7.6850   -1.2864   10.4466 C   0  0  1  0  0  0  0  0  0  0  0  0
   -8.2758   -2.7156   10.6260 C   0  0  0  0  0  0  0  0  0  0  0  0
   -7.3997   -3.5653   11.5796 C   0  0  1  0  0  0  0  0  0  0  0  0
   -7.2317   -2.8350   12.9308 C   0  0  1  0  0  0  0  0  0  0  0  0
   -6.3957   -3.6862   13.9237 C   0  0  1  0  0  0  0  0  0  0  0  0
   -6.9981   -5.1149   14.0745 C   0  0  1  0  0  0  0  0  0  0  0  0
   -7.2345   -5.7969   12.6942 C   0  0  2  0  0  0  0  0  0  0  0  0
   -6.5095   -5.8234   16.3708 C   0  0  0  0  0  0  0  0  0  0  0  0
   -6.6537   -1.5139   12.7242 O   0  0  0  0  0  0  0  0  0  0  0  0
   -7.9334   -4.9073   11.7702 O   0  0  0  0  0  0  0  0  0  0  0  0
   -8.6417   -0.4444    9.6960 N   0  0  0  0  0  0  0  0  0  0  0  0
   -6.1204   -5.9216   14.9475 N   0  0  0  0  0  0  0  0  0  0  0  0
   -5.0296   -3.7416   13.5335 O   0  0  0  0  0  0  0  0  0  0  0  0
   -7.9526   -7.0539   12.8641 O   0  0  0  0  0  0  0  0  0  0  0  0
   -8.5024   -0.0082   12.4288 O   0  0  0  0  0  0  0  0  0  0  0  0
   -7.8224   -8.0762   11.8288 C   0  0  2  0  0  0  0  0  0  0  0  0
   -8.8718   -7.8638   10.7008 C   0  0  1  0  0  0  0  0  0  0  0  0
  -10.3125   -8.1952   11.1849 C   0  0  2  0  0  0  0  0  0  0  0  0
  -10.3798   -9.6155   11.8174 C   0  0  1  0  0  0  0  0  0  0  0  0
   -9.2933   -9.7964   12.9139 C   0  0  1  0  0  0  0  0  0  0  0  0
   -9.2579  -11.2486   13.4581 C   0  0  0  0  0  0  0  0  0  0  0  0
   -7.9827   -9.4088   12.4006 O   0  0  0  0  0  0  0  0  0  0  0  0
  -11.7311   -9.9100   12.3425 N   0  0  0  0  0  0  0  0  0  0  0  0
   -8.7820   -6.5407   10.1756 O   0  0  0  0  0  0  0  0  0  0  0  0
  -11.2561   -8.0596   10.1244 O   0  0  0  0  0  0  0  0  0  0  0  0
  -10.2264  -11.4288   14.4861 O   0  0  0  0  0  0  0  0  0  0  0  0
   -8.3291    0.6482   13.7184 C   0  0  1  0  0  0  0  0  0  0  0  0
   -7.2649    1.7794   13.6569 C   0  0  1  0  0  0  0  0  0  0  0  0
   -7.0256    2.4006   15.0619 C   0  0  2  0  0  0  0  0  0  0  0  0
   -8.3515    2.8860   15.7330 C   0  0  1  0  0  0  0  0  0  0  0  0
   -9.4820    1.8146   15.6878 C   0  0  0  0  0  0  0  0  0  0  0  0
   -9.6742    1.2032   14.2673 C   0  0  2  0  0  0  0  0  0  0  0  0
   -8.1048    3.3333   17.1204 N   0  0  0  0  0  0  0  0  0  0  0  0
  -10.7243    0.1631   14.3210 N   0  0  0  0  0  0  0  0  0  0  0  0
   -6.0449    1.2979   13.1024 O   0  0  0  0  0  0  0  0  0  0  0  0
   -6.0878    3.4709   14.9799 O   0  0  0  0  0  0  0  0  0  0  0  0
  1  2  1  0  0  0  0
  1 16  1  1  0  0  0
  2  3  1  0  0  0  0
  2 12  1  1  0  0  0
  4 11  1  1  0  0  0
  4  3  1  0  0  0  0
  5  4  1  0  0  0  0
  5 10  1  6  0  0  0
  6  7  1  0  0  0  0
  6  5  1  0  0  0  0
  6 14  1  6  0  0  0
  7  8  1  0  0  0  0
  7 13  1  1  0  0  0
  8 15  1  1  0  0  0
  8 11  1  0  0  0  0
  9 13  1  0  0  0  0
 10  1  1  0  0  0  0
 17 15  1  1  0  0  0
 17 18  1  0  0  0  0
 18 25  1  1  0  0  0
 19 18  1  0  0  0  0
 19 26  1  6  0  0  0
 20 19  1  0  0  0  0
 20 24  1  1  0  0  0
 21 23  1  0  0  0  0
 21 20  1  0  0  0  0
 21 22  1  6  0  0  0
 23 17  1  0  0  0  0
 27 22  1  0  0  0  0
 28 29  1  0  0  0  0
 28 16  1  6  0  0  0
 29 36  1  1  0  0  0
 30 37  1  6  0  0  0
 30 29  1  0  0  0  0
 31 30  1  0  0  0  0
 31 34  1  1  0  0  0
 32 31  1  0  0  0  0
 32 33  1  0  0  0  0
 33 28  1  0  0  0  0
 33 35  1  1  0  0  0
M  END
>  <CHROM.1>
-7.88980232,-156.34567203,90.69438452,-123.90074627,-87.14913241,178.57030412
-164.43818179,64.54031710,-84.43406991,164.93858806,56.16864609,56.49957680
-173.33778776,-167.06419683,80.58336606,-63.41530662,-8.19297827,-3.70302032
13.01475342,1.16079340,-1.18241690,-0.20544240

>  <Name>
lig.pdb

>  <RI>
0

>  <Rbt.Current_Directory>
/home/afrankz/demos/rdock_decoys_rna/rnas/2m4q

>  <Rbt.Executable>
rbdock ($Id: //depot/dev/client3/rdock/2013.1/src/exe/rbdock.cxx#4 $)

>  <Rbt.Library>
libRbt.so (2013.1, Build901 2013/11/27)

>  <Rbt.Parameter_File>
/export/apps/rDock/src/rDock_2013.1_src/data/scripts/dock_solv.prm

>  <Rbt.Receptor>
prm/blind_docking_40.prm

>  <SCORE>
-1.46739

>  <SCORE.INTER>
-20.7365

>  <SCORE.INTER.CONST>
1

>  <SCORE.INTER.POLAR>
-4.79006

>  <SCORE.INTER.ROT>
10

>  <SCORE.INTER.SOLV>
25.1337

>  <SCORE.INTER.VDW>
-16.502

>  <SCORE.INTER.norm>
-0.560445

>  <SCORE.INTRA>
-5.80468

>  <SCORE.INTRA.DIHEDRAL>
-22.7351

>  <SCORE.INTRA.DIHEDRAL.0>
44.8331

>  <SCORE.INTRA.POLAR>
-0.235195

>  <SCORE.INTRA.POLAR.0>
-0.108895

>  <SCORE.INTRA.REPUL>
0.439664

>  <SCORE.INTRA.REPUL.0>
0.00912235

>  <SCORE.INTRA.SOLV>
-0.429618

>  <SCORE.INTRA.SOLV.lig_0>
-53.9067

>  <SCORE.INTRA.VDW>
4.37903

>  <SCORE.INTRA.VDW.0>
-2.93492

>  <SCORE.INTRA.norm>
-0.156883

>  <SCORE.RESTR>
25.0738

>  <SCORE.RESTR.CAVITY>
25.0738

>  <SCORE.RESTR.norm>
0.677669

>  <SCORE.SYSTEM>
0

>  <SCORE.SYSTEM.CONST>
0

>  <SCORE.SYSTEM.DIHEDRAL>
0

>  <SCORE.SYSTEM.SOLV>
0

>  <SCORE.SYSTEM.norm>
0

>  <SCORE.heavy>
37

>  <SCORE.norm>
-0.0396592

>  <RMSD>
15.528

$$$$
lig.pdb
 OpenBabel11021811453D
libRbt.so/2013.1/901 2013/11/27
 37 40  0  0  0  0  0  0  0  0999 V2000
  -16.0533    8.4496   10.3422 C   0  0  2  0  0  0  0  0  0  0  0  0
  -16.1370    6.9482   10.7734 C   0  0  1  0  0  0  0  0  0  0  0  0
  -15.1931    6.0193    9.9549 C   0  0  0  0  0  0  0  0  0  0  0  0
  -15.3441    6.2713    8.4342 C   0  0  1  0  0  0  0  0  0  0  0  0
  -15.0999    7.7646    8.1215 C   0  0  1  0  0  0  0  0  0  0  0  0
  -15.1989    8.0377    6.5966 C   0  0  1  0  0  0  0  0  0  0  0  0
  -14.2571    7.0866    5.7997 C   0  0  1  0  0  0  0  0  0  0  0  0
  -14.4659    5.5942    6.1937 C   0  0  2  0  0  0  0  0  0  0  0  0
  -13.2506    6.9618    3.5670 C   0  0  0  0  0  0  0  0  0  0  0  0
  -16.0175    8.5990    8.8857 O   0  0  0  0  0  0  0  0  0  0  0  0
  -14.4667    5.4184    7.6438 O   0  0  0  0  0  0  0  0  0  0  0  0
  -15.8280    6.8245   12.2145 N   0  0  0  0  0  0  0  0  0  0  0  0
  -14.4542    7.3099    4.3525 N   0  0  0  0  0  0  0  0  0  0  0  0
  -16.5414    7.9350    6.1397 O   0  0  0  0  0  0  0  0  0  0  0  0
  -13.4575    4.7545    5.5592 O   0  0  0  0  0  0  0  0  0  0  0  0
  -14.9021    9.1103   10.9513 O   0  0  0  0  0  0  0  0  0  0  0  0
  -12.3323    4.2872    6.3651 C   0  0  2  0  0  0  0  0  0  0  0  0
  -11.1787    5.3301    6.3694 C   0  0  1  0  0  0  0  0  0  0  0  0
  -10.4678    5.4081    4.9879 C   0  0  2  0  0  0  0  0  0  0  0  0
  -10.0109    3.9990    4.5110 C   0  0  1  0  0  0  0  0  0  0  0  0
  -11.1843    2.9808    4.5552 C   0  0  1  0  0  0  0  0  0  0  0  0
  -10.7143    1.5425    4.2138 C   0  0  0  0  0  0  0  0  0  0  0  0
  -11.8355    3.0113    5.8615 O   0  0  0  0  0  0  0  0  0  0  0  0
   -9.3961    4.0563    3.1666 N   0  0  0  0  0  0  0  0  0  0  0  0
  -11.6583    6.6060    6.7897 O   0  0  0  0  0  0  0  0  0  0  0  0
   -9.3715    6.3192    5.0236 O   0  0  0  0  0  0  0  0  0  0  0  0
  -11.7260    0.5907    4.5268 O   0  0  0  0  0  0  0  0  0  0  0  0
  -15.0896   10.4619   11.4631 C   0  0  1  0  0  0  0  0  0  0  0  0
  -15.7240   10.4636   12.8822 C   0  0  1  0  0  0  0  0  0  0  0  0
  -16.0042   11.9134   13.3688 C   0  0  2  0  0  0  0  0  0  0  0  0
  -14.7340   12.8219   13.2990 C   0  0  1  0  0  0  0  0  0  0  0  0
  -14.0003   12.7349   11.9272 C   0  0  0  0  0  0  0  0  0  0  0  0
  -13.7583   11.2657   11.4672 C   0  0  2  0  0  0  0  0  0  0  0  0
  -15.0719   14.2233   13.6278 N   0  0  0  0  0  0  0  0  0  0  0  0
  -13.1075   11.2704   10.1391 N   0  0  0  0  0  0  0  0  0  0  0  0
  -16.9147    9.6831   12.9059 O   0  0  0  0  0  0  0  0  0  0  0  0
  -16.5357   11.9006   14.6913 O   0  0  0  0  0  0  0  0  0  0  0  0
  1  2  1  0  0  0  0
  1 16  1  1  0  0  0
  2  3  1  0  0  0  0
  2 12  1  1  0  0  0
  4 11  1  6  0  0  0
  4  3  1  0  0  0  0
  5  4  1  0  0  0  0
  5 10  1  1  0  0  0
  6  7  1  0  0  0  0
  6  5  1  0  0  0  0
  6 14  1  6  0  0  0
  7  8  1  0  0  0  0
  7 13  1  6  0  0  0
  8 15  1  6  0  0  0
  8 11  1  0  0  0  0
  9 13  1  0  0  0  0
 10  1  1  0  0  0  0
 17 15  1  6  0  0  0
 17 18  1  0  0  0  0
 18 25  1  6  0  0  0
 19 18  1  0  0  0  0
 19 26  1  1  0  0  0
 20 19  1  0  0  0  0
 20 24  1  6  0  0  0
 21 23  1  0  0  0  0
 21 20  1  0  0  0  0
 21 22  1  1  0  0  0
 23 17  1  0  0  0  0
 27 22  1  0  0  0  0
 28 29  1  0  0  0  0
 28 16  1  1  0  0  0
 29 36  1  6  0  0  0
 30 37  1  1  0  0  0
 30 29  1  0  0  0  0
 31 30  1  0  0  0  0
 31 34  1  6  0  0  0
 32 31  1  0  0  0  0
 32 33  1  0  0  0  0
 33 28  1  0  0  0  0
 33 35  1  6  0  0  0
M  END
>  <CHROM.1>
-146.80698027,102.36284752,153.61967513,63.33911437,-86.83872830,-138.51061519
-88.35865290,47.40667445,167.90763204,173.09110974,59.83220388,81.99684955
66.01137388,-53.47161241,177.48819437,-77.26486575,-13.82032117,7.38820316
8.30444102,2.02208503,0.63184133,0.54506833

>  <Name>
lig.pdb

>  <RI>
0

>  <Rbt.Current_Directory>
/home/itssahil/PROJECTS/Mol_Feturizer/New_Systems/rnas/2m4q

>  <Rbt.Executable>
rbdock ($Id: //depot/dev/client3/rdock/2013.1/src/exe/rbdock.cxx#4 $)

>  <Rbt.Library>
libRbt.so (2013.1, Build901 2013/11/27)

>  <Rbt.Parameter_File>
/export/apps/rDock/src/rDock_2013.1_src/data/scripts/dock_solv.prm

>  <Rbt.Receptor>
prm/blind_docking_60.prm

>  <SCORE>
-6.80672

>  <SCORE.INTER>
-9.19531

>  <SCORE.INTER.CONST>
1

>  <SCORE.INTER.POLAR>
-1.56575

>  <SCORE.INTER.ROT>
10

>  <SCORE.INTER.SOLV>
18.458

>  <SCORE.INTER.VDW>
-17.3304

>  <SCORE.INTER.norm>
-0.248522

>  <SCORE.INTRA>
-11.8276

>  <SCORE.INTRA.DIHEDRAL>
-20.1023

>  <SCORE.INTRA.DIHEDRAL.0>
44.8331

>  <SCORE.INTRA.POLAR>
-0.905077

>  <SCORE.INTRA.POLAR.0>
-0.108895

>  <SCORE.INTRA.REPUL>
-0.00912235

>  <SCORE.INTRA.REPUL.0>
0.00912235

>  <SCORE.INTRA.SOLV>
-0.225139

>  <SCORE.INTRA.SOLV.lig_0>
-53.9067

>  <SCORE.INTRA.VDW>
1.45898

>  <SCORE.INTRA.VDW.0>
-2.93492

>  <SCORE.INTRA.norm>
-0.319666

>  <SCORE.RESTR>
14.2162

>  <SCORE.RESTR.CAVITY>
14.2162

>  <SCORE.RESTR.norm>
0.384222

>  <SCORE.SYSTEM>
0

>  <SCORE.SYSTEM.CONST>
0

>  <SCORE.SYSTEM.DIHEDRAL>
0

>  <SCORE.SYSTEM.SOLV>
0

>  <SCORE.SYSTEM.norm>
0

>  <SCORE.heavy>
37

>  <SCORE.norm>
-0.183965

>  <RMSD>
15.574

$$$$
lig.pdb
 OpenBabel11021811453D
libRbt.so/2013.1/901 2013/11/27
 37 40  0  0  0  0  0  0  0  0999 V2000
  -15.4473    5.0209    9.0052 C   0  0  2  0  0  0  0  0  0  0  0  0
  -15.0584    3.5746    8.5531 C   0  0  1  0  0  0  0  0  0  0  0  0
  -14.0377    3.5508    7.3778 C   0  0  0  0  0  0  0  0  0  0  0  0
  -14.4828    4.4950    6.2336 C   0  0  1  0  0  0  0  0  0  0  0  0
  -14.6987    5.9228    6.7835 C   0  0  1  0  0  0  0  0  0  0  0  0
  -15.1006    6.9020    5.6481 C   0  0  1  0  0  0  0  0  0  0  0  0
  -14.0727    6.8486    4.4788 C   0  0  1  0  0  0  0  0  0  0  0  0
  -13.8108    5.3903    3.9983 C   0  0  2  0  0  0  0  0  0  0  0  0
  -15.2085    6.9472    2.3076 C   0  0  0  0  0  0  0  0  0  0  0  0
  -15.6774    5.9076    7.8624 O   0  0  0  0  0  0  0  0  0  0  0  0
  -13.5415    4.4966    5.1220 O   0  0  0  0  0  0  0  0  0  0  0  0
  -14.5097    2.8227    9.7025 N   0  0  0  0  0  0  0  0  0  0  0  0
  -14.5426    7.7176    3.3801 N   0  0  0  0  0  0  0  0  0  0  0  0
  -16.4202    6.6434    5.1862 O   0  0  0  0  0  0  0  0  0  0  0  0
  -12.7244    5.3619    3.0270 O   0  0  0  0  0  0  0  0  0  0  0  0
  -14.4357    5.5860    9.8940 O   0  0  0  0  0  0  0  0  0  0  0  0
  -11.5858    6.2544    3.2288 C   0  0  2  0  0  0  0  0  0  0  0  0
  -10.4991    6.0265    2.1398 C   0  0  1  0  0  0  0  0  0  0  0  0
   -9.7721    4.6642    2.3281 C   0  0  2  0  0  0  0  0  0  0  0  0
   -9.2211    4.5169    3.7760 C   0  0  1  0  0  0  0  0  0  0  0  0
  -10.3297    4.7865    4.8313 C   0  0  1  0  0  0  0  0  0  0  0  0
   -9.7661    4.7779    6.2765 C   0  0  0  0  0  0  0  0  0  0  0  0
  -11.0028    6.0513    4.5507 O   0  0  0  0  0  0  0  0  0  0  0  0
   -8.5892    3.1953    3.9822 N   0  0  0  0  0  0  0  0  0  0  0  0
  -11.0636    6.1485    0.8356 O   0  0  0  0  0  0  0  0  0  0  0  0
   -8.7350    4.4964    1.3639 O   0  0  0  0  0  0  0  0  0  0  0  0
  -10.4228    5.7505    7.0829 O   0  0  0  0  0  0  0  0  0  0  0  0
  -14.5266    7.0065   10.2069 C   0  0  1  0  0  0  0  0  0  0  0  0
  -14.1521    7.8957    8.9882 C   0  0  1  0  0  0  0  0  0  0  0  0
  -14.1615    9.4027    9.3703 C   0  0  2  0  0  0  0  0  0  0  0  0
  -15.5134    9.8451   10.0188 C   0  0  1  0  0  0  0  0  0  0  0  0
  -15.9812    8.8902   11.1578 C   0  0  0  0  0  0  0  0  0  0  0  0
  -15.9364    7.3894   10.7402 C   0  0  2  0  0  0  0  0  0  0  0  0
  -15.4329   11.2405   10.5010 N   0  0  0  0  0  0  0  0  0  0  0  0
  -16.3434    6.5505   11.8882 N   0  0  0  0  0  0  0  0  0  0  0  0
  -12.8875    7.5172    8.4544 O   0  0  0  0  0  0  0  0  0  0  0  0
  -13.8688   10.2071    8.2306 O   0  0  0  0  0  0  0  0  0  0  0  0
  1  2  1  0  0  0  0
  1 16  1  1  0  0  0
  2  3  1  0  0  0  0
  2 12  1  1  0  0  0
  4 11  1  6  0  0  0
  4  3  1  0  0  0  0
  5  4  1  0  0  0  0
  5 10  1  1  0  0  0
  6  7  1  0  0  0  0
  6  5  1  0  0  0  0
  6 14  1  6  0  0  0
  7  8  1  0  0  0  0
  7 13  1  6  0  0  0
  8 15  1  6  0  0  0
  8 11  1  0  0  0  0
  9 13  1  0  0  0  0
 10  1  1  0  0  0  0
 17 15  1  6  0  0  0
 17 18  1  0  0  0  0
 18 25  1  6  0  0  0
 19 18  1  0  0  0  0
 19 26  1  6  0  0  0
 20 19  1  0  0  0  0
 20 24  1  6  0  0  0
 21 23  1  0  0  0  0
 21 20  1  0  0  0  0
 21 22  1  1  0  0  0
 23 17  1  0  0  0  0
 27 22  1  0  0  0  0
 28 29  1  0  0  0  0
 28 16  1  6  0  0  0
 29 36  1  1  0  0  0
 30 37  1  6  0  0  0
 30 29  1  0  0  0  0
 31 30  1  0  0  0  0
 31 34  1  1  0  0  0
 32 31  1  0  0  0  0
 32 33  1  0  0  0  0
 33 28  1  0  0  0  0
 33 35  1  1  0  0  0
M  END
>  <CHROM.1>
-174.34060136,37.87075771,-99.30910181,172.86993798,176.90670541,169.08971166
-55.82182299,63.13687063,143.75037429,-58.36426112,58.58090117,-71.33549704
-50.36729268,-74.56620908,-57.23416876,-66.02561834,-13.31690395,6.21422679
6.42378269,2.63360821,-0.91966919,2.17597701

>  <Name>
lig.pdb

>  <RI>
1.95696e+07

>  <Rbt.Current_Directory>
/home/itssahil/PROJECTS/Mol_Feturizer/New_Systems/rnas/2m4q

>  <Rbt.Executable>
rbdock ($Id: //depot/dev/client3/rdock/2013.1/src/exe/rbdock.cxx#4 $)

>  <Rbt.Library>
libRbt.so (2013.1, Build901 2013/11/27)

>  <Rbt.Parameter_File>
/export/apps/rDock/src/rDock_2013.1_src/data/scripts/dock_solv.prm

>  <Rbt.Receptor>
prm/blind_docking_100.prm

>  <SCORE>
-9.14307

>  <SCORE.INTER>
-7.97853

>  <SCORE.INTER.CONST>
1

>  <SCORE.INTER.POLAR>
-2.07151

>  <SCORE.INTER.ROT>
10

>  <SCORE.INTER.SOLV>
18.5718

>  <SCORE.INTER.VDW>
-14.8712

>  <SCORE.INTER.norm>
-0.215636

>  <SCORE.INTRA>
-11.17

>  <SCORE.INTRA.DIHEDRAL>
-33.7349

>  <SCORE.INTRA.DIHEDRAL.0>
44.8331

>  <SCORE.INTRA.POLAR>
0.0730727

>  <SCORE.INTRA.POLAR.0>
-0.108895

>  <SCORE.INTRA.REPUL>
0.029718

>  <SCORE.INTRA.REPUL.0>
0.00912235

>  <SCORE.INTRA.SOLV>
0.168298

>  <SCORE.INTRA.SOLV.lig_0>
-53.9067

>  <SCORE.INTRA.VDW>
5.21628

>  <SCORE.INTRA.VDW.0>
-2.93492

>  <SCORE.INTRA.norm>
-0.301891

>  <SCORE.RESTR>
10.0054

>  <SCORE.RESTR.CAVITY>
10.0054

>  <SCORE.RESTR.norm>
0.270417

>  <SCORE.SYSTEM>
0

>  <SCORE.SYSTEM.CONST>
0

>  <SCORE.SYSTEM.DIHEDRAL>
0

>  <SCORE.SYSTEM.SOLV>
0

>  <SCORE.SYSTEM.norm>
0

>  <SCORE.heavy>
37

>  <SCORE.norm>
-0.24711

>  <RMSD>
15.641

$$$$
lig.pdb
 OpenBabel11021811453D
libRbt.so/2013.1/901 2013/11/27
 37 40  0  0  0  0  0  0  0  0999 V2000
  -15.8811    6.0955    9.3919 C   0  0  2  0  0  0  0  0  0  0  0  0
  -15.4053    4.6118    9.2530 C   0  0  1  0  0  0  0  0  0  0  0  0
  -14.3039    4.4175    8.1701 C   0  0  0  0  0  0  0  0  0  0  0  0
  -14.7033    5.1025    6.8395 C   0  0  1  0  0  0  0  0  0  0  0  0
  -15.0128    6.5957    7.0886 C   0  0  1  0  0  0  0  0  0  0  0  0
  -15.3712    7.3188    5.7625 C   0  0  1  0  0  0  0  0  0  0  0  0
  -14.2618    7.0971    4.6916 C   0  0  1  0  0  0  0  0  0  0  0  0
  -13.9101    5.5895    4.5193 C   0  0  2  0  0  0  0  0  0  0  0  0
  -15.3769    6.7516    2.5350 C   0  0  0  0  0  0  0  0  0  0  0  0
  -16.0640    6.7355    8.0873 O   0  0  0  0  0  0  0  0  0  0  0  0
  -13.6864    4.9412    5.8090 O   0  0  0  0  0  0  0  0  0  0  0  0
  -14.9105    4.1218   10.5579 N   0  0  0  0  0  0  0  0  0  0  0  0
  -14.6862    7.7156    3.4186 N   0  0  0  0  0  0  0  0  0  0  0  0
  -16.6437    6.9091    5.2785 O   0  0  0  0  0  0  0  0  0  0  0  0
  -12.7575    5.4330    3.6410 O   0  0  0  0  0  0  0  0  0  0  0  0
  -14.9577    6.8711   10.2156 O   0  0  0  0  0  0  0  0  0  0  0  0
  -11.6654    6.3976    3.7459 C   0  0  2  0  0  0  0  0  0  0  0  0
  -10.9165    6.5410    2.3905 C   0  0  1  0  0  0  0  0  0  0  0  0
  -10.0829    5.2709    2.0561 C   0  0  2  0  0  0  0  0  0  0  0  0
   -9.1394    4.8918    3.2342 C   0  0  1  0  0  0  0  0  0  0  0  0
   -9.9216    4.7931    4.5736 C   0  0  1  0  0  0  0  0  0  0  0  0
   -8.9753    4.5506    5.7786 C   0  0  0  0  0  0  0  0  0  0  0  0
  -10.7233    5.9949    4.7845 O   0  0  0  0  0  0  0  0  0  0  0  0
   -8.3945    3.6455    2.9507 N   0  0  0  0  0  0  0  0  0  0  0  0
  -11.8309    6.8636    1.3445 O   0  0  0  0  0  0  0  0  0  0  0  0
   -9.3500    5.4402    0.8446 O   0  0  0  0  0  0  0  0  0  0  0  0
   -9.5541    5.0392    6.9843 O   0  0  0  0  0  0  0  0  0  0  0  0
  -15.1253    8.3185   10.2414 C   0  0  1  0  0  0  0  0  0  0  0  0
  -15.7084    8.8125   11.5950 C   0  0  1  0  0  0  0  0  0  0  0  0
  -15.9696   10.3449   11.5667 C   0  0  2  0  0  0  0  0  0  0  0  0
  -14.7018   11.1583   11.1486 C   0  0  1  0  0  0  0  0  0  0  0  0
  -14.0179   10.5990    9.8652 C   0  0  0  0  0  0  0  0  0  0  0  0
  -13.7939    9.0579    9.9265 C   0  0  2  0  0  0  0  0  0  0  0  0
  -15.0263   12.5921   10.9905 N   0  0  0  0  0  0  0  0  0  0  0  0
  -13.1912    8.6009    8.6556 N   0  0  0  0  0  0  0  0  0  0  0  0
  -16.8982    8.1026   11.9234 O   0  0  0  0  0  0  0  0  0  0  0  0
  -16.4533   10.7909   12.8311 O   0  0  0  0  0  0  0  0  0  0  0  0
  1  2  1  0  0  0  0
  1 16  1  1  0  0  0
  2  3  1  0  0  0  0
  2 12  1  1  0  0  0
  4 11  1  6  0  0  0
  4  3  1  0  0  0  0
  5  4  1  0  0  0  0
  5 10  1  1  0  0  0
  6  7  1  0  0  0  0
  6  5  1  0  0  0  0
  6 14  1  6  0  0  0
  7  8  1  0  0  0  0
  7 13  1  6  0  0  0
  8 15  1  6  0  0  0
  8 11  1  0  0  0  0
  9 13  1  0  0  0  0
 10  1  1  0  0  0  0
 17 15  1  6  0  0  0
 17 18  1  0  0  0  0
 18 25  1  6  0  0  0
 19 18  1  0  0  0  0
 19 26  1  6  0  0  0
 20 19  1  0  0  0  0
 20 24  1  6  0  0  0
 21 23  1  0  0  0  0
 21 20  1  0  0  0  0
 21 22  1  1  0  0  0
 23 17  1  0  0  0  0
 27 22  1  0  0  0  0
 28 29  1  0  0  0  0
 28 16  1  1  0  0  0
 29 36  1  6  0  0  0
 30 37  1  1  0  0  0
 30 29  1  0  0  0  0
 31 30  1  0  0  0  0
 31 34  1  6  0  0  0
 32 31  1  0  0  0  0
 32 33  1  0  0  0  0
 33 28  1  0  0  0  0
 33 35  1  6  0  0  0
M  END
>  <CHROM.1>
-20.75979134,38.47236186,-93.10657921,67.89627653,-152.10082728,169.06835967
-54.75671162,-54.21504432,154.06954498,-40.17421794,56.70395169,107.64218608
69.40477974,63.87907933,159.39188771,-65.11366188,-13.48993206,6.86606669
6.81970578,-2.21587207,0.62698512,-1.59640165

>  <Name>
lig.pdb

>  <RI>
1.95696e+07

>  <Rbt.Current_Directory>
/home/itssahil/PROJECTS/Mol_Feturizer/New_Systems/rnas/2m4q

>  <Rbt.Executable>
rbdock ($Id: //depot/dev/client3/rdock/2013.1/src/exe/rbdock.cxx#4 $)

>  <Rbt.Library>
libRbt.so (2013.1, Build901 2013/11/27)

>  <Rbt.Parameter_File>
/export/apps/rDock/src/rDock_2013.1_src/data/scripts/dock_solv.prm

>  <Rbt.Receptor>
prm/blind_docking_100.prm

>  <SCORE>
-18.8914

>  <SCORE.INTER>
-18.5916

>  <SCORE.INTER.CONST>
1

>  <SCORE.INTER.POLAR>
-3.80622

>  <SCORE.INTER.ROT>
10

>  <SCORE.INTER.SOLV>
17.2125

>  <SCORE.INTER.VDW>
-15.7111

>  <SCORE.INTER.norm>
-0.502475

>  <SCORE.INTRA>
-8.98604

>  <SCORE.INTRA.DIHEDRAL>
-24.6949

>  <SCORE.INTRA.DIHEDRAL.0>
44.8331

>  <SCORE.INTRA.POLAR>
-0.173145

>  <SCORE.INTRA.POLAR.0>
-0.108895

>  <SCORE.INTRA.REPUL>
-0.00912235

>  <SCORE.INTRA.REPUL.0>
0.00912235

>  <SCORE.INTRA.SOLV>
-0.776858

>  <SCORE.INTRA.SOLV.lig_0>
-53.9067

>  <SCORE.INTRA.VDW>
4.38416

>  <SCORE.INTRA.VDW.0>
-2.93492

>  <SCORE.INTRA.norm>
-0.242866

>  <SCORE.RESTR>
8.68618

>  <SCORE.RESTR.CAVITY>
8.68618

>  <SCORE.RESTR.norm>
0.234762

>  <SCORE.SYSTEM>
0

>  <SCORE.SYSTEM.CONST>
0

>  <SCORE.SYSTEM.DIHEDRAL>
0

>  <SCORE.SYSTEM.SOLV>
0

>  <SCORE.SYSTEM.norm>
0

>  <SCORE.heavy>
37

>  <SCORE.norm>
-0.510579

>  <RMSD>
15.643

$$$$
lig.pdb
 OpenBabel11021811453D
libRbt.so/2013.1/901 2013/11/27
 37 40  0  0  0  0  0  0  0  0999 V2000
  -17.0185    8.7026    9.1740 C   0  0  2  0  0  0  0  0  0  0  0  0
  -16.1763    7.9475   10.2546 C   0  0  1  0  0  0  0  0  0  0  0  0
  -14.6961    7.7170    9.8308 C   0  0  0  0  0  0  0  0  0  0  0  0
  -14.6111    7.1219    8.4034 C   0  0  1  0  0  0  0  0  0  0  0  0
  -15.3627    8.0334    7.4076 C   0  0  1  0  0  0  0  0  0  0  0  0
  -15.2540    7.4849    5.9595 C   0  0  1  0  0  0  0  0  0  0  0  0
  -13.7656    7.2490    5.5651 C   0  0  1  0  0  0  0  0  0  0  0  0
  -13.0088    6.3968    6.6267 C   0  0  2  0  0  0  0  0  0  0  0  0
  -12.4210    6.8913    3.5456 C   0  0  0  0  0  0  0  0  0  0  0  0
  -16.7483    8.2041    7.8236 O   0  0  0  0  0  0  0  0  0  0  0  0
  -13.2352    6.9014    7.9787 O   0  0  0  0  0  0  0  0  0  0  0  0
  -16.2169    8.6940   11.5308 N   0  0  0  0  0  0  0  0  0  0  0  0
  -13.7112    6.6359    4.2218 N   0  0  0  0  0  0  0  0  0  0  0  0
  -16.0241    6.3008    5.7966 O   0  0  0  0  0  0  0  0  0  0  0  0
  -11.5863    6.3404    6.3139 O   0  0  0  0  0  0  0  0  0  0  0  0
  -16.7923   10.1437    9.2406 O   0  0  0  0  0  0  0  0  0  0  0  0
  -10.8260    5.1666    6.7361 C   0  0  2  0  0  0  0  0  0  0  0  0
  -10.0268    4.5627    5.5465 C   0  0  1  0  0  0  0  0  0  0  0  0
  -10.9649    3.8804    4.5100 C   0  0  2  0  0  0  0  0  0  0  0  0
  -11.9045    2.8475    5.1971 C   0  0  1  0  0  0  0  0  0  0  0  0
  -12.6564    3.4823    6.4001 C   0  0  1  0  0  0  0  0  0  0  0  0
  -13.4919    2.4322    7.1783 C   0  0  0  0  0  0  0  0  0  0  0  0
  -11.7150    4.1524    7.2924 O   0  0  0  0  0  0  0  0  0  0  0  0
  -12.8465    2.2453    4.2284 N   0  0  0  0  0  0  0  0  0  0  0  0
   -9.2035    5.5571    4.9399 O   0  0  0  0  0  0  0  0  0  0  0  0
  -10.2163    3.2744    3.4585 O   0  0  0  0  0  0  0  0  0  0  0  0
  -13.9858    2.9789    8.3967 O   0  0  0  0  0  0  0  0  0  0  0  0
  -15.9735   10.6509   10.3343 C   0  0  1  0  0  0  0  0  0  0  0  0
  -14.5489   11.0504    9.8575 C   0  0  1  0  0  0  0  0  0  0  0  0
  -13.6623   11.4967   11.0541 C   0  0  2  0  0  0  0  0  0  0  0  0
  -14.3299   12.6279   11.9018 C   0  0  1  0  0  0  0  0  0  0  0  0
  -15.8078   12.3108   12.2800 C   0  0  0  0  0  0  0  0  0  0  0  0
  -16.6551   11.8475   11.0568 C   0  0  2  0  0  0  0  0  0  0  0  0
  -13.5286   12.9219   13.1091 N   0  0  0  0  0  0  0  0  0  0  0  0
  -18.0245   11.5179   11.5077 N   0  0  0  0  0  0  0  0  0  0  0  0
  -13.9352    9.9819    9.1441 O   0  0  0  0  0  0  0  0  0  0  0  0
  -12.3778   11.9102   10.5949 O   0  0  0  0  0  0  0  0  0  0  0  0
  1  2  1  0  0  0  0
  1 16  1  6  0  0  0
  2  3  1  0  0  0  0
  2 12  1  1  0  0  0
  4 11  1  6  0  0  0
  4  3  1  0  0  0  0
  5  4  1  0  0  0  0
  5 10  1  1  0  0  0
  6  7  1  0  0  0  0
  6  5  1  0  0  0  0
  6 14  1  1  0  0  0
  7  8  1  0  0  0  0
  7 13  1  6  0  0  0
  8 15  1  6  0  0  0
  8 11  1  0  0  0  0
  9 13  1  0  0  0  0
 10  1  1  0  0  0  0
 17 15  1  6  0  0  0
 17 18  1  0  0  0  0
 18 25  1  6  0  0  0
 19 18  1  0  0  0  0
 19 26  1  6  0  0  0
 20 19  1  0  0  0  0
 20 24  1  6  0  0  0
 21 23  1  0  0  0  0
 21 20  1  0  0  0  0
 21 22  1  1  0  0  0
 23 17  1  0  0  0  0
 27 22  1  0  0  0  0
 28 29  1  0  0  0  0
 28 16  1  6  0  0  0
 29 36  1  1  0  0  0
 30 37  1  6  0  0  0
 30 29  1  0  0  0  0
 31 30  1  0  0  0  0
 31 34  1  1  0  0  0
 32 31  1  0  0  0  0
 32 33  1  0  0  0  0
 33 28  1  0  0  0  0
 33 35  1  1  0  0  0
M  END
>  <CHROM.1>
-172.56930790,-151.38079281,156.02976895,64.72444073,128.40600265,-6.12518927
48.12147261,-55.92632301,170.12186551,-177.50436073,-67.27512807,104.65092165
168.76490707,-175.81802848,177.16279273,-171.34376202,-13.84764849,7.48535205
7.94540709,1.95803646,0.19971321,0.61169305

>  <Name>
lig.pdb

>  <RI>
0

>  <Rbt.Current_Directory>
/home/itssahil/PROJECTS/Mol_Feturizer/New_Systems/rnas/2m4q

>  <Rbt.Executable>
rbdock ($Id: //depot/dev/client3/rdock/2013.1/src/exe/rbdock.cxx#4 $)

>  <Rbt.Library>
libRbt.so (2013.1, Build901 2013/11/27)

>  <Rbt.Parameter_File>
/export/apps/rDock/src/rDock_2013.1_src/data/scripts/dock_solv.prm

>  <Rbt.Receptor>
prm/blind_docking_60.prm

>  <SCORE>
-22.58

>  <SCORE.INTER>
-32.5791

>  <SCORE.INTER.CONST>
1

>  <SCORE.INTER.POLAR>
-6.87094

>  <SCORE.INTER.ROT>
10

>  <SCORE.INTER.SOLV>
19.9161

>  <SCORE.INTER.VDW>
-15.7216

>  <SCORE.INTER.norm>
-0.880515

>  <SCORE.INTRA>
2.83176

>  <SCORE.INTRA.DIHEDRAL>
-17.9523

>  <SCORE.INTRA.DIHEDRAL.0>
44.8331

>  <SCORE.INTRA.POLAR>
0.10381

>  <SCORE.INTRA.POLAR.0>
-0.108895

>  <SCORE.INTRA.REPUL>
-0.00912235

>  <SCORE.INTRA.REPUL.0>
0.00912235

>  <SCORE.INTRA.SOLV>
1.75441

>  <SCORE.INTRA.SOLV.lig_0>
-53.9067

>  <SCORE.INTRA.VDW>
10.6234

>  <SCORE.INTRA.VDW.0>
-2.93492

>  <SCORE.INTRA.norm>
0.0765342

>  <SCORE.RESTR>
7.16726

>  <SCORE.RESTR.CAVITY>
7.16726

>  <SCORE.RESTR.norm>
0.19371

>  <SCORE.SYSTEM>
0

>  <SCORE.SYSTEM.CONST>
0

>  <SCORE.SYSTEM.DIHEDRAL>
0

>  <SCORE.SYSTEM.SOLV>
0

>  <SCORE.SYSTEM.norm>
0

>  <SCORE.heavy>
37

>  <SCORE.norm>
-0.610271

>  <RMSD>
15.651

$$$$
lig.pdb
 OpenBabel11021811453D
libRbt.so/2013.1/901 2013/11/27
 37 40  0  0  0  0  0  0  0  0999 V2000
  -16.4684    7.9934   10.7222 C   0  0  2  0  0  0  0  0  0  0  0  0
  -16.5258    6.4555   11.0025 C   0  0  1  0  0  0  0  0  0  0  0  0
  -15.5336    5.6333   10.1289 C   0  0  0  0  0  0  0  0  0  0  0  0
  -15.6453    6.0295    8.6357 C   0  0  1  0  0  0  0  0  0  0  0  0
  -15.4310    7.5515    8.4777 C   0  0  1  0  0  0  0  0  0  0  0  0
  -15.4911    7.9702    6.9841 C   0  0  1  0  0  0  0  0  0  0  0  0
  -14.5011    7.1238    6.1296 C   0  0  1  0  0  0  0  0  0  0  0  0
  -14.6825    5.5955    6.3698 C   0  0  2  0  0  0  0  0  0  0  0  0
  -13.4924    7.0753    3.8949 C   0  0  0  0  0  0  0  0  0  0  0  0
  -16.3927    8.2855    9.2890 O   0  0  0  0  0  0  0  0  0  0  0  0
  -14.7225    5.2786    7.7952 O   0  0  0  0  0  0  0  0  0  0  0  0
  -16.2573    6.1985   12.4341 N   0  0  0  0  0  0  0  0  0  0  0  0
  -14.6603    7.4831    4.7053 N   0  0  0  0  0  0  0  0  0  0  0  0
  -16.8161    7.8817    6.4759 O   0  0  0  0  0  0  0  0  0  0  0  0
  -13.6338    4.8455    5.6899 O   0  0  0  0  0  0  0  0  0  0  0  0
  -15.3539    8.6178   11.4297 O   0  0  0  0  0  0  0  0  0  0  0  0
  -12.4787    4.4024    6.4665 C   0  0  2  0  0  0  0  0  0  0  0  0
  -11.3799    5.5022    6.5080 C   0  0  1  0  0  0  0  0  0  0  0  0
  -10.6870    5.6762    5.1261 C   0  0  2  0  0  0  0  0  0  0  0  0
  -10.1631    4.3144    4.5849 C   0  0  1  0  0  0  0  0  0  0  0  0
  -11.2825    3.2362    4.5932 C   0  0  1  0  0  0  0  0  0  0  0  0
  -10.7428    1.8401    4.1860 C   0  0  0  0  0  0  0  0  0  0  0  0
  -11.9221    3.1767    5.9042 O   0  0  0  0  0  0  0  0  0  0  0  0
   -9.5647    4.4613    3.2400 N   0  0  0  0  0  0  0  0  0  0  0  0
  -11.9201    6.7324    6.9869 O   0  0  0  0  0  0  0  0  0  0  0  0
   -9.6384    6.6402    5.1936 O   0  0  0  0  0  0  0  0  0  0  0  0
  -10.1288    1.8883    2.9023 O   0  0  0  0  0  0  0  0  0  0  0  0
  -15.3224   10.0734   11.4934 C   0  0  1  0  0  0  0  0  0  0  0  0
  -15.9558   10.6120   12.8067 C   0  0  1  0  0  0  0  0  0  0  0  0
  -15.9998   12.1661   12.8113 C   0  0  2  0  0  0  0  0  0  0  0  0
  -14.5986   12.8032   12.5381 C   0  0  1  0  0  0  0  0  0  0  0  0
  -13.8813   12.1841   11.3012 C   0  0  0  0  0  0  0  0  0  0  0  0
  -13.8783   10.6258   11.3258 C   0  0  2  0  0  0  0  0  0  0  0  0
  -14.7065   14.2717   12.4041 N   0  0  0  0  0  0  0  0  0  0  0  0
  -13.2281   10.1190   10.0978 N   0  0  0  0  0  0  0  0  0  0  0  0
  -17.2575   10.0686   13.0014 O   0  0  0  0  0  0  0  0  0  0  0  0
  -16.5336   12.6454   14.0429 O   0  0  0  0  0  0  0  0  0  0  0  0
  1  2  1  0  0  0  0
  1 16  1  1  0  0  0
  2  3  1  0  0  0  0
  2 12  1  1  0  0  0
  4 11  1  6  0  0  0
  4  3  1  0  0  0  0
  5  4  1  0  0  0  0
  5 10  1  1  0  0  0
  6  7  1  0  0  0  0
  6  5  1  0  0  0  0
  6 14  1  6  0  0  0
  7  8  1  0  0  0  0
  7 13  1  6  0  0  0
  8 15  1  1  0  0  0
  8 11  1  0  0  0  0
  9 13  1  0  0  0  0
 10  1  1  0  0  0  0
 17 15  1  6  0  0  0
 17 18  1  0  0  0  0
 18 25  1  6  0  0  0
 19 18  1  0  0  0  0
 19 26  1  1  0  0  0
 20 19  1  0  0  0  0
 20 24  1  6  0  0  0
 21 23  1  0  0  0  0
 21 20  1  0  0  0  0
 21 22  1  1  0  0  0
 23 17  1  0  0  0  0
 27 22  1  0  0  0  0
 28 29  1  0  0  0  0
 28 16  1  1  0  0  0
 29 36  1  6  0  0  0
 30 37  1  1  0  0  0
 30 29  1  0  0  0  0
 31 30  1  0  0  0  0
 31 34  1  6  0  0  0
 32 31  1  0  0  0  0
 32 33  1  0  0  0  0
 33 28  1  0  0  0  0
 33 35  1  6  0  0  0
M  END
>  <CHROM.1>
78.76113362,98.44788338,161.26236465,-54.86719348,-87.28465394,-167.79942519
-85.44873184,-70.24661012,-57.05673201,81.12813435,-175.74247934,95.06976692
-56.55638459,-56.07582022,-128.34969216,-83.43294077,-13.95611377,7.38892259
8.29405733,2.07466756,0.62044561,0.53263950

>  <Name>
lig.pdb

>  <RI>
0

>  <Rbt.Current_Directory>
/home/itssahil/PROJECTS/Mol_Feturizer/New_Systems/rnas/2m4q

>  <Rbt.Executable>
rbdock ($Id: //depot/dev/client3/rdock/2013.1/src/exe/rbdock.cxx#4 $)

>  <Rbt.Library>
libRbt.so (2013.1, Build901 2013/11/27)

>  <Rbt.Parameter_File>
/export/apps/rDock/src/rDock_2013.1_src/data/scripts/dock_solv.prm

>  <Rbt.Receptor>
prm/blind_docking_60.prm

>  <SCORE>
-21.6763

>  <SCORE.INTER>
-26.0297

>  <SCORE.INTER.CONST>
1

>  <SCORE.INTER.POLAR>
-4.96633

>  <SCORE.INTER.ROT>
10

>  <SCORE.INTER.SOLV>
16.8101

>  <SCORE.INTER.VDW>
-16.6687

>  <SCORE.INTER.norm>
-0.703504

>  <SCORE.INTRA>
-11.1771

>  <SCORE.INTRA.DIHEDRAL>
-22.716

>  <SCORE.INTRA.DIHEDRAL.0>
44.8331

>  <SCORE.INTRA.POLAR>
-0.878745

>  <SCORE.INTRA.POLAR.0>
-0.108895

>  <SCORE.INTRA.REPUL>
-0.00912235

>  <SCORE.INTRA.REPUL.0>
0.00912235

>  <SCORE.INTRA.SOLV>
0.489517

>  <SCORE.INTRA.SOLV.lig_0>
-53.9067

>  <SCORE.INTRA.VDW>
2.96953

>  <SCORE.INTRA.VDW.0>
-2.93492

>  <SCORE.INTRA.norm>
-0.302083

>  <SCORE.RESTR>
15.5305

>  <SCORE.RESTR.CAVITY>
15.5305

>  <SCORE.RESTR.norm>
0.419743

>  <SCORE.SYSTEM>
0

>  <SCORE.SYSTEM.CONST>
0

>  <SCORE.SYSTEM.DIHEDRAL>
0

>  <SCORE.SYSTEM.SOLV>
0

>  <SCORE.SYSTEM.norm>
0

>  <SCORE.heavy>
37

>  <SCORE.norm>
-0.585845

>  <RMSD>
15.657

$$$$
lig.pdb
 OpenBabel11021811453D
libRbt.so/2013.1/901 2013/11/27
 37 40  0  0  0  0  0  0  0  0999 V2000
  -15.8793    6.0974    9.2785 C   0  0  2  0  0  0  0  0  0  0  0  0
  -15.4088    4.6190    9.0784 C   0  0  1  0  0  0  0  0  0  0  0  0
  -14.3487    4.4579    7.9496 C   0  0  0  0  0  0  0  0  0  0  0  0
  -14.7980    5.1811    6.6557 C   0  0  1  0  0  0  0  0  0  0  0  0
  -15.0982    6.6659    6.9598 C   0  0  1  0  0  0  0  0  0  0  0  0
  -15.5063    7.4271    5.6700 C   0  0  1  0  0  0  0  0  0  0  0  0
  -14.4379    7.2384    4.5521 C   0  0  1  0  0  0  0  0  0  0  0  0
  -14.0927    5.7370    4.3226 C   0  0  2  0  0  0  0  0  0  0  0  0
  -15.8423    7.0353    2.5521 C   0  0  0  0  0  0  0  0  0  0  0  0
  -16.1113    6.7750    8.0010 O   0  0  0  0  0  0  0  0  0  0  0  0
  -13.8206    5.0514    5.5834 O   0  0  0  0  0  0  0  0  0  0  0  0
  -14.8652    4.0915   10.3488 N   0  0  0  0  0  0  0  0  0  0  0  0
  -14.9100    7.8934    3.3147 N   0  0  0  0  0  0  0  0  0  0  0  0
  -16.7961    7.0302    5.2222 O   0  0  0  0  0  0  0  0  0  0  0  0
  -12.9738    5.6078    3.3974 O   0  0  0  0  0  0  0  0  0  0  0  0
  -14.9258    6.8496   10.0894 O   0  0  0  0  0  0  0  0  0  0  0  0
  -11.7777    6.4124    3.6338 C   0  0  2  0  0  0  0  0  0  0  0  0
  -10.7658    6.2641    2.4622 C   0  0  1  0  0  0  0  0  0  0  0  0
  -10.1071    4.8550    2.4452 C   0  0  2  0  0  0  0  0  0  0  0  0
   -9.4880    4.5076    3.8302 C   0  0  1  0  0  0  0  0  0  0  0  0
  -10.5214    4.7024    4.9745 C   0  0  1  0  0  0  0  0  0  0  0  0
   -9.8821    4.4922    6.3722 C   0  0  0  0  0  0  0  0  0  0  0  0
  -11.1367    6.0233    4.8852 O   0  0  0  0  0  0  0  0  0  0  0  0
   -8.9209    3.1413    3.8414 N   0  0  0  0  0  0  0  0  0  0  0  0
  -11.3920    6.5698    1.2176 O   0  0  0  0  0  0  0  0  0  0  0  0
   -9.1344    4.7537    1.4074 O   0  0  0  0  0  0  0  0  0  0  0  0
   -8.6127    5.1322    6.4507 O   0  0  0  0  0  0  0  0  0  0  0  0
  -15.0966    8.2947   10.1694 C   0  0  1  0  0  0  0  0  0  0  0  0
  -15.6710    8.7372   11.5444 C   0  0  1  0  0  0  0  0  0  0  0  0
  -15.9361   10.2689   11.5741 C   0  0  2  0  0  0  0  0  0  0  0  0
  -14.6733   11.1005   11.1770 C   0  0  1  0  0  0  0  0  0  0  0  0
  -13.9975   10.5904    9.8690 C   0  0  0  0  0  0  0  0  0  0  0  0
  -13.7694    9.0487    9.8721 C   0  0  2  0  0  0  0  0  0  0  0  0
  -15.0024   12.5382   11.0738 N   0  0  0  0  0  0  0  0  0  0  0  0
  -13.1749    8.6401    8.5810 N   0  0  0  0  0  0  0  0  0  0  0  0
  -16.8567    8.0125   11.8551 O   0  0  0  0  0  0  0  0  0  0  0  0
  -16.4116   10.6669   12.8576 O   0  0  0  0  0  0  0  0  0  0  0  0
  1  2  1  0  0  0  0
  1 16  1  6  0  0  0
  2  3  1  0  0  0  0
  2 12  1  1  0  0  0
  4 11  1  6  0  0  0
  4  3  1  0  0  0  0
  5  4  1  0  0  0  0
  5 10  1  1  0  0  0
  6  7  1  0  0  0  0
  6  5  1  0  0  0  0
  6 14  1  6  0  0  0
  7  8  1  0  0  0  0
  7 13  1  6  0  0  0
  8 15  1  6  0  0  0
  8 11  1  0  0  0  0
  9 13  1  0  0  0  0
 10  1  1  0  0  0  0
 17 15  1  6  0  0  0
 17 18  1  0  0  0  0
 18 25  1  6  0  0  0
 19 18  1  0  0  0  0
 19 26  1  6  0  0  0
 20 19  1  0  0  0  0
 20 24  1  6  0  0  0
 21 23  1  0  0  0  0
 21 20  1  0  0  0  0
 21 22  1  1  0  0  0
 23 17  1  0  0  0  0
 27 22  1  0  0  0  0
 28 29  1  0  0  0  0
 28 16  1  1  0  0  0
 29 36  1  6  0  0  0
 30 37  1  1  0  0  0
 30 29  1  0  0  0  0
 31 30  1  0  0  0  0
 31 34  1  6  0  0  0
 32 31  1  0  0  0  0
 32 33  1  0  0  0  0
 33 28  1  0  0  0  0
 33 35  1  6  0  0  0
M  END
>  <CHROM.1>
-132.57703543,49.04308147,-82.41964738,62.70615268,-173.44694213,169.37450151
-53.64799652,68.51050302,43.54940449,-37.53680907,68.52866730,105.73292532
63.76227542,-59.46031464,160.91315531,-61.22719669,-13.55668974,6.82019348
6.82860283,-2.15589267,0.50138237,-1.74184760

>  <Name>
lig.pdb

>  <RI>
1.95696e+07

>  <Rbt.Current_Directory>
/home/itssahil/PROJECTS/Mol_Feturizer/New_Systems/rnas/2m4q

>  <Rbt.Executable>
rbdock ($Id: //depot/dev/client3/rdock/2013.1/src/exe/rbdock.cxx#4 $)

>  <Rbt.Library>
libRbt.so (2013.1, Build901 2013/11/27)

>  <Rbt.Parameter_File>
/export/apps/rDock/src/rDock_2013.1_src/data/scripts/dock_solv.prm

>  <Rbt.Receptor>
prm/blind_docking_100.prm

>  <SCORE>
-21.8518

>  <SCORE.INTER>
-18.1613

>  <SCORE.INTER.CONST>
1

>  <SCORE.INTER.POLAR>
-4.10814

>  <SCORE.INTER.ROT>
10

>  <SCORE.INTER.SOLV>
17.3419

>  <SCORE.INTER.VDW>
-14.461

>  <SCORE.INTER.norm>
-0.490845

>  <SCORE.INTRA>
-12.9393

>  <SCORE.INTRA.DIHEDRAL>
-30.9214

>  <SCORE.INTRA.DIHEDRAL.0>
44.8331

>  <SCORE.INTRA.POLAR>
0.0533112

>  <SCORE.INTRA.POLAR.0>
-0.108895

>  <SCORE.INTRA.REPUL>
-0.00912235

>  <SCORE.INTRA.REPUL.0>
0.00912235

>  <SCORE.INTRA.SOLV>
-0.917052

>  <SCORE.INTRA.SOLV.lig_0>
-53.9067

>  <SCORE.INTRA.VDW>
2.84424

>  <SCORE.INTRA.VDW.0>
-2.93492

>  <SCORE.INTRA.norm>
-0.349711

>  <SCORE.RESTR>
9.24878

>  <SCORE.RESTR.CAVITY>
9.24878

>  <SCORE.RESTR.norm>
0.249967

>  <SCORE.SYSTEM>
0

>  <SCORE.SYSTEM.CONST>
0

>  <SCORE.SYSTEM.DIHEDRAL>
0

>  <SCORE.SYSTEM.SOLV>
0

>  <SCORE.SYSTEM.norm>
0

>  <SCORE.heavy>
37

>  <SCORE.norm>
-0.590589

>  <RMSD>
15.700

$$$$
lig.pdb
 OpenBabel11021811453D
libRbt.so/2013.1/901 2013/11/27
 37 40  0  0  0  0  0  0  0  0999 V2000
  -15.2994    5.2536    8.8121 C   0  0  2  0  0  0  0  0  0  0  0  0
  -14.9333    3.8293    8.2788 C   0  0  1  0  0  0  0  0  0  0  0  0
  -13.9852    3.8593    7.0443 C   0  0  0  0  0  0  0  0  0  0  0  0
  -14.5020    4.8465    5.9684 C   0  0  1  0  0  0  0  0  0  0  0  0
  -14.6894    6.2494    6.5882 C   0  0  1  0  0  0  0  0  0  0  0  0
  -15.1627    7.2714    5.5199 C   0  0  1  0  0  0  0  0  0  0  0  0
  -14.2069    7.2718    4.2897 C   0  0  1  0  0  0  0  0  0  0  0  0
  -13.9693    5.8357    3.7352 C   0  0  2  0  0  0  0  0  0  0  0  0
  -13.7991    8.3746    2.1377 C   0  0  0  0  0  0  0  0  0  0  0  0
  -15.6012    6.1845    7.7224 O   0  0  0  0  0  0  0  0  0  0  0  0
  -13.6294    4.8989    4.8032 O   0  0  0  0  0  0  0  0  0  0  0  0
  -14.3135    3.0347    9.3615 N   0  0  0  0  0  0  0  0  0  0  0  0
  -14.7454    8.1817    3.2576 N   0  0  0  0  0  0  0  0  0  0  0  0
  -16.5068    7.0238    5.1280 O   0  0  0  0  0  0  0  0  0  0  0  0
  -12.9433    5.8533    2.7000 O   0  0  0  0  0  0  0  0  0  0  0  0
  -14.2381    5.7884    9.6608 O   0  0  0  0  0  0  0  0  0  0  0  0
  -11.6642    6.4931    2.9974 C   0  0  2  0  0  0  0  0  0  0  0  0
  -10.5346    5.9292    2.0894 C   0  0  1  0  0  0  0  0  0  0  0  0
  -10.1654    4.4669    2.4707 C   0  0  2  0  0  0  0  0  0  0  0  0
   -9.8419    4.3467    3.9881 C   0  0  1  0  0  0  0  0  0  0  0  0
  -10.9792    4.9526    4.8569 C   0  0  1  0  0  0  0  0  0  0  0  0
  -10.6116    4.9640    6.3639 C   0  0  0  0  0  0  0  0  0  0  0  0
  -11.3073    6.2993    4.3986 O   0  0  0  0  0  0  0  0  0  0  0  0
   -9.5575    2.9463    4.3710 N   0  0  0  0  0  0  0  0  0  0  0  0
  -10.8943    6.0419    0.7137 O   0  0  0  0  0  0  0  0  0  0  0  0
   -9.0850    3.9843    1.6749 O   0  0  0  0  0  0  0  0  0  0  0  0
  -11.0761    6.1552    6.9903 O   0  0  0  0  0  0  0  0  0  0  0  0
  -14.2996    7.2013   10.0127 C   0  0  1  0  0  0  0  0  0  0  0  0
  -14.0203    8.1181    8.7889 C   0  0  1  0  0  0  0  0  0  0  0  0
  -13.9948    9.6159    9.2052 C   0  0  2  0  0  0  0  0  0  0  0  0
  -15.2896   10.0447    9.9690 C   0  0  1  0  0  0  0  0  0  0  0  0
  -15.6684    9.0642   11.1192 C   0  0  0  0  0  0  0  0  0  0  0  0
  -15.6614    7.5734   10.6649 C   0  0  2  0  0  0  0  0  0  0  0  0
  -15.1668   11.4284   10.4753 N   0  0  0  0  0  0  0  0  0  0  0  0
  -15.9785    6.7086   11.8220 N   0  0  0  0  0  0  0  0  0  0  0  0
  -12.8032    7.7506    8.1478 O   0  0  0  0  0  0  0  0  0  0  0  0
  -13.7910   10.4462    8.0646 O   0  0  0  0  0  0  0  0  0  0  0  0
  1  2  1  0  0  0  0
  1 16  1  6  0  0  0
  2  3  1  0  0  0  0
  2 12  1  1  0  0  0
  4 11  1  6  0  0  0
  4  3  1  0  0  0  0
  5  4  1  0  0  0  0
  5 10  1  1  0  0  0
  6  7  1  0  0  0  0
  6  5  1  0  0  0  0
  6 14  1  6  0  0  0
  7  8  1  0  0  0  0
  7 13  1  6  0  0  0
  8 15  1  6  0  0  0
  8 11  1  0  0  0  0
  9 13  1  0  0  0  0
 10  1  1  0  0  0  0
 17 15  1  6  0  0  0
 17 18  1  0  0  0  0
 18 25  1  6  0  0  0
 19 18  1  0  0  0  0
 19 26  1  6  0  0  0
 20 19  1  0  0  0  0
 20 24  1  1  0  0  0
 21 23  1  0  0  0  0
 21 20  1  0  0  0  0
 21 22  1  1  0  0  0
 23 17  1  0  0  0  0
 27 22  1  0  0  0  0
 28 29  1  0  0  0  0
 28 16  1  6  0  0  0
 29 36  1  1  0  0  0
 30 37  1  6  0  0  0
 30 29  1  0  0  0  0
 31 30  1  0  0  0  0
 31 34  1  1  0  0  0
 32 31  1  0  0  0  0
 32 33  1  0  0  0  0
 33 28  1  0  0  0  0
 33 35  1  1  0  0  0
M  END
>  <CHROM.1>
-172.89278025,51.81067161,172.23165866,-58.75439627,156.17803426,167.79299152
175.28043079,-61.92076742,141.45202816,-41.33858340,67.09114922,-69.70063422
172.17427593,51.34221017,-52.40087941,-167.78460637,-13.35548122,6.43992604
6.30249061,-2.73222931,1.03075624,-0.85320208

>  <Name>
lig.pdb

>  <RI>
1.95696e+07

>  <Rbt.Current_Directory>
/home/itssahil/PROJECTS/Mol_Feturizer/New_Systems/rnas/2m4q

>  <Rbt.Executable>
rbdock ($Id: //depot/dev/client3/rdock/2013.1/src/exe/rbdock.cxx#4 $)

>  <Rbt.Library>
libRbt.so (2013.1, Build901 2013/11/27)

>  <Rbt.Parameter_File>
/export/apps/rDock/src/rDock_2013.1_src/data/scripts/dock_solv.prm

>  <Rbt.Receptor>
prm/blind_docking_100.prm

>  <SCORE>
-15.3355

>  <SCORE.INTER>
-10.7178

>  <SCORE.INTER.CONST>
1

>  <SCORE.INTER.POLAR>
-2.94398

>  <SCORE.INTER.ROT>
10

>  <SCORE.INTER.SOLV>
19.6052

>  <SCORE.INTER.VDW>
-14.1337

>  <SCORE.INTER.norm>
-0.28967

>  <SCORE.INTRA>
-13.8012

>  <SCORE.INTRA.DIHEDRAL>
-34.3734

>  <SCORE.INTRA.DIHEDRAL.0>
44.8331

>  <SCORE.INTRA.POLAR>
-0.0451036

>  <SCORE.INTRA.POLAR.0>
-0.108895

>  <SCORE.INTRA.REPUL>
-0.00912235

>  <SCORE.INTRA.REPUL.0>
0.00912235

>  <SCORE.INTRA.SOLV>
1.66522

>  <SCORE.INTRA.SOLV.lig_0>
-53.9067

>  <SCORE.INTRA.VDW>
2.75183

>  <SCORE.INTRA.VDW.0>
-2.93492

>  <SCORE.INTRA.norm>
-0.373006

>  <SCORE.RESTR>
9.18358

>  <SCORE.RESTR.CAVITY>
9.18358

>  <SCORE.RESTR.norm>
0.248205

>  <SCORE.SYSTEM>
0

>  <SCORE.SYSTEM.CONST>
0

>  <SCORE.SYSTEM.DIHEDRAL>
0

>  <SCORE.SYSTEM.SOLV>
0

>  <SCORE.SYSTEM.norm>
0

>  <SCORE.heavy>
37

>  <SCORE.norm>
-0.414472

>  <RMSD>
15.714

$$$$
lig.pdb
 OpenBabel11021811453D
libRbt.so/2013.1/901 2013/11/27
 37 40  0  0  0  0  0  0  0  0999 V2000
  -15.6992    6.0698    9.0988 C   0  0  2  0  0  0  0  0  0  0  0  0
  -15.1698    4.6167    8.8636 C   0  0  1  0  0  0  0  0  0  0  0  0
  -14.1562    4.5140    7.6864 C   0  0  0  0  0  0  0  0  0  0  0  0
  -14.6975    5.2246    6.4211 C   0  0  1  0  0  0  0  0  0  0  0  0
  -15.0525    6.6914    6.7526 C   0  0  1  0  0  0  0  0  0  0  0  0
  -15.5543    7.4418    5.4898 C   0  0  1  0  0  0  0  0  0  0  0  0
  -14.5305    7.3118    4.3229 C   0  0  1  0  0  0  0  0  0  0  0  0
  -14.1264    5.8300    4.0638 C   0  0  2  0  0  0  0  0  0  0  0  0
  -14.0350    8.3305    2.1479 C   0  0  0  0  0  0  0  0  0  0  0  0
  -16.0208    6.7451    7.8396 O   0  0  0  0  0  0  0  0  0  0  0  0
  -13.7651    5.1488    5.3045 O   0  0  0  0  0  0  0  0  0  0  0  0
  -14.5446    4.1062   10.1031 N   0  0  0  0  0  0  0  0  0  0  0  0
  -15.0888    7.9528    3.1143 N   0  0  0  0  0  0  0  0  0  0  0  0
  -16.8432    6.9879    5.0973 O   0  0  0  0  0  0  0  0  0  0  0  0
  -13.0461    5.7604    3.0877 O   0  0  0  0  0  0  0  0  0  0  0  0
  -14.7458    6.8602    9.8726 O   0  0  0  0  0  0  0  0  0  0  0  0
  -11.7865    6.4342    3.3930 C   0  0  2  0  0  0  0  0  0  0  0  0
  -10.7052    6.1051    2.3248 C   0  0  1  0  0  0  0  0  0  0  0  0
  -10.2203    4.6309    2.4316 C   0  0  2  0  0  0  0  0  0  0  0  0
   -9.7650    4.2928    3.8808 C   0  0  1  0  0  0  0  0  0  0  0  0
  -10.8598    4.6690    4.9179 C   0  0  1  0  0  0  0  0  0  0  0  0
  -10.3692    4.4654    6.3754 C   0  0  0  0  0  0  0  0  0  0  0  0
  -11.3034    6.0448    4.7134 O   0  0  0  0  0  0  0  0  0  0  0  0
   -9.3680    2.8732    4.0055 N   0  0  0  0  0  0  0  0  0  0  0  0
  -11.1842    6.4104    1.0164 O   0  0  0  0  0  0  0  0  0  0  0  0
   -9.1834    4.3604    1.4908 O   0  0  0  0  0  0  0  0  0  0  0  0
   -9.3609    5.4140    6.7083 O   0  0  0  0  0  0  0  0  0  0  0  0
  -14.9774    8.2957    9.9699 C   0  0  1  0  0  0  0  0  0  0  0  0
  -15.6292    8.6892   11.3251 C   0  0  1  0  0  0  0  0  0  0  0  0
  -15.9562   10.2085   11.3694 C   0  0  2  0  0  0  0  0  0  0  0  0
  -14.7112   11.0962   11.0439 C   0  0  1  0  0  0  0  0  0  0  0  0
  -13.9584   10.6378    9.7590 C   0  0  0  0  0  0  0  0  0  0  0  0
  -13.6694    9.1065    9.7457 C   0  0  2  0  0  0  0  0  0  0  0  0
  -15.0924   12.5217   10.9509 N   0  0  0  0  0  0  0  0  0  0  0  0
  -13.0026    8.7461    8.4758 N   0  0  0  0  0  0  0  0  0  0  0  0
  -16.7977    7.9131   11.5696 O   0  0  0  0  0  0  0  0  0  0  0  0
  -16.5035   10.5632   12.6368 O   0  0  0  0  0  0  0  0  0  0  0  0
  1  2  1  0  0  0  0
  1 16  1  6  0  0  0
  2  3  1  0  0  0  0
  2 12  1  1  0  0  0
  4 11  1  6  0  0  0
  4  3  1  0  0  0  0
  5  4  1  0  0  0  0
  5 10  1  1  0  0  0
  6  7  1  0  0  0  0
  6  5  1  0  0  0  0
  6 14  1  6  0  0  0
  7  8  1  0  0  0  0
  7 13  1  6  0  0  0
  8 15  1  6  0  0  0
  8 11  1  0  0  0  0
  9 13  1  0  0  0  0
 10  1  1  0  0  0  0
 17 15  1  6  0  0  0
 17 18  1  0  0  0  0
 18 25  1  6  0  0  0
 19 18  1  0  0  0  0
 19 26  1  6  0  0  0
 20 19  1  0  0  0  0
 20 24  1  6  0  0  0
 21 23  1  0  0  0  0
 21 20  1  0  0  0  0
 21 22  1  1  0  0  0
 23 17  1  0  0  0  0
 27 22  1  0  0  0  0
 28 29  1  0  0  0  0
 28 16  1  1  0  0  0
 29 36  1  6  0  0  0
 30 37  1  1  0  0  0
 30 29  1  0  0  0  0
 31 30  1  0  0  0  0
 31 34  1  6  0  0  0
 32 31  1  0  0  0  0
 32 33  1  0  0  0  0
 33 28  1  0  0  0  0
 33 35  1  6  0  0  0
M  END
>  <CHROM.1>
-129.55377346,59.62946204,158.26843778,-176.78725079,173.01845813,169.15599958
174.38113190,-63.57830668,68.75507937,61.79062570,-58.83054570,100.61888401
-178.50283664,-168.21481668,162.20813987,72.33483553,-13.53880359,6.83622512
6.67011346,-2.36553295,0.86365888,-1.39917697

>  <Name>
lig.pdb

>  <RI>
1.95696e+07

>  <Rbt.Current_Directory>
/home/itssahil/PROJECTS/Mol_Feturizer/New_Systems/rnas/2m4q

>  <Rbt.Executable>
rbdock ($Id: //depot/dev/client3/rdock/2013.1/src/exe/rbdock.cxx#4 $)

>  <Rbt.Library>
libRbt.so (2013.1, Build901 2013/11/27)

>  <Rbt.Parameter_File>
/export/apps/rDock/src/rDock_2013.1_src/data/scripts/dock_solv.prm

>  <Rbt.Receptor>
prm/blind_docking_100.prm

>  <SCORE>
-20.7038

>  <SCORE.INTER>
-12.6351

>  <SCORE.INTER.CONST>
1

>  <SCORE.INTER.POLAR>
-2.99782

>  <SCORE.INTER.ROT>
10

>  <SCORE.INTER.SOLV>
17.777

>  <SCORE.INTER.VDW>
-14.623

>  <SCORE.INTER.norm>
-0.341489

>  <SCORE.INTRA>
-16.844

>  <SCORE.INTRA.DIHEDRAL>
-33.1498

>  <SCORE.INTRA.DIHEDRAL.0>
44.8331

>  <SCORE.INTRA.POLAR>
-0.0312326

>  <SCORE.INTRA.POLAR.0>
-0.108895

>  <SCORE.INTRA.REPUL>
-0.00912235

>  <SCORE.INTRA.REPUL.0>
0.00912235

>  <SCORE.INTRA.SOLV>
-0.574314

>  <SCORE.INTRA.SOLV.lig_0>
-53.9067

>  <SCORE.INTRA.VDW>
0.169901

>  <SCORE.INTRA.VDW.0>
-2.93492

>  <SCORE.INTRA.norm>
-0.455242

>  <SCORE.RESTR>
8.7753

>  <SCORE.RESTR.CAVITY>
8.7753

>  <SCORE.RESTR.norm>
0.23717

>  <SCORE.SYSTEM>
0

>  <SCORE.SYSTEM.CONST>
0

>  <SCORE.SYSTEM.DIHEDRAL>
0

>  <SCORE.SYSTEM.SOLV>
0

>  <SCORE.SYSTEM.norm>
0

>  <SCORE.heavy>
37

>  <SCORE.norm>
-0.559562

>  <RMSD>
15.717

$$$$
lig.pdb
 OpenBabel11021811453D
libRbt.so/2013.1/901 2013/11/27
 37 40  0  0  0  0  0  0  0  0999 V2000
  -16.0982    9.4045   10.8167 C   0  0  2  0  0  0  0  0  0  0  0  0
  -14.6700    9.9082   11.2088 C   0  0  1  0  0  0  0  0  0  0  0  0
  -13.5753    9.5234   10.1710 C   0  0  0  0  0  0  0  0  0  0  0  0
  -13.6596    8.0214    9.8028 C   0  0  1  0  0  0  0  0  0  0  0  0
  -15.0800    7.6822    9.2980 C   0  0  1  0  0  0  0  0  0  0  0  0
  -15.1802    6.1914    8.8770 C   0  0  1  0  0  0  0  0  0  0  0  0
  -14.0661    5.8280    7.8506 C   0  0  1  0  0  0  0  0  0  0  0  0
  -12.6531    6.2553    8.3476 C   0  0  2  0  0  0  0  0  0  0  0  0
  -13.6664    3.5577    8.6871 C   0  0  0  0  0  0  0  0  0  0  0  0
  -16.0726    8.0324   10.3051 O   0  0  0  0  0  0  0  0  0  0  0  0
  -12.6489    7.6349    8.8275 O   0  0  0  0  0  0  0  0  0  0  0  0
  -14.6901   11.3763   11.3881 N   0  0  0  0  0  0  0  0  0  0  0  0
  -14.1345    4.3825    7.5524 N   0  0  0  0  0  0  0  0  0  0  0  0
  -15.1387    5.3314   10.0085 O   0  0  0  0  0  0  0  0  0  0  0  0
  -11.6627    6.0572    7.2967 O   0  0  0  0  0  0  0  0  0  0  0  0
  -16.7258   10.2987    9.8478 O   0  0  0  0  0  0  0  0  0  0  0  0
  -11.4274    4.7010    6.8075 C   0  0  2  0  0  0  0  0  0  0  0  0
   -9.9513    4.5211    6.3520 C   0  0  1  0  0  0  0  0  0  0  0  0
   -9.6540    5.3036    5.0409 C   0  0  2  0  0  0  0  0  0  0  0  0
  -10.6810    4.9457    3.9278 C   0  0  1  0  0  0  0  0  0  0  0  0
  -12.1412    5.1056    4.4354 C   0  0  1  0  0  0  0  0  0  0  0  0
  -13.1745    4.6230    3.3839 C   0  0  0  0  0  0  0  0  0  0  0  0
  -12.3223    4.3937    5.6971 O   0  0  0  0  0  0  0  0  0  0  0  0
  -10.4461    5.7376    2.7005 N   0  0  0  0  0  0  0  0  0  0  0  0
   -9.0555    4.8863    7.4002 O   0  0  0  0  0  0  0  0  0  0  0  0
   -8.3172    5.0782    4.5986 O   0  0  0  0  0  0  0  0  0  0  0  0
  -13.1709    3.2027    3.2840 O   0  0  0  0  0  0  0  0  0  0  0  0
  -17.1296    9.7332    8.5667 C   0  0  1  0  0  0  0  0  0  0  0  0
  -18.5678   10.1669    8.1669 C   0  0  1  0  0  0  0  0  0  0  0  0
  -19.0147    9.4767    6.8475 C   0  0  2  0  0  0  0  0  0  0  0  0
  -17.9957    9.6995    5.6830 C   0  0  1  0  0  0  0  0  0  0  0  0
  -16.5243    9.3999    6.0988 C   0  0  0  0  0  0  0  0  0  0  0  0
  -16.1245   10.0932    7.4360 C   0  0  2  0  0  0  0  0  0  0  0  0
  -18.3779    8.9104    4.4925 N   0  0  0  0  0  0  0  0  0  0  0  0
  -14.7371    9.7182    7.7852 N   0  0  0  0  0  0  0  0  0  0  0  0
  -19.4896    9.8947    9.2175 O   0  0  0  0  0  0  0  0  0  0  0  0
  -20.3130    9.9248    6.4662 O   0  0  0  0  0  0  0  0  0  0  0  0
  1  2  1  0  0  0  0
  1 16  1  6  0  0  0
  2  3  1  0  0  0  0
  2 12  1  6  0  0  0
  4 11  1  6  0  0  0
  4  3  1  0  0  0  0
  5  4  1  0  0  0  0
  5 10  1  1  0  0  0
  6  7  1  0  0  0  0
  6  5  1  0  0  0  0
  6 14  1  1  0  0  0
  7  8  1  0  0  0  0
  7 13  1  1  0  0  0
  8 15  1  6  0  0  0
  8 11  1  0  0  0  0
  9 13  1  0  0  0  0
 10  1  1  0  0  0  0
 17 15  1  6  0  0  0
 17 18  1  0  0  0  0
 18 25  1  1  0  0  0
 19 18  1  0  0  0  0
 19 26  1  6  0  0  0
 20 19  1  0  0  0  0
 20 24  1  6  0  0  0
 21 23  1  0  0  0  0
 21 20  1  0  0  0  0
 21 22  1  6  0  0  0
 23 17  1  0  0  0  0
 27 22  1  0  0  0  0
 28 29  1  0  0  0  0
 28 16  1  1  0  0  0
 29 36  1  1  0  0  0
 30 37  1  6  0  0  0
 30 29  1  0  0  0  0
 31 30  1  0  0  0  0
 31 34  1  6  0  0  0
 32 31  1  0  0  0  0
 32 33  1  0  0  0  0
 33 28  1  0  0  0  0
 33 35  1  1  0  0  0
M  END
>  <CHROM.1>
82.37723982,-62.37429532,-71.85390298,-53.50122581,-148.67028531,121.41058221
121.05023195,59.79938876,72.50703025,-176.44115686,179.43726706,133.50575636
62.30562289,63.21245069,-63.12085992,-112.02345467,-14.27135705,7.24804992
7.40361013,-2.55053537,0.49196639,-1.93593978

>  <Name>
lig.pdb

>  <RI>
0

>  <Rbt.Current_Directory>
/home/itssahil/PROJECTS/Mol_Feturizer/New_Systems/rnas/2m4q

>  <Rbt.Executable>
rbdock ($Id: //depot/dev/client3/rdock/2013.1/src/exe/rbdock.cxx#4 $)

>  <Rbt.Library>
libRbt.so (2013.1, Build901 2013/11/27)

>  <Rbt.Parameter_File>
/export/apps/rDock/src/rDock_2013.1_src/data/scripts/dock_solv.prm

>  <Rbt.Receptor>
prm/blind_docking_60.prm

>  <SCORE>
-3.84278

>  <SCORE.INTER>
-19.0114

>  <SCORE.INTER.CONST>
1

>  <SCORE.INTER.POLAR>
-3.83277

>  <SCORE.INTER.ROT>
10

>  <SCORE.INTER.SOLV>
17.6785

>  <SCORE.INTER.VDW>
-16.0578

>  <SCORE.INTER.norm>
-0.513821

>  <SCORE.INTRA>
0.673642

>  <SCORE.INTRA.DIHEDRAL>
-15.893

>  <SCORE.INTRA.DIHEDRAL.0>
44.8331

>  <SCORE.INTRA.POLAR>
-0.0876797

>  <SCORE.INTRA.POLAR.0>
-0.108895

>  <SCORE.INTRA.REPUL>
0.173083

>  <SCORE.INTRA.REPUL.0>
0.00912235

>  <SCORE.INTRA.SOLV>
0.731849

>  <SCORE.INTRA.SOLV.lig_0>
-53.9067

>  <SCORE.INTRA.VDW>
7.68689

>  <SCORE.INTRA.VDW.0>
-2.93492

>  <SCORE.INTRA.norm>
0.0182065

>  <SCORE.RESTR>
14.4949

>  <SCORE.RESTR.CAVITY>
14.4949

>  <SCORE.RESTR.norm>
0.391755

>  <SCORE.SYSTEM>
0

>  <SCORE.SYSTEM.CONST>
0

>  <SCORE.SYSTEM.DIHEDRAL>
0

>  <SCORE.SYSTEM.SOLV>
0

>  <SCORE.SYSTEM.norm>
0

>  <SCORE.heavy>
37

>  <SCORE.norm>
-0.103859

>  <RMSD>
15.754

$$$$
lig.pdb
 OpenBabel11021811453D
libRbt.so/2013.1/901 2013/11/27
 37 40  0  0  0  0  0  0  0  0999 V2000
  -15.0852    7.4794    9.4742 C   0  0  2  0  0  0  0  0  0  0  0  0
  -13.5329    7.5135    9.6650 C   0  0  1  0  0  0  0  0  0  0  0  0
  -12.7676    6.6223    8.6433 C   0  0  0  0  0  0  0  0  0  0  0  0
  -13.3853    5.2039    8.5684 C   0  0  1  0  0  0  0  0  0  0  0  0
  -14.8909    5.3026    8.2359 C   0  0  1  0  0  0  0  0  0  0  0  0
  -15.5266    3.8922    8.1083 C   0  0  1  0  0  0  0  0  0  0  0  0
  -14.7348    3.0159    7.0925 C   0  0  1  0  0  0  0  0  0  0  0  0
  -13.2082    3.0002    7.4014 C   0  0  2  0  0  0  0  0  0  0  0  0
  -14.8598    0.8456    8.2273 C   0  0  0  0  0  0  0  0  0  0  0  0
  -15.5760    6.1218    9.2267 O   0  0  0  0  0  0  0  0  0  0  0  0
  -12.6911    4.3497    7.6142 O   0  0  0  0  0  0  0  0  0  0  0  0
  -13.0484    8.9076    9.5684 N   0  0  0  0  0  0  0  0  0  0  0  0
  -15.3100    1.6550    7.0744 N   0  0  0  0  0  0  0  0  0  0  0  0
  -15.6234    3.2528    9.3745 O   0  0  0  0  0  0  0  0  0  0  0  0
  -12.4811    2.3160    6.3394 O   0  0  0  0  0  0  0  0  0  0  0  0
  -15.5050    8.3771    8.4016 O   0  0  0  0  0  0  0  0  0  0  0  0
  -12.6124    2.8139    4.9724 C   0  0  2  0  0  0  0  0  0  0  0  0
  -11.3779    2.4171    4.1138 C   0  0  1  0  0  0  0  0  0  0  0  0
  -10.1055    3.2066    4.5352 C   0  0  2  0  0  0  0  0  0  0  0  0
  -10.3726    4.7398    4.5427 C   0  0  1  0  0  0  0  0  0  0  0  0
  -11.6331    5.0884    5.3823 C   0  0  1  0  0  0  0  0  0  0  0  0
  -11.9916    6.5947    5.2882 C   0  0  0  0  0  0  0  0  0  0  0  0
  -12.7649    4.2648    4.9673 O   0  0  0  0  0  0  0  0  0  0  0  0
   -9.1877    5.4927    5.0092 N   0  0  0  0  0  0  0  0  0  0  0  0
  -11.1656    1.0074    4.1631 O   0  0  0  0  0  0  0  0  0  0  0  0
   -8.9974    2.8820    3.6986 O   0  0  0  0  0  0  0  0  0  0  0  0
  -11.1633    7.3680    6.1504 O   0  0  0  0  0  0  0  0  0  0  0  0
  -16.0352    9.6813    8.7786 C   0  0  1  0  0  0  0  0  0  0  0  0
  -17.3896    9.9831    8.0782 C   0  0  1  0  0  0  0  0  0  0  0  0
  -17.8889   11.4158    8.4176 C   0  0  2  0  0  0  0  0  0  0  0  0
  -17.9612   11.6729    9.9579 C   0  0  1  0  0  0  0  0  0  0  0  0
  -16.6605   11.2515   10.7051 C   0  0  0  0  0  0  0  0  0  0  0  0
  -16.1837    9.8185   10.3205 C   0  0  2  0  0  0  0  0  0  0  0  0
  -18.2967   13.0850   10.2396 N   0  0  0  0  0  0  0  0  0  0  0  0
  -14.9215    9.5167   11.0298 N   0  0  0  0  0  0  0  0  0  0  0  0
  -17.2823    9.8054    6.6695 O   0  0  0  0  0  0  0  0  0  0  0  0
  -19.1562   11.6579    7.8119 O   0  0  0  0  0  0  0  0  0  0  0  0
  1  2  1  0  0  0  0
  1 16  1  6  0  0  0
  2  3  1  0  0  0  0
  2 12  1  6  0  0  0
  4 11  1  6  0  0  0
  4  3  1  0  0  0  0
  5  4  1  0  0  0  0
  5 10  1  1  0  0  0
  6  7  1  0  0  0  0
  6  5  1  0  0  0  0
  6 14  1  1  0  0  0
  7  8  1  0  0  0  0
  7 13  1  1  0  0  0
  8 15  1  6  0  0  0
  8 11  1  0  0  0  0
  9 13  1  0  0  0  0
 10  1  1  0  0  0  0
 17 15  1  1  0  0  0
 17 18  1  0  0  0  0
 18 25  1  1  0  0  0
 19 18  1  0  0  0  0
 19 26  1  6  0  0  0
 20 19  1  0  0  0  0
 20 24  1  1  0  0  0
 21 23  1  0  0  0  0
 21 20  1  0  0  0  0
 21 22  1  6  0  0  0
 23 17  1  0  0  0  0
 27 22  1  0  0  0  0
 28 29  1  0  0  0  0
 28 16  1  1  0  0  0
 29 36  1  6  0  0  0
 30 37  1  1  0  0  0
 30 29  1  0  0  0  0
 31 30  1  0  0  0  0
 31 34  1  6  0  0  0
 32 31  1  0  0  0  0
 32 33  1  0  0  0  0
 33 28  1  0  0  0  0
 33 35  1  1  0  0  0
M  END
>  <CHROM.1>
135.96786816,57.40922594,-78.85711399,58.16202464,155.56621694,-99.89767900
62.43929403,-173.18708803,-79.67440599,151.85521875,61.96316085,-129.92081984
178.82423984,57.54301700,-171.86810107,-136.80517403,-14.08088338,6.26068264
7.49491619,2.27562716,0.59967567,0.03357585

>  <Name>
lig.pdb

>  <RI>
0

>  <Rbt.Current_Directory>
/home/itssahil/PROJECTS/Mol_Feturizer/New_Systems/rnas/2m4q

>  <Rbt.Executable>
rbdock ($Id: //depot/dev/client3/rdock/2013.1/src/exe/rbdock.cxx#4 $)

>  <Rbt.Library>
libRbt.so (2013.1, Build901 2013/11/27)

>  <Rbt.Parameter_File>
/export/apps/rDock/src/rDock_2013.1_src/data/scripts/dock_solv.prm

>  <Rbt.Receptor>
prm/blind_docking_60.prm

>  <SCORE>
-4.18942

>  <SCORE.INTER>
-19.2836

>  <SCORE.INTER.CONST>
1

>  <SCORE.INTER.POLAR>
-3.54077

>  <SCORE.INTER.ROT>
10

>  <SCORE.INTER.SOLV>
18.8668

>  <SCORE.INTER.VDW>
-17.6088

>  <SCORE.INTER.norm>
-0.521178

>  <SCORE.INTRA>
-1.08308

>  <SCORE.INTRA.DIHEDRAL>
-22.3851

>  <SCORE.INTRA.DIHEDRAL.0>
44.8331

>  <SCORE.INTRA.POLAR>
-0.433508

>  <SCORE.INTRA.POLAR.0>
-0.108895

>  <SCORE.INTRA.REPUL>
0.118747

>  <SCORE.INTRA.REPUL.0>
0.00912235

>  <SCORE.INTRA.SOLV>
1.46667

>  <SCORE.INTRA.SOLV.lig_0>
-53.9067

>  <SCORE.INTRA.VDW>
10.2563

>  <SCORE.INTRA.VDW.0>
-2.93492

>  <SCORE.INTRA.norm>
-0.0292723

>  <SCORE.RESTR>
16.1772

>  <SCORE.RESTR.CAVITY>
16.1772

>  <SCORE.RESTR.norm>
0.437223

>  <SCORE.SYSTEM>
0

>  <SCORE.SYSTEM.CONST>
0

>  <SCORE.SYSTEM.DIHEDRAL>
0

>  <SCORE.SYSTEM.SOLV>
0

>  <SCORE.SYSTEM.norm>
0

>  <SCORE.heavy>
37

>  <SCORE.norm>
-0.113228

>  <RMSD>
15.779

$$$$
lig.pdb
 OpenBabel11021811453D
libRbt.so/2013.1/901 2013/11/27
 37 40  0  0  0  0  0  0  0  0999 V2000
  -15.6423    8.0942    8.7147 C   0  0  2  0  0  0  0  0  0  0  0  0
  -15.0499    6.8310    9.4222 C   0  0  1  0  0  0  0  0  0  0  0  0
  -13.7447    6.3071    8.7545 C   0  0  0  0  0  0  0  0  0  0  0  0
  -13.9169    6.1761    7.2208 C   0  0  1  0  0  0  0  0  0  0  0  0
  -14.3693    7.5278    6.6247 C   0  0  1  0  0  0  0  0  0  0  0  0
  -14.5049    7.4382    5.0809 C   0  0  1  0  0  0  0  0  0  0  0  0
  -13.1925    6.8980    4.4386 C   0  0  1  0  0  0  0  0  0  0  0  0
  -12.7131    5.5783    5.1129 C   0  0  2  0  0  0  0  0  0  0  0  0
  -12.1167    6.7083    2.2430 C   0  0  0  0  0  0  0  0  0  0  0  0
  -15.6050    7.9717    7.2557 O   0  0  0  0  0  0  0  0  0  0  0  0
  -12.7071    5.6927    6.5692 O   0  0  0  0  0  0  0  0  0  0  0  0
  -14.7924    7.1315   10.8473 N   0  0  0  0  0  0  0  0  0  0  0  0
  -13.3961    6.7344    2.9843 N   0  0  0  0  0  0  0  0  0  0  0  0
  -15.6254    6.6475    4.7059 O   0  0  0  0  0  0  0  0  0  0  0  0
  -11.4011    5.1955    4.6065 O   0  0  0  0  0  0  0  0  0  0  0  0
  -14.9552    9.3097    9.1424 O   0  0  0  0  0  0  0  0  0  0  0  0
  -10.6818    4.1169    5.2797 C   0  0  2  0  0  0  0  0  0  0  0  0
  -10.3664    2.9567    4.2932 C   0  0  1  0  0  0  0  0  0  0  0  0
  -11.6509    2.1753    3.8938 C   0  0  2  0  0  0  0  0  0  0  0  0
  -12.4369    1.7058    5.1522 C   0  0  1  0  0  0  0  0  0  0  0  0
  -12.7001    2.8880    6.1262 C   0  0  1  0  0  0  0  0  0  0  0  0
  -13.3615    2.4127    7.4464 C   0  0  0  0  0  0  0  0  0  0  0  0
  -11.4590    3.6052    6.4033 O   0  0  0  0  0  0  0  0  0  0  0  0
  -13.6951    1.0224    4.7800 N   0  0  0  0  0  0  0  0  0  0  0  0
   -9.6691    3.4470    3.1496 O   0  0  0  0  0  0  0  0  0  0  0  0
  -11.3402    1.0750    3.0417 O   0  0  0  0  0  0  0  0  0  0  0  0
  -14.7283    2.0737    7.2356 O   0  0  0  0  0  0  0  0  0  0  0  0
  -15.3211    9.8754   10.4348 C   0  0  1  0  0  0  0  0  0  0  0  0
  -14.2851   10.9260   10.9240 C   0  0  1  0  0  0  0  0  0  0  0  0
  -14.6422   11.4451   12.3454 C   0  0  2  0  0  0  0  0  0  0  0  0
  -16.1056   11.9881   12.4318 C   0  0  1  0  0  0  0  0  0  0  0  0
  -17.1533   11.0083   11.8233 C   0  0  0  0  0  0  0  0  0  0  0  0
  -16.7467   10.4963   10.4086 C   0  0  2  0  0  0  0  0  0  0  0  0
  -16.4558   12.3346   13.8258 N   0  0  0  0  0  0  0  0  0  0  0  0
  -17.7626    9.5360    9.9259 N   0  0  0  0  0  0  0  0  0  0  0  0
  -12.9671   10.3879   10.8985 O   0  0  0  0  0  0  0  0  0  0  0  0
  -13.7143   12.4455   12.7576 O   0  0  0  0  0  0  0  0  0  0  0  0
  1  2  1  0  0  0  0
  1 16  1  6  0  0  0
  2  3  1  0  0  0  0
  2 12  1  1  0  0  0
  4 11  1  6  0  0  0
  4  3  1  0  0  0  0
  5  4  1  0  0  0  0
  5 10  1  1  0  0  0
  6  7  1  0  0  0  0
  6  5  1  0  0  0  0
  6 14  1  1  0  0  0
  7  8  1  0  0  0  0
  7 13  1  6  0  0  0
  8 15  1  6  0  0  0
  8 11  1  0  0  0  0
  9 13  1  0  0  0  0
 10  1  1  0  0  0  0
 17 15  1  6  0  0  0
 17 18  1  0  0  0  0
 18 25  1  6  0  0  0
 19 18  1  0  0  0  0
 19 26  1  1  0  0  0
 20 19  1  0  0  0  0
 20 24  1  6  0  0  0
 21 23  1  0  0  0  0
 21 20  1  0  0  0  0
 21 22  1  1  0  0  0
 23 17  1  0  0  0  0
 27 22  1  0  0  0  0
 28 29  1  0  0  0  0
 28 16  1  6  0  0  0
 29 36  1  1  0  0  0
 30 37  1  6  0  0  0
 30 29  1  0  0  0  0
 31 30  1  0  0  0  0
 31 34  1  1  0  0  0
 32 31  1  0  0  0  0
 32 33  1  0  0  0  0
 33 28  1  0  0  0  0
 33 35  1  1  0  0  0
M  END
>  <CHROM.1>
157.98511929,169.61347451,159.19685196,-57.70810429,121.43626170,-78.79159886
170.52641259,-173.19633688,-73.66035561,-157.87756891,-173.93730008,165.34675767
95.76049390,-90.23638172,72.22561383,-175.11400139,-13.80169771,6.67781273
7.45856538,2.52588103,1.16853801,-0.16331330

>  <Name>
lig.pdb

>  <RI>
0

>  <Rbt.Current_Directory>
/home/itssahil/PROJECTS/Mol_Feturizer/New_Systems/rnas/2m4q

>  <Rbt.Executable>
rbdock ($Id: //depot/dev/client3/rdock/2013.1/src/exe/rbdock.cxx#4 $)

>  <Rbt.Library>
libRbt.so (2013.1, Build901 2013/11/27)

>  <Rbt.Parameter_File>
/export/apps/rDock/src/rDock_2013.1_src/data/scripts/dock_solv.prm

>  <Rbt.Receptor>
prm/blind_docking_60.prm

>  <SCORE>
0.739749

>  <SCORE.INTER>
-4.05703

>  <SCORE.INTER.CONST>
1

>  <SCORE.INTER.POLAR>
-2.64892

>  <SCORE.INTER.ROT>
10

>  <SCORE.INTER.SOLV>
12.667

>  <SCORE.INTER.VDW>
-8.36394

>  <SCORE.INTER.norm>
-0.10965

>  <SCORE.INTRA>
-11.1797

>  <SCORE.INTRA.DIHEDRAL>
-22.1061

>  <SCORE.INTRA.DIHEDRAL.0>
44.8331

>  <SCORE.INTRA.POLAR>
-0.708299

>  <SCORE.INTRA.POLAR.0>
-0.108895

>  <SCORE.INTRA.REPUL>
-0.00912235

>  <SCORE.INTRA.REPUL.0>
0.00912235

>  <SCORE.INTRA.SOLV>
-0.0135584

>  <SCORE.INTRA.SOLV.lig_0>
-53.9067

>  <SCORE.INTRA.VDW>
2.33399

>  <SCORE.INTRA.VDW.0>
-2.93492

>  <SCORE.INTRA.norm>
-0.302154

>  <SCORE.RESTR>
15.9765

>  <SCORE.RESTR.CAVITY>
15.9765

>  <SCORE.RESTR.norm>
0.431796

>  <SCORE.SYSTEM>
0

>  <SCORE.SYSTEM.CONST>
0

>  <SCORE.SYSTEM.DIHEDRAL>
0

>  <SCORE.SYSTEM.SOLV>
0

>  <SCORE.SYSTEM.norm>
0

>  <SCORE.heavy>
37

>  <SCORE.norm>
0.0199932

>  <RMSD>
15.785

$$$$
lig.pdb
 OpenBabel11021811453D
libRbt.so/2013.1/901 2013/11/27
 37 40  0  0  0  0  0  0  0  0999 V2000
  -14.5135    7.0600    9.2468 C   0  0  2  0  0  0  0  0  0  0  0  0
  -13.5507    7.8091    8.2675 C   0  0  1  0  0  0  0  0  0  0  0  0
  -13.4388    7.1268    6.8726 C   0  0  0  0  0  0  0  0  0  0  0  0
  -13.1731    5.6076    7.0148 C   0  0  1  0  0  0  0  0  0  0  0  0
  -14.2710    4.9609    7.8887 C   0  0  1  0  0  0  0  0  0  0  0  0
  -14.0557    3.4283    8.0097 C   0  0  1  0  0  0  0  0  0  0  0  0
  -13.9322    2.7719    6.6024 C   0  0  1  0  0  0  0  0  0  0  0  0
  -12.8776    3.4943    5.7123 C   0  0  2  0  0  0  0  0  0  0  0  0
  -14.7757    0.5841    7.3206 C   0  0  0  0  0  0  0  0  0  0  0  0
  -14.3276    5.6082    9.1925 O   0  0  0  0  0  0  0  0  0  0  0  0
  -13.0697    4.9424    5.7230 O   0  0  0  0  0  0  0  0  0  0  0  0
  -13.9979    9.2090    8.1010 N   0  0  0  0  0  0  0  0  0  0  0  0
  -13.6300    1.3346    6.7626 N   0  0  0  0  0  0  0  0  0  0  0  0
  -12.9261    3.1279    8.8193 O   0  0  0  0  0  0  0  0  0  0  0  0
  -12.9104    2.9660    4.3542 O   0  0  0  0  0  0  0  0  0  0  0  0
  -15.9077    7.4060    8.9841 O   0  0  0  0  0  0  0  0  0  0  0  0
  -11.8422    3.3455    3.4329 C   0  0  2  0  0  0  0  0  0  0  0  0
  -10.4584    3.3171    4.1421 C   0  0  1  0  0  0  0  0  0  0  0  0
  -10.3133    4.4773    5.1681 C   0  0  2  0  0  0  0  0  0  0  0  0
  -10.6307    5.8516    4.5107 C   0  0  1  0  0  0  0  0  0  0  0  0
  -12.0047    5.8254    3.7847 C   0  0  1  0  0  0  0  0  0  0  0  0
  -12.2740    7.1421    3.0100 C   0  0  0  0  0  0  0  0  0  0  0  0
  -12.0843    4.6767    2.8873 O   0  0  0  0  0  0  0  0  0  0  0  0
  -10.5622    6.9517    5.4975 N   0  0  0  0  0  0  0  0  0  0  0  0
  -10.2313    2.0453    4.7468 O   0  0  0  0  0  0  0  0  0  0  0  0
   -9.0175    4.4793    5.7634 O   0  0  0  0  0  0  0  0  0  0  0  0
  -13.4111    7.8174    3.5375 O   0  0  0  0  0  0  0  0  0  0  0  0
  -16.2235    8.8080    8.7421 C   0  0  1  0  0  0  0  0  0  0  0  0
  -17.3048    8.9786    7.6385 C   0  0  1  0  0  0  0  0  0  0  0  0
  -17.5564   10.4811    7.3281 C   0  0  2  0  0  0  0  0  0  0  0  0
  -17.9002   11.3057    8.6110 C   0  0  1  0  0  0  0  0  0  0  0  0
  -16.9050   11.0491    9.7820 C   0  0  0  0  0  0  0  0  0  0  0  0
  -16.6652    9.5320   10.0457 C   0  0  2  0  0  0  0  0  0  0  0  0
  -17.9874   12.7485    8.3002 N   0  0  0  0  0  0  0  0  0  0  0  0
  -15.6739    9.3755   11.1320 N   0  0  0  0  0  0  0  0  0  0  0  0
  -16.9391    8.2724    6.4574 O   0  0  0  0  0  0  0  0  0  0  0  0
  -18.5871   10.6223    6.3538 O   0  0  0  0  0  0  0  0  0  0  0  0
  1  2  1  0  0  0  0
  1 16  1  6  0  0  0
  2  3  1  0  0  0  0
  2 12  1  6  0  0  0
  4 11  1  6  0  0  0
  4  3  1  0  0  0  0
  5  4  1  0  0  0  0
  5 10  1  1  0  0  0
  6  7  1  0  0  0  0
  6  5  1  0  0  0  0
  6 14  1  1  0  0  0
  7  8  1  0  0  0  0
  7 13  1  1  0  0  0
  8 15  1  6  0  0  0
  8 11  1  0  0  0  0
  9 13  1  0  0  0  0
 10  1  1  0  0  0  0
 17 15  1  1  0  0  0
 17 18  1  0  0  0  0
 18 25  1  1  0  0  0
 19 18  1  0  0  0  0
 19 26  1  6  0  0  0
 20 19  1  0  0  0  0
 20 24  1  1  0  0  0
 21 23  1  0  0  0  0
 21 20  1  0  0  0  0
 21 22  1  6  0  0  0
 23 17  1  0  0  0  0
 27 22  1  0  0  0  0
 28 29  1  0  0  0  0
 28 16  1  1  0  0  0
 29 36  1  6  0  0  0
 30 37  1  6  0  0  0
 30 29  1  0  0  0  0
 31 30  1  0  0  0  0
 31 34  1  6  0  0  0
 32 31  1  0  0  0  0
 32 33  1  0  0  0  0
 33 28  1  0  0  0  0
 33 35  1  1  0  0  0
M  END
>  <CHROM.1>
-117.83735032,-169.36241100,69.12688215,-31.61433762,42.06654113,-43.45943553
150.79010330,-77.20272143,-116.89827967,43.19496295,-170.40548164,141.65113119
63.15141172,-174.43411300,-139.85435918,-174.44706285,-13.92866028,6.34332149
6.73399310,2.69363142,0.87762957,-0.53595069

>  <Name>
lig.pdb

>  <RI>
0

>  <Rbt.Current_Directory>
/home/itssahil/PROJECTS/Mol_Feturizer/New_Systems/rnas/2m4q

>  <Rbt.Executable>
rbdock ($Id: //depot/dev/client3/rdock/2013.1/src/exe/rbdock.cxx#4 $)

>  <Rbt.Library>
libRbt.so (2013.1, Build901 2013/11/27)

>  <Rbt.Parameter_File>
/export/apps/rDock/src/rDock_2013.1_src/data/scripts/dock_solv.prm

>  <Rbt.Receptor>
prm/blind_docking_60.prm

>  <SCORE>
-14.9371

>  <SCORE.INTER>
-31.5178

>  <SCORE.INTER.CONST>
1

>  <SCORE.INTER.POLAR>
-7.61829

>  <SCORE.INTER.ROT>
10

>  <SCORE.INTER.SOLV>
22.6834

>  <SCORE.INTER.VDW>
-13.4453

>  <SCORE.INTER.norm>
-0.851832

>  <SCORE.INTRA>
3.01767

>  <SCORE.INTRA.DIHEDRAL>
-17.1063

>  <SCORE.INTRA.DIHEDRAL.0>
44.8331

>  <SCORE.INTRA.POLAR>
0.104159

>  <SCORE.INTRA.POLAR.0>
-0.108895

>  <SCORE.INTRA.REPUL>
0.0111589

>  <SCORE.INTRA.REPUL.0>
0.00912235

>  <SCORE.INTRA.SOLV>
1.81265

>  <SCORE.INTRA.SOLV.lig_0>
-53.9067

>  <SCORE.INTRA.VDW>
10.2546

>  <SCORE.INTRA.VDW.0>
-2.93492

>  <SCORE.INTRA.norm>
0.0815587

>  <SCORE.RESTR>
13.563

>  <SCORE.RESTR.CAVITY>
13.563

>  <SCORE.RESTR.norm>
0.366568

>  <SCORE.SYSTEM>
0

>  <SCORE.SYSTEM.CONST>
0

>  <SCORE.SYSTEM.DIHEDRAL>
0

>  <SCORE.SYSTEM.SOLV>
0

>  <SCORE.SYSTEM.norm>
0

>  <SCORE.heavy>
37

>  <SCORE.norm>
-0.403705

>  <RMSD>
15.792

$$$$
lig.pdb
 OpenBabel11021811453D
libRbt.so/2013.1/901 2013/11/27
 37 40  0  0  0  0  0  0  0  0999 V2000
  -15.2294    5.1340    8.7220 C   0  0  2  0  0  0  0  0  0  0  0  0
  -14.8406    3.7345    8.1413 C   0  0  1  0  0  0  0  0  0  0  0  0
  -13.9180    3.8219    6.8904 C   0  0  0  0  0  0  0  0  0  0  0  0
  -14.4787    4.8264    5.8532 C   0  0  1  0  0  0  0  0  0  0  0  0
  -14.6867    6.2064    6.5163 C   0  0  1  0  0  0  0  0  0  0  0  0
  -15.2046    7.2464    5.4868 C   0  0  1  0  0  0  0  0  0  0  0  0
  -14.2735    7.3043    4.2393 C   0  0  1  0  0  0  0  0  0  0  0  0
  -14.0132    5.8905    3.6395 C   0  0  2  0  0  0  0  0  0  0  0  0
  -15.6686    7.5210    2.2342 C   0  0  0  0  0  0  0  0  0  0  0  0
  -15.5743    6.0878    7.6653 O   0  0  0  0  0  0  0  0  0  0  0  0
  -13.6306    4.9324    4.6736 O   0  0  0  0  0  0  0  0  0  0  0  0
  -14.1813    2.9248    9.1888 N   0  0  0  0  0  0  0  0  0  0  0  0
  -14.8533    8.2298    3.2441 N   0  0  0  0  0  0  0  0  0  0  0  0
  -16.5500    6.9778    5.1135 O   0  0  0  0  0  0  0  0  0  0  0  0
  -13.0085    5.9618    2.5859 O   0  0  0  0  0  0  0  0  0  0  0  0
  -14.1645    5.6700    9.5654 O   0  0  0  0  0  0  0  0  0  0  0  0
  -11.8246    6.7886    2.8069 C   0  0  2  0  0  0  0  0  0  0  0  0
  -10.8284    6.6642    1.6191 C   0  0  1  0  0  0  0  0  0  0  0  0
  -10.1430    5.2681    1.5862 C   0  0  2  0  0  0  0  0  0  0  0  0
   -9.4958    4.9276    2.9600 C   0  0  1  0  0  0  0  0  0  0  0  0
  -10.5148    5.0981    4.1210 C   0  0  1  0  0  0  0  0  0  0  0  0
   -9.8498    4.8951    5.5077 C   0  0  0  0  0  0  0  0  0  0  0  0
  -11.1567    6.4072    4.0466 O   0  0  0  0  0  0  0  0  0  0  0  0
   -8.9024    3.5724    2.9569 N   0  0  0  0  0  0  0  0  0  0  0  0
  -11.4798    6.9623    0.3856 O   0  0  0  0  0  0  0  0  0  0  0  0
   -9.1850    5.1894    0.5330 O   0  0  0  0  0  0  0  0  0  0  0  0
  -10.7376    4.2351    6.4042 O   0  0  0  0  0  0  0  0  0  0  0  0
  -14.2936    7.0465   10.0262 C   0  0  1  0  0  0  0  0  0  0  0  0
  -14.0527    8.0686    8.8802 C   0  0  1  0  0  0  0  0  0  0  0  0
  -14.0991    9.5286    9.4125 C   0  0  2  0  0  0  0  0  0  0  0  0
  -15.4156    9.8355   10.1977 C   0  0  1  0  0  0  0  0  0  0  0  0
  -15.7526    8.7512   11.2647 C   0  0  0  0  0  0  0  0  0  0  0  0
  -15.6739    7.3026   10.6952 C   0  0  2  0  0  0  0  0  0  0  0  0
  -15.3599   11.1794   10.8116 N   0  0  0  0  0  0  0  0  0  0  0  0
  -15.9548    6.3358   11.7785 N   0  0  0  0  0  0  0  0  0  0  0  0
  -12.8171    7.8095    8.2216 O   0  0  0  0  0  0  0  0  0  0  0  0
  -13.9299   10.4544    8.3421 O   0  0  0  0  0  0  0  0  0  0  0  0
  1  2  1  0  0  0  0
  1 16  1  6  0  0  0
  2  3  1  0  0  0  0
  2 12  1  1  0  0  0
  4 11  1  6  0  0  0
  4  3  1  0  0  0  0
  5  4  1  0  0  0  0
  5 10  1  1  0  0  0
  6  7  1  0  0  0  0
  6  5  1  0  0  0  0
  6 14  1  6  0  0  0
  7  8  1  0  0  0  0
  7 13  1  6  0  0  0
  8 15  1  6  0  0  0
  8 11  1  0  0  0  0
  9 13  1  0  0  0  0
 10  1  1  0  0  0  0
 17 15  1  6  0  0  0
 17 18  1  0  0  0  0
 18 25  1  6  0  0  0
 19 18  1  0  0  0  0
 19 26  1  6  0  0  0
 20 19  1  0  0  0  0
 20 24  1  6  0  0  0
 21 23  1  0  0  0  0
 21 20  1  0  0  0  0
 21 22  1  1  0  0  0
 23 17  1  0  0  0  0
 27 22  1  0  0  0  0
 28 29  1  0  0  0  0
 28 16  1  6  0  0  0
 29 36  1  1  0  0  0
 30 37  1  6  0  0  0
 30 29  1  0  0  0  0
 31 30  1  0  0  0  0
 31 34  1  1  0  0  0
 32 31  1  0  0  0  0
 32 33  1  0  0  0  0
 33 28  1  0  0  0  0
 33 35  1  1  0  0  0
M  END
>  <CHROM.1>
-57.11375920,42.93104994,-94.98606058,63.52983906,176.20520340,171.47404605
64.31747817,-56.61432973,-143.33579490,-177.15240005,-151.74190636,-72.61205078
-138.29320418,-74.82759808,79.78570327,-172.05933743,-13.37467657,6.46010988
6.09505476,-2.50610620,0.95107172,-1.02335039

>  <Name>
lig.pdb

>  <RI>
1.95696e+07

>  <Rbt.Current_Directory>
/home/itssahil/PROJECTS/Mol_Feturizer/New_Systems/rnas/2m4q

>  <Rbt.Executable>
rbdock ($Id: //depot/dev/client3/rdock/2013.1/src/exe/rbdock.cxx#4 $)

>  <Rbt.Library>
libRbt.so (2013.1, Build901 2013/11/27)

>  <Rbt.Parameter_File>
/export/apps/rDock/src/rDock_2013.1_src/data/scripts/dock_solv.prm

>  <Rbt.Receptor>
prm/blind_docking_100.prm

>  <SCORE>
-15.8377

>  <SCORE.INTER>
-19.6628

>  <SCORE.INTER.CONST>
1

>  <SCORE.INTER.POLAR>
-4.86089

>  <SCORE.INTER.ROT>
10

>  <SCORE.INTER.SOLV>
18.4683

>  <SCORE.INTER.VDW>
-13.3283

>  <SCORE.INTER.norm>
-0.531426

>  <SCORE.INTRA>
-7.52459

>  <SCORE.INTRA.DIHEDRAL>
-25.756

>  <SCORE.INTRA.DIHEDRAL.0>
44.8331

>  <SCORE.INTRA.POLAR>
0.100715

>  <SCORE.INTRA.POLAR.0>
-0.108895

>  <SCORE.INTRA.REPUL>
0.000441773

>  <SCORE.INTRA.REPUL.0>
0.00912235

>  <SCORE.INTRA.SOLV>
-0.0112448

>  <SCORE.INTRA.SOLV.lig_0>
-53.9067

>  <SCORE.INTRA.VDW>
5.01439

>  <SCORE.INTRA.VDW.0>
-2.93492

>  <SCORE.INTRA.norm>
-0.203367

>  <SCORE.RESTR>
11.3497

>  <SCORE.RESTR.CAVITY>
11.3497

>  <SCORE.RESTR.norm>
0.306748

>  <SCORE.SYSTEM>
0

>  <SCORE.SYSTEM.CONST>
0

>  <SCORE.SYSTEM.DIHEDRAL>
0

>  <SCORE.SYSTEM.SOLV>
0

>  <SCORE.SYSTEM.norm>
0

>  <SCORE.heavy>
37

>  <SCORE.norm>
-0.428045

>  <RMSD>
15.869

$$$$
lig.pdb
 OpenBabel11021811453D
libRbt.so/2013.1/901 2013/11/27
 37 40  0  0  0  0  0  0  0  0999 V2000
  -15.0115    5.1283    8.1644 C   0  0  2  0  0  0  0  0  0  0  0  0
  -14.2694    3.8323    7.6986 C   0  0  1  0  0  0  0  0  0  0  0  0
  -13.3809    4.0510    6.4390 C   0  0  0  0  0  0  0  0  0  0  0  0
  -14.1638    4.7909    5.3262 C   0  0  1  0  0  0  0  0  0  0  0  0
  -14.7274    6.1210    5.8746 C   0  0  1  0  0  0  0  0  0  0  0  0
  -15.4781    6.9068    4.7662 C   0  0  1  0  0  0  0  0  0  0  0  0
  -14.5739    7.0994    3.5124 C   0  0  1  0  0  0  0  0  0  0  0  0
  -13.9521    5.7554    3.0295 C   0  0  2  0  0  0  0  0  0  0  0  0
  -14.5374    8.7158    1.6685 C   0  0  0  0  0  0  0  0  0  0  0  0
  -15.5725    5.8731    7.0349 O   0  0  0  0  0  0  0  0  0  0  0  0
  -13.3532    5.0142    4.1366 O   0  0  0  0  0  0  0  0  0  0  0  0
  -13.4411    3.3061    8.8052 N   0  0  0  0  0  0  0  0  0  0  0  0
  -15.3557    7.7618    2.4479 N   0  0  0  0  0  0  0  0  0  0  0  0
  -16.7045    6.2737    4.4246 O   0  0  0  0  0  0  0  0  0  0  0  0
  -12.9831    5.9955    1.9674 O   0  0  0  0  0  0  0  0  0  0  0  0
  -14.1317    5.9854    8.9542 O   0  0  0  0  0  0  0  0  0  0  0  0
  -11.8649    6.8965    2.2351 C   0  0  2  0  0  0  0  0  0  0  0  0
  -10.6364    6.5379    1.3514 C   0  0  1  0  0  0  0  0  0  0  0  0
   -9.9782    5.2004    1.7959 C   0  0  2  0  0  0  0  0  0  0  0  0
   -9.6488    5.2146    3.3169 C   0  0  1  0  0  0  0  0  0  0  0  0
  -10.8931    5.6110    4.1595 C   0  0  1  0  0  0  0  0  0  0  0  0
  -10.5475    5.7626    5.6641 C   0  0  0  0  0  0  0  0  0  0  0  0
  -11.4868    6.8407    3.6431 O   0  0  0  0  0  0  0  0  0  0  0  0
   -9.0862    3.9203    3.7603 N   0  0  0  0  0  0  0  0  0  0  0  0
  -11.0008    6.5149   -0.0275 O   0  0  0  0  0  0  0  0  0  0  0  0
   -8.8155    4.9161    1.0209 O   0  0  0  0  0  0  0  0  0  0  0  0
   -9.9196    4.5853    6.1614 O   0  0  0  0  0  0  0  0  0  0  0  0
  -14.6239    7.3075    9.3200 C   0  0  1  0  0  0  0  0  0  0  0  0
  -15.3292    7.3028   10.7051 C   0  0  1  0  0  0  0  0  0  0  0  0
  -15.9308    8.6986   11.0322 C   0  0  2  0  0  0  0  0  0  0  0  0
  -14.8730    9.8445   10.9226 C   0  0  1  0  0  0  0  0  0  0  0  0
  -14.0560    9.7913    9.5969 C   0  0  0  0  0  0  0  0  0  0  0  0
  -13.4893    8.3709    9.2967 C   0  0  2  0  0  0  0  0  0  0  0  0
  -15.5114   11.1669   11.0953 N   0  0  0  0  0  0  0  0  0  0  0  0
  -12.7748    8.3935    8.0020 N   0  0  0  0  0  0  0  0  0  0  0  0
  -16.3329    6.2942   10.7592 O   0  0  0  0  0  0  0  0  0  0  0  0
  -16.5269    8.6928   12.3270 O   0  0  0  0  0  0  0  0  0  0  0  0
  1  2  1  0  0  0  0
  1 16  1  6  0  0  0
  2  3  1  0  0  0  0
  2 12  1  1  0  0  0
  4 11  1  6  0  0  0
  4  3  1  0  0  0  0
  5  4  1  0  0  0  0
  5 10  1  1  0  0  0
  6  7  1  0  0  0  0
  6  5  1  0  0  0  0
  6 14  1  6  0  0  0
  7  8  1  0  0  0  0
  7 13  1  6  0  0  0
  8 15  1  6  0  0  0
  8 11  1  0  0  0  0
  9 13  1  0  0  0  0
 10  1  1  0  0  0  0
 17 15  1  1  0  0  0
 17 18  1  0  0  0  0
 18 25  1  6  0  0  0
 19 18  1  0  0  0  0
 19 26  1  6  0  0  0
 20 19  1  0  0  0  0
 20 24  1  1  0  0  0
 21 23  1  0  0  0  0
 21 20  1  0  0  0  0
 21 22  1  1  0  0  0
 23 17  1  0  0  0  0
 27 22  1  0  0  0  0
 28 29  1  0  0  0  0
 28 16  1  1  0  0  0
 29 36  1  6  0  0  0
 30 37  1  1  0  0  0
 30 29  1  0  0  0  0
 31 30  1  0  0  0  0
 31 34  1  6  0  0  0
 32 31  1  0  0  0  0
 32 33  1  0  0  0  0
 33 28  1  0  0  0  0
 33 35  1  6  0  0  0
M  END
>  <CHROM.1>
44.63362965,56.88207532,143.29030411,-60.28246433,152.86834255,172.47937612
177.37282016,62.03735292,-54.20544702,-176.98877013,-67.81672892,92.29585319
64.68167496,60.04986201,-59.13361118,179.57398181,-13.36350861,6.48684237
5.94710798,-2.18730642,0.69169307,-1.42152864

>  <Name>
lig.pdb

>  <RI>
1.95696e+07

>  <Rbt.Current_Directory>
/home/itssahil/PROJECTS/Mol_Feturizer/New_Systems/rnas/2m4q

>  <Rbt.Executable>
rbdock ($Id: //depot/dev/client3/rdock/2013.1/src/exe/rbdock.cxx#4 $)

>  <Rbt.Library>
libRbt.so (2013.1, Build901 2013/11/27)

>  <Rbt.Parameter_File>
/export/apps/rDock/src/rDock_2013.1_src/data/scripts/dock_solv.prm

>  <Rbt.Receptor>
prm/blind_docking_100.prm

>  <SCORE>
-25.1394

>  <SCORE.INTER>
-19.8046

>  <SCORE.INTER.CONST>
1

>  <SCORE.INTER.POLAR>
-3.7349

>  <SCORE.INTER.ROT>
10

>  <SCORE.INTER.SOLV>
16.6972

>  <SCORE.INTER.VDW>
-16.5858

>  <SCORE.INTER.norm>
-0.535259

>  <SCORE.INTRA>
-17.8755

>  <SCORE.INTRA.DIHEDRAL>
-34.3939

>  <SCORE.INTRA.DIHEDRAL.0>
44.8331

>  <SCORE.INTRA.POLAR>
-0.36336

>  <SCORE.INTRA.POLAR.0>
-0.108895

>  <SCORE.INTRA.REPUL>
-0.00912235

>  <SCORE.INTRA.REPUL.0>
0.00912235

>  <SCORE.INTRA.SOLV>
-0.196391

>  <SCORE.INTRA.SOLV.lig_0>
-53.9067

>  <SCORE.INTRA.VDW>
0.700738

>  <SCORE.INTRA.VDW.0>
-2.93492

>  <SCORE.INTRA.norm>
-0.483121

>  <SCORE.RESTR>
12.5406

>  <SCORE.RESTR.CAVITY>
12.5406

>  <SCORE.RESTR.norm>
0.338936

>  <SCORE.SYSTEM>
0

>  <SCORE.SYSTEM.CONST>
0

>  <SCORE.SYSTEM.DIHEDRAL>
0

>  <SCORE.SYSTEM.SOLV>
0

>  <SCORE.SYSTEM.norm>
0

>  <SCORE.heavy>
37

>  <SCORE.norm>
-0.679443

>  <RMSD>
15.888

$$$$
lig.pdb
 OpenBabel11021811453D
libRbt.so/2013.1/901 2013/11/27
 37 40  0  0  0  0  0  0  0  0999 V2000
   -4.0589   -3.2287   15.9679 C   0  0  2  0  0  0  0  0  0  0  0  0
   -4.7971   -4.5398   16.3958 C   0  0  1  0  0  0  0  0  0  0  0  0
   -5.4133   -5.3185   15.1968 C   0  0  0  0  0  0  0  0  0  0  0  0
   -6.2343   -4.3756   14.2825 C   0  0  1  0  0  0  0  0  0  0  0  0
   -5.3519   -3.1966   13.8146 C   0  0  1  0  0  0  0  0  0  0  0  0
   -6.1365   -2.2593   12.8578 C   0  0  1  0  0  0  0  0  0  0  0  0
   -6.7550   -3.0637   11.6758 C   0  0  1  0  0  0  0  0  0  0  0  0
   -7.5710   -4.2945   12.1715 C   0  0  2  0  0  0  0  0  0  0  0  0
   -8.4429   -2.8927    9.9050 C   0  0  0  0  0  0  0  0  0  0  0  0
   -4.8153   -2.4785   14.9628 O   0  0  0  0  0  0  0  0  0  0  0  0
   -6.8181   -5.0780   13.1477 O   0  0  0  0  0  0  0  0  0  0  0  0
   -3.8647   -5.4201   17.1329 N   0  0  0  0  0  0  0  0  0  0  0  0
   -7.5730   -2.1549   10.8463 N   0  0  0  0  0  0  0  0  0  0  0  0
   -7.1322   -1.5236   13.5571 O   0  0  0  0  0  0  0  0  0  0  0  0
   -7.9891   -5.1160   11.0424 O   0  0  0  0  0  0  0  0  0  0  0  0
   -2.7116   -3.5156   15.4832 O   0  0  0  0  0  0  0  0  0  0  0  0
   -9.1710   -5.9608   11.1953 C   0  0  2  0  0  0  0  0  0  0  0  0
   -8.8381   -7.4471   10.8807 C   0  0  1  0  0  0  0  0  0  0  0  0
   -8.5787   -7.6703    9.3632 C   0  0  2  0  0  0  0  0  0  0  0  0
   -9.7528   -7.1161    8.5052 C   0  0  1  0  0  0  0  0  0  0  0  0
  -10.0748   -5.6414    8.8755 C   0  0  1  0  0  0  0  0  0  0  0  0
  -11.3288   -5.1184    8.1272 C   0  0  0  0  0  0  0  0  0  0  0  0
  -10.2445   -5.5046   10.3191 O   0  0  0  0  0  0  0  0  0  0  0  0
   -9.4812   -7.2626    7.0584 N   0  0  0  0  0  0  0  0  0  0  0  0
   -7.7413   -7.8939   11.6757 O   0  0  0  0  0  0  0  0  0  0  0  0
   -8.3392   -9.0469    9.0787 O   0  0  0  0  0  0  0  0  0  0  0  0
  -11.1532   -5.2106    6.7172 O   0  0  0  0  0  0  0  0  0  0  0  0
   -1.6224   -2.6831   15.9775 C   0  0  1  0  0  0  0  0  0  0  0  0
   -0.6164   -3.4940   16.8415 C   0  0  1  0  0  0  0  0  0  0  0  0
    0.4824   -2.5697   17.4378 C   0  0  2  0  0  0  0  0  0  0  0  0
    1.2080   -1.7226   16.3424 C   0  0  1  0  0  0  0  0  0  0  0  0
    0.2187   -1.0046   15.3763 C   0  0  0  0  0  0  0  0  0  0  0  0
   -0.8777   -1.9615   14.8186 C   0  0  2  0  0  0  0  0  0  0  0  0
    2.1390   -0.7535   16.9590 N   0  0  0  0  0  0  0  0  0  0  0  0
   -1.8024   -1.1948   13.9556 N   0  0  0  0  0  0  0  0  0  0  0  0
   -1.2928   -4.2058   17.8727 O   0  0  0  0  0  0  0  0  0  0  0  0
    1.4264   -3.3350   18.1826 O   0  0  0  0  0  0  0  0  0  0  0  0
  1  2  1  0  0  0  0
  1 16  1  6  0  0  0
  2  3  1  0  0  0  0
  2 12  1  6  0  0  0
  4 11  1  6  0  0  0
  4  3  1  0  0  0  0
  5  4  1  0  0  0  0
  5 10  1  1  0  0  0
  6  7  1  0  0  0  0
  6  5  1  0  0  0  0
  6 14  1  1  0  0  0
  7  8  1  0  0  0  0
  7 13  1  1  0  0  0
  8 15  1  6  0  0  0
  8 11  1  0  0  0  0
  9 13  1  0  0  0  0
 10  1  1  0  0  0  0
 17 15  1  6  0  0  0
 17 18  1  0  0  0  0
 18 25  1  1  0  0  0
 19 18  1  0  0  0  0
 19 26  1  1  0  0  0
 20 19  1  0  0  0  0
 20 24  1  6  0  0  0
 21 23  1  0  0  0  0
 21 20  1  0  0  0  0
 21 22  1  6  0  0  0
 23 17  1  0  0  0  0
 27 22  1  0  0  0  0
 28 29  1  0  0  0  0
 28 16  1  6  0  0  0
 29 36  1  1  0  0  0
 30 37  1  6  0  0  0
 30 29  1  0  0  0  0
 31 30  1  0  0  0  0
 31 34  1  1  0  0  0
 32 31  1  0  0  0  0
 32 33  1  0  0  0  0
 33 28  1  0  0  0  0
 33 35  1  1  0  0  0
M  END
>  <CHROM.1>
-171.27372155,-155.18597690,-166.38779785,58.15406188,-124.34802194,-133.73398869
149.60758793,-179.41233928,-58.30218082,76.30081947,-173.99265905,114.55824657
59.68524878,-59.98904984,65.03454599,-43.55455238,-5.45398268,-4.22139852
13.06388333,-0.08662260,0.73908479,2.82489520

>  <Name>
lig.pdb

>  <RI>
0

>  <Rbt.Current_Directory>
/home/afrankz/demos/rdock_decoys_rna/rnas/2m4q

>  <Rbt.Executable>
rbdock ($Id: //depot/dev/client3/rdock/2013.1/src/exe/rbdock.cxx#4 $)

>  <Rbt.Library>
libRbt.so (2013.1, Build901 2013/11/27)

>  <Rbt.Parameter_File>
/export/apps/rDock/src/rDock_2013.1_src/data/scripts/dock_solv.prm

>  <Rbt.Receptor>
prm/blind_docking_40.prm

>  <SCORE>
-10.2985

>  <SCORE.INTER>
-15.8387

>  <SCORE.INTER.CONST>
1

>  <SCORE.INTER.POLAR>
-3.32368

>  <SCORE.INTER.ROT>
10

>  <SCORE.INTER.SOLV>
26.3477

>  <SCORE.INTER.VDW>
-18.5294

>  <SCORE.INTER.norm>
-0.428073

>  <SCORE.INTRA>
-5.78574

>  <SCORE.INTRA.DIHEDRAL>
-16.0926

>  <SCORE.INTRA.DIHEDRAL.0>
44.8331

>  <SCORE.INTRA.POLAR>
-1.72202

>  <SCORE.INTRA.POLAR.0>
-0.108895

>  <SCORE.INTRA.REPUL>
0.481869

>  <SCORE.INTRA.REPUL.0>
0.00912235

>  <SCORE.INTRA.SOLV>
-0.0145693

>  <SCORE.INTRA.SOLV.lig_0>
-53.9067

>  <SCORE.INTRA.VDW>
5.71338

>  <SCORE.INTRA.VDW.0>
-2.93492

>  <SCORE.INTRA.norm>
-0.156371

>  <SCORE.RESTR>
11.3259

>  <SCORE.RESTR.CAVITY>
11.3259

>  <SCORE.RESTR.norm>
0.306107

>  <SCORE.SYSTEM>
0

>  <SCORE.SYSTEM.CONST>
0

>  <SCORE.SYSTEM.DIHEDRAL>
0

>  <SCORE.SYSTEM.SOLV>
0

>  <SCORE.SYSTEM.norm>
0

>  <SCORE.heavy>
37

>  <SCORE.norm>
-0.278338

>  <RMSD>
15.932

$$$$
lig.pdb
 OpenBabel11021811453D
libRbt.so/2013.1/901 2013/11/27
 37 40  0  0  0  0  0  0  0  0999 V2000
  -14.2365    7.8964    9.7966 C   0  0  2  0  0  0  0  0  0  0  0  0
  -13.3593    8.4388    8.6204 C   0  0  1  0  0  0  0  0  0  0  0  0
  -13.5361    7.6345    7.2992 C   0  0  0  0  0  0  0  0  0  0  0  0
  -13.4176    6.1113    7.5537 C   0  0  1  0  0  0  0  0  0  0  0  0
  -14.4326    5.6779    8.6351 C   0  0  1  0  0  0  0  0  0  0  0  0
  -14.3683    4.1460    8.8772 C   0  0  1  0  0  0  0  0  0  0  0  0
  -14.5328    3.3648    7.5395 C   0  0  1  0  0  0  0  0  0  0  0  0
  -13.5547    3.8769    6.4408 C   0  0  2  0  0  0  0  0  0  0  0  0
  -15.6144    1.1640    7.5543 C   0  0  0  0  0  0  0  0  0  0  0  0
  -14.2192    6.4334    9.8622 O   0  0  0  0  0  0  0  0  0  0  0  0
  -13.5852    5.3334    6.3336 O   0  0  0  0  0  0  0  0  0  0  0  0
  -13.6727    9.8641    8.3797 N   0  0  0  0  0  0  0  0  0  0  0  0
  -14.3669    1.9196    7.7984 N   0  0  0  0  0  0  0  0  0  0  0  0
  -13.1675    3.7785    9.5441 O   0  0  0  0  0  0  0  0  0  0  0  0
  -13.8513    3.2455    5.1610 O   0  0  0  0  0  0  0  0  0  0  0  0
  -15.6088    8.3866    9.7012 O   0  0  0  0  0  0  0  0  0  0  0  0
  -12.8642    3.3463    4.0889 C   0  0  2  0  0  0  0  0  0  0  0  0
  -11.4321    3.0551    4.6207 C   0  0  1  0  0  0  0  0  0  0  0  0
  -10.9124    4.2026    5.5335 C   0  0  2  0  0  0  0  0  0  0  0  0
  -11.0274    5.5820    4.8221 C   0  0  1  0  0  0  0  0  0  0  0  0
  -12.4635    5.8170    4.2764 C   0  0  1  0  0  0  0  0  0  0  0  0
  -12.5596    7.1246    3.4473 C   0  0  0  0  0  0  0  0  0  0  0  0
  -12.8997    4.6725    3.4820 O   0  0  0  0  0  0  0  0  0  0  0  0
  -10.5997    6.6854    5.7099 N   0  0  0  0  0  0  0  0  0  0  0  0
  -11.3908    1.7927    5.2836 O   0  0  0  0  0  0  0  0  0  0  0  0
   -9.5749    3.9547    5.9613 O   0  0  0  0  0  0  0  0  0  0  0  0
  -13.8790    7.6580    3.4926 O   0  0  0  0  0  0  0  0  0  0  0  0
  -16.1333    9.1543   10.8235 C   0  0  1  0  0  0  0  0  0  0  0  0
  -15.2794   10.4209   11.1115 C   0  0  1  0  0  0  0  0  0  0  0  0
  -15.7980   11.1719   12.3702 C   0  0  2  0  0  0  0  0  0  0  0  0
  -17.3222   11.5071   12.2788 C   0  0  1  0  0  0  0  0  0  0  0  0
  -18.1887   10.2822   11.8586 C   0  0  0  0  0  0  0  0  0  0  0  0
  -17.6225    9.5465   10.6069 C   0  0  2  0  0  0  0  0  0  0  0  0
  -17.8096   12.0865   13.5488 N   0  0  0  0  0  0  0  0  0  0  0  0
  -18.4689    8.3714   10.3064 N   0  0  0  0  0  0  0  0  0  0  0  0
  -13.9038   10.0825   11.2555 O   0  0  0  0  0  0  0  0  0  0  0  0
  -15.0391   12.3583   12.5898 O   0  0  0  0  0  0  0  0  0  0  0  0
  1  2  1  0  0  0  0
  1 16  1  6  0  0  0
  2  3  1  0  0  0  0
  2 12  1  6  0  0  0
  4 11  1  6  0  0  0
  4  3  1  0  0  0  0
  5  4  1  0  0  0  0
  5 10  1  1  0  0  0
  6  7  1  0  0  0  0
  6  5  1  0  0  0  0
  6 14  1  6  0  0  0
  7  8  1  0  0  0  0
  7 13  1  1  0  0  0
  8 15  1  6  0  0  0
  8 11  1  0  0  0  0
  9 13  1  0  0  0  0
 10  1  1  0  0  0  0
 17 15  1  1  0  0  0
 17 18  1  0  0  0  0
 18 25  1  1  0  0  0
 19 18  1  0  0  0  0
 19 26  1  6  0  0  0
 20 19  1  0  0  0  0
 20 24  1  1  0  0  0
 21 23  1  0  0  0  0
 21 20  1  0  0  0  0
 21 22  1  6  0  0  0
 23 17  1  0  0  0  0
 27 22  1  0  0  0  0
 28 29  1  0  0  0  0
 28 16  1  6  0  0  0
 29 36  1  1  0  0  0
 30 37  1  6  0  0  0
 30 29  1  0  0  0  0
 31 30  1  0  0  0  0
 31 34  1  1  0  0  0
 32 31  1  0  0  0  0
 32 33  1  0  0  0  0
 33 28  1  0  0  0  0
 33 35  1  1  0  0  0
M  END
>  <CHROM.1>
-120.53932357,-165.72645520,114.54959404,-49.61073556,45.27141613,-121.40724752
54.15609571,61.46729394,-152.47840300,60.28547437,44.82776897,58.52879992
88.23406801,63.27442978,78.07652581,-171.63166031,-14.04570680,6.65409884
8.00706768,-2.24500647,-0.87677002,-2.93160761

>  <Name>
lig.pdb

>  <RI>
0

>  <Rbt.Current_Directory>
/home/itssahil/PROJECTS/Mol_Feturizer/New_Systems/rnas/2m4q

>  <Rbt.Executable>
rbdock ($Id: //depot/dev/client3/rdock/2013.1/src/exe/rbdock.cxx#4 $)

>  <Rbt.Library>
libRbt.so (2013.1, Build901 2013/11/27)

>  <Rbt.Parameter_File>
/export/apps/rDock/src/rDock_2013.1_src/data/scripts/dock_solv.prm

>  <Rbt.Receptor>
prm/blind_docking_60.prm

>  <SCORE>
-1.7831

>  <SCORE.INTER>
-6.74006

>  <SCORE.INTER.CONST>
1

>  <SCORE.INTER.POLAR>
-4.33909

>  <SCORE.INTER.ROT>
10

>  <SCORE.INTER.SOLV>
21.1173

>  <SCORE.INTER.VDW>
-7.3355

>  <SCORE.INTER.norm>
-0.182164

>  <SCORE.INTRA>
-8.1999

>  <SCORE.INTRA.DIHEDRAL>
-22.3576

>  <SCORE.INTRA.DIHEDRAL.0>
44.8331

>  <SCORE.INTRA.POLAR>
-0.891105

>  <SCORE.INTRA.POLAR.0>
-0.108895

>  <SCORE.INTRA.REPUL>
-0.00912235

>  <SCORE.INTRA.REPUL.0>
0.00912235

>  <SCORE.INTRA.SOLV>
0.638878

>  <SCORE.INTRA.SOLV.lig_0>
-53.9067

>  <SCORE.INTRA.VDW>
5.73485

>  <SCORE.INTRA.VDW.0>
-2.93492

>  <SCORE.INTRA.norm>
-0.221619

>  <SCORE.RESTR>
13.1569

>  <SCORE.RESTR.CAVITY>
13.1569

>  <SCORE.RESTR.norm>
0.355591

>  <SCORE.SYSTEM>
0

>  <SCORE.SYSTEM.CONST>
0

>  <SCORE.SYSTEM.DIHEDRAL>
0

>  <SCORE.SYSTEM.SOLV>
0

>  <SCORE.SYSTEM.norm>
0

>  <SCORE.heavy>
37

>  <SCORE.norm>
-0.0481918

>  <RMSD>
15.938

$$$$
lig.pdb
 OpenBabel11021811453D
libRbt.so/2013.1/901 2013/11/27
 37 40  0  0  0  0  0  0  0  0999 V2000
  -14.8698    7.8316    9.6870 C   0  0  2  0  0  0  0  0  0  0  0  0
  -13.9800    8.4485    8.5579 C   0  0  1  0  0  0  0  0  0  0  0  0
  -14.0433    7.6534    7.2209 C   0  0  0  0  0  0  0  0  0  0  0  0
  -13.8335    6.1380    7.4631 C   0  0  1  0  0  0  0  0  0  0  0  0
  -14.8639    5.6220    8.4924 C   0  0  1  0  0  0  0  0  0  0  0  0
  -14.7069    4.0944    8.7196 C   0  0  1  0  0  0  0  0  0  0  0  0
  -14.7588    3.3235    7.3669 C   0  0  1  0  0  0  0  0  0  0  0  0
  -13.7698    3.9159    6.3195 C   0  0  2  0  0  0  0  0  0  0  0  0
  -15.0825    1.0311    6.5581 C   0  0  0  0  0  0  0  0  0  0  0  0
  -14.7565    6.3722    9.7365 O   0  0  0  0  0  0  0  0  0  0  0  0
  -13.8939    5.3685    6.2277 O   0  0  0  0  0  0  0  0  0  0  0  0
  -14.3781    9.8529    8.3197 N   0  0  0  0  0  0  0  0  0  0  0  0
  -14.5072    1.8891    7.6164 N   0  0  0  0  0  0  0  0  0  0  0  0
  -13.5148    3.7986    9.4358 O   0  0  0  0  0  0  0  0  0  0  0  0
  -13.9660    3.2846    5.0204 O   0  0  0  0  0  0  0  0  0  0  0  0
  -16.2665    8.2301    9.5353 O   0  0  0  0  0  0  0  0  0  0  0  0
  -12.8931    3.3739    4.0331 C   0  0  2  0  0  0  0  0  0  0  0  0
  -11.5060    3.1337    4.6943 C   0  0  1  0  0  0  0  0  0  0  0  0
  -11.0903    4.3220    5.6080 C   0  0  2  0  0  0  0  0  0  0  0  0
  -11.1723    5.6746    4.8427 C   0  0  1  0  0  0  0  0  0  0  0  0
  -12.5610    5.8581    4.1693 C   0  0  1  0  0  0  0  0  0  0  0  0
  -12.6128    7.1355    3.2908 C   0  0  0  0  0  0  0  0  0  0  0  0
  -12.9038    4.6785    3.3804 O   0  0  0  0  0  0  0  0  0  0  0  0
  -10.8451    6.8159    5.7253 N   0  0  0  0  0  0  0  0  0  0  0  0
  -11.4957    1.8948    5.4010 O   0  0  0  0  0  0  0  0  0  0  0  0
   -9.7895    4.1196    6.1560 O   0  0  0  0  0  0  0  0  0  0  0  0
  -11.8160    6.9793    2.1211 O   0  0  0  0  0  0  0  0  0  0  0  0
  -16.6707    9.5109   10.1011 C   0  0  1  0  0  0  0  0  0  0  0  0
  -15.8130    9.8966   11.3388 C   0  0  1  0  0  0  0  0  0  0  0  0
  -16.3223   11.2161   11.9842 C   0  0  2  0  0  0  0  0  0  0  0  0
  -16.4144   12.3876   10.9531 C   0  0  1  0  0  0  0  0  0  0  0  0
  -17.1548   11.9855    9.6424 C   0  0  0  0  0  0  0  0  0  0  0  0
  -16.6282   10.6477    9.0408 C   0  0  2  0  0  0  0  0  0  0  0  0
  -17.0386   13.5793   11.5665 N   0  0  0  0  0  0  0  0  0  0  0  0
  -17.4141   10.3120    7.8338 N   0  0  0  0  0  0  0  0  0  0  0  0
  -15.7969    8.8400   12.2933 O   0  0  0  0  0  0  0  0  0  0  0  0
  -15.4940   11.5844   13.0842 O   0  0  0  0  0  0  0  0  0  0  0  0
  1  2  1  0  0  0  0
  1 16  1  6  0  0  0
  2  3  1  0  0  0  0
  2 12  1  6  0  0  0
  4 11  1  6  0  0  0
  4  3  1  0  0  0  0
  5  4  1  0  0  0  0
  5 10  1  1  0  0  0
  6  7  1  0  0  0  0
  6  5  1  0  0  0  0
  6 14  1  6  0  0  0
  7  8  1  0  0  0  0
  7 13  1  1  0  0  0
  8 15  1  6  0  0  0
  8 11  1  0  0  0  0
  9 13  1  0  0  0  0
 10  1  1  0  0  0  0
 17 15  1  1  0  0  0
 17 18  1  0  0  0  0
 18 25  1  1  0  0  0
 19 18  1  0  0  0  0
 19 26  1  6  0  0  0
 20 19  1  0  0  0  0
 20 24  1  1  0  0  0
 21 23  1  0  0  0  0
 21 20  1  0  0  0  0
 21 22  1  6  0  0  0
 23 17  1  0  0  0  0
 27 22  1  0  0  0  0
 28 29  1  0  0  0  0
 28 16  1  6  0  0  0
 29 36  1  1  0  0  0
 30 37  1  1  0  0  0
 30 29  1  0  0  0  0
 31 30  1  0  0  0  0
 31 34  1  1  0  0  0
 32 31  1  0  0  0  0
 32 33  1  0  0  0  0
 33 28  1  0  0  0  0
 33 35  1  6  0  0  0
M  END
>  <CHROM.1>
-140.21616361,-160.74867499,155.75059712,-175.35708432,42.70302545,-84.67600048
62.85257950,62.91779732,70.48457371,49.57153131,-179.05939611,-29.22464642
51.66519045,60.77768655,71.36740308,-56.09503862,-14.14574762,6.76688990
7.65737346,2.50614626,1.06836647,-0.19151592

>  <Name>
lig.pdb

>  <RI>
0

>  <Rbt.Current_Directory>
/home/itssahil/PROJECTS/Mol_Feturizer/New_Systems/rnas/2m4q

>  <Rbt.Executable>
rbdock ($Id: //depot/dev/client3/rdock/2013.1/src/exe/rbdock.cxx#4 $)

>  <Rbt.Library>
libRbt.so (2013.1, Build901 2013/11/27)

>  <Rbt.Parameter_File>
/export/apps/rDock/src/rDock_2013.1_src/data/scripts/dock_solv.prm

>  <Rbt.Receptor>
prm/blind_docking_60.prm

>  <SCORE>
-9.55208

>  <SCORE.INTER>
-12.2594

>  <SCORE.INTER.CONST>
1

>  <SCORE.INTER.POLAR>
-3.67897

>  <SCORE.INTER.ROT>
10

>  <SCORE.INTER.SOLV>
19.8759

>  <SCORE.INTER.VDW>
-12.8016

>  <SCORE.INTER.norm>
-0.331334

>  <SCORE.INTRA>
-8.27645

>  <SCORE.INTRA.DIHEDRAL>
-30.765

>  <SCORE.INTRA.DIHEDRAL.0>
44.8331

>  <SCORE.INTRA.POLAR>
-0.0245203

>  <SCORE.INTRA.POLAR.0>
-0.108895

>  <SCORE.INTRA.REPUL>
-0.00912235

>  <SCORE.INTRA.REPUL.0>
0.00912235

>  <SCORE.INTRA.SOLV>
1.8872

>  <SCORE.INTRA.SOLV.lig_0>
-53.9067

>  <SCORE.INTRA.VDW>
6.29142

>  <SCORE.INTRA.VDW.0>
-2.93492

>  <SCORE.INTRA.norm>
-0.223688

>  <SCORE.RESTR>
10.9837

>  <SCORE.RESTR.CAVITY>
10.9837

>  <SCORE.RESTR.norm>
0.296858

>  <SCORE.SYSTEM>
0

>  <SCORE.SYSTEM.CONST>
0

>  <SCORE.SYSTEM.DIHEDRAL>
0

>  <SCORE.SYSTEM.SOLV>
0

>  <SCORE.SYSTEM.norm>
0

>  <SCORE.heavy>
37

>  <SCORE.norm>
-0.258164

>  <RMSD>
15.950

$$$$
lig.pdb
 OpenBabel11021811453D
libRbt.so/2013.1/901 2013/11/27
 37 40  0  0  0  0  0  0  0  0999 V2000
  -15.0674    7.5983   10.2012 C   0  0  2  0  0  0  0  0  0  0  0  0
  -13.5587    7.9388    9.9667 C   0  0  1  0  0  0  0  0  0  0  0  0
  -12.9302    7.1601    8.7741 C   0  0  0  0  0  0  0  0  0  0  0  0
  -13.2519    5.6477    8.8645 C   0  0  1  0  0  0  0  0  0  0  0  0
  -14.7804    5.4390    8.9504 C   0  0  1  0  0  0  0  0  0  0  0  0
  -15.1346    3.9283    8.9949 C   0  0  1  0  0  0  0  0  0  0  0  0
  -14.4826    3.1695    7.8009 C   0  0  1  0  0  0  0  0  0  0  0  0
  -12.9570    3.4623    7.6868 C   0  0  2  0  0  0  0  0  0  0  0  0
  -14.6991    1.0234    6.6341 C   0  0  0  0  0  0  0  0  0  0  0  0
  -15.3270    6.1611   10.0915 O   0  0  0  0  0  0  0  0  0  0  0  0
  -12.6801    4.8949    7.7562 O   0  0  0  0  0  0  0  0  0  0  0  0
  -13.4033    9.3932    9.7469 N   0  0  0  0  0  0  0  0  0  0  0  0
  -14.7605    1.7245    7.9348 N   0  0  0  0  0  0  0  0  0  0  0  0
  -14.7640    3.3473   10.2386 O   0  0  0  0  0  0  0  0  0  0  0  0
  -12.4163    2.8770    6.4663 O   0  0  0  0  0  0  0  0  0  0  0  0
  -15.9255    8.3433    9.2840 O   0  0  0  0  0  0  0  0  0  0  0  0
  -12.9325    3.3435    5.1818 C   0  0  2  0  0  0  0  0  0  0  0  0
  -11.7983    3.4218    4.1207 C   0  0  1  0  0  0  0  0  0  0  0  0
  -10.8102    4.5857    4.4188 C   0  0  2  0  0  0  0  0  0  0  0  0
  -11.5675    5.9333    4.5989 C   0  0  1  0  0  0  0  0  0  0  0  0
  -12.7130    5.8014    5.6410 C   0  0  1  0  0  0  0  0  0  0  0  0
  -13.5630    7.0958    5.7320 C   0  0  0  0  0  0  0  0  0  0  0  0
  -13.5582    4.6536    5.3257 O   0  0  0  0  0  0  0  0  0  0  0  0
  -10.6408    7.0313    4.9511 N   0  0  0  0  0  0  0  0  0  0  0  0
  -11.1235    2.1696    4.0153 O   0  0  0  0  0  0  0  0  0  0  0  0
   -9.8135    4.6878    3.4041 O   0  0  0  0  0  0  0  0  0  0  0  0
  -14.9424    6.7858    5.9014 O   0  0  0  0  0  0  0  0  0  0  0  0
  -16.6148    9.5173    9.8042 C   0  0  1  0  0  0  0  0  0  0  0  0
  -15.9754   10.0295   11.1252 C   0  0  1  0  0  0  0  0  0  0  0  0
  -16.7828   11.2208   11.7134 C   0  0  2  0  0  0  0  0  0  0  0  0
  -16.9820   12.3752   10.6783 C   0  0  1  0  0  0  0  0  0  0  0  0
  -17.4963   11.8698    9.2971 C   0  0  0  0  0  0  0  0  0  0  0  0
  -16.6731   10.6629    8.7542 C   0  0  2  0  0  0  0  0  0  0  0  0
  -17.8750   13.4204   11.2226 N   0  0  0  0  0  0  0  0  0  0  0  0
  -17.2547   10.2124    7.4712 N   0  0  0  0  0  0  0  0  0  0  0  0
  -15.8637    8.9755   12.0761 O   0  0  0  0  0  0  0  0  0  0  0  0
  -16.1547   11.7131   12.8944 O   0  0  0  0  0  0  0  0  0  0  0  0
  1  2  1  0  0  0  0
  1 16  1  6  0  0  0
  2  3  1  0  0  0  0
  2 12  1  6  0  0  0
  4 11  1  6  0  0  0
  4  3  1  0  0  0  0
  5  4  1  0  0  0  0
  5 10  1  1  0  0  0
  6  7  1  0  0  0  0
  6  5  1  0  0  0  0
  6 14  1  1  0  0  0
  7  8  1  0  0  0  0
  7 13  1  1  0  0  0
  8 15  1  6  0  0  0
  8 11  1  0  0  0  0
  9 13  1  0  0  0  0
 10  1  1  0  0  0  0
 17 15  1  1  0  0  0
 17 18  1  0  0  0  0
 18 25  1  1  0  0  0
 19 18  1  0  0  0  0
 19 26  1  6  0  0  0
 20 19  1  0  0  0  0
 20 24  1  1  0  0  0
 21 23  1  0  0  0  0
 21 20  1  0  0  0  0
 21 22  1  6  0  0  0
 23 17  1  0  0  0  0
 27 22  1  0  0  0  0
 28 29  1  0  0  0  0
 28 16  1  6  0  0  0
 29 36  1  1  0  0  0
 30 37  1  1  0  0  0
 30 29  1  0  0  0  0
 31 30  1  0  0  0  0
 31 34  1  1  0  0  0
 32 31  1  0  0  0  0
 32 33  1  0  0  0  0
 33 28  1  0  0  0  0
 33 35  1  6  0  0  0
M  END
>  <CHROM.1>
73.76700407,61.87841848,155.91029056,-62.27842951,142.47196141,-101.62521626
62.77155652,-59.98815864,141.59784078,-46.46298615,-32.79782824,17.93514657
161.21248110,61.29322160,-60.64069276,45.81012658,-14.23664891,6.67968454
8.04096291,2.44141331,0.97514010,-0.15090036

>  <Name>
lig.pdb

>  <RI>
0

>  <Rbt.Current_Directory>
/home/itssahil/PROJECTS/Mol_Feturizer/New_Systems/rnas/2m4q

>  <Rbt.Executable>
rbdock ($Id: //depot/dev/client3/rdock/2013.1/src/exe/rbdock.cxx#4 $)

>  <Rbt.Library>
libRbt.so (2013.1, Build901 2013/11/27)

>  <Rbt.Parameter_File>
/export/apps/rDock/src/rDock_2013.1_src/data/scripts/dock_solv.prm

>  <Rbt.Receptor>
prm/blind_docking_60.prm

>  <SCORE>
0.774213

>  <SCORE.INTER>
-12.7936

>  <SCORE.INTER.CONST>
1

>  <SCORE.INTER.POLAR>
-3.64129

>  <SCORE.INTER.ROT>
10

>  <SCORE.INTER.SOLV>
18.0042

>  <SCORE.INTER.VDW>
-12.6595

>  <SCORE.INTER.norm>
-0.345773

>  <SCORE.INTRA>
3.37346

>  <SCORE.INTRA.DIHEDRAL>
-17.9623

>  <SCORE.INTRA.DIHEDRAL.0>
44.8331

>  <SCORE.INTRA.POLAR>
-0.241272

>  <SCORE.INTRA.POLAR.0>
-0.108895

>  <SCORE.INTRA.REPUL>
0.362682

>  <SCORE.INTRA.REPUL.0>
0.00912235

>  <SCORE.INTRA.SOLV>
1.70962

>  <SCORE.INTRA.SOLV.lig_0>
-53.9067

>  <SCORE.INTRA.VDW>
10.5067

>  <SCORE.INTRA.VDW.0>
-2.93492

>  <SCORE.INTRA.norm>
0.0911745

>  <SCORE.RESTR>
10.1943

>  <SCORE.RESTR.CAVITY>
10.1943

>  <SCORE.RESTR.norm>
0.275523

>  <SCORE.SYSTEM>
0

>  <SCORE.SYSTEM.CONST>
0

>  <SCORE.SYSTEM.DIHEDRAL>
0

>  <SCORE.SYSTEM.SOLV>
0

>  <SCORE.SYSTEM.norm>
0

>  <SCORE.heavy>
37

>  <SCORE.norm>
0.0209247

>  <RMSD>
15.970

$$$$
lig.pdb
 OpenBabel11021811453D
libRbt.so/2013.1/901 2013/11/27
 37 40  0  0  0  0  0  0  0  0999 V2000
   -5.0646   -3.8520   15.6037 C   0  0  2  0  0  0  0  0  0  0  0  0
   -5.7524   -5.2378   15.8354 C   0  0  1  0  0  0  0  0  0  0  0  0
   -6.2278   -5.9168   14.5176 C   0  0  0  0  0  0  0  0  0  0  0  0
   -7.0328   -4.9269   13.6394 C   0  0  1  0  0  0  0  0  0  0  0  0
   -6.1905   -3.6607   13.3665 C   0  0  1  0  0  0  0  0  0  0  0  0
   -6.9557   -2.6700   12.4486 C   0  0  1  0  0  0  0  0  0  0  0  0
   -7.4332   -3.3765   11.1449 C   0  0  1  0  0  0  0  0  0  0  0  0
   -8.2084   -4.6937   11.4455 C   0  0  2  0  0  0  0  0  0  0  0  0
   -7.5541   -1.1316   10.1652 C   0  0  0  0  0  0  0  0  0  0  0  0
   -5.7868   -3.0405   14.6213 O   0  0  0  0  0  0  0  0  0  0  0  0
   -7.4855   -5.5353   12.3957 O   0  0  0  0  0  0  0  0  0  0  0  0
   -4.8268   -6.1408   16.5533 N   0  0  0  0  0  0  0  0  0  0  0  0
   -8.2395   -2.4293   10.3475 N   0  0  0  0  0  0  0  0  0  0  0  0
   -8.0441   -2.0653   13.1351 O   0  0  0  0  0  0  0  0  0  0  0  0
   -8.4894   -5.4122   10.2089 O   0  0  0  0  0  0  0  0  0  0  0  0
   -3.6696   -4.0153   15.2040 O   0  0  0  0  0  0  0  0  0  0  0  0
   -9.6993   -6.2276   10.1364 C   0  0  2  0  0  0  0  0  0  0  0  0
   -9.3772   -7.7269   10.3958 C   0  0  1  0  0  0  0  0  0  0  0  0
   -8.5904   -8.3599    9.2126 C   0  0  2  0  0  0  0  0  0  0  0  0
   -9.3219   -8.1210    7.8598 C   0  0  1  0  0  0  0  0  0  0  0  0
   -9.6552   -6.6166    7.6571 C   0  0  1  0  0  0  0  0  0  0  0  0
  -10.5034   -6.3799    6.3801 C   0  0  0  0  0  0  0  0  0  0  0  0
  -10.3376   -6.0836    8.8325 O   0  0  0  0  0  0  0  0  0  0  0  0
   -8.5445   -8.6600    6.7224 N   0  0  0  0  0  0  0  0  0  0  0  0
   -8.6866   -7.8840   11.6339 O   0  0  0  0  0  0  0  0  0  0  0  0
   -8.3585   -9.7495    9.4332 O   0  0  0  0  0  0  0  0  0  0  0  0
  -11.8907   -6.5453    6.6548 O   0  0  0  0  0  0  0  0  0  0  0  0
   -2.7826   -2.8690   15.3568 C   0  0  1  0  0  0  0  0  0  0  0  0
   -1.3269   -3.3004   15.6899 C   0  0  1  0  0  0  0  0  0  0  0  0
   -0.4202   -2.0632   15.9440 C   0  0  2  0  0  0  0  0  0  0  0  0
   -0.4670   -1.0374   14.7653 C   0  0  1  0  0  0  0  0  0  0  0  0
   -1.9194   -0.6896   14.3209 C   0  0  0  0  0  0  0  0  0  0  0  0
   -2.7993   -1.9563   14.0978 C   0  0  2  0  0  0  0  0  0  0  0  0
    0.2877    0.1878   15.1050 N   0  0  0  0  0  0  0  0  0  0  0  0
   -4.1703   -1.5405   13.7306 N   0  0  0  0  0  0  0  0  0  0  0  0
   -1.3030   -4.1829   16.8072 O   0  0  0  0  0  0  0  0  0  0  0  0
    0.9218   -2.4727   16.1953 O   0  0  0  0  0  0  0  0  0  0  0  0
  1  2  1  0  0  0  0
  1 16  1  6  0  0  0
  2  3  1  0  0  0  0
  2 12  1  6  0  0  0
  4 11  1  6  0  0  0
  4  3  1  0  0  0  0
  5  4  1  0  0  0  0
  5 10  1  1  0  0  0
  6  7  1  0  0  0  0
  6  5  1  0  0  0  0
  6 14  1  1  0  0  0
  7  8  1  0  0  0  0
  7 13  1  1  0  0  0
  8 15  1  6  0  0  0
  8 11  1  0  0  0  0
  9 13  1  0  0  0  0
 10  1  1  0  0  0  0
 17 15  1  6  0  0  0
 17 18  1  0  0  0  0
 18 25  1  1  0  0  0
 19 18  1  0  0  0  0
 19 26  1  1  0  0  0
 20 19  1  0  0  0  0
 20 24  1  6  0  0  0
 21 23  1  0  0  0  0
 21 20  1  0  0  0  0
 21 22  1  6  0  0  0
 23 17  1  0  0  0  0
 27 22  1  0  0  0  0
 28 29  1  0  0  0  0
 28 16  1  6  0  0  0
 29 36  1  1  0  0  0
 30 37  1  6  0  0  0
 30 29  1  0  0  0  0
 31 30  1  0  0  0  0
 31 34  1  1  0  0  0
 32 31  1  0  0  0  0
 32 33  1  0  0  0  0
 33 28  1  0  0  0  0
 33 35  1  1  0  0  0
M  END
>  <CHROM.1>
75.60374489,-149.28859923,50.20121216,-56.01657693,-98.61057163,-161.04641063
63.97515108,168.32081282,85.94364236,75.67181148,-56.58096282,147.57660950
-57.67478857,69.96413711,73.20697487,127.96503583,-6.11505731,-4.52062428
12.35796855,-0.19963481,0.79685376,2.82507565

>  <Name>
lig.pdb

>  <RI>
0

>  <Rbt.Current_Directory>
/home/afrankz/demos/rdock_decoys_rna/rnas/2m4q

>  <Rbt.Executable>
rbdock ($Id: //depot/dev/client3/rdock/2013.1/src/exe/rbdock.cxx#4 $)

>  <Rbt.Library>
libRbt.so (2013.1, Build901 2013/11/27)

>  <Rbt.Parameter_File>
/export/apps/rDock/src/rDock_2013.1_src/data/scripts/dock_solv.prm

>  <Rbt.Receptor>
prm/blind_docking_40.prm

>  <SCORE>
-14.6328

>  <SCORE.INTER>
-18.8858

>  <SCORE.INTER.CONST>
1

>  <SCORE.INTER.POLAR>
-2.90035

>  <SCORE.INTER.ROT>
10

>  <SCORE.INTER.SOLV>
22.0111

>  <SCORE.INTER.VDW>
-20.5264

>  <SCORE.INTER.norm>
-0.510426

>  <SCORE.INTRA>
-8.97028

>  <SCORE.INTRA.DIHEDRAL>
-22.8518

>  <SCORE.INTRA.DIHEDRAL.0>
44.8331

>  <SCORE.INTRA.POLAR>
-0.542437

>  <SCORE.INTRA.POLAR.0>
-0.108895

>  <SCORE.INTRA.REPUL>
-0.00912235

>  <SCORE.INTRA.REPUL.0>
0.00912235

>  <SCORE.INTRA.SOLV>
-0.350579

>  <SCORE.INTRA.SOLV.lig_0>
-53.9067

>  <SCORE.INTRA.VDW>
4.52079

>  <SCORE.INTRA.VDW.0>
-2.93492

>  <SCORE.INTRA.norm>
-0.24244

>  <SCORE.RESTR>
13.2232

>  <SCORE.RESTR.CAVITY>
13.2232

>  <SCORE.RESTR.norm>
0.357384

>  <SCORE.SYSTEM>
0

>  <SCORE.SYSTEM.CONST>
0

>  <SCORE.SYSTEM.DIHEDRAL>
0

>  <SCORE.SYSTEM.SOLV>
0

>  <SCORE.SYSTEM.norm>
0

>  <SCORE.heavy>
37

>  <SCORE.norm>
-0.395482

>  <RMSD>
15.986

$$$$
lig.pdb
 OpenBabel11021811453D
libRbt.so/2013.1/901 2013/11/27
 37 40  0  0  0  0  0  0  0  0999 V2000
   -3.9163   -3.8208   17.5749 C   0  0  2  0  0  0  0  0  0  0  0  0
   -5.0542   -4.7927   18.0307 C   0  0  1  0  0  0  0  0  0  0  0  0
   -5.6688   -5.6132   16.8590 C   0  0  0  0  0  0  0  0  0  0  0  0
   -6.0332   -4.6948   15.6663 C   0  0  1  0  0  0  0  0  0  0  0  0
   -4.7902   -3.8923   15.2210 C   0  0  1  0  0  0  0  0  0  0  0  0
   -5.1152   -2.9968   13.9954 C   0  0  1  0  0  0  0  0  0  0  0  0
   -5.7419   -3.8378   12.8436 C   0  0  1  0  0  0  0  0  0  0  0  0
   -6.9412   -4.7005   13.3371 C   0  0  2  0  0  0  0  0  0  0  0  0
   -7.5346   -2.4960   11.8438 C   0  0  0  0  0  0  0  0  0  0  0  0
   -4.2601   -3.1192   16.3361 O   0  0  0  0  0  0  0  0  0  0  0  0
   -6.6056   -5.4385   14.5522 O   0  0  0  0  0  0  0  0  0  0  0  0
   -4.5385   -5.7149   19.0657 N   0  0  0  0  0  0  0  0  0  0  0  0
   -6.1265   -2.9356   11.7385 N   0  0  0  0  0  0  0  0  0  0  0  0
   -5.9584   -1.9110   14.3582 O   0  0  0  0  0  0  0  0  0  0  0  0
   -7.3916   -5.5975   12.2802 O   0  0  0  0  0  0  0  0  0  0  0  0
   -2.6470   -4.5273   17.4258 O   0  0  0  0  0  0  0  0  0  0  0  0
   -8.8197   -5.8854   12.1721 C   0  0  2  0  0  0  0  0  0  0  0  0
   -9.0783   -7.4186   12.1412 C   0  0  1  0  0  0  0  0  0  0  0  0
   -8.6037   -8.0558   10.8038 C   0  0  2  0  0  0  0  0  0  0  0  0
   -9.2129   -7.3123    9.5800 C   0  0  1  0  0  0  0  0  0  0  0  0
   -8.9619   -5.7810    9.6683 C   0  0  1  0  0  0  0  0  0  0  0  0
   -9.6791   -5.0113    8.5284 C   0  0  0  0  0  0  0  0  0  0  0  0
   -9.3773   -5.2716   10.9719 O   0  0  0  0  0  0  0  0  0  0  0  0
   -8.7112   -7.8690    8.3045 N   0  0  0  0  0  0  0  0  0  0  0  0
   -8.4781   -8.0509   13.2702 O   0  0  0  0  0  0  0  0  0  0  0  0
   -8.9055   -9.4488   10.7614 O   0  0  0  0  0  0  0  0  0  0  0  0
   -9.2358   -5.4643    7.2534 O   0  0  0  0  0  0  0  0  0  0  0  0
   -1.4760   -3.7443   17.0521 C   0  0  1  0  0  0  0  0  0  0  0  0
   -1.6950   -2.9685   15.7230 C   0  0  1  0  0  0  0  0  0  0  0  0
   -0.4030   -2.2183   15.2928 C   0  0  2  0  0  0  0  0  0  0  0  0
    0.1523   -1.2910   16.4223 C   0  0  1  0  0  0  0  0  0  0  0  0
    0.2550   -2.0091   17.8012 C   0  0  0  0  0  0  0  0  0  0  0  0
   -1.0529   -2.7653   18.1839 C   0  0  2  0  0  0  0  0  0  0  0  0
    1.4550   -0.7106   16.0322 N   0  0  0  0  0  0  0  0  0  0  0  0
   -0.8559   -3.4596   19.4748 N   0  0  0  0  0  0  0  0  0  0  0  0
   -2.1381   -3.8448   14.6919 O   0  0  0  0  0  0  0  0  0  0  0  0
   -0.6352   -1.4695   14.1024 O   0  0  0  0  0  0  0  0  0  0  0  0
  1  2  1  0  0  0  0
  1 16  1  6  0  0  0
  2  3  1  0  0  0  0
  2 12  1  1  0  0  0
  4 11  1  6  0  0  0
  4  3  1  0  0  0  0
  5  4  1  0  0  0  0
  5 10  1  1  0  0  0
  6  7  1  0  0  0  0
  6  5  1  0  0  0  0
  6 14  1  1  0  0  0
  7  8  1  0  0  0  0
  7 13  1  6  0  0  0
  8 15  1  6  0  0  0
  8 11  1  0  0  0  0
  9 13  1  0  0  0  0
 10  1  1  0  0  0  0
 17 15  1  6  0  0  0
 17 18  1  0  0  0  0
 18 25  1  1  0  0  0
 19 18  1  0  0  0  0
 19 26  1  1  0  0  0
 20 19  1  0  0  0  0
 20 24  1  6  0  0  0
 21 23  1  0  0  0  0
 21 20  1  0  0  0  0
 21 22  1  6  0  0  0
 23 17  1  0  0  0  0
 27 22  1  0  0  0  0
 28 29  1  0  0  0  0
 28 16  1  1  0  0  0
 29 36  1  6  0  0  0
 30 37  1  6  0  0  0
 30 29  1  0  0  0  0
 31 30  1  0  0  0  0
 31 34  1  6  0  0  0
 32 31  1  0  0  0  0
 32 33  1  0  0  0  0
 33 28  1  0  0  0  0
 33 35  1  1  0  0  0
M  END
>  <CHROM.1>
-30.95215969,-144.66709978,-93.04486969,169.43330796,-127.68366355,-177.80039769
-68.66636859,60.34972607,-58.99257952,82.21017527,-159.01219363,-56.72899352
26.38786290,-176.01662149,-72.02025426,-162.55516345,-5.24867576,-4.50527898
13.99300317,0.43250324,0.69531044,2.00894910

>  <Name>
lig.pdb

>  <RI>
0

>  <Rbt.Current_Directory>
/home/afrankz/demos/rdock_decoys_rna/rnas/2m4q

>  <Rbt.Executable>
rbdock ($Id: //depot/dev/client3/rdock/2013.1/src/exe/rbdock.cxx#4 $)

>  <Rbt.Library>
libRbt.so (2013.1, Build901 2013/11/27)

>  <Rbt.Parameter_File>
/export/apps/rDock/src/rDock_2013.1_src/data/scripts/dock_solv.prm

>  <Rbt.Receptor>
prm/blind_docking_40.prm

>  <SCORE>
-12.3341

>  <SCORE.INTER>
-18.9155

>  <SCORE.INTER.CONST>
1

>  <SCORE.INTER.POLAR>
-4.91126

>  <SCORE.INTER.ROT>
10

>  <SCORE.INTER.SOLV>
24.9199

>  <SCORE.INTER.VDW>
-14.8128

>  <SCORE.INTER.norm>
-0.51123

>  <SCORE.INTRA>
-6.46587

>  <SCORE.INTRA.DIHEDRAL>
-21.6546

>  <SCORE.INTRA.DIHEDRAL.0>
44.8331

>  <SCORE.INTRA.POLAR>
-0.952395

>  <SCORE.INTRA.POLAR.0>
-0.108895

>  <SCORE.INTRA.REPUL>
-0.00912235

>  <SCORE.INTRA.REPUL.0>
0.00912235

>  <SCORE.INTRA.SOLV>
-0.103511

>  <SCORE.INTRA.SOLV.lig_0>
-53.9067

>  <SCORE.INTRA.VDW>
7.69693

>  <SCORE.INTRA.VDW.0>
-2.93492

>  <SCORE.INTRA.norm>
-0.174753

>  <SCORE.RESTR>
13.0473

>  <SCORE.RESTR.CAVITY>
13.0473

>  <SCORE.RESTR.norm>
0.352629

>  <SCORE.SYSTEM>
0

>  <SCORE.SYSTEM.CONST>
0

>  <SCORE.SYSTEM.DIHEDRAL>
0

>  <SCORE.SYSTEM.SOLV>
0

>  <SCORE.SYSTEM.norm>
0

>  <SCORE.heavy>
37

>  <SCORE.norm>
-0.333354

>  <RMSD>
15.999

$$$$
lig.pdb
 OpenBabel11021811453D
libRbt.so/2013.1/901 2013/11/27
 37 40  0  0  0  0  0  0  0  0999 V2000
   -4.1270   -4.1545   17.0390 C   0  0  2  0  0  0  0  0  0  0  0  0
   -5.0199   -5.3806   17.4215 C   0  0  1  0  0  0  0  0  0  0  0  0
   -5.5914   -6.1352   16.1855 C   0  0  0  0  0  0  0  0  0  0  0  0
   -6.2331   -5.1492   15.1781 C   0  0  1  0  0  0  0  0  0  0  0  0
   -5.2058   -4.0688   14.7722 C   0  0  1  0  0  0  0  0  0  0  0  0
   -5.8080   -3.0928   13.7260 C   0  0  1  0  0  0  0  0  0  0  0  0
   -6.3858   -3.8723   12.5072 C   0  0  1  0  0  0  0  0  0  0  0  0
   -7.3546   -5.0095   12.9482 C   0  0  2  0  0  0  0  0  0  0  0  0
   -6.3083   -1.6324   11.5120 C   0  0  0  0  0  0  0  0  0  0  0  0
   -4.7140   -3.3687   15.9513 O   0  0  0  0  0  0  0  0  0  0  0  0
   -6.7714   -5.8289   14.0075 O   0  0  0  0  0  0  0  0  0  0  0  0
   -4.2454   -6.3195   18.2619 N   0  0  0  0  0  0  0  0  0  0  0  0
   -7.0355   -2.9180   11.5851 N   0  0  0  0  0  0  0  0  0  0  0  0
   -6.7919   -2.2502   14.3120 O   0  0  0  0  0  0  0  0  0  0  0  0
   -7.7402   -5.8225   11.8016 O   0  0  0  0  0  0  0  0  0  0  0  0
   -2.7728   -4.5758   16.6907 O   0  0  0  0  0  0  0  0  0  0  0  0
   -9.0289   -6.5096   11.8364 C   0  0  2  0  0  0  0  0  0  0  0  0
   -8.9109   -7.9455   11.2510 C   0  0  1  0  0  0  0  0  0  0  0  0
   -8.6927   -7.9234    9.7109 C   0  0  2  0  0  0  0  0  0  0  0  0
   -9.7808   -7.0659    9.0017 C   0  0  1  0  0  0  0  0  0  0  0  0
   -9.8893   -5.6528    9.6396 C   0  0  1  0  0  0  0  0  0  0  0  0
  -11.0603   -4.8345    9.0351 C   0  0  0  0  0  0  0  0  0  0  0  0
  -10.0313   -5.7581   11.0888 O   0  0  0  0  0  0  0  0  0  0  0  0
   -9.5393   -6.9836    7.5445 N   0  0  0  0  0  0  0  0  0  0  0  0
   -7.8845   -8.6764   11.9197 O   0  0  0  0  0  0  0  0  0  0  0  0
   -8.6516   -9.2452    9.1776 O   0  0  0  0  0  0  0  0  0  0  0  0
  -11.1531   -5.0440    7.6298 O   0  0  0  0  0  0  0  0  0  0  0  0
   -1.8184   -3.5419   16.3112 C   0  0  1  0  0  0  0  0  0  0  0  0
   -2.3640   -2.6367   15.1714 C   0  0  1  0  0  0  0  0  0  0  0  0
   -1.2951   -1.6038   14.7158 C   0  0  2  0  0  0  0  0  0  0  0  0
   -0.7330   -0.7623   15.9074 C   0  0  1  0  0  0  0  0  0  0  0  0
   -0.3025   -1.6404   17.1205 C   0  0  0  0  0  0  0  0  0  0  0  0
   -1.3933   -2.6752   17.5305 C   0  0  2  0  0  0  0  0  0  0  0  0
    0.3806    0.1017   15.4610 N   0  0  0  0  0  0  0  0  0  0  0  0
   -0.8884   -3.4997   18.6497 N   0  0  0  0  0  0  0  0  0  0  0  0
   -2.8101   -3.4219   14.0704 O   0  0  0  0  0  0  0  0  0  0  0  0
   -1.8278   -0.7475   13.7085 O   0  0  0  0  0  0  0  0  0  0  0  0
  1  2  1  0  0  0  0
  1 16  1  6  0  0  0
  2  3  1  0  0  0  0
  2 12  1  6  0  0  0
  4 11  1  6  0  0  0
  4  3  1  0  0  0  0
  5  4  1  0  0  0  0
  5 10  1  1  0  0  0
  6  7  1  0  0  0  0
  6  5  1  0  0  0  0
  6 14  1  1  0  0  0
  7  8  1  0  0  0  0
  7 13  1  6  0  0  0
  8 15  1  6  0  0  0
  8 11  1  0  0  0  0
  9 13  1  0  0  0  0
 10  1  1  0  0  0  0
 17 15  1  6  0  0  0
 17 18  1  0  0  0  0
 18 25  1  1  0  0  0
 19 18  1  0  0  0  0
 19 26  1  6  0  0  0
 20 19  1  0  0  0  0
 20 24  1  6  0  0  0
 21 23  1  0  0  0  0
 21 20  1  0  0  0  0
 21 22  1  6  0  0  0
 23 17  1  0  0  0  0
 27 22  1  0  0  0  0
 28 29  1  0  0  0  0
 28 16  1  1  0  0  0
 29 36  1  6  0  0  0
 30 37  1  6  0  0  0
 30 29  1  0  0  0  0
 31 30  1  0  0  0  0
 31 34  1  6  0  0  0
 32 31  1  0  0  0  0
 32 33  1  0  0  0  0
 33 28  1  0  0  0  0
 33 35  1  1  0  0  0
M  END
>  <CHROM.1>
164.36903352,-152.76388068,36.66320241,-150.96226405,-139.09255669,-179.94751281
78.08289774,-175.55850905,-39.72911726,80.63397546,-175.53318502,-53.14306443
-173.58793496,-91.71652466,-155.58011342,27.19087067,-5.69356055,-4.48703175
13.47445263,0.16039357,0.78417213,2.37728198

>  <Name>
lig.pdb

>  <RI>
0

>  <Rbt.Current_Directory>
/home/afrankz/demos/rdock_decoys_rna/rnas/2m4q

>  <Rbt.Executable>
rbdock ($Id: //depot/dev/client3/rdock/2013.1/src/exe/rbdock.cxx#4 $)

>  <Rbt.Library>
libRbt.so (2013.1, Build901 2013/11/27)

>  <Rbt.Parameter_File>
/export/apps/rDock/src/rDock_2013.1_src/data/scripts/dock_solv.prm

>  <Rbt.Receptor>
prm/blind_docking_40.prm

>  <SCORE>
-10.1353

>  <SCORE.INTER>
-19.5051

>  <SCORE.INTER.CONST>
1

>  <SCORE.INTER.POLAR>
-3.90994

>  <SCORE.INTER.ROT>
10

>  <SCORE.INTER.SOLV>
25.2829

>  <SCORE.INTER.VDW>
-18.6646

>  <SCORE.INTER.norm>
-0.527166

>  <SCORE.INTRA>
-4.18197

>  <SCORE.INTRA.DIHEDRAL>
-21.2558

>  <SCORE.INTRA.DIHEDRAL.0>
44.8331

>  <SCORE.INTRA.POLAR>
-0.87104

>  <SCORE.INTRA.POLAR.0>
-0.108895

>  <SCORE.INTRA.REPUL>
-0.00912235

>  <SCORE.INTRA.REPUL.0>
0.00912235

>  <SCORE.INTRA.SOLV>
0.0515846

>  <SCORE.INTRA.SOLV.lig_0>
-53.9067

>  <SCORE.INTRA.VDW>
9.42729

>  <SCORE.INTRA.VDW.0>
-2.93492

>  <SCORE.INTRA.norm>
-0.113026

>  <SCORE.RESTR>
13.5518

>  <SCORE.RESTR.CAVITY>
13.5518

>  <SCORE.RESTR.norm>
0.366264

>  <SCORE.SYSTEM>
0

>  <SCORE.SYSTEM.CONST>
0

>  <SCORE.SYSTEM.DIHEDRAL>
0

>  <SCORE.SYSTEM.SOLV>
0

>  <SCORE.SYSTEM.norm>
0

>  <SCORE.heavy>
37

>  <SCORE.norm>
-0.273928

>  <RMSD>
16.015

$$$$
lig.pdb
 OpenBabel11021811453D
libRbt.so/2013.1/901 2013/11/27
 37 40  0  0  0  0  0  0  0  0999 V2000
   -4.6402   -3.2068   15.7200 C   0  0  2  0  0  0  0  0  0  0  0  0
   -5.2794   -4.5905   16.0721 C   0  0  1  0  0  0  0  0  0  0  0  0
   -5.7726   -5.3764   14.8220 C   0  0  0  0  0  0  0  0  0  0  0  0
   -6.6319   -4.4757   13.9005 C   0  0  1  0  0  0  0  0  0  0  0  0
   -5.8360   -3.2099   13.5111 C   0  0  1  0  0  0  0  0  0  0  0  0
   -6.6568   -2.3101   12.5486 C   0  0  1  0  0  0  0  0  0  0  0  0
   -7.1508   -3.1225   11.3146 C   0  0  1  0  0  0  0  0  0  0  0  0
   -7.8773   -4.4352   11.7332 C   0  0  2  0  0  0  0  0  0  0  0  0
   -7.3505   -0.9755   10.1466 C   0  0  0  0  0  0  0  0  0  0  0  0
   -5.4145   -2.4892   14.7048 O   0  0  0  0  0  0  0  0  0  0  0  0
   -7.1023   -5.1852   12.7184 O   0  0  0  0  0  0  0  0  0  0  0  0
   -4.3069   -5.4131   16.8238 N   0  0  0  0  0  0  0  0  0  0  0  0
   -8.0078   -2.2584   10.4768 N   0  0  0  0  0  0  0  0  0  0  0  0
   -7.7422   -1.6873   13.2235 O   0  0  0  0  0  0  0  0  0  0  0  0
   -8.1728   -5.2493   10.5608 O   0  0  0  0  0  0  0  0  0  0  0  0
   -3.2531   -3.3603   15.2898 O   0  0  0  0  0  0  0  0  0  0  0  0
   -9.4595   -5.9379   10.4970 C   0  0  2  0  0  0  0  0  0  0  0  0
   -9.2786   -7.4735   10.6640 C   0  0  1  0  0  0  0  0  0  0  0  0
   -8.6027   -8.1127    9.4172 C   0  0  2  0  0  0  0  0  0  0  0  0
   -9.3562   -7.7284    8.1109 C   0  0  1  0  0  0  0  0  0  0  0  0
   -9.5457   -6.1897    8.0011 C   0  0  1  0  0  0  0  0  0  0  0  0
  -10.4127   -5.8004    6.7751 C   0  0  0  0  0  0  0  0  0  0  0  0
  -10.1280   -5.6596    9.2305 O   0  0  0  0  0  0  0  0  0  0  0  0
   -8.6787   -8.2757    6.9150 N   0  0  0  0  0  0  0  0  0  0  0  0
   -8.5619   -7.7662   11.8620 O   0  0  0  0  0  0  0  0  0  0  0  0
   -8.5020   -9.5284    9.5550 O   0  0  0  0  0  0  0  0  0  0  0  0
  -11.7076   -6.3858    6.8633 O   0  0  0  0  0  0  0  0  0  0  0  0
   -2.2340   -2.6048   16.0071 C   0  0  1  0  0  0  0  0  0  0  0  0
   -1.5718   -3.4461   17.1340 C   0  0  1  0  0  0  0  0  0  0  0  0
   -0.5584   -2.5932   17.9481 C   0  0  2  0  0  0  0  0  0  0  0  0
    0.5070   -1.9019   17.0365 C   0  0  1  0  0  0  0  0  0  0  0  0
   -0.1243   -1.1618   15.8193 C   0  0  0  0  0  0  0  0  0  0  0  0
   -1.1486   -2.0445   15.0445 C   0  0  2  0  0  0  0  0  0  0  0  0
    1.3589   -0.9867   17.8256 N   0  0  0  0  0  0  0  0  0  0  0  0
   -1.7378   -1.2551   13.9413 N   0  0  0  0  0  0  0  0  0  0  0  0
   -2.5587   -4.0124   17.9900 O   0  0  0  0  0  0  0  0  0  0  0  0
    0.0788   -3.3916   18.9421 O   0  0  0  0  0  0  0  0  0  0  0  0
  1  2  1  0  0  0  0
  1 16  1  6  0  0  0
  2  3  1  0  0  0  0
  2 12  1  6  0  0  0
  4 11  1  6  0  0  0
  4  3  1  0  0  0  0
  5  4  1  0  0  0  0
  5 10  1  1  0  0  0
  6  7  1  0  0  0  0
  6  5  1  0  0  0  0
  6 14  1  1  0  0  0
  7  8  1  0  0  0  0
  7 13  1  1  0  0  0
  8 15  1  6  0  0  0
  8 11  1  0  0  0  0
  9 13  1  0  0  0  0
 10  1  1  0  0  0  0
 17 15  1  6  0  0  0
 17 18  1  0  0  0  0
 18 25  1  1  0  0  0
 19 18  1  0  0  0  0
 19 26  1  1  0  0  0
 20 19  1  0  0  0  0
 20 24  1  6  0  0  0
 21 23  1  0  0  0  0
 21 20  1  0  0  0  0
 21 22  1  6  0  0  0
 23 17  1  0  0  0  0
 27 22  1  0  0  0  0
 28 29  1  0  0  0  0
 28 16  1  6  0  0  0
 29 36  1  1  0  0  0
 30 37  1  1  0  0  0
 30 29  1  0  0  0  0
 31 30  1  0  0  0  0
 31 34  1  1  0  0  0
 32 31  1  0  0  0  0
 32 33  1  0  0  0  0
 33 28  1  0  0  0  0
 33 35  1  6  0  0  0
M  END
>  <CHROM.1>
-93.32906925,-139.88510207,51.91076118,-61.08036257,-109.25705670,-124.32316210
-37.74041740,61.05423880,60.02697541,-111.22108687,64.59695869,95.16973394
73.47459466,-67.49115119,-54.54769908,36.04880124,-5.79232008,-4.34047679
12.94077717,-0.11825568,0.82513067,2.83802183

>  <Name>
lig.pdb

>  <RI>
0

>  <Rbt.Current_Directory>
/home/afrankz/demos/rdock_decoys_rna/rnas/2m4q

>  <Rbt.Executable>
rbdock ($Id: //depot/dev/client3/rdock/2013.1/src/exe/rbdock.cxx#4 $)

>  <Rbt.Library>
libRbt.so (2013.1, Build901 2013/11/27)

>  <Rbt.Parameter_File>
/export/apps/rDock/src/rDock_2013.1_src/data/scripts/dock_solv.prm

>  <Rbt.Receptor>
prm/blind_docking_40.prm

>  <SCORE>
-12.7333

>  <SCORE.INTER>
-15.4381

>  <SCORE.INTER.CONST>
1

>  <SCORE.INTER.POLAR>
-3.58269

>  <SCORE.INTER.ROT>
10

>  <SCORE.INTER.SOLV>
22.5847

>  <SCORE.INTER.VDW>
-16.1447

>  <SCORE.INTER.norm>
-0.417247

>  <SCORE.INTRA>
-9.79233

>  <SCORE.INTRA.DIHEDRAL>
-12.9849

>  <SCORE.INTRA.DIHEDRAL.0>
44.8331

>  <SCORE.INTRA.POLAR>
-1.61313

>  <SCORE.INTRA.POLAR.0>
-0.108895

>  <SCORE.INTRA.REPUL>
-0.00912235

>  <SCORE.INTRA.REPUL.0>
0.00912235

>  <SCORE.INTRA.SOLV>
-0.609034

>  <SCORE.INTRA.SOLV.lig_0>
-53.9067

>  <SCORE.INTRA.VDW>
2.53489

>  <SCORE.INTRA.VDW.0>
-2.93492

>  <SCORE.INTRA.norm>
-0.264657

>  <SCORE.RESTR>
12.4972

>  <SCORE.RESTR.CAVITY>
12.4972

>  <SCORE.RESTR.norm>
0.337762

>  <SCORE.SYSTEM>
0

>  <SCORE.SYSTEM.CONST>
0

>  <SCORE.SYSTEM.DIHEDRAL>
0

>  <SCORE.SYSTEM.SOLV>
0

>  <SCORE.SYSTEM.norm>
0

>  <SCORE.heavy>
37

>  <SCORE.norm>
-0.344143

>  <RMSD>
16.033

$$$$
lig.pdb
 OpenBabel11021811453D
libRbt.so/2013.1/901 2013/11/27
 37 40  0  0  0  0  0  0  0  0999 V2000
  -14.5261    7.7701    9.7086 C   0  0  2  0  0  0  0  0  0  0  0  0
  -13.5439    8.3099    8.6173 C   0  0  1  0  0  0  0  0  0  0  0  0
  -13.6801    7.5776    7.2502 C   0  0  0  0  0  0  0  0  0  0  0  0
  -13.6669    6.0402    7.4377 C   0  0  1  0  0  0  0  0  0  0  0  0
  -14.7739    5.6216    8.4310 C   0  0  1  0  0  0  0  0  0  0  0  0
  -14.8143    4.0793    8.6023 C   0  0  1  0  0  0  0  0  0  0  0  0
  -14.9358    3.3700    7.2207 C   0  0  1  0  0  0  0  0  0  0  0  0
  -13.8599    3.8701    6.2115 C   0  0  2  0  0  0  0  0  0  0  0  0
  -13.4793    1.4075    7.4231 C   0  0  0  0  0  0  0  0  0  0  0  0
  -14.5978    6.3072    9.7042 O   0  0  0  0  0  0  0  0  0  0  0  0
  -13.7990    5.3291    6.1732 O   0  0  0  0  0  0  0  0  0  0  0  0
  -13.7578    9.7609    8.4267 N   0  0  0  0  0  0  0  0  0  0  0  0
  -14.8711    1.9073    7.4192 N   0  0  0  0  0  0  0  0  0  0  0  0
  -13.6831    3.6100    9.3246 O   0  0  0  0  0  0  0  0  0  0  0  0
  -14.1081    3.3156    4.8866 O   0  0  0  0  0  0  0  0  0  0  0  0
  -15.8586    8.3467    9.5512 O   0  0  0  0  0  0  0  0  0  0  0  0
  -13.0593    3.4288    3.8761 C   0  0  2  0  0  0  0  0  0  0  0  0
  -11.6634    3.1110    4.4837 C   0  0  1  0  0  0  0  0  0  0  0  0
  -11.1871    4.2331    5.4501 C   0  0  2  0  0  0  0  0  0  0  0  0
  -11.2474    5.6285    4.7638 C   0  0  1  0  0  0  0  0  0  0  0  0
  -12.6469    5.8905    4.1409 C   0  0  1  0  0  0  0  0  0  0  0  0
  -12.6823    7.2164    3.3365 C   0  0  0  0  0  0  0  0  0  0  0  0
  -13.0468    4.7679    3.2975 O   0  0  0  0  0  0  0  0  0  0  0  0
  -10.8619    6.7080    5.6990 N   0  0  0  0  0  0  0  0  0  0  0  0
  -11.6728    1.8344    5.1200 O   0  0  0  0  0  0  0  0  0  0  0  0
   -9.8793    3.9619    5.9494 O   0  0  0  0  0  0  0  0  0  0  0  0
  -12.9697    6.9695    1.9640 O   0  0  0  0  0  0  0  0  0  0  0  0
  -16.3464    9.2232   10.6084 C   0  0  1  0  0  0  0  0  0  0  0  0
  -16.1238    8.6115   12.0200 C   0  0  1  0  0  0  0  0  0  0  0  0
  -16.7372    9.5162   13.1256 C   0  0  2  0  0  0  0  0  0  0  0  0
  -16.2231   10.9902   13.0433 C   0  0  1  0  0  0  0  0  0  0  0  0
  -16.3103   11.5839   11.6054 C   0  0  0  0  0  0  0  0  0  0  0  0
  -15.7038   10.6369   10.5264 C   0  0  2  0  0  0  0  0  0  0  0  0
  -16.9359   11.8499   14.0123 N   0  0  0  0  0  0  0  0  0  0  0  0
  -15.8722   11.2477    9.1900 N   0  0  0  0  0  0  0  0  0  0  0  0
  -16.6578    7.2934   12.0910 O   0  0  0  0  0  0  0  0  0  0  0  0
  -16.4786    8.9695   14.4164 O   0  0  0  0  0  0  0  0  0  0  0  0
  1  2  1  0  0  0  0
  1 16  1  6  0  0  0
  2  3  1  0  0  0  0
  2 12  1  6  0  0  0
  4 11  1  6  0  0  0
  4  3  1  0  0  0  0
  5  4  1  0  0  0  0
  5 10  1  1  0  0  0
  6  7  1  0  0  0  0
  6  5  1  0  0  0  0
  6 14  1  6  0  0  0
  7  8  1  0  0  0  0
  7 13  1  1  0  0  0
  8 15  1  6  0  0  0
  8 11  1  0  0  0  0
  9 13  1  0  0  0  0
 10  1  1  0  0  0  0
 17 15  1  1  0  0  0
 17 18  1  0  0  0  0
 18 25  1  1  0  0  0
 19 18  1  0  0  0  0
 19 26  1  6  0  0  0
 20 19  1  0  0  0  0
 20 24  1  1  0  0  0
 21 23  1  0  0  0  0
 21 20  1  0  0  0  0
 21 22  1  6  0  0  0
 23 17  1  0  0  0  0
 27 22  1  0  0  0  0
 28 29  1  0  0  0  0
 28 16  1  6  0  0  0
 29 36  1  6  0  0  0
 30 37  1  1  0  0  0
 30 29  1  0  0  0  0
 31 30  1  0  0  0  0
 31 34  1  1  0  0  0
 32 31  1  0  0  0  0
 32 33  1  0  0  0  0
 33 28  1  0  0  0  0
 33 35  1  6  0  0  0
M  END
>  <CHROM.1>
-115.27297606,-166.99137803,-87.03214002,77.77688764,42.88711701,-114.37459418
159.21102305,-169.01228524,117.93605908,61.78935326,-174.23991452,-47.21251958
-48.49208733,-166.11821845,63.49813413,23.66463521,-14.10194500,6.47976591
7.97355551,-2.62926940,-1.12568097,3.01536404

>  <Name>
lig.pdb

>  <RI>
0

>  <Rbt.Current_Directory>
/home/itssahil/PROJECTS/Mol_Feturizer/New_Systems/rnas/2m4q

>  <Rbt.Executable>
rbdock ($Id: //depot/dev/client3/rdock/2013.1/src/exe/rbdock.cxx#4 $)

>  <Rbt.Library>
libRbt.so (2013.1, Build901 2013/11/27)

>  <Rbt.Parameter_File>
/export/apps/rDock/src/rDock_2013.1_src/data/scripts/dock_solv.prm

>  <Rbt.Receptor>
prm/blind_docking_60.prm

>  <SCORE>
-3.9624

>  <SCORE.INTER>
-16.0391

>  <SCORE.INTER.CONST>
1

>  <SCORE.INTER.POLAR>
-3.99833

>  <SCORE.INTER.ROT>
10

>  <SCORE.INTER.SOLV>
18.2188

>  <SCORE.INTER.VDW>
-13.7046

>  <SCORE.INTER.norm>
-0.433489

>  <SCORE.INTRA>
-2.49315

>  <SCORE.INTRA.DIHEDRAL>
-18.878

>  <SCORE.INTRA.DIHEDRAL.0>
44.8331

>  <SCORE.INTRA.POLAR>
-0.689117

>  <SCORE.INTRA.POLAR.0>
-0.108895

>  <SCORE.INTRA.REPUL>
-0.00912235

>  <SCORE.INTRA.REPUL.0>
0.00912235

>  <SCORE.INTRA.SOLV>
1.98645

>  <SCORE.INTRA.SOLV.lig_0>
-53.9067

>  <SCORE.INTRA.VDW>
8.34124

>  <SCORE.INTRA.VDW.0>
-2.93492

>  <SCORE.INTRA.norm>
-0.0673825

>  <SCORE.RESTR>
14.5699

>  <SCORE.RESTR.CAVITY>
14.5699

>  <SCORE.RESTR.norm>
0.39378

>  <SCORE.SYSTEM>
0

>  <SCORE.SYSTEM.CONST>
0

>  <SCORE.SYSTEM.DIHEDRAL>
0

>  <SCORE.SYSTEM.SOLV>
0

>  <SCORE.SYSTEM.norm>
0

>  <SCORE.heavy>
37

>  <SCORE.norm>
-0.107092

>  <RMSD>
16.039

$$$$
lig.pdb
 OpenBabel11021811453D
libRbt.so/2013.1/901 2013/11/27
 37 40  0  0  0  0  0  0  0  0999 V2000
  -15.6935    9.8566   10.4684 C   0  0  2  0  0  0  0  0  0  0  0  0
  -14.1903    9.9506   10.8910 C   0  0  1  0  0  0  0  0  0  0  0  0
  -13.2454    9.0933    9.9988 C   0  0  0  0  0  0  0  0  0  0  0  0
  -13.7889    7.6521    9.8354 C   0  0  1  0  0  0  0  0  0  0  0  0
  -15.2299    7.6930    9.2794 C   0  0  1  0  0  0  0  0  0  0  0  0
  -15.7835    6.2593    9.0612 C   0  0  1  0  0  0  0  0  0  0  0  0
  -14.8139    5.4179    8.1787 C   0  0  1  0  0  0  0  0  0  0  0  0
  -13.3519    5.4608    8.7143 C   0  0  2  0  0  0  0  0  0  0  0  0
  -14.6182    3.2544    7.0408 C   0  0  0  0  0  0  0  0  0  0  0  0
  -16.0880    8.4817   10.1534 O   0  0  0  0  0  0  0  0  0  0  0  0
  -12.9260    6.8287    8.9991 O   0  0  0  0  0  0  0  0  0  0  0  0
  -13.7516   11.3629   10.8648 N   0  0  0  0  0  0  0  0  0  0  0  0
  -15.3262    4.0357    8.0778 N   0  0  0  0  0  0  0  0  0  0  0  0
  -16.0450    5.6125   10.3001 O   0  0  0  0  0  0  0  0  0  0  0  0
  -12.4469    4.8089    7.7760 O   0  0  0  0  0  0  0  0  0  0  0  0
  -15.9816   10.7407    9.3424 O   0  0  0  0  0  0  0  0  0  0  0  0
  -11.5051    5.6370    7.0268 C   0  0  2  0  0  0  0  0  0  0  0  0
  -12.2525    6.5716    6.0336 C   0  0  1  0  0  0  0  0  0  0  0  0
  -12.8687    5.7762    4.8471 C   0  0  2  0  0  0  0  0  0  0  0  0
  -11.7990    4.8838    4.1534 C   0  0  1  0  0  0  0  0  0  0  0  0
  -11.0532    3.9924    5.1852 C   0  0  1  0  0  0  0  0  0  0  0  0
   -9.8927    3.1981    4.5304 C   0  0  0  0  0  0  0  0  0  0  0  0
  -10.5586    4.8027    6.2943 O   0  0  0  0  0  0  0  0  0  0  0  0
  -12.3931    4.0724    3.0684 N   0  0  0  0  0  0  0  0  0  0  0  0
  -13.2356    7.3461    6.7178 O   0  0  0  0  0  0  0  0  0  0  0  0
  -13.4943    6.6507    3.9106 O   0  0  0  0  0  0  0  0  0  0  0  0
   -8.7337    4.0137    4.3937 O   0  0  0  0  0  0  0  0  0  0  0  0
  -16.7288   10.1869    8.2203 C   0  0  1  0  0  0  0  0  0  0  0  0
  -15.8718    9.1967    7.3829 C   0  0  1  0  0  0  0  0  0  0  0  0
  -16.6547    8.6927    6.1378 C   0  0  2  0  0  0  0  0  0  0  0  0
  -18.0447    8.0840    6.5135 C   0  0  1  0  0  0  0  0  0  0  0  0
  -18.8712    9.0003    7.4648 C   0  0  0  0  0  0  0  0  0  0  0  0
  -18.0435    9.4998    8.6872 C   0  0  2  0  0  0  0  0  0  0  0  0
  -18.8185    7.7521    5.2981 N   0  0  0  0  0  0  0  0  0  0  0  0
  -18.8805   10.4009    9.5087 N   0  0  0  0  0  0  0  0  0  0  0  0
  -14.6387    9.7950    6.9969 O   0  0  0  0  0  0  0  0  0  0  0  0
  -15.8763    7.7459    5.4101 O   0  0  0  0  0  0  0  0  0  0  0  0
  1  2  1  0  0  0  0
  1 16  1  6  0  0  0
  2  3  1  0  0  0  0
  2 12  1  6  0  0  0
  4 11  1  6  0  0  0
  4  3  1  0  0  0  0
  5  4  1  0  0  0  0
  5 10  1  1  0  0  0
  6  7  1  0  0  0  0
  6  5  1  0  0  0  0
  6 14  1  1  0  0  0
  7  8  1  0  0  0  0
  7 13  1  1  0  0  0
  8 15  1  6  0  0  0
  8 11  1  0  0  0  0
  9 13  1  0  0  0  0
 10  1  1  0  0  0  0
 17 15  1  6  0  0  0
 17 18  1  0  0  0  0
 18 25  1  1  0  0  0
 19 18  1  0  0  0  0
 19 26  1  6  0  0  0
 20 19  1  0  0  0  0
 20 24  1  6  0  0  0
 21 23  1  0  0  0  0
 21 20  1  0  0  0  0
 21 22  1  6  0  0  0
 23 17  1  0  0  0  0
 27 22  1  0  0  0  0
 28 29  1  0  0  0  0
 28 16  1  1  0  0  0
 29 36  1  6  0  0  0
 30 37  1  1  0  0  0
 30 29  1  0  0  0  0
 31 30  1  0  0  0  0
 31 34  1  6  0  0  0
 32 31  1  0  0  0  0
 32 33  1  0  0  0  0
 33 28  1  0  0  0  0
 33 35  1  6  0  0  0
M  END
>  <CHROM.1>
38.58963007,109.71674968,168.31181201,65.92618641,-66.51577069,132.28975358
151.24517793,61.43466312,81.09045642,-52.89544470,57.90334472,-72.06303403
17.80865976,-43.99881517,-72.20484506,45.20526138,-14.40165855,7.12996272
7.45113350,-2.35054240,0.42017508,-2.10594068

>  <Name>
lig.pdb

>  <RI>
0

>  <Rbt.Current_Directory>
/home/itssahil/PROJECTS/Mol_Feturizer/New_Systems/rnas/2m4q

>  <Rbt.Executable>
rbdock ($Id: //depot/dev/client3/rdock/2013.1/src/exe/rbdock.cxx#4 $)

>  <Rbt.Library>
libRbt.so (2013.1, Build901 2013/11/27)

>  <Rbt.Parameter_File>
/export/apps/rDock/src/rDock_2013.1_src/data/scripts/dock_solv.prm

>  <Rbt.Receptor>
prm/blind_docking_60.prm

>  <SCORE>
16.5837

>  <SCORE.INTER>
5.27799

>  <SCORE.INTER.CONST>
1

>  <SCORE.INTER.POLAR>
-2.60283

>  <SCORE.INTER.ROT>
10

>  <SCORE.INTER.SOLV>
14.1395

>  <SCORE.INTER.VDW>
-2.7851

>  <SCORE.INTER.norm>
0.142648

>  <SCORE.INTRA>
-0.115993

>  <SCORE.INTRA.DIHEDRAL>
-17.3461

>  <SCORE.INTRA.DIHEDRAL.0>
44.8331

>  <SCORE.INTRA.POLAR>
-0.440503

>  <SCORE.INTRA.POLAR.0>
-0.108895

>  <SCORE.INTRA.REPUL>
-0.00912235

>  <SCORE.INTRA.REPUL.0>
0.00912235

>  <SCORE.INTRA.SOLV>
4.44326

>  <SCORE.INTRA.SOLV.lig_0>
-53.9067

>  <SCORE.INTRA.VDW>
7.87874

>  <SCORE.INTRA.VDW.0>
-2.93492

>  <SCORE.INTRA.norm>
-0.00313493

>  <SCORE.RESTR>
11.4217

>  <SCORE.RESTR.CAVITY>
11.4217

>  <SCORE.RESTR.norm>
0.308695

>  <SCORE.SYSTEM>
0

>  <SCORE.SYSTEM.CONST>
0

>  <SCORE.SYSTEM.DIHEDRAL>
0

>  <SCORE.SYSTEM.SOLV>
0

>  <SCORE.SYSTEM.norm>
0

>  <SCORE.heavy>
37

>  <SCORE.norm>
0.448209

>  <RMSD>
16.039

$$$$
lig.pdb
 OpenBabel11021811453D
libRbt.so/2013.1/901 2013/11/27
 37 40  0  0  0  0  0  0  0  0999 V2000
   -8.7157   -6.1732   11.6465 C   0  0  2  0  0  0  0  0  0  0  0  0
   -8.3256   -4.6977   11.3035 C   0  0  1  0  0  0  0  0  0  0  0  0
   -6.9471   -4.2734   11.8897 C   0  0  0  0  0  0  0  0  0  0  0  0
   -6.8409   -4.6452   13.3895 C   0  0  1  0  0  0  0  0  0  0  0  0
   -7.1096   -6.1550   13.5778 C   0  0  1  0  0  0  0  0  0  0  0  0
   -6.9635   -6.5651   15.0678 C   0  0  1  0  0  0  0  0  0  0  0  0
   -5.5834   -6.1169   15.6345 C   0  0  1  0  0  0  0  0  0  0  0  0
   -5.3010   -4.6101   15.3586 C   0  0  2  0  0  0  0  0  0  0  0  0
   -4.1545   -6.3069   17.6184 C   0  0  0  0  0  0  0  0  0  0  0  0
   -8.4170   -6.5078   13.0408 O   0  0  0  0  0  0  0  0  0  0  0  0
   -5.5570   -4.2643   13.9627 O   0  0  0  0  0  0  0  0  0  0  0  0
   -8.3199   -4.5108    9.8363 N   0  0  0  0  0  0  0  0  0  0  0  0
   -5.5242   -6.4364   17.0758 N   0  0  0  0  0  0  0  0  0  0  0  0
   -8.0333   -6.0529   15.8518 O   0  0  0  0  0  0  0  0  0  0  0  0
   -3.9385   -4.2682   15.7475 O   0  0  0  0  0  0  0  0  0  0  0  0
   -8.0604   -7.1159   10.7440 O   0  0  0  0  0  0  0  0  0  0  0  0
   -3.7094   -3.0066   16.4473 C   0  0  2  0  0  0  0  0  0  0  0  0
   -3.2776   -1.8895   15.4553 C   0  0  1  0  0  0  0  0  0  0  0  0
   -1.8395   -2.1265   14.9117 C   0  0  2  0  0  0  0  0  0  0  0  0
   -0.8259   -2.3309   16.0749 C   0  0  1  0  0  0  0  0  0  0  0  0
   -1.3125   -3.4301   17.0600 C   0  0  1  0  0  0  0  0  0  0  0  0
   -0.3829   -3.5507   18.2960 C   0  0  0  0  0  0  0  0  0  0  0  0
   -2.6873   -3.1686   17.4757 O   0  0  0  0  0  0  0  0  0  0  0  0
    0.5309   -2.6257   15.5641 N   0  0  0  0  0  0  0  0  0  0  0  0
   -4.2276   -1.7629   14.3989 O   0  0  0  0  0  0  0  0  0  0  0  0
   -1.4309   -1.0624   14.0550 O   0  0  0  0  0  0  0  0  0  0  0  0
    0.9606   -3.8028   17.8975 O   0  0  0  0  0  0  0  0  0  0  0  0
   -8.9053   -8.0470   10.0072 C   0  0  1  0  0  0  0  0  0  0  0  0
   -8.4380   -8.2159    8.5343 C   0  0  1  0  0  0  0  0  0  0  0  0
   -9.4078   -9.1363    7.7408 C   0  0  2  0  0  0  0  0  0  0  0  0
   -9.6285  -10.5158    8.4423 C   0  0  1  0  0  0  0  0  0  0  0  0
   -9.9671  -10.3791    9.9570 C   0  0  0  0  0  0  0  0  0  0  0  0
   -8.9842   -9.4323   10.7095 C   0  0  2  0  0  0  0  0  0  0  0  0
  -10.6648  -11.3024    7.7397 N   0  0  0  0  0  0  0  0  0  0  0  0
   -9.4036   -9.3160   12.1230 N   0  0  0  0  0  0  0  0  0  0  0  0
   -8.3066   -6.9498    7.8961 O   0  0  0  0  0  0  0  0  0  0  0  0
   -8.9374   -9.3242    6.4085 O   0  0  0  0  0  0  0  0  0  0  0  0
  1  2  1  0  0  0  0
  1 16  1  6  0  0  0
  2  3  1  0  0  0  0
  2 12  1  6  0  0  0
  4 11  1  6  0  0  0
  4  3  1  0  0  0  0
  5  4  1  0  0  0  0
  5 10  1  1  0  0  0
  6  7  1  0  0  0  0
  6  5  1  0  0  0  0
  6 14  1  1  0  0  0
  7  8  1  0  0  0  0
  7 13  1  1  0  0  0
  8 15  1  6  0  0  0
  8 11  1  0  0  0  0
  9 13  1  0  0  0  0
 10  1  1  0  0  0  0
 17 15  1  6  0  0  0
 17 18  1  0  0  0  0
 18 25  1  6  0  0  0
 19 18  1  0  0  0  0
 19 26  1  1  0  0  0
 20 19  1  0  0  0  0
 20 24  1  6  0  0  0
 21 23  1  0  0  0  0
 21 20  1  0  0  0  0
 21 22  1  1  0  0  0
 23 17  1  0  0  0  0
 27 22  1  0  0  0  0
 28 29  1  0  0  0  0
 28 16  1  1  0  0  0
 29 36  1  6  0  0  0
 30 37  1  6  0  0  0
 30 29  1  0  0  0  0
 31 30  1  0  0  0  0
 31 34  1  6  0  0  0
 32 31  1  0  0  0  0
 32 33  1  0  0  0  0
 33 28  1  0  0  0  0
 33 35  1  1  0  0  0
M  END
>  <CHROM.1>
-8.68799721,-138.04942212,167.87354246,69.64362822,-96.08028770,-124.56632221
-48.64885354,174.96562528,-56.37274658,80.17621101,-175.97048548,138.68447326
-71.89921797,-169.60808842,104.34658709,73.48739881,-5.87937393,-5.65916770
13.20837184,-2.67925446,0.79704650,1.87576717

>  <Name>
lig.pdb

>  <RI>
0

>  <Rbt.Current_Directory>
/home/afrankz/demos/rdock_decoys_rna/rnas/2m4q

>  <Rbt.Executable>
rbdock ($Id: //depot/dev/client3/rdock/2013.1/src/exe/rbdock.cxx#4 $)

>  <Rbt.Library>
libRbt.so (2013.1, Build901 2013/11/27)

>  <Rbt.Parameter_File>
/export/apps/rDock/src/rDock_2013.1_src/data/scripts/dock_solv.prm

>  <Rbt.Receptor>
prm/blind_docking_40.prm

>  <SCORE>
-13.4162

>  <SCORE.INTER>
-13.2874

>  <SCORE.INTER.CONST>
1

>  <SCORE.INTER.POLAR>
-2.21893

>  <SCORE.INTER.ROT>
10

>  <SCORE.INTER.SOLV>
21.9915

>  <SCORE.INTER.VDW>
-19.059

>  <SCORE.INTER.norm>
-0.359119

>  <SCORE.INTRA>
-15.3629

>  <SCORE.INTRA.DIHEDRAL>
-13.5224

>  <SCORE.INTRA.DIHEDRAL.0>
44.8331

>  <SCORE.INTRA.POLAR>
-3.20893

>  <SCORE.INTRA.POLAR.0>
-0.108895

>  <SCORE.INTRA.REPUL>
-0.00912235

>  <SCORE.INTRA.REPUL.0>
0.00912235

>  <SCORE.INTRA.SOLV>
0.461812

>  <SCORE.INTRA.SOLV.lig_0>
-53.9067

>  <SCORE.INTRA.VDW>
2.12336

>  <SCORE.INTRA.VDW.0>
-2.93492

>  <SCORE.INTRA.norm>
-0.415214

>  <SCORE.RESTR>
15.2341

>  <SCORE.RESTR.CAVITY>
15.2341

>  <SCORE.RESTR.norm>
0.411734

>  <SCORE.SYSTEM>
0

>  <SCORE.SYSTEM.CONST>
0

>  <SCORE.SYSTEM.DIHEDRAL>
0

>  <SCORE.SYSTEM.SOLV>
0

>  <SCORE.SYSTEM.norm>
0

>  <SCORE.heavy>
37

>  <SCORE.norm>
-0.362599

>  <RMSD>
16.040

$$$$
lig.pdb
 OpenBabel11021811453D
libRbt.so/2013.1/901 2013/11/27
 37 40  0  0  0  0  0  0  0  0999 V2000
  -14.6044    8.0755    9.8246 C   0  0  2  0  0  0  0  0  0  0  0  0
  -13.7495    8.6405    8.6427 C   0  0  1  0  0  0  0  0  0  0  0  0
  -13.9199    7.8364    7.3205 C   0  0  0  0  0  0  0  0  0  0  0  0
  -13.7657    6.3155    7.5692 C   0  0  1  0  0  0  0  0  0  0  0  0
  -14.7616    5.8566    8.6577 C   0  0  1  0  0  0  0  0  0  0  0  0
  -14.6614    4.3257    8.8945 C   0  0  1  0  0  0  0  0  0  0  0  0
  -14.8202    3.5451    7.5558 C   0  0  1  0  0  0  0  0  0  0  0  0
  -13.8631    4.0820    6.4504 C   0  0  2  0  0  0  0  0  0  0  0  0
  -15.7580    1.5035    8.5388 C   0  0  0  0  0  0  0  0  0  0  0  0
  -14.5542    6.6130    9.8854 O   0  0  0  0  0  0  0  0  0  0  0  0
  -13.9266    5.5377    6.3480 O   0  0  0  0  0  0  0  0  0  0  0  0
  -14.0962   10.0592    8.4091 N   0  0  0  0  0  0  0  0  0  0  0  0
  -14.6203    2.1032    7.8087 N   0  0  0  0  0  0  0  0  0  0  0  0
  -13.4472    3.9828    9.5500 O   0  0  0  0  0  0  0  0  0  0  0  0
  -14.1567    3.4479    5.1712 O   0  0  0  0  0  0  0  0  0  0  0  0
  -15.9879    8.5356    9.7425 O   0  0  0  0  0  0  0  0  0  0  0  0
  -13.1347    3.4775    4.1279 C   0  0  2  0  0  0  0  0  0  0  0  0
  -11.7276    3.1754    4.7175 C   0  0  1  0  0  0  0  0  0  0  0  0
  -11.2073    4.3490    5.5960 C   0  0  2  0  0  0  0  0  0  0  0  0
  -11.2648    5.6981    4.8224 C   0  0  1  0  0  0  0  0  0  0  0  0
  -12.6768    5.9437    4.2213 C   0  0  1  0  0  0  0  0  0  0  0  0
  -12.7137    7.2155    3.3339 C   0  0  0  0  0  0  0  0  0  0  0  0
  -13.1174    4.7762    3.4635 O   0  0  0  0  0  0  0  0  0  0  0  0
  -10.8367    6.8288    5.6750 N   0  0  0  0  0  0  0  0  0  0  0  0
  -11.7393    1.9428    5.4352 O   0  0  0  0  0  0  0  0  0  0  0  0
   -9.8905    4.0878    6.0768 O   0  0  0  0  0  0  0  0  0  0  0  0
  -11.9052    7.0481    2.1738 O   0  0  0  0  0  0  0  0  0  0  0  0
  -16.4528    9.4689   10.7607 C   0  0  1  0  0  0  0  0  0  0  0  0
  -15.9058    9.1111   12.1710 C   0  0  1  0  0  0  0  0  0  0  0  0
  -16.4901   10.0593   13.2557 C   0  0  2  0  0  0  0  0  0  0  0  0
  -16.2673   11.5679   12.9117 C   0  0  1  0  0  0  0  0  0  0  0  0
  -16.6837   11.9256   11.4534 C   0  0  0  0  0  0  0  0  0  0  0  0
  -16.0944   10.9388   10.4009 C   0  0  2  0  0  0  0  0  0  0  0  0
  -16.9615   12.4368   13.8859 N   0  0  0  0  0  0  0  0  0  0  0  0
  -16.5768   11.3152    9.0544 N   0  0  0  0  0  0  0  0  0  0  0  0
  -16.1775    7.7501   12.4894 O   0  0  0  0  0  0  0  0  0  0  0  0
  -15.9387    9.7530   14.5339 O   0  0  0  0  0  0  0  0  0  0  0  0
  1  2  1  0  0  0  0
  1 16  1  6  0  0  0
  2  3  1  0  0  0  0
  2 12  1  6  0  0  0
  4 11  1  6  0  0  0
  4  3  1  0  0  0  0
  5  4  1  0  0  0  0
  5 10  1  1  0  0  0
  6  7  1  0  0  0  0
  6  5  1  0  0  0  0
  6 14  1  6  0  0  0
  7  8  1  0  0  0  0
  7 13  1  1  0  0  0
  8 15  1  6  0  0  0
  8 11  1  0  0  0  0
  9 13  1  0  0  0  0
 10  1  1  0  0  0  0
 17 15  1  1  0  0  0
 17 18  1  0  0  0  0
 18 25  1  1  0  0  0
 19 18  1  0  0  0  0
 19 26  1  6  0  0  0
 20 19  1  0  0  0  0
 20 24  1  1  0  0  0
 21 23  1  0  0  0  0
 21 20  1  0  0  0  0
 21 22  1  6  0  0  0
 23 17  1  0  0  0  0
 27 22  1  0  0  0  0
 28 29  1  0  0  0  0
 28 16  1  6  0  0  0
 29 36  1  1  0  0  0
 30 37  1  1  0  0  0
 30 29  1  0  0  0  0
 31 30  1  0  0  0  0
 31 34  1  1  0  0  0
 32 31  1  0  0  0  0
 32 33  1  0  0  0  0
 33 28  1  0  0  0  0
 33 35  1  6  0  0  0
M  END
>  <CHROM.1>
-40.50789819,-160.67939691,72.30134513,-46.38790734,42.87040143,-111.52313725
134.62367561,-171.95880098,66.05198322,52.76154944,172.32801641,-39.80610919
-50.28112615,178.79500894,-58.49282042,161.66749225,-14.15668612,6.72841056
8.12666116,-2.56970776,-1.10847259,3.04555104

>  <Name>
lig.pdb

>  <RI>
0

>  <Rbt.Current_Directory>
/home/itssahil/PROJECTS/Mol_Feturizer/New_Systems/rnas/2m4q

>  <Rbt.Executable>
rbdock ($Id: //depot/dev/client3/rdock/2013.1/src/exe/rbdock.cxx#4 $)

>  <Rbt.Library>
libRbt.so (2013.1, Build901 2013/11/27)

>  <Rbt.Parameter_File>
/export/apps/rDock/src/rDock_2013.1_src/data/scripts/dock_solv.prm

>  <Rbt.Receptor>
prm/blind_docking_60.prm

>  <SCORE>
-13.7831

>  <SCORE.INTER>
-17.883

>  <SCORE.INTER.CONST>
1

>  <SCORE.INTER.POLAR>
-5.03176

>  <SCORE.INTER.ROT>
10

>  <SCORE.INTER.SOLV>
20.4053

>  <SCORE.INTER.VDW>
-12.2179

>  <SCORE.INTER.norm>
-0.483325

>  <SCORE.INTRA>
-9.37983

>  <SCORE.INTRA.DIHEDRAL>
-22.9641

>  <SCORE.INTRA.DIHEDRAL.0>
44.8331

>  <SCORE.INTRA.POLAR>
-0.905387

>  <SCORE.INTRA.POLAR.0>
-0.108895

>  <SCORE.INTRA.REPUL>
0.0168811

>  <SCORE.INTRA.REPUL.0>
0.00912235

>  <SCORE.INTRA.SOLV>
1.2563

>  <SCORE.INTRA.SOLV.lig_0>
-53.9067

>  <SCORE.INTRA.VDW>
4.46798

>  <SCORE.INTRA.VDW.0>
-2.93492

>  <SCORE.INTRA.norm>
-0.253509

>  <SCORE.RESTR>
13.4798

>  <SCORE.RESTR.CAVITY>
13.4798

>  <SCORE.RESTR.norm>
0.364318

>  <SCORE.SYSTEM>
0

>  <SCORE.SYSTEM.CONST>
0

>  <SCORE.SYSTEM.DIHEDRAL>
0

>  <SCORE.SYSTEM.SOLV>
0

>  <SCORE.SYSTEM.norm>
0

>  <SCORE.heavy>
37

>  <SCORE.norm>
-0.372516

>  <RMSD>
16.053

$$$$
lig.pdb
 OpenBabel11021811453D
libRbt.so/2013.1/901 2013/11/27
 37 40  0  0  0  0  0  0  0  0999 V2000
   -4.5275   -3.1078   15.5047 C   0  0  2  0  0  0  0  0  0  0  0  0
   -5.2622   -4.4279   15.9105 C   0  0  1  0  0  0  0  0  0  0  0  0
   -5.8272   -5.2169   14.6932 C   0  0  0  0  0  0  0  0  0  0  0  0
   -6.6293   -4.2868   13.7496 C   0  0  1  0  0  0  0  0  0  0  0  0
   -5.7474   -3.0970   13.3090 C   0  0  1  0  0  0  0  0  0  0  0  0
   -6.5117   -2.1720   12.3241 C   0  0  1  0  0  0  0  0  0  0  0  0
   -7.0792   -2.9868   11.1238 C   0  0  1  0  0  0  0  0  0  0  0  0
   -7.8949   -4.2275   11.5945 C   0  0  2  0  0  0  0  0  0  0  0  0
   -9.1935   -1.7713   10.8666 C   0  0  0  0  0  0  0  0  0  0  0  0
   -5.2595   -2.3696   14.4730 O   0  0  0  0  0  0  0  0  0  0  0  0
   -7.1650   -4.9990   12.5974 O   0  0  0  0  0  0  0  0  0  0  0  0
   -4.3435   -5.2942   16.6806 N   0  0  0  0  0  0  0  0  0  0  0  0
   -7.8807   -2.0906   10.2651 N   0  0  0  0  0  0  0  0  0  0  0  0
   -7.5401   -1.4484   12.9878 O   0  0  0  0  0  0  0  0  0  0  0  0
   -8.2638   -5.0566   10.4539 O   0  0  0  0  0  0  0  0  0  0  0  0
   -3.1609   -3.3776   15.0664 O   0  0  0  0  0  0  0  0  0  0  0  0
   -9.3578   -6.0117   10.6115 C   0  0  2  0  0  0  0  0  0  0  0  0
   -9.2696   -7.1409    9.5458 C   0  0  1  0  0  0  0  0  0  0  0  0
   -9.6123   -6.6169    8.1218 C   0  0  2  0  0  0  0  0  0  0  0  0
  -10.9810   -5.8763    8.1101 C   0  0  1  0  0  0  0  0  0  0  0  0
  -11.0390   -4.7813    9.2115 C   0  0  1  0  0  0  0  0  0  0  0  0
  -12.4428   -4.1275    9.3028 C   0  0  0  0  0  0  0  0  0  0  0  0
  -10.6470   -5.3374   10.5032 O   0  0  0  0  0  0  0  0  0  0  0  0
  -11.2807   -5.3152    6.7745 N   0  0  0  0  0  0  0  0  0  0  0  0
   -7.9886   -7.7672    9.5843 O   0  0  0  0  0  0  0  0  0  0  0  0
   -9.5917   -7.6741    7.1652 O   0  0  0  0  0  0  0  0  0  0  0  0
  -12.4296   -3.0210   10.1987 O   0  0  0  0  0  0  0  0  0  0  0  0
   -2.0818   -2.6587   15.7318 C   0  0  1  0  0  0  0  0  0  0  0  0
   -1.2051   -3.6016   16.6027 C   0  0  1  0  0  0  0  0  0  0  0  0
   -0.1215   -2.8011   17.3787 C   0  0  2  0  0  0  0  0  0  0  0  0
    0.7471   -1.9056   16.4366 C   0  0  1  0  0  0  0  0  0  0  0  0
   -0.1081   -1.0470   15.4573 C   0  0  0  0  0  0  0  0  0  0  0  0
   -1.1947   -1.8834   14.7167 C   0  0  2  0  0  0  0  0  0  0  0  0
    1.6643   -1.0523   17.2220 N   0  0  0  0  0  0  0  0  0  0  0  0
   -1.9929   -0.9895   13.8500 N   0  0  0  0  0  0  0  0  0  0  0  0
   -2.0118   -4.3599   17.4982 O   0  0  0  0  0  0  0  0  0  0  0  0
    0.7072   -3.6844   18.1301 O   0  0  0  0  0  0  0  0  0  0  0  0
  1  2  1  0  0  0  0
  1 16  1  6  0  0  0
  2  3  1  0  0  0  0
  2 12  1  6  0  0  0
  4 11  1  6  0  0  0
  4  3  1  0  0  0  0
  5  4  1  0  0  0  0
  5 10  1  1  0  0  0
  6  7  1  0  0  0  0
  6  5  1  0  0  0  0
  6 14  1  1  0  0  0
  7  8  1  0  0  0  0
  7 13  1  1  0  0  0
  8 15  1  6  0  0  0
  8 11  1  0  0  0  0
  9 13  1  0  0  0  0
 10  1  1  0  0  0  0
 17 15  1  6  0  0  0
 17 18  1  0  0  0  0
 18 25  1  6  0  0  0
 19 18  1  0  0  0  0
 19 26  1  6  0  0  0
 20 19  1  0  0  0  0
 20 24  1  6  0  0  0
 21 23  1  0  0  0  0
 21 20  1  0  0  0  0
 21 22  1  1  0  0  0
 23 17  1  0  0  0  0
 27 22  1  0  0  0  0
 28 29  1  0  0  0  0
 28 16  1  6  0  0  0
 29 36  1  1  0  0  0
 30 37  1  6  0  0  0
 30 29  1  0  0  0  0
 31 30  1  0  0  0  0
 31 34  1  1  0  0  0
 32 31  1  0  0  0  0
 32 33  1  0  0  0  0
 33 28  1  0  0  0  0
 33 35  1  1  0  0  0
M  END
>  <CHROM.1>
-95.88957769,-161.06793194,-75.00948920,-59.11426120,-158.60280251,-125.34133010
-174.51759447,-66.63302962,-172.85830098,-48.33198925,65.31397660,111.26685249
65.83903765,89.66872063,-66.05349738,-149.56467801,-6.02840989,-3.89206000
12.78654606,0.25122782,-0.65808523,0.05129292

>  <Name>
lig.pdb

>  <RI>
0

>  <Rbt.Current_Directory>
/home/afrankz/demos/rdock_decoys_rna/rnas/2m4q

>  <Rbt.Executable>
rbdock ($Id: //depot/dev/client3/rdock/2013.1/src/exe/rbdock.cxx#4 $)

>  <Rbt.Library>
libRbt.so (2013.1, Build901 2013/11/27)

>  <Rbt.Parameter_File>
/export/apps/rDock/src/rDock_2013.1_src/data/scripts/dock_solv.prm

>  <Rbt.Receptor>
prm/blind_docking_40.prm

>  <SCORE>
-27.0169

>  <SCORE.INTER>
-30.3315

>  <SCORE.INTER.CONST>
1

>  <SCORE.INTER.POLAR>
-5.72134

>  <SCORE.INTER.ROT>
10

>  <SCORE.INTER.SOLV>
25.6529

>  <SCORE.INTER.VDW>
-19.9675

>  <SCORE.INTER.norm>
-0.819771

>  <SCORE.INTRA>
-8.1736

>  <SCORE.INTRA.DIHEDRAL>
-19.3481

>  <SCORE.INTRA.DIHEDRAL.0>
44.8331

>  <SCORE.INTRA.POLAR>
-0.644835

>  <SCORE.INTRA.POLAR.0>
-0.108895

>  <SCORE.INTRA.REPUL>
0.00257191

>  <SCORE.INTRA.REPUL.0>
0.00912235

>  <SCORE.INTRA.SOLV>
-1.09522

>  <SCORE.INTRA.SOLV.lig_0>
-53.9067

>  <SCORE.INTRA.VDW>
4.22765

>  <SCORE.INTRA.VDW.0>
-2.93492

>  <SCORE.INTRA.norm>
-0.220908

>  <SCORE.RESTR>
11.4882

>  <SCORE.RESTR.CAVITY>
11.4882

>  <SCORE.RESTR.norm>
0.310493

>  <SCORE.SYSTEM>
0

>  <SCORE.SYSTEM.CONST>
0

>  <SCORE.SYSTEM.DIHEDRAL>
0

>  <SCORE.SYSTEM.SOLV>
0

>  <SCORE.SYSTEM.norm>
0

>  <SCORE.heavy>
37

>  <SCORE.norm>
-0.730186

>  <RMSD>
16.079

$$$$
lig.pdb
 OpenBabel11021811453D
libRbt.so/2013.1/901 2013/11/27
 37 40  0  0  0  0  0  0  0  0999 V2000
  -15.5716    9.8092   10.7503 C   0  0  2  0  0  0  0  0  0  0  0  0
  -14.0262   10.0192   10.8722 C   0  0  1  0  0  0  0  0  0  0  0  0
  -13.2094    9.1950    9.8343 C   0  0  0  0  0  0  0  0  0  0  0  0
  -13.6676    7.7157    9.8123 C   0  0  1  0  0  0  0  0  0  0  0  0
  -15.1874    7.6394    9.5445 C   0  0  1  0  0  0  0  0  0  0  0  0
  -15.6665    6.1648    9.4705 C   0  0  1  0  0  0  0  0  0  0  0  0
  -14.8249    5.3585    8.4370 C   0  0  1  0  0  0  0  0  0  0  0  0
  -13.2945    5.5189    8.6789 C   0  0  2  0  0  0  0  0  0  0  0  0
  -14.8551    3.2186    7.2396 C   0  0  0  0  0  0  0  0  0  0  0  0
  -15.9177    8.4003   10.5494 O   0  0  0  0  0  0  0  0  0  0  0  0
  -12.9228    6.9218    8.8442 O   0  0  0  0  0  0  0  0  0  0  0  0
  -13.7047   11.4558   10.7291 N   0  0  0  0  0  0  0  0  0  0  0  0
  -15.2449    3.9423    8.4690 N   0  0  0  0  0  0  0  0  0  0  0  0
  -15.6386    5.5478   10.7512 O   0  0  0  0  0  0  0  0  0  0  0  0
  -12.5405    4.8952    7.5986 O   0  0  0  0  0  0  0  0  0  0  0  0
  -16.1332   10.6301    9.6811 O   0  0  0  0  0  0  0  0  0  0  0  0
  -11.5296    5.6897    6.9053 C   0  0  2  0  0  0  0  0  0  0  0  0
  -12.1832    6.6200    5.8441 C   0  0  1  0  0  0  0  0  0  0  0  0
  -12.7289    5.8145    4.6303 C   0  0  2  0  0  0  0  0  0  0  0  0
  -11.6312    4.8878    4.0318 C   0  0  1  0  0  0  0  0  0  0  0  0
  -10.9810    4.0015    5.1306 C   0  0  1  0  0  0  0  0  0  0  0  0
   -9.7935    3.1718    4.5759 C   0  0  0  0  0  0  0  0  0  0  0  0
  -10.5507    4.8228    6.2583 O   0  0  0  0  0  0  0  0  0  0  0  0
  -12.1625    4.0679    2.9210 N   0  0  0  0  0  0  0  0  0  0  0  0
  -13.1965    7.4270    6.4414 O   0  0  0  0  0  0  0  0  0  0  0  0
  -13.2665    6.6833    3.6355 O   0  0  0  0  0  0  0  0  0  0  0  0
   -8.6445    3.9920    4.3907 O   0  0  0  0  0  0  0  0  0  0  0  0
  -17.0876   10.0028    8.7758 C   0  0  1  0  0  0  0  0  0  0  0  0
  -16.3790    9.2126    7.6402 C   0  0  1  0  0  0  0  0  0  0  0  0
  -17.4114    8.6332    6.6323 C   0  0  2  0  0  0  0  0  0  0  0  0
  -18.5150    7.7773    7.3348 C   0  0  1  0  0  0  0  0  0  0  0  0
  -19.1494    8.4954    8.5634 C   0  0  0  0  0  0  0  0  0  0  0  0
  -18.0809    9.0790    9.5363 C   0  0  2  0  0  0  0  0  0  0  0  0
  -19.5563    7.3676    6.3684 N   0  0  0  0  0  0  0  0  0  0  0  0
  -18.7616    9.7858   10.6428 N   0  0  0  0  0  0  0  0  0  0  0  0
  -15.4248   10.0315    6.9721 O   0  0  0  0  0  0  0  0  0  0  0  0
  -16.7508    7.8674    5.6279 O   0  0  0  0  0  0  0  0  0  0  0  0
  1  2  1  0  0  0  0
  1 16  1  6  0  0  0
  2  3  1  0  0  0  0
  2 12  1  6  0  0  0
  4 11  1  6  0  0  0
  4  3  1  0  0  0  0
  5  4  1  0  0  0  0
  5 10  1  1  0  0  0
  6  7  1  0  0  0  0
  6  5  1  0  0  0  0
  6 14  1  1  0  0  0
  7  8  1  0  0  0  0
  7 13  1  1  0  0  0
  8 15  1  6  0  0  0
  8 11  1  0  0  0  0
  9 13  1  0  0  0  0
 10  1  1  0  0  0  0
 17 15  1  6  0  0  0
 17 18  1  0  0  0  0
 18 25  1  1  0  0  0
 19 18  1  0  0  0  0
 19 26  1  6  0  0  0
 20 19  1  0  0  0  0
 20 24  1  6  0  0  0
 21 23  1  0  0  0  0
 21 20  1  0  0  0  0
 21 22  1  6  0  0  0
 23 17  1  0  0  0  0
 27 22  1  0  0  0  0
 28 29  1  0  0  0  0
 28 16  1  1  0  0  0
 29 36  1  6  0  0  0
 30 37  1  6  0  0  0
 30 29  1  0  0  0  0
 31 30  1  0  0  0  0
 31 34  1  6  0  0  0
 32 31  1  0  0  0  0
 32 33  1  0  0  0  0
 33 28  1  0  0  0  0
 33 35  1  1  0  0  0
M  END
>  <CHROM.1>
-13.65834553,127.00461519,160.25856202,-58.03561651,-80.27517420,135.13087256
-69.80921266,60.44877391,75.60855714,173.35123843,-179.94686490,-83.00078706
44.78390173,-51.97774162,176.03409532,-57.56239467,-14.46812348,7.06599867
7.64538931,-2.32110874,0.24864981,-2.16752830

>  <Name>
lig.pdb

>  <RI>
0

>  <Rbt.Current_Directory>
/home/itssahil/PROJECTS/Mol_Feturizer/New_Systems/rnas/2m4q

>  <Rbt.Executable>
rbdock ($Id: //depot/dev/client3/rdock/2013.1/src/exe/rbdock.cxx#4 $)

>  <Rbt.Library>
libRbt.so (2013.1, Build901 2013/11/27)

>  <Rbt.Parameter_File>
/export/apps/rDock/src/rDock_2013.1_src/data/scripts/dock_solv.prm

>  <Rbt.Receptor>
prm/blind_docking_60.prm

>  <SCORE>
10.0383

>  <SCORE.INTER>
2.37472

>  <SCORE.INTER.CONST>
1

>  <SCORE.INTER.POLAR>
-0.590183

>  <SCORE.INTER.ROT>
10

>  <SCORE.INTER.SOLV>
14.7068

>  <SCORE.INTER.VDW>
-11.6185

>  <SCORE.INTER.norm>
0.0641816

>  <SCORE.INTRA>
-5.85646

>  <SCORE.INTRA.DIHEDRAL>
-21.6844

>  <SCORE.INTRA.DIHEDRAL.0>
44.8331

>  <SCORE.INTRA.POLAR>
-0.206887

>  <SCORE.INTRA.POLAR.0>
-0.108895

>  <SCORE.INTRA.REPUL>
-0.00912235

>  <SCORE.INTRA.REPUL.0>
0.00912235

>  <SCORE.INTRA.SOLV>
1.5719

>  <SCORE.INTRA.SOLV.lig_0>
-53.9067

>  <SCORE.INTRA.VDW>
4.94883

>  <SCORE.INTRA.VDW.0>
-2.93492

>  <SCORE.INTRA.norm>
-0.158283

>  <SCORE.RESTR>
13.5201

>  <SCORE.RESTR.CAVITY>
13.5201

>  <SCORE.RESTR.norm>
0.365407

>  <SCORE.SYSTEM>
0

>  <SCORE.SYSTEM.CONST>
0

>  <SCORE.SYSTEM.DIHEDRAL>
0

>  <SCORE.SYSTEM.SOLV>
0

>  <SCORE.SYSTEM.norm>
0

>  <SCORE.heavy>
37

>  <SCORE.norm>
0.271306

>  <RMSD>
16.121

$$$$
lig.pdb
 OpenBabel11021811453D
libRbt.so/2013.1/901 2013/11/27
 37 40  0  0  0  0  0  0  0  0999 V2000
  -16.8150    9.8864    9.4003 C   0  0  2  0  0  0  0  0  0  0  0  0
  -16.7853    8.5640   10.2355 C   0  0  1  0  0  0  0  0  0  0  0  0
  -15.8204    7.4899    9.6533 C   0  0  0  0  0  0  0  0  0  0  0  0
  -16.0518    7.2976    8.1340 C   0  0  1  0  0  0  0  0  0  0  0  0
  -15.9159    8.6532    7.4052 C   0  0  1  0  0  0  0  0  0  0  0  0
  -16.0970    8.4824    5.8730 C   0  0  1  0  0  0  0  0  0  0  0  0
  -15.1319    7.3930    5.3176 C   0  0  1  0  0  0  0  0  0  0  0  0
  -15.2290    6.0627    6.1221 C   0  0  2  0  0  0  0  0  0  0  0  0
  -14.1839    6.8265    3.1280 C   0  0  0  0  0  0  0  0  0  0  0  0
  -16.8510    9.6227    7.9601 O   0  0  0  0  0  0  0  0  0  0  0  0
  -15.1568    6.3010    7.5614 O   0  0  0  0  0  0  0  0  0  0  0  0
  -16.4079    8.8648   11.6336 N   0  0  0  0  0  0  0  0  0  0  0  0
  -15.4043    7.1914    3.8795 N   0  0  0  0  0  0  0  0  0  0  0  0
  -17.4486    8.1904    5.5420 O   0  0  0  0  0  0  0  0  0  0  0  0
  -14.1975    5.1289    5.6876 O   0  0  0  0  0  0  0  0  0  0  0  0
  -15.6830   10.7467    9.7334 O   0  0  0  0  0  0  0  0  0  0  0  0
  -13.1314    4.7829    6.6245 C   0  0  2  0  0  0  0  0  0  0  0  0
  -12.1274    5.9596    6.7854 C   0  0  1  0  0  0  0  0  0  0  0  0
  -11.2659    6.1605    5.5057 C   0  0  2  0  0  0  0  0  0  0  0  0
  -10.5801    4.8313    5.0758 C   0  0  1  0  0  0  0  0  0  0  0  0
  -11.6128    3.6755    4.9609 C   0  0  1  0  0  0  0  0  0  0  0  0
  -10.9273    2.3154    4.6667 C   0  0  0  0  0  0  0  0  0  0  0  0
  -12.4198    3.5915    6.1746 O   0  0  0  0  0  0  0  0  0  0  0  0
   -9.8152    4.9989    3.8207 N   0  0  0  0  0  0  0  0  0  0  0  0
  -12.8118    7.1553    7.1548 O   0  0  0  0  0  0  0  0  0  0  0  0
  -10.3056    7.1985    5.6891 O   0  0  0  0  0  0  0  0  0  0  0  0
  -11.8529    1.2417    4.7997 O   0  0  0  0  0  0  0  0  0  0  0  0
  -15.6210   11.2920   11.0835 C   0  0  1  0  0  0  0  0  0  0  0  0
  -14.1640   11.6273   11.5091 C   0  0  1  0  0  0  0  0  0  0  0  0
  -14.1095   12.1157   12.9841 C   0  0  2  0  0  0  0  0  0  0  0  0
  -15.0828   13.3090   13.2535 C   0  0  1  0  0  0  0  0  0  0  0  0
  -16.5219   13.0520   12.7142 C   0  0  0  0  0  0  0  0  0  0  0  0
  -16.5298   12.5441   11.2409 C   0  0  2  0  0  0  0  0  0  0  0  0
  -15.1121   13.6483   14.6922 N   0  0  0  0  0  0  0  0  0  0  0  0
  -17.9233   12.2757   10.8241 N   0  0  0  0  0  0  0  0  0  0  0  0
  -13.3089   10.5053   11.3159 O   0  0  0  0  0  0  0  0  0  0  0  0
  -12.7760   12.4695   13.3423 O   0  0  0  0  0  0  0  0  0  0  0  0
  1  2  1  0  0  0  0
  1 16  1  6  0  0  0
  2  3  1  0  0  0  0
  2 12  1  1  0  0  0
  4 11  1  6  0  0  0
  4  3  1  0  0  0  0
  5  4  1  0  0  0  0
  5 10  1  1  0  0  0
  6  7  1  0  0  0  0
  6  5  1  0  0  0  0
  6 14  1  1  0  0  0
  7  8  1  0  0  0  0
  7 13  1  6  0  0  0
  8 15  1  6  0  0  0
  8 11  1  0  0  0  0
  9 13  1  0  0  0  0
 10  1  1  0  0  0  0
 17 15  1  6  0  0  0
 17 18  1  0  0  0  0
 18 25  1  6  0  0  0
 19 18  1  0  0  0  0
 19 26  1  1  0  0  0
 20 19  1  0  0  0  0
 20 24  1  6  0  0  0
 21 23  1  0  0  0  0
 21 20  1  0  0  0  0
 21 22  1  1  0  0  0
 23 17  1  0  0  0  0
 27 22  1  0  0  0  0
 28 29  1  0  0  0  0
 28 16  1  6  0  0  0
 29 36  1  1  0  0  0
 30 37  1  6  0  0  0
 30 29  1  0  0  0  0
 31 30  1  0  0  0  0
 31 34  1  1  0  0  0
 32 31  1  0  0  0  0
 32 33  1  0  0  0  0
 33 28  1  0  0  0  0
 33 35  1  1  0  0  0
M  END
>  <CHROM.1>
-100.31558062,112.97371114,147.91085976,61.30156125,-73.74976086,-65.13961560
44.39297323,-153.61329268,169.68569825,-81.28601029,62.90323895,154.67249639
66.81857390,56.92250530,-64.32318562,-69.00156227,-14.33392334,8.13364674
8.13284856,1.89588036,-0.31604572,0.87065938

>  <Name>
lig.pdb

>  <RI>
0

>  <Rbt.Current_Directory>
/home/itssahil/PROJECTS/Mol_Feturizer/New_Systems/rnas/2m4q

>  <Rbt.Executable>
rbdock ($Id: //depot/dev/client3/rdock/2013.1/src/exe/rbdock.cxx#4 $)

>  <Rbt.Library>
libRbt.so (2013.1, Build901 2013/11/27)

>  <Rbt.Parameter_File>
/export/apps/rDock/src/rDock_2013.1_src/data/scripts/dock_solv.prm

>  <Rbt.Receptor>
prm/blind_docking_60.prm

>  <SCORE>
-15.5312

>  <SCORE.INTER>
-16.7519

>  <SCORE.INTER.CONST>
1

>  <SCORE.INTER.POLAR>
-4.58117

>  <SCORE.INTER.ROT>
10

>  <SCORE.INTER.SOLV>
20.1334

>  <SCORE.INTER.VDW>
-12.8751

>  <SCORE.INTER.norm>
-0.452753

>  <SCORE.INTRA>
-12.8585

>  <SCORE.INTRA.DIHEDRAL>
-25.1734

>  <SCORE.INTRA.DIHEDRAL.0>
44.8331

>  <SCORE.INTRA.POLAR>
-0.412757

>  <SCORE.INTRA.POLAR.0>
-0.108895

>  <SCORE.INTRA.REPUL>
-0.00912235

>  <SCORE.INTRA.REPUL.0>
0.00912235

>  <SCORE.INTRA.SOLV>
0.263371

>  <SCORE.INTRA.SOLV.lig_0>
-53.9067

>  <SCORE.INTRA.VDW>
1.04557

>  <SCORE.INTRA.VDW.0>
-2.93492

>  <SCORE.INTRA.norm>
-0.347526

>  <SCORE.RESTR>
14.0792

>  <SCORE.RESTR.CAVITY>
14.0792

>  <SCORE.RESTR.norm>
0.380518

>  <SCORE.SYSTEM>
0

>  <SCORE.SYSTEM.CONST>
0

>  <SCORE.SYSTEM.DIHEDRAL>
0

>  <SCORE.SYSTEM.SOLV>
0

>  <SCORE.SYSTEM.norm>
0

>  <SCORE.heavy>
37

>  <SCORE.norm>
-0.419761

>  <RMSD>
16.150

$$$$
lig.pdb
 OpenBabel11021811453D
libRbt.so/2013.1/901 2013/11/27
 37 40  0  0  0  0  0  0  0  0999 V2000
   -9.1032   -6.6630   10.3543 C   0  0  2  0  0  0  0  0  0  0  0  0
   -9.0320   -5.2670    9.6519 C   0  0  1  0  0  0  0  0  0  0  0  0
   -7.7787   -4.4373   10.0573 C   0  0  0  0  0  0  0  0  0  0  0  0
   -7.6064   -4.4035   11.5962 C   0  0  1  0  0  0  0  0  0  0  0  0
   -7.5506   -5.8444   12.1512 C   0  0  1  0  0  0  0  0  0  0  0  0
   -7.3311   -5.8410   13.6879 C   0  0  1  0  0  0  0  0  0  0  0  0
   -6.0811   -4.9929   14.0686 C   0  0  1  0  0  0  0  0  0  0  0  0
   -6.1224   -3.5734   13.4287 C   0  0  2  0  0  0  0  0  0  0  0  0
   -5.5293   -6.2239   16.1166 C   0  0  0  0  0  0  0  0  0  0  0  0
   -8.7500   -6.5797   11.7732 O   0  0  0  0  0  0  0  0  0  0  0  0
   -6.4362   -3.6375   12.0035 O   0  0  0  0  0  0  0  0  0  0  0  0
   -9.0560   -5.4449    8.1837 N   0  0  0  0  0  0  0  0  0  0  0  0
   -5.9655   -4.9336   15.5404 N   0  0  0  0  0  0  0  0  0  0  0  0
   -8.4905   -5.3867   14.3742 O   0  0  0  0  0  0  0  0  0  0  0  0
   -4.8659   -2.8729   13.6632 O   0  0  0  0  0  0  0  0  0  0  0  0
   -8.2570   -7.6398    9.6743 O   0  0  0  0  0  0  0  0  0  0  0  0
   -4.7223   -2.0907   14.8885 C   0  0  2  0  0  0  0  0  0  0  0  0
   -3.8726   -0.8125   14.6374 C   0  0  1  0  0  0  0  0  0  0  0  0
   -2.3747   -1.1553   14.3951 C   0  0  2  0  0  0  0  0  0  0  0  0
   -1.8097   -2.0450   15.5402 C   0  0  1  0  0  0  0  0  0  0  0  0
   -2.7066   -3.2912   15.7807 C   0  0  1  0  0  0  0  0  0  0  0  0
   -2.2338   -4.1153   17.0070 C   0  0  0  0  0  0  0  0  0  0  0  0
   -4.1018   -2.8913   15.9385 O   0  0  0  0  0  0  0  0  0  0  0  0
   -0.4055   -2.4321   15.2813 N   0  0  0  0  0  0  0  0  0  0  0  0
   -4.4205   -0.0496   13.5639 O   0  0  0  0  0  0  0  0  0  0  0  0
   -1.5956    0.0277   14.2313 O   0  0  0  0  0  0  0  0  0  0  0  0
   -3.2675   -4.9803   17.4659 O   0  0  0  0  0  0  0  0  0  0  0  0
   -8.9045   -8.5895    8.7784 C   0  0  1  0  0  0  0  0  0  0  0  0
   -8.1235   -8.7564    7.4448 C   0  0  1  0  0  0  0  0  0  0  0  0
   -8.8806   -9.6979    6.4662 C   0  0  2  0  0  0  0  0  0  0  0  0
   -9.2260  -11.0781    7.1139 C   0  0  1  0  0  0  0  0  0  0  0  0
   -9.8899  -10.9409    8.5168 C   0  0  0  0  0  0  0  0  0  0  0  0
   -9.1116   -9.9729    9.4581 C   0  0  2  0  0  0  0  0  0  0  0  0
  -10.0700  -11.8867    6.2085 N   0  0  0  0  0  0  0  0  0  0  0  0
   -9.8319   -9.8580   10.7447 N   0  0  0  0  0  0  0  0  0  0  0  0
   -7.8772   -7.4909    6.8402 O   0  0  0  0  0  0  0  0  0  0  0  0
   -8.1270   -9.8831    5.2706 O   0  0  0  0  0  0  0  0  0  0  0  0
  1  2  1  0  0  0  0
  1 16  1  6  0  0  0
  2  3  1  0  0  0  0
  2 12  1  6  0  0  0
  4 11  1  6  0  0  0
  4  3  1  0  0  0  0
  5  4  1  0  0  0  0
  5 10  1  1  0  0  0
  6  7  1  0  0  0  0
  6  5  1  0  0  0  0
  6 14  1  1  0  0  0
  7  8  1  0  0  0  0
  7 13  1  1  0  0  0
  8 15  1  6  0  0  0
  8 11  1  0  0  0  0
  9 13  1  0  0  0  0
 10  1  1  0  0  0  0
 17 15  1  6  0  0  0
 17 18  1  0  0  0  0
 18 25  1  6  0  0  0
 19 18  1  0  0  0  0
 19 26  1  1  0  0  0
 20 19  1  0  0  0  0
 20 24  1  6  0  0  0
 21 23  1  0  0  0  0
 21 20  1  0  0  0  0
 21 22  1  1  0  0  0
 23 17  1  0  0  0  0
 27 22  1  0  0  0  0
 28 29  1  0  0  0  0
 28 16  1  1  0  0  0
 29 36  1  6  0  0  0
 30 37  1  6  0  0  0
 30 29  1  0  0  0  0
 31 30  1  0  0  0  0
 31 34  1  6  0  0  0
 32 31  1  0  0  0  0
 32 33  1  0  0  0  0
 33 28  1  0  0  0  0
 33 35  1  1  0  0  0
M  END
>  <CHROM.1>
-61.07860641,-88.20924846,72.26605776,-173.54646167,-144.62904620,-101.01294865
66.29467966,-61.33612747,161.70165565,44.36294400,-175.20618433,135.78049533
-81.47790523,-166.11294105,-60.66810227,179.83240221,-6.45404263,-5.54061825
11.95112119,2.81882207,-1.01607125,-1.11954662

>  <Name>
lig.pdb

>  <RI>
0

>  <Rbt.Current_Directory>
/home/afrankz/demos/rdock_decoys_rna/rnas/2m4q

>  <Rbt.Executable>
rbdock ($Id: //depot/dev/client3/rdock/2013.1/src/exe/rbdock.cxx#4 $)

>  <Rbt.Library>
libRbt.so (2013.1, Build901 2013/11/27)

>  <Rbt.Parameter_File>
/export/apps/rDock/src/rDock_2013.1_src/data/scripts/dock_solv.prm

>  <Rbt.Receptor>
prm/blind_docking_40.prm

>  <SCORE>
-4.93572

>  <SCORE.INTER>
-5.28053

>  <SCORE.INTER.CONST>
1

>  <SCORE.INTER.POLAR>
-3.21931

>  <SCORE.INTER.ROT>
10

>  <SCORE.INTER.SOLV>
22.6413

>  <SCORE.INTER.VDW>
-10.6031

>  <SCORE.INTER.norm>
-0.142717

>  <SCORE.INTRA>
-15.052

>  <SCORE.INTRA.DIHEDRAL>
-19.6469

>  <SCORE.INTRA.DIHEDRAL.0>
44.8331

>  <SCORE.INTRA.POLAR>
-1.64441

>  <SCORE.INTRA.POLAR.0>
-0.108895

>  <SCORE.INTRA.REPUL>
-0.00912235

>  <SCORE.INTRA.REPUL.0>
0.00912235

>  <SCORE.INTRA.SOLV>
0.489093

>  <SCORE.INTRA.SOLV.lig_0>
-53.9067

>  <SCORE.INTRA.VDW>
0.163556

>  <SCORE.INTRA.VDW.0>
-2.93492

>  <SCORE.INTRA.norm>
-0.40681

>  <SCORE.RESTR>
15.3968

>  <SCORE.RESTR.CAVITY>
15.3968

>  <SCORE.RESTR.norm>
0.416129

>  <SCORE.SYSTEM>
0

>  <SCORE.SYSTEM.CONST>
0

>  <SCORE.SYSTEM.DIHEDRAL>
0

>  <SCORE.SYSTEM.SOLV>
0

>  <SCORE.SYSTEM.norm>
0

>  <SCORE.heavy>
37

>  <SCORE.norm>
-0.133398

>  <RMSD>
16.194

$$$$
lig.pdb
 OpenBabel11021811453D
libRbt.so/2013.1/901 2013/11/27
 37 40  0  0  0  0  0  0  0  0999 V2000
   -4.9349   -3.7649   15.7384 C   0  0  2  0  0  0  0  0  0  0  0  0
   -5.6794   -5.1122   16.0170 C   0  0  1  0  0  0  0  0  0  0  0  0
   -6.1855   -5.8146   14.7231 C   0  0  0  0  0  0  0  0  0  0  0  0
   -6.9504   -4.8221   13.8128 C   0  0  1  0  0  0  0  0  0  0  0  0
   -6.0567   -3.6020   13.4968 C   0  0  1  0  0  0  0  0  0  0  0  0
   -6.7820   -2.6116   12.5466 C   0  0  1  0  0  0  0  0  0  0  0  0
   -7.2912   -3.3409   11.2678 C   0  0  1  0  0  0  0  0  0  0  0  0
   -8.1199   -4.6138   11.6131 C   0  0  2  0  0  0  0  0  0  0  0  0
   -7.3456   -1.1051   10.2617 C   0  0  0  0  0  0  0  0  0  0  0  0
   -5.6248   -2.9574   14.7298 O   0  0  0  0  0  0  0  0  0  0  0  0
   -7.4307   -5.4525   12.5905 O   0  0  0  0  0  0  0  0  0  0  0  0
   -4.7907   -6.0285   16.7642 N   0  0  0  0  0  0  0  0  0  0  0  0
   -8.0591   -2.3882   10.4396 N   0  0  0  0  0  0  0  0  0  0  0  0
   -7.8427   -1.9393   13.2133 O   0  0  0  0  0  0  0  0  0  0  0  0
   -8.4333   -5.3611   10.4015 O   0  0  0  0  0  0  0  0  0  0  0  0
   -3.5488   -3.9995   15.3434 O   0  0  0  0  0  0  0  0  0  0  0  0
   -9.5645   -6.2851   10.4258 C   0  0  2  0  0  0  0  0  0  0  0  0
   -9.2393   -7.5850    9.6363 C   0  0  1  0  0  0  0  0  0  0  0  0
   -9.1737   -7.3266    8.1037 C   0  0  2  0  0  0  0  0  0  0  0  0
  -10.4624   -6.6154    7.5983 C   0  0  1  0  0  0  0  0  0  0  0  0
  -10.7691   -5.3425    8.4356 C   0  0  1  0  0  0  0  0  0  0  0  0
  -12.1220   -4.6987    8.0337 C   0  0  0  0  0  0  0  0  0  0  0  0
  -10.7534   -5.6553    9.8616 O   0  0  0  0  0  0  0  0  0  0  0  0
  -10.3773   -6.3045    6.1545 N   0  0  0  0  0  0  0  0  0  0  0  0
   -8.0381   -8.1800   10.1238 O   0  0  0  0  0  0  0  0  0  0  0  0
   -8.9400   -8.5370    7.3870 O   0  0  0  0  0  0  0  0  0  0  0  0
  -12.5198   -3.7179    8.9861 O   0  0  0  0  0  0  0  0  0  0  0  0
   -2.5415   -3.0576   15.8147 C   0  0  1  0  0  0  0  0  0  0  0  0
   -1.3433   -3.7787   16.4933 C   0  0  1  0  0  0  0  0  0  0  0  0
   -0.3286   -2.7538   17.0740 C   0  0  2  0  0  0  0  0  0  0  0  0
    0.1470   -1.7152   16.0067 C   0  0  1  0  0  0  0  0  0  0  0  0
   -1.0327   -1.0744   15.2159 C   0  0  0  0  0  0  0  0  0  0  0  0
   -2.0363   -2.1342   14.6699 C   0  0  2  0  0  0  0  0  0  0  0  0
    0.9924   -0.6734   16.6279 N   0  0  0  0  0  0  0  0  0  0  0  0
   -3.1481   -1.4446   13.9801 N   0  0  0  0  0  0  0  0  0  0  0  0
   -1.7966   -4.6710   17.5062 O   0  0  0  0  0  0  0  0  0  0  0  0
    0.7893   -3.4290   17.6451 O   0  0  0  0  0  0  0  0  0  0  0  0
  1  2  1  0  0  0  0
  1 16  1  6  0  0  0
  2  3  1  0  0  0  0
  2 12  1  6  0  0  0
  4 11  1  6  0  0  0
  4  3  1  0  0  0  0
  5  4  1  0  0  0  0
  5 10  1  1  0  0  0
  6  7  1  0  0  0  0
  6  5  1  0  0  0  0
  6 14  1  1  0  0  0
  7  8  1  0  0  0  0
  7 13  1  1  0  0  0
  8 15  1  6  0  0  0
  8 11  1  0  0  0  0
  9 13  1  0  0  0  0
 10  1  1  0  0  0  0
 17 15  1  6  0  0  0
 17 18  1  0  0  0  0
 18 25  1  1  0  0  0
 19 18  1  0  0  0  0
 19 26  1  6  0  0  0
 20 19  1  0  0  0  0
 20 24  1  6  0  0  0
 21 23  1  0  0  0  0
 21 20  1  0  0  0  0
 21 22  1  6  0  0  0
 23 17  1  0  0  0  0
 27 22  1  0  0  0  0
 28 29  1  0  0  0  0
 28 16  1  6  0  0  0
 29 36  1  1  0  0  0
 30 37  1  6  0  0  0
 30 29  1  0  0  0  0
 31 30  1  0  0  0  0
 31 34  1  1  0  0  0
 32 31  1  0  0  0  0
 32 33  1  0  0  0  0
 33 28  1  0  0  0  0
 33 35  1  1  0  0  0
M  END
>  <CHROM.1>
-50.47591557,-158.44746028,47.74643332,66.12378923,-140.65814894,-143.07190499
62.67787460,-55.58143247,167.62482927,-81.81689765,-175.61975841,128.77535390
176.33138602,86.12948661,-57.71489932,118.29727866,-6.15255495,-4.27871744
12.65619277,-0.16257644,0.74330657,2.99452686

>  <Name>
lig.pdb

>  <RI>
0

>  <Rbt.Current_Directory>
/home/afrankz/demos/rdock_decoys_rna/rnas/2m4q

>  <Rbt.Executable>
rbdock ($Id: //depot/dev/client3/rdock/2013.1/src/exe/rbdock.cxx#4 $)

>  <Rbt.Library>
libRbt.so (2013.1, Build901 2013/11/27)

>  <Rbt.Parameter_File>
/export/apps/rDock/src/rDock_2013.1_src/data/scripts/dock_solv.prm

>  <Rbt.Receptor>
prm/blind_docking_40.prm

>  <SCORE>
-26.1498

>  <SCORE.INTER>
-28.0231

>  <SCORE.INTER.CONST>
1

>  <SCORE.INTER.POLAR>
-5.19162

>  <SCORE.INTER.ROT>
10

>  <SCORE.INTER.SOLV>
25.6491

>  <SCORE.INTER.VDW>
-20.193

>  <SCORE.INTER.norm>
-0.75738

>  <SCORE.INTRA>
-9.49714

>  <SCORE.INTRA.DIHEDRAL>
-17.9357

>  <SCORE.INTRA.DIHEDRAL.0>
44.8331

>  <SCORE.INTRA.POLAR>
-0.867004

>  <SCORE.INTRA.POLAR.0>
-0.108895

>  <SCORE.INTRA.REPUL>
-0.00912235

>  <SCORE.INTRA.REPUL.0>
0.00912235

>  <SCORE.INTRA.SOLV>
-1.4427

>  <SCORE.INTRA.SOLV.lig_0>
-53.9067

>  <SCORE.INTRA.VDW>
3.18551

>  <SCORE.INTRA.VDW.0>
-2.93492

>  <SCORE.INTRA.norm>
-0.256679

>  <SCORE.RESTR>
11.3705

>  <SCORE.RESTR.CAVITY>
11.3705

>  <SCORE.RESTR.norm>
0.30731

>  <SCORE.SYSTEM>
0

>  <SCORE.SYSTEM.CONST>
0

>  <SCORE.SYSTEM.DIHEDRAL>
0

>  <SCORE.SYSTEM.SOLV>
0

>  <SCORE.SYSTEM.norm>
0

>  <SCORE.heavy>
37

>  <SCORE.norm>
-0.70675

>  <RMSD>
16.221

$$$$
lig.pdb
 OpenBabel11021811453D
libRbt.so/2013.1/901 2013/11/27
 37 40  0  0  0  0  0  0  0  0999 V2000
  -16.3435    8.1003   10.5351 C   0  0  2  0  0  0  0  0  0  0  0  0
  -16.5337    6.5646   10.7644 C   0  0  1  0  0  0  0  0  0  0  0  0
  -15.5655    5.6909    9.9140 C   0  0  0  0  0  0  0  0  0  0  0  0
  -15.5713    6.1352    8.4303 C   0  0  1  0  0  0  0  0  0  0  0  0
  -15.2321    7.6393    8.3301 C   0  0  1  0  0  0  0  0  0  0  0  0
  -15.1848    8.1021    6.8492 C   0  0  1  0  0  0  0  0  0  0  0  0
  -14.2216    7.2039    6.0171 C   0  0  1  0  0  0  0  0  0  0  0  0
  -14.5326    5.6887    6.2006 C   0  0  2  0  0  0  0  0  0  0  0  0
  -13.1604    7.0553    3.8113 C   0  0  0  0  0  0  0  0  0  0  0  0
  -16.1736    8.4245    9.1170 O   0  0  0  0  0  0  0  0  0  0  0  0
  -14.6683    5.3371    7.6119 O   0  0  0  0  0  0  0  0  0  0  0  0
  -16.3579    6.2482   12.1984 N   0  0  0  0  0  0  0  0  0  0  0  0
  -14.2810    7.6134    4.5987 N   0  0  0  0  0  0  0  0  0  0  0  0
  -16.4854    8.1322    6.2756 O   0  0  0  0  0  0  0  0  0  0  0  0
  -13.5123    4.8772    5.5486 O   0  0  0  0  0  0  0  0  0  0  0  0
  -15.2208    8.6153   11.3142 O   0  0  0  0  0  0  0  0  0  0  0  0
  -12.4981    4.2331    6.3795 C   0  0  2  0  0  0  0  0  0  0  0  0
  -11.7057    3.1695    5.5676 C   0  0  1  0  0  0  0  0  0  0  0  0
  -12.5787    1.9229    5.2456 C   0  0  2  0  0  0  0  0  0  0  0  0
  -13.2271    1.3428    6.5360 C   0  0  1  0  0  0  0  0  0  0  0  0
  -13.9785    2.4448    7.3339 C   0  0  1  0  0  0  0  0  0  0  0  0
  -14.5138    1.9132    8.6893 C   0  0  0  0  0  0  0  0  0  0  0  0
  -13.1129    3.6018    7.5423 O   0  0  0  0  0  0  0  0  0  0  0  0
  -14.1139    0.1993    6.2283 N   0  0  0  0  0  0  0  0  0  0  0  0
  -11.1556    3.7488    4.3859 O   0  0  0  0  0  0  0  0  0  0  0  0
  -11.8226    0.9282    4.5585 O   0  0  0  0  0  0  0  0  0  0  0  0
  -15.1187    2.9600    9.4414 O   0  0  0  0  0  0  0  0  0  0  0  0
  -15.1632   10.0521   11.5509 C   0  0  1  0  0  0  0  0  0  0  0  0
  -15.2823   10.3980   13.0617 C   0  0  1  0  0  0  0  0  0  0  0  0
  -15.3161   11.9364   13.2833 C   0  0  2  0  0  0  0  0  0  0  0  0
  -14.1034   12.6620   12.6149 C   0  0  1  0  0  0  0  0  0  0  0  0
  -13.8790   12.2306   11.1346 C   0  0  0  0  0  0  0  0  0  0  0  0
  -13.8730   10.6827   10.9540 C   0  0  2  0  0  0  0  0  0  0  0  0
  -14.2467   14.1298   12.7200 N   0  0  0  0  0  0  0  0  0  0  0  0
  -13.7076   10.3587    9.5205 N   0  0  0  0  0  0  0  0  0  0  0  0
  -16.4299    9.7792   13.6342 O   0  0  0  0  0  0  0  0  0  0  0  0
  -15.3716   12.2377   14.6754 O   0  0  0  0  0  0  0  0  0  0  0  0
  1  2  1  0  0  0  0
  1 16  1  1  0  0  0
  2  3  1  0  0  0  0
  2 12  1  1  0  0  0
  4 11  1  6  0  0  0
  4  3  1  0  0  0  0
  5  4  1  0  0  0  0
  5 10  1  1  0  0  0
  6  7  1  0  0  0  0
  6  5  1  0  0  0  0
  6 14  1  6  0  0  0
  7  8  1  0  0  0  0
  7 13  1  6  0  0  0
  8 15  1  1  0  0  0
  8 11  1  0  0  0  0
  9 13  1  0  0  0  0
 10  1  1  0  0  0  0
 17 15  1  6  0  0  0
 17 18  1  0  0  0  0
 18 25  1  6  0  0  0
 19 18  1  0  0  0  0
 19 26  1  1  0  0  0
 20 19  1  0  0  0  0
 20 24  1  6  0  0  0
 21 23  1  0  0  0  0
 21 20  1  0  0  0  0
 21 22  1  1  0  0  0
 23 17  1  0  0  0  0
 27 22  1  0  0  0  0
 28 29  1  0  0  0  0
 28 16  1  1  0  0  0
 29 36  1  6  0  0  0
 30 37  1  1  0  0  0
 30 29  1  0  0  0  0
 31 30  1  0  0  0  0
 31 34  1  6  0  0  0
 32 31  1  0  0  0  0
 32 33  1  0  0  0  0
 33 28  1  0  0  0  0
 33 35  1  6  0  0  0
M  END
>  <CHROM.1>
-46.78434117,103.39792280,165.39993995,66.90432230,167.17015961,-161.06365904
-177.51627246,60.09878961,176.09226926,62.49711210,60.20776354,116.33039124
-60.01014084,178.09555593,-73.52094826,124.91925216,-14.44153864,6.80350782
8.71173038,2.12259317,1.21228053,0.14011434

>  <Name>
lig.pdb

>  <RI>
0

>  <Rbt.Current_Directory>
/home/itssahil/PROJECTS/Mol_Feturizer/New_Systems/rnas/2m4q

>  <Rbt.Executable>
rbdock ($Id: //depot/dev/client3/rdock/2013.1/src/exe/rbdock.cxx#4 $)

>  <Rbt.Library>
libRbt.so (2013.1, Build901 2013/11/27)

>  <Rbt.Parameter_File>
/export/apps/rDock/src/rDock_2013.1_src/data/scripts/dock_solv.prm

>  <Rbt.Receptor>
prm/blind_docking_60.prm

>  <SCORE>
-3.47984

>  <SCORE.INTER>
-9.25193

>  <SCORE.INTER.CONST>
1

>  <SCORE.INTER.POLAR>
-2.5023

>  <SCORE.INTER.ROT>
10

>  <SCORE.INTER.SOLV>
18.0306

>  <SCORE.INTER.VDW>
-14.1038

>  <SCORE.INTER.norm>
-0.250052

>  <SCORE.INTRA>
-10.7351

>  <SCORE.INTRA.DIHEDRAL>
-25.4473

>  <SCORE.INTRA.DIHEDRAL.0>
44.8331

>  <SCORE.INTRA.POLAR>
-0.361906

>  <SCORE.INTRA.POLAR.0>
-0.108895

>  <SCORE.INTRA.REPUL>
-0.00912235

>  <SCORE.INTRA.REPUL.0>
0.00912235

>  <SCORE.INTRA.SOLV>
-0.148245

>  <SCORE.INTRA.SOLV.lig_0>
-53.9067

>  <SCORE.INTRA.VDW>
3.33879

>  <SCORE.INTRA.VDW.0>
-2.93492

>  <SCORE.INTRA.norm>
-0.290137

>  <SCORE.RESTR>
16.5072

>  <SCORE.RESTR.CAVITY>
16.5072

>  <SCORE.RESTR.norm>
0.44614

>  <SCORE.SYSTEM>
0

>  <SCORE.SYSTEM.CONST>
0

>  <SCORE.SYSTEM.DIHEDRAL>
0

>  <SCORE.SYSTEM.SOLV>
0

>  <SCORE.SYSTEM.norm>
0

>  <SCORE.heavy>
37

>  <SCORE.norm>
-0.0940497

>  <RMSD>
16.239

$$$$
lig.pdb
 OpenBabel11021811453D
libRbt.so/2013.1/901 2013/11/27
 37 40  0  0  0  0  0  0  0  0999 V2000
  -15.9310    9.9716   11.4626 C   0  0  2  0  0  0  0  0  0  0  0  0
  -15.1864   11.0192   10.5709 C   0  0  1  0  0  0  0  0  0  0  0  0
  -14.9118   10.5120    9.1248 C   0  0  0  0  0  0  0  0  0  0  0  0
  -14.2770    9.0993    9.1406 C   0  0  1  0  0  0  0  0  0  0  0  0
  -15.1782    8.1264    9.9335 C   0  0  1  0  0  0  0  0  0  0  0  0
  -14.5889    6.6903    9.9261 C   0  0  1  0  0  0  0  0  0  0  0  0
  -14.3095    6.2120    8.4701 C   0  0  1  0  0  0  0  0  0  0  0  0
  -13.4692    7.2487    7.6667 C   0  0  2  0  0  0  0  0  0  0  0  0
  -13.8279    4.1439    7.2434 C   0  0  0  0  0  0  0  0  0  0  0  0
  -15.3907    8.6216   11.2869 O   0  0  0  0  0  0  0  0  0  0  0  0
  -14.0147    8.5974    7.7985 O   0  0  0  0  0  0  0  0  0  0  0  0
  -15.9675   12.2741   10.5169 N   0  0  0  0  0  0  0  0  0  0  0  0
  -13.6597    4.8857    8.5117 N   0  0  0  0  0  0  0  0  0  0  0  0
  -13.4184    6.6081   10.7289 O   0  0  0  0  0  0  0  0  0  0  0  0
  -13.3728    6.8510    6.2678 O   0  0  0  0  0  0  0  0  0  0  0  0
  -17.3680    9.9838   11.2031 O   0  0  0  0  0  0  0  0  0  0  0  0
  -12.2759    7.3862    5.4652 C   0  0  2  0  0  0  0  0  0  0  0  0
  -12.5560    7.2038    3.9463 C   0  0  1  0  0  0  0  0  0  0  0  0
  -12.4600    5.7113    3.5183 C   0  0  2  0  0  0  0  0  0  0  0  0
  -11.1078    5.0844    3.9661 C   0  0  1  0  0  0  0  0  0  0  0  0
  -10.8516    5.3195    5.4809 C   0  0  1  0  0  0  0  0  0  0  0  0
   -9.4478    4.8210    5.9136 C   0  0  0  0  0  0  0  0  0  0  0  0
  -11.0193    6.7314    5.8123 O   0  0  0  0  0  0  0  0  0  0  0  0
  -11.0386    3.6469    3.6235 N   0  0  0  0  0  0  0  0  0  0  0  0
  -13.8162    7.7736    3.5973 O   0  0  0  0  0  0  0  0  0  0  0  0
  -12.6540    5.5650    2.1132 O   0  0  0  0  0  0  0  0  0  0  0  0
   -9.2371    5.0429    7.3041 O   0  0  0  0  0  0  0  0  0  0  0  0
  -17.8282    9.4779    9.9162 C   0  0  1  0  0  0  0  0  0  0  0  0
  -17.5100   10.4629    8.7565 C   0  0  1  0  0  0  0  0  0  0  0  0
  -18.0938    9.9502    7.4099 C   0  0  2  0  0  0  0  0  0  0  0  0
  -17.6351    8.4933    7.0771 C   0  0  1  0  0  0  0  0  0  0  0  0
  -17.8189    7.5113    8.2728 C   0  0  0  0  0  0  0  0  0  0  0  0
  -17.2391    8.0724    9.6061 C   0  0  2  0  0  0  0  0  0  0  0  0
  -18.3238    7.9885    5.8701 N   0  0  0  0  0  0  0  0  0  0  0  0
  -17.4991    7.1076   10.6964 N   0  0  0  0  0  0  0  0  0  0  0  0
  -17.9945   11.7685    9.0535 O   0  0  0  0  0  0  0  0  0  0  0  0
  -17.7484   10.8362    6.3481 O   0  0  0  0  0  0  0  0  0  0  0  0
  1  2  1  0  0  0  0
  1 16  1  6  0  0  0
  2  3  1  0  0  0  0
  2 12  1  6  0  0  0
  4 11  1  6  0  0  0
  4  3  1  0  0  0  0
  5  4  1  0  0  0  0
  5 10  1  1  0  0  0
  6  7  1  0  0  0  0
  6  5  1  0  0  0  0
  6 14  1  1  0  0  0
  7  8  1  0  0  0  0
  7 13  1  1  0  0  0
  8 15  1  6  0  0  0
  8 11  1  0  0  0  0
  9 13  1  0  0  0  0
 10  1  1  0  0  0  0
 17 15  1  1  0  0  0
 17 18  1  0  0  0  0
 18 25  1  1  0  0  0
 19 18  1  0  0  0  0
 19 26  1  6  0  0  0
 20 19  1  0  0  0  0
 20 24  1  1  0  0  0
 21 23  1  0  0  0  0
 21 20  1  0  0  0  0
 21 22  1  6  0  0  0
 23 17  1  0  0  0  0
 27 22  1  0  0  0  0
 28 29  1  0  0  0  0
 28 16  1  1  0  0  0
 29 36  1  1  0  0  0
 30 37  1  6  0  0  0
 30 29  1  0  0  0  0
 31 30  1  0  0  0  0
 31 34  1  6  0  0  0
 32 31  1  0  0  0  0
 32 33  1  0  0  0  0
 33 28  1  0  0  0  0
 33 35  1  1  0  0  0
M  END
>  <CHROM.1>
-113.65711634,-158.40823465,158.03424480,-71.00048926,-163.44085704,69.53819868
178.84762663,179.03419812,-179.83171919,178.71698433,154.80629979,-73.19190204
-59.34500179,-176.49527265,-61.82941979,50.67855070,-14.55631804,7.74164923
7.63787272,-2.48604664,0.63278899,-1.66870101

>  <Name>
lig.pdb

>  <RI>
0

>  <Rbt.Current_Directory>
/home/itssahil/PROJECTS/Mol_Feturizer/New_Systems/rnas/2m4q

>  <Rbt.Executable>
rbdock ($Id: //depot/dev/client3/rdock/2013.1/src/exe/rbdock.cxx#4 $)

>  <Rbt.Library>
libRbt.so (2013.1, Build901 2013/11/27)

>  <Rbt.Parameter_File>
/export/apps/rDock/src/rDock_2013.1_src/data/scripts/dock_solv.prm

>  <Rbt.Receptor>
prm/blind_docking_60.prm

>  <SCORE>
7.62101

>  <SCORE.INTER>
-9.88315

>  <SCORE.INTER.CONST>
1

>  <SCORE.INTER.POLAR>
-4.71421

>  <SCORE.INTER.ROT>
10

>  <SCORE.INTER.SOLV>
19.7158

>  <SCORE.INTER.VDW>
-7.71335

>  <SCORE.INTER.norm>
-0.267112

>  <SCORE.INTRA>
3.47328

>  <SCORE.INTRA.DIHEDRAL>
-33.2697

>  <SCORE.INTRA.DIHEDRAL.0>
44.8331

>  <SCORE.INTRA.POLAR>
-0.550745

>  <SCORE.INTRA.POLAR.0>
-0.108895

>  <SCORE.INTRA.REPUL>
-0.00653967

>  <SCORE.INTRA.REPUL.0>
0.00912235

>  <SCORE.INTRA.SOLV>
1.45632

>  <SCORE.INTRA.SOLV.lig_0>
-53.9067

>  <SCORE.INTRA.VDW>
21.2852

>  <SCORE.INTRA.VDW.0>
-2.93492

>  <SCORE.INTRA.norm>
0.0938725

>  <SCORE.RESTR>
14.0309

>  <SCORE.RESTR.CAVITY>
14.0309

>  <SCORE.RESTR.norm>
0.379213

>  <SCORE.SYSTEM>
0

>  <SCORE.SYSTEM.CONST>
0

>  <SCORE.SYSTEM.DIHEDRAL>
0

>  <SCORE.SYSTEM.SOLV>
0

>  <SCORE.SYSTEM.norm>
0

>  <SCORE.heavy>
37

>  <SCORE.norm>
0.205973

>  <RMSD>
16.270

$$$$
lig.pdb
 OpenBabel11021811453D
libRbt.so/2013.1/901 2013/11/27
 37 40  0  0  0  0  0  0  0  0999 V2000
  -14.6430    8.9084   10.7005 C   0  0  2  0  0  0  0  0  0  0  0  0
  -13.6330    9.5684    9.7048 C   0  0  1  0  0  0  0  0  0  0  0  0
  -13.7861    9.0557    8.2428 C   0  0  0  0  0  0  0  0  0  0  0  0
  -13.8317    7.5082    8.1966 C   0  0  1  0  0  0  0  0  0  0  0  0
  -14.9610    6.9874    9.1135 C   0  0  1  0  0  0  0  0  0  0  0  0
  -15.0603    5.4396    9.0506 C   0  0  1  0  0  0  0  0  0  0  0  0
  -15.1977    4.9512    7.5777 C   0  0  1  0  0  0  0  0  0  0  0  0
  -14.0962    5.5561    6.6574 C   0  0  2  0  0  0  0  0  0  0  0  0
  -16.3399    2.8992    8.2836 C   0  0  0  0  0  0  0  0  0  0  0  0
  -14.7692    7.4666   10.4758 O   0  0  0  0  0  0  0  0  0  0  0  0
  -13.9806    7.0009    6.8393 O   0  0  0  0  0  0  0  0  0  0  0  0
  -13.7912   11.0387    9.7343 N   0  0  0  0  0  0  0  0  0  0  0  0
  -15.1891    3.4739    7.5539 N   0  0  0  0  0  0  0  0  0  0  0  0
  -13.9529    4.8243    9.6962 O   0  0  0  0  0  0  0  0  0  0  0  0
  -14.3549    5.2170    5.2636 O   0  0  0  0  0  0  0  0  0  0  0  0
  -15.9517    9.5523   10.6292 O   0  0  0  0  0  0  0  0  0  0  0  0
  -13.4421    5.7241    4.2421 C   0  0  2  0  0  0  0  0  0  0  0  0
  -13.2105    4.6654    3.1266 C   0  0  1  0  0  0  0  0  0  0  0  0
  -12.3578    3.4685    3.6369 C   0  0  2  0  0  0  0  0  0  0  0  0
  -11.0345    3.9603    4.2919 C   0  0  1  0  0  0  0  0  0  0  0  0
  -11.3090    5.0408    5.3747 C   0  0  1  0  0  0  0  0  0  0  0  0
   -9.9941    5.6390    5.9403 C   0  0  0  0  0  0  0  0  0  0  0  0
  -12.1626    6.0957    4.8363 O   0  0  0  0  0  0  0  0  0  0  0  0
  -10.2513    2.8319    4.8412 N   0  0  0  0  0  0  0  0  0  0  0  0
  -14.4550    4.2328    2.5802 O   0  0  0  0  0  0  0  0  0  0  0  0
  -12.0976    2.5377    2.5885 O   0  0  0  0  0  0  0  0  0  0  0  0
   -9.4540    6.6093    5.0492 O   0  0  0  0  0  0  0  0  0  0  0  0
  -16.0772   10.8945   11.1831 C   0  0  1  0  0  0  0  0  0  0  0  0
  -17.3424   11.6262   10.6538 C   0  0  1  0  0  0  0  0  0  0  0  0
  -17.4057   13.0877   11.1801 C   0  0  2  0  0  0  0  0  0  0  0  0
  -17.2981   13.1659   12.7377 C   0  0  1  0  0  0  0  0  0  0  0  0
  -16.1139   12.3284   13.3069 C   0  0  0  0  0  0  0  0  0  0  0  0
  -16.0754   10.8780   12.7381 C   0  0  2  0  0  0  0  0  0  0  0  0
  -17.2139   14.5715   13.1885 N   0  0  0  0  0  0  0  0  0  0  0  0
  -14.8981   10.1696   13.2853 N   0  0  0  0  0  0  0  0  0  0  0  0
  -17.3856   11.5987    9.2308 O   0  0  0  0  0  0  0  0  0  0  0  0
  -18.5972   13.7277   10.7301 O   0  0  0  0  0  0  0  0  0  0  0  0
  1  2  1  0  0  0  0
  1 16  1  6  0  0  0
  2  3  1  0  0  0  0
  2 12  1  6  0  0  0
  4 11  1  6  0  0  0
  4  3  1  0  0  0  0
  5  4  1  0  0  0  0
  5 10  1  1  0  0  0
  6  7  1  0  0  0  0
  6  5  1  0  0  0  0
  6 14  1  6  0  0  0
  7  8  1  0  0  0  0
  7 13  1  1  0  0  0
  8 15  1  6  0  0  0
  8 11  1  0  0  0  0
  9 13  1  0  0  0  0
 10  1  1  0  0  0  0
 17 15  1  1  0  0  0
 17 18  1  0  0  0  0
 18 25  1  1  0  0  0
 19 18  1  0  0  0  0
 19 26  1  6  0  0  0
 20 19  1  0  0  0  0
 20 24  1  1  0  0  0
 21 23  1  0  0  0  0
 21 20  1  0  0  0  0
 21 22  1  6  0  0  0
 23 17  1  0  0  0  0
 27 22  1  0  0  0  0
 28 29  1  0  0  0  0
 28 16  1  6  0  0  0
 29 36  1  6  0  0  0
 30 37  1  1  0  0  0
 30 29  1  0  0  0  0
 31 30  1  0  0  0  0
 31 34  1  6  0  0  0
 32 31  1  0  0  0  0
 32 33  1  0  0  0  0
 33 28  1  0  0  0  0
 33 35  1  6  0  0  0
M  END
>  <CHROM.1>
-167.57300379,178.60544716,62.84736273,-173.14566670,142.02970591,-71.71288858
-55.69731616,-176.16535718,79.24183064,-19.40945361,63.06286323,161.73298221
-87.58944895,63.16957308,166.27582707,-66.55839389,-14.36377144,7.61359926
8.14310398,2.10272440,0.75125470,0.35676726

>  <Name>
lig.pdb

>  <RI>
0

>  <Rbt.Current_Directory>
/home/itssahil/PROJECTS/Mol_Feturizer/New_Systems/rnas/2m4q

>  <Rbt.Executable>
rbdock ($Id: //depot/dev/client3/rdock/2013.1/src/exe/rbdock.cxx#4 $)

>  <Rbt.Library>
libRbt.so (2013.1, Build901 2013/11/27)

>  <Rbt.Parameter_File>
/export/apps/rDock/src/rDock_2013.1_src/data/scripts/dock_solv.prm

>  <Rbt.Receptor>
prm/blind_docking_60.prm

>  <SCORE>
3.18248

>  <SCORE.INTER>
-4.11409

>  <SCORE.INTER.CONST>
1

>  <SCORE.INTER.POLAR>
-3.12163

>  <SCORE.INTER.ROT>
10

>  <SCORE.INTER.SOLV>
17.6335

>  <SCORE.INTER.VDW>
-8.48181

>  <SCORE.INTER.norm>
-0.111192

>  <SCORE.INTRA>
-13.2385

>  <SCORE.INTRA.DIHEDRAL>
-29.815

>  <SCORE.INTRA.DIHEDRAL.0>
44.8331

>  <SCORE.INTRA.POLAR>
-0.0981767

>  <SCORE.INTRA.POLAR.0>
-0.108895

>  <SCORE.INTRA.REPUL>
-0.00912235

>  <SCORE.INTRA.REPUL.0>
0.00912235

>  <SCORE.INTRA.SOLV>
-0.975901

>  <SCORE.INTRA.SOLV.lig_0>
-53.9067

>  <SCORE.INTRA.VDW>
2.53641

>  <SCORE.INTRA.VDW.0>
-2.93492

>  <SCORE.INTRA.norm>
-0.357797

>  <SCORE.RESTR>
20.535

>  <SCORE.RESTR.CAVITY>
20.535

>  <SCORE.RESTR.norm>
0.555001

>  <SCORE.SYSTEM>
0

>  <SCORE.SYSTEM.CONST>
0

>  <SCORE.SYSTEM.DIHEDRAL>
0

>  <SCORE.SYSTEM.SOLV>
0

>  <SCORE.SYSTEM.norm>
0

>  <SCORE.heavy>
37

>  <SCORE.norm>
0.0860129

>  <RMSD>
16.272

$$$$
lig.pdb
 OpenBabel11021811453D
libRbt.so/2013.1/901 2013/11/27
 37 40  0  0  0  0  0  0  0  0999 V2000
  -16.6805    9.2858    9.6318 C   0  0  2  0  0  0  0  0  0  0  0  0
  -15.9935    8.2213   10.5494 C   0  0  1  0  0  0  0  0  0  0  0  0
  -14.6757    7.6498    9.9489 C   0  0  0  0  0  0  0  0  0  0  0  0
  -14.8782    7.2104    8.4775 C   0  0  1  0  0  0  0  0  0  0  0  0
  -15.4281    8.3913    7.6466 C   0  0  1  0  0  0  0  0  0  0  0  0
  -15.5968    7.9925    6.1559 C   0  0  1  0  0  0  0  0  0  0  0  0
  -14.2702    7.4104    5.5831 C   0  0  1  0  0  0  0  0  0  0  0  0
  -13.6934    6.2778    6.4835 C   0  0  2  0  0  0  0  0  0  0  0  0
  -13.2339    6.7627    3.4571 C   0  0  0  0  0  0  0  0  0  0  0  0
  -16.6725    8.8811    8.2242 O   0  0  0  0  0  0  0  0  0  0  0  0
  -13.6577    6.6764    7.8883 O   0  0  0  0  0  0  0  0  0  0  0  0
  -15.7191    8.8100   11.8782 N   0  0  0  0  0  0  0  0  0  0  0  0
  -14.5000    6.9530    4.1971 N   0  0  0  0  0  0  0  0  0  0  0  0
  -16.6755    7.0824    5.9837 O   0  0  0  0  0  0  0  0  0  0  0  0
  -12.3734    5.8765    6.0133 O   0  0  0  0  0  0  0  0  0  0  0  0
  -16.0592   10.5980    9.7890 O   0  0  0  0  0  0  0  0  0  0  0  0
  -11.6551    4.8417    6.7530 C   0  0  2  0  0  0  0  0  0  0  0  0
  -11.2602    3.6620    5.8198 C   0  0  1  0  0  0  0  0  0  0  0  0
  -12.5012    2.8296    5.3874 C   0  0  2  0  0  0  0  0  0  0  0  0
  -13.3310    2.3750    6.6231 C   0  0  1  0  0  0  0  0  0  0  0  0
  -13.6738    3.5780    7.5454 C   0  0  1  0  0  0  0  0  0  0  0  0
  -14.3819    3.1234    8.8486 C   0  0  0  0  0  0  0  0  0  0  0  0
  -12.4685    4.3412    7.8558 O   0  0  0  0  0  0  0  0  0  0  0  0
  -14.5498    1.6422    6.2159 N   0  0  0  0  0  0  0  0  0  0  0  0
  -10.5249    4.1381    4.6940 O   0  0  0  0  0  0  0  0  0  0  0  0
  -12.1190    1.7136    4.5862 O   0  0  0  0  0  0  0  0  0  0  0  0
  -15.2282    2.0052    8.6024 O   0  0  0  0  0  0  0  0  0  0  0  0
  -15.7548   11.0455   11.1421 C   0  0  1  0  0  0  0  0  0  0  0  0
  -14.6710   12.1597   11.1562 C   0  0  1  0  0  0  0  0  0  0  0  0
  -14.2916   12.5539   12.6115 C   0  0  2  0  0  0  0  0  0  0  0  0
  -15.5394   12.9461   13.4677 C   0  0  1  0  0  0  0  0  0  0  0  0
  -16.6971   11.9084   13.3638 C   0  0  0  0  0  0  0  0  0  0  0  0
  -17.0307   11.5257   11.8904 C   0  0  2  0  0  0  0  0  0  0  0  0
  -15.1587   13.1712   14.8785 N   0  0  0  0  0  0  0  0  0  0  0  0
  -18.0988   10.5027   11.8812 N   0  0  0  0  0  0  0  0  0  0  0  0
  -13.5182   11.7544   10.4252 O   0  0  0  0  0  0  0  0  0  0  0  0
  -13.3370   13.6124   12.6078 O   0  0  0  0  0  0  0  0  0  0  0  0
  1  2  1  0  0  0  0
  1 16  1  6  0  0  0
  2  3  1  0  0  0  0
  2 12  1  1  0  0  0
  4 11  1  6  0  0  0
  4  3  1  0  0  0  0
  5  4  1  0  0  0  0
  5 10  1  1  0  0  0
  6  7  1  0  0  0  0
  6  5  1  0  0  0  0
  6 14  1  1  0  0  0
  7  8  1  0  0  0  0
  7 13  1  6  0  0  0
  8 15  1  6  0  0  0
  8 11  1  0  0  0  0
  9 13  1  0  0  0  0
 10  1  1  0  0  0  0
 17 15  1  6  0  0  0
 17 18  1  0  0  0  0
 18 25  1  6  0  0  0
 19 18  1  0  0  0  0
 19 26  1  1  0  0  0
 20 19  1  0  0  0  0
 20 24  1  6  0  0  0
 21 23  1  0  0  0  0
 21 20  1  0  0  0  0
 21 22  1  1  0  0  0
 23 17  1  0  0  0  0
 27 22  1  0  0  0  0
 28 29  1  0  0  0  0
 28 16  1  6  0  0  0
 29 36  1  1  0  0  0
 30 37  1  6  0  0  0
 30 29  1  0  0  0  0
 31 30  1  0  0  0  0
 31 34  1  1  0  0  0
 32 31  1  0  0  0  0
 32 33  1  0  0  0  0
 33 28  1  0  0  0  0
 33 35  1  1  0  0  0
M  END
>  <CHROM.1>
175.70454603,178.60524037,163.16642377,65.04410983,124.22217800,-43.85015494
-50.02712379,-171.46073304,-34.80317992,-56.00160173,-62.09424653,159.23366465
54.17470059,-106.44140880,-73.42450741,-77.51422780,-14.47741248,7.52364564
8.58151512,2.10219757,1.08087980,0.18807471

>  <Name>
lig.pdb

>  <RI>
0

>  <Rbt.Current_Directory>
/home/itssahil/PROJECTS/Mol_Feturizer/New_Systems/rnas/2m4q

>  <Rbt.Executable>
rbdock ($Id: //depot/dev/client3/rdock/2013.1/src/exe/rbdock.cxx#4 $)

>  <Rbt.Library>
libRbt.so (2013.1, Build901 2013/11/27)

>  <Rbt.Parameter_File>
/export/apps/rDock/src/rDock_2013.1_src/data/scripts/dock_solv.prm

>  <Rbt.Receptor>
prm/blind_docking_60.prm

>  <SCORE>
5.47396

>  <SCORE.INTER>
0.820328

>  <SCORE.INTER.CONST>
1

>  <SCORE.INTER.POLAR>
-2.24041

>  <SCORE.INTER.ROT>
10

>  <SCORE.INTER.SOLV>
15.4508

>  <SCORE.INTER.VDW>
-7.402

>  <SCORE.INTER.norm>
0.022171

>  <SCORE.INTRA>
-6.31466

>  <SCORE.INTRA.DIHEDRAL>
-23.6761

>  <SCORE.INTRA.DIHEDRAL.0>
44.8331

>  <SCORE.INTRA.POLAR>
-0.736816

>  <SCORE.INTRA.POLAR.0>
-0.108895

>  <SCORE.INTRA.REPUL>
-0.00912235

>  <SCORE.INTRA.REPUL.0>
0.00912235

>  <SCORE.INTRA.SOLV>
0.532407

>  <SCORE.INTRA.SOLV.lig_0>
-53.9067

>  <SCORE.INTRA.VDW>
7.80799

>  <SCORE.INTRA.VDW.0>
-2.93492

>  <SCORE.INTRA.norm>
-0.170666

>  <SCORE.RESTR>
10.9683

>  <SCORE.RESTR.CAVITY>
10.9683

>  <SCORE.RESTR.norm>
0.29644

>  <SCORE.SYSTEM>
0

>  <SCORE.SYSTEM.CONST>
0

>  <SCORE.SYSTEM.DIHEDRAL>
0

>  <SCORE.SYSTEM.SOLV>
0

>  <SCORE.SYSTEM.norm>
0

>  <SCORE.heavy>
37

>  <SCORE.norm>
0.147945

>  <RMSD>
16.282

$$$$
lig.pdb
 OpenBabel11021811453D
libRbt.so/2013.1/901 2013/11/27
 37 40  0  0  0  0  0  0  0  0999 V2000
   -4.1371   -3.8608   16.5305 C   0  0  2  0  0  0  0  0  0  0  0  0
   -5.0345   -4.9191   17.2529 C   0  0  1  0  0  0  0  0  0  0  0  0
   -5.6051   -6.0017   16.2905 C   0  0  0  0  0  0  0  0  0  0  0  0
   -6.2415   -5.3530   15.0362 C   0  0  1  0  0  0  0  0  0  0  0  0
   -5.2101   -4.4412   14.3348 C   0  0  1  0  0  0  0  0  0  0  0  0
   -5.8069   -3.8135   13.0465 C   0  0  1  0  0  0  0  0  0  0  0  0
   -6.3839   -4.9148   12.1080 C   0  0  1  0  0  0  0  0  0  0  0  0
   -7.3571   -5.8708   12.8598 C   0  0  2  0  0  0  0  0  0  0  0  0
   -8.3835   -3.7727   11.2648 C   0  0  0  0  0  0  0  0  0  0  0  0
   -4.7192   -3.4272   15.2584 O   0  0  0  0  0  0  0  0  0  0  0  0
   -6.7789   -6.3449   14.1147 O   0  0  0  0  0  0  0  0  0  0  0  0
   -4.2648   -5.5720   18.3340 N   0  0  0  0  0  0  0  0  0  0  0  0
   -7.0286   -4.2714   10.9446 N   0  0  0  0  0  0  0  0  0  0  0  0
   -6.7898   -2.8341   13.3567 O   0  0  0  0  0  0  0  0  0  0  0  0
   -7.7423   -6.9835   12.0006 O   0  0  0  0  0  0  0  0  0  0  0  0
   -2.7833   -4.3684   16.3255 O   0  0  0  0  0  0  0  0  0  0  0  0
   -9.1619   -7.2997   11.8645 C   0  0  2  0  0  0  0  0  0  0  0  0
   -9.4317   -8.7986   12.1795 C   0  0  1  0  0  0  0  0  0  0  0  0
   -8.8709   -9.7307   11.0675 C   0  0  2  0  0  0  0  0  0  0  0  0
   -9.3868   -9.3029    9.6630 C   0  0  1  0  0  0  0  0  0  0  0  0
   -9.1286   -7.7924    9.4035 C   0  0  1  0  0  0  0  0  0  0  0  0
   -9.7578   -7.3201    8.0666 C   0  0  0  0  0  0  0  0  0  0  0  0
   -9.6291   -6.9920   10.5171 O   0  0  0  0  0  0  0  0  0  0  0  0
   -8.8025  -10.1420    8.5938 N   0  0  0  0  0  0  0  0  0  0  0  0
   -8.9171   -9.1408   13.4652 O   0  0  0  0  0  0  0  0  0  0  0  0
   -9.1816  -11.0964   11.3352 O   0  0  0  0  0  0  0  0  0  0  0  0
   -9.4103   -5.9668    7.7927 O   0  0  0  0  0  0  0  0  0  0  0  0
   -1.7562   -3.4155   15.9243 C   0  0  1  0  0  0  0  0  0  0  0  0
   -2.3278   -2.2937   15.0127 C   0  0  1  0  0  0  0  0  0  0  0  0
   -1.2000   -1.3447   14.5180 C   0  0  2  0  0  0  0  0  0  0  0  0
   -0.3523   -0.7616   15.6950 C   0  0  1  0  0  0  0  0  0  0  0  0
    0.1213   -1.8533   16.7007 C   0  0  0  0  0  0  0  0  0  0  0  0
   -1.0348   -2.7949   17.1543 C   0  0  2  0  0  0  0  0  0  0  0  0
    0.7961    0.0149   15.1808 N   0  0  0  0  0  0  0  0  0  0  0  0
   -0.4945   -3.8295   18.0625 N   0  0  0  0  0  0  0  0  0  0  0  0
   -3.0404   -2.8490   13.9121 O   0  0  0  0  0  0  0  0  0  0  0  0
   -1.7464   -0.2917   13.7279 O   0  0  0  0  0  0  0  0  0  0  0  0
  1  2  1  0  0  0  0
  1 16  1  6  0  0  0
  2  3  1  0  0  0  0
  2 12  1  1  0  0  0
  4 11  1  6  0  0  0
  4  3  1  0  0  0  0
  5  4  1  0  0  0  0
  5 10  1  1  0  0  0
  6  7  1  0  0  0  0
  6  5  1  0  0  0  0
  6 14  1  1  0  0  0
  7  8  1  0  0  0  0
  7 13  1  6  0  0  0
  8 15  1  6  0  0  0
  8 11  1  0  0  0  0
  9 13  1  0  0  0  0
 10  1  1  0  0  0  0
 17 15  1  6  0  0  0
 17 18  1  0  0  0  0
 18 25  1  1  0  0  0
 19 18  1  0  0  0  0
 19 26  1  1  0  0  0
 20 19  1  0  0  0  0
 20 24  1  6  0  0  0
 21 23  1  0  0  0  0
 21 20  1  0  0  0  0
 21 22  1  6  0  0  0
 23 17  1  0  0  0  0
 27 22  1  0  0  0  0
 28 29  1  0  0  0  0
 28 16  1  1  0  0  0
 29 36  1  6  0  0  0
 30 37  1  1  0  0  0
 30 29  1  0  0  0  0
 31 30  1  0  0  0  0
 31 34  1  6  0  0  0
 32 31  1  0  0  0  0
 32 33  1  0  0  0  0
 33 28  1  0  0  0  0
 33 35  1  1  0  0  0
M  END
>  <CHROM.1>
-58.74765289,-129.92238008,-79.93240918,-55.98216683,-126.77191912,-167.42267580
63.88457362,63.29866010,-174.89591639,-76.69407783,-179.96876693,-33.68312573
-176.48353131,-113.13582448,-60.55125882,-26.32472736,-5.61465575,-5.14049758
13.45183099,0.09061728,0.81908097,2.21022296

>  <Name>
lig.pdb

>  <RI>
0

>  <Rbt.Current_Directory>
/home/afrankz/demos/rdock_decoys_rna/rnas/2m4q

>  <Rbt.Executable>
rbdock ($Id: //depot/dev/client3/rdock/2013.1/src/exe/rbdock.cxx#4 $)

>  <Rbt.Library>
libRbt.so (2013.1, Build901 2013/11/27)

>  <Rbt.Parameter_File>
/export/apps/rDock/src/rDock_2013.1_src/data/scripts/dock_solv.prm

>  <Rbt.Receptor>
prm/blind_docking_40.prm

>  <SCORE>
-9.57104

>  <SCORE.INTER>
-24.3013

>  <SCORE.INTER.CONST>
1

>  <SCORE.INTER.POLAR>
-4.13955

>  <SCORE.INTER.ROT>
10

>  <SCORE.INTER.SOLV>
23.5056

>  <SCORE.INTER.VDW>
-20.5042

>  <SCORE.INTER.norm>
-0.656791

>  <SCORE.INTRA>
0.0219519

>  <SCORE.INTRA.DIHEDRAL>
-17.1874

>  <SCORE.INTRA.DIHEDRAL.0>
44.8331

>  <SCORE.INTRA.POLAR>
0.0756778

>  <SCORE.INTRA.POLAR.0>
-0.108895

>  <SCORE.INTRA.REPUL>
0.113827

>  <SCORE.INTRA.REPUL.0>
0.00912235

>  <SCORE.INTRA.SOLV>
-0.313006

>  <SCORE.INTRA.SOLV.lig_0>
-53.9067

>  <SCORE.INTRA.VDW>
7.94573

>  <SCORE.INTRA.VDW.0>
-2.93492

>  <SCORE.INTRA.norm>
0.000593294

>  <SCORE.RESTR>
14.7083

>  <SCORE.RESTR.CAVITY>
14.7083

>  <SCORE.RESTR.norm>
0.397521

>  <SCORE.SYSTEM>
0

>  <SCORE.SYSTEM.CONST>
0

>  <SCORE.SYSTEM.DIHEDRAL>
0

>  <SCORE.SYSTEM.SOLV>
0

>  <SCORE.SYSTEM.norm>
0

>  <SCORE.heavy>
37

>  <SCORE.norm>
-0.258677

>  <RMSD>
16.286

$$$$
lig.pdb
 OpenBabel11021811453D
libRbt.so/2013.1/901 2013/11/27
 37 40  0  0  0  0  0  0  0  0999 V2000
  -16.3761    8.2787   10.5812 C   0  0  2  0  0  0  0  0  0  0  0  0
  -16.5720    6.7498   10.8480 C   0  0  1  0  0  0  0  0  0  0  0  0
  -15.6209    5.8510   10.0045 C   0  0  0  0  0  0  0  0  0  0  0  0
  -15.6448    6.2616    8.5113 C   0  0  1  0  0  0  0  0  0  0  0  0
  -15.2983    7.7609    8.3721 C   0  0  1  0  0  0  0  0  0  0  0  0
  -15.2690    8.1896    6.8805 C   0  0  1  0  0  0  0  0  0  0  0  0
  -14.3228    7.2668    6.0559 C   0  0  1  0  0  0  0  0  0  0  0  0
  -14.6400    5.7581    6.2782 C   0  0  2  0  0  0  0  0  0  0  0  0
  -13.2836    7.0759    3.8429 C   0  0  0  0  0  0  0  0  0  0  0  0
  -16.2242    8.5695    9.1538 O   0  0  0  0  0  0  0  0  0  0  0  0
  -14.7580    5.4396    7.6989 O   0  0  0  0  0  0  0  0  0  0  0  0
  -16.3780    6.4650   12.2864 N   0  0  0  0  0  0  0  0  0  0  0  0
  -14.3995    7.6443    4.6294 N   0  0  0  0  0  0  0  0  0  0  0  0
  -16.5773    8.2147    6.3245 O   0  0  0  0  0  0  0  0  0  0  0  0
  -13.6336    4.9258    5.6309 O   0  0  0  0  0  0  0  0  0  0  0  0
  -15.2397    8.8044   11.3327 O   0  0  0  0  0  0  0  0  0  0  0  0
  -12.6080    4.2995    6.4615 C   0  0  2  0  0  0  0  0  0  0  0  0
  -11.7853    3.2632    5.6443 C   0  0  1  0  0  0  0  0  0  0  0  0
  -12.6255    1.9983    5.3066 C   0  0  2  0  0  0  0  0  0  0  0  0
  -13.2659    1.3907    6.5882 C   0  0  1  0  0  0  0  0  0  0  0  0
  -14.0484    2.4665    7.3919 C   0  0  1  0  0  0  0  0  0  0  0  0
  -14.5773    1.9096    8.7396 C   0  0  0  0  0  0  0  0  0  0  0  0
  -13.2129    3.6427    7.6152 O   0  0  0  0  0  0  0  0  0  0  0  0
  -14.1224    0.2284    6.2657 N   0  0  0  0  0  0  0  0  0  0  0  0
  -11.2437    3.8667    4.4708 O   0  0  0  0  0  0  0  0  0  0  0  0
  -11.8414    1.0289    4.6146 O   0  0  0  0  0  0  0  0  0  0  0  0
  -14.7797    2.9609    9.6783 O   0  0  0  0  0  0  0  0  0  0  0  0
  -15.2234   10.2319   11.6257 C   0  0  1  0  0  0  0  0  0  0  0  0
  -15.5570   10.5237   13.1156 C   0  0  1  0  0  0  0  0  0  0  0  0
  -15.6296   12.0533   13.3843 C   0  0  2  0  0  0  0  0  0  0  0  0
  -14.3382   12.8023   12.9204 C   0  0  1  0  0  0  0  0  0  0  0  0
  -13.9042   12.4238   11.4726 C   0  0  0  0  0  0  0  0  0  0  0  0
  -13.8649   10.8833   11.2402 C   0  0  2  0  0  0  0  0  0  0  0  0
  -14.5023   14.2654   13.0558 N   0  0  0  0  0  0  0  0  0  0  0  0
  -13.4965   10.6105    9.8341 N   0  0  0  0  0  0  0  0  0  0  0  0
  -16.7710    9.8849   13.4975 O   0  0  0  0  0  0  0  0  0  0  0  0
  -15.8832   12.3049   14.7642 O   0  0  0  0  0  0  0  0  0  0  0  0
  1  2  1  0  0  0  0
  1 16  1  1  0  0  0
  2  3  1  0  0  0  0
  2 12  1  1  0  0  0
  4 11  1  6  0  0  0
  4  3  1  0  0  0  0
  5  4  1  0  0  0  0
  5 10  1  1  0  0  0
  6  7  1  0  0  0  0
  6  5  1  0  0  0  0
  6 14  1  6  0  0  0
  7  8  1  0  0  0  0
  7 13  1  6  0  0  0
  8 15  1  1  0  0  0
  8 11  1  0  0  0  0
  9 13  1  0  0  0  0
 10  1  1  0  0  0  0
 17 15  1  6  0  0  0
 17 18  1  0  0  0  0
 18 25  1  6  0  0  0
 19 18  1  0  0  0  0
 19 26  1  1  0  0  0
 20 19  1  0  0  0  0
 20 24  1  6  0  0  0
 21 23  1  0  0  0  0
 21 20  1  0  0  0  0
 21 22  1  1  0  0  0
 23 17  1  0  0  0  0
 27 22  1  0  0  0  0
 28 29  1  0  0  0  0
 28 16  1  1  0  0  0
 29 36  1  6  0  0  0
 30 37  1  1  0  0  0
 30 29  1  0  0  0  0
 31 30  1  0  0  0  0
 31 34  1  6  0  0  0
 32 31  1  0  0  0  0
 32 33  1  0  0  0  0
 33 28  1  0  0  0  0
 33 35  1  6  0  0  0
M  END
>  <CHROM.1>
79.77951379,103.12056757,164.66276983,-53.29638131,170.05245751,-156.38657962
-53.46490222,-57.88195045,155.78246702,57.47725844,-70.07057239,105.53907345
61.85171285,66.49589380,-176.64724845,-167.86504878,-14.52475602,6.90815253
8.81078741,2.17152724,1.22540990,0.09549970

>  <Name>
lig.pdb

>  <RI>
0

>  <Rbt.Current_Directory>
/home/itssahil/PROJECTS/Mol_Feturizer/New_Systems/rnas/2m4q

>  <Rbt.Executable>
rbdock ($Id: //depot/dev/client3/rdock/2013.1/src/exe/rbdock.cxx#4 $)

>  <Rbt.Library>
libRbt.so (2013.1, Build901 2013/11/27)

>  <Rbt.Parameter_File>
/export/apps/rDock/src/rDock_2013.1_src/data/scripts/dock_solv.prm

>  <Rbt.Receptor>
prm/blind_docking_60.prm

>  <SCORE>
-8.81368

>  <SCORE.INTER>
-13.4934

>  <SCORE.INTER.CONST>
1

>  <SCORE.INTER.POLAR>
-3.28218

>  <SCORE.INTER.ROT>
10

>  <SCORE.INTER.SOLV>
17.4637

>  <SCORE.INTER.VDW>
-14.1429

>  <SCORE.INTER.norm>
-0.364685

>  <SCORE.INTRA>
-11.9913

>  <SCORE.INTRA.DIHEDRAL>
-25.0346

>  <SCORE.INTRA.DIHEDRAL.0>
44.8331

>  <SCORE.INTRA.POLAR>
-0.117475

>  <SCORE.INTRA.POLAR.0>
-0.108895

>  <SCORE.INTRA.REPUL>
-0.00912235

>  <SCORE.INTRA.REPUL.0>
0.00912235

>  <SCORE.INTRA.SOLV>
-0.337884

>  <SCORE.INTRA.SOLV.lig_0>
-53.9067

>  <SCORE.INTRA.VDW>
1.13993

>  <SCORE.INTRA.VDW.0>
-2.93492

>  <SCORE.INTRA.norm>
-0.32409

>  <SCORE.RESTR>
16.671

>  <SCORE.RESTR.CAVITY>
16.671

>  <SCORE.RESTR.norm>
0.450568

>  <SCORE.SYSTEM>
0

>  <SCORE.SYSTEM.CONST>
0

>  <SCORE.SYSTEM.DIHEDRAL>
0

>  <SCORE.SYSTEM.SOLV>
0

>  <SCORE.SYSTEM.norm>
0

>  <SCORE.heavy>
37

>  <SCORE.norm>
-0.238207

>  <RMSD>
16.315

$$$$
lig.pdb
 OpenBabel11021811453D
libRbt.so/2013.1/901 2013/11/27
 37 40  0  0  0  0  0  0  0  0999 V2000
   -4.2653   -3.1253   15.6553 C   0  0  2  0  0  0  0  0  0  0  0  0
   -4.8827   -4.3328   16.4350 C   0  0  1  0  0  0  0  0  0  0  0  0
   -5.4195   -5.4578   15.5024 C   0  0  0  0  0  0  0  0  0  0  0  0
   -6.3188   -4.8737   14.3849 C   0  0  1  0  0  0  0  0  0  0  0  0
   -5.5457   -3.7909   13.5993 C   0  0  1  0  0  0  0  0  0  0  0  0
   -6.4082   -3.2204   12.4416 C   0  0  1  0  0  0  0  0  0  0  0  0
   -6.9450   -4.3657   11.5323 C   0  0  1  0  0  0  0  0  0  0  0  0
   -7.6474   -5.4848   12.3573 C   0  0  2  0  0  0  0  0  0  0  0  0
   -8.1276   -4.7519    9.4190 C   0  0  0  0  0  0  0  0  0  0  0  0
   -5.0824   -2.7447   14.5009 O   0  0  0  0  0  0  0  0  0  0  0  0
   -6.8306   -5.9055   13.4929 O   0  0  0  0  0  0  0  0  0  0  0  0
   -3.8771   -4.8947   17.3628 N   0  0  0  0  0  0  0  0  0  0  0  0
   -7.8387   -3.7911   10.5055 N   0  0  0  0  0  0  0  0  0  0  0  0
   -7.4702   -2.4152   12.9370 O   0  0  0  0  0  0  0  0  0  0  0  0
   -7.9834   -6.6144   11.4995 O   0  0  0  0  0  0  0  0  0  0  0  0
   -2.8952   -3.4109   15.2387 O   0  0  0  0  0  0  0  0  0  0  0  0
   -9.3705   -7.0709   11.4600 C   0  0  2  0  0  0  0  0  0  0  0  0
   -9.4867   -8.5433   11.9472 C   0  0  1  0  0  0  0  0  0  0  0  0
   -8.8772   -9.5395   10.9197 C   0  0  2  0  0  0  0  0  0  0  0  0
   -9.4773   -9.3202    9.5006 C   0  0  1  0  0  0  0  0  0  0  0  0
   -9.3719   -7.8312    9.0679 C   0  0  1  0  0  0  0  0  0  0  0  0
  -10.0867   -7.5705    7.7161 C   0  0  0  0  0  0  0  0  0  0  0  0
   -9.9089   -6.9595   10.1087 O   0  0  0  0  0  0  0  0  0  0  0  0
   -8.8519  -10.2176    8.5046 N   0  0  0  0  0  0  0  0  0  0  0  0
   -8.8999   -8.6914   13.2389 O   0  0  0  0  0  0  0  0  0  0  0  0
   -9.0482  -10.8891   11.3472 O   0  0  0  0  0  0  0  0  0  0  0  0
   -9.6178   -6.3662    7.1184 O   0  0  0  0  0  0  0  0  0  0  0  0
   -1.8301   -2.5957   15.8088 C   0  0  1  0  0  0  0  0  0  0  0  0
   -0.8532   -3.4386   16.6757 C   0  0  1  0  0  0  0  0  0  0  0  0
    0.2171   -2.5360   17.3518 C   0  0  2  0  0  0  0  0  0  0  0  0
    0.9792   -1.6407   16.3215 C   0  0  1  0  0  0  0  0  0  0  0  0
    0.0234   -0.8864   15.3493 C   0  0  0  0  0  0  0  0  0  0  0  0
   -1.0458   -1.8230   14.7105 C   0  0  2  0  0  0  0  0  0  0  0  0
    1.8807   -0.6949   17.0134 N   0  0  0  0  0  0  0  0  0  0  0  0
   -1.9412   -1.0242   13.8458 N   0  0  0  0  0  0  0  0  0  0  0  0
   -1.5645   -4.1958   17.6495 O   0  0  0  0  0  0  0  0  0  0  0  0
    1.1363   -3.3284   18.0993 O   0  0  0  0  0  0  0  0  0  0  0  0
  1  2  1  0  0  0  0
  1 16  1  6  0  0  0
  2  3  1  0  0  0  0
  2 12  1  1  0  0  0
  4 11  1  6  0  0  0
  4  3  1  0  0  0  0
  5  4  1  0  0  0  0
  5 10  1  1  0  0  0
  6  7  1  0  0  0  0
  6  5  1  0  0  0  0
  6 14  1  1  0  0  0
  7  8  1  0  0  0  0
  7 13  1  6  0  0  0
  8 15  1  6  0  0  0
  8 11  1  0  0  0  0
  9 13  1  0  0  0  0
 10  1  1  0  0  0  0
 17 15  1  6  0  0  0
 17 18  1  0  0  0  0
 18 25  1  1  0  0  0
 19 18  1  0  0  0  0
 19 26  1  1  0  0  0
 20 19  1  0  0  0  0
 20 24  1  6  0  0  0
 21 23  1  0  0  0  0
 21 20  1  0  0  0  0
 21 22  1  6  0  0  0
 23 17  1  0  0  0  0
 27 22  1  0  0  0  0
 28 29  1  0  0  0  0
 28 16  1  6  0  0  0
 29 36  1  1  0  0  0
 30 37  1  6  0  0  0
 30 29  1  0  0  0  0
 31 30  1  0  0  0  0
 31 34  1  1  0  0  0
 32 31  1  0  0  0  0
 32 33  1  0  0  0  0
 33 28  1  0  0  0  0
 33 35  1  1  0  0  0
M  END
>  <CHROM.1>
-71.01722807,-124.95461880,166.30544933,64.00606488,-118.82617919,-115.63558105
-66.60614278,67.89595360,-160.38062711,-65.13390667,139.47160954,116.21341027
-50.42362310,78.71488713,-161.07264733,-38.68758759,-5.50999646,-5.00777257
13.24873856,-0.05154101,0.78566955,2.51233781

>  <Name>
lig.pdb

>  <RI>
0

>  <Rbt.Current_Directory>
/home/afrankz/demos/rdock_decoys_rna/rnas/2m4q

>  <Rbt.Executable>
rbdock ($Id: //depot/dev/client3/rdock/2013.1/src/exe/rbdock.cxx#4 $)

>  <Rbt.Library>
libRbt.so (2013.1, Build901 2013/11/27)

>  <Rbt.Parameter_File>
/export/apps/rDock/src/rDock_2013.1_src/data/scripts/dock_solv.prm

>  <Rbt.Receptor>
prm/blind_docking_40.prm

>  <SCORE>
-20.5664

>  <SCORE.INTER>
-34.8001

>  <SCORE.INTER.CONST>
1

>  <SCORE.INTER.POLAR>
-6.82086

>  <SCORE.INTER.ROT>
10

>  <SCORE.INTER.SOLV>
22.3835

>  <SCORE.INTER.VDW>
-18.1917

>  <SCORE.INTER.norm>
-0.940544

>  <SCORE.INTRA>
-0.72242

>  <SCORE.INTRA.DIHEDRAL>
-4.81972

>  <SCORE.INTRA.DIHEDRAL.0>
44.8331

>  <SCORE.INTRA.POLAR>
0.107406

>  <SCORE.INTRA.POLAR.0>
-0.108895

>  <SCORE.INTRA.REPUL>
-0.00912235

>  <SCORE.INTRA.REPUL.0>
0.00912235

>  <SCORE.INTRA.SOLV>
-0.265996

>  <SCORE.INTRA.SOLV.lig_0>
-53.9067

>  <SCORE.INTRA.VDW>
1.50087

>  <SCORE.INTRA.VDW.0>
-2.93492

>  <SCORE.INTRA.norm>
-0.0195249

>  <SCORE.RESTR>
14.9562

>  <SCORE.RESTR.CAVITY>
14.9562

>  <SCORE.RESTR.norm>
0.404221

>  <SCORE.SYSTEM>
0

>  <SCORE.SYSTEM.CONST>
0

>  <SCORE.SYSTEM.DIHEDRAL>
0

>  <SCORE.SYSTEM.SOLV>
0

>  <SCORE.SYSTEM.norm>
0

>  <SCORE.heavy>
37

>  <SCORE.norm>
-0.555848

>  <RMSD>
16.319

$$$$
lig.pdb
 OpenBabel11021811453D
libRbt.so/2013.1/901 2013/11/27
 37 40  0  0  0  0  0  0  0  0999 V2000
  -14.8783    9.4156    8.6278 C   0  0  2  0  0  0  0  0  0  0  0  0
  -16.2735    8.7806    8.3157 C   0  0  1  0  0  0  0  0  0  0  0  0
  -16.2174    7.2370    8.1210 C   0  0  0  0  0  0  0  0  0  0  0  0
  -15.0853    6.8394    7.1417 C   0  0  1  0  0  0  0  0  0  0  0  0
  -13.7371    7.4094    7.6366 C   0  0  1  0  0  0  0  0  0  0  0  0
  -12.5754    6.9864    6.6979 C   0  0  1  0  0  0  0  0  0  0  0  0
  -12.5499    5.4405    6.5076 C   0  0  1  0  0  0  0  0  0  0  0  0
  -13.9421    4.8812    6.0890 C   0  0  2  0  0  0  0  0  0  0  0  0
  -10.1577    5.0289    6.1586 C   0  0  0  0  0  0  0  0  0  0  0  0
  -13.8215    8.8564    7.7818 O   0  0  0  0  0  0  0  0  0  0  0  0
  -15.0064    5.3981    6.9456 O   0  0  0  0  0  0  0  0  0  0  0  0
  -17.2256    9.1102    9.3985 N   0  0  0  0  0  0  0  0  0  0  0  0
  -11.4964    5.0892    5.5330 N   0  0  0  0  0  0  0  0  0  0  0  0
  -12.6514    7.6583    5.4471 O   0  0  0  0  0  0  0  0  0  0  0  0
  -13.9252    3.4237    6.0866 O   0  0  0  0  0  0  0  0  0  0  0  0
  -14.5343    9.2667   10.0392 O   0  0  0  0  0  0  0  0  0  0  0  0
  -13.3602    2.7315    7.2423 C   0  0  2  0  0  0  0  0  0  0  0  0
  -14.1069    1.3940    7.5108 C   0  0  1  0  0  0  0  0  0  0  0  0
  -15.5438    1.6361    8.0554 C   0  0  2  0  0  0  0  0  0  0  0  0
  -15.5240    2.5796    9.2929 C   0  0  1  0  0  0  0  0  0  0  0  0
  -14.7393    3.8871    8.9924 C   0  0  1  0  0  0  0  0  0  0  0  0
  -14.5936    4.7765   10.2550 C   0  0  0  0  0  0  0  0  0  0  0  0
  -13.4285    3.5761    8.4299 O   0  0  0  0  0  0  0  0  0  0  0  0
  -16.8927    2.8696    9.7736 N   0  0  0  0  0  0  0  0  0  0  0  0
  -14.1160    0.5813    6.3386 O   0  0  0  0  0  0  0  0  0  0  0  0
  -16.1939    0.4038    8.3590 O   0  0  0  0  0  0  0  0  0  0  0  0
  -15.8358    5.3849   10.5929 O   0  0  0  0  0  0  0  0  0  0  0  0
  -14.7974   10.3951   10.9231 C   0  0  1  0  0  0  0  0  0  0  0  0
  -15.4789    9.9501   12.2474 C   0  0  1  0  0  0  0  0  0  0  0  0
  -15.8381   11.1768   13.1324 C   0  0  2  0  0  0  0  0  0  0  0  0
  -14.6068   12.1035   13.3953 C   0  0  1  0  0  0  0  0  0  0  0  0
  -13.8241   12.4561   12.0950 C   0  0  0  0  0  0  0  0  0  0  0  0
  -13.5031   11.2016   11.2278 C   0  0  2  0  0  0  0  0  0  0  0  0
  -15.0161   13.3298   14.1128 N   0  0  0  0  0  0  0  0  0  0  0  0
  -12.8087   11.6260    9.9930 N   0  0  0  0  0  0  0  0  0  0  0  0
  -16.6347    9.1618   11.9824 O   0  0  0  0  0  0  0  0  0  0  0  0
  -16.4130   10.7502   14.3650 O   0  0  0  0  0  0  0  0  0  0  0  0
  1  2  1  0  0  0  0
  1 16  1  1  0  0  0
  2  3  1  0  0  0  0
  2 12  1  1  0  0  0
  4 11  1  1  0  0  0
  4  3  1  0  0  0  0
  5  4  1  0  0  0  0
  5 10  1  6  0  0  0
  6  7  1  0  0  0  0
  6  5  1  0  0  0  0
  6 14  1  6  0  0  0
  7  8  1  0  0  0  0
  7 13  1  6  0  0  0
  8 15  1  1  0  0  0
  8 11  1  0  0  0  0
  9 13  1  0  0  0  0
 10  1  1  0  0  0  0
 17 15  1  6  0  0  0
 17 18  1  0  0  0  0
 18 25  1  6  0  0  0
 19 18  1  0  0  0  0
 19 26  1  1  0  0  0
 20 19  1  0  0  0  0
 20 24  1  6  0  0  0
 21 23  1  0  0  0  0
 21 20  1  0  0  0  0
 21 22  1  1  0  0  0
 23 17  1  0  0  0  0
 27 22  1  0  0  0  0
 28 29  1  0  0  0  0
 28 16  1  6  0  0  0
 29 36  1  6  0  0  0
 30 37  1  1  0  0  0
 30 29  1  0  0  0  0
 31 30  1  0  0  0  0
 31 34  1  6  0  0  0
 32 31  1  0  0  0  0
 32 33  1  0  0  0  0
 33 28  1  0  0  0  0
 33 35  1  6  0  0  0
M  END
>  <CHROM.1>
-81.41827736,47.66191598,82.13330714,-171.65983885,146.36719906,-97.39871272
-177.52673259,-174.16554984,-72.58094547,79.17795793,-175.70087454,134.49109462
-64.33051074,-63.01618892,63.51523866,10.35384711,-14.55078700,6.80312133
9.06049772,-1.72385847,-0.87040643,-2.72516303

>  <Name>
lig.pdb

>  <RI>
0

>  <Rbt.Current_Directory>
/home/itssahil/PROJECTS/Mol_Feturizer/New_Systems/rnas/2m4q

>  <Rbt.Executable>
rbdock ($Id: //depot/dev/client3/rdock/2013.1/src/exe/rbdock.cxx#4 $)

>  <Rbt.Library>
libRbt.so (2013.1, Build901 2013/11/27)

>  <Rbt.Parameter_File>
/export/apps/rDock/src/rDock_2013.1_src/data/scripts/dock_solv.prm

>  <Rbt.Receptor>
prm/blind_docking_60.prm

>  <SCORE>
-2.60369

>  <SCORE.INTER>
-2.63041

>  <SCORE.INTER.CONST>
1

>  <SCORE.INTER.POLAR>
-1.59335

>  <SCORE.INTER.ROT>
10

>  <SCORE.INTER.SOLV>
16.8937

>  <SCORE.INTER.VDW>
-12.3404

>  <SCORE.INTER.norm>
-0.0710922

>  <SCORE.INTRA>
-14.1246

>  <SCORE.INTRA.DIHEDRAL>
-22.9186

>  <SCORE.INTRA.DIHEDRAL.0>
44.8331

>  <SCORE.INTRA.POLAR>
-1.2042

>  <SCORE.INTRA.POLAR.0>
-0.108895

>  <SCORE.INTRA.REPUL>
-0.00912235

>  <SCORE.INTRA.REPUL.0>
0.00912235

>  <SCORE.INTRA.SOLV>
1.86711

>  <SCORE.INTRA.SOLV.lig_0>
-53.9067

>  <SCORE.INTRA.VDW>
0.541014

>  <SCORE.INTRA.VDW.0>
-2.93492

>  <SCORE.INTRA.norm>
-0.381746

>  <SCORE.RESTR>
14.1513

>  <SCORE.RESTR.CAVITY>
14.1513

>  <SCORE.RESTR.norm>
0.382468

>  <SCORE.SYSTEM>
0

>  <SCORE.SYSTEM.CONST>
0

>  <SCORE.SYSTEM.DIHEDRAL>
0

>  <SCORE.SYSTEM.SOLV>
0

>  <SCORE.SYSTEM.norm>
0

>  <SCORE.heavy>
37

>  <SCORE.norm>
-0.07037

>  <RMSD>
16.357

$$$$
lig.pdb
 OpenBabel11021811453D
libRbt.so/2013.1/901 2013/11/27
 37 40  0  0  0  0  0  0  0  0999 V2000
  -12.1542    4.4717    5.3481 C   0  0  2  0  0  0  0  0  0  0  0  0
  -12.1535    5.8681    4.6431 C   0  0  1  0  0  0  0  0  0  0  0  0
  -11.9877    7.0576    5.6338 C   0  0  0  0  0  0  0  0  0  0  0  0
  -12.9662    6.9292    6.8276 C   0  0  1  0  0  0  0  0  0  0  0  0
  -12.7699    5.5642    7.5245 C   0  0  1  0  0  0  0  0  0  0  0  0
  -13.7065    5.4273    8.7548 C   0  0  1  0  0  0  0  0  0  0  0  0
  -13.5326    6.6357    9.7224 C   0  0  1  0  0  0  0  0  0  0  0  0
  -13.6528    7.9997    8.9799 C   0  0  2  0  0  0  0  0  0  0  0  0
  -15.8097    7.1331   10.4849 C   0  0  0  0  0  0  0  0  0  0  0  0
  -12.9579    4.4777    6.5725 O   0  0  0  0  0  0  0  0  0  0  0  0
  -12.8282    8.0275    7.7745 O   0  0  0  0  0  0  0  0  0  0  0  0
  -11.0791    5.9144    3.6277 N   0  0  0  0  0  0  0  0  0  0  0  0
  -14.5087    6.5180   10.8254 N   0  0  0  0  0  0  0  0  0  0  0  0
  -15.0633    5.2770    8.3569 O   0  0  0  0  0  0  0  0  0  0  0  0
  -13.3170    9.0986    9.8767 O   0  0  0  0  0  0  0  0  0  0  0  0
  -10.7939    4.0234    5.6328 O   0  0  0  0  0  0  0  0  0  0  0  0
  -13.6440   10.4607    9.4625 C   0  0  2  0  0  0  0  0  0  0  0  0
  -13.2909   11.4829   10.5801 C   0  0  1  0  0  0  0  0  0  0  0  0
  -14.2554   11.3639   11.7948 C   0  0  2  0  0  0  0  0  0  0  0  0
  -15.7419   11.4482   11.3422 C   0  0  1  0  0  0  0  0  0  0  0  0
  -16.0424   10.4356   10.2021 C   0  0  1  0  0  0  0  0  0  0  0  0
  -17.4814   10.6011    9.6468 C   0  0  0  0  0  0  0  0  0  0  0  0
  -15.0603   10.5699    9.1302 O   0  0  0  0  0  0  0  0  0  0  0  0
  -16.6657   11.2663   12.4833 N   0  0  0  0  0  0  0  0  0  0  0  0
  -11.9267   11.3446   10.9729 O   0  0  0  0  0  0  0  0  0  0  0  0
  -13.9624   12.3489   12.7834 O   0  0  0  0  0  0  0  0  0  0  0  0
  -17.5477   11.6835    8.7241 O   0  0  0  0  0  0  0  0  0  0  0  0
   -9.9441    3.6767    4.5007 C   0  0  1  0  0  0  0  0  0  0  0  0
   -8.5884    4.4364    4.5370 C   0  0  1  0  0  0  0  0  0  0  0  0
   -7.7386    4.1266    3.2725 C   0  0  2  0  0  0  0  0  0  0  0  0
   -7.5392    2.5923    3.0491 C   0  0  1  0  0  0  0  0  0  0  0  0
   -8.8702    1.7875    3.1421 C   0  0  0  0  0  0  0  0  0  0  0  0
   -9.7002    2.1434    4.4122 C   0  0  2  0  0  0  0  0  0  0  0  0
   -6.8555    2.3331    1.7640 N   0  0  0  0  0  0  0  0  0  0  0  0
  -10.9662    1.3789    4.3986 N   0  0  0  0  0  0  0  0  0  0  0  0
   -8.7966    5.8382    4.6755 O   0  0  0  0  0  0  0  0  0  0  0  0
   -6.4779    4.7876    3.3458 O   0  0  0  0  0  0  0  0  0  0  0  0
  1  2  1  0  0  0  0
  1 16  1  1  0  0  0
  2  3  1  0  0  0  0
  2 12  1  6  0  0  0
  4 11  1  1  0  0  0
  4  3  1  0  0  0  0
  5  4  1  0  0  0  0
  5 10  1  6  0  0  0
  6  7  1  0  0  0  0
  6  5  1  0  0  0  0
  6 14  1  6  0  0  0
  7  8  1  0  0  0  0
  7 13  1  1  0  0  0
  8 15  1  1  0  0  0
  8 11  1  0  0  0  0
  9 13  1  0  0  0  0
 10  1  1  0  0  0  0
 17 15  1  1  0  0  0
 17 18  1  0  0  0  0
 18 25  1  1  0  0  0
 19 18  1  0  0  0  0
 19 26  1  1  0  0  0
 20 19  1  0  0  0  0
 20 24  1  1  0  0  0
 21 23  1  0  0  0  0
 21 20  1  0  0  0  0
 21 22  1  6  0  0  0
 23 17  1  0  0  0  0
 27 22  1  0  0  0  0
 28 29  1  0  0  0  0
 28 16  1  1  0  0  0
 29 36  1  6  0  0  0
 30 37  1  1  0  0  0
 30 29  1  0  0  0  0
 31 30  1  0  0  0  0
 31 34  1  6  0  0  0
 32 31  1  0  0  0  0
 32 33  1  0  0  0  0
 33 28  1  0  0  0  0
 33 35  1  6  0  0  0
M  END
>  <CHROM.1>
-106.86335692,-166.98717912,-87.24839888,-58.69069960,176.55473796,-68.24523582
20.43237016,-173.48761461,80.47187678,-156.69032748,-57.30841828,126.90422850
85.03285908,61.92407972,-168.22639880,-24.11554311,-12.44933154,6.96925154
7.44935609,0.94172867,-0.45126320,-2.67481788

>  <Name>
lig.pdb

>  <RI>
0

>  <Rbt.Current_Directory>
/home/afrankz/demos/rdock_decoys_rna/rnas/2m4q

>  <Rbt.Executable>
rbdock ($Id: //depot/dev/client3/rdock/2013.1/src/exe/rbdock.cxx#4 $)

>  <Rbt.Library>
libRbt.so (2013.1, Build901 2013/11/27)

>  <Rbt.Parameter_File>
/export/apps/rDock/src/rDock_2013.1_src/data/scripts/dock_solv.prm

>  <Rbt.Receptor>
prm/blind_docking_80.prm

>  <SCORE>
-22.7916

>  <SCORE.INTER>
-37.5853

>  <SCORE.INTER.CONST>
1

>  <SCORE.INTER.POLAR>
-7.187

>  <SCORE.INTER.ROT>
10

>  <SCORE.INTER.SOLV>
27.3674

>  <SCORE.INTER.VDW>
-20.4893

>  <SCORE.INTER.norm>
-1.01582

>  <SCORE.INTRA>
-6.48869

>  <SCORE.INTRA.DIHEDRAL>
-21.0903

>  <SCORE.INTRA.DIHEDRAL.0>
44.8331

>  <SCORE.INTRA.POLAR>
-0.348855

>  <SCORE.INTRA.POLAR.0>
-0.108895

>  <SCORE.INTRA.REPUL>
-0.00912235

>  <SCORE.INTRA.REPUL.0>
0.00912235

>  <SCORE.INTRA.SOLV>
-0.299965

>  <SCORE.INTRA.SOLV.lig_0>
-53.9067

>  <SCORE.INTRA.VDW>
5.43816

>  <SCORE.INTRA.VDW.0>
-2.93492

>  <SCORE.INTRA.norm>
-0.17537

>  <SCORE.RESTR>
21.2824

>  <SCORE.RESTR.CAVITY>
21.2824

>  <SCORE.RESTR.norm>
0.575199

>  <SCORE.SYSTEM>
0

>  <SCORE.SYSTEM.CONST>
0

>  <SCORE.SYSTEM.DIHEDRAL>
0

>  <SCORE.SYSTEM.SOLV>
0

>  <SCORE.SYSTEM.norm>
0

>  <SCORE.heavy>
37

>  <SCORE.norm>
-0.61599

>  <RMSD>
16.373

$$$$
lig.pdb
 OpenBabel11021811453D
libRbt.so/2013.1/901 2013/11/27
 37 40  0  0  0  0  0  0  0  0999 V2000
  -11.8866    4.3226    5.3933 C   0  0  2  0  0  0  0  0  0  0  0  0
  -11.6463    5.6933    4.6785 C   0  0  1  0  0  0  0  0  0  0  0  0
  -11.5909    6.8988    5.6621 C   0  0  0  0  0  0  0  0  0  0  0  0
  -12.7904    6.8746    6.6417 C   0  0  1  0  0  0  0  0  0  0  0  0
  -12.8342    5.5217    7.3867 C   0  0  1  0  0  0  0  0  0  0  0  0
  -14.0005    5.4872    8.4105 C   0  0  1  0  0  0  0  0  0  0  0  0
  -13.9313    6.7104    9.3727 C   0  0  1  0  0  0  0  0  0  0  0  0
  -13.8043    8.0557    8.5979 C   0  0  2  0  0  0  0  0  0  0  0  0
  -15.2663    5.3958   10.9548 C   0  0  0  0  0  0  0  0  0  0  0  0
  -12.9113    4.4215    6.4350 O   0  0  0  0  0  0  0  0  0  0  0  0
  -12.7603    7.9898    7.5783 O   0  0  0  0  0  0  0  0  0  0  0  0
  -10.3938    5.6346    3.8941 N   0  0  0  0  0  0  0  0  0  0  0  0
  -15.1099    6.6938   10.2636 N   0  0  0  0  0  0  0  0  0  0  0  0
  -15.2606    5.4175    7.7557 O   0  0  0  0  0  0  0  0  0  0  0  0
  -13.5709    9.1564    9.5244 O   0  0  0  0  0  0  0  0  0  0  0  0
  -10.6444    3.7917    5.9481 O   0  0  0  0  0  0  0  0  0  0  0  0
  -14.5182   10.2683    9.5382 C   0  0  2  0  0  0  0  0  0  0  0  0
  -13.9684   11.4584   10.3749 C   0  0  1  0  0  0  0  0  0  0  0  0
  -13.9559   11.1354   11.8965 C   0  0  2  0  0  0  0  0  0  0  0  0
  -15.3530   10.6480   12.3788 C   0  0  1  0  0  0  0  0  0  0  0  0
  -15.8796    9.4829   11.4952 C   0  0  1  0  0  0  0  0  0  0  0  0
  -17.3274    9.0773   11.8769 C   0  0  0  0  0  0  0  0  0  0  0  0
  -15.8028    9.8411   10.0820 O   0  0  0  0  0  0  0  0  0  0  0  0
  -15.3304   10.2731   13.8097 N   0  0  0  0  0  0  0  0  0  0  0  0
  -12.6782   11.8465    9.9064 O   0  0  0  0  0  0  0  0  0  0  0  0
  -13.5118   12.2566   12.6574 O   0  0  0  0  0  0  0  0  0  0  0  0
  -17.4044    8.7028   13.2484 O   0  0  0  0  0  0  0  0  0  0  0  0
   -9.6095    3.3717    5.0118 C   0  0  1  0  0  0  0  0  0  0  0  0
  -10.1590    2.3896    3.9396 C   0  0  1  0  0  0  0  0  0  0  0  0
   -9.0209    1.8792    3.0116 C   0  0  2  0  0  0  0  0  0  0  0  0
   -8.2080    3.0484    2.3665 C   0  0  1  0  0  0  0  0  0  0  0  0
   -7.7591    4.1203    3.4044 C   0  0  0  0  0  0  0  0  0  0  0  0
   -8.9244    4.5884    4.3272 C   0  0  2  0  0  0  0  0  0  0  0  0
   -7.0481    2.5277    1.6117 N   0  0  0  0  0  0  0  0  0  0  0  0
   -8.4064    5.5620    5.3127 N   0  0  0  0  0  0  0  0  0  0  0  0
  -10.8391    1.2990    4.5526 O   0  0  0  0  0  0  0  0  0  0  0  0
   -9.5483    1.0224    2.0019 O   0  0  0  0  0  0  0  0  0  0  0  0
  1  2  1  0  0  0  0
  1 16  1  1  0  0  0
  2  3  1  0  0  0  0
  2 12  1  1  0  0  0
  4 11  1  1  0  0  0
  4  3  1  0  0  0  0
  5  4  1  0  0  0  0
  5 10  1  6  0  0  0
  6  7  1  0  0  0  0
  6  5  1  0  0  0  0
  6 14  1  6  0  0  0
  7  8  1  0  0  0  0
  7 13  1  6  0  0  0
  8 15  1  1  0  0  0
  8 11  1  0  0  0  0
  9 13  1  0  0  0  0
 10  1  1  0  0  0  0
 17 15  1  1  0  0  0
 17 18  1  0  0  0  0
 18 25  1  6  0  0  0
 19 18  1  0  0  0  0
 19 26  1  1  0  0  0
 20 19  1  0  0  0  0
 20 24  1  1  0  0  0
 21 23  1  0  0  0  0
 21 20  1  0  0  0  0
 21 22  1  1  0  0  0
 23 17  1  0  0  0  0
 27 22  1  0  0  0  0
 28 29  1  0  0  0  0
 28 16  1  6  0  0  0
 29 36  1  1  0  0  0
 30 37  1  6  0  0  0
 30 29  1  0  0  0  0
 31 30  1  0  0  0  0
 31 34  1  1  0  0  0
 32 31  1  0  0  0  0
 32 33  1  0  0  0  0
 33 28  1  0  0  0  0
 33 35  1  1  0  0  0
M  END
>  <CHROM.1>
-154.57753558,-121.74126729,52.84957985,56.69607410,-169.03567068,-67.34070893
-161.66972704,62.84913937,-57.58700755,71.37391183,-70.37934815,-51.87790273
64.52085448,62.14776327,-64.42071430,102.12608726,-12.54593701,6.57422943
7.63454633,0.92379013,-0.64064552,-2.69862410

>  <Name>
lig.pdb

>  <RI>
0

>  <Rbt.Current_Directory>
/home/afrankz/demos/rdock_decoys_rna/rnas/2m4q

>  <Rbt.Executable>
rbdock ($Id: //depot/dev/client3/rdock/2013.1/src/exe/rbdock.cxx#4 $)

>  <Rbt.Library>
libRbt.so (2013.1, Build901 2013/11/27)

>  <Rbt.Parameter_File>
/export/apps/rDock/src/rDock_2013.1_src/data/scripts/dock_solv.prm

>  <Rbt.Receptor>
prm/blind_docking_80.prm

>  <SCORE>
32.9527

>  <SCORE.INTER>
2.66296

>  <SCORE.INTER.CONST>
1

>  <SCORE.INTER.POLAR>
-2.41124

>  <SCORE.INTER.ROT>
10

>  <SCORE.INTER.SOLV>
22.5841

>  <SCORE.INTER.VDW>
-7.98193

>  <SCORE.INTER.norm>
0.0719719

>  <SCORE.INTRA>
4.9966

>  <SCORE.INTRA.DIHEDRAL>
-30.4463

>  <SCORE.INTRA.DIHEDRAL.0>
44.8331

>  <SCORE.INTRA.POLAR>
-0.462618

>  <SCORE.INTRA.POLAR.0>
-0.108895

>  <SCORE.INTRA.REPUL>
-0.00912235

>  <SCORE.INTRA.REPUL.0>
0.00912235

>  <SCORE.INTRA.SOLV>
1.43939

>  <SCORE.INTRA.SOLV.lig_0>
-53.9067

>  <SCORE.INTRA.VDW>
21.1186

>  <SCORE.INTRA.VDW.0>
-2.93492

>  <SCORE.INTRA.norm>
0.135043

>  <SCORE.RESTR>
25.2931

>  <SCORE.RESTR.CAVITY>
25.2931

>  <SCORE.RESTR.norm>
0.683598

>  <SCORE.SYSTEM>
0

>  <SCORE.SYSTEM.CONST>
0

>  <SCORE.SYSTEM.DIHEDRAL>
0

>  <SCORE.SYSTEM.SOLV>
0

>  <SCORE.SYSTEM.norm>
0

>  <SCORE.heavy>
37

>  <SCORE.norm>
0.890613

>  <RMSD>
16.407

$$$$
lig.pdb
 OpenBabel11021811453D
libRbt.so/2013.1/901 2013/11/27
 37 40  0  0  0  0  0  0  0  0999 V2000
  -14.1023    8.3338    9.9691 C   0  0  2  0  0  0  0  0  0  0  0  0
  -13.9486    8.8859    8.5135 C   0  0  1  0  0  0  0  0  0  0  0  0
  -14.6344    7.9906    7.4402 C   0  0  0  0  0  0  0  0  0  0  0  0
  -14.2399    6.5037    7.6198 C   0  0  1  0  0  0  0  0  0  0  0  0
  -14.5711    6.0411    9.0563 C   0  0  1  0  0  0  0  0  0  0  0  0
  -14.2288    4.5396    9.2507 C   0  0  1  0  0  0  0  0  0  0  0  0
  -14.9142    3.6675    8.1569 C   0  0  1  0  0  0  0  0  0  0  0  0
  -14.6323    4.2038    6.7219 C   0  0  2  0  0  0  0  0  0  0  0  0
  -15.4657    1.4656    9.0849 C   0  0  0  0  0  0  0  0  0  0  0  0
  -13.8920    6.8857   10.0298 O   0  0  0  0  0  0  0  0  0  0  0  0
  -14.8731    5.6417    6.6308 O   0  0  0  0  0  0  0  0  0  0  0  0
  -14.4962   10.2578    8.4393 N   0  0  0  0  0  0  0  0  0  0  0  0
  -14.4848    2.2628    8.3172 N   0  0  0  0  0  0  0  0  0  0  0  0
  -12.8228    4.3288    9.2715 O   0  0  0  0  0  0  0  0  0  0  0  0
  -15.4229    3.4714    5.7405 O   0  0  0  0  0  0  0  0  0  0  0  0
  -15.4034    8.6844   10.5320 O   0  0  0  0  0  0  0  0  0  0  0  0
  -14.8643    3.2698    4.4059 C   0  0  2  0  0  0  0  0  0  0  0  0
  -13.4705    2.5842    4.4829 C   0  0  1  0  0  0  0  0  0  0  0  0
  -12.3874    3.5440    5.0536 C   0  0  2  0  0  0  0  0  0  0  0  0
  -12.3602    4.8890    4.2712 C   0  0  1  0  0  0  0  0  0  0  0  0
  -13.7773    5.5219    4.1885 C   0  0  1  0  0  0  0  0  0  0  0  0
  -13.7920    6.7912    3.2970 C   0  0  0  0  0  0  0  0  0  0  0  0
  -14.7446    4.5423    3.7024 O   0  0  0  0  0  0  0  0  0  0  0  0
  -11.3804    5.8328    4.8524 N   0  0  0  0  0  0  0  0  0  0  0  0
  -13.5491    1.3719    5.2304 O   0  0  0  0  0  0  0  0  0  0  0  0
  -11.1024    2.9259    5.0580 O   0  0  0  0  0  0  0  0  0  0  0  0
  -12.9906    7.8207    3.8672 O   0  0  0  0  0  0  0  0  0  0  0  0
  -15.4355    9.6827   11.5933 C   0  0  1  0  0  0  0  0  0  0  0  0
  -14.8676   11.0508   11.1222 C   0  0  1  0  0  0  0  0  0  0  0  0
  -14.8211   12.0715   12.2941 C   0  0  2  0  0  0  0  0  0  0  0  0
  -16.2056   12.2298   13.0024 C   0  0  1  0  0  0  0  0  0  0  0  0
  -16.8612   10.8638   13.3655 C   0  0  0  0  0  0  0  0  0  0  0  0
  -16.8683    9.8639   12.1701 C   0  0  2  0  0  0  0  0  0  0  0  0
  -16.0886   13.0922   14.1977 N   0  0  0  0  0  0  0  0  0  0  0  0
  -17.4571    8.5805   12.6100 N   0  0  0  0  0  0  0  0  0  0  0  0
  -13.5783   10.8907   10.5395 O   0  0  0  0  0  0  0  0  0  0  0  0
  -14.3488   13.3355   11.8348 O   0  0  0  0  0  0  0  0  0  0  0  0
  1  2  1  0  0  0  0
  1 16  1  6  0  0  0
  2  3  1  0  0  0  0
  2 12  1  1  0  0  0
  4 11  1  6  0  0  0
  4  3  1  0  0  0  0
  5  4  1  0  0  0  0
  5 10  1  1  0  0  0
  6  7  1  0  0  0  0
  6  5  1  0  0  0  0
  6 14  1  6  0  0  0
  7  8  1  0  0  0  0
  7 13  1  6  0  0  0
  8 15  1  6  0  0  0
  8 11  1  0  0  0  0
  9 13  1  0  0  0  0
 10  1  1  0  0  0  0
 17 15  1  1  0  0  0
 17 18  1  0  0  0  0
 18 25  1  1  0  0  0
 19 18  1  0  0  0  0
 19 26  1  6  0  0  0
 20 19  1  0  0  0  0
 20 24  1  1  0  0  0
 21 23  1  0  0  0  0
 21 20  1  0  0  0  0
 21 22  1  6  0  0  0
 23 17  1  0  0  0  0
 27 22  1  0  0  0  0
 28 29  1  0  0  0  0
 28 16  1  6  0  0  0
 29 36  1  1  0  0  0
 30 37  1  6  0  0  0
 30 29  1  0  0  0  0
 31 30  1  0  0  0  0
 31 34  1  1  0  0  0
 32 31  1  0  0  0  0
 32 33  1  0  0  0  0
 33 28  1  0  0  0  0
 33 35  1  1  0  0  0
M  END
>  <CHROM.1>
-69.44025129,-147.79215340,96.93274242,-59.33377522,55.15318830,-109.09626191
169.99216791,-177.62621935,-64.53987250,-48.49307198,-35.33120247,60.45777466
-55.98497810,-134.83705995,59.50680319,-34.60358535,-14.37267842,6.86009682
8.25575545,2.06250505,1.15548708,0.28251212

>  <Name>
lig.pdb

>  <RI>
0

>  <Rbt.Current_Directory>
/home/itssahil/PROJECTS/Mol_Feturizer/New_Systems/rnas/2m4q

>  <Rbt.Executable>
rbdock ($Id: //depot/dev/client3/rdock/2013.1/src/exe/rbdock.cxx#4 $)

>  <Rbt.Library>
libRbt.so (2013.1, Build901 2013/11/27)

>  <Rbt.Parameter_File>
/export/apps/rDock/src/rDock_2013.1_src/data/scripts/dock_solv.prm

>  <Rbt.Receptor>
prm/blind_docking_60.prm

>  <SCORE>
9.3794

>  <SCORE.INTER>
0.852848

>  <SCORE.INTER.CONST>
1

>  <SCORE.INTER.POLAR>
-1.58679

>  <SCORE.INTER.ROT>
10

>  <SCORE.INTER.SOLV>
18.1608

>  <SCORE.INTER.VDW>
-10.4624

>  <SCORE.INTER.norm>
0.0230499

>  <SCORE.INTRA>
-8.93593

>  <SCORE.INTRA.DIHEDRAL>
-21.3418

>  <SCORE.INTRA.DIHEDRAL.0>
44.8331

>  <SCORE.INTRA.POLAR>
-0.345799

>  <SCORE.INTRA.POLAR.0>
-0.108895

>  <SCORE.INTRA.REPUL>
-0.00912235

>  <SCORE.INTRA.REPUL.0>
0.00912235

>  <SCORE.INTRA.SOLV>
2.22301

>  <SCORE.INTRA.SOLV.lig_0>
-53.9067

>  <SCORE.INTRA.VDW>
1.84478

>  <SCORE.INTRA.VDW.0>
-2.93492

>  <SCORE.INTRA.norm>
-0.241512

>  <SCORE.RESTR>
17.4625

>  <SCORE.RESTR.CAVITY>
17.4625

>  <SCORE.RESTR.norm>
0.471959

>  <SCORE.SYSTEM>
0

>  <SCORE.SYSTEM.CONST>
0

>  <SCORE.SYSTEM.DIHEDRAL>
0

>  <SCORE.SYSTEM.SOLV>
0

>  <SCORE.SYSTEM.norm>
0

>  <SCORE.heavy>
37

>  <SCORE.norm>
0.253497

>  <RMSD>
16.413

$$$$
lig.pdb
 OpenBabel11021811453D
libRbt.so/2013.1/901 2013/11/27
 37 40  0  0  0  0  0  0  0  0999 V2000
  -13.4910    5.9057    3.6458 C   0  0  2  0  0  0  0  0  0  0  0  0
  -14.8791    6.6270    3.6470 C   0  0  1  0  0  0  0  0  0  0  0  0
  -15.3954    6.9656    5.0761 C   0  0  0  0  0  0  0  0  0  0  0  0
  -15.2988    5.7337    6.0101 C   0  0  1  0  0  0  0  0  0  0  0  0
  -13.8486    5.2010    6.0301 C   0  0  1  0  0  0  0  0  0  0  0  0
  -13.7123    3.9933    6.9958 C   0  0  1  0  0  0  0  0  0  0  0  0
  -14.2488    4.3524    8.4135 C   0  0  1  0  0  0  0  0  0  0  0  0
  -15.6802    4.9642    8.3579 C   0  0  2  0  0  0  0  0  0  0  0  0
  -15.3946    2.3021    9.1186 C   0  0  0  0  0  0  0  0  0  0  0  0
  -13.4111    4.8718    4.6801 O   0  0  0  0  0  0  0  0  0  0  0  0
  -15.7707    6.0245    7.3572 O   0  0  0  0  0  0  0  0  0  0  0  0
  -14.7992    7.8651    2.8417 N   0  0  0  0  0  0  0  0  0  0  0  0
  -14.1933    3.1509    9.2716 N   0  0  0  0  0  0  0  0  0  0  0  0
  -14.3620    2.8404    6.4758 O   0  0  0  0  0  0  0  0  0  0  0  0
  -16.0802    5.4436    9.6750 O   0  0  0  0  0  0  0  0  0  0  0  0
  -12.3985    6.8630    3.7958 O   0  0  0  0  0  0  0  0  0  0  0  0
  -15.0799    6.1052   10.5090 C   0  0  2  0  0  0  0  0  0  0  0  0
  -15.7442    7.1407   11.4603 C   0  0  1  0  0  0  0  0  0  0  0  0
  -16.2681    8.3827   10.6838 C   0  0  2  0  0  0  0  0  0  0  0  0
  -15.1502    9.0030    9.7964 C   0  0  1  0  0  0  0  0  0  0  0  0
  -14.4904    7.9284    8.8878 C   0  0  1  0  0  0  0  0  0  0  0  0
  -13.2848    8.5014    8.0975 C   0  0  0  0  0  0  0  0  0  0  0  0
  -14.0816    6.7728    9.6807 O   0  0  0  0  0  0  0  0  0  0  0  0
  -15.6601   10.1423    9.0024 N   0  0  0  0  0  0  0  0  0  0  0  0
  -16.7755    6.5249   12.2297 O   0  0  0  0  0  0  0  0  0  0  0  0
  -16.8157    9.3531   11.5737 O   0  0  0  0  0  0  0  0  0  0  0  0
  -12.7846    7.5433    7.1705 O   0  0  0  0  0  0  0  0  0  0  0  0
  -11.0358    6.3589    3.6816 C   0  0  1  0  0  0  0  0  0  0  0  0
  -10.5092    5.7949    5.0309 C   0  0  1  0  0  0  0  0  0  0  0  0
   -9.0237    5.3522    4.9116 C   0  0  2  0  0  0  0  0  0  0  0  0
   -8.7926    4.3509    3.7335 C   0  0  1  0  0  0  0  0  0  0  0  0
   -9.4297    4.8312    2.3951 C   0  0  0  0  0  0  0  0  0  0  0  0
  -10.9110    5.2852    2.5635 C   0  0  2  0  0  0  0  0  0  0  0  0
   -7.3518    4.0682    3.5595 N   0  0  0  0  0  0  0  0  0  0  0  0
  -11.4232    5.7729    1.2646 N   0  0  0  0  0  0  0  0  0  0  0  0
  -10.6704    6.7485    6.0761 O   0  0  0  0  0  0  0  0  0  0  0  0
   -8.5719    4.7887    6.1404 O   0  0  0  0  0  0  0  0  0  0  0  0
  1  2  1  0  0  0  0
  1 16  1  1  0  0  0
  2  3  1  0  0  0  0
  2 12  1  6  0  0  0
  4 11  1  1  0  0  0
  4  3  1  0  0  0  0
  5  4  1  0  0  0  0
  5 10  1  6  0  0  0
  6  7  1  0  0  0  0
  6  5  1  0  0  0  0
  6 14  1  6  0  0  0
  7  8  1  0  0  0  0
  7 13  1  1  0  0  0
  8 15  1  1  0  0  0
  8 11  1  0  0  0  0
  9 13  1  0  0  0  0
 10  1  1  0  0  0  0
 17 15  1  6  0  0  0
 17 18  1  0  0  0  0
 18 25  1  6  0  0  0
 19 18  1  0  0  0  0
 19 26  1  1  0  0  0
 20 19  1  0  0  0  0
 20 24  1  6  0  0  0
 21 23  1  0  0  0  0
 21 20  1  0  0  0  0
 21 22  1  1  0  0  0
 23 17  1  0  0  0  0
 27 22  1  0  0  0  0
 28 29  1  0  0  0  0
 28 16  1  1  0  0  0
 29 36  1  1  0  0  0
 30 37  1  1  0  0  0
 30 29  1  0  0  0  0
 31 30  1  0  0  0  0
 31 34  1  6  0  0  0
 32 31  1  0  0  0  0
 32 33  1  0  0  0  0
 33 28  1  0  0  0  0
 33 35  1  6  0  0  0
M  END
>  <CHROM.1>
-28.32880898,39.20159392,-85.40213109,170.81570571,151.05257855,-174.10862425
65.48277823,-170.52451374,-173.89986536,54.56717662,106.20622389,-85.17045123
-44.30586346,73.39273833,41.35490243,-41.12799470,-13.42759688,6.06248817
6.77950429,0.38475239,0.83730801,-0.76865988

>  <Name>
lig.pdb

>  <RI>
1.95696e+07

>  <Rbt.Current_Directory>
/home/itssahil/PROJECTS/Mol_Feturizer/New_Systems/rnas/2m4q

>  <Rbt.Executable>
rbdock ($Id: //depot/dev/client3/rdock/2013.1/src/exe/rbdock.cxx#4 $)

>  <Rbt.Library>
libRbt.so (2013.1, Build901 2013/11/27)

>  <Rbt.Parameter_File>
/export/apps/rDock/src/rDock_2013.1_src/data/scripts/dock_solv.prm

>  <Rbt.Receptor>
prm/blind_docking_100.prm

>  <SCORE>
-24.6894

>  <SCORE.INTER>
-30.4228

>  <SCORE.INTER.CONST>
1

>  <SCORE.INTER.POLAR>
-5.48865

>  <SCORE.INTER.ROT>
10

>  <SCORE.INTER.SOLV>
19.3077

>  <SCORE.INTER.VDW>
-18.6889

>  <SCORE.INTER.norm>
-0.822238

>  <SCORE.INTRA>
-4.50611

>  <SCORE.INTRA.DIHEDRAL>
-23.2712

>  <SCORE.INTRA.DIHEDRAL.0>
44.8331

>  <SCORE.INTRA.POLAR>
-0.120394

>  <SCORE.INTRA.POLAR.0>
-0.108895

>  <SCORE.INTRA.REPUL>
0.251476

>  <SCORE.INTRA.REPUL.0>
0.00912235

>  <SCORE.INTRA.SOLV>
2.46088

>  <SCORE.INTRA.SOLV.lig_0>
-53.9067

>  <SCORE.INTRA.VDW>
5.05099

>  <SCORE.INTRA.VDW.0>
-2.93492

>  <SCORE.INTRA.norm>
-0.121787

>  <SCORE.RESTR>
10.2396

>  <SCORE.RESTR.CAVITY>
10.2396

>  <SCORE.RESTR.norm>
0.276745

>  <SCORE.SYSTEM>
0

>  <SCORE.SYSTEM.CONST>
0

>  <SCORE.SYSTEM.DIHEDRAL>
0

>  <SCORE.SYSTEM.SOLV>
0

>  <SCORE.SYSTEM.norm>
0

>  <SCORE.heavy>
37

>  <SCORE.norm>
-0.66728

>  <RMSD>
16.441

$$$$
lig.pdb
 OpenBabel11021811453D
libRbt.so/2013.1/901 2013/11/27
 37 40  0  0  0  0  0  0  0  0999 V2000
  -12.5455    5.2989    2.7915 C   0  0  2  0  0  0  0  0  0  0  0  0
  -13.7696    6.2146    2.4596 C   0  0  1  0  0  0  0  0  0  0  0  0
  -14.0329    7.3052    3.5390 C   0  0  0  0  0  0  0  0  0  0  0  0
  -14.0432    6.6911    4.9609 C   0  0  1  0  0  0  0  0  0  0  0  0
  -12.7219    5.9319    5.2159 C   0  0  1  0  0  0  0  0  0  0  0  0
  -12.6852    5.3449    6.6524 C   0  0  1  0  0  0  0  0  0  0  0  0
  -12.9659    6.4518    7.7121 C   0  0  1  0  0  0  0  0  0  0  0  0
  -14.2590    7.2567    7.3864 C   0  0  2  0  0  0  0  0  0  0  0  0
  -14.2552    5.0470    9.2541 C   0  0  0  0  0  0  0  0  0  0  0  0
  -12.5239    4.9049    4.2019 O   0  0  0  0  0  0  0  0  0  0  0  0
  -14.2820    7.6918    5.9922 O   0  0  0  0  0  0  0  0  0  0  0  0
  -13.5697    6.8576    1.1427 N   0  0  0  0  0  0  0  0  0  0  0  0
  -13.0204    5.8358    9.0539 N   0  0  0  0  0  0  0  0  0  0  0  0
  -13.5920    4.2585    6.7898 O   0  0  0  0  0  0  0  0  0  0  0  0
  -14.3975    8.3870    8.2962 O   0  0  0  0  0  0  0  0  0  0  0  0
  -11.2883    5.9440    2.4226 O   0  0  0  0  0  0  0  0  0  0  0  0
  -14.1184    8.1780    9.7148 C   0  0  2  0  0  0  0  0  0  0  0  0
  -15.4365    8.0972   10.5361 C   0  0  1  0  0  0  0  0  0  0  0  0
  -16.1410    9.4808   10.6319 C   0  0  2  0  0  0  0  0  0  0  0  0
  -15.1646   10.5732   11.1564 C   0  0  1  0  0  0  0  0  0  0  0  0
  -13.8482   10.5963   10.3306 C   0  0  1  0  0  0  0  0  0  0  0  0
  -12.8108   11.5848   10.9247 C   0  0  0  0  0  0  0  0  0  0  0  0
  -13.2825    9.2537   10.2370 O   0  0  0  0  0  0  0  0  0  0  0  0
  -15.8081   11.9050   11.1843 N   0  0  0  0  0  0  0  0  0  0  0  0
  -16.3021    7.0995    9.9975 O   0  0  0  0  0  0  0  0  0  0  0  0
  -17.3127    9.4071   11.4413 O   0  0  0  0  0  0  0  0  0  0  0  0
  -13.2472   12.0806   12.1861 O   0  0  0  0  0  0  0  0  0  0  0  0
  -10.0720    5.1438    2.4872 C   0  0  1  0  0  0  0  0  0  0  0  0
   -9.8236    4.5772    3.9132 C   0  0  1  0  0  0  0  0  0  0  0  0
   -8.4738    3.8090    3.9836 C   0  0  2  0  0  0  0  0  0  0  0  0
   -8.3620    2.6982    2.8893 C   0  0  1  0  0  0  0  0  0  0  0  0
   -8.7376    3.2087    1.4659 C   0  0  0  0  0  0  0  0  0  0  0  0
  -10.0856    3.9904    1.4441 C   0  0  2  0  0  0  0  0  0  0  0  0
   -7.0137    2.0915    2.8926 N   0  0  0  0  0  0  0  0  0  0  0  0
  -10.3425    4.4833    0.0736 N   0  0  0  0  0  0  0  0  0  0  0  0
   -9.8655    5.6164    4.8858 O   0  0  0  0  0  0  0  0  0  0  0  0
   -8.2858    3.2507    5.2816 O   0  0  0  0  0  0  0  0  0  0  0  0
  1  2  1  0  0  0  0
  1 16  1  1  0  0  0
  2  3  1  0  0  0  0
  2 12  1  6  0  0  0
  4 11  1  1  0  0  0
  4  3  1  0  0  0  0
  5  4  1  0  0  0  0
  5 10  1  6  0  0  0
  6  7  1  0  0  0  0
  6  5  1  0  0  0  0
  6 14  1  6  0  0  0
  7  8  1  0  0  0  0
  7 13  1  1  0  0  0
  8 15  1  1  0  0  0
  8 11  1  0  0  0  0
  9 13  1  0  0  0  0
 10  1  1  0  0  0  0
 17 15  1  6  0  0  0
 17 18  1  0  0  0  0
 18 25  1  6  0  0  0
 19 18  1  0  0  0  0
 19 26  1  1  0  0  0
 20 19  1  0  0  0  0
 20 24  1  6  0  0  0
 21 23  1  0  0  0  0
 21 20  1  0  0  0  0
 21 22  1  1  0  0  0
 23 17  1  0  0  0  0
 27 22  1  0  0  0  0
 28 29  1  0  0  0  0
 28 16  1  1  0  0  0
 29 36  1  1  0  0  0
 30 37  1  1  0  0  0
 30 29  1  0  0  0  0
 31 30  1  0  0  0  0
 31 34  1  6  0  0  0
 32 31  1  0  0  0  0
 32 33  1  0  0  0  0
 33 28  1  0  0  0  0
 33 35  1  6  0  0  0
M  END
>  <CHROM.1>
-62.24144192,-43.02199632,-72.72498128,-64.10898085,-104.02835564,-171.22304705
172.89512285,-66.96129748,8.42714434,179.90470371,176.95064162,-58.50067797
-40.75809933,107.78220927,-163.17193421,53.49302972,-12.67576741,6.68276202
6.40941190,1.00483341,0.55131521,-1.85590883

>  <Name>
lig.pdb

>  <RI>
1.95696e+07

>  <Rbt.Current_Directory>
/home/itssahil/PROJECTS/Mol_Feturizer/New_Systems/rnas/2m4q

>  <Rbt.Executable>
rbdock ($Id: //depot/dev/client3/rdock/2013.1/src/exe/rbdock.cxx#4 $)

>  <Rbt.Library>
libRbt.so (2013.1, Build901 2013/11/27)

>  <Rbt.Parameter_File>
/export/apps/rDock/src/rDock_2013.1_src/data/scripts/dock_solv.prm

>  <Rbt.Receptor>
prm/blind_docking_100.prm

>  <SCORE>
-13.0918

>  <SCORE.INTER>
-17.457

>  <SCORE.INTER.CONST>
1

>  <SCORE.INTER.POLAR>
-3.03873

>  <SCORE.INTER.ROT>
10

>  <SCORE.INTER.SOLV>
17.4953

>  <SCORE.INTER.VDW>
-17.6074

>  <SCORE.INTER.norm>
-0.471812

>  <SCORE.INTRA>
-3.89642

>  <SCORE.INTRA.DIHEDRAL>
-22.1069

>  <SCORE.INTRA.DIHEDRAL.0>
44.8331

>  <SCORE.INTRA.POLAR>
-0.31984

>  <SCORE.INTRA.POLAR.0>
-0.108895

>  <SCORE.INTRA.REPUL>
-0.00912235

>  <SCORE.INTRA.REPUL.0>
0.00912235

>  <SCORE.INTRA.SOLV>
1.14888

>  <SCORE.INTRA.SOLV.lig_0>
-53.9067

>  <SCORE.INTRA.VDW>
7.71564

>  <SCORE.INTRA.VDW.0>
-2.93492

>  <SCORE.INTRA.norm>
-0.105309

>  <SCORE.RESTR>
8.26171

>  <SCORE.RESTR.CAVITY>
8.26171

>  <SCORE.RESTR.norm>
0.223289

>  <SCORE.SYSTEM>
0

>  <SCORE.SYSTEM.CONST>
0

>  <SCORE.SYSTEM.DIHEDRAL>
0

>  <SCORE.SYSTEM.SOLV>
0

>  <SCORE.SYSTEM.norm>
0

>  <SCORE.heavy>
37

>  <SCORE.norm>
-0.353831

>  <RMSD>
16.447

$$$$
lig.pdb
 OpenBabel11021811453D
libRbt.so/2013.1/901 2013/11/27
 37 40  0  0  0  0  0  0  0  0999 V2000
   -4.5694   -3.8452   16.5194 C   0  0  2  0  0  0  0  0  0  0  0  0
   -5.3827   -5.0127   17.1693 C   0  0  1  0  0  0  0  0  0  0  0  0
   -5.8116   -6.1069   16.1482 C   0  0  0  0  0  0  0  0  0  0  0  0
   -6.4656   -5.4741   14.8949 C   0  0  1  0  0  0  0  0  0  0  0  0
   -5.5052   -4.4402   14.2655 C   0  0  1  0  0  0  0  0  0  0  0  0
   -6.1166   -3.8233   12.9790 C   0  0  1  0  0  0  0  0  0  0  0  0
   -6.5508   -4.9376   11.9808 C   0  0  1  0  0  0  0  0  0  0  0  0
   -7.4506   -6.0118   12.6610 C   0  0  2  0  0  0  0  0  0  0  0  0
   -8.5389   -3.7545   11.1674 C   0  0  0  0  0  0  0  0  0  0  0  0
   -5.1477   -3.4205   15.2425 O   0  0  0  0  0  0  0  0  0  0  0  0
   -6.8716   -6.4765   13.9190 O   0  0  0  0  0  0  0  0  0  0  0  0
   -4.5899   -5.6300   18.2547 N   0  0  0  0  0  0  0  0  0  0  0  0
   -7.2156   -4.3145   10.8176 N   0  0  0  0  0  0  0  0  0  0  0  0
   -7.2007   -2.9563   13.2867 O   0  0  0  0  0  0  0  0  0  0  0  0
   -7.6956   -7.1220   11.7488 O   0  0  0  0  0  0  0  0  0  0  0  0
   -3.1662   -4.2113   16.3473 O   0  0  0  0  0  0  0  0  0  0  0  0
   -9.0564   -7.6401   11.6314 C   0  0  2  0  0  0  0  0  0  0  0  0
   -9.0761   -8.9812   10.8443 C   0  0  1  0  0  0  0  0  0  0  0  0
   -8.7701   -8.7671    9.3342 C   0  0  2  0  0  0  0  0  0  0  0  0
   -9.7071   -7.6878    8.7186 C   0  0  1  0  0  0  0  0  0  0  0  0
   -9.6837   -6.3777    9.5545 C   0  0  1  0  0  0  0  0  0  0  0  0
  -10.7136   -5.3414    9.0334 C   0  0  0  0  0  0  0  0  0  0  0  0
   -9.9189   -6.6700   10.9654 O   0  0  0  0  0  0  0  0  0  0  0  0
   -9.3756   -7.4293    7.3002 N   0  0  0  0  0  0  0  0  0  0  0  0
   -8.1829   -9.9227   11.4362 O   0  0  0  0  0  0  0  0  0  0  0  0
   -8.8555   -9.9940    8.6124 O   0  0  0  0  0  0  0  0  0  0  0  0
  -11.0089   -4.3725   10.0342 O   0  0  0  0  0  0  0  0  0  0  0  0
   -2.1820   -3.1364   16.3385 C   0  0  1  0  0  0  0  0  0  0  0  0
   -0.8819   -3.5321   17.0930 C   0  0  1  0  0  0  0  0  0  0  0  0
    0.1145   -2.3402   17.1553 C   0  0  2  0  0  0  0  0  0  0  0  0
    0.4208   -1.7444   15.7428 C   0  0  1  0  0  0  0  0  0  0  0  0
   -0.8663   -1.4635   14.9107 C   0  0  0  0  0  0  0  0  0  0  0  0
   -1.8462   -2.6752   14.8918 C   0  0  2  0  0  0  0  0  0  0  0  0
    1.2516   -0.5266   15.8554 N   0  0  0  0  0  0  0  0  0  0  0  0
   -3.0594   -2.3105   14.1287 N   0  0  0  0  0  0  0  0  0  0  0  0
   -1.1804   -4.0106   18.4005 O   0  0  0  0  0  0  0  0  0  0  0  0
    1.3219   -2.7340   17.8026 O   0  0  0  0  0  0  0  0  0  0  0  0
  1  2  1  0  0  0  0
  1 16  1  6  0  0  0
  2  3  1  0  0  0  0
  2 12  1  1  0  0  0
  4 11  1  6  0  0  0
  4  3  1  0  0  0  0
  5  4  1  0  0  0  0
  5 10  1  1  0  0  0
  6  7  1  0  0  0  0
  6  5  1  0  0  0  0
  6 14  1  1  0  0  0
  7  8  1  0  0  0  0
  7 13  1  6  0  0  0
  8 15  1  6  0  0  0
  8 11  1  0  0  0  0
  9 13  1  0  0  0  0
 10  1  1  0  0  0  0
 17 15  1  6  0  0  0
 17 18  1  0  0  0  0
 18 25  1  1  0  0  0
 19 18  1  0  0  0  0
 19 26  1  6  0  0  0
 20 19  1  0  0  0  0
 20 24  1  6  0  0  0
 21 23  1  0  0  0  0
 21 20  1  0  0  0  0
 21 22  1  6  0  0  0
 23 17  1  0  0  0  0
 27 22  1  0  0  0  0
 28 29  1  0  0  0  0
 28 16  1  6  0  0  0
 29 36  1  1  0  0  0
 30 37  1  6  0  0  0
 30 29  1  0  0  0  0
 31 30  1  0  0  0  0
 31 34  1  1  0  0  0
 32 31  1  0  0  0  0
 32 33  1  0  0  0  0
 33 28  1  0  0  0  0
 33 35  1  1  0  0  0
M  END
>  <CHROM.1>
50.51460569,-134.87007110,-70.19909292,-49.26084993,-168.75066564,-153.07412436
62.46373368,-47.16188739,160.16932470,-170.28837818,160.88289536,140.81038173
-55.43055303,-172.39363467,80.71151301,20.60553879,-5.67308641,-5.01123940
13.43155044,0.08703407,0.77586228,2.43387319

>  <Name>
lig.pdb

>  <RI>
0

>  <Rbt.Current_Directory>
/home/afrankz/demos/rdock_decoys_rna/rnas/2m4q

>  <Rbt.Executable>
rbdock ($Id: //depot/dev/client3/rdock/2013.1/src/exe/rbdock.cxx#4 $)

>  <Rbt.Library>
libRbt.so (2013.1, Build901 2013/11/27)

>  <Rbt.Parameter_File>
/export/apps/rDock/src/rDock_2013.1_src/data/scripts/dock_solv.prm

>  <Rbt.Receptor>
prm/blind_docking_40.prm

>  <SCORE>
-9.20637

>  <SCORE.INTER>
-12.1569

>  <SCORE.INTER.CONST>
1

>  <SCORE.INTER.POLAR>
-3.47261

>  <SCORE.INTER.ROT>
10

>  <SCORE.INTER.SOLV>
23.7592

>  <SCORE.INTER.VDW>
-14.7156

>  <SCORE.INTER.norm>
-0.328564

>  <SCORE.INTRA>
-7.67439

>  <SCORE.INTRA.DIHEDRAL>
-22.0034

>  <SCORE.INTRA.DIHEDRAL.0>
44.8331

>  <SCORE.INTRA.POLAR>
-0.359865

>  <SCORE.INTRA.POLAR.0>
-0.108895

>  <SCORE.INTRA.REPUL>
-0.00912235

>  <SCORE.INTRA.REPUL.0>
0.00912235

>  <SCORE.INTRA.SOLV>
-0.00102212

>  <SCORE.INTRA.SOLV.lig_0>
-53.9067

>  <SCORE.INTRA.VDW>
4.59698

>  <SCORE.INTRA.VDW.0>
-2.93492

>  <SCORE.INTRA.norm>
-0.207416

>  <SCORE.RESTR>
10.6249

>  <SCORE.RESTR.CAVITY>
10.6249

>  <SCORE.RESTR.norm>
0.287159

>  <SCORE.SYSTEM>
0

>  <SCORE.SYSTEM.CONST>
0

>  <SCORE.SYSTEM.DIHEDRAL>
0

>  <SCORE.SYSTEM.SOLV>
0

>  <SCORE.SYSTEM.norm>
0

>  <SCORE.heavy>
37

>  <SCORE.norm>
-0.248821

>  <RMSD>
16.456

$$$$
lig.pdb
 OpenBabel11021811453D
libRbt.so/2013.1/901 2013/11/27
 37 40  0  0  0  0  0  0  0  0999 V2000
  -11.6264    4.5002    5.2617 C   0  0  2  0  0  0  0  0  0  0  0  0
  -11.6350    5.9083    4.5803 C   0  0  1  0  0  0  0  0  0  0  0  0
  -11.6000    7.0852    5.5988 C   0  0  0  0  0  0  0  0  0  0  0  0
  -12.6604    6.8915    6.7111 C   0  0  1  0  0  0  0  0  0  0  0  0
  -12.4564    5.5237    7.4002 C   0  0  1  0  0  0  0  0  0  0  0  0
  -13.4775    5.3227    8.5520 C   0  0  1  0  0  0  0  0  0  0  0  0
  -13.4335    6.5193    9.5484 C   0  0  1  0  0  0  0  0  0  0  0  0
  -13.5582    7.8902    8.8197 C   0  0  2  0  0  0  0  0  0  0  0  0
  -15.7927    6.8637   10.1226 C   0  0  0  0  0  0  0  0  0  0  0  0
  -12.5211    4.4479    6.4201 O   0  0  0  0  0  0  0  0  0  0  0  0
  -12.6456    7.9770    7.6824 O   0  0  0  0  0  0  0  0  0  0  0  0
  -10.4890    6.0209    3.6521 N   0  0  0  0  0  0  0  0  0  0  0  0
  -14.4850    6.3380   10.5705 N   0  0  0  0  0  0  0  0  0  0  0  0
  -14.7914    5.1201    8.0478 O   0  0  0  0  0  0  0  0  0  0  0  0
  -13.3426    8.9859    9.7564 O   0  0  0  0  0  0  0  0  0  0  0  0
  -10.2729    4.1072    5.6443 O   0  0  0  0  0  0  0  0  0  0  0  0
  -13.7259   10.3357    9.3500 C   0  0  2  0  0  0  0  0  0  0  0  0
  -13.3407   11.3763   10.4398 C   0  0  1  0  0  0  0  0  0  0  0  0
  -14.2363   11.2435   11.7048 C   0  0  2  0  0  0  0  0  0  0  0  0
  -15.7464   11.2861   11.3310 C   0  0  1  0  0  0  0  0  0  0  0  0
  -16.0805   10.2564   10.2159 C   0  0  1  0  0  0  0  0  0  0  0  0
  -17.5506   10.3805    9.7365 C   0  0  0  0  0  0  0  0  0  0  0  0
  -15.1601   10.4061    9.0925 O   0  0  0  0  0  0  0  0  0  0  0  0
  -16.6036   11.0909   12.5208 N   0  0  0  0  0  0  0  0  0  0  0  0
  -11.9545   11.2759   10.7607 O   0  0  0  0  0  0  0  0  0  0  0  0
  -13.9170   12.2442   12.6691 O   0  0  0  0  0  0  0  0  0  0  0  0
  -17.8147   11.6902    9.2443 O   0  0  0  0  0  0  0  0  0  0  0  0
   -9.5719    3.1649    4.7814 C   0  0  1  0  0  0  0  0  0  0  0  0
  -10.5539    2.2224    4.0305 C   0  0  1  0  0  0  0  0  0  0  0  0
   -9.7835    1.1639    3.1919 C   0  0  2  0  0  0  0  0  0  0  0  0
   -8.7445    1.8134    2.2210 C   0  0  1  0  0  0  0  0  0  0  0  0
   -7.8334    2.8649    2.9224 C   0  0  0  0  0  0  0  0  0  0  0  0
   -8.6434    3.8930    3.7684 C   0  0  2  0  0  0  0  0  0  0  0  0
   -7.9320    0.7757    1.5508 N   0  0  0  0  0  0  0  0  0  0  0  0
   -7.7062    4.8195    4.4397 N   0  0  0  0  0  0  0  0  0  0  0  0
  -11.4481    1.5923    4.9420 O   0  0  0  0  0  0  0  0  0  0  0  0
  -10.6960    0.3421    2.4682 O   0  0  0  0  0  0  0  0  0  0  0  0
  1  2  1  0  0  0  0
  1 16  1  1  0  0  0
  2  3  1  0  0  0  0
  2 12  1  6  0  0  0
  4 11  1  1  0  0  0
  4  3  1  0  0  0  0
  5  4  1  0  0  0  0
  5 10  1  6  0  0  0
  6  7  1  0  0  0  0
  6  5  1  0  0  0  0
  6 14  1  6  0  0  0
  7  8  1  0  0  0  0
  7 13  1  1  0  0  0
  8 15  1  1  0  0  0
  8 11  1  0  0  0  0
  9 13  1  0  0  0  0
 10  1  1  0  0  0  0
 17 15  1  1  0  0  0
 17 18  1  0  0  0  0
 18 25  1  1  0  0  0
 19 18  1  0  0  0  0
 19 26  1  1  0  0  0
 20 19  1  0  0  0  0
 20 24  1  1  0  0  0
 21 23  1  0  0  0  0
 21 20  1  0  0  0  0
 21 22  1  6  0  0  0
 23 17  1  0  0  0  0
 27 22  1  0  0  0  0
 28 29  1  0  0  0  0
 28 16  1  6  0  0  0
 29 36  1  1  0  0  0
 30 37  1  6  0  0  0
 30 29  1  0  0  0  0
 31 30  1  0  0  0  0
 31 34  1  1  0  0  0
 32 31  1  0  0  0  0
 32 33  1  0  0  0  0
 33 28  1  0  0  0  0
 33 35  1  1  0  0  0
M  END
>  <CHROM.1>
55.53737283,-165.64688198,-85.47449479,57.56256709,-176.49808888,-101.08379806
-177.63934234,-85.20301557,58.41305168,73.59078924,64.88896287,-28.34404592
-79.84548018,53.87816671,59.92628892,97.70893704,-12.55675592,6.59940188
7.31434342,1.04158315,-0.43095083,-2.65103379

>  <Name>
lig.pdb

>  <RI>
0

>  <Rbt.Current_Directory>
/home/afrankz/demos/rdock_decoys_rna/rnas/2m4q

>  <Rbt.Executable>
rbdock ($Id: //depot/dev/client3/rdock/2013.1/src/exe/rbdock.cxx#4 $)

>  <Rbt.Library>
libRbt.so (2013.1, Build901 2013/11/27)

>  <Rbt.Parameter_File>
/export/apps/rDock/src/rDock_2013.1_src/data/scripts/dock_solv.prm

>  <Rbt.Receptor>
prm/blind_docking_80.prm

>  <SCORE>
-8.40868

>  <SCORE.INTER>
-24.9635

>  <SCORE.INTER.CONST>
1

>  <SCORE.INTER.POLAR>
-5.30133

>  <SCORE.INTER.ROT>
10

>  <SCORE.INTER.SOLV>
23.3843

>  <SCORE.INTER.VDW>
-17.0326

>  <SCORE.INTER.norm>
-0.674689

>  <SCORE.INTRA>
-8.78209

>  <SCORE.INTRA.DIHEDRAL>
-26.2209

>  <SCORE.INTRA.DIHEDRAL.0>
44.8331

>  <SCORE.INTRA.POLAR>
-0.512852

>  <SCORE.INTRA.POLAR.0>
-0.108895

>  <SCORE.INTRA.REPUL>
-0.00912235

>  <SCORE.INTRA.REPUL.0>
0.00912235

>  <SCORE.INTRA.SOLV>
0.221066

>  <SCORE.INTRA.SOLV.lig_0>
-53.9067

>  <SCORE.INTRA.VDW>
6.00714

>  <SCORE.INTRA.VDW.0>
-2.93492

>  <SCORE.INTRA.norm>
-0.237354

>  <SCORE.RESTR>
25.3369

>  <SCORE.RESTR.CAVITY>
25.3369

>  <SCORE.RESTR.norm>
0.684782

>  <SCORE.SYSTEM>
0

>  <SCORE.SYSTEM.CONST>
0

>  <SCORE.SYSTEM.DIHEDRAL>
0

>  <SCORE.SYSTEM.SOLV>
0

>  <SCORE.SYSTEM.norm>
0

>  <SCORE.heavy>
37

>  <SCORE.norm>
-0.227262

>  <RMSD>
16.533

$$$$
lig.pdb
 OpenBabel11021811453D
libRbt.so/2013.1/901 2013/11/27
 37 40  0  0  0  0  0  0  0  0999 V2000
  -12.0645    5.2436    4.1836 C   0  0  2  0  0  0  0  0  0  0  0  0
  -13.1525    6.2756    3.7383 C   0  0  1  0  0  0  0  0  0  0  0  0
  -13.6816    7.1556    4.9084 C   0  0  0  0  0  0  0  0  0  0  0  0
  -14.0684    6.2852    6.1298 C   0  0  1  0  0  0  0  0  0  0  0  0
  -12.8653    5.4154    6.5582 C   0  0  1  0  0  0  0  0  0  0  0  0
  -13.2103    4.5660    7.8109 C   0  0  1  0  0  0  0  0  0  0  0  0
  -13.7509    5.4667    8.9611 C   0  0  1  0  0  0  0  0  0  0  0  0
  -14.9080    6.3930    8.4821 C   0  0  2  0  0  0  0  0  0  0  0  0
  -15.5493    4.1274    9.9540 C   0  0  0  0  0  0  0  0  0  0  0  0
  -12.4158    4.5891    5.4459 O   0  0  0  0  0  0  0  0  0  0  0  0
  -14.5619    7.0848    7.2430 O   0  0  0  0  0  0  0  0  0  0  0  0
  -12.6102    7.1435    2.6704 N   0  0  0  0  0  0  0  0  0  0  0  0
  -14.1593    4.6121   10.0951 N   0  0  0  0  0  0  0  0  0  0  0  0
  -14.1290    3.5281    7.4941 O   0  0  0  0  0  0  0  0  0  0  0  0
  -15.2719    7.3368    9.5315 O   0  0  0  0  0  0  0  0  0  0  0  0
  -10.7501    5.8722    4.2834 O   0  0  0  0  0  0  0  0  0  0  0  0
  -15.8180    8.6346    9.1427 C   0  0  2  0  0  0  0  0  0  0  0  0
  -14.6861    9.6876    8.9739 C   0  0  1  0  0  0  0  0  0  0  0  0
  -14.0648   10.0894   10.3423 C   0  0  2  0  0  0  0  0  0  0  0  0
  -15.1643   10.5357   11.3491 C   0  0  1  0  0  0  0  0  0  0  0  0
  -16.2917    9.4717   11.4611 C   0  0  1  0  0  0  0  0  0  0  0  0
  -17.4610    9.9609   12.3553 C   0  0  0  0  0  0  0  0  0  0  0  0
  -16.7789    9.1049   10.1346 O   0  0  0  0  0  0  0  0  0  0  0  0
  -14.5876   10.8529   12.6740 N   0  0  0  0  0  0  0  0  0  0  0  0
  -13.6957    9.2168    8.0617 O   0  0  0  0  0  0  0  0  0  0  0  0
  -13.0742   11.1023   10.1806 O   0  0  0  0  0  0  0  0  0  0  0  0
  -17.0293   10.9945   13.2343 O   0  0  0  0  0  0  0  0  0  0  0  0
   -9.6406    5.2366    3.5842 C   0  0  1  0  0  0  0  0  0  0  0  0
   -8.9867    4.1105    4.4330 C   0  0  1  0  0  0  0  0  0  0  0  0
   -7.7470    3.5122    3.7103 C   0  0  2  0  0  0  0  0  0  0  0  0
   -8.0771    3.0298    2.2604 C   0  0  1  0  0  0  0  0  0  0  0  0
   -8.8543    4.0940    1.4291 C   0  0  0  0  0  0  0  0  0  0  0  0
  -10.0756    4.6826    2.1977 C   0  0  2  0  0  0  0  0  0  0  0  0
   -6.8487    2.6051    1.5558 N   0  0  0  0  0  0  0  0  0  0  0  0
  -10.7250    5.7174    1.3642 N   0  0  0  0  0  0  0  0  0  0  0  0
   -8.6353    4.5904    5.7267 O   0  0  0  0  0  0  0  0  0  0  0  0
   -7.1909    2.4462    4.4758 O   0  0  0  0  0  0  0  0  0  0  0  0
  1  2  1  0  0  0  0
  1 16  1  1  0  0  0
  2  3  1  0  0  0  0
  2 12  1  6  0  0  0
  4 11  1  1  0  0  0
  4  3  1  0  0  0  0
  5  4  1  0  0  0  0
  5 10  1  6  0  0  0
  6  7  1  0  0  0  0
  6  5  1  0  0  0  0
  6 14  1  6  0  0  0
  7  8  1  0  0  0  0
  7 13  1  1  0  0  0
  8 15  1  1  0  0  0
  8 11  1  0  0  0  0
  9 13  1  0  0  0  0
 10  1  1  0  0  0  0
 17 15  1  1  0  0  0
 17 18  1  0  0  0  0
 18 25  1  6  0  0  0
 19 18  1  0  0  0  0
 19 26  1  6  0  0  0
 20 19  1  0  0  0  0
 20 24  1  1  0  0  0
 21 23  1  0  0  0  0
 21 20  1  0  0  0  0
 21 22  1  1  0  0  0
 23 17  1  0  0  0  0
 27 22  1  0  0  0  0
 28 29  1  0  0  0  0
 28 16  1  1  0  0  0
 29 36  1  1  0  0  0
 30 37  1  1  0  0  0
 30 29  1  0  0  0  0
 31 30  1  0  0  0  0
 31 34  1  6  0  0  0
 32 31  1  0  0  0  0
 32 33  1  0  0  0  0
 33 28  1  0  0  0  0
 33 35  1  6  0  0  0
M  END
>  <CHROM.1>
163.90429786,151.14850468,-86.25344062,-53.81582102,-90.53275683,-128.38194514
-173.15946198,-176.07908491,-21.81560159,74.95440778,80.56088151,-85.12427331
172.06508620,-88.10822044,64.62300702,-170.04533868,-12.76228449,6.52879795
6.95688324,-0.21332915,0.95954189,-0.33444072

>  <Name>
lig.pdb

>  <RI>
1.95696e+07

>  <Rbt.Current_Directory>
/home/itssahil/PROJECTS/Mol_Feturizer/New_Systems/rnas/2m4q

>  <Rbt.Executable>
rbdock ($Id: //depot/dev/client3/rdock/2013.1/src/exe/rbdock.cxx#4 $)

>  <Rbt.Library>
libRbt.so (2013.1, Build901 2013/11/27)

>  <Rbt.Parameter_File>
/export/apps/rDock/src/rDock_2013.1_src/data/scripts/dock_solv.prm

>  <Rbt.Receptor>
prm/blind_docking_100.prm

>  <SCORE>
-17.1538

>  <SCORE.INTER>
-22.6084

>  <SCORE.INTER.CONST>
1

>  <SCORE.INTER.POLAR>
-3.92625

>  <SCORE.INTER.ROT>
10

>  <SCORE.INTER.SOLV>
19.2156

>  <SCORE.INTER.VDW>
-18.6566

>  <SCORE.INTER.norm>
-0.611037

>  <SCORE.INTRA>
-3.34222

>  <SCORE.INTRA.DIHEDRAL>
-16.455

>  <SCORE.INTRA.DIHEDRAL.0>
44.8331

>  <SCORE.INTRA.POLAR>
-1.42049

>  <SCORE.INTRA.POLAR.0>
-0.108895

>  <SCORE.INTRA.REPUL>
0.594463

>  <SCORE.INTRA.REPUL.0>
0.00912235

>  <SCORE.INTRA.SOLV>
1.53201

>  <SCORE.INTRA.SOLV.lig_0>
-53.9067

>  <SCORE.INTRA.VDW>
5.97661

>  <SCORE.INTRA.VDW.0>
-2.93492

>  <SCORE.INTRA.norm>
-0.0903303

>  <SCORE.RESTR>
8.79681

>  <SCORE.RESTR.CAVITY>
8.79681

>  <SCORE.RESTR.norm>
0.237752

>  <SCORE.SYSTEM>
0

>  <SCORE.SYSTEM.CONST>
0

>  <SCORE.SYSTEM.DIHEDRAL>
0

>  <SCORE.SYSTEM.SOLV>
0

>  <SCORE.SYSTEM.norm>
0

>  <SCORE.heavy>
37

>  <SCORE.norm>
-0.463615

>  <RMSD>
16.550

$$$$
lig.pdb
 OpenBabel11021811453D
libRbt.so/2013.1/901 2013/11/27
 37 40  0  0  0  0  0  0  0  0999 V2000
  -11.9163    5.1845    4.0842 C   0  0  2  0  0  0  0  0  0  0  0  0
  -13.0582    6.0244    3.4226 C   0  0  1  0  0  0  0  0  0  0  0  0
  -13.7685    6.9885    4.4174 C   0  0  0  0  0  0  0  0  0  0  0  0
  -14.1708    6.2501    5.7181 C   0  0  1  0  0  0  0  0  0  0  0  0
  -12.9293    5.5802    6.3484 C   0  0  1  0  0  0  0  0  0  0  0  0
  -13.2950    4.8711    7.6800 C   0  0  1  0  0  0  0  0  0  0  0  0
  -14.0170    5.8517    8.6515 C   0  0  1  0  0  0  0  0  0  0  0  0
  -15.2141    6.5756    7.9665 C   0  0  2  0  0  0  0  0  0  0  0  0
  -15.1686    5.9779   10.8129 C   0  0  0  0  0  0  0  0  0  0  0  0
  -12.3082    4.6680    5.3975 O   0  0  0  0  0  0  0  0  0  0  0  0
  -14.8331    7.1312    6.6704 O   0  0  0  0  0  0  0  0  0  0  0  0
  -12.5144    6.7975    2.2849 N   0  0  0  0  0  0  0  0  0  0  0  0
  -14.4349    5.1149    9.8621 N   0  0  0  0  0  0  0  0  0  0  0  0
  -14.0775    3.7070    7.4473 O   0  0  0  0  0  0  0  0  0  0  0  0
  -15.7567    7.6045    8.8449 O   0  0  0  0  0  0  0  0  0  0  0  0
  -10.6830    5.9596    4.1880 O   0  0  0  0  0  0  0  0  0  0  0  0
  -15.6178    9.0035    8.4481 C   0  0  2  0  0  0  0  0  0  0  0  0
  -14.2006    9.5427    8.7937 C   0  0  1  0  0  0  0  0  0  0  0  0
  -14.0059    9.7084   10.3282 C   0  0  2  0  0  0  0  0  0  0  0  0
  -15.1489   10.5617   10.9505 C   0  0  1  0  0  0  0  0  0  0  0  0
  -16.5459   10.0093   10.5522 C   0  0  1  0  0  0  0  0  0  0  0  0
  -17.6934   10.9264   11.0508 C   0  0  0  0  0  0  0  0  0  0  0  0
  -16.6273    9.8259    9.1061 O   0  0  0  0  0  0  0  0  0  0  0  0
  -15.0079   10.6652   12.4195 N   0  0  0  0  0  0  0  0  0  0  0  0
  -13.1942    8.7103    8.2201 O   0  0  0  0  0  0  0  0  0  0  0  0
  -12.7276   10.2644   10.6280 O   0  0  0  0  0  0  0  0  0  0  0  0
  -17.2171   12.2449   11.3000 O   0  0  0  0  0  0  0  0  0  0  0  0
   -9.4608    5.3605    3.6672 C   0  0  1  0  0  0  0  0  0  0  0  0
   -8.9269    4.2309    4.5920 C   0  0  1  0  0  0  0  0  0  0  0  0
   -7.5732    3.6722    4.0698 C   0  0  2  0  0  0  0  0  0  0  0  0
   -7.6536    3.2125    2.5778 C   0  0  1  0  0  0  0  0  0  0  0  0
   -8.3106    4.2774    1.6492 C   0  0  0  0  0  0  0  0  0  0  0  0
   -9.6532    4.8258    2.2196 C   0  0  2  0  0  0  0  0  0  0  0  0
   -6.3180    2.8268    2.0744 N   0  0  0  0  0  0  0  0  0  0  0  0
  -10.1831    5.8640    1.3092 N   0  0  0  0  0  0  0  0  0  0  0  0
   -8.8002    4.6917    5.9333 O   0  0  0  0  0  0  0  0  0  0  0  0
   -7.1238    2.6024    4.8974 O   0  0  0  0  0  0  0  0  0  0  0  0
  1  2  1  0  0  0  0
  1 16  1  1  0  0  0
  2  3  1  0  0  0  0
  2 12  1  6  0  0  0
  4 11  1  1  0  0  0
  4  3  1  0  0  0  0
  5  4  1  0  0  0  0
  5 10  1  6  0  0  0
  6  7  1  0  0  0  0
  6  5  1  0  0  0  0
  6 14  1  6  0  0  0
  7  8  1  0  0  0  0
  7 13  1  1  0  0  0
  8 15  1  1  0  0  0
  8 11  1  0  0  0  0
  9 13  1  0  0  0  0
 10  1  1  0  0  0  0
 17 15  1  1  0  0  0
 17 18  1  0  0  0  0
 18 25  1  1  0  0  0
 19 18  1  0  0  0  0
 19 26  1  6  0  0  0
 20 19  1  0  0  0  0
 20 24  1  1  0  0  0
 21 23  1  0  0  0  0
 21 20  1  0  0  0  0
 21 22  1  6  0  0  0
 23 17  1  0  0  0  0
 27 22  1  0  0  0  0
 28 29  1  0  0  0  0
 28 16  1  1  0  0  0
 29 36  1  1  0  0  0
 30 37  1  1  0  0  0
 30 29  1  0  0  0  0
 31 30  1  0  0  0  0
 31 34  1  6  0  0  0
 32 31  1  0  0  0  0
 32 33  1  0  0  0  0
 33 28  1  0  0  0  0
 33 35  1  6  0  0  0
M  END
>  <CHROM.1>
-101.61376506,113.23444676,-178.13870927,171.10323888,-80.78002246,-128.48255485
59.19125204,131.48263829,21.41239803,-40.50330380,-60.99770223,-73.93367013
65.95298505,-152.33241173,-112.17557374,-40.15025929,-12.70238279,6.70224934
6.75386080,0.64806364,0.71660139,-1.50841033

>  <Name>
lig.pdb

>  <RI>
1.95696e+07

>  <Rbt.Current_Directory>
/home/itssahil/PROJECTS/Mol_Feturizer/New_Systems/rnas/2m4q

>  <Rbt.Executable>
rbdock ($Id: //depot/dev/client3/rdock/2013.1/src/exe/rbdock.cxx#4 $)

>  <Rbt.Library>
libRbt.so (2013.1, Build901 2013/11/27)

>  <Rbt.Parameter_File>
/export/apps/rDock/src/rDock_2013.1_src/data/scripts/dock_solv.prm

>  <Rbt.Receptor>
prm/blind_docking_100.prm

>  <SCORE>
-6.5014

>  <SCORE.INTER>
-11.6177

>  <SCORE.INTER.CONST>
1

>  <SCORE.INTER.POLAR>
-2.16511

>  <SCORE.INTER.ROT>
10

>  <SCORE.INTER.SOLV>
20.3446

>  <SCORE.INTER.VDW>
-17.5763

>  <SCORE.INTER.norm>
-0.313991

>  <SCORE.INTRA>
-4.296

>  <SCORE.INTRA.DIHEDRAL>
-8.84148

>  <SCORE.INTRA.DIHEDRAL.0>
44.8331

>  <SCORE.INTRA.POLAR>
-1.73018

>  <SCORE.INTRA.POLAR.0>
-0.108895

>  <SCORE.INTRA.REPUL>
-0.00912235

>  <SCORE.INTRA.REPUL.0>
0.00912235

>  <SCORE.INTRA.SOLV>
1.20479

>  <SCORE.INTRA.SOLV.lig_0>
-53.9067

>  <SCORE.INTRA.VDW>
5.45056

>  <SCORE.INTRA.VDW.0>
-2.93492

>  <SCORE.INTRA.norm>
-0.116108

>  <SCORE.RESTR>
9.41226

>  <SCORE.RESTR.CAVITY>
9.41226

>  <SCORE.RESTR.norm>
0.254385

>  <SCORE.SYSTEM>
0

>  <SCORE.SYSTEM.CONST>
0

>  <SCORE.SYSTEM.DIHEDRAL>
0

>  <SCORE.SYSTEM.SOLV>
0

>  <SCORE.SYSTEM.norm>
0

>  <SCORE.heavy>
37

>  <SCORE.norm>
-0.175713

>  <RMSD>
16.557

$$$$
lig.pdb
 OpenBabel11021811453D
libRbt.so/2013.1/901 2013/11/27
 37 40  0  0  0  0  0  0  0  0999 V2000
   -4.2913   -3.2101   15.7694 C   0  0  2  0  0  0  0  0  0  0  0  0
   -4.6757   -4.3539   16.7648 C   0  0  1  0  0  0  0  0  0  0  0  0
   -5.1686   -5.6484   16.0541 C   0  0  0  0  0  0  0  0  0  0  0  0
   -6.2425   -5.3237   14.9863 C   0  0  1  0  0  0  0  0  0  0  0  0
   -5.6900   -4.2871   13.9825 C   0  0  1  0  0  0  0  0  0  0  0  0
   -6.7300   -3.9776   12.8725 C   0  0  1  0  0  0  0  0  0  0  0  0
   -7.2181   -5.2887   12.1873 C   0  0  1  0  0  0  0  0  0  0  0  0
   -7.6923   -6.3481   13.2261 C   0  0  2  0  0  0  0  0  0  0  0  0
   -7.7325   -4.2975   10.0040 C   0  0  0  0  0  0  0  0  0  0  0  0
   -5.2635   -3.0823   14.6815 O   0  0  0  0  0  0  0  0  0  0  0  0
   -6.7176   -6.5179   14.3007 O   0  0  0  0  0  0  0  0  0  0  0  0
   -3.5193   -4.6724   17.6303 N   0  0  0  0  0  0  0  0  0  0  0  0
   -8.2758   -4.9601   11.2094 N   0  0  0  0  0  0  0  0  0  0  0  0
   -7.8231   -3.2259   13.3840 O   0  0  0  0  0  0  0  0  0  0  0  0
   -7.9787   -7.6156   12.5658 O   0  0  0  0  0  0  0  0  0  0  0  0
   -2.9476   -3.4071   15.2324 O   0  0  0  0  0  0  0  0  0  0  0  0
   -9.3732   -8.0236   12.4155 C   0  0  2  0  0  0  0  0  0  0  0  0
   -9.5103   -9.5717   12.4731 C   0  0  1  0  0  0  0  0  0  0  0  0
   -8.9241  -10.2492   11.2014 C   0  0  2  0  0  0  0  0  0  0  0  0
   -9.5300   -9.6336    9.9069 C   0  0  1  0  0  0  0  0  0  0  0  0
   -9.4032   -8.0846    9.9064 C   0  0  1  0  0  0  0  0  0  0  0  0
  -10.1226   -7.4464    8.6893 C   0  0  0  0  0  0  0  0  0  0  0  0
   -9.9188   -7.5313   11.1552 O   0  0  0  0  0  0  0  0  0  0  0  0
   -8.9260  -10.2252    8.6929 N   0  0  0  0  0  0  0  0  0  0  0  0
   -8.9174  -10.0831   13.6654 O   0  0  0  0  0  0  0  0  0  0  0  0
   -9.1144  -11.6620   11.2365 O   0  0  0  0  0  0  0  0  0  0  0  0
   -9.7045   -6.0982    8.5027 O   0  0  0  0  0  0  0  0  0  0  0  0
   -1.8817   -2.5559   15.7455 C   0  0  1  0  0  0  0  0  0  0  0  0
   -0.8189   -3.3681   16.5373 C   0  0  1  0  0  0  0  0  0  0  0  0
    0.2554   -2.4306   17.1570 C   0  0  2  0  0  0  0  0  0  0  0  0
    0.9142   -1.4935   16.0933 C   0  0  1  0  0  0  0  0  0  0  0  0
   -0.1307   -0.7676   15.1939 C   0  0  0  0  0  0  0  0  0  0  0  0
   -1.2002   -1.7395   14.6107 C   0  0  2  0  0  0  0  0  0  0  0  0
    1.8196   -0.5198   16.7400 N   0  0  0  0  0  0  0  0  0  0  0  0
   -2.1798   -0.9679   13.8155 N   0  0  0  0  0  0  0  0  0  0  0  0
   -1.4362   -4.1646   17.5434 O   0  0  0  0  0  0  0  0  0  0  0  0
    1.2511   -3.1935   17.8340 O   0  0  0  0  0  0  0  0  0  0  0  0
  1  2  1  0  0  0  0
  1 16  1  6  0  0  0
  2  3  1  0  0  0  0
  2 12  1  6  0  0  0
  4 11  1  6  0  0  0
  4  3  1  0  0  0  0
  5  4  1  0  0  0  0
  5 10  1  1  0  0  0
  6  7  1  0  0  0  0
  6  5  1  0  0  0  0
  6 14  1  1  0  0  0
  7  8  1  0  0  0  0
  7 13  1  6  0  0  0
  8 15  1  6  0  0  0
  8 11  1  0  0  0  0
  9 13  1  0  0  0  0
 10  1  1  0  0  0  0
 17 15  1  6  0  0  0
 17 18  1  0  0  0  0
 18 25  1  1  0  0  0
 19 18  1  0  0  0  0
 19 26  1  1  0  0  0
 20 19  1  0  0  0  0
 20 24  1  6  0  0  0
 21 23  1  0  0  0  0
 21 20  1  0  0  0  0
 21 22  1  6  0  0  0
 23 17  1  0  0  0  0
 27 22  1  0  0  0  0
 28 29  1  0  0  0  0
 28 16  1  6  0  0  0
 29 36  1  1  0  0  0
 30 37  1  6  0  0  0
 30 29  1  0  0  0  0
 31 30  1  0  0  0  0
 31 34  1  1  0  0  0
 32 31  1  0  0  0  0
 32 33  1  0  0  0  0
 33 28  1  0  0  0  0
 33 35  1  1  0  0  0
M  END
>  <CHROM.1>
-58.21395681,-107.34478740,72.91824946,-171.25373830,-147.91661377,-105.08186325
-54.15680642,68.66336222,-164.36021765,40.60335919,-65.28719808,114.33522780
172.92162148,64.95222735,69.23719609,-51.84428867,-5.54739878,-5.32731136
13.60993038,0.16237566,-0.76109259,-0.59913511

>  <Name>
lig.pdb

>  <RI>
0

>  <Rbt.Current_Directory>
/home/afrankz/demos/rdock_decoys_rna/rnas/2m4q

>  <Rbt.Executable>
rbdock ($Id: //depot/dev/client3/rdock/2013.1/src/exe/rbdock.cxx#4 $)

>  <Rbt.Library>
libRbt.so (2013.1, Build901 2013/11/27)

>  <Rbt.Parameter_File>
/export/apps/rDock/src/rDock_2013.1_src/data/scripts/dock_solv.prm

>  <Rbt.Receptor>
prm/blind_docking_40.prm

>  <SCORE>
0.0506401

>  <SCORE.INTER>
-11.5508

>  <SCORE.INTER.CONST>
1

>  <SCORE.INTER.POLAR>
-3.59358

>  <SCORE.INTER.ROT>
10

>  <SCORE.INTER.SOLV>
21.2792

>  <SCORE.INTER.VDW>
-13.0817

>  <SCORE.INTER.norm>
-0.312183

>  <SCORE.INTRA>
-5.1336

>  <SCORE.INTRA.DIHEDRAL>
-17.2588

>  <SCORE.INTRA.DIHEDRAL.0>
44.8331

>  <SCORE.INTRA.POLAR>
-0.780847

>  <SCORE.INTRA.POLAR.0>
-0.108895

>  <SCORE.INTRA.REPUL>
0.0909927

>  <SCORE.INTRA.REPUL.0>
0.00912235

>  <SCORE.INTRA.SOLV>
0.972234

>  <SCORE.INTRA.SOLV.lig_0>
-53.9067

>  <SCORE.INTRA.VDW>
5.20959

>  <SCORE.INTRA.VDW.0>
-2.93492

>  <SCORE.INTRA.norm>
-0.138746

>  <SCORE.RESTR>
16.735

>  <SCORE.RESTR.CAVITY>
16.735

>  <SCORE.RESTR.norm>
0.452297

>  <SCORE.SYSTEM>
0

>  <SCORE.SYSTEM.CONST>
0

>  <SCORE.SYSTEM.DIHEDRAL>
0

>  <SCORE.SYSTEM.SOLV>
0

>  <SCORE.SYSTEM.norm>
0

>  <SCORE.heavy>
37

>  <SCORE.norm>
0.00136865

>  <RMSD>
16.570

$$$$
lig.pdb
 OpenBabel11021811453D
libRbt.so/2013.1/901 2013/11/27
 37 40  0  0  0  0  0  0  0  0999 V2000
   -5.2510   -4.1672   15.7454 C   0  0  2  0  0  0  0  0  0  0  0  0
   -5.9430   -5.5077   16.1595 C   0  0  1  0  0  0  0  0  0  0  0  0
   -6.3386   -6.3970   14.9445 C   0  0  0  0  0  0  0  0  0  0  0  0
   -7.0978   -5.5735   13.8747 C   0  0  1  0  0  0  0  0  0  0  0  0
   -6.2486   -4.3554   13.4478 C   0  0  1  0  0  0  0  0  0  0  0  0
   -6.9658   -3.5369   12.3409 C   0  0  1  0  0  0  0  0  0  0  0  0
   -7.3641   -4.4511   11.1441 C   0  0  1  0  0  0  0  0  0  0  0  0
   -8.1476   -5.7141   11.6102 C   0  0  2  0  0  0  0  0  0  0  0  0
   -8.3975   -4.4161    8.9204 C   0  0  0  0  0  0  0  0  0  0  0  0
   -5.9206   -3.5354   14.6063 O   0  0  0  0  0  0  0  0  0  0  0  0
   -7.4753   -6.3809   12.7225 O   0  0  0  0  0  0  0  0  0  0  0  0
   -5.0547   -6.2695   17.0641 N   0  0  0  0  0  0  0  0  0  0  0  0
   -8.1291   -3.6567   10.1607 N   0  0  0  0  0  0  0  0  0  0  0  0
   -8.0950   -2.8457   12.8593 O   0  0  0  0  0  0  0  0  0  0  0  0
   -8.3536   -6.6265   10.4924 O   0  0  0  0  0  0  0  0  0  0  0  0
   -3.8345   -4.3721   15.4552 O   0  0  0  0  0  0  0  0  0  0  0  0
   -9.5907   -7.4018   10.4446 C   0  0  2  0  0  0  0  0  0  0  0  0
   -9.5198   -8.4970    9.3427 C   0  0  1  0  0  0  0  0  0  0  0  0
   -9.5677   -7.8813    7.9150 C   0  0  2  0  0  0  0  0  0  0  0  0
  -10.7920   -6.9345    7.7523 C   0  0  1  0  0  0  0  0  0  0  0  0
  -10.8438   -5.8789    8.8919 C   0  0  1  0  0  0  0  0  0  0  0  0
  -12.1306   -5.0155    8.8216 C   0  0  0  0  0  0  0  0  0  0  0  0
  -10.7333   -6.5299   10.1940 O   0  0  0  0  0  0  0  0  0  0  0  0
  -10.8051   -6.2918    6.4199 N   0  0  0  0  0  0  0  0  0  0  0  0
   -8.3679   -9.3181    9.5258 O   0  0  0  0  0  0  0  0  0  0  0  0
   -9.5680   -8.8982    6.9154 O   0  0  0  0  0  0  0  0  0  0  0  0
  -12.1170   -4.0025    9.8221 O   0  0  0  0  0  0  0  0  0  0  0  0
   -2.9179   -3.2778   15.7489 C   0  0  1  0  0  0  0  0  0  0  0  0
   -1.5496   -3.7914   16.2784 C   0  0  1  0  0  0  0  0  0  0  0  0
   -0.6230   -2.6082   16.6764 C   0  0  2  0  0  0  0  0  0  0  0  0
   -0.4464   -1.5732   15.5182 C   0  0  1  0  0  0  0  0  0  0  0  0
   -1.8000   -1.1424   14.8779 C   0  0  0  0  0  0  0  0  0  0  0  0
   -2.7062   -2.3569   14.5138 C   0  0  2  0  0  0  0  0  0  0  0  0
    0.3172   -0.3941   15.9794 N   0  0  0  0  0  0  0  0  0  0  0  0
   -3.9866   -1.8631   13.9624 N   0  0  0  0  0  0  0  0  0  0  0  0
   -1.7324   -4.6817   17.3746 O   0  0  0  0  0  0  0  0  0  0  0  0
    0.6456   -3.0932   17.1091 O   0  0  0  0  0  0  0  0  0  0  0  0
  1  2  1  0  0  0  0
  1 16  1  6  0  0  0
  2  3  1  0  0  0  0
  2 12  1  1  0  0  0
  4 11  1  6  0  0  0
  4  3  1  0  0  0  0
  5  4  1  0  0  0  0
  5 10  1  1  0  0  0
  6  7  1  0  0  0  0
  6  5  1  0  0  0  0
  6 14  1  1  0  0  0
  7  8  1  0  0  0  0
  7 13  1  6  0  0  0
  8 15  1  6  0  0  0
  8 11  1  0  0  0  0
  9 13  1  0  0  0  0
 10  1  1  0  0  0  0
 17 15  1  6  0  0  0
 17 18  1  0  0  0  0
 18 25  1  6  0  0  0
 19 18  1  0  0  0  0
 19 26  1  6  0  0  0
 20 19  1  0  0  0  0
 20 24  1  6  0  0  0
 21 23  1  0  0  0  0
 21 20  1  0  0  0  0
 21 22  1  1  0  0  0
 23 17  1  0  0  0  0
 27 22  1  0  0  0  0
 28 29  1  0  0  0  0
 28 16  1  6  0  0  0
 29 36  1  1  0  0  0
 30 37  1  6  0  0  0
 30 29  1  0  0  0  0
 31 30  1  0  0  0  0
 31 34  1  1  0  0  0
 32 31  1  0  0  0  0
 32 33  1  0  0  0  0
 33 28  1  0  0  0  0
 33 35  1  1  0  0  0
M  END
>  <CHROM.1>
66.00150047,-145.65818689,172.95278131,67.22489877,-169.51458136,-148.01717984
169.90569826,66.86920394,-176.35575265,-90.93034451,-55.40276118,143.32144978
-58.43952755,-167.67987654,-169.04681173,76.69952965,-6.42676442,-4.85145950
12.57402348,-0.07901845,0.77693458,2.77754917

>  <Name>
lig.pdb

>  <RI>
0

>  <Rbt.Current_Directory>
/home/afrankz/demos/rdock_decoys_rna/rnas/2m4q

>  <Rbt.Executable>
rbdock ($Id: //depot/dev/client3/rdock/2013.1/src/exe/rbdock.cxx#4 $)

>  <Rbt.Library>
libRbt.so (2013.1, Build901 2013/11/27)

>  <Rbt.Parameter_File>
/export/apps/rDock/src/rDock_2013.1_src/data/scripts/dock_solv.prm

>  <Rbt.Receptor>
prm/blind_docking_40.prm

>  <SCORE>
-21.4189

>  <SCORE.INTER>
-21.0924

>  <SCORE.INTER.CONST>
1

>  <SCORE.INTER.POLAR>
-3.93147

>  <SCORE.INTER.ROT>
10

>  <SCORE.INTER.SOLV>
21.8481

>  <SCORE.INTER.VDW>
-18.5061

>  <SCORE.INTER.norm>
-0.570064

>  <SCORE.INTRA>
-12.5

>  <SCORE.INTRA.DIHEDRAL>
-26.4867

>  <SCORE.INTRA.DIHEDRAL.0>
44.8331

>  <SCORE.INTRA.POLAR>
-0.749184

>  <SCORE.INTRA.POLAR.0>
-0.108895

>  <SCORE.INTRA.REPUL>
-0.00912235

>  <SCORE.INTRA.REPUL.0>
0.00912235

>  <SCORE.INTRA.SOLV>
-0.377745

>  <SCORE.INTRA.SOLV.lig_0>
-53.9067

>  <SCORE.INTRA.VDW>
3.5251

>  <SCORE.INTRA.VDW.0>
-2.93492

>  <SCORE.INTRA.norm>
-0.337837

>  <SCORE.RESTR>
12.1735

>  <SCORE.RESTR.CAVITY>
12.1735

>  <SCORE.RESTR.norm>
0.329013

>  <SCORE.SYSTEM>
0

>  <SCORE.SYSTEM.CONST>
0

>  <SCORE.SYSTEM.DIHEDRAL>
0

>  <SCORE.SYSTEM.SOLV>
0

>  <SCORE.SYSTEM.norm>
0

>  <SCORE.heavy>
37

>  <SCORE.norm>
-0.578888

>  <RMSD>
16.615

$$$$
lig.pdb
 OpenBabel11021811453D
libRbt.so/2013.1/901 2013/11/27
 37 40  0  0  0  0  0  0  0  0999 V2000
  -13.1452    5.6234    3.3337 C   0  0  2  0  0  0  0  0  0  0  0  0
  -14.4036    6.5456    3.2189 C   0  0  1  0  0  0  0  0  0  0  0  0
  -14.7080    7.3367    4.5247 C   0  0  0  0  0  0  0  0  0  0  0  0
  -14.6943    6.4014    5.7592 C   0  0  1  0  0  0  0  0  0  0  0  0
  -13.3448    5.6530    5.8375 C   0  0  1  0  0  0  0  0  0  0  0  0
  -13.2851    4.7422    7.0930 C   0  0  1  0  0  0  0  0  0  0  0  0
  -13.6075    5.5532    8.3834 C   0  0  1  0  0  0  0  0  0  0  0  0
  -14.9306    6.3638    8.2476 C   0  0  2  0  0  0  0  0  0  0  0  0
  -14.9742    4.0312    9.7360 C   0  0  0  0  0  0  0  0  0  0  0  0
  -13.1080    4.9055    4.6098 O   0  0  0  0  0  0  0  0  0  0  0  0
  -14.9707    7.1177    6.9971 O   0  0  0  0  0  0  0  0  0  0  0  0
  -14.2289    7.4910    2.0949 N   0  0  0  0  0  0  0  0  0  0  0  0
  -13.6379    4.6334    9.5393 N   0  0  0  0  0  0  0  0  0  0  0  0
  -14.1497    3.6213    6.9596 O   0  0  0  0  0  0  0  0  0  0  0  0
  -15.1119    7.2386    9.3993 O   0  0  0  0  0  0  0  0  0  0  0  0
  -11.9138    6.3841    3.1402 O   0  0  0  0  0  0  0  0  0  0  0  0
  -15.9971    8.3929    9.2651 C   0  0  2  0  0  0  0  0  0  0  0  0
  -15.1887    9.6798    8.9352 C   0  0  1  0  0  0  0  0  0  0  0  0
  -14.3502   10.1613   10.1538 C   0  0  2  0  0  0  0  0  0  0  0  0
  -15.2384   10.3107   11.4230 C   0  0  1  0  0  0  0  0  0  0  0  0
  -16.0541    9.0162   11.6958 C   0  0  1  0  0  0  0  0  0  0  0  0
  -17.0449    9.1956   12.8758 C   0  0  0  0  0  0  0  0  0  0  0  0
  -16.7626    8.5974   10.4900 O   0  0  0  0  0  0  0  0  0  0  0  0
  -14.4351   10.7014   12.6022 N   0  0  0  0  0  0  0  0  0  0  0  0
  -14.3755    9.4785    7.7807 O   0  0  0  0  0  0  0  0  0  0  0  0
  -13.6655   11.3771    9.8597 O   0  0  0  0  0  0  0  0  0  0  0  0
  -16.3502    9.2502   14.1175 O   0  0  0  0  0  0  0  0  0  0  0  0
  -10.6525    5.7193    3.4419 C   0  0  1  0  0  0  0  0  0  0  0  0
  -10.3736    5.6666    4.9702 C   0  0  1  0  0  0  0  0  0  0  0  0
   -8.9809    5.0414    5.2644 C   0  0  2  0  0  0  0  0  0  0  0  0
   -8.8017    3.6413    4.5924 C   0  0  1  0  0  0  0  0  0  0  0  0
   -9.2043    3.6347    3.0872 C   0  0  0  0  0  0  0  0  0  0  0  0
  -10.5960    4.2888    2.8344 C   0  0  2  0  0  0  0  0  0  0  0  0
   -7.4199    3.1463    4.7704 N   0  0  0  0  0  0  0  0  0  0  0  0
  -10.8791    4.2896    1.3827 N   0  0  0  0  0  0  0  0  0  0  0  0
  -10.4785    6.9632    5.5493 O   0  0  0  0  0  0  0  0  0  0  0  0
   -8.7627    4.9511    6.6701 O   0  0  0  0  0  0  0  0  0  0  0  0
  1  2  1  0  0  0  0
  1 16  1  1  0  0  0
  2  3  1  0  0  0  0
  2 12  1  6  0  0  0
  4 11  1  1  0  0  0
  4  3  1  0  0  0  0
  5  4  1  0  0  0  0
  5 10  1  6  0  0  0
  6  7  1  0  0  0  0
  6  5  1  0  0  0  0
  6 14  1  6  0  0  0
  7  8  1  0  0  0  0
  7 13  1  1  0  0  0
  8 15  1  1  0  0  0
  8 11  1  0  0  0  0
  9 13  1  0  0  0  0
 10  1  1  0  0  0  0
 17 15  1  1  0  0  0
 17 18  1  0  0  0  0
 18 25  1  6  0  0  0
 19 18  1  0  0  0  0
 19 26  1  6  0  0  0
 20 19  1  0  0  0  0
 20 24  1  1  0  0  0
 21 23  1  0  0  0  0
 21 20  1  0  0  0  0
 21 22  1  1  0  0  0
 23 17  1  0  0  0  0
 27 22  1  0  0  0  0
 28 29  1  0  0  0  0
 28 16  1  1  0  0  0
 29 36  1  6  0  0  0
 30 37  1  1  0  0  0
 30 29  1  0  0  0  0
 31 30  1  0  0  0  0
 31 34  1  6  0  0  0
 32 31  1  0  0  0  0
 32 33  1  0  0  0  0
 33 28  1  0  0  0  0
 33 35  1  6  0  0  0
M  END
>  <CHROM.1>
-25.79608622,158.71875426,-87.49344872,166.91097677,-96.54295852,169.72564678
50.21286845,-43.60946233,-72.02861050,128.43140787,-36.42900300,-78.01316377
-40.53957488,100.62095305,-83.43042128,-164.27067610,-13.22876602,6.69674466
7.07882819,0.88649114,0.65915467,-1.64355263

>  <Name>
lig.pdb

>  <RI>
1.95696e+07

>  <Rbt.Current_Directory>
/home/itssahil/PROJECTS/Mol_Feturizer/New_Systems/rnas/2m4q

>  <Rbt.Executable>
rbdock ($Id: //depot/dev/client3/rdock/2013.1/src/exe/rbdock.cxx#4 $)

>  <Rbt.Library>
libRbt.so (2013.1, Build901 2013/11/27)

>  <Rbt.Parameter_File>
/export/apps/rDock/src/rDock_2013.1_src/data/scripts/dock_solv.prm

>  <Rbt.Receptor>
prm/blind_docking_100.prm

>  <SCORE>
-24.7565

>  <SCORE.INTER>
-29.0302

>  <SCORE.INTER.CONST>
1

>  <SCORE.INTER.POLAR>
-5.18361

>  <SCORE.INTER.ROT>
10

>  <SCORE.INTER.SOLV>
23.2329

>  <SCORE.INTER.VDW>
-20.0858

>  <SCORE.INTER.norm>
-0.7846

>  <SCORE.INTRA>
-3.21523

>  <SCORE.INTRA.DIHEDRAL>
-17.0545

>  <SCORE.INTRA.DIHEDRAL.0>
44.8331

>  <SCORE.INTRA.POLAR>
-0.4757

>  <SCORE.INTRA.POLAR.0>
-0.108895

>  <SCORE.INTRA.REPUL>
-0.00912235

>  <SCORE.INTRA.REPUL.0>
0.00912235

>  <SCORE.INTRA.SOLV>
-0.0256456

>  <SCORE.INTRA.SOLV.lig_0>
-53.9067

>  <SCORE.INTRA.VDW>
6.98782

>  <SCORE.INTRA.VDW.0>
-2.93492

>  <SCORE.INTRA.norm>
-0.0868982

>  <SCORE.RESTR>
7.4889

>  <SCORE.RESTR.CAVITY>
7.4889

>  <SCORE.RESTR.norm>
0.202403

>  <SCORE.SYSTEM>
0

>  <SCORE.SYSTEM.CONST>
0

>  <SCORE.SYSTEM.DIHEDRAL>
0

>  <SCORE.SYSTEM.SOLV>
0

>  <SCORE.SYSTEM.norm>
0

>  <SCORE.heavy>
37

>  <SCORE.norm>
-0.669095

>  <RMSD>
16.616

$$$$
lig.pdb
 OpenBabel11021811453D
libRbt.so/2013.1/901 2013/11/27
 37 40  0  0  0  0  0  0  0  0999 V2000
  -13.0742    5.1155    4.4514 C   0  0  2  0  0  0  0  0  0  0  0  0
  -14.1008    6.2791    4.2534 C   0  0  1  0  0  0  0  0  0  0  0  0
  -14.6456    6.8538    5.5938 C   0  0  0  0  0  0  0  0  0  0  0  0
  -15.1187    5.7188    6.5356 C   0  0  1  0  0  0  0  0  0  0  0  0
  -13.9702    4.7105    6.7628 C   0  0  1  0  0  0  0  0  0  0  0  0
  -14.4021    3.5857    7.7416 C   0  0  1  0  0  0  0  0  0  0  0  0
  -14.9567    4.1861    9.0677 C   0  0  1  0  0  0  0  0  0  0  0  0
  -16.0549    5.2597    8.8077 C   0  0  2  0  0  0  0  0  0  0  0  0
  -15.3792    3.4373   11.3644 C   0  0  0  0  0  0  0  0  0  0  0  0
  -13.5053    4.1767    5.4896 O   0  0  0  0  0  0  0  0  0  0  0  0
  -15.6286    6.2288    7.8013 O   0  0  0  0  0  0  0  0  0  0  0  0
  -13.4792    7.3646    3.4641 N   0  0  0  0  0  0  0  0  0  0  0  0
  -15.4470    3.0898    9.9285 N   0  0  0  0  0  0  0  0  0  0  0  0
  -15.3460    2.7102    7.1380 O   0  0  0  0  0  0  0  0  0  0  0  0
  -16.4271    5.9189   10.0533 O   0  0  0  0  0  0  0  0  0  0  0  0
  -11.7420    5.6323    4.7522 O   0  0  0  0  0  0  0  0  0  0  0  0
  -15.3789    6.5629   10.8411 C   0  0  2  0  0  0  0  0  0  0  0  0
  -15.9570    7.7327   11.6873 C   0  0  1  0  0  0  0  0  0  0  0  0
  -16.3641    8.9413   10.7966 C   0  0  2  0  0  0  0  0  0  0  0  0
  -15.1896    9.3809    9.8751 C   0  0  1  0  0  0  0  0  0  0  0  0
  -14.6198    8.1766    9.0748 C   0  0  1  0  0  0  0  0  0  0  0  0
  -13.3627    8.5703    8.2556 C   0  0  0  0  0  0  0  0  0  0  0  0
  -14.3198    7.0651    9.9725 O   0  0  0  0  0  0  0  0  0  0  0  0
  -15.5916   10.4850    8.9763 N   0  0  0  0  0  0  0  0  0  0  0  0
  -17.0440    7.2794   12.4921 O   0  0  0  0  0  0  0  0  0  0  0  0
  -16.8311   10.0309   11.5892 O   0  0  0  0  0  0  0  0  0  0  0  0
  -12.6614    7.4122    7.8148 O   0  0  0  0  0  0  0  0  0  0  0  0
  -10.6006    4.7752    4.4579 C   0  0  1  0  0  0  0  0  0  0  0  0
  -10.2500    4.7731    2.9435 C   0  0  1  0  0  0  0  0  0  0  0  0
   -9.0938    3.7799    2.6375 C   0  0  2  0  0  0  0  0  0  0  0  0
   -7.8336    4.0398    3.5253 C   0  0  1  0  0  0  0  0  0  0  0  0
   -8.1762    4.1807    5.0388 C   0  0  0  0  0  0  0  0  0  0  0  0
   -9.3532    5.1686    5.2991 C   0  0  2  0  0  0  0  0  0  0  0  0
   -6.8148    2.9899    3.3114 N   0  0  0  0  0  0  0  0  0  0  0  0
   -9.6486    5.2057    6.7478 N   0  0  0  0  0  0  0  0  0  0  0  0
  -11.3984    4.4701    2.1580 O   0  0  0  0  0  0  0  0  0  0  0  0
   -8.7484    3.8286    1.2554 O   0  0  0  0  0  0  0  0  0  0  0  0
  1  2  1  0  0  0  0
  1 16  1  1  0  0  0
  2  3  1  0  0  0  0
  2 12  1  1  0  0  0
  4 11  1  1  0  0  0
  4  3  1  0  0  0  0
  5  4  1  0  0  0  0
  5 10  1  6  0  0  0
  6  7  1  0  0  0  0
  6  5  1  0  0  0  0
  6 14  1  6  0  0  0
  7  8  1  0  0  0  0
  7 13  1  1  0  0  0
  8 15  1  1  0  0  0
  8 11  1  0  0  0  0
  9 13  1  0  0  0  0
 10  1  1  0  0  0  0
 17 15  1  6  0  0  0
 17 18  1  0  0  0  0
 18 25  1  6  0  0  0
 19 18  1  0  0  0  0
 19 26  1  1  0  0  0
 20 19  1  0  0  0  0
 20 24  1  6  0  0  0
 21 23  1  0  0  0  0
 21 20  1  0  0  0  0
 21 22  1  1  0  0  0
 23 17  1  0  0  0  0
 27 22  1  0  0  0  0
 28 29  1  0  0  0  0
 28 16  1  6  0  0  0
 29 36  1  6  0  0  0
 30 37  1  6  0  0  0
 30 29  1  0  0  0  0
 31 30  1  0  0  0  0
 31 34  1  1  0  0  0
 32 31  1  0  0  0  0
 32 33  1  0  0  0  0
 33 28  1  0  0  0  0
 33 35  1  1  0  0  0
M  END
>  <CHROM.1>
-66.75596160,56.16853709,152.64384908,69.74505987,152.70108040,-156.63344378
71.54929618,69.87941321,164.98698523,59.87744430,-37.97559236,78.10202841
175.63774295,-59.01006950,-170.90665297,-42.11721197,-13.31777939,5.82403082
7.08478523,-0.27610690,0.84927103,-0.05160911

>  <Name>
lig.pdb

>  <RI>
1.95696e+07

>  <Rbt.Current_Directory>
/home/itssahil/PROJECTS/Mol_Feturizer/New_Systems/rnas/2m4q

>  <Rbt.Executable>
rbdock ($Id: //depot/dev/client3/rdock/2013.1/src/exe/rbdock.cxx#4 $)

>  <Rbt.Library>
libRbt.so (2013.1, Build901 2013/11/27)

>  <Rbt.Parameter_File>
/export/apps/rDock/src/rDock_2013.1_src/data/scripts/dock_solv.prm

>  <Rbt.Receptor>
prm/blind_docking_100.prm

>  <SCORE>
-17.4991

>  <SCORE.INTER>
-16.8618

>  <SCORE.INTER.CONST>
1

>  <SCORE.INTER.POLAR>
-3.08137

>  <SCORE.INTER.ROT>
10

>  <SCORE.INTER.SOLV>
15.4596

>  <SCORE.INTER.VDW>
-16.3898

>  <SCORE.INTER.norm>
-0.455723

>  <SCORE.INTRA>
-12.5489

>  <SCORE.INTRA.DIHEDRAL>
-30.8785

>  <SCORE.INTRA.DIHEDRAL.0>
44.8331

>  <SCORE.INTRA.POLAR>
-0.218504

>  <SCORE.INTRA.POLAR.0>
-0.108895

>  <SCORE.INTRA.REPUL>
0.507936

>  <SCORE.INTRA.REPUL.0>
0.00912235

>  <SCORE.INTRA.SOLV>
0.749067

>  <SCORE.INTRA.SOLV.lig_0>
-53.9067

>  <SCORE.INTRA.VDW>
0.719052

>  <SCORE.INTRA.VDW.0>
-2.93492

>  <SCORE.INTRA.norm>
-0.339159

>  <SCORE.RESTR>
11.9115

>  <SCORE.RESTR.CAVITY>
11.9115

>  <SCORE.RESTR.norm>
0.321933

>  <SCORE.SYSTEM>
0

>  <SCORE.SYSTEM.CONST>
0

>  <SCORE.SYSTEM.DIHEDRAL>
0

>  <SCORE.SYSTEM.SOLV>
0

>  <SCORE.SYSTEM.norm>
0

>  <SCORE.heavy>
37

>  <SCORE.norm>
-0.47295

>  <RMSD>
16.619

$$$$
lig.pdb
 OpenBabel11021811453D
libRbt.so/2013.1/901 2013/11/27
 37 40  0  0  0  0  0  0  0  0999 V2000
   -4.9818   -3.9357   15.6700 C   0  0  2  0  0  0  0  0  0  0  0  0
   -5.6580   -5.2512   16.1793 C   0  0  1  0  0  0  0  0  0  0  0  0
   -6.1037   -6.1997   15.0280 C   0  0  0  0  0  0  0  0  0  0  0  0
   -6.9047   -5.4290   13.9494 C   0  0  1  0  0  0  0  0  0  0  0  0
   -6.0721   -4.2368   13.4272 C   0  0  1  0  0  0  0  0  0  0  0  0
   -6.8327   -3.4731   12.3101 C   0  0  1  0  0  0  0  0  0  0  0  0
   -7.2804   -4.4455   11.1784 C   0  0  1  0  0  0  0  0  0  0  0  0
   -8.0458   -5.6806   11.7394 C   0  0  2  0  0  0  0  0  0  0  0  0
   -8.2745   -4.4646    8.9367 C   0  0  0  0  0  0  0  0  0  0  0  0
   -5.6964   -3.3602   14.5284 O   0  0  0  0  0  0  0  0  0  0  0  0
   -7.3296   -6.2925   12.8559 O   0  0  0  0  0  0  0  0  0  0  0  0
   -4.7346   -5.9692   17.0846 N   0  0  0  0  0  0  0  0  0  0  0  0
   -8.0837   -3.6994   10.1878 N   0  0  0  0  0  0  0  0  0  0  0  0
   -7.9391   -2.7529   12.8382 O   0  0  0  0  0  0  0  0  0  0  0  0
   -8.2980   -6.6478   10.6785 O   0  0  0  0  0  0  0  0  0  0  0  0
   -3.5786   -4.1595   15.3335 O   0  0  0  0  0  0  0  0  0  0  0  0
   -9.6121   -7.2824   10.6121 C   0  0  2  0  0  0  0  0  0  0  0  0
   -9.7096   -8.2353    9.3869 C   0  0  1  0  0  0  0  0  0  0  0  0
   -9.7563   -7.4470    8.0467 C   0  0  2  0  0  0  0  0  0  0  0  0
  -10.8781   -6.3685    8.0681 C   0  0  1  0  0  0  0  0  0  0  0  0
  -10.7641   -5.4614    9.3249 C   0  0  1  0  0  0  0  0  0  0  0  0
  -11.9527   -4.4703    9.4317 C   0  0  0  0  0  0  0  0  0  0  0  0
  -10.6647   -6.2754   10.5328 O   0  0  0  0  0  0  0  0  0  0  0  0
  -10.8830   -5.5688    6.8235 N   0  0  0  0  0  0  0  0  0  0  0  0
   -8.6453   -9.1848    9.4047 O   0  0  0  0  0  0  0  0  0  0  0  0
   -9.9114   -8.3280    6.9362 O   0  0  0  0  0  0  0  0  0  0  0  0
  -13.1806   -5.1684    9.6112 O   0  0  0  0  0  0  0  0  0  0  0  0
   -2.6028   -3.1928   15.8204 C   0  0  1  0  0  0  0  0  0  0  0  0
   -1.3837   -3.8847   16.4921 C   0  0  1  0  0  0  0  0  0  0  0  0
   -0.4033   -2.8363   17.0895 C   0  0  2  0  0  0  0  0  0  0  0  0
    0.0413   -1.7684   16.0379 C   0  0  1  0  0  0  0  0  0  0  0  0
   -1.1565   -1.1544   15.2529 C   0  0  0  0  0  0  0  0  0  0  0  0
   -2.1247   -2.2380   14.6897 C   0  0  2  0  0  0  0  0  0  0  0  0
    0.8518   -0.7090   16.6756 N   0  0  0  0  0  0  0  0  0  0  0  0
   -3.2564   -1.5745   14.0067 N   0  0  0  0  0  0  0  0  0  0  0  0
   -1.8105   -4.8050   17.4913 O   0  0  0  0  0  0  0  0  0  0  0  0
    0.7342   -3.4835   17.6541 O   0  0  0  0  0  0  0  0  0  0  0  0
  1  2  1  0  0  0  0
  1 16  1  6  0  0  0
  2  3  1  0  0  0  0
  2 12  1  1  0  0  0
  4 11  1  6  0  0  0
  4  3  1  0  0  0  0
  5  4  1  0  0  0  0
  5 10  1  1  0  0  0
  6  7  1  0  0  0  0
  6  5  1  0  0  0  0
  6 14  1  1  0  0  0
  7  8  1  0  0  0  0
  7 13  1  6  0  0  0
  8 15  1  6  0  0  0
  8 11  1  0  0  0  0
  9 13  1  0  0  0  0
 10  1  1  0  0  0  0
 17 15  1  6  0  0  0
 17 18  1  0  0  0  0
 18 25  1  6  0  0  0
 19 18  1  0  0  0  0
 19 26  1  6  0  0  0
 20 19  1  0  0  0  0
 20 24  1  6  0  0  0
 21 23  1  0  0  0  0
 21 20  1  0  0  0  0
 21 22  1  1  0  0  0
 23 17  1  0  0  0  0
 27 22  1  0  0  0  0
 28 29  1  0  0  0  0
 28 16  1  6  0  0  0
 29 36  1  1  0  0  0
 30 37  1  6  0  0  0
 30 29  1  0  0  0  0
 31 30  1  0  0  0  0
 31 34  1  1  0  0  0
 32 31  1  0  0  0  0
 32 33  1  0  0  0  0
 33 28  1  0  0  0  0
 33 35  1  1  0  0  0
M  END
>  <CHROM.1>
81.82673970,-137.13316277,166.53551119,-55.26862146,177.72342178,-133.71266006
-170.33107010,-161.64198930,64.00225665,173.78632409,-170.95943222,131.90063080
179.95694543,87.66045758,68.34466747,-148.80733827,-6.31181546,-4.75420726
12.72051805,0.00318650,0.74402547,2.69955824

>  <Name>
lig.pdb

>  <RI>
0

>  <Rbt.Current_Directory>
/home/afrankz/demos/rdock_decoys_rna/rnas/2m4q

>  <Rbt.Executable>
rbdock ($Id: //depot/dev/client3/rdock/2013.1/src/exe/rbdock.cxx#4 $)

>  <Rbt.Library>
libRbt.so (2013.1, Build901 2013/11/27)

>  <Rbt.Parameter_File>
/export/apps/rDock/src/rDock_2013.1_src/data/scripts/dock_solv.prm

>  <Rbt.Receptor>
prm/blind_docking_40.prm

>  <SCORE>
-19.3166

>  <SCORE.INTER>
-25.369

>  <SCORE.INTER.CONST>
1

>  <SCORE.INTER.POLAR>
-5.22321

>  <SCORE.INTER.ROT>
10

>  <SCORE.INTER.SOLV>
23.4677

>  <SCORE.INTER.VDW>
-17.5912

>  <SCORE.INTER.norm>
-0.685648

>  <SCORE.INTRA>
-5.74597

>  <SCORE.INTRA.DIHEDRAL>
-17.4568

>  <SCORE.INTRA.DIHEDRAL.0>
44.8331

>  <SCORE.INTRA.POLAR>
-0.433755

>  <SCORE.INTRA.POLAR.0>
-0.108895

>  <SCORE.INTRA.REPUL>
-0.00912235

>  <SCORE.INTRA.REPUL.0>
0.00912235

>  <SCORE.INTRA.SOLV>
0.0836435

>  <SCORE.INTRA.SOLV.lig_0>
-53.9067

>  <SCORE.INTRA.VDW>
4.46099

>  <SCORE.INTRA.VDW.0>
-2.93492

>  <SCORE.INTRA.norm>
-0.155296

>  <SCORE.RESTR>
11.7983

>  <SCORE.RESTR.CAVITY>
11.7983

>  <SCORE.RESTR.norm>
0.318873

>  <SCORE.SYSTEM>
0

>  <SCORE.SYSTEM.CONST>
0

>  <SCORE.SYSTEM.DIHEDRAL>
0

>  <SCORE.SYSTEM.SOLV>
0

>  <SCORE.SYSTEM.norm>
0

>  <SCORE.heavy>
37

>  <SCORE.norm>
-0.522071

>  <RMSD>
16.619

$$$$
lig.pdb
 OpenBabel11021811453D
libRbt.so/2013.1/901 2013/11/27
 37 40  0  0  0  0  0  0  0  0999 V2000
  -13.0605    5.5406    3.0781 C   0  0  2  0  0  0  0  0  0  0  0  0
  -14.2660    6.5279    2.9402 C   0  0  1  0  0  0  0  0  0  0  0  0
  -14.4639    7.4358    4.1893 C   0  0  0  0  0  0  0  0  0  0  0  0
  -14.4498    6.6004    5.4935 C   0  0  1  0  0  0  0  0  0  0  0  0
  -13.1448    5.7775    5.5774 C   0  0  1  0  0  0  0  0  0  0  0  0
  -13.0825    4.9653    6.8987 C   0  0  1  0  0  0  0  0  0  0  0  0
  -13.2978    5.8929    8.1316 C   0  0  1  0  0  0  0  0  0  0  0  0
  -14.5755    6.7716    7.9844 C   0  0  2  0  0  0  0  0  0  0  0  0
  -14.6124    4.3484    9.5099 C   0  0  0  0  0  0  0  0  0  0  0  0
  -13.0083    4.9233    4.4053 O   0  0  0  0  0  0  0  0  0  0  0  0
  -14.6273    7.4268    6.6799 O   0  0  0  0  0  0  0  0  0  0  0  0
  -14.0867    7.3701    1.7377 N   0  0  0  0  0  0  0  0  0  0  0  0
  -13.3303    5.0696    9.3580 N   0  0  0  0  0  0  0  0  0  0  0  0
  -14.0169    3.8937    6.8909 O   0  0  0  0  0  0  0  0  0  0  0  0
  -14.6525    7.7431    9.0683 O   0  0  0  0  0  0  0  0  0  0  0  0
  -11.7962    6.2055    2.7746 O   0  0  0  0  0  0  0  0  0  0  0  0
  -15.5816    8.8625    8.9359 C   0  0  2  0  0  0  0  0  0  0  0  0
  -14.8310   10.2223    9.0158 C   0  0  1  0  0  0  0  0  0  0  0  0
  -14.3124   10.5101   10.4539 C   0  0  2  0  0  0  0  0  0  0  0  0
  -15.4584   10.3867   11.4995 C   0  0  1  0  0  0  0  0  0  0  0  0
  -16.2034    9.0296   11.3620 C   0  0  1  0  0  0  0  0  0  0  0  0
  -17.4330    8.9475   12.3042 C   0  0  0  0  0  0  0  0  0  0  0  0
  -16.6034    8.8068    9.9758 O   0  0  0  0  0  0  0  0  0  0  0  0
  -14.9581   10.5909   12.8766 N   0  0  0  0  0  0  0  0  0  0  0  0
  -13.7780   10.2704    8.0548 O   0  0  0  0  0  0  0  0  0  0  0  0
  -13.6839   11.7879   10.5286 O   0  0  0  0  0  0  0  0  0  0  0  0
  -17.0732    9.2897   13.6386 O   0  0  0  0  0  0  0  0  0  0  0  0
  -10.5663    5.5466    3.1955 C   0  0  1  0  0  0  0  0  0  0  0  0
  -10.4416    5.4819    4.7435 C   0  0  1  0  0  0  0  0  0  0  0  0
   -9.0805    4.8636    5.1706 C   0  0  2  0  0  0  0  0  0  0  0  0
   -8.8240    3.4710    4.5082 C   0  0  1  0  0  0  0  0  0  0  0  0
   -9.0737    3.4754    2.9702 C   0  0  0  0  0  0  0  0  0  0  0  0
  -10.4382    4.1222    2.5847 C   0  0  2  0  0  0  0  0  0  0  0  0
   -7.4632    2.9839    4.8196 N   0  0  0  0  0  0  0  0  0  0  0  0
  -10.5744    4.1343    1.1121 N   0  0  0  0  0  0  0  0  0  0  0  0
  -10.6140    6.7724    5.3201 O   0  0  0  0  0  0  0  0  0  0  0  0
   -9.0035    4.7620    6.5903 O   0  0  0  0  0  0  0  0  0  0  0  0
  1  2  1  0  0  0  0
  1 16  1  1  0  0  0
  2  3  1  0  0  0  0
  2 12  1  6  0  0  0
  4 11  1  1  0  0  0
  4  3  1  0  0  0  0
  5  4  1  0  0  0  0
  5 10  1  6  0  0  0
  6  7  1  0  0  0  0
  6  5  1  0  0  0  0
  6 14  1  6  0  0  0
  7  8  1  0  0  0  0
  7 13  1  1  0  0  0
  8 15  1  1  0  0  0
  8 11  1  0  0  0  0
  9 13  1  0  0  0  0
 10  1  1  0  0  0  0
 17 15  1  1  0  0  0
 17 18  1  0  0  0  0
 18 25  1  6  0  0  0
 19 18  1  0  0  0  0
 19 26  1  6  0  0  0
 20 19  1  0  0  0  0
 20 24  1  1  0  0  0
 21 23  1  0  0  0  0
 21 20  1  0  0  0  0
 21 22  1  1  0  0  0
 23 17  1  0  0  0  0
 27 22  1  0  0  0  0
 28 29  1  0  0  0  0
 28 16  1  1  0  0  0
 29 36  1  1  0  0  0
 30 37  1  1  0  0  0
 30 29  1  0  0  0  0
 31 30  1  0  0  0  0
 31 34  1  6  0  0  0
 32 31  1  0  0  0  0
 32 33  1  0  0  0  0
 33 28  1  0  0  0  0
 33 35  1  6  0  0  0
M  END
>  <CHROM.1>
91.87474772,165.13891640,-75.93167312,73.95241716,-121.15193954,163.89040538
-72.21189775,83.46919333,-50.92742965,-80.41038309,-54.46533798,-66.27598127
-39.50037036,148.87431471,-65.96713918,-160.47107079,-13.13680782,6.79617142
6.91242805,0.87523782,0.70036590,-1.64699626

>  <Name>
lig.pdb

>  <RI>
1.95696e+07

>  <Rbt.Current_Directory>
/home/itssahil/PROJECTS/Mol_Feturizer/New_Systems/rnas/2m4q

>  <Rbt.Executable>
rbdock ($Id: //depot/dev/client3/rdock/2013.1/src/exe/rbdock.cxx#4 $)

>  <Rbt.Library>
libRbt.so (2013.1, Build901 2013/11/27)

>  <Rbt.Parameter_File>
/export/apps/rDock/src/rDock_2013.1_src/data/scripts/dock_solv.prm

>  <Rbt.Receptor>
prm/blind_docking_100.prm

>  <SCORE>
-27.3848

>  <SCORE.INTER>
-29.567

>  <SCORE.INTER.CONST>
1

>  <SCORE.INTER.POLAR>
-5.58966

>  <SCORE.INTER.ROT>
10

>  <SCORE.INTER.SOLV>
22.459

>  <SCORE.INTER.VDW>
-18.8321

>  <SCORE.INTER.norm>
-0.799108

>  <SCORE.INTRA>
-4.84648

>  <SCORE.INTRA.DIHEDRAL>
-21.413

>  <SCORE.INTRA.DIHEDRAL.0>
44.8331

>  <SCORE.INTRA.POLAR>
-0.247579

>  <SCORE.INTRA.POLAR.0>
-0.108895

>  <SCORE.INTRA.REPUL>
-0.00912235

>  <SCORE.INTRA.REPUL.0>
0.00912235

>  <SCORE.INTRA.SOLV>
0.195627

>  <SCORE.INTRA.SOLV.lig_0>
-53.9067

>  <SCORE.INTRA.VDW>
6.64956

>  <SCORE.INTRA.VDW.0>
-2.93492

>  <SCORE.INTRA.norm>
-0.130986

>  <SCORE.RESTR>
7.02863

>  <SCORE.RESTR.CAVITY>
7.02863

>  <SCORE.RESTR.norm>
0.189963

>  <SCORE.SYSTEM>
0

>  <SCORE.SYSTEM.CONST>
0

>  <SCORE.SYSTEM.DIHEDRAL>
0

>  <SCORE.SYSTEM.SOLV>
0

>  <SCORE.SYSTEM.norm>
0

>  <SCORE.heavy>
37

>  <SCORE.norm>
-0.740131

>  <RMSD>
16.620

$$$$
lig.pdb
 OpenBabel11021811453D
libRbt.so/2013.1/901 2013/11/27
 37 40  0  0  0  0  0  0  0  0999 V2000
  -13.0944    5.5967    3.2292 C   0  0  2  0  0  0  0  0  0  0  0  0
  -14.3333    6.5411    3.0864 C   0  0  1  0  0  0  0  0  0  0  0  0
  -14.5997    7.4028    4.3554 C   0  0  0  0  0  0  0  0  0  0  0  0
  -14.5881    6.5297    5.6346 C   0  0  1  0  0  0  0  0  0  0  0  0
  -13.2548    5.7550    5.7310 C   0  0  1  0  0  0  0  0  0  0  0  0
  -13.1964    4.9064    7.0294 C   0  0  1  0  0  0  0  0  0  0  0  0
  -13.4805    5.7876    8.2822 C   0  0  1  0  0  0  0  0  0  0  0  0
  -14.7870    6.6210    8.1250 C   0  0  2  0  0  0  0  0  0  0  0  0
  -14.7796    4.1699    9.5895 C   0  0  0  0  0  0  0  0  0  0  0  0
  -13.0538    4.9422    4.5388 O   0  0  0  0  0  0  0  0  0  0  0  0
  -14.8293    7.3127    6.8391 O   0  0  0  0  0  0  0  0  0  0  0  0
  -14.1547    7.4253    1.9143 N   0  0  0  0  0  0  0  0  0  0  0  0
  -13.5138    4.9271    9.4829 N   0  0  0  0  0  0  0  0  0  0  0  0
  -14.0879    3.8007    6.9644 O   0  0  0  0  0  0  0  0  0  0  0  0
  -14.9308    7.5558    9.2340 O   0  0  0  0  0  0  0  0  0  0  0  0
  -11.8493    6.3181    2.9805 O   0  0  0  0  0  0  0  0  0  0  0  0
  -15.6080    8.8271    8.9905 C   0  0  2  0  0  0  0  0  0  0  0  0
  -14.5949   10.0071    8.9901 C   0  0  1  0  0  0  0  0  0  0  0  0
  -14.0477   10.2966   10.4172 C   0  0  2  0  0  0  0  0  0  0  0  0
  -15.2087   10.4932   11.4348 C   0  0  1  0  0  0  0  0  0  0  0  0
  -16.2148    9.3100   11.3777 C   0  0  1  0  0  0  0  0  0  0  0  0
  -17.4477    9.5557   12.2866 C   0  0  0  0  0  0  0  0  0  0  0  0
  -16.6334    9.0639   10.0009 O   0  0  0  0  0  0  0  0  0  0  0  0
  -14.6957   10.7001   12.8069 N   0  0  0  0  0  0  0  0  0  0  0  0
  -13.5416    9.7628    8.0598 O   0  0  0  0  0  0  0  0  0  0  0  0
  -13.1709   11.4212   10.4142 O   0  0  0  0  0  0  0  0  0  0  0  0
  -18.1370   10.7392   11.8974 O   0  0  0  0  0  0  0  0  0  0  0  0
  -10.6015    5.6639    3.3533 C   0  0  1  0  0  0  0  0  0  0  0  0
  -10.4141    5.6042    4.8952 C   0  0  1  0  0  0  0  0  0  0  0  0
   -9.0351    4.9910    5.2687 C   0  0  2  0  0  0  0  0  0  0  0  0
   -8.8015    3.5972    4.6005 C   0  0  1  0  0  0  0  0  0  0  0  0
   -9.1132    3.5962    3.0739 C   0  0  0  0  0  0  0  0  0  0  0  0
  -10.4940    4.2380    2.7420 C   0  0  2  0  0  0  0  0  0  0  0  0
   -7.4278    3.1148    4.8581 N   0  0  0  0  0  0  0  0  0  0  0  0
  -10.6897    4.2453    1.2760 N   0  0  0  0  0  0  0  0  0  0  0  0
  -10.5669    6.8959    5.4746 O   0  0  0  0  0  0  0  0  0  0  0  0
   -8.9005    4.8939    6.6844 O   0  0  0  0  0  0  0  0  0  0  0  0
  1  2  1  0  0  0  0
  1 16  1  1  0  0  0
  2  3  1  0  0  0  0
  2 12  1  6  0  0  0
  4 11  1  1  0  0  0
  4  3  1  0  0  0  0
  5  4  1  0  0  0  0
  5 10  1  6  0  0  0
  6  7  1  0  0  0  0
  6  5  1  0  0  0  0
  6 14  1  6  0  0  0
  7  8  1  0  0  0  0
  7 13  1  1  0  0  0
  8 15  1  1  0  0  0
  8 11  1  0  0  0  0
  9 13  1  0  0  0  0
 10  1  1  0  0  0  0
 17 15  1  1  0  0  0
 17 18  1  0  0  0  0
 18 25  1  6  0  0  0
 19 18  1  0  0  0  0
 19 26  1  6  0  0  0
 20 19  1  0  0  0  0
 20 24  1  1  0  0  0
 21 23  1  0  0  0  0
 21 20  1  0  0  0  0
 21 22  1  1  0  0  0
 23 17  1  0  0  0  0
 27 22  1  0  0  0  0
 28 29  1  0  0  0  0
 28 16  1  1  0  0  0
 29 36  1  6  0  0  0
 30 37  1  1  0  0  0
 30 29  1  0  0  0  0
 31 30  1  0  0  0  0
 31 34  1  6  0  0  0
 32 31  1  0  0  0  0
 32 33  1  0  0  0  0
 33 28  1  0  0  0  0
 33 35  1  6  0  0  0
M  END
>  <CHROM.1>
178.55186509,148.83698658,-76.85885142,59.32091656,-107.82949892,167.00238713
-59.28873479,82.95586529,59.35682232,159.71749719,-61.94193491,-71.61326802
-41.88289563,143.83292046,-74.03239557,65.21627585,-13.18484494,6.85359328
6.94581335,0.92449683,0.55312403,-1.80181415

>  <Name>
lig.pdb

>  <RI>
1.95696e+07

>  <Rbt.Current_Directory>
/home/itssahil/PROJECTS/Mol_Feturizer/New_Systems/rnas/2m4q

>  <Rbt.Executable>
rbdock ($Id: //depot/dev/client3/rdock/2013.1/src/exe/rbdock.cxx#4 $)

>  <Rbt.Library>
libRbt.so (2013.1, Build901 2013/11/27)

>  <Rbt.Parameter_File>
/export/apps/rDock/src/rDock_2013.1_src/data/scripts/dock_solv.prm

>  <Rbt.Receptor>
prm/blind_docking_100.prm

>  <SCORE>
-28.1278

>  <SCORE.INTER>
-28.4061

>  <SCORE.INTER.CONST>
1

>  <SCORE.INTER.POLAR>
-5.38485

>  <SCORE.INTER.ROT>
10

>  <SCORE.INTER.SOLV>
22.9135

>  <SCORE.INTER.VDW>
-18.8924

>  <SCORE.INTER.norm>
-0.767731

>  <SCORE.INTRA>
-6.78963

>  <SCORE.INTRA.DIHEDRAL>
-22.6695

>  <SCORE.INTRA.DIHEDRAL.0>
44.8331

>  <SCORE.INTRA.POLAR>
-0.000162186

>  <SCORE.INTRA.POLAR.0>
-0.108895

>  <SCORE.INTRA.REPUL>
-0.00912235

>  <SCORE.INTRA.REPUL.0>
0.00912235

>  <SCORE.INTRA.SOLV>
-0.301242

>  <SCORE.INTRA.SOLV.lig_0>
-53.9067

>  <SCORE.INTRA.VDW>
4.74188

>  <SCORE.INTRA.VDW.0>
-2.93492

>  <SCORE.INTRA.norm>
-0.183503

>  <SCORE.RESTR>
7.06794

>  <SCORE.RESTR.CAVITY>
7.06794

>  <SCORE.RESTR.norm>
0.191025

>  <SCORE.SYSTEM>
0

>  <SCORE.SYSTEM.CONST>
0

>  <SCORE.SYSTEM.DIHEDRAL>
0

>  <SCORE.SYSTEM.SOLV>
0

>  <SCORE.SYSTEM.norm>
0

>  <SCORE.heavy>
37

>  <SCORE.norm>
-0.76021

>  <RMSD>
16.620

$$$$
lig.pdb
 OpenBabel11021811453D
libRbt.so/2013.1/901 2013/11/27
 37 40  0  0  0  0  0  0  0  0999 V2000
  -12.6339    4.7185    4.2936 C   0  0  2  0  0  0  0  0  0  0  0  0
  -13.6928    5.7913    3.8755 C   0  0  1  0  0  0  0  0  0  0  0  0
  -14.1345    6.7110    5.0514 C   0  0  0  0  0  0  0  0  0  0  0  0
  -14.5089    5.8766    6.3014 C   0  0  1  0  0  0  0  0  0  0  0  0
  -13.3287    4.9605    6.6953 C   0  0  1  0  0  0  0  0  0  0  0  0
  -13.6592    4.1456    7.9746 C   0  0  1  0  0  0  0  0  0  0  0  0
  -14.1122    5.0862    9.1307 C   0  0  1  0  0  0  0  0  0  0  0  0
  -15.2460    6.0560    8.6834 C   0  0  2  0  0  0  0  0  0  0  0  0
  -15.9057    3.7877   10.1847 C   0  0  0  0  0  0  0  0  0  0  0  0
  -12.9618    4.0988    5.5795 O   0  0  0  0  0  0  0  0  0  0  0  0
  -14.9208    6.7135    7.4203 O   0  0  0  0  0  0  0  0  0  0  0  0
  -13.1570    6.6185    2.7726 N   0  0  0  0  0  0  0  0  0  0  0  0
  -14.5110    4.2672   10.2940 N   0  0  0  0  0  0  0  0  0  0  0  0
  -14.6348    3.1452    7.7120 O   0  0  0  0  0  0  0  0  0  0  0  0
  -15.5250    7.0303    9.7310 O   0  0  0  0  0  0  0  0  0  0  0  0
  -11.2903    5.2892    4.3301 O   0  0  0  0  0  0  0  0  0  0  0  0
  -16.2517    8.2467    9.3758 C   0  0  2  0  0  0  0  0  0  0  0  0
  -15.4489    9.0959    8.3496 C   0  0  1  0  0  0  0  0  0  0  0  0
  -14.1939    9.7474    8.9980 C   0  0  2  0  0  0  0  0  0  0  0  0
  -14.5732   10.5433   10.2803 C   0  0  1  0  0  0  0  0  0  0  0  0
  -15.4030    9.6692   11.2616 C   0  0  1  0  0  0  0  0  0  0  0  0
  -15.9045   10.4868   12.4808 C   0  0  0  0  0  0  0  0  0  0  0  0
  -16.5248    9.0469   10.5647 O   0  0  0  0  0  0  0  0  0  0  0  0
  -13.3756   11.1076   10.9404 N   0  0  0  0  0  0  0  0  0  0  0  0
  -15.1072    8.3114    7.2084 O   0  0  0  0  0  0  0  0  0  0  0  0
  -13.5032   10.5752    8.0647 O   0  0  0  0  0  0  0  0  0  0  0  0
  -14.8493   10.7104   13.4102 O   0  0  0  0  0  0  0  0  0  0  0  0
  -10.1686    4.3988    4.0598 C   0  0  1  0  0  0  0  0  0  0  0  0
   -9.7793    4.3941    2.5550 C   0  0  1  0  0  0  0  0  0  0  0  0
   -8.6467    3.3672    2.2725 C   0  0  2  0  0  0  0  0  0  0  0  0
   -7.4025    3.5831    3.1940 C   0  0  1  0  0  0  0  0  0  0  0  0
   -7.7796    3.7264    4.6990 C   0  0  0  0  0  0  0  0  0  0  0  0
   -8.9318    4.7488    4.9352 C   0  0  2  0  0  0  0  0  0  0  0  0
   -6.4113    2.5034    2.9997 N   0  0  0  0  0  0  0  0  0  0  0  0
   -9.2633    4.7871    6.3760 N   0  0  0  0  0  0  0  0  0  0  0  0
  -10.9158    4.1310    1.7384 O   0  0  0  0  0  0  0  0  0  0  0  0
   -8.2643    3.4128    0.9001 O   0  0  0  0  0  0  0  0  0  0  0  0
  1  2  1  0  0  0  0
  1 16  1  1  0  0  0
  2  3  1  0  0  0  0
  2 12  1  6  0  0  0
  4 11  1  1  0  0  0
  4  3  1  0  0  0  0
  5  4  1  0  0  0  0
  5 10  1  6  0  0  0
  6  7  1  0  0  0  0
  6  5  1  0  0  0  0
  6 14  1  6  0  0  0
  7  8  1  0  0  0  0
  7 13  1  1  0  0  0
  8 15  1  1  0  0  0
  8 11  1  0  0  0  0
  9 13  1  0  0  0  0
 10  1  1  0  0  0  0
 17 15  1  1  0  0  0
 17 18  1  0  0  0  0
 18 25  1  6  0  0  0
 19 18  1  0  0  0  0
 19 26  1  6  0  0  0
 20 19  1  0  0  0  0
 20 24  1  1  0  0  0
 21 23  1  0  0  0  0
 21 20  1  0  0  0  0
 21 22  1  1  0  0  0
 23 17  1  0  0  0  0
 27 22  1  0  0  0  0
 28 29  1  0  0  0  0
 28 16  1  6  0  0  0
 29 36  1  6  0  0  0
 30 37  1  6  0  0  0
 30 29  1  0  0  0  0
 31 30  1  0  0  0  0
 31 34  1  1  0  0  0
 32 31  1  0  0  0  0
 32 33  1  0  0  0  0
 33 28  1  0  0  0  0
 33 35  1  1  0  0  0
M  END
>  <CHROM.1>
-64.87882100,162.13556365,-83.44824705,163.43340443,-62.49345514,-151.04862474
-87.37448509,50.73423207,-76.35894626,4.06755325,-53.50000131,92.17596343
178.35228986,-179.88615390,-159.14850408,8.51904816,-12.88403220,6.25485295
6.88753074,0.75407428,-0.71123617,-2.78459220

>  <Name>
lig.pdb

>  <RI>
1.95696e+07

>  <Rbt.Current_Directory>
/home/itssahil/PROJECTS/Mol_Feturizer/New_Systems/rnas/2m4q

>  <Rbt.Executable>
rbdock ($Id: //depot/dev/client3/rdock/2013.1/src/exe/rbdock.cxx#4 $)

>  <Rbt.Library>
libRbt.so (2013.1, Build901 2013/11/27)

>  <Rbt.Parameter_File>
/export/apps/rDock/src/rDock_2013.1_src/data/scripts/dock_solv.prm

>  <Rbt.Receptor>
prm/blind_docking_100.prm

>  <SCORE>
0.918294

>  <SCORE.INTER>
-20.5066

>  <SCORE.INTER.CONST>
1

>  <SCORE.INTER.POLAR>
-4.15128

>  <SCORE.INTER.ROT>
10

>  <SCORE.INTER.SOLV>
19.2704

>  <SCORE.INTER.VDW>
-16.5236

>  <SCORE.INTER.norm>
-0.554233

>  <SCORE.INTRA>
13.5135

>  <SCORE.INTRA.DIHEDRAL>
-23.6049

>  <SCORE.INTRA.DIHEDRAL.0>
44.8331

>  <SCORE.INTRA.POLAR>
0.0892102

>  <SCORE.INTRA.POLAR.0>
-0.108895

>  <SCORE.INTRA.REPUL>
-0.00912235

>  <SCORE.INTRA.REPUL.0>
0.00912235

>  <SCORE.INTRA.SOLV>
0.771274

>  <SCORE.INTRA.SOLV.lig_0>
-53.9067

>  <SCORE.INTRA.VDW>
24.6726

>  <SCORE.INTRA.VDW.0>
-2.93492

>  <SCORE.INTRA.norm>
0.36523

>  <SCORE.RESTR>
7.9114

>  <SCORE.RESTR.CAVITY>
7.9114

>  <SCORE.RESTR.norm>
0.213822

>  <SCORE.SYSTEM>
0

>  <SCORE.SYSTEM.CONST>
0

>  <SCORE.SYSTEM.DIHEDRAL>
0

>  <SCORE.SYSTEM.SOLV>
0

>  <SCORE.SYSTEM.norm>
0

>  <SCORE.heavy>
37

>  <SCORE.norm>
0.0248188

>  <RMSD>
16.623

$$$$
lig.pdb
 OpenBabel11021811453D
libRbt.so/2013.1/901 2013/11/27
 37 40  0  0  0  0  0  0  0  0999 V2000
  -12.5755    5.4834    3.9413 C   0  0  2  0  0  0  0  0  0  0  0  0
  -13.8828    6.2781    3.6153 C   0  0  1  0  0  0  0  0  0  0  0  0
  -14.4932    6.9943    4.8556 C   0  0  0  0  0  0  0  0  0  0  0  0
  -14.6002    6.0274    6.0609 C   0  0  1  0  0  0  0  0  0  0  0  0
  -13.2152    5.4158    6.3694 C   0  0  1  0  0  0  0  0  0  0  0  0
  -13.2835    4.4773    7.6040 C   0  0  1  0  0  0  0  0  0  0  0  0
  -13.9108    5.2119    8.8262 C   0  0  1  0  0  0  0  0  0  0  0  0
  -15.2662    5.8899    8.4665 C   0  0  2  0  0  0  0  0  0  0  0  0
  -15.3445    3.5465    9.9146 C   0  0  0  0  0  0  0  0  0  0  0  0
  -12.6894    4.7338    5.1945 O   0  0  0  0  0  0  0  0  0  0  0  0
  -15.1634    6.6741    7.2385 O   0  0  0  0  0  0  0  0  0  0  0  0
  -13.6120    7.2704    2.5524 N   0  0  0  0  0  0  0  0  0  0  0  0
  -14.0487    4.2585    9.9465 N   0  0  0  0  0  0  0  0  0  0  0  0
  -13.9898    3.2802    7.3044 O   0  0  0  0  0  0  0  0  0  0  0  0
  -15.7376    6.7063    9.5782 O   0  0  0  0  0  0  0  0  0  0  0  0
  -11.4151    6.3691    3.9803 O   0  0  0  0  0  0  0  0  0  0  0  0
  -16.4706    7.9340    9.2794 C   0  0  2  0  0  0  0  0  0  0  0  0
  -15.5539    8.9722    8.5719 C   0  0  1  0  0  0  0  0  0  0  0  0
  -14.4907    9.5587    9.5443 C   0  0  2  0  0  0  0  0  0  0  0  0
  -15.1573   10.1170   10.8350 C   0  0  1  0  0  0  0  0  0  0  0  0
  -16.0903    9.0605   11.4899 C   0  0  1  0  0  0  0  0  0  0  0  0
  -16.8663    9.6455   12.6990 C   0  0  0  0  0  0  0  0  0  0  0  0
  -17.0159    8.5161   10.5009 O   0  0  0  0  0  0  0  0  0  0  0  0
  -14.1463   10.6132   11.7942 N   0  0  0  0  0  0  0  0  0  0  0  0
  -14.9513    8.4005    7.4123 O   0  0  0  0  0  0  0  0  0  0  0  0
  -13.6996   10.5560    8.9017 O   0  0  0  0  0  0  0  0  0  0  0  0
  -17.2716    8.6115   13.5899 O   0  0  0  0  0  0  0  0  0  0  0  0
  -10.1107    5.7899    3.6850 C   0  0  1  0  0  0  0  0  0  0  0  0
   -9.7186    4.6877    4.7085 C   0  0  1  0  0  0  0  0  0  0  0  0
   -8.2853    4.1518    4.4332 C   0  0  2  0  0  0  0  0  0  0  0  0
   -8.1032    3.6666    2.9583 C   0  0  1  0  0  0  0  0  0  0  0  0
   -8.6147    4.7013    1.9116 C   0  0  0  0  0  0  0  0  0  0  0  0
  -10.0450    5.2279    2.2365 C   0  0  2  0  0  0  0  0  0  0  0  0
   -6.6943    3.3035    2.6951 N   0  0  0  0  0  0  0  0  0  0  0  0
  -10.4338    6.2390    1.2296 N   0  0  0  0  0  0  0  0  0  0  0  0
   -9.8297    5.1725    6.0427 O   0  0  0  0  0  0  0  0  0  0  0  0
   -7.9612    3.1058    5.3456 O   0  0  0  0  0  0  0  0  0  0  0  0
  1  2  1  0  0  0  0
  1 16  1  1  0  0  0
  2  3  1  0  0  0  0
  2 12  1  6  0  0  0
  4 11  1  1  0  0  0
  4  3  1  0  0  0  0
  5  4  1  0  0  0  0
  5 10  1  6  0  0  0
  6  7  1  0  0  0  0
  6  5  1  0  0  0  0
  6 14  1  6  0  0  0
  7  8  1  0  0  0  0
  7 13  1  1  0  0  0
  8 15  1  1  0  0  0
  8 11  1  0  0  0  0
  9 13  1  0  0  0  0
 10  1  1  0  0  0  0
 17 15  1  1  0  0  0
 17 18  1  0  0  0  0
 18 25  1  6  0  0  0
 19 18  1  0  0  0  0
 19 26  1  6  0  0  0
 20 19  1  0  0  0  0
 20 24  1  1  0  0  0
 21 23  1  0  0  0  0
 21 20  1  0  0  0  0
 21 22  1  1  0  0  0
 23 17  1  0  0  0  0
 27 22  1  0  0  0  0
 28 29  1  0  0  0  0
 28 16  1  1  0  0  0
 29 36  1  1  0  0  0
 30 37  1  1  0  0  0
 30 29  1  0  0  0  0
 31 30  1  0  0  0  0
 31 34  1  6  0  0  0
 32 31  1  0  0  0  0
 32 33  1  0  0  0  0
 33 28  1  0  0  0  0
 33 35  1  6  0  0  0
M  END
>  <CHROM.1>
-44.75388503,146.04778375,-89.04861140,163.07331255,-65.93837519,-153.62631401
81.71986536,42.05132671,-156.54798387,63.55566149,-17.06839501,-61.96506369
-60.16049000,82.49178306,107.92244997,134.11107007,-13.09862473,6.40464792
6.93215189,0.24381229,0.89939615,-0.79162045

>  <Name>
lig.pdb

>  <RI>
1.95696e+07

>  <Rbt.Current_Directory>
/home/itssahil/PROJECTS/Mol_Feturizer/New_Systems/rnas/2m4q

>  <Rbt.Executable>
rbdock ($Id: //depot/dev/client3/rdock/2013.1/src/exe/rbdock.cxx#4 $)

>  <Rbt.Library>
libRbt.so (2013.1, Build901 2013/11/27)

>  <Rbt.Parameter_File>
/export/apps/rDock/src/rDock_2013.1_src/data/scripts/dock_solv.prm

>  <Rbt.Receptor>
prm/blind_docking_100.prm

>  <SCORE>
7.43494

>  <SCORE.INTER>
-16.2074

>  <SCORE.INTER.CONST>
1

>  <SCORE.INTER.POLAR>
-4.14829

>  <SCORE.INTER.ROT>
10

>  <SCORE.INTER.SOLV>
20.529

>  <SCORE.INTER.VDW>
-14.087

>  <SCORE.INTER.norm>
-0.438037

>  <SCORE.INTRA>
15.4835

>  <SCORE.INTRA.DIHEDRAL>
-16.624

>  <SCORE.INTRA.DIHEDRAL.0>
44.8331

>  <SCORE.INTRA.POLAR>
0.01025

>  <SCORE.INTRA.POLAR.0>
-0.108895

>  <SCORE.INTRA.REPUL>
-0.00912235

>  <SCORE.INTRA.REPUL.0>
0.00912235

>  <SCORE.INTRA.SOLV>
0.70323

>  <SCORE.INTRA.SOLV.lig_0>
-53.9067

>  <SCORE.INTRA.VDW>
23.4547

>  <SCORE.INTRA.VDW.0>
-2.93492

>  <SCORE.INTRA.norm>
0.418474

>  <SCORE.RESTR>
8.15879

>  <SCORE.RESTR.CAVITY>
8.15879

>  <SCORE.RESTR.norm>
0.220508

>  <SCORE.SYSTEM>
0

>  <SCORE.SYSTEM.CONST>
0

>  <SCORE.SYSTEM.DIHEDRAL>
0

>  <SCORE.SYSTEM.SOLV>
0

>  <SCORE.SYSTEM.norm>
0

>  <SCORE.heavy>
37

>  <SCORE.norm>
0.200944

>  <RMSD>
16.641

$$$$
lig.pdb
 OpenBabel11021811453D
libRbt.so/2013.1/901 2013/11/27
 37 40  0  0  0  0  0  0  0  0999 V2000
  -12.7196    5.1446    3.6111 C   0  0  2  0  0  0  0  0  0  0  0  0
  -13.7694    6.2676    3.3212 C   0  0  1  0  0  0  0  0  0  0  0  0
  -14.0371    7.1907    4.5460 C   0  0  0  0  0  0  0  0  0  0  0  0
  -14.3078    6.3576    5.8233 C   0  0  1  0  0  0  0  0  0  0  0  0
  -13.1333    5.3862    6.0768 C   0  0  1  0  0  0  0  0  0  0  0  0
  -13.3564    4.5704    7.3785 C   0  0  1  0  0  0  0  0  0  0  0  0
  -13.6366    5.5152    8.5850 C   0  0  1  0  0  0  0  0  0  0  0  0
  -14.7686    6.5389    8.2737 C   0  0  2  0  0  0  0  0  0  0  0  0
  -15.3674    4.3163    9.8422 C   0  0  0  0  0  0  0  0  0  0  0  0
  -12.9307    4.5235    4.9206 O   0  0  0  0  0  0  0  0  0  0  0  0
  -14.5559    7.1975    6.9874 O   0  0  0  0  0  0  0  0  0  0  0  0
  -13.3224    7.0845    2.1721 N   0  0  0  0  0  0  0  0  0  0  0  0
  -13.9405    4.6997    9.7790 N   0  0  0  0  0  0  0  0  0  0  0  0
  -14.3987    3.6167    7.2181 O   0  0  0  0  0  0  0  0  0  0  0  0
  -14.8864    7.5111    9.3533 O   0  0  0  0  0  0  0  0  0  0  0  0
  -11.3560    5.6559    3.5027 O   0  0  0  0  0  0  0  0  0  0  0  0
  -15.5599    8.7781    9.0795 C   0  0  2  0  0  0  0  0  0  0  0  0
  -14.5424    9.9538    9.0441 C   0  0  1  0  0  0  0  0  0  0  0  0
  -13.9880   10.2784   10.4609 C   0  0  2  0  0  0  0  0  0  0  0  0
  -15.1439   10.5059   11.4778 C   0  0  1  0  0  0  0  0  0  0  0  0
  -16.1547    9.3255   11.4558 C   0  0  1  0  0  0  0  0  0  0  0  0
  -17.3827    9.5995   12.3632 C   0  0  0  0  0  0  0  0  0  0  0  0
  -16.5800    9.0451   10.0877 O   0  0  0  0  0  0  0  0  0  0  0  0
  -14.6243   10.7465   12.8419 N   0  0  0  0  0  0  0  0  0  0  0  0
  -13.4941    9.6813    8.1160 O   0  0  0  0  0  0  0  0  0  0  0  0
  -13.1071   11.3991   10.4248 O   0  0  0  0  0  0  0  0  0  0  0  0
  -17.8776   10.9193   12.1619 O   0  0  0  0  0  0  0  0  0  0  0  0
  -10.2634    4.6959    3.5942 C   0  0  1  0  0  0  0  0  0  0  0  0
   -9.3345    4.7515    2.3491 C   0  0  1  0  0  0  0  0  0  0  0  0
   -8.2342    3.6555    2.4216 C   0  0  2  0  0  0  0  0  0  0  0  0
   -7.4217    3.7135    3.7559 C   0  0  1  0  0  0  0  0  0  0  0  0
   -8.3321    3.7947    5.0177 C   0  0  0  0  0  0  0  0  0  0  0  0
   -9.4333    4.8906    4.8948 C   0  0  2  0  0  0  0  0  0  0  0  0
   -6.4882    2.5709    3.8524 N   0  0  0  0  0  0  0  0  0  0  0  0
  -10.2827    4.8677    6.1053 N   0  0  0  0  0  0  0  0  0  0  0  0
  -10.0896    4.6315    1.1479 O   0  0  0  0  0  0  0  0  0  0  0  0
   -7.3593    3.7536    1.3006 O   0  0  0  0  0  0  0  0  0  0  0  0
  1  2  1  0  0  0  0
  1 16  1  1  0  0  0
  2  3  1  0  0  0  0
  2 12  1  6  0  0  0
  4 11  1  1  0  0  0
  4  3  1  0  0  0  0
  5  4  1  0  0  0  0
  5 10  1  6  0  0  0
  6  7  1  0  0  0  0
  6  5  1  0  0  0  0
  6 14  1  6  0  0  0
  7  8  1  0  0  0  0
  7 13  1  1  0  0  0
  8 15  1  1  0  0  0
  8 11  1  0  0  0  0
  9 13  1  0  0  0  0
 10  1  1  0  0  0  0
 17 15  1  1  0  0  0
 17 18  1  0  0  0  0
 18 25  1  6  0  0  0
 19 18  1  0  0  0  0
 19 26  1  6  0  0  0
 20 19  1  0  0  0  0
 20 24  1  1  0  0  0
 21 23  1  0  0  0  0
 21 20  1  0  0  0  0
 21 22  1  1  0  0  0
 23 17  1  0  0  0  0
 27 22  1  0  0  0  0
 28 29  1  0  0  0  0
 28 16  1  6  0  0  0
 29 36  1  6  0  0  0
 30 37  1  6  0  0  0
 30 29  1  0  0  0  0
 31 30  1  0  0  0  0
 31 34  1  1  0  0  0
 32 31  1  0  0  0  0
 32 33  1  0  0  0  0
 33 28  1  0  0  0  0
 33 35  1  1  0  0  0
M  END
>  <CHROM.1>
77.83044932,160.42690463,-85.14603876,75.69564626,-108.73559869,-173.13743293
178.43354971,-64.73853088,45.43194682,70.13764297,67.42762221,123.73814478
-134.55122027,-58.68392475,-78.76618361,-177.02583679,-12.86878351,6.58672981
6.85386595,0.89438772,0.47890083,-1.81469880

>  <Name>
lig.pdb

>  <RI>
1.95696e+07

>  <Rbt.Current_Directory>
/home/itssahil/PROJECTS/Mol_Feturizer/New_Systems/rnas/2m4q

>  <Rbt.Executable>
rbdock ($Id: //depot/dev/client3/rdock/2013.1/src/exe/rbdock.cxx#4 $)

>  <Rbt.Library>
libRbt.so (2013.1, Build901 2013/11/27)

>  <Rbt.Parameter_File>
/export/apps/rDock/src/rDock_2013.1_src/data/scripts/dock_solv.prm

>  <Rbt.Receptor>
prm/blind_docking_100.prm

>  <SCORE>
-17.1971

>  <SCORE.INTER>
-23.6848

>  <SCORE.INTER.CONST>
1

>  <SCORE.INTER.POLAR>
-3.40678

>  <SCORE.INTER.ROT>
10

>  <SCORE.INTER.SOLV>
18.6548

>  <SCORE.INTER.VDW>
-20.9189

>  <SCORE.INTER.norm>
-0.64013

>  <SCORE.INTRA>
-2.25916

>  <SCORE.INTRA.DIHEDRAL>
-18.2974

>  <SCORE.INTRA.DIHEDRAL.0>
44.8331

>  <SCORE.INTRA.POLAR>
-0.0493991

>  <SCORE.INTRA.POLAR.0>
-0.108895

>  <SCORE.INTRA.REPUL>
0.429064

>  <SCORE.INTRA.REPUL.0>
0.00912235

>  <SCORE.INTRA.SOLV>
-0.307308

>  <SCORE.INTRA.SOLV.lig_0>
-53.9067

>  <SCORE.INTRA.VDW>
5.06582

>  <SCORE.INTRA.VDW.0>
-2.93492

>  <SCORE.INTRA.norm>
-0.0610585

>  <SCORE.RESTR>
8.74685

>  <SCORE.RESTR.CAVITY>
8.74685

>  <SCORE.RESTR.norm>
0.236401

>  <SCORE.SYSTEM>
0

>  <SCORE.SYSTEM.CONST>
0

>  <SCORE.SYSTEM.DIHEDRAL>
0

>  <SCORE.SYSTEM.SOLV>
0

>  <SCORE.SYSTEM.norm>
0

>  <SCORE.heavy>
37

>  <SCORE.norm>
-0.464787

>  <RMSD>
16.647

$$$$
lig.pdb
 OpenBabel11021811453D
libRbt.so/2013.1/901 2013/11/27
 37 40  0  0  0  0  0  0  0  0999 V2000
  -12.7793    5.1505    3.3828 C   0  0  2  0  0  0  0  0  0  0  0  0
  -13.8024    6.3011    3.1062 C   0  0  1  0  0  0  0  0  0  0  0  0
  -13.9993    7.2548    4.3209 C   0  0  0  0  0  0  0  0  0  0  0  0
  -14.2528    6.4546    5.6226 C   0  0  1  0  0  0  0  0  0  0  0  0
  -13.1015    5.4508    5.8558 C   0  0  1  0  0  0  0  0  0  0  0  0
  -13.3061    4.6667    7.1799 C   0  0  1  0  0  0  0  0  0  0  0  0
  -13.5154    5.6421    8.3763 C   0  0  1  0  0  0  0  0  0  0  0  0
  -14.6245    6.6957    8.0829 C   0  0  2  0  0  0  0  0  0  0  0  0
  -15.2107    4.4044    9.6442 C   0  0  0  0  0  0  0  0  0  0  0  0
  -12.9654    4.5609    4.7105 O   0  0  0  0  0  0  0  0  0  0  0  0
  -14.4348    7.3233    6.7776 O   0  0  0  0  0  0  0  0  0  0  0  0
  -13.3691    7.0819    1.9271 N   0  0  0  0  0  0  0  0  0  0  0  0
  -13.8043    4.8590    9.5955 N   0  0  0  0  0  0  0  0  0  0  0  0
  -14.3826    3.7442    7.0728 O   0  0  0  0  0  0  0  0  0  0  0  0
  -14.6750    7.6910    9.1466 O   0  0  0  0  0  0  0  0  0  0  0  0
  -11.4048    5.6157    3.2193 O   0  0  0  0  0  0  0  0  0  0  0  0
  -15.5255    8.8644    8.9630 C   0  0  2  0  0  0  0  0  0  0  0  0
  -14.6810   10.1704    8.9641 C   0  0  1  0  0  0  0  0  0  0  0  0
  -14.1259   10.4959   10.3804 C   0  0  2  0  0  0  0  0  0  0  0  0
  -15.2648   10.5082   11.4409 C   0  0  1  0  0  0  0  0  0  0  0  0
  -16.1041    9.2015   11.3821 C   0  0  1  0  0  0  0  0  0  0  0  0
  -17.3247    9.2554   12.3379 C   0  0  0  0  0  0  0  0  0  0  0  0
  -16.5358    8.9351   10.0131 O   0  0  0  0  0  0  0  0  0  0  0  0
  -14.7345   10.7487   12.8009 N   0  0  0  0  0  0  0  0  0  0  0  0
  -13.6391   10.0941    7.9928 O   0  0  0  0  0  0  0  0  0  0  0  0
  -13.4090   11.7286   10.3817 O   0  0  0  0  0  0  0  0  0  0  0  0
  -16.9272    9.6521   13.6463 O   0  0  0  0  0  0  0  0  0  0  0  0
  -10.3316    4.6763    3.5191 C   0  0  1  0  0  0  0  0  0  0  0  0
   -9.5293    4.2845    2.2467 C   0  0  1  0  0  0  0  0  0  0  0  0
   -8.4536    3.2100    2.5714 C   0  0  2  0  0  0  0  0  0  0  0  0
   -7.5120    3.6433    3.7417 C   0  0  1  0  0  0  0  0  0  0  0  0
   -8.2911    4.1691    4.9844 C   0  0  0  0  0  0  0  0  0  0  0  0
   -9.3726    5.2276    4.6122 C   0  0  2  0  0  0  0  0  0  0  0  0
   -6.6011    2.5414    4.1184 N   0  0  0  0  0  0  0  0  0  0  0  0
  -10.0985    5.6352    5.8346 N   0  0  0  0  0  0  0  0  0  0  0  0
  -10.4021    3.8314    1.2169 O   0  0  0  0  0  0  0  0  0  0  0  0
   -7.6917    2.9006    1.4072 O   0  0  0  0  0  0  0  0  0  0  0  0
  1  2  1  0  0  0  0
  1 16  1  1  0  0  0
  2  3  1  0  0  0  0
  2 12  1  6  0  0  0
  4 11  1  1  0  0  0
  4  3  1  0  0  0  0
  5  4  1  0  0  0  0
  5 10  1  6  0  0  0
  6  7  1  0  0  0  0
  6  5  1  0  0  0  0
  6 14  1  6  0  0  0
  7  8  1  0  0  0  0
  7 13  1  1  0  0  0
  8 15  1  1  0  0  0
  8 11  1  0  0  0  0
  9 13  1  0  0  0  0
 10  1  1  0  0  0  0
 17 15  1  1  0  0  0
 17 18  1  0  0  0  0
 18 25  1  6  0  0  0
 19 18  1  0  0  0  0
 19 26  1  6  0  0  0
 20 19  1  0  0  0  0
 20 24  1  1  0  0  0
 21 23  1  0  0  0  0
 21 20  1  0  0  0  0
 21 22  1  1  0  0  0
 23 17  1  0  0  0  0
 27 22  1  0  0  0  0
 28 29  1  0  0  0  0
 28 16  1  6  0  0  0
 29 36  1  6  0  0  0
 30 37  1  6  0  0  0
 30 29  1  0  0  0  0
 31 30  1  0  0  0  0
 31 34  1  1  0  0  0
 32 31  1  0  0  0  0
 32 33  1  0  0  0  0
 33 28  1  0  0  0  0
 33 35  1  1  0  0  0
M  END
>  <CHROM.1>
162.98758244,171.72263117,-79.27936009,67.96851397,-117.91335113,176.53345551
-81.97096219,-63.06911069,-50.42629847,-83.65403153,-167.61633204,113.18685602
177.47105487,-62.09366184,178.16444440,-50.85620391,-12.86626199,6.56791220
6.78689563,0.91505062,0.53060282,-1.79320378

>  <Name>
lig.pdb

>  <RI>
1.95696e+07

>  <Rbt.Current_Directory>
/home/itssahil/PROJECTS/Mol_Feturizer/New_Systems/rnas/2m4q

>  <Rbt.Executable>
rbdock ($Id: //depot/dev/client3/rdock/2013.1/src/exe/rbdock.cxx#4 $)

>  <Rbt.Library>
libRbt.so (2013.1, Build901 2013/11/27)

>  <Rbt.Parameter_File>
/export/apps/rDock/src/rDock_2013.1_src/data/scripts/dock_solv.prm

>  <Rbt.Receptor>
prm/blind_docking_100.prm

>  <SCORE>
-25.6956

>  <SCORE.INTER>
-25.3628

>  <SCORE.INTER.CONST>
1

>  <SCORE.INTER.POLAR>
-4.46149

>  <SCORE.INTER.ROT>
10

>  <SCORE.INTER.SOLV>
19.0282

>  <SCORE.INTER.VDW>
-18.6463

>  <SCORE.INTER.norm>
-0.68548

>  <SCORE.INTRA>
-8.53291

>  <SCORE.INTRA.DIHEDRAL>
-24.233

>  <SCORE.INTRA.DIHEDRAL.0>
44.8331

>  <SCORE.INTRA.POLAR>
0.0967144

>  <SCORE.INTRA.POLAR.0>
-0.108895

>  <SCORE.INTRA.REPUL>
-0.00912235

>  <SCORE.INTRA.REPUL.0>
0.00912235

>  <SCORE.INTRA.SOLV>
-0.375891

>  <SCORE.INTRA.SOLV.lig_0>
-53.9067

>  <SCORE.INTRA.VDW>
3.48832

>  <SCORE.INTRA.VDW.0>
-2.93492

>  <SCORE.INTRA.norm>
-0.230619

>  <SCORE.RESTR>
8.2001

>  <SCORE.RESTR.CAVITY>
8.2001

>  <SCORE.RESTR.norm>
0.221624

>  <SCORE.SYSTEM>
0

>  <SCORE.SYSTEM.CONST>
0

>  <SCORE.SYSTEM.DIHEDRAL>
0

>  <SCORE.SYSTEM.SOLV>
0

>  <SCORE.SYSTEM.norm>
0

>  <SCORE.heavy>
37

>  <SCORE.norm>
-0.694475

>  <RMSD>
16.667

$$$$
lig.pdb
 OpenBabel11021811453D
libRbt.so/2013.1/901 2013/11/27
 37 40  0  0  0  0  0  0  0  0999 V2000
  -12.9205    5.1532    3.4512 C   0  0  2  0  0  0  0  0  0  0  0  0
  -13.9927    6.1871    2.9731 C   0  0  1  0  0  0  0  0  0  0  0  0
  -14.2150    7.3534    3.9801 C   0  0  0  0  0  0  0  0  0  0  0  0
  -14.4212    6.8165    5.4182 C   0  0  1  0  0  0  0  0  0  0  0  0
  -13.2275    5.9227    5.8225 C   0  0  1  0  0  0  0  0  0  0  0  0
  -13.3852    5.4080    7.2785 C   0  0  1  0  0  0  0  0  0  0  0  0
  -13.6209    6.5915    8.2636 C   0  0  1  0  0  0  0  0  0  0  0  0
  -14.7753    7.5238    7.7897 C   0  0  2  0  0  0  0  0  0  0  0  0
  -15.2597    5.5964    9.7926 C   0  0  0  0  0  0  0  0  0  0  0  0
  -13.0678    4.8303    4.8722 O   0  0  0  0  0  0  0  0  0  0  0  0
  -14.6259    7.8884    6.3832 O   0  0  0  0  0  0  0  0  0  0  0  0
  -13.6046    6.7359    1.6556 N   0  0  0  0  0  0  0  0  0  0  0  0
  -13.8642    6.0538    9.6181 N   0  0  0  0  0  0  0  0  0  0  0  0
  -14.4243    4.4424    7.3752 O   0  0  0  0  0  0  0  0  0  0  0  0
  -14.8547    8.7066    8.6378 O   0  0  0  0  0  0  0  0  0  0  0  0
  -11.5680    5.6287    3.1735 O   0  0  0  0  0  0  0  0  0  0  0  0
  -14.6769    8.5442   10.0786 C   0  0  2  0  0  0  0  0  0  0  0  0
  -15.9947    8.8595   10.8418 C   0  0  1  0  0  0  0  0  0  0  0  0
  -16.3284   10.3786   10.8113 C   0  0  2  0  0  0  0  0  0  0  0  0
  -15.1221   11.2287   11.3054 C   0  0  1  0  0  0  0  0  0  0  0  0
  -13.8205   10.8578   10.5415 C   0  0  1  0  0  0  0  0  0  0  0  0
  -12.5834   11.5977   11.1147 C   0  0  0  0  0  0  0  0  0  0  0  0
  -13.6107    9.4132   10.5650 O   0  0  0  0  0  0  0  0  0  0  0  0
  -15.4080   12.6773   11.2135 N   0  0  0  0  0  0  0  0  0  0  0  0
  -17.0694    8.0720   10.3324 O   0  0  0  0  0  0  0  0  0  0  0  0
  -17.5024   10.6632   11.5690 O   0  0  0  0  0  0  0  0  0  0  0  0
  -12.9461   12.4012   12.2328 O   0  0  0  0  0  0  0  0  0  0  0  0
  -10.4604    4.7263    3.4613 C   0  0  1  0  0  0  0  0  0  0  0  0
   -9.6821    4.3319    2.1749 C   0  0  1  0  0  0  0  0  0  0  0  0
   -8.5674    3.2950    2.4901 C   0  0  2  0  0  0  0  0  0  0  0  0
   -7.6071    3.7783    3.6251 C   0  0  1  0  0  0  0  0  0  0  0  0
   -8.3668    4.3066    4.8787 C   0  0  0  0  0  0  0  0  0  0  0  0
   -9.4882    5.3263    4.5164 C   0  0  2  0  0  0  0  0  0  0  0  0
   -6.6548    2.7103    3.9974 N   0  0  0  0  0  0  0  0  0  0  0  0
  -10.1919    5.7377    5.7505 N   0  0  0  0  0  0  0  0  0  0  0  0
  -10.5693    3.8337    1.1787 O   0  0  0  0  0  0  0  0  0  0  0  0
   -7.8290    2.9840    1.3113 O   0  0  0  0  0  0  0  0  0  0  0  0
  1  2  1  0  0  0  0
  1 16  1  1  0  0  0
  2  3  1  0  0  0  0
  2 12  1  6  0  0  0
  4 11  1  1  0  0  0
  4  3  1  0  0  0  0
  5  4  1  0  0  0  0
  5 10  1  6  0  0  0
  6  7  1  0  0  0  0
  6  5  1  0  0  0  0
  6 14  1  6  0  0  0
  7  8  1  0  0  0  0
  7 13  1  1  0  0  0
  8 15  1  1  0  0  0
  8 11  1  0  0  0  0
  9 13  1  0  0  0  0
 10  1  1  0  0  0  0
 17 15  1  6  0  0  0
 17 18  1  0  0  0  0
 18 25  1  6  0  0  0
 19 18  1  0  0  0  0
 19 26  1  1  0  0  0
 20 19  1  0  0  0  0
 20 24  1  6  0  0  0
 21 23  1  0  0  0  0
 21 20  1  0  0  0  0
 21 22  1  1  0  0  0
 23 17  1  0  0  0  0
 27 22  1  0  0  0  0
 28 29  1  0  0  0  0
 28 16  1  6  0  0  0
 29 36  1  6  0  0  0
 30 37  1  6  0  0  0
 30 29  1  0  0  0  0
 31 30  1  0  0  0  0
 31 34  1  1  0  0  0
 32 31  1  0  0  0  0
 32 33  1  0  0  0  0
 33 28  1  0  0  0  0
 33 35  1  1  0  0  0
M  END
>  <CHROM.1>
65.64015570,-40.81346132,-80.73141047,-57.74136307,-113.35667860,-175.05653097
-59.30931746,-176.20272946,1.98835840,-153.85855455,81.20336308,116.35769876
61.45423130,176.63171368,-64.65007563,49.73305967,-12.88973144,6.94732248
6.78846941,1.06165954,0.11896944,-2.15682679

>  <Name>
lig.pdb

>  <RI>
1.95696e+07

>  <Rbt.Current_Directory>
/home/itssahil/PROJECTS/Mol_Feturizer/New_Systems/rnas/2m4q

>  <Rbt.Executable>
rbdock ($Id: //depot/dev/client3/rdock/2013.1/src/exe/rbdock.cxx#4 $)

>  <Rbt.Library>
libRbt.so (2013.1, Build901 2013/11/27)

>  <Rbt.Parameter_File>
/export/apps/rDock/src/rDock_2013.1_src/data/scripts/dock_solv.prm

>  <Rbt.Receptor>
prm/blind_docking_100.prm

>  <SCORE>
-14.7982

>  <SCORE.INTER>
-18.9542

>  <SCORE.INTER.CONST>
1

>  <SCORE.INTER.POLAR>
-3.82447

>  <SCORE.INTER.ROT>
10

>  <SCORE.INTER.SOLV>
16.7813

>  <SCORE.INTER.VDW>
-15.7484

>  <SCORE.INTER.norm>
-0.512276

>  <SCORE.INTRA>
-4.112

>  <SCORE.INTRA.DIHEDRAL>
-19.4178

>  <SCORE.INTRA.DIHEDRAL.0>
44.8331

>  <SCORE.INTRA.POLAR>
-0.210807

>  <SCORE.INTRA.POLAR.0>
-0.108895

>  <SCORE.INTRA.REPUL>
-0.00912235

>  <SCORE.INTRA.REPUL.0>
0.00912235

>  <SCORE.INTRA.SOLV>
0.44267

>  <SCORE.INTRA.SOLV.lig_0>
-53.9067

>  <SCORE.INTRA.VDW>
6.1379

>  <SCORE.INTRA.VDW.0>
-2.93492

>  <SCORE.INTRA.norm>
-0.111135

>  <SCORE.RESTR>
8.26799

>  <SCORE.RESTR.CAVITY>
8.26799

>  <SCORE.RESTR.norm>
0.223459

>  <SCORE.SYSTEM>
0

>  <SCORE.SYSTEM.CONST>
0

>  <SCORE.SYSTEM.DIHEDRAL>
0

>  <SCORE.SYSTEM.SOLV>
0

>  <SCORE.SYSTEM.norm>
0

>  <SCORE.heavy>
37

>  <SCORE.norm>
-0.399952

>  <RMSD>
16.676

$$$$
lig.pdb
 OpenBabel11021811453D
libRbt.so/2013.1/901 2013/11/27
 37 40  0  0  0  0  0  0  0  0999 V2000
  -12.8323    5.1316    3.4211 C   0  0  2  0  0  0  0  0  0  0  0  0
  -13.8738    6.2682    3.1556 C   0  0  1  0  0  0  0  0  0  0  0  0
  -14.0633    7.2250    4.3691 C   0  0  0  0  0  0  0  0  0  0  0  0
  -14.2862    6.4277    5.6781 C   0  0  1  0  0  0  0  0  0  0  0  0
  -13.1191    5.4393    5.8975 C   0  0  1  0  0  0  0  0  0  0  0  0
  -13.2929    4.6589    7.2281 C   0  0  1  0  0  0  0  0  0  0  0  0
  -13.4953    5.6371    8.4234 C   0  0  1  0  0  0  0  0  0  0  0  0
  -14.6218    6.6756    8.1430 C   0  0  2  0  0  0  0  0  0  0  0  0
  -15.1723    4.4479    9.7602 C   0  0  0  0  0  0  0  0  0  0  0  0
  -12.9901    4.5458    4.7542 O   0  0  0  0  0  0  0  0  0  0  0  0
  -14.4607    7.2995    6.8320 O   0  0  0  0  0  0  0  0  0  0  0  0
  -13.4689    7.0488    1.9664 N   0  0  0  0  0  0  0  0  0  0  0  0
  -13.7552    4.8562    9.6504 N   0  0  0  0  0  0  0  0  0  0  0  0
  -14.3595    3.7227    7.1422 O   0  0  0  0  0  0  0  0  0  0  0  0
  -14.6679    7.6751    9.2029 O   0  0  0  0  0  0  0  0  0  0  0  0
  -11.4664    5.6129    3.2337 O   0  0  0  0  0  0  0  0  0  0  0  0
  -15.5807    8.8060    9.0551 C   0  0  2  0  0  0  0  0  0  0  0  0
  -14.8095   10.1554    9.1102 C   0  0  1  0  0  0  0  0  0  0  0  0
  -14.2818   10.4590   10.5417 C   0  0  2  0  0  0  0  0  0  0  0  0
  -15.4260   10.3699   11.5928 C   0  0  1  0  0  0  0  0  0  0  0  0
  -16.1915    9.0221   11.4801 C   0  0  1  0  0  0  0  0  0  0  0  0
  -17.4190    8.9739   12.4274 C   0  0  0  0  0  0  0  0  0  0  0  0
  -16.5996    8.7826   10.0989 O   0  0  0  0  0  0  0  0  0  0  0  0
  -14.9179   10.5893   12.9648 N   0  0  0  0  0  0  0  0  0  0  0  0
  -13.7593   10.1721    8.1452 O   0  0  0  0  0  0  0  0  0  0  0  0
  -13.6340   11.7283   10.5933 O   0  0  0  0  0  0  0  0  0  0  0  0
  -17.0140    9.0814   13.7881 O   0  0  0  0  0  0  0  0  0  0  0  0
  -10.3774    4.6835    3.5064 C   0  0  1  0  0  0  0  0  0  0  0  0
   -9.5678    4.3437    2.2237 C   0  0  1  0  0  0  0  0  0  0  0  0
   -8.4740    3.2786    2.5173 C   0  0  2  0  0  0  0  0  0  0  0  0
   -7.5406    3.6929    3.7010 C   0  0  1  0  0  0  0  0  0  0  0  0
   -8.3292    4.1678    4.9580 C   0  0  0  0  0  0  0  0  0  0  0  0
   -9.4286    5.2183    4.6165 C   0  0  2  0  0  0  0  0  0  0  0  0
   -6.6110    2.5960    4.0455 N   0  0  0  0  0  0  0  0  0  0  0  0
  -10.1620    5.5766    5.8498 N   0  0  0  0  0  0  0  0  0  0  0  0
  -10.4321    3.9067    1.1799 O   0  0  0  0  0  0  0  0  0  0  0  0
   -7.7063    3.0172    1.3452 O   0  0  0  0  0  0  0  0  0  0  0  0
  1  2  1  0  0  0  0
  1 16  1  1  0  0  0
  2  3  1  0  0  0  0
  2 12  1  6  0  0  0
  4 11  1  1  0  0  0
  4  3  1  0  0  0  0
  5  4  1  0  0  0  0
  5 10  1  6  0  0  0
  6  7  1  0  0  0  0
  6  5  1  0  0  0  0
  6 14  1  6  0  0  0
  7  8  1  0  0  0  0
  7 13  1  1  0  0  0
  8 15  1  1  0  0  0
  8 11  1  0  0  0  0
  9 13  1  0  0  0  0
 10  1  1  0  0  0  0
 17 15  1  1  0  0  0
 17 18  1  0  0  0  0
 18 25  1  6  0  0  0
 19 18  1  0  0  0  0
 19 26  1  6  0  0  0
 20 19  1  0  0  0  0
 20 24  1  1  0  0  0
 21 23  1  0  0  0  0
 21 20  1  0  0  0  0
 21 22  1  1  0  0  0
 23 17  1  0  0  0  0
 27 22  1  0  0  0  0
 28 29  1  0  0  0  0
 28 16  1  6  0  0  0
 29 36  1  6  0  0  0
 30 37  1  6  0  0  0
 30 29  1  0  0  0  0
 31 30  1  0  0  0  0
 31 34  1  1  0  0  0
 32 31  1  0  0  0  0
 32 33  1  0  0  0  0
 33 28  1  0  0  0  0
 33 35  1  1  0  0  0
M  END
>  <CHROM.1>
-178.20879617,174.45739432,-82.42671789,-58.21448425,-121.94449186,177.19423820
139.78922025,79.46194765,-61.96094950,-80.49742238,-177.00088352,115.00758273
-178.44198722,-172.16021238,173.21760940,-162.93916165,-12.92415027,6.53322021
6.84572406,0.84739915,0.64160036,-1.65536389

>  <Name>
lig.pdb

>  <RI>
1.95696e+07

>  <Rbt.Current_Directory>
/home/itssahil/PROJECTS/Mol_Feturizer/New_Systems/rnas/2m4q

>  <Rbt.Executable>
rbdock ($Id: //depot/dev/client3/rdock/2013.1/src/exe/rbdock.cxx#4 $)

>  <Rbt.Library>
libRbt.so (2013.1, Build901 2013/11/27)

>  <Rbt.Parameter_File>
/export/apps/rDock/src/rDock_2013.1_src/data/scripts/dock_solv.prm

>  <Rbt.Receptor>
prm/blind_docking_100.prm

>  <SCORE>
-25.389

>  <SCORE.INTER>
-27.4901

>  <SCORE.INTER.CONST>
1

>  <SCORE.INTER.POLAR>
-4.52614

>  <SCORE.INTER.ROT>
10

>  <SCORE.INTER.SOLV>
18.4284

>  <SCORE.INTER.VDW>
-19.6491

>  <SCORE.INTER.norm>
-0.742977

>  <SCORE.INTRA>
-7.06211

>  <SCORE.INTRA.DIHEDRAL>
-20.4615

>  <SCORE.INTRA.DIHEDRAL.0>
44.8331

>  <SCORE.INTRA.POLAR>
0.0902144

>  <SCORE.INTRA.POLAR.0>
-0.108895

>  <SCORE.INTRA.REPUL>
0.0426502

>  <SCORE.INTRA.REPUL.0>
0.00912235

>  <SCORE.INTRA.SOLV>
-0.702743

>  <SCORE.INTRA.SOLV.lig_0>
-53.9067

>  <SCORE.INTRA.VDW>
3.00002

>  <SCORE.INTRA.VDW.0>
-2.93492

>  <SCORE.INTRA.norm>
-0.190868

>  <SCORE.RESTR>
9.16326

>  <SCORE.RESTR.CAVITY>
9.16326

>  <SCORE.RESTR.norm>
0.247656

>  <SCORE.SYSTEM>
0

>  <SCORE.SYSTEM.CONST>
0

>  <SCORE.SYSTEM.DIHEDRAL>
0

>  <SCORE.SYSTEM.SOLV>
0

>  <SCORE.SYSTEM.norm>
0

>  <SCORE.heavy>
37

>  <SCORE.norm>
-0.686189

>  <RMSD>
16.695

$$$$
lig.pdb
 OpenBabel11021811453D
libRbt.so/2013.1/901 2013/11/27
 37 40  0  0  0  0  0  0  0  0999 V2000
  -13.2104    5.7610    3.2060 C   0  0  2  0  0  0  0  0  0  0  0  0
  -14.5229    6.6049    3.0949 C   0  0  1  0  0  0  0  0  0  0  0  0
  -14.8256    7.4429    4.3716 C   0  0  0  0  0  0  0  0  0  0  0  0
  -14.7143    6.5734    5.6485 C   0  0  1  0  0  0  0  0  0  0  0  0
  -13.3222    5.9061    5.7112 C   0  0  1  0  0  0  0  0  0  0  0  0
  -13.1657    5.0647    7.0062 C   0  0  1  0  0  0  0  0  0  0  0  0
  -13.4880    5.9208    8.2671 C   0  0  1  0  0  0  0  0  0  0  0  0
  -14.8594    6.6487    8.1431 C   0  0  2  0  0  0  0  0  0  0  0  0
  -14.6283    4.2132    9.6079 C   0  0  0  0  0  0  0  0  0  0  0  0
  -13.0867    5.1118    4.5130 O   0  0  0  0  0  0  0  0  0  0  0  0
  -14.9872    7.3350    6.8600 O   0  0  0  0  0  0  0  0  0  0  0  0
  -14.4430    7.5005    1.9206 N   0  0  0  0  0  0  0  0  0  0  0  0
  -13.4243    5.0603    9.4666 N   0  0  0  0  0  0  0  0  0  0  0  0
  -13.9687    3.8922    6.9605 O   0  0  0  0  0  0  0  0  0  0  0  0
  -15.0495    7.5693    9.2571 O   0  0  0  0  0  0  0  0  0  0  0  0
  -12.0324    6.5783    2.9287 O   0  0  0  0  0  0  0  0  0  0  0  0
  -15.7814    8.8107    9.0181 C   0  0  2  0  0  0  0  0  0  0  0  0
  -14.8187   10.0321    9.0085 C   0  0  1  0  0  0  0  0  0  0  0  0
  -14.2726   10.3460   10.4309 C   0  0  2  0  0  0  0  0  0  0  0  0
  -15.4325   10.4949   11.4577 C   0  0  1  0  0  0  0  0  0  0  0  0
  -16.3886    9.2705   11.4098 C   0  0  1  0  0  0  0  0  0  0  0  0
  -17.6232    9.4653   12.3285 C   0  0  0  0  0  0  0  0  0  0  0  0
  -16.8076    9.0055   10.0366 O   0  0  0  0  0  0  0  0  0  0  0  0
  -14.9175   10.7247   12.8254 N   0  0  0  0  0  0  0  0  0  0  0  0
  -13.7637    9.8312    8.0698 O   0  0  0  0  0  0  0  0  0  0  0  0
  -13.4438   11.5063   10.4198 O   0  0  0  0  0  0  0  0  0  0  0  0
  -17.2299    9.5583   13.6938 O   0  0  0  0  0  0  0  0  0  0  0  0
  -10.7258    5.9418    3.0370 C   0  0  1  0  0  0  0  0  0  0  0  0
  -10.3544    5.6234    4.5124 C   0  0  1  0  0  0  0  0  0  0  0  0
   -8.9191    5.0347    4.6143 C   0  0  2  0  0  0  0  0  0  0  0  0
   -8.7153    3.7955    3.6834 C   0  0  1  0  0  0  0  0  0  0  0  0
   -9.2059    4.0444    2.2256 C   0  0  0  0  0  0  0  0  0  0  0  0
  -10.6392    4.6539    2.1697 C   0  0  2  0  0  0  0  0  0  0  0  0
   -7.3038    3.3553    3.6962 N   0  0  0  0  0  0  0  0  0  0  0  0
  -11.0078    4.9070    0.7599 N   0  0  0  0  0  0  0  0  0  0  0  0
  -10.4848    6.7825    5.3292 O   0  0  0  0  0  0  0  0  0  0  0  0
   -8.6136    4.6986    5.9654 O   0  0  0  0  0  0  0  0  0  0  0  0
  1  2  1  0  0  0  0
  1 16  1  1  0  0  0
  2  3  1  0  0  0  0
  2 12  1  6  0  0  0
  4 11  1  1  0  0  0
  4  3  1  0  0  0  0
  5  4  1  0  0  0  0
  5 10  1  6  0  0  0
  6  7  1  0  0  0  0
  6  5  1  0  0  0  0
  6 14  1  6  0  0  0
  7  8  1  0  0  0  0
  7 13  1  1  0  0  0
  8 15  1  1  0  0  0
  8 11  1  0  0  0  0
  9 13  1  0  0  0  0
 10  1  1  0  0  0  0
 17 15  1  1  0  0  0
 17 18  1  0  0  0  0
 18 25  1  6  0  0  0
 19 18  1  0  0  0  0
 19 26  1  6  0  0  0
 20 19  1  0  0  0  0
 20 24  1  1  0  0  0
 21 23  1  0  0  0  0
 21 20  1  0  0  0  0
 21 22  1  1  0  0  0
 23 17  1  0  0  0  0
 27 22  1  0  0  0  0
 28 29  1  0  0  0  0
 28 16  1  1  0  0  0
 29 36  1  1  0  0  0
 30 37  1  1  0  0  0
 30 29  1  0  0  0  0
 31 30  1  0  0  0  0
 31 34  1  6  0  0  0
 32 31  1  0  0  0  0
 32 33  1  0  0  0  0
 33 28  1  0  0  0  0
 33 35  1  6  0  0  0
M  END
>  <CHROM.1>
75.35996685,146.24625339,-77.29475206,66.37294045,-106.98178645,177.99750189
166.03377927,-67.56538120,-63.74392988,-73.51596224,-175.62876803,-70.36069583
-42.72882001,79.16595164,31.88312164,-52.23819842,-13.23833607,6.91271797
6.83957308,0.94274638,0.55230061,-1.72860704

>  <Name>
lig.pdb

>  <RI>
1.95696e+07

>  <Rbt.Current_Directory>
/home/itssahil/PROJECTS/Mol_Feturizer/New_Systems/rnas/2m4q

>  <Rbt.Executable>
rbdock ($Id: //depot/dev/client3/rdock/2013.1/src/exe/rbdock.cxx#4 $)

>  <Rbt.Library>
libRbt.so (2013.1, Build901 2013/11/27)

>  <Rbt.Parameter_File>
/export/apps/rDock/src/rDock_2013.1_src/data/scripts/dock_solv.prm

>  <Rbt.Receptor>
prm/blind_docking_100.prm

>  <SCORE>
-34.9508

>  <SCORE.INTER>
-34.2726

>  <SCORE.INTER.CONST>
1

>  <SCORE.INTER.POLAR>
-6.15465

>  <SCORE.INTER.ROT>
10

>  <SCORE.INTER.SOLV>
20.4659

>  <SCORE.INTER.VDW>
-19.4215

>  <SCORE.INTER.norm>
-0.926287

>  <SCORE.INTRA>
-8.93448

>  <SCORE.INTRA.DIHEDRAL>
-26.2016

>  <SCORE.INTRA.DIHEDRAL.0>
44.8331

>  <SCORE.INTRA.POLAR>
-0.030739

>  <SCORE.INTRA.POLAR.0>
-0.108895

>  <SCORE.INTRA.REPUL>
0.116566

>  <SCORE.INTRA.REPUL.0>
0.00912235

>  <SCORE.INTRA.SOLV>
0.194855

>  <SCORE.INTRA.SOLV.lig_0>
-53.9067

>  <SCORE.INTRA.VDW>
3.59058

>  <SCORE.INTRA.VDW.0>
-2.93492

>  <SCORE.INTRA.norm>
-0.241472

>  <SCORE.RESTR>
8.25631

>  <SCORE.RESTR.CAVITY>
8.25631

>  <SCORE.RESTR.norm>
0.223144

>  <SCORE.SYSTEM>
0

>  <SCORE.SYSTEM.CONST>
0

>  <SCORE.SYSTEM.DIHEDRAL>
0

>  <SCORE.SYSTEM.SOLV>
0

>  <SCORE.SYSTEM.norm>
0

>  <SCORE.heavy>
37

>  <SCORE.norm>
-0.944616

>  <RMSD>
16.699

$$$$
lig.pdb
 OpenBabel11021811453D
libRbt.so/2013.1/901 2013/11/27
 37 40  0  0  0  0  0  0  0  0999 V2000
  -12.5396    4.5687    5.8367 C   0  0  2  0  0  0  0  0  0  0  0  0
  -12.5844    6.0247    5.2664 C   0  0  1  0  0  0  0  0  0  0  0  0
  -12.8017    7.1086    6.3627 C   0  0  0  0  0  0  0  0  0  0  0  0
  -13.9841    6.7340    7.2903 C   0  0  1  0  0  0  0  0  0  0  0  0
  -13.7516    5.3333    7.8997 C   0  0  1  0  0  0  0  0  0  0  0  0
  -14.9001    4.9512    8.8716 C   0  0  1  0  0  0  0  0  0  0  0  0
  -15.1073    6.0573    9.9488 C   0  0  1  0  0  0  0  0  0  0  0  0
  -15.2564    7.4710    9.3121 C   0  0  2  0  0  0  0  0  0  0  0  0
  -16.0281    4.4810   11.5862 C   0  0  0  0  0  0  0  0  0  0  0  0
  -13.5784    4.3441    6.8445 O   0  0  0  0  0  0  0  0  0  0  0  0
  -14.2061    7.7295    8.3303 O   0  0  0  0  0  0  0  0  0  0  0  0
  -11.3356    6.3100    4.5269 N   0  0  0  0  0  0  0  0  0  0  0  0
  -16.2695    5.7034   10.7897 N   0  0  0  0  0  0  0  0  0  0  0  0
  -16.1062    4.6860    8.1669 O   0  0  0  0  0  0  0  0  0  0  0  0
  -15.2766    8.4961   10.3482 O   0  0  0  0  0  0  0  0  0  0  0  0
  -11.2221    4.2562    6.3835 O   0  0  0  0  0  0  0  0  0  0  0  0
  -15.7389    9.8357    9.9940 C   0  0  2  0  0  0  0  0  0  0  0  0
  -14.5454   10.7502    9.5964 C   0  0  1  0  0  0  0  0  0  0  0  0
  -13.6667   11.1174   10.8264 C   0  0  2  0  0  0  0  0  0  0  0  0
  -14.5304   11.7118   11.9765 C   0  0  1  0  0  0  0  0  0  0  0  0
  -15.7299   10.7843   12.3179 C   0  0  1  0  0  0  0  0  0  0  0  0
  -16.6762   11.4260   13.3663 C   0  0  0  0  0  0  0  0  0  0  0  0
  -16.4665   10.4380   11.1059 O   0  0  0  0  0  0  0  0  0  0  0  0
  -13.7116   11.9988   13.1746 N   0  0  0  0  0  0  0  0  0  0  0  0
  -13.7757   10.1463    8.5584 O   0  0  0  0  0  0  0  0  0  0  0  0
  -12.6149   12.0080   10.4604 O   0  0  0  0  0  0  0  0  0  0  0  0
  -15.9622   11.7743   14.5479 O   0  0  0  0  0  0  0  0  0  0  0  0
  -10.2083    3.7562    5.4636 C   0  0  1  0  0  0  0  0  0  0  0  0
  -10.8170    3.3486    4.0927 C   0  0  1  0  0  0  0  0  0  0  0  0
   -9.7368    2.7288    3.1621 C   0  0  2  0  0  0  0  0  0  0  0  0
   -8.4918    3.6586    2.9916 C   0  0  1  0  0  0  0  0  0  0  0  0
   -7.9420    4.1915    4.3487 C   0  0  0  0  0  0  0  0  0  0  0  0
   -9.0597    4.7844    5.2587 C   0  0  2  0  0  0  0  0  0  0  0  0
   -7.4282    2.9767    2.2236 N   0  0  0  0  0  0  0  0  0  0  0  0
   -8.4660    5.2181    6.5420 N   0  0  0  0  0  0  0  0  0  0  0  0
  -11.9079    2.4506    4.2696 O   0  0  0  0  0  0  0  0  0  0  0  0
  -10.2982    2.4096    1.8913 O   0  0  0  0  0  0  0  0  0  0  0  0
  1  2  1  0  0  0  0
  1 16  1  1  0  0  0
  2  3  1  0  0  0  0
  2 12  1  1  0  0  0
  4 11  1  1  0  0  0
  4  3  1  0  0  0  0
  5  4  1  0  0  0  0
  5 10  1  6  0  0  0
  6  7  1  0  0  0  0
  6  5  1  0  0  0  0
  6 14  1  6  0  0  0
  7  8  1  0  0  0  0
  7 13  1  6  0  0  0
  8 15  1  1  0  0  0
  8 11  1  0  0  0  0
  9 13  1  0  0  0  0
 10  1  1  0  0  0  0
 17 15  1  1  0  0  0
 17 18  1  0  0  0  0
 18 25  1  6  0  0  0
 19 18  1  0  0  0  0
 19 26  1  6  0  0  0
 20 19  1  0  0  0  0
 20 24  1  1  0  0  0
 21 23  1  0  0  0  0
 21 20  1  0  0  0  0
 21 22  1  1  0  0  0
 23 17  1  0  0  0  0
 27 22  1  0  0  0  0
 28 29  1  0  0  0  0
 28 16  1  1  0  0  0
 29 36  1  1  0  0  0
 30 37  1  6  0  0  0
 30 29  1  0  0  0  0
 31 30  1  0  0  0  0
 31 34  1  1  0  0  0
 32 31  1  0  0  0  0
 32 33  1  0  0  0  0
 33 28  1  0  0  0  0
 33 35  1  1  0  0  0
M  END
>  <CHROM.1>
-148.48347924,-164.91869858,65.74160001,65.46610313,-93.50948450,-85.91103144
-49.38666491,-177.96010773,-56.12701794,148.76813523,-59.57689315,-12.60352496
-56.61661232,-172.47259342,79.31275316,34.82714231,-13.05020681,6.81303051
7.96299345,0.99268270,-0.57671980,-2.63022435

>  <Name>
lig.pdb

>  <RI>
1.95696e+07

>  <Rbt.Current_Directory>
/home/itssahil/PROJECTS/Mol_Feturizer/New_Systems/rnas/2m4q

>  <Rbt.Executable>
rbdock ($Id: //depot/dev/client3/rdock/2013.1/src/exe/rbdock.cxx#4 $)

>  <Rbt.Library>
libRbt.so (2013.1, Build901 2013/11/27)

>  <Rbt.Parameter_File>
/export/apps/rDock/src/rDock_2013.1_src/data/scripts/dock_solv.prm

>  <Rbt.Receptor>
prm/blind_docking_100.prm

>  <SCORE>
-17.4594

>  <SCORE.INTER>
-16.9214

>  <SCORE.INTER.CONST>
1

>  <SCORE.INTER.POLAR>
-3.71069

>  <SCORE.INTER.ROT>
10

>  <SCORE.INTER.SOLV>
19.1609

>  <SCORE.INTER.VDW>
-15.5657

>  <SCORE.INTER.norm>
-0.457336

>  <SCORE.INTRA>
-10.5125

>  <SCORE.INTRA.DIHEDRAL>
-24.373

>  <SCORE.INTRA.DIHEDRAL.0>
44.8331

>  <SCORE.INTRA.POLAR>
-0.559568

>  <SCORE.INTRA.POLAR.0>
-0.108895

>  <SCORE.INTRA.REPUL>
-0.00912235

>  <SCORE.INTRA.REPUL.0>
0.00912235

>  <SCORE.INTRA.SOLV>
0.754169

>  <SCORE.INTRA.SOLV.lig_0>
-53.9067

>  <SCORE.INTRA.VDW>
3.24504

>  <SCORE.INTRA.VDW.0>
-2.93492

>  <SCORE.INTRA.norm>
-0.284122

>  <SCORE.RESTR>
9.97456

>  <SCORE.RESTR.CAVITY>
9.97456

>  <SCORE.RESTR.norm>
0.269583

>  <SCORE.SYSTEM>
0

>  <SCORE.SYSTEM.CONST>
0

>  <SCORE.SYSTEM.DIHEDRAL>
0

>  <SCORE.SYSTEM.SOLV>
0

>  <SCORE.SYSTEM.norm>
0

>  <SCORE.heavy>
37

>  <SCORE.norm>
-0.471875

>  <RMSD>
16.700

$$$$
lig.pdb
 OpenBabel11021811453D
libRbt.so/2013.1/901 2013/11/27
 37 40  0  0  0  0  0  0  0  0999 V2000
  -12.5139    5.1422    3.8273 C   0  0  2  0  0  0  0  0  0  0  0  0
  -13.4334    6.3409    3.4213 C   0  0  1  0  0  0  0  0  0  0  0  0
  -13.7855    7.2778    4.6137 C   0  0  0  0  0  0  0  0  0  0  0  0
  -14.2761    6.4635    5.8365 C   0  0  1  0  0  0  0  0  0  0  0  0
  -13.2175    5.4068    6.2241 C   0  0  1  0  0  0  0  0  0  0  0  0
  -13.6628    4.6061    7.4772 C   0  0  1  0  0  0  0  0  0  0  0  0
  -14.0234    5.5657    8.6502 C   0  0  1  0  0  0  0  0  0  0  0  0
  -15.0287    6.6715    8.2114 C   0  0  2  0  0  0  0  0  0  0  0  0
  -15.0684    5.6277   10.8678 C   0  0  0  0  0  0  0  0  0  0  0  0
  -12.9340    4.5348    5.0921 O   0  0  0  0  0  0  0  0  0  0  0  0
  -14.6073    7.3162    6.9702 O   0  0  0  0  0  0  0  0  0  0  0  0
  -12.7859    7.1256    2.3477 N   0  0  0  0  0  0  0  0  0  0  0  0
  -14.5350    4.7716    9.7864 N   0  0  0  0  0  0  0  0  0  0  0  0
  -14.7435    3.7329    7.1750 O   0  0  0  0  0  0  0  0  0  0  0  0
  -15.2106    7.6467    9.2793 O   0  0  0  0  0  0  0  0  0  0  0  0
  -11.1138    5.5512    3.8979 O   0  0  0  0  0  0  0  0  0  0  0  0
  -15.7036    8.9771    8.9315 C   0  0  2  0  0  0  0  0  0  0  0  0
  -14.5362   10.0020    8.8571 C   0  0  1  0  0  0  0  0  0  0  0  0
  -13.9594   10.3210   10.2661 C   0  0  2  0  0  0  0  0  0  0  0  0
  -15.0855   10.7534   11.2494 C   0  0  1  0  0  0  0  0  0  0  0  0
  -16.2462    9.7199   11.2669 C   0  0  1  0  0  0  0  0  0  0  0  0
  -17.4363   10.2024   12.1371 C   0  0  0  0  0  0  0  0  0  0  0  0
  -16.6898    9.4298    9.9065 O   0  0  0  0  0  0  0  0  0  0  0  0
  -14.5538   10.9913   12.6093 N   0  0  0  0  0  0  0  0  0  0  0  0
  -13.5237    9.5442    7.9628 O   0  0  0  0  0  0  0  0  0  0  0  0
  -12.9347   11.3099   10.1913 O   0  0  0  0  0  0  0  0  0  0  0  0
  -17.1021   10.1619   13.5206 O   0  0  0  0  0  0  0  0  0  0  0  0
  -10.0989    4.5079    3.8234 C   0  0  1  0  0  0  0  0  0  0  0  0
   -9.4860    4.3934    2.3996 C   0  0  1  0  0  0  0  0  0  0  0  0
   -8.4774    3.2131    2.3170 C   0  0  2  0  0  0  0  0  0  0  0  0
   -7.3730    3.2941    3.4204 C   0  0  1  0  0  0  0  0  0  0  0  0
   -7.9547    3.5441    4.8440 C   0  0  0  0  0  0  0  0  0  0  0  0
   -8.9759    4.7209    4.8779 C   0  0  2  0  0  0  0  0  0  0  0  0
   -6.5238    2.0838    3.4033 N   0  0  0  0  0  0  0  0  0  0  0  0
   -9.5176    4.8585    6.2471 N   0  0  0  0  0  0  0  0  0  0  0  0
  -10.5078    4.2552    1.4176 O   0  0  0  0  0  0  0  0  0  0  0  0
   -7.8848    3.1543    1.0220 O   0  0  0  0  0  0  0  0  0  0  0  0
  1  2  1  0  0  0  0
  1 16  1  1  0  0  0
  2  3  1  0  0  0  0
  2 12  1  6  0  0  0
  4 11  1  1  0  0  0
  4  3  1  0  0  0  0
  5  4  1  0  0  0  0
  5 10  1  6  0  0  0
  6  7  1  0  0  0  0
  6  5  1  0  0  0  0
  6 14  1  6  0  0  0
  7  8  1  0  0  0  0
  7 13  1  1  0  0  0
  8 15  1  1  0  0  0
  8 11  1  0  0  0  0
  9 13  1  0  0  0  0
 10  1  1  0  0  0  0
 17 15  1  1  0  0  0
 17 18  1  0  0  0  0
 18 25  1  6  0  0  0
 19 18  1  0  0  0  0
 19 26  1  6  0  0  0
 20 19  1  0  0  0  0
 20 24  1  1  0  0  0
 21 23  1  0  0  0  0
 21 20  1  0  0  0  0
 21 22  1  1  0  0  0
 23 17  1  0  0  0  0
 27 22  1  0  0  0  0
 28 29  1  0  0  0  0
 28 16  1  6  0  0  0
 29 36  1  6  0  0  0
 30 37  1  6  0  0  0
 30 29  1  0  0  0  0
 31 30  1  0  0  0  0
 31 34  1  1  0  0  0
 32 31  1  0  0  0  0
 32 33  1  0  0  0  0
 33 28  1  0  0  0  0
 33 35  1  1  0  0  0
M  END
>  <CHROM.1>
-55.65800552,158.24084574,-172.26453110,65.69146526,-99.91416589,-160.16033856
-123.73476421,-166.19809653,-71.29292495,119.38165272,173.74275171,99.76571762
-56.44343463,-138.66454197,29.02058805,-116.42313051,-12.85494613,6.58425787
6.89524009,0.95549837,0.33516305,-1.96446737

>  <Name>
lig.pdb

>  <RI>
1.95696e+07

>  <Rbt.Current_Directory>
/home/itssahil/PROJECTS/Mol_Feturizer/New_Systems/rnas/2m4q

>  <Rbt.Executable>
rbdock ($Id: //depot/dev/client3/rdock/2013.1/src/exe/rbdock.cxx#4 $)

>  <Rbt.Library>
libRbt.so (2013.1, Build901 2013/11/27)

>  <Rbt.Parameter_File>
/export/apps/rDock/src/rDock_2013.1_src/data/scripts/dock_solv.prm

>  <Rbt.Receptor>
prm/blind_docking_100.prm

>  <SCORE>
-9.64044

>  <SCORE.INTER>
-18.1532

>  <SCORE.INTER.CONST>
1

>  <SCORE.INTER.POLAR>
-3.69122

>  <SCORE.INTER.ROT>
10

>  <SCORE.INTER.SOLV>
17.0392

>  <SCORE.INTER.VDW>
-15.7445

>  <SCORE.INTER.norm>
-0.490627

>  <SCORE.INTRA>
-0.455837

>  <SCORE.INTRA.DIHEDRAL>
-9.56035

>  <SCORE.INTRA.DIHEDRAL.0>
44.8331

>  <SCORE.INTRA.POLAR>
-0.514989

>  <SCORE.INTRA.POLAR.0>
-0.108895

>  <SCORE.INTRA.REPUL>
0.0750712

>  <SCORE.INTRA.REPUL.0>
0.00912235

>  <SCORE.INTRA.SOLV>
-0.365558

>  <SCORE.INTRA.SOLV.lig_0>
-53.9067

>  <SCORE.INTRA.VDW>
5.88273

>  <SCORE.INTRA.VDW.0>
-2.93492

>  <SCORE.INTRA.norm>
-0.0123199

>  <SCORE.RESTR>
8.9686

>  <SCORE.RESTR.CAVITY>
8.9686

>  <SCORE.RESTR.norm>
0.242395

>  <SCORE.SYSTEM>
0

>  <SCORE.SYSTEM.CONST>
0

>  <SCORE.SYSTEM.DIHEDRAL>
0

>  <SCORE.SYSTEM.SOLV>
0

>  <SCORE.SYSTEM.norm>
0

>  <SCORE.heavy>
37

>  <SCORE.norm>
-0.260552

>  <RMSD>
16.701

$$$$
lig.pdb
 OpenBabel11021811453D
libRbt.so/2013.1/901 2013/11/27
 37 40  0  0  0  0  0  0  0  0999 V2000
  -12.6193    5.1707    3.6386 C   0  0  2  0  0  0  0  0  0  0  0  0
  -13.6436    6.3029    3.2977 C   0  0  1  0  0  0  0  0  0  0  0  0
  -13.9640    7.2277    4.5084 C   0  0  0  0  0  0  0  0  0  0  0  0
  -14.3054    6.3965    5.7699 C   0  0  1  0  0  0  0  0  0  0  0  0
  -13.1534    5.4148    6.0808 C   0  0  1  0  0  0  0  0  0  0  0  0
  -13.4483    4.6004    7.3690 C   0  0  1  0  0  0  0  0  0  0  0  0
  -13.7801    5.5470    8.5609 C   0  0  1  0  0  0  0  0  0  0  0  0
  -14.8863    6.5806    8.1944 C   0  0  2  0  0  0  0  0  0  0  0  0
  -15.0544    5.4611   10.6544 C   0  0  0  0  0  0  0  0  0  0  0  0
  -12.9009    4.5509    4.9354 O   0  0  0  0  0  0  0  0  0  0  0  0
  -14.6040    7.2379    6.9209 O   0  0  0  0  0  0  0  0  0  0  0  0
  -13.1327    7.1164    2.1731 N   0  0  0  0  0  0  0  0  0  0  0  0
  -14.1503    4.7336    9.7375 N   0  0  0  0  0  0  0  0  0  0  0  0
  -14.4894    3.6558    7.1560 O   0  0  0  0  0  0  0  0  0  0  0  0
  -15.0494    7.5533    9.2676 O   0  0  0  0  0  0  0  0  0  0  0  0
  -11.2477    5.6702    3.5989 O   0  0  0  0  0  0  0  0  0  0  0  0
  -15.7371    8.8078    8.9724 C   0  0  2  0  0  0  0  0  0  0  0  0
  -14.7331    9.9943    8.9183 C   0  0  1  0  0  0  0  0  0  0  0  0
  -14.1839   10.3487   10.3299 C   0  0  2  0  0  0  0  0  0  0  0  0
  -15.3432   10.5797   11.3421 C   0  0  1  0  0  0  0  0  0  0  0  0
  -16.3404    9.3876   11.3389 C   0  0  1  0  0  0  0  0  0  0  0  0
  -17.5723    9.6625   12.2406 C   0  0  0  0  0  0  0  0  0  0  0  0
  -16.7612    9.0798    9.9752 O   0  0  0  0  0  0  0  0  0  0  0  0
  -14.8276   10.8488   12.7023 N   0  0  0  0  0  0  0  0  0  0  0  0
  -13.6808    9.7186    7.9956 O   0  0  0  0  0  0  0  0  0  0  0  0
  -13.3158   11.4786   10.2760 O   0  0  0  0  0  0  0  0  0  0  0  0
  -18.2907    8.4604   12.4981 O   0  0  0  0  0  0  0  0  0  0  0  0
  -10.1687    4.6948    3.6901 C   0  0  1  0  0  0  0  0  0  0  0  0
   -9.3433    4.6159    2.3753 C   0  0  1  0  0  0  0  0  0  0  0  0
   -8.2607    3.5032    2.4594 C   0  0  2  0  0  0  0  0  0  0  0  0
   -7.3414    3.6591    3.7142 C   0  0  1  0  0  0  0  0  0  0  0  0
   -8.1447    3.8753    5.0317 C   0  0  0  0  0  0  0  0  0  0  0  0
   -9.2322    4.9834    4.8976 C   0  0  2  0  0  0  0  0  0  0  0  0
   -6.4240    2.5065    3.8397 N   0  0  0  0  0  0  0  0  0  0  0  0
   -9.9807    5.0899    6.1688 N   0  0  0  0  0  0  0  0  0  0  0  0
  -10.1956    4.4086    1.2536 O   0  0  0  0  0  0  0  0  0  0  0  0
   -7.4782    3.4789    1.2683 O   0  0  0  0  0  0  0  0  0  0  0  0
  1  2  1  0  0  0  0
  1 16  1  1  0  0  0
  2  3  1  0  0  0  0
  2 12  1  6  0  0  0
  4 11  1  1  0  0  0
  4  3  1  0  0  0  0
  5  4  1  0  0  0  0
  5 10  1  6  0  0  0
  6  7  1  0  0  0  0
  6  5  1  0  0  0  0
  6 14  1  6  0  0  0
  7  8  1  0  0  0  0
  7 13  1  1  0  0  0
  8 15  1  1  0  0  0
  8 11  1  0  0  0  0
  9 13  1  0  0  0  0
 10  1  1  0  0  0  0
 17 15  1  1  0  0  0
 17 18  1  0  0  0  0
 18 25  1  6  0  0  0
 19 18  1  0  0  0  0
 19 26  1  6  0  0  0
 20 19  1  0  0  0  0
 20 24  1  1  0  0  0
 21 23  1  0  0  0  0
 21 20  1  0  0  0  0
 21 22  1  1  0  0  0
 23 17  1  0  0  0  0
 27 22  1  0  0  0  0
 28 29  1  0  0  0  0
 28 16  1  6  0  0  0
 29 36  1  6  0  0  0
 30 37  1  6  0  0  0
 30 29  1  0  0  0  0
 31 30  1  0  0  0  0
 31 34  1  1  0  0  0
 32 31  1  0  0  0  0
 32 33  1  0  0  0  0
 33 28  1  0  0  0  0
 33 35  1  1  0  0  0
M  END
>  <CHROM.1>
-119.36621319,162.43749956,-153.02292815,59.00378100,-107.03234935,-170.73413625
-27.80151926,-68.97883165,-165.15190497,165.93325723,-175.77629238,113.73623346
66.48889920,-178.36140266,-71.37260517,-24.50833533,-12.92239813,6.55765939
6.85555593,0.73985993,0.66939826,-1.55227176

>  <Name>
lig.pdb

>  <RI>
1.95696e+07

>  <Rbt.Current_Directory>
/home/itssahil/PROJECTS/Mol_Feturizer/New_Systems/rnas/2m4q

>  <Rbt.Executable>
rbdock ($Id: //depot/dev/client3/rdock/2013.1/src/exe/rbdock.cxx#4 $)

>  <Rbt.Library>
libRbt.so (2013.1, Build901 2013/11/27)

>  <Rbt.Parameter_File>
/export/apps/rDock/src/rDock_2013.1_src/data/scripts/dock_solv.prm

>  <Rbt.Receptor>
prm/blind_docking_100.prm

>  <SCORE>
-16.0412

>  <SCORE.INTER>
-23.6804

>  <SCORE.INTER.CONST>
1

>  <SCORE.INTER.POLAR>
-3.99595

>  <SCORE.INTER.ROT>
10

>  <SCORE.INTER.SOLV>
17.625

>  <SCORE.INTER.VDW>
-18.6088

>  <SCORE.INTER.norm>
-0.640011

>  <SCORE.INTRA>
-1.88856

>  <SCORE.INTRA.DIHEDRAL>
-18.0854

>  <SCORE.INTRA.DIHEDRAL.0>
44.8331

>  <SCORE.INTRA.POLAR>
-0.68017

>  <SCORE.INTRA.POLAR.0>
-0.108895

>  <SCORE.INTRA.REPUL>
-0.00912235

>  <SCORE.INTRA.REPUL.0>
0.00912235

>  <SCORE.INTRA.SOLV>
-1.6401

>  <SCORE.INTRA.SOLV.lig_0>
-53.9067

>  <SCORE.INTRA.VDW>
10.3324

>  <SCORE.INTRA.VDW.0>
-2.93492

>  <SCORE.INTRA.norm>
-0.0510421

>  <SCORE.RESTR>
9.52782

>  <SCORE.RESTR.CAVITY>
9.52782

>  <SCORE.RESTR.norm>
0.257509

>  <SCORE.SYSTEM>
0

>  <SCORE.SYSTEM.CONST>
0

>  <SCORE.SYSTEM.DIHEDRAL>
0

>  <SCORE.SYSTEM.SOLV>
0

>  <SCORE.SYSTEM.norm>
0

>  <SCORE.heavy>
37

>  <SCORE.norm>
-0.433545

>  <RMSD>
16.717

$$$$
lig.pdb
 OpenBabel11021811453D
libRbt.so/2013.1/901 2013/11/27
 37 40  0  0  0  0  0  0  0  0999 V2000
  -13.0855    5.5179    2.9305 C   0  0  2  0  0  0  0  0  0  0  0  0
  -14.3350    6.4420    2.7518 C   0  0  1  0  0  0  0  0  0  0  0  0
  -14.5123    7.4677    3.9095 C   0  0  0  0  0  0  0  0  0  0  0  0
  -14.4052    6.7739    5.2902 C   0  0  1  0  0  0  0  0  0  0  0  0
  -13.0655    6.0111    5.3934 C   0  0  1  0  0  0  0  0  0  0  0  0
  -12.9104    5.3440    6.7864 C   0  0  1  0  0  0  0  0  0  0  0  0
  -13.1067    6.3869    7.9267 C   0  0  1  0  0  0  0  0  0  0  0  0
  -14.4243    7.1996    7.7536 C   0  0  2  0  0  0  0  0  0  0  0  0
  -14.3350    5.0484    9.5740 C   0  0  0  0  0  0  0  0  0  0  0  0
  -12.9480    5.0447    4.3097 O   0  0  0  0  0  0  0  0  0  0  0  0
  -14.5618    7.7128    6.3929 O   0  0  0  0  0  0  0  0  0  0  0  0
  -14.2447    7.1600    1.4619 N   0  0  0  0  0  0  0  0  0  0  0  0
  -13.0501    5.6955    9.2312 N   0  0  0  0  0  0  0  0  0  0  0  0
  -13.8002    4.2449    6.9346 O   0  0  0  0  0  0  0  0  0  0  0  0
  -14.4912    8.2755    8.7346 O   0  0  0  0  0  0  0  0  0  0  0  0
  -11.8642    6.1919    2.4983 O   0  0  0  0  0  0  0  0  0  0  0  0
  -15.7830    8.9091    8.9869 C   0  0  2  0  0  0  0  0  0  0  0  0
  -15.6456   10.0618   10.0218 C   0  0  1  0  0  0  0  0  0  0  0  0
  -15.3609    9.5205   11.4521 C   0  0  2  0  0  0  0  0  0  0  0  0
  -16.4137    8.4526   11.8685 C   0  0  1  0  0  0  0  0  0  0  0  0
  -16.5439    7.3395   10.7917 C   0  0  1  0  0  0  0  0  0  0  0  0
  -17.6842    6.3425   11.1263 C   0  0  0  0  0  0  0  0  0  0  0  0
  -16.7489    7.9294    9.4721 O   0  0  0  0  0  0  0  0  0  0  0  0
  -16.1090    7.8834   13.1996 N   0  0  0  0  0  0  0  0  0  0  0  0
  -14.6522   10.9957    9.6028 O   0  0  0  0  0  0  0  0  0  0  0  0
  -15.3022   10.5822   12.4023 O   0  0  0  0  0  0  0  0  0  0  0  0
  -17.2099    5.0004   11.0950 O   0  0  0  0  0  0  0  0  0  0  0  0
  -10.5933    5.5353    2.7768 C   0  0  1  0  0  0  0  0  0  0  0  0
  -10.3088    5.4423    4.3022 C   0  0  1  0  0  0  0  0  0  0  0  0
   -8.9070    4.8273    4.5741 C   0  0  2  0  0  0  0  0  0  0  0  0
   -8.7118    3.4496    3.8615 C   0  0  1  0  0  0  0  0  0  0  0  0
   -9.1192    3.4811    2.3579 C   0  0  0  0  0  0  0  0  0  0  0  0
  -10.5203    4.1238    2.1282 C   0  0  2  0  0  0  0  0  0  0  0  0
   -7.3231    2.9679    4.0210 N   0  0  0  0  0  0  0  0  0  0  0  0
  -10.8082    4.1627    0.6780 N   0  0  0  0  0  0  0  0  0  0  0  0
  -10.4287    6.7202    4.9188 O   0  0  0  0  0  0  0  0  0  0  0  0
   -8.6829    4.6994    5.9759 O   0  0  0  0  0  0  0  0  0  0  0  0
  1  2  1  0  0  0  0
  1 16  1  1  0  0  0
  2  3  1  0  0  0  0
  2 12  1  6  0  0  0
  4 11  1  1  0  0  0
  4  3  1  0  0  0  0
  5  4  1  0  0  0  0
  5 10  1  6  0  0  0
  6  7  1  0  0  0  0
  6  5  1  0  0  0  0
  6 14  1  1  0  0  0
  7  8  1  0  0  0  0
  7 13  1  1  0  0  0
  8 15  1  1  0  0  0
  8 11  1  0  0  0  0
  9 13  1  0  0  0  0
 10  1  1  0  0  0  0
 17 15  1  1  0  0  0
 17 18  1  0  0  0  0
 18 25  1  6  0  0  0
 19 18  1  0  0  0  0
 19 26  1  1  0  0  0
 20 19  1  0  0  0  0
 20 24  1  1  0  0  0
 21 23  1  0  0  0  0
 21 20  1  0  0  0  0
 21 22  1  1  0  0  0
 23 17  1  0  0  0  0
 27 22  1  0  0  0  0
 28 29  1  0  0  0  0
 28 16  1  1  0  0  0
 29 36  1  6  0  0  0
 30 37  1  1  0  0  0
 30 29  1  0  0  0  0
 31 30  1  0  0  0  0
 31 34  1  6  0  0  0
 32 31  1  0  0  0  0
 32 33  1  0  0  0  0
 33 28  1  0  0  0  0
 33 35  1  6  0  0  0
M  END
>  <CHROM.1>
-177.35973543,-163.23321325,-80.98069000,159.88764720,-178.00024897,171.51035934
-173.47790996,-173.53238852,-127.66023148,71.67945691,67.98702208,-65.62970785
-120.94033021,-59.96792376,127.92495619,79.06869349,-13.29828729,6.46815123
6.73934776,0.84902747,0.61367482,-1.52547149

>  <Name>
lig.pdb

>  <RI>
1.95696e+07

>  <Rbt.Current_Directory>
/home/itssahil/PROJECTS/Mol_Feturizer/New_Systems/rnas/2m4q

>  <Rbt.Executable>
rbdock ($Id: //depot/dev/client3/rdock/2013.1/src/exe/rbdock.cxx#4 $)

>  <Rbt.Library>
libRbt.so (2013.1, Build901 2013/11/27)

>  <Rbt.Parameter_File>
/export/apps/rDock/src/rDock_2013.1_src/data/scripts/dock_solv.prm

>  <Rbt.Receptor>
prm/blind_docking_100.prm

>  <SCORE>
-21.1216

>  <SCORE.INTER>
-26.5447

>  <SCORE.INTER.CONST>
1

>  <SCORE.INTER.POLAR>
-5.11332

>  <SCORE.INTER.ROT>
10

>  <SCORE.INTER.SOLV>
17.8444

>  <SCORE.INTER.VDW>
-16.8668

>  <SCORE.INTER.norm>
-0.717424

>  <SCORE.INTRA>
-6.14837

>  <SCORE.INTRA.DIHEDRAL>
-24.1351

>  <SCORE.INTRA.DIHEDRAL.0>
44.8331

>  <SCORE.INTRA.POLAR>
0.0809289

>  <SCORE.INTRA.POLAR.0>
-0.108895

>  <SCORE.INTRA.REPUL>
-0.00912235

>  <SCORE.INTRA.REPUL.0>
0.00912235

>  <SCORE.INTRA.SOLV>
-0.29616

>  <SCORE.INTRA.SOLV.lig_0>
-53.9067

>  <SCORE.INTRA.VDW>
5.83771

>  <SCORE.INTRA.VDW.0>
-2.93492

>  <SCORE.INTRA.norm>
-0.166172

>  <SCORE.RESTR>
11.5715

>  <SCORE.RESTR.CAVITY>
11.5715

>  <SCORE.RESTR.norm>
0.312742

>  <SCORE.SYSTEM>
0

>  <SCORE.SYSTEM.CONST>
0

>  <SCORE.SYSTEM.DIHEDRAL>
0

>  <SCORE.SYSTEM.SOLV>
0

>  <SCORE.SYSTEM.norm>
0

>  <SCORE.heavy>
37

>  <SCORE.norm>
-0.570854

>  <RMSD>
16.729

$$$$
lig.pdb
 OpenBabel11021811453D
libRbt.so/2013.1/901 2013/11/27
 37 40  0  0  0  0  0  0  0  0999 V2000
  -13.5293    6.0037    3.3615 C   0  0  2  0  0  0  0  0  0  0  0  0
  -14.8609    6.8244    3.3875 C   0  0  1  0  0  0  0  0  0  0  0  0
  -15.1248    7.5260    4.7520 C   0  0  0  0  0  0  0  0  0  0  0  0
  -14.9435    6.5381    5.9311 C   0  0  1  0  0  0  0  0  0  0  0  0
  -13.5377    5.8997    5.8713 C   0  0  1  0  0  0  0  0  0  0  0  0
  -13.3110    4.9390    7.0693 C   0  0  1  0  0  0  0  0  0  0  0  0
  -13.5955    5.6597    8.4207 C   0  0  1  0  0  0  0  0  0  0  0  0
  -14.9844    6.3649    8.4247 C   0  0  2  0  0  0  0  0  0  0  0  0
  -14.6633    3.8303    9.6565 C   0  0  0  0  0  0  0  0  0  0  0  0
  -13.3384    5.2323    4.5918 O   0  0  0  0  0  0  0  0  0  0  0  0
  -15.1791    7.1707    7.2220 O   0  0  0  0  0  0  0  0  0  0  0  0
  -14.8474    7.8325    2.3053 N   0  0  0  0  0  0  0  0  0  0  0  0
  -13.4652    4.6873    9.5256 N   0  0  0  0  0  0  0  0  0  0  0  0
  -14.0932    3.7587    6.9401 O   0  0  0  0  0  0  0  0  0  0  0  0
  -15.1443    7.1671    9.6311 O   0  0  0  0  0  0  0  0  0  0  0  0
  -12.3795    6.8708    3.1194 O   0  0  0  0  0  0  0  0  0  0  0  0
  -16.2577    8.1104    9.6981 C   0  0  2  0  0  0  0  0  0  0  0  0
  -15.7977    9.5442    9.3092 C   0  0  1  0  0  0  0  0  0  0  0  0
  -14.8854   10.1723   10.4015 C   0  0  2  0  0  0  0  0  0  0  0  0
  -15.5616   10.1103   11.8019 C   0  0  1  0  0  0  0  0  0  0  0  0
  -16.0365    8.6685   12.1353 C   0  0  1  0  0  0  0  0  0  0  0  0
  -16.8326    8.6156   13.4656 C   0  0  0  0  0  0  0  0  0  0  0  0
  -16.8343    8.1289   11.0382 O   0  0  0  0  0  0  0  0  0  0  0  0
  -14.6710   10.6429   12.8563 N   0  0  0  0  0  0  0  0  0  0  0  0
  -15.1642    9.5377    8.0312 O   0  0  0  0  0  0  0  0  0  0  0  0
  -14.5241   11.5098   10.0640 O   0  0  0  0  0  0  0  0  0  0  0  0
  -15.9656    8.7836   14.5825 O   0  0  0  0  0  0  0  0  0  0  0  0
  -11.0534    6.2693    3.1780 C   0  0  1  0  0  0  0  0  0  0  0  0
  -10.6884    5.8049    4.6158 C   0  0  1  0  0  0  0  0  0  0  0  0
   -9.2351    5.2557    4.6753 C   0  0  2  0  0  0  0  0  0  0  0  0
   -8.9786    4.1321    3.6191 C   0  0  1  0  0  0  0  0  0  0  0  0
   -9.4606    4.5216    2.1895 C   0  0  0  0  0  0  0  0  0  0  0  0
  -10.9130    5.0865    2.1781 C   0  0  2  0  0  0  0  0  0  0  0  0
   -7.5533    3.7393    3.6057 N   0  0  0  0  0  0  0  0  0  0  0  0
  -11.2738    5.4789    0.7985 N   0  0  0  0  0  0  0  0  0  0  0  0
  -10.8675    6.8637    5.5510 O   0  0  0  0  0  0  0  0  0  0  0  0
   -8.9340    4.7852    5.9866 O   0  0  0  0  0  0  0  0  0  0  0  0
  1  2  1  0  0  0  0
  1 16  1  1  0  0  0
  2  3  1  0  0  0  0
  2 12  1  6  0  0  0
  4 11  1  1  0  0  0
  4  3  1  0  0  0  0
  5  4  1  0  0  0  0
  5 10  1  6  0  0  0
  6  7  1  0  0  0  0
  6  5  1  0  0  0  0
  6 14  1  6  0  0  0
  7  8  1  0  0  0  0
  7 13  1  1  0  0  0
  8 15  1  1  0  0  0
  8 11  1  0  0  0  0
  9 13  1  0  0  0  0
 10  1  1  0  0  0  0
 17 15  1  1  0  0  0
 17 18  1  0  0  0  0
 18 25  1  6  0  0  0
 19 18  1  0  0  0  0
 19 26  1  6  0  0  0
 20 19  1  0  0  0  0
 20 24  1  1  0  0  0
 21 23  1  0  0  0  0
 21 20  1  0  0  0  0
 21 22  1  1  0  0  0
 23 17  1  0  0  0  0
 27 22  1  0  0  0  0
 28 29  1  0  0  0  0
 28 16  1  1  0  0  0
 29 36  1  1  0  0  0
 30 37  1  1  0  0  0
 30 29  1  0  0  0  0
 31 30  1  0  0  0  0
 31 34  1  6  0  0  0
 32 31  1  0  0  0  0
 32 33  1  0  0  0  0
 33 28  1  0  0  0  0
 33 35  1  6  0  0  0
M  END
>  <CHROM.1>
75.22184232,167.97998143,-79.01771461,156.13288345,-96.79224970,174.98200757
-45.68620355,71.82200293,-72.56424641,74.55884364,-47.40742644,-67.08315381
150.74313482,-69.14651332,29.01332862,58.04745773,-13.46402919,6.83337796
7.06912184,0.88979547,0.71081623,-1.50642462

>  <Name>
lig.pdb

>  <RI>
1.95696e+07

>  <Rbt.Current_Directory>
/home/itssahil/PROJECTS/Mol_Feturizer/New_Systems/rnas/2m4q

>  <Rbt.Executable>
rbdock ($Id: //depot/dev/client3/rdock/2013.1/src/exe/rbdock.cxx#4 $)

>  <Rbt.Library>
libRbt.so (2013.1, Build901 2013/11/27)

>  <Rbt.Parameter_File>
/export/apps/rDock/src/rDock_2013.1_src/data/scripts/dock_solv.prm

>  <Rbt.Receptor>
prm/blind_docking_100.prm

>  <SCORE>
-23.4803

>  <SCORE.INTER>
-22.3811

>  <SCORE.INTER.CONST>
1

>  <SCORE.INTER.POLAR>
-4.40186

>  <SCORE.INTER.ROT>
10

>  <SCORE.INTER.SOLV>
21.1674

>  <SCORE.INTER.VDW>
-17.5703

>  <SCORE.INTER.norm>
-0.604895

>  <SCORE.INTRA>
-10.4436

>  <SCORE.INTRA.DIHEDRAL>
-26.8577

>  <SCORE.INTRA.DIHEDRAL.0>
44.8331

>  <SCORE.INTRA.POLAR>
-0.640716

>  <SCORE.INTRA.POLAR.0>
-0.108895

>  <SCORE.INTRA.REPUL>
-0.00912235

>  <SCORE.INTRA.REPUL.0>
0.00912235

>  <SCORE.INTRA.SOLV>
0.581015

>  <SCORE.INTRA.SOLV.lig_0>
-53.9067

>  <SCORE.INTRA.VDW>
4.91875

>  <SCORE.INTRA.VDW.0>
-2.93492

>  <SCORE.INTRA.norm>
-0.28226

>  <SCORE.RESTR>
9.34443

>  <SCORE.RESTR.CAVITY>
9.34443

>  <SCORE.RESTR.norm>
0.252552

>  <SCORE.SYSTEM>
0

>  <SCORE.SYSTEM.CONST>
0

>  <SCORE.SYSTEM.DIHEDRAL>
0

>  <SCORE.SYSTEM.SOLV>
0

>  <SCORE.SYSTEM.norm>
0

>  <SCORE.heavy>
37

>  <SCORE.norm>
-0.634603

>  <RMSD>
16.750

$$$$
lig.pdb
 OpenBabel11021811453D
libRbt.so/2013.1/901 2013/11/27
 37 40  0  0  0  0  0  0  0  0999 V2000
  -12.9290    5.0997    4.8245 C   0  0  2  0  0  0  0  0  0  0  0  0
  -13.9031    6.2307    4.3563 C   0  0  1  0  0  0  0  0  0  0  0  0
  -14.2508    7.2484    5.4819 C   0  0  0  0  0  0  0  0  0  0  0  0
  -14.6732    6.5194    6.7816 C   0  0  1  0  0  0  0  0  0  0  0  0
  -13.5658    5.5330    7.2153 C   0  0  1  0  0  0  0  0  0  0  0  0
  -13.9425    4.8215    8.5426 C   0  0  1  0  0  0  0  0  0  0  0  0
  -14.3001    5.8599    9.6474 C   0  0  1  0  0  0  0  0  0  0  0  0
  -15.3577    6.8928    9.1568 C   0  0  2  0  0  0  0  0  0  0  0  0
  -16.2131    4.9517   10.8840 C   0  0  0  0  0  0  0  0  0  0  0  0
  -13.2871    4.5826    6.1471 O   0  0  0  0  0  0  0  0  0  0  0  0
  -14.9989    7.4491    7.8547 O   0  0  0  0  0  0  0  0  0  0  0  0
  -13.3182    6.9475    3.2023 N   0  0  0  0  0  0  0  0  0  0  0  0
  -14.7469    5.1434   10.8598 N   0  0  0  0  0  0  0  0  0  0  0  0
  -15.0002    3.8915    8.3479 O   0  0  0  0  0  0  0  0  0  0  0  0
  -15.5407    7.9443   10.1495 O   0  0  0  0  0  0  0  0  0  0  0  0
  -11.5429    5.5593    4.8144 O   0  0  0  0  0  0  0  0  0  0  0  0
  -15.8753    9.2888    9.6868 C   0  0  2  0  0  0  0  0  0  0  0  0
  -14.5901   10.1268    9.4328 C   0  0  1  0  0  0  0  0  0  0  0  0
  -13.8752   10.5020   10.7625 C   0  0  2  0  0  0  0  0  0  0  0  0
  -14.8592   11.1852   11.7559 C   0  0  1  0  0  0  0  0  0  0  0  0
  -16.1432   10.3322   11.9540 C   0  0  1  0  0  0  0  0  0  0  0  0
  -17.1919   11.0624   12.8334 C   0  0  0  0  0  0  0  0  0  0  0  0
  -16.7190    9.9717   10.6617 O   0  0  0  0  0  0  0  0  0  0  0  0
  -14.2034   11.4820   13.0484 N   0  0  0  0  0  0  0  0  0  0  0  0
  -13.7153    9.4434    8.5371 O   0  0  0  0  0  0  0  0  0  0  0  0
  -12.7358   11.3245   10.5203 O   0  0  0  0  0  0  0  0  0  0  0  0
  -16.7728   11.1038   14.1935 O   0  0  0  0  0  0  0  0  0  0  0  0
  -10.5103    4.5894    4.4722 C   0  0  1  0  0  0  0  0  0  0  0  0
  -10.1916    4.5916    2.9508 C   0  0  1  0  0  0  0  0  0  0  0  0
   -9.1596    3.4851    2.5930 C   0  0  2  0  0  0  0  0  0  0  0  0
   -7.8614    3.5780    3.4589 C   0  0  1  0  0  0  0  0  0  0  0  0
   -8.1567    3.7130    4.9828 C   0  0  0  0  0  0  0  0  0  0  0  0
   -9.2107    4.8176    5.2952 C   0  0  2  0  0  0  0  0  0  0  0  0
   -6.9705    2.4280    3.1947 N   0  0  0  0  0  0  0  0  0  0  0  0
   -9.4720    4.8460    6.7506 N   0  0  0  0  0  0  0  0  0  0  0  0
  -11.3816    4.4405    2.1836 O   0  0  0  0  0  0  0  0  0  0  0  0
   -8.8378    3.5346    1.2053 O   0  0  0  0  0  0  0  0  0  0  0  0
  1  2  1  0  0  0  0
  1 16  1  1  0  0  0
  2  3  1  0  0  0  0
  2 12  1  6  0  0  0
  4 11  1  1  0  0  0
  4  3  1  0  0  0  0
  5  4  1  0  0  0  0
  5 10  1  6  0  0  0
  6  7  1  0  0  0  0
  6  5  1  0  0  0  0
  6 14  1  6  0  0  0
  7  8  1  0  0  0  0
  7 13  1  1  0  0  0
  8 15  1  1  0  0  0
  8 11  1  0  0  0  0
  9 13  1  0  0  0  0
 10  1  1  0  0  0  0
 17 15  1  1  0  0  0
 17 18  1  0  0  0  0
 18 25  1  6  0  0  0
 19 18  1  0  0  0  0
 19 26  1  6  0  0  0
 20 19  1  0  0  0  0
 20 24  1  1  0  0  0
 21 23  1  0  0  0  0
 21 20  1  0  0  0  0
 21 22  1  1  0  0  0
 23 17  1  0  0  0  0
 27 22  1  0  0  0  0
 28 29  1  0  0  0  0
 28 16  1  6  0  0  0
 29 36  1  6  0  0  0
 30 37  1  6  0  0  0
 30 29  1  0  0  0  0
 31 30  1  0  0  0  0
 31 34  1  1  0  0  0
 32 31  1  0  0  0  0
 32 33  1  0  0  0  0
 33 28  1  0  0  0  0
 33 35  1  1  0  0  0
M  END
>  <CHROM.1>
84.76824544,148.09414443,-91.92188129,169.02231421,-90.19330741,-145.95140214
179.00169859,68.34971416,-71.85047372,101.37417411,-172.44451917,91.94890629
70.85801671,-53.41718825,-75.99732914,-117.63828967,-13.13691216,6.78766534
7.55129737,0.92947108,-0.56597943,-2.57951620

>  <Name>
lig.pdb

>  <RI>
1.95696e+07

>  <Rbt.Current_Directory>
/home/itssahil/PROJECTS/Mol_Feturizer/New_Systems/rnas/2m4q

>  <Rbt.Executable>
rbdock ($Id: //depot/dev/client3/rdock/2013.1/src/exe/rbdock.cxx#4 $)

>  <Rbt.Library>
libRbt.so (2013.1, Build901 2013/11/27)

>  <Rbt.Parameter_File>
/export/apps/rDock/src/rDock_2013.1_src/data/scripts/dock_solv.prm

>  <Rbt.Receptor>
prm/blind_docking_100.prm

>  <SCORE>
-19.2855

>  <SCORE.INTER>
-23.3181

>  <SCORE.INTER.CONST>
1

>  <SCORE.INTER.POLAR>
-4.16257

>  <SCORE.INTER.ROT>
10

>  <SCORE.INTER.SOLV>
17.4056

>  <SCORE.INTER.VDW>
-17.7387

>  <SCORE.INTER.norm>
-0.630218

>  <SCORE.INTRA>
-4.50874

>  <SCORE.INTRA.DIHEDRAL>
-19.472

>  <SCORE.INTRA.DIHEDRAL.0>
44.8331

>  <SCORE.INTRA.POLAR>
-0.915374

>  <SCORE.INTRA.POLAR.0>
-0.108895

>  <SCORE.INTRA.REPUL>
0.486468

>  <SCORE.INTRA.REPUL.0>
0.00912235

>  <SCORE.INTRA.SOLV>
0.340869

>  <SCORE.INTRA.SOLV.lig_0>
-53.9067

>  <SCORE.INTRA.VDW>
5.73676

>  <SCORE.INTRA.VDW.0>
-2.93492

>  <SCORE.INTRA.norm>
-0.121858

>  <SCORE.RESTR>
8.54133

>  <SCORE.RESTR.CAVITY>
8.54133

>  <SCORE.RESTR.norm>
0.230847

>  <SCORE.SYSTEM>
0

>  <SCORE.SYSTEM.CONST>
0

>  <SCORE.SYSTEM.DIHEDRAL>
0

>  <SCORE.SYSTEM.SOLV>
0

>  <SCORE.SYSTEM.norm>
0

>  <SCORE.heavy>
37

>  <SCORE.norm>
-0.521229

>  <RMSD>
16.765

$$$$
lig.pdb
 OpenBabel11021811453D
libRbt.so/2013.1/901 2013/11/27
 37 40  0  0  0  0  0  0  0  0999 V2000
  -13.0960    5.7168    3.2174 C   0  0  2  0  0  0  0  0  0  0  0  0
  -14.3289    6.6240    2.8947 C   0  0  1  0  0  0  0  0  0  0  0  0
  -14.7891    7.4898    4.1040 C   0  0  0  0  0  0  0  0  0  0  0  0
  -14.9286    6.6296    5.3845 C   0  0  1  0  0  0  0  0  0  0  0  0
  -13.6004    5.8943    5.6717 C   0  0  1  0  0  0  0  0  0  0  0  0
  -13.6968    5.0601    6.9772 C   0  0  1  0  0  0  0  0  0  0  0  0
  -14.1729    5.9447    8.1678 C   0  0  1  0  0  0  0  0  0  0  0  0
  -15.4678    6.7389    7.8231 C   0  0  2  0  0  0  0  0  0  0  0  0
  -14.9442    5.8400   10.4933 C   0  0  0  0  0  0  0  0  0  0  0  0
  -13.2168    5.0763    4.5290 O   0  0  0  0  0  0  0  0  0  0  0  0
  -15.3529    7.4169    6.5343 O   0  0  0  0  0  0  0  0  0  0  0  0
  -14.0161    7.5018    1.7462 N   0  0  0  0  0  0  0  0  0  0  0  0
  -14.3465    5.0952    9.3641 N   0  0  0  0  0  0  0  0  0  0  0  0
  -14.5409    3.9288    6.8062 O   0  0  0  0  0  0  0  0  0  0  0  0
  -15.7867    7.6798    8.8897 O   0  0  0  0  0  0  0  0  0  0  0  0
  -11.8486    6.4711    3.1309 O   0  0  0  0  0  0  0  0  0  0  0  0
  -15.7657    9.1089    8.5877 C   0  0  2  0  0  0  0  0  0  0  0  0
  -14.3519    9.7092    8.8314 C   0  0  1  0  0  0  0  0  0  0  0  0
  -14.0098    9.7797   10.3473 C   0  0  2  0  0  0  0  0  0  0  0  0
  -15.1274   10.5157   11.1418 C   0  0  1  0  0  0  0  0  0  0  0  0
  -16.5259    9.9071   10.8427 C   0  0  1  0  0  0  0  0  0  0  0  0
  -17.6642   10.7148   11.5196 C   0  0  0  0  0  0  0  0  0  0  0  0
  -16.7454    9.8198    9.4020 O   0  0  0  0  0  0  0  0  0  0  0  0
  -14.8420   10.5254   12.5933 N   0  0  0  0  0  0  0  0  0  0  0  0
  -13.3660    8.9823    8.1004 O   0  0  0  0  0  0  0  0  0  0  0  0
  -12.7395   10.3914   10.5607 O   0  0  0  0  0  0  0  0  0  0  0  0
  -17.6649   12.0655   11.0691 O   0  0  0  0  0  0  0  0  0  0  0  0
  -10.6152    5.7840    3.4924 C   0  0  1  0  0  0  0  0  0  0  0  0
  -10.4398    5.6759    5.0331 C   0  0  1  0  0  0  0  0  0  0  0  0
   -9.0745    5.0274    5.3974 C   0  0  2  0  0  0  0  0  0  0  0  0
   -8.8610    3.6498    4.6901 C   0  0  1  0  0  0  0  0  0  0  0  0
   -9.1618    3.6991    3.1621 C   0  0  0  0  0  0  0  0  0  0  0  0
  -10.5287    4.3750    2.8401 C   0  0  2  0  0  0  0  0  0  0  0  0
   -7.4979    3.1355    4.9423 N   0  0  0  0  0  0  0  0  0  0  0  0
  -10.7139    4.4287    1.3738 N   0  0  0  0  0  0  0  0  0  0  0  0
  -10.5738    6.9526    5.6492 O   0  0  0  0  0  0  0  0  0  0  0  0
   -8.9516    4.8865    6.8105 O   0  0  0  0  0  0  0  0  0  0  0  0
  1  2  1  0  0  0  0
  1 16  1  1  0  0  0
  2  3  1  0  0  0  0
  2 12  1  6  0  0  0
  4 11  1  1  0  0  0
  4  3  1  0  0  0  0
  5  4  1  0  0  0  0
  5 10  1  6  0  0  0
  6  7  1  0  0  0  0
  6  5  1  0  0  0  0
  6 14  1  6  0  0  0
  7  8  1  0  0  0  0
  7 13  1  1  0  0  0
  8 15  1  1  0  0  0
  8 11  1  0  0  0  0
  9 13  1  0  0  0  0
 10  1  1  0  0  0  0
 17 15  1  1  0  0  0
 17 18  1  0  0  0  0
 18 25  1  6  0  0  0
 19 18  1  0  0  0  0
 19 26  1  6  0  0  0
 20 19  1  0  0  0  0
 20 24  1  1  0  0  0
 21 23  1  0  0  0  0
 21 20  1  0  0  0  0
 21 22  1  1  0  0  0
 23 17  1  0  0  0  0
 27 22  1  0  0  0  0
 28 29  1  0  0  0  0
 28 16  1  1  0  0  0
 29 36  1  1  0  0  0
 30 37  1  1  0  0  0
 30 29  1  0  0  0  0
 31 30  1  0  0  0  0
 31 34  1  6  0  0  0
 32 31  1  0  0  0  0
 32 33  1  0  0  0  0
 33 28  1  0  0  0  0
 33 35  1  6  0  0  0
M  END
>  <CHROM.1>
86.95362597,116.38752282,-173.51060187,67.34654794,-89.58260845,175.99204707
-168.23625981,62.56986202,59.29805541,-171.26708339,-59.12731113,-77.89854724
-38.98588913,142.24569259,-73.19787760,68.62301189,-13.32438357,7.00457292
6.84366546,0.92741546,0.48118856,-1.88137496

>  <Name>
lig.pdb

>  <RI>
1.95696e+07

>  <Rbt.Current_Directory>
/home/itssahil/PROJECTS/Mol_Feturizer/New_Systems/rnas/2m4q

>  <Rbt.Executable>
rbdock ($Id: //depot/dev/client3/rdock/2013.1/src/exe/rbdock.cxx#4 $)

>  <Rbt.Library>
libRbt.so (2013.1, Build901 2013/11/27)

>  <Rbt.Parameter_File>
/export/apps/rDock/src/rDock_2013.1_src/data/scripts/dock_solv.prm

>  <Rbt.Receptor>
prm/blind_docking_100.prm

>  <SCORE>
-28.9426

>  <SCORE.INTER>
-32.3695

>  <SCORE.INTER.CONST>
1

>  <SCORE.INTER.POLAR>
-5.86658

>  <SCORE.INTER.ROT>
10

>  <SCORE.INTER.SOLV>
20.8618

>  <SCORE.INTER.VDW>
-19.245

>  <SCORE.INTER.norm>
-0.874852

>  <SCORE.INTRA>
-5.97425

>  <SCORE.INTRA.DIHEDRAL>
-22.6149

>  <SCORE.INTRA.DIHEDRAL.0>
44.8331

>  <SCORE.INTRA.POLAR>
-0.231295

>  <SCORE.INTRA.POLAR.0>
-0.108895

>  <SCORE.INTRA.REPUL>
0.146238

>  <SCORE.INTRA.REPUL.0>
0.00912235

>  <SCORE.INTRA.SOLV>
0.149287

>  <SCORE.INTRA.SOLV.lig_0>
-53.9067

>  <SCORE.INTRA.VDW>
5.31376

>  <SCORE.INTRA.VDW.0>
-2.93492

>  <SCORE.INTRA.norm>
-0.161466

>  <SCORE.RESTR>
9.40116

>  <SCORE.RESTR.CAVITY>
9.40116

>  <SCORE.RESTR.norm>
0.254085

>  <SCORE.SYSTEM>
0

>  <SCORE.SYSTEM.CONST>
0

>  <SCORE.SYSTEM.DIHEDRAL>
0

>  <SCORE.SYSTEM.SOLV>
0

>  <SCORE.SYSTEM.norm>
0

>  <SCORE.heavy>
37

>  <SCORE.norm>
-0.782232

>  <RMSD>
16.776

$$$$
lig.pdb
 OpenBabel11021811453D
libRbt.so/2013.1/901 2013/11/27
 37 40  0  0  0  0  0  0  0  0999 V2000
  -16.4739    9.8532    9.8471 C   0  0  2  0  0  0  0  0  0  0  0  0
  -16.9014    8.4676   10.4343 C   0  0  1  0  0  0  0  0  0  0  0  0
  -16.2326    7.2608    9.7130 C   0  0  0  0  0  0  0  0  0  0  0  0
  -16.3653    7.3873    8.1751 C   0  0  1  0  0  0  0  0  0  0  0  0
  -15.7804    8.7382    7.7057 C   0  0  1  0  0  0  0  0  0  0  0  0
  -15.8578    8.8720    6.1611 C   0  0  1  0  0  0  0  0  0  0  0  0
  -15.1958    7.6465    5.4636 C   0  0  1  0  0  0  0  0  0  0  0  0
  -15.7435    6.2960    6.0136 C   0  0  2  0  0  0  0  0  0  0  0  0
  -14.2120    7.2468    3.2531 C   0  0  0  0  0  0  0  0  0  0  0  0
  -16.4479    9.8419    8.3828 O   0  0  0  0  0  0  0  0  0  0  0  0
  -15.7422    6.2727    7.4741 O   0  0  0  0  0  0  0  0  0  0  0  0
  -16.5871    8.4190   11.8787 N   0  0  0  0  0  0  0  0  0  0  0  0
  -15.3778    7.7637    4.0020 N   0  0  0  0  0  0  0  0  0  0  0  0
  -17.1991    9.0507    5.7247 O   0  0  0  0  0  0  0  0  0  0  0  0
  -14.9853    5.1783    5.4655 O   0  0  0  0  0  0  0  0  0  0  0  0
  -15.1801   10.2746   10.3771 O   0  0  0  0  0  0  0  0  0  0  0  0
  -13.5743    5.0521    5.8220 C   0  0  2  0  0  0  0  0  0  0  0  0
  -13.1667    3.5579    5.9631 C   0  0  1  0  0  0  0  0  0  0  0  0
  -13.7930    2.9074    7.2298 C   0  0  2  0  0  0  0  0  0  0  0  0
  -13.4813    3.7449    8.5039 C   0  0  1  0  0  0  0  0  0  0  0  0
  -13.8714    5.2364    8.3075 C   0  0  1  0  0  0  0  0  0  0  0  0
  -13.4424    6.1097    9.5157 C   0  0  0  0  0  0  0  0  0  0  0  0
  -13.2957    5.7544    7.0699 O   0  0  0  0  0  0  0  0  0  0  0  0
  -14.1319    3.1697    9.7015 N   0  0  0  0  0  0  0  0  0  0  0  0
  -13.4973    2.8344    4.7791 O   0  0  0  0  0  0  0  0  0  0  0  0
  -13.3597    1.5575    7.3832 O   0  0  0  0  0  0  0  0  0  0  0  0
  -13.4136    7.4882    9.1603 O   0  0  0  0  0  0  0  0  0  0  0  0
  -15.1395   11.4933   11.1752 C   0  0  1  0  0  0  0  0  0  0  0  0
  -16.2236   11.4954   12.2892 C   0  0  1  0  0  0  0  0  0  0  0  0
  -16.2269   12.8426   13.0653 C   0  0  2  0  0  0  0  0  0  0  0  0
  -14.8154   13.2105   13.6274 C   0  0  1  0  0  0  0  0  0  0  0  0
  -13.6862   13.0858   12.5610 C   0  0  0  0  0  0  0  0  0  0  0  0
  -13.7321   11.7306   11.7927 C   0  0  2  0  0  0  0  0  0  0  0  0
  -14.8252   14.5612   14.2287 N   0  0  0  0  0  0  0  0  0  0  0  0
  -12.6654   11.7133   10.7684 N   0  0  0  0  0  0  0  0  0  0  0  0
  -17.5105   11.2224   11.7444 O   0  0  0  0  0  0  0  0  0  0  0  0
  -17.1888   12.8091   14.1167 O   0  0  0  0  0  0  0  0  0  0  0  0
  1  2  1  0  0  0  0
  1 16  1  1  0  0  0
  2  3  1  0  0  0  0
  2 12  1  1  0  0  0
  4 11  1  6  0  0  0
  4  3  1  0  0  0  0
  5  4  1  0  0  0  0
  5 10  1  1  0  0  0
  6  7  1  0  0  0  0
  6  5  1  0  0  0  0
  6 14  1  1  0  0  0
  7  8  1  0  0  0  0
  7 13  1  6  0  0  0
  8 15  1  6  0  0  0
  8 11  1  0  0  0  0
  9 13  1  0  0  0  0
 10  1  1  0  0  0  0
 17 15  1  1  0  0  0
 17 18  1  0  0  0  0
 18 25  1  6  0  0  0
 19 18  1  0  0  0  0
 19 26  1  1  0  0  0
 20 19  1  0  0  0  0
 20 24  1  1  0  0  0
 21 23  1  0  0  0  0
 21 20  1  0  0  0  0
 21 22  1  1  0  0  0
 23 17  1  0  0  0  0
 27 22  1  0  0  0  0
 28 29  1  0  0  0  0
 28 16  1  1  0  0  0
 29 36  1  6  0  0  0
 30 37  1  1  0  0  0
 30 29  1  0  0  0  0
 31 30  1  0  0  0  0
 31 34  1  6  0  0  0
 32 31  1  0  0  0  0
 32 33  1  0  0  0  0
 33 28  1  0  0  0  0
 33 35  1  6  0  0  0
M  END
>  <CHROM.1>
53.55389349,65.22669007,144.58132484,-61.00834111,144.50038934,-116.99567659
175.45839943,-61.57138228,161.61614531,-67.76028565,-175.83360466,49.68337086
-73.53651734,60.42051416,-47.21638698,-72.62915621,-15.01221646,8.09302555
8.88659158,1.93688912,-1.17847609,1.02177297

>  <Name>
lig.pdb

>  <RI>
0

>  <Rbt.Current_Directory>
/home/itssahil/PROJECTS/Mol_Feturizer/New_Systems/rnas/2m4q

>  <Rbt.Executable>
rbdock ($Id: //depot/dev/client3/rdock/2013.1/src/exe/rbdock.cxx#4 $)

>  <Rbt.Library>
libRbt.so (2013.1, Build901 2013/11/27)

>  <Rbt.Parameter_File>
/export/apps/rDock/src/rDock_2013.1_src/data/scripts/dock_solv.prm

>  <Rbt.Receptor>
prm/blind_docking_60.prm

>  <SCORE>
1.58587

>  <SCORE.INTER>
-8.72339

>  <SCORE.INTER.CONST>
1

>  <SCORE.INTER.POLAR>
-2.74203

>  <SCORE.INTER.ROT>
10

>  <SCORE.INTER.SOLV>
17.1324

>  <SCORE.INTER.VDW>
-12.653

>  <SCORE.INTER.norm>
-0.235767

>  <SCORE.INTRA>
-5.59817

>  <SCORE.INTRA.DIHEDRAL>
-27.5903

>  <SCORE.INTRA.DIHEDRAL.0>
44.8331

>  <SCORE.INTRA.POLAR>
-0.562706

>  <SCORE.INTRA.POLAR.0>
-0.108895

>  <SCORE.INTRA.REPUL>
-0.00912235

>  <SCORE.INTRA.REPUL.0>
0.00912235

>  <SCORE.INTRA.SOLV>
2.12774

>  <SCORE.INTRA.SOLV.lig_0>
-53.9067

>  <SCORE.INTRA.VDW>
9.09192

>  <SCORE.INTRA.VDW.0>
-2.93492

>  <SCORE.INTRA.norm>
-0.151302

>  <SCORE.RESTR>
15.9074

>  <SCORE.RESTR.CAVITY>
15.9074

>  <SCORE.RESTR.norm>
0.429931

>  <SCORE.SYSTEM>
0

>  <SCORE.SYSTEM.CONST>
0

>  <SCORE.SYSTEM.DIHEDRAL>
0

>  <SCORE.SYSTEM.SOLV>
0

>  <SCORE.SYSTEM.norm>
0

>  <SCORE.heavy>
37

>  <SCORE.norm>
0.0428613

>  <RMSD>
16.782

$$$$
lig.pdb
 OpenBabel11021811453D
libRbt.so/2013.1/901 2013/11/27
 37 40  0  0  0  0  0  0  0  0999 V2000
  -12.4529    5.3353    3.1112 C   0  0  2  0  0  0  0  0  0  0  0  0
  -13.2751    6.6153    2.7468 C   0  0  1  0  0  0  0  0  0  0  0  0
  -13.6766    7.4632    3.9892 C   0  0  0  0  0  0  0  0  0  0  0  0
  -14.3059    6.5746    5.0908 C   0  0  1  0  0  0  0  0  0  0  0  0
  -13.3366    5.4296    5.4606 C   0  0  1  0  0  0  0  0  0  0  0  0
  -13.9226    4.5493    6.5971 C   0  0  1  0  0  0  0  0  0  0  0  0
  -14.3298    5.4218    7.8216 C   0  0  1  0  0  0  0  0  0  0  0  0
  -15.2394    6.6172    7.4094 C   0  0  2  0  0  0  0  0  0  0  0  0
  -14.1256    3.4056    9.2026 C   0  0  0  0  0  0  0  0  0  0  0  0
  -13.0051    4.6449    4.2789 O   0  0  0  0  0  0  0  0  0  0  0  0
  -14.6860    7.3427    6.2687 O   0  0  0  0  0  0  0  0  0  0  0  0
  -12.5033    7.4525    1.8028 N   0  0  0  0  0  0  0  0  0  0  0  0
  -14.9719    4.5622    8.8374 N   0  0  0  0  0  0  0  0  0  0  0  0
  -15.0170    3.7688    6.1338 O   0  0  0  0  0  0  0  0  0  0  0  0
  -15.4595    7.5043    8.5449 O   0  0  0  0  0  0  0  0  0  0  0  0
  -11.0447    5.6561    3.3269 O   0  0  0  0  0  0  0  0  0  0  0  0
  -15.5037    8.9447    8.3054 C   0  0  2  0  0  0  0  0  0  0  0  0
  -14.1765    9.6241    8.7474 C   0  0  1  0  0  0  0  0  0  0  0  0
  -14.0272    9.6431   10.2957 C   0  0  2  0  0  0  0  0  0  0  0  0
  -15.2827   10.2645   10.9736 C   0  0  1  0  0  0  0  0  0  0  0  0
  -16.5874    9.5805   10.4784 C   0  0  1  0  0  0  0  0  0  0  0  0
  -17.8542   10.2777   11.0400 C   0  0  0  0  0  0  0  0  0  0  0  0
  -16.6233    9.5492    9.0192 O   0  0  0  0  0  0  0  0  0  0  0  0
  -15.1772   10.2224   12.4486 N   0  0  0  0  0  0  0  0  0  0  0  0
  -13.0598    9.0001    8.1164 O   0  0  0  0  0  0  0  0  0  0  0  0
  -12.8391   10.3260   10.6902 O   0  0  0  0  0  0  0  0  0  0  0  0
  -17.7554   10.4500   12.4499 O   0  0  0  0  0  0  0  0  0  0  0  0
  -10.0821    4.5644    3.2514 C   0  0  1  0  0  0  0  0  0  0  0  0
   -8.7655    4.9975    2.5478 C   0  0  1  0  0  0  0  0  0  0  0  0
   -7.7922    3.7952    2.3913 C   0  0  2  0  0  0  0  0  0  0  0  0
   -7.5147    3.0719    3.7492 C   0  0  1  0  0  0  0  0  0  0  0  0
   -8.8169    2.7461    4.5403 C   0  0  0  0  0  0  0  0  0  0  0  0
   -9.7728    3.9715    4.6554 C   0  0  2  0  0  0  0  0  0  0  0  0
   -6.7068    1.8517    3.5387 N   0  0  0  0  0  0  0  0  0  0  0  0
  -11.0021    3.5668    5.3712 N   0  0  0  0  0  0  0  0  0  0  0  0
   -9.0389    5.5946    1.2844 O   0  0  0  0  0  0  0  0  0  0  0  0
   -6.5696    4.2190    1.7935 O   0  0  0  0  0  0  0  0  0  0  0  0
  1  2  1  0  0  0  0
  1 16  1  1  0  0  0
  2  3  1  0  0  0  0
  2 12  1  6  0  0  0
  4 11  1  1  0  0  0
  4  3  1  0  0  0  0
  5  4  1  0  0  0  0
  5 10  1  6  0  0  0
  6  7  1  0  0  0  0
  6  5  1  0  0  0  0
  6 14  1  6  0  0  0
  7  8  1  0  0  0  0
  7 13  1  1  0  0  0
  8 15  1  1  0  0  0
  8 11  1  0  0  0  0
  9 13  1  0  0  0  0
 10  1  1  0  0  0  0
 17 15  1  1  0  0  0
 17 18  1  0  0  0  0
 18 25  1  6  0  0  0
 19 18  1  0  0  0  0
 19 26  1  6  0  0  0
 20 19  1  0  0  0  0
 20 24  1  1  0  0  0
 21 23  1  0  0  0  0
 21 20  1  0  0  0  0
 21 22  1  6  0  0  0
 23 17  1  0  0  0  0
 27 22  1  0  0  0  0
 28 29  1  0  0  0  0
 28 16  1  1  0  0  0
 29 36  1  6  0  0  0
 30 37  1  1  0  0  0
 30 29  1  0  0  0  0
 31 30  1  0  0  0  0
 31 34  1  6  0  0  0
 32 31  1  0  0  0  0
 32 33  1  0  0  0  0
 33 28  1  0  0  0  0
 33 35  1  6  0  0  0
M  END
>  <CHROM.1>
86.76595905,142.25330791,53.79655187,-170.52605284,-103.21179564,-160.86710828
43.57021183,-45.43225231,-49.79755888,80.27007573,-175.18731972,140.90676290
-60.61237964,-59.38816690,-63.53471518,117.79316432,-12.87287971,6.46230987
6.40491204,0.00333007,0.93306246,-0.62251727

>  <Name>
lig.pdb

>  <RI>
1.95696e+07

>  <Rbt.Current_Directory>
/home/itssahil/PROJECTS/Mol_Feturizer/New_Systems/rnas/2m4q

>  <Rbt.Executable>
rbdock ($Id: //depot/dev/client3/rdock/2013.1/src/exe/rbdock.cxx#4 $)

>  <Rbt.Library>
libRbt.so (2013.1, Build901 2013/11/27)

>  <Rbt.Parameter_File>
/export/apps/rDock/src/rDock_2013.1_src/data/scripts/dock_solv.prm

>  <Rbt.Receptor>
prm/blind_docking_100.prm

>  <SCORE>
-7.88402

>  <SCORE.INTER>
-6.98589

>  <SCORE.INTER.CONST>
1

>  <SCORE.INTER.POLAR>
-3.26544

>  <SCORE.INTER.ROT>
10

>  <SCORE.INTER.SOLV>
18.1257

>  <SCORE.INTER.VDW>
-10.081

>  <SCORE.INTER.norm>
-0.188808

>  <SCORE.INTRA>
-12.6718

>  <SCORE.INTRA.DIHEDRAL>
-19.3853

>  <SCORE.INTRA.DIHEDRAL.0>
44.8331

>  <SCORE.INTRA.POLAR>
-2.28481

>  <SCORE.INTRA.POLAR.0>
-0.108895

>  <SCORE.INTRA.REPUL>
-0.00912235

>  <SCORE.INTRA.REPUL.0>
0.00912235

>  <SCORE.INTRA.SOLV>
0.216825

>  <SCORE.INTRA.SOLV.lig_0>
-53.9067

>  <SCORE.INTRA.VDW>
4.72645

>  <SCORE.INTRA.VDW.0>
-2.93492

>  <SCORE.INTRA.norm>
-0.34248

>  <SCORE.RESTR>
11.7736

>  <SCORE.RESTR.CAVITY>
11.7736

>  <SCORE.RESTR.norm>
0.318207

>  <SCORE.SYSTEM>
0

>  <SCORE.SYSTEM.CONST>
0

>  <SCORE.SYSTEM.DIHEDRAL>
0

>  <SCORE.SYSTEM.SOLV>
0

>  <SCORE.SYSTEM.norm>
0

>  <SCORE.heavy>
37

>  <SCORE.norm>
-0.213082

>  <RMSD>
16.783

$$$$
lig.pdb
 OpenBabel11021811453D
libRbt.so/2013.1/901 2013/11/27
 37 40  0  0  0  0  0  0  0  0999 V2000
  -12.8120    5.5360    4.7084 C   0  0  2  0  0  0  0  0  0  0  0  0
  -14.0476    6.2944    4.1208 C   0  0  1  0  0  0  0  0  0  0  0  0
  -14.6368    7.3575    5.0937 C   0  0  0  0  0  0  0  0  0  0  0  0
  -14.8478    6.7626    6.5081 C   0  0  1  0  0  0  0  0  0  0  0  0
  -13.5208    6.1703    7.0332 C   0  0  1  0  0  0  0  0  0  0  0  0
  -13.6919    5.6081    8.4700 C   0  0  1  0  0  0  0  0  0  0  0  0
  -14.2961    6.6851    9.4196 C   0  0  1  0  0  0  0  0  0  0  0  0
  -15.5874    7.3253    8.8289 C   0  0  2  0  0  0  0  0  0  0  0  0
  -15.9549    6.1680   11.1501 C   0  0  0  0  0  0  0  0  0  0  0  0
  -13.0152    5.1632    6.1101 O   0  0  0  0  0  0  0  0  0  0  0  0
  -15.3935    7.7389    7.4414 O   0  0  0  0  0  0  0  0  0  0  0  0
  -13.6754    6.9419    2.8442 N   0  0  0  0  0  0  0  0  0  0  0  0
  -14.5346    6.0820   10.7472 N   0  0  0  0  0  0  0  0  0  0  0  0
  -14.4764    4.4223    8.4705 O   0  0  0  0  0  0  0  0  0  0  0  0
  -16.0271    8.4410    9.6574 O   0  0  0  0  0  0  0  0  0  0  0  0
  -11.5908    6.3230    4.5616 O   0  0  0  0  0  0  0  0  0  0  0  0
  -15.8374    9.7994    9.1547 C   0  0  2  0  0  0  0  0  0  0  0  0
  -14.3397   10.2135    9.2193 C   0  0  1  0  0  0  0  0  0  0  0  0
  -13.8654   10.4319   10.6847 C   0  0  2  0  0  0  0  0  0  0  0  0
  -14.8021   11.4213   11.4368 C   0  0  1  0  0  0  0  0  0  0  0  0
  -16.2904   10.9896   11.3177 C   0  0  1  0  0  0  0  0  0  0  0  0
  -17.2476   12.0369   11.9448 C   0  0  0  0  0  0  0  0  0  0  0  0
  -16.6397   10.7467    9.9211 O   0  0  0  0  0  0  0  0  0  0  0  0
  -14.3973   11.5800   12.8508 N   0  0  0  0  0  0  0  0  0  0  0  0
  -13.5266    9.2606    8.5371 O   0  0  0  0  0  0  0  0  0  0  0  0
  -12.5104   10.8741   10.7268 O   0  0  0  0  0  0  0  0  0  0  0  0
  -16.9254   13.3500   11.4984 O   0  0  0  0  0  0  0  0  0  0  0  0
  -10.4392    5.6776    3.9441 C   0  0  1  0  0  0  0  0  0  0  0  0
   -9.8332    4.5738    4.8554 C   0  0  1  0  0  0  0  0  0  0  0  0
   -8.5503    3.9658    4.2215 C   0  0  2  0  0  0  0  0  0  0  0  0
   -8.7915    3.4498    2.7657 C   0  0  1  0  0  0  0  0  0  0  0  0
   -9.5215    4.4915    1.8658 C   0  0  0  0  0  0  0  0  0  0  0  0
  -10.7886    5.0909    2.5469 C   0  0  2  0  0  0  0  0  0  0  0  0
   -7.5217    3.0157    2.1452 N   0  0  0  0  0  0  0  0  0  0  0  0
  -11.3908    6.1039    1.6532 N   0  0  0  0  0  0  0  0  0  0  0  0
   -9.5613    5.0839    6.1567 O   0  0  0  0  0  0  0  0  0  0  0  0
   -8.0372    2.9196    5.0424 O   0  0  0  0  0  0  0  0  0  0  0  0
  1  2  1  0  0  0  0
  1 16  1  1  0  0  0
  2  3  1  0  0  0  0
  2 12  1  6  0  0  0
  4 11  1  1  0  0  0
  4  3  1  0  0  0  0
  5  4  1  0  0  0  0
  5 10  1  6  0  0  0
  6  7  1  0  0  0  0
  6  5  1  0  0  0  0
  6 14  1  6  0  0  0
  7  8  1  0  0  0  0
  7 13  1  1  0  0  0
  8 15  1  1  0  0  0
  8 11  1  0  0  0  0
  9 13  1  0  0  0  0
 10  1  1  0  0  0  0
 17 15  1  1  0  0  0
 17 18  1  0  0  0  0
 18 25  1  1  0  0  0
 19 18  1  0  0  0  0
 19 26  1  6  0  0  0
 20 19  1  0  0  0  0
 20 24  1  1  0  0  0
 21 23  1  0  0  0  0
 21 20  1  0  0  0  0
 21 22  1  6  0  0  0
 23 17  1  0  0  0  0
 27 22  1  0  0  0  0
 28 29  1  0  0  0  0
 28 16  1  1  0  0  0
 29 36  1  1  0  0  0
 30 37  1  1  0  0  0
 30 29  1  0  0  0  0
 31 30  1  0  0  0  0
 31 34  1  6  0  0  0
 32 31  1  0  0  0  0
 32 33  1  0  0  0  0
 33 28  1  0  0  0  0
 33 35  1  6  0  0  0
M  END
>  <CHROM.1>
150.34705832,106.83598483,-121.34822801,-53.75704407,-73.43120208,-128.30334734
67.59331655,149.04207346,47.89087022,176.51169240,-65.06178295,-69.35478456
64.76493269,-171.69368699,-178.77589961,-175.31965732,-13.20510059,7.26132120
7.26037239,0.79139468,0.76215559,-1.65464985

>  <Name>
lig.pdb

>  <RI>
1.95696e+07

>  <Rbt.Current_Directory>
/home/itssahil/PROJECTS/Mol_Feturizer/New_Systems/rnas/2m4q

>  <Rbt.Executable>
rbdock ($Id: //depot/dev/client3/rdock/2013.1/src/exe/rbdock.cxx#4 $)

>  <Rbt.Library>
libRbt.so (2013.1, Build901 2013/11/27)

>  <Rbt.Parameter_File>
/export/apps/rDock/src/rDock_2013.1_src/data/scripts/dock_solv.prm

>  <Rbt.Receptor>
prm/blind_docking_100.prm

>  <SCORE>
-5.1486

>  <SCORE.INTER>
-9.39001

>  <SCORE.INTER.CONST>
1

>  <SCORE.INTER.POLAR>
-1.69139

>  <SCORE.INTER.ROT>
10

>  <SCORE.INTER.SOLV>
19.9836

>  <SCORE.INTER.VDW>
-17.5499

>  <SCORE.INTER.norm>
-0.253784

>  <SCORE.INTRA>
-4.53115

>  <SCORE.INTRA.DIHEDRAL>
-21.1067

>  <SCORE.INTRA.DIHEDRAL.0>
44.8331

>  <SCORE.INTRA.POLAR>
-1.05531

>  <SCORE.INTRA.POLAR.0>
-0.108895

>  <SCORE.INTRA.REPUL>
-0.00912235

>  <SCORE.INTRA.REPUL.0>
0.00912235

>  <SCORE.INTRA.SOLV>
1.25646

>  <SCORE.INTRA.SOLV.lig_0>
-53.9067

>  <SCORE.INTRA.VDW>
9.02761

>  <SCORE.INTRA.VDW.0>
-2.93492

>  <SCORE.INTRA.norm>
-0.122464

>  <SCORE.RESTR>
8.77256

>  <SCORE.RESTR.CAVITY>
8.77256

>  <SCORE.RESTR.norm>
0.237096

>  <SCORE.SYSTEM>
0

>  <SCORE.SYSTEM.CONST>
0

>  <SCORE.SYSTEM.DIHEDRAL>
0

>  <SCORE.SYSTEM.SOLV>
0

>  <SCORE.SYSTEM.norm>
0

>  <SCORE.heavy>
37

>  <SCORE.norm>
-0.139151

>  <RMSD>
16.787

$$$$
lig.pdb
 OpenBabel11021811453D
libRbt.so/2013.1/901 2013/11/27
 37 40  0  0  0  0  0  0  0  0999 V2000
  -12.5859    5.4752    4.8981 C   0  0  2  0  0  0  0  0  0  0  0  0
  -13.7899    6.1335    4.1471 C   0  0  1  0  0  0  0  0  0  0  0  0
  -14.5538    7.1815    5.0085 C   0  0  0  0  0  0  0  0  0  0  0  0
  -14.8901    6.6130    6.4094 C   0  0  1  0  0  0  0  0  0  0  0  0
  -13.5986    6.1248    7.1031 C   0  0  1  0  0  0  0  0  0  0  0  0
  -13.9000    5.5922    8.5297 C   0  0  1  0  0  0  0  0  0  0  0  0
  -14.6769    6.6524    9.3658 C   0  0  1  0  0  0  0  0  0  0  0  0
  -15.9284    7.1890    8.6094 C   0  0  2  0  0  0  0  0  0  0  0  0
  -15.9291    6.9536   11.4527 C   0  0  0  0  0  0  0  0  0  0  0  0
  -12.9268    5.1285    6.2797 O   0  0  0  0  0  0  0  0  0  0  0  0
  -15.6007    7.5763    7.2396 O   0  0  0  0  0  0  0  0  0  0  0  0
  -13.3131    6.7690    2.8995 N   0  0  0  0  0  0  0  0  0  0  0  0
  -15.0298    6.0716   10.6777 N   0  0  0  0  0  0  0  0  0  0  0  0
  -14.6032    4.3574    8.4821 O   0  0  0  0  0  0  0  0  0  0  0  0
  -16.5305    8.2954    9.3427 O   0  0  0  0  0  0  0  0  0  0  0  0
  -11.4076    6.3373    4.8644 O   0  0  0  0  0  0  0  0  0  0  0  0
  -16.1826    9.6601    8.9546 C   0  0  2  0  0  0  0  0  0  0  0  0
  -14.6506    9.8997    9.0729 C   0  0  1  0  0  0  0  0  0  0  0  0
  -14.1882    9.9476   10.5575 C   0  0  2  0  0  0  0  0  0  0  0  0
  -15.0281   10.9718   11.3746 C   0  0  1  0  0  0  0  0  0  0  0  0
  -16.5515   10.7180   11.2006 C   0  0  1  0  0  0  0  0  0  0  0  0
  -17.4026   11.8117   11.8976 C   0  0  0  0  0  0  0  0  0  0  0  0
  -16.8938   10.6265    9.7844 O   0  0  0  0  0  0  0  0  0  0  0  0
  -14.6402   10.9723   12.8022 N   0  0  0  0  0  0  0  0  0  0  0  0
  -13.9311    8.9198    8.3267 O   0  0  0  0  0  0  0  0  0  0  0  0
  -12.7944   10.2326   10.6538 O   0  0  0  0  0  0  0  0  0  0  0  0
  -16.8572   13.1057   11.6619 O   0  0  0  0  0  0  0  0  0  0  0  0
  -10.1909    5.7983    4.2702 C   0  0  1  0  0  0  0  0  0  0  0  0
   -9.6213    4.6072    5.0905 C   0  0  1  0  0  0  0  0  0  0  0  0
   -8.2737    4.1104    4.4951 C   0  0  2  0  0  0  0  0  0  0  0  0
   -8.3840    3.7683    2.9737 C   0  0  1  0  0  0  0  0  0  0  0  0
   -9.0759    4.8936    2.1474 C   0  0  0  0  0  0  0  0  0  0  0  0
  -10.4112    5.3765    2.7897 C   0  0  2  0  0  0  0  0  0  0  0  0
   -7.0561    3.4422    2.4111 N   0  0  0  0  0  0  0  0  0  0  0  0
  -10.9753    6.4754    1.9764 N   0  0  0  0  0  0  0  0  0  0  0  0
   -9.4683    4.9627    6.4608 O   0  0  0  0  0  0  0  0  0  0  0  0
   -7.7916    2.9852    5.2252 O   0  0  0  0  0  0  0  0  0  0  0  0
  1  2  1  0  0  0  0
  1 16  1  1  0  0  0
  2  3  1  0  0  0  0
  2 12  1  6  0  0  0
  4 11  1  1  0  0  0
  4  3  1  0  0  0  0
  5  4  1  0  0  0  0
  5 10  1  6  0  0  0
  6  7  1  0  0  0  0
  6  5  1  0  0  0  0
  6 14  1  6  0  0  0
  7  8  1  0  0  0  0
  7 13  1  1  0  0  0
  8 15  1  1  0  0  0
  8 11  1  0  0  0  0
  9 13  1  0  0  0  0
 10  1  1  0  0  0  0
 17 15  1  1  0  0  0
 17 18  1  0  0  0  0
 18 25  1  6  0  0  0
 19 18  1  0  0  0  0
 19 26  1  6  0  0  0
 20 19  1  0  0  0  0
 20 24  1  1  0  0  0
 21 23  1  0  0  0  0
 21 20  1  0  0  0  0
 21 22  1  6  0  0  0
 23 17  1  0  0  0  0
 27 22  1  0  0  0  0
 28 29  1  0  0  0  0
 28 16  1  1  0  0  0
 29 36  1  1  0  0  0
 30 37  1  1  0  0  0
 30 29  1  0  0  0  0
 31 30  1  0  0  0  0
 31 34  1  6  0  0  0
 32 31  1  0  0  0  0
 32 33  1  0  0  0  0
 33 28  1  0  0  0  0
 33 35  1  6  0  0  0
M  END
>  <CHROM.1>
-119.97000985,96.48128105,-172.10850040,171.86155402,-58.99304247,-121.75415237
68.72535049,65.01616903,42.63755493,-159.72846130,66.40430150,-65.32371364
-46.48047796,85.57128446,96.27725748,-37.07024466,-13.22870608,7.19713619
7.31088631,0.78441566,0.62779987,-1.70027777

>  <Name>
lig.pdb

>  <RI>
0

>  <Rbt.Current_Directory>
/home/itssahil/PROJECTS/Mol_Feturizer/New_Systems/rnas/2m4q

>  <Rbt.Executable>
rbdock ($Id: //depot/dev/client3/rdock/2013.1/src/exe/rbdock.cxx#4 $)

>  <Rbt.Library>
libRbt.so (2013.1, Build901 2013/11/27)

>  <Rbt.Parameter_File>
/export/apps/rDock/src/rDock_2013.1_src/data/scripts/dock_solv.prm

>  <Rbt.Receptor>
prm/blind_docking_60.prm

>  <SCORE>
-7.95977

>  <SCORE.INTER>
-22.5637

>  <SCORE.INTER.CONST>
1

>  <SCORE.INTER.POLAR>
-4.37316

>  <SCORE.INTER.ROT>
10

>  <SCORE.INTER.SOLV>
20.0001

>  <SCORE.INTER.VDW>
-17.3987

>  <SCORE.INTER.norm>
-0.609831

>  <SCORE.INTRA>
-2.25564

>  <SCORE.INTRA.DIHEDRAL>
-21.1976

>  <SCORE.INTRA.DIHEDRAL.0>
44.8331

>  <SCORE.INTRA.POLAR>
-0.551265

>  <SCORE.INTRA.POLAR.0>
-0.108895

>  <SCORE.INTRA.REPUL>
-0.00912235

>  <SCORE.INTRA.REPUL.0>
0.00912235

>  <SCORE.INTRA.SOLV>
2.55529

>  <SCORE.INTRA.SOLV.lig_0>
-53.9067

>  <SCORE.INTRA.VDW>
8.98543

>  <SCORE.INTRA.VDW.0>
-2.93492

>  <SCORE.INTRA.norm>
-0.0609632

>  <SCORE.RESTR>
16.8596

>  <SCORE.RESTR.CAVITY>
16.8596

>  <SCORE.RESTR.norm>
0.455665

>  <SCORE.SYSTEM>
0

>  <SCORE.SYSTEM.CONST>
0

>  <SCORE.SYSTEM.DIHEDRAL>
0

>  <SCORE.SYSTEM.SOLV>
0

>  <SCORE.SYSTEM.norm>
0

>  <SCORE.heavy>
37

>  <SCORE.norm>
-0.215129

>  <RMSD>
16.816

$$$$
lig.pdb
 OpenBabel11021811453D
libRbt.so/2013.1/901 2013/11/27
 37 40  0  0  0  0  0  0  0  0999 V2000
  -12.2165    4.8501    5.7954 C   0  0  2  0  0  0  0  0  0  0  0  0
  -12.2887    6.2573    5.1160 C   0  0  1  0  0  0  0  0  0  0  0  0
  -12.3020    7.4332    6.1361 C   0  0  0  0  0  0  0  0  0  0  0  0
  -13.3494    7.1920    7.2514 C   0  0  1  0  0  0  0  0  0  0  0  0
  -13.0837    5.8335    7.9379 C   0  0  1  0  0  0  0  0  0  0  0  0
  -14.0914    5.5866    9.0925 C   0  0  1  0  0  0  0  0  0  0  0  0
  -14.0966    6.7826   10.0906 C   0  0  1  0  0  0  0  0  0  0  0  0
  -14.2833    8.1478    9.3642 C   0  0  2  0  0  0  0  0  0  0  0  0
  -16.4337    7.1522   10.7348 C   0  0  0  0  0  0  0  0  0  0  0  0
  -13.1044    4.7572    6.9565 O   0  0  0  0  0  0  0  0  0  0  0  0
  -13.3789    8.2758    8.2242 O   0  0  0  0  0  0  0  0  0  0  0  0
  -11.1517    6.4210    4.1844 N   0  0  0  0  0  0  0  0  0  0  0  0
  -15.1359    6.5543   11.1157 N   0  0  0  0  0  0  0  0  0  0  0  0
  -15.3968    5.3274    8.5922 O   0  0  0  0  0  0  0  0  0  0  0  0
  -14.1127    9.2506   10.3018 O   0  0  0  0  0  0  0  0  0  0  0  0
  -10.8460    4.5160    6.1732 O   0  0  0  0  0  0  0  0  0  0  0  0
  -14.2255   10.6172    9.7981 C   0  0  2  0  0  0  0  0  0  0  0  0
  -13.5511   11.6268   10.7701 C   0  0  1  0  0  0  0  0  0  0  0  0
  -14.3636   11.7889   12.0867 C   0  0  2  0  0  0  0  0  0  0  0  0
  -15.8519   12.1334   11.7896 C   0  0  1  0  0  0  0  0  0  0  0  0
  -16.4760   11.1212   10.7889 C   0  0  1  0  0  0  0  0  0  0  0  0
  -17.9152   11.5283   10.3774 C   0  0  0  0  0  0  0  0  0  0  0  0
  -15.6258   10.9808    9.6103 O   0  0  0  0  0  0  0  0  0  0  0  0
  -16.6456   12.2207   13.0350 N   0  0  0  0  0  0  0  0  0  0  0  0
  -12.1996   11.2493   11.0262 O   0  0  0  0  0  0  0  0  0  0  0  0
  -13.7707   12.7648   12.9408 O   0  0  0  0  0  0  0  0  0  0  0  0
  -17.9124   12.2046    9.1244 O   0  0  0  0  0  0  0  0  0  0  0  0
  -10.1370    3.5396    5.3559 C   0  0  1  0  0  0  0  0  0  0  0  0
  -11.0963    2.7721    4.4035 C   0  0  1  0  0  0  0  0  0  0  0  0
  -10.3368    1.6705    3.6118 C   0  0  2  0  0  0  0  0  0  0  0  0
   -9.0914    2.2330    2.8526 C   0  0  1  0  0  0  0  0  0  0  0  0
   -8.1811    3.1201    3.7538 C   0  0  0  0  0  0  0  0  0  0  0  0
   -8.9842    4.1964    4.5447 C   0  0  2  0  0  0  0  0  0  0  0  0
   -8.3140    1.1375    2.2348 N   0  0  0  0  0  0  0  0  0  0  0  0
   -8.0585    4.9580    5.4109 N   0  0  0  0  0  0  0  0  0  0  0  0
  -12.1883    2.2135    5.1266 O   0  0  0  0  0  0  0  0  0  0  0  0
  -11.2179    1.0122    2.7051 O   0  0  0  0  0  0  0  0  0  0  0  0
  1  2  1  0  0  0  0
  1 16  1  1  0  0  0
  2  3  1  0  0  0  0
  2 12  1  6  0  0  0
  4 11  1  1  0  0  0
  4  3  1  0  0  0  0
  5  4  1  0  0  0  0
  5 10  1  6  0  0  0
  6  7  1  0  0  0  0
  6  5  1  0  0  0  0
  6 14  1  6  0  0  0
  7  8  1  0  0  0  0
  7 13  1  1  0  0  0
  8 15  1  1  0  0  0
  8 11  1  0  0  0  0
  9 13  1  0  0  0  0
 10  1  1  0  0  0  0
 17 15  1  1  0  0  0
 17 18  1  0  0  0  0
 18 25  1  1  0  0  0
 19 18  1  0  0  0  0
 19 26  1  1  0  0  0
 20 19  1  0  0  0  0
 20 24  1  1  0  0  0
 21 23  1  0  0  0  0
 21 20  1  0  0  0  0
 21 22  1  6  0  0  0
 23 17  1  0  0  0  0
 27 22  1  0  0  0  0
 28 29  1  0  0  0  0
 28 16  1  6  0  0  0
 29 36  1  1  0  0  0
 30 37  1  6  0  0  0
 30 29  1  0  0  0  0
 31 30  1  0  0  0  0
 31 34  1  1  0  0  0
 32 31  1  0  0  0  0
 32 33  1  0  0  0  0
 33 28  1  0  0  0  0
 33 35  1  1  0  0  0
M  END
>  <CHROM.1>
-40.22582122,178.81881795,-91.63246608,170.45931733,-160.40454677,-104.99624507
51.91240396,173.19535106,98.21405005,-125.26567644,-69.96460438,-13.45280974
-59.69658651,-58.00490060,60.09190430,-83.28643487,-13.03161145,7.02542067
7.81560894,1.06806475,-0.38636224,-2.63568606

>  <Name>
lig.pdb

>  <RI>
0

>  <Rbt.Current_Directory>
/home/afrankz/demos/rdock_decoys_rna/rnas/2m4q

>  <Rbt.Executable>
rbdock ($Id: //depot/dev/client3/rdock/2013.1/src/exe/rbdock.cxx#4 $)

>  <Rbt.Library>
libRbt.so (2013.1, Build901 2013/11/27)

>  <Rbt.Parameter_File>
/export/apps/rDock/src/rDock_2013.1_src/data/scripts/dock_solv.prm

>  <Rbt.Receptor>
prm/blind_docking_80.prm

>  <SCORE>
8.80165

>  <SCORE.INTER>
-15.809

>  <SCORE.INTER.CONST>
1

>  <SCORE.INTER.POLAR>
-5.87983

>  <SCORE.INTER.ROT>
10

>  <SCORE.INTER.SOLV>
22.9207

>  <SCORE.INTER.VDW>
-8.84682

>  <SCORE.INTER.norm>
-0.427271

>  <SCORE.INTRA>
-1.46902

>  <SCORE.INTRA.DIHEDRAL>
-20.1429

>  <SCORE.INTRA.DIHEDRAL.0>
44.8331

>  <SCORE.INTRA.POLAR>
0.0957238

>  <SCORE.INTRA.POLAR.0>
-0.108895

>  <SCORE.INTRA.REPUL>
-0.00912235

>  <SCORE.INTRA.REPUL.0>
0.00912235

>  <SCORE.INTRA.SOLV>
-0.770485

>  <SCORE.INTRA.SOLV.lig_0>
-53.9067

>  <SCORE.INTRA.VDW>
8.70785

>  <SCORE.INTRA.VDW.0>
-2.93492

>  <SCORE.INTRA.norm>
-0.0397031

>  <SCORE.RESTR>
26.0797

>  <SCORE.RESTR.CAVITY>
26.0797

>  <SCORE.RESTR.norm>
0.704857

>  <SCORE.SYSTEM>
0

>  <SCORE.SYSTEM.CONST>
0

>  <SCORE.SYSTEM.DIHEDRAL>
0

>  <SCORE.SYSTEM.SOLV>
0

>  <SCORE.SYSTEM.norm>
0

>  <SCORE.heavy>
37

>  <SCORE.norm>
0.237882

>  <RMSD>
16.828

$$$$
lig.pdb
 OpenBabel11021811453D
libRbt.so/2013.1/901 2013/11/27
 37 40  0  0  0  0  0  0  0  0999 V2000
  -13.5578    5.9506    3.7922 C   0  0  2  0  0  0  0  0  0  0  0  0
  -14.9526    6.6005    3.5106 C   0  0  1  0  0  0  0  0  0  0  0  0
  -15.3327    7.7098    4.5347 C   0  0  0  0  0  0  0  0  0  0  0  0
  -15.1215    7.2215    5.9893 C   0  0  1  0  0  0  0  0  0  0  0  0
  -13.6664    6.7364    6.1755 C   0  0  1  0  0  0  0  0  0  0  0  0
  -13.4131    6.2843    7.6388 C   0  0  1  0  0  0  0  0  0  0  0  0
  -13.8147    7.4048    8.6437 C   0  0  1  0  0  0  0  0  0  0  0  0
  -15.2561    7.9341    8.3818 C   0  0  2  0  0  0  0  0  0  0  0  0
  -14.7081    5.9312   10.3885 C   0  0  0  0  0  0  0  0  0  0  0  0
  -13.3572    5.6829    5.2181 O   0  0  0  0  0  0  0  0  0  0  0  0
  -15.4645    8.2432    6.9694 O   0  0  0  0  0  0  0  0  0  0  0  0
  -14.9757    7.1598    2.1415 N   0  0  0  0  0  0  0  0  0  0  0  0
  -13.6524    6.9002   10.0229 N   0  0  0  0  0  0  0  0  0  0  0  0
  -14.0885    5.0670    7.9276 O   0  0  0  0  0  0  0  0  0  0  0  0
  -15.5341    9.0911    9.2236 O   0  0  0  0  0  0  0  0  0  0  0  0
  -12.4743    6.7797    3.2713 O   0  0  0  0  0  0  0  0  0  0  0  0
  -15.3109    8.9756   10.6626 C   0  0  2  0  0  0  0  0  0  0  0  0
  -16.5936    9.3516   11.4575 C   0  0  1  0  0  0  0  0  0  0  0  0
  -16.8909   10.8767   11.3828 C   0  0  2  0  0  0  0  0  0  0  0  0
  -15.6479   11.7126   11.8049 C   0  0  1  0  0  0  0  0  0  0  0  0
  -14.3827   11.2814   11.0120 C   0  0  1  0  0  0  0  0  0  0  0  0
  -13.1090   12.0092   11.5161 C   0  0  0  0  0  0  0  0  0  0  0  0
  -14.2077    9.8336   11.0811 O   0  0  0  0  0  0  0  0  0  0  0  0
  -15.9012   13.1639   11.6699 N   0  0  0  0  0  0  0  0  0  0  0  0
  -17.7041    8.5743   11.0134 O   0  0  0  0  0  0  0  0  0  0  0  0
  -18.0309   11.2182   12.1684 O   0  0  0  0  0  0  0  0  0  0  0  0
  -11.9339   11.3166   11.1077 O   0  0  0  0  0  0  0  0  0  0  0  0
  -11.1252    6.2294    3.3029 C   0  0  1  0  0  0  0  0  0  0  0  0
  -10.6924    5.8328    4.7422 C   0  0  1  0  0  0  0  0  0  0  0  0
   -9.2183    5.3394    4.7681 C   0  0  2  0  0  0  0  0  0  0  0  0
   -8.9570    4.1872    3.7444 C   0  0  1  0  0  0  0  0  0  0  0  0
   -9.5035    4.5052    2.3204 C   0  0  0  0  0  0  0  0  0  0  0  0
  -10.9757    5.0160    2.3418 C   0  0  2  0  0  0  0  0  0  0  0  0
   -7.5192    3.8464    3.6929 N   0  0  0  0  0  0  0  0  0  0  0  0
  -11.3995    5.3432    0.9632 N   0  0  0  0  0  0  0  0  0  0  0  0
  -10.8783    6.9186    5.6445 O   0  0  0  0  0  0  0  0  0  0  0  0
   -8.8535    4.9295    6.0836 O   0  0  0  0  0  0  0  0  0  0  0  0
  1  2  1  0  0  0  0
  1 16  1  1  0  0  0
  2  3  1  0  0  0  0
  2 12  1  6  0  0  0
  4 11  1  1  0  0  0
  4  3  1  0  0  0  0
  5  4  1  0  0  0  0
  5 10  1  6  0  0  0
  6  7  1  0  0  0  0
  6  5  1  0  0  0  0
  6 14  1  1  0  0  0
  7  8  1  0  0  0  0
  7 13  1  1  0  0  0
  8 15  1  1  0  0  0
  8 11  1  0  0  0  0
  9 13  1  0  0  0  0
 10  1  1  0  0  0  0
 17 15  1  6  0  0  0
 17 18  1  0  0  0  0
 18 25  1  6  0  0  0
 19 18  1  0  0  0  0
 19 26  1  1  0  0  0
 20 19  1  0  0  0  0
 20 24  1  6  0  0  0
 21 23  1  0  0  0  0
 21 20  1  0  0  0  0
 21 22  1  1  0  0  0
 23 17  1  0  0  0  0
 27 22  1  0  0  0  0
 28 29  1  0  0  0  0
 28 16  1  1  0  0  0
 29 36  1  1  0  0  0
 30 37  1  1  0  0  0
 30 29  1  0  0  0  0
 31 30  1  0  0  0  0
 31 34  1  6  0  0  0
 32 31  1  0  0  0  0
 32 33  1  0  0  0  0
 33 28  1  0  0  0  0
 33 35  1  6  0  0  0
M  END
>  <CHROM.1>
-176.02728554,-52.58035901,-73.32359258,62.52879168,-125.24434167,-172.32334115
62.29351050,-56.70809907,161.11680343,-45.80089190,54.92771910,-57.39778614
-48.84471864,-67.42586841,148.70257109,49.25630895,-13.47039909,7.61364372
7.23078677,1.06961729,0.23695469,-2.03162547

>  <Name>
lig.pdb

>  <RI>
1.95696e+07

>  <Rbt.Current_Directory>
/home/itssahil/PROJECTS/Mol_Feturizer/New_Systems/rnas/2m4q

>  <Rbt.Executable>
rbdock ($Id: //depot/dev/client3/rdock/2013.1/src/exe/rbdock.cxx#4 $)

>  <Rbt.Library>
libRbt.so (2013.1, Build901 2013/11/27)

>  <Rbt.Parameter_File>
/export/apps/rDock/src/rDock_2013.1_src/data/scripts/dock_solv.prm

>  <Rbt.Receptor>
prm/blind_docking_100.prm

>  <SCORE>
-33.0784

>  <SCORE.INTER>
-31.5133

>  <SCORE.INTER.CONST>
1

>  <SCORE.INTER.POLAR>
-6.30635

>  <SCORE.INTER.ROT>
10

>  <SCORE.INTER.SOLV>
20.1534

>  <SCORE.INTER.VDW>
-16.9722

>  <SCORE.INTER.norm>
-0.851711

>  <SCORE.INTRA>
-11.1197

>  <SCORE.INTRA.DIHEDRAL>
-32.4914

>  <SCORE.INTRA.DIHEDRAL.0>
44.8331

>  <SCORE.INTRA.POLAR>
0.102413

>  <SCORE.INTRA.POLAR.0>
-0.108895

>  <SCORE.INTRA.REPUL>
-0.00912235

>  <SCORE.INTRA.REPUL.0>
0.00912235

>  <SCORE.INTRA.SOLV>
-0.203281

>  <SCORE.INTRA.SOLV.lig_0>
-53.9067

>  <SCORE.INTRA.VDW>
4.92503

>  <SCORE.INTRA.VDW.0>
-2.93492

>  <SCORE.INTRA.norm>
-0.300533

>  <SCORE.RESTR>
9.55461

>  <SCORE.RESTR.CAVITY>
9.55461

>  <SCORE.RESTR.norm>
0.258233

>  <SCORE.SYSTEM>
0

>  <SCORE.SYSTEM.CONST>
0

>  <SCORE.SYSTEM.DIHEDRAL>
0

>  <SCORE.SYSTEM.SOLV>
0

>  <SCORE.SYSTEM.norm>
0

>  <SCORE.heavy>
37

>  <SCORE.norm>
-0.894011

>  <RMSD>
16.838

$$$$
lig.pdb
 OpenBabel11021811453D
libRbt.so/2013.1/901 2013/11/27
 37 40  0  0  0  0  0  0  0  0999 V2000
  -13.0538    5.9141    2.5280 C   0  0  2  0  0  0  0  0  0  0  0  0
  -14.2076    6.8935    2.1322 C   0  0  1  0  0  0  0  0  0  0  0  0
  -14.6792    7.7965    3.3095 C   0  0  0  0  0  0  0  0  0  0  0  0
  -14.9433    6.9576    4.5844 C   0  0  1  0  0  0  0  0  0  0  0  0
  -13.6818    6.1434    4.9492 C   0  0  1  0  0  0  0  0  0  0  0  0
  -13.9027    5.3279    6.2515 C   0  0  1  0  0  0  0  0  0  0  0  0
  -14.3879    6.2506    7.4091 C   0  0  1  0  0  0  0  0  0  0  0  0
  -15.6093    7.1209    6.9884 C   0  0  2  0  0  0  0  0  0  0  0  0
  -13.5262    4.5873    8.9916 C   0  0  0  0  0  0  0  0  0  0  0  0
  -13.2872    5.2935    3.8339 O   0  0  0  0  0  0  0  0  0  0  0  0
  -15.3807    7.7794    5.7047 O   0  0  0  0  0  0  0  0  0  0  0  0
  -13.7770    7.7403    0.9986 N   0  0  0  0  0  0  0  0  0  0  0  0
  -14.6806    5.4237    8.5980 N   0  0  0  0  0  0  0  0  0  0  0  0
  -14.8051    4.2500    6.0391 O   0  0  0  0  0  0  0  0  0  0  0  0
  -15.9275    8.0888    8.0308 O   0  0  0  0  0  0  0  0  0  0  0  0
  -11.7587    6.5885    2.5077 O   0  0  0  0  0  0  0  0  0  0  0  0
  -15.4367    9.4569    7.8846 C   0  0  2  0  0  0  0  0  0  0  0  0
  -14.0558    9.6307    8.5784 C   0  0  1  0  0  0  0  0  0  0  0  0
  -14.1803    9.5852   10.1284 C   0  0  2  0  0  0  0  0  0  0  0  0
  -15.2470   10.5982   10.6362 C   0  0  1  0  0  0  0  0  0  0  0  0
  -16.5994   10.4128    9.8932 C   0  0  1  0  0  0  0  0  0  0  0  0
  -17.6305   11.5018   10.2899 C   0  0  0  0  0  0  0  0  0  0  0  0
  -16.3897   10.4068    8.4485 O   0  0  0  0  0  0  0  0  0  0  0  0
  -15.4201   10.5112   12.1028 N   0  0  0  0  0  0  0  0  0  0  0  0
  -13.1265    8.6629    8.0943 O   0  0  0  0  0  0  0  0  0  0  0  0
  -12.9186    9.8107   10.7533 O   0  0  0  0  0  0  0  0  0  0  0  0
  -18.7632   11.4658    9.4279 O   0  0  0  0  0  0  0  0  0  0  0  0
  -10.5831    5.8085    2.8732 C   0  0  1  0  0  0  0  0  0  0  0  0
  -10.5359    5.5072    4.3974 C   0  0  1  0  0  0  0  0  0  0  0  0
   -9.2278    4.7593    4.7805 C   0  0  2  0  0  0  0  0  0  0  0  0
   -9.0065    3.4691    3.9259 C   0  0  1  0  0  0  0  0  0  0  0  0
   -9.1818    3.7160    2.3975 C   0  0  0  0  0  0  0  0  0  0  0  0
  -10.4939    4.4861    2.0597 C   0  0  2  0  0  0  0  0  0  0  0  0
   -7.6869    2.8679    4.2145 N   0  0  0  0  0  0  0  0  0  0  0  0
  -10.5588    4.7248    0.6016 N   0  0  0  0  0  0  0  0  0  0  0  0
  -10.6741    6.7049    5.1552 O   0  0  0  0  0  0  0  0  0  0  0  0
   -9.2237    4.4433    6.1704 O   0  0  0  0  0  0  0  0  0  0  0  0
  1  2  1  0  0  0  0
  1 16  1  1  0  0  0
  2  3  1  0  0  0  0
  2 12  1  6  0  0  0
  4 11  1  1  0  0  0
  4  3  1  0  0  0  0
  5  4  1  0  0  0  0
  5 10  1  6  0  0  0
  6  7  1  0  0  0  0
  6  5  1  0  0  0  0
  6 14  1  6  0  0  0
  7  8  1  0  0  0  0
  7 13  1  1  0  0  0
  8 15  1  1  0  0  0
  8 11  1  0  0  0  0
  9 13  1  0  0  0  0
 10  1  1  0  0  0  0
 17 15  1  1  0  0  0
 17 18  1  0  0  0  0
 18 25  1  6  0  0  0
 19 18  1  0  0  0  0
 19 26  1  1  0  0  0
 20 19  1  0  0  0  0
 20 24  1  1  0  0  0
 21 23  1  0  0  0  0
 21 20  1  0  0  0  0
 21 22  1  6  0  0  0
 23 17  1  0  0  0  0
 27 22  1  0  0  0  0
 28 29  1  0  0  0  0
 28 16  1  1  0  0  0
 29 36  1  1  0  0  0
 30 37  1  1  0  0  0
 30 29  1  0  0  0  0
 31 30  1  0  0  0  0
 31 34  1  6  0  0  0
 32 31  1  0  0  0  0
 32 33  1  0  0  0  0
 33 28  1  0  0  0  0
 33 35  1  6  0  0  0
M  END
>  <CHROM.1>
80.28554674,98.40116430,54.86294949,62.59761933,-91.98781094,179.17404254
-84.88243232,30.21562389,169.26663662,-121.19334682,-52.63364286,-72.27318640
-39.66876324,169.57748194,111.13800407,-55.58020689,-13.36450761,7.05590008
6.13307541,0.84860227,0.60412356,-1.77640463

>  <Name>
lig.pdb

>  <RI>
1.95696e+07

>  <Rbt.Current_Directory>
/home/itssahil/PROJECTS/Mol_Feturizer/New_Systems/rnas/2m4q

>  <Rbt.Executable>
rbdock ($Id: //depot/dev/client3/rdock/2013.1/src/exe/rbdock.cxx#4 $)

>  <Rbt.Library>
libRbt.so (2013.1, Build901 2013/11/27)

>  <Rbt.Parameter_File>
/export/apps/rDock/src/rDock_2013.1_src/data/scripts/dock_solv.prm

>  <Rbt.Receptor>
prm/blind_docking_100.prm

>  <SCORE>
-23.374

>  <SCORE.INTER>
-30.3605

>  <SCORE.INTER.CONST>
1

>  <SCORE.INTER.POLAR>
-5.90831

>  <SCORE.INTER.ROT>
10

>  <SCORE.INTER.SOLV>
18.6121

>  <SCORE.INTER.VDW>
-17.0166

>  <SCORE.INTER.norm>
-0.820553

>  <SCORE.INTRA>
-6.37316

>  <SCORE.INTRA.DIHEDRAL>
-19.9278

>  <SCORE.INTRA.DIHEDRAL.0>
44.8331

>  <SCORE.INTRA.POLAR>
-0.171275

>  <SCORE.INTRA.POLAR.0>
-0.108895

>  <SCORE.INTRA.REPUL>
0.108999

>  <SCORE.INTRA.REPUL.0>
0.00912235

>  <SCORE.INTRA.SOLV>
-0.0206312

>  <SCORE.INTRA.SOLV.lig_0>
-53.9067

>  <SCORE.INTRA.VDW>
3.63841

>  <SCORE.INTRA.VDW.0>
-2.93492

>  <SCORE.INTRA.norm>
-0.172248

>  <SCORE.RESTR>
13.3596

>  <SCORE.RESTR.CAVITY>
13.3596

>  <SCORE.RESTR.norm>
0.361071

>  <SCORE.SYSTEM>
0

>  <SCORE.SYSTEM.CONST>
0

>  <SCORE.SYSTEM.DIHEDRAL>
0

>  <SCORE.SYSTEM.SOLV>
0

>  <SCORE.SYSTEM.norm>
0

>  <SCORE.heavy>
37

>  <SCORE.norm>
-0.63173

>  <RMSD>
16.968

$$$$
lig.pdb
 OpenBabel11021811453D
libRbt.so/2013.1/901 2013/11/27
 37 40  0  0  0  0  0  0  0  0999 V2000
  -13.6785    6.4309    3.7329 C   0  0  2  0  0  0  0  0  0  0  0  0
  -14.8257    7.4937    3.6960 C   0  0  1  0  0  0  0  0  0  0  0  0
  -14.9652    8.2951    5.0235 C   0  0  0  0  0  0  0  0  0  0  0  0
  -14.9932    7.3461    6.2472 C   0  0  1  0  0  0  0  0  0  0  0  0
  -13.7374    6.4460    6.2440 C   0  0  1  0  0  0  0  0  0  0  0  0
  -13.7159    5.5157    7.4865 C   0  0  1  0  0  0  0  0  0  0  0  0
  -13.8716    6.3391    8.7997 C   0  0  1  0  0  0  0  0  0  0  0  0
  -15.0972    7.2989    8.7445 C   0  0  2  0  0  0  0  0  0  0  0  0
  -15.3209    4.9173   10.1751 C   0  0  0  0  0  0  0  0  0  0  0  0
  -13.6558    5.6946    4.9987 O   0  0  0  0  0  0  0  0  0  0  0  0
  -15.1173    8.0709    7.5047 O   0  0  0  0  0  0  0  0  0  0  0  0
  -14.6038    8.4294    2.5722 N   0  0  0  0  0  0  0  0  0  0  0  0
  -13.9459    5.4118    9.9475 N   0  0  0  0  0  0  0  0  0  0  0  0
  -14.7106    4.5042    7.3916 O   0  0  0  0  0  0  0  0  0  0  0  0
  -15.1131    8.1715    9.9119 O   0  0  0  0  0  0  0  0  0  0  0  0
  -12.3794    7.0474    3.4779 O   0  0  0  0  0  0  0  0  0  0  0  0
  -16.3221    8.9432   10.1886 C   0  0  2  0  0  0  0  0  0  0  0  0
  -16.1047   10.4510    9.8754 C   0  0  1  0  0  0  0  0  0  0  0  0
  -15.1514   11.1214   10.9058 C   0  0  2  0  0  0  0  0  0  0  0  0
  -15.6321   10.8672   12.3640 C   0  0  1  0  0  0  0  0  0  0  0  0
  -15.8701    9.3534   12.6233 C   0  0  1  0  0  0  0  0  0  0  0  0
  -16.4788    9.0963   14.0268 C   0  0  0  0  0  0  0  0  0  0  0  0
  -16.7229    8.7867   11.5826 O   0  0  0  0  0  0  0  0  0  0  0  0
  -14.6926   11.4429   13.3511 N   0  0  0  0  0  0  0  0  0  0  0  0
  -15.6417   10.6230    8.5373 O   0  0  0  0  0  0  0  0  0  0  0  0
  -15.0120   12.5167   10.6465 O   0  0  0  0  0  0  0  0  0  0  0  0
  -17.7052    9.8023   14.1848 O   0  0  0  0  0  0  0  0  0  0  0  0
  -11.1888    6.2413    3.7160 C   0  0  1  0  0  0  0  0  0  0  0  0
  -11.0060    5.9049    5.2225 C   0  0  1  0  0  0  0  0  0  0  0  0
   -9.6813    5.1284    5.4664 C   0  0  2  0  0  0  0  0  0  0  0  0
   -9.5625    3.8547    4.5679 C   0  0  1  0  0  0  0  0  0  0  0  0
   -9.8741    4.1390    3.0679 C   0  0  0  0  0  0  0  0  0  0  0  0
  -11.1983    4.9366    2.8699 C   0  0  2  0  0  0  0  0  0  0  0  0
   -8.2325    3.2269    4.7198 N   0  0  0  0  0  0  0  0  0  0  0  0
  -11.3936    5.2093    1.4294 N   0  0  0  0  0  0  0  0  0  0  0  0
  -11.0527    7.0869    6.0150 O   0  0  0  0  0  0  0  0  0  0  0  0
   -9.5541    4.7810    6.8429 O   0  0  0  0  0  0  0  0  0  0  0  0
  1  2  1  0  0  0  0
  1 16  1  1  0  0  0
  2  3  1  0  0  0  0
  2 12  1  6  0  0  0
  4 11  1  1  0  0  0
  4  3  1  0  0  0  0
  5  4  1  0  0  0  0
  5 10  1  6  0  0  0
  6  7  1  0  0  0  0
  6  5  1  0  0  0  0
  6 14  1  6  0  0  0
  7  8  1  0  0  0  0
  7 13  1  1  0  0  0
  8 15  1  1  0  0  0
  8 11  1  0  0  0  0
  9 13  1  0  0  0  0
 10  1  1  0  0  0  0
 17 15  1  1  0  0  0
 17 18  1  0  0  0  0
 18 25  1  6  0  0  0
 19 18  1  0  0  0  0
 19 26  1  6  0  0  0
 20 19  1  0  0  0  0
 20 24  1  1  0  0  0
 21 23  1  0  0  0  0
 21 20  1  0  0  0  0
 21 22  1  1  0  0  0
 23 17  1  0  0  0  0
 27 22  1  0  0  0  0
 28 29  1  0  0  0  0
 28 16  1  1  0  0  0
 29 36  1  1  0  0  0
 30 37  1  1  0  0  0
 30 29  1  0  0  0  0
 31 30  1  0  0  0  0
 31 34  1  6  0  0  0
 32 31  1  0  0  0  0
 32 33  1  0  0  0  0
 33 28  1  0  0  0  0
 33 35  1  6  0  0  0
M  END
>  <CHROM.1>
-8.69281097,-167.32215451,-84.92093334,59.76263291,-107.49357072,169.12909827
-43.17908910,-150.07157413,57.56269709,-36.55985528,-173.80581090,-66.31414578
49.94414491,163.90171139,151.37976035,59.21289150,-13.72500768,7.34592908
7.55344296,0.76588088,0.86753697,-1.43099716

>  <Name>
lig.pdb

>  <RI>
1.95696e+07

>  <Rbt.Current_Directory>
/home/itssahil/PROJECTS/Mol_Feturizer/New_Systems/rnas/2m4q

>  <Rbt.Executable>
rbdock ($Id: //depot/dev/client3/rdock/2013.1/src/exe/rbdock.cxx#4 $)

>  <Rbt.Library>
libRbt.so (2013.1, Build901 2013/11/27)

>  <Rbt.Parameter_File>
/export/apps/rDock/src/rDock_2013.1_src/data/scripts/dock_solv.prm

>  <Rbt.Receptor>
prm/blind_docking_100.prm

>  <SCORE>
17.6115

>  <SCORE.INTER>
16.0883

>  <SCORE.INTER.CONST>
1

>  <SCORE.INTER.POLAR>
-5.36566

>  <SCORE.INTER.ROT>
10

>  <SCORE.INTER.SOLV>
22.2764

>  <SCORE.INTER.VDW>
10.9189

>  <SCORE.INTER.norm>
0.434819

>  <SCORE.INTRA>
-7.12293

>  <SCORE.INTRA.DIHEDRAL>
-24.8394

>  <SCORE.INTRA.DIHEDRAL.0>
44.8331

>  <SCORE.INTRA.POLAR>
-0.715557

>  <SCORE.INTRA.POLAR.0>
-0.108895

>  <SCORE.INTRA.REPUL>
0.00925553

>  <SCORE.INTRA.REPUL.0>
0.00912235

>  <SCORE.INTRA.SOLV>
0.0847877

>  <SCORE.INTRA.SOLV.lig_0>
-53.9067

>  <SCORE.INTRA.VDW>
7.64099

>  <SCORE.INTRA.VDW.0>
-2.93492

>  <SCORE.INTRA.norm>
-0.192511

>  <SCORE.RESTR>
8.64616

>  <SCORE.RESTR.CAVITY>
8.64616

>  <SCORE.RESTR.norm>
0.23368

>  <SCORE.SYSTEM>
0

>  <SCORE.SYSTEM.CONST>
0

>  <SCORE.SYSTEM.DIHEDRAL>
0

>  <SCORE.SYSTEM.SOLV>
0

>  <SCORE.SYSTEM.norm>
0

>  <SCORE.heavy>
37

>  <SCORE.norm>
0.475987

>  <RMSD>
16.974

$$$$
lig.pdb
 OpenBabel11021811453D
libRbt.so/2013.1/901 2013/11/27
 37 40  0  0  0  0  0  0  0  0999 V2000
  -13.7380    6.1574    4.0008 C   0  0  2  0  0  0  0  0  0  0  0  0
  -15.0924    6.8660    3.6678 C   0  0  1  0  0  0  0  0  0  0  0  0
  -15.5638    7.8467    4.7812 C   0  0  0  0  0  0  0  0  0  0  0  0
  -15.5030    7.1768    6.1764 C   0  0  1  0  0  0  0  0  0  0  0  0
  -14.0778    6.6423    6.4419 C   0  0  1  0  0  0  0  0  0  0  0  0
  -13.9757    6.0064    7.8543 C   0  0  1  0  0  0  0  0  0  0  0  0
  -14.4665    7.0011    8.9480 C   0  0  1  0  0  0  0  0  0  0  0  0
  -15.8701    7.5885    8.6148 C   0  0  2  0  0  0  0  0  0  0  0  0
  -15.6746    5.5358   10.4996 C   0  0  0  0  0  0  0  0  0  0  0  0
  -13.6831    5.7101    5.3943 O   0  0  0  0  0  0  0  0  0  0  0  0
  -15.9338    8.0754    7.2390 O   0  0  0  0  0  0  0  0  0  0  0  0
  -14.9740    7.5918    2.3845 N   0  0  0  0  0  0  0  0  0  0  0  0
  -14.4469    6.3254   10.2619 N   0  0  0  0  0  0  0  0  0  0  0  0
  -14.6864    4.7768    7.9197 O   0  0  0  0  0  0  0  0  0  0  0  0
  -16.2214    8.6372    9.5642 O   0  0  0  0  0  0  0  0  0  0  0  0
  -12.6012    7.0224    3.6973 O   0  0  0  0  0  0  0  0  0  0  0  0
  -16.0039   10.0289    9.1773 C   0  0  2  0  0  0  0  0  0  0  0  0
  -14.4945   10.3971    9.2461 C   0  0  1  0  0  0  0  0  0  0  0  0
  -13.9870   10.4746   10.7146 C   0  0  2  0  0  0  0  0  0  0  0  0
  -14.8819   11.4184   11.5691 C   0  0  1  0  0  0  0  0  0  0  0  0
  -16.3835   11.0372   11.4444 C   0  0  1  0  0  0  0  0  0  0  0  0
  -17.2997   12.0501   12.1800 C   0  0  0  0  0  0  0  0  0  0  0  0
  -16.7654   10.9261   10.0397 O   0  0  0  0  0  0  0  0  0  0  0  0
  -14.4466   11.4427   12.9828 N   0  0  0  0  0  0  0  0  0  0  0  0
  -13.7207    9.4868    8.4669 O   0  0  0  0  0  0  0  0  0  0  0  0
  -12.6198   10.8764   10.7664 O   0  0  0  0  0  0  0  0  0  0  0  0
  -16.9207   13.3889   11.8780 O   0  0  0  0  0  0  0  0  0  0  0  0
  -11.2715    6.4263    3.7206 C   0  0  1  0  0  0  0  0  0  0  0  0
  -10.9941    5.6750    5.0528 C   0  0  1  0  0  0  0  0  0  0  0  0
   -9.5386    5.1303    5.0963 C   0  0  2  0  0  0  0  0  0  0  0  0
   -9.1932    4.2513    3.8506 C   0  0  1  0  0  0  0  0  0  0  0  0
   -9.5866    4.9273    2.5030 C   0  0  0  0  0  0  0  0  0  0  0  0
  -11.0448    5.4773    2.5096 C   0  0  2  0  0  0  0  0  0  0  0  0
   -7.7635    3.8748    3.8535 N   0  0  0  0  0  0  0  0  0  0  0  0
  -11.3205    6.1462    1.2197 N   0  0  0  0  0  0  0  0  0  0  0  0
  -11.2531    6.5160    6.1722 O   0  0  0  0  0  0  0  0  0  0  0  0
   -9.3165    4.3990    6.2994 O   0  0  0  0  0  0  0  0  0  0  0  0
  1  2  1  0  0  0  0
  1 16  1  1  0  0  0
  2  3  1  0  0  0  0
  2 12  1  6  0  0  0
  4 11  1  1  0  0  0
  4  3  1  0  0  0  0
  5  4  1  0  0  0  0
  5 10  1  6  0  0  0
  6  7  1  0  0  0  0
  6  5  1  0  0  0  0
  6 14  1  6  0  0  0
  7  8  1  0  0  0  0
  7 13  1  1  0  0  0
  8 15  1  1  0  0  0
  8 11  1  0  0  0  0
  9 13  1  0  0  0  0
 10  1  1  0  0  0  0
 17 15  1  1  0  0  0
 17 18  1  0  0  0  0
 18 25  1  6  0  0  0
 19 18  1  0  0  0  0
 19 26  1  6  0  0  0
 20 19  1  0  0  0  0
 20 24  1  1  0  0  0
 21 23  1  0  0  0  0
 21 20  1  0  0  0  0
 21 22  1  6  0  0  0
 23 17  1  0  0  0  0
 27 22  1  0  0  0  0
 28 29  1  0  0  0  0
 28 16  1  1  0  0  0
 29 36  1  1  0  0  0
 30 37  1  1  0  0  0
 30 29  1  0  0  0  0
 31 30  1  0  0  0  0
 31 34  1  6  0  0  0
 32 31  1  0  0  0  0
 32 33  1  0  0  0  0
 33 28  1  0  0  0  0
 33 35  1  6  0  0  0
M  END
>  <CHROM.1>
80.92913072,98.04851553,-84.10673403,60.86074140,-75.48080593,-169.06002919
163.91407058,-47.05032132,45.90789287,-60.77368613,57.33971355,-52.54729848
170.42247355,173.56260593,105.31526783,-173.66796729,-13.63694690,7.66966952
7.22527522,1.01757041,0.45885999,-1.94075105

>  <Name>
lig.pdb

>  <RI>
1.95696e+07

>  <Rbt.Current_Directory>
/home/itssahil/PROJECTS/Mol_Feturizer/New_Systems/rnas/2m4q

>  <Rbt.Executable>
rbdock ($Id: //depot/dev/client3/rdock/2013.1/src/exe/rbdock.cxx#4 $)

>  <Rbt.Library>
libRbt.so (2013.1, Build901 2013/11/27)

>  <Rbt.Parameter_File>
/export/apps/rDock/src/rDock_2013.1_src/data/scripts/dock_solv.prm

>  <Rbt.Receptor>
prm/blind_docking_100.prm

>  <SCORE>
-29.9329

>  <SCORE.INTER>
-29.8286

>  <SCORE.INTER.CONST>
1

>  <SCORE.INTER.POLAR>
-5.4625

>  <SCORE.INTER.ROT>
10

>  <SCORE.INTER.SOLV>
19.5518

>  <SCORE.INTER.VDW>
-18.4614

>  <SCORE.INTER.norm>
-0.806179

>  <SCORE.INTRA>
-9.96655

>  <SCORE.INTRA.DIHEDRAL>
-30.2119

>  <SCORE.INTRA.DIHEDRAL.0>
44.8331

>  <SCORE.INTRA.POLAR>
-0.0791348

>  <SCORE.INTRA.POLAR.0>
-0.108895

>  <SCORE.INTRA.REPUL>
-0.00912235

>  <SCORE.INTRA.REPUL.0>
0.00912235

>  <SCORE.INTRA.SOLV>
1.57977

>  <SCORE.INTRA.SOLV.lig_0>
-53.9067

>  <SCORE.INTRA.VDW>
4.66419

>  <SCORE.INTRA.VDW.0>
-2.93492

>  <SCORE.INTRA.norm>
-0.269366

>  <SCORE.RESTR>
9.86227

>  <SCORE.RESTR.CAVITY>
9.86227

>  <SCORE.RESTR.norm>
0.266548

>  <SCORE.SYSTEM>
0

>  <SCORE.SYSTEM.CONST>
0

>  <SCORE.SYSTEM.DIHEDRAL>
0

>  <SCORE.SYSTEM.SOLV>
0

>  <SCORE.SYSTEM.norm>
0

>  <SCORE.heavy>
37

>  <SCORE.norm>
-0.808998

>  <RMSD>
16.976

$$$$
lig.pdb
 OpenBabel11021811453D
libRbt.so/2013.1/901 2013/11/27
 37 40  0  0  0  0  0  0  0  0999 V2000
  -13.5138    6.1838    3.2919 C   0  0  2  0  0  0  0  0  0  0  0  0
  -14.7879    7.0236    2.9475 C   0  0  1  0  0  0  0  0  0  0  0  0
  -15.3196    7.8566    4.1505 C   0  0  0  0  0  0  0  0  0  0  0  0
  -15.4377    6.9835    5.4243 C   0  0  1  0  0  0  0  0  0  0  0  0
  -14.0772    6.3207    5.7360 C   0  0  1  0  0  0  0  0  0  0  0  0
  -14.1542    5.4757    7.0359 C   0  0  1  0  0  0  0  0  0  0  0  0
  -14.7024    6.3268    8.2199 C   0  0  1  0  0  0  0  0  0  0  0  0
  -16.0317    7.0505    7.8517 C   0  0  2  0  0  0  0  0  0  0  0  0
  -13.8873    4.3432    9.4092 C   0  0  0  0  0  0  0  0  0  0  0  0
  -13.6260    5.5309    4.5981 O   0  0  0  0  0  0  0  0  0  0  0  0
  -15.9280    7.7403    6.5683 O   0  0  0  0  0  0  0  0  0  0  0  0
  -14.5005    7.9231    1.8092 N   0  0  0  0  0  0  0  0  0  0  0  0
  -14.8534    5.4628    9.4090 N   0  0  0  0  0  0  0  0  0  0  0  0
  -14.9311    4.3007    6.8429 O   0  0  0  0  0  0  0  0  0  0  0  0
  -16.4236    7.9669    8.9153 O   0  0  0  0  0  0  0  0  0  0  0  0
  -12.3083    7.0059    3.2342 O   0  0  0  0  0  0  0  0  0  0  0  0
  -16.2190    9.3989    8.7118 C   0  0  2  0  0  0  0  0  0  0  0  0
  -14.7229    9.7802    8.8992 C   0  0  1  0  0  0  0  0  0  0  0  0
  -14.2869    9.6853   10.3894 C   0  0  2  0  0  0  0  0  0  0  0  0
  -15.2416   10.5027   11.3072 C   0  0  1  0  0  0  0  0  0  0  0  0
  -16.7268   10.1154   11.0631 C   0  0  1  0  0  0  0  0  0  0  0  0
  -17.6987   11.0156   11.8703 C   0  0  0  0  0  0  0  0  0  0  0  0
  -17.0397   10.1712    9.6382 O   0  0  0  0  0  0  0  0  0  0  0  0
  -14.8737   10.3605   12.7330 N   0  0  0  0  0  0  0  0  0  0  0  0
  -13.8935    8.9849    8.0541 O   0  0  0  0  0  0  0  0  0  0  0  0
  -12.9328   10.0998   10.5571 O   0  0  0  0  0  0  0  0  0  0  0  0
  -17.3474   12.3889   11.7365 O   0  0  0  0  0  0  0  0  0  0  0  0
  -11.0215    6.3290    3.3348 C   0  0  1  0  0  0  0  0  0  0  0  0
  -10.7093    5.8866    4.7918 C   0  0  1  0  0  0  0  0  0  0  0  0
   -9.2926    5.2544    4.8940 C   0  0  2  0  0  0  0  0  0  0  0  0
   -9.0856    4.0869    3.8752 C   0  0  1  0  0  0  0  0  0  0  0  0
   -9.5192    4.4619    2.4264 C   0  0  0  0  0  0  0  0  0  0  0  0
  -10.9349    5.1110    2.3717 C   0  0  2  0  0  0  0  0  0  0  0  0
   -7.6862    3.6104    3.8997 N   0  0  0  0  0  0  0  0  0  0  0  0
  -11.2482    5.4832    0.9750 N   0  0  0  0  0  0  0  0  0  0  0  0
  -10.8410    6.9812    5.6929 O   0  0  0  0  0  0  0  0  0  0  0  0
   -9.0424    4.8058    6.2236 O   0  0  0  0  0  0  0  0  0  0  0  0
  1  2  1  0  0  0  0
  1 16  1  1  0  0  0
  2  3  1  0  0  0  0
  2 12  1  6  0  0  0
  4 11  1  1  0  0  0
  4  3  1  0  0  0  0
  5  4  1  0  0  0  0
  5 10  1  6  0  0  0
  6  7  1  0  0  0  0
  6  5  1  0  0  0  0
  6 14  1  6  0  0  0
  7  8  1  0  0  0  0
  7 13  1  1  0  0  0
  8 15  1  1  0  0  0
  8 11  1  0  0  0  0
  9 13  1  0  0  0  0
 10  1  1  0  0  0  0
 17 15  1  1  0  0  0
 17 18  1  0  0  0  0
 18 25  1  6  0  0  0
 19 18  1  0  0  0  0
 19 26  1  6  0  0  0
 20 19  1  0  0  0  0
 20 24  1  1  0  0  0
 21 23  1  0  0  0  0
 21 20  1  0  0  0  0
 21 22  1  1  0  0  0
 23 17  1  0  0  0  0
 27 22  1  0  0  0  0
 28 29  1  0  0  0  0
 28 16  1  1  0  0  0
 29 36  1  1  0  0  0
 30 37  1  1  0  0  0
 30 29  1  0  0  0  0
 31 30  1  0  0  0  0
 31 34  1  6  0  0  0
 32 31  1  0  0  0  0
 32 33  1  0  0  0  0
 33 28  1  0  0  0  0
 33 35  1  6  0  0  0
M  END
>  <CHROM.1>
76.10026939,104.21863478,28.82221440,61.38589256,-76.79219633,-171.09051756
175.62213437,-79.79413893,46.76952269,-164.27195076,-179.67176099,-75.51880643
-67.00288737,-71.29654889,117.27652509,-176.20067032,-13.62885803,7.26267984
6.76437826,0.94070701,0.48419715,-1.82466158

>  <Name>
lig.pdb

>  <RI>
1.95696e+07

>  <Rbt.Current_Directory>
/home/itssahil/PROJECTS/Mol_Feturizer/New_Systems/rnas/2m4q

>  <Rbt.Executable>
rbdock ($Id: //depot/dev/client3/rdock/2013.1/src/exe/rbdock.cxx#4 $)

>  <Rbt.Library>
libRbt.so (2013.1, Build901 2013/11/27)

>  <Rbt.Parameter_File>
/export/apps/rDock/src/rDock_2013.1_src/data/scripts/dock_solv.prm

>  <Rbt.Receptor>
prm/blind_docking_100.prm

>  <SCORE>
-26.3835

>  <SCORE.INTER>
-31.7531

>  <SCORE.INTER.CONST>
1

>  <SCORE.INTER.POLAR>
-5.89521

>  <SCORE.INTER.ROT>
10

>  <SCORE.INTER.SOLV>
18.7062

>  <SCORE.INTER.VDW>
-18.0201

>  <SCORE.INTER.norm>
-0.858192

>  <SCORE.INTRA>
-6.72395

>  <SCORE.INTRA.DIHEDRAL>
-27.8319

>  <SCORE.INTRA.DIHEDRAL.0>
44.8331

>  <SCORE.INTRA.POLAR>
-0.0363442

>  <SCORE.INTRA.POLAR.0>
-0.108895

>  <SCORE.INTRA.REPUL>
0.015717

>  <SCORE.INTRA.REPUL.0>
0.00912235

>  <SCORE.INTRA.SOLV>
0.788068

>  <SCORE.INTRA.SOLV.lig_0>
-53.9067

>  <SCORE.INTRA.VDW>
6.84295

>  <SCORE.INTRA.VDW.0>
-2.93492

>  <SCORE.INTRA.norm>
-0.181728

>  <SCORE.RESTR>
12.0936

>  <SCORE.RESTR.CAVITY>
12.0936

>  <SCORE.RESTR.norm>
0.326854

>  <SCORE.SYSTEM>
0

>  <SCORE.SYSTEM.CONST>
0

>  <SCORE.SYSTEM.DIHEDRAL>
0

>  <SCORE.SYSTEM.SOLV>
0

>  <SCORE.SYSTEM.norm>
0

>  <SCORE.heavy>
37

>  <SCORE.norm>
-0.713067

>  <RMSD>
17.010

$$$$
lig.pdb
 OpenBabel11021811453D
libRbt.so/2013.1/901 2013/11/27
 37 40  0  0  0  0  0  0  0  0999 V2000
  -13.5924    6.3941    3.1359 C   0  0  2  0  0  0  0  0  0  0  0  0
  -14.7466    7.4346    2.9561 C   0  0  1  0  0  0  0  0  0  0  0  0
  -15.0968    8.1979    4.2670 C   0  0  0  0  0  0  0  0  0  0  0  0
  -15.2808    7.2167    5.4512 C   0  0  1  0  0  0  0  0  0  0  0  0
  -14.0171    6.3420    5.6110 C   0  0  1  0  0  0  0  0  0  0  0  0
  -14.1552    5.3800    6.8215 C   0  0  1  0  0  0  0  0  0  0  0  0
  -14.5200    6.1654    8.1164 C   0  0  1  0  0  0  0  0  0  0  0  0
  -15.7466    7.1019    7.9047 C   0  0  2  0  0  0  0  0  0  0  0  0
  -13.7231    4.1324    9.2324 C   0  0  0  0  0  0  0  0  0  0  0  0
  -13.7373    5.6253    4.3740 O   0  0  0  0  0  0  0  0  0  0  0  0
  -15.6037    7.9057    6.6934 O   0  0  0  0  0  0  0  0  0  0  0  0
  -14.3852    8.4036    1.8988 N   0  0  0  0  0  0  0  0  0  0  0  0
  -14.7390    5.2070    9.2193 N   0  0  0  0  0  0  0  0  0  0  0  0
  -15.1014    4.3518    6.5588 O   0  0  0  0  0  0  0  0  0  0  0  0
  -15.9529    7.9430    9.0770 O   0  0  0  0  0  0  0  0  0  0  0  0
  -12.2849    7.0426    3.0880 O   0  0  0  0  0  0  0  0  0  0  0  0
  -16.0827    9.3854    8.8856 C   0  0  2  0  0  0  0  0  0  0  0  0
  -14.7091   10.0955    9.0520 C   0  0  1  0  0  0  0  0  0  0  0  0
  -14.2349   10.0921   10.5335 C   0  0  2  0  0  0  0  0  0  0  0  0
  -15.3328   10.6649   11.4761 C   0  0  1  0  0  0  0  0  0  0  0  0
  -16.6956    9.9519   11.2528 C   0  0  1  0  0  0  0  0  0  0  0  0
  -17.8311   10.6021   12.0860 C   0  0  0  0  0  0  0  0  0  0  0  0
  -17.0398    9.9446    9.8341 O   0  0  0  0  0  0  0  0  0  0  0  0
  -14.9155   10.6005   12.8939 N   0  0  0  0  0  0  0  0  0  0  0  0
  -13.7368    9.5152    8.1845 O   0  0  0  0  0  0  0  0  0  0  0  0
  -13.0075   10.8024   10.6830 O   0  0  0  0  0  0  0  0  0  0  0  0
  -17.8209   12.0183   11.9390 O   0  0  0  0  0  0  0  0  0  0  0  0
  -11.1154    6.2334    3.4065 C   0  0  1  0  0  0  0  0  0  0  0  0
  -11.0647    5.8521    4.9126 C   0  0  1  0  0  0  0  0  0  0  0  0
   -9.7624    5.0727    5.2497 C   0  0  2  0  0  0  0  0  0  0  0  0
   -9.5572    3.8271    4.3276 C   0  0  1  0  0  0  0  0  0  0  0  0
   -9.7365    4.1556    2.8151 C   0  0  0  0  0  0  0  0  0  0  0  0
  -11.0425    4.9548    2.5244 C   0  0  2  0  0  0  0  0  0  0  0  0
   -8.2423    3.1991    4.5781 N   0  0  0  0  0  0  0  0  0  0  0  0
  -11.1111    5.2703    1.0811 N   0  0  0  0  0  0  0  0  0  0  0  0
  -11.1881    7.0096    5.7327 O   0  0  0  0  0  0  0  0  0  0  0  0
   -9.7555    4.6842    6.6211 O   0  0  0  0  0  0  0  0  0  0  0  0
  1  2  1  0  0  0  0
  1 16  1  1  0  0  0
  2  3  1  0  0  0  0
  2 12  1  6  0  0  0
  4 11  1  1  0  0  0
  4  3  1  0  0  0  0
  5  4  1  0  0  0  0
  5 10  1  6  0  0  0
  6  7  1  0  0  0  0
  6  5  1  0  0  0  0
  6 14  1  6  0  0  0
  7  8  1  0  0  0  0
  7 13  1  1  0  0  0
  8 15  1  1  0  0  0
  8 11  1  0  0  0  0
  9 13  1  0  0  0  0
 10  1  1  0  0  0  0
 17 15  1  1  0  0  0
 17 18  1  0  0  0  0
 18 25  1  6  0  0  0
 19 18  1  0  0  0  0
 19 26  1  6  0  0  0
 20 19  1  0  0  0  0
 20 24  1  1  0  0  0
 21 23  1  0  0  0  0
 21 20  1  0  0  0  0
 21 22  1  1  0  0  0
 23 17  1  0  0  0  0
 27 22  1  0  0  0  0
 28 29  1  0  0  0  0
 28 16  1  1  0  0  0
 29 36  1  1  0  0  0
 30 37  1  1  0  0  0
 30 29  1  0  0  0  0
 31 30  1  0  0  0  0
 31 34  1  6  0  0  0
 32 31  1  0  0  0  0
 32 33  1  0  0  0  0
 33 28  1  0  0  0  0
 33 35  1  6  0  0  0
M  END
>  <CHROM.1>
168.08527160,128.69038557,42.69495315,-175.92500956,-93.74202515,172.49929553
178.61037831,-56.28049009,47.98215907,62.45945851,-164.85329827,-69.66293606
-46.75571909,172.13486682,-97.34713348,-60.06788054,-13.68632660,7.28638444
6.85957980,0.90225666,0.66323311,-1.71946717

>  <Name>
lig.pdb

>  <RI>
1.95696e+07

>  <Rbt.Current_Directory>
/home/itssahil/PROJECTS/Mol_Feturizer/New_Systems/rnas/2m4q

>  <Rbt.Executable>
rbdock ($Id: //depot/dev/client3/rdock/2013.1/src/exe/rbdock.cxx#4 $)

>  <Rbt.Library>
libRbt.so (2013.1, Build901 2013/11/27)

>  <Rbt.Parameter_File>
/export/apps/rDock/src/rDock_2013.1_src/data/scripts/dock_solv.prm

>  <Rbt.Receptor>
prm/blind_docking_100.prm

>  <SCORE>
-7.30376

>  <SCORE.INTER>
-11.3913

>  <SCORE.INTER.CONST>
1

>  <SCORE.INTER.POLAR>
-6.0391

>  <SCORE.INTER.ROT>
10

>  <SCORE.INTER.SOLV>
19.5484

>  <SCORE.INTER.VDW>
-4.24665

>  <SCORE.INTER.norm>
-0.307872

>  <SCORE.INTRA>
-7.47642

>  <SCORE.INTRA.DIHEDRAL>
-27.5366

>  <SCORE.INTRA.DIHEDRAL.0>
44.8331

>  <SCORE.INTRA.POLAR>
-0.02897

>  <SCORE.INTRA.POLAR.0>
-0.108895

>  <SCORE.INTRA.REPUL>
0.0683019

>  <SCORE.INTRA.REPUL.0>
0.00912235

>  <SCORE.INTRA.SOLV>
0.137619

>  <SCORE.INTRA.SOLV.lig_0>
-53.9067

>  <SCORE.INTRA.VDW>
5.98007

>  <SCORE.INTRA.VDW.0>
-2.93492

>  <SCORE.INTRA.norm>
-0.202065

>  <SCORE.RESTR>
11.5639

>  <SCORE.RESTR.CAVITY>
11.5639

>  <SCORE.RESTR.norm>
0.312539

>  <SCORE.SYSTEM>
0

>  <SCORE.SYSTEM.CONST>
0

>  <SCORE.SYSTEM.DIHEDRAL>
0

>  <SCORE.SYSTEM.SOLV>
0

>  <SCORE.SYSTEM.norm>
0

>  <SCORE.heavy>
37

>  <SCORE.norm>
-0.197399

>  <RMSD>
17.013

$$$$
lig.pdb
 OpenBabel11021811453D
libRbt.so/2013.1/901 2013/11/27
 37 40  0  0  0  0  0  0  0  0999 V2000
  -13.9107    5.9496    4.3872 C   0  0  2  0  0  0  0  0  0  0  0  0
  -15.2251    6.6870    3.9683 C   0  0  1  0  0  0  0  0  0  0  0  0
  -15.6672    7.7814    4.9836 C   0  0  0  0  0  0  0  0  0  0  0  0
  -15.6590    7.2336    6.4324 C   0  0  1  0  0  0  0  0  0  0  0  0
  -14.2646    6.6603    6.7703 C   0  0  1  0  0  0  0  0  0  0  0  0
  -14.2138    6.1460    8.2341 C   0  0  1  0  0  0  0  0  0  0  0  0
  -14.6742    7.2534    9.2282 C   0  0  1  0  0  0  0  0  0  0  0  0
  -16.0435    7.8726    8.8185 C   0  0  2  0  0  0  0  0  0  0  0  0
  -16.0019    6.0515   10.9034 C   0  0  0  0  0  0  0  0  0  0  0  0
  -13.8980    5.6234    5.8150 O   0  0  0  0  0  0  0  0  0  0  0  0
  -16.0634    8.2400    7.4048 O   0  0  0  0  0  0  0  0  0  0  0  0
  -15.0534    7.2921    2.6297 N   0  0  0  0  0  0  0  0  0  0  0  0
  -14.7063    6.6947   10.5956 N   0  0  0  0  0  0  0  0  0  0  0  0
  -14.9823    4.9602    8.3918 O   0  0  0  0  0  0  0  0  0  0  0  0
  -16.3598    9.0148    9.6669 O   0  0  0  0  0  0  0  0  0  0  0  0
  -12.7301    6.7324    4.0322 O   0  0  0  0  0  0  0  0  0  0  0  0
  -15.9849   10.3496    9.2067 C   0  0  2  0  0  0  0  0  0  0  0  0
  -14.4422   10.5412    9.2503 C   0  0  1  0  0  0  0  0  0  0  0  0
  -13.9146   10.6343   10.7108 C   0  0  2  0  0  0  0  0  0  0  0  0
  -14.6844   11.7194   11.5181 C   0  0  1  0  0  0  0  0  0  0  0  0
  -16.2214   11.5111   11.4193 C   0  0  1  0  0  0  0  0  0  0  0  0
  -17.0055   12.6610   12.1042 C   0  0  0  0  0  0  0  0  0  0  0  0
  -16.6276   11.3732   10.0238 O   0  0  0  0  0  0  0  0  0  0  0  0
  -14.2352   11.7654   12.9268 N   0  0  0  0  0  0  0  0  0  0  0  0
  -13.7880    9.5074    8.5170 O   0  0  0  0  0  0  0  0  0  0  0  0
  -12.5093   10.8751   10.7363 O   0  0  0  0  0  0  0  0  0  0  0  0
  -16.6048   12.8094   13.4624 O   0  0  0  0  0  0  0  0  0  0  0  0
  -11.4364    6.0626    4.0716 C   0  0  1  0  0  0  0  0  0  0  0  0
  -10.9413    5.8389    5.5280 C   0  0  1  0  0  0  0  0  0  0  0  0
   -9.5187    5.2120    5.5461 C   0  0  2  0  0  0  0  0  0  0  0  0
   -9.4329    3.9031    4.6957 C   0  0  1  0  0  0  0  0  0  0  0  0
  -10.0469    4.0628    3.2725 C   0  0  0  0  0  0  0  0  0  0  0  0
  -11.4628    4.7136    3.2983 C   0  0  2  0  0  0  0  0  0  0  0  0
   -8.0383    3.4187    4.6164 N   0  0  0  0  0  0  0  0  0  0  0  0
  -11.9508    4.8768    1.9118 N   0  0  0  0  0  0  0  0  0  0  0  0
  -10.9666    7.0573    6.2645 O   0  0  0  0  0  0  0  0  0  0  0  0
   -9.1011    4.9639    6.8861 O   0  0  0  0  0  0  0  0  0  0  0  0
  1  2  1  0  0  0  0
  1 16  1  1  0  0  0
  2  3  1  0  0  0  0
  2 12  1  6  0  0  0
  4 11  1  1  0  0  0
  4  3  1  0  0  0  0
  5  4  1  0  0  0  0
  5 10  1  6  0  0  0
  6  7  1  0  0  0  0
  6  5  1  0  0  0  0
  6 14  1  6  0  0  0
  7  8  1  0  0  0  0
  7 13  1  1  0  0  0
  8 15  1  1  0  0  0
  8 11  1  0  0  0  0
  9 13  1  0  0  0  0
 10  1  1  0  0  0  0
 17 15  1  1  0  0  0
 17 18  1  0  0  0  0
 18 25  1  1  0  0  0
 19 18  1  0  0  0  0
 19 26  1  6  0  0  0
 20 19  1  0  0  0  0
 20 24  1  1  0  0  0
 21 23  1  0  0  0  0
 21 20  1  0  0  0  0
 21 22  1  6  0  0  0
 23 17  1  0  0  0  0
 27 22  1  0  0  0  0
 28 29  1  0  0  0  0
 28 16  1  1  0  0  0
 29 36  1  1  0  0  0
 30 37  1  1  0  0  0
 30 29  1  0  0  0  0
 31 30  1  0  0  0  0
 31 34  1  6  0  0  0
 32 31  1  0  0  0  0
 32 33  1  0  0  0  0
 33 28  1  0  0  0  0
 33 35  1  6  0  0  0
M  END
>  <CHROM.1>
-175.73548980,93.75333089,-87.32331328,66.92771925,-70.54537138,-166.22372759
174.45684956,-49.83592208,-55.94628968,-57.96936162,-56.28534251,-74.35884388
-59.91247488,145.75167437,179.97979452,-20.80675919,-13.72300651,7.68726396
7.55627165,1.08777908,0.34136004,-2.09717674

>  <Name>
lig.pdb

>  <RI>
0

>  <Rbt.Current_Directory>
/home/itssahil/PROJECTS/Mol_Feturizer/New_Systems/rnas/2m4q

>  <Rbt.Executable>
rbdock ($Id: //depot/dev/client3/rdock/2013.1/src/exe/rbdock.cxx#4 $)

>  <Rbt.Library>
libRbt.so (2013.1, Build901 2013/11/27)

>  <Rbt.Parameter_File>
/export/apps/rDock/src/rDock_2013.1_src/data/scripts/dock_solv.prm

>  <Rbt.Receptor>
prm/blind_docking_60.prm

>  <SCORE>
-24.727

>  <SCORE.INTER>
-32.143

>  <SCORE.INTER.CONST>
1

>  <SCORE.INTER.POLAR>
-6.00596

>  <SCORE.INTER.ROT>
10

>  <SCORE.INTER.SOLV>
20.8751

>  <SCORE.INTER.VDW>
-18.6339

>  <SCORE.INTER.norm>
-0.86873

>  <SCORE.INTRA>
-6.92886

>  <SCORE.INTRA.DIHEDRAL>
-29.3837

>  <SCORE.INTRA.DIHEDRAL.0>
44.8331

>  <SCORE.INTRA.POLAR>
0.108249

>  <SCORE.INTRA.POLAR.0>
-0.108895

>  <SCORE.INTRA.REPUL>
0.00187407

>  <SCORE.INTRA.REPUL.0>
0.00912235

>  <SCORE.INTRA.SOLV>
1.58245

>  <SCORE.INTRA.SOLV.lig_0>
-53.9067

>  <SCORE.INTRA.VDW>
6.59436

>  <SCORE.INTRA.VDW.0>
-2.93492

>  <SCORE.INTRA.norm>
-0.187266

>  <SCORE.RESTR>
14.3449

>  <SCORE.RESTR.CAVITY>
14.3449

>  <SCORE.RESTR.norm>
0.387699

>  <SCORE.SYSTEM>
0

>  <SCORE.SYSTEM.CONST>
0

>  <SCORE.SYSTEM.DIHEDRAL>
0

>  <SCORE.SYSTEM.SOLV>
0

>  <SCORE.SYSTEM.norm>
0

>  <SCORE.heavy>
37

>  <SCORE.norm>
-0.668297

>  <RMSD>
17.027

$$$$
lig.pdb
 OpenBabel11021811453D
libRbt.so/2013.1/901 2013/11/27
 37 40  0  0  0  0  0  0  0  0999 V2000
  -13.8176    5.9320    4.4950 C   0  0  2  0  0  0  0  0  0  0  0  0
  -15.1113    6.6857    4.0415 C   0  0  1  0  0  0  0  0  0  0  0  0
  -15.5705    7.7806    5.0485 C   0  0  0  0  0  0  0  0  0  0  0  0
  -15.6104    7.2267    6.4944 C   0  0  1  0  0  0  0  0  0  0  0  0
  -14.2328    6.6365    6.8700 C   0  0  1  0  0  0  0  0  0  0  0  0
  -14.2301    6.1155    8.3323 C   0  0  1  0  0  0  0  0  0  0  0  0
  -14.7070    7.2237    9.3177 C   0  0  1  0  0  0  0  0  0  0  0  0
  -16.0570    7.8597    8.8713 C   0  0  2  0  0  0  0  0  0  0  0  0
  -16.1361    6.1465   10.9944 C   0  0  0  0  0  0  0  0  0  0  0  0
  -13.8499    5.5997    5.9210 O   0  0  0  0  0  0  0  0  0  0  0  0
  -16.0318    8.2333    7.4593 O   0  0  0  0  0  0  0  0  0  0  0  0
  -14.8941    7.2945    2.7111 N   0  0  0  0  0  0  0  0  0  0  0  0
  -14.7849    6.6595   10.6810 N   0  0  0  0  0  0  0  0  0  0  0  0
  -15.0158    4.9376    8.4623 O   0  0  0  0  0  0  0  0  0  0  0  0
  -16.3852    9.0018    9.7154 O   0  0  0  0  0  0  0  0  0  0  0  0
  -12.6188    6.7032    4.1778 O   0  0  0  0  0  0  0  0  0  0  0  0
  -16.0174   10.3380    9.2537 C   0  0  2  0  0  0  0  0  0  0  0  0
  -14.4758   10.5385    9.2992 C   0  0  1  0  0  0  0  0  0  0  0  0
  -13.9508   10.6368   10.7602 C   0  0  2  0  0  0  0  0  0  0  0  0
  -14.7280   11.7187   11.5649 C   0  0  1  0  0  0  0  0  0  0  0  0
  -16.2637   11.5014   11.4642 C   0  0  1  0  0  0  0  0  0  0  0  0
  -17.0553   12.6479   12.1463 C   0  0  0  0  0  0  0  0  0  0  0  0
  -16.6671   11.3591   10.0683 O   0  0  0  0  0  0  0  0  0  0  0  0
  -14.2811   11.7693   12.9742 N   0  0  0  0  0  0  0  0  0  0  0  0
  -13.8146    9.5074    8.5683 O   0  0  0  0  0  0  0  0  0  0  0  0
  -12.5470   10.8858   10.7874 O   0  0  0  0  0  0  0  0  0  0  0  0
  -16.7285   12.7369   13.5293 O   0  0  0  0  0  0  0  0  0  0  0  0
  -11.3470    5.9925    4.1387 C   0  0  1  0  0  0  0  0  0  0  0  0
  -10.7838    5.7293    5.5634 C   0  0  1  0  0  0  0  0  0  0  0  0
   -9.3832    5.0578    5.4970 C   0  0  2  0  0  0  0  0  0  0  0  0
   -9.3843    3.7611    4.6238 C   0  0  1  0  0  0  0  0  0  0  0  0
  -10.0665    3.9636    3.2377 C   0  0  0  0  0  0  0  0  0  0  0  0
  -11.4573    4.6580    3.3480 C   0  0  2  0  0  0  0  0  0  0  0  0
   -8.0120    3.2346    4.4637 N   0  0  0  0  0  0  0  0  0  0  0  0
  -12.0118    4.8594    1.9918 N   0  0  0  0  0  0  0  0  0  0  0  0
  -10.7312    6.9355    6.3183 O   0  0  0  0  0  0  0  0  0  0  0  0
   -8.9041    4.7746    6.8092 O   0  0  0  0  0  0  0  0  0  0  0  0
  1  2  1  0  0  0  0
  1 16  1  1  0  0  0
  2  3  1  0  0  0  0
  2 12  1  6  0  0  0
  4 11  1  1  0  0  0
  4  3  1  0  0  0  0
  5  4  1  0  0  0  0
  5 10  1  6  0  0  0
  6  7  1  0  0  0  0
  6  5  1  0  0  0  0
  6 14  1  6  0  0  0
  7  8  1  0  0  0  0
  7 13  1  1  0  0  0
  8 15  1  1  0  0  0
  8 11  1  0  0  0  0
  9 13  1  0  0  0  0
 10  1  1  0  0  0  0
 17 15  1  1  0  0  0
 17 18  1  0  0  0  0
 18 25  1  1  0  0  0
 19 18  1  0  0  0  0
 19 26  1  6  0  0  0
 20 19  1  0  0  0  0
 20 24  1  1  0  0  0
 21 23  1  0  0  0  0
 21 20  1  0  0  0  0
 21 22  1  6  0  0  0
 23 17  1  0  0  0  0
 27 22  1  0  0  0  0
 28 29  1  0  0  0  0
 28 16  1  1  0  0  0
 29 36  1  6  0  0  0
 30 37  1  1  0  0  0
 30 29  1  0  0  0  0
 31 30  1  0  0  0  0
 31 34  1  6  0  0  0
 32 31  1  0  0  0  0
 32 33  1  0  0  0  0
 33 28  1  0  0  0  0
 33 35  1  6  0  0  0
M  END
>  <CHROM.1>
82.50950350,95.52275347,-92.85067790,-55.52832203,-70.33303289,-161.04379171
167.88016998,-43.18434145,-60.19107628,83.17007651,-178.46023925,-78.41264186
-43.36712439,139.48045610,125.80839873,-52.42865216,-13.70588973,7.65673326
7.60503666,1.07472445,0.32808948,-2.10472760

>  <Name>
lig.pdb

>  <RI>
0

>  <Rbt.Current_Directory>
/home/itssahil/PROJECTS/Mol_Feturizer/New_Systems/rnas/2m4q

>  <Rbt.Executable>
rbdock ($Id: //depot/dev/client3/rdock/2013.1/src/exe/rbdock.cxx#4 $)

>  <Rbt.Library>
libRbt.so (2013.1, Build901 2013/11/27)

>  <Rbt.Parameter_File>
/export/apps/rDock/src/rDock_2013.1_src/data/scripts/dock_solv.prm

>  <Rbt.Receptor>
prm/blind_docking_60.prm

>  <SCORE>
-31.6832

>  <SCORE.INTER>
-39.604

>  <SCORE.INTER.CONST>
1

>  <SCORE.INTER.POLAR>
-7.42529

>  <SCORE.INTER.ROT>
10

>  <SCORE.INTER.SOLV>
20.7237

>  <SCORE.INTER.VDW>
-18.8263

>  <SCORE.INTER.norm>
-1.07038

>  <SCORE.INTRA>
-6.20897

>  <SCORE.INTRA.DIHEDRAL>
-22.1211

>  <SCORE.INTRA.DIHEDRAL.0>
44.8331

>  <SCORE.INTRA.POLAR>
-0.91824

>  <SCORE.INTRA.POLAR.0>
-0.108895

>  <SCORE.INTRA.REPUL>
-0.00912235

>  <SCORE.INTRA.REPUL.0>
0.00912235

>  <SCORE.INTRA.SOLV>
1.74734

>  <SCORE.INTRA.SOLV.lig_0>
-53.9067

>  <SCORE.INTRA.VDW>
7.14554

>  <SCORE.INTRA.VDW.0>
-2.93492

>  <SCORE.INTRA.norm>
-0.16781

>  <SCORE.RESTR>
14.1298

>  <SCORE.RESTR.CAVITY>
14.1298

>  <SCORE.RESTR.norm>
0.381885

>  <SCORE.SYSTEM>
0

>  <SCORE.SYSTEM.CONST>
0

>  <SCORE.SYSTEM.DIHEDRAL>
0

>  <SCORE.SYSTEM.SOLV>
0

>  <SCORE.SYSTEM.norm>
0

>  <SCORE.heavy>
37

>  <SCORE.norm>
-0.856303

>  <RMSD>
17.036

$$$$
lig.pdb
 OpenBabel11021811453D
libRbt.so/2013.1/901 2013/11/27
 37 40  0  0  0  0  0  0  0  0999 V2000
  -14.2979    6.0856    4.6217 C   0  0  2  0  0  0  0  0  0  0  0  0
  -15.5404    6.9902    4.3302 C   0  0  1  0  0  0  0  0  0  0  0  0
  -15.7840    8.0720    5.4229 C   0  0  0  0  0  0  0  0  0  0  0  0
  -15.7473    7.4502    6.8410 C   0  0  1  0  0  0  0  0  0  0  0  0
  -14.4114    6.7035    7.0538 C   0  0  1  0  0  0  0  0  0  0  0  0
  -14.3276    6.1091    8.4853 C   0  0  1  0  0  0  0  0  0  0  0  0
  -14.5893    7.2072    9.5589 C   0  0  1  0  0  0  0  0  0  0  0  0
  -15.8995    8.0002    9.2749 C   0  0  2  0  0  0  0  0  0  0  0  0
  -15.9641    6.4934   11.4600 C   0  0  0  0  0  0  0  0  0  0  0  0
  -14.2319    5.6841    6.0287 O   0  0  0  0  0  0  0  0  0  0  0  0
  -15.9668    8.4426    7.8844 O   0  0  0  0  0  0  0  0  0  0  0  0
  -15.3849    7.6424    3.0118 N   0  0  0  0  0  0  0  0  0  0  0  0
  -14.5990    6.5833   10.8982 N   0  0  0  0  0  0  0  0  0  0  0  0
  -15.2189    5.0124    8.6422 O   0  0  0  0  0  0  0  0  0  0  0  0
  -16.0236    9.1240   10.1947 O   0  0  0  0  0  0  0  0  0  0  0  0
  -13.0585    6.7459    4.2209 O   0  0  0  0  0  0  0  0  0  0  0  0
  -15.8143   10.4741    9.6776 C   0  0  2  0  0  0  0  0  0  0  0  0
  -14.2976   10.7939    9.5522 C   0  0  1  0  0  0  0  0  0  0  0  0
  -13.6279   10.9647   10.9458 C   0  0  2  0  0  0  0  0  0  0  0  0
  -14.3972   12.0010   11.8155 C   0  0  1  0  0  0  0  0  0  0  0  0
  -15.9127   11.6637   11.8857 C   0  0  1  0  0  0  0  0  0  0  0  0
  -16.7146   12.7604   12.6343 C   0  0  0  0  0  0  0  0  0  0  0  0
  -16.4514   11.4598   10.5442 O   0  0  0  0  0  0  0  0  0  0  0  0
  -13.8067   12.1171   13.1669 N   0  0  0  0  0  0  0  0  0  0  0  0
  -13.6394    9.8010    8.7677 O   0  0  0  0  0  0  0  0  0  0  0  0
  -12.2535   11.3217   10.8165 O   0  0  0  0  0  0  0  0  0  0  0  0
  -16.7655   13.9614   11.8711 O   0  0  0  0  0  0  0  0  0  0  0  0
  -11.8403    5.9461    4.2028 C   0  0  1  0  0  0  0  0  0  0  0  0
  -11.2115    5.8120    5.6180 C   0  0  1  0  0  0  0  0  0  0  0  0
   -9.8640    5.0386    5.5613 C   0  0  2  0  0  0  0  0  0  0  0  0
  -10.0016    3.6519    4.8527 C   0  0  1  0  0  0  0  0  0  0  0  0
  -10.7506    3.7389    3.4892 C   0  0  0  0  0  0  0  0  0  0  0  0
  -12.0842    4.5395    3.5861 C   0  0  2  0  0  0  0  0  0  0  0  0
   -8.6785    3.0132    4.6871 N   0  0  0  0  0  0  0  0  0  0  0  0
  -12.7044    4.6198    2.2459 N   0  0  0  0  0  0  0  0  0  0  0  0
  -11.0355    7.0915    6.2176 O   0  0  0  0  0  0  0  0  0  0  0  0
   -9.3269    4.8775    6.8718 O   0  0  0  0  0  0  0  0  0  0  0  0
  1  2  1  0  0  0  0
  1 16  1  1  0  0  0
  2  3  1  0  0  0  0
  2 12  1  6  0  0  0
  4 11  1  1  0  0  0
  4  3  1  0  0  0  0
  5  4  1  0  0  0  0
  5 10  1  6  0  0  0
  6  7  1  0  0  0  0
  6  5  1  0  0  0  0
  6 14  1  6  0  0  0
  7  8  1  0  0  0  0
  7 13  1  1  0  0  0
  8 15  1  1  0  0  0
  8 11  1  0  0  0  0
  9 13  1  0  0  0  0
 10  1  1  0  0  0  0
 17 15  1  1  0  0  0
 17 18  1  0  0  0  0
 18 25  1  1  0  0  0
 19 18  1  0  0  0  0
 19 26  1  6  0  0  0
 20 19  1  0  0  0  0
 20 24  1  1  0  0  0
 21 23  1  0  0  0  0
 21 20  1  0  0  0  0
 21 22  1  6  0  0  0
 23 17  1  0  0  0  0
 27 22  1  0  0  0  0
 28 29  1  0  0  0  0
 28 16  1  1  0  0  0
 29 36  1  6  0  0  0
 30 37  1  1  0  0  0
 30 29  1  0  0  0  0
 31 30  1  0  0  0  0
 31 34  1  6  0  0  0
 32 31  1  0  0  0  0
 32 33  1  0  0  0  0
 33 28  1  0  0  0  0
 33 35  1  6  0  0  0
M  END
>  <CHROM.1>
-171.88761200,107.52736803,-106.63371125,-66.73231500,-79.72895347,-169.19500981
76.41700580,-47.29907723,69.40491925,72.48382906,57.50211100,-81.63400818
-54.70561327,-65.58481226,152.45634670,-55.39265238,-13.83366451,7.80960152
7.77817345,1.15543549,0.38708987,-2.15745455

>  <Name>
lig.pdb

>  <RI>
0

>  <Rbt.Current_Directory>
/home/itssahil/PROJECTS/Mol_Feturizer/New_Systems/rnas/2m4q

>  <Rbt.Executable>
rbdock ($Id: //depot/dev/client3/rdock/2013.1/src/exe/rbdock.cxx#4 $)

>  <Rbt.Library>
libRbt.so (2013.1, Build901 2013/11/27)

>  <Rbt.Parameter_File>
/export/apps/rDock/src/rDock_2013.1_src/data/scripts/dock_solv.prm

>  <Rbt.Receptor>
prm/blind_docking_60.prm

>  <SCORE>
-33.16

>  <SCORE.INTER>
-39.6559

>  <SCORE.INTER.CONST>
1

>  <SCORE.INTER.POLAR>
-7.97306

>  <SCORE.INTER.ROT>
10

>  <SCORE.INTER.SOLV>
22.7995

>  <SCORE.INTER.VDW>
-17.7269

>  <SCORE.INTER.norm>
-1.07178

>  <SCORE.INTRA>
-7.21294

>  <SCORE.INTRA.DIHEDRAL>
-27.2828

>  <SCORE.INTRA.DIHEDRAL.0>
44.8331

>  <SCORE.INTRA.POLAR>
0.054256

>  <SCORE.INTRA.POLAR.0>
-0.108895

>  <SCORE.INTRA.REPUL>
-0.00912235

>  <SCORE.INTRA.REPUL.0>
0.00912235

>  <SCORE.INTRA.SOLV>
0.448653

>  <SCORE.INTRA.SOLV.lig_0>
-53.9067

>  <SCORE.INTRA.VDW>
6.06528

>  <SCORE.INTRA.VDW.0>
-2.93492

>  <SCORE.INTRA.norm>
-0.194944

>  <SCORE.RESTR>
13.7088

>  <SCORE.RESTR.CAVITY>
13.7088

>  <SCORE.RESTR.norm>
0.370508

>  <SCORE.SYSTEM>
0

>  <SCORE.SYSTEM.CONST>
0

>  <SCORE.SYSTEM.DIHEDRAL>
0

>  <SCORE.SYSTEM.SOLV>
0

>  <SCORE.SYSTEM.norm>
0

>  <SCORE.heavy>
37

>  <SCORE.norm>
-0.896217

>  <RMSD>
17.047

$$$$
lig.pdb
 OpenBabel11021811453D
libRbt.so/2013.1/901 2013/11/27
 37 40  0  0  0  0  0  0  0  0999 V2000
  -13.5715    6.2257    3.1257 C   0  0  2  0  0  0  0  0  0  0  0  0
  -14.8114    7.1151    2.7808 C   0  0  1  0  0  0  0  0  0  0  0  0
  -15.3085    7.9706    3.9828 C   0  0  0  0  0  0  0  0  0  0  0  0
  -15.4603    7.1049    5.2581 C   0  0  1  0  0  0  0  0  0  0  0  0
  -14.1271    6.3889    5.5699 C   0  0  1  0  0  0  0  0  0  0  0  0
  -14.2367    5.5498    6.8712 C   0  0  1  0  0  0  0  0  0  0  0  0
  -14.7496    6.4240    8.0542 C   0  0  1  0  0  0  0  0  0  0  0  0
  -16.0492    7.1995    7.6859 C   0  0  2  0  0  0  0  0  0  0  0  0
  -13.8070    4.6302    9.4355 C   0  0  0  0  0  0  0  0  0  0  0  0
  -13.7086    5.5799    4.4330 O   0  0  0  0  0  0  0  0  0  0  0  0
  -15.9191    7.8826    6.4013 O   0  0  0  0  0  0  0  0  0  0  0  0
  -14.4891    8.0006    1.6408 N   0  0  0  0  0  0  0  0  0  0  0  0
  -14.9340    5.5686    9.2448 N   0  0  0  0  0  0  0  0  0  0  0  0
  -15.0600    4.4064    6.6807 O   0  0  0  0  0  0  0  0  0  0  0  0
  -16.4034    8.1325    8.7482 O   0  0  0  0  0  0  0  0  0  0  0  0
  -12.3342    6.9989    3.0658 O   0  0  0  0  0  0  0  0  0  0  0  0
  -16.1606    9.5570    8.5341 C   0  0  2  0  0  0  0  0  0  0  0  0
  -14.6692    9.9133    8.7936 C   0  0  1  0  0  0  0  0  0  0  0  0
  -14.3131    9.8342   10.3058 C   0  0  2  0  0  0  0  0  0  0  0  0
  -15.2980   10.6839   11.1601 C   0  0  1  0  0  0  0  0  0  0  0  0
  -16.7759   10.3205   10.8447 C   0  0  1  0  0  0  0  0  0  0  0  0
  -17.7706   11.2515   11.5864 C   0  0  0  0  0  0  0  0  0  0  0  0
  -17.0132   10.3592    9.4047 O   0  0  0  0  0  0  0  0  0  0  0  0
  -15.0076   10.5578   12.6052 N   0  0  0  0  0  0  0  0  0  0  0  0
  -13.8127    9.0892    8.0051 O   0  0  0  0  0  0  0  0  0  0  0  0
  -12.9618   10.2260   10.5378 O   0  0  0  0  0  0  0  0  0  0  0  0
  -17.6102   11.1442   12.9971 O   0  0  0  0  0  0  0  0  0  0  0  0
  -11.0892    6.3102    3.3815 C   0  0  1  0  0  0  0  0  0  0  0  0
  -10.9845    5.9614    4.8926 C   0  0  1  0  0  0  0  0  0  0  0  0
   -9.6099    5.3153    5.2246 C   0  0  2  0  0  0  0  0  0  0  0  0
   -9.2979    4.0792    4.3199 C   0  0  1  0  0  0  0  0  0  0  0  0
   -9.5256    4.3632    2.8049 C   0  0  0  0  0  0  0  0  0  0  0  0
  -10.9051    5.0294    2.5189 C   0  0  2  0  0  0  0  0  0  0  0  0
   -7.9262    3.5836    4.5627 N   0  0  0  0  0  0  0  0  0  0  0  0
  -11.0206    5.3121    1.0718 N   0  0  0  0  0  0  0  0  0  0  0  0
  -11.2080    7.1157    5.6958 O   0  0  0  0  0  0  0  0  0  0  0  0
   -9.5499    4.9528    6.6018 O   0  0  0  0  0  0  0  0  0  0  0  0
  1  2  1  0  0  0  0
  1 16  1  1  0  0  0
  2  3  1  0  0  0  0
  2 12  1  6  0  0  0
  4 11  1  1  0  0  0
  4  3  1  0  0  0  0
  5  4  1  0  0  0  0
  5 10  1  6  0  0  0
  6  7  1  0  0  0  0
  6  5  1  0  0  0  0
  6 14  1  6  0  0  0
  7  8  1  0  0  0  0
  7 13  1  1  0  0  0
  8 15  1  1  0  0  0
  8 11  1  0  0  0  0
  9 13  1  0  0  0  0
 10  1  1  0  0  0  0
 17 15  1  1  0  0  0
 17 18  1  0  0  0  0
 18 25  1  6  0  0  0
 19 18  1  0  0  0  0
 19 26  1  6  0  0  0
 20 19  1  0  0  0  0
 20 24  1  1  0  0  0
 21 23  1  0  0  0  0
 21 20  1  0  0  0  0
 21 22  1  1  0  0  0
 23 17  1  0  0  0  0
 27 22  1  0  0  0  0
 28 29  1  0  0  0  0
 28 16  1  1  0  0  0
 29 36  1  1  0  0  0
 30 37  1  1  0  0  0
 30 29  1  0  0  0  0
 31 30  1  0  0  0  0
 31 34  1  6  0  0  0
 32 31  1  0  0  0  0
 32 33  1  0  0  0  0
 33 28  1  0  0  0  0
 33 35  1  6  0  0  0
M  END
>  <CHROM.1>
-65.96403266,105.13149679,43.72544366,-167.57535421,-80.48227119,179.17803728
-90.32375901,-76.37456803,-60.78036010,-41.06065798,51.72349803,-70.39402427
52.10111800,-80.07786667,64.60876250,-171.10189941,-13.70348145,7.31633000
6.77385908,0.94873454,0.50900607,-1.81192029

>  <Name>
lig.pdb

>  <RI>
1.95696e+07

>  <Rbt.Current_Directory>
/home/itssahil/PROJECTS/Mol_Feturizer/New_Systems/rnas/2m4q

>  <Rbt.Executable>
rbdock ($Id: //depot/dev/client3/rdock/2013.1/src/exe/rbdock.cxx#4 $)

>  <Rbt.Library>
libRbt.so (2013.1, Build901 2013/11/27)

>  <Rbt.Parameter_File>
/export/apps/rDock/src/rDock_2013.1_src/data/scripts/dock_solv.prm

>  <Rbt.Receptor>
prm/blind_docking_100.prm

>  <SCORE>
-17.5079

>  <SCORE.INTER>
-20.4873

>  <SCORE.INTER.CONST>
1

>  <SCORE.INTER.POLAR>
-4.0441

>  <SCORE.INTER.ROT>
10

>  <SCORE.INTER.SOLV>
18.5077

>  <SCORE.INTER.VDW>
-16.6138

>  <SCORE.INTER.norm>
-0.553711

>  <SCORE.INTRA>
-9.54895

>  <SCORE.INTRA.DIHEDRAL>
-26.6833

>  <SCORE.INTRA.DIHEDRAL.0>
44.8331

>  <SCORE.INTRA.POLAR>
-0.818008

>  <SCORE.INTRA.POLAR.0>
-0.108895

>  <SCORE.INTRA.REPUL>
-0.00308289

>  <SCORE.INTRA.REPUL.0>
0.00912235

>  <SCORE.INTRA.SOLV>
0.920779

>  <SCORE.INTRA.SOLV.lig_0>
-53.9067

>  <SCORE.INTRA.VDW>
6.12896

>  <SCORE.INTRA.VDW.0>
-2.93492

>  <SCORE.INTRA.norm>
-0.25808

>  <SCORE.RESTR>
12.5283

>  <SCORE.RESTR.CAVITY>
12.5283

>  <SCORE.RESTR.norm>
0.338604

>  <SCORE.SYSTEM>
0

>  <SCORE.SYSTEM.CONST>
0

>  <SCORE.SYSTEM.DIHEDRAL>
0

>  <SCORE.SYSTEM.SOLV>
0

>  <SCORE.SYSTEM.norm>
0

>  <SCORE.heavy>
37

>  <SCORE.norm>
-0.473188

>  <RMSD>
17.065

$$$$
lig.pdb
 OpenBabel11021811453D
libRbt.so/2013.1/901 2013/11/27
 37 40  0  0  0  0  0  0  0  0999 V2000
  -12.8670    6.0933    6.0219 C   0  0  2  0  0  0  0  0  0  0  0  0
  -14.4022    5.9806    5.7431 C   0  0  1  0  0  0  0  0  0  0  0  0
  -15.1975    7.2543    6.1542 C   0  0  0  0  0  0  0  0  0  0  0  0
  -14.8256    7.7048    7.5887 C   0  0  1  0  0  0  0  0  0  0  0  0
  -13.2988    7.9169    7.6945 C   0  0  1  0  0  0  0  0  0  0  0  0
  -12.9025    8.4146    9.1104 C   0  0  1  0  0  0  0  0  0  0  0  0
  -13.7218    9.6798    9.5040 C   0  0  1  0  0  0  0  0  0  0  0  0
  -15.2526    9.4672    9.3096 C   0  0  2  0  0  0  0  0  0  0  0  0
  -13.4334   11.5260   11.0921 C   0  0  0  0  0  0  0  0  0  0  0  0
  -12.5913    6.6977    7.3272 O   0  0  0  0  0  0  0  0  0  0  0  0
  -15.5519    8.8997    7.9973 O   0  0  0  0  0  0  0  0  0  0  0  0
  -14.6298    5.6942    4.3100 N   0  0  0  0  0  0  0  0  0  0  0  0
  -13.3877   10.0615   10.8917 N   0  0  0  0  0  0  0  0  0  0  0  0
  -13.0481    7.3845   10.0795 O   0  0  0  0  0  0  0  0  0  0  0  0
  -15.9709   10.7176    9.5220 O   0  0  0  0  0  0  0  0  0  0  0  0
  -12.1914    6.8371    4.9623 O   0  0  0  0  0  0  0  0  0  0  0  0
  -17.2704   10.6702   10.1875 C   0  0  2  0  0  0  0  0  0  0  0  0
  -17.2351   11.4460   11.5350 C   0  0  1  0  0  0  0  0  0  0  0  0
  -16.3896   10.7001   12.6068 C   0  0  2  0  0  0  0  0  0  0  0  0
  -16.8603    9.2254   12.7671 C   0  0  1  0  0  0  0  0  0  0  0  0
  -16.9144    8.4984   11.3945 C   0  0  1  0  0  0  0  0  0  0  0  0
  -17.5109    7.0719   11.5194 C   0  0  0  0  0  0  0  0  0  0  0  0
  -17.6728    9.2889   10.4294 O   0  0  0  0  0  0  0  0  0  0  0  0
  -16.0161    8.4906   13.7345 N   0  0  0  0  0  0  0  0  0  0  0  0
  -16.7738   12.7805   11.3328 O   0  0  0  0  0  0  0  0  0  0  0  0
  -16.4188   11.3876   13.8557 O   0  0  0  0  0  0  0  0  0  0  0  0
  -17.0898    6.2495   10.4361 O   0  0  0  0  0  0  0  0  0  0  0  0
  -11.0040    6.2384    4.3658 C   0  0  1  0  0  0  0  0  0  0  0  0
  -10.3298    5.2111    5.3178 C   0  0  1  0  0  0  0  0  0  0  0  0
   -9.0138    4.6571    4.7027 C   0  0  2  0  0  0  0  0  0  0  0  0
   -9.2265    4.0691    3.2699 C   0  0  1  0  0  0  0  0  0  0  0  0
  -10.0206    5.0273    2.3324 C   0  0  0  0  0  0  0  0  0  0  0  0
  -11.3203    5.5757    2.9949 C   0  0  2  0  0  0  0  0  0  0  0  0
   -7.9340    3.6882    2.6613 N   0  0  0  0  0  0  0  0  0  0  0  0
  -11.9851    6.5133    2.0641 N   0  0  0  0  0  0  0  0  0  0  0  0
  -10.0866    5.7889    6.5963 O   0  0  0  0  0  0  0  0  0  0  0  0
   -8.4360    3.6780    5.5625 O   0  0  0  0  0  0  0  0  0  0  0  0
  1  2  1  0  0  0  0
  1 16  1  6  0  0  0
  2  3  1  0  0  0  0
  2 12  1  6  0  0  0
  4 11  1  6  0  0  0
  4  3  1  0  0  0  0
  5  4  1  0  0  0  0
  5 10  1  1  0  0  0
  6  7  1  0  0  0  0
  6  5  1  0  0  0  0
  6 14  1  1  0  0  0
  7  8  1  0  0  0  0
  7 13  1  1  0  0  0
  8 15  1  6  0  0  0
  8 11  1  0  0  0  0
  9 13  1  0  0  0  0
 10  1  1  0  0  0  0
 17 15  1  1  0  0  0
 17 18  1  0  0  0  0
 18 25  1  6  0  0  0
 19 18  1  0  0  0  0
 19 26  1  1  0  0  0
 20 19  1  0  0  0  0
 20 24  1  1  0  0  0
 21 23  1  0  0  0  0
 21 20  1  0  0  0  0
 21 22  1  1  0  0  0
 23 17  1  0  0  0  0
 27 22  1  0  0  0  0
 28 29  1  0  0  0  0
 28 16  1  1  0  0  0
 29 36  1  1  0  0  0
 30 37  1  1  0  0  0
 30 29  1  0  0  0  0
 31 30  1  0  0  0  0
 31 34  1  6  0  0  0
 32 31  1  0  0  0  0
 32 33  1  0  0  0  0
 33 28  1  0  0  0  0
 33 35  1  6  0  0  0
M  END
>  <CHROM.1>
174.64529519,-142.71542580,146.67121153,143.74007468,116.96187388,-129.84739252
40.12866551,-60.27655821,-157.16031615,153.90609928,-58.76907731,-23.29370134
-67.61264953,-172.35864301,-65.97004769,-38.38283541,-13.75003634,7.75061771
8.05595882,0.96427434,0.24947913,-1.98379518

>  <Name>
lig.pdb

>  <RI>
1.95696e+07

>  <Rbt.Current_Directory>
/home/itssahil/PROJECTS/Mol_Feturizer/New_Systems/rnas/2m4q

>  <Rbt.Executable>
rbdock ($Id: //depot/dev/client3/rdock/2013.1/src/exe/rbdock.cxx#4 $)

>  <Rbt.Library>
libRbt.so (2013.1, Build901 2013/11/27)

>  <Rbt.Parameter_File>
/export/apps/rDock/src/rDock_2013.1_src/data/scripts/dock_solv.prm

>  <Rbt.Receptor>
prm/blind_docking_100.prm

>  <SCORE>
-17.9505

>  <SCORE.INTER>
-29.9203

>  <SCORE.INTER.CONST>
1

>  <SCORE.INTER.POLAR>
-5.29637

>  <SCORE.INTER.ROT>
10

>  <SCORE.INTER.SOLV>
19.8728

>  <SCORE.INTER.VDW>
-19.1832

>  <SCORE.INTER.norm>
-0.808658

>  <SCORE.INTRA>
-4.13901

>  <SCORE.INTRA.DIHEDRAL>
-8.92753

>  <SCORE.INTRA.DIHEDRAL.0>
44.8331

>  <SCORE.INTRA.POLAR>
0.0868966

>  <SCORE.INTRA.POLAR.0>
-0.108895

>  <SCORE.INTRA.REPUL>
-0.00912235

>  <SCORE.INTRA.REPUL.0>
0.00912235

>  <SCORE.INTRA.SOLV>
0.0918995

>  <SCORE.INTRA.SOLV.lig_0>
-53.9067

>  <SCORE.INTRA.VDW>
0.0289666

>  <SCORE.INTRA.VDW.0>
-2.93492

>  <SCORE.INTRA.norm>
-0.111865

>  <SCORE.RESTR>
16.1088

>  <SCORE.RESTR.CAVITY>
16.1088

>  <SCORE.RESTR.norm>
0.435374

>  <SCORE.SYSTEM>
0

>  <SCORE.SYSTEM.CONST>
0

>  <SCORE.SYSTEM.DIHEDRAL>
0

>  <SCORE.SYSTEM.SOLV>
0

>  <SCORE.SYSTEM.norm>
0

>  <SCORE.heavy>
37

>  <SCORE.norm>
-0.485149

>  <RMSD>
17.078

$$$$
lig.pdb
 OpenBabel11021811453D
libRbt.so/2013.1/901 2013/11/27
 37 40  0  0  0  0  0  0  0  0999 V2000
  -14.3431    6.0928    4.6207 C   0  0  2  0  0  0  0  0  0  0  0  0
  -15.5877    6.9988    4.3429 C   0  0  1  0  0  0  0  0  0  0  0  0
  -15.8235    8.0748    5.4431 C   0  0  0  0  0  0  0  0  0  0  0  0
  -15.7767    7.4454    6.8575 C   0  0  1  0  0  0  0  0  0  0  0  0
  -14.4393    6.6977    7.0568 C   0  0  1  0  0  0  0  0  0  0  0  0
  -14.3453    6.0956    8.4845 C   0  0  1  0  0  0  0  0  0  0  0  0
  -14.5993    7.1879    9.5657 C   0  0  1  0  0  0  0  0  0  0  0  0
  -15.9116    7.9824    9.2953 C   0  0  2  0  0  0  0  0  0  0  0  0
  -15.9595    6.4717   11.4764 C   0  0  0  0  0  0  0  0  0  0  0  0
  -14.2671    5.6838    6.0250 O   0  0  0  0  0  0  0  0  0  0  0  0
  -15.9888    8.4323    7.9078 O   0  0  0  0  0  0  0  0  0  0  0  0
  -15.4417    7.6581    3.0269 N   0  0  0  0  0  0  0  0  0  0  0  0
  -14.5995    6.5569   10.9017 N   0  0  0  0  0  0  0  0  0  0  0  0
  -15.2354    4.9981    8.6419 O   0  0  0  0  0  0  0  0  0  0  0  0
  -16.0291    9.1013   10.2220 O   0  0  0  0  0  0  0  0  0  0  0  0
  -13.1067    6.7553    4.2146 O   0  0  0  0  0  0  0  0  0  0  0  0
  -15.8327   10.4547    9.7088 C   0  0  2  0  0  0  0  0  0  0  0  0
  -14.3200   10.8084    9.6344 C   0  0  1  0  0  0  0  0  0  0  0  0
  -13.7026   10.9970   11.0497 C   0  0  2  0  0  0  0  0  0  0  0  0
  -14.5243   12.0172   11.8898 C   0  0  1  0  0  0  0  0  0  0  0  0
  -16.0334   11.6460   11.9090 C   0  0  1  0  0  0  0  0  0  0  0  0
  -16.8849   12.7259   12.6267 C   0  0  0  0  0  0  0  0  0  0  0  0
  -16.5210   11.4275   10.5504 O   0  0  0  0  0  0  0  0  0  0  0  0
  -13.9831   12.1493   13.2603 N   0  0  0  0  0  0  0  0  0  0  0  0
  -13.6132    9.8291    8.8756 O   0  0  0  0  0  0  0  0  0  0  0  0
  -12.3328   11.3846   10.9665 O   0  0  0  0  0  0  0  0  0  0  0  0
  -18.2569   12.3472   12.6648 O   0  0  0  0  0  0  0  0  0  0  0  0
  -11.8762    5.9752    4.2528 C   0  0  1  0  0  0  0  0  0  0  0  0
  -11.2811    5.8974    5.6866 C   0  0  1  0  0  0  0  0  0  0  0  0
   -9.9209    5.1445    5.6886 C   0  0  2  0  0  0  0  0  0  0  0  0
  -10.0194    3.7334    5.0230 C   0  0  1  0  0  0  0  0  0  0  0  0
  -10.7352    3.7638    3.6394 C   0  0  0  0  0  0  0  0  0  0  0  0
  -12.0830    4.5454    3.6771 C   0  0  2  0  0  0  0  0  0  0  0  0
   -8.6829    3.1110    4.9111 N   0  0  0  0  0  0  0  0  0  0  0  0
  -12.6705    4.5720    2.3200 N   0  0  0  0  0  0  0  0  0  0  0  0
  -11.1399    7.1984    6.2478 O   0  0  0  0  0  0  0  0  0  0  0  0
   -9.4145    5.0349    7.0165 O   0  0  0  0  0  0  0  0  0  0  0  0
  1  2  1  0  0  0  0
  1 16  1  1  0  0  0
  2  3  1  0  0  0  0
  2 12  1  6  0  0  0
  4 11  1  1  0  0  0
  4  3  1  0  0  0  0
  5  4  1  0  0  0  0
  5 10  1  6  0  0  0
  6  7  1  0  0  0  0
  6  5  1  0  0  0  0
  6 14  1  6  0  0  0
  7  8  1  0  0  0  0
  7 13  1  1  0  0  0
  8 15  1  1  0  0  0
  8 11  1  0  0  0  0
  9 13  1  0  0  0  0
 10  1  1  0  0  0  0
 17 15  1  1  0  0  0
 17 18  1  0  0  0  0
 18 25  1  1  0  0  0
 19 18  1  0  0  0  0
 19 26  1  6  0  0  0
 20 19  1  0  0  0  0
 20 24  1  1  0  0  0
 21 23  1  0  0  0  0
 21 20  1  0  0  0  0
 21 22  1  6  0  0  0
 23 17  1  0  0  0  0
 27 22  1  0  0  0  0
 28 29  1  0  0  0  0
 28 16  1  1  0  0  0
 29 36  1  6  0  0  0
 30 37  1  1  0  0  0
 30 29  1  0  0  0  0
 31 30  1  0  0  0  0
 31 34  1  6  0  0  0
 32 31  1  0  0  0  0
 32 33  1  0  0  0  0
 33 28  1  0  0  0  0
 33 35  1  6  0  0  0
M  END
>  <CHROM.1>
-70.96799762,107.94178763,-106.99650325,-57.69758904,-82.63522488,-172.43714612
-81.18694111,64.37602073,-178.38570208,-176.07369302,-56.16556338,-80.96414024
58.16991205,160.10131443,-82.63113459,-54.36481329,-13.92493542,7.77403619
7.85857294,1.13195532,0.35277300,-2.13334886

>  <Name>
lig.pdb

>  <RI>
0

>  <Rbt.Current_Directory>
/home/itssahil/PROJECTS/Mol_Feturizer/New_Systems/rnas/2m4q

>  <Rbt.Executable>
rbdock ($Id: //depot/dev/client3/rdock/2013.1/src/exe/rbdock.cxx#4 $)

>  <Rbt.Library>
libRbt.so (2013.1, Build901 2013/11/27)

>  <Rbt.Parameter_File>
/export/apps/rDock/src/rDock_2013.1_src/data/scripts/dock_solv.prm

>  <Rbt.Receptor>
prm/blind_docking_60.prm

>  <SCORE>
-15.1436

>  <SCORE.INTER>
-23.7072

>  <SCORE.INTER.CONST>
1

>  <SCORE.INTER.POLAR>
-4.70666

>  <SCORE.INTER.ROT>
10

>  <SCORE.INTER.SOLV>
21.6735

>  <SCORE.INTER.VDW>
-17.6071

>  <SCORE.INTER.norm>
-0.640736

>  <SCORE.INTRA>
-5.43088

>  <SCORE.INTRA.DIHEDRAL>
-26.4916

>  <SCORE.INTRA.DIHEDRAL.0>
44.8331

>  <SCORE.INTRA.POLAR>
-0.0327242

>  <SCORE.INTRA.POLAR.0>
-0.108895

>  <SCORE.INTRA.REPUL>
-0.00912235

>  <SCORE.INTRA.REPUL.0>
0.00912235

>  <SCORE.INTRA.SOLV>
-0.52457

>  <SCORE.INTRA.SOLV.lig_0>
-53.9067

>  <SCORE.INTRA.VDW>
8.23406

>  <SCORE.INTRA.VDW.0>
-2.93492

>  <SCORE.INTRA.norm>
-0.146781

>  <SCORE.RESTR>
13.9945

>  <SCORE.RESTR.CAVITY>
13.9945

>  <SCORE.RESTR.norm>
0.378228

>  <SCORE.SYSTEM>
0

>  <SCORE.SYSTEM.CONST>
0

>  <SCORE.SYSTEM.DIHEDRAL>
0

>  <SCORE.SYSTEM.SOLV>
0

>  <SCORE.SYSTEM.norm>
0

>  <SCORE.heavy>
37

>  <SCORE.norm>
-0.409288

>  <RMSD>
17.105

$$$$
lig.pdb
 OpenBabel11021811453D
libRbt.so/2013.1/901 2013/11/27
 37 40  0  0  0  0  0  0  0  0999 V2000
  -16.2112   12.1872   12.1710 C   0  0  2  0  0  0  0  0  0  0  0  0
  -14.9856   11.4345   12.7862 C   0  0  1  0  0  0  0  0  0  0  0  0
  -14.0307   10.8335   11.7134 C   0  0  0  0  0  0  0  0  0  0  0  0
  -14.8214   10.0331   10.6489 C   0  0  1  0  0  0  0  0  0  0  0  0
  -15.9097   10.9299   10.0174 C   0  0  1  0  0  0  0  0  0  0  0  0
  -16.6881   10.1665    8.9124 C   0  0  1  0  0  0  0  0  0  0  0  0
  -15.7105    9.5628    7.8605 C   0  0  1  0  0  0  0  0  0  0  0  0
  -14.5751    8.7317    8.5287 C   0  0  2  0  0  0  0  0  0  0  0  0
  -16.8197    9.5412    5.6735 C   0  0  0  0  0  0  0  0  0  0  0  0
  -16.7971   11.4518   11.0481 O   0  0  0  0  0  0  0  0  0  0  0  0
  -13.9518    9.4640    9.6283 O   0  0  0  0  0  0  0  0  0  0  0  0
  -14.2287   12.3496   13.6678 N   0  0  0  0  0  0  0  0  0  0  0  0
  -16.4808    8.7639    6.8851 N   0  0  0  0  0  0  0  0  0  0  0  0
  -17.5274    9.1639    9.4708 O   0  0  0  0  0  0  0  0  0  0  0  0
  -13.5883    8.3274    7.5351 O   0  0  0  0  0  0  0  0  0  0  0  0
  -15.8475   13.5406   11.7603 O   0  0  0  0  0  0  0  0  0  0  0  0
  -13.9385    7.2626    6.5984 C   0  0  2  0  0  0  0  0  0  0  0  0
  -14.0259    5.8893    7.3230 C   0  0  1  0  0  0  0  0  0  0  0  0
  -12.6225    5.3760    7.7553 C   0  0  2  0  0  0  0  0  0  0  0  0
  -11.6331    5.3670    6.5541 C   0  0  1  0  0  0  0  0  0  0  0  0
  -11.6027    6.7463    5.8384 C   0  0  1  0  0  0  0  0  0  0  0  0
  -10.7261    6.7140    4.5590 C   0  0  0  0  0  0  0  0  0  0  0  0
  -12.9585    7.1847    5.5205 O   0  0  0  0  0  0  0  0  0  0  0  0
  -10.2782    4.9459    6.9729 N   0  0  0  0  0  0  0  0  0  0  0  0
  -14.9254    5.9620    8.4277 O   0  0  0  0  0  0  0  0  0  0  0  0
  -12.7092    4.0873    8.3596 O   0  0  0  0  0  0  0  0  0  0  0  0
  -11.1844    5.7137    3.6553 O   0  0  0  0  0  0  0  0  0  0  0  0
  -16.8495   14.5876   11.9152 C   0  0  1  0  0  0  0  0  0  0  0  0
  -18.2677   14.1006   11.5058 C   0  0  1  0  0  0  0  0  0  0  0  0
  -19.3024   15.2582   11.5861 C   0  0  2  0  0  0  0  0  0  0  0  0
  -19.3090   15.9563   12.9848 C   0  0  1  0  0  0  0  0  0  0  0  0
  -17.8812   16.3348   13.4808 C   0  0  0  0  0  0  0  0  0  0  0  0
  -16.8714   15.1535   13.3635 C   0  0  2  0  0  0  0  0  0  0  0  0
  -20.1950   17.1399   12.9769 N   0  0  0  0  0  0  0  0  0  0  0  0
  -15.5345   15.6081   13.8033 N   0  0  0  0  0  0  0  0  0  0  0  0
  -18.2500   13.5275   10.2025 O   0  0  0  0  0  0  0  0  0  0  0  0
  -20.6064   14.7839   11.2597 O   0  0  0  0  0  0  0  0  0  0  0  0
  1  2  1  0  0  0  0
  1 16  1  6  0  0  0
  2  3  1  0  0  0  0
  2 12  1  6  0  0  0
  4 11  1  6  0  0  0
  4  3  1  0  0  0  0
  5  4  1  0  0  0  0
  5 10  1  1  0  0  0
  6  7  1  0  0  0  0
  6  5  1  0  0  0  0
  6 14  1  1  0  0  0
  7  8  1  0  0  0  0
  7 13  1  6  0  0  0
  8 15  1  6  0  0  0
  8 11  1  0  0  0  0
  9 13  1  0  0  0  0
 10  1  1  0  0  0  0
 17 15  1  1  0  0  0
 17 18  1  0  0  0  0
 18 25  1  1  0  0  0
 19 18  1  0  0  0  0
 19 26  1  6  0  0  0
 20 19  1  0  0  0  0
 20 24  1  1  0  0  0
 21 23  1  0  0  0  0
 21 20  1  0  0  0  0
 21 22  1  6  0  0  0
 23 17  1  0  0  0  0
 27 22  1  0  0  0  0
 28 29  1  0  0  0  0
 28 16  1  1  0  0  0
 29 36  1  6  0  0  0
 30 37  1  1  0  0  0
 30 29  1  0  0  0  0
 31 30  1  0  0  0  0
 31 34  1  6  0  0  0
 32 31  1  0  0  0  0
 32 33  1  0  0  0  0
 33 28  1  0  0  0  0
 33 35  1  6  0  0  0
M  END
>  <CHROM.1>
52.82476884,-73.96802818,95.39431869,63.56549168,-69.92851474,-144.78356093
67.20616120,-136.64887169,57.17190683,136.47707141,64.00072182,-41.24970212
74.73441583,-55.62895693,-52.72361413,74.17806950,-15.34486103,10.35171196
9.51014665,-2.13506214,0.54361916,-2.22072154

>  <Name>
lig.pdb

>  <RI>
0

>  <Rbt.Current_Directory>
/home/afrankz/demos/rdock_decoys_rna/rnas/2m4q

>  <Rbt.Executable>
rbdock ($Id: //depot/dev/client3/rdock/2013.1/src/exe/rbdock.cxx#4 $)

>  <Rbt.Library>
libRbt.so (2013.1, Build901 2013/11/27)

>  <Rbt.Parameter_File>
/export/apps/rDock/src/rDock_2013.1_src/data/scripts/dock_solv.prm

>  <Rbt.Receptor>
prm/blind_docking_80.prm

>  <SCORE>
12.2282

>  <SCORE.INTER>
-1.21683

>  <SCORE.INTER.CONST>
1

>  <SCORE.INTER.POLAR>
-2.77222

>  <SCORE.INTER.ROT>
10

>  <SCORE.INTER.SOLV>
17.7624

>  <SCORE.INTER.VDW>
-7.75796

>  <SCORE.INTER.norm>
-0.0328873

>  <SCORE.INTRA>
-12.5327

>  <SCORE.INTRA.DIHEDRAL>
-25.1722

>  <SCORE.INTRA.DIHEDRAL.0>
44.8331

>  <SCORE.INTRA.POLAR>
-0.913907

>  <SCORE.INTRA.POLAR.0>
-0.108895

>  <SCORE.INTRA.REPUL>
-0.00912235

>  <SCORE.INTRA.REPUL.0>
0.00912235

>  <SCORE.INTRA.SOLV>
0.512772

>  <SCORE.INTRA.SOLV.lig_0>
-53.9067

>  <SCORE.INTRA.VDW>
2.9499

>  <SCORE.INTRA.VDW.0>
-2.93492

>  <SCORE.INTRA.norm>
-0.338722

>  <SCORE.RESTR>
25.9778

>  <SCORE.RESTR.CAVITY>
25.9778

>  <SCORE.RESTR.norm>
0.702102

>  <SCORE.SYSTEM>
0

>  <SCORE.SYSTEM.CONST>
0

>  <SCORE.SYSTEM.DIHEDRAL>
0

>  <SCORE.SYSTEM.SOLV>
0

>  <SCORE.SYSTEM.norm>
0

>  <SCORE.heavy>
37

>  <SCORE.norm>
0.330492

>  <RMSD>
17.140

$$$$
lig.pdb
 OpenBabel11021811453D
libRbt.so/2013.1/901 2013/11/27
 37 40  0  0  0  0  0  0  0  0999 V2000
  -12.8041    4.1088    7.6049 C   0  0  2  0  0  0  0  0  0  0  0  0
  -14.2418    3.6325    7.9965 C   0  0  1  0  0  0  0  0  0  0  0  0
  -15.3263    4.7344    7.8135 C   0  0  0  0  0  0  0  0  0  0  0  0
  -14.8809    6.0683    8.4626 C   0  0  1  0  0  0  0  0  0  0  0  0
  -13.5132    6.5017    7.8890 C   0  0  1  0  0  0  0  0  0  0  0  0
  -13.0637    7.8613    8.4883 C   0  0  1  0  0  0  0  0  0  0  0  0
  -14.1707    8.9420    8.3058 C   0  0  1  0  0  0  0  0  0  0  0  0
  -15.5572    8.4488    8.8165 C   0  0  2  0  0  0  0  0  0  0  0  0
  -13.6960   10.0421   10.4455 C   0  0  0  0  0  0  0  0  0  0  0  0
  -12.5205    5.4570    8.1018 O   0  0  0  0  0  0  0  0  0  0  0  0
  -15.8759    7.1198    8.3008 O   0  0  0  0  0  0  0  0  0  0  0  0
  -14.6066    2.4399    7.2014 N   0  0  0  0  0  0  0  0  0  0  0  0
  -13.7459   10.1890    8.9748 N   0  0  0  0  0  0  0  0  0  0  0  0
  -12.6953    7.7268    9.8550 O   0  0  0  0  0  0  0  0  0  0  0  0
  -16.5968    9.4121    8.4762 O   0  0  0  0  0  0  0  0  0  0  0  0
  -12.6020    4.0445    6.1601 O   0  0  0  0  0  0  0  0  0  0  0  0
  -17.6587    9.6635    9.4474 C   0  0  2  0  0  0  0  0  0  0  0  0
  -17.5825   11.1181    9.9923 C   0  0  1  0  0  0  0  0  0  0  0  0
  -16.3532   11.3204   10.9237 C   0  0  2  0  0  0  0  0  0  0  0  0
  -16.3193   10.2473   12.0503 C   0  0  1  0  0  0  0  0  0  0  0  0
  -16.4325    8.8119   11.4652 C   0  0  1  0  0  0  0  0  0  0  0  0
  -16.5375    7.7397   12.5813 C   0  0  0  0  0  0  0  0  0  0  0  0
  -17.5723    8.7208   10.5574 O   0  0  0  0  0  0  0  0  0  0  0  0
  -15.1156   10.3914   12.8982 N   0  0  0  0  0  0  0  0  0  0  0  0
  -17.5919   12.0567    8.9182 O   0  0  0  0  0  0  0  0  0  0  0  0
  -16.3310   12.6381   11.4683 O   0  0  0  0  0  0  0  0  0  0  0  0
  -16.1419    6.4612   12.0952 O   0  0  0  0  0  0  0  0  0  0  0  0
  -11.2320    4.0921    5.6651 C   0  0  1  0  0  0  0  0  0  0  0  0
  -10.9376    2.9460    4.6572 C   0  0  1  0  0  0  0  0  0  0  0  0
   -9.4468    2.9568    4.2163 C   0  0  2  0  0  0  0  0  0  0  0  0
   -8.9991    4.3480    3.6613 C   0  0  1  0  0  0  0  0  0  0  0  0
   -9.4029    5.5309    4.5915 C   0  0  0  0  0  0  0  0  0  0  0  0
  -10.8983    5.4702    5.0264 C   0  0  2  0  0  0  0  0  0  0  0  0
   -7.5455    4.3627    3.3912 N   0  0  0  0  0  0  0  0  0  0  0  0
  -11.1860    6.5931    5.9448 N   0  0  0  0  0  0  0  0  0  0  0  0
  -11.2927    1.6823    5.2091 O   0  0  0  0  0  0  0  0  0  0  0  0
   -9.2052    1.9346    3.2527 O   0  0  0  0  0  0  0  0  0  0  0  0
  1  2  1  0  0  0  0
  1 16  1  6  0  0  0
  2  3  1  0  0  0  0
  2 12  1  6  0  0  0
  4 11  1  6  0  0  0
  4  3  1  0  0  0  0
  5  4  1  0  0  0  0
  5 10  1  1  0  0  0
  6  7  1  0  0  0  0
  6  5  1  0  0  0  0
  6 14  1  1  0  0  0
  7  8  1  0  0  0  0
  7 13  1  1  0  0  0
  8 15  1  6  0  0  0
  8 11  1  0  0  0  0
  9 13  1  0  0  0  0
 10  1  1  0  0  0  0
 17 15  1  6  0  0  0
 17 18  1  0  0  0  0
 18 25  1  6  0  0  0
 19 18  1  0  0  0  0
 19 26  1  1  0  0  0
 20 19  1  0  0  0  0
 20 24  1  6  0  0  0
 21 23  1  0  0  0  0
 21 20  1  0  0  0  0
 21 22  1  1  0  0  0
 23 17  1  0  0  0  0
 27 22  1  0  0  0  0
 28 29  1  0  0  0  0
 28 16  1  6  0  0  0
 29 36  1  1  0  0  0
 30 37  1  6  0  0  0
 30 29  1  0  0  0  0
 31 30  1  0  0  0  0
 31 34  1  1  0  0  0
 32 31  1  0  0  0  0
 32 33  1  0  0  0  0
 33 28  1  0  0  0  0
 33 35  1  1  0  0  0
M  END
>  <CHROM.1>
64.90421230,-141.43355446,-67.64769173,-43.17833965,113.75163197,-163.32404566
-169.99448476,-63.33304788,-158.15014389,109.62222211,-178.20062065,129.86415656
64.73932327,-81.65279806,49.56001517,-75.16633795,-13.77551504,6.91721490
8.15075170,0.76468273,-0.67903514,-2.98144687

>  <Name>
lig.pdb

>  <RI>
0

>  <Rbt.Current_Directory>
/home/itssahil/PROJECTS/Mol_Feturizer/New_Systems/rnas/2m4q

>  <Rbt.Executable>
rbdock ($Id: //depot/dev/client3/rdock/2013.1/src/exe/rbdock.cxx#4 $)

>  <Rbt.Library>
libRbt.so (2013.1, Build901 2013/11/27)

>  <Rbt.Parameter_File>
/export/apps/rDock/src/rDock_2013.1_src/data/scripts/dock_solv.prm

>  <Rbt.Receptor>
prm/blind_docking_60.prm

>  <SCORE>
-24.9182

>  <SCORE.INTER>
-40.0716

>  <SCORE.INTER.CONST>
1

>  <SCORE.INTER.POLAR>
-6.35986

>  <SCORE.INTER.ROT>
10

>  <SCORE.INTER.SOLV>
22.9658

>  <SCORE.INTER.VDW>
-23.4368

>  <SCORE.INTER.norm>
-1.08302

>  <SCORE.INTRA>
0.449541

>  <SCORE.INTRA.DIHEDRAL>
-16.0274

>  <SCORE.INTRA.DIHEDRAL.0>
44.8331

>  <SCORE.INTRA.POLAR>
0.0661126

>  <SCORE.INTRA.POLAR.0>
-0.108895

>  <SCORE.INTRA.REPUL>
-0.00912235

>  <SCORE.INTRA.REPUL.0>
0.00912235

>  <SCORE.INTRA.SOLV>
0.74733

>  <SCORE.INTRA.SOLV.lig_0>
-53.9067

>  <SCORE.INTRA.VDW>
7.91038

>  <SCORE.INTRA.VDW.0>
-2.93492

>  <SCORE.INTRA.norm>
0.0121498

>  <SCORE.RESTR>
14.7038

>  <SCORE.RESTR.CAVITY>
14.7038

>  <SCORE.RESTR.norm>
0.3974

>  <SCORE.SYSTEM>
0

>  <SCORE.SYSTEM.CONST>
0

>  <SCORE.SYSTEM.DIHEDRAL>
0

>  <SCORE.SYSTEM.SOLV>
0

>  <SCORE.SYSTEM.norm>
0

>  <SCORE.heavy>
37

>  <SCORE.norm>
-0.673466

>  <RMSD>
17.171

$$$$
lig.pdb
 OpenBabel11021811453D
libRbt.so/2013.1/901 2013/11/27
 37 40  0  0  0  0  0  0  0  0999 V2000
  -14.1747    5.9048    4.2949 C   0  0  2  0  0  0  0  0  0  0  0  0
  -15.2609    6.9859    3.9813 C   0  0  1  0  0  0  0  0  0  0  0  0
  -15.5275    7.9537    5.1713 C   0  0  0  0  0  0  0  0  0  0  0  0
  -15.7478    7.1697    6.4888 C   0  0  1  0  0  0  0  0  0  0  0  0
  -14.5419    6.2417    6.7568 C   0  0  1  0  0  0  0  0  0  0  0  0
  -14.7145    5.4772    8.0968 C   0  0  1  0  0  0  0  0  0  0  0  0
  -14.9946    6.4655    9.2680 C   0  0  1  0  0  0  0  0  0  0  0  0
  -16.1607    7.4443    8.9390 C   0  0  2  0  0  0  0  0  0  0  0  0
  -14.6808    4.3315   10.4347 C   0  0  0  0  0  0  0  0  0  0  0  0
  -14.3405    5.3355    5.6341 O   0  0  0  0  0  0  0  0  0  0  0  0
  -15.9939    8.0522    7.6213 O   0  0  0  0  0  0  0  0  0  0  0  0
  -14.8613    7.7640    2.7886 N   0  0  0  0  0  0  0  0  0  0  0  0
  -15.2504    5.6946   10.5022 N   0  0  0  0  0  0  0  0  0  0  0  0
  -15.7334    4.4902    8.0008 O   0  0  0  0  0  0  0  0  0  0  0  0
  -16.2821    8.4588    9.9786 O   0  0  0  0  0  0  0  0  0  0  0  0
  -12.8283    6.4470    4.1341 O   0  0  0  0  0  0  0  0  0  0  0  0
  -16.2165    9.8656    9.5904 C   0  0  2  0  0  0  0  0  0  0  0  0
  -14.7445   10.3661    9.5556 C   0  0  1  0  0  0  0  0  0  0  0  0
  -14.1423   10.4837   10.9851 C   0  0  2  0  0  0  0  0  0  0  0  0
  -15.0539   11.3417   11.9097 C   0  0  1  0  0  0  0  0  0  0  0  0
  -16.5209   10.8291   11.8880 C   0  0  1  0  0  0  0  0  0  0  0  0
  -17.4682   11.7544   12.6961 C   0  0  0  0  0  0  0  0  0  0  0  0
  -16.9908   10.6889   10.5129 O   0  0  0  0  0  0  0  0  0  0  0  0
  -14.5226   11.4001   13.2892 N   0  0  0  0  0  0  0  0  0  0  0  0
  -13.9509    9.5305    8.7150 O   0  0  0  0  0  0  0  0  0  0  0  0
  -12.8158   11.0052   10.9438 O   0  0  0  0  0  0  0  0  0  0  0  0
  -16.9032   13.0528   12.8453 O   0  0  0  0  0  0  0  0  0  0  0  0
  -11.7168    5.5046    4.1127 C   0  0  1  0  0  0  0  0  0  0  0  0
  -10.6684    5.8664    3.0235 C   0  0  1  0  0  0  0  0  0  0  0  0
   -9.5424    4.7967    2.9524 C   0  0  2  0  0  0  0  0  0  0  0  0
   -8.8727    4.5426    4.3419 C   0  0  1  0  0  0  0  0  0  0  0  0
   -9.9094    4.3099    5.4817 C   0  0  0  0  0  0  0  0  0  0  0  0
  -11.0311    5.3915    5.5039 C   0  0  2  0  0  0  0  0  0  0  0  0
   -7.9134    3.4202    4.2651 N   0  0  0  0  0  0  0  0  0  0  0  0
  -11.9981    5.0707    6.5760 N   0  0  0  0  0  0  0  0  0  0  0  0
  -11.2923    6.0291    1.7539 O   0  0  0  0  0  0  0  0  0  0  0  0
   -8.5619    5.1695    1.9873 O   0  0  0  0  0  0  0  0  0  0  0  0
  1  2  1  0  0  0  0
  1 16  1  1  0  0  0
  2  3  1  0  0  0  0
  2 12  1  6  0  0  0
  4 11  1  1  0  0  0
  4  3  1  0  0  0  0
  5  4  1  0  0  0  0
  5 10  1  6  0  0  0
  6  7  1  0  0  0  0
  6  5  1  0  0  0  0
  6 14  1  6  0  0  0
  7  8  1  0  0  0  0
  7 13  1  1  0  0  0
  8 15  1  1  0  0  0
  8 11  1  0  0  0  0
  9 13  1  0  0  0  0
 10  1  1  0  0  0  0
 17 15  1  1  0  0  0
 17 18  1  0  0  0  0
 18 25  1  6  0  0  0
 19 18  1  0  0  0  0
 19 26  1  6  0  0  0
 20 19  1  0  0  0  0
 20 24  1  1  0  0  0
 21 23  1  0  0  0  0
 21 20  1  0  0  0  0
 21 22  1  1  0  0  0
 23 17  1  0  0  0  0
 27 22  1  0  0  0  0
 28 29  1  0  0  0  0
 28 16  1  1  0  0  0
 29 36  1  6  0  0  0
 30 37  1  6  0  0  0
 30 29  1  0  0  0  0
 31 30  1  0  0  0  0
 31 34  1  6  0  0  0
 32 31  1  0  0  0  0
 32 33  1  0  0  0  0
 33 28  1  0  0  0  0
 33 35  1  1  0  0  0
M  END
>  <CHROM.1>
-177.55055850,124.05257499,21.96479341,-54.59321748,-87.08809495,-167.34889589
72.23114734,-46.81011292,21.03200037,-65.97460530,-62.21719289,138.13187037
-178.52233911,-173.80245298,117.19726863,177.26287979,-13.81959876,7.43900257
7.43965024,1.07211078,0.12022986,-2.11764990

>  <Name>
lig.pdb

>  <RI>
1.95696e+07

>  <Rbt.Current_Directory>
/home/itssahil/PROJECTS/Mol_Feturizer/New_Systems/rnas/2m4q

>  <Rbt.Executable>
rbdock ($Id: //depot/dev/client3/rdock/2013.1/src/exe/rbdock.cxx#4 $)

>  <Rbt.Library>
libRbt.so (2013.1, Build901 2013/11/27)

>  <Rbt.Parameter_File>
/export/apps/rDock/src/rDock_2013.1_src/data/scripts/dock_solv.prm

>  <Rbt.Receptor>
prm/blind_docking_100.prm

>  <SCORE>
-10.7834

>  <SCORE.INTER>
-22.6833

>  <SCORE.INTER.CONST>
1

>  <SCORE.INTER.POLAR>
-4.6687

>  <SCORE.INTER.ROT>
10

>  <SCORE.INTER.SOLV>
16.4966

>  <SCORE.INTER.VDW>
-15.3254

>  <SCORE.INTER.norm>
-0.613062

>  <SCORE.INTRA>
0.0336347

>  <SCORE.INTRA.DIHEDRAL>
-18.0653

>  <SCORE.INTRA.DIHEDRAL.0>
44.8331

>  <SCORE.INTRA.POLAR>
-0.591485

>  <SCORE.INTRA.POLAR.0>
-0.108895

>  <SCORE.INTRA.REPUL>
0.0146903

>  <SCORE.INTRA.REPUL.0>
0.00912235

>  <SCORE.INTRA.SOLV>
0.626934

>  <SCORE.INTRA.SOLV.lig_0>
-53.9067

>  <SCORE.INTRA.VDW>
10.6904

>  <SCORE.INTRA.VDW.0>
-2.93492

>  <SCORE.INTRA.norm>
0.000909047

>  <SCORE.RESTR>
11.8662

>  <SCORE.RESTR.CAVITY>
11.8662

>  <SCORE.RESTR.norm>
0.320708

>  <SCORE.SYSTEM>
0

>  <SCORE.SYSTEM.CONST>
0

>  <SCORE.SYSTEM.DIHEDRAL>
0

>  <SCORE.SYSTEM.SOLV>
0

>  <SCORE.SYSTEM.norm>
0

>  <SCORE.heavy>
37

>  <SCORE.norm>
-0.291444

>  <RMSD>
17.179

$$$$
lig.pdb
 OpenBabel11021811453D
libRbt.so/2013.1/901 2013/11/27
 37 40  0  0  0  0  0  0  0  0999 V2000
  -13.7001    6.1191    3.8281 C   0  0  2  0  0  0  0  0  0  0  0  0
  -14.8850    6.9817    3.2813 C   0  0  1  0  0  0  0  0  0  0  0  0
  -15.4211    8.0160    4.3142 C   0  0  0  0  0  0  0  0  0  0  0  0
  -15.6783    7.3494    5.6884 C   0  0  1  0  0  0  0  0  0  0  0  0
  -14.3921    6.6509    6.1834 C   0  0  1  0  0  0  0  0  0  0  0  0
  -14.6078    6.0133    7.5822 C   0  0  1  0  0  0  0  0  0  0  0  0
  -15.1578    7.0636    8.5926 C   0  0  1  0  0  0  0  0  0  0  0  0
  -16.4051    7.8119    8.0352 C   0  0  2  0  0  0  0  0  0  0  0  0
  -14.5481    5.2420   10.1170 C   0  0  0  0  0  0  0  0  0  0  0  0
  -13.9367    5.6742    5.2033 O   0  0  0  0  0  0  0  0  0  0  0  0
  -16.1755    8.2971    6.6767 O   0  0  0  0  0  0  0  0  0  0  0  0
  -14.4650    7.6830    2.0487 N   0  0  0  0  0  0  0  0  0  0  0  0
  -15.4422    6.3958    9.8796 N   0  0  0  0  0  0  0  0  0  0  0  0
  -15.4588    4.8768    7.5061 O   0  0  0  0  0  0  0  0  0  0  0  0
  -16.7876    8.8987    8.9281 O   0  0  0  0  0  0  0  0  0  0  0  0
  -12.4346    6.8419    3.7362 O   0  0  0  0  0  0  0  0  0  0  0  0
  -16.2087   10.2210    8.7040 C   0  0  2  0  0  0  0  0  0  0  0  0
  -14.6707   10.2023    8.9340 C   0  0  1  0  0  0  0  0  0  0  0  0
  -14.3156   10.0372   10.4395 C   0  0  2  0  0  0  0  0  0  0  0  0
  -15.0467   11.1007   11.3090 C   0  0  1  0  0  0  0  0  0  0  0  0
  -16.5743   11.1094   11.0229 C   0  0  1  0  0  0  0  0  0  0  0  0
  -17.2974   12.2543   11.7797 C   0  0  0  0  0  0  0  0  0  0  0  0
  -16.8228   11.2062    9.5875 O   0  0  0  0  0  0  0  0  0  0  0  0
  -14.7681   10.9062   12.7488 N   0  0  0  0  0  0  0  0  0  0  0  0
  -14.0565    9.1947    8.1325 O   0  0  0  0  0  0  0  0  0  0  0  0
  -12.9053   10.0871   10.6443 O   0  0  0  0  0  0  0  0  0  0  0  0
  -18.2798   12.8683   10.9520 O   0  0  0  0  0  0  0  0  0  0  0  0
  -11.2074    6.0913    3.9697 C   0  0  1  0  0  0  0  0  0  0  0  0
  -10.9409    5.8691    5.4849 C   0  0  1  0  0  0  0  0  0  0  0  0
   -9.5805    5.1525    5.7152 C   0  0  2  0  0  0  0  0  0  0  0  0
   -9.4623    3.8219    4.9031 C   0  0  1  0  0  0  0  0  0  0  0  0
   -9.8553    3.9887    3.4046 C   0  0  0  0  0  0  0  0  0  0  0  0
  -11.2136    4.7297    3.2184 C   0  0  2  0  0  0  0  0  0  0  0  0
   -8.1061    3.2471    5.0312 N   0  0  0  0  0  0  0  0  0  0  0  0
  -11.4872    4.8928    1.7741 N   0  0  0  0  0  0  0  0  0  0  0  0
  -10.9891    7.1028    6.1941 O   0  0  0  0  0  0  0  0  0  0  0  0
   -9.3755    4.9082    7.1045 O   0  0  0  0  0  0  0  0  0  0  0  0
  1  2  1  0  0  0  0
  1 16  1  1  0  0  0
  2  3  1  0  0  0  0
  2 12  1  6  0  0  0
  4 11  1  1  0  0  0
  4  3  1  0  0  0  0
  5  4  1  0  0  0  0
  5 10  1  6  0  0  0
  6  7  1  0  0  0  0
  6  5  1  0  0  0  0
  6 14  1  6  0  0  0
  7  8  1  0  0  0  0
  7 13  1  1  0  0  0
  8 15  1  1  0  0  0
  8 11  1  0  0  0  0
  9 13  1  0  0  0  0
 10  1  1  0  0  0  0
 17 15  1  1  0  0  0
 17 18  1  0  0  0  0
 18 25  1  6  0  0  0
 19 18  1  0  0  0  0
 19 26  1  6  0  0  0
 20 19  1  0  0  0  0
 20 24  1  1  0  0  0
 21 23  1  0  0  0  0
 21 20  1  0  0  0  0
 21 22  1  1  0  0  0
 23 17  1  0  0  0  0
 27 22  1  0  0  0  0
 28 29  1  0  0  0  0
 28 16  1  1  0  0  0
 29 36  1  1  0  0  0
 30 37  1  1  0  0  0
 30 29  1  0  0  0  0
 31 30  1  0  0  0  0
 31 34  1  6  0  0  0
 32 31  1  0  0  0  0
 32 33  1  0  0  0  0
 33 28  1  0  0  0  0
 33 35  1  6  0  0  0
M  END
>  <CHROM.1>
79.19888688,90.40719427,29.89475150,67.57977074,-64.83915228,-168.79825490
166.82581418,-70.82487040,139.04668426,-31.39211265,-61.52219776,-78.94980019
-63.01866208,163.80122883,-44.73238166,-179.08221178,-13.83825330,7.55226863
7.12447753,0.92061528,0.53501498,-1.92493014

>  <Name>
lig.pdb

>  <RI>
0

>  <Rbt.Current_Directory>
/home/itssahil/PROJECTS/Mol_Feturizer/New_Systems/rnas/2m4q

>  <Rbt.Executable>
rbdock ($Id: //depot/dev/client3/rdock/2013.1/src/exe/rbdock.cxx#4 $)

>  <Rbt.Library>
libRbt.so (2013.1, Build901 2013/11/27)

>  <Rbt.Parameter_File>
/export/apps/rDock/src/rDock_2013.1_src/data/scripts/dock_solv.prm

>  <Rbt.Receptor>
prm/blind_docking_60.prm

>  <SCORE>
-20.2601

>  <SCORE.INTER>
-32.9845

>  <SCORE.INTER.CONST>
1

>  <SCORE.INTER.POLAR>
-7.23638

>  <SCORE.INTER.ROT>
10

>  <SCORE.INTER.SOLV>
20.6297

>  <SCORE.INTER.VDW>
-15.0117

>  <SCORE.INTER.norm>
-0.891474

>  <SCORE.INTRA>
-4.68764

>  <SCORE.INTRA.DIHEDRAL>
-28.1377

>  <SCORE.INTRA.DIHEDRAL.0>
44.8331

>  <SCORE.INTRA.POLAR>
-0.146457

>  <SCORE.INTRA.POLAR.0>
-0.108895

>  <SCORE.INTRA.REPUL>
-0.00912235

>  <SCORE.INTRA.REPUL.0>
0.00912235

>  <SCORE.INTRA.SOLV>
0.81527

>  <SCORE.INTRA.SOLV.lig_0>
-53.9067

>  <SCORE.INTRA.VDW>
9.51714

>  <SCORE.INTRA.VDW.0>
-2.93492

>  <SCORE.INTRA.norm>
-0.126693

>  <SCORE.RESTR>
17.4121

>  <SCORE.RESTR.CAVITY>
17.4121

>  <SCORE.RESTR.norm>
0.470598

>  <SCORE.SYSTEM>
0

>  <SCORE.SYSTEM.CONST>
0

>  <SCORE.SYSTEM.DIHEDRAL>
0

>  <SCORE.SYSTEM.SOLV>
0

>  <SCORE.SYSTEM.norm>
0

>  <SCORE.heavy>
37

>  <SCORE.norm>
-0.547569

>  <RMSD>
17.190

$$$$
lig.pdb
 OpenBabel11021811453D
libRbt.so/2013.1/901 2013/11/27
 37 40  0  0  0  0  0  0  0  0999 V2000
  -12.8704    3.8063    7.4059 C   0  0  2  0  0  0  0  0  0  0  0  0
  -14.0061    3.1687    8.2723 C   0  0  1  0  0  0  0  0  0  0  0  0
  -15.0987    4.1907    8.7032 C   0  0  0  0  0  0  0  0  0  0  0  0
  -14.4613    5.4695    9.3008 C   0  0  1  0  0  0  0  0  0  0  0  0
  -13.4631    6.0807    8.2922 C   0  0  1  0  0  0  0  0  0  0  0  0
  -12.8430    7.3912    8.8468 C   0  0  1  0  0  0  0  0  0  0  0  0
  -13.9554    8.3903    9.2842 C   0  0  1  0  0  0  0  0  0  0  0  0
  -14.9950    7.7260   10.2351 C   0  0  2  0  0  0  0  0  0  0  0  0
  -14.0182   10.8305    9.5186 C   0  0  0  0  0  0  0  0  0  0  0  0
  -12.4433    5.1041    7.9335 O   0  0  0  0  0  0  0  0  0  0  0  0
  -15.4623    6.4466    9.7075 O   0  0  0  0  0  0  0  0  0  0  0  0
  -14.6341    2.0539    7.5305 N   0  0  0  0  0  0  0  0  0  0  0  0
  -13.3263    9.5791    9.8957 N   0  0  0  0  0  0  0  0  0  0  0  0
  -11.9413    7.1250    9.9134 O   0  0  0  0  0  0  0  0  0  0  0  0
  -16.1078    8.6334   10.4859 O   0  0  0  0  0  0  0  0  0  0  0  0
  -13.2793    3.9326    6.0097 O   0  0  0  0  0  0  0  0  0  0  0  0
  -16.4434    8.9587   11.8699 C   0  0  2  0  0  0  0  0  0  0  0  0
  -17.8131    9.6904   11.9540 C   0  0  1  0  0  0  0  0  0  0  0  0
  -17.7306   11.1345   11.3817 C   0  0  2  0  0  0  0  0  0  0  0  0
  -16.5724   11.9358   12.0437 C   0  0  1  0  0  0  0  0  0  0  0  0
  -15.2311   11.1544   11.9682 C   0  0  1  0  0  0  0  0  0  0  0  0
  -14.0973   11.8767   12.7422 C   0  0  0  0  0  0  0  0  0  0  0  0
  -15.4062    9.7934   12.4666 O   0  0  0  0  0  0  0  0  0  0  0  0
  -16.4442   13.2869   11.4549 N   0  0  0  0  0  0  0  0  0  0  0  0
  -18.8305    8.9245   11.3114 O   0  0  0  0  0  0  0  0  0  0  0  0
  -18.9747   11.8167   11.5242 O   0  0  0  0  0  0  0  0  0  0  0  0
  -14.5025   12.1747   14.0743 O   0  0  0  0  0  0  0  0  0  0  0  0
  -12.2309    3.9769    4.9983 C   0  0  1  0  0  0  0  0  0  0  0  0
  -11.0402    4.8762    5.4338 C   0  0  1  0  0  0  0  0  0  0  0  0
   -9.9791    4.9873    4.3030 C   0  0  2  0  0  0  0  0  0  0  0  0
   -9.4967    3.5885    3.7983 C   0  0  1  0  0  0  0  0  0  0  0  0
  -10.6743    2.6185    3.4818 C   0  0  0  0  0  0  0  0  0  0  0  0
  -11.7246    2.5531    4.6313 C   0  0  2  0  0  0  0  0  0  0  0  0
   -8.6032    3.7316    2.6290 N   0  0  0  0  0  0  0  0  0  0  0  0
  -12.8302    1.6554    4.2324 N   0  0  0  0  0  0  0  0  0  0  0  0
  -11.4969    6.1662    5.8273 O   0  0  0  0  0  0  0  0  0  0  0  0
   -8.8698    5.7704    4.7364 O   0  0  0  0  0  0  0  0  0  0  0  0
  1  2  1  0  0  0  0
  1 16  1  6  0  0  0
  2  3  1  0  0  0  0
  2 12  1  6  0  0  0
  4 11  1  6  0  0  0
  4  3  1  0  0  0  0
  5  4  1  0  0  0  0
  5 10  1  1  0  0  0
  6  7  1  0  0  0  0
  6  5  1  0  0  0  0
  6 14  1  1  0  0  0
  7  8  1  0  0  0  0
  7 13  1  1  0  0  0
  8 15  1  6  0  0  0
  8 11  1  0  0  0  0
  9 13  1  0  0  0  0
 10  1  1  0  0  0  0
 17 15  1  6  0  0  0
 17 18  1  0  0  0  0
 18 25  1  6  0  0  0
 19 18  1  0  0  0  0
 19 26  1  1  0  0  0
 20 19  1  0  0  0  0
 20 24  1  6  0  0  0
 21 23  1  0  0  0  0
 21 20  1  0  0  0  0
 21 22  1  1  0  0  0
 23 17  1  0  0  0  0
 27 22  1  0  0  0  0
 28 29  1  0  0  0  0
 28 16  1  1  0  0  0
 29 36  1  6  0  0  0
 30 37  1  1  0  0  0
 30 29  1  0  0  0  0
 31 30  1  0  0  0  0
 31 34  1  6  0  0  0
 32 31  1  0  0  0  0
 32 33  1  0  0  0  0
 33 28  1  0  0  0  0
 33 35  1  6  0  0  0
M  END
>  <CHROM.1>
71.97600645,-124.81325825,141.16412803,-82.13213662,-168.36152230,-155.46542577
176.88436620,-60.42888434,52.41245767,-40.59925014,-61.29902077,-42.41636338
80.38890989,-34.41323421,-55.54094982,-54.73785297,-13.85475761,7.08461243
8.62285325,1.02076537,-0.50593086,-2.66486267

>  <Name>
lig.pdb

>  <RI>
0

>  <Rbt.Current_Directory>
/home/itssahil/PROJECTS/Mol_Feturizer/New_Systems/rnas/2m4q

>  <Rbt.Executable>
rbdock ($Id: //depot/dev/client3/rdock/2013.1/src/exe/rbdock.cxx#4 $)

>  <Rbt.Library>
libRbt.so (2013.1, Build901 2013/11/27)

>  <Rbt.Parameter_File>
/export/apps/rDock/src/rDock_2013.1_src/data/scripts/dock_solv.prm

>  <Rbt.Receptor>
prm/blind_docking_60.prm

>  <SCORE>
6.01299

>  <SCORE.INTER>
-0.921441

>  <SCORE.INTER.CONST>
1

>  <SCORE.INTER.POLAR>
-2.50714

>  <SCORE.INTER.ROT>
10

>  <SCORE.INTER.SOLV>
19.7557

>  <SCORE.INTER.VDW>
-9.10908

>  <SCORE.INTER.norm>
-0.0249038

>  <SCORE.INTRA>
-9.50715

>  <SCORE.INTRA.DIHEDRAL>
-23.1215

>  <SCORE.INTRA.DIHEDRAL.0>
44.8331

>  <SCORE.INTRA.POLAR>
-0.887351

>  <SCORE.INTRA.POLAR.0>
-0.108895

>  <SCORE.INTRA.REPUL>
0.0315159

>  <SCORE.INTRA.REPUL.0>
0.00912235

>  <SCORE.INTRA.SOLV>
0.363603

>  <SCORE.INTRA.SOLV.lig_0>
-53.9067

>  <SCORE.INTRA.VDW>
4.73121

>  <SCORE.INTRA.VDW.0>
-2.93492

>  <SCORE.INTRA.norm>
-0.25695

>  <SCORE.RESTR>
16.4416

>  <SCORE.RESTR.CAVITY>
16.4416

>  <SCORE.RESTR.norm>
0.444367

>  <SCORE.SYSTEM>
0

>  <SCORE.SYSTEM.CONST>
0

>  <SCORE.SYSTEM.DIHEDRAL>
0

>  <SCORE.SYSTEM.SOLV>
0

>  <SCORE.SYSTEM.norm>
0

>  <SCORE.heavy>
37

>  <SCORE.norm>
0.162513

>  <RMSD>
17.198

$$$$
lig.pdb
 OpenBabel11021811453D
libRbt.so/2013.1/901 2013/11/27
 37 40  0  0  0  0  0  0  0  0999 V2000
  -13.1519    3.8642    7.2436 C   0  0  2  0  0  0  0  0  0  0  0  0
  -14.6842    3.5794    7.3771 C   0  0  1  0  0  0  0  0  0  0  0  0
  -15.5552    4.8693    7.3429 C   0  0  0  0  0  0  0  0  0  0  0  0
  -15.0030    5.9407    8.3156 C   0  0  1  0  0  0  0  0  0  0  0  0
  -13.5216    6.2342    7.9893 C   0  0  1  0  0  0  0  0  0  0  0  0
  -12.9548    7.3398    8.9199 C   0  0  1  0  0  0  0  0  0  0  0  0
  -13.8512    8.6133    8.8793 C   0  0  1  0  0  0  0  0  0  0  0  0
  -15.3518    8.2786    9.1294 C   0  0  2  0  0  0  0  0  0  0  0  0
  -14.0482   10.8932    9.7608 C   0  0  0  0  0  0  0  0  0  0  0  0
  -12.7358    5.0094    8.0563 O   0  0  0  0  0  0  0  0  0  0  0  0
  -15.7968    7.1620    8.2994 O   0  0  0  0  0  0  0  0  0  0  0  0
  -15.1167    2.6597    6.3024 N   0  0  0  0  0  0  0  0  0  0  0  0
  -13.3350    9.6007    9.8497 N   0  0  0  0  0  0  0  0  0  0  0  0
  -12.7959    6.8638   10.2502 O   0  0  0  0  0  0  0  0  0  0  0  0
  -16.1789    9.4596    8.9160 O   0  0  0  0  0  0  0  0  0  0  0  0
  -12.7717    4.0641    5.8478 O   0  0  0  0  0  0  0  0  0  0  0  0
  -17.3607    9.6435    9.7547 C   0  0  2  0  0  0  0  0  0  0  0  0
  -17.4634   11.1110   10.2590 C   0  0  1  0  0  0  0  0  0  0  0  0
  -16.3676   11.4350   11.3147 C   0  0  2  0  0  0  0  0  0  0  0  0
  -16.3761   10.3934   12.4709 C   0  0  1  0  0  0  0  0  0  0  0  0
  -16.3073    8.9411   11.9219 C   0  0  1  0  0  0  0  0  0  0  0  0
  -16.4521    7.8887   13.0524 C   0  0  0  0  0  0  0  0  0  0  0  0
  -17.3258    8.7358   10.8963 O   0  0  0  0  0  0  0  0  0  0  0  0
  -15.2917   10.6554   13.4425 N   0  0  0  0  0  0  0  0  0  0  0  0
  -17.4258   12.0217    9.1618 O   0  0  0  0  0  0  0  0  0  0  0  0
  -16.5127   12.7617   11.8169 O   0  0  0  0  0  0  0  0  0  0  0  0
  -15.8420    8.3479   14.2541 O   0  0  0  0  0  0  0  0  0  0  0  0
  -11.3566    3.9734    5.5117 C   0  0  1  0  0  0  0  0  0  0  0  0
  -11.0750    2.8457    4.4796 C   0  0  1  0  0  0  0  0  0  0  0  0
   -9.5508    2.7022    4.2084 C   0  0  2  0  0  0  0  0  0  0  0  0
   -8.8902    4.0546    3.7861 C   0  0  1  0  0  0  0  0  0  0  0  0
   -9.2666    5.2349    4.7311 C   0  0  0  0  0  0  0  0  0  0  0  0
  -10.8000    5.3297    4.9929 C   0  0  2  0  0  0  0  0  0  0  0  0
   -7.4224    3.9118    3.6805 N   0  0  0  0  0  0  0  0  0  0  0  0
  -11.0671    6.4375    5.9357 N   0  0  0  0  0  0  0  0  0  0  0  0
  -11.6297    1.6092    4.9162 O   0  0  0  0  0  0  0  0  0  0  0  0
   -9.3129    1.7017    3.2214 O   0  0  0  0  0  0  0  0  0  0  0  0
  1  2  1  0  0  0  0
  1 16  1  6  0  0  0
  2  3  1  0  0  0  0
  2 12  1  6  0  0  0
  4 11  1  6  0  0  0
  4  3  1  0  0  0  0
  5  4  1  0  0  0  0
  5 10  1  1  0  0  0
  6  7  1  0  0  0  0
  6  5  1  0  0  0  0
  6 14  1  1  0  0  0
  7  8  1  0  0  0  0
  7 13  1  1  0  0  0
  8 15  1  6  0  0  0
  8 11  1  0  0  0  0
  9 13  1  0  0  0  0
 10  1  1  0  0  0  0
 17 15  1  1  0  0  0
 17 18  1  0  0  0  0
 18 25  1  6  0  0  0
 19 18  1  0  0  0  0
 19 26  1  1  0  0  0
 20 19  1  0  0  0  0
 20 24  1  1  0  0  0
 21 23  1  0  0  0  0
 21 20  1  0  0  0  0
 21 22  1  1  0  0  0
 23 17  1  0  0  0  0
 27 22  1  0  0  0  0
 28 29  1  0  0  0  0
 28 16  1  6  0  0  0
 29 36  1  1  0  0  0
 30 37  1  6  0  0  0
 30 29  1  0  0  0  0
 31 30  1  0  0  0  0
 31 34  1  1  0  0  0
 32 31  1  0  0  0  0
 32 33  1  0  0  0  0
 33 28  1  0  0  0  0
 33 35  1  1  0  0  0
M  END
>  <CHROM.1>
72.98807387,-145.40779987,173.74717467,170.67674454,135.33745994,-163.49672215
-47.62962214,64.34239466,-34.66773789,-109.74221364,-84.94150484,119.84026323
64.95392110,-92.56900032,-80.06670216,137.10696379,-13.77836762,6.88371108
8.30584666,0.91637909,-0.55731085,-2.75729423

>  <Name>
lig.pdb

>  <RI>
0

>  <Rbt.Current_Directory>
/home/itssahil/PROJECTS/Mol_Feturizer/New_Systems/rnas/2m4q

>  <Rbt.Executable>
rbdock ($Id: //depot/dev/client3/rdock/2013.1/src/exe/rbdock.cxx#4 $)

>  <Rbt.Library>
libRbt.so (2013.1, Build901 2013/11/27)

>  <Rbt.Parameter_File>
/export/apps/rDock/src/rDock_2013.1_src/data/scripts/dock_solv.prm

>  <Rbt.Receptor>
prm/blind_docking_60.prm

>  <SCORE>
-18.1621

>  <SCORE.INTER>
-33.2201

>  <SCORE.INTER.CONST>
1

>  <SCORE.INTER.POLAR>
-6.82077

>  <SCORE.INTER.ROT>
10

>  <SCORE.INTER.SOLV>
22.238

>  <SCORE.INTER.VDW>
-17.0902

>  <SCORE.INTER.norm>
-0.897841

>  <SCORE.INTRA>
-1.88966

>  <SCORE.INTRA.DIHEDRAL>
-10.4287

>  <SCORE.INTRA.DIHEDRAL.0>
44.8331

>  <SCORE.INTRA.POLAR>
-0.53697

>  <SCORE.INTRA.POLAR.0>
-0.108895

>  <SCORE.INTRA.REPUL>
-0.00912235

>  <SCORE.INTRA.REPUL.0>
0.00912235

>  <SCORE.INTRA.SOLV>
0.678376

>  <SCORE.INTRA.SOLV.lig_0>
-53.9067

>  <SCORE.INTRA.VDW>
4.8568

>  <SCORE.INTRA.VDW.0>
-2.93492

>  <SCORE.INTRA.norm>
-0.0510718

>  <SCORE.RESTR>
16.9477

>  <SCORE.RESTR.CAVITY>
16.9477

>  <SCORE.RESTR.norm>
0.458046

>  <SCORE.SYSTEM>
0

>  <SCORE.SYSTEM.CONST>
0

>  <SCORE.SYSTEM.DIHEDRAL>
0

>  <SCORE.SYSTEM.SOLV>
0

>  <SCORE.SYSTEM.norm>
0

>  <SCORE.heavy>
37

>  <SCORE.norm>
-0.490867

>  <RMSD>
17.227

$$$$
lig.pdb
 OpenBabel11021811453D
libRbt.so/2013.1/901 2013/11/27
 37 40  0  0  0  0  0  0  0  0999 V2000
  -10.0043   -7.5866    8.7407 C   0  0  2  0  0  0  0  0  0  0  0  0
   -9.8529   -6.0840    8.3330 C   0  0  1  0  0  0  0  0  0  0  0  0
   -8.6508   -5.3767    9.0248 C   0  0  0  0  0  0  0  0  0  0  0  0
   -8.6507   -5.6424   10.5507 C   0  0  1  0  0  0  0  0  0  0  0  0
   -8.6596   -7.1639   10.8199 C   0  0  1  0  0  0  0  0  0  0  0  0
   -8.6124   -7.4602   12.3429 C   0  0  1  0  0  0  0  0  0  0  0  0
   -7.4109   -6.7301   13.0138 C   0  0  1  0  0  0  0  0  0  0  0  0
   -7.3781   -5.2137   12.6593 C   0  0  2  0  0  0  0  0  0  0  0  0
   -8.4283   -6.0622   15.1428 C   0  0  0  0  0  0  0  0  0  0  0  0
   -9.8109   -7.7850   10.1789 O   0  0  0  0  0  0  0  0  0  0  0  0
   -7.5316   -4.9962   11.2230 O   0  0  0  0  0  0  0  0  0  0  0  0
   -9.7138   -5.9767    6.8644 N   0  0  0  0  0  0  0  0  0  0  0  0
   -7.4595   -6.9566   14.4731 N   0  0  0  0  0  0  0  0  0  0  0  0
   -9.8401   -7.1190   12.9738 O   0  0  0  0  0  0  0  0  0  0  0  0
   -6.1541   -4.6005   13.1598 O   0  0  0  0  0  0  0  0  0  0  0  0
   -9.0895   -8.4345    7.9812 O   0  0  0  0  0  0  0  0  0  0  0  0
   -6.2580   -3.6067   14.2254 C   0  0  2  0  0  0  0  0  0  0  0  0
   -5.3849   -2.3588   13.9105 C   0  0  1  0  0  0  0  0  0  0  0  0
   -3.8661   -2.6749   14.0249 C   0  0  2  0  0  0  0  0  0  0  0  0
   -3.5288   -3.3208   15.4000 C   0  0  1  0  0  0  0  0  0  0  0  0
   -4.4463   -4.5413   15.6899 C   0  0  1  0  0  0  0  0  0  0  0  0
   -4.2157   -5.1122   17.1137 C   0  0  0  0  0  0  0  0  0  0  0  0
   -5.8484   -4.1797   15.5030 O   0  0  0  0  0  0  0  0  0  0  0  0
   -2.0983   -3.6875   15.4887 N   0  0  0  0  0  0  0  0  0  0  0  0
   -5.7185   -1.8239   12.6310 O   0  0  0  0  0  0  0  0  0  0  0  0
   -3.0787   -1.5079   13.7982 O   0  0  0  0  0  0  0  0  0  0  0  0
   -4.2695   -4.0772   18.0900 O   0  0  0  0  0  0  0  0  0  0  0  0
   -9.4559   -8.7686    6.6108 C   0  0  1  0  0  0  0  0  0  0  0  0
   -8.5522   -9.8888    6.0237 C   0  0  1  0  0  0  0  0  0  0  0  0
   -8.8959  -10.1618    4.5322 C   0  0  2  0  0  0  0  0  0  0  0  0
  -10.4138  -10.4668    4.3161 C   0  0  1  0  0  0  0  0  0  0  0  0
  -11.3460   -9.4296    5.0111 C   0  0  0  0  0  0  0  0  0  0  0  0
  -10.9540   -9.1699    6.4969 C   0  0  2  0  0  0  0  0  0  0  0  0
  -10.7278  -10.5751    2.8754 N   0  0  0  0  0  0  0  0  0  0  0  0
  -11.8504   -8.1403    7.0659 N   0  0  0  0  0  0  0  0  0  0  0  0
   -7.1751   -9.5593    6.1733 O   0  0  0  0  0  0  0  0  0  0  0  0
   -8.0963  -11.2268    4.0240 O   0  0  0  0  0  0  0  0  0  0  0  0
  1  2  1  0  0  0  0
  1 16  1  6  0  0  0
  2  3  1  0  0  0  0
  2 12  1  6  0  0  0
  4 11  1  6  0  0  0
  4  3  1  0  0  0  0
  5  4  1  0  0  0  0
  5 10  1  1  0  0  0
  6  7  1  0  0  0  0
  6  5  1  0  0  0  0
  6 14  1  1  0  0  0
  7  8  1  0  0  0  0
  7 13  1  1  0  0  0
  8 15  1  6  0  0  0
  8 11  1  0  0  0  0
  9 13  1  0  0  0  0
 10  1  1  0  0  0  0
 17 15  1  6  0  0  0
 17 18  1  0  0  0  0
 18 25  1  6  0  0  0
 19 18  1  0  0  0  0
 19 26  1  1  0  0  0
 20 19  1  0  0  0  0
 20 24  1  6  0  0  0
 21 23  1  0  0  0  0
 21 20  1  0  0  0  0
 21 22  1  1  0  0  0
 23 17  1  0  0  0  0
 27 22  1  0  0  0  0
 28 29  1  0  0  0  0
 28 16  1  1  0  0  0
 29 36  1  6  0  0  0
 30 37  1  1  0  0  0
 30 29  1  0  0  0  0
 31 30  1  0  0  0  0
 31 34  1  6  0  0  0
 32 31  1  0  0  0  0
 32 33  1  0  0  0  0
 33 28  1  0  0  0  0
 33 35  1  6  0  0  0
M  END
>  <CHROM.1>
-57.12972683,-113.49165303,-80.12151390,-55.71567534,-133.85523988,-78.21688624
-169.49123240,-158.58359677,50.35353383,176.00790064,-165.59516298,-168.67131680
66.71015973,-55.26554350,-162.91680924,30.76760346,-7.62197716,-6.40097389
10.73828307,2.08823626,-0.57537055,-1.79986793

>  <Name>
lig.pdb

>  <RI>
0

>  <Rbt.Current_Directory>
/home/afrankz/demos/rdock_decoys_rna/rnas/2m4q

>  <Rbt.Executable>
rbdock ($Id: //depot/dev/client3/rdock/2013.1/src/exe/rbdock.cxx#4 $)

>  <Rbt.Library>
libRbt.so (2013.1, Build901 2013/11/27)

>  <Rbt.Parameter_File>
/export/apps/rDock/src/rDock_2013.1_src/data/scripts/dock_solv.prm

>  <Rbt.Receptor>
prm/blind_docking_40.prm

>  <SCORE>
-5.63557

>  <SCORE.INTER>
-19.1598

>  <SCORE.INTER.CONST>
1

>  <SCORE.INTER.POLAR>
-3.77238

>  <SCORE.INTER.ROT>
10

>  <SCORE.INTER.SOLV>
21.5783

>  <SCORE.INTER.VDW>
-17.6581

>  <SCORE.INTER.norm>
-0.517834

>  <SCORE.INTRA>
-4.12377

>  <SCORE.INTRA.DIHEDRAL>
-22.4859

>  <SCORE.INTRA.DIHEDRAL.0>
44.8331

>  <SCORE.INTRA.POLAR>
-0.929466

>  <SCORE.INTRA.POLAR.0>
-0.108895

>  <SCORE.INTRA.REPUL>
0.0245963

>  <SCORE.INTRA.REPUL.0>
0.00912235

>  <SCORE.INTRA.SOLV>
0.287987

>  <SCORE.INTRA.SOLV.lig_0>
-53.9067

>  <SCORE.INTRA.VDW>
10.0124

>  <SCORE.INTRA.VDW.0>
-2.93492

>  <SCORE.INTRA.norm>
-0.111453

>  <SCORE.RESTR>
17.648

>  <SCORE.RESTR.CAVITY>
17.648

>  <SCORE.RESTR.norm>
0.476974

>  <SCORE.SYSTEM>
0

>  <SCORE.SYSTEM.CONST>
0

>  <SCORE.SYSTEM.DIHEDRAL>
0

>  <SCORE.SYSTEM.SOLV>
0

>  <SCORE.SYSTEM.norm>
0

>  <SCORE.heavy>
37

>  <SCORE.norm>
-0.152313

>  <RMSD>
17.281

$$$$
lig.pdb
 OpenBabel11021811453D
libRbt.so/2013.1/901 2013/11/27
 37 40  0  0  0  0  0  0  0  0999 V2000
  -13.0571    4.8582    7.2154 C   0  0  2  0  0  0  0  0  0  0  0  0
  -14.6077    4.6554    7.1760 C   0  0  1  0  0  0  0  0  0  0  0  0
  -15.4056    5.9875    7.2883 C   0  0  0  0  0  0  0  0  0  0  0  0
  -14.8895    6.8488    8.4676 C   0  0  1  0  0  0  0  0  0  0  0  0
  -13.3717    7.0947    8.3148 C   0  0  1  0  0  0  0  0  0  0  0  0
  -12.8355    7.9956    9.4596 C   0  0  1  0  0  0  0  0  0  0  0  0
  -13.6589    9.3141    9.5607 C   0  0  1  0  0  0  0  0  0  0  0  0
  -15.1909    9.0413    9.6301 C   0  0  2  0  0  0  0  0  0  0  0  0
  -13.4144   11.5457   10.5476 C   0  0  0  0  0  0  0  0  0  0  0  0
  -12.6582    5.8269    8.2389 O   0  0  0  0  0  0  0  0  0  0  0  0
  -15.6156    8.1054    8.5921 O   0  0  0  0  0  0  0  0  0  0  0  0
  -14.9879    3.9523    5.9316 N   0  0  0  0  0  0  0  0  0  0  0  0
  -13.1826   10.0954   10.7208 N   0  0  0  0  0  0  0  0  0  0  0  0
  -12.8211    7.3008   10.7000 O   0  0  0  0  0  0  0  0  0  0  0  0
  -15.9346   10.2924    9.5515 O   0  0  0  0  0  0  0  0  0  0  0  0
  -12.5434    5.2568    5.9078 O   0  0  0  0  0  0  0  0  0  0  0  0
  -17.1073   10.4609   10.4062 C   0  0  2  0  0  0  0  0  0  0  0  0
  -17.5634   11.9473   10.4399 C   0  0  1  0  0  0  0  0  0  0  0  0
  -16.5620   12.8391   11.2285 C   0  0  2  0  0  0  0  0  0  0  0  0
  -16.2857   12.2563   12.6448 C   0  0  1  0  0  0  0  0  0  0  0  0
  -15.8670   10.7616   12.5676 C   0  0  1  0  0  0  0  0  0  0  0  0
  -15.7206   10.1291   13.9764 C   0  0  0  0  0  0  0  0  0  0  0  0
  -16.8228   10.0062   11.7629 O   0  0  0  0  0  0  0  0  0  0  0  0
  -15.2816   13.0614   13.3742 N   0  0  0  0  0  0  0  0  0  0  0  0
  -17.7776   12.4358    9.1170 O   0  0  0  0  0  0  0  0  0  0  0  0
  -17.0240   14.1858   11.3080 O   0  0  0  0  0  0  0  0  0  0  0  0
  -15.1262   11.0491   14.8861 O   0  0  0  0  0  0  0  0  0  0  0  0
  -11.2264    4.7681    5.5199 C   0  0  1  0  0  0  0  0  0  0  0  0
  -11.3139    3.4566    4.6900 C   0  0  1  0  0  0  0  0  0  0  0  0
   -9.8977    2.9008    4.3696 C   0  0  2  0  0  0  0  0  0  0  0  0
   -8.9815    3.9641    3.6812 C   0  0  1  0  0  0  0  0  0  0  0  0
   -8.9816    5.3354    4.4210 C   0  0  0  0  0  0  0  0  0  0  0  0
  -10.4190    5.8453    4.7413 C   0  0  2  0  0  0  0  0  0  0  0  0
   -7.6042    3.4492    3.5263 N   0  0  0  0  0  0  0  0  0  0  0  0
  -10.3306    7.1201    5.4861 N   0  0  0  0  0  0  0  0  0  0  0  0
  -12.0991    2.4804    5.3666 O   0  0  0  0  0  0  0  0  0  0  0  0
   -9.9934    1.7289    3.5639 O   0  0  0  0  0  0  0  0  0  0  0  0
  1  2  1  0  0  0  0
  1 16  1  6  0  0  0
  2  3  1  0  0  0  0
  2 12  1  6  0  0  0
  4 11  1  6  0  0  0
  4  3  1  0  0  0  0
  5  4  1  0  0  0  0
  5 10  1  1  0  0  0
  6  7  1  0  0  0  0
  6  5  1  0  0  0  0
  6 14  1  1  0  0  0
  7  8  1  0  0  0  0
  7 13  1  1  0  0  0
  8 15  1  6  0  0  0
  8 11  1  0  0  0  0
  9 13  1  0  0  0  0
 10  1  1  0  0  0  0
 17 15  1  6  0  0  0
 17 18  1  0  0  0  0
 18 25  1  6  0  0  0
 19 18  1  0  0  0  0
 19 26  1  1  0  0  0
 20 19  1  0  0  0  0
 20 24  1  6  0  0  0
 21 23  1  0  0  0  0
 21 20  1  0  0  0  0
 21 22  1  1  0  0  0
 23 17  1  0  0  0  0
 27 22  1  0  0  0  0
 28 29  1  0  0  0  0
 28 16  1  6  0  0  0
 29 36  1  1  0  0  0
 30 37  1  6  0  0  0
 30 29  1  0  0  0  0
 31 30  1  0  0  0  0
 31 34  1  1  0  0  0
 32 31  1  0  0  0  0
 32 33  1  0  0  0  0
 33 28  1  0  0  0  0
 33 35  1  1  0  0  0
M  END
>  <CHROM.1>
162.11247891,-139.77907633,153.29088796,135.98939787,166.51902122,-145.16413345
63.30209289,64.88077952,-39.05442419,47.58044757,-58.34231114,93.77244019
-35.42836923,-59.93349959,-90.70568995,-158.69933139,-13.68663221,7.81316856
8.52577522,1.08521160,-0.11270412,-2.46601763

>  <Name>
lig.pdb

>  <RI>
0

>  <Rbt.Current_Directory>
/home/afrankz/demos/rdock_decoys_rna/rnas/2m4q

>  <Rbt.Executable>
rbdock ($Id: //depot/dev/client3/rdock/2013.1/src/exe/rbdock.cxx#4 $)

>  <Rbt.Library>
libRbt.so (2013.1, Build901 2013/11/27)

>  <Rbt.Parameter_File>
/export/apps/rDock/src/rDock_2013.1_src/data/scripts/dock_solv.prm

>  <Rbt.Receptor>
prm/blind_docking_80.prm

>  <SCORE>
3.06443

>  <SCORE.INTER>
-14.5754

>  <SCORE.INTER.CONST>
1

>  <SCORE.INTER.POLAR>
-5.22559

>  <SCORE.INTER.ROT>
10

>  <SCORE.INTER.SOLV>
23.431

>  <SCORE.INTER.VDW>
-10.3753

>  <SCORE.INTER.norm>
-0.393929

>  <SCORE.INTRA>
-8.71843

>  <SCORE.INTRA.DIHEDRAL>
-15.7341

>  <SCORE.INTRA.DIHEDRAL.0>
44.8331

>  <SCORE.INTRA.POLAR>
-0.306363

>  <SCORE.INTRA.POLAR.0>
-0.108895

>  <SCORE.INTRA.REPUL>
-0.00912235

>  <SCORE.INTRA.REPUL.0>
0.00912235

>  <SCORE.INTRA.SOLV>
-0.140922

>  <SCORE.INTRA.SOLV.lig_0>
-53.9067

>  <SCORE.INTRA.VDW>
0.306303

>  <SCORE.INTRA.VDW.0>
-2.93492

>  <SCORE.INTRA.norm>
-0.235633

>  <SCORE.RESTR>
26.3582

>  <SCORE.RESTR.CAVITY>
26.3582

>  <SCORE.RESTR.norm>
0.712384

>  <SCORE.SYSTEM>
0

>  <SCORE.SYSTEM.CONST>
0

>  <SCORE.SYSTEM.DIHEDRAL>
0

>  <SCORE.SYSTEM.SOLV>
0

>  <SCORE.SYSTEM.norm>
0

>  <SCORE.heavy>
37

>  <SCORE.norm>
0.0828224

>  <RMSD>
17.283

$$$$
lig.pdb
 OpenBabel11021811453D
libRbt.so/2013.1/901 2013/11/27
 37 40  0  0  0  0  0  0  0  0999 V2000
  -15.2041    6.0994    5.1058 C   0  0  2  0  0  0  0  0  0  0  0  0
  -16.2687    7.2219    4.8740 C   0  0  1  0  0  0  0  0  0  0  0  0
  -16.2399    8.3322    5.9650 C   0  0  0  0  0  0  0  0  0  0  0  0
  -16.2385    7.7170    7.3865 C   0  0  1  0  0  0  0  0  0  0  0  0
  -15.0572    6.7319    7.5324 C   0  0  1  0  0  0  0  0  0  0  0  0
  -15.0036    6.1348    8.9643 C   0  0  1  0  0  0  0  0  0  0  0  0
  -14.9905    7.2644   10.0369 C   0  0  1  0  0  0  0  0  0  0  0  0
  -16.1421    8.2901    9.8180 C   0  0  2  0  0  0  0  0  0  0  0  0
  -16.4227    6.5505   11.8952 C   0  0  0  0  0  0  0  0  0  0  0  0
  -15.1330    5.6952    6.5118 O   0  0  0  0  0  0  0  0  0  0  0  0
  -16.2058    8.7349    8.4280 O   0  0  0  0  0  0  0  0  0  0  0  0
  -16.0702    7.8308    3.5408 N   0  0  0  0  0  0  0  0  0  0  0  0
  -15.0396    6.6559   11.3824 N   0  0  0  0  0  0  0  0  0  0  0  0
  -16.0748    5.2265    9.1855 O   0  0  0  0  0  0  0  0  0  0  0  0
  -15.9983    9.4187   10.7290 O   0  0  0  0  0  0  0  0  0  0  0  0
  -13.8880    6.5130    4.6268 O   0  0  0  0  0  0  0  0  0  0  0  0
  -15.8696   10.7592   10.1629 C   0  0  2  0  0  0  0  0  0  0  0  0
  -14.3855   11.0832    9.8294 C   0  0  1  0  0  0  0  0  0  0  0  0
  -13.5367   11.2845   11.1173 C   0  0  2  0  0  0  0  0  0  0  0  0
  -14.1899   12.3344   12.0623 C   0  0  1  0  0  0  0  0  0  0  0  0
  -15.6800   11.9919   12.3412 C   0  0  1  0  0  0  0  0  0  0  0  0
  -16.3822   13.0997   13.1694 C   0  0  0  0  0  0  0  0  0  0  0  0
  -16.3919   11.7591   11.0880 O   0  0  0  0  0  0  0  0  0  0  0  0
  -13.4247   12.4799   13.3199 N   0  0  0  0  0  0  0  0  0  0  0  0
  -13.8313   10.0777    8.9829 O   0  0  0  0  0  0  0  0  0  0  0  0
  -12.1944   11.6449   10.7982 O   0  0  0  0  0  0  0  0  0  0  0  0
  -15.7943   13.2170   14.4609 O   0  0  0  0  0  0  0  0  0  0  0  0
  -12.7409    5.7011    5.0126 C   0  0  1  0  0  0  0  0  0  0  0  0
  -12.1808    4.8803    3.8173 C   0  0  1  0  0  0  0  0  0  0  0  0
  -11.0211    3.9497    4.2711 C   0  0  2  0  0  0  0  0  0  0  0  0
   -9.8917    4.7270    5.0222 C   0  0  1  0  0  0  0  0  0  0  0  0
  -10.4399    5.6632    6.1406 C   0  0  0  0  0  0  0  0  0  0  0  0
  -11.6138    6.5629    5.6495 C   0  0  2  0  0  0  0  0  0  0  0  0
   -8.8825    3.7927    5.5650 N   0  0  0  0  0  0  0  0  0  0  0  0
  -12.1091    7.3795    6.7788 N   0  0  0  0  0  0  0  0  0  0  0  0
  -13.2151    4.1300    3.1890 O   0  0  0  0  0  0  0  0  0  0  0  0
  -10.4833    3.2441    3.1555 O   0  0  0  0  0  0  0  0  0  0  0  0
  1  2  1  0  0  0  0
  1 16  1  1  0  0  0
  2  3  1  0  0  0  0
  2 12  1  6  0  0  0
  4 11  1  1  0  0  0
  4  3  1  0  0  0  0
  5  4  1  0  0  0  0
  5 10  1  6  0  0  0
  6  7  1  0  0  0  0
  6  5  1  0  0  0  0
  6 14  1  1  0  0  0
  7  8  1  0  0  0  0
  7 13  1  1  0  0  0
  8 15  1  1  0  0  0
  8 11  1  0  0  0  0
  9 13  1  0  0  0  0
 10  1  1  0  0  0  0
 17 15  1  1  0  0  0
 17 18  1  0  0  0  0
 18 25  1  1  0  0  0
 19 18  1  0  0  0  0
 19 26  1  6  0  0  0
 20 19  1  0  0  0  0
 20 24  1  1  0  0  0
 21 23  1  0  0  0  0
 21 20  1  0  0  0  0
 21 22  1  6  0  0  0
 23 17  1  0  0  0  0
 27 22  1  0  0  0  0
 28 29  1  0  0  0  0
 28 16  1  6  0  0  0
 29 36  1  1  0  0  0
 30 37  1  6  0  0  0
 30 29  1  0  0  0  0
 31 30  1  0  0  0  0
 31 34  1  1  0  0  0
 32 31  1  0  0  0  0
 32 33  1  0  0  0  0
 33 28  1  0  0  0  0
 33 35  1  1  0  0  0
M  END
>  <CHROM.1>
80.88063394,121.23671086,-93.65570505,-56.95697257,-86.53866287,167.71106602
-68.27567696,170.30808505,-63.72606210,-55.75595887,-178.65846578,107.98596749
66.33256699,63.35991545,-129.34935437,60.41077333,-14.15724031,7.95724022
8.17910044,1.27314996,0.04194855,-2.27395178

>  <Name>
lig.pdb

>  <RI>
0

>  <Rbt.Current_Directory>
/home/itssahil/PROJECTS/Mol_Feturizer/New_Systems/rnas/2m4q

>  <Rbt.Executable>
rbdock ($Id: //depot/dev/client3/rdock/2013.1/src/exe/rbdock.cxx#4 $)

>  <Rbt.Library>
libRbt.so (2013.1, Build901 2013/11/27)

>  <Rbt.Parameter_File>
/export/apps/rDock/src/rDock_2013.1_src/data/scripts/dock_solv.prm

>  <Rbt.Receptor>
prm/blind_docking_60.prm

>  <SCORE>
-22.1088

>  <SCORE.INTER>
-32.0188

>  <SCORE.INTER.CONST>
1

>  <SCORE.INTER.POLAR>
-6.48628

>  <SCORE.INTER.ROT>
10

>  <SCORE.INTER.SOLV>
19.0103

>  <SCORE.INTER.VDW>
-16.3283

>  <SCORE.INTER.norm>
-0.865372

>  <SCORE.INTRA>
-5.9321

>  <SCORE.INTRA.DIHEDRAL>
-21.5736

>  <SCORE.INTRA.DIHEDRAL.0>
44.8331

>  <SCORE.INTRA.POLAR>
-0.0749084

>  <SCORE.INTRA.POLAR.0>
-0.108895

>  <SCORE.INTRA.REPUL>
0.0279904

>  <SCORE.INTRA.REPUL.0>
0.00912235

>  <SCORE.INTRA.SOLV>
0.396274

>  <SCORE.INTRA.SOLV.lig_0>
-53.9067

>  <SCORE.INTRA.VDW>
4.7713

>  <SCORE.INTRA.VDW.0>
-2.93492

>  <SCORE.INTRA.norm>
-0.160327

>  <SCORE.RESTR>
15.8421

>  <SCORE.RESTR.CAVITY>
15.8421

>  <SCORE.RESTR.norm>
0.428165

>  <SCORE.SYSTEM>
0

>  <SCORE.SYSTEM.CONST>
0

>  <SCORE.SYSTEM.DIHEDRAL>
0

>  <SCORE.SYSTEM.SOLV>
0

>  <SCORE.SYSTEM.norm>
0

>  <SCORE.heavy>
37

>  <SCORE.norm>
-0.597534

>  <RMSD>
17.290

$$$$
lig.pdb
 OpenBabel11021811453D
libRbt.so/2013.1/901 2013/11/27
 37 40  0  0  0  0  0  0  0  0999 V2000
  -13.3875    3.2169    8.0501 C   0  0  2  0  0  0  0  0  0  0  0  0
  -14.4349    2.8005    9.1349 C   0  0  1  0  0  0  0  0  0  0  0  0
  -15.4362    3.9379    9.4921 C   0  0  0  0  0  0  0  0  0  0  0  0
  -14.6923    5.2659    9.7784 C   0  0  1  0  0  0  0  0  0  0  0  0
  -13.7989    5.6388    8.5741 C   0  0  1  0  0  0  0  0  0  0  0  0
  -13.0763    6.9915    8.8145 C   0  0  1  0  0  0  0  0  0  0  0  0
  -14.0972    8.1085    9.1844 C   0  0  1  0  0  0  0  0  0  0  0  0
  -15.0402    7.6755   10.3461 C   0  0  2  0  0  0  0  0  0  0  0  0
  -14.2491   10.5348    9.5063 C   0  0  0  0  0  0  0  0  0  0  0  0
  -12.8601    4.5625    8.2873 O   0  0  0  0  0  0  0  0  0  0  0  0
  -15.6069    6.3501   10.1100 O   0  0  0  0  0  0  0  0  0  0  0  0
  -15.1807    1.6081    8.6773 N   0  0  0  0  0  0  0  0  0  0  0  0
  -13.3629    9.3509    9.5011 N   0  0  0  0  0  0  0  0  0  0  0  0
  -12.0657    6.8679    9.8070 O   0  0  0  0  0  0  0  0  0  0  0  0
  -16.0861    8.6700   10.5500 O   0  0  0  0  0  0  0  0  0  0  0  0
  -13.9518    3.1195    6.7067 O   0  0  0  0  0  0  0  0  0  0  0  0
  -16.5189    8.9562   11.9155 C   0  0  2  0  0  0  0  0  0  0  0  0
  -17.8913    9.6878   11.9234 C   0  0  1  0  0  0  0  0  0  0  0  0
  -17.7686   11.1476   11.4000 C   0  0  2  0  0  0  0  0  0  0  0  0
  -16.6602   11.9274   12.1651 C   0  0  1  0  0  0  0  0  0  0  0  0
  -15.3168   11.1458   12.1624 C   0  0  1  0  0  0  0  0  0  0  0  0
  -14.2408   11.8435   13.0351 C   0  0  0  0  0  0  0  0  0  0  0  0
  -15.5267    9.7714   12.6078 O   0  0  0  0  0  0  0  0  0  0  0  0
  -16.4907   13.2945   11.6258 N   0  0  0  0  0  0  0  0  0  0  0  0
  -18.8605    8.9426   11.1886 O   0  0  0  0  0  0  0  0  0  0  0  0
  -19.0197   11.8278   11.4736 O   0  0  0  0  0  0  0  0  0  0  0  0
  -13.1420   12.2734   12.2382 O   0  0  0  0  0  0  0  0  0  0  0  0
  -13.2100    3.7361    5.6142 C   0  0  1  0  0  0  0  0  0  0  0  0
  -13.1372    5.2819    5.7602 C   0  0  1  0  0  0  0  0  0  0  0  0
  -12.4270    5.9273    4.5370 C   0  0  2  0  0  0  0  0  0  0  0  0
  -11.0199    5.3023    4.2663 C   0  0  1  0  0  0  0  0  0  0  0  0
  -11.0411    3.7444    4.2490 C   0  0  0  0  0  0  0  0  0  0  0  0
  -11.7800    3.1397    5.4806 C   0  0  2  0  0  0  0  0  0  0  0  0
  -10.4405    5.8352    3.0147 N   0  0  0  0  0  0  0  0  0  0  0  0
  -11.8011    1.6656    5.3624 N   0  0  0  0  0  0  0  0  0  0  0  0
  -14.4366    5.8355    5.9406 O   0  0  0  0  0  0  0  0  0  0  0  0
  -12.3206    7.3381    4.7105 O   0  0  0  0  0  0  0  0  0  0  0  0
  1  2  1  0  0  0  0
  1 16  1  6  0  0  0
  2  3  1  0  0  0  0
  2 12  1  6  0  0  0
  4 11  1  6  0  0  0
  4  3  1  0  0  0  0
  5  4  1  0  0  0  0
  5 10  1  1  0  0  0
  6  7  1  0  0  0  0
  6  5  1  0  0  0  0
  6 14  1  1  0  0  0
  7  8  1  0  0  0  0
  7 13  1  1  0  0  0
  8 15  1  6  0  0  0
  8 11  1  0  0  0  0
  9 13  1  0  0  0  0
 10  1  1  0  0  0  0
 17 15  1  6  0  0  0
 17 18  1  0  0  0  0
 18 25  1  6  0  0  0
 19 18  1  0  0  0  0
 19 26  1  1  0  0  0
 20 19  1  0  0  0  0
 20 24  1  6  0  0  0
 21 23  1  0  0  0  0
 21 20  1  0  0  0  0
 21 22  1  1  0  0  0
 23 17  1  0  0  0  0
 27 22  1  0  0  0  0
 28 29  1  0  0  0  0
 28 16  1  1  0  0  0
 29 36  1  6  0  0  0
 30 37  1  1  0  0  0
 30 29  1  0  0  0  0
 31 30  1  0  0  0  0
 31 34  1  6  0  0  0
 32 31  1  0  0  0  0
 32 33  1  0  0  0  0
 33 28  1  0  0  0  0
 33 35  1  6  0  0  0
M  END
>  <CHROM.1>
83.52574203,-142.74704783,164.67711128,-145.06535338,-162.83009114,167.25349541
-55.95687951,-60.79022596,-116.24672897,-164.59264203,64.32789947,-65.18245170
-59.85867418,-53.85686565,52.31737627,63.15148415,-14.35189984,7.16114804
8.84372632,0.98233944,-0.80837138,-2.88155465

>  <Name>
lig.pdb

>  <RI>
0

>  <Rbt.Current_Directory>
/home/itssahil/PROJECTS/Mol_Feturizer/New_Systems/rnas/2m4q

>  <Rbt.Executable>
rbdock ($Id: //depot/dev/client3/rdock/2013.1/src/exe/rbdock.cxx#4 $)

>  <Rbt.Library>
libRbt.so (2013.1, Build901 2013/11/27)

>  <Rbt.Parameter_File>
/export/apps/rDock/src/rDock_2013.1_src/data/scripts/dock_solv.prm

>  <Rbt.Receptor>
prm/blind_docking_60.prm

>  <SCORE>
-4.99376

>  <SCORE.INTER>
-10.1183

>  <SCORE.INTER.CONST>
1

>  <SCORE.INTER.POLAR>
-2.60287

>  <SCORE.INTER.ROT>
10

>  <SCORE.INTER.SOLV>
21.848

>  <SCORE.INTER.VDW>
-15.6186

>  <SCORE.INTER.norm>
-0.273468

>  <SCORE.INTRA>
-9.52127

>  <SCORE.INTRA.DIHEDRAL>
-25.4777

>  <SCORE.INTRA.DIHEDRAL.0>
44.8331

>  <SCORE.INTRA.POLAR>
-0.327002

>  <SCORE.INTRA.POLAR.0>
-0.108895

>  <SCORE.INTRA.REPUL>
-0.00912235

>  <SCORE.INTRA.REPUL.0>
0.00912235

>  <SCORE.INTRA.SOLV>
0.281734

>  <SCORE.INTRA.SOLV.lig_0>
-53.9067

>  <SCORE.INTRA.VDW>
4.23412

>  <SCORE.INTRA.VDW.0>
-2.93492

>  <SCORE.INTRA.norm>
-0.257332

>  <SCORE.RESTR>
14.6458

>  <SCORE.RESTR.CAVITY>
14.6458

>  <SCORE.RESTR.norm>
0.395833

>  <SCORE.SYSTEM>
0

>  <SCORE.SYSTEM.CONST>
0

>  <SCORE.SYSTEM.DIHEDRAL>
0

>  <SCORE.SYSTEM.SOLV>
0

>  <SCORE.SYSTEM.norm>
0

>  <SCORE.heavy>
37

>  <SCORE.norm>
-0.134967

>  <RMSD>
17.291

$$$$
lig.pdb
 OpenBabel11021811453D
libRbt.so/2013.1/901 2013/11/27
 37 40  0  0  0  0  0  0  0  0999 V2000
  -13.0580    4.8240    7.1863 C   0  0  2  0  0  0  0  0  0  0  0  0
  -14.6090    4.6271    7.1319 C   0  0  1  0  0  0  0  0  0  0  0  0
  -15.4029    5.9621    7.2379 C   0  0  0  0  0  0  0  0  0  0  0  0
  -14.8948    6.8204    8.4228 C   0  0  1  0  0  0  0  0  0  0  0  0
  -13.3747    7.0607    8.2847 C   0  0  1  0  0  0  0  0  0  0  0  0
  -12.8461    7.9586    9.4354 C   0  0  1  0  0  0  0  0  0  0  0  0
  -13.6655    9.2801    9.5300 C   0  0  1  0  0  0  0  0  0  0  0  0
  -15.1990    9.0130    9.5846 C   0  0  2  0  0  0  0  0  0  0  0  0
  -13.3729   11.5138   10.4989 C   0  0  0  0  0  0  0  0  0  0  0  0
  -12.6652    5.7903    8.2144 O   0  0  0  0  0  0  0  0  0  0  0  0
  -15.6174    8.0796    8.5417 O   0  0  0  0  0  0  0  0  0  0  0  0
  -14.9800    3.9266    5.8833 N   0  0  0  0  0  0  0  0  0  0  0  0
  -13.1973   10.0585   10.6952 N   0  0  0  0  0  0  0  0  0  0  0  0
  -12.8460    7.2626   10.6752 O   0  0  0  0  0  0  0  0  0  0  0  0
  -15.9373   10.2669    9.5001 O   0  0  0  0  0  0  0  0  0  0  0  0
  -12.5305    5.2219    5.8840 O   0  0  0  0  0  0  0  0  0  0  0  0
  -17.0874   10.4590   10.3799 C   0  0  2  0  0  0  0  0  0  0  0  0
  -17.5025   11.9568   10.4355 C   0  0  1  0  0  0  0  0  0  0  0  0
  -16.4617   12.8143   11.2110 C   0  0  2  0  0  0  0  0  0  0  0  0
  -16.1726   12.2116   12.6164 C   0  0  1  0  0  0  0  0  0  0  0  0
  -15.7960   10.7070   12.5180 C   0  0  1  0  0  0  0  0  0  0  0  0
  -15.6382   10.0581   13.9181 C   0  0  0  0  0  0  0  0  0  0  0  0
  -16.7879    9.9848   11.7267 O   0  0  0  0  0  0  0  0  0  0  0  0
  -15.1326   12.9829   13.3318 N   0  0  0  0  0  0  0  0  0  0  0  0
  -17.7302   12.4627    9.1214 O   0  0  0  0  0  0  0  0  0  0  0  0
  -16.8855   14.1722   11.3113 O   0  0  0  0  0  0  0  0  0  0  0  0
  -16.8883   10.0086   14.5980 O   0  0  0  0  0  0  0  0  0  0  0  0
  -11.1969    4.7582    5.5230 C   0  0  1  0  0  0  0  0  0  0  0  0
  -11.2333    3.3716    4.8214 C   0  0  1  0  0  0  0  0  0  0  0  0
   -9.7968    2.8520    4.5325 C   0  0  2  0  0  0  0  0  0  0  0  0
   -8.9383    3.8854    3.7331 C   0  0  1  0  0  0  0  0  0  0  0  0
   -8.9931    5.3190    4.3410 C   0  0  0  0  0  0  0  0  0  0  0  0
  -10.4487    5.7921    4.6344 C   0  0  2  0  0  0  0  0  0  0  0  0
   -7.5406    3.4203    3.6058 N   0  0  0  0  0  0  0  0  0  0  0  0
  -10.4106    7.1341    5.2548 N   0  0  0  0  0  0  0  0  0  0  0  0
  -11.9652    2.4295    5.5987 O   0  0  0  0  0  0  0  0  0  0  0  0
   -9.8476    1.6061    3.8419 O   0  0  0  0  0  0  0  0  0  0  0  0
  1  2  1  0  0  0  0
  1 16  1  6  0  0  0
  2  3  1  0  0  0  0
  2 12  1  6  0  0  0
  4 11  1  6  0  0  0
  4  3  1  0  0  0  0
  5  4  1  0  0  0  0
  5 10  1  1  0  0  0
  6  7  1  0  0  0  0
  6  5  1  0  0  0  0
  6 14  1  1  0  0  0
  7  8  1  0  0  0  0
  7 13  1  1  0  0  0
  8 15  1  6  0  0  0
  8 11  1  0  0  0  0
  9 13  1  0  0  0  0
 10  1  1  0  0  0  0
 17 15  1  6  0  0  0
 17 18  1  0  0  0  0
 18 25  1  6  0  0  0
 19 18  1  0  0  0  0
 19 26  1  1  0  0  0
 20 19  1  0  0  0  0
 20 24  1  6  0  0  0
 21 23  1  0  0  0  0
 21 20  1  0  0  0  0
 21 22  1  1  0  0  0
 23 17  1  0  0  0  0
 27 22  1  0  0  0  0
 28 29  1  0  0  0  0
 28 16  1  6  0  0  0
 29 36  1  1  0  0  0
 30 37  1  6  0  0  0
 30 29  1  0  0  0  0
 31 30  1  0  0  0  0
 31 34  1  1  0  0  0
 32 31  1  0  0  0  0
 32 33  1  0  0  0  0
 33 28  1  0  0  0  0
 33 35  1  1  0  0  0
M  END
>  <CHROM.1>
83.35474689,-137.49928682,151.03030892,-24.61735148,164.50070834,-146.77528387
-170.14486737,64.48956617,66.77887193,65.06855244,64.22513652,88.40570424
72.34676257,-156.08446863,-83.21339831,-164.10632008,-13.70874043,7.74725148
8.50585720,1.01675447,-0.41631581,-2.65432516

>  <Name>
lig.pdb

>  <RI>
0

>  <Rbt.Current_Directory>
/home/afrankz/demos/rdock_decoys_rna/rnas/2m4q

>  <Rbt.Executable>
rbdock ($Id: //depot/dev/client3/rdock/2013.1/src/exe/rbdock.cxx#4 $)

>  <Rbt.Library>
libRbt.so (2013.1, Build901 2013/11/27)

>  <Rbt.Parameter_File>
/export/apps/rDock/src/rDock_2013.1_src/data/scripts/dock_solv.prm

>  <Rbt.Receptor>
prm/blind_docking_80.prm

>  <SCORE>
-0.913163

>  <SCORE.INTER>
-18.1509

>  <SCORE.INTER.CONST>
1

>  <SCORE.INTER.POLAR>
-5.71309

>  <SCORE.INTER.ROT>
10

>  <SCORE.INTER.SOLV>
23.1733

>  <SCORE.INTER.VDW>
-11.0481

>  <SCORE.INTER.norm>
-0.490566

>  <SCORE.INTRA>
-10.2363

>  <SCORE.INTRA.DIHEDRAL>
-18.4065

>  <SCORE.INTRA.DIHEDRAL.0>
44.8331

>  <SCORE.INTRA.POLAR>
-0.0575735

>  <SCORE.INTRA.POLAR.0>
-0.108895

>  <SCORE.INTRA.REPUL>
-0.00912235

>  <SCORE.INTRA.REPUL.0>
0.00912235

>  <SCORE.INTRA.SOLV>
-0.47989

>  <SCORE.INTRA.SOLV.lig_0>
-53.9067

>  <SCORE.INTRA.VDW>
-0.551783

>  <SCORE.INTRA.VDW.0>
-2.93492

>  <SCORE.INTRA.norm>
-0.276657

>  <SCORE.RESTR>
27.4741

>  <SCORE.RESTR.CAVITY>
27.4741

>  <SCORE.RESTR.norm>
0.742543

>  <SCORE.SYSTEM>
0

>  <SCORE.SYSTEM.CONST>
0

>  <SCORE.SYSTEM.DIHEDRAL>
0

>  <SCORE.SYSTEM.SOLV>
0

>  <SCORE.SYSTEM.norm>
0

>  <SCORE.heavy>
37

>  <SCORE.norm>
-0.0246801

>  <RMSD>
17.292

$$$$
lig.pdb
 OpenBabel11021811453D
libRbt.so/2013.1/901 2013/11/27
 37 40  0  0  0  0  0  0  0  0999 V2000
  -13.3630    3.3519    8.0110 C   0  0  2  0  0  0  0  0  0  0  0  0
  -14.3027    2.9352    9.1901 C   0  0  1  0  0  0  0  0  0  0  0  0
  -15.3048    4.0529    9.6029 C   0  0  0  0  0  0  0  0  0  0  0  0
  -14.5805    5.4087    9.7930 C   0  0  1  0  0  0  0  0  0  0  0  0
  -13.8027    5.7744    8.5089 C   0  0  1  0  0  0  0  0  0  0  0  0
  -13.1042    7.1529    8.6546 C   0  0  1  0  0  0  0  0  0  0  0  0
  -14.1241    8.2500    9.0821 C   0  0  1  0  0  0  0  0  0  0  0  0
  -14.9529    7.8218   10.3294 C   0  0  2  0  0  0  0  0  0  0  0  0
  -14.3295   10.6603    9.4848 C   0  0  0  0  0  0  0  0  0  0  0  0
  -12.8588    4.7178    8.1701 O   0  0  0  0  0  0  0  0  0  0  0  0
  -15.4968    6.4750   10.1742 O   0  0  0  0  0  0  0  0  0  0  0  0
  -15.0475    1.7103    8.8262 N   0  0  0  0  0  0  0  0  0  0  0  0
  -13.4041    9.5208    9.3055 N   0  0  0  0  0  0  0  0  0  0  0  0
  -12.0108    7.0847    9.5609 O   0  0  0  0  0  0  0  0  0  0  0  0
  -16.0080    8.7913   10.5966 O   0  0  0  0  0  0  0  0  0  0  0  0
  -14.0344    3.2027    6.7228 O   0  0  0  0  0  0  0  0  0  0  0  0
  -16.3159    9.1209   11.9861 C   0  0  2  0  0  0  0  0  0  0  0  0
  -17.6657    9.8860   12.0914 C   0  0  1  0  0  0  0  0  0  0  0  0
  -17.5555   11.3293   11.5215 C   0  0  2  0  0  0  0  0  0  0  0  0
  -16.3685   12.0998   12.1690 C   0  0  1  0  0  0  0  0  0  0  0  0
  -15.0482   11.2856   12.0726 C   0  0  1  0  0  0  0  0  0  0  0  0
  -13.8860   11.9774   12.8323 C   0  0  0  0  0  0  0  0  0  0  0  0
  -15.2500    9.9279   12.5701 O   0  0  0  0  0  0  0  0  0  0  0  0
  -16.2151   13.4489   11.5818 N   0  0  0  0  0  0  0  0  0  0  0  0
  -18.7108    9.1474   11.4613 O   0  0  0  0  0  0  0  0  0  0  0  0
  -18.7801   12.0417   11.6832 O   0  0  0  0  0  0  0  0  0  0  0  0
  -13.9322   13.3891   12.6529 O   0  0  0  0  0  0  0  0  0  0  0  0
  -13.5411    3.9982    5.6058 C   0  0  1  0  0  0  0  0  0  0  0  0
  -13.9957    5.4815    5.7025 C   0  0  1  0  0  0  0  0  0  0  0  0
  -13.5414    6.2893    4.4542 C   0  0  2  0  0  0  0  0  0  0  0  0
  -12.0050    6.1683    4.1924 C   0  0  1  0  0  0  0  0  0  0  0  0
  -11.4981    4.6953    4.2242 C   0  0  0  0  0  0  0  0  0  0  0  0
  -11.9932    3.9163    5.4799 C   0  0  2  0  0  0  0  0  0  0  0  0
  -11.6357    6.8252    2.9203 N   0  0  0  0  0  0  0  0  0  0  0  0
  -11.5143    2.5189    5.4082 N   0  0  0  0  0  0  0  0  0  0  0  0
  -15.4064    5.5688    5.8755 O   0  0  0  0  0  0  0  0  0  0  0  0
  -13.9189    7.6578    4.5824 O   0  0  0  0  0  0  0  0  0  0  0  0
  1  2  1  0  0  0  0
  1 16  1  6  0  0  0
  2  3  1  0  0  0  0
  2 12  1  6  0  0  0
  4 11  1  6  0  0  0
  4  3  1  0  0  0  0
  5  4  1  0  0  0  0
  5 10  1  1  0  0  0
  6  7  1  0  0  0  0
  6  5  1  0  0  0  0
  6 14  1  1  0  0  0
  7  8  1  0  0  0  0
  7 13  1  1  0  0  0
  8 15  1  6  0  0  0
  8 11  1  0  0  0  0
  9 13  1  0  0  0  0
 10  1  1  0  0  0  0
 17 15  1  6  0  0  0
 17 18  1  0  0  0  0
 18 25  1  6  0  0  0
 19 18  1  0  0  0  0
 19 26  1  1  0  0  0
 20 19  1  0  0  0  0
 20 24  1  6  0  0  0
 21 23  1  0  0  0  0
 21 20  1  0  0  0  0
 21 22  1  1  0  0  0
 23 17  1  0  0  0  0
 27 22  1  0  0  0  0
 28 29  1  0  0  0  0
 28 16  1  1  0  0  0
 29 36  1  6  0  0  0
 30 37  1  1  0  0  0
 30 29  1  0  0  0  0
 31 30  1  0  0  0  0
 31 34  1  6  0  0  0
 32 31  1  0  0  0  0
 32 33  1  0  0  0  0
 33 28  1  0  0  0  0
 33 35  1  6  0  0  0
M  END
>  <CHROM.1>
-45.88774688,-141.57571015,170.09743620,-69.72066346,-166.24760455,156.74118939
68.04534577,-69.01470968,-39.22414233,86.60265398,96.99344716,-76.49146627
63.49105422,-61.14879106,-82.18231978,161.76019323,-14.49822658,7.43940795
8.85361193,0.94512916,-0.98409575,-2.97072059

>  <Name>
lig.pdb

>  <RI>
0

>  <Rbt.Current_Directory>
/home/itssahil/PROJECTS/Mol_Feturizer/New_Systems/rnas/2m4q

>  <Rbt.Executable>
rbdock ($Id: //depot/dev/client3/rdock/2013.1/src/exe/rbdock.cxx#4 $)

>  <Rbt.Library>
libRbt.so (2013.1, Build901 2013/11/27)

>  <Rbt.Parameter_File>
/export/apps/rDock/src/rDock_2013.1_src/data/scripts/dock_solv.prm

>  <Rbt.Receptor>
prm/blind_docking_60.prm

>  <SCORE>
2.50227

>  <SCORE.INTER>
-3.81671

>  <SCORE.INTER.CONST>
1

>  <SCORE.INTER.POLAR>
-2.21547

>  <SCORE.INTER.ROT>
10

>  <SCORE.INTER.SOLV>
20.7157

>  <SCORE.INTER.VDW>
-12.3315

>  <SCORE.INTER.norm>
-0.103154

>  <SCORE.INTRA>
-7.48539

>  <SCORE.INTRA.DIHEDRAL>
-24.7635

>  <SCORE.INTRA.DIHEDRAL.0>
44.8331

>  <SCORE.INTRA.POLAR>
-0.516507

>  <SCORE.INTRA.POLAR.0>
-0.108895

>  <SCORE.INTRA.REPUL>
-0.00912235

>  <SCORE.INTRA.REPUL.0>
0.00912235

>  <SCORE.INTRA.SOLV>
0.269798

>  <SCORE.INTRA.SOLV.lig_0>
-53.9067

>  <SCORE.INTRA.VDW>
6.56317

>  <SCORE.INTRA.VDW.0>
-2.93492

>  <SCORE.INTRA.norm>
-0.202308

>  <SCORE.RESTR>
13.8044

>  <SCORE.RESTR.CAVITY>
13.8044

>  <SCORE.RESTR.norm>
0.373091

>  <SCORE.SYSTEM>
0

>  <SCORE.SYSTEM.CONST>
0

>  <SCORE.SYSTEM.DIHEDRAL>
0

>  <SCORE.SYSTEM.SOLV>
0

>  <SCORE.SYSTEM.norm>
0

>  <SCORE.heavy>
37

>  <SCORE.norm>
0.0676289

>  <RMSD>
17.293

$$$$
lig.pdb
 OpenBabel11021811453D
libRbt.so/2013.1/901 2013/11/27
 37 40  0  0  0  0  0  0  0  0999 V2000
  -12.4793    6.2599    6.2919 C   0  0  2  0  0  0  0  0  0  0  0  0
  -13.9741    6.1357    5.8475 C   0  0  1  0  0  0  0  0  0  0  0  0
  -14.8271    7.3895    6.2000 C   0  0  0  0  0  0  0  0  0  0  0  0
  -14.6174    7.8094    7.6760 C   0  0  1  0  0  0  0  0  0  0  0  0
  -13.1139    8.0371    7.9498 C   0  0  1  0  0  0  0  0  0  0  0  0
  -12.8785    8.5049    9.4112 C   0  0  1  0  0  0  0  0  0  0  0  0
  -13.7534    9.7502    9.7434 C   0  0  1  0  0  0  0  0  0  0  0  0
  -15.2514    9.5243    9.3810 C   0  0  2  0  0  0  0  0  0  0  0  0
  -13.5505   11.5653   11.3799 C   0  0  0  0  0  0  0  0  0  0  0  0
  -12.3535    6.8356    7.6328 O   0  0  0  0  0  0  0  0  0  0  0  0
  -15.4003    8.9852    8.0316 O   0  0  0  0  0  0  0  0  0  0  0  0
  -14.0429    5.8816    4.3921 N   0  0  0  0  0  0  0  0  0  0  0  0
  -13.5753   10.1020   11.1673 N   0  0  0  0  0  0  0  0  0  0  0  0
  -13.1121    7.4498   10.3352 O   0  0  0  0  0  0  0  0  0  0  0  0
  -16.0063   10.7605    9.5437 O   0  0  0  0  0  0  0  0  0  0  0  0
  -11.7050    7.0373    5.3282 O   0  0  0  0  0  0  0  0  0  0  0  0
  -17.2363   10.7273   10.3310 C   0  0  2  0  0  0  0  0  0  0  0  0
  -17.8755   12.1418   10.4260 C   0  0  1  0  0  0  0  0  0  0  0  0
  -17.0386   13.0924   11.3292 C   0  0  2  0  0  0  0  0  0  0  0  0
  -16.7706   12.4522   12.7221 C   0  0  1  0  0  0  0  0  0  0  0  0
  -16.1650   11.0279   12.5809 C   0  0  1  0  0  0  0  0  0  0  0  0
  -16.0190   10.3233   13.9552 C   0  0  0  0  0  0  0  0  0  0  0  0
  -16.9729   10.2191   11.6729 O   0  0  0  0  0  0  0  0  0  0  0  0
  -15.9167   13.3213   13.5613 N   0  0  0  0  0  0  0  0  0  0  0  0
  -18.0754   12.6898    9.1243 O   0  0  0  0  0  0  0  0  0  0  0  0
  -17.6687   14.3648   11.4609 O   0  0  0  0  0  0  0  0  0  0  0  0
  -15.2884   11.1368   14.8672 O   0  0  0  0  0  0  0  0  0  0  0  0
  -10.6363    6.3546    4.6100 C   0  0  1  0  0  0  0  0  0  0  0  0
  -10.0653    5.1561    5.4185 C   0  0  1  0  0  0  0  0  0  0  0  0
   -8.8641    4.5026    4.6787 C   0  0  2  0  0  0  0  0  0  0  0  0
   -9.2166    4.0979    3.2105 C   0  0  1  0  0  0  0  0  0  0  0  0
   -9.9150    5.2424    2.4166 C   0  0  0  0  0  0  0  0  0  0  0  0
  -11.0987    5.8831    3.2020 C   0  0  2  0  0  0  0  0  0  0  0  0
   -8.0151    3.6176    2.4952 N   0  0  0  0  0  0  0  0  0  0  0  0
  -11.6715    6.9898    2.4054 N   0  0  0  0  0  0  0  0  0  0  0  0
   -9.6907    5.5626    6.7307 O   0  0  0  0  0  0  0  0  0  0  0  0
   -8.3861    3.3737    5.4058 O   0  0  0  0  0  0  0  0  0  0  0  0
  1  2  1  0  0  0  0
  1 16  1  6  0  0  0
  2  3  1  0  0  0  0
  2 12  1  6  0  0  0
  4 11  1  6  0  0  0
  4  3  1  0  0  0  0
  5  4  1  0  0  0  0
  5 10  1  1  0  0  0
  6  7  1  0  0  0  0
  6  5  1  0  0  0  0
  6 14  1  1  0  0  0
  7  8  1  0  0  0  0
  7 13  1  1  0  0  0
  8 15  1  6  0  0  0
  8 11  1  0  0  0  0
  9 13  1  0  0  0  0
 10  1  1  0  0  0  0
 17 15  1  6  0  0  0
 17 18  1  0  0  0  0
 18 25  1  6  0  0  0
 19 18  1  0  0  0  0
 19 26  1  1  0  0  0
 20 19  1  0  0  0  0
 20 24  1  1  0  0  0
 21 23  1  0  0  0  0
 21 20  1  0  0  0  0
 21 22  1  1  0  0  0
 23 17  1  0  0  0  0
 27 22  1  0  0  0  0
 28 29  1  0  0  0  0
 28 16  1  1  0  0  0
 29 36  1  1  0  0  0
 30 37  1  1  0  0  0
 30 29  1  0  0  0  0
 31 30  1  0  0  0  0
 31 34  1  6  0  0  0
 32 31  1  0  0  0  0
 32 33  1  0  0  0  0
 33 28  1  0  0  0  0
 33 35  1  6  0  0  0
M  END
>  <CHROM.1>
-171.59494166,-129.25525955,141.90557695,-53.09116916,178.33424122,-115.50350614
67.94818855,60.38950198,-53.60237165,88.71570843,175.17979595,-26.82467076
66.16102221,-45.80557580,-59.92793919,-56.68294237,-13.61304223,8.51543624
8.22673816,0.87625203,0.62494612,-1.83601916

>  <Name>
lig.pdb

>  <RI>
0

>  <Rbt.Current_Directory>
/home/afrankz/demos/rdock_decoys_rna/rnas/2m4q

>  <Rbt.Executable>
rbdock ($Id: //depot/dev/client3/rdock/2013.1/src/exe/rbdock.cxx#4 $)

>  <Rbt.Library>
libRbt.so (2013.1, Build901 2013/11/27)

>  <Rbt.Parameter_File>
/export/apps/rDock/src/rDock_2013.1_src/data/scripts/dock_solv.prm

>  <Rbt.Receptor>
prm/blind_docking_80.prm

>  <SCORE>
-0.601662

>  <SCORE.INTER>
-8.05365

>  <SCORE.INTER.CONST>
1

>  <SCORE.INTER.POLAR>
-2.37506

>  <SCORE.INTER.ROT>
10

>  <SCORE.INTER.SOLV>
23.7305

>  <SCORE.INTER.VDW>
-15.6291

>  <SCORE.INTER.norm>
-0.217666

>  <SCORE.INTRA>
-13.1817

>  <SCORE.INTRA.DIHEDRAL>
-21.6738

>  <SCORE.INTRA.DIHEDRAL.0>
44.8331

>  <SCORE.INTRA.POLAR>
-1.7402

>  <SCORE.INTRA.POLAR.0>
-0.108895

>  <SCORE.INTRA.REPUL>
-0.00912235

>  <SCORE.INTRA.REPUL.0>
0.00912235

>  <SCORE.INTRA.SOLV>
0.571974

>  <SCORE.INTRA.SOLV.lig_0>
-53.9067

>  <SCORE.INTRA.VDW>
3.3315

>  <SCORE.INTRA.VDW.0>
-2.93492

>  <SCORE.INTRA.norm>
-0.356262

>  <SCORE.RESTR>
20.6337

>  <SCORE.RESTR.CAVITY>
20.6337

>  <SCORE.RESTR.norm>
0.557668

>  <SCORE.SYSTEM>
0

>  <SCORE.SYSTEM.CONST>
0

>  <SCORE.SYSTEM.DIHEDRAL>
0

>  <SCORE.SYSTEM.SOLV>
0

>  <SCORE.SYSTEM.norm>
0

>  <SCORE.heavy>
37

>  <SCORE.norm>
-0.0162611

>  <RMSD>
17.313

$$$$
lig.pdb
 OpenBabel11021811453D
libRbt.so/2013.1/901 2013/11/27
 37 40  0  0  0  0  0  0  0  0999 V2000
  -14.2745    5.5835    6.5994 C   0  0  2  0  0  0  0  0  0  0  0  0
  -15.8360    5.6369    6.6759 C   0  0  1  0  0  0  0  0  0  0  0  0
  -16.3860    7.0440    7.0518 C   0  0  0  0  0  0  0  0  0  0  0  0
  -15.6517    7.6172    8.2892 C   0  0  1  0  0  0  0  0  0  0  0  0
  -14.1282    7.6411    8.0326 C   0  0  1  0  0  0  0  0  0  0  0  0
  -13.3698    8.2553    9.2398 C   0  0  1  0  0  0  0  0  0  0  0  0
  -13.9479    9.6549    9.6052 C   0  0  1  0  0  0  0  0  0  0  0  0
  -15.4956    9.6200    9.7771 C   0  0  2  0  0  0  0  0  0  0  0  0
  -13.1333   11.6322   10.8055 C   0  0  0  0  0  0  0  0  0  0  0  0
  -13.6477    6.3044    7.7096 O   0  0  0  0  0  0  0  0  0  0  0  0
  -16.1432    8.9375    8.6597 O   0  0  0  0  0  0  0  0  0  0  0  0
  -16.4143    5.2066    5.3843 N   0  0  0  0  0  0  0  0  0  0  0  0
  -13.2677   10.1595   10.8159 N   0  0  0  0  0  0  0  0  0  0  0  0
  -13.3894    7.3811   10.3610 O   0  0  0  0  0  0  0  0  0  0  0  0
  -16.0191   10.9696    9.9483 O   0  0  0  0  0  0  0  0  0  0  0  0
  -13.7908    6.0960    5.3204 O   0  0  0  0  0  0  0  0  0  0  0  0
  -17.1614   11.1663   10.8374 C   0  0  2  0  0  0  0  0  0  0  0  0
  -16.8020   12.1341   12.0005 C   0  0  1  0  0  0  0  0  0  0  0  0
  -15.8204   11.4777   13.0132 C   0  0  2  0  0  0  0  0  0  0  0  0
  -16.3603   10.1052   13.5099 C   0  0  1  0  0  0  0  0  0  0  0  0
  -16.7393    9.1834   12.3174 C   0  0  1  0  0  0  0  0  0  0  0  0
  -17.4054    7.8662   12.7943 C   0  0  0  0  0  0  0  0  0  0  0  0
  -17.6113    9.8909   11.3844 O   0  0  0  0  0  0  0  0  0  0  0  0
  -15.3997    9.4436   14.4198 N   0  0  0  0  0  0  0  0  0  0  0  0
  -16.2902   13.3635   11.4894 O   0  0  0  0  0  0  0  0  0  0  0  0
  -15.5503   12.3505   14.1081 O   0  0  0  0  0  0  0  0  0  0  0  0
  -16.5184    7.1196   13.6208 O   0  0  0  0  0  0  0  0  0  0  0  0
  -12.6103    5.4672    4.7416 C   0  0  1  0  0  0  0  0  0  0  0  0
  -12.0630    6.2659    3.5256 C   0  0  1  0  0  0  0  0  0  0  0  0
  -10.8646    5.5285    2.8644 C   0  0  2  0  0  0  0  0  0  0  0  0
   -9.7358    5.1859    3.8902 C   0  0  1  0  0  0  0  0  0  0  0  0
  -10.2768    4.5035    5.1823 C   0  0  0  0  0  0  0  0  0  0  0  0
  -11.4896    5.2625    5.8001 C   0  0  2  0  0  0  0  0  0  0  0  0
   -8.6851    4.3595    3.2584 N   0  0  0  0  0  0  0  0  0  0  0  0
  -11.9740    4.5253    6.9873 N   0  0  0  0  0  0  0  0  0  0  0  0
  -13.0940    6.5099    2.5741 O   0  0  0  0  0  0  0  0  0  0  0  0
  -10.3405    6.2983    1.7853 O   0  0  0  0  0  0  0  0  0  0  0  0
  1  2  1  0  0  0  0
  1 16  1  6  0  0  0
  2  3  1  0  0  0  0
  2 12  1  6  0  0  0
  4 11  1  6  0  0  0
  4  3  1  0  0  0  0
  5  4  1  0  0  0  0
  5 10  1  1  0  0  0
  6  7  1  0  0  0  0
  6  5  1  0  0  0  0
  6 14  1  1  0  0  0
  7  8  1  0  0  0  0
  7 13  1  1  0  0  0
  8 15  1  6  0  0  0
  8 11  1  0  0  0  0
  9 13  1  0  0  0  0
 10  1  1  0  0  0  0
 17 15  1  6  0  0  0
 17 18  1  0  0  0  0
 18 25  1  6  0  0  0
 19 18  1  0  0  0  0
 19 26  1  1  0  0  0
 20 19  1  0  0  0  0
 20 24  1  6  0  0  0
 21 23  1  0  0  0  0
 21 20  1  0  0  0  0
 21 22  1  1  0  0  0
 23 17  1  0  0  0  0
 27 22  1  0  0  0  0
 28 29  1  0  0  0  0
 28 16  1  1  0  0  0
 29 36  1  6  0  0  0
 30 37  1  6  0  0  0
 30 29  1  0  0  0  0
 31 30  1  0  0  0  0
 31 34  1  6  0  0  0
 32 31  1  0  0  0  0
 32 33  1  0  0  0  0
 33 28  1  0  0  0  0
 33 35  1  1  0  0  0
M  END
>  <CHROM.1>
71.21648046,-144.99178201,147.22609952,121.35512276,119.98338332,-144.80946824
61.66482210,-64.01619718,-61.11094349,147.83241511,-44.98940162,-169.83992117
-174.01416203,31.57207928,164.49033346,-172.40953379,-14.25371720,8.00835511
8.51351047,1.06291176,-0.52076244,-2.39559744

>  <Name>
lig.pdb

>  <RI>
0

>  <Rbt.Current_Directory>
/home/itssahil/PROJECTS/Mol_Feturizer/New_Systems/rnas/2m4q

>  <Rbt.Executable>
rbdock ($Id: //depot/dev/client3/rdock/2013.1/src/exe/rbdock.cxx#4 $)

>  <Rbt.Library>
libRbt.so (2013.1, Build901 2013/11/27)

>  <Rbt.Parameter_File>
/export/apps/rDock/src/rDock_2013.1_src/data/scripts/dock_solv.prm

>  <Rbt.Receptor>
prm/blind_docking_60.prm

>  <SCORE>
-5.11881

>  <SCORE.INTER>
-23.5697

>  <SCORE.INTER.CONST>
1

>  <SCORE.INTER.POLAR>
-4.92193

>  <SCORE.INTER.ROT>
10

>  <SCORE.INTER.SOLV>
17.5282

>  <SCORE.INTER.VDW>
-15.4161

>  <SCORE.INTER.norm>
-0.637019

>  <SCORE.INTRA>
-2.58898

>  <SCORE.INTRA.DIHEDRAL>
-12.5093

>  <SCORE.INTRA.DIHEDRAL.0>
44.8331

>  <SCORE.INTRA.POLAR>
0.0232579

>  <SCORE.INTRA.POLAR.0>
-0.108895

>  <SCORE.INTRA.REPUL>
0.244797

>  <SCORE.INTRA.REPUL.0>
0.00912235

>  <SCORE.INTRA.SOLV>
0.244309

>  <SCORE.INTRA.SOLV.lig_0>
-53.9067

>  <SCORE.INTRA.VDW>
2.24047

>  <SCORE.INTRA.VDW.0>
-2.93492

>  <SCORE.INTRA.norm>
-0.0699725

>  <SCORE.RESTR>
21.0399

>  <SCORE.RESTR.CAVITY>
21.0399

>  <SCORE.RESTR.norm>
0.568646

>  <SCORE.SYSTEM>
0

>  <SCORE.SYSTEM.CONST>
0

>  <SCORE.SYSTEM.DIHEDRAL>
0

>  <SCORE.SYSTEM.SOLV>
0

>  <SCORE.SYSTEM.norm>
0

>  <SCORE.heavy>
37

>  <SCORE.norm>
-0.138346

>  <RMSD>
17.340

$$$$
lig.pdb
 OpenBabel11021811453D
libRbt.so/2013.1/901 2013/11/27
 37 40  0  0  0  0  0  0  0  0999 V2000
  -13.6420    3.9645    7.3632 C   0  0  2  0  0  0  0  0  0  0  0  0
  -15.0770    3.6583    7.9055 C   0  0  1  0  0  0  0  0  0  0  0  0
  -15.9436    4.9355    8.1089 C   0  0  0  0  0  0  0  0  0  0  0  0
  -15.1649    6.0178    8.8971 C   0  0  1  0  0  0  0  0  0  0  0  0
  -13.8311    6.3313    8.1829 C   0  0  1  0  0  0  0  0  0  0  0  0
  -13.0502    7.4479    8.9267 C   0  0  1  0  0  0  0  0  0  0  0  0
  -13.9427    8.7083    9.1307 C   0  0  1  0  0  0  0  0  0  0  0  0
  -15.3149    8.3531    9.7766 C   0  0  2  0  0  0  0  0  0  0  0  0
  -13.8806   11.0177    9.9532 C   0  0  0  0  0  0  0  0  0  0  0  0
  -13.0386    5.1181    8.0342 O   0  0  0  0  0  0  0  0  0  0  0  0
  -15.9513    7.2276    9.0968 O   0  0  0  0  0  0  0  0  0  0  0  0
  -15.7702    2.7291    6.9869 N   0  0  0  0  0  0  0  0  0  0  0  0
  -13.1980    9.7061    9.9263 N   0  0  0  0  0  0  0  0  0  0  0  0
  -12.5309    6.9785   10.1642 O   0  0  0  0  0  0  0  0  0  0  0  0
  -16.1861    9.5215    9.7954 O   0  0  0  0  0  0  0  0  0  0  0  0
  -13.6559    4.1653    5.9169 O   0  0  0  0  0  0  0  0  0  0  0  0
  -17.0645    9.7173   10.9461 C   0  0  2  0  0  0  0  0  0  0  0  0
  -18.0459   10.8990   10.7033 C   0  0  1  0  0  0  0  0  0  0  0  0
  -17.3124   12.2706   10.7257 C   0  0  2  0  0  0  0  0  0  0  0  0
  -16.4714   12.4367   12.0246 C   0  0  1  0  0  0  0  0  0  0  0  0
  -15.5308   11.2195   12.2467 C   0  0  1  0  0  0  0  0  0  0  0  0
  -14.7864   11.3049   13.6050 C   0  0  0  0  0  0  0  0  0  0  0  0
  -16.2823    9.9715   12.1511 O   0  0  0  0  0  0  0  0  0  0  0  0
  -15.7164   13.7089   12.0208 N   0  0  0  0  0  0  0  0  0  0  0  0
  -18.7708   10.7071    9.4899 O   0  0  0  0  0  0  0  0  0  0  0  0
  -18.2319   13.3490   10.5674 O   0  0  0  0  0  0  0  0  0  0  0  0
  -13.8850   12.4069   13.6208 O   0  0  0  0  0  0  0  0  0  0  0  0
  -12.3722    4.2364    5.2305 C   0  0  1  0  0  0  0  0  0  0  0  0
  -11.5954    5.5358    5.5829 C   0  0  1  0  0  0  0  0  0  0  0  0
  -10.2755    5.6381    4.7677 C   0  0  2  0  0  0  0  0  0  0  0  0
   -9.3799    4.3660    4.9210 C   0  0  1  0  0  0  0  0  0  0  0  0
  -10.1679    3.0394    4.7046 C   0  0  0  0  0  0  0  0  0  0  0  0
  -11.4932    2.9872    5.5229 C   0  0  2  0  0  0  0  0  0  0  0  0
   -8.2093    4.4363    4.0205 N   0  0  0  0  0  0  0  0  0  0  0  0
  -12.2034    1.7250    5.2229 N   0  0  0  0  0  0  0  0  0  0  0  0
  -12.4094    6.6853    5.3737 O   0  0  0  0  0  0  0  0  0  0  0  0
   -9.5494    6.8066    5.1405 O   0  0  0  0  0  0  0  0  0  0  0  0
  1  2  1  0  0  0  0
  1 16  1  6  0  0  0
  2  3  1  0  0  0  0
  2 12  1  6  0  0  0
  4 11  1  6  0  0  0
  4  3  1  0  0  0  0
  5  4  1  0  0  0  0
  5 10  1  1  0  0  0
  6  7  1  0  0  0  0
  6  5  1  0  0  0  0
  6 14  1  1  0  0  0
  7  8  1  0  0  0  0
  7 13  1  1  0  0  0
  8 15  1  6  0  0  0
  8 11  1  0  0  0  0
  9 13  1  0  0  0  0
 10  1  1  0  0  0  0
 17 15  1  6  0  0  0
 17 18  1  0  0  0  0
 18 25  1  6  0  0  0
 19 18  1  0  0  0  0
 19 26  1  1  0  0  0
 20 19  1  0  0  0  0
 20 24  1  6  0  0  0
 21 23  1  0  0  0  0
 21 20  1  0  0  0  0
 21 22  1  1  0  0  0
 23 17  1  0  0  0  0
 27 22  1  0  0  0  0
 28 29  1  0  0  0  0
 28 16  1  1  0  0  0
 29 36  1  6  0  0  0
 30 37  1  1  0  0  0
 30 29  1  0  0  0  0
 31 30  1  0  0  0  0
 31 34  1  6  0  0  0
 32 31  1  0  0  0  0
 32 33  1  0  0  0  0
 33 28  1  0  0  0  0
 33 35  1  6  0  0  0
M  END
>  <CHROM.1>
79.91877937,-143.17296426,169.63300714,-171.14115184,-172.41560188,-169.91059041
-175.64270898,67.07961525,-65.90186998,-53.14931295,52.08519556,-69.45000469
175.64149669,-63.56931688,113.53460201,69.03712396,-14.05846306,7.60648019
8.57258844,1.07789855,-0.31167518,-2.63038482

>  <Name>
lig.pdb

>  <RI>
0

>  <Rbt.Current_Directory>
/home/itssahil/PROJECTS/Mol_Feturizer/New_Systems/rnas/2m4q

>  <Rbt.Executable>
rbdock ($Id: //depot/dev/client3/rdock/2013.1/src/exe/rbdock.cxx#4 $)

>  <Rbt.Library>
libRbt.so (2013.1, Build901 2013/11/27)

>  <Rbt.Parameter_File>
/export/apps/rDock/src/rDock_2013.1_src/data/scripts/dock_solv.prm

>  <Rbt.Receptor>
prm/blind_docking_60.prm

>  <SCORE>
-13.9093

>  <SCORE.INTER>
-11.6482

>  <SCORE.INTER.CONST>
1

>  <SCORE.INTER.POLAR>
-3.64452

>  <SCORE.INTER.ROT>
10

>  <SCORE.INTER.SOLV>
21.3968

>  <SCORE.INTER.VDW>
-13.016

>  <SCORE.INTER.norm>
-0.314817

>  <SCORE.INTRA>
-16.7059

>  <SCORE.INTRA.DIHEDRAL>
-33.54

>  <SCORE.INTRA.DIHEDRAL.0>
44.8331

>  <SCORE.INTRA.POLAR>
-1.01704

>  <SCORE.INTRA.POLAR.0>
-0.108895

>  <SCORE.INTRA.REPUL>
-0.00912235

>  <SCORE.INTRA.REPUL.0>
0.00912235

>  <SCORE.INTRA.SOLV>
0.335618

>  <SCORE.INTRA.SOLV.lig_0>
-53.9067

>  <SCORE.INTRA.VDW>
3.39981

>  <SCORE.INTRA.VDW.0>
-2.93492

>  <SCORE.INTRA.norm>
-0.451512

>  <SCORE.RESTR>
14.4448

>  <SCORE.RESTR.CAVITY>
14.4448

>  <SCORE.RESTR.norm>
0.390401

>  <SCORE.SYSTEM>
0

>  <SCORE.SYSTEM.CONST>
0

>  <SCORE.SYSTEM.DIHEDRAL>
0

>  <SCORE.SYSTEM.SOLV>
0

>  <SCORE.SYSTEM.norm>
0

>  <SCORE.heavy>
37

>  <SCORE.norm>
-0.375928

>  <RMSD>
17.364

$$$$
lig.pdb
 OpenBabel11021811453D
libRbt.so/2013.1/901 2013/11/27
 37 40  0  0  0  0  0  0  0  0999 V2000
  -14.0275    5.4265    4.4752 C   0  0  2  0  0  0  0  0  0  0  0  0
  -15.1068    6.5023    4.1216 C   0  0  1  0  0  0  0  0  0  0  0  0
  -15.2182    7.6346    5.1842 C   0  0  0  0  0  0  0  0  0  0  0  0
  -15.3241    7.0488    6.6141 C   0  0  1  0  0  0  0  0  0  0  0  0
  -14.1259    6.1130    6.8894 C   0  0  1  0  0  0  0  0  0  0  0  0
  -14.1814    5.5475    8.3340 C   0  0  1  0  0  0  0  0  0  0  0  0
  -14.3076    6.6982    9.3765 C   0  0  1  0  0  0  0  0  0  0  0  0
  -15.4710    7.6742    9.0300 C   0  0  2  0  0  0  0  0  0  0  0  0
  -15.8114    6.3326   11.2787 C   0  0  0  0  0  0  0  0  0  0  0  0
  -14.0704    5.0537    5.8909 O   0  0  0  0  0  0  0  0  0  0  0  0
  -15.4237    8.0881    7.6300 O   0  0  0  0  0  0  0  0  0  0  0  0
  -14.8098    7.0912    2.7977 N   0  0  0  0  0  0  0  0  0  0  0  0
  -14.4570    6.1156   10.7260 N   0  0  0  0  0  0  0  0  0  0  0  0
  -15.2346    4.6033    8.4789 O   0  0  0  0  0  0  0  0  0  0  0  0
  -15.4522    8.8257    9.9235 O   0  0  0  0  0  0  0  0  0  0  0  0
  -12.6892    5.8806    4.1074 O   0  0  0  0  0  0  0  0  0  0  0  0
  -15.0048   10.1115    9.3937 C   0  0  2  0  0  0  0  0  0  0  0  0
  -14.1374   10.8724   10.4364 C   0  0  1  0  0  0  0  0  0  0  0  0
  -14.9921   11.3891   11.6291 C   0  0  2  0  0  0  0  0  0  0  0  0
  -16.2094   12.2200   11.1295 C   0  0  1  0  0  0  0  0  0  0  0  0
  -17.0277   11.4371   10.0651 C   0  0  1  0  0  0  0  0  0  0  0  0
  -18.1632   12.3023    9.4582 C   0  0  0  0  0  0  0  0  0  0  0  0
  -16.1472   10.9355    9.0141 O   0  0  0  0  0  0  0  0  0  0  0  0
  -17.0649   12.6559   12.2550 N   0  0  0  0  0  0  0  0  0  0  0  0
  -13.0534   10.0567   10.8772 O   0  0  0  0  0  0  0  0  0  0  0  0
  -14.1978   12.1404   12.5445 O   0  0  0  0  0  0  0  0  0  0  0  0
  -18.5274   11.8273    8.1662 O   0  0  0  0  0  0  0  0  0  0  0  0
  -11.5758    4.9712    4.3469 C   0  0  1  0  0  0  0  0  0  0  0  0
  -11.3404    4.0114    3.1470 C   0  0  1  0  0  0  0  0  0  0  0  0
  -10.2135    2.9875    3.4613 C   0  0  2  0  0  0  0  0  0  0  0  0
   -8.8892    3.6803    3.9198 C   0  0  1  0  0  0  0  0  0  0  0  0
   -9.1163    4.7477    5.0319 C   0  0  0  0  0  0  0  0  0  0  0  0
  -10.2674    5.7400    4.6865 C   0  0  2  0  0  0  0  0  0  0  0  0
   -7.8925    2.6761    4.3491 N   0  0  0  0  0  0  0  0  0  0  0  0
  -10.4526    6.6837    5.8101 N   0  0  0  0  0  0  0  0  0  0  0  0
  -12.5456    3.3430    2.7889 O   0  0  0  0  0  0  0  0  0  0  0  0
   -9.9731    2.1500    2.3333 O   0  0  0  0  0  0  0  0  0  0  0  0
  1  2  1  0  0  0  0
  1 16  1  1  0  0  0
  2  3  1  0  0  0  0
  2 12  1  6  0  0  0
  4 11  1  1  0  0  0
  4  3  1  0  0  0  0
  5  4  1  0  0  0  0
  5 10  1  6  0  0  0
  6  7  1  0  0  0  0
  6  5  1  0  0  0  0
  6 14  1  6  0  0  0
  7  8  1  0  0  0  0
  7 13  1  1  0  0  0
  8 15  1  1  0  0  0
  8 11  1  0  0  0  0
  9 13  1  0  0  0  0
 10  1  1  0  0  0  0
 17 15  1  1  0  0  0
 17 18  1  0  0  0  0
 18 25  1  1  0  0  0
 19 18  1  0  0  0  0
 19 26  1  1  0  0  0
 20 19  1  0  0  0  0
 20 24  1  1  0  0  0
 21 23  1  0  0  0  0
 21 20  1  0  0  0  0
 21 22  1  6  0  0  0
 23 17  1  0  0  0  0
 27 22  1  0  0  0  0
 28 29  1  0  0  0  0
 28 16  1  6  0  0  0
 29 36  1  1  0  0  0
 30 37  1  6  0  0  0
 30 29  1  0  0  0  0
 31 30  1  0  0  0  0
 31 34  1  1  0  0  0
 32 31  1  0  0  0  0
 32 33  1  0  0  0  0
 33 28  1  0  0  0  0
 33 35  1  1  0  0  0
M  END
>  <CHROM.1>
-51.61148422,106.71334089,-110.68834464,64.86447509,-140.56898860,-178.59177941
88.42363300,-67.46740743,155.88104747,174.26315003,-173.74847323,87.71480726
-177.63326261,-176.25420339,-38.82770464,-166.41040715,-13.85791102,7.34347019
7.30297785,0.99012975,0.53109161,-2.05561867

>  <Name>
lig.pdb

>  <RI>
0

>  <Rbt.Current_Directory>
/home/itssahil/PROJECTS/Mol_Feturizer/New_Systems/rnas/2m4q

>  <Rbt.Executable>
rbdock ($Id: //depot/dev/client3/rdock/2013.1/src/exe/rbdock.cxx#4 $)

>  <Rbt.Library>
libRbt.so (2013.1, Build901 2013/11/27)

>  <Rbt.Parameter_File>
/export/apps/rDock/src/rDock_2013.1_src/data/scripts/dock_solv.prm

>  <Rbt.Receptor>
prm/blind_docking_60.prm

>  <SCORE>
-6.90146

>  <SCORE.INTER>
-22.9448

>  <SCORE.INTER.CONST>
1

>  <SCORE.INTER.POLAR>
-5.01197

>  <SCORE.INTER.ROT>
10

>  <SCORE.INTER.SOLV>
17.7859

>  <SCORE.INTER.VDW>
-14.7853

>  <SCORE.INTER.norm>
-0.620131

>  <SCORE.INTRA>
-3.65053

>  <SCORE.INTRA.DIHEDRAL>
-20.1864

>  <SCORE.INTRA.DIHEDRAL.0>
44.8331

>  <SCORE.INTRA.POLAR>
0.0417949

>  <SCORE.INTRA.POLAR.0>
-0.108895

>  <SCORE.INTRA.REPUL>
-0.00912235

>  <SCORE.INTRA.REPUL.0>
0.00912235

>  <SCORE.INTRA.SOLV>
-2.03779

>  <SCORE.INTRA.SOLV.lig_0>
-53.9067

>  <SCORE.INTRA.VDW>
7.36507

>  <SCORE.INTRA.VDW.0>
-2.93492

>  <SCORE.INTRA.norm>
-0.0986629

>  <SCORE.RESTR>
19.6939

>  <SCORE.RESTR.CAVITY>
19.6939

>  <SCORE.RESTR.norm>
0.532268

>  <SCORE.SYSTEM>
0

>  <SCORE.SYSTEM.CONST>
0

>  <SCORE.SYSTEM.DIHEDRAL>
0

>  <SCORE.SYSTEM.SOLV>
0

>  <SCORE.SYSTEM.norm>
0

>  <SCORE.heavy>
37

>  <SCORE.norm>
-0.186526

>  <RMSD>
17.369

$$$$
lig.pdb
 OpenBabel11021811453D
libRbt.so/2013.1/901 2013/11/27
 37 40  0  0  0  0  0  0  0  0999 V2000
  -14.1494    4.4365    7.1132 C   0  0  2  0  0  0  0  0  0  0  0  0
  -15.6515    4.3075    7.5305 C   0  0  1  0  0  0  0  0  0  0  0  0
  -16.3483    5.6816    7.7541 C   0  0  0  0  0  0  0  0  0  0  0  0
  -15.4940    6.5982    8.6647 C   0  0  1  0  0  0  0  0  0  0  0  0
  -14.0771    6.7581    8.0695 C   0  0  1  0  0  0  0  0  0  0  0  0
  -13.2124    7.7107    8.9382 C   0  0  1  0  0  0  0  0  0  0  0  0
  -13.9372    9.0717    9.1595 C   0  0  1  0  0  0  0  0  0  0  0  0
  -15.3922    8.8798    9.6813 C   0  0  2  0  0  0  0  0  0  0  0  0
  -13.8042   11.1822   10.4013 C   0  0  0  0  0  0  0  0  0  0  0  0
  -13.4491    5.4547    7.8992 O   0  0  0  0  0  0  0  0  0  0  0  0
  -16.1205    7.8945    8.8860 O   0  0  0  0  0  0  0  0  0  0  0  0
  -16.3900    3.5373    6.5062 N   0  0  0  0  0  0  0  0  0  0  0  0
  -13.1287    9.9092   10.0696 N   0  0  0  0  0  0  0  0  0  0  0  0
  -12.8629    7.1058   10.1765 O   0  0  0  0  0  0  0  0  0  0  0  0
  -16.0937   10.1571    9.7138 O   0  0  0  0  0  0  0  0  0  0  0  0
  -14.0202    4.7157    5.6856 O   0  0  0  0  0  0  0  0  0  0  0  0
  -17.1881   10.3269   10.6664 C   0  0  2  0  0  0  0  0  0  0  0  0
  -17.5928   11.8235   10.7892 C   0  0  1  0  0  0  0  0  0  0  0  0
  -16.5036   12.6560   11.5246 C   0  0  2  0  0  0  0  0  0  0  0  0
  -16.1332   12.0127   12.8924 C   0  0  1  0  0  0  0  0  0  0  0  0
  -15.7695   10.5105   12.7290 C   0  0  1  0  0  0  0  0  0  0  0  0
  -15.5306    9.8216   14.0982 C   0  0  0  0  0  0  0  0  0  0  0  0
  -16.8102    9.8137   11.9787 O   0  0  0  0  0  0  0  0  0  0  0  0
  -15.0488   12.7607   13.5656 N   0  0  0  0  0  0  0  0  0  0  0  0
  -17.8968   12.3673    9.5061 O   0  0  0  0  0  0  0  0  0  0  0  0
  -16.9149   14.0114   11.6886 O   0  0  0  0  0  0  0  0  0  0  0  0
  -15.9116    8.4506   14.0494 O   0  0  0  0  0  0  0  0  0  0  0  0
  -12.7058    4.5477    5.0789 C   0  0  1  0  0  0  0  0  0  0  0  0
  -11.7440    5.7134    5.4426 C   0  0  1  0  0  0  0  0  0  0  0  0
  -10.3814    5.5652    4.7087 C   0  0  2  0  0  0  0  0  0  0  0  0
   -9.7212    4.1694    4.9529 C   0  0  1  0  0  0  0  0  0  0  0  0
  -10.7063    2.9839    4.7250 C   0  0  0  0  0  0  0  0  0  0  0  0
  -12.0660    3.1825    5.4603 C   0  0  2  0  0  0  0  0  0  0  0  0
   -8.5061    4.0112    4.1255 N   0  0  0  0  0  0  0  0  0  0  0  0
  -12.9589    2.0445    5.1520 N   0  0  0  0  0  0  0  0  0  0  0  0
  -12.3412    6.9727    5.1510 O   0  0  0  0  0  0  0  0  0  0  0  0
   -9.4926    6.6111    5.0932 O   0  0  0  0  0  0  0  0  0  0  0  0
  1  2  1  0  0  0  0
  1 16  1  6  0  0  0
  2  3  1  0  0  0  0
  2 12  1  6  0  0  0
  4 11  1  6  0  0  0
  4  3  1  0  0  0  0
  5  4  1  0  0  0  0
  5 10  1  1  0  0  0
  6  7  1  0  0  0  0
  6  5  1  0  0  0  0
  6 14  1  1  0  0  0
  7  8  1  0  0  0  0
  7 13  1  1  0  0  0
  8 15  1  6  0  0  0
  8 11  1  0  0  0  0
  9 13  1  0  0  0  0
 10  1  1  0  0  0  0
 17 15  1  6  0  0  0
 17 18  1  0  0  0  0
 18 25  1  6  0  0  0
 19 18  1  0  0  0  0
 19 26  1  1  0  0  0
 20 19  1  0  0  0  0
 20 24  1  6  0  0  0
 21 23  1  0  0  0  0
 21 20  1  0  0  0  0
 21 22  1  1  0  0  0
 23 17  1  0  0  0  0
 27 22  1  0  0  0  0
 28 29  1  0  0  0  0
 28 16  1  1  0  0  0
 29 36  1  6  0  0  0
 30 37  1  1  0  0  0
 30 29  1  0  0  0  0
 31 30  1  0  0  0  0
 31 34  1  6  0  0  0
 32 31  1  0  0  0  0
 32 33  1  0  0  0  0
 33 28  1  0  0  0  0
 33 35  1  6  0  0  0
M  END
>  <CHROM.1>
-162.25169056,-153.55050035,-175.94980835,84.97044706,166.94265962,-165.57985993
-74.65398937,-173.10854830,148.45349535,-47.93850903,78.80456143,-75.58211597
-172.42038064,-64.27043503,69.96177779,64.74365064,-14.21568179,7.70771765
8.65386499,1.09219291,-0.41547113,-2.59925036

>  <Name>
lig.pdb

>  <RI>
0

>  <Rbt.Current_Directory>
/home/itssahil/PROJECTS/Mol_Feturizer/New_Systems/rnas/2m4q

>  <Rbt.Executable>
rbdock ($Id: //depot/dev/client3/rdock/2013.1/src/exe/rbdock.cxx#4 $)

>  <Rbt.Library>
libRbt.so (2013.1, Build901 2013/11/27)

>  <Rbt.Parameter_File>
/export/apps/rDock/src/rDock_2013.1_src/data/scripts/dock_solv.prm

>  <Rbt.Receptor>
prm/blind_docking_60.prm

>  <SCORE>
-10.9566

>  <SCORE.INTER>
-16.8134

>  <SCORE.INTER.CONST>
1

>  <SCORE.INTER.POLAR>
-3.67296

>  <SCORE.INTER.ROT>
10

>  <SCORE.INTER.SOLV>
20.5678

>  <SCORE.INTER.VDW>
-16.0883

>  <SCORE.INTER.norm>
-0.454416

>  <SCORE.INTRA>
-10.2738

>  <SCORE.INTRA.DIHEDRAL>
-28.6621

>  <SCORE.INTRA.DIHEDRAL.0>
44.8331

>  <SCORE.INTRA.POLAR>
0.0992449

>  <SCORE.INTRA.POLAR.0>
-0.108895

>  <SCORE.INTRA.REPUL>
-0.00912235

>  <SCORE.INTRA.REPUL.0>
0.00912235

>  <SCORE.INTRA.SOLV>
-0.609951

>  <SCORE.INTRA.SOLV.lig_0>
-53.9067

>  <SCORE.INTRA.VDW>
4.07037

>  <SCORE.INTRA.VDW.0>
-2.93492

>  <SCORE.INTRA.norm>
-0.277671

>  <SCORE.RESTR>
16.1306

>  <SCORE.RESTR.CAVITY>
16.1306

>  <SCORE.RESTR.norm>
0.435962

>  <SCORE.SYSTEM>
0

>  <SCORE.SYSTEM.CONST>
0

>  <SCORE.SYSTEM.DIHEDRAL>
0

>  <SCORE.SYSTEM.SOLV>
0

>  <SCORE.SYSTEM.norm>
0

>  <SCORE.heavy>
37

>  <SCORE.norm>
-0.296125

>  <RMSD>
17.412

$$$$
lig.pdb
 OpenBabel11021811453D
libRbt.so/2013.1/901 2013/11/27
 37 40  0  0  0  0  0  0  0  0999 V2000
  -12.3419    4.6446    5.2984 C   0  0  2  0  0  0  0  0  0  0  0  0
  -11.3526    5.8556    5.2569 C   0  0  1  0  0  0  0  0  0  0  0  0
  -11.6221    6.9089    6.3712 C   0  0  0  0  0  0  0  0  0  0  0  0
  -13.1218    7.2924    6.4248 C   0  0  1  0  0  0  0  0  0  0  0  0
  -13.9833    6.0230    6.6081 C   0  0  1  0  0  0  0  0  0  0  0  0
  -15.4898    6.3826    6.7122 C   0  0  1  0  0  0  0  0  0  0  0  0
  -15.7311    7.4480    7.8228 C   0  0  1  0  0  0  0  0  0  0  0  0
  -14.7922    8.6805    7.6627 C   0  0  2  0  0  0  0  0  0  0  0  0
  -17.4765    8.7808    6.7316 C   0  0  0  0  0  0  0  0  0  0  0  0
  -13.7222    5.0740    5.5342 O   0  0  0  0  0  0  0  0  0  0  0  0
  -13.4035    8.2735    7.4641 O   0  0  0  0  0  0  0  0  0  0  0  0
   -9.9605    5.3670    5.3619 N   0  0  0  0  0  0  0  0  0  0  0  0
  -17.1572    7.8346    7.8223 N   0  0  0  0  0  0  0  0  0  0  0  0
  -16.0046    6.8178    5.4603 O   0  0  0  0  0  0  0  0  0  0  0  0
  -14.9239    9.5727    8.8078 O   0  0  0  0  0  0  0  0  0  0  0  0
  -11.9343    3.6640    6.3009 O   0  0  0  0  0  0  0  0  0  0  0  0
  -14.4969    9.0909   10.1191 C   0  0  2  0  0  0  0  0  0  0  0  0
  -15.7225    8.7634   11.0188 C   0  0  1  0  0  0  0  0  0  0  0  0
  -16.4677   10.0528   11.4682 C   0  0  2  0  0  0  0  0  0  0  0  0
  -15.4876   11.0687   12.1234 C   0  0  1  0  0  0  0  0  0  0  0  0
  -14.2619   11.3406   11.2073 C   0  0  1  0  0  0  0  0  0  0  0  0
  -13.2101   12.2442   11.9027 C   0  0  0  0  0  0  0  0  0  0  0  0
  -13.6561   10.0826   10.7811 O   0  0  0  0  0  0  0  0  0  0  0  0
  -16.1769   12.3252   12.4903 N   0  0  0  0  0  0  0  0  0  0  0  0
  -16.5975    7.8496   10.3601 O   0  0  0  0  0  0  0  0  0  0  0  0
  -17.5492    9.7434   12.3447 O   0  0  0  0  0  0  0  0  0  0  0  0
  -13.6258   12.5838   13.2215 O   0  0  0  0  0  0  0  0  0  0  0  0
  -12.9757    2.8494    6.9141 C   0  0  1  0  0  0  0  0  0  0  0  0
  -13.8279    3.6621    7.9287 C   0  0  1  0  0  0  0  0  0  0  0  0
  -14.8682    2.7528    8.6416 C   0  0  2  0  0  0  0  0  0  0  0  0
  -15.7632    1.9647    7.6308 C   0  0  1  0  0  0  0  0  0  0  0  0
  -14.9380    1.2487    6.5198 C   0  0  0  0  0  0  0  0  0  0  0  0
  -13.8937    2.1893    5.8464 C   0  0  2  0  0  0  0  0  0  0  0  0
  -16.6361    1.0048    8.3398 N   0  0  0  0  0  0  0  0  0  0  0  0
  -13.1204    1.4234    4.8451 N   0  0  0  0  0  0  0  0  0  0  0  0
  -12.9949    4.3186    8.8788 O   0  0  0  0  0  0  0  0  0  0  0  0
  -15.6766    3.5218    9.5286 O   0  0  0  0  0  0  0  0  0  0  0  0
  1  2  1  0  0  0  0
  1 16  1  1  0  0  0
  2  3  1  0  0  0  0
  2 12  1  1  0  0  0
  4 11  1  1  0  0  0
  4  3  1  0  0  0  0
  5  4  1  0  0  0  0
  5 10  1  6  0  0  0
  6  7  1  0  0  0  0
  6  5  1  0  0  0  0
  6 14  1  6  0  0  0
  7  8  1  0  0  0  0
  7 13  1  6  0  0  0
  8 15  1  1  0  0  0
  8 11  1  0  0  0  0
  9 13  1  0  0  0  0
 10  1  1  0  0  0  0
 17 15  1  6  0  0  0
 17 18  1  0  0  0  0
 18 25  1  6  0  0  0
 19 18  1  0  0  0  0
 19 26  1  1  0  0  0
 20 19  1  0  0  0  0
 20 24  1  6  0  0  0
 21 23  1  0  0  0  0
 21 20  1  0  0  0  0
 21 22  1  1  0  0  0
 23 17  1  0  0  0  0
 27 22  1  0  0  0  0
 28 29  1  0  0  0  0
 28 16  1  6  0  0  0
 29 36  1  1  0  0  0
 30 37  1  6  0  0  0
 30 29  1  0  0  0  0
 31 30  1  0  0  0  0
 31 34  1  1  0  0  0
 32 31  1  0  0  0  0
 32 33  1  0  0  0  0
 33 28  1  0  0  0  0
 33 35  1  6  0  0  0
M  END
>  <CHROM.1>
-38.29624913,65.34681650,-78.25363037,62.25378350,-105.97404452,151.82795786
-64.26375290,-178.00280460,0.84530000,178.78306547,72.37719488,-73.74549410
177.23712693,59.72239375,-62.01376833,62.86911460,-14.47855605,6.74597785
8.35497289,-1.36150339,0.60911198,0.45821736

>  <Name>
lig.pdb

>  <RI>
0

>  <Rbt.Current_Directory>
/home/itssahil/PROJECTS/Mol_Feturizer/New_Systems/rnas/2m4q

>  <Rbt.Executable>
rbdock ($Id: //depot/dev/client3/rdock/2013.1/src/exe/rbdock.cxx#4 $)

>  <Rbt.Library>
libRbt.so (2013.1, Build901 2013/11/27)

>  <Rbt.Parameter_File>
/export/apps/rDock/src/rDock_2013.1_src/data/scripts/dock_solv.prm

>  <Rbt.Receptor>
prm/blind_docking_60.prm

>  <SCORE>
14.2097

>  <SCORE.INTER>
10.6601

>  <SCORE.INTER.CONST>
1

>  <SCORE.INTER.POLAR>
-2.96383

>  <SCORE.INTER.ROT>
10

>  <SCORE.INTER.SOLV>
15.8117

>  <SCORE.INTER.VDW>
1.44891

>  <SCORE.INTER.norm>
0.28811

>  <SCORE.INTRA>
-8.45786

>  <SCORE.INTRA.DIHEDRAL>
-26.2539

>  <SCORE.INTRA.DIHEDRAL.0>
44.8331

>  <SCORE.INTRA.POLAR>
-1.15324

>  <SCORE.INTRA.POLAR.0>
-0.108895

>  <SCORE.INTRA.REPUL>
-0.00912235

>  <SCORE.INTRA.REPUL.0>
0.00912235

>  <SCORE.INTRA.SOLV>
2.08376

>  <SCORE.INTRA.SOLV.lig_0>
-53.9067

>  <SCORE.INTRA.VDW>
7.59386

>  <SCORE.INTRA.VDW.0>
-2.93492

>  <SCORE.INTRA.norm>
-0.228591

>  <SCORE.RESTR>
12.0075

>  <SCORE.RESTR.CAVITY>
12.0075

>  <SCORE.RESTR.norm>
0.324526

>  <SCORE.SYSTEM>
0

>  <SCORE.SYSTEM.CONST>
0

>  <SCORE.SYSTEM.DIHEDRAL>
0

>  <SCORE.SYSTEM.SOLV>
0

>  <SCORE.SYSTEM.norm>
0

>  <SCORE.heavy>
37

>  <SCORE.norm>
0.384045

>  <RMSD>
17.430

$$$$
lig.pdb
 OpenBabel11021811453D
libRbt.so/2013.1/901 2013/11/27
 37 40  0  0  0  0  0  0  0  0999 V2000
  -12.1793    5.4651    6.8458 C   0  0  2  0  0  0  0  0  0  0  0  0
  -13.6541    5.0328    6.5539 C   0  0  1  0  0  0  0  0  0  0  0  0
  -14.6773    6.1969    6.7015 C   0  0  0  0  0  0  0  0  0  0  0  0
  -14.4709    6.9545    8.0366 C   0  0  1  0  0  0  0  0  0  0  0  0
  -13.0113    7.4506    8.1400 C   0  0  1  0  0  0  0  0  0  0  0  0
  -12.7879    8.2549    9.4488 C   0  0  1  0  0  0  0  0  0  0  0  0
  -13.8322    9.4033    9.5802 C   0  0  1  0  0  0  0  0  0  0  0  0
  -15.2905    8.8903    9.3897 C   0  0  2  0  0  0  0  0  0  0  0  0
  -13.3356   11.5158   10.7224 C   0  0  0  0  0  0  0  0  0  0  0  0
  -12.0863    6.3313    8.0231 O   0  0  0  0  0  0  0  0  0  0  0  0
  -15.4126    8.0542    8.1982 O   0  0  0  0  0  0  0  0  0  0  0  0
  -13.7467    4.4601    5.1934 N   0  0  0  0  0  0  0  0  0  0  0  0
  -13.6485   10.0791   10.8812 N   0  0  0  0  0  0  0  0  0  0  0  0
  -12.8113    7.4044   10.5880 O   0  0  0  0  0  0  0  0  0  0  0  0
  -16.2225   10.0102    9.3484 O   0  0  0  0  0  0  0  0  0  0  0  0
  -11.5805    6.1167    5.6842 O   0  0  0  0  0  0  0  0  0  0  0  0
  -17.3188   10.0403   10.3134 C   0  0  2  0  0  0  0  0  0  0  0  0
  -18.3210   11.1827    9.9829 C   0  0  1  0  0  0  0  0  0  0  0  0
  -17.7109   12.5847   10.2695 C   0  0  2  0  0  0  0  0  0  0  0  0
  -17.1514   12.6681   11.7193 C   0  0  1  0  0  0  0  0  0  0  0  0
  -16.1827   11.4902   12.0185 C   0  0  1  0  0  0  0  0  0  0  0  0
  -15.7232   11.4822   13.5001 C   0  0  0  0  0  0  0  0  0  0  0  0
  -16.8055   10.2173   11.6675 O   0  0  0  0  0  0  0  0  0  0  0  0
  -16.5079   13.9752   11.9760 N   0  0  0  0  0  0  0  0  0  0  0  0
  -18.7813   11.0716    8.6374 O   0  0  0  0  0  0  0  0  0  0  0  0
  -18.6610   13.6195   10.0248 O   0  0  0  0  0  0  0  0  0  0  0  0
  -16.7823   11.0690   14.3573 O   0  0  0  0  0  0  0  0  0  0  0  0
  -10.6965    5.3209    4.8421 C   0  0  1  0  0  0  0  0  0  0  0  0
  -10.7422    5.7769    3.3567 C   0  0  1  0  0  0  0  0  0  0  0  0
   -9.8680    4.8551    2.4605 C   0  0  2  0  0  0  0  0  0  0  0  0
   -8.4007    4.7305    2.9853 C   0  0  1  0  0  0  0  0  0  0  0  0
   -8.3262    4.4055    4.5074 C   0  0  0  0  0  0  0  0  0  0  0  0
   -9.2325    5.3382    5.3662 C   0  0  2  0  0  0  0  0  0  0  0  0
   -7.6435    3.7353    2.1965 N   0  0  0  0  0  0  0  0  0  0  0  0
   -9.1451    4.9325    6.7857 N   0  0  0  0  0  0  0  0  0  0  0  0
  -12.0836    5.8203    2.8811 O   0  0  0  0  0  0  0  0  0  0  0  0
   -9.8775    5.3173    1.1122 O   0  0  0  0  0  0  0  0  0  0  0  0
  1  2  1  0  0  0  0
  1 16  1  6  0  0  0
  2  3  1  0  0  0  0
  2 12  1  6  0  0  0
  4 11  1  6  0  0  0
  4  3  1  0  0  0  0
  5  4  1  0  0  0  0
  5 10  1  1  0  0  0
  6  7  1  0  0  0  0
  6  5  1  0  0  0  0
  6 14  1  1  0  0  0
  7  8  1  0  0  0  0
  7 13  1  1  0  0  0
  8 15  1  6  0  0  0
  8 11  1  0  0  0  0
  9 13  1  0  0  0  0
 10  1  1  0  0  0  0
 17 15  1  6  0  0  0
 17 18  1  0  0  0  0
 18 25  1  6  0  0  0
 19 18  1  0  0  0  0
 19 26  1  1  0  0  0
 20 19  1  0  0  0  0
 20 24  1  6  0  0  0
 21 23  1  0  0  0  0
 21 20  1  0  0  0  0
 21 22  1  1  0  0  0
 23 17  1  0  0  0  0
 27 22  1  0  0  0  0
 28 29  1  0  0  0  0
 28 16  1  1  0  0  0
 29 36  1  6  0  0  0
 30 37  1  6  0  0  0
 30 29  1  0  0  0  0
 31 30  1  0  0  0  0
 31 34  1  6  0  0  0
 32 31  1  0  0  0  0
 32 33  1  0  0  0  0
 33 28  1  0  0  0  0
 33 35  1  1  0  0  0
M  END
>  <CHROM.1>
-61.10921523,-122.99565841,120.31847104,120.06578917,-171.49901052,-100.12506605
-176.94581440,-161.58548732,72.51849604,-62.07790058,-60.27150839,149.16217638
-70.17443378,64.27075537,-173.47637252,13.38130793,-13.66968287,8.17500755
7.96014274,-0.87565844,-0.49753265,1.21706129

>  <Name>
lig.pdb

>  <RI>
0

>  <Rbt.Current_Directory>
/home/afrankz/demos/rdock_decoys_rna/rnas/2m4q

>  <Rbt.Executable>
rbdock ($Id: //depot/dev/client3/rdock/2013.1/src/exe/rbdock.cxx#4 $)

>  <Rbt.Library>
libRbt.so (2013.1, Build901 2013/11/27)

>  <Rbt.Parameter_File>
/export/apps/rDock/src/rDock_2013.1_src/data/scripts/dock_solv.prm

>  <Rbt.Receptor>
prm/blind_docking_80.prm

>  <SCORE>
6.85366

>  <SCORE.INTER>
-11.8466

>  <SCORE.INTER.CONST>
1

>  <SCORE.INTER.POLAR>
-2.8584

>  <SCORE.INTER.ROT>
10

>  <SCORE.INTER.SOLV>
18.8093

>  <SCORE.INTER.VDW>
-14.9061

>  <SCORE.INTER.norm>
-0.320177

>  <SCORE.INTRA>
-7.75071

>  <SCORE.INTRA.DIHEDRAL>
-13.4497

>  <SCORE.INTRA.DIHEDRAL.0>
44.8331

>  <SCORE.INTRA.POLAR>
-0.220269

>  <SCORE.INTRA.POLAR.0>
-0.108895

>  <SCORE.INTRA.REPUL>
-0.00912235

>  <SCORE.INTRA.REPUL.0>
0.00912235

>  <SCORE.INTRA.SOLV>
-0.0380872

>  <SCORE.INTRA.SOLV.lig_0>
-53.9067

>  <SCORE.INTRA.VDW>
-0.212297

>  <SCORE.INTRA.VDW.0>
-2.93492

>  <SCORE.INTRA.norm>
-0.209479

>  <SCORE.RESTR>
26.4509

>  <SCORE.RESTR.CAVITY>
26.4509

>  <SCORE.RESTR.norm>
0.71489

>  <SCORE.SYSTEM>
0

>  <SCORE.SYSTEM.CONST>
0

>  <SCORE.SYSTEM.DIHEDRAL>
0

>  <SCORE.SYSTEM.SOLV>
0

>  <SCORE.SYSTEM.norm>
0

>  <SCORE.heavy>
37

>  <SCORE.norm>
0.185234

>  <RMSD>
17.439

$$$$
lig.pdb
 OpenBabel11021811453D
libRbt.so/2013.1/901 2013/11/27
 37 40  0  0  0  0  0  0  0  0999 V2000
  -13.0338    5.0938    7.2257 C   0  0  2  0  0  0  0  0  0  0  0  0
  -14.5754    4.8306    7.1881 C   0  0  1  0  0  0  0  0  0  0  0  0
  -15.4248    6.1267    7.3378 C   0  0  0  0  0  0  0  0  0  0  0  0
  -14.9367    6.9778    8.5362 C   0  0  1  0  0  0  0  0  0  0  0  0
  -13.4307    7.2876    8.3830 C   0  0  1  0  0  0  0  0  0  0  0  0
  -12.9244    8.1799    9.5479 C   0  0  1  0  0  0  0  0  0  0  0  0
  -13.7988    9.4617    9.6862 C   0  0  1  0  0  0  0  0  0  0  0  0
  -15.3184    9.1266    9.7555 C   0  0  2  0  0  0  0  0  0  0  0  0
  -13.8193   11.6329   10.8261 C   0  0  0  0  0  0  0  0  0  0  0  0
  -12.6680    6.0515    8.2717 O   0  0  0  0  0  0  0  0  0  0  0  0
  -15.7114    8.2010    8.6960 O   0  0  0  0  0  0  0  0  0  0  0  0
  -14.9343    4.1446    5.9279 N   0  0  0  0  0  0  0  0  0  0  0  0
  -13.3474   10.2318   10.8636 N   0  0  0  0  0  0  0  0  0  0  0  0
  -12.8756    7.4551   10.7701 O   0  0  0  0  0  0  0  0  0  0  0  0
  -16.1115   10.3487    9.7121 O   0  0  0  0  0  0  0  0  0  0  0  0
  -12.5436    5.5454    5.9263 O   0  0  0  0  0  0  0  0  0  0  0  0
  -17.3274   10.4194   10.5186 C   0  0  2  0  0  0  0  0  0  0  0  0
  -17.8303   11.8859   10.6414 C   0  0  1  0  0  0  0  0  0  0  0  0
  -16.8949   12.7418   11.5427 C   0  0  2  0  0  0  0  0  0  0  0  0
  -16.6672   12.0603   12.9231 C   0  0  1  0  0  0  0  0  0  0  0  0
  -16.1994   10.5878   12.7545 C   0  0  1  0  0  0  0  0  0  0  0  0
  -16.0994    9.8537   14.1174 C   0  0  0  0  0  0  0  0  0  0  0  0
  -17.0927    9.8704   11.8497 O   0  0  0  0  0  0  0  0  0  0  0  0
  -15.7235   12.8343   13.7591 N   0  0  0  0  0  0  0  0  0  0  0  0
  -17.9974   12.4680    9.3499 O   0  0  0  0  0  0  0  0  0  0  0  0
  -17.4015   14.0654   11.7002 O   0  0  0  0  0  0  0  0  0  0  0  0
  -15.8896   10.7801   15.1782 O   0  0  0  0  0  0  0  0  0  0  0  0
  -11.3223    4.9367    5.4144 C   0  0  1  0  0  0  0  0  0  0  0  0
  -11.5101    3.4242    5.1089 C   0  0  1  0  0  0  0  0  0  0  0  0
  -10.1723    2.7737    4.6567 C   0  0  2  0  0  0  0  0  0  0  0  0
   -9.5160    3.5317    3.4574 C   0  0  1  0  0  0  0  0  0  0  0  0
   -9.4383    5.0716    3.6822 C   0  0  0  0  0  0  0  0  0  0  0  0
  -10.7935    5.6792    4.1545 C   0  0  2  0  0  0  0  0  0  0  0  0
   -8.1804    2.9758    3.1523 N   0  0  0  0  0  0  0  0  0  0  0  0
  -10.6220    7.1285    4.3942 N   0  0  0  0  0  0  0  0  0  0  0  0
  -12.0481    2.7424    6.2372 O   0  0  0  0  0  0  0  0  0  0  0  0
  -10.3720    1.4009    4.3294 O   0  0  0  0  0  0  0  0  0  0  0  0
  1  2  1  0  0  0  0
  1 16  1  6  0  0  0
  2  3  1  0  0  0  0
  2 12  1  6  0  0  0
  4 11  1  6  0  0  0
  4  3  1  0  0  0  0
  5  4  1  0  0  0  0
  5 10  1  1  0  0  0
  6  7  1  0  0  0  0
  6  5  1  0  0  0  0
  6 14  1  1  0  0  0
  7  8  1  0  0  0  0
  7 13  1  1  0  0  0
  8 15  1  6  0  0  0
  8 11  1  0  0  0  0
  9 13  1  0  0  0  0
 10  1  1  0  0  0  0
 17 15  1  6  0  0  0
 17 18  1  0  0  0  0
 18 25  1  6  0  0  0
 19 18  1  0  0  0  0
 19 26  1  1  0  0  0
 20 19  1  0  0  0  0
 20 24  1  6  0  0  0
 21 23  1  0  0  0  0
 21 20  1  0  0  0  0
 21 22  1  1  0  0  0
 23 17  1  0  0  0  0
 27 22  1  0  0  0  0
 28 29  1  0  0  0  0
 28 16  1  6  0  0  0
 29 36  1  1  0  0  0
 30 37  1  6  0  0  0
 30 29  1  0  0  0  0
 31 30  1  0  0  0  0
 31 34  1  1  0  0  0
 32 31  1  0  0  0  0
 32 33  1  0  0  0  0
 33 28  1  0  0  0  0
 33 35  1  1  0  0  0
M  END
>  <CHROM.1>
-82.04299438,-143.22271967,162.11303246,117.69327908,165.20418664,-134.54387209
-83.65595992,-42.87833314,-25.06745225,-56.87472347,77.24125586,65.50533476
173.85076376,-161.13458198,-55.46631339,-177.15423860,-13.91233770,7.80433289
8.61050393,0.68634182,-0.92284968,3.12789173

>  <Name>
lig.pdb

>  <RI>
0

>  <Rbt.Current_Directory>
/home/afrankz/demos/rdock_decoys_rna/rnas/2m4q

>  <Rbt.Executable>
rbdock ($Id: //depot/dev/client3/rdock/2013.1/src/exe/rbdock.cxx#4 $)

>  <Rbt.Library>
libRbt.so (2013.1, Build901 2013/11/27)

>  <Rbt.Parameter_File>
/export/apps/rDock/src/rDock_2013.1_src/data/scripts/dock_solv.prm

>  <Rbt.Receptor>
prm/blind_docking_80.prm

>  <SCORE>
16.6862

>  <SCORE.INTER>
-6.70666

>  <SCORE.INTER.CONST>
1

>  <SCORE.INTER.POLAR>
-4.10929

>  <SCORE.INTER.ROT>
10

>  <SCORE.INTER.SOLV>
20.8748

>  <SCORE.INTER.VDW>
-7.99841

>  <SCORE.INTER.norm>
-0.181261

>  <SCORE.INTRA>
-5.18407

>  <SCORE.INTRA.DIHEDRAL>
-13.8031

>  <SCORE.INTRA.DIHEDRAL.0>
44.8331

>  <SCORE.INTRA.POLAR>
0.10886

>  <SCORE.INTRA.POLAR.0>
-0.108895

>  <SCORE.INTRA.REPUL>
-0.00912235

>  <SCORE.INTRA.REPUL.0>
0.00912235

>  <SCORE.INTRA.SOLV>
0.0557899

>  <SCORE.INTRA.SOLV.lig_0>
-53.9067

>  <SCORE.INTRA.VDW>
1.3651

>  <SCORE.INTRA.VDW.0>
-2.93492

>  <SCORE.INTRA.norm>
-0.14011

>  <SCORE.RESTR>
28.5769

>  <SCORE.RESTR.CAVITY>
28.5769

>  <SCORE.RESTR.norm>
0.772349

>  <SCORE.SYSTEM>
0

>  <SCORE.SYSTEM.CONST>
0

>  <SCORE.SYSTEM.DIHEDRAL>
0

>  <SCORE.SYSTEM.SOLV>
0

>  <SCORE.SYSTEM.norm>
0

>  <SCORE.heavy>
37

>  <SCORE.norm>
0.450978

>  <RMSD>
17.479

$$$$
lig.pdb
 OpenBabel11021811453D
libRbt.so/2013.1/901 2013/11/27
 37 40  0  0  0  0  0  0  0  0999 V2000
  -12.9989    5.7129    7.4458 C   0  0  2  0  0  0  0  0  0  0  0  0
  -14.5079    5.3009    7.4431 C   0  0  1  0  0  0  0  0  0  0  0  0
  -15.4777    6.5155    7.5323 C   0  0  0  0  0  0  0  0  0  0  0  0
  -15.0650    7.4757    8.6754 C   0  0  1  0  0  0  0  0  0  0  0  0
  -13.5973    7.9199    8.4854 C   0  0  1  0  0  0  0  0  0  0  0  0
  -13.1707    8.9209    9.5925 C   0  0  1  0  0  0  0  0  0  0  0  0
  -14.1641   10.1183    9.6715 C   0  0  1  0  0  0  0  0  0  0  0  0
  -15.6435    9.6428    9.7792 C   0  0  2  0  0  0  0  0  0  0  0  0
  -12.4470   11.6018   10.6012 C   0  0  0  0  0  0  0  0  0  0  0  0
  -12.7193    6.7587    8.4324 O   0  0  0  0  0  0  0  0  0  0  0  0
  -15.9532    8.6257    8.7776 O   0  0  0  0  0  0  0  0  0  0  0  0
  -14.8085    4.5138    6.2275 N   0  0  0  0  0  0  0  0  0  0  0  0
  -13.7803   10.9932   10.7985 N   0  0  0  0  0  0  0  0  0  0  0  0
  -13.0424    8.2740   10.8522 O   0  0  0  0  0  0  0  0  0  0  0  0
  -16.5515   10.7786    9.6789 O   0  0  0  0  0  0  0  0  0  0  0  0
  -12.5648    6.1359    6.1172 O   0  0  0  0  0  0  0  0  0  0  0  0
  -17.5498   10.9674   10.7285 C   0  0  2  0  0  0  0  0  0  0  0  0
  -17.9179   12.4705   10.8836 C   0  0  1  0  0  0  0  0  0  0  0  0
  -16.7523   13.2869   11.5118 C   0  0  2  0  0  0  0  0  0  0  0  0
  -16.2663   12.6404   12.8413 C   0  0  1  0  0  0  0  0  0  0  0  0
  -15.9429   11.1323   12.6497 C   0  0  1  0  0  0  0  0  0  0  0  0
  -15.5884   10.4423   13.9930 C   0  0  0  0  0  0  0  0  0  0  0  0
  -17.0595   10.4507   12.0017 O   0  0  0  0  0  0  0  0  0  0  0  0
  -15.1124   13.3723   13.4083 N   0  0  0  0  0  0  0  0  0  0  0  0
  -18.3315   13.0166    9.6324 O   0  0  0  0  0  0  0  0  0  0  0  0
  -17.1253   14.6490   11.7088 O   0  0  0  0  0  0  0  0  0  0  0  0
  -15.8940    9.0524   13.9453 O   0  0  0  0  0  0  0  0  0  0  0  0
  -11.4726    5.3985    5.4948 C   0  0  1  0  0  0  0  0  0  0  0  0
  -11.7235    3.8646    5.5099 C   0  0  1  0  0  0  0  0  0  0  0  0
  -10.5054    3.0918    4.9300 C   0  0  2  0  0  0  0  0  0  0  0  0
  -10.0984    3.6002    3.5088 C   0  0  1  0  0  0  0  0  0  0  0  0
   -9.9712    5.1512    3.4326 C   0  0  0  0  0  0  0  0  0  0  0  0
  -11.2026    5.8860    4.0430 C   0  0  2  0  0  0  0  0  0  0  0  0
   -8.8526    2.9464    3.0540 N   0  0  0  0  0  0  0  0  0  0  0  0
  -10.9810    7.3469    3.9791 N   0  0  0  0  0  0  0  0  0  0  0  0
  -12.0285    3.4139    6.8257 O   0  0  0  0  0  0  0  0  0  0  0  0
  -10.7719    1.6919    4.9011 O   0  0  0  0  0  0  0  0  0  0  0  0
  1  2  1  0  0  0  0
  1 16  1  6  0  0  0
  2  3  1  0  0  0  0
  2 12  1  6  0  0  0
  4 11  1  6  0  0  0
  4  3  1  0  0  0  0
  5  4  1  0  0  0  0
  5 10  1  1  0  0  0
  6  7  1  0  0  0  0
  6  5  1  0  0  0  0
  6 14  1  1  0  0  0
  7  8  1  0  0  0  0
  7 13  1  1  0  0  0
  8 15  1  6  0  0  0
  8 11  1  0  0  0  0
  9 13  1  0  0  0  0
 10  1  1  0  0  0  0
 17 15  1  6  0  0  0
 17 18  1  0  0  0  0
 18 25  1  6  0  0  0
 19 18  1  0  0  0  0
 19 26  1  1  0  0  0
 20 19  1  0  0  0  0
 20 24  1  6  0  0  0
 21 23  1  0  0  0  0
 21 20  1  0  0  0  0
 21 22  1  1  0  0  0
 23 17  1  0  0  0  0
 27 22  1  0  0  0  0
 28 29  1  0  0  0  0
 28 16  1  6  0  0  0
 29 36  1  1  0  0  0
 30 37  1  6  0  0  0
 30 29  1  0  0  0  0
 31 30  1  0  0  0  0
 31 34  1  1  0  0  0
 32 31  1  0  0  0  0
 32 33  1  0  0  0  0
 33 28  1  0  0  0  0
 33 35  1  1  0  0  0
M  END
>  <CHROM.1>
-46.13607878,-126.74779180,63.63245250,76.61158259,151.73847859,-120.65844544
-72.38960966,66.22620934,153.18663260,166.29371292,-48.85143154,51.02311863
-28.56628596,63.18404812,68.85819248,164.59025795,-13.99648601,8.20358347
8.64950103,0.49244397,-1.03859228,2.85749928

>  <Name>
lig.pdb

>  <RI>
0

>  <Rbt.Current_Directory>
/home/afrankz/demos/rdock_decoys_rna/rnas/2m4q

>  <Rbt.Executable>
rbdock ($Id: //depot/dev/client3/rdock/2013.1/src/exe/rbdock.cxx#4 $)

>  <Rbt.Library>
libRbt.so (2013.1, Build901 2013/11/27)

>  <Rbt.Parameter_File>
/export/apps/rDock/src/rDock_2013.1_src/data/scripts/dock_solv.prm

>  <Rbt.Receptor>
prm/blind_docking_80.prm

>  <SCORE>
40.1455

>  <SCORE.INTER>
17.215

>  <SCORE.INTER.CONST>
1

>  <SCORE.INTER.POLAR>
-3.02994

>  <SCORE.INTER.ROT>
10

>  <SCORE.INTER.SOLV>
22.1858

>  <SCORE.INTER.VDW>
3.91452

>  <SCORE.INTER.norm>
0.465269

>  <SCORE.INTRA>
-3.84639

>  <SCORE.INTRA.DIHEDRAL>
-16.5199

>  <SCORE.INTRA.DIHEDRAL.0>
44.8331

>  <SCORE.INTRA.POLAR>
-0.0960456

>  <SCORE.INTRA.POLAR.0>
-0.108895

>  <SCORE.INTRA.REPUL>
-0.00912235

>  <SCORE.INTRA.REPUL.0>
0.00912235

>  <SCORE.INTRA.SOLV>
0.0867223

>  <SCORE.INTRA.SOLV.lig_0>
-53.9067

>  <SCORE.INTRA.VDW>
4.74237

>  <SCORE.INTRA.VDW.0>
-2.93492

>  <SCORE.INTRA.norm>
-0.103957

>  <SCORE.RESTR>
26.7769

>  <SCORE.RESTR.CAVITY>
26.7769

>  <SCORE.RESTR.norm>
0.723701

>  <SCORE.SYSTEM>
0

>  <SCORE.SYSTEM.CONST>
0

>  <SCORE.SYSTEM.DIHEDRAL>
0

>  <SCORE.SYSTEM.SOLV>
0

>  <SCORE.SYSTEM.norm>
0

>  <SCORE.heavy>
37

>  <SCORE.norm>
1.08501

>  <RMSD>
17.487

$$$$
lig.pdb
 OpenBabel11021811453D
libRbt.so/2013.1/901 2013/11/27
 37 40  0  0  0  0  0  0  0  0999 V2000
  -12.7513    5.0163    7.3331 C   0  0  2  0  0  0  0  0  0  0  0  0
  -14.2763    4.6806    7.2405 C   0  0  1  0  0  0  0  0  0  0  0  0
  -15.1906    5.9360    7.3487 C   0  0  0  0  0  0  0  0  0  0  0  0
  -14.7880    6.8162    8.5579 C   0  0  1  0  0  0  0  0  0  0  0  0
  -13.2935    7.1957    8.4582 C   0  0  1  0  0  0  0  0  0  0  0  0
  -12.8735    8.1177    9.6342 C   0  0  1  0  0  0  0  0  0  0  0  0
  -13.8115    9.3577    9.7303 C   0  0  1  0  0  0  0  0  0  0  0  0
  -15.3153    8.9517    9.7458 C   0  0  2  0  0  0  0  0  0  0  0  0
  -13.6687   11.6014   10.7096 C   0  0  0  0  0  0  0  0  0  0  0  0
  -12.4701    5.9963    8.3846 O   0  0  0  0  0  0  0  0  0  0  0  0
  -15.6246    8.0025    8.6795 O   0  0  0  0  0  0  0  0  0  0  0  0
  -14.5554    3.9710    5.9731 N   0  0  0  0  0  0  0  0  0  0  0  0
  -13.4411   10.1551   10.9177 N   0  0  0  0  0  0  0  0  0  0  0  0
  -12.8364    7.4033   10.8629 O   0  0  0  0  0  0  0  0  0  0  0  0
  -16.1626   10.1349    9.6637 O   0  0  0  0  0  0  0  0  0  0  0  0
  -12.2346    5.4829    6.0494 O   0  0  0  0  0  0  0  0  0  0  0  0
  -17.3451   10.2058   10.5185 C   0  0  2  0  0  0  0  0  0  0  0  0
  -18.1736   11.4873   10.2185 C   0  0  1  0  0  0  0  0  0  0  0  0
  -17.4458   12.7715   10.7094 C   0  0  2  0  0  0  0  0  0  0  0  0
  -17.0378   12.6486   12.2062 C   0  0  1  0  0  0  0  0  0  0  0  0
  -16.2429   11.3390   12.4682 C   0  0  1  0  0  0  0  0  0  0  0  0
  -15.9473   11.1348   13.9772 C   0  0  0  0  0  0  0  0  0  0  0  0
  -16.9622   10.1900   11.9262 O   0  0  0  0  0  0  0  0  0  0  0  0
  -16.2842   13.8378   12.6605 N   0  0  0  0  0  0  0  0  0  0  0  0
  -18.4977   11.5610    8.8314 O   0  0  0  0  0  0  0  0  0  0  0  0
  -18.2438   13.9322   10.4878 O   0  0  0  0  0  0  0  0  0  0  0  0
  -15.7057    9.7615   14.2654 O   0  0  0  0  0  0  0  0  0  0  0  0
  -11.0449    4.8284    5.5200 C   0  0  1  0  0  0  0  0  0  0  0  0
  -11.3731    3.4450    4.8916 C   0  0  1  0  0  0  0  0  0  0  0  0
  -10.0795    2.7224    4.4209 C   0  0  2  0  0  0  0  0  0  0  0  0
   -9.2178    3.6066    3.4619 C   0  0  1  0  0  0  0  0  0  0  0  0
   -8.9866    5.0472    4.0087 C   0  0  0  0  0  0  0  0  0  0  0  0
  -10.3045    5.7265    4.4886 C   0  0  2  0  0  0  0  0  0  0  0  0
   -7.9308    2.9471    3.1542 N   0  0  0  0  0  0  0  0  0  0  0  0
   -9.9928    7.0637    5.0383 N   0  0  0  0  0  0  0  0  0  0  0  0
  -12.1016    2.6329    5.8066 O   0  0  0  0  0  0  0  0  0  0  0  0
  -10.4010    1.4806    3.7995 O   0  0  0  0  0  0  0  0  0  0  0  0
  1  2  1  0  0  0  0
  1 16  1  6  0  0  0
  2  3  1  0  0  0  0
  2 12  1  6  0  0  0
  4 11  1  6  0  0  0
  4  3  1  0  0  0  0
  5  4  1  0  0  0  0
  5 10  1  1  0  0  0
  6  7  1  0  0  0  0
  6  5  1  0  0  0  0
  6 14  1  1  0  0  0
  7  8  1  0  0  0  0
  7 13  1  1  0  0  0
  8 15  1  6  0  0  0
  8 11  1  0  0  0  0
  9 13  1  0  0  0  0
 10  1  1  0  0  0  0
 17 15  1  6  0  0  0
 17 18  1  0  0  0  0
 18 25  1  6  0  0  0
 19 18  1  0  0  0  0
 19 26  1  1  0  0  0
 20 19  1  0  0  0  0
 20 24  1  6  0  0  0
 21 23  1  0  0  0  0
 21 20  1  0  0  0  0
 21 22  1  1  0  0  0
 23 17  1  0  0  0  0
 27 22  1  0  0  0  0
 28 29  1  0  0  0  0
 28 16  1  6  0  0  0
 29 36  1  1  0  0  0
 30 37  1  6  0  0  0
 30 29  1  0  0  0  0
 31 30  1  0  0  0  0
 31 34  1  1  0  0  0
 32 31  1  0  0  0  0
 32 33  1  0  0  0  0
 33 28  1  0  0  0  0
 33 35  1  1  0  0  0
M  END
>  <CHROM.1>
-61.16866544,-137.59369745,147.60445444,116.57724515,-175.95139808,-128.14489474
-55.81643000,-60.15402639,157.45449521,64.98903865,64.05617079,77.51028224
77.16312581,64.88099112,-55.72205811,-27.28491705,-13.87050760,7.77664134
8.45277523,1.04094795,0.05982423,-2.39196884

>  <Name>
lig.pdb

>  <RI>
0

>  <Rbt.Current_Directory>
/home/afrankz/demos/rdock_decoys_rna/rnas/2m4q

>  <Rbt.Executable>
rbdock ($Id: //depot/dev/client3/rdock/2013.1/src/exe/rbdock.cxx#4 $)

>  <Rbt.Library>
libRbt.so (2013.1, Build901 2013/11/27)

>  <Rbt.Parameter_File>
/export/apps/rDock/src/rDock_2013.1_src/data/scripts/dock_solv.prm

>  <Rbt.Receptor>
prm/blind_docking_80.prm

>  <SCORE>
12.3943

>  <SCORE.INTER>
-3.67314

>  <SCORE.INTER.CONST>
1

>  <SCORE.INTER.POLAR>
-2.87586

>  <SCORE.INTER.ROT>
10

>  <SCORE.INTER.SOLV>
21.1491

>  <SCORE.INTER.VDW>
-10.1789

>  <SCORE.INTER.norm>
-0.0992742

>  <SCORE.INTRA>
-11.5897

>  <SCORE.INTRA.DIHEDRAL>
-17.2012

>  <SCORE.INTRA.DIHEDRAL.0>
44.8331

>  <SCORE.INTRA.POLAR>
-0.95641

>  <SCORE.INTRA.POLAR.0>
-0.108895

>  <SCORE.INTRA.REPUL>
0.313556

>  <SCORE.INTRA.REPUL.0>
0.00912235

>  <SCORE.INTRA.SOLV>
-0.666357

>  <SCORE.INTRA.SOLV.lig_0>
-53.9067

>  <SCORE.INTRA.VDW>
-0.971897

>  <SCORE.INTRA.VDW.0>
-2.93492

>  <SCORE.INTRA.norm>
-0.313235

>  <SCORE.RESTR>
27.6571

>  <SCORE.RESTR.CAVITY>
27.6571

>  <SCORE.RESTR.norm>
0.74749

>  <SCORE.SYSTEM>
0

>  <SCORE.SYSTEM.CONST>
0

>  <SCORE.SYSTEM.DIHEDRAL>
0

>  <SCORE.SYSTEM.SOLV>
0

>  <SCORE.SYSTEM.norm>
0

>  <SCORE.heavy>
37

>  <SCORE.norm>
0.334981

>  <RMSD>
17.534

$$$$
lig.pdb
 OpenBabel11021811453D
libRbt.so/2013.1/901 2013/11/27
 37 40  0  0  0  0  0  0  0  0999 V2000
  -14.1812    5.4263    7.4594 C   0  0  2  0  0  0  0  0  0  0  0  0
  -15.6834    5.2835    7.8719 C   0  0  1  0  0  0  0  0  0  0  0  0
  -16.4267    6.6479    7.9711 C   0  0  0  0  0  0  0  0  0  0  0  0
  -15.6135    7.6661    8.8084 C   0  0  1  0  0  0  0  0  0  0  0  0
  -14.1953    7.8217    8.2153 C   0  0  1  0  0  0  0  0  0  0  0  0
  -13.3725    8.8726    9.0079 C   0  0  1  0  0  0  0  0  0  0  0  0
  -14.1432   10.2228    9.1056 C   0  0  1  0  0  0  0  0  0  0  0  0
  -15.5977   10.0278    9.6279 C   0  0  2  0  0  0  0  0  0  0  0  0
  -13.7182   11.0324   11.3811 C   0  0  0  0  0  0  0  0  0  0  0  0
  -13.5237    6.5301    8.1625 O   0  0  0  0  0  0  0  0  0  0  0  0
  -16.2841    8.9551    8.9125 O   0  0  0  0  0  0  0  0  0  0  0  0
  -16.3841    4.4053    6.9099 N   0  0  0  0  0  0  0  0  0  0  0  0
  -13.3733   11.1607    9.9487 N   0  0  0  0  0  0  0  0  0  0  0  0
  -13.0189    8.3867   10.2965 O   0  0  0  0  0  0  0  0  0  0  0  0
  -16.3402   11.2793    9.5449 O   0  0  0  0  0  0  0  0  0  0  0  0
  -14.0435    5.5876    6.0146 O   0  0  0  0  0  0  0  0  0  0  0  0
  -17.4793   11.4743   10.4385 C   0  0  2  0  0  0  0  0  0  0  0  0
  -17.0596   12.2604   11.7130 C   0  0  1  0  0  0  0  0  0  0  0  0
  -16.1639   11.4011   12.6507 C   0  0  2  0  0  0  0  0  0  0  0  0
  -16.8364   10.0353   12.9735 C   0  0  1  0  0  0  0  0  0  0  0  0
  -17.2708    9.2999   11.6750 C   0  0  1  0  0  0  0  0  0  0  0  0
  -18.0637    8.0028   11.9835 C   0  0  0  0  0  0  0  0  0  0  0  0
  -18.0546   10.1902   10.8239 O   0  0  0  0  0  0  0  0  0  0  0  0
  -15.9598    9.1849   13.8082 N   0  0  0  0  0  0  0  0  0  0  0  0
  -16.4276   13.4890   11.3584 O   0  0  0  0  0  0  0  0  0  0  0  0
  -15.8401   12.1097   13.8450 O   0  0  0  0  0  0  0  0  0  0  0  0
  -18.1927    7.1976   10.8162 O   0  0  0  0  0  0  0  0  0  0  0  0
  -12.6958    5.6955    5.4706 C   0  0  1  0  0  0  0  0  0  0  0  0
  -11.9236    4.3493    5.5582 C   0  0  1  0  0  0  0  0  0  0  0  0
  -10.4587    4.5104    5.0628 C   0  0  2  0  0  0  0  0  0  0  0  0
  -10.3784    5.1343    3.6316 C   0  0  1  0  0  0  0  0  0  0  0  0
  -11.2534    6.4143    3.4777 C   0  0  0  0  0  0  0  0  0  0  0  0
  -12.7065    6.2160    4.0052 C   0  0  2  0  0  0  0  0  0  0  0  0
   -8.9748    5.4073    3.2557 N   0  0  0  0  0  0  0  0  0  0  0  0
  -13.4523    7.4862    3.8716 N   0  0  0  0  0  0  0  0  0  0  0  0
  -11.9550    3.8327    6.8847 O   0  0  0  0  0  0  0  0  0  0  0  0
   -9.7804    3.2573    5.0990 O   0  0  0  0  0  0  0  0  0  0  0  0
  1  2  1  0  0  0  0
  1 16  1  6  0  0  0
  2  3  1  0  0  0  0
  2 12  1  6  0  0  0
  4 11  1  6  0  0  0
  4  3  1  0  0  0  0
  5  4  1  0  0  0  0
  5 10  1  1  0  0  0
  6  7  1  0  0  0  0
  6  5  1  0  0  0  0
  6 14  1  1  0  0  0
  7  8  1  0  0  0  0
  7 13  1  1  0  0  0
  8 15  1  6  0  0  0
  8 11  1  0  0  0  0
  9 13  1  0  0  0  0
 10  1  1  0  0  0  0
 17 15  1  6  0  0  0
 17 18  1  0  0  0  0
 18 25  1  6  0  0  0
 19 18  1  0  0  0  0
 19 26  1  1  0  0  0
 20 19  1  0  0  0  0
 20 24  1  6  0  0  0
 21 23  1  0  0  0  0
 21 20  1  0  0  0  0
 21 22  1  1  0  0  0
 23 17  1  0  0  0  0
 27 22  1  0  0  0  0
 28 29  1  0  0  0  0
 28 16  1  6  0  0  0
 29 36  1  1  0  0  0
 30 37  1  6  0  0  0
 30 29  1  0  0  0  0
 31 30  1  0  0  0  0
 31 34  1  1  0  0  0
 32 31  1  0  0  0  0
 32 33  1  0  0  0  0
 33 28  1  0  0  0  0
 33 35  1  1  0  0  0
M  END
>  <CHROM.1>
173.46278723,-155.58884017,-88.53141338,67.71858311,95.52102737,-178.30636488
-60.91060145,59.16114376,-167.04736295,-63.09885873,66.87629084,70.17493009
-64.70437375,57.45584983,139.37565967,-54.47871868,-14.50031831,8.00399538
8.61109967,0.96045786,-0.57346032,-2.62842429

>  <Name>
lig.pdb

>  <RI>
0

>  <Rbt.Current_Directory>
/home/itssahil/PROJECTS/Mol_Feturizer/New_Systems/rnas/2m4q

>  <Rbt.Executable>
rbdock ($Id: //depot/dev/client3/rdock/2013.1/src/exe/rbdock.cxx#4 $)

>  <Rbt.Library>
libRbt.so (2013.1, Build901 2013/11/27)

>  <Rbt.Parameter_File>
/export/apps/rDock/src/rDock_2013.1_src/data/scripts/dock_solv.prm

>  <Rbt.Receptor>
prm/blind_docking_60.prm

>  <SCORE>
-3.28844

>  <SCORE.INTER>
-11.9139

>  <SCORE.INTER.CONST>
1

>  <SCORE.INTER.POLAR>
-3.07339

>  <SCORE.INTER.ROT>
10

>  <SCORE.INTER.SOLV>
18.4063

>  <SCORE.INTER.VDW>
-14.1001

>  <SCORE.INTER.norm>
-0.321998

>  <SCORE.INTRA>
-9.13041

>  <SCORE.INTRA.DIHEDRAL>
-32.3917

>  <SCORE.INTRA.DIHEDRAL.0>
44.8331

>  <SCORE.INTRA.POLAR>
0.100638

>  <SCORE.INTRA.POLAR.0>
-0.108895

>  <SCORE.INTRA.REPUL>
-0.00912235

>  <SCORE.INTRA.REPUL.0>
0.00912235

>  <SCORE.INTRA.SOLV>
0.407764

>  <SCORE.INTRA.SOLV.lig_0>
-53.9067

>  <SCORE.INTRA.VDW>
6.56502

>  <SCORE.INTRA.VDW.0>
-2.93492

>  <SCORE.INTRA.norm>
-0.246768

>  <SCORE.RESTR>
17.7559

>  <SCORE.RESTR.CAVITY>
17.7559

>  <SCORE.RESTR.norm>
0.479889

>  <SCORE.SYSTEM>
0

>  <SCORE.SYSTEM.CONST>
0

>  <SCORE.SYSTEM.DIHEDRAL>
0

>  <SCORE.SYSTEM.SOLV>
0

>  <SCORE.SYSTEM.norm>
0

>  <SCORE.heavy>
37

>  <SCORE.norm>
-0.0888767

>  <RMSD>
17.536

$$$$
lig.pdb
 OpenBabel11021811453D
libRbt.so/2013.1/901 2013/11/27
 37 40  0  0  0  0  0  0  0  0999 V2000
  -12.8815    4.0523    5.5845 C   0  0  2  0  0  0  0  0  0  0  0  0
  -11.9126    5.2175    5.1963 C   0  0  1  0  0  0  0  0  0  0  0  0
  -12.1192    6.5010    6.0529 C   0  0  0  0  0  0  0  0  0  0  0  0
  -13.6165    6.8916    6.1196 C   0  0  1  0  0  0  0  0  0  0  0  0
  -14.4476    5.7020    6.6501 C   0  0  1  0  0  0  0  0  0  0  0  0
  -15.9480    6.0811    6.7718 C   0  0  1  0  0  0  0  0  0  0  0  0
  -16.1268    7.3754    7.6201 C   0  0  1  0  0  0  0  0  0  0  0  0
  -15.2166    8.5342    7.1153 C   0  0  2  0  0  0  0  0  0  0  0  0
  -17.8735    8.6939    8.7267 C   0  0  0  0  0  0  0  0  0  0  0  0
  -14.2479    4.5294    5.8092 O   0  0  0  0  0  0  0  0  0  0  0  0
  -13.8395    8.0875    6.9209 O   0  0  0  0  0  0  0  0  0  0  0  0
  -10.5106    4.7617    5.3151 N   0  0  0  0  0  0  0  0  0  0  0  0
  -17.5544    7.7562    7.6285 N   0  0  0  0  0  0  0  0  0  0  0  0
  -16.5519    6.2166    5.4917 O   0  0  0  0  0  0  0  0  0  0  0  0
  -15.2815    9.6675    8.0296 O   0  0  0  0  0  0  0  0  0  0  0  0
  -12.3946    3.3290    6.7559 O   0  0  0  0  0  0  0  0  0  0  0  0
  -14.2849    9.7626    9.0934 C   0  0  2  0  0  0  0  0  0  0  0  0
  -14.3264    8.5067   10.0097 C   0  0  1  0  0  0  0  0  0  0  0  0
  -15.6108    8.4761   10.8868 C   0  0  2  0  0  0  0  0  0  0  0  0
  -15.7861    9.8077   11.6730 C   0  0  1  0  0  0  0  0  0  0  0  0
  -15.7036   11.0369   10.7255 C   0  0  1  0  0  0  0  0  0  0  0  0
  -15.7398   12.3746   11.5101 C   0  0  0  0  0  0  0  0  0  0  0  0
  -14.5044   10.9607    9.8963 O   0  0  0  0  0  0  0  0  0  0  0  0
  -17.0416    9.8123   12.4554 N   0  0  0  0  0  0  0  0  0  0  0  0
  -14.1865    7.3168    9.2357 O   0  0  0  0  0  0  0  0  0  0  0  0
  -15.6057    7.3555   11.7685 O   0  0  0  0  0  0  0  0  0  0  0  0
  -14.4641   12.6690   12.0698 O   0  0  0  0  0  0  0  0  0  0  0  0
  -13.3808    2.8629    7.7223 C   0  0  1  0  0  0  0  0  0  0  0  0
  -14.0132    4.0373    8.5205 C   0  0  1  0  0  0  0  0  0  0  0  0
  -14.9893    3.5123    9.6108 C   0  0  2  0  0  0  0  0  0  0  0  0
  -16.0777    2.5548    9.0256 C   0  0  1  0  0  0  0  0  0  0  0  0
  -15.4804    1.4451    8.1094 C   0  0  0  0  0  0  0  0  0  0  0  0
  -14.4923    2.0113    7.0456 C   0  0  2  0  0  0  0  0  0  0  0  0
  -16.8927    1.9625   10.1077 N   0  0  0  0  0  0  0  0  0  0  0  0
  -13.9326    0.8938    6.2548 N   0  0  0  0  0  0  0  0  0  0  0  0
  -13.0038    4.8586    9.0985 O   0  0  0  0  0  0  0  0  0  0  0  0
  -15.6008    4.6014   10.2975 O   0  0  0  0  0  0  0  0  0  0  0  0
  1  2  1  0  0  0  0
  1 16  1  1  0  0  0
  2  3  1  0  0  0  0
  2 12  1  1  0  0  0
  4 11  1  1  0  0  0
  4  3  1  0  0  0  0
  5  4  1  0  0  0  0
  5 10  1  6  0  0  0
  6  7  1  0  0  0  0
  6  5  1  0  0  0  0
  6 14  1  6  0  0  0
  7  8  1  0  0  0  0
  7 13  1  6  0  0  0
  8 15  1  1  0  0  0
  8 11  1  0  0  0  0
  9 13  1  0  0  0  0
 10  1  1  0  0  0  0
 17 15  1  6  0  0  0
 17 18  1  0  0  0  0
 18 25  1  6  0  0  0
 19 18  1  0  0  0  0
 19 26  1  1  0  0  0
 20 19  1  0  0  0  0
 20 24  1  6  0  0  0
 21 23  1  0  0  0  0
 21 20  1  0  0  0  0
 21 22  1  1  0  0  0
 23 17  1  0  0  0  0
 27 22  1  0  0  0  0
 28 29  1  0  0  0  0
 28 16  1  6  0  0  0
 29 36  1  1  0  0  0
 30 37  1  6  0  0  0
 30 29  1  0  0  0  0
 31 30  1  0  0  0  0
 31 34  1  1  0  0  0
 32 31  1  0  0  0  0
 32 33  1  0  0  0  0
 33 28  1  0  0  0  0
 33 35  1  1  0  0  0
M  END
>  <CHROM.1>
74.43671032,93.10135886,162.02027213,-176.10421033,-58.56043904,142.38077272
53.06756358,-175.90694227,79.28748870,-42.41549299,75.02738011,-70.66019802
172.16932566,-63.77855937,-178.49139165,-178.09449767,-14.75595024,6.51025594
8.43499718,-1.21941432,0.92870593,0.19321312

>  <Name>
lig.pdb

>  <RI>
0

>  <Rbt.Current_Directory>
/home/itssahil/PROJECTS/Mol_Feturizer/New_Systems/rnas/2m4q

>  <Rbt.Executable>
rbdock ($Id: //depot/dev/client3/rdock/2013.1/src/exe/rbdock.cxx#4 $)

>  <Rbt.Library>
libRbt.so (2013.1, Build901 2013/11/27)

>  <Rbt.Parameter_File>
/export/apps/rDock/src/rDock_2013.1_src/data/scripts/dock_solv.prm

>  <Rbt.Receptor>
prm/blind_docking_60.prm

>  <SCORE>
7.59501

>  <SCORE.INTER>
4.64387

>  <SCORE.INTER.CONST>
1

>  <SCORE.INTER.POLAR>
-0.890505

>  <SCORE.INTER.ROT>
10

>  <SCORE.INTER.SOLV>
14.0246

>  <SCORE.INTER.VDW>
-8.87728

>  <SCORE.INTER.norm>
0.12551

>  <SCORE.INTRA>
-10.5562

>  <SCORE.INTRA.DIHEDRAL>
-30.2744

>  <SCORE.INTRA.DIHEDRAL.0>
44.8331

>  <SCORE.INTRA.POLAR>
-1.30729

>  <SCORE.INTRA.POLAR.0>
-0.108895

>  <SCORE.INTRA.REPUL>
-0.00912235

>  <SCORE.INTRA.REPUL.0>
0.00912235

>  <SCORE.INTRA.SOLV>
4.80119

>  <SCORE.INTRA.SOLV.lig_0>
-53.9067

>  <SCORE.INTRA.VDW>
6.6708

>  <SCORE.INTRA.VDW.0>
-2.93492

>  <SCORE.INTRA.norm>
-0.285303

>  <SCORE.RESTR>
13.5073

>  <SCORE.RESTR.CAVITY>
13.5073

>  <SCORE.RESTR.norm>
0.365063

>  <SCORE.SYSTEM>
0

>  <SCORE.SYSTEM.CONST>
0

>  <SCORE.SYSTEM.DIHEDRAL>
0

>  <SCORE.SYSTEM.SOLV>
0

>  <SCORE.SYSTEM.norm>
0

>  <SCORE.heavy>
37

>  <SCORE.norm>
0.205271

>  <RMSD>
17.569

$$$$
lig.pdb
 OpenBabel11021811453D
libRbt.so/2013.1/901 2013/11/27
 37 40  0  0  0  0  0  0  0  0999 V2000
  -13.2764    3.9211    8.0176 C   0  0  2  0  0  0  0  0  0  0  0  0
  -14.7690    3.5908    8.3494 C   0  0  1  0  0  0  0  0  0  0  0  0
  -15.7101    4.8268    8.2477 C   0  0  0  0  0  0  0  0  0  0  0  0
  -15.1235    6.0385    9.0137 C   0  0  1  0  0  0  0  0  0  0  0  0
  -13.7014    6.3500    8.4961 C   0  0  1  0  0  0  0  0  0  0  0  0
  -13.1066    7.5908    9.2147 C   0  0  1  0  0  0  0  0  0  0  0  0
  -14.0726    8.8086    9.1115 C   0  0  1  0  0  0  0  0  0  0  0  0
  -15.5190    8.4455    9.5611 C   0  0  2  0  0  0  0  0  0  0  0  0
  -14.5615   10.6519   10.6532 C   0  0  0  0  0  0  0  0  0  0  0  0
  -12.8453    5.1792    8.6312 O   0  0  0  0  0  0  0  0  0  0  0  0
  -15.9822    7.2122    8.9300 O   0  0  0  0  0  0  0  0  0  0  0  0
  -15.2554    2.5213    7.4510 N   0  0  0  0  0  0  0  0  0  0  0  0
  -13.5173    9.9352    9.8896 N   0  0  0  0  0  0  0  0  0  0  0  0
  -12.7877    7.2995   10.5693 O   0  0  0  0  0  0  0  0  0  0  0  0
  -16.4286    9.5522    9.2915 O   0  0  0  0  0  0  0  0  0  0  0  0
  -13.0509    3.9534    6.5751 O   0  0  0  0  0  0  0  0  0  0  0  0
  -16.3167   10.2505    8.0134 C   0  0  2  0  0  0  0  0  0  0  0  0
  -17.7162   10.6802    7.4887 C   0  0  1  0  0  0  0  0  0  0  0  0
  -18.5562    9.4573    7.0209 C   0  0  2  0  0  0  0  0  0  0  0  0
  -17.7647    8.5899    5.9995 C   0  0  1  0  0  0  0  0  0  0  0  0
  -16.3608    8.2124    6.5490 C   0  0  1  0  0  0  0  0  0  0  0  0
  -15.5081    7.4645    5.4906 C   0  0  0  0  0  0  0  0  0  0  0  0
  -15.6621    9.4039    7.0218 O   0  0  0  0  0  0  0  0  0  0  0  0
  -18.5306    7.3879    5.6032 N   0  0  0  0  0  0  0  0  0  0  0  0
  -18.4055   11.4495    8.4724 O   0  0  0  0  0  0  0  0  0  0  0  0
  -19.8103    9.8698    6.4820 O   0  0  0  0  0  0  0  0  0  0  0  0
  -15.2494    8.2987    4.3662 O   0  0  0  0  0  0  0  0  0  0  0  0
  -11.6716    3.9402    6.1048 C   0  0  1  0  0  0  0  0  0  0  0  0
  -11.4799    2.9877    4.8914 C   0  0  1  0  0  0  0  0  0  0  0  0
   -9.9860    2.9144    4.4672 C   0  0  2  0  0  0  0  0  0  0  0  0
   -9.3719    4.3269    4.1999 C   0  0  1  0  0  0  0  0  0  0  0  0
   -9.6661    5.3429    5.3440 C   0  0  0  0  0  0  0  0  0  0  0  0
  -11.1699    5.3693    5.7523 C   0  0  2  0  0  0  0  0  0  0  0  0
   -7.9191    4.2281    3.9438 N   0  0  0  0  0  0  0  0  0  0  0  0
  -11.3552    6.3160    6.8734 N   0  0  0  0  0  0  0  0  0  0  0  0
  -11.9877    1.6894    5.1812 O   0  0  0  0  0  0  0  0  0  0  0  0
   -9.8342    2.0800    3.3216 O   0  0  0  0  0  0  0  0  0  0  0  0
  1  2  1  0  0  0  0
  1 16  1  6  0  0  0
  2  3  1  0  0  0  0
  2 12  1  6  0  0  0
  4 11  1  6  0  0  0
  4  3  1  0  0  0  0
  5  4  1  0  0  0  0
  5 10  1  1  0  0  0
  6  7  1  0  0  0  0
  6  5  1  0  0  0  0
  6 14  1  1  0  0  0
  7  8  1  0  0  0  0
  7 13  1  1  0  0  0
  8 15  1  6  0  0  0
  8 11  1  0  0  0  0
  9 13  1  0  0  0  0
 10  1  1  0  0  0  0
 17 15  1  1  0  0  0
 17 18  1  0  0  0  0
 18 25  1  1  0  0  0
 19 18  1  0  0  0  0
 19 26  1  6  0  0  0
 20 19  1  0  0  0  0
 20 24  1  1  0  0  0
 21 23  1  0  0  0  0
 21 20  1  0  0  0  0
 21 22  1  6  0  0  0
 23 17  1  0  0  0  0
 27 22  1  0  0  0  0
 28 29  1  0  0  0  0
 28 16  1  6  0  0  0
 29 36  1  1  0  0  0
 30 37  1  6  0  0  0
 30 29  1  0  0  0  0
 31 30  1  0  0  0  0
 31 34  1  1  0  0  0
 32 31  1  0  0  0  0
 32 33  1  0  0  0  0
 33 28  1  0  0  0  0
 33 35  1  1  0  0  0
M  END
>  <CHROM.1>
173.83655282,43.07253275,-138.84746763,159.11488440,143.87577051,-166.16323823
-56.28333965,-170.92752061,63.27595147,53.07118128,-174.64825061,137.21634896
179.30375768,61.38946683,-91.87826867,23.36115860,-14.17949122,6.65379128
7.13562955,-0.71768156,-0.41476170,0.86805498

>  <Name>
lig.pdb

>  <RI>
0

>  <Rbt.Current_Directory>
/home/itssahil/PROJECTS/Mol_Feturizer/New_Systems/rnas/2m4q

>  <Rbt.Executable>
rbdock ($Id: //depot/dev/client3/rdock/2013.1/src/exe/rbdock.cxx#4 $)

>  <Rbt.Library>
libRbt.so (2013.1, Build901 2013/11/27)

>  <Rbt.Parameter_File>
/export/apps/rDock/src/rDock_2013.1_src/data/scripts/dock_solv.prm

>  <Rbt.Receptor>
prm/blind_docking_60.prm

>  <SCORE>
-19.6309

>  <SCORE.INTER>
-32.9979

>  <SCORE.INTER.CONST>
1

>  <SCORE.INTER.POLAR>
-5.50223

>  <SCORE.INTER.ROT>
10

>  <SCORE.INTER.SOLV>
18.9117

>  <SCORE.INTER.VDW>
-20.2284

>  <SCORE.INTER.norm>
-0.891836

>  <SCORE.INTRA>
-0.580578

>  <SCORE.INTRA.DIHEDRAL>
-24.2251

>  <SCORE.INTRA.DIHEDRAL.0>
44.8331

>  <SCORE.INTRA.POLAR>
-0.479188

>  <SCORE.INTRA.POLAR.0>
-0.108895

>  <SCORE.INTRA.REPUL>
-0.00912235

>  <SCORE.INTRA.REPUL.0>
0.00912235

>  <SCORE.INTRA.SOLV>
0.538353

>  <SCORE.INTRA.SOLV.lig_0>
-53.9067

>  <SCORE.INTRA.VDW>
12.9376

>  <SCORE.INTRA.VDW.0>
-2.93492

>  <SCORE.INTRA.norm>
-0.0156913

>  <SCORE.RESTR>
13.9476

>  <SCORE.RESTR.CAVITY>
13.9476

>  <SCORE.RESTR.norm>
0.376961

>  <SCORE.SYSTEM>
0

>  <SCORE.SYSTEM.CONST>
0

>  <SCORE.SYSTEM.DIHEDRAL>
0

>  <SCORE.SYSTEM.SOLV>
0

>  <SCORE.SYSTEM.norm>
0

>  <SCORE.heavy>
37

>  <SCORE.norm>
-0.530566

>  <RMSD>
17.610

$$$$
lig.pdb
 OpenBabel11021811453D
libRbt.so/2013.1/901 2013/11/27
 37 40  0  0  0  0  0  0  0  0999 V2000
  -14.5895    6.9698    6.8563 C   0  0  2  0  0  0  0  0  0  0  0  0
  -15.9367    7.6161    6.3928 C   0  0  1  0  0  0  0  0  0  0  0  0
  -16.0801    9.1082    6.8131 C   0  0  0  0  0  0  0  0  0  0  0  0
  -15.7462    9.2994    8.3134 C   0  0  1  0  0  0  0  0  0  0  0  0
  -14.3346    8.7472    8.6129 C   0  0  1  0  0  0  0  0  0  0  0  0
  -13.9544    8.9682   10.1016 C   0  0  1  0  0  0  0  0  0  0  0  0
  -14.1203   10.4647   10.5009 C   0  0  1  0  0  0  0  0  0  0  0  0
  -15.5230   11.0200   10.1132 C   0  0  2  0  0  0  0  0  0  0  0  0
  -13.4090   11.9851   12.2887 C   0  0  0  0  0  0  0  0  0  0  0  0
  -14.2477    7.3442    8.2303 O   0  0  0  0  0  0  0  0  0  0  0  0
  -15.8667   10.6893    8.7326 O   0  0  0  0  0  0  0  0  0  0  0  0
  -16.0674    7.4991    4.9242 N   0  0  0  0  0  0  0  0  0  0  0  0
  -13.8453   10.6146   11.9449 N   0  0  0  0  0  0  0  0  0  0  0  0
  -14.7078    8.1198   10.9584 O   0  0  0  0  0  0  0  0  0  0  0  0
  -15.5825   12.4580   10.3438 O   0  0  0  0  0  0  0  0  0  0  0  0
  -13.4992    7.3133    5.9476 O   0  0  0  0  0  0  0  0  0  0  0  0
  -16.6881   12.9916   11.1354 C   0  0  2  0  0  0  0  0  0  0  0  0
  -16.2086   14.1550   12.0493 C   0  0  1  0  0  0  0  0  0  0  0  0
  -15.3087   13.6421   13.2099 C   0  0  2  0  0  0  0  0  0  0  0  0
  -16.0082   12.4981   13.9997 C   0  0  1  0  0  0  0  0  0  0  0  0
  -16.5018   11.3745   13.0460 C   0  0  1  0  0  0  0  0  0  0  0  0
  -17.3200   10.2942   13.8008 C   0  0  0  0  0  0  0  0  0  0  0  0
  -17.2864   11.9423   11.9537 O   0  0  0  0  0  0  0  0  0  0  0  0
  -15.1302   11.9585   15.0611 N   0  0  0  0  0  0  0  0  0  0  0  0
  -15.5543   15.1609   11.2781 O   0  0  0  0  0  0  0  0  0  0  0  0
  -14.9295   14.7084   14.0774 O   0  0  0  0  0  0  0  0  0  0  0  0
  -18.2805   10.8957   14.6628 O   0  0  0  0  0  0  0  0  0  0  0  0
  -12.5512    6.2626    5.5995 C   0  0  1  0  0  0  0  0  0  0  0  0
  -11.6479    6.6678    4.4011 C   0  0  1  0  0  0  0  0  0  0  0  0
  -10.7118    5.4985    3.9846 C   0  0  2  0  0  0  0  0  0  0  0  0
   -9.8736    4.9492    5.1844 C   0  0  1  0  0  0  0  0  0  0  0  0
  -10.7389    4.6611    6.4477 C   0  0  0  0  0  0  0  0  0  0  0  0
  -11.6769    5.8495    6.8175 C   0  0  2  0  0  0  0  0  0  0  0  0
   -9.1087    3.7487    4.7847 N   0  0  0  0  0  0  0  0  0  0  0  0
  -12.4975    5.4776    7.9904 N   0  0  0  0  0  0  0  0  0  0  0  0
  -12.4355    7.1029    3.2975 O   0  0  0  0  0  0  0  0  0  0  0  0
   -9.8537    5.9026    2.9206 O   0  0  0  0  0  0  0  0  0  0  0  0
  1  2  1  0  0  0  0
  1 16  1  6  0  0  0
  2  3  1  0  0  0  0
  2 12  1  6  0  0  0
  4 11  1  6  0  0  0
  4  3  1  0  0  0  0
  5  4  1  0  0  0  0
  5 10  1  1  0  0  0
  6  7  1  0  0  0  0
  6  5  1  0  0  0  0
  6 14  1  1  0  0  0
  7  8  1  0  0  0  0
  7 13  1  1  0  0  0
  8 15  1  6  0  0  0
  8 11  1  0  0  0  0
  9 13  1  0  0  0  0
 10  1  1  0  0  0  0
 17 15  1  1  0  0  0
 17 18  1  0  0  0  0
 18 25  1  6  0  0  0
 19 18  1  0  0  0  0
 19 26  1  1  0  0  0
 20 19  1  0  0  0  0
 20 24  1  1  0  0  0
 21 23  1  0  0  0  0
 21 20  1  0  0  0  0
 21 22  1  1  0  0  0
 23 17  1  0  0  0  0
 27 22  1  0  0  0  0
 28 29  1  0  0  0  0
 28 16  1  1  0  0  0
 29 36  1  6  0  0  0
 30 37  1  6  0  0  0
 30 29  1  0  0  0  0
 31 30  1  0  0  0  0
 31 34  1  6  0  0  0
 32 31  1  0  0  0  0
 32 33  1  0  0  0  0
 33 28  1  0  0  0  0
 33 35  1  1  0  0  0
M  END
>  <CHROM.1>
84.49615113,-128.29587294,155.28938818,-67.50769920,142.09754348,-138.59991598
179.80141642,-62.75411051,46.64512033,-58.61382647,-173.57890316,167.28977551
56.53724958,-170.27809090,-177.90958113,45.49977455,-14.26879042,9.32015875
9.12275258,1.05772505,0.66043364,-1.94396516

>  <Name>
lig.pdb

>  <RI>
0

>  <Rbt.Current_Directory>
/home/afrankz/demos/rdock_decoys_rna/rnas/2m4q

>  <Rbt.Executable>
rbdock ($Id: //depot/dev/client3/rdock/2013.1/src/exe/rbdock.cxx#4 $)

>  <Rbt.Library>
libRbt.so (2013.1, Build901 2013/11/27)

>  <Rbt.Parameter_File>
/export/apps/rDock/src/rDock_2013.1_src/data/scripts/dock_solv.prm

>  <Rbt.Receptor>
prm/blind_docking_80.prm

>  <SCORE>
25.9402

>  <SCORE.INTER>
8.19427

>  <SCORE.INTER.CONST>
1

>  <SCORE.INTER.POLAR>
-1.90685

>  <SCORE.INTER.ROT>
10

>  <SCORE.INTER.SOLV>
21.8024

>  <SCORE.INTER.VDW>
-5.71511

>  <SCORE.INTER.norm>
0.221467

>  <SCORE.INTRA>
-4.80086

>  <SCORE.INTRA.DIHEDRAL>
-22.4553

>  <SCORE.INTRA.DIHEDRAL.0>
44.8331

>  <SCORE.INTRA.POLAR>
-0.931643

>  <SCORE.INTRA.POLAR.0>
-0.108895

>  <SCORE.INTRA.REPUL>
0.040041

>  <SCORE.INTRA.REPUL.0>
0.00912235

>  <SCORE.INTRA.SOLV>
1.3407

>  <SCORE.INTRA.SOLV.lig_0>
-53.9067

>  <SCORE.INTRA.VDW>
8.72384

>  <SCORE.INTRA.VDW.0>
-2.93492

>  <SCORE.INTRA.norm>
-0.129753

>  <SCORE.RESTR>
22.5468

>  <SCORE.RESTR.CAVITY>
22.5468

>  <SCORE.RESTR.norm>
0.609372

>  <SCORE.SYSTEM>
0

>  <SCORE.SYSTEM.CONST>
0

>  <SCORE.SYSTEM.DIHEDRAL>
0

>  <SCORE.SYSTEM.SOLV>
0

>  <SCORE.SYSTEM.norm>
0

>  <SCORE.heavy>
37

>  <SCORE.norm>
0.701086

>  <RMSD>
17.647

$$$$
lig.pdb
 OpenBabel11021811453D
libRbt.so/2013.1/901 2013/11/27
 37 40  0  0  0  0  0  0  0  0999 V2000
  -13.3787    4.6451    7.3149 C   0  0  2  0  0  0  0  0  0  0  0  0
  -14.8512    4.2243    7.6340 C   0  0  1  0  0  0  0  0  0  0  0  0
  -15.7935    5.4349    7.8988 C   0  0  0  0  0  0  0  0  0  0  0  0
  -15.1622    6.4216    8.9121 C   0  0  1  0  0  0  0  0  0  0  0  0
  -13.7705    6.8701    8.4126 C   0  0  1  0  0  0  0  0  0  0  0  0
  -13.1335    7.8970    9.3870 C   0  0  1  0  0  0  0  0  0  0  0  0
  -14.1009    9.0900    9.6471 C   0  0  1  0  0  0  0  0  0  0  0  0
  -15.5207    8.6084   10.0693 C   0  0  2  0  0  0  0  0  0  0  0  0
  -14.0114   11.3738   10.5360 C   0  0  0  0  0  0  0  0  0  0  0  0
  -12.9110    5.7132    8.2012 O   0  0  0  0  0  0  0  0  0  0  0  0
  -16.0214    7.5683    9.1741 O   0  0  0  0  0  0  0  0  0  0  0  0
  -15.3897    3.4097    6.5230 N   0  0  0  0  0  0  0  0  0  0  0  0
  -13.5002    9.9909   10.6525 N   0  0  0  0  0  0  0  0  0  0  0  0
  -12.7399    7.2778   10.6050 O   0  0  0  0  0  0  0  0  0  0  0  0
  -16.4413    9.7364   10.1375 O   0  0  0  0  0  0  0  0  0  0  0  0
  -13.2343    5.0421    5.9170 O   0  0  0  0  0  0  0  0  0  0  0  0
  -16.4315   10.7106    9.0491 C   0  0  2  0  0  0  0  0  0  0  0  0
  -17.8479   11.3134    8.8279 C   0  0  1  0  0  0  0  0  0  0  0  0
  -18.8262   10.2737    8.2100 C   0  0  2  0  0  0  0  0  0  0  0  0
  -18.2291    9.6372    6.9215 C   0  0  1  0  0  0  0  0  0  0  0  0
  -16.8014    9.0790    7.1779 C   0  0  1  0  0  0  0  0  0  0  0  0
  -16.1393    8.5646    5.8728 C   0  0  0  0  0  0  0  0  0  0  0  0
  -15.9647   10.0934    7.8123 O   0  0  0  0  0  0  0  0  0  0  0  0
  -19.1239    8.5976    6.3674 N   0  0  0  0  0  0  0  0  0  0  0  0
  -18.3557   11.8591   10.0441 O   0  0  0  0  0  0  0  0  0  0  0  0
  -20.1016   10.8567    7.9518 O   0  0  0  0  0  0  0  0  0  0  0  0
  -15.0643    7.6777    6.1649 O   0  0  0  0  0  0  0  0  0  0  0  0
  -12.0361    4.6080    5.2100 C   0  0  1  0  0  0  0  0  0  0  0  0
  -10.7489    5.2521    5.7969 C   0  0  1  0  0  0  0  0  0  0  0  0
   -9.4950    4.8526    4.9691 C   0  0  2  0  0  0  0  0  0  0  0  0
   -9.3512    3.3037    4.8144 C   0  0  1  0  0  0  0  0  0  0  0  0
  -10.6710    2.6146    4.3549 C   0  0  0  0  0  0  0  0  0  0  0  0
  -11.9052    3.0585    5.1965 C   0  0  2  0  0  0  0  0  0  0  0  0
   -8.2366    2.9682    3.9026 N   0  0  0  0  0  0  0  0  0  0  0  0
  -13.1199    2.4024    4.6660 N   0  0  0  0  0  0  0  0  0  0  0  0
  -10.8780    6.6683    5.8679 O   0  0  0  0  0  0  0  0  0  0  0  0
   -8.3174    5.4069    5.5505 O   0  0  0  0  0  0  0  0  0  0  0  0
  1  2  1  0  0  0  0
  1 16  1  6  0  0  0
  2  3  1  0  0  0  0
  2 12  1  6  0  0  0
  4 11  1  6  0  0  0
  4  3  1  0  0  0  0
  5  4  1  0  0  0  0
  5 10  1  1  0  0  0
  6  7  1  0  0  0  0
  6  5  1  0  0  0  0
  6 14  1  1  0  0  0
  7  8  1  0  0  0  0
  7 13  1  1  0  0  0
  8 15  1  6  0  0  0
  8 11  1  0  0  0  0
  9 13  1  0  0  0  0
 10  1  1  0  0  0  0
 17 15  1  1  0  0  0
 17 18  1  0  0  0  0
 18 25  1  1  0  0  0
 19 18  1  0  0  0  0
 19 26  1  6  0  0  0
 20 19  1  0  0  0  0
 20 24  1  1  0  0  0
 21 23  1  0  0  0  0
 21 20  1  0  0  0  0
 21 22  1  6  0  0  0
 23 17  1  0  0  0  0
 27 22  1  0  0  0  0
 28 29  1  0  0  0  0
 28 16  1  1  0  0  0
 29 36  1  6  0  0  0
 30 37  1  1  0  0  0
 30 29  1  0  0  0  0
 31 30  1  0  0  0  0
 31 34  1  6  0  0  0
 32 31  1  0  0  0  0
 32 33  1  0  0  0  0
 33 28  1  0  0  0  0
 33 35  1  6  0  0  0
M  END
>  <CHROM.1>
37.73319026,45.15656003,155.14165697,158.60496639,148.23261822,-139.17392221
179.16378550,-61.52036622,-160.68486972,-50.68975444,171.09904412,-65.47786417
-156.85695813,49.86160396,-80.45353599,-174.82566382,-14.26696860,7.13116617
7.45367343,0.80586738,0.20660817,-2.42643276

>  <Name>
lig.pdb

>  <RI>
0

>  <Rbt.Current_Directory>
/home/itssahil/PROJECTS/Mol_Feturizer/New_Systems/rnas/2m4q

>  <Rbt.Executable>
rbdock ($Id: //depot/dev/client3/rdock/2013.1/src/exe/rbdock.cxx#4 $)

>  <Rbt.Library>
libRbt.so (2013.1, Build901 2013/11/27)

>  <Rbt.Parameter_File>
/export/apps/rDock/src/rDock_2013.1_src/data/scripts/dock_solv.prm

>  <Rbt.Receptor>
prm/blind_docking_60.prm

>  <SCORE>
-20.5621

>  <SCORE.INTER>
-22.2689

>  <SCORE.INTER.CONST>
1

>  <SCORE.INTER.POLAR>
-4.48289

>  <SCORE.INTER.ROT>
10

>  <SCORE.INTER.SOLV>
18.7138

>  <SCORE.INTER.VDW>
-16.4076

>  <SCORE.INTER.norm>
-0.601862

>  <SCORE.INTRA>
-12.0587

>  <SCORE.INTRA.DIHEDRAL>
-25.1342

>  <SCORE.INTRA.DIHEDRAL.0>
44.8331

>  <SCORE.INTRA.POLAR>
-0.877138

>  <SCORE.INTRA.POLAR.0>
-0.108895

>  <SCORE.INTRA.REPUL>
0.0603023

>  <SCORE.INTRA.REPUL.0>
0.00912235

>  <SCORE.INTRA.SOLV>
2.49729

>  <SCORE.INTRA.SOLV.lig_0>
-53.9067

>  <SCORE.INTRA.VDW>
1.94053

>  <SCORE.INTRA.VDW.0>
-2.93492

>  <SCORE.INTRA.norm>
-0.325911

>  <SCORE.RESTR>
13.7655

>  <SCORE.RESTR.CAVITY>
13.7655

>  <SCORE.RESTR.norm>
0.37204

>  <SCORE.SYSTEM>
0

>  <SCORE.SYSTEM.CONST>
0

>  <SCORE.SYSTEM.DIHEDRAL>
0

>  <SCORE.SYSTEM.SOLV>
0

>  <SCORE.SYSTEM.norm>
0

>  <SCORE.heavy>
37

>  <SCORE.norm>
-0.555733

>  <RMSD>
17.658

$$$$
lig.pdb
 OpenBabel11021811453D
libRbt.so/2013.1/901 2013/11/27
 37 40  0  0  0  0  0  0  0  0999 V2000
   -9.9097   -7.4062    8.2991 C   0  0  2  0  0  0  0  0  0  0  0  0
   -9.8118   -5.8728    8.0059 C   0  0  1  0  0  0  0  0  0  0  0  0
   -8.6728   -5.1662    8.7978 C   0  0  0  0  0  0  0  0  0  0  0  0
   -8.7218   -5.5420   10.2995 C   0  0  1  0  0  0  0  0  0  0  0  0
   -8.6710   -7.0780   10.4596 C   0  0  1  0  0  0  0  0  0  0  0  0
   -8.6715   -7.4820   11.9584 C   0  0  1  0  0  0  0  0  0  0  0  0
   -7.5332   -6.7513   12.7310 C   0  0  1  0  0  0  0  0  0  0  0  0
   -7.5565   -5.2131   12.4867 C   0  0  2  0  0  0  0  0  0  0  0  0
   -6.4429   -6.6334   14.9245 C   0  0  0  0  0  0  0  0  0  0  0  0
   -9.7654   -7.7002    9.7267 O   0  0  0  0  0  0  0  0  0  0  0  0
   -7.6619   -4.8985   11.0641 O   0  0  0  0  0  0  0  0  0  0  0  0
   -9.6188   -5.6529    6.5560 N   0  0  0  0  0  0  0  0  0  0  0  0
   -7.6300   -7.0852   14.1671 N   0  0  0  0  0  0  0  0  0  0  0  0
   -9.9381   -7.2412   12.5578 O   0  0  0  0  0  0  0  0  0  0  0  0
   -6.3835   -4.5854   13.0822 O   0  0  0  0  0  0  0  0  0  0  0  0
   -8.9267   -8.1561    7.5219 O   0  0  0  0  0  0  0  0  0  0  0  0
   -6.5843   -3.5035   14.0430 C   0  0  2  0  0  0  0  0  0  0  0  0
   -5.8007   -2.2289   13.6188 C   0  0  1  0  0  0  0  0  0  0  0  0
   -4.2653   -2.4150   13.7850 C   0  0  2  0  0  0  0  0  0  0  0  0
   -3.9100   -2.8963   15.2217 C   0  0  1  0  0  0  0  0  0  0  0  0
   -4.7395   -4.1495   15.6177 C   0  0  1  0  0  0  0  0  0  0  0  0
   -4.4973   -4.5598   17.0939 C   0  0  0  0  0  0  0  0  0  0  0  0
   -6.1604   -3.9164   15.3765 O   0  0  0  0  0  0  0  0  0  0  0  0
   -2.4583   -3.1418   15.3660 N   0  0  0  0  0  0  0  0  0  0  0  0
   -6.1460   -1.8482   12.2882 O   0  0  0  0  0  0  0  0  0  0  0  0
   -3.5629   -1.2186   13.4553 O   0  0  0  0  0  0  0  0  0  0  0  0
   -4.7136   -5.9555   17.2744 O   0  0  0  0  0  0  0  0  0  0  0  0
   -9.2956   -9.4922    7.0719 C   0  0  1  0  0  0  0  0  0  0  0  0
   -8.0520  -10.3369    6.6767 C   0  0  1  0  0  0  0  0  0  0  0  0
   -8.4728  -11.7218    6.1090 C   0  0  2  0  0  0  0  0  0  0  0  0
   -9.4203  -12.5008    7.0782 C   0  0  1  0  0  0  0  0  0  0  0  0
  -10.6051  -11.6319    7.5970 C   0  0  0  0  0  0  0  0  0  0  0  0
  -10.1420  -10.2453    8.1372 C   0  0  2  0  0  0  0  0  0  0  0  0
   -9.9150  -13.7416    6.4444 N   0  0  0  0  0  0  0  0  0  0  0  0
  -11.3255   -9.4656    8.5599 N   0  0  0  0  0  0  0  0  0  0  0  0
   -7.2377   -9.6341    5.7438 O   0  0  0  0  0  0  0  0  0  0  0  0
   -7.3218  -12.5043    5.8015 O   0  0  0  0  0  0  0  0  0  0  0  0
  1  2  1  0  0  0  0
  1 16  1  6  0  0  0
  2  3  1  0  0  0  0
  2 12  1  6  0  0  0
  4 11  1  1  0  0  0
  4  3  1  0  0  0  0
  5  4  1  0  0  0  0
  5 10  1  6  0  0  0
  6  7  1  0  0  0  0
  6  5  1  0  0  0  0
  6 14  1  1  0  0  0
  7  8  1  0  0  0  0
  7 13  1  1  0  0  0
  8 15  1  6  0  0  0
  8 11  1  0  0  0  0
  9 13  1  0  0  0  0
 10  1  1  0  0  0  0
 17 15  1  6  0  0  0
 17 18  1  0  0  0  0
 18 25  1  6  0  0  0
 19 18  1  0  0  0  0
 19 26  1  1  0  0  0
 20 19  1  0  0  0  0
 20 24  1  6  0  0  0
 21 23  1  0  0  0  0
 21 20  1  0  0  0  0
 21 22  1  1  0  0  0
 23 17  1  0  0  0  0
 27 22  1  0  0  0  0
 28 29  1  0  0  0  0
 28 16  1  1  0  0  0
 29 36  1  6  0  0  0
 30 37  1  1  0  0  0
 30 29  1  0  0  0  0
 31 30  1  0  0  0  0
 31 34  1  6  0  0  0
 32 31  1  0  0  0  0
 32 33  1  0  0  0  0
 33 28  1  0  0  0  0
 33 35  1  6  0  0  0
M  END
>  <CHROM.1>
-160.27312220,-124.26651077,169.45047194,-57.81855927,-125.46069860,-146.52944982
-54.80353404,64.13805108,-152.78061101,-109.37575551,61.02655581,-161.55742894
-48.79999175,-58.39796425,63.84860319,-98.55881663,-7.55476794,-6.73376244
10.95218871,2.82049941,1.15672317,2.76538837

>  <Name>
lig.pdb

>  <RI>
0

>  <Rbt.Current_Directory>
/home/afrankz/demos/rdock_decoys_rna/rnas/2m4q

>  <Rbt.Executable>
rbdock ($Id: //depot/dev/client3/rdock/2013.1/src/exe/rbdock.cxx#4 $)

>  <Rbt.Library>
libRbt.so (2013.1, Build901 2013/11/27)

>  <Rbt.Parameter_File>
/export/apps/rDock/src/rDock_2013.1_src/data/scripts/dock_solv.prm

>  <Rbt.Receptor>
prm/blind_docking_40.prm

>  <SCORE>
-5.61501

>  <SCORE.INTER>
-20.1581

>  <SCORE.INTER.CONST>
1

>  <SCORE.INTER.POLAR>
-4.59142

>  <SCORE.INTER.ROT>
10

>  <SCORE.INTER.SOLV>
23.2138

>  <SCORE.INTER.VDW>
-16.1386

>  <SCORE.INTER.norm>
-0.544812

>  <SCORE.INTRA>
-2.17496

>  <SCORE.INTRA.DIHEDRAL>
-16.6335

>  <SCORE.INTRA.DIHEDRAL.0>
44.8331

>  <SCORE.INTRA.POLAR>
-0.420777

>  <SCORE.INTRA.POLAR.0>
-0.108895

>  <SCORE.INTRA.REPUL>
-0.00912235

>  <SCORE.INTRA.REPUL.0>
0.00912235

>  <SCORE.INTRA.SOLV>
-1.06346

>  <SCORE.INTRA.SOLV.lig_0>
-53.9067

>  <SCORE.INTRA.VDW>
8.14981

>  <SCORE.INTRA.VDW.0>
-2.93492

>  <SCORE.INTRA.norm>
-0.0587826

>  <SCORE.RESTR>
16.718

>  <SCORE.RESTR.CAVITY>
16.718

>  <SCORE.RESTR.norm>
0.451838

>  <SCORE.SYSTEM>
0

>  <SCORE.SYSTEM.CONST>
0

>  <SCORE.SYSTEM.DIHEDRAL>
0

>  <SCORE.SYSTEM.SOLV>
0

>  <SCORE.SYSTEM.norm>
0

>  <SCORE.heavy>
37

>  <SCORE.norm>
-0.151757

>  <RMSD>
17.669

$$$$
lig.pdb
 OpenBabel11021811453D
libRbt.so/2013.1/901 2013/11/27
 37 40  0  0  0  0  0  0  0  0999 V2000
  -13.1420    5.8122    6.5519 C   0  0  2  0  0  0  0  0  0  0  0  0
  -14.6806    5.8577    6.2728 C   0  0  1  0  0  0  0  0  0  0  0  0
  -15.3173    7.2489    6.5605 C   0  0  0  0  0  0  0  0  0  0  0  0
  -14.8899    7.7808    7.9509 C   0  0  1  0  0  0  0  0  0  0  0  0
  -13.3484    7.8188    8.0488 C   0  0  1  0  0  0  0  0  0  0  0  0
  -12.8912    8.3926    9.4167 C   0  0  1  0  0  0  0  0  0  0  0  0
  -13.5528    9.7767    9.6875 C   0  0  1  0  0  0  0  0  0  0  0  0
  -15.0986    9.7307    9.5014 C   0  0  2  0  0  0  0  0  0  0  0  0
  -12.6942   11.6405   11.0303 C   0  0  0  0  0  0  0  0  0  0  0  0
  -12.7921    6.4957    7.7991 O   0  0  0  0  0  0  0  0  0  0  0  0
  -15.4675    9.0856    8.2438 O   0  0  0  0  0  0  0  0  0  0  0  0
  -14.9452    5.4712    4.8698 N   0  0  0  0  0  0  0  0  0  0  0  0
  -13.1713   10.2407   11.0374 N   0  0  0  0  0  0  0  0  0  0  0  0
  -13.1553    7.4796   10.4741 O   0  0  0  0  0  0  0  0  0  0  0  0
  -15.6624   11.0717    9.5940 O   0  0  0  0  0  0  0  0  0  0  0  0
  -12.3860    6.3709    5.4344 O   0  0  0  0  0  0  0  0  0  0  0  0
  -15.6503   11.7447   10.8904 C   0  0  2  0  0  0  0  0  0  0  0  0
  -16.1889   10.8085   12.0094 C   0  0  1  0  0  0  0  0  0  0  0  0
  -17.7208   10.5736   11.8757 C   0  0  2  0  0  0  0  0  0  0  0  0
  -18.4908   11.9233   11.7903 C   0  0  1  0  0  0  0  0  0  0  0  0
  -17.8988   12.8410   10.6845 C   0  0  1  0  0  0  0  0  0  0  0  0
  -18.5658   14.2415   10.6777 C   0  0  0  0  0  0  0  0  0  0  0  0
  -16.4527   12.9622   10.8439 O   0  0  0  0  0  0  0  0  0  0  0  0
  -19.9409   11.7069   11.5934 N   0  0  0  0  0  0  0  0  0  0  0  0
  -15.4652    9.5794   12.0258 O   0  0  0  0  0  0  0  0  0  0  0  0
  -18.2133    9.7676   12.9440 O   0  0  0  0  0  0  0  0  0  0  0  0
  -19.8966   14.1671   10.1769 O   0  0  0  0  0  0  0  0  0  0  0  0
  -11.2681    5.5924    4.9165 C   0  0  1  0  0  0  0  0  0  0  0  0
  -10.8731    6.0281    3.4776 C   0  0  1  0  0  0  0  0  0  0  0  0
   -9.7449    5.1227    2.9079 C   0  0  2  0  0  0  0  0  0  0  0  0
   -8.5030    5.0504    3.8547 C   0  0  1  0  0  0  0  0  0  0  0  0
   -8.8850    4.7470    5.3345 C   0  0  0  0  0  0  0  0  0  0  0  0
  -10.0327    5.6618    5.8586 C   0  0  2  0  0  0  0  0  0  0  0  0
   -7.5169    4.0694    3.3534 N   0  0  0  0  0  0  0  0  0  0  0  0
  -10.3694    5.2768    7.2463 N   0  0  0  0  0  0  0  0  0  0  0  0
  -12.0078    6.0238    2.6174 O   0  0  0  0  0  0  0  0  0  0  0  0
   -9.3571    5.5675    1.6104 O   0  0  0  0  0  0  0  0  0  0  0  0
  1  2  1  0  0  0  0
  1 16  1  6  0  0  0
  2  3  1  0  0  0  0
  2 12  1  6  0  0  0
  4 11  1  6  0  0  0
  4  3  1  0  0  0  0
  5  4  1  0  0  0  0
  5 10  1  1  0  0  0
  6  7  1  0  0  0  0
  6  5  1  0  0  0  0
  6 14  1  1  0  0  0
  7  8  1  0  0  0  0
  7 13  1  1  0  0  0
  8 15  1  6  0  0  0
  8 11  1  0  0  0  0
  9 13  1  0  0  0  0
 10  1  1  0  0  0  0
 17 15  1  6  0  0  0
 17 18  1  0  0  0  0
 18 25  1  6  0  0  0
 19 18  1  0  0  0  0
 19 26  1  1  0  0  0
 20 19  1  0  0  0  0
 20 24  1  6  0  0  0
 21 23  1  0  0  0  0
 21 20  1  0  0  0  0
 21 22  1  1  0  0  0
 23 17  1  0  0  0  0
 27 22  1  0  0  0  0
 28 29  1  0  0  0  0
 28 16  1  1  0  0  0
 29 36  1  6  0  0  0
 30 37  1  6  0  0  0
 30 29  1  0  0  0  0
 31 30  1  0  0  0  0
 31 34  1  6  0  0  0
 32 31  1  0  0  0  0
 32 33  1  0  0  0  0
 33 28  1  0  0  0  0
 33 35  1  1  0  0  0
M  END
>  <CHROM.1>
161.01712908,-69.05620609,131.47502638,41.21418978,-48.36939611,-130.71700520
-176.59864638,-176.44187251,-71.91158047,81.73018021,-68.02939949,160.33938338
-58.36506003,-164.26835365,-64.26002700,62.35694299,-13.98542596,8.48038208
8.09428351,0.84835292,0.43697669,-1.96242270

>  <Name>
lig.pdb

>  <RI>
0

>  <Rbt.Current_Directory>
/home/afrankz/demos/rdock_decoys_rna/rnas/2m4q

>  <Rbt.Executable>
rbdock ($Id: //depot/dev/client3/rdock/2013.1/src/exe/rbdock.cxx#4 $)

>  <Rbt.Library>
libRbt.so (2013.1, Build901 2013/11/27)

>  <Rbt.Parameter_File>
/export/apps/rDock/src/rDock_2013.1_src/data/scripts/dock_solv.prm

>  <Rbt.Receptor>
prm/blind_docking_80.prm

>  <SCORE>
12.1947

>  <SCORE.INTER>
0.273233

>  <SCORE.INTER.CONST>
1

>  <SCORE.INTER.POLAR>
-2.74264

>  <SCORE.INTER.ROT>
10

>  <SCORE.INTER.SOLV>
20.388

>  <SCORE.INTER.VDW>
-7.73839

>  <SCORE.INTER.norm>
0.00738469

>  <SCORE.INTRA>
-15.5813

>  <SCORE.INTRA.DIHEDRAL>
-28.0852

>  <SCORE.INTRA.DIHEDRAL.0>
44.8331

>  <SCORE.INTRA.POLAR>
-2.56063

>  <SCORE.INTRA.POLAR.0>
-0.108895

>  <SCORE.INTRA.REPUL>
0.27397

>  <SCORE.INTRA.REPUL.0>
0.00912235

>  <SCORE.INTRA.SOLV>
1.40547

>  <SCORE.INTRA.SOLV.lig_0>
-53.9067

>  <SCORE.INTRA.VDW>
5.09486

>  <SCORE.INTRA.VDW.0>
-2.93492

>  <SCORE.INTRA.norm>
-0.421116

>  <SCORE.RESTR>
27.5028

>  <SCORE.RESTR.CAVITY>
27.5028

>  <SCORE.RESTR.norm>
0.743318

>  <SCORE.SYSTEM>
0

>  <SCORE.SYSTEM.CONST>
0

>  <SCORE.SYSTEM.DIHEDRAL>
0

>  <SCORE.SYSTEM.SOLV>
0

>  <SCORE.SYSTEM.norm>
0

>  <SCORE.heavy>
37

>  <SCORE.norm>
0.329587

>  <RMSD>
17.669

$$$$
lig.pdb
 OpenBabel11021811453D
libRbt.so/2013.1/901 2013/11/27
 37 40  0  0  0  0  0  0  0  0999 V2000
  -16.2437   13.6998   12.8538 C   0  0  2  0  0  0  0  0  0  0  0  0
  -15.2256   12.8006   13.6298 C   0  0  1  0  0  0  0  0  0  0  0  0
  -14.3348   11.9314   12.6947 C   0  0  0  0  0  0  0  0  0  0  0  0
  -15.1924   11.1872   11.6413 C   0  0  1  0  0  0  0  0  0  0  0  0
  -16.0476   12.2005   10.8480 C   0  0  1  0  0  0  0  0  0  0  0  0
  -16.8835   11.4862    9.7522 C   0  0  1  0  0  0  0  0  0  0  0  0
  -15.9723   10.6122    8.8398 C   0  0  1  0  0  0  0  0  0  0  0  0
  -15.0609    9.6583    9.6678 C   0  0  2  0  0  0  0  0  0  0  0  0
  -16.0076    9.1313    6.8855 C   0  0  0  0  0  0  0  0  0  0  0  0
  -16.8846   12.9758   11.7537 O   0  0  0  0  0  0  0  0  0  0  0  0
  -14.3824   10.3699   10.7481 O   0  0  0  0  0  0  0  0  0  0  0  0
  -14.3675   13.6450   14.4890 N   0  0  0  0  0  0  0  0  0  0  0  0
  -16.8154    9.8746    7.8765 N   0  0  0  0  0  0  0  0  0  0  0  0
  -17.9322   10.7146   10.3236 O   0  0  0  0  0  0  0  0  0  0  0  0
  -14.1065    8.9834    8.7970 O   0  0  0  0  0  0  0  0  0  0  0  0
  -15.6041   14.9161   12.3599 O   0  0  0  0  0  0  0  0  0  0  0  0
  -13.2590    7.9398    9.3684 C   0  0  2  0  0  0  0  0  0  0  0  0
  -12.8916    6.8724    8.2987 C   0  0  1  0  0  0  0  0  0  0  0  0
  -14.1192    5.9988    7.9118 C   0  0  2  0  0  0  0  0  0  0  0  0
  -14.7935    5.3869    9.1739 C   0  0  1  0  0  0  0  0  0  0  0  0
  -15.1116    6.4818   10.2300 C   0  0  1  0  0  0  0  0  0  0  0  0
  -15.6581    5.8722   11.5476 C   0  0  0  0  0  0  0  0  0  0  0  0
  -13.9276    7.2945   10.4931 O   0  0  0  0  0  0  0  0  0  0  0  0
  -16.0024    4.6116    8.8188 N   0  0  0  0  0  0  0  0  0  0  0  0
  -12.3015    7.4901    7.1565 O   0  0  0  0  0  0  0  0  0  0  0  0
  -13.7550    4.9827    6.9799 O   0  0  0  0  0  0  0  0  0  0  0  0
  -16.9984    5.4218   11.3803 O   0  0  0  0  0  0  0  0  0  0  0  0
  -15.8761   16.1601   13.0688 C   0  0  1  0  0  0  0  0  0  0  0  0
  -14.5697   16.8605   13.5368 C   0  0  1  0  0  0  0  0  0  0  0  0
  -14.8848   18.1327   14.3731 C   0  0  2  0  0  0  0  0  0  0  0  0
  -15.8364   19.1197   13.6220 C   0  0  1  0  0  0  0  0  0  0  0  0
  -17.0916   18.4159   13.0247 C   0  0  0  0  0  0  0  0  0  0  0  0
  -16.7331   17.1351   12.2125 C   0  0  2  0  0  0  0  0  0  0  0  0
  -16.2297   20.2414   14.5012 N   0  0  0  0  0  0  0  0  0  0  0  0
  -17.9774   16.5009   11.7258 N   0  0  0  0  0  0  0  0  0  0  0  0
  -13.7487   15.9608   14.2743 O   0  0  0  0  0  0  0  0  0  0  0  0
  -13.6786   18.7925   14.7493 O   0  0  0  0  0  0  0  0  0  0  0  0
  1  2  1  0  0  0  0
  1 16  1  6  0  0  0
  2  3  1  0  0  0  0
  2 12  1  6  0  0  0
  4 11  1  6  0  0  0
  4  3  1  0  0  0  0
  5  4  1  0  0  0  0
  5 10  1  1  0  0  0
  6  7  1  0  0  0  0
  6  5  1  0  0  0  0
  6 14  1  1  0  0  0
  7  8  1  0  0  0  0
  7 13  1  6  0  0  0
  8 15  1  6  0  0  0
  8 11  1  0  0  0  0
  9 13  1  0  0  0  0
 10  1  1  0  0  0  0
 17 15  1  6  0  0  0
 17 18  1  0  0  0  0
 18 25  1  6  0  0  0
 19 18  1  0  0  0  0
 19 26  1  6  0  0  0
 20 19  1  0  0  0  0
 20 24  1  6  0  0  0
 21 23  1  0  0  0  0
 21 20  1  0  0  0  0
 21 22  1  1  0  0  0
 23 17  1  0  0  0  0
 27 22  1  0  0  0  0
 28 29  1  0  0  0  0
 28 16  1  6  0  0  0
 29 36  1  1  0  0  0
 30 37  1  6  0  0  0
 30 29  1  0  0  0  0
 31 30  1  0  0  0  0
 31 34  1  1  0  0  0
 32 31  1  0  0  0  0
 32 33  1  0  0  0  0
 33 28  1  0  0  0  0
 33 35  1  1  0  0  0
M  END
>  <CHROM.1>
66.86194228,-173.56169987,174.05691403,65.41568696,150.25752139,-104.21888760
-56.24201420,-171.70641696,-73.75017969,-159.31697577,-172.26703281,124.72380129
-153.45522270,-72.85841857,-175.89764174,-172.47655969,-15.31341887,11.59175799
11.06661441,1.66000796,-0.63402045,0.47059566

>  <Name>
lig.pdb

>  <RI>
0

>  <Rbt.Current_Directory>
/home/afrankz/demos/rdock_decoys_rna/rnas/2m4q

>  <Rbt.Executable>
rbdock ($Id: //depot/dev/client3/rdock/2013.1/src/exe/rbdock.cxx#4 $)

>  <Rbt.Library>
libRbt.so (2013.1, Build901 2013/11/27)

>  <Rbt.Parameter_File>
/export/apps/rDock/src/rDock_2013.1_src/data/scripts/dock_solv.prm

>  <Rbt.Receptor>
prm/blind_docking_40.prm

>  <SCORE>
-8.19661

>  <SCORE.INTER>
-16.4351

>  <SCORE.INTER.CONST>
1

>  <SCORE.INTER.POLAR>
-3.30787

>  <SCORE.INTER.ROT>
10

>  <SCORE.INTER.SOLV>
16.561

>  <SCORE.INTER.VDW>
-15.7175

>  <SCORE.INTER.norm>
-0.444192

>  <SCORE.INTRA>
-11.5804

>  <SCORE.INTRA.DIHEDRAL>
-21.4591

>  <SCORE.INTRA.DIHEDRAL.0>
44.8331

>  <SCORE.INTRA.POLAR>
-1.27453

>  <SCORE.INTRA.POLAR.0>
-0.108895

>  <SCORE.INTRA.REPUL>
-0.00912235

>  <SCORE.INTRA.REPUL.0>
0.00912235

>  <SCORE.INTRA.SOLV>
0.113544

>  <SCORE.INTRA.SOLV.lig_0>
-53.9067

>  <SCORE.INTRA.VDW>
3.47142

>  <SCORE.INTRA.VDW.0>
-2.93492

>  <SCORE.INTRA.norm>
-0.312983

>  <SCORE.RESTR>
19.8189

>  <SCORE.RESTR.CAVITY>
19.8189

>  <SCORE.RESTR.norm>
0.535645

>  <SCORE.SYSTEM>
0

>  <SCORE.SYSTEM.CONST>
0

>  <SCORE.SYSTEM.DIHEDRAL>
0

>  <SCORE.SYSTEM.SOLV>
0

>  <SCORE.SYSTEM.norm>
0

>  <SCORE.heavy>
37

>  <SCORE.norm>
-0.22153

>  <RMSD>
17.677

$$$$
lig.pdb
 OpenBabel11021811453D
libRbt.so/2013.1/901 2013/11/27
 37 40  0  0  0  0  0  0  0  0999 V2000
  -12.9194    4.1501    5.2309 C   0  0  2  0  0  0  0  0  0  0  0  0
  -11.7922    5.2347    5.2276 C   0  0  1  0  0  0  0  0  0  0  0  0
  -12.0485    6.3918    6.2371 C   0  0  0  0  0  0  0  0  0  0  0  0
  -13.4881    6.9457    6.0965 C   0  0  1  0  0  0  0  0  0  0  0  0
  -14.5112    5.7992    6.2585 C   0  0  1  0  0  0  0  0  0  0  0  0
  -15.9657    6.3340    6.1686 C   0  0  1  0  0  0  0  0  0  0  0  0
  -16.1924    7.4995    7.1770 C   0  0  1  0  0  0  0  0  0  0  0  0
  -15.0999    8.6024    7.0489 C   0  0  2  0  0  0  0  0  0  0  0  0
  -18.0362    8.7572    8.1929 C   0  0  0  0  0  0  0  0  0  0  0  0
  -14.2548    4.7494    5.2816 O   0  0  0  0  0  0  0  0  0  0  0  0
  -13.7573    8.0269    7.0347 O   0  0  0  0  0  0  0  0  0  0  0  0
  -10.4882    4.6008    5.5197 N   0  0  0  0  0  0  0  0  0  0  0  0
  -17.5532    8.0440    6.9908 N   0  0  0  0  0  0  0  0  0  0  0  0
  -16.2892    6.7302    4.8419 O   0  0  0  0  0  0  0  0  0  0  0  0
  -15.2429    9.5864    8.1147 O   0  0  0  0  0  0  0  0  0  0  0  0
  -12.7413    3.2070    6.3316 O   0  0  0  0  0  0  0  0  0  0  0  0
  -14.3187    9.5292    9.2445 C   0  0  2  0  0  0  0  0  0  0  0  0
  -14.6131    8.2948   10.1434 C   0  0  1  0  0  0  0  0  0  0  0  0
  -15.9443    8.4605   10.9310 C   0  0  2  0  0  0  0  0  0  0  0  0
  -15.9688    9.8036   11.7167 C   0  0  1  0  0  0  0  0  0  0  0  0
  -15.6358   11.0054   10.7892 C   0  0  1  0  0  0  0  0  0  0  0  0
  -15.5221   12.3335   11.5828 C   0  0  0  0  0  0  0  0  0  0  0  0
  -14.4081   10.7472   10.0425 O   0  0  0  0  0  0  0  0  0  0  0  0
  -17.2596    9.9996   12.4122 N   0  0  0  0  0  0  0  0  0  0  0  0
  -14.6028    7.0971    9.3689 O   0  0  0  0  0  0  0  0  0  0  0  0
  -16.1698    7.3525   11.7999 O   0  0  0  0  0  0  0  0  0  0  0  0
  -14.2455   12.4458   12.2032 O   0  0  0  0  0  0  0  0  0  0  0  0
  -13.8123    3.1032    7.3145 C   0  0  1  0  0  0  0  0  0  0  0  0
  -14.2377    1.6280    7.5575 C   0  0  1  0  0  0  0  0  0  0  0  0
  -15.4442    1.5465    8.5347 C   0  0  2  0  0  0  0  0  0  0  0  0
  -15.1770    2.3029    9.8765 C   0  0  1  0  0  0  0  0  0  0  0  0
  -14.6201    3.7421    9.6613 C   0  0  0  0  0  0  0  0  0  0  0  0
  -13.4267    3.7813    8.6598 C   0  0  2  0  0  0  0  0  0  0  0  0
  -16.3938    2.3288   10.7160 N   0  0  0  0  0  0  0  0  0  0  0  0
  -12.9923    5.1825    8.4719 N   0  0  0  0  0  0  0  0  0  0  0  0
  -14.5388    0.9782    6.3268 O   0  0  0  0  0  0  0  0  0  0  0  0
  -15.7880    0.1868    8.7889 O   0  0  0  0  0  0  0  0  0  0  0  0
  1  2  1  0  0  0  0
  1 16  1  1  0  0  0
  2  3  1  0  0  0  0
  2 12  1  1  0  0  0
  4 11  1  1  0  0  0
  4  3  1  0  0  0  0
  5  4  1  0  0  0  0
  5 10  1  6  0  0  0
  6  7  1  0  0  0  0
  6  5  1  0  0  0  0
  6 14  1  6  0  0  0
  7  8  1  0  0  0  0
  7 13  1  6  0  0  0
  8 15  1  1  0  0  0
  8 11  1  0  0  0  0
  9 13  1  0  0  0  0
 10  1  1  0  0  0  0
 17 15  1  6  0  0  0
 17 18  1  0  0  0  0
 18 25  1  6  0  0  0
 19 18  1  0  0  0  0
 19 26  1  1  0  0  0
 20 19  1  0  0  0  0
 20 24  1  6  0  0  0
 21 23  1  0  0  0  0
 21 20  1  0  0  0  0
 21 22  1  1  0  0  0
 23 17  1  0  0  0  0
 27 22  1  0  0  0  0
 28 29  1  0  0  0  0
 28 16  1  6  0  0  0
 29 36  1  6  0  0  0
 30 37  1  1  0  0  0
 30 29  1  0  0  0  0
 31 30  1  0  0  0  0
 31 34  1  6  0  0  0
 32 31  1  0  0  0  0
 32 33  1  0  0  0  0
 33 28  1  0  0  0  0
 33 35  1  6  0  0  0
M  END
>  <CHROM.1>
-33.14861183,103.04953108,157.92905654,-169.01264258,-71.11444513,119.96694131
48.89333361,69.15959622,80.73786191,83.20719001,-171.16522349,129.60199897
70.21404296,-170.50137295,-52.63919817,-113.75662242,-14.75565393,6.39911080
8.34714121,-1.15306796,1.08379176,0.07349362

>  <Name>
lig.pdb

>  <RI>
0

>  <Rbt.Current_Directory>
/home/itssahil/PROJECTS/Mol_Feturizer/New_Systems/rnas/2m4q

>  <Rbt.Executable>
rbdock ($Id: //depot/dev/client3/rdock/2013.1/src/exe/rbdock.cxx#4 $)

>  <Rbt.Library>
libRbt.so (2013.1, Build901 2013/11/27)

>  <Rbt.Parameter_File>
/export/apps/rDock/src/rDock_2013.1_src/data/scripts/dock_solv.prm

>  <Rbt.Receptor>
prm/blind_docking_60.prm

>  <SCORE>
7.57947

>  <SCORE.INTER>
-2.5557

>  <SCORE.INTER.CONST>
1

>  <SCORE.INTER.POLAR>
-1.76272

>  <SCORE.INTER.ROT>
10

>  <SCORE.INTER.SOLV>
13.7628

>  <SCORE.INTER.VDW>
-10.6823

>  <SCORE.INTER.norm>
-0.069073

>  <SCORE.INTRA>
-4.00737

>  <SCORE.INTRA.DIHEDRAL>
-15.0327

>  <SCORE.INTRA.DIHEDRAL.0>
44.8331

>  <SCORE.INTRA.POLAR>
-1.5016

>  <SCORE.INTRA.POLAR.0>
-0.108895

>  <SCORE.INTRA.REPUL>
-0.00912235

>  <SCORE.INTRA.REPUL.0>
0.00912235

>  <SCORE.INTRA.SOLV>
2.68863

>  <SCORE.INTRA.SOLV.lig_0>
-53.9067

>  <SCORE.INTRA.VDW>
7.31571

>  <SCORE.INTRA.VDW.0>
-2.93492

>  <SCORE.INTRA.norm>
-0.108307

>  <SCORE.RESTR>
14.1425

>  <SCORE.RESTR.CAVITY>
14.1425

>  <SCORE.RESTR.norm>
0.382231

>  <SCORE.SYSTEM>
0

>  <SCORE.SYSTEM.CONST>
0

>  <SCORE.SYSTEM.DIHEDRAL>
0

>  <SCORE.SYSTEM.SOLV>
0

>  <SCORE.SYSTEM.norm>
0

>  <SCORE.heavy>
37

>  <SCORE.norm>
0.204851

>  <RMSD>
17.705

$$$$
lig.pdb
 OpenBabel11021811453D
libRbt.so/2013.1/901 2013/11/27
 37 40  0  0  0  0  0  0  0  0999 V2000
  -13.7403    5.0409    6.7793 C   0  0  2  0  0  0  0  0  0  0  0  0
  -15.2853    4.7961    6.7873 C   0  0  1  0  0  0  0  0  0  0  0  0
  -16.1119    6.0892    7.0490 C   0  0  0  0  0  0  0  0  0  0  0  0
  -15.5666    6.8604    8.2765 C   0  0  1  0  0  0  0  0  0  0  0  0
  -14.0640    7.1637    8.0824 C   0  0  1  0  0  0  0  0  0  0  0  0
  -13.5013    7.9780    9.2782 C   0  0  1  0  0  0  0  0  0  0  0  0
  -14.3535    9.2578    9.5288 C   0  0  1  0  0  0  0  0  0  0  0  0
  -15.8732    8.9344    9.6382 C   0  0  2  0  0  0  0  0  0  0  0  0
  -13.2730   11.2746   10.4112 C   0  0  0  0  0  0  0  0  0  0  0  0
  -13.3218    5.9291    7.8660 O   0  0  0  0  0  0  0  0  0  0  0  0
  -16.3190    8.0794    8.5409 O   0  0  0  0  0  0  0  0  0  0  0  0
  -15.7019    4.1921    5.5030 N   0  0  0  0  0  0  0  0  0  0  0  0
  -13.8467    9.9499   10.7318 N   0  0  0  0  0  0  0  0  0  0  0  0
  -13.4137    7.1795   10.4513 O   0  0  0  0  0  0  0  0  0  0  0  0
  -16.6520   10.1649    9.7006 O   0  0  0  0  0  0  0  0  0  0  0  0
  -13.2957    5.5660    5.4912 O   0  0  0  0  0  0  0  0  0  0  0  0
  -17.4934   10.3984   10.8717 C   0  0  2  0  0  0  0  0  0  0  0  0
  -18.5651   11.4870   10.5799 C   0  0  1  0  0  0  0  0  0  0  0  0
  -17.9299   12.9015   10.4553 C   0  0  2  0  0  0  0  0  0  0  0  0
  -17.0493   13.2331   11.6949 C   0  0  1  0  0  0  0  0  0  0  0  0
  -16.0168   12.1048   11.9710 C   0  0  1  0  0  0  0  0  0  0  0  0
  -15.2244   12.3547   13.2809 C   0  0  0  0  0  0  0  0  0  0  0  0
  -16.6816   10.8057   12.0135 O   0  0  0  0  0  0  0  0  0  0  0  0
  -16.3869   14.5480   11.5513 N   0  0  0  0  0  0  0  0  0  0  0  0
  -19.3244   11.1448    9.4220 O   0  0  0  0  0  0  0  0  0  0  0  0
  -18.9291   13.8986   10.2530 O   0  0  0  0  0  0  0  0  0  0  0  0
  -14.1195   11.4624   13.3834 O   0  0  0  0  0  0  0  0  0  0  0  0
  -12.0404    5.0602    4.9504 C   0  0  1  0  0  0  0  0  0  0  0  0
  -10.8198    5.4959    5.8087 C   0  0  1  0  0  0  0  0  0  0  0  0
   -9.4852    5.0286    5.1625 C   0  0  2  0  0  0  0  0  0  0  0  0
   -9.4704    3.4933    4.8683 C   0  0  1  0  0  0  0  0  0  0  0  0
  -10.7499    3.0056    4.1248 C   0  0  0  0  0  0  0  0  0  0  0  0
  -12.0634    3.5133    4.7926 C   0  0  2  0  0  0  0  0  0  0  0  0
   -8.2511    3.1130    4.1235 N   0  0  0  0  0  0  0  0  0  0  0  0
  -13.2241    3.0523    4.0004 N   0  0  0  0  0  0  0  0  0  0  0  0
  -10.8185    6.9056    6.0089 O   0  0  0  0  0  0  0  0  0  0  0  0
   -8.3799    5.3886    5.9874 O   0  0  0  0  0  0  0  0  0  0  0  0
  1  2  1  0  0  0  0
  1 16  1  6  0  0  0
  2  3  1  0  0  0  0
  2 12  1  6  0  0  0
  4 11  1  6  0  0  0
  4  3  1  0  0  0  0
  5  4  1  0  0  0  0
  5 10  1  1  0  0  0
  6  7  1  0  0  0  0
  6  5  1  0  0  0  0
  6 14  1  1  0  0  0
  7  8  1  0  0  0  0
  7 13  1  1  0  0  0
  8 15  1  6  0  0  0
  8 11  1  0  0  0  0
  9 13  1  0  0  0  0
 10  1  1  0  0  0  0
 17 15  1  6  0  0  0
 17 18  1  0  0  0  0
 18 25  1  6  0  0  0
 19 18  1  0  0  0  0
 19 26  1  1  0  0  0
 20 19  1  0  0  0  0
 20 24  1  6  0  0  0
 21 23  1  0  0  0  0
 21 20  1  0  0  0  0
 21 22  1  1  0  0  0
 23 17  1  0  0  0  0
 27 22  1  0  0  0  0
 28 29  1  0  0  0  0
 28 16  1  1  0  0  0
 29 36  1  6  0  0  0
 30 37  1  1  0  0  0
 30 29  1  0  0  0  0
 31 30  1  0  0  0  0
 31 34  1  6  0  0  0
 32 31  1  0  0  0  0
 32 33  1  0  0  0  0
 33 28  1  0  0  0  0
 33 35  1  6  0  0  0
M  END
>  <CHROM.1>
-72.16854654,-120.54185429,114.67318400,47.54351508,-161.94435202,-139.76960057
-57.01216737,63.77248279,-168.77619716,65.79570349,-173.28228901,-66.98525421
30.08041419,55.39939192,-82.72093260,-56.80556371,-14.25605845,8.05590944
8.38472256,1.04823247,0.09245297,-2.42604718

>  <Name>
lig.pdb

>  <RI>
0

>  <Rbt.Current_Directory>
/home/itssahil/PROJECTS/Mol_Feturizer/New_Systems/rnas/2m4q

>  <Rbt.Executable>
rbdock ($Id: //depot/dev/client3/rdock/2013.1/src/exe/rbdock.cxx#4 $)

>  <Rbt.Library>
libRbt.so (2013.1, Build901 2013/11/27)

>  <Rbt.Parameter_File>
/export/apps/rDock/src/rDock_2013.1_src/data/scripts/dock_solv.prm

>  <Rbt.Receptor>
prm/blind_docking_60.prm

>  <SCORE>
-6.67282

>  <SCORE.INTER>
-11.2649

>  <SCORE.INTER.CONST>
1

>  <SCORE.INTER.POLAR>
-3.21996

>  <SCORE.INTER.ROT>
10

>  <SCORE.INTER.SOLV>
19.7927

>  <SCORE.INTER.VDW>
-13.6409

>  <SCORE.INTER.norm>
-0.304456

>  <SCORE.INTRA>
-16.1234

>  <SCORE.INTRA.DIHEDRAL>
-21.6688

>  <SCORE.INTRA.DIHEDRAL.0>
44.8331

>  <SCORE.INTRA.POLAR>
-1.29868

>  <SCORE.INTRA.POLAR.0>
-0.108895

>  <SCORE.INTRA.REPUL>
-0.00912235

>  <SCORE.INTRA.REPUL.0>
0.00912235

>  <SCORE.INTRA.SOLV>
0.146867

>  <SCORE.INTRA.SOLV.lig_0>
-53.9067

>  <SCORE.INTRA.VDW>
-0.901263

>  <SCORE.INTRA.VDW.0>
-2.93492

>  <SCORE.INTRA.norm>
-0.435766

>  <SCORE.RESTR>
20.7154

>  <SCORE.RESTR.CAVITY>
20.7154

>  <SCORE.RESTR.norm>
0.559876

>  <SCORE.SYSTEM>
0

>  <SCORE.SYSTEM.CONST>
0

>  <SCORE.SYSTEM.DIHEDRAL>
0

>  <SCORE.SYSTEM.SOLV>
0

>  <SCORE.SYSTEM.norm>
0

>  <SCORE.heavy>
37

>  <SCORE.norm>
-0.180346

>  <RMSD>
17.773

$$$$
lig.pdb
 OpenBabel11021811453D
libRbt.so/2013.1/901 2013/11/27
 37 40  0  0  0  0  0  0  0  0999 V2000
  -12.9175    5.3263    5.7178 C   0  0  2  0  0  0  0  0  0  0  0  0
  -12.3206    6.7721    5.6941 C   0  0  1  0  0  0  0  0  0  0  0  0
  -12.8453    7.6736    6.8498 C   0  0  0  0  0  0  0  0  0  0  0  0
  -14.3893    7.6062    6.9523 C   0  0  1  0  0  0  0  0  0  0  0  0
  -14.8424    6.1377    7.1127 C   0  0  1  0  0  0  0  0  0  0  0  0
  -16.3844    6.0443    7.2649 C   0  0  1  0  0  0  0  0  0  0  0  0
  -16.8857    6.9656    8.4168 C   0  0  1  0  0  0  0  0  0  0  0  0
  -16.3472    8.4204    8.2765 C   0  0  2  0  0  0  0  0  0  0  0  0
  -18.9757    7.8813    7.5183 C   0  0  0  0  0  0  0  0  0  0  0  0
  -14.3545    5.3326    6.0010 O   0  0  0  0  0  0  0  0  0  0  0  0
  -14.9073    8.4370    8.0309 O   0  0  0  0  0  0  0  0  0  0  0  0
  -10.8441    6.7037    5.7490 N   0  0  0  0  0  0  0  0  0  0  0  0
  -18.3619    6.9237    8.4635 N   0  0  0  0  0  0  0  0  0  0  0  0
  -17.0434    6.3444    6.0413 O   0  0  0  0  0  0  0  0  0  0  0  0
  -16.6925    9.2066    9.4542 O   0  0  0  0  0  0  0  0  0  0  0  0
  -12.2123    4.4797    6.6761 O   0  0  0  0  0  0  0  0  0  0  0  0
  -15.9417    8.9817   10.6869 C   0  0  2  0  0  0  0  0  0  0  0  0
  -16.6994    9.5620   11.9148 C   0  0  1  0  0  0  0  0  0  0  0  0
  -16.6947   11.1176   11.9118 C   0  0  2  0  0  0  0  0  0  0  0  0
  -15.2483   11.6746   11.7719 C   0  0  1  0  0  0  0  0  0  0  0  0
  -14.5163   11.0435   10.5548 C   0  0  1  0  0  0  0  0  0  0  0  0
  -13.0310   11.4848   10.4815 C   0  0  0  0  0  0  0  0  0  0  0  0
  -14.6176    9.5878   10.5988 O   0  0  0  0  0  0  0  0  0  0  0  0
  -15.2428   13.1522   11.6987 N   0  0  0  0  0  0  0  0  0  0  0  0
  -18.0244    9.0377   11.9795 O   0  0  0  0  0  0  0  0  0  0  0  0
  -17.3351   11.6367   13.0753 O   0  0  0  0  0  0  0  0  0  0  0  0
  -12.5372   11.8202   11.7742 O   0  0  0  0  0  0  0  0  0  0  0  0
  -12.9809    3.4505    7.3645 C   0  0  1  0  0  0  0  0  0  0  0  0
  -13.9232    4.0528    8.4442 C   0  0  1  0  0  0  0  0  0  0  0  0
  -14.6608    2.9333    9.2315 C   0  0  2  0  0  0  0  0  0  0  0  0
  -15.4161    1.9403    8.2896 C   0  0  1  0  0  0  0  0  0  0  0  0
  -14.5302    1.4241    7.1164 C   0  0  0  0  0  0  0  0  0  0  0  0
  -13.7932    2.5755    6.3681 C   0  0  2  0  0  0  0  0  0  0  0  0
  -15.9799    0.8114    9.0602 N   0  0  0  0  0  0  0  0  0  0  0  0
  -12.9375    2.0001    5.3079 N   0  0  0  0  0  0  0  0  0  0  0  0
  -13.2013    4.9024    9.3298 O   0  0  0  0  0  0  0  0  0  0  0  0
  -15.5599    3.5017   10.1804 O   0  0  0  0  0  0  0  0  0  0  0  0
  1  2  1  0  0  0  0
  1 16  1  1  0  0  0
  2  3  1  0  0  0  0
  2 12  1  1  0  0  0
  4 11  1  1  0  0  0
  4  3  1  0  0  0  0
  5  4  1  0  0  0  0
  5 10  1  6  0  0  0
  6  7  1  0  0  0  0
  6  5  1  0  0  0  0
  6 14  1  6  0  0  0
  7  8  1  0  0  0  0
  7 13  1  6  0  0  0
  8 15  1  1  0  0  0
  8 11  1  0  0  0  0
  9 13  1  0  0  0  0
 10  1  1  0  0  0  0
 17 15  1  6  0  0  0
 17 18  1  0  0  0  0
 18 25  1  6  0  0  0
 19 18  1  0  0  0  0
 19 26  1  1  0  0  0
 20 19  1  0  0  0  0
 20 24  1  6  0  0  0
 21 23  1  0  0  0  0
 21 20  1  0  0  0  0
 21 22  1  1  0  0  0
 23 17  1  0  0  0  0
 27 22  1  0  0  0  0
 28 29  1  0  0  0  0
 28 16  1  6  0  0  0
 29 36  1  1  0  0  0
 30 37  1  1  0  0  0
 30 29  1  0  0  0  0
 31 30  1  0  0  0  0
 31 34  1  1  0  0  0
 32 31  1  0  0  0  0
 32 33  1  0  0  0  0
 33 28  1  0  0  0  0
 33 35  1  6  0  0  0
M  END
>  <CHROM.1>
84.12251701,75.32505976,-84.78455680,159.45533477,-162.77884604,147.09016696
-51.61827416,63.71216652,26.51190345,-49.00223224,-170.71165358,-73.33787797
59.76089634,-171.13181123,71.46311984,49.24445705,-14.96129361,6.97102014
8.72296364,-1.34671882,0.50197917,0.40557641

>  <Name>
lig.pdb

>  <RI>
0

>  <Rbt.Current_Directory>
/home/itssahil/PROJECTS/Mol_Feturizer/New_Systems/rnas/2m4q

>  <Rbt.Executable>
rbdock ($Id: //depot/dev/client3/rdock/2013.1/src/exe/rbdock.cxx#4 $)

>  <Rbt.Library>
libRbt.so (2013.1, Build901 2013/11/27)

>  <Rbt.Parameter_File>
/export/apps/rDock/src/rDock_2013.1_src/data/scripts/dock_solv.prm

>  <Rbt.Receptor>
prm/blind_docking_60.prm

>  <SCORE>
8.80678

>  <SCORE.INTER>
-0.104651

>  <SCORE.INTER.CONST>
1

>  <SCORE.INTER.POLAR>
-1.76233

>  <SCORE.INTER.ROT>
10

>  <SCORE.INTER.SOLV>
17.0411

>  <SCORE.INTER.VDW>
-10.1424

>  <SCORE.INTER.norm>
-0.00282841

>  <SCORE.INTRA>
-8.45388

>  <SCORE.INTRA.DIHEDRAL>
-28.4296

>  <SCORE.INTRA.DIHEDRAL.0>
44.8331

>  <SCORE.INTRA.POLAR>
-0.164627

>  <SCORE.INTRA.POLAR.0>
-0.108895

>  <SCORE.INTRA.REPUL>
-0.00912235

>  <SCORE.INTRA.REPUL.0>
0.00912235

>  <SCORE.INTRA.SOLV>
0.714571

>  <SCORE.INTRA.SOLV.lig_0>
-53.9067

>  <SCORE.INTRA.VDW>
6.00896

>  <SCORE.INTRA.VDW.0>
-2.93492

>  <SCORE.INTRA.norm>
-0.228483

>  <SCORE.RESTR>
17.3653

>  <SCORE.RESTR.CAVITY>
17.3653

>  <SCORE.RESTR.norm>
0.469333

>  <SCORE.SYSTEM>
0

>  <SCORE.SYSTEM.CONST>
0

>  <SCORE.SYSTEM.DIHEDRAL>
0

>  <SCORE.SYSTEM.SOLV>
0

>  <SCORE.SYSTEM.norm>
0

>  <SCORE.heavy>
37

>  <SCORE.norm>
0.238021

>  <RMSD>
17.792

$$$$
lig.pdb
 OpenBabel11021811453D
libRbt.so/2013.1/901 2013/11/27
 37 40  0  0  0  0  0  0  0  0999 V2000
  -13.7284    5.4336    7.2082 C   0  0  2  0  0  0  0  0  0  0  0  0
  -15.2210    5.1278    7.5630 C   0  0  1  0  0  0  0  0  0  0  0  0
  -16.0196    6.3894    8.0038 C   0  0  0  0  0  0  0  0  0  0  0  0
  -15.2446    7.1928    9.0775 C   0  0  1  0  0  0  0  0  0  0  0  0
  -13.8375    7.5536    8.5510 C   0  0  1  0  0  0  0  0  0  0  0  0
  -13.0544    8.4003    9.5900 C   0  0  1  0  0  0  0  0  0  0  0  0
  -13.8799    9.6475   10.0257 C   0  0  1  0  0  0  0  0  0  0  0  0
  -15.3220    9.2652   10.4735 C   0  0  2  0  0  0  0  0  0  0  0  0
  -12.6781   11.6978   10.6303 C   0  0  0  0  0  0  0  0  0  0  0  0
  -13.1132    6.3474    8.1733 O   0  0  0  0  0  0  0  0  0  0  0  0
  -15.9674    8.3833    9.5043 O   0  0  0  0  0  0  0  0  0  0  0  0
  -15.8902    4.4962    6.4050 N   0  0  0  0  0  0  0  0  0  0  0  0
  -13.1447   10.3700   11.0843 N   0  0  0  0  0  0  0  0  0  0  0  0
  -12.6735    7.6165   10.7134 O   0  0  0  0  0  0  0  0  0  0  0  0
  -16.1163   10.4644   10.7093 O   0  0  0  0  0  0  0  0  0  0  0  0
  -13.6059    5.9643    5.8533 O   0  0  0  0  0  0  0  0  0  0  0  0
  -15.7203   11.3605   11.7929 C   0  0  2  0  0  0  0  0  0  0  0  0
  -16.2411   10.8418   13.1635 C   0  0  1  0  0  0  0  0  0  0  0  0
  -17.7851   10.9865   13.2849 C   0  0  2  0  0  0  0  0  0  0  0  0
  -18.2390   12.4424   12.9743 C   0  0  1  0  0  0  0  0  0  0  0  0
  -17.6689   12.9326   11.6141 C   0  0  1  0  0  0  0  0  0  0  0  0
  -17.9986   14.4259   11.3540 C   0  0  0  0  0  0  0  0  0  0  0  0
  -16.2276   12.7077   11.5557 O   0  0  0  0  0  0  0  0  0  0  0  0
  -19.7121   12.5708   13.0202 N   0  0  0  0  0  0  0  0  0  0  0  0
  -15.8172    9.4978   13.3843 O   0  0  0  0  0  0  0  0  0  0  0  0
  -18.2420   10.5687   14.5695 O   0  0  0  0  0  0  0  0  0  0  0  0
  -19.1602   14.8220   12.0758 O   0  0  0  0  0  0  0  0  0  0  0  0
  -12.3011    5.8821    5.2091 C   0  0  1  0  0  0  0  0  0  0  0  0
  -11.5304    4.5958    5.6186 C   0  0  1  0  0  0  0  0  0  0  0  0
  -10.1050    4.5753    4.9979 C   0  0  2  0  0  0  0  0  0  0  0  0
  -10.1271    4.7707    3.4471 C   0  0  1  0  0  0  0  0  0  0  0  0
  -11.0056    5.9774    2.9999 C   0  0  0  0  0  0  0  0  0  0  0  0
  -12.4169    5.9709    3.6609 C   0  0  2  0  0  0  0  0  0  0  0  0
   -8.7536    4.8926    2.9135 N   0  0  0  0  0  0  0  0  0  0  0  0
  -13.1651    7.1706    3.2271 N   0  0  0  0  0  0  0  0  0  0  0  0
  -11.4667    4.4728    7.0358 O   0  0  0  0  0  0  0  0  0  0  0  0
   -9.4312    3.3663    5.3384 O   0  0  0  0  0  0  0  0  0  0  0  0
  1  2  1  0  0  0  0
  1 16  1  6  0  0  0
  2  3  1  0  0  0  0
  2 12  1  6  0  0  0
  4 11  1  6  0  0  0
  4  3  1  0  0  0  0
  5  4  1  0  0  0  0
  5 10  1  1  0  0  0
  6  7  1  0  0  0  0
  6  5  1  0  0  0  0
  6 14  1  1  0  0  0
  7  8  1  0  0  0  0
  7 13  1  1  0  0  0
  8 15  1  6  0  0  0
  8 11  1  0  0  0  0
  9 13  1  0  0  0  0
 10  1  1  0  0  0  0
 17 15  1  6  0  0  0
 17 18  1  0  0  0  0
 18 25  1  6  0  0  0
 19 18  1  0  0  0  0
 19 26  1  1  0  0  0
 20 19  1  0  0  0  0
 20 24  1  6  0  0  0
 21 23  1  0  0  0  0
 21 20  1  0  0  0  0
 21 22  1  1  0  0  0
 23 17  1  0  0  0  0
 27 22  1  0  0  0  0
 28 29  1  0  0  0  0
 28 16  1  1  0  0  0
 29 36  1  1  0  0  0
 30 37  1  6  0  0  0
 30 29  1  0  0  0  0
 31 30  1  0  0  0  0
 31 34  1  1  0  0  0
 32 31  1  0  0  0  0
 32 33  1  0  0  0  0
 33 28  1  0  0  0  0
 33 35  1  1  0  0  0
M  END
>  <CHROM.1>
90.54986377,-64.48631498,113.02612131,72.39743964,-81.57028621,-159.92086712
64.95306869,-39.07295374,-24.69572000,62.21778407,-169.98925903,34.41539539
103.07239006,80.03559191,-43.18216636,139.16273743,-14.40444817,8.36955684
8.86872235,0.44393478,-0.98133334,2.91562592

>  <Name>
lig.pdb

>  <RI>
0

>  <Rbt.Current_Directory>
/home/afrankz/demos/rdock_decoys_rna/rnas/2m4q

>  <Rbt.Executable>
rbdock ($Id: //depot/dev/client3/rdock/2013.1/src/exe/rbdock.cxx#4 $)

>  <Rbt.Library>
libRbt.so (2013.1, Build901 2013/11/27)

>  <Rbt.Parameter_File>
/export/apps/rDock/src/rDock_2013.1_src/data/scripts/dock_solv.prm

>  <Rbt.Receptor>
prm/blind_docking_80.prm

>  <SCORE>
45.6989

>  <SCORE.INTER>
14.638

>  <SCORE.INTER.CONST>
1

>  <SCORE.INTER.POLAR>
-1.13785

>  <SCORE.INTER.ROT>
10

>  <SCORE.INTER.SOLV>
18.1173

>  <SCORE.INTER.VDW>
-2.75428

>  <SCORE.INTER.norm>
0.395622

>  <SCORE.INTRA>
-2.62169

>  <SCORE.INTRA.DIHEDRAL>
-17.4458

>  <SCORE.INTRA.DIHEDRAL.0>
44.8331

>  <SCORE.INTRA.POLAR>
-0.800733

>  <SCORE.INTRA.POLAR.0>
-0.108895

>  <SCORE.INTRA.REPUL>
-0.00912235

>  <SCORE.INTRA.REPUL.0>
0.00912235

>  <SCORE.INTRA.SOLV>
0.225245

>  <SCORE.INTRA.SOLV.lig_0>
-53.9067

>  <SCORE.INTRA.VDW>
8.75671

>  <SCORE.INTRA.VDW.0>
-2.93492

>  <SCORE.INTRA.norm>
-0.0708565

>  <SCORE.RESTR>
33.6826

>  <SCORE.RESTR.CAVITY>
33.6826

>  <SCORE.RESTR.norm>
0.910341

>  <SCORE.SYSTEM>
0

>  <SCORE.SYSTEM.CONST>
0

>  <SCORE.SYSTEM.DIHEDRAL>
0

>  <SCORE.SYSTEM.SOLV>
0

>  <SCORE.SYSTEM.norm>
0

>  <SCORE.heavy>
37

>  <SCORE.norm>
1.23511

>  <RMSD>
17.807

$$$$
lig.pdb
 OpenBabel11021811453D
libRbt.so/2013.1/901 2013/11/27
 37 40  0  0  0  0  0  0  0  0999 V2000
  -15.5949   13.9056   13.7035 C   0  0  2  0  0  0  0  0  0  0  0  0
  -16.6404   13.0257   14.4650 C   0  0  1  0  0  0  0  0  0  0  0  0
  -16.3960   11.4972   14.2987 C   0  0  0  0  0  0  0  0  0  0  0  0
  -16.1897   11.1244   12.8096 C   0  0  1  0  0  0  0  0  0  0  0  0
  -15.0377   11.9629   12.2119 C   0  0  1  0  0  0  0  0  0  0  0  0
  -14.7776   11.5762   10.7312 C   0  0  1  0  0  0  0  0  0  0  0  0
  -14.5509   10.0416   10.5894 C   0  0  1  0  0  0  0  0  0  0  0  0
  -15.6838    9.2190   11.2723 C   0  0  2  0  0  0  0  0  0  0  0  0
  -13.2142   10.3365    8.5547 C   0  0  0  0  0  0  0  0  0  0  0  0
  -15.3146   13.3850   12.3636 O   0  0  0  0  0  0  0  0  0  0  0  0
  -15.9527    9.6989   12.6254 O   0  0  0  0  0  0  0  0  0  0  0  0
  -16.6356   13.3757   15.9020 N   0  0  0  0  0  0  0  0  0  0  0  0
  -14.4063    9.7029    9.1585 N   0  0  0  0  0  0  0  0  0  0  0  0
  -15.8326   12.0212    9.8882 O   0  0  0  0  0  0  0  0  0  0  0  0
  -15.3540    7.7992   11.2698 O   0  0  0  0  0  0  0  0  0  0  0  0
  -14.3581   14.0369   14.4689 O   0  0  0  0  0  0  0  0  0  0  0  0
  -16.2397    6.8794   10.5603 C   0  0  2  0  0  0  0  0  0  0  0  0
  -15.4230    5.8216    9.7648 C   0  0  1  0  0  0  0  0  0  0  0  0
  -14.7020    6.4531    8.5396 C   0  0  2  0  0  0  0  0  0  0  0  0
  -15.7007    7.2459    7.6473 C   0  0  1  0  0  0  0  0  0  0  0  0
  -16.5194    8.2660    8.4868 C   0  0  1  0  0  0  0  0  0  0  0  0
  -17.6128    8.9667    7.6384 C   0  0  0  0  0  0  0  0  0  0  0  0
  -17.1130    7.6095    9.6478 O   0  0  0  0  0  0  0  0  0  0  0  0
  -15.0099    7.9066    6.5183 N   0  0  0  0  0  0  0  0  0  0  0  0
  -14.5085    5.1443   10.6249 O   0  0  0  0  0  0  0  0  0  0  0  0
  -14.0107    5.4623    7.7820 O   0  0  0  0  0  0  0  0  0  0  0  0
  -17.5174   10.3824    7.7573 O   0  0  0  0  0  0  0  0  0  0  0  0
  -14.0011   15.3629   14.9567 C   0  0  1  0  0  0  0  0  0  0  0  0
  -14.5350   16.4881   14.0266 C   0  0  1  0  0  0  0  0  0  0  0  0
  -14.0617   17.8874   14.5112 C   0  0  2  0  0  0  0  0  0  0  0  0
  -14.4209   18.1526   16.0094 C   0  0  1  0  0  0  0  0  0  0  0  0
  -14.0161   16.9765   16.9478 C   0  0  0  0  0  0  0  0  0  0  0  0
  -14.4914   15.5913   16.4147 C   0  0  2  0  0  0  0  0  0  0  0  0
  -13.8288   19.4252   16.4742 N   0  0  0  0  0  0  0  0  0  0  0  0
  -14.0245   14.5287   17.3313 N   0  0  0  0  0  0  0  0  0  0  0  0
  -14.1406   16.2600   12.6775 O   0  0  0  0  0  0  0  0  0  0  0  0
  -14.6027   18.9113   13.6802 O   0  0  0  0  0  0  0  0  0  0  0  0
  1  2  1  0  0  0  0
  1 16  1  1  0  0  0
  2  3  1  0  0  0  0
  2 12  1  1  0  0  0
  4 11  1  1  0  0  0
  4  3  1  0  0  0  0
  5  4  1  0  0  0  0
  5 10  1  6  0  0  0
  6  7  1  0  0  0  0
  6  5  1  0  0  0  0
  6 14  1  6  0  0  0
  7  8  1  0  0  0  0
  7 13  1  6  0  0  0
  8 15  1  1  0  0  0
  8 11  1  0  0  0  0
  9 13  1  0  0  0  0
 10  1  1  0  0  0  0
 17 15  1  6  0  0  0
 17 18  1  0  0  0  0
 18 25  1  1  0  0  0
 19 18  1  0  0  0  0
 19 26  1  6  0  0  0
 20 19  1  0  0  0  0
 20 24  1  6  0  0  0
 21 23  1  0  0  0  0
 21 20  1  0  0  0  0
 21 22  1  6  0  0  0
 23 17  1  0  0  0  0
 27 22  1  0  0  0  0
 28 29  1  0  0  0  0
 28 16  1  6  0  0  0
 29 36  1  6  0  0  0
 30 37  1  6  0  0  0
 30 29  1  0  0  0  0
 31 30  1  0  0  0  0
 31 34  1  1  0  0  0
 32 31  1  0  0  0  0
 32 33  1  0  0  0  0
 33 28  1  0  0  0  0
 33 35  1  1  0  0  0
M  END
>  <CHROM.1>
-43.04061303,-118.58071592,63.46532306,-162.54406785,138.15763867,-114.67535987
74.61425922,-177.51554059,-127.65150858,174.93209162,-56.94279002,-29.68587701
177.38879814,-167.99367353,88.06356556,160.02573292,-15.19146062,11.68281468
11.91859712,0.63881396,1.46047170,1.54087498

>  <Name>
lig.pdb

>  <RI>
0

>  <Rbt.Current_Directory>
/home/afrankz/demos/rdock_decoys_rna/rnas/2m4q

>  <Rbt.Executable>
rbdock ($Id: //depot/dev/client3/rdock/2013.1/src/exe/rbdock.cxx#4 $)

>  <Rbt.Library>
libRbt.so (2013.1, Build901 2013/11/27)

>  <Rbt.Parameter_File>
/export/apps/rDock/src/rDock_2013.1_src/data/scripts/dock_solv.prm

>  <Rbt.Receptor>
prm/blind_docking_40.prm

>  <SCORE>
42.4628

>  <SCORE.INTER>
25.9568

>  <SCORE.INTER.CONST>
1

>  <SCORE.INTER.POLAR>
-1.61405

>  <SCORE.INTER.ROT>
10

>  <SCORE.INTER.SOLV>
16.0363

>  <SCORE.INTER.VDW>
7.0726

>  <SCORE.INTER.norm>
0.701535

>  <SCORE.INTRA>
-3.68303

>  <SCORE.INTRA.DIHEDRAL>
-10.3991

>  <SCORE.INTRA.DIHEDRAL.0>
44.8331

>  <SCORE.INTRA.POLAR>
-1.1681

>  <SCORE.INTRA.POLAR.0>
-0.108895

>  <SCORE.INTRA.REPUL>
-0.00912235

>  <SCORE.INTRA.REPUL.0>
0.00912235

>  <SCORE.INTRA.SOLV>
2.4081

>  <SCORE.INTRA.SOLV.lig_0>
-53.9067

>  <SCORE.INTRA.VDW>
4.32963

>  <SCORE.INTRA.VDW.0>
-2.93492

>  <SCORE.INTRA.norm>
-0.0995414

>  <SCORE.RESTR>
20.189

>  <SCORE.RESTR.CAVITY>
20.189

>  <SCORE.RESTR.norm>
0.545649

>  <SCORE.SYSTEM>
0

>  <SCORE.SYSTEM.CONST>
0

>  <SCORE.SYSTEM.DIHEDRAL>
0

>  <SCORE.SYSTEM.SOLV>
0

>  <SCORE.SYSTEM.norm>
0

>  <SCORE.heavy>
37

>  <SCORE.norm>
1.14764

>  <RMSD>
17.924

$$$$
lig.pdb
 OpenBabel11021811453D
libRbt.so/2013.1/901 2013/11/27
 37 40  0  0  0  0  0  0  0  0999 V2000
  -12.1674    5.8187    7.0806 C   0  0  2  0  0  0  0  0  0  0  0  0
  -13.5346    5.4226    6.4319 C   0  0  1  0  0  0  0  0  0  0  0  0
  -14.5139    6.6232    6.2786 C   0  0  0  0  0  0  0  0  0  0  0  0
  -14.6256    7.4236    7.5999 C   0  0  1  0  0  0  0  0  0  0  0  0
  -13.2222    7.8769    8.0609 C   0  0  1  0  0  0  0  0  0  0  0  0
  -13.3089    8.7223    9.3599 C   0  0  1  0  0  0  0  0  0  0  0  0
  -14.3050    9.9073    9.1859 C   0  0  1  0  0  0  0  0  0  0  0  0
  -15.6855    9.4338    8.6417 C   0  0  2  0  0  0  0  0  0  0  0  0
  -13.2255   11.4179   10.7881 C   0  0  0  0  0  0  0  0  0  0  0  0
  -12.3438    6.7253    8.2173 O   0  0  0  0  0  0  0  0  0  0  0  0
  -15.5322    8.5577    7.4829 O   0  0  0  0  0  0  0  0  0  0  0  0
  -13.2990    4.8023    5.1100 N   0  0  0  0  0  0  0  0  0  0  0  0
  -14.4332   10.6255   10.4708 N   0  0  0  0  0  0  0  0  0  0  0  0
  -13.6571    7.9165   10.4783 O   0  0  0  0  0  0  0  0  0  0  0  0
  -16.5302   10.5802    8.3306 O   0  0  0  0  0  0  0  0  0  0  0  0
  -11.2657    6.4069    6.0940 O   0  0  0  0  0  0  0  0  0  0  0  0
  -17.9579   10.4948    8.6276 C   0  0  2  0  0  0  0  0  0  0  0  0
  -18.7271   11.7014    8.0184 C   0  0  1  0  0  0  0  0  0  0  0  0
  -18.4055   13.0265    8.7671 C   0  0  2  0  0  0  0  0  0  0  0  0
  -18.6297   12.8745   10.2996 C   0  0  1  0  0  0  0  0  0  0  0  0
  -17.8726   11.6385   10.8603 C   0  0  1  0  0  0  0  0  0  0  0  0
  -18.1949   11.3940   12.3579 C   0  0  0  0  0  0  0  0  0  0  0  0
  -18.1804   10.4510   10.0688 O   0  0  0  0  0  0  0  0  0  0  0  0
  -18.2596   14.1095   11.0252 N   0  0  0  0  0  0  0  0  0  0  0  0
  -18.4659   11.8076    6.6201 O   0  0  0  0  0  0  0  0  0  0  0  0
  -19.1657   14.1125    8.2416 O   0  0  0  0  0  0  0  0  0  0  0  0
  -17.0421   10.9353   13.0564 O   0  0  0  0  0  0  0  0  0  0  0  0
  -10.5130    5.4988    5.2381 C   0  0  1  0  0  0  0  0  0  0  0  0
  -10.3896    6.0372    3.7851 C   0  0  1  0  0  0  0  0  0  0  0  0
   -9.6685    5.0107    2.8666 C   0  0  2  0  0  0  0  0  0  0  0  0
   -8.2843    4.5659    3.4410 C   0  0  1  0  0  0  0  0  0  0  0  0
   -8.3555    4.1478    4.9404 C   0  0  0  0  0  0  0  0  0  0  0  0
   -9.1039    5.1934    5.8209 C   0  0  2  0  0  0  0  0  0  0  0  0
   -7.6978    3.4851    2.6201 N   0  0  0  0  0  0  0  0  0  0  0  0
   -9.1732    4.6995    7.2133 N   0  0  0  0  0  0  0  0  0  0  0  0
  -11.6691    6.3747    3.2594 O   0  0  0  0  0  0  0  0  0  0  0  0
   -9.5156    5.5403    1.5521 O   0  0  0  0  0  0  0  0  0  0  0  0
  1  2  1  0  0  0  0
  1 16  1  6  0  0  0
  2  3  1  0  0  0  0
  2 12  1  6  0  0  0
  4 11  1  6  0  0  0
  4  3  1  0  0  0  0
  5  4  1  0  0  0  0
  5 10  1  1  0  0  0
  6  7  1  0  0  0  0
  6  5  1  0  0  0  0
  6 14  1  1  0  0  0
  7  8  1  0  0  0  0
  7 13  1  1  0  0  0
  8 15  1  6  0  0  0
  8 11  1  0  0  0  0
  9 13  1  0  0  0  0
 10  1  1  0  0  0  0
 17 15  1  1  0  0  0
 17 18  1  0  0  0  0
 18 25  1  6  0  0  0
 19 18  1  0  0  0  0
 19 26  1  6  0  0  0
 20 19  1  0  0  0  0
 20 24  1  1  0  0  0
 21 23  1  0  0  0  0
 21 20  1  0  0  0  0
 21 22  1  1  0  0  0
 23 17  1  0  0  0  0
 27 22  1  0  0  0  0
 28 29  1  0  0  0  0
 28 16  1  1  0  0  0
 29 36  1  6  0  0  0
 30 37  1  6  0  0  0
 30 29  1  0  0  0  0
 31 30  1  0  0  0  0
 31 34  1  6  0  0  0
 32 31  1  0  0  0  0
 32 33  1  0  0  0  0
 33 28  1  0  0  0  0
 33 35  1  1  0  0  0
M  END
>  <CHROM.1>
-66.73044662,-141.71023357,72.58079635,-56.00226285,-170.59512509,-81.78536937
67.01800520,63.03583633,-143.26469166,-87.97723823,-58.22457501,141.89880969
178.89620823,-72.39714076,-62.49791791,144.82781488,-13.99626906,8.43708282
7.51816675,-0.58311850,-0.65598058,1.43251493

>  <Name>
lig.pdb

>  <RI>
0

>  <Rbt.Current_Directory>
/home/afrankz/demos/rdock_decoys_rna/rnas/2m4q

>  <Rbt.Executable>
rbdock ($Id: //depot/dev/client3/rdock/2013.1/src/exe/rbdock.cxx#4 $)

>  <Rbt.Library>
libRbt.so (2013.1, Build901 2013/11/27)

>  <Rbt.Parameter_File>
/export/apps/rDock/src/rDock_2013.1_src/data/scripts/dock_solv.prm

>  <Rbt.Receptor>
prm/blind_docking_80.prm

>  <SCORE>
-7.45117

>  <SCORE.INTER>
-15.5552

>  <SCORE.INTER.CONST>
1

>  <SCORE.INTER.POLAR>
-3.50594

>  <SCORE.INTER.ROT>
10

>  <SCORE.INTER.SOLV>
21.9807

>  <SCORE.INTER.VDW>
-16.2772

>  <SCORE.INTER.norm>
-0.420411

>  <SCORE.INTRA>
-14.9659

>  <SCORE.INTRA.DIHEDRAL>
-24.0843

>  <SCORE.INTRA.DIHEDRAL.0>
44.8331

>  <SCORE.INTRA.POLAR>
-0.893836

>  <SCORE.INTRA.POLAR.0>
-0.108895

>  <SCORE.INTRA.REPUL>
-0.00912235

>  <SCORE.INTRA.REPUL.0>
0.00912235

>  <SCORE.INTRA.SOLV>
-0.549472

>  <SCORE.INTRA.SOLV.lig_0>
-53.9067

>  <SCORE.INTRA.VDW>
0.435675

>  <SCORE.INTRA.VDW.0>
-2.93492

>  <SCORE.INTRA.norm>
-0.404483

>  <SCORE.RESTR>
23.0699

>  <SCORE.RESTR.CAVITY>
23.0699

>  <SCORE.RESTR.norm>
0.623511

>  <SCORE.SYSTEM>
0

>  <SCORE.SYSTEM.CONST>
0

>  <SCORE.SYSTEM.DIHEDRAL>
0

>  <SCORE.SYSTEM.SOLV>
0

>  <SCORE.SYSTEM.norm>
0

>  <SCORE.heavy>
37

>  <SCORE.norm>
-0.201383

>  <RMSD>
17.971

$$$$
lig.pdb
 OpenBabel11021811453D
libRbt.so/2013.1/901 2013/11/27
 37 40  0  0  0  0  0  0  0  0999 V2000
  -12.9719    5.9845    7.4215 C   0  0  2  0  0  0  0  0  0  0  0  0
  -14.4527    5.4816    7.3871 C   0  0  1  0  0  0  0  0  0  0  0  0
  -15.4959    6.6369    7.4180 C   0  0  0  0  0  0  0  0  0  0  0  0
  -15.1755    7.6471    8.5475 C   0  0  1  0  0  0  0  0  0  0  0  0
  -13.7322    8.1751    8.3874 C   0  0  1  0  0  0  0  0  0  0  0  0
  -13.3994    9.2261    9.4802 C   0  0  1  0  0  0  0  0  0  0  0  0
  -14.4647   10.3625    9.5008 C   0  0  1  0  0  0  0  0  0  0  0  0
  -15.9154    9.8007    9.5791 C   0  0  2  0  0  0  0  0  0  0  0  0
  -12.7296   11.6229   10.6901 C   0  0  0  0  0  0  0  0  0  0  0  0
  -12.7849    7.0684    8.3886 O   0  0  0  0  0  0  0  0  0  0  0  0
  -16.1338    8.7432    8.5954 O   0  0  0  0  0  0  0  0  0  0  0  0
  -14.6695    4.6491    6.1839 N   0  0  0  0  0  0  0  0  0  0  0  0
  -14.1675   11.2856   10.6155 N   0  0  0  0  0  0  0  0  0  0  0  0
  -13.2697    8.6183   10.7590 O   0  0  0  0  0  0  0  0  0  0  0  0
  -16.8867   10.8765    9.4245 O   0  0  0  0  0  0  0  0  0  0  0  0
  -12.5250    6.4015    6.0952 O   0  0  0  0  0  0  0  0  0  0  0  0
  -18.0027   10.9480   10.3642 C   0  0  2  0  0  0  0  0  0  0  0  0
  -19.0004   12.0706    9.9603 C   0  0  1  0  0  0  0  0  0  0  0  0
  -18.3994   13.4864   10.1937 C   0  0  2  0  0  0  0  0  0  0  0  0
  -17.8703   13.6390   11.6493 C   0  0  1  0  0  0  0  0  0  0  0  0
  -16.9053   12.4793   12.0229 C   0  0  1  0  0  0  0  0  0  0  0  0
  -16.4766   12.5417   13.5124 C   0  0  0  0  0  0  0  0  0  0  0  0
  -17.5180   11.1895   11.7189 O   0  0  0  0  0  0  0  0  0  0  0  0
  -17.2350   14.9586   11.8580 N   0  0  0  0  0  0  0  0  0  0  0  0
  -19.4324   11.8957    8.6122 O   0  0  0  0  0  0  0  0  0  0  0  0
  -19.3465   14.5057    9.8816 O   0  0  0  0  0  0  0  0  0  0  0  0
  -15.2859   13.3073   13.6658 O   0  0  0  0  0  0  0  0  0  0  0  0
  -11.8583    5.4088    5.2621 C   0  0  1  0  0  0  0  0  0  0  0  0
  -10.6800    6.0231    4.4556 C   0  0  1  0  0  0  0  0  0  0  0  0
  -10.0452    4.9716    3.5023 C   0  0  2  0  0  0  0  0  0  0  0  0
   -9.6190    3.6676    4.2518 C   0  0  1  0  0  0  0  0  0  0  0  0
  -10.7407    3.1041    5.1749 C   0  0  0  0  0  0  0  0  0  0  0  0
  -11.3637    4.1943    6.0980 C   0  0  2  0  0  0  0  0  0  0  0  0
   -9.1575    2.6390    3.2952 N   0  0  0  0  0  0  0  0  0  0  0  0
  -12.4502    3.5922    6.9007 N   0  0  0  0  0  0  0  0  0  0  0  0
  -11.1071    7.1712    3.7297 O   0  0  0  0  0  0  0  0  0  0  0  0
   -8.9337    5.5344    2.8099 O   0  0  0  0  0  0  0  0  0  0  0  0
  1  2  1  0  0  0  0
  1 16  1  6  0  0  0
  2  3  1  0  0  0  0
  2 12  1  6  0  0  0
  4 11  1  6  0  0  0
  4  3  1  0  0  0  0
  5  4  1  0  0  0  0
  5 10  1  1  0  0  0
  6  7  1  0  0  0  0
  6  5  1  0  0  0  0
  6 14  1  1  0  0  0
  7  8  1  0  0  0  0
  7 13  1  1  0  0  0
  8 15  1  6  0  0  0
  8 11  1  0  0  0  0
  9 13  1  0  0  0  0
 10  1  1  0  0  0  0
 17 15  1  6  0  0  0
 17 18  1  0  0  0  0
 18 25  1  6  0  0  0
 19 18  1  0  0  0  0
 19 26  1  1  0  0  0
 20 19  1  0  0  0  0
 20 24  1  6  0  0  0
 21 23  1  0  0  0  0
 21 20  1  0  0  0  0
 21 22  1  1  0  0  0
 23 17  1  0  0  0  0
 27 22  1  0  0  0  0
 28 29  1  0  0  0  0
 28 16  1  1  0  0  0
 29 36  1  6  0  0  0
 30 37  1  1  0  0  0
 30 29  1  0  0  0  0
 31 30  1  0  0  0  0
 31 34  1  6  0  0  0
 32 31  1  0  0  0  0
 32 33  1  0  0  0  0
 33 28  1  0  0  0  0
 33 35  1  6  0  0  0
M  END
>  <CHROM.1>
54.51521267,-132.81254913,44.77622640,-153.02484494,-174.54914419,-92.32375666
-53.56652877,-155.42983146,-90.74203491,62.01459656,169.25683059,-141.44540511
151.58932081,85.16248841,-66.06049704,-111.77582371,-14.33066539,8.68777409
8.31545541,0.99967349,0.21883481,-2.33498981

>  <Name>
lig.pdb

>  <RI>
0

>  <Rbt.Current_Directory>
/home/afrankz/demos/rdock_decoys_rna/rnas/2m4q

>  <Rbt.Executable>
rbdock ($Id: //depot/dev/client3/rdock/2013.1/src/exe/rbdock.cxx#4 $)

>  <Rbt.Library>
libRbt.so (2013.1, Build901 2013/11/27)

>  <Rbt.Parameter_File>
/export/apps/rDock/src/rDock_2013.1_src/data/scripts/dock_solv.prm

>  <Rbt.Receptor>
prm/blind_docking_80.prm

>  <SCORE>
32.1048

>  <SCORE.INTER>
5.49246

>  <SCORE.INTER.CONST>
1

>  <SCORE.INTER.POLAR>
-2.83156

>  <SCORE.INTER.ROT>
10

>  <SCORE.INTER.SOLV>
18.6331

>  <SCORE.INTER.VDW>
-3.37754

>  <SCORE.INTER.norm>
0.148445

>  <SCORE.INTRA>
-0.0569733

>  <SCORE.INTRA.DIHEDRAL>
-11.2203

>  <SCORE.INTRA.DIHEDRAL.0>
44.8331

>  <SCORE.INTRA.POLAR>
-0.888009

>  <SCORE.INTRA.POLAR.0>
-0.108895

>  <SCORE.INTRA.REPUL>
-0.00912235

>  <SCORE.INTRA.REPUL.0>
0.00912235

>  <SCORE.INTRA.SOLV>
0.407978

>  <SCORE.INTRA.SOLV.lig_0>
-53.9067

>  <SCORE.INTRA.VDW>
8.41403

>  <SCORE.INTRA.VDW.0>
-2.93492

>  <SCORE.INTRA.norm>
-0.00153982

>  <SCORE.RESTR>
26.6694

>  <SCORE.RESTR.CAVITY>
26.6694

>  <SCORE.RESTR.norm>
0.720793

>  <SCORE.SYSTEM>
0

>  <SCORE.SYSTEM.CONST>
0

>  <SCORE.SYSTEM.DIHEDRAL>
0

>  <SCORE.SYSTEM.SOLV>
0

>  <SCORE.SYSTEM.norm>
0

>  <SCORE.heavy>
37

>  <SCORE.norm>
0.867698

>  <RMSD>
18.089

$$$$
lig.pdb
 OpenBabel11021811453D
libRbt.so/2013.1/901 2013/11/27
 37 40  0  0  0  0  0  0  0  0999 V2000
  -12.6160    4.6439    5.3192 C   0  0  2  0  0  0  0  0  0  0  0  0
  -11.8245    5.9921    5.3721 C   0  0  1  0  0  0  0  0  0  0  0  0
  -12.5190    7.0797    6.2431 C   0  0  0  0  0  0  0  0  0  0  0  0
  -14.0172    7.2161    5.8746 C   0  0  1  0  0  0  0  0  0  0  0  0
  -14.7162    5.8436    5.9970 C   0  0  1  0  0  0  0  0  0  0  0  0
  -16.2310    5.9598    5.6783 C   0  0  1  0  0  0  0  0  0  0  0  0
  -16.8992    7.0635    6.5512 C   0  0  1  0  0  0  0  0  0  0  0  0
  -16.1275    8.4144    6.4750 C   0  0  2  0  0  0  0  0  0  0  0  0
  -18.4908    8.2465    5.1086 C   0  0  0  0  0  0  0  0  0  0  0  0
  -14.0545    4.8606    5.1496 O   0  0  0  0  0  0  0  0  0  0  0  0
  -14.6937    8.2242    6.6796 O   0  0  0  0  0  0  0  0  0  0  0  0
  -10.4567    5.7486    5.8795 N   0  0  0  0  0  0  0  0  0  0  0  0
  -18.3132    7.2102    6.1486 N   0  0  0  0  0  0  0  0  0  0  0  0
  -16.4509    6.1948    4.2934 O   0  0  0  0  0  0  0  0  0  0  0  0
  -16.6766    9.3687    7.4300 O   0  0  0  0  0  0  0  0  0  0  0  0
  -12.3587    3.8337    6.5067 O   0  0  0  0  0  0  0  0  0  0  0  0
  -17.0174    8.8963    8.7697 C   0  0  2  0  0  0  0  0  0  0  0  0
  -18.0315    9.8542    9.4572 C   0  0  1  0  0  0  0  0  0  0  0  0
  -17.3730   11.2101    9.8417 C   0  0  2  0  0  0  0  0  0  0  0  0
  -16.0812   10.9893   10.6808 C   0  0  1  0  0  0  0  0  0  0  0  0
  -15.1123   10.0003    9.9747 C   0  0  1  0  0  0  0  0  0  0  0  0
  -13.8835    9.6642   10.8598 C   0  0  0  0  0  0  0  0  0  0  0  0
  -15.8187    8.7809    9.5932 O   0  0  0  0  0  0  0  0  0  0  0  0
  -15.4122   12.2718   10.9910 N   0  0  0  0  0  0  0  0  0  0  0  0
  -19.1821   10.0397    8.6349 O   0  0  0  0  0  0  0  0  0  0  0  0
  -18.2947   12.0535   10.5291 O   0  0  0  0  0  0  0  0  0  0  0  0
  -13.3494    8.3882   10.5227 O   0  0  0  0  0  0  0  0  0  0  0  0
  -13.4826    3.5509    7.3902 C   0  0  1  0  0  0  0  0  0  0  0  0
  -13.7417    2.0248    7.5315 C   0  0  1  0  0  0  0  0  0  0  0  0
  -15.0021    1.7484    8.3989 C   0  0  2  0  0  0  0  0  0  0  0  0
  -14.9357    2.4578    9.7904 C   0  0  1  0  0  0  0  0  0  0  0  0
  -14.5443    3.9624    9.6863 C   0  0  0  0  0  0  0  0  0  0  0  0
  -13.2898    4.1966    8.7918 C   0  0  2  0  0  0  0  0  0  0  0  0
  -16.2085    2.2942   10.5246 N   0  0  0  0  0  0  0  0  0  0  0  0
  -13.0171    5.6475    8.7028 N   0  0  0  0  0  0  0  0  0  0  0  0
  -13.8635    1.4109    6.2525 O   0  0  0  0  0  0  0  0  0  0  0  0
  -15.1954    0.3458    8.5634 O   0  0  0  0  0  0  0  0  0  0  0  0
  1  2  1  0  0  0  0
  1 16  1  1  0  0  0
  2  3  1  0  0  0  0
  2 12  1  1  0  0  0
  4 11  1  1  0  0  0
  4  3  1  0  0  0  0
  5  4  1  0  0  0  0
  5 10  1  6  0  0  0
  6  7  1  0  0  0  0
  6  5  1  0  0  0  0
  6 14  1  6  0  0  0
  7  8  1  0  0  0  0
  7 13  1  6  0  0  0
  8 15  1  1  0  0  0
  8 11  1  0  0  0  0
  9 13  1  0  0  0  0
 10  1  1  0  0  0  0
 17 15  1  6  0  0  0
 17 18  1  0  0  0  0
 18 25  1  6  0  0  0
 19 18  1  0  0  0  0
 19 26  1  1  0  0  0
 20 19  1  0  0  0  0
 20 24  1  6  0  0  0
 21 23  1  0  0  0  0
 21 20  1  0  0  0  0
 21 22  1  1  0  0  0
 23 17  1  0  0  0  0
 27 22  1  0  0  0  0
 28 29  1  0  0  0  0
 28 16  1  6  0  0  0
 29 36  1  6  0  0  0
 30 37  1  1  0  0  0
 30 29  1  0  0  0  0
 31 30  1  0  0  0  0
 31 34  1  6  0  0  0
 32 31  1  0  0  0  0
 32 33  1  0  0  0  0
 33 28  1  0  0  0  0
 33 35  1  6  0  0  0
M  END
>  <CHROM.1>
-169.85684027,42.47205499,-91.99414153,173.59710501,-159.32824643,116.54686424
178.90536705,-61.99924540,153.95250616,-123.39957741,148.56337499,120.38565714
73.63845744,68.52719536,174.06147486,54.61854549,-15.13006917,6.64774167
7.84754922,0.31223776,1.16218750,-1.61880596

>  <Name>
lig.pdb

>  <RI>
0

>  <Rbt.Current_Directory>
/home/itssahil/PROJECTS/Mol_Feturizer/New_Systems/rnas/2m4q

>  <Rbt.Executable>
rbdock ($Id: //depot/dev/client3/rdock/2013.1/src/exe/rbdock.cxx#4 $)

>  <Rbt.Library>
libRbt.so (2013.1, Build901 2013/11/27)

>  <Rbt.Parameter_File>
/export/apps/rDock/src/rDock_2013.1_src/data/scripts/dock_solv.prm

>  <Rbt.Receptor>
prm/blind_docking_60.prm

>  <SCORE>
14.5589

>  <SCORE.INTER>
-9.79828

>  <SCORE.INTER.CONST>
1

>  <SCORE.INTER.POLAR>
-3.52071

>  <SCORE.INTER.ROT>
10

>  <SCORE.INTER.SOLV>
17.0296

>  <SCORE.INTER.VDW>
-10.7397

>  <SCORE.INTER.norm>
-0.264819

>  <SCORE.INTRA>
5.37567

>  <SCORE.INTRA.DIHEDRAL>
-15.6108

>  <SCORE.INTRA.DIHEDRAL.0>
44.8331

>  <SCORE.INTRA.POLAR>
0.108895

>  <SCORE.INTRA.POLAR.0>
-0.108895

>  <SCORE.INTRA.REPUL>
1.0973

>  <SCORE.INTRA.REPUL.0>
0.00912235

>  <SCORE.INTRA.SOLV>
0.758527

>  <SCORE.INTRA.SOLV.lig_0>
-53.9067

>  <SCORE.INTRA.VDW>
6.94503

>  <SCORE.INTRA.VDW.0>
-2.93492

>  <SCORE.INTRA.norm>
0.145288

>  <SCORE.RESTR>
18.9815

>  <SCORE.RESTR.CAVITY>
18.9815

>  <SCORE.RESTR.norm>
0.513015

>  <SCORE.SYSTEM>
0

>  <SCORE.SYSTEM.CONST>
0

>  <SCORE.SYSTEM.DIHEDRAL>
0

>  <SCORE.SYSTEM.SOLV>
0

>  <SCORE.SYSTEM.norm>
0

>  <SCORE.heavy>
37

>  <SCORE.norm>
0.393484

>  <RMSD>
18.147

$$$$
lig.pdb
 OpenBabel11021811453D
libRbt.so/2013.1/901 2013/11/27
 37 40  0  0  0  0  0  0  0  0999 V2000
   -8.1309   -6.8504   13.6563 C   0  0  2  0  0  0  0  0  0  0  0  0
   -8.6921   -8.3085   13.5774 C   0  0  1  0  0  0  0  0  0  0  0  0
   -8.7118   -8.8829   12.1306 C   0  0  0  0  0  0  0  0  0  0  0  0
   -9.3570   -7.8805   11.1416 C   0  0  1  0  0  0  0  0  0  0  0  0
   -8.6233   -6.5227   11.2150 C   0  0  1  0  0  0  0  0  0  0  0  0
   -9.2198   -5.5118   10.1992 C   0  0  1  0  0  0  0  0  0  0  0  0
   -9.2422   -6.1151    8.7632 C   0  0  1  0  0  0  0  0  0  0  0  0
   -9.9134   -7.5203    8.7312 C   0  0  2  0  0  0  0  0  0  0  0  0
  -11.3797   -5.2347    7.9446 C   0  0  0  0  0  0  0  0  0  0  0  0
   -8.6483   -6.0063   12.5770 O   0  0  0  0  0  0  0  0  0  0  0  0
   -9.3831   -8.3908    9.7775 O   0  0  0  0  0  0  0  0  0  0  0  0
   -7.8982   -9.1971   14.4536 N   0  0  0  0  0  0  0  0  0  0  0  0
   -9.9057   -5.1637    7.8479 N   0  0  0  0  0  0  0  0  0  0  0  0
  -10.5153   -5.0825   10.5980 O   0  0  0  0  0  0  0  0  0  0  0  0
   -9.7648   -8.1253    7.4134 O   0  0  0  0  0  0  0  0  0  0  0  0
   -6.6706   -6.8458   13.6522 O   0  0  0  0  0  0  0  0  0  0  0  0
   -9.9000   -9.5748    7.2929 C   0  0  2  0  0  0  0  0  0  0  0  0
   -8.5172  -10.2757    7.4161 C   0  0  1  0  0  0  0  0  0  0  0  0
   -7.6256  -10.0137    6.1686 C   0  0  2  0  0  0  0  0  0  0  0  0
   -8.3763  -10.3782    4.8550 C   0  0  1  0  0  0  0  0  0  0  0  0
   -9.7658   -9.6851    4.7888 C   0  0  1  0  0  0  0  0  0  0  0  0
  -10.5825  -10.1448    3.5527 C   0  0  0  0  0  0  0  0  0  0  0  0
  -10.5150   -9.9284    6.0180 O   0  0  0  0  0  0  0  0  0  0  0  0
   -7.5599  -10.0664    3.6614 N   0  0  0  0  0  0  0  0  0  0  0  0
   -7.8643   -9.8870    8.6233 O   0  0  0  0  0  0  0  0  0  0  0  0
   -6.3873  -10.7142    6.2643 O   0  0  0  0  0  0  0  0  0  0  0  0
  -10.5823  -11.5645    3.4441 O   0  0  0  0  0  0  0  0  0  0  0  0
   -5.9965   -5.5860   13.9394 C   0  0  1  0  0  0  0  0  0  0  0  0
   -6.4407   -4.4546   12.9704 C   0  0  1  0  0  0  0  0  0  0  0  0
   -5.6403   -3.1475   13.2310 C   0  0  2  0  0  0  0  0  0  0  0  0
   -5.7098   -2.6934   14.7252 C   0  0  1  0  0  0  0  0  0  0  0  0
   -5.3993   -3.8474   15.7251 C   0  0  0  0  0  0  0  0  0  0  0  0
   -6.2063   -5.1442   15.4156 C   0  0  2  0  0  0  0  0  0  0  0  0
   -4.8215   -1.5359   14.9643 N   0  0  0  0  0  0  0  0  0  0  0  0
   -5.8172   -6.2020   16.3732 N   0  0  0  0  0  0  0  0  0  0  0  0
   -6.3073   -4.8676   11.6142 O   0  0  0  0  0  0  0  0  0  0  0  0
   -6.0957   -2.1053   12.3717 O   0  0  0  0  0  0  0  0  0  0  0  0
  1  2  1  0  0  0  0
  1 16  1  6  0  0  0
  2  3  1  0  0  0  0
  2 12  1  1  0  0  0
  4 11  1  6  0  0  0
  4  3  1  0  0  0  0
  5  4  1  0  0  0  0
  5 10  1  1  0  0  0
  6  7  1  0  0  0  0
  6  5  1  0  0  0  0
  6 14  1  1  0  0  0
  7  8  1  0  0  0  0
  7 13  1  6  0  0  0
  8 15  1  6  0  0  0
  8 11  1  0  0  0  0
  9 13  1  0  0  0  0
 10  1  1  0  0  0  0
 17 15  1  6  0  0  0
 17 18  1  0  0  0  0
 18 25  1  1  0  0  0
 19 18  1  0  0  0  0
 19 26  1  1  0  0  0
 20 19  1  0  0  0  0
 20 24  1  6  0  0  0
 21 23  1  0  0  0  0
 21 20  1  0  0  0  0
 21 22  1  6  0  0  0
 23 17  1  0  0  0  0
 27 22  1  0  0  0  0
 28 29  1  0  0  0  0
 28 16  1  6  0  0  0
 29 36  1  6  0  0  0
 30 37  1  6  0  0  0
 30 29  1  0  0  0  0
 31 30  1  0  0  0  0
 31 34  1  6  0  0  0
 32 31  1  0  0  0  0
 32 33  1  0  0  0  0
 33 28  1  0  0  0  0
 33 35  1  1  0  0  0
M  END
>  <CHROM.1>
169.81859891,159.26696526,-80.07904888,66.51464238,-92.45179137,-170.21968897
54.07359639,175.98073342,48.54164107,83.79694510,64.71820942,-56.29510616
-153.82784229,-165.61068064,58.84926428,-44.06796966,-8.16238381,-7.13001915
10.15701610,-0.54658993,1.23685108,-3.12281719

>  <Name>
lig.pdb

>  <RI>
0

>  <Rbt.Current_Directory>
/home/afrankz/demos/rdock_decoys_rna/rnas/2m4q

>  <Rbt.Executable>
rbdock ($Id: //depot/dev/client3/rdock/2013.1/src/exe/rbdock.cxx#4 $)

>  <Rbt.Library>
libRbt.so (2013.1, Build901 2013/11/27)

>  <Rbt.Parameter_File>
/export/apps/rDock/src/rDock_2013.1_src/data/scripts/dock_solv.prm

>  <Rbt.Receptor>
prm/blind_docking_40.prm

>  <SCORE>
-14.9136

>  <SCORE.INTER>
-19.682

>  <SCORE.INTER.CONST>
1

>  <SCORE.INTER.POLAR>
-4.1719

>  <SCORE.INTER.ROT>
10

>  <SCORE.INTER.SOLV>
27.4511

>  <SCORE.INTER.VDW>
-18.632

>  <SCORE.INTER.norm>
-0.531947

>  <SCORE.INTRA>
-11.0881

>  <SCORE.INTRA.DIHEDRAL>
-31.0574

>  <SCORE.INTRA.DIHEDRAL.0>
44.8331

>  <SCORE.INTRA.POLAR>
-0.133306

>  <SCORE.INTRA.POLAR.0>
-0.108895

>  <SCORE.INTRA.REPUL>
0.0024121

>  <SCORE.INTRA.REPUL.0>
0.00912235

>  <SCORE.INTRA.SOLV>
0.709793

>  <SCORE.INTRA.SOLV.lig_0>
-53.9067

>  <SCORE.INTRA.VDW>
4.52694

>  <SCORE.INTRA.VDW.0>
-2.93492

>  <SCORE.INTRA.norm>
-0.299677

>  <SCORE.RESTR>
15.8565

>  <SCORE.RESTR.CAVITY>
15.8565

>  <SCORE.RESTR.norm>
0.428554

>  <SCORE.SYSTEM>
0

>  <SCORE.SYSTEM.CONST>
0

>  <SCORE.SYSTEM.DIHEDRAL>
0

>  <SCORE.SYSTEM.SOLV>
0

>  <SCORE.SYSTEM.norm>
0

>  <SCORE.heavy>
37

>  <SCORE.norm>
-0.40307

>  <RMSD>
18.221

$$$$
lig.pdb
 OpenBabel11021811453D
libRbt.so/2013.1/901 2013/11/27
 37 40  0  0  0  0  0  0  0  0999 V2000
  -15.9698   14.8111   16.2510 C   0  0  2  0  0  0  0  0  0  0  0  0
  -17.3651   14.1295   16.0625 C   0  0  1  0  0  0  0  0  0  0  0  0
  -17.2834   12.7459   15.3534 C   0  0  0  0  0  0  0  0  0  0  0  0
  -16.4176   12.8267   14.0717 C   0  0  1  0  0  0  0  0  0  0  0  0
  -15.0182   13.3838   14.4162 C   0  0  1  0  0  0  0  0  0  0  0  0
  -14.1124   13.4318   13.1565 C   0  0  1  0  0  0  0  0  0  0  0  0
  -14.0589   12.0407   12.4575 C   0  0  1  0  0  0  0  0  0  0  0  0
  -15.4820   11.4640   12.1962 C   0  0  2  0  0  0  0  0  0  0  0  0
  -12.9535   10.8300   10.6336 C   0  0  0  0  0  0  0  0  0  0  0  0
  -15.1351   14.6883   15.0538 O   0  0  0  0  0  0  0  0  0  0  0  0
  -16.3192   11.5427   13.3907 O   0  0  0  0  0  0  0  0  0  0  0  0
  -18.0274   13.9758   17.3760 N   0  0  0  0  0  0  0  0  0  0  0  0
  -13.2702   12.1533   11.2131 N   0  0  0  0  0  0  0  0  0  0  0  0
  -14.5357   14.4458   12.2542 O   0  0  0  0  0  0  0  0  0  0  0  0
  -15.3937   10.0960   11.7008 O   0  0  0  0  0  0  0  0  0  0  0  0
  -15.2729   14.2737   17.4163 O   0  0  0  0  0  0  0  0  0  0  0  0
  -15.9610    9.7918   10.3895 C   0  0  2  0  0  0  0  0  0  0  0  0
  -17.0056    8.6438   10.4869 C   0  0  1  0  0  0  0  0  0  0  0  0
  -16.3297    7.2736   10.7793 C   0  0  2  0  0  0  0  0  0  0  0  0
  -15.1952    6.9771    9.7561 C   0  0  1  0  0  0  0  0  0  0  0  0
  -14.1943    8.1626    9.6649 C   0  0  1  0  0  0  0  0  0  0  0  0
  -13.1361    7.9410    8.5525 C   0  0  0  0  0  0  0  0  0  0  0  0
  -14.9095    9.4171    9.4501 O   0  0  0  0  0  0  0  0  0  0  0  0
  -14.5022    5.7083   10.0698 N   0  0  0  0  0  0  0  0  0  0  0  0
  -18.0055    8.9571   11.4547 O   0  0  0  0  0  0  0  0  0  0  0  0
  -17.2903    6.2199   10.8013 O   0  0  0  0  0  0  0  0  0  0  0  0
  -13.7570    7.8365    7.2755 O   0  0  0  0  0  0  0  0  0  0  0  0
  -14.0420   14.9334   17.8332 C   0  0  1  0  0  0  0  0  0  0  0  0
  -14.2149   16.4746   17.9379 C   0  0  1  0  0  0  0  0  0  0  0  0
  -12.8678   17.1669   18.2891 C   0  0  2  0  0  0  0  0  0  0  0  0
  -12.2062   16.5678   19.5724 C   0  0  1  0  0  0  0  0  0  0  0  0
  -12.1427   15.0111   19.5522 C   0  0  0  0  0  0  0  0  0  0  0  0
  -13.5071   14.3588   19.1756 C   0  0  2  0  0  0  0  0  0  0  0  0
  -10.8634   17.1470   19.7903 N   0  0  0  0  0  0  0  0  0  0  0  0
  -13.3494   12.8890   19.1279 N   0  0  0  0  0  0  0  0  0  0  0  0
  -14.7582   17.0065   16.7340 O   0  0  0  0  0  0  0  0  0  0  0  0
  -13.0536   18.5727   18.4340 O   0  0  0  0  0  0  0  0  0  0  0  0
  1  2  1  0  0  0  0
  1 16  1  1  0  0  0
  2  3  1  0  0  0  0
  2 12  1  1  0  0  0
  4 11  1  1  0  0  0
  4  3  1  0  0  0  0
  5  4  1  0  0  0  0
  5 10  1  6  0  0  0
  6  7  1  0  0  0  0
  6  5  1  0  0  0  0
  6 14  1  6  0  0  0
  7  8  1  0  0  0  0
  7 13  1  6  0  0  0
  8 15  1  1  0  0  0
  8 11  1  0  0  0  0
  9 13  1  0  0  0  0
 10  1  1  0  0  0  0
 17 15  1  1  0  0  0
 17 18  1  0  0  0  0
 18 25  1  1  0  0  0
 19 18  1  0  0  0  0
 19 26  1  6  0  0  0
 20 19  1  0  0  0  0
 20 24  1  1  0  0  0
 21 23  1  0  0  0  0
 21 20  1  0  0  0  0
 21 22  1  6  0  0  0
 23 17  1  0  0  0  0
 27 22  1  0  0  0  0
 28 29  1  0  0  0  0
 28 16  1  1  0  0  0
 29 36  1  6  0  0  0
 30 37  1  1  0  0  0
 30 29  1  0  0  0  0
 31 30  1  0  0  0  0
 31 34  1  6  0  0  0
 32 31  1  0  0  0  0
 32 33  1  0  0  0  0
 33 28  1  0  0  0  0
 33 35  1  6  0  0  0
M  END
>  <CHROM.1>
99.27802850,-120.33422581,168.86677584,-169.84831721,-124.08613870,-171.75180261
-173.66506927,62.18753069,61.26941401,67.84492667,-56.85868190,49.05481619
-175.30131980,-175.78904935,-58.06962178,68.79520306,-14.81286407,12.24952800
13.96659932,1.42435127,0.34823138,0.86745559

>  <Name>
lig.pdb

>  <RI>
0

>  <Rbt.Current_Directory>
/home/afrankz/demos/rdock_decoys_rna/rnas/2m4q

>  <Rbt.Executable>
rbdock ($Id: //depot/dev/client3/rdock/2013.1/src/exe/rbdock.cxx#4 $)

>  <Rbt.Library>
libRbt.so (2013.1, Build901 2013/11/27)

>  <Rbt.Parameter_File>
/export/apps/rDock/src/rDock_2013.1_src/data/scripts/dock_solv.prm

>  <Rbt.Receptor>
prm/blind_docking_40.prm

>  <SCORE>
14.3884

>  <SCORE.INTER>
-1.0553

>  <SCORE.INTER.CONST>
1

>  <SCORE.INTER.POLAR>
-2.72224

>  <SCORE.INTER.ROT>
10

>  <SCORE.INTER.SOLV>
18.7779

>  <SCORE.INTER.VDW>
-8.15536

>  <SCORE.INTER.norm>
-0.0285216

>  <SCORE.INTRA>
-7.26046

>  <SCORE.INTRA.DIHEDRAL>
-25.8592

>  <SCORE.INTRA.DIHEDRAL.0>
44.8331

>  <SCORE.INTRA.POLAR>
-0.321589

>  <SCORE.INTRA.POLAR.0>
-0.108895

>  <SCORE.INTRA.REPUL>
0.104983

>  <SCORE.INTRA.REPUL.0>
0.00912235

>  <SCORE.INTRA.SOLV>
-0.885868

>  <SCORE.INTRA.SOLV.lig_0>
-53.9067

>  <SCORE.INTRA.VDW>
6.68058

>  <SCORE.INTRA.VDW.0>
-2.93492

>  <SCORE.INTRA.norm>
-0.196229

>  <SCORE.RESTR>
22.7041

>  <SCORE.RESTR.CAVITY>
22.7041

>  <SCORE.RESTR.norm>
0.613625

>  <SCORE.SYSTEM>
0

>  <SCORE.SYSTEM.CONST>
0

>  <SCORE.SYSTEM.DIHEDRAL>
0

>  <SCORE.SYSTEM.SOLV>
0

>  <SCORE.SYSTEM.norm>
0

>  <SCORE.heavy>
37

>  <SCORE.norm>
0.388874

>  <RMSD>
18.316

$$$$
lig.pdb
 OpenBabel11021811453D
libRbt.so/2013.1/901 2013/11/27
 37 40  0  0  0  0  0  0  0  0999 V2000
  -15.6548    8.8741   10.2538 C   0  0  2  0  0  0  0  0  0  0  0  0
  -15.6794   10.1870    9.4036 C   0  0  1  0  0  0  0  0  0  0  0  0
  -15.0626   11.4105   10.1427 C   0  0  0  0  0  0  0  0  0  0  0  0
  -15.6414   11.5477   11.5728 C   0  0  1  0  0  0  0  0  0  0  0  0
  -15.4291   10.2321   12.3549 C   0  0  1  0  0  0  0  0  0  0  0  0
  -15.9585   10.3569   13.8088 C   0  0  1  0  0  0  0  0  0  0  0  0
  -15.3384   11.5957   14.5212 C   0  0  1  0  0  0  0  0  0  0  0  0
  -15.4929   12.8937   13.6742 C   0  0  2  0  0  0  0  0  0  0  0  0
  -14.9437   12.1268   16.8826 C   0  0  0  0  0  0  0  0  0  0  0  0
  -16.0413    9.1166   11.6455 O   0  0  0  0  0  0  0  0  0  0  0  0
  -15.0763   12.6826   12.2901 O   0  0  0  0  0  0  0  0  0  0  0  0
  -14.9672    9.9680    8.1260 N   0  0  0  0  0  0  0  0  0  0  0  0
  -15.9409   11.7353   15.8631 N   0  0  0  0  0  0  0  0  0  0  0  0
  -17.3793   10.4028   13.8390 O   0  0  0  0  0  0  0  0  0  0  0  0
  -14.7563   13.9920   14.2872 O   0  0  0  0  0  0  0  0  0  0  0  0
  -14.3456    8.2301   10.1926 O   0  0  0  0  0  0  0  0  0  0  0  0
  -15.4912   14.9521   15.1069 C   0  0  2  0  0  0  0  0  0  0  0  0
  -15.4106   16.3811   14.4985 C   0  0  1  0  0  0  0  0  0  0  0  0
  -13.9849   16.9874   14.6396 C   0  0  2  0  0  0  0  0  0  0  0  0
  -13.4920   16.9265   16.1144 C   0  0  1  0  0  0  0  0  0  0  0  0
  -13.6221   15.4901   16.6935 C   0  0  1  0  0  0  0  0  0  0  0  0
  -13.2638   15.4408   18.2020 C   0  0  0  0  0  0  0  0  0  0  0  0
  -14.9678   14.9707   16.4686 O   0  0  0  0  0  0  0  0  0  0  0  0
  -12.1099   17.4379   16.2441 N   0  0  0  0  0  0  0  0  0  0  0  0
  -15.8497   16.3734   13.1414 O   0  0  0  0  0  0  0  0  0  0  0  0
  -13.9406   18.3213   14.1374 O   0  0  0  0  0  0  0  0  0  0  0  0
  -13.2276   14.0968   18.6710 O   0  0  0  0  0  0  0  0  0  0  0  0
  -14.2356    6.9900    9.4349 C   0  0  1  0  0  0  0  0  0  0  0  0
  -12.8624    6.8669    8.7170 C   0  0  1  0  0  0  0  0  0  0  0  0
  -12.8025    5.5859    7.8380 C   0  0  2  0  0  0  0  0  0  0  0  0
  -13.1552    4.2932    8.6432 C   0  0  1  0  0  0  0  0  0  0  0  0
  -14.4610    4.4375    9.4810 C   0  0  0  0  0  0  0  0  0  0  0  0
  -14.4890    5.7439   10.3302 C   0  0  2  0  0  0  0  0  0  0  0  0
  -13.2317    3.1202    7.7463 N   0  0  0  0  0  0  0  0  0  0  0  0
  -15.7772    5.8303   11.0517 N   0  0  0  0  0  0  0  0  0  0  0  0
  -12.5920    8.0278    7.9381 O   0  0  0  0  0  0  0  0  0  0  0  0
  -11.5199    5.4594    7.2292 O   0  0  0  0  0  0  0  0  0  0  0  0
  1  2  1  0  0  0  0
  1 16  1  1  0  0  0
  2  3  1  0  0  0  0
  2 12  1  6  0  0  0
  4 11  1  1  0  0  0
  4  3  1  0  0  0  0
  5  4  1  0  0  0  0
  5 10  1  6  0  0  0
  6  7  1  0  0  0  0
  6  5  1  0  0  0  0
  6 14  1  6  0  0  0
  7  8  1  0  0  0  0
  7 13  1  1  0  0  0
  8 15  1  1  0  0  0
  8 11  1  0  0  0  0
  9 13  1  0  0  0  0
 10  1  1  0  0  0  0
 17 15  1  6  0  0  0
 17 18  1  0  0  0  0
 18 25  1  6  0  0  0
 19 18  1  0  0  0  0
 19 26  1  1  0  0  0
 20 19  1  0  0  0  0
 20 24  1  6  0  0  0
 21 23  1  0  0  0  0
 21 20  1  0  0  0  0
 21 22  1  1  0  0  0
 23 17  1  0  0  0  0
 27 22  1  0  0  0  0
 28 29  1  0  0  0  0
 28 16  1  1  0  0  0
 29 36  1  6  0  0  0
 30 37  1  1  0  0  0
 30 29  1  0  0  0  0
 31 30  1  0  0  0  0
 31 34  1  6  0  0  0
 32 31  1  0  0  0  0
 32 33  1  0  0  0  0
 33 28  1  0  0  0  0
 33 35  1  6  0  0  0
M  END
>  <CHROM.1>
-152.34862313,-98.79703339,140.02998176,-57.39172606,-117.83156433,-108.70613206
-66.79816457,68.78915969,-172.75022156,174.21863550,53.20008760,144.96827999
-26.68644634,-68.87481693,-50.12149344,-44.28009967,-14.53529963,11.08619483
12.46961364,-1.39261399,1.34217391,0.45869210

>  <Name>
lig.pdb

>  <RI>
0

>  <Rbt.Current_Directory>
/home/afrankz/demos/rdock_decoys_rna/rnas/2m4q

>  <Rbt.Executable>
rbdock ($Id: //depot/dev/client3/rdock/2013.1/src/exe/rbdock.cxx#4 $)

>  <Rbt.Library>
libRbt.so (2013.1, Build901 2013/11/27)

>  <Rbt.Parameter_File>
/export/apps/rDock/src/rDock_2013.1_src/data/scripts/dock_solv.prm

>  <Rbt.Receptor>
prm/blind_docking_40.prm

>  <SCORE>
-18.3804

>  <SCORE.INTER>
-27.9451

>  <SCORE.INTER.CONST>
1

>  <SCORE.INTER.POLAR>
-5.63673

>  <SCORE.INTER.ROT>
10

>  <SCORE.INTER.SOLV>
23.1979

>  <SCORE.INTER.VDW>
-17.8403

>  <SCORE.INTER.norm>
-0.755274

>  <SCORE.INTRA>
-9.77772

>  <SCORE.INTRA.DIHEDRAL>
-11.7334

>  <SCORE.INTRA.DIHEDRAL.0>
44.8331

>  <SCORE.INTRA.POLAR>
-1.1432

>  <SCORE.INTRA.POLAR.0>
-0.108895

>  <SCORE.INTRA.REPUL>
-0.00912235

>  <SCORE.INTRA.REPUL.0>
0.00912235

>  <SCORE.INTRA.SOLV>
-1.09204

>  <SCORE.INTRA.SOLV.lig_0>
-53.9067

>  <SCORE.INTRA.VDW>
0.567495

>  <SCORE.INTRA.VDW.0>
-2.93492

>  <SCORE.INTRA.norm>
-0.264263

>  <SCORE.RESTR>
19.3425

>  <SCORE.RESTR.CAVITY>
19.3425

>  <SCORE.RESTR.norm>
0.52277

>  <SCORE.SYSTEM>
0

>  <SCORE.SYSTEM.CONST>
0

>  <SCORE.SYSTEM.DIHEDRAL>
0

>  <SCORE.SYSTEM.SOLV>
0

>  <SCORE.SYSTEM.norm>
0

>  <SCORE.heavy>
37

>  <SCORE.norm>
-0.496767

>  <RMSD>
18.343

$$$$
lig.pdb
 OpenBabel11021811453D
libRbt.so/2013.1/901 2013/11/27
 37 40  0  0  0  0  0  0  0  0999 V2000
  -15.2474   11.3381   10.3691 C   0  0  2  0  0  0  0  0  0  0  0  0
  -13.6878   11.3437   10.4907 C   0  0  1  0  0  0  0  0  0  0  0  0
  -13.1793   11.8807   11.8607 C   0  0  0  0  0  0  0  0  0  0  0  0
  -13.8674   13.2197   12.2247 C   0  0  1  0  0  0  0  0  0  0  0  0
  -15.4025   13.0447   12.2057 C   0  0  1  0  0  0  0  0  0  0  0  0
  -16.1181   14.3606   12.6131 C   0  0  1  0  0  0  0  0  0  0  0  0
  -15.5818   14.8848   13.9785 C   0  0  1  0  0  0  0  0  0  0  0  0
  -14.0268   14.9733   13.9993 C   0  0  2  0  0  0  0  0  0  0  0  0
  -15.5574   17.3025   13.5687 C   0  0  0  0  0  0  0  0  0  0  0  0
  -15.8417   12.5662   10.9018 O   0  0  0  0  0  0  0  0  0  0  0  0
  -13.4138   13.7424   13.5065 O   0  0  0  0  0  0  0  0  0  0  0  0
  -13.1647    9.9783   10.2676 N   0  0  0  0  0  0  0  0  0  0  0  0
  -16.2145   16.1853   14.2809 N   0  0  0  0  0  0  0  0  0  0  0  0
  -15.9978   15.3493   11.5984 O   0  0  0  0  0  0  0  0  0  0  0  0
  -13.5537   15.3012   15.3384 O   0  0  0  0  0  0  0  0  0  0  0  0
  -15.8238   10.1668   11.0235 O   0  0  0  0  0  0  0  0  0  0  0  0
  -14.5191   15.7957   16.3168 C   0  0  2  0  0  0  0  0  0  0  0  0
  -14.0163   17.1088   16.9813 C   0  0  1  0  0  0  0  0  0  0  0  0
  -12.8178   16.8478   17.9380 C   0  0  2  0  0  0  0  0  0  0  0  0
  -13.1564   15.7350   18.9719 C   0  0  1  0  0  0  0  0  0  0  0  0
  -13.6872   14.4546   18.2687 C   0  0  1  0  0  0  0  0  0  0  0  0
  -14.1570   13.3866   19.2909 C   0  0  0  0  0  0  0  0  0  0  0  0
  -14.7669   14.7914   17.3456 O   0  0  0  0  0  0  0  0  0  0  0  0
  -11.9974   15.4331   19.8403 N   0  0  0  0  0  0  0  0  0  0  0  0
  -13.6979   18.0825   15.9888 O   0  0  0  0  0  0  0  0  0  0  0  0
  -12.4086   18.0480   18.5902 O   0  0  0  0  0  0  0  0  0  0  0  0
  -13.5900   12.1151   18.9928 O   0  0  0  0  0  0  0  0  0  0  0  0
  -15.9237    8.9377   10.2468 C   0  0  1  0  0  0  0  0  0  0  0  0
  -14.9951    8.9602    9.0004 C   0  0  1  0  0  0  0  0  0  0  0  0
  -15.1883    7.6833    8.1347 C   0  0  2  0  0  0  0  0  0  0  0  0
  -15.0164    6.3691    8.9637 C   0  0  1  0  0  0  0  0  0  0  0  0
  -15.8347    6.3767   10.2896 C   0  0  0  0  0  0  0  0  0  0  0  0
  -15.6287    7.6821   11.1156 C   0  0  2  0  0  0  0  0  0  0  0  0
  -15.3506    5.1842    8.1450 N   0  0  0  0  0  0  0  0  0  0  0  0
  -16.4758    7.6326   12.3270 N   0  0  0  0  0  0  0  0  0  0  0  0
  -15.2153   10.1345    8.2257 O   0  0  0  0  0  0  0  0  0  0  0  0
  -14.2930    7.6936    7.0256 O   0  0  0  0  0  0  0  0  0  0  0  0
  1  2  1  0  0  0  0
  1 16  1  1  0  0  0
  2  3  1  0  0  0  0
  2 12  1  1  0  0  0
  4 11  1  1  0  0  0
  4  3  1  0  0  0  0
  5  4  1  0  0  0  0
  5 10  1  6  0  0  0
  6  7  1  0  0  0  0
  6  5  1  0  0  0  0
  6 14  1  6  0  0  0
  7  8  1  0  0  0  0
  7 13  1  6  0  0  0
  8 15  1  1  0  0  0
  8 11  1  0  0  0  0
  9 13  1  0  0  0  0
 10  1  1  0  0  0  0
 17 15  1  6  0  0  0
 17 18  1  0  0  0  0
 18 25  1  6  0  0  0
 19 18  1  0  0  0  0
 19 26  1  1  0  0  0
 20 19  1  0  0  0  0
 20 24  1  6  0  0  0
 21 23  1  0  0  0  0
 21 20  1  0  0  0  0
 21 22  1  1  0  0  0
 23 17  1  0  0  0  0
 27 22  1  0  0  0  0
 28 29  1  0  0  0  0
 28 16  1  1  0  0  0
 29 36  1  6  0  0  0
 30 37  1  6  0  0  0
 30 29  1  0  0  0  0
 31 30  1  0  0  0  0
 31 34  1  6  0  0  0
 32 31  1  0  0  0  0
 32 33  1  0  0  0  0
 33 28  1  0  0  0  0
 33 35  1  1  0  0  0
M  END
>  <CHROM.1>
-75.88785434,-14.30166727,-80.90543753,161.65376491,-129.00709445,-86.16470326
79.73909412,-89.66894054,-130.37918450,145.55715764,55.81669650,18.07555753
-174.22427278,-170.14996644,-173.73044657,71.48376727,-14.56587142,12.56117642
13.25955453,2.17639243,1.33856553,-2.93444565

>  <Name>
lig.pdb

>  <RI>
0

>  <Rbt.Current_Directory>
/home/afrankz/demos/rdock_decoys_rna/rnas/2m4q

>  <Rbt.Executable>
rbdock ($Id: //depot/dev/client3/rdock/2013.1/src/exe/rbdock.cxx#4 $)

>  <Rbt.Library>
libRbt.so (2013.1, Build901 2013/11/27)

>  <Rbt.Parameter_File>
/export/apps/rDock/src/rDock_2013.1_src/data/scripts/dock_solv.prm

>  <Rbt.Receptor>
prm/blind_docking_40.prm

>  <SCORE>
4.01137

>  <SCORE.INTER>
-16.1276

>  <SCORE.INTER.CONST>
1

>  <SCORE.INTER.POLAR>
-4.61111

>  <SCORE.INTER.ROT>
10

>  <SCORE.INTER.SOLV>
19.6825

>  <SCORE.INTER.VDW>
-12.2089

>  <SCORE.INTER.norm>
-0.43588

>  <SCORE.INTRA>
10.1944

>  <SCORE.INTRA.DIHEDRAL>
-7.69241

>  <SCORE.INTRA.DIHEDRAL.0>
44.8331

>  <SCORE.INTRA.POLAR>
0.0670992

>  <SCORE.INTRA.POLAR.0>
-0.108895

>  <SCORE.INTRA.REPUL>
-0.00841795

>  <SCORE.INTRA.REPUL.0>
0.00912235

>  <SCORE.INTRA.SOLV>
0.835679

>  <SCORE.INTRA.SOLV.lig_0>
-53.9067

>  <SCORE.INTRA.VDW>
13.4367

>  <SCORE.INTRA.VDW.0>
-2.93492

>  <SCORE.INTRA.norm>
0.275524

>  <SCORE.RESTR>
9.94455

>  <SCORE.RESTR.CAVITY>
9.94455

>  <SCORE.RESTR.norm>
0.268772

>  <SCORE.SYSTEM>
0

>  <SCORE.SYSTEM.CONST>
0

>  <SCORE.SYSTEM.DIHEDRAL>
0

>  <SCORE.SYSTEM.SOLV>
0

>  <SCORE.SYSTEM.norm>
0

>  <SCORE.heavy>
37

>  <SCORE.norm>
0.108415

>  <RMSD>
18.462

$$$$
lig.pdb
 OpenBabel11021811453D
libRbt.so/2013.1/901 2013/11/27
 37 40  0  0  0  0  0  0  0  0999 V2000
  -16.7972   14.8484   12.7027 C   0  0  2  0  0  0  0  0  0  0  0  0
  -15.3813   14.6473   13.3367 C   0  0  1  0  0  0  0  0  0  0  0  0
  -14.5895   13.4619   12.7110 C   0  0  0  0  0  0  0  0  0  0  0  0
  -15.4615   12.1838   12.6418 C   0  0  1  0  0  0  0  0  0  0  0  0
  -16.7673   12.4786   11.8702 C   0  0  1  0  0  0  0  0  0  0  0  0
  -17.6406   11.2014   11.7449 C   0  0  1  0  0  0  0  0  0  0  0  0
  -16.8222   10.0270   11.1305 C   0  0  1  0  0  0  0  0  0  0  0  0
  -15.4724    9.8043   11.8753 C   0  0  2  0  0  0  0  0  0  0  0  0
  -17.0836    7.7486   10.2618 C   0  0  0  0  0  0  0  0  0  0  0  0
  -17.4913   13.5748   12.4998 O   0  0  0  0  0  0  0  0  0  0  0  0
  -14.7462   11.0590   12.0542 O   0  0  0  0  0  0  0  0  0  0  0  0
  -14.5947   15.8931   13.2073 N   0  0  0  0  0  0  0  0  0  0  0  0
  -17.6566    8.8077   11.1204 N   0  0  0  0  0  0  0  0  0  0  0  0
  -18.2045   10.8363   12.9980 O   0  0  0  0  0  0  0  0  0  0  0  0
  -14.6605    8.8182   11.1732 O   0  0  0  0  0  0  0  0  0  0  0  0
  -16.7129   15.5892   11.4470 O   0  0  0  0  0  0  0  0  0  0  0  0
  -13.6321    9.2920   10.2502 C   0  0  2  0  0  0  0  0  0  0  0  0
  -14.2608   10.1157    9.0905 C   0  0  1  0  0  0  0  0  0  0  0  0
  -15.0633    9.2117    8.1114 C   0  0  2  0  0  0  0  0  0  0  0  0
  -14.1976    8.0197    7.6099 C   0  0  1  0  0  0  0  0  0  0  0  0
  -13.5612    7.2459    8.7981 C   0  0  1  0  0  0  0  0  0  0  0  0
  -12.5875    6.1404    8.3123 C   0  0  0  0  0  0  0  0  0  0  0  0
  -12.8798    8.1696    9.7003 O   0  0  0  0  0  0  0  0  0  0  0  0
  -14.9759    7.1176    6.7330 N   0  0  0  0  0  0  0  0  0  0  0  0
  -15.0618   11.1771    9.6067 O   0  0  0  0  0  0  0  0  0  0  0  0
  -15.5795    9.9679    7.0182 O   0  0  0  0  0  0  0  0  0  0  0  0
  -11.8269    6.5894    7.1956 O   0  0  0  0  0  0  0  0  0  0  0  0
  -17.7545   16.5695   11.1678 C   0  0  1  0  0  0  0  0  0  0  0  0
  -19.0695   15.8984   10.6812 C   0  0  1  0  0  0  0  0  0  0  0  0
  -20.1338   16.9646   10.2971 C   0  0  2  0  0  0  0  0  0  0  0  0
  -20.3956   17.9880   11.4495 C   0  0  1  0  0  0  0  0  0  0  0  0
  -19.0830   18.5767   12.0480 C   0  0  0  0  0  0  0  0  0  0  0  0
  -18.0363   17.4766   12.3991 C   0  0  2  0  0  0  0  0  0  0  0  0
  -21.2992   19.0677   10.9978 N   0  0  0  0  0  0  0  0  0  0  0  0
  -16.8058   18.1184   12.9102 N   0  0  0  0  0  0  0  0  0  0  0  0
  -18.8162   15.0203    9.5892 O   0  0  0  0  0  0  0  0  0  0  0  0
  -21.3505   16.3345    9.9043 O   0  0  0  0  0  0  0  0  0  0  0  0
  1  2  1  0  0  0  0
  1 16  1  6  0  0  0
  2  3  1  0  0  0  0
  2 12  1  6  0  0  0
  4 11  1  6  0  0  0
  4  3  1  0  0  0  0
  5  4  1  0  0  0  0
  5 10  1  1  0  0  0
  6  7  1  0  0  0  0
  6  5  1  0  0  0  0
  6 14  1  1  0  0  0
  7  8  1  0  0  0  0
  7 13  1  1  0  0  0
  8 15  1  6  0  0  0
  8 11  1  0  0  0  0
  9 13  1  0  0  0  0
 10  1  1  0  0  0  0
 17 15  1  1  0  0  0
 17 18  1  0  0  0  0
 18 25  1  1  0  0  0
 19 18  1  0  0  0  0
 19 26  1  6  0  0  0
 20 19  1  0  0  0  0
 20 24  1  1  0  0  0
 21 23  1  0  0  0  0
 21 20  1  0  0  0  0
 21 22  1  6  0  0  0
 23 17  1  0  0  0  0
 27 22  1  0  0  0  0
 28 29  1  0  0  0  0
 28 16  1  1  0  0  0
 29 36  1  6  0  0  0
 30 37  1  1  0  0  0
 30 29  1  0  0  0  0
 31 30  1  0  0  0  0
 31 34  1  6  0  0  0
 32 31  1  0  0  0  0
 32 33  1  0  0  0  0
 33 28  1  0  0  0  0
 33 35  1  6  0  0  0
M  END
>  <CHROM.1>
-81.09449359,96.62746187,165.93394903,74.13430480,-61.20546529,-141.15627015
51.17985841,-173.63317020,39.35800734,-175.62340945,-173.04011527,-77.86944832
-164.52975481,61.83105519,-59.34397161,66.28214245,-16.39085077,12.30167836
10.68708415,-2.16037482,0.63656174,-2.46647401

>  <Name>
lig.pdb

>  <RI>
0

>  <Rbt.Current_Directory>
/home/afrankz/demos/rdock_decoys_rna/rnas/2m4q

>  <Rbt.Executable>
rbdock ($Id: //depot/dev/client3/rdock/2013.1/src/exe/rbdock.cxx#4 $)

>  <Rbt.Library>
libRbt.so (2013.1, Build901 2013/11/27)

>  <Rbt.Parameter_File>
/export/apps/rDock/src/rDock_2013.1_src/data/scripts/dock_solv.prm

>  <Rbt.Receptor>
prm/blind_docking_80.prm

>  <SCORE>
0.743664

>  <SCORE.INTER>
-6.83469

>  <SCORE.INTER.CONST>
1

>  <SCORE.INTER.POLAR>
-2.72256

>  <SCORE.INTER.ROT>
10

>  <SCORE.INTER.SOLV>
18.3163

>  <SCORE.INTER.VDW>
-11.8534

>  <SCORE.INTER.norm>
-0.184721

>  <SCORE.INTRA>
-13.9987

>  <SCORE.INTRA.DIHEDRAL>
-27.6956

>  <SCORE.INTRA.DIHEDRAL.0>
44.8331

>  <SCORE.INTRA.POLAR>
-1.13146

>  <SCORE.INTRA.POLAR.0>
-0.108895

>  <SCORE.INTRA.REPUL>
-0.00912235

>  <SCORE.INTRA.REPUL.0>
0.00912235

>  <SCORE.INTRA.SOLV>
1.91654

>  <SCORE.INTRA.SOLV.lig_0>
-53.9067

>  <SCORE.INTRA.VDW>
2.78337

>  <SCORE.INTRA.VDW.0>
-2.93492

>  <SCORE.INTRA.norm>
-0.378344

>  <SCORE.RESTR>
21.5771

>  <SCORE.RESTR.CAVITY>
21.5771

>  <SCORE.RESTR.norm>
0.583164

>  <SCORE.SYSTEM>
0

>  <SCORE.SYSTEM.CONST>
0

>  <SCORE.SYSTEM.DIHEDRAL>
0

>  <SCORE.SYSTEM.SOLV>
0

>  <SCORE.SYSTEM.norm>
0

>  <SCORE.heavy>
37

>  <SCORE.norm>
0.020099

>  <RMSD>
18.499

$$$$
lig.pdb
 OpenBabel11021811453D
libRbt.so/2013.1/901 2013/11/27
 37 40  0  0  0  0  0  0  0  0999 V2000
  -13.7594    6.1567    8.2560 C   0  0  2  0  0  0  0  0  0  0  0  0
  -15.2418    5.8562    7.8566 C   0  0  1  0  0  0  0  0  0  0  0  0
  -16.1149    7.1381    7.7224 C   0  0  0  0  0  0  0  0  0  0  0  0
  -15.9449    8.0600    8.9554 C   0  0  1  0  0  0  0  0  0  0  0  0
  -14.4507    8.3965    9.1587 C   0  0  1  0  0  0  0  0  0  0  0  0
  -14.2551    9.3583   10.3614 C   0  0  1  0  0  0  0  0  0  0  0  0
  -15.1496   10.6248   10.2109 C   0  0  1  0  0  0  0  0  0  0  0  0
  -16.6361   10.2584    9.9243 C   0  0  2  0  0  0  0  0  0  0  0  0
  -14.8314   12.8936   11.0855 C   0  0  0  0  0  0  0  0  0  0  0  0
  -13.6715    7.1744    9.3055 O   0  0  0  0  0  0  0  0  0  0  0  0
  -16.7474    9.2714    8.8532 O   0  0  0  0  0  0  0  0  0  0  0  0
  -15.2730    5.0990    6.5864 N   0  0  0  0  0  0  0  0  0  0  0  0
  -15.0092   11.4638   11.4190 N   0  0  0  0  0  0  0  0  0  0  0  0
  -14.5009    8.6977   11.5963 O   0  0  0  0  0  0  0  0  0  0  0  0
  -17.4065   11.4580    9.6211 O   0  0  0  0  0  0  0  0  0  0  0  0
  -12.9695    6.5531    7.0935 O   0  0  0  0  0  0  0  0  0  0  0  0
  -18.6415   11.6991   10.3630 C   0  0  2  0  0  0  0  0  0  0  0  0
  -19.1395   13.1580   10.1572 C   0  0  1  0  0  0  0  0  0  0  0  0
  -18.2221   14.1867   10.8782 C   0  0  2  0  0  0  0  0  0  0  0  0
  -18.0320   13.8158   12.3776 C   0  0  1  0  0  0  0  0  0  0  0  0
  -17.5679   12.3413   12.5391 C   0  0  1  0  0  0  0  0  0  0  0  0
  -17.5054   11.9153   14.0294 C   0  0  0  0  0  0  0  0  0  0  0  0
  -18.4425   11.4471   11.7862 O   0  0  0  0  0  0  0  0  0  0  0  0
  -17.1051   14.7506   13.0524 N   0  0  0  0  0  0  0  0  0  0  0  0
  -19.2718   13.4508    8.7674 O   0  0  0  0  0  0  0  0  0  0  0  0
  -18.7254   15.5134   10.7367 O   0  0  0  0  0  0  0  0  0  0  0  0
  -17.2914   10.5126   14.1474 O   0  0  0  0  0  0  0  0  0  0  0  0
  -11.9521    5.6245    6.6174 C   0  0  1  0  0  0  0  0  0  0  0  0
  -12.5677    4.2738    6.1559 C   0  0  1  0  0  0  0  0  0  0  0  0
  -11.4592    3.2646    5.7437 C   0  0  2  0  0  0  0  0  0  0  0  0
  -10.4837    3.8543    4.6739 C   0  0  1  0  0  0  0  0  0  0  0  0
   -9.9556    5.2712    5.0498 C   0  0  0  0  0  0  0  0  0  0  0  0
  -11.0959    6.2440    5.4765 C   0  0  2  0  0  0  0  0  0  0  0  0
   -9.3626    2.9253    4.4166 N   0  0  0  0  0  0  0  0  0  0  0  0
  -10.5087    7.5445    5.8654 N   0  0  0  0  0  0  0  0  0  0  0  0
  -13.4006    3.7234    7.1712 O   0  0  0  0  0  0  0  0  0  0  0  0
  -12.0406    2.0513    5.2731 O   0  0  0  0  0  0  0  0  0  0  0  0
  1  2  1  0  0  0  0
  1 16  1  6  0  0  0
  2  3  1  0  0  0  0
  2 12  1  6  0  0  0
  4 11  1  6  0  0  0
  4  3  1  0  0  0  0
  5  4  1  0  0  0  0
  5 10  1  1  0  0  0
  6  7  1  0  0  0  0
  6  5  1  0  0  0  0
  6 14  1  1  0  0  0
  7  8  1  0  0  0  0
  7 13  1  1  0  0  0
  8 15  1  6  0  0  0
  8 11  1  0  0  0  0
  9 13  1  0  0  0  0
 10  1  1  0  0  0  0
 17 15  1  6  0  0  0
 17 18  1  0  0  0  0
 18 25  1  6  0  0  0
 19 18  1  0  0  0  0
 19 26  1  1  0  0  0
 20 19  1  0  0  0  0
 20 24  1  6  0  0  0
 21 23  1  0  0  0  0
 21 20  1  0  0  0  0
 21 22  1  1  0  0  0
 23 17  1  0  0  0  0
 27 22  1  0  0  0  0
 28 29  1  0  0  0  0
 28 16  1  6  0  0  0
 29 36  1  1  0  0  0
 30 37  1  6  0  0  0
 30 29  1  0  0  0  0
 31 30  1  0  0  0  0
 31 34  1  1  0  0  0
 32 31  1  0  0  0  0
 32 33  1  0  0  0  0
 33 28  1  0  0  0  0
 33 35  1  1  0  0  0
M  END
>  <CHROM.1>
72.88673435,-128.08726694,134.67339323,159.82079535,166.50965873,-110.39392529
174.52446127,60.07070070,170.56132349,-57.81349486,74.13817415,61.82954487
153.41289422,148.27637543,-166.77863763,-60.13583503,-15.00745475,8.82608873
9.02123747,1.03388357,0.11620281,-2.48025165

>  <Name>
lig.pdb

>  <RI>
0

>  <Rbt.Current_Directory>
/home/afrankz/demos/rdock_decoys_rna/rnas/2m4q

>  <Rbt.Executable>
rbdock ($Id: //depot/dev/client3/rdock/2013.1/src/exe/rbdock.cxx#4 $)

>  <Rbt.Library>
libRbt.so (2013.1, Build901 2013/11/27)

>  <Rbt.Parameter_File>
/export/apps/rDock/src/rDock_2013.1_src/data/scripts/dock_solv.prm

>  <Rbt.Receptor>
prm/blind_docking_80.prm

>  <SCORE>
105.823

>  <SCORE.INTER>
69.1978

>  <SCORE.INTER.CONST>
1

>  <SCORE.INTER.POLAR>
-1.53119

>  <SCORE.INTER.ROT>
10

>  <SCORE.INTER.SOLV>
16.8896

>  <SCORE.INTER.VDW>
35.3393

>  <SCORE.INTER.norm>
1.87021

>  <SCORE.INTRA>
4.1084

>  <SCORE.INTRA.DIHEDRAL>
-17.2666

>  <SCORE.INTRA.DIHEDRAL.0>
44.8331

>  <SCORE.INTRA.POLAR>
0.0626579

>  <SCORE.INTRA.POLAR.0>
-0.108895

>  <SCORE.INTRA.REPUL>
-0.00912235

>  <SCORE.INTRA.REPUL.0>
0.00912235

>  <SCORE.INTRA.SOLV>
1.32753

>  <SCORE.INTRA.SOLV.lig_0>
-53.9067

>  <SCORE.INTRA.VDW>
11.9105

>  <SCORE.INTRA.VDW.0>
-2.93492

>  <SCORE.INTRA.norm>
0.111038

>  <SCORE.RESTR>
32.517

>  <SCORE.RESTR.CAVITY>
32.517

>  <SCORE.RESTR.norm>
0.878838

>  <SCORE.SYSTEM>
0

>  <SCORE.SYSTEM.CONST>
0

>  <SCORE.SYSTEM.DIHEDRAL>
0

>  <SCORE.SYSTEM.SOLV>
0

>  <SCORE.SYSTEM.norm>
0

>  <SCORE.heavy>
37

>  <SCORE.norm>
2.86009

>  <RMSD>
18.589

$$$$
lig.pdb
 OpenBabel11021811453D
libRbt.so/2013.1/901 2013/11/27
 37 40  0  0  0  0  0  0  0  0999 V2000
   -8.3233   -6.8889   12.7528 C   0  0  2  0  0  0  0  0  0  0  0  0
   -8.7544   -8.3327   13.1731 C   0  0  1  0  0  0  0  0  0  0  0  0
   -8.6426   -9.3694   12.0171 C   0  0  0  0  0  0  0  0  0  0  0  0
   -9.3117   -8.8382   10.7252 C   0  0  1  0  0  0  0  0  0  0  0  0
   -8.7002   -7.4728   10.3390 C   0  0  1  0  0  0  0  0  0  0  0  0
   -9.3202   -6.9380    9.0202 C   0  0  1  0  0  0  0  0  0  0  0  0
   -9.2091   -7.9982    7.8842 C   0  0  1  0  0  0  0  0  0  0  0  0
   -9.7568   -9.3874    8.3273 C   0  0  2  0  0  0  0  0  0  0  0  0
  -11.3665   -7.6129    6.7838 C   0  0  0  0  0  0  0  0  0  0  0  0
   -8.8468   -6.5239   11.4346 O   0  0  0  0  0  0  0  0  0  0  0  0
   -9.2164   -9.7872    9.6241 O   0  0  0  0  0  0  0  0  0  0  0  0
   -7.9404   -8.7820   14.3234 N   0  0  0  0  0  0  0  0  0  0  0  0
   -9.8964   -7.4909    6.6787 N   0  0  0  0  0  0  0  0  0  0  0  0
  -10.6680   -6.5279    9.2121 O   0  0  0  0  0  0  0  0  0  0  0  0
   -9.4823  -10.3915    7.3070 O   0  0  0  0  0  0  0  0  0  0  0  0
   -6.8708   -6.7417   12.7836 O   0  0  0  0  0  0  0  0  0  0  0  0
   -8.0911  -10.6669    6.9568 C   0  0  2  0  0  0  0  0  0  0  0  0
   -7.6951   -9.9449    5.6376 C   0  0  1  0  0  0  0  0  0  0  0  0
   -8.3852  -10.5871    4.4002 C   0  0  2  0  0  0  0  0  0  0  0  0
   -8.1349  -12.1223    4.3511 C   0  0  1  0  0  0  0  0  0  0  0  0
   -8.5107  -12.7982    5.6992 C   0  0  1  0  0  0  0  0  0  0  0  0
   -8.1399  -14.3044    5.7135 C   0  0  0  0  0  0  0  0  0  0  0  0
   -7.8729  -12.1022    6.8128 O   0  0  0  0  0  0  0  0  0  0  0  0
   -8.8457  -12.7500    3.2156 N   0  0  0  0  0  0  0  0  0  0  0  0
   -7.9685   -8.5480    5.7294 O   0  0  0  0  0  0  0  0  0  0  0  0
   -7.9637   -9.9587    3.1915 O   0  0  0  0  0  0  0  0  0  0  0  0
   -6.7377  -14.4831    5.5418 O   0  0  0  0  0  0  0  0  0  0  0  0
   -6.3289   -5.3937   12.8982 C   0  0  1  0  0  0  0  0  0  0  0  0
   -7.1309   -4.3701   12.0465 C   0  0  1  0  0  0  0  0  0  0  0  0
   -6.4796   -2.9596   12.1060 C   0  0  2  0  0  0  0  0  0  0  0  0
   -6.2727   -2.4596   13.5726 C   0  0  1  0  0  0  0  0  0  0  0  0
   -5.5896   -3.5220   14.4851 C   0  0  0  0  0  0  0  0  0  0  0  0
   -6.2596   -4.9251   14.3794 C   0  0  2  0  0  0  0  0  0  0  0  0
   -5.5210   -1.1866   13.5924 N   0  0  0  0  0  0  0  0  0  0  0  0
   -5.5235   -5.8835   15.2320 N   0  0  0  0  0  0  0  0  0  0  0  0
   -7.2507   -4.8154   10.6994 O   0  0  0  0  0  0  0  0  0  0  0  0
   -7.2554   -2.0215   11.3645 O   0  0  0  0  0  0  0  0  0  0  0  0
  1  2  1  0  0  0  0
  1 16  1  6  0  0  0
  2  3  1  0  0  0  0
  2 12  1  1  0  0  0
  4 11  1  6  0  0  0
  4  3  1  0  0  0  0
  5  4  1  0  0  0  0
  5 10  1  1  0  0  0
  6  7  1  0  0  0  0
  6  5  1  0  0  0  0
  6 14  1  1  0  0  0
  7  8  1  0  0  0  0
  7 13  1  6  0  0  0
  8 15  1  6  0  0  0
  8 11  1  0  0  0  0
  9 13  1  0  0  0  0
 10  1  1  0  0  0  0
 17 15  1  6  0  0  0
 17 18  1  0  0  0  0
 18 25  1  1  0  0  0
 19 18  1  0  0  0  0
 19 26  1  6  0  0  0
 20 19  1  0  0  0  0
 20 24  1  6  0  0  0
 21 23  1  0  0  0  0
 21 20  1  0  0  0  0
 21 22  1  6  0  0  0
 23 17  1  0  0  0  0
 27 22  1  0  0  0  0
 28 29  1  0  0  0  0
 28 16  1  1  0  0  0
 29 36  1  6  0  0  0
 30 37  1  6  0  0  0
 30 29  1  0  0  0  0
 31 30  1  0  0  0  0
 31 34  1  6  0  0  0
 32 31  1  0  0  0  0
 32 33  1  0  0  0  0
 33 28  1  0  0  0  0
 33 35  1  1  0  0  0
M  END
>  <CHROM.1>
179.52977976,60.82975755,-77.45988303,-54.63118764,-100.60370327,-158.29854891
64.06928832,179.25030134,60.97079480,171.56324447,61.57451833,-39.64810751
-88.45085116,-76.48205955,64.10192984,-43.26233779,-8.05962302,-7.97689405
9.41723504,-0.66684396,1.37139055,3.07092766

>  <Name>
lig.pdb

>  <RI>
0

>  <Rbt.Current_Directory>
/home/afrankz/demos/rdock_decoys_rna/rnas/2m4q

>  <Rbt.Executable>
rbdock ($Id: //depot/dev/client3/rdock/2013.1/src/exe/rbdock.cxx#4 $)

>  <Rbt.Library>
libRbt.so (2013.1, Build901 2013/11/27)

>  <Rbt.Parameter_File>
/export/apps/rDock/src/rDock_2013.1_src/data/scripts/dock_solv.prm

>  <Rbt.Receptor>
prm/blind_docking_40.prm

>  <SCORE>
19.3672

>  <SCORE.INTER>
10.6544

>  <SCORE.INTER.CONST>
1

>  <SCORE.INTER.POLAR>
-2.30997

>  <SCORE.INTER.ROT>
10

>  <SCORE.INTER.SOLV>
23.8051

>  <SCORE.INTER.VDW>
-3.39886

>  <SCORE.INTER.norm>
0.287957

>  <SCORE.INTRA>
-4.97515

>  <SCORE.INTRA.DIHEDRAL>
-28.8653

>  <SCORE.INTRA.DIHEDRAL.0>
44.8331

>  <SCORE.INTRA.POLAR>
0.0703369

>  <SCORE.INTRA.POLAR.0>
-0.108895

>  <SCORE.INTRA.REPUL>
0.184003

>  <SCORE.INTRA.REPUL.0>
0.00912235

>  <SCORE.INTRA.SOLV>
1.54272

>  <SCORE.INTRA.SOLV.lig_0>
-53.9067

>  <SCORE.INTRA.VDW>
7.52698

>  <SCORE.INTRA.VDW.0>
-2.93492

>  <SCORE.INTRA.norm>
-0.134464

>  <SCORE.RESTR>
13.688

>  <SCORE.RESTR.CAVITY>
13.688

>  <SCORE.RESTR.norm>
0.369945

>  <SCORE.SYSTEM>
0

>  <SCORE.SYSTEM.CONST>
0

>  <SCORE.SYSTEM.DIHEDRAL>
0

>  <SCORE.SYSTEM.SOLV>
0

>  <SCORE.SYSTEM.norm>
0

>  <SCORE.heavy>
37

>  <SCORE.norm>
0.523439

>  <RMSD>
18.653

$$$$
lig.pdb
 OpenBabel11021811453D
libRbt.so/2013.1/901 2013/11/27
 37 40  0  0  0  0  0  0  0  0999 V2000
  -17.0493   13.0632   12.5935 C   0  0  2  0  0  0  0  0  0  0  0  0
  -17.5462   14.4900   12.9989 C   0  0  1  0  0  0  0  0  0  0  0  0
  -16.7073   15.1320   14.1425 C   0  0  0  0  0  0  0  0  0  0  0  0
  -16.5248   14.1445   15.3218 C   0  0  1  0  0  0  0  0  0  0  0  0
  -15.8971   12.8275   14.8131 C   0  0  1  0  0  0  0  0  0  0  0  0
  -15.6594   11.8355   15.9832 C   0  0  1  0  0  0  0  0  0  0  0  0
  -14.8313   12.5056   17.1198 C   0  0  1  0  0  0  0  0  0  0  0  0
  -15.4393   13.8714   17.5571 C   0  0  2  0  0  0  0  0  0  0  0  0
  -15.8140   11.7242   19.2264 C   0  0  0  0  0  0  0  0  0  0  0  0
  -16.7226   12.2451   13.7636 O   0  0  0  0  0  0  0  0  0  0  0  0
  -15.7374   14.7182   16.4048 O   0  0  0  0  0  0  0  0  0  0  0  0
  -17.5342   15.3778   11.8160 N   0  0  0  0  0  0  0  0  0  0  0  0
  -14.7125   11.5644   18.2526 N   0  0  0  0  0  0  0  0  0  0  0  0
  -16.8871   11.3163   16.4776 O   0  0  0  0  0  0  0  0  0  0  0  0
  -14.5511   14.5468   18.4949 O   0  0  0  0  0  0  0  0  0  0  0  0
  -15.9054   13.1398   11.6890 O   0  0  0  0  0  0  0  0  0  0  0  0
  -13.1112   14.4902   18.2550 C   0  0  2  0  0  0  0  0  0  0  0  0
  -12.3192   14.9875   19.4976 C   0  0  1  0  0  0  0  0  0  0  0  0
  -12.4684   16.5228   19.6989 C   0  0  2  0  0  0  0  0  0  0  0  0
  -12.1071   17.2976   18.3985 C   0  0  1  0  0  0  0  0  0  0  0  0
  -12.8941   16.7465   17.1768 C   0  0  1  0  0  0  0  0  0  0  0  0
  -12.4456   17.4157   15.8511 C   0  0  0  0  0  0  0  0  0  0  0  0
  -12.7528   15.2958   17.0927 O   0  0  0  0  0  0  0  0  0  0  0  0
  -12.3133   18.7534   18.5616 N   0  0  0  0  0  0  0  0  0  0  0  0
  -12.7073   14.2615   20.6625 O   0  0  0  0  0  0  0  0  0  0  0  0
  -11.6858   16.9760   20.8015 O   0  0  0  0  0  0  0  0  0  0  0  0
  -13.1080   16.8272   14.7366 O   0  0  0  0  0  0  0  0  0  0  0  0
  -15.3294   11.8867   11.2179 C   0  0  1  0  0  0  0  0  0  0  0  0
  -15.9561   11.4284    9.8713 C   0  0  1  0  0  0  0  0  0  0  0  0
  -15.3984   10.0439    9.4362 C   0  0  2  0  0  0  0  0  0  0  0  0
  -13.8361   10.0185    9.3885 C   0  0  1  0  0  0  0  0  0  0  0  0
  -13.1801   10.5997   10.6768 C   0  0  0  0  0  0  0  0  0  0  0  0
  -13.7822   11.9768   11.0890 C   0  0  2  0  0  0  0  0  0  0  0  0
  -13.3411    8.6523    9.1156 N   0  0  0  0  0  0  0  0  0  0  0  0
  -13.1453   12.4327   12.3435 N   0  0  0  0  0  0  0  0  0  0  0  0
  -17.3770   11.3966    9.9586 O   0  0  0  0  0  0  0  0  0  0  0  0
  -15.9418    9.6624    8.1749 O   0  0  0  0  0  0  0  0  0  0  0  0
  1  2  1  0  0  0  0
  1 16  1  6  0  0  0
  2  3  1  0  0  0  0
  2 12  1  6  0  0  0
  4 11  1  1  0  0  0
  4  3  1  0  0  0  0
  5  4  1  0  0  0  0
  5 10  1  6  0  0  0
  6  7  1  0  0  0  0
  6  5  1  0  0  0  0
  6 14  1  1  0  0  0
  7  8  1  0  0  0  0
  7 13  1  1  0  0  0
  8 15  1  1  0  0  0
  8 11  1  0  0  0  0
  9 13  1  0  0  0  0
 10  1  1  0  0  0  0
 17 15  1  1  0  0  0
 17 18  1  0  0  0  0
 18 25  1  1  0  0  0
 19 18  1  0  0  0  0
 19 26  1  1  0  0  0
 20 19  1  0  0  0  0
 20 24  1  1  0  0  0
 21 23  1  0  0  0  0
 21 20  1  0  0  0  0
 21 22  1  6  0  0  0
 23 17  1  0  0  0  0
 27 22  1  0  0  0  0
 28 29  1  0  0  0  0
 28 16  1  6  0  0  0
 29 36  1  1  0  0  0
 30 37  1  6  0  0  0
 30 29  1  0  0  0  0
 31 30  1  0  0  0  0
 31 34  1  1  0  0  0
 32 31  1  0  0  0  0
 32 33  1  0  0  0  0
 33 28  1  0  0  0  0
 33 35  1  1  0  0  0
M  END
>  <CHROM.1>
-85.90069131,39.95395072,-90.49856770,-49.07331661,-167.67529060,-179.84097759
-45.82101932,-46.96490276,175.71239878,124.58505978,-42.68330042,92.19123690
-52.17384211,-167.52364100,-41.64441929,-177.71363528,-14.66680802,13.51871723
14.84440391,2.13667914,-1.11668379,-1.56214635

>  <Name>
lig.pdb

>  <RI>
0

>  <Rbt.Current_Directory>
/home/afrankz/demos/rdock_decoys_rna/rnas/2m4q

>  <Rbt.Executable>
rbdock ($Id: //depot/dev/client3/rdock/2013.1/src/exe/rbdock.cxx#4 $)

>  <Rbt.Library>
libRbt.so (2013.1, Build901 2013/11/27)

>  <Rbt.Parameter_File>
/export/apps/rDock/src/rDock_2013.1_src/data/scripts/dock_solv.prm

>  <Rbt.Receptor>
prm/blind_docking_80.prm

>  <SCORE>
-3.52468

>  <SCORE.INTER>
-14.1352

>  <SCORE.INTER.CONST>
1

>  <SCORE.INTER.POLAR>
-2.95469

>  <SCORE.INTER.ROT>
10

>  <SCORE.INTER.SOLV>
19.0231

>  <SCORE.INTER.VDW>
-16.1822

>  <SCORE.INTER.norm>
-0.382031

>  <SCORE.INTRA>
-10.8636

>  <SCORE.INTRA.DIHEDRAL>
-28.0507

>  <SCORE.INTRA.DIHEDRAL.0>
44.8331

>  <SCORE.INTRA.POLAR>
-0.170578

>  <SCORE.INTRA.POLAR.0>
-0.108895

>  <SCORE.INTRA.REPUL>
-0.00912235

>  <SCORE.INTRA.REPUL.0>
0.00912235

>  <SCORE.INTRA.SOLV>
-1.69833

>  <SCORE.INTRA.SOLV.lig_0>
-53.9067

>  <SCORE.INTRA.VDW>
4.63648

>  <SCORE.INTRA.VDW.0>
-2.93492

>  <SCORE.INTRA.norm>
-0.293611

>  <SCORE.RESTR>
21.4741

>  <SCORE.RESTR.CAVITY>
21.4741

>  <SCORE.RESTR.norm>
0.580381

>  <SCORE.SYSTEM>
0

>  <SCORE.SYSTEM.CONST>
0

>  <SCORE.SYSTEM.DIHEDRAL>
0

>  <SCORE.SYSTEM.SOLV>
0

>  <SCORE.SYSTEM.norm>
0

>  <SCORE.heavy>
37

>  <SCORE.norm>
-0.0952616

>  <RMSD>
18.693

$$$$
lig.pdb
 OpenBabel11021811453D
libRbt.so/2013.1/901 2013/11/27
 37 40  0  0  0  0  0  0  0  0999 V2000
  -15.0752   11.4700   10.3509 C   0  0  2  0  0  0  0  0  0  0  0  0
  -13.5509   11.5463   10.6944 C   0  0  1  0  0  0  0  0  0  0  0  0
  -13.2682   12.1139   12.1163 C   0  0  0  0  0  0  0  0  0  0  0  0
  -14.0591   13.4228   12.3614 C   0  0  1  0  0  0  0  0  0  0  0  0
  -15.5664   13.1789   12.1251 C   0  0  1  0  0  0  0  0  0  0  0  0
  -16.3897   14.4638   12.4095 C   0  0  1  0  0  0  0  0  0  0  0  0
  -16.0783   15.0198   13.8310 C   0  0  1  0  0  0  0  0  0  0  0  0
  -14.5477   15.1783   14.0730 C   0  0  2  0  0  0  0  0  0  0  0  0
  -16.1076   17.4315   13.3872 C   0  0  0  0  0  0  0  0  0  0  0  0
  -15.7928   12.6733   10.7778 O   0  0  0  0  0  0  0  0  0  0  0  0
  -13.8173   13.9731   13.6883 O   0  0  0  0  0  0  0  0  0  0  0  0
  -12.9422   10.2045   10.5654 N   0  0  0  0  0  0  0  0  0  0  0  0
  -16.8039   16.2924   14.0235 N   0  0  0  0  0  0  0  0  0  0  0  0
  -16.1683   15.4508   11.4103 O   0  0  0  0  0  0  0  0  0  0  0  0
  -14.2864   15.5351   15.4618 O   0  0  0  0  0  0  0  0  0  0  0  0
  -15.6879   10.2779   10.9306 O   0  0  0  0  0  0  0  0  0  0  0  0
  -12.9628   16.0433   15.8135 C   0  0  2  0  0  0  0  0  0  0  0  0
  -12.8103   16.1813   17.3550 C   0  0  1  0  0  0  0  0  0  0  0  0
  -13.6719   17.3484   17.9166 C   0  0  2  0  0  0  0  0  0  0  0  0
  -13.3839   18.6755   17.1565 C   0  0  1  0  0  0  0  0  0  0  0  0
  -13.5133   18.4845   15.6196 C   0  0  1  0  0  0  0  0  0  0  0  0
  -13.0971   19.7605   14.8417 C   0  0  0  0  0  0  0  0  0  0  0  0
  -12.7251   17.3364   15.1813 O   0  0  0  0  0  0  0  0  0  0  0  0
  -14.2498   19.7737   17.6390 N   0  0  0  0  0  0  0  0  0  0  0  0
  -13.1096   14.9452   18.0008 O   0  0  0  0  0  0  0  0  0  0  0  0
  -13.4733   17.5062   19.3198 O   0  0  0  0  0  0  0  0  0  0  0  0
  -12.5617   19.4246   13.5658 O   0  0  0  0  0  0  0  0  0  0  0  0
  -15.7230    9.0701   10.1158 C   0  0  1  0  0  0  0  0  0  0  0  0
  -14.5027    8.9794    9.1573 C   0  0  1  0  0  0  0  0  0  0  0  0
  -14.6092    7.7355    8.2308 C   0  0  2  0  0  0  0  0  0  0  0  0
  -14.8175    6.4102    9.0333 C   0  0  1  0  0  0  0  0  0  0  0  0
  -15.9498    6.5173   10.0983 C   0  0  0  0  0  0  0  0  0  0  0  0
  -15.8172    7.7880   10.9909 C   0  0  2  0  0  0  0  0  0  0  0  0
  -15.0608    5.2747    8.1181 N   0  0  0  0  0  0  0  0  0  0  0  0
  -16.9535    7.8420   11.9360 N   0  0  0  0  0  0  0  0  0  0  0  0
  -14.3713   10.1718    8.3901 O   0  0  0  0  0  0  0  0  0  0  0  0
  -13.4583    7.6368    7.3957 O   0  0  0  0  0  0  0  0  0  0  0  0
  1  2  1  0  0  0  0
  1 16  1  1  0  0  0
  2  3  1  0  0  0  0
  2 12  1  1  0  0  0
  4 11  1  1  0  0  0
  4  3  1  0  0  0  0
  5  4  1  0  0  0  0
  5 10  1  6  0  0  0
  6  7  1  0  0  0  0
  6  5  1  0  0  0  0
  6 14  1  6  0  0  0
  7  8  1  0  0  0  0
  7 13  1  6  0  0  0
  8 15  1  1  0  0  0
  8 11  1  0  0  0  0
  9 13  1  0  0  0  0
 10  1  1  0  0  0  0
 17 15  1  1  0  0  0
 17 18  1  0  0  0  0
 18 25  1  1  0  0  0
 19 18  1  0  0  0  0
 19 26  1  1  0  0  0
 20 19  1  0  0  0  0
 20 24  1  1  0  0  0
 21 23  1  0  0  0  0
 21 20  1  0  0  0  0
 21 22  1  6  0  0  0
 23 17  1  0  0  0  0
 27 22  1  0  0  0  0
 28 29  1  0  0  0  0
 28 16  1  1  0  0  0
 29 36  1  6  0  0  0
 30 37  1  1  0  0  0
 30 29  1  0  0  0  0
 31 30  1  0  0  0  0
 31 34  1  6  0  0  0
 32 31  1  0  0  0  0
 32 33  1  0  0  0  0
 33 28  1  0  0  0  0
 33 35  1  1  0  0  0
M  END
>  <CHROM.1>
-68.15126861,-165.29140055,-80.32952033,-60.23242762,-172.15440505,-91.29589459
42.93740346,-65.32979715,150.02544692,-178.97978722,-52.04682762,31.45681873
156.71833176,63.26854466,50.24663358,62.65385374,-14.49828438,13.29998128
12.81838823,2.23835293,1.40577685,3.10293272

>  <Name>
lig.pdb

>  <RI>
0

>  <Rbt.Current_Directory>
/home/afrankz/demos/rdock_decoys_rna/rnas/2m4q

>  <Rbt.Executable>
rbdock ($Id: //depot/dev/client3/rdock/2013.1/src/exe/rbdock.cxx#4 $)

>  <Rbt.Library>
libRbt.so (2013.1, Build901 2013/11/27)

>  <Rbt.Parameter_File>
/export/apps/rDock/src/rDock_2013.1_src/data/scripts/dock_solv.prm

>  <Rbt.Receptor>
prm/blind_docking_40.prm

>  <SCORE>
-17.6579

>  <SCORE.INTER>
-24.9191

>  <SCORE.INTER.CONST>
1

>  <SCORE.INTER.POLAR>
-5.79055

>  <SCORE.INTER.ROT>
10

>  <SCORE.INTER.SOLV>
20.7756

>  <SCORE.INTER.VDW>
-14.5028

>  <SCORE.INTER.norm>
-0.67349

>  <SCORE.INTRA>
-3.44982

>  <SCORE.INTRA.DIHEDRAL>
-28.3274

>  <SCORE.INTRA.DIHEDRAL.0>
44.8331

>  <SCORE.INTRA.POLAR>
0.00457144

>  <SCORE.INTRA.POLAR.0>
-0.108895

>  <SCORE.INTRA.REPUL>
-0.00912235

>  <SCORE.INTRA.REPUL.0>
0.00912235

>  <SCORE.INTRA.SOLV>
-0.0607072

>  <SCORE.INTRA.SOLV.lig_0>
-53.9067

>  <SCORE.INTRA.VDW>
10.7743

>  <SCORE.INTRA.VDW.0>
-2.93492

>  <SCORE.INTRA.norm>
-0.0932385

>  <SCORE.RESTR>
10.711

>  <SCORE.RESTR.CAVITY>
10.711

>  <SCORE.RESTR.norm>
0.289488

>  <SCORE.SYSTEM>
0

>  <SCORE.SYSTEM.CONST>
0

>  <SCORE.SYSTEM.DIHEDRAL>
0

>  <SCORE.SYSTEM.SOLV>
0

>  <SCORE.SYSTEM.norm>
0

>  <SCORE.heavy>
37

>  <SCORE.norm>
-0.477241

>  <RMSD>
18.742

$$$$
lig.pdb
 OpenBabel11021811453D
libRbt.so/2013.1/901 2013/11/27
 37 40  0  0  0  0  0  0  0  0999 V2000
  -15.1445   11.4245   10.3670 C   0  0  2  0  0  0  0  0  0  0  0  0
  -13.6055   11.5311   10.6267 C   0  0  1  0  0  0  0  0  0  0  0  0
  -13.2563   12.0305   12.0593 C   0  0  0  0  0  0  0  0  0  0  0  0
  -14.0690   13.2984   12.4213 C   0  0  1  0  0  0  0  0  0  0  0  0
  -15.5799   13.0193   12.2582 C   0  0  1  0  0  0  0  0  0  0  0  0
  -16.4219   14.2601   12.6597 C   0  0  1  0  0  0  0  0  0  0  0  0
  -16.0437   14.7489   14.0897 C   0  0  1  0  0  0  0  0  0  0  0  0
  -14.5068   14.9431   14.2523 C   0  0  2  0  0  0  0  0  0  0  0  0
  -16.3489   17.1239   13.5607 C   0  0  0  0  0  0  0  0  0  0  0  0
  -15.8702   12.5796   10.9001 O   0  0  0  0  0  0  0  0  0  0  0  0
  -13.7657   13.7844   13.7606 O   0  0  0  0  0  0  0  0  0  0  0  0
  -12.9669   10.2184   10.3891 N   0  0  0  0  0  0  0  0  0  0  0  0
  -16.7932   15.9854   14.3934 N   0  0  0  0  0  0  0  0  0  0  0  0
  -16.2881   15.3058   11.7057 O   0  0  0  0  0  0  0  0  0  0  0  0
  -14.1748   15.2333   15.6416 O   0  0  0  0  0  0  0  0  0  0  0  0
  -15.6874   10.1841   10.9139 O   0  0  0  0  0  0  0  0  0  0  0  0
  -14.8354   16.3605   16.2951 C   0  0  2  0  0  0  0  0  0  0  0  0
  -14.1216   17.6993   15.9533 C   0  0  1  0  0  0  0  0  0  0  0  0
  -12.7315   17.8032   16.6438 C   0  0  2  0  0  0  0  0  0  0  0  0
  -12.8443   17.5487   18.1749 C   0  0  1  0  0  0  0  0  0  0  0  0
  -13.5936   16.2198   18.4719 C   0  0  1  0  0  0  0  0  0  0  0  0
  -13.8343   16.0193   19.9912 C   0  0  0  0  0  0  0  0  0  0  0  0
  -14.8571   16.1739   17.7419 O   0  0  0  0  0  0  0  0  0  0  0  0
  -11.5168   17.5774   18.8270 N   0  0  0  0  0  0  0  0  0  0  0  0
  -14.0238   17.8684   14.5404 O   0  0  0  0  0  0  0  0  0  0  0  0
  -12.1162   19.0613   16.3758 O   0  0  0  0  0  0  0  0  0  0  0  0
  -14.1568   14.6627   20.2789 O   0  0  0  0  0  0  0  0  0  0  0  0
  -15.1416    8.9281   10.4154 C   0  0  1  0  0  0  0  0  0  0  0  0
  -15.9271    7.6988   10.9522 C   0  0  1  0  0  0  0  0  0  0  0  0
  -15.2710    6.3681   10.4874 C   0  0  2  0  0  0  0  0  0  0  0  0
  -15.0830    6.3057    8.9367 C   0  0  1  0  0  0  0  0  0  0  0  0
  -14.4175    7.5884    8.3540 C   0  0  0  0  0  0  0  0  0  0  0  0
  -15.0917    8.8987    8.8613 C   0  0  2  0  0  0  0  0  0  0  0  0
  -14.3264    5.0965    8.5476 N   0  0  0  0  0  0  0  0  0  0  0  0
  -14.3718   10.0652    8.3059 N   0  0  0  0  0  0  0  0  0  0  0  0
  -16.0295    7.7434   12.3717 O   0  0  0  0  0  0  0  0  0  0  0  0
  -16.0321    5.2522   10.9425 O   0  0  0  0  0  0  0  0  0  0  0  0
  1  2  1  0  0  0  0
  1 16  1  1  0  0  0
  2  3  1  0  0  0  0
  2 12  1  1  0  0  0
  4 11  1  1  0  0  0
  4  3  1  0  0  0  0
  5  4  1  0  0  0  0
  5 10  1  6  0  0  0
  6  7  1  0  0  0  0
  6  5  1  0  0  0  0
  6 14  1  6  0  0  0
  7  8  1  0  0  0  0
  7 13  1  6  0  0  0
  8 15  1  1  0  0  0
  8 11  1  0  0  0  0
  9 13  1  0  0  0  0
 10  1  1  0  0  0  0
 17 15  1  6  0  0  0
 17 18  1  0  0  0  0
 18 25  1  6  0  0  0
 19 18  1  0  0  0  0
 19 26  1  1  0  0  0
 20 19  1  0  0  0  0
 20 24  1  6  0  0  0
 21 23  1  0  0  0  0
 21 20  1  0  0  0  0
 21 22  1  1  0  0  0
 23 17  1  0  0  0  0
 27 22  1  0  0  0  0
 28 29  1  0  0  0  0
 28 16  1  6  0  0  0
 29 36  1  1  0  0  0
 30 37  1  6  0  0  0
 30 29  1  0  0  0  0
 31 30  1  0  0  0  0
 31 34  1  1  0  0  0
 32 31  1  0  0  0  0
 32 33  1  0  0  0  0
 33 28  1  0  0  0  0
 33 35  1  1  0  0  0
M  END
>  <CHROM.1>
-176.91146381,-55.22135876,-68.14263808,147.86152617,-82.68641329,-59.35250695
-41.17510224,63.94266375,-163.12231440,-142.58561118,-58.50777092,-173.02278966
-179.19470337,64.72447780,73.06883460,-163.28331836,-14.61507881,12.88863404
13.30884552,2.17721796,1.38103227,-3.06439169

>  <Name>
lig.pdb

>  <RI>
0

>  <Rbt.Current_Directory>
/home/afrankz/demos/rdock_decoys_rna/rnas/2m4q

>  <Rbt.Executable>
rbdock ($Id: //depot/dev/client3/rdock/2013.1/src/exe/rbdock.cxx#4 $)

>  <Rbt.Library>
libRbt.so (2013.1, Build901 2013/11/27)

>  <Rbt.Parameter_File>
/export/apps/rDock/src/rDock_2013.1_src/data/scripts/dock_solv.prm

>  <Rbt.Receptor>
prm/blind_docking_40.prm

>  <SCORE>
-2.25574

>  <SCORE.INTER>
-23.0324

>  <SCORE.INTER.CONST>
1

>  <SCORE.INTER.POLAR>
-5.07111

>  <SCORE.INTER.ROT>
10

>  <SCORE.INTER.SOLV>
18.5299

>  <SCORE.INTER.VDW>
-14.8945

>  <SCORE.INTER.norm>
-0.622496

>  <SCORE.INTRA>
7.46236

>  <SCORE.INTRA.DIHEDRAL>
-32.3549

>  <SCORE.INTRA.DIHEDRAL.0>
44.8331

>  <SCORE.INTRA.POLAR>
-0.122809

>  <SCORE.INTRA.POLAR.0>
-0.108895

>  <SCORE.INTRA.REPUL>
-0.00912235

>  <SCORE.INTRA.REPUL.0>
0.00912235

>  <SCORE.INTRA.SOLV>
1.22283

>  <SCORE.INTRA.SOLV.lig_0>
-53.9067

>  <SCORE.INTRA.VDW>
23.4916

>  <SCORE.INTRA.VDW.0>
-2.93492

>  <SCORE.INTRA.norm>
0.201685

>  <SCORE.RESTR>
13.3142

>  <SCORE.RESTR.CAVITY>
13.3142

>  <SCORE.RESTR.norm>
0.359844

>  <SCORE.SYSTEM>
0

>  <SCORE.SYSTEM.CONST>
0

>  <SCORE.SYSTEM.DIHEDRAL>
0

>  <SCORE.SYSTEM.SOLV>
0

>  <SCORE.SYSTEM.norm>
0

>  <SCORE.heavy>
37

>  <SCORE.norm>
-0.0609661

>  <RMSD>
18.768

$$$$
lig.pdb
 OpenBabel11021811453D
libRbt.so/2013.1/901 2013/11/27
 37 40  0  0  0  0  0  0  0  0999 V2000
  -13.8938   15.8982   14.3082 C   0  0  2  0  0  0  0  0  0  0  0  0
  -14.6782   16.6616   13.1906 C   0  0  1  0  0  0  0  0  0  0  0  0
  -15.8066   15.8095   12.5391 C   0  0  0  0  0  0  0  0  0  0  0  0
  -15.2829   14.4105   12.1298 C   0  0  1  0  0  0  0  0  0  0  0  0
  -14.6577   13.7040   13.3535 C   0  0  1  0  0  0  0  0  0  0  0  0
  -14.1659   12.2791   12.9826 C   0  0  1  0  0  0  0  0  0  0  0  0
  -15.3077   11.4524   12.3197 C   0  0  1  0  0  0  0  0  0  0  0  0
  -15.9764   12.2214   11.1417 C   0  0  2  0  0  0  0  0  0  0  0  0
  -15.8321    9.1146   11.7968 C   0  0  0  0  0  0  0  0  0  0  0  0
  -13.5909   14.5192   13.9188 O   0  0  0  0  0  0  0  0  0  0  0  0
  -16.3210   13.5890   11.5221 O   0  0  0  0  0  0  0  0  0  0  0  0
  -15.2535   17.9061   13.7456 N   0  0  0  0  0  0  0  0  0  0  0  0
  -14.7733   10.1426   11.8933 N   0  0  0  0  0  0  0  0  0  0  0  0
  -13.0158   12.3306   12.1482 O   0  0  0  0  0  0  0  0  0  0  0  0
  -17.1446   11.4959   10.6584 O   0  0  0  0  0  0  0  0  0  0  0  0
  -14.6209   15.9229   15.5744 O   0  0  0  0  0  0  0  0  0  0  0  0
  -17.2582   11.2331    9.2260 C   0  0  2  0  0  0  0  0  0  0  0  0
  -18.2403   10.0589    8.9510 C   0  0  1  0  0  0  0  0  0  0  0  0
  -17.6448    8.6933    9.3987 C   0  0  2  0  0  0  0  0  0  0  0  0
  -16.2358    8.4646    8.7786 C   0  0  1  0  0  0  0  0  0  0  0  0
  -15.2985    9.6750    9.0468 C   0  0  1  0  0  0  0  0  0  0  0  0
  -13.9364    9.5229    8.3204 C   0  0  0  0  0  0  0  0  0  0  0  0
  -15.9519   10.9209    8.6565 O   0  0  0  0  0  0  0  0  0  0  0  0
  -15.6343    7.1998    9.2551 N   0  0  0  0  0  0  0  0  0  0  0  0
  -19.5047   10.3098    9.5618 O   0  0  0  0  0  0  0  0  0  0  0  0
  -18.5265    7.6184    9.0819 O   0  0  0  0  0  0  0  0  0  0  0  0
  -13.1546    8.4941    8.9185 O   0  0  0  0  0  0  0  0  0  0  0  0
  -13.8551   15.7282   16.7990 C   0  0  1  0  0  0  0  0  0  0  0  0
  -13.0952   17.0168   17.2209 C   0  0  1  0  0  0  0  0  0  0  0  0
  -12.2096   16.7605   18.4728 C   0  0  2  0  0  0  0  0  0  0  0  0
  -13.0199   16.1483   19.6612 C   0  0  1  0  0  0  0  0  0  0  0  0
  -13.8976   14.9335   19.2351 C   0  0  0  0  0  0  0  0  0  0  0  0
  -14.7526   15.2257   17.9654 C   0  0  2  0  0  0  0  0  0  0  0  0
  -12.1209   15.7831   20.7769 N   0  0  0  0  0  0  0  0  0  0  0  0
  -15.5133   14.0116   17.5984 N   0  0  0  0  0  0  0  0  0  0  0  0
  -12.3131   17.5199   16.1425 O   0  0  0  0  0  0  0  0  0  0  0  0
  -11.5614   17.9633   18.8788 O   0  0  0  0  0  0  0  0  0  0  0  0
  1  2  1  0  0  0  0
  1 16  1  1  0  0  0
  2  3  1  0  0  0  0
  2 12  1  1  0  0  0
  4 11  1  1  0  0  0
  4  3  1  0  0  0  0
  5  4  1  0  0  0  0
  5 10  1  6  0  0  0
  6  7  1  0  0  0  0
  6  5  1  0  0  0  0
  6 14  1  6  0  0  0
  7  8  1  0  0  0  0
  7 13  1  6  0  0  0
  8 15  1  1  0  0  0
  8 11  1  0  0  0  0
  9 13  1  0  0  0  0
 10  1  1  0  0  0  0
 17 15  1  1  0  0  0
 17 18  1  0  0  0  0
 18 25  1  1  0  0  0
 19 18  1  0  0  0  0
 19 26  1  6  0  0  0
 20 19  1  0  0  0  0
 20 24  1  1  0  0  0
 21 23  1  0  0  0  0
 21 20  1  0  0  0  0
 21 22  1  6  0  0  0
 23 17  1  0  0  0  0
 27 22  1  0  0  0  0
 28 29  1  0  0  0  0
 28 16  1  6  0  0  0
 29 36  1  6  0  0  0
 30 37  1  1  0  0  0
 30 29  1  0  0  0  0
 31 30  1  0  0  0  0
 31 34  1  1  0  0  0
 32 31  1  0  0  0  0
 32 33  1  0  0  0  0
 33 28  1  0  0  0  0
 33 35  1  6  0  0  0
M  END
>  <CHROM.1>
83.82471504,-129.11987868,155.74729018,-162.79883340,159.69791411,-157.18704208
179.33067966,-63.15146081,-70.33801022,86.73171881,-153.86083129,78.20114690
-61.49146566,66.26349377,167.32055365,-47.00178671,-14.96864824,12.96580701
13.09629215,1.01351086,-1.00388860,0.38408433

>  <Name>
lig.pdb

>  <RI>
0

>  <Rbt.Current_Directory>
/home/afrankz/demos/rdock_decoys_rna/rnas/2m4q

>  <Rbt.Executable>
rbdock ($Id: //depot/dev/client3/rdock/2013.1/src/exe/rbdock.cxx#4 $)

>  <Rbt.Library>
libRbt.so (2013.1, Build901 2013/11/27)

>  <Rbt.Parameter_File>
/export/apps/rDock/src/rDock_2013.1_src/data/scripts/dock_solv.prm

>  <Rbt.Receptor>
prm/blind_docking_40.prm

>  <SCORE>
-2.00524

>  <SCORE.INTER>
-7.59358

>  <SCORE.INTER.CONST>
1

>  <SCORE.INTER.POLAR>
-2.44732

>  <SCORE.INTER.ROT>
10

>  <SCORE.INTER.SOLV>
17.6787

>  <SCORE.INTER.VDW>
-13.0642

>  <SCORE.INTER.norm>
-0.205232

>  <SCORE.INTRA>
-11.5461

>  <SCORE.INTRA.DIHEDRAL>
-23.9992

>  <SCORE.INTRA.DIHEDRAL.0>
44.8331

>  <SCORE.INTRA.POLAR>
-1.1934

>  <SCORE.INTRA.POLAR.0>
-0.108895

>  <SCORE.INTRA.REPUL>
-0.00912235

>  <SCORE.INTRA.REPUL.0>
0.00912235

>  <SCORE.INTRA.SOLV>
0.822601

>  <SCORE.INTRA.SOLV.lig_0>
-53.9067

>  <SCORE.INTRA.VDW>
4.1454

>  <SCORE.INTRA.VDW.0>
-2.93492

>  <SCORE.INTRA.norm>
-0.312056

>  <SCORE.RESTR>
17.1344

>  <SCORE.RESTR.CAVITY>
17.1344

>  <SCORE.RESTR.norm>
0.463092

>  <SCORE.SYSTEM>
0

>  <SCORE.SYSTEM.CONST>
0

>  <SCORE.SYSTEM.DIHEDRAL>
0

>  <SCORE.SYSTEM.SOLV>
0

>  <SCORE.SYSTEM.norm>
0

>  <SCORE.heavy>
37

>  <SCORE.norm>
-0.0541956

>  <RMSD>
18.770

$$$$
lig.pdb
 OpenBabel11021811453D
libRbt.so/2013.1/901 2013/11/27
 37 40  0  0  0  0  0  0  0  0999 V2000
  -15.0298   11.4141   10.3508 C   0  0  2  0  0  0  0  0  0  0  0  0
  -13.5114   11.5217   10.7117 C   0  0  1  0  0  0  0  0  0  0  0  0
  -13.2566   12.0967   12.1359 C   0  0  0  0  0  0  0  0  0  0  0  0
  -14.0767   13.3897   12.3699 C   0  0  1  0  0  0  0  0  0  0  0  0
  -15.5759   13.1150   12.1166 C   0  0  1  0  0  0  0  0  0  0  0  0
  -16.4283   14.3834   12.3895 C   0  0  1  0  0  0  0  0  0  0  0  0
  -16.1446   14.9474   13.8136 C   0  0  1  0  0  0  0  0  0  0  0  0
  -14.6205   15.1371   14.0730 C   0  0  2  0  0  0  0  0  0  0  0  0
  -18.3602   15.9900   13.9466 C   0  0  0  0  0  0  0  0  0  0  0  0
  -15.7764   12.6032   10.7676 O   0  0  0  0  0  0  0  0  0  0  0  0
  -13.8614   13.9465   13.6986 O   0  0  0  0  0  0  0  0  0  0  0  0
  -12.8742   10.1923   10.5918 N   0  0  0  0  0  0  0  0  0  0  0  0
  -16.8979   16.2053   13.9959 N   0  0  0  0  0  0  0  0  0  0  0  0
  -16.2153   15.3733   11.3914 O   0  0  0  0  0  0  0  0  0  0  0  0
  -14.3825   15.5010   15.4642 O   0  0  0  0  0  0  0  0  0  0  0  0
  -15.6249   10.2106   10.9252 O   0  0  0  0  0  0  0  0  0  0  0  0
  -13.0429   15.9367   15.8511 C   0  0  2  0  0  0  0  0  0  0  0  0
  -12.9505   16.1563   17.3880 C   0  0  1  0  0  0  0  0  0  0  0  0
  -13.7505   17.4117   17.8393 C   0  0  2  0  0  0  0  0  0  0  0  0
  -13.3339   18.6677   17.0202 C   0  0  1  0  0  0  0  0  0  0  0  0
  -13.4073   18.3940   15.4921 C   0  0  1  0  0  0  0  0  0  0  0  0
  -12.8658   19.5891   14.6645 C   0  0  0  0  0  0  0  0  0  0  0  0
  -12.6847   17.1700   15.1590 O   0  0  0  0  0  0  0  0  0  0  0  0
  -14.1395   19.8501   17.3964 N   0  0  0  0  0  0  0  0  0  0  0  0
  -13.3666   14.9848   18.0874 O   0  0  0  0  0  0  0  0  0  0  0  0
  -13.6045   17.6395   19.2394 O   0  0  0  0  0  0  0  0  0  0  0  0
  -11.4686   19.7618   14.8774 O   0  0  0  0  0  0  0  0  0  0  0  0
  -15.1400    8.9215   10.4487 C   0  0  1  0  0  0  0  0  0  0  0  0
  -15.9934    7.7418   10.9927 C   0  0  1  0  0  0  0  0  0  0  0  0
  -15.4025    6.3729   10.5521 C   0  0  2  0  0  0  0  0  0  0  0  0
  -15.2024    6.2801    9.0045 C   0  0  1  0  0  0  0  0  0  0  0  0
  -14.4655    7.5188    8.4126 C   0  0  0  0  0  0  0  0  0  0  0  0
  -15.0759    8.8689    8.8958 C   0  0  2  0  0  0  0  0  0  0  0  0
  -14.5056    5.0283    8.6391 N   0  0  0  0  0  0  0  0  0  0  0  0
  -14.2911    9.9891    8.3333 N   0  0  0  0  0  0  0  0  0  0  0  0
  -16.1077    7.8106   12.4104 O   0  0  0  0  0  0  0  0  0  0  0  0
  -16.2250    5.3040   11.0133 O   0  0  0  0  0  0  0  0  0  0  0  0
  1  2  1  0  0  0  0
  1 16  1  1  0  0  0
  2  3  1  0  0  0  0
  2 12  1  1  0  0  0
  4 11  1  1  0  0  0
  4  3  1  0  0  0  0
  5  4  1  0  0  0  0
  5 10  1  6  0  0  0
  6  7  1  0  0  0  0
  6  5  1  0  0  0  0
  6 14  1  6  0  0  0
  7  8  1  0  0  0  0
  7 13  1  6  0  0  0
  8 15  1  1  0  0  0
  8 11  1  0  0  0  0
  9 13  1  0  0  0  0
 10  1  1  0  0  0  0
 17 15  1  1  0  0  0
 17 18  1  0  0  0  0
 18 25  1  1  0  0  0
 19 18  1  0  0  0  0
 19 26  1  1  0  0  0
 20 19  1  0  0  0  0
 20 24  1  6  0  0  0
 21 23  1  0  0  0  0
 21 20  1  0  0  0  0
 21 22  1  6  0  0  0
 23 17  1  0  0  0  0
 27 22  1  0  0  0  0
 28 29  1  0  0  0  0
 28 16  1  6  0  0  0
 29 36  1  1  0  0  0
 30 37  1  6  0  0  0
 30 29  1  0  0  0  0
 31 30  1  0  0  0  0
 31 34  1  1  0  0  0
 32 31  1  0  0  0  0
 32 33  1  0  0  0  0
 33 28  1  0  0  0  0
 33 35  1  1  0  0  0
M  END
>  <CHROM.1>
54.67858692,-170.03462310,63.78188019,-166.46218784,-174.85165113,-64.55814448
47.15525702,-60.80809836,66.38730142,179.74944528,74.11303394,-171.94602287
-178.73731789,-173.20390480,-173.46160870,-90.32730443,-14.58378301,13.13128787
13.01606433,2.25972898,1.37905152,3.03034977

>  <Name>
lig.pdb

>  <RI>
0

>  <Rbt.Current_Directory>
/home/afrankz/demos/rdock_decoys_rna/rnas/2m4q

>  <Rbt.Executable>
rbdock ($Id: //depot/dev/client3/rdock/2013.1/src/exe/rbdock.cxx#4 $)

>  <Rbt.Library>
libRbt.so (2013.1, Build901 2013/11/27)

>  <Rbt.Parameter_File>
/export/apps/rDock/src/rDock_2013.1_src/data/scripts/dock_solv.prm

>  <Rbt.Receptor>
prm/blind_docking_40.prm

>  <SCORE>
-32.7392

>  <SCORE.INTER>
-33.4268

>  <SCORE.INTER.CONST>
1

>  <SCORE.INTER.POLAR>
-6.84

>  <SCORE.INTER.ROT>
10

>  <SCORE.INTER.SOLV>
20.2587

>  <SCORE.INTER.VDW>
-16.5041

>  <SCORE.INTER.norm>
-0.903428

>  <SCORE.INTRA>
-12.5117

>  <SCORE.INTRA.DIHEDRAL>
-38.8835

>  <SCORE.INTRA.DIHEDRAL.0>
44.8331

>  <SCORE.INTRA.POLAR>
-0.883765

>  <SCORE.INTRA.POLAR.0>
-0.108895

>  <SCORE.INTRA.REPUL>
-0.00912235

>  <SCORE.INTRA.REPUL.0>
0.00912235

>  <SCORE.INTRA.SOLV>
-0.240874

>  <SCORE.INTRA.SOLV.lig_0>
-53.9067

>  <SCORE.INTRA.VDW>
10.1009

>  <SCORE.INTRA.VDW.0>
-2.93492

>  <SCORE.INTRA.norm>
-0.338155

>  <SCORE.RESTR>
13.1994

>  <SCORE.RESTR.CAVITY>
13.1994

>  <SCORE.RESTR.norm>
0.35674

>  <SCORE.SYSTEM>
0

>  <SCORE.SYSTEM.CONST>
0

>  <SCORE.SYSTEM.DIHEDRAL>
0

>  <SCORE.SYSTEM.SOLV>
0

>  <SCORE.SYSTEM.norm>
0

>  <SCORE.heavy>
37

>  <SCORE.norm>
-0.884843

>  <RMSD>
18.785

$$$$
lig.pdb
 OpenBabel11021811453D
libRbt.so/2013.1/901 2013/11/27
 37 40  0  0  0  0  0  0  0  0999 V2000
  -15.1613   11.3777   10.3444 C   0  0  2  0  0  0  0  0  0  0  0  0
  -13.6298   11.5312   10.6239 C   0  0  1  0  0  0  0  0  0  0  0  0
  -13.3172   12.1318   12.0258 C   0  0  0  0  0  0  0  0  0  0  0  0
  -14.1594   13.4051   12.2871 C   0  0  1  0  0  0  0  0  0  0  0  0
  -15.6616   13.0867   12.1161 C   0  0  1  0  0  0  0  0  0  0  0  0
  -16.5334   14.3350   12.4182 C   0  0  1  0  0  0  0  0  0  0  0  0
  -16.1917   14.9255   13.8186 C   0  0  1  0  0  0  0  0  0  0  0  0
  -14.6620   15.1598   13.9954 C   0  0  2  0  0  0  0  0  0  0  0  0
  -16.2800   17.3519   13.4747 C   0  0  0  0  0  0  0  0  0  0  0  0
  -15.9179   12.5516   10.7856 O   0  0  0  0  0  0  0  0  0  0  0  0
  -13.8907   13.9853   13.5960 O   0  0  0  0  0  0  0  0  0  0  0  0
  -12.9630   10.2181   10.4866 N   0  0  0  0  0  0  0  0  0  0  0  0
  -16.9691   16.1648   14.0251 N   0  0  0  0  0  0  0  0  0  0  0  0
  -16.4003   15.3170   11.3986 O   0  0  0  0  0  0  0  0  0  0  0  0
  -14.3620   15.5485   15.3678 O   0  0  0  0  0  0  0  0  0  0  0  0
  -15.6921   10.1663   10.9636 O   0  0  0  0  0  0  0  0  0  0  0  0
  -13.0078   15.9947   15.6855 C   0  0  2  0  0  0  0  0  0  0  0  0
  -12.8185   16.1515   17.2211 C   0  0  1  0  0  0  0  0  0  0  0  0
  -13.6090   17.3704   17.7772 C   0  0  2  0  0  0  0  0  0  0  0  0
  -13.2691   18.6678   16.9878 C   0  0  1  0  0  0  0  0  0  0  0  0
  -13.4379   18.4570   15.4572 C   0  0  1  0  0  0  0  0  0  0  0  0
  -12.9729   19.6965   14.6486 C   0  0  0  0  0  0  0  0  0  0  0  0
  -12.7174   17.2629   15.0254 O   0  0  0  0  0  0  0  0  0  0  0  0
  -14.0689   19.8168   17.4660 N   0  0  0  0  0  0  0  0  0  0  0  0
  -13.1672   14.9436   17.8948 O   0  0  0  0  0  0  0  0  0  0  0  0
  -13.3753   17.5422   19.1734 O   0  0  0  0  0  0  0  0  0  0  0  0
  -13.7790   19.8770   13.4889 O   0  0  0  0  0  0  0  0  0  0  0  0
  -15.7691    8.9643   10.1432 C   0  0  1  0  0  0  0  0  0  0  0  0
  -14.6718    8.9401    9.0424 C   0  0  1  0  0  0  0  0  0  0  0  0
  -14.8316    7.6994    8.1192 C   0  0  2  0  0  0  0  0  0  0  0  0
  -14.8776    6.3596    8.9235 C   0  0  1  0  0  0  0  0  0  0  0  0
  -15.8754    6.4037   10.1194 C   0  0  0  0  0  0  0  0  0  0  0  0
  -15.6951    7.6726   11.0060 C   0  0  2  0  0  0  0  0  0  0  0  0
  -15.1766    5.2205    8.0296 N   0  0  0  0  0  0  0  0  0  0  0  0
  -16.7089    7.6644   12.0828 N   0  0  0  0  0  0  0  0  0  0  0  0
  -14.6915   10.1431    8.2808 O   0  0  0  0  0  0  0  0  0  0  0  0
  -13.7877    7.6629    7.1493 O   0  0  0  0  0  0  0  0  0  0  0  0
  1  2  1  0  0  0  0
  1 16  1  1  0  0  0
  2  3  1  0  0  0  0
  2 12  1  1  0  0  0
  4 11  1  1  0  0  0
  4  3  1  0  0  0  0
  5  4  1  0  0  0  0
  5 10  1  6  0  0  0
  6  7  1  0  0  0  0
  6  5  1  0  0  0  0
  6 14  1  6  0  0  0
  7  8  1  0  0  0  0
  7 13  1  6  0  0  0
  8 15  1  1  0  0  0
  8 11  1  0  0  0  0
  9 13  1  0  0  0  0
 10  1  1  0  0  0  0
 17 15  1  1  0  0  0
 17 18  1  0  0  0  0
 18 25  1  1  0  0  0
 19 18  1  0  0  0  0
 19 26  1  1  0  0  0
 20 19  1  0  0  0  0
 20 24  1  1  0  0  0
 21 23  1  0  0  0  0
 21 20  1  0  0  0  0
 21 22  1  6  0  0  0
 23 17  1  0  0  0  0
 27 22  1  0  0  0  0
 28 29  1  0  0  0  0
 28 16  1  1  0  0  0
 29 36  1  6  0  0  0
 30 37  1  6  0  0  0
 30 29  1  0  0  0  0
 31 30  1  0  0  0  0
 31 34  1  6  0  0  0
 32 31  1  0  0  0  0
 32 33  1  0  0  0  0
 33 28  1  0  0  0  0
 33 35  1  1  0  0  0
M  END
>  <CHROM.1>
-162.33789285,-171.49494614,-86.62451379,170.94089215,-171.12928428,-94.53219257
47.98811145,63.09717474,-145.39038817,72.31025722,-93.27733403,29.05418655
-175.32504957,63.32405287,-158.85349460,-167.93101877,-14.58670479,13.26446908
12.74607608,1.97728664,1.30639315,-2.92399007

>  <Name>
lig.pdb

>  <RI>
0

>  <Rbt.Current_Directory>
/home/afrankz/demos/rdock_decoys_rna/rnas/2m4q

>  <Rbt.Executable>
rbdock ($Id: //depot/dev/client3/rdock/2013.1/src/exe/rbdock.cxx#4 $)

>  <Rbt.Library>
libRbt.so (2013.1, Build901 2013/11/27)

>  <Rbt.Parameter_File>
/export/apps/rDock/src/rDock_2013.1_src/data/scripts/dock_solv.prm

>  <Rbt.Receptor>
prm/blind_docking_40.prm

>  <SCORE>
-13.5506

>  <SCORE.INTER>
-24.4321

>  <SCORE.INTER.CONST>
1

>  <SCORE.INTER.POLAR>
-5.507

>  <SCORE.INTER.ROT>
10

>  <SCORE.INTER.SOLV>
19.7444

>  <SCORE.INTER.VDW>
-14.7795

>  <SCORE.INTER.norm>
-0.660326

>  <SCORE.INTRA>
-0.405068

>  <SCORE.INTRA.DIHEDRAL>
-23.9009

>  <SCORE.INTRA.DIHEDRAL.0>
44.8331

>  <SCORE.INTRA.POLAR>
0.107428

>  <SCORE.INTRA.POLAR.0>
-0.108895

>  <SCORE.INTRA.REPUL>
-0.00912235

>  <SCORE.INTRA.REPUL.0>
0.00912235

>  <SCORE.INTRA.SOLV>
-0.347705

>  <SCORE.INTRA.SOLV.lig_0>
-53.9067

>  <SCORE.INTRA.VDW>
11.3996

>  <SCORE.INTRA.VDW.0>
-2.93492

>  <SCORE.INTRA.norm>
-0.0109478

>  <SCORE.RESTR>
11.2865

>  <SCORE.RESTR.CAVITY>
11.2865

>  <SCORE.RESTR.norm>
0.305042

>  <SCORE.SYSTEM>
0

>  <SCORE.SYSTEM.CONST>
0

>  <SCORE.SYSTEM.DIHEDRAL>
0

>  <SCORE.SYSTEM.SOLV>
0

>  <SCORE.SYSTEM.norm>
0

>  <SCORE.heavy>
37

>  <SCORE.norm>
-0.366232

>  <RMSD>
18.797

$$$$
lig.pdb
 OpenBabel11021811453D
libRbt.so/2013.1/901 2013/11/27
 37 40  0  0  0  0  0  0  0  0999 V2000
  -14.1782   15.1101   17.9348 C   0  0  2  0  0  0  0  0  0  0  0  0
  -14.1721   13.7683   18.7390 C   0  0  1  0  0  0  0  0  0  0  0  0
  -14.1636   12.5053   17.8288 C   0  0  0  0  0  0  0  0  0  0  0  0
  -15.2505   12.6029   16.7297 C   0  0  1  0  0  0  0  0  0  0  0  0
  -15.0616   13.9032   15.9167 C   0  0  1  0  0  0  0  0  0  0  0  0
  -16.1102   14.0045   14.7767 C   0  0  1  0  0  0  0  0  0  0  0  0
  -16.0922   12.7238   13.8900 C   0  0  1  0  0  0  0  0  0  0  0  0
  -16.2009   11.4236   14.7408 C   0  0  2  0  0  0  0  0  0  0  0  0
  -17.1738   14.1263   12.1938 C   0  0  0  0  0  0  0  0  0  0  0  0
  -15.1009   15.0622   16.7983 O   0  0  0  0  0  0  0  0  0  0  0  0
  -15.2609   11.4353   15.8588 O   0  0  0  0  0  0  0  0  0  0  0  0
  -13.0039   13.7348   19.6456 N   0  0  0  0  0  0  0  0  0  0  0  0
  -17.1680   12.8170   12.8815 N   0  0  0  0  0  0  0  0  0  0  0  0
  -17.4112   14.2558   15.2924 O   0  0  0  0  0  0  0  0  0  0  0  0
  -16.0096   10.2481   13.9005 O   0  0  0  0  0  0  0  0  0  0  0  0
  -12.8340   15.4628   17.4861 O   0  0  0  0  0  0  0  0  0  0  0  0
  -16.9830    9.9804   12.8447 C   0  0  2  0  0  0  0  0  0  0  0  0
  -17.2247    8.4526   12.6838 C   0  0  1  0  0  0  0  0  0  0  0  0
  -15.9921    7.7372   12.0602 C   0  0  2  0  0  0  0  0  0  0  0  0
  -15.5540    8.4257   10.7351 C   0  0  1  0  0  0  0  0  0  0  0  0
  -15.3575    9.9547   10.9323 C   0  0  1  0  0  0  0  0  0  0  0  0
  -15.0539   10.6758    9.5928 C   0  0  0  0  0  0  0  0  0  0  0  0
  -16.5302   10.5398   11.5756 O   0  0  0  0  0  0  0  0  0  0  0  0
  -14.3405    7.7934   10.1729 N   0  0  0  0  0  0  0  0  0  0  0  0
  -17.5986    7.8704   13.9311 O   0  0  0  0  0  0  0  0  0  0  0  0
  -16.2502    6.3495   11.8575 O   0  0  0  0  0  0  0  0  0  0  0  0
  -13.8753   10.1513    8.9903 O   0  0  0  0  0  0  0  0  0  0  0  0
  -12.5135   16.8784   17.3548 C   0  0  1  0  0  0  0  0  0  0  0  0
  -13.1077   17.4913   16.0558 C   0  0  1  0  0  0  0  0  0  0  0  0
  -12.6736   18.9745   15.8866 C   0  0  2  0  0  0  0  0  0  0  0  0
  -13.0085   19.8410   17.1440 C   0  0  1  0  0  0  0  0  0  0  0  0
  -12.5414   19.1825   18.4766 C   0  0  0  0  0  0  0  0  0  0  0  0
  -12.9790   17.6915   18.5960 C   0  0  2  0  0  0  0  0  0  0  0  0
  -12.4517   21.2038   17.0062 N   0  0  0  0  0  0  0  0  0  0  0  0
  -12.4543   17.1280   19.8588 N   0  0  0  0  0  0  0  0  0  0  0  0
  -12.7356   16.7223   14.9166 O   0  0  0  0  0  0  0  0  0  0  0  0
  -13.2691   19.5376   14.7204 O   0  0  0  0  0  0  0  0  0  0  0  0
  1  2  1  0  0  0  0
  1 16  1  6  0  0  0
  2  3  1  0  0  0  0
  2 12  1  1  0  0  0
  4 11  1  6  0  0  0
  4  3  1  0  0  0  0
  5  4  1  0  0  0  0
  5 10  1  1  0  0  0
  6  7  1  0  0  0  0
  6  5  1  0  0  0  0
  6 14  1  1  0  0  0
  7  8  1  0  0  0  0
  7 13  1  6  0  0  0
  8 15  1  6  0  0  0
  8 11  1  0  0  0  0
  9 13  1  0  0  0  0
 10  1  1  0  0  0  0
 17 15  1  1  0  0  0
 17 18  1  0  0  0  0
 18 25  1  1  0  0  0
 19 18  1  0  0  0  0
 19 26  1  6  0  0  0
 20 19  1  0  0  0  0
 20 24  1  1  0  0  0
 21 23  1  0  0  0  0
 21 20  1  0  0  0  0
 21 22  1  6  0  0  0
 23 17  1  0  0  0  0
 27 22  1  0  0  0  0
 28 29  1  0  0  0  0
 28 16  1  1  0  0  0
 29 36  1  6  0  0  0
 30 37  1  6  0  0  0
 30 29  1  0  0  0  0
 31 30  1  0  0  0  0
 31 34  1  6  0  0  0
 32 31  1  0  0  0  0
 32 33  1  0  0  0  0
 33 28  1  0  0  0  0
 33 35  1  1  0  0  0
M  END
>  <CHROM.1>
-73.85435013,-63.93502350,47.91650231,61.07727464,-143.62222819,-149.39836075
-178.04799498,176.25622188,-59.19576914,132.39122317,89.65043269,-77.78200452
-51.56166835,-174.53432416,83.24480354,66.66655131,-14.79475253,13.37065204
14.82127132,0.40984879,1.26998073,1.71917749

>  <Name>
lig.pdb

>  <RI>
0

>  <Rbt.Current_Directory>
/home/afrankz/demos/rdock_decoys_rna/rnas/2m4q

>  <Rbt.Executable>
rbdock ($Id: //depot/dev/client3/rdock/2013.1/src/exe/rbdock.cxx#4 $)

>  <Rbt.Library>
libRbt.so (2013.1, Build901 2013/11/27)

>  <Rbt.Parameter_File>
/export/apps/rDock/src/rDock_2013.1_src/data/scripts/dock_solv.prm

>  <Rbt.Receptor>
prm/blind_docking_80.prm

>  <SCORE>
7.1441

>  <SCORE.INTER>
-3.97651

>  <SCORE.INTER.CONST>
1

>  <SCORE.INTER.POLAR>
-2.67158

>  <SCORE.INTER.ROT>
10

>  <SCORE.INTER.SOLV>
16.1069

>  <SCORE.INTER.VDW>
-9.38136

>  <SCORE.INTER.norm>
-0.107473

>  <SCORE.INTRA>
-12.986

>  <SCORE.INTRA.DIHEDRAL>
-26.5355

>  <SCORE.INTRA.DIHEDRAL.0>
44.8331

>  <SCORE.INTRA.POLAR>
-1.37506

>  <SCORE.INTRA.POLAR.0>
-0.108895

>  <SCORE.INTRA.REPUL>
-0.00912235

>  <SCORE.INTRA.REPUL.0>
0.00912235

>  <SCORE.INTRA.SOLV>
0.418791

>  <SCORE.INTRA.SOLV.lig_0>
-53.9067

>  <SCORE.INTRA.VDW>
4.79314

>  <SCORE.INTRA.VDW.0>
-2.93492

>  <SCORE.INTRA.norm>
-0.350973

>  <SCORE.RESTR>
24.1066

>  <SCORE.RESTR.CAVITY>
24.1066

>  <SCORE.RESTR.norm>
0.65153

>  <SCORE.SYSTEM>
0

>  <SCORE.SYSTEM.CONST>
0

>  <SCORE.SYSTEM.DIHEDRAL>
0

>  <SCORE.SYSTEM.SOLV>
0

>  <SCORE.SYSTEM.norm>
0

>  <SCORE.heavy>
37

>  <SCORE.norm>
0.193084

>  <RMSD>
18.798

$$$$
lig.pdb
 OpenBabel11021811453D
libRbt.so/2013.1/901 2013/11/27
 37 40  0  0  0  0  0  0  0  0999 V2000
  -15.2153   11.2850   10.3082 C   0  0  2  0  0  0  0  0  0  0  0  0
  -13.6777   11.4212   10.5621 C   0  0  1  0  0  0  0  0  0  0  0  0
  -13.3345   11.9956   11.9678 C   0  0  0  0  0  0  0  0  0  0  0  0
  -14.1611   13.2711   12.2658 C   0  0  1  0  0  0  0  0  0  0  0  0
  -15.6688   12.9679   12.1171 C   0  0  1  0  0  0  0  0  0  0  0  0
  -16.5243   14.2180   12.4560 C   0  0  1  0  0  0  0  0  0  0  0  0
  -16.1521   14.7820   13.8596 C   0  0  1  0  0  0  0  0  0  0  0  0
  -14.6175   15.0007   14.0122 C   0  0  2  0  0  0  0  0  0  0  0  0
  -17.0309   16.3344   15.5423 C   0  0  0  0  0  0  0  0  0  0  0  0
  -15.9537   12.4575   10.7828 O   0  0  0  0  0  0  0  0  0  0  0  0
  -13.8637   13.8269   13.5791 O   0  0  0  0  0  0  0  0  0  0  0  0
  -13.0248   10.1052   10.3906 N   0  0  0  0  0  0  0  0  0  0  0  0
  -16.9151   16.0240   14.1011 N   0  0  0  0  0  0  0  0  0  0  0  0
  -16.4015   15.2160   11.4507 O   0  0  0  0  0  0  0  0  0  0  0  0
  -14.2893   15.3638   15.3851 O   0  0  0  0  0  0  0  0  0  0  0  0
  -15.7450   10.0678   10.9167 O   0  0  0  0  0  0  0  0  0  0  0  0
  -12.9730   15.9350   15.6592 C   0  0  2  0  0  0  0  0  0  0  0  0
  -12.8264   16.3006   17.1637 C   0  0  1  0  0  0  0  0  0  0  0  0
  -13.7040   17.5266   17.5465 C   0  0  2  0  0  0  0  0  0  0  0  0
  -13.4306   18.7308   16.5994 C   0  0  1  0  0  0  0  0  0  0  0  0
  -13.5534   18.3138   15.1072 C   0  0  1  0  0  0  0  0  0  0  0  0
  -13.1510   19.4664   14.1502 C   0  0  0  0  0  0  0  0  0  0  0  0
  -12.7498   17.1238   14.8435 O   0  0  0  0  0  0  0  0  0  0  0  0
  -14.3114   19.8770   16.9140 N   0  0  0  0  0  0  0  0  0  0  0  0
  -13.1120   15.1694   17.9843 O   0  0  0  0  0  0  0  0  0  0  0  0
  -13.5112   17.8919   18.9113 O   0  0  0  0  0  0  0  0  0  0  0  0
  -13.9372   19.4381   12.9634 O   0  0  0  0  0  0  0  0  0  0  0  0
  -15.7913    8.8648   10.0952 C   0  0  1  0  0  0  0  0  0  0  0  0
  -14.6910    8.8676    8.9973 C   0  0  1  0  0  0  0  0  0  0  0  0
  -14.8188    7.6241    8.0729 C   0  0  2  0  0  0  0  0  0  0  0  0
  -14.8349    6.2830    8.8761 C   0  0  1  0  0  0  0  0  0  0  0  0
  -15.8365    6.3025   10.0695 C   0  0  0  0  0  0  0  0  0  0  0  0
  -15.6888    7.5747   10.9575 C   0  0  2  0  0  0  0  0  0  0  0  0
  -15.1045    5.1377    7.9807 N   0  0  0  0  0  0  0  0  0  0  0  0
  -16.7049    7.5415   12.0316 N   0  0  0  0  0  0  0  0  0  0  0  0
  -14.7374   10.0703    8.2365 O   0  0  0  0  0  0  0  0  0  0  0  0
  -13.7719    7.6131    7.1056 O   0  0  0  0  0  0  0  0  0  0  0  0
  1  2  1  0  0  0  0
  1 16  1  1  0  0  0
  2  3  1  0  0  0  0
  2 12  1  1  0  0  0
  4 11  1  1  0  0  0
  4  3  1  0  0  0  0
  5  4  1  0  0  0  0
  5 10  1  6  0  0  0
  6  7  1  0  0  0  0
  6  5  1  0  0  0  0
  6 14  1  6  0  0  0
  7  8  1  0  0  0  0
  7 13  1  6  0  0  0
  8 15  1  1  0  0  0
  8 11  1  0  0  0  0
  9 13  1  0  0  0  0
 10  1  1  0  0  0  0
 17 15  1  1  0  0  0
 17 18  1  0  0  0  0
 18 25  1  1  0  0  0
 19 18  1  0  0  0  0
 19 26  1  1  0  0  0
 20 19  1  0  0  0  0
 20 24  1  1  0  0  0
 21 23  1  0  0  0  0
 21 20  1  0  0  0  0
 21 22  1  6  0  0  0
 23 17  1  0  0  0  0
 27 22  1  0  0  0  0
 28 29  1  0  0  0  0
 28 16  1  1  0  0  0
 29 36  1  6  0  0  0
 30 37  1  6  0  0  0
 30 29  1  0  0  0  0
 31 30  1  0  0  0  0
 31 34  1  6  0  0  0
 32 31  1  0  0  0  0
 32 33  1  0  0  0  0
 33 28  1  0  0  0  0
 33 35  1  1  0  0  0
M  END
>  <CHROM.1>
-81.83170721,-164.72870697,158.07846653,-174.26800094,178.09162960,-91.84293455
-53.14422714,-176.52131801,-145.71977364,-175.31542643,-154.75607032,27.79059093
-175.71903674,-64.68592931,-178.65854263,-176.28931196,-14.64095333,13.16784801
12.70467876,2.66120664,1.46920162,2.66176364

>  <Name>
lig.pdb

>  <RI>
0

>  <Rbt.Current_Directory>
/home/afrankz/demos/rdock_decoys_rna/rnas/2m4q

>  <Rbt.Executable>
rbdock ($Id: //depot/dev/client3/rdock/2013.1/src/exe/rbdock.cxx#4 $)

>  <Rbt.Library>
libRbt.so (2013.1, Build901 2013/11/27)

>  <Rbt.Parameter_File>
/export/apps/rDock/src/rDock_2013.1_src/data/scripts/dock_solv.prm

>  <Rbt.Receptor>
prm/blind_docking_40.prm

>  <SCORE>
-22.2669

>  <SCORE.INTER>
-26.8896

>  <SCORE.INTER.CONST>
1

>  <SCORE.INTER.POLAR>
-6.00863

>  <SCORE.INTER.ROT>
10

>  <SCORE.INTER.SOLV>
20.2093

>  <SCORE.INTER.VDW>
-14.9007

>  <SCORE.INTER.norm>
-0.726745

>  <SCORE.INTRA>
-7.97313

>  <SCORE.INTRA.DIHEDRAL>
-27.3697

>  <SCORE.INTRA.DIHEDRAL.0>
44.8331

>  <SCORE.INTRA.POLAR>
-0.101075

>  <SCORE.INTRA.POLAR.0>
-0.108895

>  <SCORE.INTRA.REPUL>
-0.00912235

>  <SCORE.INTRA.REPUL.0>
0.00912235

>  <SCORE.INTRA.SOLV>
-0.781825

>  <SCORE.INTRA.SOLV.lig_0>
-53.9067

>  <SCORE.INTRA.VDW>
6.49189

>  <SCORE.INTRA.VDW.0>
-2.93492

>  <SCORE.INTRA.norm>
-0.21549

>  <SCORE.RESTR>
12.5958

>  <SCORE.RESTR.CAVITY>
12.5958

>  <SCORE.RESTR.norm>
0.340426

>  <SCORE.SYSTEM>
0

>  <SCORE.SYSTEM.CONST>
0

>  <SCORE.SYSTEM.DIHEDRAL>
0

>  <SCORE.SYSTEM.SOLV>
0

>  <SCORE.SYSTEM.norm>
0

>  <SCORE.heavy>
37

>  <SCORE.norm>
-0.601809

>  <RMSD>
18.808

$$$$
lig.pdb
 OpenBabel11021811453D
libRbt.so/2013.1/901 2013/11/27
 37 40  0  0  0  0  0  0  0  0999 V2000
  -15.2349   10.9835   10.4499 C   0  0  2  0  0  0  0  0  0  0  0  0
  -13.7188   11.3688   10.4585 C   0  0  1  0  0  0  0  0  0  0  0  0
  -13.2537   12.0075   11.8000 C   0  0  0  0  0  0  0  0  0  0  0  0
  -14.2170   13.1364   12.2434 C   0  0  1  0  0  0  0  0  0  0  0  0
  -15.6604   12.5922   12.3315 C   0  0  1  0  0  0  0  0  0  0  0  0
  -16.6413   13.6918   12.8196 C   0  0  1  0  0  0  0  0  0  0  0  0
  -16.1466   14.3248   14.1543 C   0  0  1  0  0  0  0  0  0  0  0  0
  -14.6627   14.7900   14.0645 C   0  0  2  0  0  0  0  0  0  0  0  0
  -18.4746   15.0361   14.4512 C   0  0  0  0  0  0  0  0  0  0  0  0
  -16.0677   12.0269   11.0522 O   0  0  0  0  0  0  0  0  0  0  0  0
  -13.8082   13.7482   13.5006 O   0  0  0  0  0  0  0  0  0  0  0  0
  -12.8981   10.1735   10.1668 N   0  0  0  0  0  0  0  0  0  0  0  0
  -17.0515   15.4303   14.5314 N   0  0  0  0  0  0  0  0  0  0  0  0
  -16.8421   14.6846   11.8219 O   0  0  0  0  0  0  0  0  0  0  0  0
  -14.1834   15.2174   15.3730 O   0  0  0  0  0  0  0  0  0  0  0  0
  -15.4581    9.7039   11.1173 O   0  0  0  0  0  0  0  0  0  0  0  0
  -14.8012   16.3865   15.9937 C   0  0  2  0  0  0  0  0  0  0  0  0
  -13.9843   17.6749   15.6916 C   0  0  1  0  0  0  0  0  0  0  0  0
  -12.6277   17.6883   16.4529 C   0  0  2  0  0  0  0  0  0  0  0  0
  -12.8357   17.4441   17.9757 C   0  0  1  0  0  0  0  0  0  0  0  0
  -13.6850   16.1678   18.2313 C   0  0  1  0  0  0  0  0  0  0  0  0
  -14.0162   15.9859   19.7358 C   0  0  0  0  0  0  0  0  0  0  0  0
  -14.9095   16.2039   17.4371 O   0  0  0  0  0  0  0  0  0  0  0  0
  -11.5445   17.3865   18.6953 N   0  0  0  0  0  0  0  0  0  0  0  0
  -13.8030   17.8352   14.2859 O   0  0  0  0  0  0  0  0  0  0  0  0
  -11.9181   18.9028   16.2193 O   0  0  0  0  0  0  0  0  0  0  0  0
  -12.8525   16.1648   20.5365 O   0  0  0  0  0  0  0  0  0  0  0  0
  -15.7178    8.5396   10.2801 C   0  0  1  0  0  0  0  0  0  0  0  0
  -14.6747    8.4016    9.1360 C   0  0  1  0  0  0  0  0  0  0  0  0
  -15.0251    7.2116    8.1988 C   0  0  2  0  0  0  0  0  0  0  0  0
  -15.2104    5.8709    8.9811 C   0  0  1  0  0  0  0  0  0  0  0  0
  -16.1488    6.0140   10.2167 C   0  0  0  0  0  0  0  0  0  0  0  0
  -15.7758    7.2301   11.1171 C   0  0  2  0  0  0  0  0  0  0  0  0
  -15.6849    4.7986    8.0806 N   0  0  0  0  0  0  0  0  0  0  0  0
  -16.7412    7.3260   12.2334 N   0  0  0  0  0  0  0  0  0  0  0  0
  -14.5703    9.6140    8.3966 O   0  0  0  0  0  0  0  0  0  0  0  0
  -14.0316    7.0652    7.1873 O   0  0  0  0  0  0  0  0  0  0  0  0
  1  2  1  0  0  0  0
  1 16  1  1  0  0  0
  2  3  1  0  0  0  0
  2 12  1  1  0  0  0
  4 11  1  1  0  0  0
  4  3  1  0  0  0  0
  5  4  1  0  0  0  0
  5 10  1  6  0  0  0
  6  7  1  0  0  0  0
  6  5  1  0  0  0  0
  6 14  1  6  0  0  0
  7  8  1  0  0  0  0
  7 13  1  6  0  0  0
  8 15  1  1  0  0  0
  8 11  1  0  0  0  0
  9 13  1  0  0  0  0
 10  1  1  0  0  0  0
 17 15  1  6  0  0  0
 17 18  1  0  0  0  0
 18 25  1  6  0  0  0
 19 18  1  0  0  0  0
 19 26  1  1  0  0  0
 20 19  1  0  0  0  0
 20 24  1  1  0  0  0
 21 23  1  0  0  0  0
 21 20  1  0  0  0  0
 21 22  1  1  0  0  0
 23 17  1  0  0  0  0
 27 22  1  0  0  0  0
 28 29  1  0  0  0  0
 28 16  1  1  0  0  0
 29 36  1  6  0  0  0
 30 37  1  6  0  0  0
 30 29  1  0  0  0  0
 31 30  1  0  0  0  0
 31 34  1  6  0  0  0
 32 31  1  0  0  0  0
 32 33  1  0  0  0  0
 33 28  1  0  0  0  0
 33 35  1  1  0  0  0
M  END
>  <CHROM.1>
-67.24255401,-64.47701597,48.16550554,86.52013473,-94.91678445,-104.35299787
172.45688222,-51.12879166,-47.12855855,-50.96703598,58.15904419,49.33541752
-175.25523221,-62.32383643,-50.77722381,-157.21035882,-14.70667672,12.70354084
13.12690954,2.69082139,1.42718174,2.72934113

>  <Name>
lig.pdb

>  <RI>
0

>  <Rbt.Current_Directory>
/home/afrankz/demos/rdock_decoys_rna/rnas/2m4q

>  <Rbt.Executable>
rbdock ($Id: //depot/dev/client3/rdock/2013.1/src/exe/rbdock.cxx#4 $)

>  <Rbt.Library>
libRbt.so (2013.1, Build901 2013/11/27)

>  <Rbt.Parameter_File>
/export/apps/rDock/src/rDock_2013.1_src/data/scripts/dock_solv.prm

>  <Rbt.Receptor>
prm/blind_docking_40.prm

>  <SCORE>
-8.28047

>  <SCORE.INTER>
-21.1365

>  <SCORE.INTER.CONST>
1

>  <SCORE.INTER.POLAR>
-5.64924

>  <SCORE.INTER.ROT>
10

>  <SCORE.INTER.SOLV>
16.946

>  <SCORE.INTER.VDW>
-11.1755

>  <SCORE.INTER.norm>
-0.571257

>  <SCORE.INTRA>
-4.52426

>  <SCORE.INTRA.DIHEDRAL>
-27.4031

>  <SCORE.INTRA.DIHEDRAL.0>
44.8331

>  <SCORE.INTRA.POLAR>
-0.291719

>  <SCORE.INTRA.POLAR.0>
-0.108895

>  <SCORE.INTRA.REPUL>
-0.00912235

>  <SCORE.INTRA.REPUL.0>
0.00912235

>  <SCORE.INTRA.SOLV>
0.841774

>  <SCORE.INTRA.SOLV.lig_0>
-53.9067

>  <SCORE.INTRA.VDW>
9.79388

>  <SCORE.INTRA.VDW.0>
-2.93492

>  <SCORE.INTRA.norm>
-0.122277

>  <SCORE.RESTR>
17.3803

>  <SCORE.RESTR.CAVITY>
17.3803

>  <SCORE.RESTR.norm>
0.469737

>  <SCORE.SYSTEM>
0

>  <SCORE.SYSTEM.CONST>
0

>  <SCORE.SYSTEM.DIHEDRAL>
0

>  <SCORE.SYSTEM.SOLV>
0

>  <SCORE.SYSTEM.norm>
0

>  <SCORE.heavy>
37

>  <SCORE.norm>
-0.223796

>  <RMSD>
18.829

$$$$
lig.pdb
 OpenBabel11021811453D
libRbt.so/2013.1/901 2013/11/27
 37 40  0  0  0  0  0  0  0  0999 V2000
  -15.1499   11.3500   10.4485 C   0  0  2  0  0  0  0  0  0  0  0  0
  -13.6227   11.6404   10.6230 C   0  0  1  0  0  0  0  0  0  0  0  0
  -13.2608   12.2092   12.0263 C   0  0  0  0  0  0  0  0  0  0  0  0
  -14.1966   13.3820   12.4107 C   0  0  1  0  0  0  0  0  0  0  0  0
  -15.6708   12.9258   12.3340 C   0  0  1  0  0  0  0  0  0  0  0  0
  -16.6305   14.0692   12.7601 C   0  0  1  0  0  0  0  0  0  0  0  0
  -16.2387   14.6307   14.1593 C   0  0  1  0  0  0  0  0  0  0  0  0
  -14.7288   15.0056   14.2356 C   0  0  2  0  0  0  0  0  0  0  0  0
  -17.2959   15.9431   15.9408 C   0  0  0  0  0  0  0  0  0  0  0  0
  -15.9775   12.4248   11.0010 O   0  0  0  0  0  0  0  0  0  0  0  0
  -13.8835   13.9300   13.7236 O   0  0  0  0  0  0  0  0  0  0  0  0
  -12.8479   10.4057   10.3728 N   0  0  0  0  0  0  0  0  0  0  0  0
  -17.1112   15.7784   14.4828 N   0  0  0  0  0  0  0  0  0  0  0  0
  -16.6696   15.1015   11.7832 O   0  0  0  0  0  0  0  0  0  0  0  0
  -14.3617   15.3637   15.6000 O   0  0  0  0  0  0  0  0  0  0  0  0
  -15.5148   10.0676   11.0442 O   0  0  0  0  0  0  0  0  0  0  0  0
  -13.0353   15.9266   15.8398 C   0  0  2  0  0  0  0  0  0  0  0  0
  -12.8584   16.3196   17.3341 C   0  0  1  0  0  0  0  0  0  0  0  0
  -13.7170   17.5617   17.7083 C   0  0  2  0  0  0  0  0  0  0  0  0
  -13.4485   18.7446   16.7333 C   0  0  1  0  0  0  0  0  0  0  0  0
  -13.6018   18.3001   15.2520 C   0  0  1  0  0  0  0  0  0  0  0  0
  -13.2051   19.4300   14.2658 C   0  0  0  0  0  0  0  0  0  0  0  0
  -12.8148   17.0971   14.9974 O   0  0  0  0  0  0  0  0  0  0  0  0
  -14.3122   19.9055   17.0410 N   0  0  0  0  0  0  0  0  0  0  0  0
  -13.1406   15.2074   18.1814 O   0  0  0  0  0  0  0  0  0  0  0  0
  -13.4964   17.9512   19.0622 O   0  0  0  0  0  0  0  0  0  0  0  0
  -13.8980   19.2908   13.0298 O   0  0  0  0  0  0  0  0  0  0  0  0
  -15.6295    8.9170   10.1571 C   0  0  1  0  0  0  0  0  0  0  0  0
  -14.4828    8.8745    9.1085 C   0  0  1  0  0  0  0  0  0  0  0  0
  -14.6774    7.6962    8.1130 C   0  0  2  0  0  0  0  0  0  0  0  0
  -14.8509    6.3234    8.8404 C   0  0  1  0  0  0  0  0  0  0  0  0
  -15.9018    6.3741    9.9896 C   0  0  0  0  0  0  0  0  0  0  0  0
  -15.6832    7.5810   10.9511 C   0  0  2  0  0  0  0  0  0  0  0  0
  -15.1790    5.2543    7.8732 N   0  0  0  0  0  0  0  0  0  0  0  0
  -16.7477    7.5867   11.9779 N   0  0  0  0  0  0  0  0  0  0  0  0
  -14.3858   10.1133    8.4132 O   0  0  0  0  0  0  0  0  0  0  0  0
  -13.5912    7.6383    7.1918 O   0  0  0  0  0  0  0  0  0  0  0  0
  1  2  1  0  0  0  0
  1 16  1  1  0  0  0
  2  3  1  0  0  0  0
  2 12  1  1  0  0  0
  4 11  1  1  0  0  0
  4  3  1  0  0  0  0
  5  4  1  0  0  0  0
  5 10  1  6  0  0  0
  6  7  1  0  0  0  0
  6  5  1  0  0  0  0
  6 14  1  6  0  0  0
  7  8  1  0  0  0  0
  7 13  1  6  0  0  0
  8 15  1  1  0  0  0
  8 11  1  0  0  0  0
  9 13  1  0  0  0  0
 10  1  1  0  0  0  0
 17 15  1  1  0  0  0
 17 18  1  0  0  0  0
 18 25  1  1  0  0  0
 19 18  1  0  0  0  0
 19 26  1  1  0  0  0
 20 19  1  0  0  0  0
 20 24  1  1  0  0  0
 21 23  1  0  0  0  0
 21 20  1  0  0  0  0
 21 22  1  6  0  0  0
 23 17  1  0  0  0  0
 27 22  1  0  0  0  0
 28 29  1  0  0  0  0
 28 16  1  1  0  0  0
 29 36  1  6  0  0  0
 30 37  1  6  0  0  0
 30 29  1  0  0  0  0
 31 30  1  0  0  0  0
 31 34  1  6  0  0  0
 32 31  1  0  0  0  0
 32 33  1  0  0  0  0
 33 28  1  0  0  0  0
 33 35  1  1  0  0  0
M  END
>  <CHROM.1>
-162.94438191,-171.47684343,151.73484891,-172.80984245,176.72824076,-98.58691518
39.83169956,-167.58985029,-152.72033162,-45.92715171,-158.31534779,42.09448908
-59.11123788,67.25464779,-169.26138704,-22.24113563,-14.63728840,13.17642263
12.84676428,-1.91855253,1.33361897,0.96520245

>  <Name>
lig.pdb

>  <RI>
0

>  <Rbt.Current_Directory>
/home/afrankz/demos/rdock_decoys_rna/rnas/2m4q

>  <Rbt.Executable>
rbdock ($Id: //depot/dev/client3/rdock/2013.1/src/exe/rbdock.cxx#4 $)

>  <Rbt.Library>
libRbt.so (2013.1, Build901 2013/11/27)

>  <Rbt.Parameter_File>
/export/apps/rDock/src/rDock_2013.1_src/data/scripts/dock_solv.prm

>  <Rbt.Receptor>
prm/blind_docking_40.prm

>  <SCORE>
-15.1982

>  <SCORE.INTER>
-20.4488

>  <SCORE.INTER.CONST>
1

>  <SCORE.INTER.POLAR>
-4.59042

>  <SCORE.INTER.ROT>
10

>  <SCORE.INTER.SOLV>
19.5073

>  <SCORE.INTER.VDW>
-15.1002

>  <SCORE.INTER.norm>
-0.55267

>  <SCORE.INTRA>
-8.6739

>  <SCORE.INTRA.DIHEDRAL>
-26.1029

>  <SCORE.INTRA.DIHEDRAL.0>
44.8331

>  <SCORE.INTRA.POLAR>
-0.35984

>  <SCORE.INTRA.POLAR.0>
-0.108895

>  <SCORE.INTRA.REPUL>
-0.00912235

>  <SCORE.INTRA.REPUL.0>
0.00912235

>  <SCORE.INTRA.SOLV>
-0.768697

>  <SCORE.INTRA.SOLV.lig_0>
-53.9067

>  <SCORE.INTRA.VDW>
6.03096

>  <SCORE.INTRA.VDW.0>
-2.93492

>  <SCORE.INTRA.norm>
-0.23443

>  <SCORE.RESTR>
13.9244

>  <SCORE.RESTR.CAVITY>
13.9244

>  <SCORE.RESTR.norm>
0.376336

>  <SCORE.SYSTEM>
0

>  <SCORE.SYSTEM.CONST>
0

>  <SCORE.SYSTEM.DIHEDRAL>
0

>  <SCORE.SYSTEM.SOLV>
0

>  <SCORE.SYSTEM.norm>
0

>  <SCORE.heavy>
37

>  <SCORE.norm>
-0.410763

>  <RMSD>
18.835

$$$$
lig.pdb
 OpenBabel11021811453D
libRbt.so/2013.1/901 2013/11/27
 37 40  0  0  0  0  0  0  0  0999 V2000
  -16.8628   10.9845   10.7058 C   0  0  2  0  0  0  0  0  0  0  0  0
  -17.8999   12.1524   10.7941 C   0  0  1  0  0  0  0  0  0  0  0  0
  -17.5109   13.2435   11.8343 C   0  0  0  0  0  0  0  0  0  0  0  0
  -17.1272   12.6067   13.1931 C   0  0  1  0  0  0  0  0  0  0  0  0
  -15.9973   11.5727   12.9894 C   0  0  1  0  0  0  0  0  0  0  0  0
  -15.5599   10.9518   14.3432 C   0  0  1  0  0  0  0  0  0  0  0  0
  -15.1905   12.0631   15.3704 C   0  0  1  0  0  0  0  0  0  0  0  0
  -16.3112   13.1375   15.4957 C   0  0  2  0  0  0  0  0  0  0  0  0
  -14.4984   12.4356   17.6933 C   0  0  0  0  0  0  0  0  0  0  0  0
  -16.4079   10.5559   12.0304 O   0  0  0  0  0  0  0  0  0  0  0  0
  -16.7527   13.6061   14.1845 O   0  0  0  0  0  0  0  0  0  0  0  0
  -18.0672   12.7734    9.4623 N   0  0  0  0  0  0  0  0  0  0  0  0
  -14.8766   11.4362   16.6710 N   0  0  0  0  0  0  0  0  0  0  0  0
  -16.5602   10.0839   14.8605 O   0  0  0  0  0  0  0  0  0  0  0  0
  -15.8632   14.2452   16.3305 O   0  0  0  0  0  0  0  0  0  0  0  0
  -15.7236   11.3523    9.8694 O   0  0  0  0  0  0  0  0  0  0  0  0
  -14.5268   14.7908   16.1060 C   0  0  2  0  0  0  0  0  0  0  0  0
  -14.3913   16.2083   16.7314 C   0  0  1  0  0  0  0  0  0  0  0  0
  -15.2172   17.2660   15.9448 C   0  0  2  0  0  0  0  0  0  0  0  0
  -14.8697   17.2356   14.4281 C   0  0  1  0  0  0  0  0  0  0  0  0
  -14.9842   15.7966   13.8522 C   0  0  1  0  0  0  0  0  0  0  0  0
  -14.5102   15.7253   12.3769 C   0  0  0  0  0  0  0  0  0  0  0  0
  -14.2327   14.8565   14.6786 O   0  0  0  0  0  0  0  0  0  0  0  0
  -15.7013   18.1909   13.6636 N   0  0  0  0  0  0  0  0  0  0  0  0
  -14.7451   16.1823   18.1130 O   0  0  0  0  0  0  0  0  0  0  0  0
  -15.0329   18.5714   16.4882 O   0  0  0  0  0  0  0  0  0  0  0  0
  -15.5867   15.9945   11.4848 O   0  0  0  0  0  0  0  0  0  0  0  0
  -15.0305   10.2838    9.1611 C   0  0  1  0  0  0  0  0  0  0  0  0
  -14.1898    9.3982   10.1229 C   0  0  1  0  0  0  0  0  0  0  0  0
  -13.3835    8.3264    9.3367 C   0  0  2  0  0  0  0  0  0  0  0  0
  -14.2915    7.4660    8.3990 C   0  0  1  0  0  0  0  0  0  0  0  0
  -15.2435    8.3288    7.5176 C   0  0  0  0  0  0  0  0  0  0  0  0
  -16.0157    9.4033    8.3409 C   0  0  2  0  0  0  0  0  0  0  0  0
  -13.4745    6.5613    7.5624 N   0  0  0  0  0  0  0  0  0  0  0  0
  -16.8536   10.2099    7.4273 N   0  0  0  0  0  0  0  0  0  0  0  0
  -13.3234   10.1982   10.9210 O   0  0  0  0  0  0  0  0  0  0  0  0
  -12.6602    7.4892   10.2354 O   0  0  0  0  0  0  0  0  0  0  0  0
  1  2  1  0  0  0  0
  1 16  1  6  0  0  0
  2  3  1  0  0  0  0
  2 12  1  6  0  0  0
  4 11  1  1  0  0  0
  4  3  1  0  0  0  0
  5  4  1  0  0  0  0
  5 10  1  6  0  0  0
  6  7  1  0  0  0  0
  6  5  1  0  0  0  0
  6 14  1  1  0  0  0
  7  8  1  0  0  0  0
  7 13  1  1  0  0  0
  8 15  1  1  0  0  0
  8 11  1  0  0  0  0
  9 13  1  0  0  0  0
 10  1  1  0  0  0  0
 17 15  1  6  0  0  0
 17 18  1  0  0  0  0
 18 25  1  1  0  0  0
 19 18  1  0  0  0  0
 19 26  1  1  0  0  0
 20 19  1  0  0  0  0
 20 24  1  6  0  0  0
 21 23  1  0  0  0  0
 21 20  1  0  0  0  0
 21 22  1  6  0  0  0
 23 17  1  0  0  0  0
 27 22  1  0  0  0  0
 28 29  1  0  0  0  0
 28 16  1  1  0  0  0
 29 36  1  6  0  0  0
 30 37  1  1  0  0  0
 30 29  1  0  0  0  0
 31 30  1  0  0  0  0
 31 34  1  6  0  0  0
 32 31  1  0  0  0  0
 32 33  1  0  0  0  0
 33 28  1  0  0  0  0
 33 35  1  6  0  0  0
M  END
>  <CHROM.1>
69.25774341,45.28436795,179.25470278,171.73388100,161.64427056,-151.00313723
65.74699780,-56.42524583,-88.68605939,-58.16433586,-41.50445372,-72.28427517
-64.17594755,-175.63620576,69.15949009,-45.49445634,-15.38049087,12.49731124
12.68855977,1.48571489,1.24740243,-2.28659692

>  <Name>
lig.pdb

>  <RI>
0

>  <Rbt.Current_Directory>
/home/afrankz/demos/rdock_decoys_rna/rnas/2m4q

>  <Rbt.Executable>
rbdock ($Id: //depot/dev/client3/rdock/2013.1/src/exe/rbdock.cxx#4 $)

>  <Rbt.Library>
libRbt.so (2013.1, Build901 2013/11/27)

>  <Rbt.Parameter_File>
/export/apps/rDock/src/rDock_2013.1_src/data/scripts/dock_solv.prm

>  <Rbt.Receptor>
prm/blind_docking_80.prm

>  <SCORE>
3.71373

>  <SCORE.INTER>
-14.2054

>  <SCORE.INTER.CONST>
1

>  <SCORE.INTER.POLAR>
-3.39276

>  <SCORE.INTER.ROT>
10

>  <SCORE.INTER.SOLV>
19.7143

>  <SCORE.INTER.VDW>
-14.9992

>  <SCORE.INTER.norm>
-0.38393

>  <SCORE.INTRA>
-10.8608

>  <SCORE.INTRA.DIHEDRAL>
-32.0222

>  <SCORE.INTRA.DIHEDRAL.0>
44.8331

>  <SCORE.INTRA.POLAR>
0.0136986

>  <SCORE.INTRA.POLAR.0>
-0.108895

>  <SCORE.INTRA.REPUL>
-0.00912235

>  <SCORE.INTRA.REPUL.0>
0.00912235

>  <SCORE.INTRA.SOLV>
0.963395

>  <SCORE.INTRA.SOLV.lig_0>
-53.9067

>  <SCORE.INTRA.VDW>
4.66768

>  <SCORE.INTRA.VDW.0>
-2.93492

>  <SCORE.INTRA.norm>
-0.293534

>  <SCORE.RESTR>
28.7799

>  <SCORE.RESTR.CAVITY>
28.7799

>  <SCORE.RESTR.norm>
0.777835

>  <SCORE.SYSTEM>
0

>  <SCORE.SYSTEM.CONST>
0

>  <SCORE.SYSTEM.DIHEDRAL>
0

>  <SCORE.SYSTEM.SOLV>
0

>  <SCORE.SYSTEM.norm>
0

>  <SCORE.heavy>
37

>  <SCORE.norm>
0.100371

>  <RMSD>
18.891

$$$$
lig.pdb
 OpenBabel11021811453D
libRbt.so/2013.1/901 2013/11/27
 37 40  0  0  0  0  0  0  0  0999 V2000
  -14.6323   11.0485   12.3413 C   0  0  2  0  0  0  0  0  0  0  0  0
  -15.2224   10.6490   13.7339 C   0  0  1  0  0  0  0  0  0  0  0  0
  -16.0076   11.8029   14.4236 C   0  0  0  0  0  0  0  0  0  0  0  0
  -15.1890   13.1177   14.4141 C   0  0  1  0  0  0  0  0  0  0  0  0
  -14.7864   13.4766   12.9662 C   0  0  1  0  0  0  0  0  0  0  0  0
  -14.0039   14.8164   12.9216 C   0  0  1  0  0  0  0  0  0  0  0  0
  -14.8031   15.9503   13.6303 C   0  0  1  0  0  0  0  0  0  0  0  0
  -15.2683   15.5323   15.0568 C   0  0  2  0  0  0  0  0  0  0  0  0
  -14.7812   18.3854   13.3410 C   0  0  0  0  0  0  0  0  0  0  0  0
  -14.0329   12.3847   12.3644 O   0  0  0  0  0  0  0  0  0  0  0  0
  -15.9037   14.2170   15.0488 O   0  0  0  0  0  0  0  0  0  0  0  0
  -16.1027    9.4699   13.5836 N   0  0  0  0  0  0  0  0  0  0  0  0
  -13.9838   17.1797   13.6532 N   0  0  0  0  0  0  0  0  0  0  0  0
  -12.7046   14.6746   13.4814 O   0  0  0  0  0  0  0  0  0  0  0  0
  -16.1531   16.5443   15.6205 O   0  0  0  0  0  0  0  0  0  0  0  0
  -15.6463   10.9623   11.2940 O   0  0  0  0  0  0  0  0  0  0  0  0
  -16.0068   16.8895   17.0323 C   0  0  2  0  0  0  0  0  0  0  0  0
  -15.4093   18.3157   17.1983 C   0  0  1  0  0  0  0  0  0  0  0  0
  -13.9109   18.3640   16.7833 C   0  0  2  0  0  0  0  0  0  0  0  0
  -13.0874   17.2706   17.5237 C   0  0  1  0  0  0  0  0  0  0  0  0
  -13.7376   15.8684   17.3610 C   0  0  1  0  0  0  0  0  0  0  0  0
  -13.0063   14.7911   18.2044 C   0  0  0  0  0  0  0  0  0  0  0  0
  -15.1538   15.9203   17.7116 O   0  0  0  0  0  0  0  0  0  0  0  0
  -11.6754   17.2656   17.0822 N   0  0  0  0  0  0  0  0  0  0  0  0
  -16.1876   19.2716   16.4805 O   0  0  0  0  0  0  0  0  0  0  0  0
  -13.3576   19.6601   17.0016 O   0  0  0  0  0  0  0  0  0  0  0  0
  -13.1511   15.0524   19.5965 O   0  0  0  0  0  0  0  0  0  0  0  0
  -15.5379    9.8705   10.3346 C   0  0  1  0  0  0  0  0  0  0  0  0
  -14.0677    9.6302    9.8907 C   0  0  1  0  0  0  0  0  0  0  0  0
  -13.9858    8.5284    8.7968 C   0  0  2  0  0  0  0  0  0  0  0  0
  -14.6852    7.2005    9.2343 C   0  0  1  0  0  0  0  0  0  0  0  0
  -16.1147    7.4290    9.8107 C   0  0  0  0  0  0  0  0  0  0  0  0
  -16.1556    8.5548   10.8876 C   0  0  2  0  0  0  0  0  0  0  0  0
  -14.7158    6.2308    8.1187 N   0  0  0  0  0  0  0  0  0  0  0  0
  -17.5496    8.7439   11.3440 N   0  0  0  0  0  0  0  0  0  0  0  0
  -13.4717   10.8404    9.4352 O   0  0  0  0  0  0  0  0  0  0  0  0
  -12.6282    8.2822    8.4390 O   0  0  0  0  0  0  0  0  0  0  0  0
  1  2  1  0  0  0  0
  1 16  1  6  0  0  0
  2  3  1  0  0  0  0
  2 12  1  6  0  0  0
  4 11  1  6  0  0  0
  4  3  1  0  0  0  0
  5  4  1  0  0  0  0
  5 10  1  1  0  0  0
  6  7  1  0  0  0  0
  6  5  1  0  0  0  0
  6 14  1  1  0  0  0
  7  8  1  0  0  0  0
  7 13  1  1  0  0  0
  8 15  1  6  0  0  0
  8 11  1  0  0  0  0
  9 13  1  0  0  0  0
 10  1  1  0  0  0  0
 17 15  1  6  0  0  0
 17 18  1  0  0  0  0
 18 25  1  6  0  0  0
 19 18  1  0  0  0  0
 19 26  1  1  0  0  0
 20 19  1  0  0  0  0
 20 24  1  6  0  0  0
 21 23  1  0  0  0  0
 21 20  1  0  0  0  0
 21 22  1  1  0  0  0
 23 17  1  0  0  0  0
 27 22  1  0  0  0  0
 28 29  1  0  0  0  0
 28 16  1  1  0  0  0
 29 36  1  6  0  0  0
 30 37  1  1  0  0  0
 30 29  1  0  0  0  0
 31 30  1  0  0  0  0
 31 34  1  6  0  0  0
 32 31  1  0  0  0  0
 32 33  1  0  0  0  0
 33 28  1  0  0  0  0
 33 35  1  6  0  0  0
M  END
>  <CHROM.1>
-90.83958851,-139.39844887,138.01901173,53.64864724,109.49241846,-107.97161372
-56.37942357,61.87880705,65.61613075,150.39043370,-57.58821185,-41.32707754
-61.36502335,-53.62819735,-175.57525315,-19.87510278,-14.64805360,13.38619910
13.69553135,1.71195419,-1.14055488,-2.34864416

>  <Name>
lig.pdb

>  <RI>
0

>  <Rbt.Current_Directory>
/home/afrankz/demos/rdock_decoys_rna/rnas/2m4q

>  <Rbt.Executable>
rbdock ($Id: //depot/dev/client3/rdock/2013.1/src/exe/rbdock.cxx#4 $)

>  <Rbt.Library>
libRbt.so (2013.1, Build901 2013/11/27)

>  <Rbt.Parameter_File>
/export/apps/rDock/src/rDock_2013.1_src/data/scripts/dock_solv.prm

>  <Rbt.Receptor>
prm/blind_docking_40.prm

>  <SCORE>
-8.94752

>  <SCORE.INTER>
-21.0689

>  <SCORE.INTER.CONST>
1

>  <SCORE.INTER.POLAR>
-5.21146

>  <SCORE.INTER.ROT>
10

>  <SCORE.INTER.SOLV>
18.8608

>  <SCORE.INTER.VDW>
-13.228

>  <SCORE.INTER.norm>
-0.56943

>  <SCORE.INTRA>
-7.38836

>  <SCORE.INTRA.DIHEDRAL>
-17.3956

>  <SCORE.INTRA.DIHEDRAL.0>
44.8331

>  <SCORE.INTRA.POLAR>
0.0154596

>  <SCORE.INTRA.POLAR.0>
-0.108895

>  <SCORE.INTRA.REPUL>
-0.00912235

>  <SCORE.INTRA.REPUL.0>
0.00912235

>  <SCORE.INTRA.SOLV>
1.3081

>  <SCORE.INTRA.SOLV.lig_0>
-53.9067

>  <SCORE.INTRA.VDW>
0.648449

>  <SCORE.INTRA.VDW.0>
-2.93492

>  <SCORE.INTRA.norm>
-0.199685

>  <SCORE.RESTR>
19.5097

>  <SCORE.RESTR.CAVITY>
19.5097

>  <SCORE.RESTR.norm>
0.52729

>  <SCORE.SYSTEM>
0

>  <SCORE.SYSTEM.CONST>
0

>  <SCORE.SYSTEM.DIHEDRAL>
0

>  <SCORE.SYSTEM.SOLV>
0

>  <SCORE.SYSTEM.norm>
0

>  <SCORE.heavy>
37

>  <SCORE.norm>
-0.241825

>  <RMSD>
18.899

$$$$
lig.pdb
 OpenBabel11021811453D
libRbt.so/2013.1/901 2013/11/27
 37 40  0  0  0  0  0  0  0  0999 V2000
  -15.1111   11.0407   10.5925 C   0  0  2  0  0  0  0  0  0  0  0  0
  -13.6452   11.5862   10.6176 C   0  0  1  0  0  0  0  0  0  0  0  0
  -13.2843   12.3203   11.9422 C   0  0  0  0  0  0  0  0  0  0  0  0
  -14.3728   13.3552   12.3204 C   0  0  1  0  0  0  0  0  0  0  0  0
  -15.7520   12.6632   12.3998 C   0  0  1  0  0  0  0  0  0  0  0  0
  -16.8560   13.6688   12.8234 C   0  0  1  0  0  0  0  0  0  0  0  0
  -16.4649   14.4002   14.1420 C   0  0  1  0  0  0  0  0  0  0  0  0
  -15.0371   15.0181   14.0649 C   0  0  2  0  0  0  0  0  0  0  0  0
  -17.3449   16.6300   13.6249 C   0  0  0  0  0  0  0  0  0  0  0  0
  -16.0648   12.0105   11.1355 O   0  0  0  0  0  0  0  0  0  0  0  0
  -14.0629   14.0535   13.5607 O   0  0  0  0  0  0  0  0  0  0  0  0
  -12.6951   10.4757   10.3907 N   0  0  0  0  0  0  0  0  0  0  0  0
  -17.4913   15.4156   14.4560 N   0  0  0  0  0  0  0  0  0  0  0  0
  -17.1361   14.5967   11.7831 O   0  0  0  0  0  0  0  0  0  0  0  0
  -14.6388   15.5425   15.3653 O   0  0  0  0  0  0  0  0  0  0  0  0
  -15.2137    9.7702   11.3052 O   0  0  0  0  0  0  0  0  0  0  0  0
  -13.2389   15.9059   15.5710 C   0  0  2  0  0  0  0  0  0  0  0  0
  -12.9630   16.2374   17.0651 C   0  0  1  0  0  0  0  0  0  0  0  0
  -13.6239   17.5806   17.4884 C   0  0  2  0  0  0  0  0  0  0  0  0
  -13.2187   18.7340   16.5255 C   0  0  1  0  0  0  0  0  0  0  0  0
  -13.4784   18.3480   15.0426 C   0  0  1  0  0  0  0  0  0  0  0  0
  -12.9543   19.4309   14.0634 C   0  0  0  0  0  0  0  0  0  0  0  0
  -12.8791   17.0511   14.7419 O   0  0  0  0  0  0  0  0  0  0  0  0
  -13.8983   19.9990   16.8811 N   0  0  0  0  0  0  0  0  0  0  0  0
  -13.3754   15.1586   17.9022 O   0  0  0  0  0  0  0  0  0  0  0  0
  -13.3093   17.9055   18.8408 O   0  0  0  0  0  0  0  0  0  0  0  0
  -13.7528   20.6076   14.1339 O   0  0  0  0  0  0  0  0  0  0  0  0
  -15.5612    8.5854   10.5309 C   0  0  1  0  0  0  0  0  0  0  0  0
  -14.4082    8.1511    9.5833 C   0  0  1  0  0  0  0  0  0  0  0  0
  -14.8343    6.9461    8.6980 C   0  0  2  0  0  0  0  0  0  0  0  0
  -15.3750    5.7471    9.5430 C   0  0  1  0  0  0  0  0  0  0  0  0
  -16.4384    6.1783   10.5970 C   0  0  0  0  0  0  0  0  0  0  0  0
  -15.9802    7.4011   11.4475 C   0  0  2  0  0  0  0  0  0  0  0  0
  -15.9052    4.6825    8.6646 N   0  0  0  0  0  0  0  0  0  0  0  0
  -17.0616    7.7779   12.3835 N   0  0  0  0  0  0  0  0  0  0  0  0
  -13.9760    9.2427    8.7776 O   0  0  0  0  0  0  0  0  0  0  0  0
  -13.7501    6.5261    7.8736 O   0  0  0  0  0  0  0  0  0  0  0  0
  1  2  1  0  0  0  0
  1 16  1  1  0  0  0
  2  3  1  0  0  0  0
  2 12  1  1  0  0  0
  4 11  1  1  0  0  0
  4  3  1  0  0  0  0
  5  4  1  0  0  0  0
  5 10  1  6  0  0  0
  6  7  1  0  0  0  0
  6  5  1  0  0  0  0
  6 14  1  6  0  0  0
  7  8  1  0  0  0  0
  7 13  1  6  0  0  0
  8 15  1  1  0  0  0
  8 11  1  0  0  0  0
  9 13  1  0  0  0  0
 10  1  1  0  0  0  0
 17 15  1  1  0  0  0
 17 18  1  0  0  0  0
 18 25  1  1  0  0  0
 19 18  1  0  0  0  0
 19 26  1  1  0  0  0
 20 19  1  0  0  0  0
 20 24  1  1  0  0  0
 21 23  1  0  0  0  0
 21 20  1  0  0  0  0
 21 22  1  6  0  0  0
 23 17  1  0  0  0  0
 27 22  1  0  0  0  0
 28 29  1  0  0  0  0
 28 16  1  1  0  0  0
 29 36  1  6  0  0  0
 30 37  1  1  0  0  0
 30 29  1  0  0  0  0
 31 30  1  0  0  0  0
 31 34  1  6  0  0  0
 32 31  1  0  0  0  0
 32 33  1  0  0  0  0
 33 28  1  0  0  0  0
 33 35  1  1  0  0  0
M  END
>  <CHROM.1>
-49.38875622,167.33903810,-77.54608204,73.60190787,-171.43044289,-114.89119832
179.04712216,61.46501357,-70.35641520,82.76740373,-171.15199137,70.02964719
148.71550169,-173.59421415,74.37564541,-173.26747564,-14.72508362,13.02579848
12.89626109,-1.73592085,0.86713456,0.66717887

>  <Name>
lig.pdb

>  <RI>
0

>  <Rbt.Current_Directory>
/home/afrankz/demos/rdock_decoys_rna/rnas/2m4q

>  <Rbt.Executable>
rbdock ($Id: //depot/dev/client3/rdock/2013.1/src/exe/rbdock.cxx#4 $)

>  <Rbt.Library>
libRbt.so (2013.1, Build901 2013/11/27)

>  <Rbt.Parameter_File>
/export/apps/rDock/src/rDock_2013.1_src/data/scripts/dock_solv.prm

>  <Rbt.Receptor>
prm/blind_docking_40.prm

>  <SCORE>
-4.00351

>  <SCORE.INTER>
-9.16902

>  <SCORE.INTER.CONST>
1

>  <SCORE.INTER.POLAR>
-3.05486

>  <SCORE.INTER.ROT>
10

>  <SCORE.INTER.SOLV>
15.7332

>  <SCORE.INTER.VDW>
-11.4409

>  <SCORE.INTER.norm>
-0.247811

>  <SCORE.INTRA>
-11.6286

>  <SCORE.INTRA.DIHEDRAL>
-28.2105

>  <SCORE.INTRA.DIHEDRAL.0>
44.8331

>  <SCORE.INTRA.POLAR>
-0.702857

>  <SCORE.INTRA.POLAR.0>
-0.108895

>  <SCORE.INTRA.REPUL>
-0.00912235

>  <SCORE.INTRA.REPUL.0>
0.00912235

>  <SCORE.INTRA.SOLV>
0.00651386

>  <SCORE.INTRA.SOLV.lig_0>
-53.9067

>  <SCORE.INTRA.VDW>
4.90874

>  <SCORE.INTRA.VDW.0>
-2.93492

>  <SCORE.INTRA.norm>
-0.314286

>  <SCORE.RESTR>
16.7941

>  <SCORE.RESTR.CAVITY>
16.7941

>  <SCORE.RESTR.norm>
0.453894

>  <SCORE.SYSTEM>
0

>  <SCORE.SYSTEM.CONST>
0

>  <SCORE.SYSTEM.DIHEDRAL>
0

>  <SCORE.SYSTEM.SOLV>
0

>  <SCORE.SYSTEM.norm>
0

>  <SCORE.heavy>
37

>  <SCORE.norm>
-0.108203

>  <RMSD>
18.930

$$$$
lig.pdb
 OpenBabel11021811453D
libRbt.so/2013.1/901 2013/11/27
 37 40  0  0  0  0  0  0  0  0999 V2000
  -15.0868   11.4577   10.3631 C   0  0  2  0  0  0  0  0  0  0  0  0
  -13.5568   11.4380   10.6884 C   0  0  1  0  0  0  0  0  0  0  0  0
  -13.2189   12.0162   12.0939 C   0  0  0  0  0  0  0  0  0  0  0  0
  -13.9166   13.3808   12.3177 C   0  0  1  0  0  0  0  0  0  0  0  0
  -15.4397   13.2346   12.1031 C   0  0  1  0  0  0  0  0  0  0  0  0
  -16.1707   14.5783   12.3670 C   0  0  1  0  0  0  0  0  0  0  0  0
  -15.8051   15.1430   13.7720 C   0  0  1  0  0  0  0  0  0  0  0  0
  -14.2645   15.2025   13.9939 C   0  0  2  0  0  0  0  0  0  0  0  0
  -17.9140   16.3686   14.0252 C   0  0  0  0  0  0  0  0  0  0  0  0
  -15.7161   12.7160   10.7701 O   0  0  0  0  0  0  0  0  0  0  0  0
  -13.6219   13.9425   13.6290 O   0  0  0  0  0  0  0  0  0  0  0  0
  -13.0417   10.0555   10.5834 N   0  0  0  0  0  0  0  0  0  0  0  0
  -16.4406   16.4658   13.9434 N   0  0  0  0  0  0  0  0  0  0  0  0
  -15.8953   15.5258   11.3433 O   0  0  0  0  0  0  0  0  0  0  0  0
  -13.9627   15.5713   15.3714 O   0  0  0  0  0  0  0  0  0  0  0  0
  -15.7715   10.3230   10.9763 O   0  0  0  0  0  0  0  0  0  0  0  0
  -12.8135   16.4366   15.6253 C   0  0  2  0  0  0  0  0  0  0  0  0
  -12.6805   16.7560   17.1415 C   0  0  1  0  0  0  0  0  0  0  0  0
  -13.8097   17.7077   17.6306 C   0  0  2  0  0  0  0  0  0  0  0  0
  -13.8902   18.9852   16.7456 C   0  0  1  0  0  0  0  0  0  0  0  0
  -13.9869   18.6213   15.2377 C   0  0  1  0  0  0  0  0  0  0  0  0
  -13.9305   19.8813   14.3346 C   0  0  0  0  0  0  0  0  0  0  0  0
  -12.9318   17.6807   14.8725 O   0  0  0  0  0  0  0  0  0  0  0  0
  -15.0065   19.8620   17.1622 N   0  0  0  0  0  0  0  0  0  0  0  0
  -12.6364   15.5520   17.9052 O   0  0  0  0  0  0  0  0  0  0  0  0
  -13.6394   18.0448   19.0057 O   0  0  0  0  0  0  0  0  0  0  0  0
  -12.6733   20.5381   14.4583 O   0  0  0  0  0  0  0  0  0  0  0  0
  -15.2971    8.9856   10.6442 C   0  0  1  0  0  0  0  0  0  0  0  0
  -16.1645    7.8793   11.3074 C   0  0  1  0  0  0  0  0  0  0  0  0
  -15.5850    6.4655   11.0203 C   0  0  2  0  0  0  0  0  0  0  0  0
  -15.3787    6.2045    9.4928 C   0  0  1  0  0  0  0  0  0  0  0  0
  -14.6270    7.3653    8.7750 C   0  0  0  0  0  0  0  0  0  0  0  0
  -15.2264    8.7652    9.1064 C   0  0  2  0  0  0  0  0  0  0  0  0
  -14.6925    4.9143    9.2684 N   0  0  0  0  0  0  0  0  0  0  0  0
  -14.4280    9.8110    8.4308 N   0  0  0  0  0  0  0  0  0  0  0  0
  -16.2846    8.1017   12.7087 O   0  0  0  0  0  0  0  0  0  0  0  0
  -16.4200    5.4602   11.5893 O   0  0  0  0  0  0  0  0  0  0  0  0
  1  2  1  0  0  0  0
  1 16  1  1  0  0  0
  2  3  1  0  0  0  0
  2 12  1  1  0  0  0
  4 11  1  1  0  0  0
  4  3  1  0  0  0  0
  5  4  1  0  0  0  0
  5 10  1  6  0  0  0
  6  7  1  0  0  0  0
  6  5  1  0  0  0  0
  6 14  1  6  0  0  0
  7  8  1  0  0  0  0
  7 13  1  6  0  0  0
  8 15  1  1  0  0  0
  8 11  1  0  0  0  0
  9 13  1  0  0  0  0
 10  1  1  0  0  0  0
 17 15  1  1  0  0  0
 17 18  1  0  0  0  0
 18 25  1  1  0  0  0
 19 18  1  0  0  0  0
 19 26  1  1  0  0  0
 20 19  1  0  0  0  0
 20 24  1  1  0  0  0
 21 23  1  0  0  0  0
 21 20  1  0  0  0  0
 21 22  1  6  0  0  0
 23 17  1  0  0  0  0
 27 22  1  0  0  0  0
 28 29  1  0  0  0  0
 28 16  1  6  0  0  0
 29 36  1  1  0  0  0
 30 37  1  6  0  0  0
 30 29  1  0  0  0  0
 31 30  1  0  0  0  0
 31 34  1  1  0  0  0
 32 31  1  0  0  0  0
 32 33  1  0  0  0  0
 33 28  1  0  0  0  0
 33 35  1  6  0  0  0
M  END
>  <CHROM.1>
65.86286276,-143.13995178,67.76572803,-63.34600087,178.13227318,-56.92061557
-15.23981178,-61.85791262,64.01825787,56.60453625,-147.11957788,-176.95870628
-56.38012697,-65.58034706,-62.43724256,-86.70902926,-14.64047924,13.30563716
13.02958276,2.10202781,1.35409476,3.13394507

>  <Name>
lig.pdb

>  <RI>
0

>  <Rbt.Current_Directory>
/home/afrankz/demos/rdock_decoys_rna/rnas/2m4q

>  <Rbt.Executable>
rbdock ($Id: //depot/dev/client3/rdock/2013.1/src/exe/rbdock.cxx#4 $)

>  <Rbt.Library>
libRbt.so (2013.1, Build901 2013/11/27)

>  <Rbt.Parameter_File>
/export/apps/rDock/src/rDock_2013.1_src/data/scripts/dock_solv.prm

>  <Rbt.Receptor>
prm/blind_docking_40.prm

>  <SCORE>
-24.5238

>  <SCORE.INTER>
-36.2688

>  <SCORE.INTER.CONST>
1

>  <SCORE.INTER.POLAR>
-7.23111

>  <SCORE.INTER.ROT>
10

>  <SCORE.INTER.SOLV>
19.2737

>  <SCORE.INTER.VDW>
-16.7667

>  <SCORE.INTER.norm>
-0.980238

>  <SCORE.INTRA>
-1.16472

>  <SCORE.INTRA.DIHEDRAL>
-27.6145

>  <SCORE.INTRA.DIHEDRAL.0>
44.8331

>  <SCORE.INTRA.POLAR>
-0.672137

>  <SCORE.INTRA.POLAR.0>
-0.108895

>  <SCORE.INTRA.REPUL>
-0.00912235

>  <SCORE.INTRA.REPUL.0>
0.00912235

>  <SCORE.INTRA.SOLV>
0.306175

>  <SCORE.INTRA.SOLV.lig_0>
-53.9067

>  <SCORE.INTRA.VDW>
14.8203

>  <SCORE.INTRA.VDW.0>
-2.93492

>  <SCORE.INTRA.norm>
-0.0314788

>  <SCORE.RESTR>
12.9097

>  <SCORE.RESTR.CAVITY>
12.9097

>  <SCORE.RESTR.norm>
0.348911

>  <SCORE.SYSTEM>
0

>  <SCORE.SYSTEM.CONST>
0

>  <SCORE.SYSTEM.DIHEDRAL>
0

>  <SCORE.SYSTEM.SOLV>
0

>  <SCORE.SYSTEM.norm>
0

>  <SCORE.heavy>
37

>  <SCORE.norm>
-0.662806

>  <RMSD>
18.934

$$$$
lig.pdb
 OpenBabel11021811453D
libRbt.so/2013.1/901 2013/11/27
 37 40  0  0  0  0  0  0  0  0999 V2000
  -15.0276   11.4556   10.2689 C   0  0  2  0  0  0  0  0  0  0  0  0
  -13.5007   11.5670   10.5899 C   0  0  1  0  0  0  0  0  0  0  0  0
  -13.2106   12.0869   12.0284 C   0  0  0  0  0  0  0  0  0  0  0  0
  -14.0377   13.3591   12.3388 C   0  0  1  0  0  0  0  0  0  0  0  0
  -15.5406   13.0766   12.1179 C   0  0  1  0  0  0  0  0  0  0  0  0
  -16.3986   14.3222   12.4670 C   0  0  1  0  0  0  0  0  0  0  0  0
  -16.0794   14.8314   13.9042 C   0  0  1  0  0  0  0  0  0  0  0  0
  -14.5506   15.0291   14.1270 C   0  0  2  0  0  0  0  0  0  0  0  0
  -16.8777   16.4158   15.5973 C   0  0  0  0  0  0  0  0  0  0  0  0
  -15.7749   12.6175   10.7554 O   0  0  0  0  0  0  0  0  0  0  0  0
  -13.7897   13.8641   13.6825 O   0  0  0  0  0  0  0  0  0  0  0  0
  -12.8525   10.2516   10.3973 N   0  0  0  0  0  0  0  0  0  0  0  0
  -16.8410   16.0716   14.1595 N   0  0  0  0  0  0  0  0  0  0  0  0
  -16.2260   15.3544   11.5045 O   0  0  0  0  0  0  0  0  0  0  0  0
  -14.2759   15.3392   15.5245 O   0  0  0  0  0  0  0  0  0  0  0  0
  -15.5923   10.2225   10.8105 O   0  0  0  0  0  0  0  0  0  0  0  0
  -12.9981   15.9615   15.8620 C   0  0  2  0  0  0  0  0  0  0  0  0
  -12.9426   16.3377   17.3700 C   0  0  1  0  0  0  0  0  0  0  0  0
  -13.8848   17.5304   17.7010 C   0  0  2  0  0  0  0  0  0  0  0  0
  -13.6096   18.7409   16.7625 C   0  0  1  0  0  0  0  0  0  0  0  0
  -13.6401   18.3143   15.2684 C   0  0  1  0  0  0  0  0  0  0  0  0
  -13.2337   19.4783   14.3268 C   0  0  0  0  0  0  0  0  0  0  0  0
  -12.7792   17.1552   15.0524 O   0  0  0  0  0  0  0  0  0  0  0  0
  -14.5485   19.8535   17.0258 N   0  0  0  0  0  0  0  0  0  0  0  0
  -13.2262   15.1992   18.1812 O   0  0  0  0  0  0  0  0  0  0  0  0
  -13.7760   17.9076   19.0719 O   0  0  0  0  0  0  0  0  0  0  0  0
  -11.8624   19.8183   14.5035 O   0  0  0  0  0  0  0  0  0  0  0  0
  -15.8216    9.1194    9.8862 C   0  0  1  0  0  0  0  0  0  0  0  0
  -15.1290    7.8107   10.3592 C   0  0  1  0  0  0  0  0  0  0  0  0
  -15.3045    6.6742    9.3128 C   0  0  2  0  0  0  0  0  0  0  0  0
  -16.8031    6.4356    8.9372 C   0  0  1  0  0  0  0  0  0  0  0  0
  -17.5584    7.7530    8.5881 C   0  0  0  0  0  0  0  0  0  0  0  0
  -17.3387    8.8714    9.6510 C   0  0  2  0  0  0  0  0  0  0  0  0
  -16.9190    5.4545    7.8371 N   0  0  0  0  0  0  0  0  0  0  0  0
  -18.0428   10.0989    9.2212 N   0  0  0  0  0  0  0  0  0  0  0  0
  -13.7502    8.0375   10.6330 O   0  0  0  0  0  0  0  0  0  0  0  0
  -14.7106    5.4673    9.7844 O   0  0  0  0  0  0  0  0  0  0  0  0
  1  2  1  0  0  0  0
  1 16  1  1  0  0  0
  2  3  1  0  0  0  0
  2 12  1  1  0  0  0
  4 11  1  1  0  0  0
  4  3  1  0  0  0  0
  5  4  1  0  0  0  0
  5 10  1  6  0  0  0
  6  7  1  0  0  0  0
  6  5  1  0  0  0  0
  6 14  1  6  0  0  0
  7  8  1  0  0  0  0
  7 13  1  6  0  0  0
  8 15  1  1  0  0  0
  8 11  1  0  0  0  0
  9 13  1  0  0  0  0
 10  1  1  0  0  0  0
 17 15  1  6  0  0  0
 17 18  1  0  0  0  0
 18 25  1  1  0  0  0
 19 18  1  0  0  0  0
 19 26  1  1  0  0  0
 20 19  1  0  0  0  0
 20 24  1  6  0  0  0
 21 23  1  0  0  0  0
 21 20  1  0  0  0  0
 21 22  1  6  0  0  0
 23 17  1  0  0  0  0
 27 22  1  0  0  0  0
 28 29  1  0  0  0  0
 28 16  1  1  0  0  0
 29 36  1  6  0  0  0
 30 37  1  1  0  0  0
 30 29  1  0  0  0  0
 31 30  1  0  0  0  0
 31 34  1  6  0  0  0
 32 31  1  0  0  0  0
 32 33  1  0  0  0  0
 33 28  1  0  0  0  0
 33 35  1  6  0  0  0
M  END
>  <CHROM.1>
156.68291005,-161.09211913,164.77372865,-175.49719337,174.62072288,-101.86450512
-178.08464874,-171.32002641,67.17558296,-53.29461217,54.54073030,125.56407888
-84.25372675,59.75353331,-63.28809417,51.33318455,-14.80510523,13.21117122
12.88002302,1.78596382,0.66428898,-2.67072501

>  <Name>
lig.pdb

>  <RI>
0

>  <Rbt.Current_Directory>
/home/afrankz/demos/rdock_decoys_rna/rnas/2m4q

>  <Rbt.Executable>
rbdock ($Id: //depot/dev/client3/rdock/2013.1/src/exe/rbdock.cxx#4 $)

>  <Rbt.Library>
libRbt.so (2013.1, Build901 2013/11/27)

>  <Rbt.Parameter_File>
/export/apps/rDock/src/rDock_2013.1_src/data/scripts/dock_solv.prm

>  <Rbt.Receptor>
prm/blind_docking_40.prm

>  <SCORE>
-11.5934

>  <SCORE.INTER>
-17.6053

>  <SCORE.INTER.CONST>
1

>  <SCORE.INTER.POLAR>
-5.29104

>  <SCORE.INTER.ROT>
10

>  <SCORE.INTER.SOLV>
18.4486

>  <SCORE.INTER.VDW>
-10.5163

>  <SCORE.INTER.norm>
-0.475819

>  <SCORE.INTRA>
-11.7559

>  <SCORE.INTRA.DIHEDRAL>
-25.4897

>  <SCORE.INTRA.DIHEDRAL.0>
44.8331

>  <SCORE.INTRA.POLAR>
-0.0607697

>  <SCORE.INTRA.POLAR.0>
-0.108895

>  <SCORE.INTRA.REPUL>
-0.00912235

>  <SCORE.INTRA.REPUL.0>
0.00912235

>  <SCORE.INTRA.SOLV>
-0.269161

>  <SCORE.INTRA.SOLV.lig_0>
-53.9067

>  <SCORE.INTRA.VDW>
1.3757

>  <SCORE.INTRA.VDW.0>
-2.93492

>  <SCORE.INTRA.norm>
-0.317728

>  <SCORE.RESTR>
17.7678

>  <SCORE.RESTR.CAVITY>
17.7678

>  <SCORE.RESTR.norm>
0.480211

>  <SCORE.SYSTEM>
0

>  <SCORE.SYSTEM.CONST>
0

>  <SCORE.SYSTEM.DIHEDRAL>
0

>  <SCORE.SYSTEM.SOLV>
0

>  <SCORE.SYSTEM.norm>
0

>  <SCORE.heavy>
37

>  <SCORE.norm>
-0.313336

>  <RMSD>
18.952

$$$$
lig.pdb
 OpenBabel11021811453D
libRbt.so/2013.1/901 2013/11/27
 37 40  0  0  0  0  0  0  0  0999 V2000
  -13.5500   18.2168   16.4951 C   0  0  2  0  0  0  0  0  0  0  0  0
  -13.2112   16.9433   17.3380 C   0  0  1  0  0  0  0  0  0  0  0  0
  -13.3242   15.6198   16.5260 C   0  0  0  0  0  0  0  0  0  0  0  0
  -14.6644   15.5532   15.7523 C   0  0  1  0  0  0  0  0  0  0  0  0
  -14.8142   16.7994   14.8512 C   0  0  1  0  0  0  0  0  0  0  0  0
  -16.1286   16.7363   14.0277 C   0  0  1  0  0  0  0  0  0  0  0  0
  -16.2247   15.3977   13.2368 C   0  0  1  0  0  0  0  0  0  0  0  0
  -15.9879   14.1604   14.1529 C   0  0  2  0  0  0  0  0  0  0  0  0
  -17.7133   14.0606   11.8190 C   0  0  0  0  0  0  0  0  0  0  0  0
  -14.7286   18.0150   15.6494 O   0  0  0  0  0  0  0  0  0  0  0  0
  -14.7941   14.3261   14.9782 O   0  0  0  0  0  0  0  0  0  0  0  0
  -11.8491   17.0653   17.9014 N   0  0  0  0  0  0  0  0  0  0  0  0
  -17.5302   15.3344   12.5476 N   0  0  0  0  0  0  0  0  0  0  0  0
  -17.2675   16.9276   14.8571 O   0  0  0  0  0  0  0  0  0  0  0  0
  -15.9152   12.9429   13.3550 O   0  0  0  0  0  0  0  0  0  0  0  0
  -12.4076   18.6343   15.6870 O   0  0  0  0  0  0  0  0  0  0  0  0
  -14.9194   11.9350   13.7108 C   0  0  2  0  0  0  0  0  0  0  0  0
  -13.5826   12.1812   12.9551 C   0  0  1  0  0  0  0  0  0  0  0  0
  -13.7124   11.8645   11.4376 C   0  0  2  0  0  0  0  0  0  0  0  0
  -14.2852   10.4357   11.2088 C   0  0  1  0  0  0  0  0  0  0  0  0
  -15.6005   10.2209   12.0083 C   0  0  1  0  0  0  0  0  0  0  0  0
  -16.1106    8.7600   11.8997 C   0  0  0  0  0  0  0  0  0  0  0  0
  -15.4131   10.5963   13.4067 O   0  0  0  0  0  0  0  0  0  0  0  0
  -14.4762   10.1540    9.7691 N   0  0  0  0  0  0  0  0  0  0  0  0
  -13.1177   13.5108   13.1796 O   0  0  0  0  0  0  0  0  0  0  0  0
  -12.4643   12.0313   10.7682 O   0  0  0  0  0  0  0  0  0  0  0  0
  -16.7914    8.3708   13.0881 O   0  0  0  0  0  0  0  0  0  0  0  0
  -12.4517   19.9615   15.0865 C   0  0  1  0  0  0  0  0  0  0  0  0
  -13.8006   20.2272   14.3611 C   0  0  1  0  0  0  0  0  0  0  0  0
  -13.7900   21.6078   13.6464 C   0  0  2  0  0  0  0  0  0  0  0  0
  -13.4097   22.7766   14.6125 C   0  0  1  0  0  0  0  0  0  0  0  0
  -12.1320   22.4779   15.4527 C   0  0  0  0  0  0  0  0  0  0  0  0
  -12.1746   21.0769   16.1341 C   0  0  2  0  0  0  0  0  0  0  0  0
  -13.2666   24.0467   13.8694 N   0  0  0  0  0  0  0  0  0  0  0  0
  -10.9093   20.8507   16.8657 N   0  0  0  0  0  0  0  0  0  0  0  0
  -14.0944   19.1826   13.4391 O   0  0  0  0  0  0  0  0  0  0  0  0
  -15.0511   21.8598   13.0316 O   0  0  0  0  0  0  0  0  0  0  0  0
  1  2  1  0  0  0  0
  1 16  1  6  0  0  0
  2  3  1  0  0  0  0
  2 12  1  6  0  0  0
  4 11  1  6  0  0  0
  4  3  1  0  0  0  0
  5  4  1  0  0  0  0
  5 10  1  1  0  0  0
  6  7  1  0  0  0  0
  6  5  1  0  0  0  0
  6 14  1  1  0  0  0
  7  8  1  0  0  0  0
  7 13  1  1  0  0  0
  8 15  1  6  0  0  0
  8 11  1  0  0  0  0
  9 13  1  0  0  0  0
 10  1  1  0  0  0  0
 17 15  1  6  0  0  0
 17 18  1  0  0  0  0
 18 25  1  6  0  0  0
 19 18  1  0  0  0  0
 19 26  1  6  0  0  0
 20 19  1  0  0  0  0
 20 24  1  6  0  0  0
 21 23  1  0  0  0  0
 21 20  1  0  0  0  0
 21 22  1  1  0  0  0
 23 17  1  0  0  0  0
 27 22  1  0  0  0  0
 28 29  1  0  0  0  0
 28 16  1  1  0  0  0
 29 36  1  6  0  0  0
 30 37  1  1  0  0  0
 30 29  1  0  0  0  0
 31 30  1  0  0  0  0
 31 34  1  6  0  0  0
 32 31  1  0  0  0  0
 32 33  1  0  0  0  0
 33 28  1  0  0  0  0
 33 35  1  6  0  0  0
M  END
>  <CHROM.1>
-79.08751560,139.72947126,-177.65497955,66.24628978,-90.40198410,-166.25695286
-66.15916060,9.32984734,148.47244742,73.64927100,-167.61607762,-48.35343145
-172.43367340,-176.44560134,67.98209178,-102.28996828,-14.37914720,15.94633021
14.00465504,-1.26617249,0.83980429,-3.08900083

>  <Name>
lig.pdb

>  <RI>
0

>  <Rbt.Current_Directory>
/home/afrankz/demos/rdock_decoys_rna/rnas/2m4q

>  <Rbt.Executable>
rbdock ($Id: //depot/dev/client3/rdock/2013.1/src/exe/rbdock.cxx#4 $)

>  <Rbt.Library>
libRbt.so (2013.1, Build901 2013/11/27)

>  <Rbt.Parameter_File>
/export/apps/rDock/src/rDock_2013.1_src/data/scripts/dock_solv.prm

>  <Rbt.Receptor>
prm/blind_docking_80.prm

>  <SCORE>
-6.243

>  <SCORE.INTER>
-27.4285

>  <SCORE.INTER.CONST>
1

>  <SCORE.INTER.POLAR>
-6.08208

>  <SCORE.INTER.ROT>
10

>  <SCORE.INTER.SOLV>
22.9669

>  <SCORE.INTER.VDW>
-15.9343

>  <SCORE.INTER.norm>
-0.74131

>  <SCORE.INTRA>
-3.93758

>  <SCORE.INTRA.DIHEDRAL>
-20.0695

>  <SCORE.INTRA.DIHEDRAL.0>
44.8331

>  <SCORE.INTRA.POLAR>
0.0583928

>  <SCORE.INTRA.POLAR.0>
-0.108895

>  <SCORE.INTRA.REPUL>
-0.00912235

>  <SCORE.INTRA.REPUL.0>
0.00912235

>  <SCORE.INTRA.SOLV>
0.11638

>  <SCORE.INTRA.SOLV.lig_0>
-53.9067

>  <SCORE.INTRA.VDW>
5.88605

>  <SCORE.INTRA.VDW.0>
-2.93492

>  <SCORE.INTRA.norm>
-0.106421

>  <SCORE.RESTR>
25.1231

>  <SCORE.RESTR.CAVITY>
25.1231

>  <SCORE.RESTR.norm>
0.679001

>  <SCORE.SYSTEM>
0

>  <SCORE.SYSTEM.CONST>
0

>  <SCORE.SYSTEM.DIHEDRAL>
0

>  <SCORE.SYSTEM.SOLV>
0

>  <SCORE.SYSTEM.norm>
0

>  <SCORE.heavy>
37

>  <SCORE.norm>
-0.16873

>  <RMSD>
19.026

$$$$
lig.pdb
 OpenBabel11021811453D
libRbt.so/2013.1/901 2013/11/27
 37 40  0  0  0  0  0  0  0  0999 V2000
  -15.8398   13.4798   12.8890 C   0  0  2  0  0  0  0  0  0  0  0  0
  -15.7011   15.0098   12.5943 C   0  0  1  0  0  0  0  0  0  0  0  0
  -14.8047   15.7563   13.6253 C   0  0  0  0  0  0  0  0  0  0  0  0
  -15.2142   15.4054   15.0772 C   0  0  1  0  0  0  0  0  0  0  0  0
  -15.1761   13.8740   15.2793 C   0  0  1  0  0  0  0  0  0  0  0  0
  -15.5374   13.4960   16.7409 C   0  0  1  0  0  0  0  0  0  0  0  0
  -14.6374   14.2663   17.7525 C   0  0  1  0  0  0  0  0  0  0  0  0
  -14.6282   15.7991   17.4754 C   0  0  2  0  0  0  0  0  0  0  0  0
  -13.9533   13.5311   19.9897 C   0  0  0  0  0  0  0  0  0  0  0  0
  -16.0453   13.2139   14.3145 O   0  0  0  0  0  0  0  0  0  0  0  0
  -14.3867   16.0866   16.0638 O   0  0  0  0  0  0  0  0  0  0  0  0
  -15.1618   15.2091   11.2315 N   0  0  0  0  0  0  0  0  0  0  0  0
  -15.0779   13.9550   19.1280 N   0  0  0  0  0  0  0  0  0  0  0  0
  -16.9166   13.7176   17.0058 O   0  0  0  0  0  0  0  0  0  0  0  0
  -13.6492   16.4641   18.3262 O   0  0  0  0  0  0  0  0  0  0  0  0
  -14.6824   12.7398   12.3936 O   0  0  0  0  0  0  0  0  0  0  0  0
  -12.3636   16.8425   17.7448 C   0  0  2  0  0  0  0  0  0  0  0  0
  -11.5531   17.7411   18.7217 C   0  0  1  0  0  0  0  0  0  0  0  0
  -12.1813   19.1578   18.8565 C   0  0  2  0  0  0  0  0  0  0  0  0
  -12.3923   19.8138   17.4611 C   0  0  1  0  0  0  0  0  0  0  0  0
  -13.1751   18.8695   16.5066 C   0  0  1  0  0  0  0  0  0  0  0  0
  -13.2749   19.4513   15.0721 C   0  0  0  0  0  0  0  0  0  0  0  0
  -12.5589   17.5462   16.4819 O   0  0  0  0  0  0  0  0  0  0  0  0
  -13.0530   21.1323   17.5779 N   0  0  0  0  0  0  0  0  0  0  0  0
  -11.4120   17.1028   19.9895 O   0  0  0  0  0  0  0  0  0  0  0  0
  -11.3934   19.9921   19.7029 O   0  0  0  0  0  0  0  0  0  0  0  0
  -12.8718   18.4875   14.1047 O   0  0  0  0  0  0  0  0  0  0  0  0
  -14.8289   12.0149   11.1378 C   0  0  1  0  0  0  0  0  0  0  0  0
  -13.8448   10.8156   11.0403 C   0  0  1  0  0  0  0  0  0  0  0  0
  -13.9497   10.1159    9.6559 C   0  0  2  0  0  0  0  0  0  0  0  0
  -15.4149    9.6950    9.3099 C   0  0  1  0  0  0  0  0  0  0  0  0
  -16.4442   10.8441    9.5290 C   0  0  0  0  0  0  0  0  0  0  0  0
  -16.2907   11.5314   10.9192 C   0  0  2  0  0  0  0  0  0  0  0  0
  -15.4984    9.1688    7.9307 N   0  0  0  0  0  0  0  0  0  0  0  0
  -17.2647   12.6392   11.0268 N   0  0  0  0  0  0  0  0  0  0  0  0
  -12.5081   11.2350   11.2951 O   0  0  0  0  0  0  0  0  0  0  0  0
  -13.0808    8.9873    9.6014 O   0  0  0  0  0  0  0  0  0  0  0  0
  1  2  1  0  0  0  0
  1 16  1  1  0  0  0
  2  3  1  0  0  0  0
  2 12  1  6  0  0  0
  4 11  1  1  0  0  0
  4  3  1  0  0  0  0
  5  4  1  0  0  0  0
  5 10  1  6  0  0  0
  6  7  1  0  0  0  0
  6  5  1  0  0  0  0
  6 14  1  1  0  0  0
  7  8  1  0  0  0  0
  7 13  1  1  0  0  0
  8 15  1  1  0  0  0
  8 11  1  0  0  0  0
  9 13  1  0  0  0  0
 10  1  1  0  0  0  0
 17 15  1  1  0  0  0
 17 18  1  0  0  0  0
 18 25  1  1  0  0  0
 19 18  1  0  0  0  0
 19 26  1  1  0  0  0
 20 19  1  0  0  0  0
 20 24  1  1  0  0  0
 21 23  1  0  0  0  0
 21 20  1  0  0  0  0
 21 22  1  6  0  0  0
 23 17  1  0  0  0  0
 27 22  1  0  0  0  0
 28 29  1  0  0  0  0
 28 16  1  1  0  0  0
 29 36  1  6  0  0  0
 30 37  1  1  0  0  0
 30 29  1  0  0  0  0
 31 30  1  0  0  0  0
 31 34  1  6  0  0  0
 32 31  1  0  0  0  0
 32 33  1  0  0  0  0
 33 28  1  0  0  0  0
 33 35  1  6  0  0  0
M  END
>  <CHROM.1>
-70.42889880,101.51170480,129.14387231,-58.70973063,170.53584070,-101.53447960
166.82542496,-61.15041659,129.64299184,70.12941313,-75.44484223,-154.33395171
-58.07342706,-24.68300037,-34.89562620,-168.25821598,-14.20814068,14.75766850
14.70195399,2.25670057,-1.23414193,-1.65127204

>  <Name>
lig.pdb

>  <RI>
0

>  <Rbt.Current_Directory>
/home/afrankz/demos/rdock_decoys_rna/rnas/2m4q

>  <Rbt.Executable>
rbdock ($Id: //depot/dev/client3/rdock/2013.1/src/exe/rbdock.cxx#4 $)

>  <Rbt.Library>
libRbt.so (2013.1, Build901 2013/11/27)

>  <Rbt.Parameter_File>
/export/apps/rDock/src/rDock_2013.1_src/data/scripts/dock_solv.prm

>  <Rbt.Receptor>
prm/blind_docking_40.prm

>  <SCORE>
-20.4356

>  <SCORE.INTER>
-34.6592

>  <SCORE.INTER.CONST>
1

>  <SCORE.INTER.POLAR>
-6.84771

>  <SCORE.INTER.ROT>
10

>  <SCORE.INTER.SOLV>
21.0789

>  <SCORE.INTER.VDW>
-17.5734

>  <SCORE.INTER.norm>
-0.936734

>  <SCORE.INTRA>
-2.31389

>  <SCORE.INTRA.DIHEDRAL>
-14.8822

>  <SCORE.INTRA.DIHEDRAL.0>
44.8331

>  <SCORE.INTRA.POLAR>
0.0893545

>  <SCORE.INTRA.POLAR.0>
-0.108895

>  <SCORE.INTRA.REPUL>
0.0161001

>  <SCORE.INTRA.REPUL.0>
0.00912235

>  <SCORE.INTRA.SOLV>
-0.620194

>  <SCORE.INTRA.SOLV.lig_0>
-53.9067

>  <SCORE.INTRA.VDW>
5.05301

>  <SCORE.INTRA.VDW.0>
-2.93492

>  <SCORE.INTRA.norm>
-0.0625376

>  <SCORE.RESTR>
16.5375

>  <SCORE.RESTR.CAVITY>
16.5375

>  <SCORE.RESTR.norm>
0.446958

>  <SCORE.SYSTEM>
0

>  <SCORE.SYSTEM.CONST>
0

>  <SCORE.SYSTEM.DIHEDRAL>
0

>  <SCORE.SYSTEM.SOLV>
0

>  <SCORE.SYSTEM.norm>
0

>  <SCORE.heavy>
37

>  <SCORE.norm>
-0.552314

>  <RMSD>
19.065

$$$$
lig.pdb
 OpenBabel11021811453D
libRbt.so/2013.1/901 2013/11/27
 37 40  0  0  0  0  0  0  0  0999 V2000
  -14.2536   17.5568   14.2932 C   0  0  2  0  0  0  0  0  0  0  0  0
  -15.2992   18.0692   13.2486 C   0  0  1  0  0  0  0  0  0  0  0  0
  -16.2897   16.9647   12.7767 C   0  0  0  0  0  0  0  0  0  0  0  0
  -15.5339   15.6765   12.3662 C   0  0  1  0  0  0  0  0  0  0  0  0
  -14.6431   15.1946   13.5332 C   0  0  1  0  0  0  0  0  0  0  0  0
  -13.9086   13.8773   13.1658 C   0  0  1  0  0  0  0  0  0  0  0  0
  -14.9188   12.7941   12.6832 C   0  0  1  0  0  0  0  0  0  0  0  0
  -15.8598   13.3313   11.5642 C   0  0  2  0  0  0  0  0  0  0  0  0
  -13.3576   11.8509   11.0440 C   0  0  0  0  0  0  0  0  0  0  0  0
  -13.7143   16.2448   13.9287 O   0  0  0  0  0  0  0  0  0  0  0  0
  -16.4382   14.6231   11.9255 O   0  0  0  0  0  0  0  0  0  0  0  0
  -16.0566   19.2056   13.8163 N   0  0  0  0  0  0  0  0  0  0  0  0
  -14.1731   11.5941   12.2507 N   0  0  0  0  0  0  0  0  0  0  0  0
  -12.8944   14.1047   12.1956 O   0  0  0  0  0  0  0  0  0  0  0  0
  -16.8968   12.3537   11.2586 O   0  0  0  0  0  0  0  0  0  0  0  0
  -14.8248   17.5183   15.6366 O   0  0  0  0  0  0  0  0  0  0  0  0
  -17.0929   11.9579    9.8662 C   0  0  2  0  0  0  0  0  0  0  0  0
  -18.2094   10.8822    9.7445 C   0  0  1  0  0  0  0  0  0  0  0  0
  -17.7535    9.5113   10.3212 C   0  0  2  0  0  0  0  0  0  0  0  0
  -16.4032    9.0589    9.6936 C   0  0  1  0  0  0  0  0  0  0  0  0
  -15.3273   10.1749    9.8058 C   0  0  1  0  0  0  0  0  0  0  0  0
  -14.0189    9.7925    9.0654 C   0  0  0  0  0  0  0  0  0  0  0  0
  -15.8518   11.4401    9.3005 O   0  0  0  0  0  0  0  0  0  0  0  0
  -15.9290    7.7899   10.2880 N   0  0  0  0  0  0  0  0  0  0  0  0
  -19.4140   11.3389   10.3568 O   0  0  0  0  0  0  0  0  0  0  0  0
  -18.7609    8.5176   10.1447 O   0  0  0  0  0  0  0  0  0  0  0  0
  -13.4579    8.6021    9.6090 O   0  0  0  0  0  0  0  0  0  0  0  0
  -14.0687   16.8294   16.6747 C   0  0  1  0  0  0  0  0  0  0  0  0
  -12.9794   17.7425   17.3038 C   0  0  1  0  0  0  0  0  0  0  0  0
  -12.1220   16.9606   18.3386 C   0  0  2  0  0  0  0  0  0  0  0  0
  -12.9957   16.2614   19.4302 C   0  0  1  0  0  0  0  0  0  0  0  0
  -14.1798   15.4461   18.8293 C   0  0  0  0  0  0  0  0  0  0  0  0
  -14.9993   16.2592   17.7825 C   0  0  2  0  0  0  0  0  0  0  0  0
  -12.1612   15.4110   20.3056 N   0  0  0  0  0  0  0  0  0  0  0  0
  -16.0670   15.4013   17.2245 N   0  0  0  0  0  0  0  0  0  0  0  0
  -12.1550   18.3169   16.2949 O   0  0  0  0  0  0  0  0  0  0  0  0
  -11.1636   17.8240   18.9449 O   0  0  0  0  0  0  0  0  0  0  0  0
  1  2  1  0  0  0  0
  1 16  1  1  0  0  0
  2  3  1  0  0  0  0
  2 12  1  1  0  0  0
  4 11  1  1  0  0  0
  4  3  1  0  0  0  0
  5  4  1  0  0  0  0
  5 10  1  6  0  0  0
  6  7  1  0  0  0  0
  6  5  1  0  0  0  0
  6 14  1  6  0  0  0
  7  8  1  0  0  0  0
  7 13  1  6  0  0  0
  8 15  1  1  0  0  0
  8 11  1  0  0  0  0
  9 13  1  0  0  0  0
 10  1  1  0  0  0  0
 17 15  1  1  0  0  0
 17 18  1  0  0  0  0
 18 25  1  1  0  0  0
 19 18  1  0  0  0  0
 19 26  1  6  0  0  0
 20 19  1  0  0  0  0
 20 24  1  1  0  0  0
 21 23  1  0  0  0  0
 21 20  1  0  0  0  0
 21 22  1  6  0  0  0
 23 17  1  0  0  0  0
 27 22  1  0  0  0  0
 28 29  1  0  0  0  0
 28 16  1  6  0  0  0
 29 36  1  6  0  0  0
 30 37  1  1  0  0  0
 30 29  1  0  0  0  0
 31 30  1  0  0  0  0
 31 34  1  6  0  0  0
 32 31  1  0  0  0  0
 32 33  1  0  0  0  0
 33 28  1  0  0  0  0
 33 35  1  6  0  0  0
M  END
>  <CHROM.1>
161.31638776,-127.89861574,-66.50350698,146.63428643,178.36799027,168.60048668
-52.05422579,-174.68525834,-60.06990130,77.81245541,-91.45278743,83.62790564
-50.58919550,65.73624409,-61.53316948,62.70362429,-14.96525188,13.92489787
13.36682039,1.12815797,-0.84416649,0.46431497

>  <Name>
lig.pdb

>  <RI>
0

>  <Rbt.Current_Directory>
/home/afrankz/demos/rdock_decoys_rna/rnas/2m4q

>  <Rbt.Executable>
rbdock ($Id: //depot/dev/client3/rdock/2013.1/src/exe/rbdock.cxx#4 $)

>  <Rbt.Library>
libRbt.so (2013.1, Build901 2013/11/27)

>  <Rbt.Parameter_File>
/export/apps/rDock/src/rDock_2013.1_src/data/scripts/dock_solv.prm

>  <Rbt.Receptor>
prm/blind_docking_40.prm

>  <SCORE>
11.9881

>  <SCORE.INTER>
0.190383

>  <SCORE.INTER.CONST>
1

>  <SCORE.INTER.POLAR>
-4.54735

>  <SCORE.INTER.ROT>
10

>  <SCORE.INTER.SOLV>
19.3771

>  <SCORE.INTER.VDW>
-1.44095

>  <SCORE.INTER.norm>
0.00514548

>  <SCORE.INTRA>
-5.22015

>  <SCORE.INTRA.DIHEDRAL>
-24.3953

>  <SCORE.INTRA.DIHEDRAL.0>
44.8331

>  <SCORE.INTRA.POLAR>
-0.731347

>  <SCORE.INTRA.POLAR.0>
-0.108895

>  <SCORE.INTRA.REPUL>
-0.00912235

>  <SCORE.INTRA.REPUL.0>
0.00912235

>  <SCORE.INTRA.SOLV>
-0.358812

>  <SCORE.INTRA.SOLV.lig_0>
-53.9067

>  <SCORE.INTRA.VDW>
9.6891

>  <SCORE.INTRA.VDW.0>
-2.93492

>  <SCORE.INTRA.norm>
-0.141085

>  <SCORE.RESTR>
17.0179

>  <SCORE.RESTR.CAVITY>
17.0179

>  <SCORE.RESTR.norm>
0.459943

>  <SCORE.SYSTEM>
0

>  <SCORE.SYSTEM.CONST>
0

>  <SCORE.SYSTEM.DIHEDRAL>
0

>  <SCORE.SYSTEM.SOLV>
0

>  <SCORE.SYSTEM.norm>
0

>  <SCORE.heavy>
37

>  <SCORE.norm>
0.324003

>  <RMSD>
19.067

$$$$
lig.pdb
 OpenBabel11021811453D
libRbt.so/2013.1/901 2013/11/27
 37 40  0  0  0  0  0  0  0  0999 V2000
  -14.7790   17.2883   15.5787 C   0  0  2  0  0  0  0  0  0  0  0  0
  -14.5581   16.0963   16.5674 C   0  0  1  0  0  0  0  0  0  0  0  0
  -14.5758   14.7054   15.8682 C   0  0  0  0  0  0  0  0  0  0  0  0
  -15.8073   14.5639   14.9397 C   0  0  1  0  0  0  0  0  0  0  0  0
  -15.8336   15.7244   13.9199 C   0  0  1  0  0  0  0  0  0  0  0  0
  -17.0332   15.5820   12.9450 C   0  0  1  0  0  0  0  0  0  0  0  0
  -17.0369   14.1780   12.2701 C   0  0  1  0  0  0  0  0  0  0  0  0
  -16.9262   13.0282   13.3151 C   0  0  2  0  0  0  0  0  0  0  0  0
  -18.5854   15.3134   10.7447 C   0  0  0  0  0  0  0  0  0  0  0  0
  -15.8421   17.0065   14.6114 O   0  0  0  0  0  0  0  0  0  0  0  0
  -15.8457   13.2723   14.2673 O   0  0  0  0  0  0  0  0  0  0  0  0
  -13.2777   16.2744   17.2861 N   0  0  0  0  0  0  0  0  0  0  0  0
  -18.2447   14.0475   11.4292 N   0  0  0  0  0  0  0  0  0  0  0  0
  -18.2668   15.8407   13.6029 O   0  0  0  0  0  0  0  0  0  0  0  0
  -16.7607   11.7449   12.6440 O   0  0  0  0  0  0  0  0  0  0  0  0
  -13.5406   17.6380   14.8883 O   0  0  0  0  0  0  0  0  0  0  0  0
  -15.5832   10.9402   12.9597 C   0  0  2  0  0  0  0  0  0  0  0  0
  -14.3033   11.5510   12.3216 C   0  0  1  0  0  0  0  0  0  0  0  0
  -14.2971   11.3879   10.7746 C   0  0  2  0  0  0  0  0  0  0  0  0
  -14.5314    9.9048   10.3652 C   0  0  1  0  0  0  0  0  0  0  0  0
  -15.7992    9.3241   11.0514 C   0  0  1  0  0  0  0  0  0  0  0  0
  -15.9704    7.8097   10.7621 C   0  0  0  0  0  0  0  0  0  0  0  0
  -15.7572    9.5700   12.4898 O   0  0  0  0  0  0  0  0  0  0  0  0
  -14.5959    9.7536    8.8950 N   0  0  0  0  0  0  0  0  0  0  0  0
  -14.1520   12.9152   12.7097 O   0  0  0  0  0  0  0  0  0  0  0  0
  -13.0897   11.8928   10.2083 O   0  0  0  0  0  0  0  0  0  0  0  0
  -15.6490    7.5127    9.4071 O   0  0  0  0  0  0  0  0  0  0  0  0
  -13.1580   19.0438   14.8541 C   0  0  1  0  0  0  0  0  0  0  0  0
  -14.1441   19.8945   14.0054 C   0  0  1  0  0  0  0  0  0  0  0  0
  -13.6654   21.3700   13.9020 C   0  0  2  0  0  0  0  0  0  0  0  0
  -13.4021   22.0112   15.3032 C   0  0  1  0  0  0  0  0  0  0  0  0
  -12.5241   21.1137   16.2258 C   0  0  0  0  0  0  0  0  0  0  0  0
  -13.0260   19.6395   16.2845 C   0  0  2  0  0  0  0  0  0  0  0  0
  -12.8106   23.3588   15.1613 N   0  0  0  0  0  0  0  0  0  0  0  0
  -12.1128   18.8459   17.1352 N   0  0  0  0  0  0  0  0  0  0  0  0
  -14.3182   19.3272   12.7110 O   0  0  0  0  0  0  0  0  0  0  0  0
  -14.6063   22.1482   13.1666 O   0  0  0  0  0  0  0  0  0  0  0  0
  1  2  1  0  0  0  0
  1 16  1  6  0  0  0
  2  3  1  0  0  0  0
  2 12  1  6  0  0  0
  4 11  1  6  0  0  0
  4  3  1  0  0  0  0
  5  4  1  0  0  0  0
  5 10  1  1  0  0  0
  6  7  1  0  0  0  0
  6  5  1  0  0  0  0
  6 14  1  1  0  0  0
  7  8  1  0  0  0  0
  7 13  1  1  0  0  0
  8 15  1  6  0  0  0
  8 11  1  0  0  0  0
  9 13  1  0  0  0  0
 10  1  1  0  0  0  0
 17 15  1  6  0  0  0
 17 18  1  0  0  0  0
 18 25  1  6  0  0  0
 19 18  1  0  0  0  0
 19 26  1  1  0  0  0
 20 19  1  0  0  0  0
 20 24  1  6  0  0  0
 21 23  1  0  0  0  0
 21 20  1  0  0  0  0
 21 22  1  1  0  0  0
 23 17  1  0  0  0  0
 27 22  1  0  0  0  0
 28 29  1  0  0  0  0
 28 16  1  1  0  0  0
 29 36  1  6  0  0  0
 30 37  1  1  0  0  0
 30 29  1  0  0  0  0
 31 30  1  0  0  0  0
 31 34  1  6  0  0  0
 32 31  1  0  0  0  0
 32 33  1  0  0  0  0
 33 28  1  0  0  0  0
 33 35  1  1  0  0  0
M  END
>  <CHROM.1>
82.92297171,122.49320304,37.56105798,-150.05116350,-73.40529464,-131.29257598
46.51071478,88.61868882,-40.53985510,-101.00132850,65.19582049,-66.85527759
-57.07087855,-128.23846991,171.11823197,-42.16221985,-14.98088593,15.16734841
13.35495633,-1.29322084,0.86438485,-2.96777736

>  <Name>
lig.pdb

>  <RI>
0

>  <Rbt.Current_Directory>
/home/afrankz/demos/rdock_decoys_rna/rnas/2m4q

>  <Rbt.Executable>
rbdock ($Id: //depot/dev/client3/rdock/2013.1/src/exe/rbdock.cxx#4 $)

>  <Rbt.Library>
libRbt.so (2013.1, Build901 2013/11/27)

>  <Rbt.Parameter_File>
/export/apps/rDock/src/rDock_2013.1_src/data/scripts/dock_solv.prm

>  <Rbt.Receptor>
prm/blind_docking_80.prm

>  <SCORE>
16.6797

>  <SCORE.INTER>
-15.0521

>  <SCORE.INTER.CONST>
1

>  <SCORE.INTER.POLAR>
-5.02716

>  <SCORE.INTER.ROT>
10

>  <SCORE.INTER.SOLV>
17.9249

>  <SCORE.INTER.VDW>
-9.51913

>  <SCORE.INTER.norm>
-0.406812

>  <SCORE.INTRA>
9.53214

>  <SCORE.INTRA.DIHEDRAL>
-9.66629

>  <SCORE.INTRA.DIHEDRAL.0>
44.8331

>  <SCORE.INTRA.POLAR>
-0.700969

>  <SCORE.INTRA.POLAR.0>
-0.108895

>  <SCORE.INTRA.REPUL>
-0.00912235

>  <SCORE.INTRA.REPUL.0>
0.00912235

>  <SCORE.INTRA.SOLV>
1.90992

>  <SCORE.INTRA.SOLV.lig_0>
-53.9067

>  <SCORE.INTRA.VDW>
15.8392

>  <SCORE.INTRA.VDW.0>
-2.93492

>  <SCORE.INTRA.norm>
0.257625

>  <SCORE.RESTR>
22.1996

>  <SCORE.RESTR.CAVITY>
22.1996

>  <SCORE.RESTR.norm>
0.59999

>  <SCORE.SYSTEM>
0

>  <SCORE.SYSTEM.CONST>
0

>  <SCORE.SYSTEM.DIHEDRAL>
0

>  <SCORE.SYSTEM.SOLV>
0

>  <SCORE.SYSTEM.norm>
0

>  <SCORE.heavy>
37

>  <SCORE.norm>
0.450803

>  <RMSD>
19.067

$$$$
lig.pdb
 OpenBabel11021811453D
libRbt.so/2013.1/901 2013/11/27
 37 40  0  0  0  0  0  0  0  0999 V2000
  -10.3424   -9.0146    7.6299 C   0  0  2  0  0  0  0  0  0  0  0  0
  -10.5321   -7.4643    7.7176 C   0  0  1  0  0  0  0  0  0  0  0  0
   -9.5387   -6.7774    8.7000 C   0  0  0  0  0  0  0  0  0  0  0  0
   -9.5080   -7.5097   10.0644 C   0  0  1  0  0  0  0  0  0  0  0  0
   -9.1725   -9.0031    9.8527 C   0  0  1  0  0  0  0  0  0  0  0  0
   -9.0888   -9.7528   11.2093 C   0  0  1  0  0  0  0  0  0  0  0  0
   -8.1008   -9.0383   12.1788 C   0  0  1  0  0  0  0  0  0  0  0  0
   -8.4102   -7.5173   12.3104 C   0  0  2  0  0  0  0  0  0  0  0  0
   -9.3288   -9.3776   14.2743 C   0  0  0  0  0  0  0  0  0  0  0  0
  -10.1373   -9.6159    8.9495 O   0  0  0  0  0  0  0  0  0  0  0  0
   -8.5809   -6.8906   11.0021 O   0  0  0  0  0  0  0  0  0  0  0  0
  -10.3922   -6.8671    6.3718 N   0  0  0  0  0  0  0  0  0  0  0  0
   -8.1251   -9.7234   13.4877 N   0  0  0  0  0  0  0  0  0  0  0  0
  -10.3744   -9.8986   11.7990 O   0  0  0  0  0  0  0  0  0  0  0  0
   -7.3700   -6.8517   13.0847 O   0  0  0  0  0  0  0  0  0  0  0  0
   -9.2424   -9.3619    6.7344 O   0  0  0  0  0  0  0  0  0  0  0  0
   -7.7355   -5.6853   13.8846 C   0  0  2  0  0  0  0  0  0  0  0  0
   -7.3057   -4.3681   13.1782 C   0  0  1  0  0  0  0  0  0  0  0  0
   -5.7605   -4.1888   13.1852 C   0  0  2  0  0  0  0  0  0  0  0  0
   -5.1861   -4.3208   14.6256 C   0  0  1  0  0  0  0  0  0  0  0  0
   -5.6678   -5.6322   15.3066 C   0  0  1  0  0  0  0  0  0  0  0  0
   -5.2162   -5.7133   16.7884 C   0  0  0  0  0  0  0  0  0  0  0  0
   -7.1190   -5.7552   15.2050 O   0  0  0  0  0  0  0  0  0  0  0  0
   -3.7102   -4.2204   14.6304 N   0  0  0  0  0  0  0  0  0  0  0  0
   -7.8383   -4.3118   11.8562 O   0  0  0  0  0  0  0  0  0  0  0  0
   -5.3834   -2.9475   12.5933 O   0  0  0  0  0  0  0  0  0  0  0  0
   -3.8380   -5.3795   16.9176 O   0  0  0  0  0  0  0  0  0  0  0  0
   -8.6086  -10.6621    6.9128 C   0  0  1  0  0  0  0  0  0  0  0  0
   -9.5861  -11.8322    6.6103 C   0  0  1  0  0  0  0  0  0  0  0  0
   -8.9207  -13.2072    6.8996 C   0  0  2  0  0  0  0  0  0  0  0  0
   -7.5587  -13.3797    6.1519 C   0  0  1  0  0  0  0  0  0  0  0  0
   -6.6100  -12.1565    6.3292 C   0  0  0  0  0  0  0  0  0  0  0  0
   -7.3217  -10.7984    6.0503 C   0  0  2  0  0  0  0  0  0  0  0  0
   -6.8878  -14.6310    6.5646 N   0  0  0  0  0  0  0  0  0  0  0  0
   -6.3717   -9.6906    6.2899 N   0  0  0  0  0  0  0  0  0  0  0  0
  -10.7933  -11.6885    7.3516 O   0  0  0  0  0  0  0  0  0  0  0  0
   -9.8100  -14.2704    6.5670 O   0  0  0  0  0  0  0  0  0  0  0  0
  1  2  1  0  0  0  0
  1 16  1  6  0  0  0
  2  3  1  0  0  0  0
  2 12  1  6  0  0  0
  4 11  1  1  0  0  0
  4  3  1  0  0  0  0
  5  4  1  0  0  0  0
  5 10  1  6  0  0  0
  6  7  1  0  0  0  0
  6  5  1  0  0  0  0
  6 14  1  1  0  0  0
  7  8  1  0  0  0  0
  7 13  1  1  0  0  0
  8 15  1  6  0  0  0
  8 11  1  0  0  0  0
  9 13  1  0  0  0  0
 10  1  1  0  0  0  0
 17 15  1  6  0  0  0
 17 18  1  0  0  0  0
 18 25  1  6  0  0  0
 19 18  1  0  0  0  0
 19 26  1  1  0  0  0
 20 19  1  0  0  0  0
 20 24  1  6  0  0  0
 21 23  1  0  0  0  0
 21 20  1  0  0  0  0
 21 22  1  1  0  0  0
 23 17  1  0  0  0  0
 27 22  1  0  0  0  0
 28 29  1  0  0  0  0
 28 16  1  6  0  0  0
 29 36  1  1  0  0  0
 30 37  1  6  0  0  0
 30 29  1  0  0  0  0
 31 30  1  0  0  0  0
 31 34  1  1  0  0  0
 32 31  1  0  0  0  0
 32 33  1  0  0  0  0
 33 28  1  0  0  0  0
 33 35  1  1  0  0  0
M  END
>  <CHROM.1>
-57.12684662,-149.42057289,-76.70334612,-54.51562516,-102.08592210,157.36535249
-46.17299128,62.53232284,-47.07022258,106.22719462,-179.92366542,64.83418289
-46.23545089,-72.36509233,-178.94066469,13.94509384,-7.97416957,-8.35067228
10.54755227,2.30741163,1.14081453,-2.96357163

>  <Name>
lig.pdb

>  <RI>
0

>  <Rbt.Current_Directory>
/home/afrankz/demos/rdock_decoys_rna/rnas/2m4q

>  <Rbt.Executable>
rbdock ($Id: //depot/dev/client3/rdock/2013.1/src/exe/rbdock.cxx#4 $)

>  <Rbt.Library>
libRbt.so (2013.1, Build901 2013/11/27)

>  <Rbt.Parameter_File>
/export/apps/rDock/src/rDock_2013.1_src/data/scripts/dock_solv.prm

>  <Rbt.Receptor>
prm/blind_docking_40.prm

>  <SCORE>
-13.098

>  <SCORE.INTER>
-18.8163

>  <SCORE.INTER.CONST>
1

>  <SCORE.INTER.POLAR>
-4.66212

>  <SCORE.INTER.ROT>
10

>  <SCORE.INTER.SOLV>
22.3145

>  <SCORE.INTER.VDW>
-14.7086

>  <SCORE.INTER.norm>
-0.508549

>  <SCORE.INTRA>
-13.5703

>  <SCORE.INTRA.DIHEDRAL>
-24.848

>  <SCORE.INTRA.DIHEDRAL.0>
44.8331

>  <SCORE.INTRA.POLAR>
-1.82431

>  <SCORE.INTRA.POLAR.0>
-0.108895

>  <SCORE.INTRA.REPUL>
-0.00912235

>  <SCORE.INTRA.REPUL.0>
0.00912235

>  <SCORE.INTRA.SOLV>
-0.307061

>  <SCORE.INTRA.SOLV.lig_0>
-53.9067

>  <SCORE.INTRA.VDW>
5.25549

>  <SCORE.INTRA.VDW.0>
-2.93492

>  <SCORE.INTRA.norm>
-0.366764

>  <SCORE.RESTR>
19.2886

>  <SCORE.RESTR.CAVITY>
19.2886

>  <SCORE.RESTR.norm>
0.521314

>  <SCORE.SYSTEM>
0

>  <SCORE.SYSTEM.CONST>
0

>  <SCORE.SYSTEM.DIHEDRAL>
0

>  <SCORE.SYSTEM.SOLV>
0

>  <SCORE.SYSTEM.norm>
0

>  <SCORE.heavy>
37

>  <SCORE.norm>
-0.353999

>  <RMSD>
19.117

$$$$
lig.pdb
 OpenBabel11021811453D
libRbt.so/2013.1/901 2013/11/27
 37 40  0  0  0  0  0  0  0  0999 V2000
  -13.4717   18.2624   16.8820 C   0  0  2  0  0  0  0  0  0  0  0  0
  -13.1682   16.8726   17.5328 C   0  0  1  0  0  0  0  0  0  0  0  0
  -12.9362   15.7416   16.4884 C   0  0  0  0  0  0  0  0  0  0  0  0
  -14.0571   15.7313   15.4196 C   0  0  1  0  0  0  0  0  0  0  0  0
  -14.1616   17.1214   14.7532 C   0  0  1  0  0  0  0  0  0  0  0  0
  -15.2471   17.1268   13.6436 C   0  0  1  0  0  0  0  0  0  0  0  0
  -15.0015   15.9780   12.6206 C   0  0  1  0  0  0  0  0  0  0  0  0
  -14.8171   14.6003   13.3237 C   0  0  2  0  0  0  0  0  0  0  0  0
  -17.3368   15.3567   12.2038 C   0  0  0  0  0  0  0  0  0  0  0  0
  -14.4037   18.1480   15.7580 O   0  0  0  0  0  0  0  0  0  0  0  0
  -13.8614   14.6850   14.4251 O   0  0  0  0  0  0  0  0  0  0  0  0
  -11.9872   16.9823   18.4164 N   0  0  0  0  0  0  0  0  0  0  0  0
  -16.1075   15.9561   11.6412 N   0  0  0  0  0  0  0  0  0  0  0  0
  -16.5538   17.0514   14.1990 O   0  0  0  0  0  0  0  0  0  0  0  0
  -14.4215   13.5843   12.3563 O   0  0  0  0  0  0  0  0  0  0  0  0
  -12.2420   18.9273   16.4595 O   0  0  0  0  0  0  0  0  0  0  0  0
  -13.7271   12.3939   12.8407 C   0  0  2  0  0  0  0  0  0  0  0  0
  -13.7338   11.2691   11.7668 C   0  0  1  0  0  0  0  0  0  0  0  0
  -15.1528   10.6594   11.5804 C   0  0  2  0  0  0  0  0  0  0  0  0
  -15.7511   10.2024   12.9424 C   0  0  1  0  0  0  0  0  0  0  0  0
  -15.6930   11.3441   13.9953 C   0  0  1  0  0  0  0  0  0  0  0  0
  -16.1593   10.8638   15.3947 C   0  0  0  0  0  0  0  0  0  0  0  0
  -14.3459   11.9023   14.0670 O   0  0  0  0  0  0  0  0  0  0  0  0
  -17.1278    9.6853   12.7819 N   0  0  0  0  0  0  0  0  0  0  0  0
  -13.1990   11.7494   10.5347 O   0  0  0  0  0  0  0  0  0  0  0  0
  -15.1329    9.5862   10.6417 O   0  0  0  0  0  0  0  0  0  0  0  0
  -15.5332    9.6334   15.7432 O   0  0  0  0  0  0  0  0  0  0  0  0
  -12.3663   20.1975   15.7558 C   0  0  1  0  0  0  0  0  0  0  0  0
  -13.3081   20.0902   14.5239 C   0  0  1  0  0  0  0  0  0  0  0  0
  -13.3506   21.4279   13.7328 C   0  0  2  0  0  0  0  0  0  0  0  0
  -13.7180   22.6463   14.6409 C   0  0  1  0  0  0  0  0  0  0  0  0
  -12.8778   22.7011   15.9519 C   0  0  0  0  0  0  0  0  0  0  0  0
  -12.8443   21.3354   16.7019 C   0  0  2  0  0  0  0  0  0  0  0  0
  -13.6049   23.9145   13.8893 N   0  0  0  0  0  0  0  0  0  0  0  0
  -11.9881   21.4576   17.9016 N   0  0  0  0  0  0  0  0  0  0  0  0
  -12.9151   19.0145   13.6777 O   0  0  0  0  0  0  0  0  0  0  0  0
  -14.2584   21.3305   12.6383 O   0  0  0  0  0  0  0  0  0  0  0  0
  1  2  1  0  0  0  0
  1 16  1  6  0  0  0
  2  3  1  0  0  0  0
  2 12  1  6  0  0  0
  4 11  1  6  0  0  0
  4  3  1  0  0  0  0
  5  4  1  0  0  0  0
  5 10  1  1  0  0  0
  6  7  1  0  0  0  0
  6  5  1  0  0  0  0
  6 14  1  1  0  0  0
  7  8  1  0  0  0  0
  7 13  1  6  0  0  0
  8 15  1  6  0  0  0
  8 11  1  0  0  0  0
  9 13  1  0  0  0  0
 10  1  1  0  0  0  0
 17 15  1  6  0  0  0
 17 18  1  0  0  0  0
 18 25  1  6  0  0  0
 19 18  1  0  0  0  0
 19 26  1  6  0  0  0
 20 19  1  0  0  0  0
 20 24  1  6  0  0  0
 21 23  1  0  0  0  0
 21 20  1  0  0  0  0
 21 22  1  1  0  0  0
 23 17  1  0  0  0  0
 27 22  1  0  0  0  0
 28 29  1  0  0  0  0
 28 16  1  1  0  0  0
 29 36  1  6  0  0  0
 30 37  1  6  0  0  0
 30 29  1  0  0  0  0
 31 30  1  0  0  0  0
 31 34  1  6  0  0  0
 32 31  1  0  0  0  0
 32 33  1  0  0  0  0
 33 28  1  0  0  0  0
 33 35  1  1  0  0  0
M  END
>  <CHROM.1>
84.31937425,157.35761372,-76.42759801,64.61887066,164.41024122,176.15207374
154.66784161,70.26151169,47.55504622,77.96394177,-61.23947077,-53.69194501
-33.08617920,-172.65221428,172.08879977,71.24407959,-14.23958854,16.05927253
14.23983492,-0.96004928,1.21511120,2.82074911

>  <Name>
lig.pdb

>  <RI>
0

>  <Rbt.Current_Directory>
/home/afrankz/demos/rdock_decoys_rna/rnas/2m4q

>  <Rbt.Executable>
rbdock ($Id: //depot/dev/client3/rdock/2013.1/src/exe/rbdock.cxx#4 $)

>  <Rbt.Library>
libRbt.so (2013.1, Build901 2013/11/27)

>  <Rbt.Parameter_File>
/export/apps/rDock/src/rDock_2013.1_src/data/scripts/dock_solv.prm

>  <Rbt.Receptor>
prm/blind_docking_80.prm

>  <SCORE>
-15.1427

>  <SCORE.INTER>
-31.2448

>  <SCORE.INTER.CONST>
1

>  <SCORE.INTER.POLAR>
-7.69716

>  <SCORE.INTER.ROT>
10

>  <SCORE.INTER.SOLV>
23.0063

>  <SCORE.INTER.VDW>
-13.1081

>  <SCORE.INTER.norm>
-0.844454

>  <SCORE.INTRA>
-8.17291

>  <SCORE.INTRA.DIHEDRAL>
-31.463

>  <SCORE.INTRA.DIHEDRAL.0>
44.8331

>  <SCORE.INTRA.POLAR>
-0.102119

>  <SCORE.INTRA.POLAR.0>
-0.108895

>  <SCORE.INTRA.REPUL>
-0.00912235

>  <SCORE.INTRA.REPUL.0>
0.00912235

>  <SCORE.INTRA.SOLV>
0.0707187

>  <SCORE.INTRA.SOLV.lig_0>
-53.9067

>  <SCORE.INTRA.VDW>
7.91606

>  <SCORE.INTRA.VDW.0>
-2.93492

>  <SCORE.INTRA.norm>
-0.22089

>  <SCORE.RESTR>
24.275

>  <SCORE.RESTR.CAVITY>
24.275

>  <SCORE.RESTR.norm>
0.656081

>  <SCORE.SYSTEM>
0

>  <SCORE.SYSTEM.CONST>
0

>  <SCORE.SYSTEM.DIHEDRAL>
0

>  <SCORE.SYSTEM.SOLV>
0

>  <SCORE.SYSTEM.norm>
0

>  <SCORE.heavy>
37

>  <SCORE.norm>
-0.409262

>  <RMSD>
19.118

$$$$
lig.pdb
 OpenBabel11021811453D
libRbt.so/2013.1/901 2013/11/27
 37 40  0  0  0  0  0  0  0  0999 V2000
  -15.5928    9.8221    8.4570 C   0  0  2  0  0  0  0  0  0  0  0  0
  -14.5179   10.4238    9.4212 C   0  0  1  0  0  0  0  0  0  0  0  0
  -15.1273   11.0389   10.7151 C   0  0  0  0  0  0  0  0  0  0  0  0
  -16.3071   11.9850   10.3805 C   0  0  1  0  0  0  0  0  0  0  0  0
  -17.3654   11.2311    9.5444 C   0  0  1  0  0  0  0  0  0  0  0  0
  -18.5827   12.1429    9.2339 C   0  0  1  0  0  0  0  0  0  0  0  0
  -19.1645   12.7571   10.5419 C   0  0  1  0  0  0  0  0  0  0  0  0
  -18.0628   13.4391   11.4065 C   0  0  2  0  0  0  0  0  0  0  0  0
  -21.4941   12.9843    9.8104 C   0  0  0  0  0  0  0  0  0  0  0  0
  -16.7637   10.6930    8.3318 O   0  0  0  0  0  0  0  0  0  0  0  0
  -16.9005   12.5706   11.5751 O   0  0  0  0  0  0  0  0  0  0  0  0
  -13.5326    9.3819    9.7833 N   0  0  0  0  0  0  0  0  0  0  0  0
  -20.2543   13.6927   10.1953 N   0  0  0  0  0  0  0  0  0  0  0  0
  -18.2432   13.1558    8.2956 O   0  0  0  0  0  0  0  0  0  0  0  0
  -18.6082   13.8497   12.6943 O   0  0  0  0  0  0  0  0  0  0  0  0
  -15.9950    8.4847    8.8836 O   0  0  0  0  0  0  0  0  0  0  0  0
  -17.7871   14.6895   13.5629 C   0  0  2  0  0  0  0  0  0  0  0  0
  -16.8160   15.5723   12.7286 C   0  0  1  0  0  0  0  0  0  0  0  0
  -15.6858   14.7261   12.0755 C   0  0  2  0  0  0  0  0  0  0  0  0
  -14.9539   13.8528   13.1355 C   0  0  1  0  0  0  0  0  0  0  0  0
  -15.9627   13.0141   13.9688 C   0  0  1  0  0  0  0  0  0  0  0  0
  -15.2622   12.2429   15.1181 C   0  0  0  0  0  0  0  0  0  0  0  0
  -17.0223   13.8691   14.4958 O   0  0  0  0  0  0  0  0  0  0  0  0
  -13.9241   12.9940   12.5106 N   0  0  0  0  0  0  0  0  0  0  0  0
  -17.5362   16.3305   11.7586 O   0  0  0  0  0  0  0  0  0  0  0  0
  -14.7657   15.5544   11.3679 O   0  0  0  0  0  0  0  0  0  0  0  0
  -16.0993   11.2043   15.6159 O   0  0  0  0  0  0  0  0  0  0  0  0
  -15.2139    7.3549    8.3964 C   0  0  1  0  0  0  0  0  0  0  0  0
  -14.3710    7.7272    7.1445 C   0  0  1  0  0  0  0  0  0  0  0  0
  -13.6217    6.4856    6.5840 C   0  0  2  0  0  0  0  0  0  0  0  0
  -12.7594    5.7678    7.6726 C   0  0  1  0  0  0  0  0  0  0  0  0
  -13.5452    5.5030    8.9918 C   0  0  0  0  0  0  0  0  0  0  0  0
  -14.2979    6.7666    9.5070 C   0  0  2  0  0  0  0  0  0  0  0  0
  -12.1819    4.5141    7.1427 N   0  0  0  0  0  0  0  0  0  0  0  0
  -15.0571    6.4192   10.7278 N   0  0  0  0  0  0  0  0  0  0  0  0
  -15.1890    8.3200    6.1410 O   0  0  0  0  0  0  0  0  0  0  0  0
  -12.8124    6.8537    5.4699 O   0  0  0  0  0  0  0  0  0  0  0  0
  1  2  1  0  0  0  0
  1 16  1  1  0  0  0
  2  3  1  0  0  0  0
  2 12  1  1  0  0  0
  4 11  1  1  0  0  0
  4  3  1  0  0  0  0
  5  4  1  0  0  0  0
  5 10  1  6  0  0  0
  6  7  1  0  0  0  0
  6  5  1  0  0  0  0
  6 14  1  6  0  0  0
  7  8  1  0  0  0  0
  7 13  1  6  0  0  0
  8 15  1  1  0  0  0
  8 11  1  0  0  0  0
  9 13  1  0  0  0  0
 10  1  1  0  0  0  0
 17 15  1  6  0  0  0
 17 18  1  0  0  0  0
 18 25  1  6  0  0  0
 19 18  1  0  0  0  0
 19 26  1  1  0  0  0
 20 19  1  0  0  0  0
 20 24  1  6  0  0  0
 21 23  1  0  0  0  0
 21 20  1  0  0  0  0
 21 22  1  1  0  0  0
 23 17  1  0  0  0  0
 27 22  1  0  0  0  0
 28 29  1  0  0  0  0
 28 16  1  1  0  0  0
 29 36  1  6  0  0  0
 30 37  1  6  0  0  0
 30 29  1  0  0  0  0
 31 30  1  0  0  0  0
 31 34  1  6  0  0  0
 32 31  1  0  0  0  0
 32 33  1  0  0  0  0
 33 28  1  0  0  0  0
 33 35  1  1  0  0  0
M  END
>  <CHROM.1>
45.24850918,-170.69015673,75.59802754,-71.58737160,28.85131053,-87.77631767
-168.89982826,-172.96886909,-163.17105593,11.35872785,-175.06681023,-18.68333185
93.03559423,-168.15598024,-88.97107775,-75.72270432,-15.97379221,11.02334161
10.35933479,1.05334915,0.71943127,-2.20668929

>  <Name>
lig.pdb

>  <RI>
0

>  <Rbt.Current_Directory>
/home/afrankz/demos/rdock_decoys_rna/rnas/2m4q

>  <Rbt.Executable>
rbdock ($Id: //depot/dev/client3/rdock/2013.1/src/exe/rbdock.cxx#4 $)

>  <Rbt.Library>
libRbt.so (2013.1, Build901 2013/11/27)

>  <Rbt.Parameter_File>
/export/apps/rDock/src/rDock_2013.1_src/data/scripts/dock_solv.prm

>  <Rbt.Receptor>
prm/blind_docking_80.prm

>  <SCORE>
12.9019

>  <SCORE.INTER>
-15.0053

>  <SCORE.INTER.CONST>
1

>  <SCORE.INTER.POLAR>
-3.9161

>  <SCORE.INTER.ROT>
10

>  <SCORE.INTER.SOLV>
20.2221

>  <SCORE.INTER.VDW>
-13.9572

>  <SCORE.INTER.norm>
-0.405548

>  <SCORE.INTRA>
2.01247

>  <SCORE.INTRA.DIHEDRAL>
-19.7983

>  <SCORE.INTRA.DIHEDRAL.0>
44.8331

>  <SCORE.INTRA.POLAR>
0.0712416

>  <SCORE.INTRA.POLAR.0>
-0.108895

>  <SCORE.INTRA.REPUL>
0.000652016

>  <SCORE.INTRA.REPUL.0>
0.00912235

>  <SCORE.INTRA.SOLV>
1.59678

>  <SCORE.INTRA.SOLV.lig_0>
-53.9067

>  <SCORE.INTRA.VDW>
10.8678

>  <SCORE.INTRA.VDW.0>
-2.93492

>  <SCORE.INTRA.norm>
0.0543912

>  <SCORE.RESTR>
25.8947

>  <SCORE.RESTR.CAVITY>
25.8947

>  <SCORE.RESTR.norm>
0.699857

>  <SCORE.SYSTEM>
0

>  <SCORE.SYSTEM.CONST>
0

>  <SCORE.SYSTEM.DIHEDRAL>
0

>  <SCORE.SYSTEM.SOLV>
0

>  <SCORE.SYSTEM.norm>
0

>  <SCORE.heavy>
37

>  <SCORE.norm>
0.3487

>  <RMSD>
19.175

$$$$
lig.pdb
 OpenBabel11021811453D
libRbt.so/2013.1/901 2013/11/27
 37 40  0  0  0  0  0  0  0  0999 V2000
  -13.6069   18.1148   16.9433 C   0  0  2  0  0  0  0  0  0  0  0  0
  -13.2506   16.7204   17.5563 C   0  0  1  0  0  0  0  0  0  0  0  0
  -12.9444   15.6360   16.4820 C   0  0  0  0  0  0  0  0  0  0  0  0
  -14.0421   15.6078   15.3897 C   0  0  1  0  0  0  0  0  0  0  0  0
  -14.1993   17.0124   14.7653 C   0  0  1  0  0  0  0  0  0  0  0  0
  -15.2617   17.0030   13.6335 C   0  0  1  0  0  0  0  0  0  0  0  0
  -14.9413   15.9008   12.5803 C   0  0  1  0  0  0  0  0  0  0  0  0
  -14.7057   14.5112   13.2433 C   0  0  2  0  0  0  0  0  0  0  0  0
  -17.2814   15.3156   12.1381 C   0  0  0  0  0  0  0  0  0  0  0  0
  -14.5100   17.9933   15.7966 O   0  0  0  0  0  0  0  0  0  0  0  0
  -13.7771   14.6047   14.3671 O   0  0  0  0  0  0  0  0  0  0  0  0
  -12.0940   16.8566   18.4680 N   0  0  0  0  0  0  0  0  0  0  0  0
  -16.0255   15.8589   11.5773 N   0  0  0  0  0  0  0  0  0  0  0  0
  -16.5740   16.8483   14.1582 O   0  0  0  0  0  0  0  0  0  0  0  0
  -14.2430   13.5468   12.2532 O   0  0  0  0  0  0  0  0  0  0  0  0
  -12.4022   18.8501   16.5683 O   0  0  0  0  0  0  0  0  0  0  0  0
  -14.3450   12.1235   12.5659 C   0  0  2  0  0  0  0  0  0  0  0  0
  -13.6241   11.2633   11.4894 C   0  0  1  0  0  0  0  0  0  0  0  0
  -14.3947   11.2674   10.1382 C   0  0  2  0  0  0  0  0  0  0  0  0
  -15.8844   10.8647   10.3398 C   0  0  1  0  0  0  0  0  0  0  0  0
  -16.5560   11.7244   11.4468 C   0  0  1  0  0  0  0  0  0  0  0  0
  -17.9988   11.2450   11.7548 C   0  0  0  0  0  0  0  0  0  0  0  0
  -15.7432   11.7178   12.6595 O   0  0  0  0  0  0  0  0  0  0  0  0
  -16.6398   10.9337    9.0697 N   0  0  0  0  0  0  0  0  0  0  0  0
  -12.2729   11.6912   11.3286 O   0  0  0  0  0  0  0  0  0  0  0  0
  -13.7593   10.4236    9.1803 O   0  0  0  0  0  0  0  0  0  0  0  0
  -18.1776    9.8885   11.3607 O   0  0  0  0  0  0  0  0  0  0  0  0
  -12.5722   20.1156   15.8659 C   0  0  1  0  0  0  0  0  0  0  0  0
  -13.3523   19.9406   14.5328 C   0  0  1  0  0  0  0  0  0  0  0  0
  -13.4383   21.2833   13.7536 C   0  0  2  0  0  0  0  0  0  0  0  0
  -14.0268   22.4411   14.6236 C   0  0  1  0  0  0  0  0  0  0  0  0
  -13.3510   22.5522   16.0231 C   0  0  0  0  0  0  0  0  0  0  0  0
  -13.2664   21.1817   16.7603 C   0  0  2  0  0  0  0  0  0  0  0  0
  -13.9566   23.7290   13.9009 N   0  0  0  0  0  0  0  0  0  0  0  0
  -12.5687   21.3638   18.0516 N   0  0  0  0  0  0  0  0  0  0  0  0
  -12.7598   18.9261   13.7284 O   0  0  0  0  0  0  0  0  0  0  0  0
  -14.2013   21.1187   12.5609 O   0  0  0  0  0  0  0  0  0  0  0  0
  1  2  1  0  0  0  0
  1 16  1  6  0  0  0
  2  3  1  0  0  0  0
  2 12  1  1  0  0  0
  4 11  1  6  0  0  0
  4  3  1  0  0  0  0
  5  4  1  0  0  0  0
  5 10  1  1  0  0  0
  6  7  1  0  0  0  0
  6  5  1  0  0  0  0
  6 14  1  1  0  0  0
  7  8  1  0  0  0  0
  7 13  1  6  0  0  0
  8 15  1  6  0  0  0
  8 11  1  0  0  0  0
  9 13  1  0  0  0  0
 10  1  1  0  0  0  0
 17 15  1  6  0  0  0
 17 18  1  0  0  0  0
 18 25  1  6  0  0  0
 19 18  1  0  0  0  0
 19 26  1  6  0  0  0
 20 19  1  0  0  0  0
 20 24  1  6  0  0  0
 21 23  1  0  0  0  0
 21 20  1  0  0  0  0
 21 22  1  1  0  0  0
 23 17  1  0  0  0  0
 27 22  1  0  0  0  0
 28 29  1  0  0  0  0
 28 16  1  1  0  0  0
 29 36  1  6  0  0  0
 30 37  1  6  0  0  0
 30 29  1  0  0  0  0
 31 30  1  0  0  0  0
 31 34  1  6  0  0  0
 32 31  1  0  0  0  0
 32 33  1  0  0  0  0
 33 28  1  0  0  0  0
 33 35  1  1  0  0  0
M  END
>  <CHROM.1>
173.05552245,-161.99471847,-70.33577596,60.26661712,-171.93540557,174.30655411
-171.23216920,61.77365979,22.26235764,12.86236383,-72.45927913,-58.88164243
-39.73275579,-68.72858576,174.38455085,-52.53655565,-14.40694980,16.07766694
13.66525444,-1.10629861,1.07654486,-3.08285996

>  <Name>
lig.pdb

>  <RI>
0

>  <Rbt.Current_Directory>
/home/afrankz/demos/rdock_decoys_rna/rnas/2m4q

>  <Rbt.Executable>
rbdock ($Id: //depot/dev/client3/rdock/2013.1/src/exe/rbdock.cxx#4 $)

>  <Rbt.Library>
libRbt.so (2013.1, Build901 2013/11/27)

>  <Rbt.Parameter_File>
/export/apps/rDock/src/rDock_2013.1_src/data/scripts/dock_solv.prm

>  <Rbt.Receptor>
prm/blind_docking_40.prm

>  <SCORE>
-17.6572

>  <SCORE.INTER>
-27.4466

>  <SCORE.INTER.CONST>
1

>  <SCORE.INTER.POLAR>
-7.40382

>  <SCORE.INTER.ROT>
10

>  <SCORE.INTER.SOLV>
23.0685

>  <SCORE.INTER.VDW>
-11.5745

>  <SCORE.INTER.norm>
-0.741801

>  <SCORE.INTRA>
-9.28279

>  <SCORE.INTRA.DIHEDRAL>
-32.7643

>  <SCORE.INTRA.DIHEDRAL.0>
44.8331

>  <SCORE.INTRA.POLAR>
0.00394523

>  <SCORE.INTRA.POLAR.0>
-0.108895

>  <SCORE.INTRA.REPUL>
-0.00912235

>  <SCORE.INTRA.REPUL.0>
0.00912235

>  <SCORE.INTRA.SOLV>
0.100863

>  <SCORE.INTRA.SOLV.lig_0>
-53.9067

>  <SCORE.INTRA.VDW>
7.08112

>  <SCORE.INTRA.VDW.0>
-2.93492

>  <SCORE.INTRA.norm>
-0.250886

>  <SCORE.RESTR>
19.0722

>  <SCORE.RESTR.CAVITY>
19.0722

>  <SCORE.RESTR.norm>
0.515465

>  <SCORE.SYSTEM>
0

>  <SCORE.SYSTEM.CONST>
0

>  <SCORE.SYSTEM.DIHEDRAL>
0

>  <SCORE.SYSTEM.SOLV>
0

>  <SCORE.SYSTEM.norm>
0

>  <SCORE.heavy>
37

>  <SCORE.norm>
-0.477222

>  <RMSD>
19.205

$$$$
lig.pdb
 OpenBabel11021811453D
libRbt.so/2013.1/901 2013/11/27
 37 40  0  0  0  0  0  0  0  0999 V2000
  -13.6122   18.3811   16.8239 C   0  0  2  0  0  0  0  0  0  0  0  0
  -13.2669   16.9984   17.4689 C   0  0  1  0  0  0  0  0  0  0  0  0
  -13.0047   15.8783   16.4199 C   0  0  0  0  0  0  0  0  0  0  0  0
  -14.1275   15.8393   15.3536 C   0  0  1  0  0  0  0  0  0  0  0  0
  -14.2739   17.2282   14.6926 C   0  0  1  0  0  0  0  0  0  0  0  0
  -15.3619   17.2061   13.5856 C   0  0  1  0  0  0  0  0  0  0  0  0
  -15.0855   16.0685   12.5578 C   0  0  1  0  0  0  0  0  0  0  0  0
  -14.8595   14.6943   13.2554 C   0  0  2  0  0  0  0  0  0  0  0  0
  -17.3670   15.2898   12.1083 C   0  0  0  0  0  0  0  0  0  0  0  0
  -14.5433   18.2437   15.7017 O   0  0  0  0  0  0  0  0  0  0  0  0
  -13.9040   14.8027   14.3549 O   0  0  0  0  0  0  0  0  0  0  0  0
  -12.0874   17.1391   18.3502 N   0  0  0  0  0  0  0  0  0  0  0  0
  -16.1929   16.0181   11.5809 N   0  0  0  0  0  0  0  0  0  0  0  0
  -16.6645   17.0908   14.1438 O   0  0  0  0  0  0  0  0  0  0  0  0
  -14.4370   13.6936   12.2834 O   0  0  0  0  0  0  0  0  0  0  0  0
  -12.4035   19.0829   16.4009 O   0  0  0  0  0  0  0  0  0  0  0  0
  -13.7449   12.5015   12.7667 C   0  0  2  0  0  0  0  0  0  0  0  0
  -13.9873   11.2933   11.8179 C   0  0  1  0  0  0  0  0  0  0  0  0
  -15.4509   10.7741   11.9091 C   0  0  2  0  0  0  0  0  0  0  0  0
  -15.8512   10.4783   13.3836 C   0  0  1  0  0  0  0  0  0  0  0  0
  -15.5606   11.6978   14.3022 C   0  0  1  0  0  0  0  0  0  0  0  0
  -15.8261   11.3725   15.7955 C   0  0  0  0  0  0  0  0  0  0  0  0
  -14.1890   12.1613   14.1141 O   0  0  0  0  0  0  0  0  0  0  0  0
  -17.2637   10.0504   13.4849 N   0  0  0  0  0  0  0  0  0  0  0  0
  -13.6277   11.6278   10.4788 O   0  0  0  0  0  0  0  0  0  0  0  0
  -15.6426    9.6268   11.0844 O   0  0  0  0  0  0  0  0  0  0  0  0
  -15.3542   12.4215   16.6348 O   0  0  0  0  0  0  0  0  0  0  0  0
  -12.5669   20.3330   15.6697 C   0  0  1  0  0  0  0  0  0  0  0  0
  -13.3054   20.1239   14.3181 C   0  0  1  0  0  0  0  0  0  0  0  0
  -13.3835   21.4505   13.5111 C   0  0  2  0  0  0  0  0  0  0  0  0
  -14.0102   22.6175   14.3413 C   0  0  1  0  0  0  0  0  0  0  0  0
  -13.3770   22.7628   15.7576 C   0  0  0  0  0  0  0  0  0  0  0  0
  -13.2988   21.4075   16.5229 C   0  0  2  0  0  0  0  0  0  0  0  0
  -13.9331   23.8923   13.5964 N   0  0  0  0  0  0  0  0  0  0  0  0
  -12.6415   21.6220   17.8304 N   0  0  0  0  0  0  0  0  0  0  0  0
  -12.6782   19.1013   13.5509 O   0  0  0  0  0  0  0  0  0  0  0  0
  -14.1092   21.2546   12.3001 O   0  0  0  0  0  0  0  0  0  0  0  0
  1  2  1  0  0  0  0
  1 16  1  6  0  0  0
  2  3  1  0  0  0  0
  2 12  1  6  0  0  0
  4 11  1  6  0  0  0
  4  3  1  0  0  0  0
  5  4  1  0  0  0  0
  5 10  1  1  0  0  0
  6  7  1  0  0  0  0
  6  5  1  0  0  0  0
  6 14  1  1  0  0  0
  7  8  1  0  0  0  0
  7 13  1  6  0  0  0
  8 15  1  6  0  0  0
  8 11  1  0  0  0  0
  9 13  1  0  0  0  0
 10  1  1  0  0  0  0
 17 15  1  6  0  0  0
 17 18  1  0  0  0  0
 18 25  1  6  0  0  0
 19 18  1  0  0  0  0
 19 26  1  6  0  0  0
 20 19  1  0  0  0  0
 20 24  1  6  0  0  0
 21 23  1  0  0  0  0
 21 20  1  0  0  0  0
 21 22  1  1  0  0  0
 23 17  1  0  0  0  0
 27 22  1  0  0  0  0
 28 29  1  0  0  0  0
 28 16  1  1  0  0  0
 29 36  1  6  0  0  0
 30 37  1  6  0  0  0
 30 29  1  0  0  0  0
 31 30  1  0  0  0  0
 31 34  1  6  0  0  0
 32 31  1  0  0  0  0
 32 33  1  0  0  0  0
 33 28  1  0  0  0  0
 33 35  1  1  0  0  0
M  END
>  <CHROM.1>
-58.55550568,159.29666006,-80.79882101,157.59535114,151.93129135,174.49268884
68.96662438,-56.50656619,170.68459577,65.72532521,-58.69842926,-62.43488603
-159.67796888,-76.91294867,-58.72779182,-176.79220732,-14.35518019,16.25267525
14.25129187,-0.89672573,1.25386541,2.73517490

>  <Name>
lig.pdb

>  <RI>
0

>  <Rbt.Current_Directory>
/home/afrankz/demos/rdock_decoys_rna/rnas/2m4q

>  <Rbt.Executable>
rbdock ($Id: //depot/dev/client3/rdock/2013.1/src/exe/rbdock.cxx#4 $)

>  <Rbt.Library>
libRbt.so (2013.1, Build901 2013/11/27)

>  <Rbt.Parameter_File>
/export/apps/rDock/src/rDock_2013.1_src/data/scripts/dock_solv.prm

>  <Rbt.Receptor>
prm/blind_docking_80.prm

>  <SCORE>
-24.8762

>  <SCORE.INTER>
-37.9019

>  <SCORE.INTER.CONST>
1

>  <SCORE.INTER.POLAR>
-7.54018

>  <SCORE.INTER.ROT>
10

>  <SCORE.INTER.SOLV>
22.0698

>  <SCORE.INTER.VDW>
-17.7573

>  <SCORE.INTER.norm>
-1.02438

>  <SCORE.INTRA>
-10.5317

>  <SCORE.INTRA.DIHEDRAL>
-32.1263

>  <SCORE.INTRA.DIHEDRAL.0>
44.8331

>  <SCORE.INTRA.POLAR>
0.0664752

>  <SCORE.INTRA.POLAR.0>
-0.108895

>  <SCORE.INTRA.REPUL>
-0.00912235

>  <SCORE.INTRA.REPUL.0>
0.00912235

>  <SCORE.INTRA.SOLV>
-0.440261

>  <SCORE.INTRA.SOLV.lig_0>
-53.9067

>  <SCORE.INTRA.VDW>
5.57116

>  <SCORE.INTRA.VDW.0>
-2.93492

>  <SCORE.INTRA.norm>
-0.284641

>  <SCORE.RESTR>
23.5574

>  <SCORE.RESTR.CAVITY>
23.5574

>  <SCORE.RESTR.norm>
0.636687

>  <SCORE.SYSTEM>
0

>  <SCORE.SYSTEM.CONST>
0

>  <SCORE.SYSTEM.DIHEDRAL>
0

>  <SCORE.SYSTEM.SOLV>
0

>  <SCORE.SYSTEM.norm>
0

>  <SCORE.heavy>
37

>  <SCORE.norm>
-0.672331

>  <RMSD>
19.275

$$$$
lig.pdb
 OpenBabel11021811453D
libRbt.so/2013.1/901 2013/11/27
 37 40  0  0  0  0  0  0  0  0999 V2000
  -16.8390   12.9435   11.2664 C   0  0  2  0  0  0  0  0  0  0  0  0
  -15.9965   11.8369   11.9823 C   0  0  1  0  0  0  0  0  0  0  0  0
  -15.4277   12.2904   13.3587 C   0  0  0  0  0  0  0  0  0  0  0  0
  -14.7331   13.6703   13.2475 C   0  0  1  0  0  0  0  0  0  0  0  0
  -15.7145   14.7074   12.6571 C   0  0  1  0  0  0  0  0  0  0  0  0
  -15.0590   16.1122   12.5778 C   0  0  1  0  0  0  0  0  0  0  0  0
  -14.4851   16.5364   13.9625 C   0  0  1  0  0  0  0  0  0  0  0  0
  -13.5648   15.4384   14.5737 C   0  0  2  0  0  0  0  0  0  0  0  0
  -14.7249   18.9487   13.5921 C   0  0  0  0  0  0  0  0  0  0  0  0
  -16.2044   14.2602   11.3601 O   0  0  0  0  0  0  0  0  0  0  0  0
  -14.1961   14.1221   14.5241 O   0  0  0  0  0  0  0  0  0  0  0  0
  -16.8189   10.6207   12.1614 N   0  0  0  0  0  0  0  0  0  0  0  0
  -13.7852   17.8300   13.8217 N   0  0  0  0  0  0  0  0  0  0  0  0
  -14.0580   16.1589   11.5690 O   0  0  0  0  0  0  0  0  0  0  0  0
  -13.1854   15.7927   15.9357 O   0  0  0  0  0  0  0  0  0  0  0  0
  -18.2000   12.9945   11.7935 O   0  0  0  0  0  0  0  0  0  0  0  0
  -14.2418   15.9780   16.9274 C   0  0  2  0  0  0  0  0  0  0  0  0
  -13.6421   16.2213   18.3416 C   0  0  1  0  0  0  0  0  0  0  0  0
  -12.9928   14.9321   18.9213 C   0  0  2  0  0  0  0  0  0  0  0  0
  -13.9868   13.7354   18.8808 C   0  0  1  0  0  0  0  0  0  0  0  0
  -14.5880   13.5496   17.4597 C   0  0  1  0  0  0  0  0  0  0  0  0
  -15.6813   12.4494   17.4342 C   0  0  0  0  0  0  0  0  0  0  0  0
  -15.1214   14.8147   16.9634 O   0  0  0  0  0  0  0  0  0  0  0  0
  -13.3534   12.4897   19.3663 N   0  0  0  0  0  0  0  0  0  0  0  0
  -12.7216   17.3106   18.3148 O   0  0  0  0  0  0  0  0  0  0  0  0
  -12.5051   15.1507   20.2433 O   0  0  0  0  0  0  0  0  0  0  0  0
  -15.0975   11.1526   17.5038 O   0  0  0  0  0  0  0  0  0  0  0  0
  -19.1011   14.0006   11.2460 C   0  0  1  0  0  0  0  0  0  0  0  0
  -18.7338   15.4329   11.7255 C   0  0  1  0  0  0  0  0  0  0  0  0
  -19.7631   16.4776   11.2093 C   0  0  2  0  0  0  0  0  0  0  0  0
  -19.9506   16.4142    9.6586 C   0  0  1  0  0  0  0  0  0  0  0  0
  -20.1870   14.9659    9.1348 C   0  0  0  0  0  0  0  0  0  0  0  0
  -19.1471   13.9479    9.6924 C   0  0  2  0  0  0  0  0  0  0  0  0
  -21.0388   17.3158    9.2239 N   0  0  0  0  0  0  0  0  0  0  0  0
  -19.4710   12.5946    9.1913 N   0  0  0  0  0  0  0  0  0  0  0  0
  -18.6323   15.4815   13.1449 O   0  0  0  0  0  0  0  0  0  0  0  0
  -19.3837   17.7912   11.6121 O   0  0  0  0  0  0  0  0  0  0  0  0
  1  2  1  0  0  0  0
  1 16  1  1  0  0  0
  2  3  1  0  0  0  0
  2 12  1  1  0  0  0
  4 11  1  1  0  0  0
  4  3  1  0  0  0  0
  5  4  1  0  0  0  0
  5 10  1  6  0  0  0
  6  7  1  0  0  0  0
  6  5  1  0  0  0  0
  6 14  1  6  0  0  0
  7  8  1  0  0  0  0
  7 13  1  6  0  0  0
  8 15  1  1  0  0  0
  8 11  1  0  0  0  0
  9 13  1  0  0  0  0
 10  1  1  0  0  0  0
 17 15  1  6  0  0  0
 17 18  1  0  0  0  0
 18 25  1  6  0  0  0
 19 18  1  0  0  0  0
 19 26  1  1  0  0  0
 20 19  1  0  0  0  0
 20 24  1  6  0  0  0
 21 23  1  0  0  0  0
 21 20  1  0  0  0  0
 21 22  1  1  0  0  0
 23 17  1  0  0  0  0
 27 22  1  0  0  0  0
 28 29  1  0  0  0  0
 28 16  1  6  0  0  0
 29 36  1  1  0  0  0
 30 37  1  6  0  0  0
 30 29  1  0  0  0  0
 31 30  1  0  0  0  0
 31 34  1  1  0  0  0
 32 31  1  0  0  0  0
 32 33  1  0  0  0  0
 33 28  1  0  0  0  0
 33 35  1  1  0  0  0
M  END
>  <CHROM.1>
81.80644602,59.59315109,70.68367893,176.20367176,174.79769493,178.59262853
-56.98285579,-173.80603105,-74.82049024,-45.12264320,55.53271158,-72.23271387
-59.24863778,60.07079236,-66.90186175,-170.58558165,-15.99319619,14.77464592
13.94195993,2.92899291,-0.92862504,-0.22517382

>  <Name>
lig.pdb

>  <RI>
0

>  <Rbt.Current_Directory>
/home/afrankz/demos/rdock_decoys_rna/rnas/2m4q

>  <Rbt.Executable>
rbdock ($Id: //depot/dev/client3/rdock/2013.1/src/exe/rbdock.cxx#4 $)

>  <Rbt.Library>
libRbt.so (2013.1, Build901 2013/11/27)

>  <Rbt.Parameter_File>
/export/apps/rDock/src/rDock_2013.1_src/data/scripts/dock_solv.prm

>  <Rbt.Receptor>
prm/blind_docking_80.prm

>  <SCORE>
-14.0137

>  <SCORE.INTER>
-6.40581

>  <SCORE.INTER.CONST>
1

>  <SCORE.INTER.POLAR>
-2.80063

>  <SCORE.INTER.ROT>
10

>  <SCORE.INTER.SOLV>
17.1068

>  <SCORE.INTER.VDW>
-10.904

>  <SCORE.INTER.norm>
-0.17313

>  <SCORE.INTRA>
-24.223

>  <SCORE.INTRA.DIHEDRAL>
-40.5965

>  <SCORE.INTRA.DIHEDRAL.0>
44.8331

>  <SCORE.INTRA.POLAR>
-0.921435

>  <SCORE.INTRA.POLAR.0>
-0.108895

>  <SCORE.INTRA.REPUL>
-0.00912235

>  <SCORE.INTRA.REPUL.0>
0.00912235

>  <SCORE.INTRA.SOLV>
-0.672617

>  <SCORE.INTRA.SOLV.lig_0>
-53.9067

>  <SCORE.INTRA.VDW>
-0.410006

>  <SCORE.INTRA.VDW.0>
-2.93492

>  <SCORE.INTRA.norm>
-0.654677

>  <SCORE.RESTR>
16.6152

>  <SCORE.RESTR.CAVITY>
16.6152

>  <SCORE.RESTR.norm>
0.449059

>  <SCORE.SYSTEM>
0

>  <SCORE.SYSTEM.CONST>
0

>  <SCORE.SYSTEM.DIHEDRAL>
0

>  <SCORE.SYSTEM.SOLV>
0

>  <SCORE.SYSTEM.norm>
0

>  <SCORE.heavy>
37

>  <SCORE.norm>
-0.378747

>  <RMSD>
19.446

$$$$
lig.pdb
 OpenBabel11021811453D
libRbt.so/2013.1/901 2013/11/27
 37 40  0  0  0  0  0  0  0  0999 V2000
  -15.7527   13.6835   12.9742 C   0  0  2  0  0  0  0  0  0  0  0  0
  -15.5019   15.1663   12.5435 C   0  0  1  0  0  0  0  0  0  0  0  0
  -14.4719   15.9042   13.4481 C   0  0  0  0  0  0  0  0  0  0  0  0
  -14.8054   15.7073   14.9478 C   0  0  1  0  0  0  0  0  0  0  0  0
  -14.8873   14.1995   15.2752 C   0  0  1  0  0  0  0  0  0  0  0  0
  -15.1746   13.9720   16.7836 C   0  0  1  0  0  0  0  0  0  0  0  0
  -14.1403   14.7317   17.6667 C   0  0  1  0  0  0  0  0  0  0  0  0
  -14.0167   16.2307   17.2616 C   0  0  2  0  0  0  0  0  0  0  0  0
  -13.3684   14.0989   19.9067 C   0  0  0  0  0  0  0  0  0  0  0  0
  -15.8780   13.5500   14.4274 O   0  0  0  0  0  0  0  0  0  0  0  0
  -13.8528   16.3833   15.8181 O   0  0  0  0  0  0  0  0  0  0  0  0
  -15.0464   15.2075   11.1369 N   0  0  0  0  0  0  0  0  0  0  0  0
  -14.5066   14.5711   19.0891 N   0  0  0  0  0  0  0  0  0  0  0  0
  -16.5065   14.3412   17.1171 O   0  0  0  0  0  0  0  0  0  0  0  0
  -12.9247   16.8659   17.9886 O   0  0  0  0  0  0  0  0  0  0  0  0
  -14.7031   12.8025   12.4695 O   0  0  0  0  0  0  0  0  0  0  0  0
  -12.8826   18.3249   18.0476 C   0  0  2  0  0  0  0  0  0  0  0  0
  -14.2993   18.9134   18.3030 C   0  0  1  0  0  0  0  0  0  0  0  0
  -15.2229   18.7503   17.0619 C   0  0  2  0  0  0  0  0  0  0  0  0
  -14.5491   19.3230   15.7812 C   0  0  1  0  0  0  0  0  0  0  0  0
  -13.1239   18.7356   15.5832 C   0  0  1  0  0  0  0  0  0  0  0  0
  -12.3872   19.3972   14.3891 C   0  0  0  0  0  0  0  0  0  0  0  0
  -12.3420   18.8730   16.8084 O   0  0  0  0  0  0  0  0  0  0  0  0
  -15.3926   19.1089   14.5849 N   0  0  0  0  0  0  0  0  0  0  0  0
  -14.8782   18.3364   19.4720 O   0  0  0  0  0  0  0  0  0  0  0  0
  -16.4965   19.3514   17.2853 O   0  0  0  0  0  0  0  0  0  0  0  0
  -13.1550   20.4682   13.8499 O   0  0  0  0  0  0  0  0  0  0  0  0
  -14.9573   12.0911   11.2232 C   0  0  1  0  0  0  0  0  0  0  0  0
  -13.9514   10.9268   11.0025 C   0  0  1  0  0  0  0  0  0  0  0  0
  -14.1785   10.2438    9.6244 C   0  0  2  0  0  0  0  0  0  0  0  0
  -15.6579    9.7792    9.4257 C   0  0  1  0  0  0  0  0  0  0  0  0
  -16.6944   10.8901    9.7711 C   0  0  0  0  0  0  0  0  0  0  0  0
  -16.4179   11.5624   11.1497 C   0  0  2  0  0  0  0  0  0  0  0  0
  -15.8687    9.2702    8.0536 N   0  0  0  0  0  0  0  0  0  0  0  0
  -17.4099   12.6354   11.3777 N   0  0  0  0  0  0  0  0  0  0  0  0
  -12.6093   11.3868   11.1240 O   0  0  0  0  0  0  0  0  0  0  0  0
  -13.2849    9.1456    9.4598 O   0  0  0  0  0  0  0  0  0  0  0  0
  1  2  1  0  0  0  0
  1 16  1  1  0  0  0
  2  3  1  0  0  0  0
  2 12  1  6  0  0  0
  4 11  1  1  0  0  0
  4  3  1  0  0  0  0
  5  4  1  0  0  0  0
  5 10  1  6  0  0  0
  6  7  1  0  0  0  0
  6  5  1  0  0  0  0
  6 14  1  1  0  0  0
  7  8  1  0  0  0  0
  7 13  1  1  0  0  0
  8 15  1  1  0  0  0
  8 11  1  0  0  0  0
  9 13  1  0  0  0  0
 10  1  1  0  0  0  0
 17 15  1  6  0  0  0
 17 18  1  0  0  0  0
 18 25  1  1  0  0  0
 19 18  1  0  0  0  0
 19 26  1  1  0  0  0
 20 19  1  0  0  0  0
 20 24  1  6  0  0  0
 21 23  1  0  0  0  0
 21 20  1  0  0  0  0
 21 22  1  6  0  0  0
 23 17  1  0  0  0  0
 27 22  1  0  0  0  0
 28 29  1  0  0  0  0
 28 16  1  1  0  0  0
 29 36  1  6  0  0  0
 30 37  1  1  0  0  0
 30 29  1  0  0  0  0
 31 30  1  0  0  0  0
 31 34  1  6  0  0  0
 32 31  1  0  0  0  0
 32 33  1  0  0  0  0
 33 28  1  0  0  0  0
 33 35  1  6  0  0  0
M  END
>  <CHROM.1>
-69.57047484,-162.70617804,128.53495465,-168.23652458,42.33080457,-96.05925740
-178.24248818,-63.18952782,5.49743246,-50.49658650,-54.95989334,-164.74300362
48.45249876,67.60152440,90.50847254,-175.81608527,-14.63304546,15.01629841
14.39196418,-2.44650146,1.44767204,1.64926968

>  <Name>
lig.pdb

>  <RI>
0

>  <Rbt.Current_Directory>
/home/afrankz/demos/rdock_decoys_rna/rnas/2m4q

>  <Rbt.Executable>
rbdock ($Id: //depot/dev/client3/rdock/2013.1/src/exe/rbdock.cxx#4 $)

>  <Rbt.Library>
libRbt.so (2013.1, Build901 2013/11/27)

>  <Rbt.Parameter_File>
/export/apps/rDock/src/rDock_2013.1_src/data/scripts/dock_solv.prm

>  <Rbt.Receptor>
prm/blind_docking_40.prm

>  <SCORE>
-12.8854

>  <SCORE.INTER>
-20.2851

>  <SCORE.INTER.CONST>
1

>  <SCORE.INTER.POLAR>
-4.90566

>  <SCORE.INTER.ROT>
10

>  <SCORE.INTER.SOLV>
17.8762

>  <SCORE.INTER.VDW>
-13.3966

>  <SCORE.INTER.norm>
-0.548247

>  <SCORE.INTRA>
-8.6736

>  <SCORE.INTRA.DIHEDRAL>
-25.0393

>  <SCORE.INTRA.DIHEDRAL.0>
44.8331

>  <SCORE.INTRA.POLAR>
-0.908563

>  <SCORE.INTRA.POLAR.0>
-0.108895

>  <SCORE.INTRA.REPUL>
-0.00912235

>  <SCORE.INTRA.REPUL.0>
0.00912235

>  <SCORE.INTRA.SOLV>
1.4106

>  <SCORE.INTRA.SOLV.lig_0>
-53.9067

>  <SCORE.INTRA.VDW>
6.2755

>  <SCORE.INTRA.VDW.0>
-2.93492

>  <SCORE.INTRA.norm>
-0.234422

>  <SCORE.RESTR>
16.0734

>  <SCORE.RESTR.CAVITY>
16.0734

>  <SCORE.RESTR.norm>
0.434415

>  <SCORE.SYSTEM>
0

>  <SCORE.SYSTEM.CONST>
0

>  <SCORE.SYSTEM.DIHEDRAL>
0

>  <SCORE.SYSTEM.SOLV>
0

>  <SCORE.SYSTEM.norm>
0

>  <SCORE.heavy>
37

>  <SCORE.norm>
-0.348253

>  <RMSD>
19.525

$$$$
lig.pdb
 OpenBabel11021811453D
libRbt.so/2013.1/901 2013/11/27
 37 40  0  0  0  0  0  0  0  0999 V2000
  -19.1169   14.0240   10.8483 C   0  0  2  0  0  0  0  0  0  0  0  0
  -18.0209   13.4315   11.7942 C   0  0  1  0  0  0  0  0  0  0  0  0
  -16.8466   12.7553   11.0278 C   0  0  0  0  0  0  0  0  0  0  0  0
  -17.3748   11.7785    9.9480 C   0  0  1  0  0  0  0  0  0  0  0  0
  -18.3377   12.5196    8.9937 C   0  0  1  0  0  0  0  0  0  0  0  0
  -18.8467   11.5750    7.8720 C   0  0  1  0  0  0  0  0  0  0  0  0
  -17.6544   10.9001    7.1307 C   0  0  1  0  0  0  0  0  0  0  0  0
  -16.6550   10.2315    8.1209 C   0  0  2  0  0  0  0  0  0  0  0  0
  -17.2493    9.7363    5.0105 C   0  0  0  0  0  0  0  0  0  0  0  0
  -19.4349   13.1162    9.7438 O   0  0  0  0  0  0  0  0  0  0  0  0
  -16.2956   11.1353    9.2106 O   0  0  0  0  0  0  0  0  0  0  0  0
  -17.4918   14.4963   12.6739 N   0  0  0  0  0  0  0  0  0  0  0  0
  -18.1810    9.9374    6.1412 N   0  0  0  0  0  0  0  0  0  0  0  0
  -19.7504   10.6044    8.3847 O   0  0  0  0  0  0  0  0  0  0  0  0
  -15.4721    9.7620    7.4104 O   0  0  0  0  0  0  0  0  0  0  0  0
  -18.7202   15.3324   10.3352 O   0  0  0  0  0  0  0  0  0  0  0  0
  -14.2425    9.5479    8.1696 C   0  0  2  0  0  0  0  0  0  0  0  0
  -13.8138    8.0536    8.1261 C   0  0  1  0  0  0  0  0  0  0  0  0
  -14.7706    7.1555    8.9615 C   0  0  2  0  0  0  0  0  0  0  0  0
  -14.9295    7.6998   10.4107 C   0  0  1  0  0  0  0  0  0  0  0  0
  -15.3240    9.2031   10.4083 C   0  0  1  0  0  0  0  0  0  0  0  0
  -15.3531    9.7951   11.8418 C   0  0  0  0  0  0  0  0  0  0  0  0
  -14.4165    9.9661    9.5564 O   0  0  0  0  0  0  0  0  0  0  0  0
  -15.8918    6.8902   11.1898 N   0  0  0  0  0  0  0  0  0  0  0  0
  -13.7080    7.6017    6.7773 O   0  0  0  0  0  0  0  0  0  0  0  0
  -14.3298    5.7994    8.9672 O   0  0  0  0  0  0  0  0  0  0  0  0
  -16.2763    9.0884   12.6637 O   0  0  0  0  0  0  0  0  0  0  0  0
  -19.7003   16.4093   10.3958 C   0  0  1  0  0  0  0  0  0  0  0  0
  -19.0996   17.7090   11.0008 C   0  0  1  0  0  0  0  0  0  0  0  0
  -20.1847   18.8130   11.1460 C   0  0  2  0  0  0  0  0  0  0  0  0
  -20.9366   19.0903    9.8038 C   0  0  1  0  0  0  0  0  0  0  0  0
  -21.4333   17.7885    9.1063 C   0  0  0  0  0  0  0  0  0  0  0  0
  -20.3214   16.7016    9.0004 C   0  0  2  0  0  0  0  0  0  0  0  0
  -22.0544   20.0350   10.0134 N   0  0  0  0  0  0  0  0  0  0  0  0
  -20.8853   15.4849    8.3768 N   0  0  0  0  0  0  0  0  0  0  0  0
  -18.4769   17.4440   12.2537 O   0  0  0  0  0  0  0  0  0  0  0  0
  -19.6080   20.0144   11.6516 O   0  0  0  0  0  0  0  0  0  0  0  0
  1  2  1  0  0  0  0
  1 16  1  6  0  0  0
  2  3  1  0  0  0  0
  2 12  1  6  0  0  0
  4 11  1  6  0  0  0
  4  3  1  0  0  0  0
  5  4  1  0  0  0  0
  5 10  1  1  0  0  0
  6  7  1  0  0  0  0
  6  5  1  0  0  0  0
  6 14  1  1  0  0  0
  7  8  1  0  0  0  0
  7 13  1  6  0  0  0
  8 15  1  6  0  0  0
  8 11  1  0  0  0  0
  9 13  1  0  0  0  0
 10  1  1  0  0  0  0
 17 15  1  6  0  0  0
 17 18  1  0  0  0  0
 18 25  1  6  0  0  0
 19 18  1  0  0  0  0
 19 26  1  1  0  0  0
 20 19  1  0  0  0  0
 20 24  1  6  0  0  0
 21 23  1  0  0  0  0
 21 20  1  0  0  0  0
 21 22  1  1  0  0  0
 23 17  1  0  0  0  0
 27 22  1  0  0  0  0
 28 29  1  0  0  0  0
 28 16  1  6  0  0  0
 29 36  1  1  0  0  0
 30 37  1  6  0  0  0
 30 29  1  0  0  0  0
 31 30  1  0  0  0  0
 31 34  1  1  0  0  0
 32 31  1  0  0  0  0
 32 33  1  0  0  0  0
 33 28  1  0  0  0  0
 33 35  1  1  0  0  0
M  END
>  <CHROM.1>
106.33012535,158.58790970,153.24249185,-172.43577090,117.26960220,-132.51368409
45.80289682,-176.88598147,-58.81445683,-160.53738161,-176.09974668,131.44517483
-178.00138819,-173.12987500,78.23328756,-166.04684037,-17.59729890,12.45692635
9.59743663,-2.47048628,0.95101210,-2.17036173

>  <Name>
lig.pdb

>  <RI>
0

>  <Rbt.Current_Directory>
/home/afrankz/demos/rdock_decoys_rna/rnas/2m4q

>  <Rbt.Executable>
rbdock ($Id: //depot/dev/client3/rdock/2013.1/src/exe/rbdock.cxx#4 $)

>  <Rbt.Library>
libRbt.so (2013.1, Build901 2013/11/27)

>  <Rbt.Parameter_File>
/export/apps/rDock/src/rDock_2013.1_src/data/scripts/dock_solv.prm

>  <Rbt.Receptor>
prm/blind_docking_80.prm

>  <SCORE>
18.4293

>  <SCORE.INTER>
9.37249

>  <SCORE.INTER.CONST>
1

>  <SCORE.INTER.POLAR>
-0.645033

>  <SCORE.INTER.ROT>
10

>  <SCORE.INTER.SOLV>
13.8305

>  <SCORE.INTER.VDW>
-6.47839

>  <SCORE.INTER.norm>
0.25331

>  <SCORE.INTRA>
-7.87674

>  <SCORE.INTRA.DIHEDRAL>
-16.1619

>  <SCORE.INTRA.DIHEDRAL.0>
44.8331

>  <SCORE.INTRA.POLAR>
-1.97762

>  <SCORE.INTRA.POLAR.0>
-0.108895

>  <SCORE.INTRA.REPUL>
-0.00912235

>  <SCORE.INTRA.REPUL.0>
0.00912235

>  <SCORE.INTRA.SOLV>
0.607426

>  <SCORE.INTRA.SOLV.lig_0>
-53.9067

>  <SCORE.INTRA.VDW>
6.67002

>  <SCORE.INTRA.VDW.0>
-2.93492

>  <SCORE.INTRA.norm>
-0.212885

>  <SCORE.RESTR>
16.9335

>  <SCORE.RESTR.CAVITY>
16.9335

>  <SCORE.RESTR.norm>
0.457663

>  <SCORE.SYSTEM>
0

>  <SCORE.SYSTEM.CONST>
0

>  <SCORE.SYSTEM.DIHEDRAL>
0

>  <SCORE.SYSTEM.SOLV>
0

>  <SCORE.SYSTEM.norm>
0

>  <SCORE.heavy>
37

>  <SCORE.norm>
0.498088

>  <RMSD>
19.546

$$$$
lig.pdb
 OpenBabel11021811453D
libRbt.so/2013.1/901 2013/11/27
 37 40  0  0  0  0  0  0  0  0999 V2000
  -15.1866   14.0356   13.4083 C   0  0  2  0  0  0  0  0  0  0  0  0
  -15.4902   15.3658   12.6431 C   0  0  1  0  0  0  0  0  0  0  0  0
  -14.5114   16.5211   13.0051 C   0  0  0  0  0  0  0  0  0  0  0  0
  -14.3670   16.6691   14.5401 C   0  0  1  0  0  0  0  0  0  0  0  0
  -13.9279   15.3234   15.1595 C   0  0  1  0  0  0  0  0  0  0  0  0
  -13.7299   15.4547   16.6935 C   0  0  1  0  0  0  0  0  0  0  0  0
  -12.7591   16.6256   17.0300 C   0  0  1  0  0  0  0  0  0  0  0  0
  -13.1777   17.9509   16.3267 C   0  0  2  0  0  0  0  0  0  0  0  0
  -11.4313   17.4612   18.9149 C   0  0  0  0  0  0  0  0  0  0  0  0
  -14.8806   14.2747   14.8205 O   0  0  0  0  0  0  0  0  0  0  0  0
  -13.4510   17.7405   14.9073 O   0  0  0  0  0  0  0  0  0  0  0  0
  -15.4533   15.1226   11.1847 N   0  0  0  0  0  0  0  0  0  0  0  0
  -12.6756   16.7798   18.4971 N   0  0  0  0  0  0  0  0  0  0  0  0
  -14.9744   15.6085   17.3637 O   0  0  0  0  0  0  0  0  0  0  0  0
  -12.1595   18.9751   16.5238 O   0  0  0  0  0  0  0  0  0  0  0  0
  -14.1023   13.2948   12.7695 O   0  0  0  0  0  0  0  0  0  0  0  0
  -12.5688   20.2703   17.0612 C   0  0  2  0  0  0  0  0  0  0  0  0
  -13.7976   20.8305   16.2900 C   0  0  1  0  0  0  0  0  0  0  0  0
  -13.4180   21.2781   14.8494 C   0  0  2  0  0  0  0  0  0  0  0  0
  -12.2116   22.2611   14.8660 C   0  0  1  0  0  0  0  0  0  0  0  0
  -11.0199   21.6774   15.6752 C   0  0  1  0  0  0  0  0  0  0  0  0
   -9.8617   22.6997   15.8165 C   0  0  0  0  0  0  0  0  0  0  0  0
  -11.4692   21.2263   16.9890 O   0  0  0  0  0  0  0  0  0  0  0  0
  -11.8012   22.6366   13.4952 N   0  0  0  0  0  0  0  0  0  0  0  0
  -14.8617   19.8807   16.2852 O   0  0  0  0  0  0  0  0  0  0  0  0
  -14.5375   21.8497   14.1759 O   0  0  0  0  0  0  0  0  0  0  0  0
   -9.1024   22.7751   14.6143 O   0  0  0  0  0  0  0  0  0  0  0  0
  -14.3517   11.9047   12.4099 C   0  0  1  0  0  0  0  0  0  0  0  0
  -15.8708   11.5772   12.3725 C   0  0  1  0  0  0  0  0  0  0  0  0
  -16.1117   10.0689   12.0824 C   0  0  2  0  0  0  0  0  0  0  0  0
  -15.3812    9.5865   10.7873 C   0  0  1  0  0  0  0  0  0  0  0  0
  -13.8853   10.0198   10.7372 C   0  0  0  0  0  0  0  0  0  0  0  0
  -13.6869   11.5327   11.0541 C   0  0  2  0  0  0  0  0  0  0  0  0
  -15.5114    8.1227   10.6251 N   0  0  0  0  0  0  0  0  0  0  0  0
  -12.2424   11.8500   11.0375 N   0  0  0  0  0  0  0  0  0  0  0  0
  -16.5029   11.9658   13.5877 O   0  0  0  0  0  0  0  0  0  0  0  0
  -17.5080    9.7949   11.9984 O   0  0  0  0  0  0  0  0  0  0  0  0
  1  2  1  0  0  0  0
  1 16  1  6  0  0  0
  2  3  1  0  0  0  0
  2 12  1  6  0  0  0
  4 11  1  6  0  0  0
  4  3  1  0  0  0  0
  5  4  1  0  0  0  0
  5 10  1  1  0  0  0
  6  7  1  0  0  0  0
  6  5  1  0  0  0  0
  6 14  1  1  0  0  0
  7  8  1  0  0  0  0
  7 13  1  1  0  0  0
  8 15  1  6  0  0  0
  8 11  1  0  0  0  0
  9 13  1  0  0  0  0
 10  1  1  0  0  0  0
 17 15  1  6  0  0  0
 17 18  1  0  0  0  0
 18 25  1  6  0  0  0
 19 18  1  0  0  0  0
 19 26  1  1  0  0  0
 20 19  1  0  0  0  0
 20 24  1  6  0  0  0
 21 23  1  0  0  0  0
 21 20  1  0  0  0  0
 21 22  1  1  0  0  0
 23 17  1  0  0  0  0
 27 22  1  0  0  0  0
 28 29  1  0  0  0  0
 28 16  1  6  0  0  0
 29 36  1  1  0  0  0
 30 37  1  6  0  0  0
 30 29  1  0  0  0  0
 31 30  1  0  0  0  0
 31 34  1  1  0  0  0
 32 31  1  0  0  0  0
 32 33  1  0  0  0  0
 33 28  1  0  0  0  0
 33 35  1  1  0  0  0
M  END
>  <CHROM.1>
-35.13214922,-127.11816801,157.43143716,-56.66910840,-49.14401222,-126.33675364
-175.97177875,55.64641723,-77.80003237,80.68954517,-66.69688923,17.73281358
-178.26610167,71.21419226,81.62160721,-51.34172351,-13.73915667,16.27306617
14.33937931,2.61028422,-1.22759353,-1.75239182

>  <Name>
lig.pdb

>  <RI>
0

>  <Rbt.Current_Directory>
/home/afrankz/demos/rdock_decoys_rna/rnas/2m4q

>  <Rbt.Executable>
rbdock ($Id: //depot/dev/client3/rdock/2013.1/src/exe/rbdock.cxx#4 $)

>  <Rbt.Library>
libRbt.so (2013.1, Build901 2013/11/27)

>  <Rbt.Parameter_File>
/export/apps/rDock/src/rDock_2013.1_src/data/scripts/dock_solv.prm

>  <Rbt.Receptor>
prm/blind_docking_80.prm

>  <SCORE>
-8.00841

>  <SCORE.INTER>
-23.4686

>  <SCORE.INTER.CONST>
1

>  <SCORE.INTER.POLAR>
-6.50511

>  <SCORE.INTER.ROT>
10

>  <SCORE.INTER.SOLV>
21.3517

>  <SCORE.INTER.VDW>
-11.346

>  <SCORE.INTER.norm>
-0.634288

>  <SCORE.INTRA>
-4.98124

>  <SCORE.INTRA.DIHEDRAL>
-19.0137

>  <SCORE.INTRA.DIHEDRAL.0>
44.8331

>  <SCORE.INTRA.POLAR>
-0.463514

>  <SCORE.INTRA.POLAR.0>
-0.108895

>  <SCORE.INTRA.REPUL>
-0.00912235

>  <SCORE.INTRA.REPUL.0>
0.00912235

>  <SCORE.INTRA.SOLV>
0.200622

>  <SCORE.INTRA.SOLV.lig_0>
-53.9067

>  <SCORE.INTRA.VDW>
6.04685

>  <SCORE.INTRA.VDW.0>
-2.93492

>  <SCORE.INTRA.norm>
-0.134628

>  <SCORE.RESTR>
20.4415

>  <SCORE.RESTR.CAVITY>
20.4415

>  <SCORE.RESTR.norm>
0.552472

>  <SCORE.SYSTEM>
0

>  <SCORE.SYSTEM.CONST>
0

>  <SCORE.SYSTEM.DIHEDRAL>
0

>  <SCORE.SYSTEM.SOLV>
0

>  <SCORE.SYSTEM.norm>
0

>  <SCORE.heavy>
37

>  <SCORE.norm>
-0.216444

>  <RMSD>
19.562

$$$$
lig.pdb
 OpenBabel11021811453D
libRbt.so/2013.1/901 2013/11/27
 37 40  0  0  0  0  0  0  0  0999 V2000
  -15.1162   13.8149   13.9730 C   0  0  2  0  0  0  0  0  0  0  0  0
  -15.8765   14.9744   13.2487 C   0  0  1  0  0  0  0  0  0  0  0  0
  -15.0589   16.2974   13.1792 C   0  0  0  0  0  0  0  0  0  0  0  0
  -14.4752   16.6655   14.5659 C   0  0  1  0  0  0  0  0  0  0  0  0
  -13.6307   15.4915   15.1098 C   0  0  1  0  0  0  0  0  0  0  0  0
  -12.9942   15.8509   16.4792 C   0  0  1  0  0  0  0  0  0  0  0  0
  -12.1948   17.1848   16.3872 C   0  0  1  0  0  0  0  0  0  0  0  0
  -13.0425   18.3307   15.7591 C   0  0  2  0  0  0  0  0  0  0  0  0
  -12.7049   18.2558   18.5335 C   0  0  0  0  0  0  0  0  0  0  0  0
  -14.4360   14.2798   15.1840 O   0  0  0  0  0  0  0  0  0  0  0  0
  -13.6996   17.8979   14.5284 O   0  0  0  0  0  0  0  0  0  0  0  0
  -16.2502   14.5494   11.8821 N   0  0  0  0  0  0  0  0  0  0  0  0
  -11.6902   17.5412   17.7293 N   0  0  0  0  0  0  0  0  0  0  0  0
  -13.9761   15.9085   17.5059 O   0  0  0  0  0  0  0  0  0  0  0  0
  -12.2156   19.5093   15.5316 O   0  0  0  0  0  0  0  0  0  0  0  0
  -14.1682   13.1626   13.0739 O   0  0  0  0  0  0  0  0  0  0  0  0
  -12.5860   20.7584   16.1923 C   0  0  2  0  0  0  0  0  0  0  0  0
  -13.7933   21.4299   15.4781 C   0  0  1  0  0  0  0  0  0  0  0  0
  -13.3940   22.0032   14.0883 C   0  0  2  0  0  0  0  0  0  0  0  0
  -12.1572   22.9410   14.2017 C   0  0  1  0  0  0  0  0  0  0  0  0
  -10.9878   22.2437   14.9513 C   0  0  1  0  0  0  0  0  0  0  0  0
   -9.7985   23.2100   15.1925 C   0  0  0  0  0  0  0  0  0  0  0  0
  -11.4564   21.6815   16.2145 O   0  0  0  0  0  0  0  0  0  0  0  0
  -11.7296   23.4348   12.8744 N   0  0  0  0  0  0  0  0  0  0  0  0
  -14.8869   20.5195   15.3798 O   0  0  0  0  0  0  0  0  0  0  0  0
  -14.4921   22.6730   13.4726 O   0  0  0  0  0  0  0  0  0  0  0  0
   -8.6407   22.7753   14.4869 O   0  0  0  0  0  0  0  0  0  0  0  0
  -14.6945   12.1896   12.1251 C   0  0  1  0  0  0  0  0  0  0  0  0
  -13.5715   11.3018   11.5193 C   0  0  1  0  0  0  0  0  0  0  0  0
  -14.1401   10.3379   10.4401 C   0  0  2  0  0  0  0  0  0  0  0  0
  -15.3333    9.4811   10.9748 C   0  0  1  0  0  0  0  0  0  0  0  0
  -16.4120   10.3338   11.7077 C   0  0  0  0  0  0  0  0  0  0  0  0
  -15.7980   11.3002   12.7650 C   0  0  2  0  0  0  0  0  0  0  0  0
  -15.9401    8.6876    9.8848 N   0  0  0  0  0  0  0  0  0  0  0  0
  -16.8775   12.1063   13.3752 N   0  0  0  0  0  0  0  0  0  0  0  0
  -12.5263   12.1046   10.9802 O   0  0  0  0  0  0  0  0  0  0  0  0
  -13.1089    9.4946    9.9328 O   0  0  0  0  0  0  0  0  0  0  0  0
  1  2  1  0  0  0  0
  1 16  1  6  0  0  0
  2  3  1  0  0  0  0
  2 12  1  6  0  0  0
  4 11  1  6  0  0  0
  4  3  1  0  0  0  0
  5  4  1  0  0  0  0
  5 10  1  1  0  0  0
  6  7  1  0  0  0  0
  6  5  1  0  0  0  0
  6 14  1  1  0  0  0
  7  8  1  0  0  0  0
  7 13  1  1  0  0  0
  8 15  1  6  0  0  0
  8 11  1  0  0  0  0
  9 13  1  0  0  0  0
 10  1  1  0  0  0  0
 17 15  1  6  0  0  0
 17 18  1  0  0  0  0
 18 25  1  6  0  0  0
 19 18  1  0  0  0  0
 19 26  1  1  0  0  0
 20 19  1  0  0  0  0
 20 24  1  6  0  0  0
 21 23  1  0  0  0  0
 21 20  1  0  0  0  0
 21 22  1  1  0  0  0
 23 17  1  0  0  0  0
 27 22  1  0  0  0  0
 28 29  1  0  0  0  0
 28 16  1  1  0  0  0
 29 36  1  6  0  0  0
 30 37  1  1  0  0  0
 30 29  1  0  0  0  0
 31 30  1  0  0  0  0
 31 34  1  6  0  0  0
 32 31  1  0  0  0  0
 32 33  1  0  0  0  0
 33 28  1  0  0  0  0
 33 35  1  6  0  0  0
M  END
>  <CHROM.1>
153.16066317,-120.51491205,-83.84346171,163.62849151,-76.57316896,-79.52556225
176.07853526,-54.75457008,-115.77224501,114.11230299,72.74286063,-164.20838682
89.07182807,-51.05432134,-57.37514570,-142.43823687,-13.60511704,16.53160027
14.01270462,2.58553507,-1.25862878,-1.82339944

>  <Name>
lig.pdb

>  <RI>
0

>  <Rbt.Current_Directory>
/home/afrankz/demos/rdock_decoys_rna/rnas/2m4q

>  <Rbt.Executable>
rbdock ($Id: //depot/dev/client3/rdock/2013.1/src/exe/rbdock.cxx#4 $)

>  <Rbt.Library>
libRbt.so (2013.1, Build901 2013/11/27)

>  <Rbt.Parameter_File>
/export/apps/rDock/src/rDock_2013.1_src/data/scripts/dock_solv.prm

>  <Rbt.Receptor>
prm/blind_docking_80.prm

>  <SCORE>
-2.42945

>  <SCORE.INTER>
-17.9051

>  <SCORE.INTER.CONST>
1

>  <SCORE.INTER.POLAR>
-4.38603

>  <SCORE.INTER.ROT>
10

>  <SCORE.INTER.SOLV>
24.1086

>  <SCORE.INTER.VDW>
-15.6195

>  <SCORE.INTER.norm>
-0.483922

>  <SCORE.INTRA>
-0.953122

>  <SCORE.INTRA.DIHEDRAL>
-16.2257

>  <SCORE.INTRA.DIHEDRAL.0>
44.8331

>  <SCORE.INTRA.POLAR>
-0.573651

>  <SCORE.INTRA.POLAR.0>
-0.108895

>  <SCORE.INTRA.REPUL>
0.0910235

>  <SCORE.INTRA.REPUL.0>
0.00912235

>  <SCORE.INTRA.SOLV>
0.0057125

>  <SCORE.INTRA.SOLV.lig_0>
-53.9067

>  <SCORE.INTRA.VDW>
8.65216

>  <SCORE.INTRA.VDW.0>
-2.93492

>  <SCORE.INTRA.norm>
-0.0257601

>  <SCORE.RESTR>
16.4288

>  <SCORE.RESTR.CAVITY>
16.4288

>  <SCORE.RESTR.norm>
0.444021

>  <SCORE.SYSTEM>
0

>  <SCORE.SYSTEM.CONST>
0

>  <SCORE.SYSTEM.DIHEDRAL>
0

>  <SCORE.SYSTEM.SOLV>
0

>  <SCORE.SYSTEM.norm>
0

>  <SCORE.heavy>
37

>  <SCORE.norm>
-0.0656609

>  <RMSD>
19.670

$$$$
lig.pdb
 OpenBabel11021811453D
libRbt.so/2013.1/901 2013/11/27
 37 40  0  0  0  0  0  0  0  0999 V2000
  -16.0844   11.8124   12.8346 C   0  0  2  0  0  0  0  0  0  0  0  0
  -16.4796   12.9489   11.8350 C   0  0  1  0  0  0  0  0  0  0  0  0
  -15.6669   14.2606   12.0420 C   0  0  0  0  0  0  0  0  0  0  0  0
  -15.6532   14.6783   13.5334 C   0  0  1  0  0  0  0  0  0  0  0  0
  -15.1113   13.5193   14.3996 C   0  0  1  0  0  0  0  0  0  0  0  0
  -15.0424   13.9273   15.8957 C   0  0  1  0  0  0  0  0  0  0  0  0
  -14.2376   15.2490   16.0746 C   0  0  1  0  0  0  0  0  0  0  0  0
  -14.7508   16.3767   15.1305 C   0  0  2  0  0  0  0  0  0  0  0  0
  -13.1460   16.5316   17.8570 C   0  0  0  0  0  0  0  0  0  0  0  0
  -15.9117   12.3190   14.1980 O   0  0  0  0  0  0  0  0  0  0  0  0
  -14.8937   15.9011   13.7568 O   0  0  0  0  0  0  0  0  0  0  0  0
  -16.3086   12.4731   10.4450 N   0  0  0  0  0  0  0  0  0  0  0  0
  -14.2799   15.6541   17.4949 N   0  0  0  0  0  0  0  0  0  0  0  0
  -16.3421   14.0348   16.4621 O   0  0  0  0  0  0  0  0  0  0  0  0
  -13.8722   17.5377   15.2002 O   0  0  0  0  0  0  0  0  0  0  0  0
  -14.8793   11.1160   12.3926 O   0  0  0  0  0  0  0  0  0  0  0  0
  -13.7323   18.3779   14.0134 C   0  0  2  0  0  0  0  0  0  0  0  0
  -12.8591   19.6287   14.3160 C   0  0  1  0  0  0  0  0  0  0  0  0
  -13.5999   20.6386   15.2385 C   0  0  2  0  0  0  0  0  0  0  0  0
  -15.0008   21.0001   14.6651 C   0  0  1  0  0  0  0  0  0  0  0  0
  -15.8257   19.7225   14.3449 C   0  0  1  0  0  0  0  0  0  0  0  0
  -17.1688   20.0619   13.6467 C   0  0  0  0  0  0  0  0  0  0  0  0
  -15.0411   18.8016   13.5277 O   0  0  0  0  0  0  0  0  0  0  0  0
  -15.7388   21.9062   15.5722 N   0  0  0  0  0  0  0  0  0  0  0  0
  -11.5995   19.2404   14.8613 O   0  0  0  0  0  0  0  0  0  0  0  0
  -12.8153   21.8095   15.4551 O   0  0  0  0  0  0  0  0  0  0  0  0
  -17.6596   18.9408   12.9190 O   0  0  0  0  0  0  0  0  0  0  0  0
  -15.0092   10.1696   11.2921 C   0  0  1  0  0  0  0  0  0  0  0  0
  -13.6252    9.7041   10.7588 C   0  0  1  0  0  0  0  0  0  0  0  0
  -13.7849    8.7720    9.5248 C   0  0  2  0  0  0  0  0  0  0  0  0
  -14.7345    7.5632    9.8094 C   0  0  1  0  0  0  0  0  0  0  0  0
  -16.0792    7.9904   10.4705 C   0  0  0  0  0  0  0  0  0  0  0  0
  -15.8747    8.9401   11.6892 C   0  0  2  0  0  0  0  0  0  0  0  0
  -14.9777    6.7847    8.5762 N   0  0  0  0  0  0  0  0  0  0  0  0
  -17.1944    9.3388   12.2248 N   0  0  0  0  0  0  0  0  0  0  0  0
  -12.8011   10.8221   10.4449 O   0  0  0  0  0  0  0  0  0  0  0  0
  -12.5112    8.3113    9.0808 O   0  0  0  0  0  0  0  0  0  0  0  0
  1  2  1  0  0  0  0
  1 16  1  6  0  0  0
  2  3  1  0  0  0  0
  2 12  1  6  0  0  0
  4 11  1  6  0  0  0
  4  3  1  0  0  0  0
  5  4  1  0  0  0  0
  5 10  1  1  0  0  0
  6  7  1  0  0  0  0
  6  5  1  0  0  0  0
  6 14  1  6  0  0  0
  7  8  1  0  0  0  0
  7 13  1  1  0  0  0
  8 15  1  6  0  0  0
  8 11  1  0  0  0  0
  9 13  1  0  0  0  0
 10  1  1  0  0  0  0
 17 15  1  1  0  0  0
 17 18  1  0  0  0  0
 18 25  1  1  0  0  0
 19 18  1  0  0  0  0
 19 26  1  6  0  0  0
 20 19  1  0  0  0  0
 20 24  1  1  0  0  0
 21 23  1  0  0  0  0
 21 20  1  0  0  0  0
 21 22  1  6  0  0  0
 23 17  1  0  0  0  0
 27 22  1  0  0  0  0
 28 29  1  0  0  0  0
 28 16  1  1  0  0  0
 29 36  1  6  0  0  0
 30 37  1  1  0  0  0
 30 29  1  0  0  0  0
 31 30  1  0  0  0  0
 31 34  1  6  0  0  0
 32 31  1  0  0  0  0
 32 33  1  0  0  0  0
 33 28  1  0  0  0  0
 33 35  1  6  0  0  0
M  END
>  <CHROM.1>
168.83840866,149.64697683,156.77018219,-59.72995644,175.00983984,-75.89189779
67.67776791,65.38847769,157.80018998,56.36936611,-71.96501389,169.52183830
63.49353523,-156.04426658,-167.85455602,-167.02521417,-14.86365242,14.54062029
13.28937633,2.73491814,-1.53139419,-1.57007512

>  <Name>
lig.pdb

>  <RI>
0

>  <Rbt.Current_Directory>
/home/afrankz/demos/rdock_decoys_rna/rnas/2m4q

>  <Rbt.Executable>
rbdock ($Id: //depot/dev/client3/rdock/2013.1/src/exe/rbdock.cxx#4 $)

>  <Rbt.Library>
libRbt.so (2013.1, Build901 2013/11/27)

>  <Rbt.Parameter_File>
/export/apps/rDock/src/rDock_2013.1_src/data/scripts/dock_solv.prm

>  <Rbt.Receptor>
prm/blind_docking_40.prm

>  <SCORE>
5.0338

>  <SCORE.INTER>
-1.40228

>  <SCORE.INTER.CONST>
1

>  <SCORE.INTER.POLAR>
-2.96602

>  <SCORE.INTER.ROT>
10

>  <SCORE.INTER.SOLV>
19.0654

>  <SCORE.INTER.VDW>
-7.66992

>  <SCORE.INTER.norm>
-0.0378995

>  <SCORE.INTRA>
-15.5918

>  <SCORE.INTRA.DIHEDRAL>
-32.0496

>  <SCORE.INTRA.DIHEDRAL.0>
44.8331

>  <SCORE.INTRA.POLAR>
0.108576

>  <SCORE.INTRA.POLAR.0>
-0.108895

>  <SCORE.INTRA.REPUL>
-0.00912235

>  <SCORE.INTRA.REPUL.0>
0.00912235

>  <SCORE.INTRA.SOLV>
-1.60964

>  <SCORE.INTRA.SOLV.lig_0>
-53.9067

>  <SCORE.INTRA.VDW>
0.914251

>  <SCORE.INTRA.VDW.0>
-2.93492

>  <SCORE.INTRA.norm>
-0.421401

>  <SCORE.RESTR>
22.0279

>  <SCORE.RESTR.CAVITY>
22.0279

>  <SCORE.RESTR.norm>
0.595349

>  <SCORE.SYSTEM>
0

>  <SCORE.SYSTEM.CONST>
0

>  <SCORE.SYSTEM.DIHEDRAL>
0

>  <SCORE.SYSTEM.SOLV>
0

>  <SCORE.SYSTEM.norm>
0

>  <SCORE.heavy>
37

>  <SCORE.norm>
0.136049

>  <RMSD>
19.752

$$$$
lig.pdb
 OpenBabel11021811453D
libRbt.so/2013.1/901 2013/11/27
 37 40  0  0  0  0  0  0  0  0999 V2000
  -15.6090   12.7650   13.3498 C   0  0  2  0  0  0  0  0  0  0  0  0
  -16.6036   13.6401   12.5179 C   0  0  1  0  0  0  0  0  0  0  0  0
  -16.0895   15.0884   12.2694 C   0  0  0  0  0  0  0  0  0  0  0  0
  -15.5924   15.7369   13.5853 C   0  0  1  0  0  0  0  0  0  0  0  0
  -14.5132   14.8438   14.2372 C   0  0  1  0  0  0  0  0  0  0  0  0
  -13.9628   15.4931   15.5353 C   0  0  1  0  0  0  0  0  0  0  0  0
  -13.4688   16.9453   15.2637 C   0  0  1  0  0  0  0  0  0  0  0  0
  -14.5454   17.8004   14.5317 C   0  0  2  0  0  0  0  0  0  0  0  0
  -12.4024   16.5821   17.4419 C   0  0  0  0  0  0  0  0  0  0  0  0
  -15.0393   13.5067   14.4769 O   0  0  0  0  0  0  0  0  0  0  0  0
  -15.0995   17.0923   13.3804 O   0  0  0  0  0  0  0  0  0  0  0  0
  -16.8833   12.9835   11.2224 N   0  0  0  0  0  0  0  0  0  0  0  0
  -13.0466   17.5603   16.5391 N   0  0  0  0  0  0  0  0  0  0  0  0
  -14.9297   15.4642   16.5774 O   0  0  0  0  0  0  0  0  0  0  0  0
  -13.9918   19.0915   14.1429 O   0  0  0  0  0  0  0  0  0  0  0  0
  -14.5470   12.2254   12.5051 O   0  0  0  0  0  0  0  0  0  0  0  0
  -14.6010   20.3029   14.6862 C   0  0  2  0  0  0  0  0  0  0  0  0
  -13.8670   21.5743   14.1730 C   0  0  1  0  0  0  0  0  0  0  0  0
  -12.4512   21.7152   14.8021 C   0  0  2  0  0  0  0  0  0  0  0  0
  -12.5163   21.6367   16.3550 C   0  0  1  0  0  0  0  0  0  0  0  0
  -13.2871   20.3712   16.8238 C   0  0  1  0  0  0  0  0  0  0  0  0
  -13.4789   20.3487   18.3630 C   0  0  0  0  0  0  0  0  0  0  0  0
  -14.5763   20.2798   16.1448 O   0  0  0  0  0  0  0  0  0  0  0  0
  -11.1662   21.7004   16.9566 N   0  0  0  0  0  0  0  0  0  0  0  0
  -13.8149   21.5817   12.7475 O   0  0  0  0  0  0  0  0  0  0  0  0
  -11.8150   22.9175   14.3744 O   0  0  0  0  0  0  0  0  0  0  0  0
  -14.4815   19.4088   18.7355 O   0  0  0  0  0  0  0  0  0  0  0  0
  -14.9038   11.1819   11.5523 C   0  0  1  0  0  0  0  0  0  0  0  0
  -13.6487   10.5150   10.9230 C   0  0  1  0  0  0  0  0  0  0  0  0
  -14.0507    9.4741    9.8404 C   0  0  2  0  0  0  0  0  0  0  0  0
  -15.0635    8.4128   10.3805 C   0  0  1  0  0  0  0  0  0  0  0  0
  -16.2670    9.0520   11.1359 C   0  0  0  0  0  0  0  0  0  0  0  0
  -15.8211   10.1037   12.1960 C   0  0  2  0  0  0  0  0  0  0  0  0
  -15.5337    7.5327    9.2895 N   0  0  0  0  0  0  0  0  0  0  0  0
  -17.0187   10.6981   12.8283 N   0  0  0  0  0  0  0  0  0  0  0  0
  -12.7719   11.4967   10.3798 O   0  0  0  0  0  0  0  0  0  0  0  0
  -12.8924    8.8336    9.3113 O   0  0  0  0  0  0  0  0  0  0  0  0
  1  2  1  0  0  0  0
  1 16  1  6  0  0  0
  2  3  1  0  0  0  0
  2 12  1  6  0  0  0
  4 11  1  6  0  0  0
  4  3  1  0  0  0  0
  5  4  1  0  0  0  0
  5 10  1  1  0  0  0
  6  7  1  0  0  0  0
  6  5  1  0  0  0  0
  6 14  1  1  0  0  0
  7  8  1  0  0  0  0
  7 13  1  1  0  0  0
  8 15  1  6  0  0  0
  8 11  1  0  0  0  0
  9 13  1  0  0  0  0
 10  1  1  0  0  0  0
 17 15  1  6  0  0  0
 17 18  1  0  0  0  0
 18 25  1  6  0  0  0
 19 18  1  0  0  0  0
 19 26  1  1  0  0  0
 20 19  1  0  0  0  0
 20 24  1  1  0  0  0
 21 23  1  0  0  0  0
 21 20  1  0  0  0  0
 21 22  1  1  0  0  0
 23 17  1  0  0  0  0
 27 22  1  0  0  0  0
 28 29  1  0  0  0  0
 28 16  1  1  0  0  0
 29 36  1  6  0  0  0
 30 37  1  1  0  0  0
 30 29  1  0  0  0  0
 31 30  1  0  0  0  0
 31 34  1  6  0  0  0
 32 31  1  0  0  0  0
 32 33  1  0  0  0  0
 33 28  1  0  0  0  0
 33 35  1  6  0  0  0
M  END
>  <CHROM.1>
49.57015346,-119.23206311,35.96974737,65.51567073,179.33821237,-70.85285729
-59.36226557,177.13318884,163.85420192,167.42144576,-171.19575100,-168.99837871
179.85380107,-78.71923028,-164.08475018,-100.96441511,-14.30940324,15.58432368
13.77961634,2.06892997,-1.24368638,-2.22253293

>  <Name>
lig.pdb

>  <RI>
0

>  <Rbt.Current_Directory>
/home/afrankz/demos/rdock_decoys_rna/rnas/2m4q

>  <Rbt.Executable>
rbdock ($Id: //depot/dev/client3/rdock/2013.1/src/exe/rbdock.cxx#4 $)

>  <Rbt.Library>
libRbt.so (2013.1, Build901 2013/11/27)

>  <Rbt.Parameter_File>
/export/apps/rDock/src/rDock_2013.1_src/data/scripts/dock_solv.prm

>  <Rbt.Receptor>
prm/blind_docking_40.prm

>  <SCORE>
-3.24485

>  <SCORE.INTER>
-16.2917

>  <SCORE.INTER.CONST>
1

>  <SCORE.INTER.POLAR>
-4.22842

>  <SCORE.INTER.ROT>
10

>  <SCORE.INTER.SOLV>
18.4332

>  <SCORE.INTER.VDW>
-13.1775

>  <SCORE.INTER.norm>
-0.440315

>  <SCORE.INTRA>
-6.58155

>  <SCORE.INTRA.DIHEDRAL>
-29.5616

>  <SCORE.INTRA.DIHEDRAL.0>
44.8331

>  <SCORE.INTRA.POLAR>
-0.695599

>  <SCORE.INTRA.POLAR.0>
-0.108895

>  <SCORE.INTRA.REPUL>
-0.00912235

>  <SCORE.INTRA.REPUL.0>
0.00912235

>  <SCORE.INTRA.SOLV>
0.821248

>  <SCORE.INTRA.SOLV.lig_0>
-53.9067

>  <SCORE.INTRA.VDW>
10.1992

>  <SCORE.INTRA.VDW.0>
-2.93492

>  <SCORE.INTRA.norm>
-0.17788

>  <SCORE.RESTR>
19.6284

>  <SCORE.RESTR.CAVITY>
19.6284

>  <SCORE.RESTR.norm>
0.530497

>  <SCORE.SYSTEM>
0

>  <SCORE.SYSTEM.CONST>
0

>  <SCORE.SYSTEM.DIHEDRAL>
0

>  <SCORE.SYSTEM.SOLV>
0

>  <SCORE.SYSTEM.norm>
0

>  <SCORE.heavy>
37

>  <SCORE.norm>
-0.0876988

>  <RMSD>
19.795

$$$$
lig.pdb
 OpenBabel11021811453D
libRbt.so/2013.1/901 2013/11/27
 37 40  0  0  0  0  0  0  0  0999 V2000
  -15.9124   21.1038    4.0770 C   0  0  2  0  0  0  0  0  0  0  0  0
  -15.9536   19.6342    4.6116 C   0  0  1  0  0  0  0  0  0  0  0  0
  -14.5714   19.1231    5.1137 C   0  0  0  0  0  0  0  0  0  0  0  0
  -13.4600   19.4086    4.0734 C   0  0  1  0  0  0  0  0  0  0  0  0
  -13.4311   20.9158    3.7345 C   0  0  1  0  0  0  0  0  0  0  0  0
  -12.2944   21.2385    2.7278 C   0  0  1  0  0  0  0  0  0  0  0  0
  -10.9257   20.7045    3.2457 C   0  0  1  0  0  0  0  0  0  0  0  0
  -11.0032   19.2045    3.6585 C   0  0  2  0  0  0  0  0  0  0  0  0
   -8.5716   20.4140    2.6231 C   0  0  0  0  0  0  0  0  0  0  0  0
  -14.7326   21.3501    3.2448 O   0  0  0  0  0  0  0  0  0  0  0  0
  -12.1534   18.9453    4.5208 O   0  0  0  0  0  0  0  0  0  0  0  0
  -16.9482   19.5268    5.7010 N   0  0  0  0  0  0  0  0  0  0  0  0
   -9.8917   20.9430    2.2175 N   0  0  0  0  0  0  0  0  0  0  0  0
  -12.5901   20.7287    1.4339 O   0  0  0  0  0  0  0  0  0  0  0  0
   -9.7600   18.7868    4.2944 O   0  0  0  0  0  0  0  0  0  0  0  0
  -15.9733   22.0663    5.1735 O   0  0  0  0  0  0  0  0  0  0  0  0
   -9.8280   17.8304    5.3964 C   0  0  2  0  0  0  0  0  0  0  0  0
   -8.4093   17.5180    5.9517 C   0  0  1  0  0  0  0  0  0  0  0  0
   -7.5729   16.6708    4.9504 C   0  0  2  0  0  0  0  0  0  0  0  0
   -8.3474   15.3947    4.5103 C   0  0  1  0  0  0  0  0  0  0  0  0
   -9.7705   15.7485    3.9955 C   0  0  1  0  0  0  0  0  0  0  0  0
  -10.6036   14.4781    3.6816 C   0  0  0  0  0  0  0  0  0  0  0  0
  -10.4663   16.5924    4.9625 O   0  0  0  0  0  0  0  0  0  0  0  0
   -7.5866   14.6202    3.5054 N   0  0  0  0  0  0  0  0  0  0  0  0
   -7.7371   18.7224    6.3152 O   0  0  0  0  0  0  0  0  0  0  0  0
   -6.2993   16.3359    5.4976 O   0  0  0  0  0  0  0  0  0  0  0  0
  -10.1655   13.8708    2.4706 O   0  0  0  0  0  0  0  0  0  0  0  0
  -16.1176   23.4754    4.8305 C   0  0  1  0  0  0  0  0  0  0  0  0
  -15.3590   24.3970    5.8262 C   0  0  1  0  0  0  0  0  0  0  0  0
  -15.6049   25.8971    5.4999 C   0  0  2  0  0  0  0  0  0  0  0  0
  -15.2697   26.2468    4.0136 C   0  0  1  0  0  0  0  0  0  0  0  0
  -15.9103   25.2545    2.9974 C   0  0  0  0  0  0  0  0  0  0  0  0
  -15.6579   23.7632    3.3730 C   0  0  2  0  0  0  0  0  0  0  0  0
  -15.6535   27.6403    3.7025 N   0  0  0  0  0  0  0  0  0  0  0  0
  -16.3392   22.8903    2.3925 N   0  0  0  0  0  0  0  0  0  0  0  0
  -15.7288   24.1044    7.1698 O   0  0  0  0  0  0  0  0  0  0  0  0
  -14.8610   26.7281    6.3874 O   0  0  0  0  0  0  0  0  0  0  0  0
  1  2  1  0  0  0  0
  1 16  1  1  0  0  0
  2  3  1  0  0  0  0
  2 12  1  1  0  0  0
  4 11  1  1  0  0  0
  4  3  1  0  0  0  0
  5  4  1  0  0  0  0
  5 10  1  6  0  0  0
  6  7  1  0  0  0  0
  6  5  1  0  0  0  0
  6 14  1  6  0  0  0
  7  8  1  0  0  0  0
  7 13  1  6  0  0  0
  8 15  1  1  0  0  0
  8 11  1  0  0  0  0
  9 13  1  0  0  0  0
 10  1  1  0  0  0  0
 17 15  1  6  0  0  0
 17 18  1  0  0  0  0
 18 25  1  6  0  0  0
 19 18  1  0  0  0  0
 19 26  1  1  0  0  0
 20 19  1  0  0  0  0
 20 24  1  6  0  0  0
 21 23  1  0  0  0  0
 21 20  1  0  0  0  0
 21 22  1  1  0  0  0
 23 17  1  0  0  0  0
 27 22  1  0  0  0  0
 28 29  1  0  0  0  0
 28 16  1  1  0  0  0
 29 36  1  1  0  0  0
 30 37  1  1  0  0  0
 30 29  1  0  0  0  0
 31 30  1  0  0  0  0
 31 34  1  6  0  0  0
 32 31  1  0  0  0  0
 32 33  1  0  0  0  0
 33 28  1  0  0  0  0
 33 35  1  6  0  0  0
M  END
>  <CHROM.1>
80.84274637,143.99155008,-177.89517243,-59.42939175,-179.48193959,-172.29204041
54.10325755,-56.70224501,-74.63433918,39.41990018,153.41213548,-145.59820721
-147.05695253,-178.80903829,-51.40872459,18.78073243,-12.44504995,20.31554226
4.27393800,2.27755316,-0.05742947,0.08350236

>  <Name>
lig.pdb

>  <RI>
0

>  <Rbt.Current_Directory>
/home/afrankz/demos/rdock_decoys_rna/rnas/2m4q

>  <Rbt.Executable>
rbdock ($Id: //depot/dev/client3/rdock/2013.1/src/exe/rbdock.cxx#4 $)

>  <Rbt.Library>
libRbt.so (2013.1, Build901 2013/11/27)

>  <Rbt.Parameter_File>
/export/apps/rDock/src/rDock_2013.1_src/data/scripts/dock_solv.prm

>  <Rbt.Receptor>
prm/blind_docking_80.prm

>  <SCORE>
8.09927

>  <SCORE.INTER>
-13.7958

>  <SCORE.INTER.CONST>
1

>  <SCORE.INTER.POLAR>
-3.05989

>  <SCORE.INTER.ROT>
10

>  <SCORE.INTER.SOLV>
28.5399

>  <SCORE.INTER.VDW>
-18.7775

>  <SCORE.INTER.norm>
-0.37286

>  <SCORE.INTRA>
-0.512769

>  <SCORE.INTRA.DIHEDRAL>
-23.4417

>  <SCORE.INTRA.DIHEDRAL.0>
44.8331

>  <SCORE.INTRA.POLAR>
-0.653475

>  <SCORE.INTRA.POLAR.0>
-0.108895

>  <SCORE.INTRA.REPUL>
-0.00912235

>  <SCORE.INTRA.REPUL.0>
0.00912235

>  <SCORE.INTRA.SOLV>
-0.734878

>  <SCORE.INTRA.SOLV.lig_0>
-53.9067

>  <SCORE.INTRA.VDW>
13.8429

>  <SCORE.INTRA.VDW.0>
-2.93492

>  <SCORE.INTRA.norm>
-0.0138586

>  <SCORE.RESTR>
22.4079

>  <SCORE.RESTR.CAVITY>
22.4079

>  <SCORE.RESTR.norm>
0.605618

>  <SCORE.SYSTEM>
0

>  <SCORE.SYSTEM.CONST>
0

>  <SCORE.SYSTEM.DIHEDRAL>
0

>  <SCORE.SYSTEM.SOLV>
0

>  <SCORE.SYSTEM.norm>
0

>  <SCORE.heavy>
37

>  <SCORE.norm>
0.218899

>  <RMSD>
19.843

$$$$
lig.pdb
 OpenBabel11021811453D
libRbt.so/2013.1/901 2013/11/27
 37 40  0  0  0  0  0  0  0  0999 V2000
  -13.1435   20.3994   16.5602 C   0  0  2  0  0  0  0  0  0  0  0  0
  -13.0328   19.2392   17.6037 C   0  0  1  0  0  0  0  0  0  0  0  0
  -12.8868   17.8344   16.9489 C   0  0  0  0  0  0  0  0  0  0  0  0
  -13.9520   17.6204   15.8450 C   0  0  1  0  0  0  0  0  0  0  0  0
  -13.8645   18.7568   14.8019 C   0  0  1  0  0  0  0  0  0  0  0  0
  -14.8909   18.5424   13.6573 C   0  0  1  0  0  0  0  0  0  0  0  0
  -14.7343   17.1255   13.0290 C   0  0  1  0  0  0  0  0  0  0  0  0
  -14.7429   16.0039   14.1098 C   0  0  2  0  0  0  0  0  0  0  0  0
  -15.6379   15.6400   11.2996 C   0  0  0  0  0  0  0  0  0  0  0  0
  -14.0309   20.0517   15.4481 O   0  0  0  0  0  0  0  0  0  0  0  0
  -13.8345   16.3143   15.2107 O   0  0  0  0  0  0  0  0  0  0  0  0
  -11.8881   19.4874   18.5068 N   0  0  0  0  0  0  0  0  0  0  0  0
  -15.7902   16.9254   12.0150 N   0  0  0  0  0  0  0  0  0  0  0  0
  -16.2212   18.7616   14.1088 O   0  0  0  0  0  0  0  0  0  0  0  0
  -14.4247   14.7150   13.5081 O   0  0  0  0  0  0  0  0  0  0  0  0
  -11.8273   20.7873   16.0605 O   0  0  0  0  0  0  0  0  0  0  0  0
  -15.0514   13.5156   14.0579 C   0  0  2  0  0  0  0  0  0  0  0  0
  -14.4580   12.2310   13.4127 C   0  0  1  0  0  0  0  0  0  0  0  0
  -14.9008   12.0743   11.9297 C   0  0  2  0  0  0  0  0  0  0  0  0
  -16.4484   12.1632   11.7931 C   0  0  1  0  0  0  0  0  0  0  0  0
  -17.0025   13.4422   12.4806 C   0  0  1  0  0  0  0  0  0  0  0  0
  -18.5534   13.4769   12.4721 C   0  0  0  0  0  0  0  0  0  0  0  0
  -16.4944   13.5473   13.8452 O   0  0  0  0  0  0  0  0  0  0  0  0
  -16.8717   12.0844   10.3777 N   0  0  0  0  0  0  0  0  0  0  0  0
  -13.0379   12.2141   13.5449 O   0  0  0  0  0  0  0  0  0  0  0  0
  -14.4042   10.8606   11.3695 O   0  0  0  0  0  0  0  0  0  0  0  0
  -19.0879   12.4664   13.3210 O   0  0  0  0  0  0  0  0  0  0  0  0
  -11.6954   22.1045   15.4510 C   0  0  1  0  0  0  0  0  0  0  0  0
  -10.2458   22.3756   14.9597 C   0  0  1  0  0  0  0  0  0  0  0  0
  -10.1042   23.8198   14.4018 C   0  0  2  0  0  0  0  0  0  0  0  0
  -11.1618   24.1382   13.2955 C   0  0  1  0  0  0  0  0  0  0  0  0
  -12.6119   23.7495   13.7125 C   0  0  0  0  0  0  0  0  0  0  0  0
  -12.7053   22.3031   14.2852 C   0  0  2  0  0  0  0  0  0  0  0  0
  -11.0919   25.5599   12.8955 N   0  0  0  0  0  0  0  0  0  0  0  0
  -14.0978   22.0322   14.7036 N   0  0  0  0  0  0  0  0  0  0  0  0
   -9.3052   22.1419   16.0029 O   0  0  0  0  0  0  0  0  0  0  0  0
   -8.7850   24.0352   13.9068 O   0  0  0  0  0  0  0  0  0  0  0  0
  1  2  1  0  0  0  0
  1 16  1  6  0  0  0
  2  3  1  0  0  0  0
  2 12  1  1  0  0  0
  4 11  1  6  0  0  0
  4  3  1  0  0  0  0
  5  4  1  0  0  0  0
  5 10  1  1  0  0  0
  6  7  1  0  0  0  0
  6  5  1  0  0  0  0
  6 14  1  1  0  0  0
  7  8  1  0  0  0  0
  7 13  1  6  0  0  0
  8 15  1  6  0  0  0
  8 11  1  0  0  0  0
  9 13  1  0  0  0  0
 10  1  1  0  0  0  0
 17 15  1  6  0  0  0
 17 18  1  0  0  0  0
 18 25  1  6  0  0  0
 19 18  1  0  0  0  0
 19 26  1  1  0  0  0
 20 19  1  0  0  0  0
 20 24  1  6  0  0  0
 21 23  1  0  0  0  0
 21 20  1  0  0  0  0
 21 22  1  1  0  0  0
 23 17  1  0  0  0  0
 27 22  1  0  0  0  0
 28 29  1  0  0  0  0
 28 16  1  6  0  0  0
 29 36  1  1  0  0  0
 30 37  1  6  0  0  0
 30 29  1  0  0  0  0
 31 30  1  0  0  0  0
 31 34  1  1  0  0  0
 32 31  1  0  0  0  0
 32 33  1  0  0  0  0
 33 28  1  0  0  0  0
 33 35  1  1  0  0  0
M  END
>  <CHROM.1>
-9.68324085,-146.68865574,175.46589356,66.77419189,-172.79121778,-159.81963910
-62.46862605,60.73733450,68.40658708,175.79247773,-57.97939221,-179.66607884
41.04719291,174.60629951,72.33686515,-169.91342910,-13.86602216,17.77302796
14.06684764,-0.78199980,0.92042271,2.70037082

>  <Name>
lig.pdb

>  <RI>
0

>  <Rbt.Current_Directory>
/home/afrankz/demos/rdock_decoys_rna/rnas/2m4q

>  <Rbt.Executable>
rbdock ($Id: //depot/dev/client3/rdock/2013.1/src/exe/rbdock.cxx#4 $)

>  <Rbt.Library>
libRbt.so (2013.1, Build901 2013/11/27)

>  <Rbt.Parameter_File>
/export/apps/rDock/src/rDock_2013.1_src/data/scripts/dock_solv.prm

>  <Rbt.Receptor>
prm/blind_docking_80.prm

>  <SCORE>
42.2978

>  <SCORE.INTER>
19.8136

>  <SCORE.INTER.CONST>
1

>  <SCORE.INTER.POLAR>
-2.62722

>  <SCORE.INTER.ROT>
10

>  <SCORE.INTER.SOLV>
21.7219

>  <SCORE.INTER.VDW>
4.45914

>  <SCORE.INTER.norm>
0.535502

>  <SCORE.INTRA>
-1.48152

>  <SCORE.INTRA.DIHEDRAL>
-32.771

>  <SCORE.INTRA.DIHEDRAL.0>
44.8331

>  <SCORE.INTRA.POLAR>
-0.201549

>  <SCORE.INTRA.POLAR.0>
-0.108895

>  <SCORE.INTRA.REPUL>
0.59225

>  <SCORE.INTRA.REPUL.0>
0.00912235

>  <SCORE.INTRA.SOLV>
-0.575316

>  <SCORE.INTRA.SOLV.lig_0>
-53.9067

>  <SCORE.INTRA.VDW>
12.9157

>  <SCORE.INTRA.VDW.0>
-2.93492

>  <SCORE.INTRA.norm>
-0.040041

>  <SCORE.RESTR>
23.9657

>  <SCORE.RESTR.CAVITY>
23.9657

>  <SCORE.RESTR.norm>
0.647723

>  <SCORE.SYSTEM>
0

>  <SCORE.SYSTEM.CONST>
0

>  <SCORE.SYSTEM.DIHEDRAL>
0

>  <SCORE.SYSTEM.SOLV>
0

>  <SCORE.SYSTEM.norm>
0

>  <SCORE.heavy>
37

>  <SCORE.norm>
1.14318

>  <RMSD>
19.863

$$$$
lig.pdb
 OpenBabel11021811453D
libRbt.so/2013.1/901 2013/11/27
 37 40  0  0  0  0  0  0  0  0999 V2000
  -16.1058   14.5992   12.9385 C   0  0  2  0  0  0  0  0  0  0  0  0
  -16.8763   15.8972   12.5279 C   0  0  1  0  0  0  0  0  0  0  0  0
  -15.9752   17.1666   12.5052 C   0  0  0  0  0  0  0  0  0  0  0  0
  -15.1451   17.2843   13.8076 C   0  0  1  0  0  0  0  0  0  0  0  0
  -14.3225   15.9947   14.0257 C   0  0  1  0  0  0  0  0  0  0  0  0
  -13.4441   16.1035   15.3009 C   0  0  1  0  0  0  0  0  0  0  0  0
  -12.5637   17.3880   15.2609 C   0  0  1  0  0  0  0  0  0  0  0  0
  -13.4054   18.6630   14.9574 C   0  0  2  0  0  0  0  0  0  0  0  0
  -12.6941   17.9122   17.6530 C   0  0  0  0  0  0  0  0  0  0  0  0
  -15.2016   14.8338   14.0665 O   0  0  0  0  0  0  0  0  0  0  0  0
  -14.2875   18.4617   13.8106 O   0  0  0  0  0  0  0  0  0  0  0  0
  -17.5012   15.7083   11.2007 N   0  0  0  0  0  0  0  0  0  0  0  0
  -11.8195   17.5055   16.5320 N   0  0  0  0  0  0  0  0  0  0  0  0
  -14.2375   16.0592   16.4800 O   0  0  0  0  0  0  0  0  0  0  0  0
  -12.5328   19.8135   14.7587 O   0  0  0  0  0  0  0  0  0  0  0  0
  -15.3738   14.0392   11.8058 O   0  0  0  0  0  0  0  0  0  0  0  0
  -12.7082   20.9785   15.6223 C   0  0  2  0  0  0  0  0  0  0  0  0
  -13.5859   22.0590   14.9290 C   0  0  1  0  0  0  0  0  0  0  0  0
  -12.8334   22.7441   13.7524 C   0  0  2  0  0  0  0  0  0  0  0  0
  -11.4498   23.2886   14.2117 C   0  0  1  0  0  0  0  0  0  0  0  0
  -10.6205   22.1873   14.9293 C   0  0  1  0  0  0  0  0  0  0  0  0
   -9.2973   22.7487   15.5128 C   0  0  0  0  0  0  0  0  0  0  0  0
  -11.4151   21.5534   15.9772 O   0  0  0  0  0  0  0  0  0  0  0  0
  -10.6994   23.8798   13.0821 N   0  0  0  0  0  0  0  0  0  0  0  0
  -14.8287   21.5001   14.5075 O   0  0  0  0  0  0  0  0  0  0  0  0
  -13.6238   23.7768   13.1674 O   0  0  0  0  0  0  0  0  0  0  0  0
   -9.5471   23.5275   16.6783 O   0  0  0  0  0  0  0  0  0  0  0  0
  -15.4445   12.5982   11.5994 C   0  0  1  0  0  0  0  0  0  0  0  0
  -16.4561   12.2196   10.4816 C   0  0  1  0  0  0  0  0  0  0  0  0
  -16.5877   10.6766   10.3442 C   0  0  2  0  0  0  0  0  0  0  0  0
  -15.2054    9.9761   10.1385 C   0  0  1  0  0  0  0  0  0  0  0  0
  -14.1308   10.4406   11.1668 C   0  0  0  0  0  0  0  0  0  0  0  0
  -14.0465   11.9919   11.2887 C   0  0  2  0  0  0  0  0  0  0  0  0
  -15.3537    8.5052   10.1596 N   0  0  0  0  0  0  0  0  0  0  0  0
  -13.0451   12.3475   12.3173 N   0  0  0  0  0  0  0  0  0  0  0  0
  -17.7261   12.8160   10.7244 O   0  0  0  0  0  0  0  0  0  0  0  0
  -17.4773   10.3456    9.2808 O   0  0  0  0  0  0  0  0  0  0  0  0
  1  2  1  0  0  0  0
  1 16  1  6  0  0  0
  2  3  1  0  0  0  0
  2 12  1  6  0  0  0
  4 11  1  6  0  0  0
  4  3  1  0  0  0  0
  5  4  1  0  0  0  0
  5 10  1  1  0  0  0
  6  7  1  0  0  0  0
  6  5  1  0  0  0  0
  6 14  1  1  0  0  0
  7  8  1  0  0  0  0
  7 13  1  1  0  0  0
  8 15  1  6  0  0  0
  8 11  1  0  0  0  0
  9 13  1  0  0  0  0
 10  1  1  0  0  0  0
 17 15  1  6  0  0  0
 17 18  1  0  0  0  0
 18 25  1  6  0  0  0
 19 18  1  0  0  0  0
 19 26  1  1  0  0  0
 20 19  1  0  0  0  0
 20 24  1  6  0  0  0
 21 23  1  0  0  0  0
 21 20  1  0  0  0  0
 21 22  1  1  0  0  0
 23 17  1  0  0  0  0
 27 22  1  0  0  0  0
 28 29  1  0  0  0  0
 28 16  1  6  0  0  0
 29 36  1  1  0  0  0
 30 37  1  6  0  0  0
 30 29  1  0  0  0  0
 31 30  1  0  0  0  0
 31 34  1  1  0  0  0
 32 31  1  0  0  0  0
 32 33  1  0  0  0  0
 33 28  1  0  0  0  0
 33 35  1  1  0  0  0
M  END
>  <CHROM.1>
165.92702325,-121.96377692,-73.37643390,154.20714434,-97.02308847,-135.75323885
-45.79659277,64.14320336,74.21168690,-119.94350248,-57.73284096,100.60359871
-179.47315176,56.89900179,-168.34978568,74.36817210,-13.99453147,16.98990120
13.44791330,2.07249108,0.77500068,-3.13436668

>  <Name>
lig.pdb

>  <RI>
0

>  <Rbt.Current_Directory>
/home/afrankz/demos/rdock_decoys_rna/rnas/2m4q

>  <Rbt.Executable>
rbdock ($Id: //depot/dev/client3/rdock/2013.1/src/exe/rbdock.cxx#4 $)

>  <Rbt.Library>
libRbt.so (2013.1, Build901 2013/11/27)

>  <Rbt.Parameter_File>
/export/apps/rDock/src/rDock_2013.1_src/data/scripts/dock_solv.prm

>  <Rbt.Receptor>
prm/blind_docking_80.prm

>  <SCORE>
-7.21473

>  <SCORE.INTER>
-24.3413

>  <SCORE.INTER.CONST>
1

>  <SCORE.INTER.POLAR>
-5.10111

>  <SCORE.INTER.ROT>
10

>  <SCORE.INTER.SOLV>
22.1156

>  <SCORE.INTER.VDW>
-16.8624

>  <SCORE.INTER.norm>
-0.657873

>  <SCORE.INTRA>
-6.42543

>  <SCORE.INTRA.DIHEDRAL>
-12.8232

>  <SCORE.INTRA.DIHEDRAL.0>
44.8331

>  <SCORE.INTRA.POLAR>
-1.40359

>  <SCORE.INTRA.POLAR.0>
-0.108895

>  <SCORE.INTRA.REPUL>
-0.00912235

>  <SCORE.INTRA.REPUL.0>
0.00912235

>  <SCORE.INTRA.SOLV>
-0.271129

>  <SCORE.INTRA.SOLV.lig_0>
-53.9067

>  <SCORE.INTRA.VDW>
4.93951

>  <SCORE.INTRA.VDW.0>
-2.93492

>  <SCORE.INTRA.norm>
-0.17366

>  <SCORE.RESTR>
23.552

>  <SCORE.RESTR.CAVITY>
23.552

>  <SCORE.RESTR.norm>
0.63654

>  <SCORE.SYSTEM>
0

>  <SCORE.SYSTEM.CONST>
0

>  <SCORE.SYSTEM.DIHEDRAL>
0

>  <SCORE.SYSTEM.SOLV>
0

>  <SCORE.SYSTEM.norm>
0

>  <SCORE.heavy>
37

>  <SCORE.norm>
-0.194993

>  <RMSD>
19.949

$$$$
lig.pdb
 OpenBabel11021811453D
libRbt.so/2013.1/901 2013/11/27
 37 40  0  0  0  0  0  0  0  0999 V2000
  -16.4325   14.8473   14.3118 C   0  0  2  0  0  0  0  0  0  0  0  0
  -17.0601   16.2024   13.8461 C   0  0  1  0  0  0  0  0  0  0  0  0
  -16.2683   17.4490   14.3391 C   0  0  0  0  0  0  0  0  0  0  0  0
  -15.9689   17.3551   15.8559 C   0  0  1  0  0  0  0  0  0  0  0  0
  -15.2238   16.0372   16.1646 C   0  0  1  0  0  0  0  0  0  0  0  0
  -14.8691   15.9381   17.6726 C   0  0  1  0  0  0  0  0  0  0  0  0
  -14.0910   17.2026   18.1444 C   0  0  1  0  0  0  0  0  0  0  0  0
  -14.8226   18.5193   17.7480 C   0  0  2  0  0  0  0  0  0  0  0  0
  -15.0812   17.4214   20.3772 C   0  0  0  0  0  0  0  0  0  0  0  0
  -16.0063   14.8948   15.7123 O   0  0  0  0  0  0  0  0  0  0  0  0
  -15.2228   18.5074   16.3432 O   0  0  0  0  0  0  0  0  0  0  0  0
  -17.1563   16.2272   12.3704 N   0  0  0  0  0  0  0  0  0  0  0  0
  -13.8603   17.1144   19.6011 N   0  0  0  0  0  0  0  0  0  0  0  0
  -16.0309   15.7232   18.4634 O   0  0  0  0  0  0  0  0  0  0  0  0
  -13.9888   19.6758   18.0512 O   0  0  0  0  0  0  0  0  0  0  0  0
  -15.3177   14.4588   13.4522 O   0  0  0  0  0  0  0  0  0  0  0  0
  -12.6284   19.7124   17.5201 C   0  0  2  0  0  0  0  0  0  0  0  0
  -12.4849   20.8130   16.4307 C   0  0  1  0  0  0  0  0  0  0  0  0
  -13.2415   20.4333   15.1255 C   0  0  2  0  0  0  0  0  0  0  0  0
  -12.8205   19.0221   14.6224 C   0  0  1  0  0  0  0  0  0  0  0  0
  -12.9460   17.9607   15.7507 C   0  0  1  0  0  0  0  0  0  0  0  0
  -12.4018   16.5778   15.3060 C   0  0  0  0  0  0  0  0  0  0  0  0
  -12.2624   18.4172   16.9572 O   0  0  0  0  0  0  0  0  0  0  0  0
  -13.5866   18.6259   13.4205 N   0  0  0  0  0  0  0  0  0  0  0  0
  -12.9071   22.0777   16.9375 O   0  0  0  0  0  0  0  0  0  0  0  0
  -13.0483   21.4188   14.1131 O   0  0  0  0  0  0  0  0  0  0  0  0
  -13.1859   16.0414   14.2454 O   0  0  0  0  0  0  0  0  0  0  0  0
  -15.4103   13.1797   12.7599 C   0  0  1  0  0  0  0  0  0  0  0  0
  -16.3294   13.2606   11.5089 C   0  0  1  0  0  0  0  0  0  0  0  0
  -16.4916   11.8657   10.8417 C   0  0  2  0  0  0  0  0  0  0  0  0
  -15.1167   11.1995   10.5105 C   0  0  1  0  0  0  0  0  0  0  0  0
  -14.1245   11.2261   11.7116 C   0  0  0  0  0  0  0  0  0  0  0  0
  -14.0079   12.6367   12.3637 C   0  0  2  0  0  0  0  0  0  0  0  0
  -15.3074    9.8196   10.0152 N   0  0  0  0  0  0  0  0  0  0  0  0
  -13.0916   12.5651   13.5225 N   0  0  0  0  0  0  0  0  0  0  0  0
  -17.5987   13.8100   11.8475 O   0  0  0  0  0  0  0  0  0  0  0  0
  -17.2927   11.9659    9.6670 O   0  0  0  0  0  0  0  0  0  0  0  0
  1  2  1  0  0  0  0
  1 16  1  6  0  0  0
  2  3  1  0  0  0  0
  2 12  1  6  0  0  0
  4 11  1  6  0  0  0
  4  3  1  0  0  0  0
  5  4  1  0  0  0  0
  5 10  1  1  0  0  0
  6  7  1  0  0  0  0
  6  5  1  0  0  0  0
  6 14  1  1  0  0  0
  7  8  1  0  0  0  0
  7 13  1  1  0  0  0
  8 15  1  6  0  0  0
  8 11  1  0  0  0  0
  9 13  1  0  0  0  0
 10  1  1  0  0  0  0
 17 15  1  6  0  0  0
 17 18  1  0  0  0  0
 18 25  1  1  0  0  0
 19 18  1  0  0  0  0
 19 26  1  6  0  0  0
 20 19  1  0  0  0  0
 20 24  1  6  0  0  0
 21 23  1  0  0  0  0
 21 20  1  0  0  0  0
 21 22  1  6  0  0  0
 23 17  1  0  0  0  0
 27 22  1  0  0  0  0
 28 29  1  0  0  0  0
 28 16  1  6  0  0  0
 29 36  1  1  0  0  0
 30 37  1  6  0  0  0
 30 29  1  0  0  0  0
 31 30  1  0  0  0  0
 31 34  1  1  0  0  0
 32 31  1  0  0  0  0
 32 33  1  0  0  0  0
 33 28  1  0  0  0  0
 33 35  1  1  0  0  0
M  END
>  <CHROM.1>
174.75956912,53.47570214,-76.23421010,69.41566540,111.26697539,-121.01517879
65.23806092,-167.16243595,-64.62397681,-20.63098624,-151.46746005,78.38158905
-59.48042834,47.74710503,99.03495225,-161.69425866,-14.70513051,16.22907056
14.78523821,2.28589277,-1.20461018,-1.77561307

>  <Name>
lig.pdb

>  <RI>
0

>  <Rbt.Current_Directory>
/home/afrankz/demos/rdock_decoys_rna/rnas/2m4q

>  <Rbt.Executable>
rbdock ($Id: //depot/dev/client3/rdock/2013.1/src/exe/rbdock.cxx#4 $)

>  <Rbt.Library>
libRbt.so (2013.1, Build901 2013/11/27)

>  <Rbt.Parameter_File>
/export/apps/rDock/src/rDock_2013.1_src/data/scripts/dock_solv.prm

>  <Rbt.Receptor>
prm/blind_docking_40.prm

>  <SCORE>
3.68722

>  <SCORE.INTER>
-22.7013

>  <SCORE.INTER.CONST>
1

>  <SCORE.INTER.POLAR>
-7.29495

>  <SCORE.INTER.ROT>
10

>  <SCORE.INTER.SOLV>
16.0385

>  <SCORE.INTER.VDW>
-6.43049

>  <SCORE.INTER.norm>
-0.613548

>  <SCORE.INTRA>
1.72315

>  <SCORE.INTRA.DIHEDRAL>
-18.7647

>  <SCORE.INTRA.DIHEDRAL.0>
44.8331

>  <SCORE.INTRA.POLAR>
-0.662267

>  <SCORE.INTRA.POLAR.0>
-0.108895

>  <SCORE.INTRA.REPUL>
0.102537

>  <SCORE.INTRA.REPUL.0>
0.00912235

>  <SCORE.INTRA.SOLV>
4.55229

>  <SCORE.INTRA.SOLV.lig_0>
-53.9067

>  <SCORE.INTRA.VDW>
10.5684

>  <SCORE.INTRA.VDW.0>
-2.93492

>  <SCORE.INTRA.norm>
0.0465716

>  <SCORE.RESTR>
24.6653

>  <SCORE.RESTR.CAVITY>
24.6653

>  <SCORE.RESTR.norm>
0.666631

>  <SCORE.SYSTEM>
0

>  <SCORE.SYSTEM.CONST>
0

>  <SCORE.SYSTEM.DIHEDRAL>
0

>  <SCORE.SYSTEM.SOLV>
0

>  <SCORE.SYSTEM.norm>
0

>  <SCORE.heavy>
37

>  <SCORE.norm>
0.0996546

>  <RMSD>
19.977

$$$$
lig.pdb
 OpenBabel11021811453D
libRbt.so/2013.1/901 2013/11/27
 37 40  0  0  0  0  0  0  0  0999 V2000
  -19.2231   13.5305   11.2749 C   0  0  2  0  0  0  0  0  0  0  0  0
  -19.7145   14.8106   12.0279 C   0  0  1  0  0  0  0  0  0  0  0  0
  -18.5908   15.5138   12.8443 C   0  0  0  0  0  0  0  0  0  0  0  0
  -17.8187   14.4966   13.7208 C   0  0  1  0  0  0  0  0  0  0  0  0
  -17.2651   13.3553   12.8386 C   0  0  1  0  0  0  0  0  0  0  0  0
  -16.4459   12.3444   13.6851 C   0  0  1  0  0  0  0  0  0  0  0  0
  -15.3387   13.0737   14.5031 C   0  0  1  0  0  0  0  0  0  0  0  0
  -15.9097   14.2713   15.3191 C   0  0  2  0  0  0  0  0  0  0  0  0
  -15.4475   11.7488   16.5639 C   0  0  0  0  0  0  0  0  0  0  0  0
  -18.3477   12.7063   12.1113 O   0  0  0  0  0  0  0  0  0  0  0  0
  -16.7562   15.1276   14.4920 O   0  0  0  0  0  0  0  0  0  0  0  0
  -20.2975   15.7659   11.0609 N   0  0  0  0  0  0  0  0  0  0  0  0
  -14.6494   12.0934   15.3675 N   0  0  0  0  0  0  0  0  0  0  0  0
  -17.2907   11.5761   14.5323 O   0  0  0  0  0  0  0  0  0  0  0  0
  -14.8276   15.0308   15.9330 O   0  0  0  0  0  0  0  0  0  0  0  0
  -18.5544   13.8779   10.0240 O   0  0  0  0  0  0  0  0  0  0  0  0
  -13.6571   15.3560   15.1218 C   0  0  2  0  0  0  0  0  0  0  0  0
  -13.0614   16.7334   15.5299 C   0  0  1  0  0  0  0  0  0  0  0  0
  -13.9844   17.9098   15.1011 C   0  0  2  0  0  0  0  0  0  0  0  0
  -14.3363   17.8247   13.5875 C   0  0  1  0  0  0  0  0  0  0  0  0
  -14.8949   16.4227   13.2165 C   0  0  1  0  0  0  0  0  0  0  0  0
  -15.1222   16.2771   11.6889 C   0  0  0  0  0  0  0  0  0  0  0  0
  -14.0040   15.3743   13.7048 O   0  0  0  0  0  0  0  0  0  0  0  0
  -15.2695   18.9009   13.1881 N   0  0  0  0  0  0  0  0  0  0  0  0
  -12.7817   16.7637   16.9283 O   0  0  0  0  0  0  0  0  0  0  0  0
  -13.3969   19.1688   15.4223 O   0  0  0  0  0  0  0  0  0  0  0  0
  -15.1554   14.9051   11.3095 O   0  0  0  0  0  0  0  0  0  0  0  0
  -18.9741   13.1803    8.8152 C   0  0  1  0  0  0  0  0  0  0  0  0
  -19.1319   14.1489    7.6098 C   0  0  1  0  0  0  0  0  0  0  0  0
  -19.6726   13.4020    6.3580 C   0  0  2  0  0  0  0  0  0  0  0  0
  -18.8087   12.1521    5.9899 C   0  0  1  0  0  0  0  0  0  0  0  0
  -18.5216   11.2314    7.2136 C   0  0  0  0  0  0  0  0  0  0  0  0
  -18.0020   12.0221    8.4520 C   0  0  2  0  0  0  0  0  0  0  0  0
  -19.4339   11.3870    4.8901 N   0  0  0  0  0  0  0  0  0  0  0  0
  -17.8044   11.0873    9.5809 N   0  0  0  0  0  0  0  0  0  0  0  0
  -19.9751   15.2454    7.9479 O   0  0  0  0  0  0  0  0  0  0  0  0
  -19.7611   14.2912    5.2474 O   0  0  0  0  0  0  0  0  0  0  0  0
  1  2  1  0  0  0  0
  1 16  1  6  0  0  0
  2  3  1  0  0  0  0
  2 12  1  6  0  0  0
  4 11  1  6  0  0  0
  4  3  1  0  0  0  0
  5  4  1  0  0  0  0
  5 10  1  1  0  0  0
  6  7  1  0  0  0  0
  6  5  1  0  0  0  0
  6 14  1  1  0  0  0
  7  8  1  0  0  0  0
  7 13  1  1  0  0  0
  8 15  1  6  0  0  0
  8 11  1  0  0  0  0
  9 13  1  0  0  0  0
 10  1  1  0  0  0  0
 17 15  1  1  0  0  0
 17 18  1  0  0  0  0
 18 25  1  1  0  0  0
 19 18  1  0  0  0  0
 19 26  1  6  0  0  0
 20 19  1  0  0  0  0
 20 24  1  1  0  0  0
 21 23  1  0  0  0  0
 21 20  1  0  0  0  0
 21 22  1  6  0  0  0
 23 17  1  0  0  0  0
 27 22  1  0  0  0  0
 28 29  1  0  0  0  0
 28 16  1  1  0  0  0
 29 36  1  1  0  0  0
 30 37  1  6  0  0  0
 30 29  1  0  0  0  0
 31 30  1  0  0  0  0
 31 34  1  6  0  0  0
 32 31  1  0  0  0  0
 32 33  1  0  0  0  0
 33 28  1  0  0  0  0
 33 35  1  1  0  0  0
M  END
>  <CHROM.1>
99.58038058,45.23454691,-77.38087384,62.31233789,146.65274204,-130.16307861
79.19826939,-57.04892660,158.81473405,92.14689402,-74.79454306,136.14956442
171.92375459,-62.34703359,-52.63180972,-48.42787862,-16.80906555,14.42431699
11.97742786,3.00907653,-1.03726226,-0.51801877

>  <Name>
lig.pdb

>  <RI>
0

>  <Rbt.Current_Directory>
/home/afrankz/demos/rdock_decoys_rna/rnas/2m4q

>  <Rbt.Executable>
rbdock ($Id: //depot/dev/client3/rdock/2013.1/src/exe/rbdock.cxx#4 $)

>  <Rbt.Library>
libRbt.so (2013.1, Build901 2013/11/27)

>  <Rbt.Parameter_File>
/export/apps/rDock/src/rDock_2013.1_src/data/scripts/dock_solv.prm

>  <Rbt.Receptor>
prm/blind_docking_80.prm

>  <SCORE>
20.389

>  <SCORE.INTER>
4.47533

>  <SCORE.INTER.CONST>
1

>  <SCORE.INTER.POLAR>
-2.89871

>  <SCORE.INTER.ROT>
10

>  <SCORE.INTER.SOLV>
19.2666

>  <SCORE.INTER.VDW>
-4.04296

>  <SCORE.INTER.norm>
0.120955

>  <SCORE.INTRA>
-7.79224

>  <SCORE.INTRA.DIHEDRAL>
-18.1223

>  <SCORE.INTRA.DIHEDRAL.0>
44.8331

>  <SCORE.INTRA.POLAR>
-1.68551

>  <SCORE.INTRA.POLAR.0>
-0.108895

>  <SCORE.INTRA.REPUL>
0.614602

>  <SCORE.INTRA.REPUL.0>
0.00912235

>  <SCORE.INTRA.SOLV>
1.43023

>  <SCORE.INTRA.SOLV.lig_0>
-53.9067

>  <SCORE.INTRA.VDW>
3.21151

>  <SCORE.INTRA.VDW.0>
-2.93492

>  <SCORE.INTRA.norm>
-0.210601

>  <SCORE.RESTR>
23.7059

>  <SCORE.RESTR.CAVITY>
23.7059

>  <SCORE.RESTR.norm>
0.640699

>  <SCORE.SYSTEM>
0

>  <SCORE.SYSTEM.CONST>
0

>  <SCORE.SYSTEM.DIHEDRAL>
0

>  <SCORE.SYSTEM.SOLV>
0

>  <SCORE.SYSTEM.norm>
0

>  <SCORE.heavy>
37

>  <SCORE.norm>
0.551053

>  <RMSD>
20.006

$$$$
lig.pdb
 OpenBabel11021811453D
libRbt.so/2013.1/901 2013/11/27
 37 40  0  0  0  0  0  0  0  0999 V2000
  -17.3731   13.2670   11.9341 C   0  0  2  0  0  0  0  0  0  0  0  0
  -18.3619   14.4500   11.6697 C   0  0  1  0  0  0  0  0  0  0  0  0
  -17.6828   15.8488   11.7474 C   0  0  0  0  0  0  0  0  0  0  0  0
  -16.8314   15.9844   13.0341 C   0  0  1  0  0  0  0  0  0  0  0  0
  -15.8003   14.8359   13.1064 C   0  0  1  0  0  0  0  0  0  0  0  0
  -14.9009   14.9734   14.3641 C   0  0  1  0  0  0  0  0  0  0  0  0
  -14.2453   16.3852   14.4265 C   0  0  1  0  0  0  0  0  0  0  0  0
  -15.2963   17.5239   14.2682 C   0  0  2  0  0  0  0  0  0  0  0  0
  -12.2108   17.2441   15.4927 C   0  0  0  0  0  0  0  0  0  0  0  0
  -16.4748   13.5457   13.0568 O   0  0  0  0  0  0  0  0  0  0  0  0
  -16.1789   17.2834   13.1295 O   0  0  0  0  0  0  0  0  0  0  0  0
  -19.0004   14.2810   10.3464 N   0  0  0  0  0  0  0  0  0  0  0  0
  -13.4798   16.5092   15.6841 N   0  0  0  0  0  0  0  0  0  0  0  0
  -15.6280   14.6901   15.5526 O   0  0  0  0  0  0  0  0  0  0  0  0
  -14.6328   18.8172   14.1599 O   0  0  0  0  0  0  0  0  0  0  0  0
  -16.6055   12.9426   10.7349 O   0  0  0  0  0  0  0  0  0  0  0  0
  -15.0188   19.8782   15.0869 C   0  0  2  0  0  0  0  0  0  0  0  0
  -14.6134   21.2747   14.5355 C   0  0  1  0  0  0  0  0  0  0  0  0
  -13.0717   21.4800   14.5650 C   0  0  2  0  0  0  0  0  0  0  0  0
  -12.4941   21.1953   15.9818 C   0  0  1  0  0  0  0  0  0  0  0  0
  -12.9514   19.8065   16.5085 C   0  0  1  0  0  0  0  0  0  0  0  0
  -12.4974   19.5655   17.9721 C   0  0  0  0  0  0  0  0  0  0  0  0
  -14.4002   19.6697   16.3916 O   0  0  0  0  0  0  0  0  0  0  0  0
  -11.0202   21.3212   16.0000 N   0  0  0  0  0  0  0  0  0  0  0  0
  -15.1478   21.4715   13.2277 O   0  0  0  0  0  0  0  0  0  0  0  0
  -12.7176   22.7872   14.1187 O   0  0  0  0  0  0  0  0  0  0  0  0
  -13.1452   20.4710   18.8596 O   0  0  0  0  0  0  0  0  0  0  0  0
  -15.9063   11.6643   10.7036 C   0  0  1  0  0  0  0  0  0  0  0  0
  -15.9835   10.9932    9.3036 C   0  0  1  0  0  0  0  0  0  0  0  0
  -15.3160    9.5892    9.3177 C   0  0  2  0  0  0  0  0  0  0  0  0
  -13.8512    9.6307    9.8623 C   0  0  1  0  0  0  0  0  0  0  0  0
  -13.7238   10.4165   11.2017 C   0  0  0  0  0  0  0  0  0  0  0  0
  -14.4239   11.8079   11.1511 C   0  0  2  0  0  0  0  0  0  0  0  0
  -13.3027    8.2644    9.9988 N   0  0  0  0  0  0  0  0  0  0  0  0
  -14.3025   12.4642   12.4709 N   0  0  0  0  0  0  0  0  0  0  0  0
  -17.3327   10.9074    8.8566 O   0  0  0  0  0  0  0  0  0  0  0  0
  -15.3474    9.0099    8.0157 O   0  0  0  0  0  0  0  0  0  0  0  0
  1  2  1  0  0  0  0
  1 16  1  6  0  0  0
  2  3  1  0  0  0  0
  2 12  1  6  0  0  0
  4 11  1  6  0  0  0
  4  3  1  0  0  0  0
  5  4  1  0  0  0  0
  5 10  1  1  0  0  0
  6  7  1  0  0  0  0
  6  5  1  0  0  0  0
  6 14  1  1  0  0  0
  7  8  1  0  0  0  0
  7 13  1  1  0  0  0
  8 15  1  6  0  0  0
  8 11  1  0  0  0  0
  9 13  1  0  0  0  0
 10  1  1  0  0  0  0
 17 15  1  6  0  0  0
 17 18  1  0  0  0  0
 18 25  1  6  0  0  0
 19 18  1  0  0  0  0
 19 26  1  1  0  0  0
 20 19  1  0  0  0  0
 20 24  1  6  0  0  0
 21 23  1  0  0  0  0
 21 20  1  0  0  0  0
 21 22  1  1  0  0  0
 23 17  1  0  0  0  0
 27 22  1  0  0  0  0
 28 29  1  0  0  0  0
 28 16  1  6  0  0  0
 29 36  1  1  0  0  0
 30 37  1  6  0  0  0
 30 29  1  0  0  0  0
 31 30  1  0  0  0  0
 31 34  1  1  0  0  0
 32 31  1  0  0  0  0
 32 33  1  0  0  0  0
 33 28  1  0  0  0  0
 33 35  1  1  0  0  0
M  END
>  <CHROM.1>
-179.32096593,-125.50085125,141.27655201,72.12103886,-159.95626534,-164.34907349
83.91644194,68.52349045,65.77296496,-162.82199988,-53.65643403,140.70928873
64.19062207,71.21393156,-164.77717023,-174.81338219,-14.89204123,15.76336166
13.16616176,1.81018369,0.56118513,-2.73593507

>  <Name>
lig.pdb

>  <RI>
0

>  <Rbt.Current_Directory>
/home/afrankz/demos/rdock_decoys_rna/rnas/2m4q

>  <Rbt.Executable>
rbdock ($Id: //depot/dev/client3/rdock/2013.1/src/exe/rbdock.cxx#4 $)

>  <Rbt.Library>
libRbt.so (2013.1, Build901 2013/11/27)

>  <Rbt.Parameter_File>
/export/apps/rDock/src/rDock_2013.1_src/data/scripts/dock_solv.prm

>  <Rbt.Receptor>
prm/blind_docking_80.prm

>  <SCORE>
5.23127

>  <SCORE.INTER>
-7.90864

>  <SCORE.INTER.CONST>
1

>  <SCORE.INTER.POLAR>
-3.23335

>  <SCORE.INTER.ROT>
10

>  <SCORE.INTER.SOLV>
18.6629

>  <SCORE.INTER.VDW>
-10.9822

>  <SCORE.INTER.norm>
-0.213747

>  <SCORE.INTRA>
-9.72581

>  <SCORE.INTRA.DIHEDRAL>
-22.118

>  <SCORE.INTRA.DIHEDRAL.0>
44.8331

>  <SCORE.INTRA.POLAR>
0.108895

>  <SCORE.INTRA.POLAR.0>
-0.108895

>  <SCORE.INTRA.REPUL>
-0.00912235

>  <SCORE.INTRA.REPUL.0>
0.00912235

>  <SCORE.INTRA.SOLV>
-0.600957

>  <SCORE.INTRA.SOLV.lig_0>
-53.9067

>  <SCORE.INTRA.VDW>
1.30905

>  <SCORE.INTRA.VDW.0>
-2.93492

>  <SCORE.INTRA.norm>
-0.26286

>  <SCORE.RESTR>
22.8657

>  <SCORE.RESTR.CAVITY>
22.8657

>  <SCORE.RESTR.norm>
0.617993

>  <SCORE.SYSTEM>
0

>  <SCORE.SYSTEM.CONST>
0

>  <SCORE.SYSTEM.DIHEDRAL>
0

>  <SCORE.SYSTEM.SOLV>
0

>  <SCORE.SYSTEM.norm>
0

>  <SCORE.heavy>
37

>  <SCORE.norm>
0.141386

>  <RMSD>
20.021

$$$$
lig.pdb
 OpenBabel11021811453D
libRbt.so/2013.1/901 2013/11/27
 37 40  0  0  0  0  0  0  0  0999 V2000
  -15.7254   14.2129   13.7353 C   0  0  2  0  0  0  0  0  0  0  0  0
  -16.3339   15.5820   13.2853 C   0  0  1  0  0  0  0  0  0  0  0  0
  -15.4294   16.8009   13.6315 C   0  0  0  0  0  0  0  0  0  0  0  0
  -14.9626   16.7474   15.1073 C   0  0  1  0  0  0  0  0  0  0  0  0
  -14.2536   15.4032   15.3866 C   0  0  1  0  0  0  0  0  0  0  0  0
  -13.7332   15.3411   16.8477 C   0  0  1  0  0  0  0  0  0  0  0  0
  -12.8438   16.5779   17.1736 C   0  0  1  0  0  0  0  0  0  0  0  0
  -13.5494   17.9170   16.8058 C   0  0  2  0  0  0  0  0  0  0  0  0
  -11.3936   17.5146   18.9152 C   0  0  0  0  0  0  0  0  0  0  0  0
  -15.1391   14.2892   15.0753 O   0  0  0  0  0  0  0  0  0  0  0  0
  -14.1087   17.8746   15.4570 O   0  0  0  0  0  0  0  0  0  0  0  0
  -16.5979   15.5570   11.8302 N   0  0  0  0  0  0  0  0  0  0  0  0
  -12.4518   16.5316   18.5974 N   0  0  0  0  0  0  0  0  0  0  0  0
  -14.8056   15.2195   17.7732 O   0  0  0  0  0  0  0  0  0  0  0  0
  -12.6295   19.0367   16.9626 O   0  0  0  0  0  0  0  0  0  0  0  0
  -14.7378   13.7324   12.7729 O   0  0  0  0  0  0  0  0  0  0  0  0
  -12.2462   19.7952   15.7745 C   0  0  2  0  0  0  0  0  0  0  0  0
  -11.7686   21.2251   16.1563 C   0  0  1  0  0  0  0  0  0  0  0  0
  -12.9485   22.1165   16.6393 C   0  0  2  0  0  0  0  0  0  0  0  0
  -14.1100   22.1204   15.6035 C   0  0  1  0  0  0  0  0  0  0  0  0
  -14.5322   20.6736   15.2243 C   0  0  1  0  0  0  0  0  0  0  0  0
  -15.5939   20.6592   14.0934 C   0  0  0  0  0  0  0  0  0  0  0  0
  -13.3639   19.8863   14.8414 O   0  0  0  0  0  0  0  0  0  0  0  0
  -15.2635   22.9102   16.0878 N   0  0  0  0  0  0  0  0  0  0  0  0
  -10.7230   21.1623   17.1245 O   0  0  0  0  0  0  0  0  0  0  0  0
  -12.5090   23.4429   16.9238 O   0  0  0  0  0  0  0  0  0  0  0  0
  -16.2926   21.8985   14.0379 O   0  0  0  0  0  0  0  0  0  0  0  0
  -14.9891   12.4501   12.1276 C   0  0  1  0  0  0  0  0  0  0  0  0
  -16.2745   12.4806   11.2540 C   0  0  1  0  0  0  0  0  0  0  0  0
  -16.5772   11.0789   10.6534 C   0  0  2  0  0  0  0  0  0  0  0  0
  -15.3581   10.4886    9.8729 C   0  0  1  0  0  0  0  0  0  0  0  0
  -14.0260   10.5693   10.6772 C   0  0  0  0  0  0  0  0  0  0  0  0
  -13.7720   11.9843   11.2789 C   0  0  2  0  0  0  0  0  0  0  0  0
  -15.6314    9.1002    9.4442 N   0  0  0  0  0  0  0  0  0  0  0  0
  -12.5205   11.9628   12.0666 N   0  0  0  0  0  0  0  0  0  0  0  0
  -17.3857   12.9601   12.0043 O   0  0  0  0  0  0  0  0  0  0  0  0
  -17.7271   11.1351    9.8130 O   0  0  0  0  0  0  0  0  0  0  0  0
  1  2  1  0  0  0  0
  1 16  1  6  0  0  0
  2  3  1  0  0  0  0
  2 12  1  6  0  0  0
  4 11  1  6  0  0  0
  4  3  1  0  0  0  0
  5  4  1  0  0  0  0
  5 10  1  1  0  0  0
  6  7  1  0  0  0  0
  6  5  1  0  0  0  0
  6 14  1  1  0  0  0
  7  8  1  0  0  0  0
  7 13  1  1  0  0  0
  8 15  1  6  0  0  0
  8 11  1  0  0  0  0
  9 13  1  0  0  0  0
 10  1  1  0  0  0  0
 17 15  1  1  0  0  0
 17 18  1  0  0  0  0
 18 25  1  1  0  0  0
 19 18  1  0  0  0  0
 19 26  1  6  0  0  0
 20 19  1  0  0  0  0
 20 24  1  1  0  0  0
 21 23  1  0  0  0  0
 21 20  1  0  0  0  0
 21 22  1  6  0  0  0
 23 17  1  0  0  0  0
 27 22  1  0  0  0  0
 28 29  1  0  0  0  0
 28 16  1  6  0  0  0
 29 36  1  1  0  0  0
 30 37  1  6  0  0  0
 30 29  1  0  0  0  0
 31 30  1  0  0  0  0
 31 34  1  1  0  0  0
 32 31  1  0  0  0  0
 32 33  1  0  0  0  0
 33 28  1  0  0  0  0
 33 35  1  1  0  0  0
M  END
>  <CHROM.1>
40.45918657,115.38064754,168.52166402,-179.92570055,157.05586044,-119.58443603
81.44447986,-55.57925098,-22.67375659,174.24993334,-176.48291638,63.27657427
-165.73044442,-174.11079380,-76.40569976,22.53971946,-14.39815126,16.47352073
14.36328190,1.93074658,0.88587712,-2.90151472

>  <Name>
lig.pdb

>  <RI>
0

>  <Rbt.Current_Directory>
/home/afrankz/demos/rdock_decoys_rna/rnas/2m4q

>  <Rbt.Executable>
rbdock ($Id: //depot/dev/client3/rdock/2013.1/src/exe/rbdock.cxx#4 $)

>  <Rbt.Library>
libRbt.so (2013.1, Build901 2013/11/27)

>  <Rbt.Parameter_File>
/export/apps/rDock/src/rDock_2013.1_src/data/scripts/dock_solv.prm

>  <Rbt.Receptor>
prm/blind_docking_40.prm

>  <SCORE>
29.7674

>  <SCORE.INTER>
12.5369

>  <SCORE.INTER.CONST>
1

>  <SCORE.INTER.POLAR>
-1.66311

>  <SCORE.INTER.ROT>
10

>  <SCORE.INTER.SOLV>
15.8079

>  <SCORE.INTER.VDW>
-1.63435

>  <SCORE.INTER.norm>
0.338835

>  <SCORE.INTRA>
-4.99141

>  <SCORE.INTRA.DIHEDRAL>
-18.3303

>  <SCORE.INTRA.DIHEDRAL.0>
44.8331

>  <SCORE.INTRA.POLAR>
-1.11664

>  <SCORE.INTRA.POLAR.0>
-0.108895

>  <SCORE.INTRA.REPUL>
-0.00912235

>  <SCORE.INTRA.REPUL.0>
0.00912235

>  <SCORE.INTRA.SOLV>
0.748822

>  <SCORE.INTRA.SOLV.lig_0>
-53.9067

>  <SCORE.INTRA.VDW>
7.64152

>  <SCORE.INTRA.VDW.0>
-2.93492

>  <SCORE.INTRA.norm>
-0.134903

>  <SCORE.RESTR>
22.2219

>  <SCORE.RESTR.CAVITY>
22.2219

>  <SCORE.RESTR.norm>
0.600592

>  <SCORE.SYSTEM>
0

>  <SCORE.SYSTEM.CONST>
0

>  <SCORE.SYSTEM.DIHEDRAL>
0

>  <SCORE.SYSTEM.SOLV>
0

>  <SCORE.SYSTEM.norm>
0

>  <SCORE.heavy>
37

>  <SCORE.norm>
0.804524

>  <RMSD>
20.075

$$$$
lig.pdb
 OpenBabel11021811453D
libRbt.so/2013.1/901 2013/11/27
 37 40  0  0  0  0  0  0  0  0999 V2000
  -17.2658   13.4394   12.0264 C   0  0  2  0  0  0  0  0  0  0  0  0
  -18.2827   14.5763   11.6792 C   0  0  1  0  0  0  0  0  0  0  0  0
  -17.6449   15.9965   11.6890 C   0  0  0  0  0  0  0  0  0  0  0  0
  -16.8214   16.2289   12.9801 C   0  0  1  0  0  0  0  0  0  0  0  0
  -15.7598   15.1169   13.1343 C   0  0  1  0  0  0  0  0  0  0  0  0
  -14.8878   15.3508   14.3971 C   0  0  1  0  0  0  0  0  0  0  0  0
  -14.2737   16.7824   14.3905 C   0  0  1  0  0  0  0  0  0  0  0  0
  -15.3533   17.8793   14.1507 C   0  0  2  0  0  0  0  0  0  0  0  0
  -12.1352   17.4114   15.4128 C   0  0  0  0  0  0  0  0  0  0  0  0
  -16.3965   13.8067   13.1464 O   0  0  0  0  0  0  0  0  0  0  0  0
  -16.2079   17.5496   13.0128 O   0  0  0  0  0  0  0  0  0  0  0  0
  -18.8918   14.3148   10.3570 N   0  0  0  0  0  0  0  0  0  0  0  0
  -13.5351   16.9990   15.6518 N   0  0  0  0  0  0  0  0  0  0  0  0
  -15.6283   15.1133   15.5874 O   0  0  0  0  0  0  0  0  0  0  0  0
  -14.7248   19.1834   13.9806 O   0  0  0  0  0  0  0  0  0  0  0  0
  -16.4676   13.0710   10.8604 O   0  0  0  0  0  0  0  0  0  0  0  0
  -15.0717   20.2512   14.9151 C   0  0  2  0  0  0  0  0  0  0  0  0
  -14.6819   21.6429   14.3406 C   0  0  1  0  0  0  0  0  0  0  0  0
  -13.1394   21.8421   14.3111 C   0  0  2  0  0  0  0  0  0  0  0  0
  -12.5102   21.5632   15.7069 C   0  0  1  0  0  0  0  0  0  0  0  0
  -12.9528   20.1793   16.2586 C   0  0  1  0  0  0  0  0  0  0  0  0
  -12.4452   19.9450   17.7056 C   0  0  0  0  0  0  0  0  0  0  0  0
  -14.4055   20.0478   16.1969 O   0  0  0  0  0  0  0  0  0  0  0  0
  -11.0362   21.6833   15.6692 N   0  0  0  0  0  0  0  0  0  0  0  0
  -15.2642   21.8342   13.0526 O   0  0  0  0  0  0  0  0  0  0  0  0
  -12.7973   23.1452   13.8441 O   0  0  0  0  0  0  0  0  0  0  0  0
  -12.4809   18.5609   18.0377 O   0  0  0  0  0  0  0  0  0  0  0  0
  -15.9423   11.7128   10.8009 C   0  0  1  0  0  0  0  0  0  0  0  0
  -16.0295   11.1178    9.3675 C   0  0  1  0  0  0  0  0  0  0  0  0
  -15.5549    9.6375    9.3456 C   0  0  2  0  0  0  0  0  0  0  0  0
  -14.1299    9.4589    9.9633 C   0  0  1  0  0  0  0  0  0  0  0  0
  -13.9746   10.1634   11.3444 C   0  0  0  0  0  0  0  0  0  0  0  0
  -14.4811   11.6371   11.3277 C   0  0  2  0  0  0  0  0  0  0  0  0
  -13.7749    8.0268   10.0595 N   0  0  0  0  0  0  0  0  0  0  0  0
  -14.3478   12.2149   12.6826 N   0  0  0  0  0  0  0  0  0  0  0  0
  -17.3513   11.2328    8.8507 O   0  0  0  0  0  0  0  0  0  0  0  0
  -15.5901    9.1230    8.0168 O   0  0  0  0  0  0  0  0  0  0  0  0
  1  2  1  0  0  0  0
  1 16  1  6  0  0  0
  2  3  1  0  0  0  0
  2 12  1  6  0  0  0
  4 11  1  6  0  0  0
  4  3  1  0  0  0  0
  5  4  1  0  0  0  0
  5 10  1  1  0  0  0
  6  7  1  0  0  0  0
  6  5  1  0  0  0  0
  6 14  1  1  0  0  0
  7  8  1  0  0  0  0
  7 13  1  1  0  0  0
  8 15  1  6  0  0  0
  8 11  1  0  0  0  0
  9 13  1  0  0  0  0
 10  1  1  0  0  0  0
 17 15  1  6  0  0  0
 17 18  1  0  0  0  0
 18 25  1  6  0  0  0
 19 18  1  0  0  0  0
 19 26  1  1  0  0  0
 20 19  1  0  0  0  0
 20 24  1  6  0  0  0
 21 23  1  0  0  0  0
 21 20  1  0  0  0  0
 21 22  1  1  0  0  0
 23 17  1  0  0  0  0
 27 22  1  0  0  0  0
 28 29  1  0  0  0  0
 28 16  1  6  0  0  0
 29 36  1  1  0  0  0
 30 37  1  6  0  0  0
 30 29  1  0  0  0  0
 31 30  1  0  0  0  0
 31 34  1  1  0  0  0
 32 31  1  0  0  0  0
 32 33  1  0  0  0  0
 33 28  1  0  0  0  0
 33 35  1  1  0  0  0
M  END
>  <CHROM.1>
61.16588027,-120.20646583,125.37784433,-171.41654013,-162.10802820,-152.83205189
84.66186493,59.89879569,-161.60612816,-177.10977324,-61.05016499,139.92161913
-178.05650619,-179.93570849,91.67061095,-96.01374670,-14.91598780,15.90064334
13.09099857,1.83843216,0.67091783,-2.81949523

>  <Name>
lig.pdb

>  <RI>
0

>  <Rbt.Current_Directory>
/home/afrankz/demos/rdock_decoys_rna/rnas/2m4q

>  <Rbt.Executable>
rbdock ($Id: //depot/dev/client3/rdock/2013.1/src/exe/rbdock.cxx#4 $)

>  <Rbt.Library>
libRbt.so (2013.1, Build901 2013/11/27)

>  <Rbt.Parameter_File>
/export/apps/rDock/src/rDock_2013.1_src/data/scripts/dock_solv.prm

>  <Rbt.Receptor>
prm/blind_docking_80.prm

>  <SCORE>
8.75918

>  <SCORE.INTER>
-3.84641

>  <SCORE.INTER.CONST>
1

>  <SCORE.INTER.POLAR>
-3.0132

>  <SCORE.INTER.ROT>
10

>  <SCORE.INTER.SOLV>
18.9597

>  <SCORE.INTER.VDW>
-9.10682

>  <SCORE.INTER.norm>
-0.103957

>  <SCORE.INTRA>
-9.60879

>  <SCORE.INTRA.DIHEDRAL>
-18.087

>  <SCORE.INTRA.DIHEDRAL.0>
44.8331

>  <SCORE.INTRA.POLAR>
-0.22468

>  <SCORE.INTRA.POLAR.0>
-0.108895

>  <SCORE.INTRA.REPUL>
-0.00912235

>  <SCORE.INTRA.REPUL.0>
0.00912235

>  <SCORE.INTRA.SOLV>
0.390316

>  <SCORE.INTRA.SOLV.lig_0>
-53.9067

>  <SCORE.INTRA.VDW>
0.0490941

>  <SCORE.INTRA.VDW.0>
-2.93492

>  <SCORE.INTRA.norm>
-0.259697

>  <SCORE.RESTR>
22.2144

>  <SCORE.RESTR.CAVITY>
22.2144

>  <SCORE.RESTR.norm>
0.600389

>  <SCORE.SYSTEM>
0

>  <SCORE.SYSTEM.CONST>
0

>  <SCORE.SYSTEM.DIHEDRAL>
0

>  <SCORE.SYSTEM.SOLV>
0

>  <SCORE.SYSTEM.norm>
0

>  <SCORE.heavy>
37

>  <SCORE.norm>
0.236735

>  <RMSD>
20.110

$$$$
lig.pdb
 OpenBabel11021811453D
libRbt.so/2013.1/901 2013/11/27
 37 40  0  0  0  0  0  0  0  0999 V2000
  -17.0245   14.3651   12.6131 C   0  0  2  0  0  0  0  0  0  0  0  0
  -18.1284   15.4438   12.3584 C   0  0  1  0  0  0  0  0  0  0  0  0
  -17.5625   16.8902   12.2518 C   0  0  0  0  0  0  0  0  0  0  0  0
  -16.6040   17.2018   13.4279 C   0  0  1  0  0  0  0  0  0  0  0  0
  -15.4797   16.1435   13.4851 C   0  0  1  0  0  0  0  0  0  0  0  0
  -14.4765   16.4579   14.6272 C   0  0  1  0  0  0  0  0  0  0  0  0
  -13.9365   17.9141   14.5069 C   0  0  1  0  0  0  0  0  0  0  0  0
  -15.0881   18.9537   14.3674 C   0  0  2  0  0  0  0  0  0  0  0  0
  -12.3200   17.0096   16.1140 C   0  0  0  0  0  0  0  0  0  0  0  0
  -16.0472   14.8077   13.6101 O   0  0  0  0  0  0  0  0  0  0  0  0
  -16.0546   18.5487   13.3498 O   0  0  0  0  0  0  0  0  0  0  0  0
  -18.8766   15.1115   11.1265 N   0  0  0  0  0  0  0  0  0  0  0  0
  -13.0650   18.2052   15.6640 N   0  0  0  0  0  0  0  0  0  0  0  0
  -15.0587   16.2281   15.9038 O   0  0  0  0  0  0  0  0  0  0  0  0
  -14.5471   20.2777   14.0867 O   0  0  0  0  0  0  0  0  0  0  0  0
  -16.3532   13.9932   11.3707 O   0  0  0  0  0  0  0  0  0  0  0  0
  -14.7059   21.3233   15.0944 C   0  0  2  0  0  0  0  0  0  0  0  0
  -14.3301   22.7170   14.5154 C   0  0  1  0  0  0  0  0  0  0  0  0
  -12.7987   22.8467   14.2748 C   0  0  2  0  0  0  0  0  0  0  0  0
  -11.9959   22.4856   15.5582 C   0  0  1  0  0  0  0  0  0  0  0  0
  -12.4266   21.1030   16.1223 C   0  0  1  0  0  0  0  0  0  0  0  0
  -11.7347   20.7899   17.4749 C   0  0  0  0  0  0  0  0  0  0  0  0
  -13.8785   21.0402   16.2621 O   0  0  0  0  0  0  0  0  0  0  0  0
  -10.5374   22.5397   15.3166 N   0  0  0  0  0  0  0  0  0  0  0  0
  -15.0760   22.9844   13.3293 O   0  0  0  0  0  0  0  0  0  0  0  0
  -12.4597   24.1500   13.8060 O   0  0  0  0  0  0  0  0  0  0  0  0
  -12.4372   19.7720   18.1804 O   0  0  0  0  0  0  0  0  0  0  0  0
  -15.8469   12.6314   11.2558 C   0  0  1  0  0  0  0  0  0  0  0  0
  -16.1620   12.0090    9.8667 C   0  0  1  0  0  0  0  0  0  0  0  0
  -15.6999   10.5260    9.7994 C   0  0  2  0  0  0  0  0  0  0  0  0
  -14.1953   10.3521   10.1863 C   0  0  1  0  0  0  0  0  0  0  0  0
  -13.8209   11.0826   11.5107 C   0  0  0  0  0  0  0  0  0  0  0  0
  -14.3206   12.5583   11.5451 C   0  0  2  0  0  0  0  0  0  0  0  0
  -13.8324    8.9204   10.2536 N   0  0  0  0  0  0  0  0  0  0  0  0
  -13.9724   13.1618   12.8497 N   0  0  0  0  0  0  0  0  0  0  0  0
  -17.5490   12.1208    9.5643 O   0  0  0  0  0  0  0  0  0  0  0  0
  -15.9470    9.9859    8.5037 O   0  0  0  0  0  0  0  0  0  0  0  0
  1  2  1  0  0  0  0
  1 16  1  6  0  0  0
  2  3  1  0  0  0  0
  2 12  1  6  0  0  0
  4 11  1  6  0  0  0
  4  3  1  0  0  0  0
  5  4  1  0  0  0  0
  5 10  1  1  0  0  0
  6  7  1  0  0  0  0
  6  5  1  0  0  0  0
  6 14  1  1  0  0  0
  7  8  1  0  0  0  0
  7 13  1  1  0  0  0
  8 15  1  6  0  0  0
  8 11  1  0  0  0  0
  9 13  1  0  0  0  0
 10  1  1  0  0  0  0
 17 15  1  6  0  0  0
 17 18  1  0  0  0  0
 18 25  1  6  0  0  0
 19 18  1  0  0  0  0
 19 26  1  1  0  0  0
 20 19  1  0  0  0  0
 20 24  1  6  0  0  0
 21 23  1  0  0  0  0
 21 20  1  0  0  0  0
 21 22  1  1  0  0  0
 23 17  1  0  0  0  0
 27 22  1  0  0  0  0
 28 29  1  0  0  0  0
 28 16  1  6  0  0  0
 29 36  1  1  0  0  0
 30 37  1  6  0  0  0
 30 29  1  0  0  0  0
 31 30  1  0  0  0  0
 31 34  1  1  0  0  0
 32 31  1  0  0  0  0
 32 33  1  0  0  0  0
 33 28  1  0  0  0  0
 33 35  1  1  0  0  0
M  END
>  <CHROM.1>
-47.37736501,-113.60287513,33.71226467,49.58806998,-168.63999897,-149.13483867
-73.13877804,-66.46463285,160.99702167,-58.54510641,54.19417599,136.45043426
177.34002592,55.95620698,-47.20692467,-41.21302706,-14.70302324,16.84584065
13.34956531,1.86619903,0.60988911,-2.86536163

>  <Name>
lig.pdb

>  <RI>
0

>  <Rbt.Current_Directory>
/home/afrankz/demos/rdock_decoys_rna/rnas/2m4q

>  <Rbt.Executable>
rbdock ($Id: //depot/dev/client3/rdock/2013.1/src/exe/rbdock.cxx#4 $)

>  <Rbt.Library>
libRbt.so (2013.1, Build901 2013/11/27)

>  <Rbt.Parameter_File>
/export/apps/rDock/src/rDock_2013.1_src/data/scripts/dock_solv.prm

>  <Rbt.Receptor>
prm/blind_docking_80.prm

>  <SCORE>
3.60891

>  <SCORE.INTER>
-12.7114

>  <SCORE.INTER.CONST>
1

>  <SCORE.INTER.POLAR>
-4.542

>  <SCORE.INTER.ROT>
10

>  <SCORE.INTER.SOLV>
19.0803

>  <SCORE.INTER.VDW>
-9.961

>  <SCORE.INTER.norm>
-0.34355

>  <SCORE.INTRA>
-9.38384

>  <SCORE.INTRA.DIHEDRAL>
-21.9626

>  <SCORE.INTRA.DIHEDRAL.0>
44.8331

>  <SCORE.INTRA.POLAR>
-1.58659

>  <SCORE.INTRA.POLAR.0>
-0.108895

>  <SCORE.INTRA.REPUL>
-0.00912235

>  <SCORE.INTRA.REPUL.0>
0.00912235

>  <SCORE.INTRA.SOLV>
0.50608

>  <SCORE.INTRA.SOLV.lig_0>
-53.9067

>  <SCORE.INTRA.VDW>
6.78444

>  <SCORE.INTRA.VDW.0>
-2.93492

>  <SCORE.INTRA.norm>
-0.253617

>  <SCORE.RESTR>
25.7041

>  <SCORE.RESTR.CAVITY>
25.7041

>  <SCORE.RESTR.norm>
0.694706

>  <SCORE.SYSTEM>
0

>  <SCORE.SYSTEM.CONST>
0

>  <SCORE.SYSTEM.DIHEDRAL>
0

>  <SCORE.SYSTEM.SOLV>
0

>  <SCORE.SYSTEM.norm>
0

>  <SCORE.heavy>
37

>  <SCORE.norm>
0.0975382

>  <RMSD>
20.401

$$$$
lig.pdb
 OpenBabel11021811453D
libRbt.so/2013.1/901 2013/11/27
 37 40  0  0  0  0  0  0  0  0999 V2000
  -16.0089   21.4726    4.0595 C   0  0  2  0  0  0  0  0  0  0  0  0
  -15.8477   19.9813    4.5036 C   0  0  1  0  0  0  0  0  0  0  0  0
  -14.3925   19.6169    4.9196 C   0  0  0  0  0  0  0  0  0  0  0  0
  -13.3724   20.0957    3.8570 C   0  0  1  0  0  0  0  0  0  0  0  0
  -13.5413   21.6117    3.6109 C   0  0  1  0  0  0  0  0  0  0  0  0
  -12.4990   22.1285    2.5832 C   0  0  1  0  0  0  0  0  0  0  0  0
  -11.0536   21.7388    3.0141 C   0  0  1  0  0  0  0  0  0  0  0  0
  -10.9305   20.2198    3.3361 C   0  0  2  0  0  0  0  0  0  0  0  0
  -10.1279   23.6235    1.7473 C   0  0  0  0  0  0  0  0  0  0  0  0
  -14.9067   21.9092    3.1994 O   0  0  0  0  0  0  0  0  0  0  0  0
  -12.0004   19.7724    4.2243 O   0  0  0  0  0  0  0  0  0  0  0  0
  -16.7713   19.6906    5.6217 N   0  0  0  0  0  0  0  0  0  0  0  0
  -10.1041   22.1608    1.9636 N   0  0  0  0  0  0  0  0  0  0  0  0
  -12.7899   21.6602    1.2726 O   0  0  0  0  0  0  0  0  0  0  0  0
   -9.6181   19.9233    3.8967 O   0  0  0  0  0  0  0  0  0  0  0  0
  -16.1354   22.3567    5.2149 O   0  0  0  0  0  0  0  0  0  0  0  0
   -8.9290   18.7132    3.4553 C   0  0  2  0  0  0  0  0  0  0  0  0
   -8.9506   17.6235    4.5646 C   0  0  1  0  0  0  0  0  0  0  0  0
   -8.0299   18.0008    5.7604 C   0  0  2  0  0  0  0  0  0  0  0  0
   -6.5919   18.3452    5.2753 C   0  0  1  0  0  0  0  0  0  0  0  0
   -6.6185   19.4110    4.1444 C   0  0  1  0  0  0  0  0  0  0  0  0
   -5.2056   19.6650    3.5565 C   0  0  0  0  0  0  0  0  0  0  0  0
   -7.5483   19.0129    3.0916 O   0  0  0  0  0  0  0  0  0  0  0  0
   -5.7298   18.7719    6.3993 N   0  0  0  0  0  0  0  0  0  0  0  0
  -10.2881   17.3661    4.9881 O   0  0  0  0  0  0  0  0  0  0  0  0
   -8.0076   16.9648    6.7400 O   0  0  0  0  0  0  0  0  0  0  0  0
   -4.5762   18.4383    3.2010 O   0  0  0  0  0  0  0  0  0  0  0  0
  -16.4396   23.7597    4.9641 C   0  0  1  0  0  0  0  0  0  0  0  0
  -17.5262   24.3018    5.9345 C   0  0  1  0  0  0  0  0  0  0  0  0
  -17.9051   25.7693    5.5879 C   0  0  2  0  0  0  0  0  0  0  0  0
  -16.6575   26.7094    5.5289 C   0  0  1  0  0  0  0  0  0  0  0  0
  -15.4973   26.1247    4.6687 C   0  0  0  0  0  0  0  0  0  0  0  0
  -15.1642   24.6467    5.0338 C   0  0  2  0  0  0  0  0  0  0  0  0
  -17.0374   28.0573    5.0548 N   0  0  0  0  0  0  0  0  0  0  0  0
  -14.0935   24.1524    4.1412 N   0  0  0  0  0  0  0  0  0  0  0  0
  -18.6786   23.4656    5.9228 O   0  0  0  0  0  0  0  0  0  0  0  0
  -18.8623   26.2692    6.5183 O   0  0  0  0  0  0  0  0  0  0  0  0
  1  2  1  0  0  0  0
  1 16  1  1  0  0  0
  2  3  1  0  0  0  0
  2 12  1  1  0  0  0
  4 11  1  1  0  0  0
  4  3  1  0  0  0  0
  5  4  1  0  0  0  0
  5 10  1  6  0  0  0
  6  7  1  0  0  0  0
  6  5  1  0  0  0  0
  6 14  1  6  0  0  0
  7  8  1  0  0  0  0
  7 13  1  6  0  0  0
  8 15  1  1  0  0  0
  8 11  1  0  0  0  0
  9 13  1  0  0  0  0
 10  1  1  0  0  0  0
 17 15  1  1  0  0  0
 17 18  1  0  0  0  0
 18 25  1  1  0  0  0
 19 18  1  0  0  0  0
 19 26  1  1  0  0  0
 20 19  1  0  0  0  0
 20 24  1  1  0  0  0
 21 23  1  0  0  0  0
 21 20  1  0  0  0  0
 21 22  1  6  0  0  0
 23 17  1  0  0  0  0
 27 22  1  0  0  0  0
 28 29  1  0  0  0  0
 28 16  1  1  0  0  0
 29 36  1  6  0  0  0
 30 37  1  1  0  0  0
 30 29  1  0  0  0  0
 31 30  1  0  0  0  0
 31 34  1  6  0  0  0
 32 31  1  0  0  0  0
 32 33  1  0  0  0  0
 33 28  1  0  0  0  0
 33 35  1  6  0  0  0
M  END
>  <CHROM.1>
-161.01959847,-138.42016394,60.85852961,-59.46663090,-106.53293890,-173.41507572
65.43111481,177.44756215,50.68862637,160.77115733,65.67179853,136.10806733
179.62858653,72.26360957,-159.12715446,153.59319980,-12.37144768,21.43007041
4.37507787,2.64633127,0.26627951,-0.30937281

>  <Name>
lig.pdb

>  <RI>
0

>  <Rbt.Current_Directory>
/home/afrankz/demos/rdock_decoys_rna/rnas/2m4q

>  <Rbt.Executable>
rbdock ($Id: //depot/dev/client3/rdock/2013.1/src/exe/rbdock.cxx#4 $)

>  <Rbt.Library>
libRbt.so (2013.1, Build901 2013/11/27)

>  <Rbt.Parameter_File>
/export/apps/rDock/src/rDock_2013.1_src/data/scripts/dock_solv.prm

>  <Rbt.Receptor>
prm/blind_docking_80.prm

>  <SCORE>
-4.50572

>  <SCORE.INTER>
-13.4022

>  <SCORE.INTER.CONST>
1

>  <SCORE.INTER.POLAR>
-4.00076

>  <SCORE.INTER.ROT>
10

>  <SCORE.INTER.SOLV>
26.128

>  <SCORE.INTER.VDW>
-14.5749

>  <SCORE.INTER.norm>
-0.362221

>  <SCORE.INTRA>
-9.68732

>  <SCORE.INTRA.DIHEDRAL>
-21.9235

>  <SCORE.INTRA.DIHEDRAL.0>
44.8331

>  <SCORE.INTRA.POLAR>
-0.227024

>  <SCORE.INTRA.POLAR.0>
-0.108895

>  <SCORE.INTRA.REPUL>
0.0185887

>  <SCORE.INTRA.REPUL.0>
0.00912235

>  <SCORE.INTRA.SOLV>
-0.577066

>  <SCORE.INTRA.SOLV.lig_0>
-53.9067

>  <SCORE.INTRA.VDW>
2.24188

>  <SCORE.INTRA.VDW.0>
-2.93492

>  <SCORE.INTRA.norm>
-0.261819

>  <SCORE.RESTR>
18.5838

>  <SCORE.RESTR.CAVITY>
18.5838

>  <SCORE.RESTR.norm>
0.502264

>  <SCORE.SYSTEM>
0

>  <SCORE.SYSTEM.CONST>
0

>  <SCORE.SYSTEM.DIHEDRAL>
0

>  <SCORE.SYSTEM.SOLV>
0

>  <SCORE.SYSTEM.norm>
0

>  <SCORE.heavy>
37

>  <SCORE.norm>
-0.121776

>  <RMSD>
20.570

$$$$
lig.pdb
 OpenBabel11021811453D
libRbt.so/2013.1/901 2013/11/27
 37 40  0  0  0  0  0  0  0  0999 V2000
  -20.0897   15.4889   10.5073 C   0  0  2  0  0  0  0  0  0  0  0  0
  -19.7805   14.5200   11.6959 C   0  0  1  0  0  0  0  0  0  0  0  0
  -18.8120   13.3635   11.3111 C   0  0  0  0  0  0  0  0  0  0  0  0
  -19.2652   12.6686   10.0032 C   0  0  1  0  0  0  0  0  0  0  0  0
  -19.3983   13.7123    8.8717 C   0  0  1  0  0  0  0  0  0  0  0  0
  -19.8067   13.0359    7.5354 C   0  0  1  0  0  0  0  0  0  0  0  0
  -18.8319   11.8738    7.1805 C   0  0  1  0  0  0  0  0  0  0  0  0
  -18.6511   10.8810    8.3670 C   0  0  2  0  0  0  0  0  0  0  0  0
  -18.2137   10.5254    5.2277 C   0  0  0  0  0  0  0  0  0  0  0  0
  -20.3307   14.7627    9.2584 O   0  0  0  0  0  0  0  0  0  0  0  0
  -18.3721   11.5848    9.6162 O   0  0  0  0  0  0  0  0  0  0  0  0
  -19.2157   15.2843   12.8292 N   0  0  0  0  0  0  0  0  0  0  0  0
  -19.3111   11.1951    5.9587 N   0  0  0  0  0  0  0  0  0  0  0  0
  -21.1541   12.5838    7.5760 O   0  0  0  0  0  0  0  0  0  0  0  0
  -17.6086    9.9088    8.0627 O   0  0  0  0  0  0  0  0  0  0  0  0
  -19.0192   16.4663   10.3308 O   0  0  0  0  0  0  0  0  0  0  0  0
  -16.2319   10.3804    7.9352 C   0  0  2  0  0  0  0  0  0  0  0  0
  -15.3230    9.2841    7.3102 C   0  0  1  0  0  0  0  0  0  0  0  0
  -15.0821    8.1050    8.2960 C   0  0  2  0  0  0  0  0  0  0  0  0
  -14.5582    8.6184    9.6685 C   0  0  1  0  0  0  0  0  0  0  0  0
  -15.4753    9.7355   10.2400 C   0  0  1  0  0  0  0  0  0  0  0  0
  -14.8937   10.3522   11.5391 C   0  0  0  0  0  0  0  0  0  0  0  0
  -15.7011   10.7716    9.2366 O   0  0  0  0  0  0  0  0  0  0  0  0
  -14.3929    7.5092   10.6333 N   0  0  0  0  0  0  0  0  0  0  0  0
  -15.8627    8.8334    6.0691 O   0  0  0  0  0  0  0  0  0  0  0  0
  -14.1953    7.1388    7.7361 O   0  0  0  0  0  0  0  0  0  0  0  0
  -13.7714   11.1791   11.2497 O   0  0  0  0  0  0  0  0  0  0  0  0
  -19.3804   17.8780   10.3545 C   0  0  1  0  0  0  0  0  0  0  0  0
  -20.7959   18.1263    9.7622 C   0  0  1  0  0  0  0  0  0  0  0  0
  -21.1219   19.6455    9.7077 C   0  0  2  0  0  0  0  0  0  0  0  0
  -20.9415   20.3442   11.0945 C   0  0  1  0  0  0  0  0  0  0  0  0
  -19.5815   20.0026   11.7737 C   0  0  0  0  0  0  0  0  0  0  0  0
  -19.2844   18.4728   11.7882 C   0  0  2  0  0  0  0  0  0  0  0  0
  -21.1165   21.8072   10.9721 N   0  0  0  0  0  0  0  0  0  0  0  0
  -17.9584   18.2383   12.3999 N   0  0  0  0  0  0  0  0  0  0  0  0
  -20.9157   17.5367    8.4716 O   0  0  0  0  0  0  0  0  0  0  0  0
  -22.4422   19.8538    9.2127 O   0  0  0  0  0  0  0  0  0  0  0  0
  1  2  1  0  0  0  0
  1 16  1  6  0  0  0
  2  3  1  0  0  0  0
  2 12  1  1  0  0  0
  4 11  1  6  0  0  0
  4  3  1  0  0  0  0
  5  4  1  0  0  0  0
  5 10  1  1  0  0  0
  6  7  1  0  0  0  0
  6  5  1  0  0  0  0
  6 14  1  1  0  0  0
  7  8  1  0  0  0  0
  7 13  1  6  0  0  0
  8 15  1  6  0  0  0
  8 11  1  0  0  0  0
  9 13  1  0  0  0  0
 10  1  1  0  0  0  0
 17 15  1  1  0  0  0
 17 18  1  0  0  0  0
 18 25  1  6  0  0  0
 19 18  1  0  0  0  0
 19 26  1  6  0  0  0
 20 19  1  0  0  0  0
 20 24  1  1  0  0  0
 21 23  1  0  0  0  0
 21 20  1  0  0  0  0
 21 22  1  1  0  0  0
 23 17  1  0  0  0  0
 27 22  1  0  0  0  0
 28 29  1  0  0  0  0
 28 16  1  1  0  0  0
 29 36  1  6  0  0  0
 30 37  1  1  0  0  0
 30 29  1  0  0  0  0
 31 30  1  0  0  0  0
 31 34  1  6  0  0  0
 32 31  1  0  0  0  0
 32 33  1  0  0  0  0
 33 28  1  0  0  0  0
 33 35  1  6  0  0  0
M  END
>  <CHROM.1>
35.56213869,66.42261010,154.70567049,-177.26351171,-167.51958588,-124.58115459
-58.12126648,-170.41425017,72.88930644,-60.39679998,175.56538816,-33.01933184
-65.61043468,-60.19533767,57.89756845,76.61565845,-18.27880796,13.53434870
9.43060605,-2.22327445,0.76821556,-2.44316138

>  <Name>
lig.pdb

>  <RI>
0

>  <Rbt.Current_Directory>
/home/afrankz/demos/rdock_decoys_rna/rnas/2m4q

>  <Rbt.Executable>
rbdock ($Id: //depot/dev/client3/rdock/2013.1/src/exe/rbdock.cxx#4 $)

>  <Rbt.Library>
libRbt.so (2013.1, Build901 2013/11/27)

>  <Rbt.Parameter_File>
/export/apps/rDock/src/rDock_2013.1_src/data/scripts/dock_solv.prm

>  <Rbt.Receptor>
prm/blind_docking_80.prm

>  <SCORE>
4.27875

>  <SCORE.INTER>
-1.153

>  <SCORE.INTER.CONST>
1

>  <SCORE.INTER.POLAR>
-2.14175

>  <SCORE.INTER.ROT>
10

>  <SCORE.INTER.SOLV>
15.1483

>  <SCORE.INTER.VDW>
-8.94559

>  <SCORE.INTER.norm>
-0.0311622

>  <SCORE.INTRA>
-14.2526

>  <SCORE.INTRA.DIHEDRAL>
-29.8617

>  <SCORE.INTRA.DIHEDRAL.0>
44.8331

>  <SCORE.INTRA.POLAR>
-0.0426941

>  <SCORE.INTRA.POLAR.0>
-0.108895

>  <SCORE.INTRA.REPUL>
-0.00912235

>  <SCORE.INTRA.REPUL.0>
0.00912235

>  <SCORE.INTRA.SOLV>
0.369381

>  <SCORE.INTRA.SOLV.lig_0>
-53.9067

>  <SCORE.INTRA.VDW>
0.684328

>  <SCORE.INTRA.VDW.0>
-2.93492

>  <SCORE.INTRA.norm>
-0.385205

>  <SCORE.RESTR>
19.6844

>  <SCORE.RESTR.CAVITY>
19.6844

>  <SCORE.RESTR.norm>
0.53201

>  <SCORE.SYSTEM>
0

>  <SCORE.SYSTEM.CONST>
0

>  <SCORE.SYSTEM.DIHEDRAL>
0

>  <SCORE.SYSTEM.SOLV>
0

>  <SCORE.SYSTEM.norm>
0

>  <SCORE.heavy>
37

>  <SCORE.norm>
0.115642

>  <RMSD>
20.572

$$$$
lig.pdb
 OpenBabel11021811453D
libRbt.so/2013.1/901 2013/11/27
 37 40  0  0  0  0  0  0  0  0999 V2000
  -19.5660   17.3718   11.6289 C   0  0  2  0  0  0  0  0  0  0  0  0
  -18.4557   17.8914   12.6007 C   0  0  1  0  0  0  0  0  0  0  0  0
  -17.0816   17.1885   12.3972 C   0  0  0  0  0  0  0  0  0  0  0  0
  -17.2439   15.6487   12.3549 C   0  0  1  0  0  0  0  0  0  0  0  0
  -18.2619   15.2568   11.2606 C   0  0  1  0  0  0  0  0  0  0  0  0
  -18.4096   13.7146   11.1641 C   0  0  1  0  0  0  0  0  0  0  0  0
  -17.0208   13.0343   10.9758 C   0  0  1  0  0  0  0  0  0  0  0  0
  -15.9893   13.5092   12.0419 C   0  0  2  0  0  0  0  0  0  0  0  0
  -18.0870   11.1032    9.9044 C   0  0  0  0  0  0  0  0  0  0  0  0
  -19.5403   15.9132   11.4993 O   0  0  0  0  0  0  0  0  0  0  0  0
  -15.9726   14.9651   12.1593 O   0  0  0  0  0  0  0  0  0  0  0  0
  -18.2945   19.3528   12.4390 N   0  0  0  0  0  0  0  0  0  0  0  0
  -17.1940   11.5670   10.9882 N   0  0  0  0  0  0  0  0  0  0  0  0
  -19.0914   13.1892   12.2957 O   0  0  0  0  0  0  0  0  0  0  0  0
  -14.6634   12.9876   11.7347 O   0  0  0  0  0  0  0  0  0  0  0  0
  -19.4562   18.0026   10.3164 O   0  0  0  0  0  0  0  0  0  0  0  0
  -13.9957   12.1519   12.7296 C   0  0  2  0  0  0  0  0  0  0  0  0
  -14.5306   10.6924   12.6809 C   0  0  1  0  0  0  0  0  0  0  0  0
  -15.9855   10.5939   13.2227 C   0  0  2  0  0  0  0  0  0  0  0  0
  -16.1037   11.2373   14.6348 C   0  0  1  0  0  0  0  0  0  0  0  0
  -15.5269   12.6804   14.6470 C   0  0  1  0  0  0  0  0  0  0  0  0
  -15.5125   13.2848   16.0756 C   0  0  0  0  0  0  0  0  0  0  0  0
  -14.1863   12.6976   14.0691 O   0  0  0  0  0  0  0  0  0  0  0  0
  -17.4986   11.2091   15.1267 N   0  0  0  0  0  0  0  0  0  0  0  0
  -14.4212   10.1625   11.3611 O   0  0  0  0  0  0  0  0  0  0  0  0
  -16.4405    9.2426   13.2338 O   0  0  0  0  0  0  0  0  0  0  0  0
  -14.7946   12.4454   16.9742 O   0  0  0  0  0  0  0  0  0  0  0  0
  -20.6154   17.9391    9.4354 C   0  0  1  0  0  0  0  0  0  0  0  0
  -20.8132   19.2589    8.6384 C   0  0  1  0  0  0  0  0  0  0  0  0
  -22.1078   19.2059    7.7791 C   0  0  2  0  0  0  0  0  0  0  0  0
  -22.1539   17.9517    6.8470 C   0  0  1  0  0  0  0  0  0  0  0  0
  -21.8253   16.6260    7.5969 C   0  0  0  0  0  0  0  0  0  0  0  0
  -20.5331   16.7292    8.4619 C   0  0  2  0  0  0  0  0  0  0  0  0
  -23.4583   17.8575    6.1573 N   0  0  0  0  0  0  0  0  0  0  0  0
  -20.3214   15.4526    9.1782 N   0  0  0  0  0  0  0  0  0  0  0  0
  -20.8332   20.3815    9.5142 O   0  0  0  0  0  0  0  0  0  0  0  0
  -22.2469   20.4006    7.0142 O   0  0  0  0  0  0  0  0  0  0  0  0
  1  2  1  0  0  0  0
  1 16  1  6  0  0  0
  2  3  1  0  0  0  0
  2 12  1  6  0  0  0
  4 11  1  6  0  0  0
  4  3  1  0  0  0  0
  5  4  1  0  0  0  0
  5 10  1  1  0  0  0
  6  7  1  0  0  0  0
  6  5  1  0  0  0  0
  6 14  1  1  0  0  0
  7  8  1  0  0  0  0
  7 13  1  1  0  0  0
  8 15  1  6  0  0  0
  8 11  1  0  0  0  0
  9 13  1  0  0  0  0
 10  1  1  0  0  0  0
 17 15  1  6  0  0  0
 17 18  1  0  0  0  0
 18 25  1  6  0  0  0
 19 18  1  0  0  0  0
 19 26  1  1  0  0  0
 20 19  1  0  0  0  0
 20 24  1  6  0  0  0
 21 23  1  0  0  0  0
 21 20  1  0  0  0  0
 21 22  1  1  0  0  0
 23 17  1  0  0  0  0
 27 22  1  0  0  0  0
 28 29  1  0  0  0  0
 28 16  1  6  0  0  0
 29 36  1  1  0  0  0
 30 37  1  6  0  0  0
 30 29  1  0  0  0  0
 31 30  1  0  0  0  0
 31 34  1  1  0  0  0
 32 31  1  0  0  0  0
 32 33  1  0  0  0  0
 33 28  1  0  0  0  0
 33 35  1  1  0  0  0
M  END
>  <CHROM.1>
-12.25235103,-121.29829288,60.11285533,-177.09794053,80.08227865,-162.31133947
169.16965595,33.88591283,55.75582963,170.27973412,-63.94630070,141.66851995
165.77602667,60.35289398,62.63427092,11.89204628,-18.05554767,14.81639142
11.39453243,-2.71467512,0.91358360,-2.73873876

>  <Name>
lig.pdb

>  <RI>
0

>  <Rbt.Current_Directory>
/home/afrankz/demos/rdock_decoys_rna/rnas/2m4q

>  <Rbt.Executable>
rbdock ($Id: //depot/dev/client3/rdock/2013.1/src/exe/rbdock.cxx#4 $)

>  <Rbt.Library>
libRbt.so (2013.1, Build901 2013/11/27)

>  <Rbt.Parameter_File>
/export/apps/rDock/src/rDock_2013.1_src/data/scripts/dock_solv.prm

>  <Rbt.Receptor>
prm/blind_docking_80.prm

>  <SCORE>
-2.26279

>  <SCORE.INTER>
-11.0481

>  <SCORE.INTER.CONST>
1

>  <SCORE.INTER.POLAR>
-3.39939

>  <SCORE.INTER.ROT>
10

>  <SCORE.INTER.SOLV>
14.6552

>  <SCORE.INTER.VDW>
-11.1858

>  <SCORE.INTER.norm>
-0.298597

>  <SCORE.INTRA>
-9.65247

>  <SCORE.INTRA.DIHEDRAL>
-19.804

>  <SCORE.INTRA.DIHEDRAL.0>
44.8331

>  <SCORE.INTRA.POLAR>
-1.37602

>  <SCORE.INTRA.POLAR.0>
-0.108895

>  <SCORE.INTRA.REPUL>
-0.00912235

>  <SCORE.INTRA.REPUL.0>
0.00912235

>  <SCORE.INTRA.SOLV>
2.94525

>  <SCORE.INTRA.SOLV.lig_0>
-53.9067

>  <SCORE.INTRA.VDW>
3.501

>  <SCORE.INTRA.VDW.0>
-2.93492

>  <SCORE.INTRA.norm>
-0.260878

>  <SCORE.RESTR>
18.4378

>  <SCORE.RESTR.CAVITY>
18.4378

>  <SCORE.RESTR.norm>
0.498319

>  <SCORE.SYSTEM>
0

>  <SCORE.SYSTEM.CONST>
0

>  <SCORE.SYSTEM.DIHEDRAL>
0

>  <SCORE.SYSTEM.SOLV>
0

>  <SCORE.SYSTEM.norm>
0

>  <SCORE.heavy>
37

>  <SCORE.norm>
-0.0611566

>  <RMSD>
20.753

$$$$
lig.pdb
 OpenBabel11021811453D
libRbt.so/2013.1/901 2013/11/27
 37 40  0  0  0  0  0  0  0  0999 V2000
  -16.8052   12.1330   13.3458 C   0  0  2  0  0  0  0  0  0  0  0  0
  -16.3183   10.9587   12.4341 C   0  0  1  0  0  0  0  0  0  0  0  0
  -16.3066   11.3195   10.9197 C   0  0  0  0  0  0  0  0  0  0  0  0
  -17.6466   11.9671   10.4905 C   0  0  1  0  0  0  0  0  0  0  0  0
  -17.9437   13.1978   11.3761 C   0  0  1  0  0  0  0  0  0  0  0  0
  -19.2593   13.8951   10.9372 C   0  0  1  0  0  0  0  0  0  0  0  0
  -19.2288   14.2321    9.4166 C   0  0  1  0  0  0  0  0  0  0  0  0
  -18.8458   12.9942    8.5523 C   0  0  2  0  0  0  0  0  0  0  0  0
  -20.3881   16.1210    8.3669 C   0  0  0  0  0  0  0  0  0  0  0  0
  -17.9717   12.8158   12.7816 O   0  0  0  0  0  0  0  0  0  0  0  0
  -17.6608   12.3206    9.0774 O   0  0  0  0  0  0  0  0  0  0  0  0
  -14.9663   10.5292   12.8525 N   0  0  0  0  0  0  0  0  0  0  0  0
  -20.5330   14.8021    9.0201 N   0  0  0  0  0  0  0  0  0  0  0  0
  -20.3962   13.1078   11.2677 O   0  0  0  0  0  0  0  0  0  0  0  0
  -18.6602   13.3835    7.1600 O   0  0  0  0  0  0  0  0  0  0  0  0
  -15.7285   13.0867   13.5982 O   0  0  0  0  0  0  0  0  0  0  0  0
  -19.7733   13.2023    6.2315 C   0  0  2  0  0  0  0  0  0  0  0  0
  -20.0086   11.6947    5.9309 C   0  0  1  0  0  0  0  0  0  0  0  0
  -18.8684   11.0970    5.0576 C   0  0  2  0  0  0  0  0  0  0  0  0
  -18.6423   11.9446    3.7721 C   0  0  1  0  0  0  0  0  0  0  0  0
  -18.4464   13.4477    4.1151 C   0  0  1  0  0  0  0  0  0  0  0  0
  -18.3561   14.3245    2.8386 C   0  0  0  0  0  0  0  0  0  0  0  0
  -19.5221   13.9158    4.9841 O   0  0  0  0  0  0  0  0  0  0  0  0
  -17.5135   11.4218    2.9715 N   0  0  0  0  0  0  0  0  0  0  0  0
  -20.1844   10.9636    7.1430 O   0  0  0  0  0  0  0  0  0  0  0  0
  -19.1285    9.7327    4.7345 O   0  0  0  0  0  0  0  0  0  0  0  0
  -17.0886   14.1731    2.2079 O   0  0  0  0  0  0  0  0  0  0  0  0
  -15.1573   13.1241   14.9385 C   0  0  1  0  0  0  0  0  0  0  0  0
  -15.2170   14.5491   15.5566 C   0  0  1  0  0  0  0  0  0  0  0  0
  -14.5167   14.5877   16.9442 C   0  0  2  0  0  0  0  0  0  0  0  0
  -15.0751   13.5053   17.9242 C   0  0  1  0  0  0  0  0  0  0  0  0
  -15.1523   12.0876   17.2824 C   0  0  0  0  0  0  0  0  0  0  0  0
  -15.8418   12.0973   15.8848 C   0  0  2  0  0  0  0  0  0  0  0  0
  -14.2889   13.4747   19.1761 N   0  0  0  0  0  0  0  0  0  0  0  0
  -15.8283   10.7289   15.3238 N   0  0  0  0  0  0  0  0  0  0  0  0
  -14.6441   15.5085   14.6741 O   0  0  0  0  0  0  0  0  0  0  0  0
  -14.6263   15.8864   17.5211 O   0  0  0  0  0  0  0  0  0  0  0  0
  1  2  1  0  0  0  0
  1 16  1  6  0  0  0
  2  3  1  0  0  0  0
  2 12  1  1  0  0  0
  4 11  1  6  0  0  0
  4  3  1  0  0  0  0
  5  4  1  0  0  0  0
  5 10  1  1  0  0  0
  6  7  1  0  0  0  0
  6  5  1  0  0  0  0
  6 14  1  6  0  0  0
  7  8  1  0  0  0  0
  7 13  1  6  0  0  0
  8 15  1  6  0  0  0
  8 11  1  0  0  0  0
  9 13  1  0  0  0  0
 10  1  1  0  0  0  0
 17 15  1  1  0  0  0
 17 18  1  0  0  0  0
 18 25  1  1  0  0  0
 19 18  1  0  0  0  0
 19 26  1  6  0  0  0
 20 19  1  0  0  0  0
 20 24  1  1  0  0  0
 21 23  1  0  0  0  0
 21 20  1  0  0  0  0
 21 22  1  6  0  0  0
 23 17  1  0  0  0  0
 27 22  1  0  0  0  0
 28 29  1  0  0  0  0
 28 16  1  6  0  0  0
 29 36  1  6  0  0  0
 30 37  1  1  0  0  0
 30 29  1  0  0  0  0
 31 30  1  0  0  0  0
 31 34  1  1  0  0  0
 32 31  1  0  0  0  0
 32 33  1  0  0  0  0
 33 28  1  0  0  0  0
 33 35  1  6  0  0  0
M  END
>  <CHROM.1>
-71.07876638,-96.78910450,125.04166005,65.58114840,-71.19949743,-108.74252531
-174.18300481,64.57196503,-75.22887477,-130.88795098,-173.42595011,-124.51144182
64.63912471,67.76429530,176.69172306,12.79149182,-17.47442172,12.93042276
10.41968712,-0.77712959,1.13050787,-2.37294531

>  <Name>
lig.pdb

>  <RI>
0

>  <Rbt.Current_Directory>
/home/afrankz/demos/rdock_decoys_rna/rnas/2m4q

>  <Rbt.Executable>
rbdock ($Id: //depot/dev/client3/rdock/2013.1/src/exe/rbdock.cxx#4 $)

>  <Rbt.Library>
libRbt.so (2013.1, Build901 2013/11/27)

>  <Rbt.Parameter_File>
/export/apps/rDock/src/rDock_2013.1_src/data/scripts/dock_solv.prm

>  <Rbt.Receptor>
prm/blind_docking_80.prm

>  <SCORE>
5.85299

>  <SCORE.INTER>
0.0219262

>  <SCORE.INTER.CONST>
1

>  <SCORE.INTER.POLAR>
-1.05832

>  <SCORE.INTER.ROT>
10

>  <SCORE.INTER.SOLV>
17.5572

>  <SCORE.INTER.VDW>
-12.5767

>  <SCORE.INTER.norm>
0.0005926

>  <SCORE.INTRA>
-8.46712

>  <SCORE.INTRA.DIHEDRAL>
-16.9944

>  <SCORE.INTRA.DIHEDRAL.0>
44.8331

>  <SCORE.INTRA.POLAR>
-1.55954

>  <SCORE.INTRA.POLAR.0>
-0.108895

>  <SCORE.INTRA.REPUL>
-0.00912235

>  <SCORE.INTRA.REPUL.0>
0.00912235

>  <SCORE.INTRA.SOLV>
0.439663

>  <SCORE.INTRA.SOLV.lig_0>
-53.9067

>  <SCORE.INTRA.VDW>
5.15828

>  <SCORE.INTRA.VDW.0>
-2.93492

>  <SCORE.INTRA.norm>
-0.228841

>  <SCORE.RESTR>
14.2982

>  <SCORE.RESTR.CAVITY>
14.2982

>  <SCORE.RESTR.norm>
0.386438

>  <SCORE.SYSTEM>
0

>  <SCORE.SYSTEM.CONST>
0

>  <SCORE.SYSTEM.DIHEDRAL>
0

>  <SCORE.SYSTEM.SOLV>
0

>  <SCORE.SYSTEM.norm>
0

>  <SCORE.heavy>
37

>  <SCORE.norm>
0.158189

>  <RMSD>
21.162

$$$$
lig.pdb
 OpenBabel11021811453D
libRbt.so/2013.1/901 2013/11/27
 37 40  0  0  0  0  0  0  0  0999 V2000
  -16.6299   10.4683   11.0649 C   0  0  2  0  0  0  0  0  0  0  0  0
  -16.6125    9.6133    9.7549 C   0  0  1  0  0  0  0  0  0  0  0  0
  -16.7883   10.4636    8.4627 C   0  0  0  0  0  0  0  0  0  0  0  0
  -17.9883   11.4342    8.5931 C   0  0  1  0  0  0  0  0  0  0  0  0
  -17.8159   12.3184    9.8484 C   0  0  1  0  0  0  0  0  0  0  0  0
  -18.9825   13.3343    9.9785 C   0  0  1  0  0  0  0  0  0  0  0  0
  -19.1472   14.1615    8.6688 C   0  0  1  0  0  0  0  0  0  0  0  0
  -19.2356   13.2490    7.4096 C   0  0  2  0  0  0  0  0  0  0  0  0
  -21.5950   14.3040    8.6247 C   0  0  0  0  0  0  0  0  0  0  0  0
  -17.6803   11.4885   11.0380 O   0  0  0  0  0  0  0  0  0  0  0  0
  -18.1724   12.2474    7.3986 O   0  0  0  0  0  0  0  0  0  0  0  0
  -15.3506    8.8459    9.6763 N   0  0  0  0  0  0  0  0  0  0  0  0
  -20.3259   15.0433    8.7973 N   0  0  0  0  0  0  0  0  0  0  0  0
  -20.1962   12.6843   10.3334 O   0  0  0  0  0  0  0  0  0  0  0  0
  -19.2168   14.0546    6.1950 O   0  0  0  0  0  0  0  0  0  0  0  0
  -15.3282   11.0825   11.3117 O   0  0  0  0  0  0  0  0  0  0  0  0
  -20.0164   13.6144    5.0545 C   0  0  2  0  0  0  0  0  0  0  0  0
  -19.4278   12.3183    4.4282 C   0  0  1  0  0  0  0  0  0  0  0  0
  -18.0871   12.5936    3.6889 C   0  0  2  0  0  0  0  0  0  0  0  0
  -18.2406   13.7502    2.6590 C   0  0  1  0  0  0  0  0  0  0  0  0
  -18.8635   15.0126    3.3178 C   0  0  1  0  0  0  0  0  0  0  0  0
  -19.1490   16.1263    2.2764 C   0  0  0  0  0  0  0  0  0  0  0  0
  -20.0825   14.6608    4.0400 O   0  0  0  0  0  0  0  0  0  0  0  0
  -16.9527   14.0636    2.0021 N   0  0  0  0  0  0  0  0  0  0  0  0
  -19.2858   11.3026    5.4196 O   0  0  0  0  0  0  0  0  0  0  0  0
  -17.5914   11.4115    3.0641 O   0  0  0  0  0  0  0  0  0  0  0  0
  -19.1014   17.4131    2.8841 O   0  0  0  0  0  0  0  0  0  0  0  0
  -15.0813   11.6369   12.6367 C   0  0  1  0  0  0  0  0  0  0  0  0
  -15.3635   13.1646   12.6898 C   0  0  1  0  0  0  0  0  0  0  0  0
  -15.0020   13.7530   14.0827 C   0  0  2  0  0  0  0  0  0  0  0  0
  -15.7052   12.9911   15.2527 C   0  0  1  0  0  0  0  0  0  0  0  0
  -15.5510   11.4441   15.1488 C   0  0  0  0  0  0  0  0  0  0  0  0
  -15.9027   10.8990   13.7318 C   0  0  2  0  0  0  0  0  0  0  0  0
  -15.2252   13.4816   16.5624 N   0  0  0  0  0  0  0  0  0  0  0  0
  -15.6815    9.4369   13.7020 N   0  0  0  0  0  0  0  0  0  0  0  0
  -14.6613   13.8459   11.6553 O   0  0  0  0  0  0  0  0  0  0  0  0
  -15.3161   15.1425   14.1329 O   0  0  0  0  0  0  0  0  0  0  0  0
  1  2  1  0  0  0  0
  1 16  1  6  0  0  0
  2  3  1  0  0  0  0
  2 12  1  6  0  0  0
  4 11  1  6  0  0  0
  4  3  1  0  0  0  0
  5  4  1  0  0  0  0
  5 10  1  1  0  0  0
  6  7  1  0  0  0  0
  6  5  1  0  0  0  0
  6 14  1  6  0  0  0
  7  8  1  0  0  0  0
  7 13  1  1  0  0  0
  8 15  1  6  0  0  0
  8 11  1  0  0  0  0
  9 13  1  0  0  0  0
 10  1  1  0  0  0  0
 17 15  1  1  0  0  0
 17 18  1  0  0  0  0
 18 25  1  1  0  0  0
 19 18  1  0  0  0  0
 19 26  1  6  0  0  0
 20 19  1  0  0  0  0
 20 24  1  1  0  0  0
 21 23  1  0  0  0  0
 21 20  1  0  0  0  0
 21 22  1  6  0  0  0
 23 17  1  0  0  0  0
 27 22  1  0  0  0  0
 28 29  1  0  0  0  0
 28 16  1  6  0  0  0
 29 36  1  6  0  0  0
 30 37  1  6  0  0  0
 30 29  1  0  0  0  0
 31 30  1  0  0  0  0
 31 34  1  1  0  0  0
 32 31  1  0  0  0  0
 32 33  1  0  0  0  0
 33 28  1  0  0  0  0
 33 35  1  1  0  0  0
M  END
>  <CHROM.1>
87.25003095,-144.70661969,-76.79440225,-53.69126341,-69.22202031,-165.51350304
-174.83421142,66.61038818,-152.45325868,175.58843895,68.35754100,-95.83110015
177.53035442,-64.34911028,63.94903708,149.44937430,-17.59707011,12.80242779
8.77512844,-0.74219325,1.12988653,-2.14709397

>  <Name>
lig.pdb

>  <RI>
0

>  <Rbt.Current_Directory>
/home/afrankz/demos/rdock_decoys_rna/rnas/2m4q

>  <Rbt.Executable>
rbdock ($Id: //depot/dev/client3/rdock/2013.1/src/exe/rbdock.cxx#4 $)

>  <Rbt.Library>
libRbt.so (2013.1, Build901 2013/11/27)

>  <Rbt.Parameter_File>
/export/apps/rDock/src/rDock_2013.1_src/data/scripts/dock_solv.prm

>  <Rbt.Receptor>
prm/blind_docking_80.prm

>  <SCORE>
5.69049

>  <SCORE.INTER>
-4.06564

>  <SCORE.INTER.CONST>
1

>  <SCORE.INTER.POLAR>
-1.69704

>  <SCORE.INTER.ROT>
10

>  <SCORE.INTER.SOLV>
21.7451

>  <SCORE.INTER.VDW>
-14.5687

>  <SCORE.INTER.norm>
-0.109882

>  <SCORE.INTRA>
-9.02091

>  <SCORE.INTRA.DIHEDRAL>
-27.6295

>  <SCORE.INTRA.DIHEDRAL.0>
44.8331

>  <SCORE.INTRA.POLAR>
-0.117915

>  <SCORE.INTRA.POLAR.0>
-0.108895

>  <SCORE.INTRA.REPUL>
-0.00912235

>  <SCORE.INTRA.REPUL.0>
0.00912235

>  <SCORE.INTRA.SOLV>
-0.698819

>  <SCORE.INTRA.SOLV.lig_0>
-53.9067

>  <SCORE.INTRA.VDW>
5.5898

>  <SCORE.INTRA.VDW.0>
-2.93492

>  <SCORE.INTRA.norm>
-0.243808

>  <SCORE.RESTR>
18.777

>  <SCORE.RESTR.CAVITY>
18.777

>  <SCORE.RESTR.norm>
0.507488

>  <SCORE.SYSTEM>
0

>  <SCORE.SYSTEM.CONST>
0

>  <SCORE.SYSTEM.DIHEDRAL>
0

>  <SCORE.SYSTEM.SOLV>
0

>  <SCORE.SYSTEM.norm>
0

>  <SCORE.heavy>
37

>  <SCORE.norm>
0.153797

>  <RMSD>
21.248

$$$$
lig.pdb
 OpenBabel11021811453D
libRbt.so/2013.1/901 2013/11/27
 37 40  0  0  0  0  0  0  0  0999 V2000
  -20.1259   18.1808   11.0400 C   0  0  2  0  0  0  0  0  0  0  0  0
  -19.3006   17.8903   12.3367 C   0  0  1  0  0  0  0  0  0  0  0  0
  -18.2008   16.8067   12.1365 C   0  0  0  0  0  0  0  0  0  0  0  0
  -18.7758   15.5520   11.4336 C   0  0  1  0  0  0  0  0  0  0  0  0
  -19.4408   15.9551   10.0984 C   0  0  1  0  0  0  0  0  0  0  0  0
  -19.9854   14.7094    9.3492 C   0  0  1  0  0  0  0  0  0  0  0  0
  -18.8710   13.6350    9.1746 C   0  0  1  0  0  0  0  0  0  0  0  0
  -18.1605   13.3072   10.5215 C   0  0  2  0  0  0  0  0  0  0  0  0
  -18.7520   12.0583    7.3002 C   0  0  0  0  0  0  0  0  0  0  0  0
  -20.4797   16.9497   10.3298 O   0  0  0  0  0  0  0  0  0  0  0  0
  -17.7654   14.5231   11.2281 O   0  0  0  0  0  0  0  0  0  0  0  0
  -18.6816   19.1415   12.8255 N   0  0  0  0  0  0  0  0  0  0  0  0
  -19.4530   12.4301    8.5481 N   0  0  0  0  0  0  0  0  0  0  0  0
  -21.1242   14.1684   10.0065 O   0  0  0  0  0  0  0  0  0  0  0  0
  -17.0175   12.4318   10.2940 O   0  0  0  0  0  0  0  0  0  0  0  0
  -19.4109   19.0941   10.1527 O   0  0  0  0  0  0  0  0  0  0  0  0
  -16.7144   11.4083   11.2912 C   0  0  2  0  0  0  0  0  0  0  0  0
  -15.8779   12.0003   12.4610 C   0  0  1  0  0  0  0  0  0  0  0  0
  -14.4262   12.3394   12.0168 C   0  0  2  0  0  0  0  0  0  0  0  0
  -13.7444   11.1139   11.3421 C   0  0  1  0  0  0  0  0  0  0  0  0
  -14.6285   10.5330   10.2035 C   0  0  1  0  0  0  0  0  0  0  0  0
  -14.0273    9.2308    9.6125 C   0  0  0  0  0  0  0  0  0  0  0  0
  -15.9874   10.2992   10.6832 O   0  0  0  0  0  0  0  0  0  0  0  0
  -12.3885   11.4498   10.8551 N   0  0  0  0  0  0  0  0  0  0  0  0
  -16.5364   13.1332   13.0246 O   0  0  0  0  0  0  0  0  0  0  0  0
  -13.6511   12.8197   13.1132 O   0  0  0  0  0  0  0  0  0  0  0  0
  -14.2870    8.1200   10.4646 O   0  0  0  0  0  0  0  0  0  0  0  0
  -20.1699   20.1782    9.5423 C   0  0  1  0  0  0  0  0  0  0  0  0
  -21.0378   19.6822    8.3520 C   0  0  1  0  0  0  0  0  0  0  0  0
  -21.7631   20.8678    7.6552 C   0  0  2  0  0  0  0  0  0  0  0  0
  -22.5932   21.7321    8.6592 C   0  0  1  0  0  0  0  0  0  0  0  0
  -21.7841   22.1308    9.9297 C   0  0  0  0  0  0  0  0  0  0  0  0
  -21.0565   20.9179   10.5841 C   0  0  2  0  0  0  0  0  0  0  0  0
  -23.1461   22.9288    7.9896 N   0  0  0  0  0  0  0  0  0  0  0  0
  -20.2732   21.3876   11.7473 N   0  0  0  0  0  0  0  0  0  0  0  0
  -20.2479   18.9534    7.4181 O   0  0  0  0  0  0  0  0  0  0  0  0
  -22.5957   20.3916    6.6008 O   0  0  0  0  0  0  0  0  0  0  0  0
  1  2  1  0  0  0  0
  1 16  1  6  0  0  0
  2  3  1  0  0  0  0
  2 12  1  6  0  0  0
  4 11  1  6  0  0  0
  4  3  1  0  0  0  0
  5  4  1  0  0  0  0
  5 10  1  1  0  0  0
  6  7  1  0  0  0  0
  6  5  1  0  0  0  0
  6 14  1  1  0  0  0
  7  8  1  0  0  0  0
  7 13  1  1  0  0  0
  8 15  1  6  0  0  0
  8 11  1  0  0  0  0
  9 13  1  0  0  0  0
 10  1  1  0  0  0  0
 17 15  1  6  0  0  0
 17 18  1  0  0  0  0
 18 25  1  6  0  0  0
 19 18  1  0  0  0  0
 19 26  1  1  0  0  0
 20 19  1  0  0  0  0
 20 24  1  6  0  0  0
 21 23  1  0  0  0  0
 21 20  1  0  0  0  0
 21 22  1  1  0  0  0
 23 17  1  0  0  0  0
 27 22  1  0  0  0  0
 28 29  1  0  0  0  0
 28 16  1  1  0  0  0
 29 36  1  6  0  0  0
 30 37  1  6  0  0  0
 30 29  1  0  0  0  0
 31 30  1  0  0  0  0
 31 34  1  6  0  0  0
 32 31  1  0  0  0  0
 32 33  1  0  0  0  0
 33 28  1  0  0  0  0
 33 35  1  1  0  0  0
M  END
>  <CHROM.1>
157.73115201,-143.94237459,123.54422288,62.23883313,-83.33898805,-135.82307415
-56.35357782,78.91820880,78.30700752,61.33150717,59.55667764,-77.22447446
-60.01906702,-172.16866988,72.68663849,-155.61365322,-18.42817469,15.61148155
10.27602094,-2.46704806,0.80407777,-2.58808289

>  <Name>
lig.pdb

>  <RI>
0

>  <Rbt.Current_Directory>
/home/afrankz/demos/rdock_decoys_rna/rnas/2m4q

>  <Rbt.Executable>
rbdock ($Id: //depot/dev/client3/rdock/2013.1/src/exe/rbdock.cxx#4 $)

>  <Rbt.Library>
libRbt.so (2013.1, Build901 2013/11/27)

>  <Rbt.Parameter_File>
/export/apps/rDock/src/rDock_2013.1_src/data/scripts/dock_solv.prm

>  <Rbt.Receptor>
prm/blind_docking_80.prm

>  <SCORE>
-20.3159

>  <SCORE.INTER>
-18.3106

>  <SCORE.INTER.CONST>
1

>  <SCORE.INTER.POLAR>
-4.01074

>  <SCORE.INTER.ROT>
10

>  <SCORE.INTER.SOLV>
19.8189

>  <SCORE.INTER.VDW>
-15.7109

>  <SCORE.INTER.norm>
-0.494882

>  <SCORE.INTRA>
-17.4972

>  <SCORE.INTRA.DIHEDRAL>
-22.5521

>  <SCORE.INTRA.DIHEDRAL.0>
44.8331

>  <SCORE.INTRA.POLAR>
-1.89712

>  <SCORE.INTRA.POLAR.0>
-0.108895

>  <SCORE.INTRA.REPUL>
-0.00912235

>  <SCORE.INTRA.REPUL.0>
0.00912235

>  <SCORE.INTRA.SOLV>
-0.156697

>  <SCORE.INTRA.SOLV.lig_0>
-53.9067

>  <SCORE.INTRA.VDW>
0.352965

>  <SCORE.INTRA.VDW.0>
-2.93492

>  <SCORE.INTRA.norm>
-0.472898

>  <SCORE.RESTR>
15.492

>  <SCORE.RESTR.CAVITY>
15.492

>  <SCORE.RESTR.norm>
0.418703

>  <SCORE.SYSTEM>
0

>  <SCORE.SYSTEM.CONST>
0

>  <SCORE.SYSTEM.DIHEDRAL>
0

>  <SCORE.SYSTEM.SOLV>
0

>  <SCORE.SYSTEM.norm>
0

>  <SCORE.heavy>
37

>  <SCORE.norm>
-0.549077

>  <RMSD>
21.254

$$$$
lig.pdb
 OpenBabel11021811453D
libRbt.so/2013.1/901 2013/11/27
 37 40  0  0  0  0  0  0  0  0999 V2000
  -18.0222   10.3428    7.3866 C   0  0  2  0  0  0  0  0  0  0  0  0
  -18.9771   10.7611    6.2203 C   0  0  1  0  0  0  0  0  0  0  0  0
  -19.1878   12.3003    6.1193 C   0  0  0  0  0  0  0  0  0  0  0  0
  -19.5395   12.9066    7.5005 C   0  0  1  0  0  0  0  0  0  0  0  0
  -18.4480   12.5384    8.5302 C   0  0  1  0  0  0  0  0  0  0  0  0
  -18.7512   13.1729    9.9141 C   0  0  1  0  0  0  0  0  0  0  0  0
  -18.9723   14.7094    9.7842 C   0  0  1  0  0  0  0  0  0  0  0  0
  -20.0167   15.0573    8.6822 C   0  0  2  0  0  0  0  0  0  0  0  0
  -18.7321   16.5739   11.3589 C   0  0  0  0  0  0  0  0  0  0  0  0
  -18.2983   11.0918    8.6146 O   0  0  0  0  0  0  0  0  0  0  0  0
  -19.7364   14.3485    7.4361 O   0  0  0  0  0  0  0  0  0  0  0  0
  -18.4526   10.2466    4.9366 N   0  0  0  0  0  0  0  0  0  0  0  0
  -19.3547   15.2573   11.1021 N   0  0  0  0  0  0  0  0  0  0  0  0
  -19.8626   12.5433   10.5386 O   0  0  0  0  0  0  0  0  0  0  0  0
  -20.0722   16.4984    8.4706 O   0  0  0  0  0  0  0  0  0  0  0  0
  -16.6215   10.4927    7.0016 O   0  0  0  0  0  0  0  0  0  0  0  0
  -21.3691   17.1655    8.5543 C   0  0  2  0  0  0  0  0  0  0  0  0
  -21.3852   18.4623    7.6959 C   0  0  1  0  0  0  0  0  0  0  0  0
  -20.5009   19.5783    8.3222 C   0  0  2  0  0  0  0  0  0  0  0  0
  -20.8833   19.8298    9.8096 C   0  0  1  0  0  0  0  0  0  0  0  0
  -20.8887   18.5049   10.6221 C   0  0  1  0  0  0  0  0  0  0  0  0
  -21.3994   18.7179   12.0712 C   0  0  0  0  0  0  0  0  0  0  0  0
  -21.6893   17.4926    9.9396 O   0  0  0  0  0  0  0  0  0  0  0  0
  -20.0004   20.8409   10.4313 N   0  0  0  0  0  0  0  0  0  0  0  0
  -21.0037   18.1778    6.3513 O   0  0  0  0  0  0  0  0  0  0  0  0
  -20.5758   20.7822    7.5616 O   0  0  0  0  0  0  0  0  0  0  0  0
  -20.4715   19.4885   12.8279 O   0  0  0  0  0  0  0  0  0  0  0  0
  -15.6250    9.7613    7.7736 C   0  0  1  0  0  0  0  0  0  0  0  0
  -15.7532   10.0368    9.2981 C   0  0  1  0  0  0  0  0  0  0  0  0
  -14.6226    9.3249   10.0931 C   0  0  2  0  0  0  0  0  0  0  0  0
  -14.5484    7.7944    9.7833 C   0  0  1  0  0  0  0  0  0  0  0  0
  -14.5546    7.4833    8.2566 C   0  0  0  0  0  0  0  0  0  0  0  0
  -15.6893    8.2327    7.4952 C   0  0  2  0  0  0  0  0  0  0  0  0
  -13.3744    7.1817   10.4410 N   0  0  0  0  0  0  0  0  0  0  0  0
  -15.5941    7.9260    6.0515 N   0  0  0  0  0  0  0  0  0  0  0  0
  -15.7532   11.4360    9.5619 O   0  0  0  0  0  0  0  0  0  0  0  0
  -14.7847    9.5429   11.4923 O   0  0  0  0  0  0  0  0  0  0  0  0
  1  2  1  0  0  0  0
  1 16  1  6  0  0  0
  2  3  1  0  0  0  0
  2 12  1  6  0  0  0
  4 11  1  6  0  0  0
  4  3  1  0  0  0  0
  5  4  1  0  0  0  0
  5 10  1  1  0  0  0
  6  7  1  0  0  0  0
  6  5  1  0  0  0  0
  6 14  1  6  0  0  0
  7  8  1  0  0  0  0
  7 13  1  1  0  0  0
  8 15  1  6  0  0  0
  8 11  1  0  0  0  0
  9 13  1  0  0  0  0
 10  1  1  0  0  0  0
 17 15  1  1  0  0  0
 17 18  1  0  0  0  0
 18 25  1  6  0  0  0
 19 18  1  0  0  0  0
 19 26  1  6  0  0  0
 20 19  1  0  0  0  0
 20 24  1  1  0  0  0
 21 23  1  0  0  0  0
 21 20  1  0  0  0  0
 21 22  1  1  0  0  0
 23 17  1  0  0  0  0
 27 22  1  0  0  0  0
 28 29  1  0  0  0  0
 28 16  1  6  0  0  0
 29 36  1  6  0  0  0
 30 37  1  1  0  0  0
 30 29  1  0  0  0  0
 31 30  1  0  0  0  0
 31 34  1  6  0  0  0
 32 31  1  0  0  0  0
 32 33  1  0  0  0  0
 33 28  1  0  0  0  0
 33 35  1  6  0  0  0
M  END
>  <CHROM.1>
-39.39822438,-126.52299532,141.02347814,-59.67745405,-153.44335169,-160.56398853
-51.03033436,160.87798961,-68.45438242,81.78339455,-175.85684302,-53.07213328
-93.04759622,-62.78261993,-30.36173848,71.89138068,-18.47191981,13.74393998
8.88494700,0.62958757,0.96672076,-2.17674440

>  <Name>
lig.pdb

>  <RI>
0

>  <Rbt.Current_Directory>
/home/afrankz/demos/rdock_decoys_rna/rnas/2m4q

>  <Rbt.Executable>
rbdock ($Id: //depot/dev/client3/rdock/2013.1/src/exe/rbdock.cxx#4 $)

>  <Rbt.Library>
libRbt.so (2013.1, Build901 2013/11/27)

>  <Rbt.Parameter_File>
/export/apps/rDock/src/rDock_2013.1_src/data/scripts/dock_solv.prm

>  <Rbt.Receptor>
prm/blind_docking_80.prm

>  <SCORE>
-6.49405

>  <SCORE.INTER>
-10.5352

>  <SCORE.INTER.CONST>
1

>  <SCORE.INTER.POLAR>
-3.44828

>  <SCORE.INTER.ROT>
10

>  <SCORE.INTER.SOLV>
21.3637

>  <SCORE.INTER.VDW>
-12.9171

>  <SCORE.INTER.norm>
-0.284736

>  <SCORE.INTRA>
-11.934

>  <SCORE.INTRA.DIHEDRAL>
-21.419

>  <SCORE.INTRA.DIHEDRAL.0>
44.8331

>  <SCORE.INTRA.POLAR>
-0.931718

>  <SCORE.INTRA.POLAR.0>
-0.108895

>  <SCORE.INTRA.REPUL>
-0.00912235

>  <SCORE.INTRA.REPUL.0>
0.00912235

>  <SCORE.INTRA.SOLV>
0.360561

>  <SCORE.INTRA.SOLV.lig_0>
-53.9067

>  <SCORE.INTRA.VDW>
1.80867

>  <SCORE.INTRA.VDW.0>
-2.93492

>  <SCORE.INTRA.norm>
-0.32254

>  <SCORE.RESTR>
15.9752

>  <SCORE.RESTR.CAVITY>
15.9752

>  <SCORE.RESTR.norm>
0.431761

>  <SCORE.SYSTEM>
0

>  <SCORE.SYSTEM.CONST>
0

>  <SCORE.SYSTEM.DIHEDRAL>
0

>  <SCORE.SYSTEM.SOLV>
0

>  <SCORE.SYSTEM.norm>
0

>  <SCORE.heavy>
37

>  <SCORE.norm>
-0.175515

>  <RMSD>
22.669

$$$$
