@<TRIPOS>MOLECULE
2m4q_rdock.pdb
 866 932 0 0 0
SMALL
GASTEIGER

@<TRIPOS>ATOM
      1  O5'       -2.8720   20.3400    1.1270 O.3     1  G1         -0.3924
      2  C5'       -1.6640   21.0650    0.8770 C.3     1  G1          0.0730
      3  C4'       -1.5750   22.3210    1.7380 C.3     1  G1          0.1133
      4  O4'       -2.6440   23.2090    1.3870 O.3     1  G1         -0.3456
      5  C3'       -1.7620   22.0890    3.2280 C.3     1  G1          0.1241
      6  O3'       -0.4610   21.9010    3.7950 O.3     1  G1         -0.3187
      7  C2'       -2.2850   23.4300    3.7160 C.3     1  G1          0.1292
      8  O2'       -1.2140   24.3650    3.8800 O.3     1  G1         -0.3846
      9  C1'       -3.1870   23.8470    2.5560 C.3     1  G1          0.1667
     10   N9       -4.5790   23.3880    2.7390 N.ar    1  G1         -0.2854
     11   C8       -5.2240   22.3430    2.1240 C.ar    1  G1          0.1005
     12   N7       -6.4600   22.1900    2.5090 N.ar    1  G1         -0.2286
     13   C5       -6.6490   23.2020    3.4440 C.ar    1  G1          0.1721
     14   C6       -7.8040   23.5330    4.2050 C.ar    1  G1          0.2803
     15   O6       -8.9030   22.9850    4.2000 O.2     1  G1         -0.2654
     16   N.1      -7.5750   24.6220    5.0300 N.ar    1  G1         -0.2934
     17   C.2      -6.3880   25.3120    5.1180 C.ar    1  G1          0.1950
     18   N.2      -6.3450   26.3350    5.9690 N.pl3   1  G1         -0.3289
     19   N.3      -5.2960   25.0090    4.4090 N.ar    1  G1         -0.1963
     20   C4       -5.5030   23.9430    3.5940 C.ar    1  G1          0.1712
     21  H5'       -1.6330   21.3520   -0.1740 H       1  G1          0.0584
     22 H5''       -0.8110   20.4220    1.0960 H       1  G1          0.0584
     23  H4'       -0.6230   22.8170    1.5430 H       1  G1          0.0647
     24  H3'       -2.4290   21.2560    3.4540 H       1  G1          0.0655
     25  H2'       -2.8560   23.3180    4.6370 H       1  G1          0.0666
     26 HO2'       -1.5840   25.1520    4.2860 H       1  G1          0.2101
     27  H1'       -3.1770   24.9280    2.4200 H       1  G1          0.0866
     28   H8       -4.7480   21.7010    1.3860 H       1  G1          0.1030
     29   H1       -8.3450   24.9280    5.6080 H       1  G1          0.1716
     30  H21       -7.1790   26.6130    6.4660 H       1  G1          0.1451
     31  H22       -5.4790   26.8330    6.1170 H       1  G1          0.1451
     32 HO5'       -2.8090   19.5110    0.6480 H       1  G1          0.2095
     33    P.3     -0.2530   20.9310    5.0640 P.3     2  G2          0.2131
     34  OP1        1.1990   20.8170    5.3250 O.3     2  G2         -0.4373
     35  OP2       -1.0620   19.7100    4.8530 O.2     2  G2         -0.5172
     36  O5'       -0.9170   21.7740    6.2640 O.3     2  G2         -0.3248
     37  C5'       -0.3500   23.0180    6.6820 C.3     2  G2          0.0837
     38  C4'       -1.3580   23.8690    7.4500 C.3     2  G2          0.1139
     39  O4'       -2.5330   24.0410    6.6570 O.3     2  G2         -0.3456
     40  C3'       -1.8790   23.2470    8.7300 C.3     2  G2          0.1241
     41  O3'       -1.0100   23.6660    9.7880 O.3     2  G2         -0.3187
     42  C2'       -3.2150   23.9500    8.9320 C.3     2  G2          0.1292
     43  O2'       -3.0310   25.2090    9.5870 O.3     2  G2         -0.3846
     44  C1'       -3.6950   24.1630    7.4940 C.3     2  G2          0.1667
     45   N9       -4.6920   23.1520    7.0810 N.ar    2  G2         -0.2854
     46   C8       -4.5240   22.0570    6.2700 C.ar    2  G2          0.1005
     47   N7       -5.6170   21.3710    6.0830 N.ar    2  G2         -0.2286
     48   C5       -6.5750   22.0580    6.8200 C.ar    2  G2          0.1721
     49   C6       -7.9600   21.7840    6.9990 C.ar    2  G2          0.2803
     50   O6       -8.6270   20.8660    6.5210 O.2     2  G2         -0.2654
     51   N.1      -8.5620   22.7220    7.8190 N.ar    2  G2         -0.2934
     52   C.2      -7.9230   23.7920    8.3990 C.ar    2  G2          0.1950
     53   N.2      -8.6620   24.5930    9.1670 N.pl3   2  G2         -0.3289
     54   N.3      -6.6270   24.0610    8.2390 N.ar    2  G2         -0.1963
     55   C4       -6.0180   23.1510    7.4370 C.ar    2  G2          0.1712
     56  H5'       -0.0150   23.5710    5.8050 H       2  G2          0.0591
     57 H5''        0.5080   22.8190    7.3260 H       2  G2          0.0591
     58  H4'       -0.9170   24.8450    7.6480 H       2  G2          0.0647
     59  H3'       -1.9650   22.1610    8.6800 H       2  G2          0.0655
     60  H2'       -3.9080   23.3190    9.4850 H       2  G2          0.0666
     61 HO2'       -2.1910   25.5670    9.2890 H       2  G2          0.2101
     62  H1'       -4.1220   25.1580    7.3700 H       2  G2          0.0866
     63   H8       -3.5670   21.7830    5.8290 H       2  G2          0.1030
     64   H1       -9.5480   22.6080    7.9960 H       2  G2          0.1716
     65  H21       -9.6310   24.3670    9.3460 H       2  G2          0.1451
     66  H22       -8.2550   25.4250    9.5690 H       2  G2          0.1451
     67    P.3     -0.8470   22.7750   11.1210 P.3     3  C.3         0.2131
     68  OP1        0.2640   23.3370   11.9210 O.3     3  C.3        -0.4373
     69  OP2       -0.8240   21.3490   10.7250 O.2     3  C.3        -0.5172
     70  O5'       -2.2280   23.0570   11.9020 O.3     3  C.3        -0.3248
     71  C5'       -2.4720   24.3260   12.5190 C.3     3  C.3         0.0837
     72  C4'       -3.8670   24.3920   13.1350 C.3     3  C.3         0.1139
     73  O4'       -4.8440   24.3620   12.0880 O.3     3  C.3        -0.3456
     74  C3'       -4.2280   23.2140   14.0240 C.3     3  C.3         0.1241
     75  O3'       -3.9180   23.5920   15.3690 O.3     3  C.3        -0.3187
     76  C2'       -5.7440   23.1400   13.9110 C.3     3  C.3         0.1293
     77  O2'       -6.3640   24.0710   14.8040 O.3     3  C.3        -0.3846
     78  C1'       -5.9760   23.5560   12.4590 C.3     3  C.3         0.1680
     79   N.1      -6.0560   22.3950   11.5460 N.ar    3  C.3        -0.2700
     80   C.2      -7.3170   21.9750   11.1430 C.ar    3  C.3         0.3522
     81   O.2      -8.3240   22.5490   11.5540 O.2     3  C.3        -0.2444
     82   N.3      -7.4110   20.9150   10.2940 N.ar    3  C.3        -0.1783
     83   C4       -6.3110   20.2900    9.8550 C.ar    3  C.3         0.1230
     84   N.4      -6.4690   19.2620    9.0220 N.pl3   3  C.3        -0.3430
     85   C5       -5.0100   20.7160   10.2650 C.ar    3  C.3        -0.0056
     86   C6       -4.9270   21.7640   11.1050 C.ar    3  C.3         0.0152
     87  H5'       -2.3770   25.1100   11.7680 H       3  C.3         0.0591
     88 H5''       -1.7300   24.4900   13.3010 H       3  C.3         0.0591
     89  H4'       -3.9650   25.3280   13.6830 H       3  C.3         0.0647
     90  H3'       -3.7280   22.2870   13.7380 H       3  C.3         0.0655
     91  H2'       -6.1000   22.1250   14.0900 H       3  C.3         0.0666
     92 HO2'       -7.2610   23.7640   14.9580 H       3  C.3         0.2101
     93  H1'       -6.8850   24.1520   12.3660 H       3  C.3         0.0867
     94  H41       -7.3970   18.9420    8.7860 H       3  C.3         0.1437
     95  H42       -5.6600   18.8040    8.6270 H       3  C.3         0.1437
     96   H5       -4.1080   20.2140    9.9140 H       3  C.3         0.0666
     97   H6       -3.9500   22.1100   11.4380 H       3  C.3         0.0812
     98    P.3     -3.7550   22.4760   16.5200 P.3     4  G4          0.2131
     99  OP1       -3.4080   23.1610   17.7830 O.3     4  G4         -0.4373
    100  OP2       -2.8820   21.4000   15.9990 O.2     4  G4         -0.5172
    101  O5'       -5.2520   21.8930   16.6570 O.3     4  G4         -0.3248
    102  C5'       -5.4780   20.4930   16.8380 C.3     4  G4          0.0837
    103  C4'       -6.9660   20.1640   16.8730 C.3     4  G4          0.1139
    104  O4'       -7.5590   20.5360   15.6240 O.3     4  G4         -0.3456
    105  C3'       -7.2850   18.6850   17.0250 C.3     4  G4          0.1241
    106  O3'       -7.5150   18.4540   18.4190 O.3     4  G4         -0.3187
    107  C2'       -8.6240   18.5300   16.3130 C.3     4  G4          0.1292
    108  O2'       -9.7040   18.8700   17.1860 O.3     4  G4         -0.3846
    109  C1'       -8.5100   19.5520   15.1830 C.3     4  G4          0.1667
    110   N9       -8.0210   18.9560   13.9230 N.ar    4  G4         -0.2854
    111   C8       -6.7900   19.0900   13.3380 C.ar    4  G4          0.1005
    112   N7       -6.6790   18.4630   12.1990 N.ar    4  G4         -0.2286
    113   C5       -7.9300   17.8740   12.0180 C.ar    4  G4          0.1721
    114   C6       -8.4180   17.0660   10.9520 C.ar    4  G4          0.2803
    115   O6       -7.8260   16.6940    9.9410 O.2     4  G4         -0.2654
    116   N.1      -9.7390   16.6910   11.1620 N.ar    4  G4         -0.2934
    117   C.2     -10.4900   17.0340   12.2620 C.ar    4  G4          0.1950
    118   N.2     -11.7420   16.5770   12.3050 N.pl3   4  G4         -0.3289
    119   N.3     -10.0410   17.7870   13.2660 N.ar    4  G4         -0.1963
    120   C4       -8.7580   18.1720   13.0740 C.ar    4  G4          0.1712
    121  H5'       -5.0220   20.1780   17.7760 H       4  G4          0.0591
    122 H5''       -5.0120   19.9470   16.0170 H       4  G4          0.0591
    123  H4'       -7.4350   20.7390   17.6710 H       4  G4          0.0647
    124  H3'       -6.5080   18.0330   16.6280 H       4  G4          0.0655
    125  H2'       -8.7400   17.5210   15.9180 H       4  G4          0.0666
    126 HO2'      -10.5080   18.8630   16.6610 H       4  G4          0.2101
    127  H1'       -9.4690   20.0370   15.0010 H       4  G4          0.0866
    128   H8       -6.0130   19.7240   13.7630 H       4  G4          0.1030
    129   H1      -10.2130   16.2090   10.4140 H       4  G4          0.1716
    130  H21      -12.0790   15.9610   11.5810 H       4  G4          0.1451
    131  H22      -12.3510   16.8480   13.0640 H       4  G4          0.1451
    132    P.3     -7.5070   16.9590   19.0180 P.3     5  U5          0.2131
    133  OP1       -7.6790   17.0470   20.4850 O.3     5  U5         -0.4373
    134  OP2       -6.3410   16.2390   18.4550 O.2     5  U5         -0.5172
    135  O5'       -8.8460   16.3220   18.3890 O.3     5  U5         -0.3248
    136  C5'       -8.9430   14.9150   18.1590 C.3     5  U5          0.0837
    137  C4'      -10.1800   14.5630   17.3400 C.3     5  U5          0.1139
    138  O4'      -10.1980   15.3510   16.1420 O.3     5  U5         -0.3456
    139  C3'      -10.2210   13.1300   16.8410 C.3     5  U5          0.1241
    140  O3'      -10.9450   12.3640   17.8100 O.3     5  U5         -0.3187
    141  C2'      -11.0870   13.2280   15.5960 C.3     5  U5          0.1293
    142  O2'      -12.4740   13.2680   15.9430 O.3     5  U5         -0.3846
    143  C1'      -10.6420   14.5680   15.0180 C.3     5  U5          0.1680
    144   N.1      -9.5180   14.4270   14.0600 N.ar    5  U5         -0.2715
    145   C.2      -9.7640   13.7610   12.8680 C.ar    5  U5          0.3314
    146   O.2     -10.8640   13.2920   12.5850 O.2     5  U5         -0.2464
    147   N.3      -8.6900   13.6530   12.0060 N.ar    5  U5         -0.2749
    148   C4       -7.4170   14.1410   12.2240 C.ar    5  U5          0.2539
    149   O4       -6.5440   13.9820   11.3740 O.2     5  U5         -0.2677
    150   C5       -7.2380   14.8210   13.4840 C.ar    5  U5          0.0192
    151   C6       -8.2770   14.9400   14.3470 C.ar    5  U5          0.0171
    152  H5'       -8.9940   14.3990   19.1180 H       5  U5          0.0591
    153 H5''       -8.0550   14.5800   17.6220 H       5  U5          0.0591
    154  H4'      -11.0710   14.7900   17.9280 H       5  U5          0.0647
    155  H3'       -9.2320   12.7110   16.6480 H       5  U5          0.0655
    156  H2'      -10.8770   12.4170   14.9050 H       5  U5          0.0666
    157 HO2'      -12.9740   13.1880   15.1270 H       5  U5          0.2101
    158  H1'      -11.4720   15.0730   14.5280 H       5  U5          0.0867
    159   H3       -8.8490   13.1690   11.1350 H       5  U5          0.1734
    160   H5       -6.2660   15.2410   13.7430 H       5  U5          0.0686
    161   H6       -8.1220   15.4580   15.2940 H       5  U5          0.0813
    162    P.3    -10.4810   10.8690   18.1860 P.3     6  C6          0.2131
    163  OP1      -11.1400   10.4840   19.4540 O.3     6  C6         -0.4373
    164  OP2       -9.0070   10.7950   18.0700 O.2     6  C6         -0.5172
    165  O5'      -11.1240    9.9960   16.9970 O.3     6  C6         -0.3248
    166  C5'      -12.5450    9.9030   16.8480 C.3     6  C6          0.0837
    167  C4'      -12.9370    9.4810   15.4360 C.3     6  C6          0.1139
    168  O4'      -12.3540   10.3870   14.4940 O.3     6  C6         -0.3456
    169  C3'      -12.4120    8.1240   15.0030 C.3     6  C6          0.1241
    170  O3'      -13.4020    7.1520   15.3570 O.3     6  C6         -0.3187
    171  C2'      -12.4060    8.2360   13.4860 C.3     6  C6          0.1293
    172  O2'      -13.7100    7.9840   12.9540 O.3     6  C6         -0.3846
    173  C1'      -12.0170    9.7010   13.2730 C.3     6  C6          0.1680
    174   N.1     -10.5670    9.8620   13.0070 N.ar    6  C6         -0.2700
    175   C.2     -10.0920    9.4390   11.7710 C.ar    6  C6          0.3522
    176   O.2     -10.8610    8.9580   10.9420 O.2     6  C6         -0.2444
    177   N.3      -8.7640    9.5700   11.5020 N.ar    6  C6         -0.1783
    178   C4       -7.9310   10.0950   12.4080 C.ar    6  C6          0.1230
    179   N.4      -6.6420   10.1940   12.0830 N.pl3   6  C6         -0.3430
    180   C5       -8.4110   10.5340   13.6820 C.ar    6  C6         -0.0056
    181   C6       -9.7250   10.3990   13.9390 C.ar    6  C6          0.0152
    182  H5'      -12.9890   10.8750   17.0630 H       6  C6          0.0591
    183 H5''      -12.9290    9.1690   17.5580 H       6  C6          0.0591
    184  H4'      -14.0210    9.5210   15.3440 H       6  C6          0.0647
    185  H3'      -11.4360    7.8830   15.4230 H       6  C6          0.0655
    186  H2'      -11.6670    7.5660   13.0490 H       6  C6          0.0666
    187 HO2'      -13.5950    7.5030   12.1310 H       6  C6          0.2101
    188  H1'      -12.5810   10.1370   12.4500 H       6  C6          0.0867
    189  H41       -6.3110    9.8060   11.2110 H       6  C6          0.1437
    190  H42       -5.9970   10.6530   12.7100 H       6  C6          0.1437
    191   H5       -7.7410   10.9640   14.4270 H       6  C6          0.0666
    192   H6      -10.1210   10.7240   14.9000 H       6  C6          0.0812
    193    P.3    -12.9820    5.6230   15.6580 P.3     7  A7          0.2131
    194  OP1      -14.2200    4.8290   15.8310 O.2     7  A7         -0.5172
    195  OP2      -11.9550    5.6280   16.7220 O.3     7  A7         -0.4373
    196  O5'      -12.2800    5.1700   14.2810 O.3     7  A7         -0.3248
    197  C5'      -13.0620    4.9240   13.1070 C.3     7  A7          0.0837
    198  C4'      -12.2130    5.0130   11.8400 C.3     7  A7          0.1139
    199  O4'      -11.3050    6.1150   11.9590 O.3     7  A7         -0.3456
    200  C3'      -11.3080    3.8190   11.5870 C.3     7  A7          0.1241
    201  O3'      -12.0260    2.9060   10.7520 O.3     7  A7         -0.3187
    202  C2'      -10.1900    4.4180   10.7480 C.3     7  A7          0.1292
    203  O2'      -10.5970    4.5620    9.3850 O.3     7  A7         -0.3846
    204  C1'      -10.0220    5.7870   11.3970 C.3     7  A7          0.1667
    205   N9       -9.0160    5.7670   12.4760 N.ar    7  A7         -0.2855
    206   C8       -9.2060    5.6660   13.8320 C.ar    7  A7          0.1004
    207   N7       -8.0970    5.6650   14.5170 N.ar    7  A7         -0.2306
    208   C5       -7.1080    5.7680   13.5460 C.ar    7  A7          0.1473
    209   C6       -5.7080    5.8180   13.6160 C.ar    7  A7          0.1472
    210   N6       -5.0240    5.7700   14.7590 N.pl3   7  A7         -0.3413
    211   N.1      -5.0310    5.9210   12.4630 N.ar    7  A7         -0.2188
    212   C.2      -5.7050    5.9740   11.3200 C.ar    7  A7          0.1205
    213   N.3      -7.0100    5.9370   11.1210 N.ar    7  A7         -0.2159
    214   C4       -7.6590    5.8320   12.2990 C.ar    7  A7          0.1674
    215  H5'      -13.8620    5.6630   13.0500 H       7  A7          0.0591
    216 H5''      -13.4990    3.9300   13.1730 H       7  A7          0.0591
    217  H4'      -12.8690    5.1840   10.9860 H       7  A7          0.0647
    218  H3'      -10.9540    3.3430   12.5010 H       7  A7          0.0655
    219  H2'       -9.2770    3.8280   10.8300 H       7  A7          0.0666
    220 HO2'       -9.9240    5.0810    8.9390 H       7  A7          0.2101
    221  H1'       -9.7470    6.5400   10.6590 H       7  A7          0.0866
    222   H8      -10.1900    5.5840   14.2900 H       7  A7          0.1030
    223  H61       -4.0140    5.7910   14.7450 H       7  A7          0.1438
    224  H62       -5.5150    5.7120   15.6400 H       7  A7          0.1438
    225   H2       -5.0980    6.0610   10.4200 H       7  A7          0.1048
    226    P.3    -11.5530    1.3690   10.6190 P.3     8  C8          0.2131
    227  OP1      -12.6650    0.5930   10.0240 O.2     8  C8         -0.5172
    228  OP2      -10.9690    0.9480   11.9110 O.3     8  C8         -0.4373
    229  O5'      -10.3650    1.4550    9.5330 O.3     8  C8         -0.3248
    230  C5'      -10.5770    2.0880    8.2670 C.3     8  C8          0.0837
    231  C4'       -9.5560    1.6370    7.2270 C.3     8  C8          0.1139
    232  O4'       -8.3120    2.3110    7.4460 O.3     8  C8         -0.3456
    233  C3'       -9.1810    0.1710    7.2930 C.3     8  C8          0.1241
    234  O3'      -10.1130   -0.5450    6.4760 O.3     8  C8         -0.3187
    235  C2'       -7.8350    0.1500    6.5880 C.3     8  C8          0.1293
    236  O2'       -8.0030    0.1860    5.1680 O.3     8  C8         -0.3846
    237  C1'       -7.2060    1.4560    7.0890 C.3     8  C8          0.1680
    238   N.1      -6.3450    1.2450    8.2790 N.ar    8  C8         -0.2700
    239   C.2      -5.2290    0.4250    8.1360 C.ar    8  C8          0.3522
    240   O.2      -4.9680   -0.0940    7.0500 O.2     8  C8         -0.2444
    241   N.3      -4.4330    0.2110    9.2200 N.ar    8  C8         -0.1783
    242   C4       -4.7150    0.7800   10.3990 C.ar    8  C8          0.1230
    243   N.4      -3.8980    0.5280   11.4200 N.pl3   8  C8         -0.3430
    244   C5       -5.8570    1.6260   10.5550 C.ar    8  C8         -0.0056
    245   C6       -6.6390    1.8330    9.4800 C.ar    8  C8          0.0152
    246  H5'      -10.5010    3.1690    8.3930 H       8  C8          0.0591
    247 H5''      -11.5770    1.8420    7.9110 H       8  C8          0.0591
    248  H4'       -9.9280    1.8930    6.2350 H       8  C8          0.0647
    249  H3'       -9.1440   -0.2210    8.3100 H       8  C8          0.0655
    250  H2'       -7.2450   -0.7140    6.8940 H       8  C8          0.0666
    251 HO2'       -7.3960   -0.4560    4.7920 H       8  C8          0.2101
    252  H1'       -6.6220    1.9330    6.3030 H       8  C8          0.0867
    253  H41       -3.1160   -0.1020   11.2970 H       8  C8          0.1437
    254  H42       -4.0580    0.9670   12.3160 H       8  C8          0.1437
    255   H5       -6.0980    2.0950   11.5130 H       8  C8          0.0666
    256   H6       -7.4980    2.4990    9.5660 H       8  C8          0.0812
    257    P.3    -10.4870   -2.0750    6.8130 P.3     9  A9          0.2131
    258  OP1      -11.6860   -2.4430    6.0270 O.2     9  A9         -0.5172
    259  OP2      -10.4930   -2.2400    8.2850 O.3     9  A9         -0.4373
    260  O5'       -9.2250   -2.8770    6.2210 O.3     9  A9         -0.3248
    261  C5'       -9.0110   -2.9500    4.8080 C.3     9  A9          0.0837
    262  C4'       -7.5600   -3.2760    4.4750 C.3     9  A9          0.1139
    263  O4'       -6.6960   -2.5140    5.3170 O.3     9  A9         -0.3456
    264  C3'       -7.1430   -4.7090    4.7380 C.3     9  A9          0.1241
    265  O3'       -7.3880   -5.4470    3.5360 O.3     9  A9         -0.3187
    266  C2'       -5.6320   -4.6000    4.9040 C.3     9  A9          0.1292
    267  O2'       -4.9780   -4.6330    3.6310 O.3     9  A9         -0.3846
    268  C1'       -5.4680   -3.2210    5.5500 C.3     9  A9          0.1667
    269   N9       -5.2340   -3.3060    7.0070 N.ar    9  A9         -0.2855
    270   C8       -6.0520   -2.9200    8.0410 C.ar    9  A9          0.1004
    271   N7       -5.5260   -3.1030    9.2170 N.ar    9  A9         -0.2306
    272   C5       -4.2780   -3.6340    8.9500 C.ar    9  A9          0.1473
    273   C6       -3.2290   -4.0380    9.7830 C.ar    9  A9          0.1472
    274   N6       -3.2620   -3.9260   11.1080 N.pl3   9  A9         -0.3413
    275   N.1      -2.1230   -4.5260    9.2020 N.ar    9  A9         -0.2188
    276   C.2      -2.0710   -4.6020    7.8790 C.ar    9  A9          0.1205
    277   N.3      -2.9870   -4.2520    6.9860 N.ar    9  A9         -0.2159
    278   C4       -4.0830   -3.7680    7.6070 C.ar    9  A9          0.1674
    279  H5'       -9.2710   -1.9920    4.3600 H       9  A9          0.0591
    280 H5''       -9.6540   -3.7240    4.3910 H       9  A9          0.0591
    281  H4'       -7.3680   -3.0060    3.4370 H       9  A9          0.0647
    282  H3'       -7.6410   -5.1530    5.5980 H       9  A9          0.0655
    283  H2'       -5.2540   -5.3840    5.5570 H       9  A9          0.0666
    284 HO2'       -5.3560   -3.9300    3.0980 H       9  A9          0.2101
    285  H1'       -4.6460   -2.6730    5.0890 H       9  A9          0.0866
    286   H8       -6.9980   -2.4020    7.9140 H       9  A9          0.1030
    287  H61       -2.5090   -4.3050   11.6670 H       9  A9          0.1438
    288  H62       -4.0390   -3.4600   11.5570 H       9  A9          0.1438
    289   H2       -1.1540   -5.0220    7.4720 H       9  A9          0.1048
    290    P.3     -7.5900   -7.0440    3.5780 P.3    10  C10         0.2131
    291  OP1       -7.9290   -7.5040    2.2120 O.2    10  C10        -0.5172
    292  OP2       -8.4870   -7.3710    4.7080 O.3    10  C10        -0.4373
    293  O5'       -6.1130   -7.5780    3.9370 O.3    10  C10        -0.3248
    294  C5'       -5.0600   -7.5300    2.9690 C.3    10  C10         0.0837
    295  C4'       -3.7550   -8.0790    3.5370 C.3    10  C10         0.1139
    296  O4'       -3.2470   -7.1640    4.5170 O.3    10  C10        -0.3456
    297  C3'       -3.8930   -9.3930    4.2880 C.3    10  C10         0.1241
    298  O3'       -3.6240  -10.4450    3.3560 O.3    10  C10        -0.3187
    299  C2'       -2.7370   -9.3490    5.2730 C.3    10  C10         0.1293
    300  O2'       -1.5120   -9.7320    4.6400 O.3    10  C10        -0.3846
    301  C1'       -2.7040   -7.8690    5.6490 C.3    10  C10         0.1680
    302   N.1      -3.5360   -7.5670    6.8370 N.ar   10  C10        -0.2700
    303   C.2      -2.8900   -7.3650    8.0450 C.ar   10  C10         0.3522
    304   O.2      -1.6680   -7.4670    8.1190 O.2    10  C10        -0.2444
    305   N.3      -3.6360   -7.0600    9.1390 N.ar   10  C10        -0.1783
    306   C4       -4.9680   -6.9490    9.0510 C.ar   10  C10         0.1230
    307   N.4      -5.6400   -6.6900   10.1710 N.pl3  10  C10        -0.3430
    308   C5       -5.6460   -7.1480    7.8040 C.ar   10  C10        -0.0056
    309   C6       -4.8940   -7.4690    6.7310 C.ar   10  C10         0.0152
    310  H5'       -4.9050   -6.4960    2.6610 H      10  C10         0.0591
    311 H5''       -5.3480   -8.1210    2.1000 H      10  C10         0.0591
    312  H4'       -3.0290   -8.1720    2.7290 H      10  C10         0.0647
    313  H3'       -4.8640   -9.5160    4.7660 H      10  C10         0.0655
    314  H2'       -2.9400   -9.9700    6.1450 H      10  C10         0.0666
    315 HO2'       -0.9630  -10.1460    5.3090 H      10  C10         0.2101
    316  H1'       -1.6820   -7.5330    5.8270 H      10  C10         0.0867
    317  H41       -5.1510   -6.6700   11.0580 H      10  C10         0.1437
    318  H42       -6.6390   -6.5430   10.1410 H      10  C10         0.1437
    319   H5       -6.7220   -7.0020    7.7080 H      10  C10         0.0666
    320   H6       -5.3620   -7.8070    5.8090 H      10  C10         0.0812
    321    P.3     -4.2530  -11.9110    3.5760 P.3    11  C11         0.2131
    322  OP1       -3.8760  -12.7560    2.4200 O.2    11  C11        -0.5172
    323  OP2       -5.6770  -11.7560    3.9440 O.3    11  C11        -0.4373
    324  O5'       -3.4530  -12.4410    4.8710 O.3    11  C11        -0.3248
    325  C5'       -2.0970  -12.8810    4.7570 C.3    11  C11         0.0837
    326  C4'       -1.3800  -12.8540    6.1030 C.3    11  C11         0.1139
    327  O4'       -1.5620  -11.5780    6.7180 O.3    11  C11        -0.3456
    328  C3'       -1.9150  -13.8190    7.1430 C.3    11  C11         0.1241
    329  O3'       -1.2190  -15.0590    6.9700 O.3    11  C11        -0.3187
    330  C2'       -1.4300  -13.2020    8.4480 C.3    11  C11         0.1293
    331  O2'       -0.0770  -13.5830    8.7160 O.3    11  C11        -0.3846
    332  C1'       -1.5110  -11.7010    8.1480 C.3    11  C11         0.1680
    333   N.1      -2.7180  -11.0790    8.7410 N.ar   11  C11        -0.2700
    334   C.2      -2.5780  -10.4740    9.9810 C.ar   11  C11         0.3522
    335   O.2      -1.4820  -10.4510   10.5370 O.2    11  C11        -0.2444
    336   N.3      -3.6730   -9.9130   10.5620 N.ar   11  C11        -0.1783
    337   C4       -4.8610   -9.9430    9.9520 C.ar   11  C11         0.1230
    338   N.4      -5.8930   -9.3850   10.5840 N.pl3  11  C11        -0.3430
    339   C5       -5.0160  -10.5620    8.6720 C.ar   11  C11        -0.0056
    340   C6       -3.9270  -11.1160    8.1060 C.ar   11  C11         0.0152
    341  H5'       -1.5680  -12.2290    4.0620 H      11  C11         0.0591
    342 H5''       -2.0860  -13.8990    4.3690 H      11  C11         0.0591
    343  H4'       -0.3150  -13.0200    5.9380 H      11  C11         0.0647
    344  H3'       -2.9960  -13.9480    7.0990 H      11  C11         0.0655
    345  H2'       -2.0860  -13.4700    9.2740 H      11  C11         0.0666
    346 HO2'        0.2230  -13.0620    9.4650 H      11  C11         0.2101
    347  H1'       -0.6250  -11.1850    8.5200 H      11  C11         0.0867
    348  H41       -5.7480   -8.9100   11.4650 H      11  C11         0.1437
    349  H42       -6.8170   -9.4330   10.1840 H      11  C11         0.1437
    350   H5       -5.9800  -10.5900    8.1640 H      11  C11         0.0666
    351   H6       -4.0120  -11.5970    7.1310 H      11  C11         0.0812
    352    P.3     -1.8320  -16.4300    7.5540 P.3    12  U12         0.2131
    353  OP1       -0.7510  -17.4420    7.5900 O.3    12  U12        -0.4373
    354  OP2       -3.0900  -16.7210    6.8310 O.2    12  U12        -0.5172
    355  O5'       -2.2040  -16.0360    9.0720 O.3    12  U12        -0.3248
    356  C5'       -1.1910  -15.9600   10.0810 C.3    12  U12         0.0837
    357  C4'       -1.7690  -15.5260   11.4230 C.3    12  U12         0.1139
    358  O4'       -2.2990  -14.2030   11.3050 O.3    12  U12        -0.3456
    359  C3'       -2.9470  -16.3540   11.9020 C.3    12  U12         0.1241
    360  O3'       -2.4160  -17.3930   12.7290 O.3    12  U12        -0.3187
    361  C2'       -3.7050  -15.3920   12.8070 C.3    12  U12         0.1293
    362  O2'       -3.1490  -15.3820   14.1240 O.3    12  U12        -0.3846
    363  C1'       -3.4720  -14.0430   12.1230 C.3    12  U12         0.1680
    364   N.1      -4.6110  -13.6510   11.2630 N.ar   12  U12        -0.2715
    365   C.2      -5.6050  -12.8740   11.8320 C.ar   12  U12         0.3314
    366   O.2      -5.5650  -12.4980   13.0040 O.2    12  U12        -0.2464
    367   N.3      -6.6580  -12.5390   11.0040 N.ar   12  U12        -0.2749
    368   C4       -6.8010  -12.9050    9.6800 C.ar   12  U12         0.2539
    369   O4       -7.7890  -12.5410    9.0460 O.2    12  U12        -0.2677
    370   C5       -5.7230  -13.7110    9.1580 C.ar   12  U12         0.0192
    371   C6       -4.6810  -14.0530    9.9530 C.ar   12  U12         0.0171
    372  H5'       -0.4310  -15.2430    9.7720 H      12  U12         0.0591
    373 H5''       -0.7280  -16.9420   10.1940 H      12  U12         0.0591
    374  H4'       -0.9730  -15.5240   12.1680 H      12  U12         0.0647
    375  H3'       -3.5540  -16.7520   11.0880 H      12  U12         0.0655
    376  H2'       -4.7660  -15.6380   12.8330 H      12  U12         0.0666
    377 HO2'       -3.3360  -14.5180   14.5020 H      12  U12         0.2101
    378  H1'       -3.2910  -13.2610   12.8590 H      12  U12         0.0867
    379   H3       -7.3960  -11.9770   11.4060 H      12  U12         0.1734
    380   H5       -5.7460  -14.0410    8.1200 H      12  U12         0.0686
    381   H6       -3.8790  -14.6650    9.5410 H      12  U12         0.0813
    382    P.3     -2.9070  -18.9170   12.5540 P.3    13  U13         0.2131
    383  OP1       -1.8900  -19.6420   11.7610 O.2    13  U13        -0.5172
    384  OP2       -4.3180  -18.9040   12.1060 O.3    13  U13        -0.4373
    385  O5'       -2.8570  -19.4740   14.0640 O.3    13  U13        -0.3248
    386  C5'       -3.9420  -20.2370   14.6060 C.3    13  U13         0.0837
    387  C4'       -4.2350  -19.8480   16.0540 C.3    13  U13         0.1139
    388  O4'       -3.0130  -19.4420   16.6870 O.3    13  U13        -0.3456
    389  C3'       -5.1880  -18.6640   16.2110 C.3    13  U13         0.1241
    390  O3'       -5.8900  -18.8510   17.4450 O.3    13  U13        -0.3187
    391  C2'       -4.2590  -17.4710   16.3960 C.3    13  U13         0.1293
    392  O2'       -4.8900  -16.4510   17.1740 O.3    13  U13        -0.3846
    393  C1'       -3.1050  -18.0970   17.1680 C.3    13  U13         0.1680
    394   N.1      -1.8190  -17.4080   16.9200 N.ar   13  U13        -0.2715
    395   C.2      -1.1270  -16.9240   18.0180 C.ar   13  U13         0.3314
    396   O.2      -1.5230  -17.0780   19.1730 O.2    13  U13        -0.2464
    397   N.3       0.0510  -16.2600   17.7440 N.ar   13  U13        -0.2749
    398   C4        0.5910  -16.0380   16.4910 C.ar   13  U13         0.2539
    399   O4        1.6500  -15.4270   16.3770 O.2    13  U13        -0.2677
    400   C5       -0.1870  -16.5730   15.3990 C.ar   13  U13         0.0192
    401   C6       -1.3460  -17.2320   15.6450 C.ar   13  U13         0.0171
    402  H5'       -3.6850  -21.2960   14.5670 H      13  U13         0.0591
    403 H5''       -4.8350  -20.0660   14.0030 H      13  U13         0.0591
    404  H4'       -4.6280  -20.7210   16.5750 H      13  U13         0.0647
    405  H3'       -5.8710  -18.5500   15.3710 H      13  U13         0.0655
    406  H2'       -3.9240  -17.0830   15.4340 H      13  U13         0.0666
    407 HO2'       -4.3450  -16.3060   17.9510 H      13  U13         0.2101
    408  H1'       -3.3120  -18.1090   18.2390 H      13  U13         0.0867
    409   H3        0.5690  -15.9010   18.5340 H      13  U13         0.1734
    410   H5        0.1520  -16.4390   14.3720 H      13  U13         0.0686
    411   H6       -1.9080  -17.6460   14.8090 H      13  U13         0.0813
    412    P.3     -7.4850  -18.6380   17.5280 P.3    14  C14         0.2131
    413  OP1       -7.8790  -18.6450   18.9550 O.3    14  C14        -0.4373
    414  OP2       -8.1260  -19.5790   16.5840 O.2    14  C14        -0.5172
    415  O5'       -7.6780  -17.1430   16.9550 O.3    14  C14        -0.3248
    416  C5'       -7.5930  -16.0090   17.8250 C.3    14  C14         0.0837
    417  C4'       -7.9270  -14.7100   17.0980 C.3    14  C14         0.1139
    418  O4'       -7.2650  -14.7010   15.8210 O.3    14  C14        -0.3456
    419  C3'       -9.4080  -14.5130   16.7740 C.3    14  C14         0.1241
    420  O3'       -9.6350  -13.0990   16.6950 O.3    14  C14        -0.3187
    421  C2'       -9.5330  -15.0580   15.3600 C.3    14  C14         0.1293
    422  O2'      -10.6430  -14.4640   14.6810 O.3    14  C14        -0.3846
    423  C1'       -8.2180  -14.5900   14.7560 C.3    14  C14         0.1680
    424   N.1      -7.7790  -15.4350   13.6240 N.ar   14  C14        -0.2700
    425   C.2      -8.1080  -15.0190   12.3410 C.ar   14  C14         0.3522
    426   O.2      -8.7550  -13.9850   12.1680 O.2    14  C14        -0.2444
    427   N.3      -7.7070  -15.7770   11.2850 N.ar   14  C14        -0.1783
    428   C4       -7.0080  -16.9030   11.4800 C.ar   14  C14         0.1230
    429   N.4      -6.6390  -17.6010   10.4060 N.pl3  14  C14        -0.3430
    430   C5       -6.6660  -17.3370   12.7980 C.ar   14  C14        -0.0056
    431   C6       -7.0690  -16.5800   13.8330 C.ar   14  C14         0.0152
    432  H5'       -6.5790  -15.9430   18.2210 H      14  C14         0.0591
    433 H5''       -8.2870  -16.1420   18.6550 H      14  C14         0.0591
    434  H4'       -7.5580  -13.8750   17.6920 H      14  C14         0.0647
    435  H3'      -10.0780  -14.9960   17.4850 H      14  C14         0.0655
    436  H2'       -9.6030  -16.1460   15.3620 H      14  C14         0.0666
    437 HO2'      -10.5780  -13.5140   14.8040 H      14  C14         0.2101
    438  H1'       -8.2820  -13.5510   14.4310 H      14  C14         0.0867
    439  H41       -7.1040  -17.4510    9.5210 H      14  C14         0.1437
    440  H42       -5.8950  -18.2810   10.4760 H      14  C14         0.1437
    441   H5       -6.0960  -18.2510   12.9680 H      14  C14         0.0666
    442   H6       -6.8250  -16.8820   14.8510 H      14  C14         0.0812
    443    P.3     -9.8970  -12.2220   18.0210 P.3    15  G15         0.2131
    444  OP1      -11.1430  -12.7050   18.6570 O.3    15  G15        -0.4373
    445  OP2       -9.7590  -10.7920   17.6630 O.2    15  G15        -0.5172
    446  O5'       -8.6520  -12.6250   18.9630 O.3    15  G15        -0.3248
    447  C5'       -8.8400  -13.4880   20.0880 C.3    15  G15         0.0837
    448  C4'       -7.6060  -13.5240   20.9850 C.3    15  G15         0.1139
    449  O4'       -6.6650  -14.4700   20.4750 O.3    15  G15        -0.3456
    450  C3'       -6.8080  -12.2400   21.0430 C.3    15  G15         0.1241
    451  O3'       -7.3760  -11.4290   22.0790 O.3    15  G15        -0.3187
    452  C2'       -5.4460  -12.7190   21.5300 C.3    15  G15         0.1292
    453  O2'       -5.4290  -12.8390   22.9560 O.3    15  G15        -0.3846
    454  C1'       -5.3310  -14.1010   20.8760 C.3    15  G15         0.1667
    455   N9       -4.4390  -14.0910   19.6960 N.ar   15  G15        -0.2854
    456   C8       -3.1760  -14.6150   19.5870 C.ar   15  G15         0.1005
    457   N7       -2.6280  -14.4250   18.4210 N.ar   15  G15        -0.2286
    458   C5       -3.5900  -13.7270   17.7040 C.ar   15  G15         0.1721
    459   C6       -3.5530  -13.2450   16.3680 C.ar   15  G15         0.2803
    460   O6       -2.6400  -13.3300   15.5530 O.2    15  G15        -0.2654
    461   N.1      -4.7260  -12.5970   16.0270 N.ar   15  G15        -0.2934
    462   C.2      -5.8070  -12.4260   16.8650 C.ar   15  G15         0.1950
    463   N.2      -6.8600  -11.7770   16.3690 N.pl3  15  G15        -0.3289
    464   N.3      -5.8510  -12.8740   18.1240 N.ar   15  G15        -0.1963
    465   C4       -4.7100  -13.5150   18.4740 C.ar   15  G15         0.1712
    466  H5'       -9.0500  -14.4960   19.7320 H      15  G15         0.0591
    467 H5''       -9.6900  -13.1330   20.6710 H      15  G15         0.0591
    468  H4'       -7.9090  -13.8320   21.9870 H      15  G15         0.0647
    469  H3'       -6.7680  -11.7140   20.0890 H      15  G15         0.0655
    470  H2'       -4.6530  -12.0570   21.1810 H      15  G15         0.0666
    471 HO2'       -5.2910  -11.9590   23.3140 H      15  G15         0.2101
    472  H1'       -4.9610  -14.8350   21.5930 H      15  G15         0.0866
    473   H8       -2.6770  -15.1420   20.4000 H      15  G15         0.1030
    474   H1       -4.7910  -12.2310   15.0890 H      15  G15         0.1716
    475  H21       -7.2130  -10.9550   16.8370 H      15  G15         0.1451
    476  H22       -7.3060  -12.1080   15.5250 H      15  G15         0.1451
    477    P.3     -6.9450   -9.8830   22.2450 P.3    16  G16         0.2131
    478  OP1       -7.1160   -9.5040   23.6650 O.3    16  G16        -0.4373
    479  OP2       -7.6170   -9.1000   21.1850 O.2    16  G16        -0.5172
    480  O5'       -5.3670   -9.9270   21.9210 O.3    16  G16        -0.3248
    481  C5'       -4.7150   -8.8260   21.2820 C.3    16  G16         0.0837
    482  C4'       -3.4230   -9.2720   20.6060 C.3    16  G16         0.1139
    483  O4'       -3.7280  -10.3180   19.6720 O.3    16  G16        -0.3456
    484  C3'       -2.7360   -8.2050   19.7660 C.3    16  G16         0.1241
    485  O3'       -1.7450   -7.5840   20.5910 O.3    16  G16        -0.3187
    486  C2'       -2.0040   -9.0220   18.7130 C.3    16  G16         0.1292
    487  O2'       -0.7860   -9.5550   19.2400 O.3    16  G16        -0.3846
    488  C1'       -3.0060  -10.1380   18.4430 C.3    16  G16         0.1667
    489   N9       -3.9650   -9.7780   17.3780 N.ar   16  G16        -0.2854
    490   C8       -5.2710   -9.3710   17.4990 C.ar   16  G16         0.1005
    491   N7       -5.8510   -9.1220   16.3570 N.ar   16  G16        -0.2286
    492   C5       -4.8630   -9.3830   15.4140 C.ar   16  G16         0.1721
    493   C6       -4.9080   -9.2890   13.9960 C.ar   16  G16         0.2803
    494   O6       -5.8500   -8.9500   13.2850 O.2    16  G16        -0.2654
    495   N.1      -3.6980   -9.6400   13.4220 N.ar   16  G16        -0.2934
    496   C.2      -2.5780  -10.0340   14.1190 C.ar   16  G16         0.1950
    497   N.2      -1.4890  -10.3150   13.4090 N.pl3  16  G16        -0.3289
    498   N.3      -2.5240  -10.1250   15.4490 N.ar   16  G16        -0.1963
    499   C4       -3.7010   -9.7860   16.0280 C.ar   16  G16         0.1712
    500  H5'       -4.4840   -8.0650   22.0280 H      16  G16         0.0591
    501 H5''       -5.3810   -8.4010   20.5320 H      16  G16         0.0591
    502  H4'       -2.7420   -9.6610   21.3630 H      16  G16         0.0647
    503  H3'       -3.4290   -7.4760   19.3430 H      16  G16         0.0655
    504  H2'       -1.8220   -8.4330   17.8170 H      16  G16         0.0666
    505 HO2'       -0.3960  -10.1050   18.5560 H      16  G16         0.2101
    506  H1'       -2.5000  -11.0660   18.1790 H      16  G16         0.0866
    507   H8       -5.7750   -9.2650   18.4590 H      16  G16         0.1030
    508   H1       -3.6390   -9.5950   12.4140 H      16  G16         0.1716
    509  H21       -1.5300  -10.3270   12.4040 H      16  G16         0.1451
    510  H22       -0.6220  -10.5160   13.8780 H      16  G16         0.1451
    511    P.3     -1.2060   -6.1040   20.2520 P.3    17  G17         0.2131
    512  OP1       -0.3570   -5.6520   21.3790 O.3    17  G17        -0.4373
    513  OP2       -2.3560   -5.2790   19.8190 O.2    17  G17        -0.5172
    514  O5'       -0.2570   -6.3550   18.9730 O.3    17  G17        -0.3248
    515  C5'        1.0710   -6.8620   19.1340 C.3    17  G17         0.0837
    516  C4'        1.6650   -7.3180   17.8040 C.3    17  G17         0.1139
    517  O4'        0.6870   -8.0800   17.0900 O.3    17  G17        -0.3456
    518  C3'        2.0280   -6.1960   16.8480 C.3    17  G17         0.1241
    519  O3'        3.4070   -5.8770   17.0710 O.3    17  G17        -0.3187
    520  C2'        1.9360   -6.8620   15.4810 C.3    17  G17         0.1292
    521  O2'        3.1520   -7.5490   15.1680 O.3    17  G17        -0.3846
    522  C1'        0.7970   -7.8580   15.6730 C.3    17  G17         0.1667
    523   N9       -0.4910   -7.3440   15.1640 N.ar   17  G17        -0.2854
    524   C8       -1.5490   -6.8200   15.8640 C.ar   17  G17         0.1005
    525   N7       -2.5610   -6.4850   15.1150 N.ar   17  G17        -0.2286
    526   C5       -2.1470   -6.8060   13.8270 C.ar   17  G17         0.1721
    527   C6       -2.8310   -6.6650   12.5880 C.ar   17  G17         0.2803
    528   O6       -3.9640   -6.2330   12.3870 O.2    17  G17        -0.2654
    529   N.1      -2.0580   -7.1080   11.5280 N.ar   17  G17        -0.2934
    530   C.2      -0.7860   -7.6220   11.6360 C.ar   17  G17         0.1950
    531   N.2      -0.1860   -7.9970   10.5090 N.pl3  17  G17        -0.3289
    532   N.3      -0.1370   -7.7610   12.7950 N.ar   17  G17        -0.1963
    533   C4       -0.8770   -7.3330   13.8450 C.ar   17  G17         0.1712
    534  H5'        1.0490   -7.7080   19.8210 H      17  G17         0.0591
    535 H5''        1.7030   -6.0790   19.5560 H      17  G17         0.0591
    536  H4'        2.5310   -7.9490   18.0010 H      17  G17         0.0647
    537  H3'        1.3870   -5.3200   16.9440 H      17  G17         0.0655
    538  H2'        1.6870   -6.1360   14.7130 H      17  G17         0.0666
    539 HO2'        3.3160   -8.1740   15.8760 H      17  G17         0.2101
    540  H1'        1.0270   -8.8010   15.1780 H      17  G17         0.0866
    541   H8       -1.5390   -6.6870   16.9460 H      17  G17         0.1030
    542   H1       -2.4650   -7.0410   10.6060 H      17  G17         0.1716
    543  H21       -0.6930   -7.9720    9.6350 H      17  G17         0.1451
    544  H22        0.7750   -8.3080   10.5270 H      17  G17         0.1451
    545    P.3      4.0720   -4.5710   16.3980 P.3    18  U18         0.2131
    546  OP1        5.4570   -4.4440   16.9040 O.3    18  U18        -0.4373
    547  OP2        3.1270   -3.4410   16.5490 O.2    18  U18        -0.5172
    548  O5'        4.1360   -4.9650   14.8350 O.3    18  U18        -0.3248
    549  C5'        5.2910   -5.6120   14.2870 C.3    18  U18         0.0837
    550  C4'        5.1390   -5.8620   12.7870 C.3    18  U18         0.1139
    551  O4'        3.8650   -6.4700   12.5350 O.3    18  U18        -0.3456
    552  C3'        5.1220   -4.6080   11.9270 C.3    18  U18         0.1241
    553  O3'        6.4690   -4.3540   11.5130 O.3    18  U18        -0.3187
    554  C2'        4.3450   -5.0550   10.7000 C.3    18  U18         0.1293
    555  O2'        5.1790   -5.8090    9.8160 O.3    18  U18        -0.3846
    556  C1'        3.2790   -5.9510   11.3250 C.3    18  U18         0.1680
    557   N.1       2.0570   -5.1930   11.6740 N.ar   18  U18        -0.2715
    558   C.2       1.0980   -5.0270   10.6890 C.ar   18  U18         0.3314
    559   O.2       1.2200   -5.4910    9.5560 O.2    18  U18        -0.2464
    560   N.3      -0.0170   -4.2970   11.0510 N.ar   18  U18        -0.2749
    561   C4       -0.2520   -3.7290   12.2900 C.ar   18  U18         0.2539
    562   O4       -1.2820   -3.0950   12.4920 O.2    18  U18        -0.2677
    563   C5        0.7910   -3.9500   13.2610 C.ar   18  U18         0.0192
    564   C6        1.8920   -4.6620   12.9260 C.ar   18  U18         0.0171
    565  H5'        5.4380   -6.5660   14.7930 H      18  U18         0.0591
    566 H5''        6.1650   -4.9810   14.4550 H      18  U18         0.0591
    567  H4'        5.9270   -6.5400   12.4620 H      18  U18         0.0647
    568  H3'        4.6820   -3.7460   12.4280 H      18  U18         0.0655
    569  H2'        3.8950   -4.2050   10.1890 H      18  U18         0.0666
    570 HO2'        5.4500   -6.6020   10.2860 H      18  U18         0.2101
    571  H1'        3.0210   -6.7780   10.6620 H      18  U18         0.0867
    572   H3       -0.7240   -4.1600   10.3430 H      18  U18         0.1734
    573   H5        0.6930   -3.5410   14.2680 H      18  U18         0.0686
    574   H6        2.6660   -4.8240   13.6750 H      18  U18         0.0813
    575    P.3      6.9180   -2.8750   11.0600 P.3    19  G19         0.2131
    576  OP1        8.3350   -2.9320   10.6330 O.2    19  G19        -0.5172
    577  OP2        6.5030   -1.9210   12.1110 O.3    19  G19        -0.4373
    578  O5'        6.0090   -2.6130    9.7550 O.3    19  G19        -0.3248
    579  C5'        6.2410   -3.3480    8.5480 C.3    19  G19         0.0837
    580  C4'        5.1410   -3.1080    7.5190 C.3    19  G19         0.1139
    581  O4'        3.8880   -3.5500    8.0450 O.3    19  G19        -0.3456
    582  C3'        4.8850   -1.6540    7.1760 C.3    19  G19         0.1241
    583  O3'        5.7430   -1.3220    6.0800 O.3    19  G19        -0.3187
    584  C2'        3.4580   -1.6750    6.6460 C.3    19  G19         0.1292
    585  O2'        3.4380   -2.0310    5.2610 O.3    19  G19        -0.3846
    586  C1'        2.8090   -2.7770    7.4880 C.3    19  G19         0.1667
    587   N9        1.9860   -2.2370    8.5910 N.ar   19  G19        -0.2854
    588   C8        2.3400   -2.0040    9.8970 C.ar   19  G19         0.1005
    589   N7        1.3590   -1.5720   10.6380 N.ar   19  G19        -0.2286
    590   C5        0.2780   -1.5090    9.7660 C.ar   19  G19         0.1721
    591   C6       -1.0650   -1.1090   10.0060 C.ar   19  G19         0.2803
    592   O6       -1.5660   -0.7210   11.0570 O.2    19  G19        -0.2654
    593   N.1      -1.8380   -1.1960    8.8580 N.ar   19  G19        -0.2934
    594   C.2      -1.3770   -1.6050    7.6290 C.ar   19  G19         0.1950
    595   N.2      -2.2560   -1.5980    6.6240 N.pl3  19  G19        -0.3289
    596   N.3      -0.1190   -1.9840    7.3910 N.ar   19  G19        -0.1963
    597   C4        0.6500   -1.9110    8.5050 C.ar   19  G19         0.1712
    598  H5'        6.2810   -4.4120    8.7810 H      19  G19         0.0591
    599 H5''        7.1960   -3.0410    8.1240 H      19  G19         0.0591
    600  H4'        5.3680   -3.6790    6.6200 H      19  G19         0.0647
    601  H3'        5.0230   -0.9800    8.0220 H      19  G19         0.0655
    602  H2'        2.9660   -0.7180    6.8110 H      19  G19         0.0666
    603 HO2'        2.5470   -1.8750    4.9390 H      19  G19         0.2101
    604  H1'        2.1900   -3.4240    6.8660 H      19  G19         0.0866
    605   H8        3.3500   -2.1620   10.2770 H      19  G19         0.1030
    606   H1       -2.8260   -1.0010    8.9450 H      19  G19         0.1716
    607  H21       -3.1900   -1.2400    6.7730 H      19  G19         0.1451
    608  H22       -1.9870   -1.9500    5.7160 H      19  G19         0.1451
    609    P.3      6.4840    0.1050    6.0210 P.3    20  A20         0.2131
    610  OP1        7.3200    0.1410    4.7990 O.2    20  A20        -0.5172
    611  OP2        7.1000    0.3630    7.3410 O.3    20  A20        -0.4373
    612  O5'        5.2560    1.1330    5.8260 O.3    20  A20        -0.3248
    613  C5'        4.7270    1.3980    4.5200 C.3    20  A20         0.0837
    614  C4'        3.2060    1.5470    4.5430 C.3    20  A20         0.1139
    615  O4'        2.6610    0.7300    5.5790 O.3    20  A20        -0.3456
    616  C3'        2.7010    2.9350    4.8820 C.3    20  A20         0.1241
    617  O3'        2.5680    3.6480    3.6460 O.3    20  A20        -0.3187
    618  C2'        1.2960    2.6700    5.4130 C.3    20  A20         0.1292
    619  O2'        0.3560    2.5850    4.3380 O.3    20  A20        -0.3846
    620  C1'        1.4500    1.3070    6.0940 C.3    20  A20         0.1667
    621   N9        1.5620    1.4240    7.5620 N.ar   20  A20        -0.2855
    622   C8        2.6720    1.2760    8.3570 C.ar   20  A20         0.1004
    623   N7        2.4320    1.4540    9.6270 N.ar   20  A20        -0.2306
    624   C5        1.0740    1.7430    9.6720 C.ar   20  A20         0.1473
    625   C6        0.1970    2.0330   10.7300 C.ar   20  A20         0.1472
    626   N6        0.5740    2.0850   12.0060 N.pl3  20  A20        -0.3413
    627   N.1      -1.0900    2.2700   10.4270 N.ar   20  A20        -0.2188
    628   C.2      -1.4740    2.2200    9.1580 C.ar   20  A20         0.1205
    629   N.3      -0.7520    1.9580    8.0790 N.ar   20  A20        -0.2159
    630   C4        0.5330    1.7250    8.4190 C.ar   20  A20         0.1674
    631  H5'        4.9900    0.5760    3.8550 H      20  A20         0.0591
    632 H5''        5.1670    2.3190    4.1390 H      20  A20         0.0591
    633  H4'        2.8050    1.2170    3.5840 H      20  A20         0.0647
    634  H3'        3.3380    3.4660    5.5890 H      20  A20         0.0655
    635  H2'        1.0020    3.4340    6.1330 H      20  A20         0.0666
    636 HO2'       -0.4630    2.2450    4.7030 H      20  A20         0.2101
    637  H1'        0.6110    0.6550    5.8500 H      20  A20         0.0866
    638   H8        3.6590    1.0320    7.9660 H      20  A20         0.1030
    639  H61       -0.1040    2.2910   12.7260 H      20  A20         0.1438
    640  H62        1.5390    1.9200   12.2550 H      20  A20         0.1438
    641   H2       -2.5270    2.4320    8.9760 H      20  A20         0.1048
    642    P.3      2.1760    5.2120    3.6270 P.3    21  A21         0.2131
    643  OP1        2.8400    5.8400    2.4620 O.2    21  A21        -0.5172
    644  OP2        2.3880    5.7660    4.9810 O.3    21  A21        -0.4373
    645  O5'        0.5910    5.1750    3.3450 O.3    21  A21        -0.3248
    646  C5'        0.0800    4.5770    2.1500 C.3    21  A21         0.0837
    647  C4'       -1.4380    4.7000    2.0650 C.3    21  A21         0.1139
    648  O4'       -2.0460    3.6850    2.8750 O.3    21  A21        -0.3456
    649  C3'       -2.0130    5.9890    2.6210 C.3    21  A21         0.1241
    650  O3'       -2.0500    6.9470    1.5610 O.3    21  A21        -0.3187
    651  C2'       -3.4440    5.5890    2.9360 C.3    21  A21         0.1292
    652  O2'       -4.2310    5.5380    1.7420 O.3    21  A21        -0.3846
    653  C1'       -3.2420    4.1880    3.5040 C.3    21  A21         0.1667
    654   N9       -3.0420    4.2090    4.9660 N.ar   21  A21        -0.2855
    655   C8       -1.8680    4.1420    5.6710 C.ar   21  A21         0.1004
    656   N7       -2.0290    4.1970    6.9610 N.ar   21  A21        -0.2306
    657   C5       -3.4050    4.3100    7.1210 C.ar   21  A21         0.1473
    658   C6       -4.2220    4.4090    8.2570 C.ar   21  A21         0.1472
    659   N6       -3.7530    4.4070    9.5040 N.pl3  21  A21        -0.3413
    660   N.1      -5.5480    4.5060    8.0650 N.ar   21  A21        -0.2188
    661   C.2      -6.0220    4.5030    6.8250 C.ar   21  A21         0.1205
    662   N.3      -5.3620    4.4130    5.6810 N.ar   21  A21        -0.2159
    663   C4       -4.0340    4.3180    5.9110 C.ar   21  A21         0.1674
    664  H5'        0.3520    3.5210    2.1370 H      21  A21         0.0591
    665 H5''        0.5260    5.0700    1.2860 H      21  A21         0.0591
    666  H4'       -1.7460    4.5590    1.0290 H      21  A21         0.0647
    667  H3'       -1.4690    6.3650    3.4890 H      21  A21         0.0655
    668  H2'       -3.8870    6.2560    3.6750 H      21  A21         0.0666
    669 HO2'       -5.1380    5.3680    2.0050 H      21  A21         0.2101
    670  H1'       -4.0830    3.5390    3.2620 H      21  A21         0.0866
    671   H8       -0.8910    4.0530    5.1960 H      21  A21         0.1030
    672  H61       -4.3940    4.4020   10.2840 H      21  A21         0.1438
    673  H62       -2.7570    4.4070    9.6680 H      21  A21         0.1438
    674   H2       -7.1060    4.5830    6.7370 H      21  A21         0.1048
    675    P.3     -2.2240    8.5150    1.8860 P.3    22  G22         0.2131
    676  OP1       -2.0820    9.2690    0.6210 O.2    22  G22        -0.5172
    677  OP2       -1.3630    8.8480    3.0440 O.3    22  G22        -0.4373
    678  O5'       -3.7610    8.6050    2.3590 O.3    22  G22        -0.3248
    679  C5'       -4.8180    8.3330    1.4340 C.3    22  G22         0.0837
    680  C4'       -6.1190    7.9720    2.1440 C.3    22  G22         0.1139
    681  O4'       -5.8460    7.1320    3.2660 O.3    22  G22        -0.3456
    682  C3'       -6.8610    9.1320    2.7670 C.3    22  G22         0.1241
    683  O3'       -7.6870    9.7080    1.7520 O.3    22  G22        -0.3187
    684  C2'       -7.7740    8.4290    3.7650 C.3    22  G22         0.1292
    685  O2'       -8.9400    7.9200    3.1120 O.3    22  G22        -0.3846
    686  C1'       -6.8880    7.2730    4.2500 C.3    22  G22         0.1667
    687   N9       -6.2850    7.5570    5.5680 N.ar   22  G22        -0.2854
    688   C8       -4.9610    7.7120    5.9000 C.ar   22  G22         0.1005
    689   N7       -4.7670    7.9830    7.1590 N.ar   22  G22        -0.2286
    690   C5       -6.0460    8.0110    7.7020 C.ar   22  G22         0.1721
    691   C6       -6.4660    8.2590    9.0380 C.ar   22  G22         0.2803
    692   O6       -5.7750    8.5230   10.0190 O.2    22  G22        -0.2654
    693   N.1      -7.8440    8.1910    9.1610 N.ar   22  G22        -0.2934
    694   C.2      -8.7160    7.9200    8.1300 C.ar   22  G22         0.1950
    695   N.2     -10.0150    7.8830    8.4280 N.pl3  22  G22        -0.3289
    696   N.3      -8.3320    7.6880    6.8730 N.ar   22  G22        -0.1963
    697   C4       -6.9850    7.7490    6.7340 C.ar   22  G22         0.1712
    698  H5'       -4.5220    7.5020    0.7920 H      22  G22         0.0591
    699 H5''       -4.9840    9.2150    0.8150 H      22  G22         0.0591
    700  H4'       -6.7620    7.4340    1.4480 H      22  G22         0.0647
    701  H3'       -6.2030    9.8700    3.2270 H      22  G22         0.0655
    702  H2'       -8.0390    9.0930    4.5870 H      22  G22         0.0666
    703 HO2'       -8.6470    7.2710    2.4690 H      22  G22         0.2101
    704  H1'       -7.4570    6.3460    4.3070 H      22  G22         0.0866
    705   H8       -4.1470    7.6190    5.1800 H      22  G22         0.1030
    706   H1       -8.2320    8.3550   10.0780 H      22  G22         0.1716
    707  H21      -10.3190    8.0480    9.3760 H      22  G22         0.1451
    708  H22      -10.6930    7.6880    7.7060 H      22  G22         0.1451
    709    P.3     -8.1740   11.2410    1.8610 P.3    23  U23         0.2131
    710  OP1       -8.5600   11.7020    0.5090 O.2    23  U23        -0.5172
    711  OP2       -7.1650   11.9950    2.6380 O.3    23  U23        -0.4373
    712  O5'       -9.5090   11.1210    2.7530 O.3    23  U23        -0.3248
    713  C5'      -10.5270   10.1750    2.4140 C.3    23  U23         0.0837
    714  C4'      -11.4320    9.8710    3.6040 C.3    23  U23         0.1139
    715  O4'      -10.6360    9.4310    4.7090 O.3    23  U23        -0.3456
    716  C3'      -12.1830   11.0650    4.1540 C.3    23  U23         0.1241
    717  O3'      -13.4300   11.1390    3.4560 O.3    23  U23        -0.3187
    718  C2'      -12.4810   10.6410    5.5840 C.3    23  U23         0.1293
    719  O2'      -13.6160    9.7730    5.6310 O.3    23  U23        -0.3846
    720  C1'      -11.2080    9.8780    5.9540 C.3    23  U23         0.1680
    721   N.1     -10.2280   10.7360    6.6600 N.ar   23  U23        -0.2715
    722   C.2     -10.4280   10.9520    8.0140 C.ar   23  U23         0.3314
    723   O.2     -11.3700   10.4580    8.6310 O.2    23  U23        -0.2464
    724   N.3      -9.5060   11.7670    8.6400 N.ar   23  U23        -0.2749
    725   C4       -8.4190   12.3760    8.0420 C.ar   23  U23         0.2539
    726   O4       -7.6680   13.0840    8.7090 O.2    23  U23        -0.2677
    727   C5       -8.2790   12.1050    6.6290 C.ar   23  U23         0.0192
    728   C6       -9.1690   11.3060    5.9960 C.ar   23  U23         0.0171
    729  H5'      -10.0580    9.2490    2.0780 H      23  U23         0.0591
    730 H5''      -11.1320   10.5800    1.6020 H      23  U23         0.0591
    731  H4'      -12.1240    9.0750    3.3260 H      23  U23         0.0647
    732  H3'      -11.6220   11.9970    4.0880 H      23  U23         0.0655
    733  H2'      -12.6200   11.5080    6.2290 H      23  U23         0.0666
    734 HO2'      -13.8850    9.6040    4.7260 H      23  U23         0.2101
    735  H1'      -11.4390    9.0110    6.5740 H      23  U23         0.0867
    736   H3       -9.6370   11.9330    9.6260 H      23  U23         0.1734
    737   H5       -7.4600   12.5540    6.0670 H      23  U23         0.0686
    738   H6       -9.0350   11.1060    4.9340 H      23  U23         0.0813
    739    P.3    -14.0920   12.5670    3.1170 P.3    24  C24         0.2131
    740  OP1      -15.2960   12.3340    2.2870 O.2    24  C24        -0.5172
    741  OP2      -13.0260   13.4720    2.6320 O.3    24  C24        -0.4373
    742  O5'      -14.5690   13.0800    4.5660 O.3    24  C24        -0.3248
    743  C5'      -15.4860   12.3080    5.3440 C.3    24  C24         0.0837
    744  C4'      -15.6820   12.8970    6.7370 C.3    24  C24         0.1139
    745  O4'      -14.5980   12.4960    7.5840 O.3    24  C24        -0.3456
    746  C3'      -15.6380   14.4110    6.8080 C.3    24  C24         0.1241
    747  O3'      -16.9640   14.8940    6.5750 O.3    24  C24        -0.3187
    748  C2'      -15.3050   14.6510    8.2700 C.3    24  C24         0.1293
    749  O2'      -16.4610   14.4640    9.0910 O.3    24  C24        -0.3846
    750  C1'      -14.2790   13.5450    8.5220 C.3    24  C24         0.1680
    751   N.1     -12.8930   14.0090    8.2800 N.ar   24  C24        -0.2700
    752   C.2     -12.1500   14.4240    9.3790 C.ar   24  C24         0.3522
    753   O.2     -12.6330   14.3780   10.5100 O.2    24  C24        -0.2444
    754   N.3     -10.8830   14.8810    9.1750 N.ar   24  C24        -0.1783
    755   C4      -10.3620   14.9300    7.9420 C.ar   24  C24         0.1230
    756   N.4      -9.1210   15.3950    7.8090 N.pl3  24  C24        -0.3430
    757   C5      -11.1190   14.5010    6.8070 C.ar   24  C24        -0.0056
    758   C6      -12.3690   14.0510    7.0190 C.ar   24  C24         0.0152
    759  H5'      -15.1040   11.2910    5.4390 H      24  C24         0.0591
    760 H5''      -16.4490   12.2790    4.8330 H      24  C24         0.0591
    761  H4'      -16.6160   12.5200    7.1520 H      24  C24         0.0647
    762  H3'      -14.9160   14.8550    6.1220 H      24  C24         0.0655
    763  H2'      -14.8690   15.6360    8.4190 H      24  C24         0.0666
    764 HO2'      -16.3800   15.0620    9.8380 H      24  C24         0.2101
    765  H1'      -14.3620   13.1590    9.5390 H      24  C24         0.0867
    766  H41       -8.6300   15.7650    8.6120 H      24  C24         0.1437
    767  H42       -8.6700   15.3790    6.9050 H      24  C24         0.1437
    768   H5      -10.7040   14.5340    5.8000 H      24  C24         0.0666
    769   H6      -12.9720   13.7180    6.1740 H      24  C24         0.0812
    770    P.3    -17.1930   16.2860    5.8000 P.3    25  G25         0.2131
    771  OP1      -18.6380   16.4200    5.5050 O.3    25  G25        -0.4373
    772  OP2      -16.2040   16.3750    4.7010 O.2    25  G25        -0.5172
    773  O5'      -16.8020   17.3760    6.9200 O.3    25  G25        -0.3248
    774  C5'      -17.7080   17.6710    7.9850 C.3    25  G25         0.0837
    775  C4'      -17.0020   18.3140    9.1760 C.3    25  G25         0.1139
    776  O4'      -15.8030   17.6010    9.4750 O.3    25  G25        -0.3456
    777  C3'      -16.5140   19.7290    8.9540 C.3    25  G25         0.1241
    778  O3'      -17.5980   20.6090    9.2720 O.3    25  G25        -0.3187
    779  C2'      -15.4620   19.8870   10.0440 C.3    25  G25         0.1292
    780  O2'      -16.0740   20.2370   11.2900 O.3    25  G25        -0.3846
    781  C1'      -14.8590   18.4780   10.1210 C.3    25  G25         0.1667
    782   N9      -13.5510   18.3950    9.4360 N.ar   25  G25        -0.2854
    783   C8      -13.2200   17.7750    8.2540 C.ar   25  G25         0.1005
    784   N7      -11.9670   17.9070    7.9280 N.ar   25  G25        -0.2286
    785   C5      -11.4240   18.6570    8.9580 C.ar   25  G25         0.1721
    786   C6      -10.0920   19.1090    9.1450 C.ar   25  G25         0.2803
    787   O6       -9.1180   18.9250    8.4200 O.2    25  G25        -0.2654
    788   N.1      -9.9580   19.8360   10.3140 N.ar   25  G25        -0.2934
    789   C.2     -10.9750   20.0990   11.2000 C.ar   25  G25         0.1950
    790   N.2     -10.6610   20.8160   12.2790 N.pl3  25  G25        -0.3289
    791   N.3     -12.2330   19.6790   11.0360 N.ar   25  G25        -0.1963
    792   C4      -12.3830   18.9640    9.8910 C.ar   25  G25         0.1712
    793  H5'      -18.1830   16.7470    8.3140 H      25  G25         0.0591
    794 H5''      -18.4760   18.3530    7.6190 H      25  G25         0.0591
    795  H4'      -17.6640   18.2710   10.0400 H      25  G25         0.0647
    796  H3'      -16.1270   19.9040    7.9490 H      25  G25         0.0655
    797  H2'      -14.7090   20.6200    9.7570 H      25  G25         0.0666
    798 HO2'      -15.5880   20.9850   11.6470 H      25  G25         0.2101
    799  H1'      -14.7370   18.1670   11.1580 H      25  G25         0.0866
    800   H8      -13.9070   17.1660    7.6670 H      25  G25         0.1030
    801   H1       -9.0410   20.1970   10.5260 H      25  G25         0.1716
    802  H21       -9.7320   21.2050   12.3730 H      25  G25         0.1451
    803  H22      -11.3510   20.9740   13.0000 H      25  G25         0.1451
    804    P.3    -17.8120   21.9830    8.4550 P.3    26  C26         0.2131
    805  OP1      -19.1510   22.5170    8.7910 O.3    26  C26        -0.4373
    806  OP2      -17.4480   21.7420    7.0410 O.2    26  C26        -0.5172
    807  O5'      -16.7010   22.9540    9.1030 O.3    26  C26        -0.3248
    808  C5'      -16.8830   23.5030   10.4130 C.3    26  C26         0.0837
    809  C4'      -15.6160   24.1900   10.9130 C.3    26  C26         0.1139
    810  O4'      -14.5780   23.2130   11.0530 O.3    26  C26        -0.3456
    811  C3'      -15.0380   25.2290    9.9630 C.3    26  C26         0.1241
    812  O3'      -15.5360   26.5030   10.3840 O.3    26  C26        -0.3187
    813  C2'      -13.5470   25.2020   10.2710 C.3    26  C26         0.1293
    814  O2'      -13.2470   26.0270   11.3990 O.3    26  C26        -0.3846
    815  C1'      -13.3140   23.7280   10.6080 C.3    26  C26         0.1680
    816   N.1     -12.8640   22.9410    9.4370 N.ar   26  C26        -0.2700
    817   C.2     -11.5330   22.5570    9.3940 C.ar   26  C26         0.3522
    818   O.2     -10.7610   22.8890   10.2910 O.2    26  C26        -0.2444
    819   N.3     -11.1030   21.8170    8.3370 N.ar   26  C26        -0.1783
    820   C4      -11.9440   21.4660    7.3570 C.ar   26  C26         0.1230
    821   N.4     -11.4510   20.7480    6.3480 N.pl3  26  C26        -0.3430
    822   C5      -13.3210   21.8590    7.3920 C.ar   26  C26        -0.0056
    823   C6      -13.7340   22.5950    8.4430 C.ar   26  C26         0.0152
    824  H5'      -17.1470   22.7010   11.1020 H      26  C26         0.0591
    825 H5''      -17.6950   24.2310   10.3840 H      26  C26         0.0591
    826  H4'      -15.8160   24.6340   11.8870 H      26  C26         0.0647
    827  H3'      -15.2660   25.0320    8.9170 H      26  C26         0.0655
    828  H2'      -12.9640   25.4980    9.4010 H      26  C26         0.0666
    829 HO2'      -13.8760   25.8050   12.0910 H      26  C26         0.2101
    830  H1'      -12.5830   23.6280   11.4110 H      26  C26         0.0867
    831  H41      -10.4570   20.5510    6.3060 H      26  C26         0.1437
    832  H42      -12.0650   20.4020    5.6240 H      26  C26         0.1437
    833   H5      -14.0180   21.5700    6.6060 H      26  C26         0.0666
    834   H6      -14.7590   22.9570    8.4920 H      26  C26         0.0812
    835    P.3    -16.0600   27.5770    9.3040 P.3    27  C27         0.2131
    836  OP1      -16.9840   28.5090    9.9890 O.3    27  C27        -0.4373
    837  OP2      -16.5110   26.8440    8.0980 O.2    27  C27        -0.5172
    838  O5'      -14.7160   28.3820    8.9300 O.3    27  C27        -0.3248
    839  C5'      -14.0610   29.1990    9.9050 C.3    27  C27         0.0836
    840  C4'      -12.6180   29.4980    9.5090 C.3    27  C27         0.1133
    841  O4'      -11.8620   28.2870    9.5450 O.3    27  C27        -0.3456
    842  C3'      -12.4380   30.0080    8.0850 C.3    27  C27         0.1135
    843  O3'      -12.6150   31.4250    8.0340 O.3    27  C27        -0.3864
    844  C2'      -10.9870   29.6360    7.8060 C.3    27  C27         0.1286
    845  O2'      -10.1020   30.6110    8.3650 O.3    27  C27        -0.3847
    846  C1'      -10.8400   28.3010    8.5370 C.3    27  C27         0.1680
    847   N.1     -11.0340   27.1390    7.6400 N.ar   27  C27        -0.2700
    848   C.2      -9.8990   26.5080    7.1460 C.ar   27  C27         0.3522
    849   O.2      -8.7790   26.9170    7.4500 O.2    27  C27        -0.2444
    850   N.3     -10.0530   25.4350    6.3240 N.ar   27  C27        -0.1783
    851   C4      -11.2760   24.9940    5.9950 C.ar   27  C27         0.1230
    852   N.4     -11.3620   23.9390    5.1850 N.pl3  27  C27        -0.3430
    853   C5      -12.4490   25.6380    6.4980 C.ar   27  C27        -0.0056
    854   C6      -12.2850   26.6980    7.3120 C.ar   27  C27         0.0152
    855  H5'      -14.0650   28.6820   10.8650 H      27  C27         0.0591
    856 H5''      -14.6040   30.1400   10.0050 H      27  C27         0.0591
    857  H4'      -12.1940   30.2020   10.2240 H      27  C27         0.0647
    858  H3'      -13.1140   29.4980    7.3970 H      27  C27         0.0647
    859 HO3'      -13.4120   31.5950    7.5260 H      27  C27         0.2100
    860  H2'      -10.8140   29.5170    6.7370 H      27  C27         0.0665
    861 HO2'       -9.2110   30.2630    8.2930 H      27  C27         0.2101
    862  H1'       -9.8630   28.2260    9.0180 H      27  C27         0.0867
    863  H41      -10.5240   23.5460    4.7770 H      27  C27         0.1437
    864  H42      -12.2620   23.5340    4.9790 H      27  C27         0.1437
    865   H5      -13.4480   25.2890    6.2370 H      27  C27         0.0666
    866   H6      -13.1600   27.2110    7.7120 H      27  C27         0.0812
@<TRIPOS>BOND
     1    21     2    1
     2   710   709    2
     3   676   675    2
     4    32     1    1
     5   698   679    1
     6   699   679    1
     7     2    22    1
     8     2     1    1
     9     2     3    1
    10   666   647    1
    11   665   646    1
    12    28    11    1
    13     4     3    1
    14     4     9    1
    15   679   680    1
    16   679   678    1
    17   700   680    1
    18    23     3    1
    19   650   675    1
    20   650   649    1
    21   730   713    1
    22     3     5    1
    23   652   669    1
    24   652   651    1
    25   683   709    1
    26   683   682    1
    27   709   711    1
    28   709   712    1
    29   675   678    1
    30   675   677    1
    31   647   646    1
    32   647   649    1
    33   647   648    1
    34   729   713    1
    35   311   294    1
    36    11    12   ar
    37    11    10   ar
    38   664   646    1
    39   680   682    1
    40   680   681    1
    41   646   645    1
    42   291   290    2
    43   740   739    2
    44   713   712    1
    45   713   714    1
    46    27     9    1
    47   322   321    2
    48   643   642    2
    49   703   685    1
    50    12    13   ar
    51     9    10    1
    52     9     7    1
    53   649   651    1
    54   649   667    1
    55   741   739    1
    56   310   294    1
    57   312   295    1
    58    10    20   ar
    59   682   701    1
    60   682   684    1
    61   648   653    1
    62   651   653    1
    63   651   668    1
    64   294   295    1
    65   294   293    1
    66   284   267    1
    67   685   684    1
    68   739   717    1
    69   739   742    1
    70     5    24    1
    71     5     7    1
    72     5     6    1
    73   670   653    1
    74   681   686    1
    75   731   714    1
    76   645   642    1
    77   298   321    1
    78   298   297    1
    79   281   262    1
    80    13    20   ar
    81    13    14   ar
    82   717   716    1
    83   653   654    1
    84   265   290    1
    85   265   264    1
    86   295   297    1
    87   295   296    1
    88   321   323    1
    89   321   324    1
    90   290   293    1
    91   290   292    1
    92   633   614    1
    93    20    19   ar
    94   714   716    1
    95   714   715    1
    96   642   617    1
    97   642   644    1
    98   267   266    1
    99   617   616    1
   100     7     8    1
   101     7    25    1
   102   684   686    1
   103   684   702    1
   104     6    33    1
   105   631   613    1
   106     8    26    1
   107   341   325    1
   108   732   716    1
   109   632   613    1
   110   716   718    1
   111    15    14    2
   112    14    16   ar
   113   686   704    1
   114   686   687    1
   115   297   313    1
   116   297   299    1
   117   619   636    1
   118   619   618    1
   119   279   261    1
   120   342   325    1
   121   280   261    1
   122    19    17   ar
   123   262   264    1
   124   262   261    1
   125   262   263    1
   126   296   301    1
   127   613   614    1
   128   613   612    1
   129   614   616    1
   130   614   615    1
   131   742   743    1
   132   300   299    1
   133   300   315    1
   134   772   770    2
   135   715   720    1
   136   734   719    1
   137   264   266    1
   138   264   282    1
   139   325   324    1
   140   325   326    1
   141   863   852    1
   142   251   236    1
   143   610   609    2
   144   261   260    1
   145   760   743    1
   146    35    33    2
   147   616   618    1
   148   616   634    1
   149   266   268    1
   150   266   283    1
   151   738   728    1
   152   603   585    1
   153   654   655   ar
   154   654   663   ar
   155   864   852    1
   156    16    17   ar
   157    16    29    1
   158    33    34    1
   159    33    36    1
   160   285   268    1
   161    17    18    1
   162   236   235    1
   163   705   688    1
   164   852   851    1
   165   671   655    1
   166   585   584    1
   167   299   301    1
   168   299   314    1
   169   263   268    1
   170   743   759    1
   171   743   744    1
   172   618   620    1
   173   618   635    1
   174   771   770    1
   175   268   269    1
   176   687   688   ar
   177   687   697   ar
   178   615   620    1
   179   718   719    1
   180   718   720    1
   181   718   733    1
   182   832   821    1
   183   301   316    1
   184   301   302    1
   185   655   656   ar
   186   662   663   ar
   187   662   661   ar
   188   608   595    1
   189   770   747    1
   190   770   773    1
   191   768   757    1
   192    56    37    1
   193   320   309    1
   194   612   609    1
   195    63    46    1
   196   637   620    1
   197   688   689   ar
   198   663   657   ar
   199   343   326    1
   200   720   735    1
   201   720   721    1
   202    18    31    1
   203    18    30    1
   204   851   850   ar
   205   851   853   ar
   206   728   727   ar
   207   728   721   ar
   208   609   583    1
   209   609   611    1
   210   258   257    2
   211   737   727    1
   212   583   582    1
   213    47    46   ar
   214    47    48   ar
   215   620   621    1
   216   326   327    1
   217   326   328    1
   218   762   746    1
   219   769   758    1
   220   260   257    1
   221   248   231    1
   222   865   853    1
   223    36    37    1
   224    46    45   ar
   225   252   237    1
   226   831   821    1
   227   850   848   ar
   228   821   820    1
   229   234   257    1
   230   234   233    1
   231   853   854   ar
   232    50    49    2
   233   747   746    1
   234   235   250    1
   235   235   237    1
   236   235   233    1
   237   833   822    1
   238   600   580    1
   239   595   607    1
   240   595   594    1
   241   727   725   ar
   242   584   602    1
   243   584   582    1
   244   584   586    1
   245    39    38    1
   246    39    44    1
   247   721   722   ar
   248    37    57    1
   249    37    38    1
   250   327   332    1
   251   309   302   ar
   252   309   308   ar
   253   697   696   ar
   254   697   690   ar
   255   744   746    1
   256   744   761    1
   257   744   745    1
   258   860   844    1
   259   674   661    1
   260   757   758   ar
   261   757   755   ar
   262   746   748    1
   263   257   259    1
   264    48    49   ar
   265    48    55   ar
   266   661   660   ar
   267   354   352    2
   268   302   303   ar
   269   604   586    1
   270   696   694   ar
   271   767   756    1
   272   773   774    1
   273   656   657   ar
   274   329   328    1
   275   329   352    1
   276   277   278   ar
   277   277   276   ar
   278    49    51   ar
   279   269   278   ar
   280   269   270   ar
   281   758   751   ar
   282   806   804    2
   283   240   239    2
   284    45    55   ar
   285    45    44    1
   286   237   232    1
   287   237   238    1
   288   344   328    1
   289   657   658   ar
   290   351   340    1
   291   328   330    1
   292   848   849    2
   293   848   847   ar
   294   689   690   ar
   295   582   580    1
   296   582   601    1
   297   231   233    1
   298   231   232    1
   299   231   230    1
   300   233   249    1
   301   854   847   ar
   302   854   866    1
   303   820   822   ar
   304   820   819   ar
   305    62    44    1
   306   596   594   ar
   307   596   597   ar
   308   822   823   ar
   309   858   842    1
   310    55    54   ar
   311    38    58    1
   312    38    40    1
   313   289   276    1
   314   586   581    1
   315   586   587    1
   316    44    42    1
   317   580   581    1
   318   580   579    1
   319   859   843    1
   320   352   353    1
   321   352   355    1
   322   621   622   ar
   323   621   630   ar
   324   745   750    1
   325   278   272   ar
   326   794   774    1
   327   594   593   ar
   328   847   846    1
   329   800   783    1
   330   690   691   ar
   331   708   695    1
   332   319   308    1
   333   308   306   ar
   334   844   842    1
   335   844   845    1
   336   844   846    1
   337   756   755    1
   338   756   766    1
   339    51    64    1
   340    51    52   ar
   341   276   275   ar
   342   247   230    1
   343   286   270    1
   344   784   783   ar
   345   784   785   ar
   346   755   754   ar
   347   796   777    1
   348   638   622    1
   349   774   793    1
   350   774   775    1
   351   722   723    2
   352   722   724   ar
   353   843   842    1
   354   270   271   ar
   355   725   724   ar
   356   725   726    2
   357   303   304    2
   358   303   305   ar
   359   660   658   ar
   360   629   630   ar
   361   629   628   ar
   362   842   840    1
   363   837   835    2
   364   340   339   ar
   365   340   333   ar
   366   380   370    1
   367   599   579    1
   368   694   695    1
   369   694   693   ar
   370   239   238   ar
   371   239   241   ar
   372   332   330    1
   373   332   347    1
   374   332   333    1
   375   350   339    1
   376    54    52   ar
   377   783   782   ar
   378   658   659    1
   379   230   246    1
   380   230   229    1
   381   748   763    1
   382   748   750    1
   383   748   749    1
   384   238   245   ar
   385   751   750    1
   386   751   752   ar
   387   861   845    1
   388   819   817   ar
   389   622   623   ar
   390    52    53    1
   391   630   624   ar
   392   787   786    2
   393   695   707    1
   394   823   834    1
   395   823   816   ar
   396   330   331    1
   397   330   345    1
   398   804   805    1
   399   804   807    1
   400   804   778    1
   401   597   587   ar
   402   597   590   ar
   403   750   765    1
   404   846   862    1
   405   846   841    1
   406   579   598    1
   407   579   578    1
   408   587   588   ar
   409    95    84    1
   410   724   736    1
   411   339   337   ar
   412    59    40    1
   413   331   346    1
   414    40    42    1
   415    40    41    1
   416   333   334   ar
   417    94    84    1
   418   593   606    1
   419   593   591   ar
   420   827   811    1
   421   838   835    1
   422   838   839    1
   423    42    60    1
   424    42    43    1
   425   220   203    1
   426   272   271   ar
   427   272   273   ar
   428   777   775    1
   429   777   778    1
   430   777   779    1
   431   785   786   ar
   432   785   792   ar
   433   641   628    1
   434    84    83    1
   435   691   693   ar
   436   691   692    2
   437   369   368    2
   438   306   305   ar
   439   306   307    1
   440   355   356    1
   441   749   764    1
   442   807   808    1
   443   786   788   ar
   444   370   368   ar
   445   370   371   ar
   446   628   627   ar
   447   693   706    1
   448    53    65    1
   449    53    66    1
   450   754   752   ar
   451   775   776    1
   452   775   795    1
   453   275   273   ar
   454   241   242   ar
   455    61    43    1
   456   835   836    1
   457   835   812    1
   458   752   753    2
   459   203   202    1
   460   817   816   ar
   461   817   818    2
   462   828   813    1
   463   782   792   ar
   464   782   781    1
   465   816   815    1
   466   776   781    1
   467   245   256    1
   468   245   244   ar
   469   659   673    1
   470   659   672    1
   471   840   841    1
   472   840   839    1
   473   840   857    1
   474   439   429    1
   475   229   226    1
   476   381   371    1
   477   559   558    2
   478   623   624   ar
   479   543   531    1
   480   624   625   ar
   481   368   367   ar
   482   578   575    1
   483   797   779    1
   484   590   591   ar
   485   590   589   ar
   486   372   356    1
   487   273   274    1
   488    41    67    1
   489   555   570    1
   490   555   554    1
   491    83    85   ar
   492    83    82   ar
   493   792   791   ar
   494   588   605    1
   495   588   589   ar
   496   839   856    1
   497   839   855    1
   498    96    85    1
   499   115   114    2
   500   337   336   ar
   501   337   338    1
   502   371   364   ar
   503   811   813    1
   504   811   812    1
   505   811   809    1
   506   334   335    2
   507   334   336   ar
   508   591   592    2
   509   227   226    2
   510   779   781    1
   511   779   780    1
   512   356   373    1
   513   356   357    1
   514   781   799    1
   515   318   307    1
   516   307   317    1
   517   349   338    1
   518   569   554    1
   519    85    86   ar
   520   813   815    1
   521   813   814    1
   522    82    80   ar
   523   788   801    1
   524   788   789   ar
   525   572   560    1
   526   825   808    1
   527   242   244   ar
   528   242   243    1
   529   429   440    1
   530   429   428    1
   531   808   809    1
   532   808   824    1
   533   129   116    1
   534   225   212    1
   535   627   625   ar
   536   531   544    1
   537   531   530    1
   538   244   255    1
   539   338   348    1
   540   542   529    1
   541   815   810    1
   542   815   830    1
   543   226   201    1
   544   226   228    1
   545   576   575    2
   546   221   204    1
   547   571   556    1
   548   558   560   ar
   549   558   557   ar
   550   554   556    1
   551   554   552    1
   552    69    67    2
   553   625   626    1
   554   202   219    1
   555   202   204    1
   556   202   200    1
   557   201   200    1
   558   809   810    1
   559   809   826    1
   560   176   175    2
   561   114   116   ar
   562   114   113   ar
   563   217   198    1
   564   367   379    1
   565   367   365   ar
   566   791   789   ar
   567   560   561   ar
   568   575   553    1
   569   575   577    1
   570   375   359    1
   571    86    97    1
   572    86    79   ar
   573   274   288    1
   574   274   287    1
   575    67    70    1
   576    67    68    1
   577   213   212   ar
   578   213   214   ar
   579   159   147    1
   580    80    79   ar
   581    80    81    2
   582   116   117   ar
   583   789   790    1
   584   189   179    1
   585   364   365   ar
   586   364   363    1
   587   427   428   ar
   588   427   425   ar
   589   780   798    1
   590   253   243    1
   591   358   357    1
   592   358   363    1
   593   212   211   ar
   594   556   557    1
   595   556   551    1
   596   149   148    2
   597   204   199    1
   598   204   205    1
   599   814   829    1
   600   243   254    1
   601   357   359    1
   602   357   374    1
   603   428   430   ar
   604   177   175   ar
   605   177   178   ar
   606   553   552    1
   607   529   530   ar
   608   529   527   ar
   609    79    78    1
   610   130   118    1
   611   200   198    1
   612   200   218    1
   613   530   532   ar
   614   557   564   ar
   615   383   382    2
   616    87    71    1
   617   175   174   ar
   618   365   366    2
   619   198   199    1
   620   198   197    1
   621   359   360    1
   622   359   361    1
   623    70    71    1
   624   552   568    1
   625   552   550    1
   626   626   640    1
   627   626   639    1
   628   147   148   ar
   629   147   145   ar
   630   113   112   ar
   631   113   120   ar
   632   179   178    1
   633   179   190    1
   634    73    78    1
   635    73    72    1
   636   384   382    1
   637   363   361    1
   638   363   378    1
   639   187   172    1
   640   426   425    2
   641   112   111   ar
   642   148   150   ar
   643   117   118    1
   644   117   119   ar
   645   790   802    1
   646   790   803    1
   647   561   562    2
   648   561   563   ar
   649   214   205   ar
   650   214   208   ar
   651   118   131    1
   652   425   424   ar
   653    93    78    1
   654   528   527    2
   655   509   497    1
   656   178   180   ar
   657   508   495    1
   658   188   173    1
   659    78    76    1
   660   567   550    1
   661   211   209   ar
   662   205   206   ar
   663    71    72    1
   664    71    88    1
   665   551   550    1
   666   382   360    1
   667   382   385    1
   668   146   145    2
   669   527   526   ar
   670   550   549    1
   671   532   533   ar
   672   430   441    1
   673   430   431   ar
   674   361   376    1
   675   361   362    1
   676   145   144   ar
   677   564   563   ar
   678   564   574    1
   679   172   171    1
   680   174   173    1
   681   174   181   ar
   682   186   171    1
   683   215   197    1
   684   120   119   ar
   685   120   110   ar
   686   197   216    1
   687   197   196    1
   688    72    89    1
   689    72    74    1
   690   563   573    1
   691   173   171    1
   692   173   168    1
   693   494   493    2
   694   111   128    1
   695   111   110   ar
   696   497   510    1
   697   497   496    1
   698   495   493   ar
   699   495   496   ar
   700   150   160    1
   701   150   151   ar
   702   171   169    1
   703   208   209   ar
   704   208   207   ar
   705   209   210    1
   706   424   431   ar
   707   424   423    1
   708   180   181   ar
   709   180   191    1
   710    90    74    1
   711   526   533   ar
   712   526   525   ar
   713   206   222    1
   714   206   207   ar
   715   431   442    1
   716   533   523   ar
   717    76    74    1
   718    76    91    1
   719    76    77    1
   720   110   109    1
   721   181   192    1
   722   493   492   ar
   723   403   386    1
   724    74    75    1
   725   144   151   ar
   726   144   143    1
   727   385   386    1
   728   496   498   ar
   729   362   377    1
   730   196   193    1
   731   549   566    1
   732   549   565    1
   733   549   548    1
   734   151   161    1
   735   410   400    1
   736   438   423    1
   737   168   167    1
   738   158   143    1
   739   402   386    1
   740   386   387    1
   741   422   437    1
   742   422   421    1
   743   538   520    1
   744   223   210    1
   745   423   421    1
   746   423   418    1
   747   210   224    1
   748    77    92    1
   749   411   401    1
   750   548   545    1
   751   156   141    1
   752   127   109    1
   753   169   170    1
   754   169   185    1
   755   169   167    1
   756   143   141    1
   757   143   138    1
   758   474   461    1
   759   525   524   ar
   760   157   142    1
   761   523   522    1
   762   523   524   ar
   763   521   520    1
   764   521   539    1
   765   540   522    1
   766   109   104    1
   767   109   107    1
   768   184   167    1
   769   170   193    1
   770   421   436    1
   771   421   419    1
   772    75    98    1
   773   405   389    1
   774   400   401   ar
   775   400   398   ar
   776   492   499   ar
   777   492   491   ar
   778   406   391    1
   779   167   166    1
   780   498   499   ar
   781   520   522    1
   782   520   518    1
   783   476   463    1
   784   460   459    2
   785   141   142    1
   786   141   139    1
   787   104   103    1
   788   401   394   ar
   789   193   194    2
   790   193   195    1
   791   522   517    1
   792   418   417    1
   793   524   541    1
   794   125   107    1
   795   100    98    2
   796   122   102    1
   797   461   459   ar
   798   461   462   ar
   799   499   489   ar
   800   387   389    1
   801   387   404    1
   802   387   388    1
   803   138   137    1
   804   389   391    1
   805   389   390    1
   806   107   105    1
   807   107   108    1
   808   491   490   ar
   809   459   458   ar
   810   463   475    1
   811   463   462    1
   812   399   398    2
   813   391   393    1
   814   391   392    1
   815   545   547    2
   816   545   546    1
   817   545   519    1
   818   398   397   ar
   819    98   101    1
   820    98    99    1
   821   414   412    2
   822   124   105    1
   823   155   139    1
   824   101   102    1
   825   126   108    1
   826   388   393    1
   827   420   419    1
   828   420   443    1
   829   419   417    1
   830   419   435    1
   831   102   103    1
   832   102   121    1
   833   139   137    1
   834   139   140    1
   835   166   165    1
   836   166   182    1
   837   166   183    1
   838   518   537    1
   839   518   519    1
   840   518   516    1
   841   462   464   ar
   842   103   105    1
   843   103   123    1
   844   394   393    1
   845   394   395   ar
   846   415   412    1
   847   415   416    1
   848   165   162    1
   849   105   106    1
   850   517   516    1
   851   417   434    1
   852   417   416    1
   853   393   408    1
   854   392   407    1
   855   137   154    1
   856   137   136    1
   857   489   490   ar
   858   489   488    1
   859   390   412    1
   860   490   507    1
   861   412   413    1
   862   153   136    1
   863   445   443    2
   864   458   457   ar
   865   458   465   ar
   866   397   395   ar
   867   397   409    1
   868   516   536    1
   869   516   515    1
   870   140   162    1
   871   504   486    1
   872   416   432    1
   873   416   433    1
   874   395   396    2
   875   443   444    1
   876   443   446    1
   877   164   162    2
   878   464   465   ar
   879   136   135    1
   880   136   152    1
   881   506   488    1
   882   162   163    1
   883   135   132    1
   884   106   132    1
   885   457   456   ar
   886   488   486    1
   887   488   483    1
   888   134   132    2
   889   465   455   ar
   890   505   487    1
   891   486   487    1
   892   486   484    1
   893   446   447    1
   894   514   515    1
   895   514   511    1
   896   132   133    1
   897   515   535    1
   898   515   534    1
   899   503   484    1
   900   456   455   ar
   901   456   473    1
   902   483   482    1
   903   455   454    1
   904   466   447    1
   905   484   485    1
   906   484   482    1
   907   513   511    2
   908   447   467    1
   909   447   448    1
   910   469   450    1
   911   511   485    1
   912   511   512    1
   913   449   454    1
   914   449   448    1
   915   501   481    1
   916   482   481    1
   917   482   502    1
   918   454   452    1
   919   454   472    1
   920   448   450    1
   921   448   468    1
   922   450   452    1
   923   450   451    1
   924   470   452    1
   925   479   477    2
   926   481   480    1
   927   481   500    1
   928   452   453    1
   929   480   477    1
   930   451   477    1
   931   477   478    1
   932   453   471    1
