ligand
  PyMOL2.2          3D                             0

 10  9  0  0  0  0  0  0  0  0999 V2000
   32.7280   15.7690   20.1130 N   0  0  0  0  0  0  0  0  0  0  0  0
   32.1940   16.7040   21.1460 C   0  0  0  0  0  0  0  0  0  0  0  0
   33.2510   17.1090   22.1320 C   0  0  0  0  0  0  0  0  0  0  0  0
   34.4400   17.0870   21.8280 O   0  0  0  0  0  0  0  0  0  0  0  0
   30.9790   16.0840   21.8300 C   0  0  0  0  0  0  0  0  0  0  0  0
   29.6420   16.0830   20.6760 S   0  0  0  0  0  0  0  0  0  0  0  0
   28.5270   14.9650   21.4600 C   0  0  0  0  0  0  0  0  0  0  0  0
   27.2230   14.9350   20.6690 C   0  0  0  0  0  0  0  0  0  0  0  0
   27.4390   14.2890   19.3900 N   0  0  0  0  0  0  0  0  0  0  0  0
   32.9900   17.4990   23.2680 O   0  0  0  0  0  0  0  0  0  0  0  0
  1  2  1  0  0  0  0
  2  3  1  0  0  0  0
  2  5  1  0  0  0  0
  3  4  4  0  0  0  0
  3 10  4  0  0  0  0
  5  6  1  0  0  0  0
  6  7  1  0  0  0  0
  7  8  1  0  0  0  0
  8  9  1  0  0  0  0
M  END
$$$$
