ligand
 OpenBabel11021811473D
libRbt.so/2013.1/901 2013/11/27
 10  9  0  0  0  0  0  0  0  0999 V2000
   32.2413   16.3380   20.7490 N   0  0  0  0  0  0  0  0  0  0  0  0
   31.6155   17.2253   21.7725 C   0  0  2  0  0  0  0  0  0  0  0  0
   32.6223   17.7277   22.7662 C   0  0  0  0  0  0  0  0  0  0  0  0
   32.4931   18.8279   23.2950 O   0  0  0  0  0  0  0  0  0  0  0  0
   30.4547   16.5013   22.4483 C   0  0  0  0  0  0  0  0  0  0  0  0
   29.1398   16.3621   21.2773 S   0  0  0  0  0  0  0  0  0  0  0  0
   28.1109   15.1719   22.0727 C   0  0  0  0  0  0  0  0  0  0  0  0
   26.8880   14.9156   21.1976 C   0  0  0  0  0  0  0  0  0  0  0  0
   27.3049   14.3965   19.9106 N   0  0  0  0  0  0  0  0  0  0  0  0
   33.6001   17.0704   23.1164 O   0  0  0  0  0  0  0  0  0  0  0  0
  2  1  1  6  0  0  0
  2  3  1  0  0  0  0
  2  5  1  0  0  0  0
  3  4  1  0  0  0  0
  3 10  1  0  0  0  0
  5  6  1  0  0  0  0
  6  7  1  0  0  0  0
  7  8  1  0  0  0  0
  8  9  1  0  0  0  0
M  END
>  <CHROM.1>
148.85742518,-70.72584916,165.94037710,179.75359046,60.67596726,30.32863180
16.45960597,21.81732253,-0.52117006,-0.19641826,-2.20789209

>  <Name>
ligand

>  <RI>
0

>  <Rbt.Current_Directory>
/home/itssahil/PROJECTS/Mol_Feturizer/New_Systems/rnas/3DIG

>  <Rbt.Executable>
rbdock ($Id: //depot/dev/client3/rdock/2013.1/src/exe/rbdock.cxx#4 $)

>  <Rbt.Library>
libRbt.so (2013.1, Build901 2013/11/27)

>  <Rbt.Parameter_File>
/export/apps/rDock/src/rDock_2013.1_src/data/scripts/dock_solv.prm

>  <Rbt.Receptor>
prm/blind_docking_80.prm

>  <SCORE>
-9.92483

>  <SCORE.INTER>
-9.36907

>  <SCORE.INTER.CONST>
1

>  <SCORE.INTER.POLAR>
0

>  <SCORE.INTER.ROT>
5

>  <SCORE.INTER.SOLV>
15.7711

>  <SCORE.INTER.VDW>
-18.4364

>  <SCORE.INTER.norm>
-0.936907

>  <SCORE.INTRA>
-0.555761

>  <SCORE.INTRA.DIHEDRAL>
-0.453381

>  <SCORE.INTRA.DIHEDRAL.0>
2.60093

>  <SCORE.INTRA.POLAR>
0

>  <SCORE.INTRA.POLAR.0>
0

>  <SCORE.INTRA.REPUL>
0

>  <SCORE.INTRA.REPUL.0>
0

>  <SCORE.INTRA.SOLV>
0.148456

>  <SCORE.INTRA.SOLV.lig_0>
-33.7882

>  <SCORE.INTRA.VDW>
-0.403298

>  <SCORE.INTRA.VDW.0>
-0.593976

>  <SCORE.INTRA.norm>
-0.0555761

>  <SCORE.RESTR>
0

>  <SCORE.RESTR.CAVITY>
0

>  <SCORE.RESTR.norm>
0

>  <SCORE.SYSTEM>
0

>  <SCORE.SYSTEM.CONST>
0

>  <SCORE.SYSTEM.DIHEDRAL>
0

>  <SCORE.SYSTEM.SOLV>
0

>  <SCORE.SYSTEM.norm>
0

>  <SCORE.heavy>
10

>  <SCORE.norm>
-0.992483

>  <RMSD>
1.016

$$$$
ligand
 OpenBabel11021811473D
libRbt.so/2013.1/901 2013/11/27
 10  9  0  0  0  0  0  0  0  0999 V2000
   32.1327   16.5708   20.6074 N   0  0  0  0  0  0  0  0  0  0  0  0
   31.5687   17.3110   21.7739 C   0  0  2  0  0  0  0  0  0  0  0  0
   32.6348   17.6996   22.7566 C   0  0  0  0  0  0  0  0  0  0  0  0
   32.6240   18.8015   23.2974 O   0  0  0  0  0  0  0  0  0  0  0  0
   30.4607   16.4884   22.4251 C   0  0  0  0  0  0  0  0  0  0  0  0
   29.0992   16.4173   21.3024 S   0  0  0  0  0  0  0  0  0  0  0  0
   28.0867   15.2043   22.0841 C   0  0  0  0  0  0  0  0  0  0  0  0
   26.8820   14.9202   21.1924 C   0  0  0  0  0  0  0  0  0  0  0  0
   27.3272   14.3903   19.9193 N   0  0  0  0  0  0  0  0  0  0  0  0
   33.5469   16.9443   23.0857 O   0  0  0  0  0  0  0  0  0  0  0  0
  2  1  1  6  0  0  0
  2  3  1  0  0  0  0
  2  5  1  0  0  0  0
  3  4  1  0  0  0  0
  3 10  1  0  0  0  0
  5  6  1  0  0  0  0
  6  7  1  0  0  0  0
  7  8  1  0  0  0  0
  8  9  1  0  0  0  0
M  END
>  <CHROM.1>
139.10835947,-68.25005534,169.75872078,-175.76409959,61.58688260,30.31566159
16.48234384,21.80570246,-0.49012439,-0.25532906,-2.09803965

>  <Name>
ligand

>  <RI>
0

>  <Rbt.Current_Directory>
/home/itssahil/PROJECTS/Mol_Feturizer/New_Systems/rnas/3DIG

>  <Rbt.Executable>
rbdock ($Id: //depot/dev/client3/rdock/2013.1/src/exe/rbdock.cxx#4 $)

>  <Rbt.Library>
libRbt.so (2013.1, Build901 2013/11/27)

>  <Rbt.Parameter_File>
/export/apps/rDock/src/rDock_2013.1_src/data/scripts/dock_solv.prm

>  <Rbt.Receptor>
prm/blind_docking_60.prm

>  <SCORE>
-9.96975

>  <SCORE.INTER>
-9.28158

>  <SCORE.INTER.CONST>
1

>  <SCORE.INTER.POLAR>
0

>  <SCORE.INTER.ROT>
5

>  <SCORE.INTER.SOLV>
15.9781

>  <SCORE.INTER.VDW>
-18.4471

>  <SCORE.INTER.norm>
-0.928158

>  <SCORE.INTRA>
-0.688169

>  <SCORE.INTRA.DIHEDRAL>
-0.705506

>  <SCORE.INTRA.DIHEDRAL.0>
2.60093

>  <SCORE.INTRA.POLAR>
0

>  <SCORE.INTRA.POLAR.0>
0

>  <SCORE.INTRA.REPUL>
0

>  <SCORE.INTRA.REPUL.0>
0

>  <SCORE.INTRA.SOLV>
0.163896

>  <SCORE.INTRA.SOLV.lig_0>
-33.7882

>  <SCORE.INTRA.VDW>
-0.417363

>  <SCORE.INTRA.VDW.0>
-0.593976

>  <SCORE.INTRA.norm>
-0.0688169

>  <SCORE.RESTR>
0

>  <SCORE.RESTR.CAVITY>
0

>  <SCORE.RESTR.norm>
0

>  <SCORE.SYSTEM>
0

>  <SCORE.SYSTEM.CONST>
0

>  <SCORE.SYSTEM.DIHEDRAL>
0

>  <SCORE.SYSTEM.SOLV>
0

>  <SCORE.SYSTEM.norm>
0

>  <SCORE.heavy>
10

>  <SCORE.norm>
-0.996975

>  <RMSD>
1.033

$$$$
ligand
 OpenBabel11021811473D
libRbt.so/2013.1/901 2013/11/27
 10  9  0  0  0  0  0  0  0  0999 V2000
   33.5314   16.1780   21.0328 N   0  0  0  0  0  0  0  0  0  0  0  0
   32.2650   16.9077   21.3329 C   0  0  2  0  0  0  0  0  0  0  0  0
   32.4258   17.8529   22.4880 C   0  0  0  0  0  0  0  0  0  0  0  0
   33.4704   17.8922   23.1312 O   0  0  0  0  0  0  0  0  0  0  0  0
   31.1322   15.9110   21.5609 C   0  0  0  0  0  0  0  0  0  0  0  0
   29.6014   16.7815   21.4258 S   0  0  0  0  0  0  0  0  0  0  0  0
   28.4679   15.5476   21.9741 C   0  0  0  0  0  0  0  0  0  0  0  0
   28.3371   14.4828   20.8897 C   0  0  0  0  0  0  0  0  0  0  0  0
   27.8836   15.0918   19.6554 N   0  0  0  0  0  0  0  0  0  0  0  0
   31.5475   18.6403   22.8336 O   0  0  0  0  0  0  0  0  0  0  0  0
  2  1  1  1  0  0  0
  2  3  1  0  0  0  0
  2  5  1  0  0  0  0
  3  4  1  0  0  0  0
  3 10  1  0  0  0  0
  5  6  1  0  0  0  0
  6  7  1  0  0  0  0
  7  8  1  0  0  0  0
  8  9  1  0  0  0  0
M  END
>  <CHROM.1>
-5.29340154,-163.19191837,-171.10650290,-72.71952546,-58.35569926,30.73509683
16.58135937,21.63387706,-0.57050684,-0.04025923,-2.47421329

>  <Name>
ligand

>  <RI>
0

>  <Rbt.Current_Directory>
/home/itssahil/PROJECTS/Mol_Feturizer/New_Systems/rnas/3DIG

>  <Rbt.Executable>
rbdock ($Id: //depot/dev/client3/rdock/2013.1/src/exe/rbdock.cxx#4 $)

>  <Rbt.Library>
libRbt.so (2013.1, Build901 2013/11/27)

>  <Rbt.Parameter_File>
/export/apps/rDock/src/rDock_2013.1_src/data/scripts/dock_solv.prm

>  <Rbt.Receptor>
prm/pocket_docking_5.prm

>  <SCORE>
-8.38805

>  <SCORE.INTER>
-8.52625

>  <SCORE.INTER.CONST>
1

>  <SCORE.INTER.POLAR>
0

>  <SCORE.INTER.ROT>
5

>  <SCORE.INTER.SOLV>
13.953

>  <SCORE.INTER.VDW>
-17.2685

>  <SCORE.INTER.norm>
-0.852625

>  <SCORE.INTRA>
0.138198

>  <SCORE.INTRA.DIHEDRAL>
0.270413

>  <SCORE.INTRA.DIHEDRAL.0>
2.60093

>  <SCORE.INTRA.POLAR>
0

>  <SCORE.INTRA.POLAR.0>
0

>  <SCORE.INTRA.REPUL>
0

>  <SCORE.INTRA.REPUL.0>
0

>  <SCORE.INTRA.SOLV>
-0.0297427

>  <SCORE.INTRA.SOLV.lig_0>
-33.7882

>  <SCORE.INTRA.VDW>
0.0178624

>  <SCORE.INTRA.VDW.0>
-0.593976

>  <SCORE.INTRA.norm>
0.0138198

>  <SCORE.RESTR>
0

>  <SCORE.RESTR.CAVITY>
0

>  <SCORE.RESTR.norm>
0

>  <SCORE.SYSTEM>
0

>  <SCORE.SYSTEM.CONST>
0

>  <SCORE.SYSTEM.DIHEDRAL>
0

>  <SCORE.SYSTEM.SOLV>
0

>  <SCORE.SYSTEM.norm>
0

>  <SCORE.heavy>
10

>  <SCORE.norm>
-0.838805

>  <RMSD>
1.190

$$$$
ligand
 OpenBabel11021811473D
libRbt.so/2013.1/901 2013/11/27
 10  9  0  0  0  0  0  0  0  0999 V2000
   32.6792   15.5352   20.3733 N   0  0  0  0  0  0  0  0  0  0  0  0
   31.5713   16.1629   21.1512 C   0  0  2  0  0  0  0  0  0  0  0  0
   32.0735   16.8305   22.3984 C   0  0  0  0  0  0  0  0  0  0  0  0
   31.5588   17.8652   22.8120 O   0  0  0  0  0  0  0  0  0  0  0  0
   30.4933   15.1251   21.4504 C   0  0  0  0  0  0  0  0  0  0  0  0
   29.1263   15.9557   22.1993 S   0  0  0  0  0  0  0  0  0  0  0  0
   27.8597   14.7434   22.0158 C   0  0  0  0  0  0  0  0  0  0  0  0
   27.0639   15.0507   20.7512 C   0  0  0  0  0  0  0  0  0  0  0  0
   27.9270   14.9520   19.5915 N   0  0  0  0  0  0  0  0  0  0  0  0
   32.9941   16.3763   23.0743 O   0  0  0  0  0  0  0  0  0  0  0  0
  2  1  1  1  0  0  0
  2  3  1  0  0  0  0
  2  5  1  0  0  0  0
  3  4  1  0  0  0  0
  3 10  1  0  0  0  0
  5  6  1  0  0  0  0
  6  7  1  0  0  0  0
  7  8  1  0  0  0  0
  8  9  1  0  0  0  0
M  END
>  <CHROM.1>
144.78108971,-173.39153479,163.75418302,-95.32240410,62.78843888,30.21609634
15.88777829,21.67823219,-0.38990641,-0.15286127,-2.09312659

>  <Name>
ligand

>  <RI>
0

>  <Rbt.Current_Directory>
/home/itssahil/PROJECTS/Mol_Feturizer/New_Systems/rnas/3DIG

>  <Rbt.Executable>
rbdock ($Id: //depot/dev/client3/rdock/2013.1/src/exe/rbdock.cxx#4 $)

>  <Rbt.Library>
libRbt.so (2013.1, Build901 2013/11/27)

>  <Rbt.Parameter_File>
/export/apps/rDock/src/rDock_2013.1_src/data/scripts/dock_solv.prm

>  <Rbt.Receptor>
prm/pocket_docking_8.prm

>  <SCORE>
-9.5231

>  <SCORE.INTER>
-9.89561

>  <SCORE.INTER.CONST>
1

>  <SCORE.INTER.POLAR>
0

>  <SCORE.INTER.ROT>
5

>  <SCORE.INTER.SOLV>
15.3152

>  <SCORE.INTER.VDW>
-18.6355

>  <SCORE.INTER.norm>
-0.989561

>  <SCORE.INTRA>
0.372512

>  <SCORE.INTRA.DIHEDRAL>
0.988293

>  <SCORE.INTRA.DIHEDRAL.0>
2.60093

>  <SCORE.INTRA.POLAR>
0

>  <SCORE.INTRA.POLAR.0>
0

>  <SCORE.INTRA.REPUL>
0

>  <SCORE.INTRA.REPUL.0>
0

>  <SCORE.INTRA.SOLV>
0.741216

>  <SCORE.INTRA.SOLV.lig_0>
-33.7882

>  <SCORE.INTRA.VDW>
-0.492242

>  <SCORE.INTRA.VDW.0>
-0.593976

>  <SCORE.INTRA.norm>
0.0372512

>  <SCORE.RESTR>
0

>  <SCORE.RESTR.CAVITY>
0

>  <SCORE.RESTR.norm>
0

>  <SCORE.SYSTEM>
0

>  <SCORE.SYSTEM.CONST>
0

>  <SCORE.SYSTEM.DIHEDRAL>
0

>  <SCORE.SYSTEM.SOLV>
0

>  <SCORE.SYSTEM.norm>
0

>  <SCORE.heavy>
10

>  <SCORE.norm>
-0.95231

>  <RMSD>
1.198

$$$$
ligand
 OpenBabel11021811473D
libRbt.so/2013.1/901 2013/11/27
 10  9  0  0  0  0  0  0  0  0999 V2000
   33.4573   16.1581   20.4131 N   0  0  0  0  0  0  0  0  0  0  0  0
   32.3095   16.5854   21.2654 C   0  0  2  0  0  0  0  0  0  0  0  0
   32.7704   17.2509   22.5296 C   0  0  0  0  0  0  0  0  0  0  0  0
   33.5511   16.6879   23.2913 O   0  0  0  0  0  0  0  0  0  0  0  0
   31.3972   15.3944   21.5440 C   0  0  0  0  0  0  0  0  0  0  0  0
   30.0514   15.9566   22.5400 S   0  0  0  0  0  0  0  0  0  0  0  0
   28.9691   14.5678   22.4511 C   0  0  0  0  0  0  0  0  0  0  0  0
   27.7402   14.9534   21.6337 C   0  0  0  0  0  0  0  0  0  0  0  0
   28.1301   15.2476   20.2694 N   0  0  0  0  0  0  0  0  0  0  0  0
   32.4177   18.3823   22.8553 O   0  0  0  0  0  0  0  0  0  0  0  0
  2  1  1  1  0  0  0
  2  3  1  0  0  0  0
  2  5  1  0  0  0  0
  3  4  1  0  0  0  0
  3 10  1  0  0  0  0
  5  6  1  0  0  0  0
  6  7  1  0  0  0  0
  7  8  1  0  0  0  0
  8  9  1  0  0  0  0
M  END
>  <CHROM.1>
-54.92691635,-179.46143025,168.28905164,-110.88083372,64.24093693,30.98102046
16.11802046,21.97978217,-0.30346472,-0.31956276,-2.00038691

>  <Name>
ligand

>  <RI>
0

>  <Rbt.Current_Directory>
/home/itssahil/PROJECTS/Mol_Feturizer/New_Systems/rnas/3DIG

>  <Rbt.Executable>
rbdock ($Id: //depot/dev/client3/rdock/2013.1/src/exe/rbdock.cxx#4 $)

>  <Rbt.Library>
libRbt.so (2013.1, Build901 2013/11/27)

>  <Rbt.Parameter_File>
/export/apps/rDock/src/rDock_2013.1_src/data/scripts/dock_solv.prm

>  <Rbt.Receptor>
prm/blind_docking_80.prm

>  <SCORE>
-9.43696

>  <SCORE.INTER>
-9.852

>  <SCORE.INTER.CONST>
1

>  <SCORE.INTER.POLAR>
0

>  <SCORE.INTER.ROT>
5

>  <SCORE.INTER.SOLV>
14.687

>  <SCORE.INTER.VDW>
-18.397

>  <SCORE.INTER.norm>
-0.9852

>  <SCORE.INTRA>
0.415041

>  <SCORE.INTRA.DIHEDRAL>
1.46381

>  <SCORE.INTRA.DIHEDRAL.0>
2.60093

>  <SCORE.INTRA.POLAR>
0

>  <SCORE.INTRA.POLAR.0>
0

>  <SCORE.INTRA.REPUL>
0

>  <SCORE.INTRA.REPUL.0>
0

>  <SCORE.INTRA.SOLV>
0.217173

>  <SCORE.INTRA.SOLV.lig_0>
-33.7882

>  <SCORE.INTRA.VDW>
-0.425449

>  <SCORE.INTRA.VDW.0>
-0.593976

>  <SCORE.INTRA.norm>
0.0415041

>  <SCORE.RESTR>
0

>  <SCORE.RESTR.CAVITY>
0

>  <SCORE.RESTR.norm>
0

>  <SCORE.SYSTEM>
0

>  <SCORE.SYSTEM.CONST>
0

>  <SCORE.SYSTEM.DIHEDRAL>
0

>  <SCORE.SYSTEM.SOLV>
0

>  <SCORE.SYSTEM.norm>
0

>  <SCORE.heavy>
10

>  <SCORE.norm>
-0.943696

>  <RMSD>
1.212

$$$$
ligand
 OpenBabel11021811473D
libRbt.so/2013.1/901 2013/11/27
 10  9  0  0  0  0  0  0  0  0999 V2000
   32.7158   15.5423   20.4169 N   0  0  0  0  0  0  0  0  0  0  0  0
   31.5743   16.1824   21.1337 C   0  0  2  0  0  0  0  0  0  0  0  0
   32.0317   16.9443   22.3436 C   0  0  0  0  0  0  0  0  0  0  0  0
   32.9758   16.5475   23.0202 O   0  0  0  0  0  0  0  0  0  0  0  0
   30.5237   15.1316   21.4811 C   0  0  0  0  0  0  0  0  0  0  0  0
   29.1628   15.9518   22.2521 S   0  0  0  0  0  0  0  0  0  0  0  0
   27.8750   14.7766   21.9907 C   0  0  0  0  0  0  0  0  0  0  0  0
   27.1097   15.1582   20.7275 C   0  0  0  0  0  0  0  0  0  0  0  0
   27.9924   15.0942   19.5801 N   0  0  0  0  0  0  0  0  0  0  0  0
   31.5124   17.9982   22.7046 O   0  0  0  0  0  0  0  0  0  0  0  0
  2  1  1  1  0  0  0
  2  3  1  0  0  0  0
  2  5  1  0  0  0  0
  3  4  1  0  0  0  0
  3 10  1  0  0  0  0
  5  6  1  0  0  0  0
  6  7  1  0  0  0  0
  7  8  1  0  0  0  0
  8  9  1  0  0  0  0
M  END
>  <CHROM.1>
-34.80299676,-177.18176547,158.67902244,-94.96301273,62.76909125,30.23109155
15.95384971,21.66830554,-0.38965091,-0.15582127,-2.11666160

>  <Name>
ligand

>  <RI>
0

>  <Rbt.Current_Directory>
/home/itssahil/PROJECTS/Mol_Feturizer/New_Systems/rnas/3DIG

>  <Rbt.Executable>
rbdock ($Id: //depot/dev/client3/rdock/2013.1/src/exe/rbdock.cxx#4 $)

>  <Rbt.Library>
libRbt.so (2013.1, Build901 2013/11/27)

>  <Rbt.Parameter_File>
/export/apps/rDock/src/rDock_2013.1_src/data/scripts/dock_solv.prm

>  <Rbt.Receptor>
prm/blind_docking_100.prm

>  <SCORE>
-9.56353

>  <SCORE.INTER>
-10.1789

>  <SCORE.INTER.CONST>
1

>  <SCORE.INTER.POLAR>
0

>  <SCORE.INTER.ROT>
5

>  <SCORE.INTER.SOLV>
14.8854

>  <SCORE.INTER.VDW>
-18.6811

>  <SCORE.INTER.norm>
-1.01789

>  <SCORE.INTRA>
0.615386

>  <SCORE.INTRA.DIHEDRAL>
1.18781

>  <SCORE.INTRA.DIHEDRAL.0>
2.60093

>  <SCORE.INTRA.POLAR>
0

>  <SCORE.INTRA.POLAR.0>
0

>  <SCORE.INTRA.REPUL>
0

>  <SCORE.INTRA.REPUL.0>
0

>  <SCORE.INTRA.SOLV>
0.835988

>  <SCORE.INTRA.SOLV.lig_0>
-33.7882

>  <SCORE.INTRA.VDW>
-0.396513

>  <SCORE.INTRA.VDW.0>
-0.593976

>  <SCORE.INTRA.norm>
0.0615386

>  <SCORE.RESTR>
0

>  <SCORE.RESTR.CAVITY>
0

>  <SCORE.RESTR.norm>
0

>  <SCORE.SYSTEM>
0

>  <SCORE.SYSTEM.CONST>
0

>  <SCORE.SYSTEM.DIHEDRAL>
0

>  <SCORE.SYSTEM.SOLV>
0

>  <SCORE.SYSTEM.norm>
0

>  <SCORE.heavy>
10

>  <SCORE.norm>
-0.956353

>  <RMSD>
1.214

$$$$
ligand
 OpenBabel11021811473D
libRbt.so/2013.1/901 2013/11/27
 10  9  0  0  0  0  0  0  0  0999 V2000
   32.2318   15.6500   20.8341 N   0  0  0  0  0  0  0  0  0  0  0  0
   31.8014   16.9385   21.4512 C   0  0  2  0  0  0  0  0  0  0  0  0
   32.7543   17.3918   22.5188 C   0  0  0  0  0  0  0  0  0  0  0  0
   33.4446   16.5842   23.1336 O   0  0  0  0  0  0  0  0  0  0  0  0
   30.3729   16.8134   21.9729 C   0  0  0  0  0  0  0  0  0  0  0  0
   29.2776   16.8643   20.5883 S   0  0  0  0  0  0  0  0  0  0  0  0
   29.2340   15.1610   20.1361 C   0  0  0  0  0  0  0  0  0  0  0  0
   28.3651   15.0043   18.8922 C   0  0  0  0  0  0  0  0  0  0  0  0
   28.3085   13.6090   18.5050 N   0  0  0  0  0  0  0  0  0  0  0  0
   32.9107   18.5742   22.8159 O   0  0  0  0  0  0  0  0  0  0  0  0
  2  1  1  1  0  0  0
  2  3  1  0  0  0  0
  2  5  1  0  0  0  0
  3  4  1  0  0  0  0
  3 10  1  0  0  0  0
  5  6  1  0  0  0  0
  6  7  1  0  0  0  0
  7  8  1  0  0  0  0
  8  9  1  0  0  0  0
M  END
>  <CHROM.1>
-26.14716937,-75.34908547,87.30990796,-177.58670193,-179.69863575,30.71728601
16.34212242,21.05530296,-0.69174554,0.40144613,-2.65579488

>  <Name>
ligand

>  <RI>
0

>  <Rbt.Current_Directory>
/home/itssahil/PROJECTS/Mol_Feturizer/New_Systems/rnas/3DIG

>  <Rbt.Executable>
rbdock ($Id: //depot/dev/client3/rdock/2013.1/src/exe/rbdock.cxx#4 $)

>  <Rbt.Library>
libRbt.so (2013.1, Build901 2013/11/27)

>  <Rbt.Parameter_File>
/export/apps/rDock/src/rDock_2013.1_src/data/scripts/dock_solv.prm

>  <Rbt.Receptor>
prm/blind_docking_100.prm

>  <SCORE>
-7.81312

>  <SCORE.INTER>
-7.94455

>  <SCORE.INTER.CONST>
1

>  <SCORE.INTER.POLAR>
0

>  <SCORE.INTER.ROT>
5

>  <SCORE.INTER.SOLV>
15.65

>  <SCORE.INTER.VDW>
-17.4464

>  <SCORE.INTER.norm>
-0.794455

>  <SCORE.INTRA>
0.13143

>  <SCORE.INTRA.DIHEDRAL>
0.754482

>  <SCORE.INTRA.DIHEDRAL.0>
2.60093

>  <SCORE.INTRA.POLAR>
0

>  <SCORE.INTRA.POLAR.0>
0

>  <SCORE.INTRA.REPUL>
0

>  <SCORE.INTRA.REPUL.0>
0

>  <SCORE.INTRA.SOLV>
0.448103

>  <SCORE.INTRA.SOLV.lig_0>
-33.7882

>  <SCORE.INTRA.VDW>
-0.469863

>  <SCORE.INTRA.VDW.0>
-0.593976

>  <SCORE.INTRA.norm>
0.013143

>  <SCORE.RESTR>
0

>  <SCORE.RESTR.CAVITY>
0

>  <SCORE.RESTR.norm>
0

>  <SCORE.SYSTEM>
0

>  <SCORE.SYSTEM.CONST>
0

>  <SCORE.SYSTEM.DIHEDRAL>
0

>  <SCORE.SYSTEM.SOLV>
0

>  <SCORE.SYSTEM.norm>
0

>  <SCORE.heavy>
10

>  <SCORE.norm>
-0.781312

>  <RMSD>
1.277

$$$$
ligand
 OpenBabel11021811473D
libRbt.so/2013.1/901 2013/11/27
 10  9  0  0  0  0  0  0  0  0999 V2000
   33.1279   16.3128   21.2203 N   0  0  0  0  0  0  0  0  0  0  0  0
   32.0661   17.1218   21.8870 C   0  0  2  0  0  0  0  0  0  0  0  0
   32.6471   18.1510   22.8125 C   0  0  0  0  0  0  0  0  0  0  0  0
   31.9493   19.0463   23.2794 O   0  0  0  0  0  0  0  0  0  0  0  0
   31.0810   16.2001   22.6001 C   0  0  0  0  0  0  0  0  0  0  0  0
   30.2024   15.2829   21.3728 S   0  0  0  0  0  0  0  0  0  0  0  0
   28.8943   14.6026   22.3393 C   0  0  0  0  0  0  0  0  0  0  0  0
   27.5624   14.9713   21.6936 C   0  0  0  0  0  0  0  0  0  0  0  0
   27.5022   14.4328   20.3496 N   0  0  0  0  0  0  0  0  0  0  0  0
   33.8243   18.1423   23.1659 O   0  0  0  0  0  0  0  0  0  0  0  0
  2  1  1  1  0  0  0
  2  3  1  0  0  0  0
  2  5  1  0  0  0  0
  3  4  1  0  0  0  0
  3 10  1  0  0  0  0
  5  6  1  0  0  0  0
  6  7  1  0  0  0  0
  7  8  1  0  0  0  0
  8  9  1  0  0  0  0
M  END
>  <CHROM.1>
168.04241725,-67.38687926,-167.02523021,125.68058549,60.12161497,30.82823941
16.32461163,22.01346748,-0.64571882,-0.17860549,-2.48823023

>  <Name>
ligand

>  <RI>
0

>  <Rbt.Current_Directory>
/home/itssahil/PROJECTS/Mol_Feturizer/New_Systems/rnas/3DIG

>  <Rbt.Executable>
rbdock ($Id: //depot/dev/client3/rdock/2013.1/src/exe/rbdock.cxx#4 $)

>  <Rbt.Library>
libRbt.so (2013.1, Build901 2013/11/27)

>  <Rbt.Parameter_File>
/export/apps/rDock/src/rDock_2013.1_src/data/scripts/dock_solv.prm

>  <Rbt.Receptor>
prm/blind_docking_80.prm

>  <SCORE>
-8.70659

>  <SCORE.INTER>
-9.27984

>  <SCORE.INTER.CONST>
1

>  <SCORE.INTER.POLAR>
0

>  <SCORE.INTER.ROT>
5

>  <SCORE.INTER.SOLV>
15.2111

>  <SCORE.INTER.VDW>
-18.1902

>  <SCORE.INTER.norm>
-0.927984

>  <SCORE.INTRA>
0.573247

>  <SCORE.INTRA.DIHEDRAL>
1.66347

>  <SCORE.INTRA.DIHEDRAL.0>
2.60093

>  <SCORE.INTRA.POLAR>
0

>  <SCORE.INTRA.POLAR.0>
0

>  <SCORE.INTRA.REPUL>
0

>  <SCORE.INTRA.REPUL.0>
0

>  <SCORE.INTRA.SOLV>
0.0301959

>  <SCORE.INTRA.SOLV.lig_0>
-33.7882

>  <SCORE.INTRA.VDW>
-0.273584

>  <SCORE.INTRA.VDW.0>
-0.593976

>  <SCORE.INTRA.norm>
0.0573247

>  <SCORE.RESTR>
0

>  <SCORE.RESTR.CAVITY>
0

>  <SCORE.RESTR.norm>
0

>  <SCORE.SYSTEM>
0

>  <SCORE.SYSTEM.CONST>
0

>  <SCORE.SYSTEM.DIHEDRAL>
0

>  <SCORE.SYSTEM.SOLV>
0

>  <SCORE.SYSTEM.norm>
0

>  <SCORE.heavy>
10

>  <SCORE.norm>
-0.870659

>  <RMSD>
1.277

$$$$
ligand
 OpenBabel11021811473D
libRbt.so/2013.1/901 2013/11/27
 10  9  0  0  0  0  0  0  0  0999 V2000
   32.0659   16.1057   20.8641 N   0  0  0  0  0  0  0  0  0  0  0  0
   31.2447   16.7853   21.9082 C   0  0  2  0  0  0  0  0  0  0  0  0
   31.9780   17.9365   22.5333 C   0  0  0  0  0  0  0  0  0  0  0  0
   33.2016   17.9285   22.6293 O   0  0  0  0  0  0  0  0  0  0  0  0
   30.7803   15.7690   22.9474 C   0  0  0  0  0  0  0  0  0  0  0  0
   29.7002   14.6229   22.1480 S   0  0  0  0  0  0  0  0  0  0  0  0
   28.2429   15.6007   21.9807 C   0  0  0  0  0  0  0  0  0  0  0  0
   27.2714   14.8807   21.0508 C   0  0  0  0  0  0  0  0  0  0  0  0
   27.8285   14.8136   19.7148 N   0  0  0  0  0  0  0  0  0  0  0  0
   31.4086   18.9409   22.9547 O   0  0  0  0  0  0  0  0  0  0  0  0
  2  1  1  6  0  0  0
  2  3  1  0  0  0  0
  2  5  1  0  0  0  0
  3  4  1  0  0  0  0
  3 10  1  0  0  0  0
  5  6  1  0  0  0  0
  6  7  1  0  0  0  0
  7  8  1  0  0  0  0
  8  9  1  0  0  0  0
M  END
>  <CHROM.1>
-30.16995054,-64.74567102,-75.04151725,168.49012874,-65.77792501,30.31823211
16.17316415,21.91886870,-0.68852693,0.09793064,-2.82165071

>  <Name>
ligand

>  <RI>
0

>  <Rbt.Current_Directory>
/home/itssahil/PROJECTS/Mol_Feturizer/New_Systems/rnas/3DIG

>  <Rbt.Executable>
rbdock ($Id: //depot/dev/client3/rdock/2013.1/src/exe/rbdock.cxx#4 $)

>  <Rbt.Library>
libRbt.so (2013.1, Build901 2013/11/27)

>  <Rbt.Parameter_File>
/export/apps/rDock/src/rDock_2013.1_src/data/scripts/dock_solv.prm

>  <Rbt.Receptor>
prm/blind_docking_80.prm

>  <SCORE>
-11.1032

>  <SCORE.INTER>
-10.8653

>  <SCORE.INTER.CONST>
1

>  <SCORE.INTER.POLAR>
0

>  <SCORE.INTER.ROT>
5

>  <SCORE.INTER.SOLV>
13.0056

>  <SCORE.INTER.VDW>
-18.5121

>  <SCORE.INTER.norm>
-1.08653

>  <SCORE.INTRA>
-0.237849

>  <SCORE.INTRA.DIHEDRAL>
-0.291528

>  <SCORE.INTRA.DIHEDRAL.0>
2.60093

>  <SCORE.INTRA.POLAR>
0

>  <SCORE.INTRA.POLAR.0>
0

>  <SCORE.INTRA.REPUL>
0

>  <SCORE.INTRA.REPUL.0>
0

>  <SCORE.INTRA.SOLV>
0.682929

>  <SCORE.INTRA.SOLV.lig_0>
-33.7882

>  <SCORE.INTRA.VDW>
-0.433549

>  <SCORE.INTRA.VDW.0>
-0.593976

>  <SCORE.INTRA.norm>
-0.0237849

>  <SCORE.RESTR>
0

>  <SCORE.RESTR.CAVITY>
0

>  <SCORE.RESTR.norm>
0

>  <SCORE.SYSTEM>
0

>  <SCORE.SYSTEM.CONST>
0

>  <SCORE.SYSTEM.DIHEDRAL>
0

>  <SCORE.SYSTEM.SOLV>
0

>  <SCORE.SYSTEM.norm>
0

>  <SCORE.heavy>
10

>  <SCORE.norm>
-1.11032

>  <RMSD>
1.406

$$$$
ligand
 OpenBabel11021811473D
libRbt.so/2013.1/901 2013/11/27
 10  9  0  0  0  0  0  0  0  0999 V2000
   32.0219   16.1021   20.8813 N   0  0  0  0  0  0  0  0  0  0  0  0
   31.1832   16.7806   21.9121 C   0  0  2  0  0  0  0  0  0  0  0  0
   31.9127   17.9189   22.5643 C   0  0  0  0  0  0  0  0  0  0  0  0
   31.3065   18.9016   22.9809 O   0  0  0  0  0  0  0  0  0  0  0  0
   30.6849   15.7598   22.9310 C   0  0  0  0  0  0  0  0  0  0  0  0
   29.6326   14.6166   22.0914 S   0  0  0  0  0  0  0  0  0  0  0  0
   28.1541   15.5665   21.9517 C   0  0  0  0  0  0  0  0  0  0  0  0
   27.1823   14.8319   21.0336 C   0  0  0  0  0  0  0  0  0  0  0  0
   27.7142   14.7919   19.6862 N   0  0  0  0  0  0  0  0  0  0  0  0
   33.1299   17.9214   22.7350 O   0  0  0  0  0  0  0  0  0  0  0  0
  2  1  1  6  0  0  0
  2  3  1  0  0  0  0
  2  5  1  0  0  0  0
  3  4  1  0  0  0  0
  3 10  1  0  0  0  0
  5  6  1  0  0  0  0
  6  7  1  0  0  0  0
  7  8  1  0  0  0  0
  8  9  1  0  0  0  0
M  END
>  <CHROM.1>
149.35305078,-63.88157190,-77.75485550,170.41281885,-66.27043846,30.23920233
16.15515089,21.91685879,-0.69271569,0.08351698,-2.78010270

>  <Name>
ligand

>  <RI>
0

>  <Rbt.Current_Directory>
/home/itssahil/PROJECTS/Mol_Feturizer/New_Systems/rnas/3DIG

>  <Rbt.Executable>
rbdock ($Id: //depot/dev/client3/rdock/2013.1/src/exe/rbdock.cxx#4 $)

>  <Rbt.Library>
libRbt.so (2013.1, Build901 2013/11/27)

>  <Rbt.Parameter_File>
/export/apps/rDock/src/rDock_2013.1_src/data/scripts/dock_solv.prm

>  <Rbt.Receptor>
prm/pocket_docking_5.prm

>  <SCORE>
-11.1166

>  <SCORE.INTER>
-10.7873

>  <SCORE.INTER.CONST>
1

>  <SCORE.INTER.POLAR>
0

>  <SCORE.INTER.ROT>
5

>  <SCORE.INTER.SOLV>
13.5084

>  <SCORE.INTER.VDW>
-18.6277

>  <SCORE.INTER.norm>
-1.07873

>  <SCORE.INTRA>
-0.329326

>  <SCORE.INTRA.DIHEDRAL>
-0.321053

>  <SCORE.INTRA.DIHEDRAL.0>
2.60093

>  <SCORE.INTRA.POLAR>
0

>  <SCORE.INTRA.POLAR.0>
0

>  <SCORE.INTRA.REPUL>
0

>  <SCORE.INTRA.REPUL.0>
0

>  <SCORE.INTRA.SOLV>
0.576441

>  <SCORE.INTRA.SOLV.lig_0>
-33.7882

>  <SCORE.INTRA.VDW>
-0.45702

>  <SCORE.INTRA.VDW.0>
-0.593976

>  <SCORE.INTRA.norm>
-0.0329326

>  <SCORE.RESTR>
0

>  <SCORE.RESTR.CAVITY>
0

>  <SCORE.RESTR.norm>
0

>  <SCORE.SYSTEM>
0

>  <SCORE.SYSTEM.CONST>
0

>  <SCORE.SYSTEM.DIHEDRAL>
0

>  <SCORE.SYSTEM.SOLV>
0

>  <SCORE.SYSTEM.norm>
0

>  <SCORE.heavy>
10

>  <SCORE.norm>
-1.11166

>  <RMSD>
1.429

$$$$
ligand
 OpenBabel11021811473D
libRbt.so/2013.1/901 2013/11/27
 10  9  0  0  0  0  0  0  0  0999 V2000
   31.9661   16.1502   20.8789 N   0  0  0  0  0  0  0  0  0  0  0  0
   31.1583   16.8564   21.9158 C   0  0  2  0  0  0  0  0  0  0  0  0
   31.9256   17.9786   22.5524 C   0  0  0  0  0  0  0  0  0  0  0  0
   31.3489   18.9707   22.9880 O   0  0  0  0  0  0  0  0  0  0  0  0
   30.6459   15.8548   22.9467 C   0  0  0  0  0  0  0  0  0  0  0  0
   29.6381   14.6720   22.1073 S   0  0  0  0  0  0  0  0  0  0  0  0
   28.1294   15.5708   21.9526 C   0  0  0  0  0  0  0  0  0  0  0  0
   27.2131   14.8309   20.9831 C   0  0  0  0  0  0  0  0  0  0  0  0
   27.8052   14.8177   19.6606 N   0  0  0  0  0  0  0  0  0  0  0  0
   33.1467   17.9580   22.6911 O   0  0  0  0  0  0  0  0  0  0  0  0
  2  1  1  6  0  0  0
  2  3  1  0  0  0  0
  2  5  1  0  0  0  0
  3  4  1  0  0  0  0
  3 10  1  0  0  0  0
  5  6  1  0  0  0  0
  6  7  1  0  0  0  0
  7  8  1  0  0  0  0
  8  9  1  0  0  0  0
M  END
>  <CHROM.1>
150.41441584,-60.21813239,-79.82227246,167.87292389,-64.48385071,30.24538435
16.20282905,21.91031448,-0.70619926,0.03269006,-2.72312560

>  <Name>
ligand

>  <RI>
0

>  <Rbt.Current_Directory>
/home/itssahil/PROJECTS/Mol_Feturizer/New_Systems/rnas/3DIG

>  <Rbt.Executable>
rbdock ($Id: //depot/dev/client3/rdock/2013.1/src/exe/rbdock.cxx#4 $)

>  <Rbt.Library>
libRbt.so (2013.1, Build901 2013/11/27)

>  <Rbt.Parameter_File>
/export/apps/rDock/src/rDock_2013.1_src/data/scripts/dock_solv.prm

>  <Rbt.Receptor>
prm/pocket_docking_6.prm

>  <SCORE>
-11.1452

>  <SCORE.INTER>
-10.9429

>  <SCORE.INTER.CONST>
1

>  <SCORE.INTER.POLAR>
0

>  <SCORE.INTER.ROT>
5

>  <SCORE.INTER.SOLV>
12.9768

>  <SCORE.INTER.VDW>
-18.5542

>  <SCORE.INTER.norm>
-1.09429

>  <SCORE.INTRA>
-0.202294

>  <SCORE.INTRA.DIHEDRAL>
-0.245979

>  <SCORE.INTRA.DIHEDRAL.0>
2.60093

>  <SCORE.INTRA.POLAR>
0

>  <SCORE.INTRA.POLAR.0>
0

>  <SCORE.INTRA.REPUL>
0

>  <SCORE.INTRA.REPUL.0>
0

>  <SCORE.INTRA.SOLV>
0.713873

>  <SCORE.INTRA.SOLV.lig_0>
-33.7882

>  <SCORE.INTRA.VDW>
-0.436241

>  <SCORE.INTRA.VDW.0>
-0.593976

>  <SCORE.INTRA.norm>
-0.0202294

>  <SCORE.RESTR>
0

>  <SCORE.RESTR.CAVITY>
0

>  <SCORE.RESTR.norm>
0

>  <SCORE.SYSTEM>
0

>  <SCORE.SYSTEM.CONST>
0

>  <SCORE.SYSTEM.DIHEDRAL>
0

>  <SCORE.SYSTEM.SOLV>
0

>  <SCORE.SYSTEM.norm>
0

>  <SCORE.heavy>
10

>  <SCORE.norm>
-1.11452

>  <RMSD>
1.436

$$$$
ligand
 OpenBabel11021811473D
libRbt.so/2013.1/901 2013/11/27
 10  9  0  0  0  0  0  0  0  0999 V2000
   33.0092   16.6254   20.2732 N   0  0  0  0  0  0  0  0  0  0  0  0
   31.8213   16.6346   21.1761 C   0  0  2  0  0  0  0  0  0  0  0  0
   31.9897   17.6037   22.3101 C   0  0  0  0  0  0  0  0  0  0  0  0
   33.0310   17.6419   22.9589 O   0  0  0  0  0  0  0  0  0  0  0  0
   31.5319   15.2198   21.6690 C   0  0  0  0  0  0  0  0  0  0  0  0
   30.0228   15.2571   22.5856 S   0  0  0  0  0  0  0  0  0  0  0  0
   28.8394   15.2140   21.2797 C   0  0  0  0  0  0  0  0  0  0  0  0
   27.4579   14.9627   21.8756 C   0  0  0  0  0  0  0  0  0  0  0  0
   26.4628   14.9525   20.8222 N   0  0  0  0  0  0  0  0  0  0  0  0
   31.1216   18.4122   22.6318 O   0  0  0  0  0  0  0  0  0  0  0  0
  2  1  1  1  0  0  0
  2  3  1  0  0  0  0
  2  5  1  0  0  0  0
  3  4  1  0  0  0  0
  3 10  1  0  0  0  0
  5  6  1  0  0  0  0
  6  7  1  0  0  0  0
  7  8  1  0  0  0  0
  8  9  1  0  0  0  0
M  END
>  <CHROM.1>
-46.62839159,-173.93850756,80.89128711,168.95823932,178.74508989,30.48331511
16.16420963,21.87466276,-0.40219355,-0.24730837,-2.39958972

>  <Name>
ligand

>  <RI>
0

>  <Rbt.Current_Directory>
/home/itssahil/PROJECTS/Mol_Feturizer/New_Systems/rnas/3DIG

>  <Rbt.Executable>
rbdock ($Id: //depot/dev/client3/rdock/2013.1/src/exe/rbdock.cxx#4 $)

>  <Rbt.Library>
libRbt.so (2013.1, Build901 2013/11/27)

>  <Rbt.Parameter_File>
/export/apps/rDock/src/rDock_2013.1_src/data/scripts/dock_solv.prm

>  <Rbt.Receptor>
prm/pocket_docking_8.prm

>  <SCORE>
-8.97394

>  <SCORE.INTER>
-7.67819

>  <SCORE.INTER.CONST>
1

>  <SCORE.INTER.POLAR>
0

>  <SCORE.INTER.ROT>
5

>  <SCORE.INTER.SOLV>
20.7804

>  <SCORE.INTER.VDW>
-18.9789

>  <SCORE.INTER.norm>
-0.767819

>  <SCORE.INTRA>
-1.29575

>  <SCORE.INTRA.DIHEDRAL>
-0.0833615

>  <SCORE.INTRA.DIHEDRAL.0>
2.60093

>  <SCORE.INTRA.POLAR>
0

>  <SCORE.INTRA.POLAR.0>
0

>  <SCORE.INTRA.REPUL>
0

>  <SCORE.INTRA.REPUL.0>
0

>  <SCORE.INTRA.SOLV>
-1.39697

>  <SCORE.INTRA.SOLV.lig_0>
-33.7882

>  <SCORE.INTRA.VDW>
-0.555579

>  <SCORE.INTRA.VDW.0>
-0.593976

>  <SCORE.INTRA.norm>
-0.129575

>  <SCORE.RESTR>
0

>  <SCORE.RESTR.CAVITY>
0

>  <SCORE.RESTR.norm>
0

>  <SCORE.SYSTEM>
0

>  <SCORE.SYSTEM.CONST>
0

>  <SCORE.SYSTEM.DIHEDRAL>
0

>  <SCORE.SYSTEM.SOLV>
0

>  <SCORE.SYSTEM.norm>
0

>  <SCORE.heavy>
10

>  <SCORE.norm>
-0.897394

>  <RMSD>
1.478

$$$$
ligand
 OpenBabel11021811473D
libRbt.so/2013.1/901 2013/11/27
 10  9  0  0  0  0  0  0  0  0999 V2000
   32.3644   15.9134   21.3990 N   0  0  0  0  0  0  0  0  0  0  0  0
   31.4113   16.8974   21.9904 C   0  0  2  0  0  0  0  0  0  0  0  0
   32.1129   18.1344   22.4710 C   0  0  0  0  0  0  0  0  0  0  0  0
   31.4983   19.0235   23.0528 O   0  0  0  0  0  0  0  0  0  0  0  0
   30.5979   16.2328   23.0972 C   0  0  0  0  0  0  0  0  0  0  0  0
   29.7830   14.8254   22.4083 S   0  0  0  0  0  0  0  0  0  0  0  0
   28.8517   15.5802   21.1157 C   0  0  0  0  0  0  0  0  0  0  0  0
   28.1107   14.4930   20.3437 C   0  0  0  0  0  0  0  0  0  0  0  0
   27.6083   15.0322   19.0960 N   0  0  0  0  0  0  0  0  0  0  0  0
   33.3211   18.3132   22.3324 O   0  0  0  0  0  0  0  0  0  0  0  0
  2  1  1  1  0  0  0
  2  3  1  0  0  0  0
  2  5  1  0  0  0  0
  3  4  1  0  0  0  0
  3 10  1  0  0  0  0
  5  6  1  0  0  0  0
  6  7  1  0  0  0  0
  7  8  1  0  0  0  0
  8  9  1  0  0  0  0
M  END
>  <CHROM.1>
-176.00357319,-56.67626885,-57.96575026,177.38752558,-166.10187496,30.49817501
16.29222828,21.82062859,-0.20318480,0.75129080,2.41879595

>  <Name>
ligand

>  <RI>
0

>  <Rbt.Current_Directory>
/home/itssahil/PROJECTS/Mol_Feturizer/New_Systems/rnas/3DIG

>  <Rbt.Executable>
rbdock ($Id: //depot/dev/client3/rdock/2013.1/src/exe/rbdock.cxx#4 $)

>  <Rbt.Library>
libRbt.so (2013.1, Build901 2013/11/27)

>  <Rbt.Parameter_File>
/export/apps/rDock/src/rDock_2013.1_src/data/scripts/dock_solv.prm

>  <Rbt.Receptor>
prm/pocket_docking_5.prm

>  <SCORE>
-8.1557

>  <SCORE.INTER>
-8.4866

>  <SCORE.INTER.CONST>
1

>  <SCORE.INTER.POLAR>
0

>  <SCORE.INTER.ROT>
5

>  <SCORE.INTER.SOLV>
14.5435

>  <SCORE.INTER.VDW>
-17.4389

>  <SCORE.INTER.norm>
-0.84866

>  <SCORE.INTRA>
0.330897

>  <SCORE.INTRA.DIHEDRAL>
-0.331402

>  <SCORE.INTRA.DIHEDRAL.0>
2.60093

>  <SCORE.INTRA.POLAR>
0

>  <SCORE.INTRA.POLAR.0>
0

>  <SCORE.INTRA.REPUL>
0

>  <SCORE.INTRA.REPUL.0>
0

>  <SCORE.INTRA.SOLV>
0.175255

>  <SCORE.INTRA.SOLV.lig_0>
-33.7882

>  <SCORE.INTRA.VDW>
0.408971

>  <SCORE.INTRA.VDW.0>
-0.593976

>  <SCORE.INTRA.norm>
0.0330897

>  <SCORE.RESTR>
0

>  <SCORE.RESTR.CAVITY>
0

>  <SCORE.RESTR.norm>
0

>  <SCORE.SYSTEM>
0

>  <SCORE.SYSTEM.CONST>
0

>  <SCORE.SYSTEM.DIHEDRAL>
0

>  <SCORE.SYSTEM.SOLV>
0

>  <SCORE.SYSTEM.norm>
0

>  <SCORE.heavy>
10

>  <SCORE.norm>
-0.81557

>  <RMSD>
1.482

$$$$
ligand
 OpenBabel11021811473D
libRbt.so/2013.1/901 2013/11/27
 10  9  0  0  0  0  0  0  0  0999 V2000
   33.8866   16.6631   21.4289 N   0  0  0  0  0  0  0  0  0  0  0  0
   32.4911   17.1238   21.6868 C   0  0  2  0  0  0  0  0  0  0  0  0
   32.4479   18.2379   22.6921 C   0  0  0  0  0  0  0  0  0  0  0  0
   33.4541   18.5678   23.3128 O   0  0  0  0  0  0  0  0  0  0  0  0
   31.6219   15.9410   22.1039 C   0  0  0  0  0  0  0  0  0  0  0  0
   29.9317   16.3881   21.8535 S   0  0  0  0  0  0  0  0  0  0  0  0
   29.1202   14.8937   22.3182 C   0  0  0  0  0  0  0  0  0  0  0  0
   27.6702   14.9545   21.8481 C   0  0  0  0  0  0  0  0  0  0  0  0
   27.6243   14.9892   20.4002 N   0  0  0  0  0  0  0  0  0  0  0  0
   31.4296   18.8841   22.9291 O   0  0  0  0  0  0  0  0  0  0  0  0
  2  1  1  1  0  0  0
  2  3  1  0  0  0  0
  2  5  1  0  0  0  0
  3  4  1  0  0  0  0
  3 10  1  0  0  0  0
  5  6  1  0  0  0  0
  6  7  1  0  0  0  0
  7  8  1  0  0  0  0
  8  9  1  0  0  0  0
M  END
>  <CHROM.1>
-8.31855275,-160.59560046,177.67177987,-166.15590416,64.85211789,30.85860826
16.66149607,22.05523061,-0.56756005,-0.10005415,-2.61118212

>  <Name>
ligand

>  <RI>
0

>  <Rbt.Current_Directory>
/home/itssahil/PROJECTS/Mol_Feturizer/New_Systems/rnas/3DIG

>  <Rbt.Executable>
rbdock ($Id: //depot/dev/client3/rdock/2013.1/src/exe/rbdock.cxx#4 $)

>  <Rbt.Library>
libRbt.so (2013.1, Build901 2013/11/27)

>  <Rbt.Parameter_File>
/export/apps/rDock/src/rDock_2013.1_src/data/scripts/dock_solv.prm

>  <Rbt.Receptor>
prm/blind_docking_100.prm

>  <SCORE>
-10.1215

>  <SCORE.INTER>
-9.7184

>  <SCORE.INTER.CONST>
1

>  <SCORE.INTER.POLAR>
0

>  <SCORE.INTER.ROT>
5

>  <SCORE.INTER.SOLV>
15.0586

>  <SCORE.INTER.VDW>
-18.4318

>  <SCORE.INTER.norm>
-0.97184

>  <SCORE.INTRA>
-0.403137

>  <SCORE.INTRA.DIHEDRAL>
0.568845

>  <SCORE.INTRA.DIHEDRAL.0>
2.60093

>  <SCORE.INTRA.POLAR>
0

>  <SCORE.INTRA.POLAR.0>
0

>  <SCORE.INTRA.REPUL>
0

>  <SCORE.INTRA.REPUL.0>
0

>  <SCORE.INTRA.SOLV>
-0.553254

>  <SCORE.INTRA.SOLV.lig_0>
-33.7882

>  <SCORE.INTRA.VDW>
-0.410933

>  <SCORE.INTRA.VDW.0>
-0.593976

>  <SCORE.INTRA.norm>
-0.0403137

>  <SCORE.RESTR>
0

>  <SCORE.RESTR.CAVITY>
0

>  <SCORE.RESTR.norm>
0

>  <SCORE.SYSTEM>
0

>  <SCORE.SYSTEM.CONST>
0

>  <SCORE.SYSTEM.DIHEDRAL>
0

>  <SCORE.SYSTEM.SOLV>
0

>  <SCORE.SYSTEM.norm>
0

>  <SCORE.heavy>
10

>  <SCORE.norm>
-1.01215

>  <RMSD>
1.510

$$$$
ligand
 OpenBabel11021811473D
libRbt.so/2013.1/901 2013/11/27
 10  9  0  0  0  0  0  0  0  0999 V2000
   31.8133   15.5454   20.9356 N   0  0  0  0  0  0  0  0  0  0  0  0
   30.9369   16.4604   21.7238 C   0  0  2  0  0  0  0  0  0  0  0  0
   31.6789   17.6790   22.1906 C   0  0  0  0  0  0  0  0  0  0  0  0
   32.8904   17.7834   22.0237 O   0  0  0  0  0  0  0  0  0  0  0  0
   30.2985   15.6990   22.8819 C   0  0  0  0  0  0  0  0  0  0  0  0
   29.2828   14.4227   22.2045 S   0  0  0  0  0  0  0  0  0  0  0  0
   27.7924   15.3123   21.8962 C   0  0  0  0  0  0  0  0  0  0  0  0
   27.1544   14.7757   20.6187 C   0  0  0  0  0  0  0  0  0  0  0  0
   27.9825   15.1107   19.4777 N   0  0  0  0  0  0  0  0  0  0  0  0
   31.1236   18.6311   22.7345 O   0  0  0  0  0  0  0  0  0  0  0  0
  2  1  1  1  0  0  0
  2  3  1  0  0  0  0
  2  5  1  0  0  0  0
  3  4  1  0  0  0  0
  3 10  1  0  0  0  0
  5  6  1  0  0  0  0
  6  7  1  0  0  0  0
  7  8  1  0  0  0  0
  8  9  1  0  0  0  0
M  END
>  <CHROM.1>
-6.58212758,-62.43518466,-84.51545477,144.32339626,-67.68700930,30.02537240
15.97711624,21.74042613,-0.33826361,0.58746641,2.51771742

>  <Name>
ligand

>  <RI>
0

>  <Rbt.Current_Directory>
/home/itssahil/PROJECTS/Mol_Feturizer/New_Systems/rnas/3DIG

>  <Rbt.Executable>
rbdock ($Id: //depot/dev/client3/rdock/2013.1/src/exe/rbdock.cxx#4 $)

>  <Rbt.Library>
libRbt.so (2013.1, Build901 2013/11/27)

>  <Rbt.Parameter_File>
/export/apps/rDock/src/rDock_2013.1_src/data/scripts/dock_solv.prm

>  <Rbt.Receptor>
prm/blind_docking_80.prm

>  <SCORE>
-9.89025

>  <SCORE.INTER>
-11.0341

>  <SCORE.INTER.CONST>
1

>  <SCORE.INTER.POLAR>
0

>  <SCORE.INTER.ROT>
5

>  <SCORE.INTER.SOLV>
13.3125

>  <SCORE.INTER.VDW>
-18.7269

>  <SCORE.INTER.norm>
-1.10341

>  <SCORE.INTRA>
1.14383

>  <SCORE.INTRA.DIHEDRAL>
1.56827

>  <SCORE.INTRA.DIHEDRAL.0>
2.60093

>  <SCORE.INTRA.POLAR>
0

>  <SCORE.INTRA.POLAR.0>
0

>  <SCORE.INTRA.REPUL>
0

>  <SCORE.INTRA.REPUL.0>
0

>  <SCORE.INTRA.SOLV>
1.63221

>  <SCORE.INTRA.SOLV.lig_0>
-33.7882

>  <SCORE.INTRA.VDW>
-0.456405

>  <SCORE.INTRA.VDW.0>
-0.593976

>  <SCORE.INTRA.norm>
0.114383

>  <SCORE.RESTR>
0

>  <SCORE.RESTR.CAVITY>
0

>  <SCORE.RESTR.norm>
0

>  <SCORE.SYSTEM>
0

>  <SCORE.SYSTEM.CONST>
0

>  <SCORE.SYSTEM.DIHEDRAL>
0

>  <SCORE.SYSTEM.SOLV>
0

>  <SCORE.SYSTEM.norm>
0

>  <SCORE.heavy>
10

>  <SCORE.norm>
-0.989025

>  <RMSD>
1.520

$$$$
ligand
 OpenBabel11021811473D
libRbt.so/2013.1/901 2013/11/27
 10  9  0  0  0  0  0  0  0  0999 V2000
   33.0254   15.9305   20.9654 N   0  0  0  0  0  0  0  0  0  0  0  0
   31.7498   16.4363   21.5514 C   0  0  2  0  0  0  0  0  0  0  0  0
   31.9680   17.6630   22.3886 C   0  0  0  0  0  0  0  0  0  0  0  0
   31.0758   18.4927   22.5379 O   0  0  0  0  0  0  0  0  0  0  0  0
   31.0599   15.3229   22.3343 C   0  0  0  0  0  0  0  0  0  0  0  0
   29.3381   15.7049   22.4279 S   0  0  0  0  0  0  0  0  0  0  0  0
   28.7996   15.2077   20.8246 C   0  0  0  0  0  0  0  0  0  0  0  0
   27.2978   15.4505   20.7127 C   0  0  0  0  0  0  0  0  0  0  0  0
   26.5934   14.6213   21.6698 N   0  0  0  0  0  0  0  0  0  0  0  0
   33.0223   17.8901   22.9782 O   0  0  0  0  0  0  0  0  0  0  0  0
  2  1  1  1  0  0  0
  2  3  1  0  0  0  0
  2  5  1  0  0  0  0
  3  4  1  0  0  0  0
  3 10  1  0  0  0  0
  5  6  1  0  0  0  0
  6  7  1  0  0  0  0
  7  8  1  0  0  0  0
  8  9  1  0  0  0  0
M  END
>  <CHROM.1>
152.63910781,-156.86025818,78.81183750,179.37040229,-63.29934992,30.28616651
16.23692661,21.92353040,-0.46266824,-0.08759847,-2.59982277

>  <Name>
ligand

>  <RI>
0

>  <Rbt.Current_Directory>
/home/itssahil/PROJECTS/Mol_Feturizer/New_Systems/rnas/3DIG

>  <Rbt.Executable>
rbdock ($Id: //depot/dev/client3/rdock/2013.1/src/exe/rbdock.cxx#4 $)

>  <Rbt.Library>
libRbt.so (2013.1, Build901 2013/11/27)

>  <Rbt.Parameter_File>
/export/apps/rDock/src/rDock_2013.1_src/data/scripts/dock_solv.prm

>  <Rbt.Receptor>
prm/pocket_docking_6.prm

>  <SCORE>
-8.50061

>  <SCORE.INTER>
-8.31791

>  <SCORE.INTER.CONST>
1

>  <SCORE.INTER.POLAR>
0

>  <SCORE.INTER.ROT>
5

>  <SCORE.INTER.SOLV>
19.4843

>  <SCORE.INTER.VDW>
-18.9734

>  <SCORE.INTER.norm>
-0.831791

>  <SCORE.INTRA>
-0.182704

>  <SCORE.INTRA.DIHEDRAL>
1.13379

>  <SCORE.INTRA.DIHEDRAL.0>
2.60093

>  <SCORE.INTRA.POLAR>
0

>  <SCORE.INTRA.POLAR.0>
0

>  <SCORE.INTRA.REPUL>
0

>  <SCORE.INTRA.REPUL.0>
0

>  <SCORE.INTRA.SOLV>
-0.308382

>  <SCORE.INTRA.SOLV.lig_0>
-33.7882

>  <SCORE.INTRA.VDW>
-0.595406

>  <SCORE.INTRA.VDW.0>
-0.593976

>  <SCORE.INTRA.norm>
-0.0182704

>  <SCORE.RESTR>
0

>  <SCORE.RESTR.CAVITY>
0

>  <SCORE.RESTR.norm>
0

>  <SCORE.SYSTEM>
0

>  <SCORE.SYSTEM.CONST>
0

>  <SCORE.SYSTEM.DIHEDRAL>
0

>  <SCORE.SYSTEM.SOLV>
0

>  <SCORE.SYSTEM.norm>
0

>  <SCORE.heavy>
10

>  <SCORE.norm>
-0.850061

>  <RMSD>
1.531

$$$$
ligand
 OpenBabel11021811473D
libRbt.so/2013.1/901 2013/11/27
 10  9  0  0  0  0  0  0  0  0999 V2000
   30.8503   16.7883   20.7069 N   0  0  0  0  0  0  0  0  0  0  0  0
   30.9241   16.9527   22.1881 C   0  0  2  0  0  0  0  0  0  0  0  0
   32.2644   17.4674   22.6264 C   0  0  0  0  0  0  0  0  0  0  0  0
   33.2427   16.7272   22.6674 O   0  0  0  0  0  0  0  0  0  0  0  0
   30.5612   15.6397   22.8756 C   0  0  0  0  0  0  0  0  0  0  0  0
   28.8200   15.3964   22.7073 S   0  0  0  0  0  0  0  0  0  0  0  0
   28.7545   14.5014   21.1899 C   0  0  0  0  0  0  0  0  0  0  0  0
   27.3435   14.6033   20.6191 C   0  0  0  0  0  0  0  0  0  0  0  0
   27.0696   15.9713   20.2275 N   0  0  0  0  0  0  0  0  0  0  0  0
   32.4593   18.6396   22.9407 O   0  0  0  0  0  0  0  0  0  0  0  0
  2  1  1  6  0  0  0
  2  3  1  0  0  0  0
  2  5  1  0  0  0  0
  3  4  1  0  0  0  0
  3 10  1  0  0  0  0
  5  6  1  0  0  0  0
  6  7  1  0  0  0  0
  7  8  1  0  0  0  0
  8  9  1  0  0  0  0
M  END
>  <CHROM.1>
-76.54457050,-72.80975766,89.96257248,-160.73200716,66.92880537,30.10449399
16.18542803,21.98106231,0.05331788,-0.55021518,-0.89909622

>  <Name>
ligand

>  <RI>
0

>  <Rbt.Current_Directory>
/home/itssahil/PROJECTS/Mol_Feturizer/New_Systems/rnas/3DIG

>  <Rbt.Executable>
rbdock ($Id: //depot/dev/client3/rdock/2013.1/src/exe/rbdock.cxx#4 $)

>  <Rbt.Library>
libRbt.so (2013.1, Build901 2013/11/27)

>  <Rbt.Parameter_File>
/export/apps/rDock/src/rDock_2013.1_src/data/scripts/dock_solv.prm

>  <Rbt.Receptor>
prm/blind_docking_60.prm

>  <SCORE>
-8.01212

>  <SCORE.INTER>
-9.44236

>  <SCORE.INTER.CONST>
1

>  <SCORE.INTER.POLAR>
0

>  <SCORE.INTER.ROT>
5

>  <SCORE.INTER.SOLV>
16.0102

>  <SCORE.INTER.VDW>
-18.565

>  <SCORE.INTER.norm>
-0.944236

>  <SCORE.INTRA>
1.43024

>  <SCORE.INTRA.DIHEDRAL>
1.34044

>  <SCORE.INTRA.DIHEDRAL.0>
2.60093

>  <SCORE.INTRA.POLAR>
0

>  <SCORE.INTRA.POLAR.0>
0

>  <SCORE.INTRA.REPUL>
0

>  <SCORE.INTRA.REPUL.0>
0

>  <SCORE.INTRA.SOLV>
2.38533

>  <SCORE.INTRA.SOLV.lig_0>
-33.7882

>  <SCORE.INTRA.VDW>
-0.432651

>  <SCORE.INTRA.VDW.0>
-0.593976

>  <SCORE.INTRA.norm>
0.143024

>  <SCORE.RESTR>
0

>  <SCORE.RESTR.CAVITY>
0

>  <SCORE.RESTR.norm>
0

>  <SCORE.SYSTEM>
0

>  <SCORE.SYSTEM.CONST>
0

>  <SCORE.SYSTEM.DIHEDRAL>
0

>  <SCORE.SYSTEM.SOLV>
0

>  <SCORE.SYSTEM.norm>
0

>  <SCORE.heavy>
10

>  <SCORE.norm>
-0.801212

>  <RMSD>
1.544

$$$$
ligand
 OpenBabel11021811473D
libRbt.so/2013.1/901 2013/11/27
 10  9  0  0  0  0  0  0  0  0999 V2000
   33.8465   16.7116   21.3998 N   0  0  0  0  0  0  0  0  0  0  0  0
   32.4455   17.1477   21.6710 C   0  0  2  0  0  0  0  0  0  0  0  0
   32.3938   18.2788   22.6565 C   0  0  0  0  0  0  0  0  0  0  0  0
   33.4035   18.6459   23.2501 O   0  0  0  0  0  0  0  0  0  0  0  0
   31.6080   15.9547   22.1226 C   0  0  0  0  0  0  0  0  0  0  0  0
   29.9038   16.3853   21.9502 S   0  0  0  0  0  0  0  0  0  0  0  0
   29.1299   14.8686   22.4067 C   0  0  0  0  0  0  0  0  0  0  0  0
   27.6750   14.9014   21.9491 C   0  0  0  0  0  0  0  0  0  0  0  0
   27.6161   14.9553   20.5023 N   0  0  0  0  0  0  0  0  0  0  0  0
   31.3642   18.9031   22.9028 O   0  0  0  0  0  0  0  0  0  0  0  0
  2  1  1  1  0  0  0
  2  3  1  0  0  0  0
  2  5  1  0  0  0  0
  3  4  1  0  0  0  0
  3 10  1  0  0  0  0
  5  6  1  0  0  0  0
  6  7  1  0  0  0  0
  7  8  1  0  0  0  0
  8  9  1  0  0  0  0
M  END
>  <CHROM.1>
-7.91510002,-162.79384982,176.31295581,-164.08564648,64.59388025,30.82929937
16.67135400,22.08655851,-0.57199829,-0.12383750,-2.63097774

>  <Name>
ligand

>  <RI>
0

>  <Rbt.Current_Directory>
/home/itssahil/PROJECTS/Mol_Feturizer/New_Systems/rnas/3DIG

>  <Rbt.Executable>
rbdock ($Id: //depot/dev/client3/rdock/2013.1/src/exe/rbdock.cxx#4 $)

>  <Rbt.Library>
libRbt.so (2013.1, Build901 2013/11/27)

>  <Rbt.Parameter_File>
/export/apps/rDock/src/rDock_2013.1_src/data/scripts/dock_solv.prm

>  <Rbt.Receptor>
prm/pocket_docking_6.prm

>  <SCORE>
-10.0966

>  <SCORE.INTER>
-9.67555

>  <SCORE.INTER.CONST>
1

>  <SCORE.INTER.POLAR>
0

>  <SCORE.INTER.ROT>
5

>  <SCORE.INTER.SOLV>
15.028

>  <SCORE.INTER.VDW>
-18.393

>  <SCORE.INTER.norm>
-0.967555

>  <SCORE.INTRA>
-0.42101

>  <SCORE.INTRA.DIHEDRAL>
0.418802

>  <SCORE.INTRA.DIHEDRAL.0>
2.60093

>  <SCORE.INTRA.POLAR>
0

>  <SCORE.INTRA.POLAR.0>
0

>  <SCORE.INTRA.REPUL>
0

>  <SCORE.INTRA.REPUL.0>
0

>  <SCORE.INTRA.SOLV>
-0.534099

>  <SCORE.INTRA.SOLV.lig_0>
-33.7882

>  <SCORE.INTRA.VDW>
-0.363362

>  <SCORE.INTRA.VDW.0>
-0.593976

>  <SCORE.INTRA.norm>
-0.042101

>  <SCORE.RESTR>
0

>  <SCORE.RESTR.CAVITY>
0

>  <SCORE.RESTR.norm>
0

>  <SCORE.SYSTEM>
0

>  <SCORE.SYSTEM.CONST>
0

>  <SCORE.SYSTEM.DIHEDRAL>
0

>  <SCORE.SYSTEM.SOLV>
0

>  <SCORE.SYSTEM.norm>
0

>  <SCORE.heavy>
10

>  <SCORE.norm>
-1.00966

>  <RMSD>
1.552

$$$$
ligand
 OpenBabel11021811473D
libRbt.so/2013.1/901 2013/11/27
 10  9  0  0  0  0  0  0  0  0999 V2000
   33.3781   16.7980   20.8846 N   0  0  0  0  0  0  0  0  0  0  0  0
   32.1138   17.0158   21.6465 C   0  0  2  0  0  0  0  0  0  0  0  0
   32.2620   18.0982   22.6761 C   0  0  0  0  0  0  0  0  0  0  0  0
   31.3239   18.8402   22.9519 O   0  0  0  0  0  0  0  0  0  0  0  0
   31.6439   15.7004   22.2608 C   0  0  0  0  0  0  0  0  0  0  0  0
   30.0485   15.9663   22.9702 S   0  0  0  0  0  0  0  0  0  0  0  0
   29.0324   15.0551   21.8543 C   0  0  0  0  0  0  0  0  0  0  0  0
   28.8264   15.8824   20.5893 C   0  0  0  0  0  0  0  0  0  0  0  0
   27.9894   15.1542   19.6570 N   0  0  0  0  0  0  0  0  0  0  0  0
   33.3020   18.2842   23.3042 O   0  0  0  0  0  0  0  0  0  0  0  0
  2  1  1  1  0  0  0
  2  3  1  0  0  0  0
  2  5  1  0  0  0  0
  3  4  1  0  0  0  0
  3 10  1  0  0  0  0
  5  6  1  0  0  0  0
  6  7  1  0  0  0  0
  7  8  1  0  0  0  0
  8  9  1  0  0  0  0
M  END
>  <CHROM.1>
145.91569600,-172.83034626,109.37269290,-78.19004133,-179.83141975,30.89477604
16.62542627,22.02578690,-0.55035852,-0.39603102,-1.99547307

>  <Name>
ligand

>  <RI>
0

>  <Rbt.Current_Directory>
/home/itssahil/PROJECTS/Mol_Feturizer/New_Systems/rnas/3DIG

>  <Rbt.Executable>
rbdock ($Id: //depot/dev/client3/rdock/2013.1/src/exe/rbdock.cxx#4 $)

>  <Rbt.Library>
libRbt.so (2013.1, Build901 2013/11/27)

>  <Rbt.Parameter_File>
/export/apps/rDock/src/rDock_2013.1_src/data/scripts/dock_solv.prm

>  <Rbt.Receptor>
prm/blind_docking_80.prm

>  <SCORE>
-8.83095

>  <SCORE.INTER>
-8.52111

>  <SCORE.INTER.CONST>
1

>  <SCORE.INTER.POLAR>
0

>  <SCORE.INTER.ROT>
5

>  <SCORE.INTER.SOLV>
13.4562

>  <SCORE.INTER.VDW>
-17.0995

>  <SCORE.INTER.norm>
-0.852111

>  <SCORE.INTRA>
-0.30984

>  <SCORE.INTRA.DIHEDRAL>
1.77041

>  <SCORE.INTRA.DIHEDRAL.0>
2.60093

>  <SCORE.INTRA.POLAR>
0

>  <SCORE.INTRA.POLAR.0>
0

>  <SCORE.INTRA.REPUL>
0

>  <SCORE.INTRA.REPUL.0>
0

>  <SCORE.INTRA.SOLV>
-1.33234

>  <SCORE.INTRA.SOLV.lig_0>
-33.7882

>  <SCORE.INTRA.VDW>
-0.528879

>  <SCORE.INTRA.VDW.0>
-0.593976

>  <SCORE.INTRA.norm>
-0.030984

>  <SCORE.RESTR>
0

>  <SCORE.RESTR.CAVITY>
0

>  <SCORE.RESTR.norm>
0

>  <SCORE.SYSTEM>
0

>  <SCORE.SYSTEM.CONST>
0

>  <SCORE.SYSTEM.DIHEDRAL>
0

>  <SCORE.SYSTEM.SOLV>
0

>  <SCORE.SYSTEM.norm>
0

>  <SCORE.heavy>
10

>  <SCORE.norm>
-0.883095

>  <RMSD>
1.597

$$$$
ligand
 OpenBabel11021811473D
libRbt.so/2013.1/901 2013/11/27
 10  9  0  0  0  0  0  0  0  0999 V2000
   33.6547   16.7820   21.0005 N   0  0  0  0  0  0  0  0  0  0  0  0
   32.3417   17.0993   21.6343 C   0  0  2  0  0  0  0  0  0  0  0  0
   32.4825   18.1132   22.7323 C   0  0  0  0  0  0  0  0  0  0  0  0
   31.5451   18.8422   23.0429 O   0  0  0  0  0  0  0  0  0  0  0  0
   31.6755   15.8156   22.1209 C   0  0  0  0  0  0  0  0  0  0  0  0
   30.0483   16.2194   22.6760 S   0  0  0  0  0  0  0  0  0  0  0  0
   29.2443   14.6591   22.5120 C   0  0  0  0  0  0  0  0  0  0  0  0
   28.8593   14.4553   21.0501 C   0  0  0  0  0  0  0  0  0  0  0  0
   27.9028   15.4670   20.6483 N   0  0  0  0  0  0  0  0  0  0  0  0
   33.5152   18.2523   23.3841 O   0  0  0  0  0  0  0  0  0  0  0  0
  2  1  1  1  0  0  0
  2  3  1  0  0  0  0
  2  5  1  0  0  0  0
  3  4  1  0  0  0  0
  3 10  1  0  0  0  0
  5  6  1  0  0  0  0
  6  7  1  0  0  0  0
  7  8  1  0  0  0  0
  8  9  1  0  0  0  0
M  END
>  <CHROM.1>
153.84700318,-173.05290686,156.39153894,-80.08514703,-63.27701141,31.01475947
16.55698945,22.17062013,-0.59620657,-0.25958617,-2.42595154

>  <Name>
ligand

>  <RI>
0

>  <Rbt.Current_Directory>
/home/itssahil/PROJECTS/Mol_Feturizer/New_Systems/rnas/3DIG

>  <Rbt.Executable>
rbdock ($Id: //depot/dev/client3/rdock/2013.1/src/exe/rbdock.cxx#4 $)

>  <Rbt.Library>
libRbt.so (2013.1, Build901 2013/11/27)

>  <Rbt.Parameter_File>
/export/apps/rDock/src/rDock_2013.1_src/data/scripts/dock_solv.prm

>  <Rbt.Receptor>
prm/pocket_docking_4.prm

>  <SCORE>
-8.7261

>  <SCORE.INTER>
-8.58979

>  <SCORE.INTER.CONST>
1

>  <SCORE.INTER.POLAR>
0

>  <SCORE.INTER.ROT>
5

>  <SCORE.INTER.SOLV>
14.5565

>  <SCORE.INTER.VDW>
-17.512

>  <SCORE.INTER.norm>
-0.858979

>  <SCORE.INTRA>
-0.136301

>  <SCORE.INTRA.DIHEDRAL>
0.485418

>  <SCORE.INTRA.DIHEDRAL.0>
2.60093

>  <SCORE.INTRA.POLAR>
0

>  <SCORE.INTRA.POLAR.0>
0

>  <SCORE.INTRA.REPUL>
0

>  <SCORE.INTRA.REPUL.0>
0

>  <SCORE.INTRA.SOLV>
-0.257017

>  <SCORE.INTRA.SOLV.lig_0>
-33.7882

>  <SCORE.INTRA.VDW>
-0.250501

>  <SCORE.INTRA.VDW.0>
-0.593976

>  <SCORE.INTRA.norm>
-0.0136301

>  <SCORE.RESTR>
0

>  <SCORE.RESTR.CAVITY>
0

>  <SCORE.RESTR.norm>
0

>  <SCORE.SYSTEM>
0

>  <SCORE.SYSTEM.CONST>
0

>  <SCORE.SYSTEM.DIHEDRAL>
0

>  <SCORE.SYSTEM.SOLV>
0

>  <SCORE.SYSTEM.norm>
0

>  <SCORE.heavy>
10

>  <SCORE.norm>
-0.87261

>  <RMSD>
1.625

$$$$
ligand
 OpenBabel11021811473D
libRbt.so/2013.1/901 2013/11/27
 10  9  0  0  0  0  0  0  0  0999 V2000
   33.8952   16.7960   21.6055 N   0  0  0  0  0  0  0  0  0  0  0  0
   32.4777   17.2175   21.8042 C   0  0  2  0  0  0  0  0  0  0  0  0
   32.3639   18.3486   22.7845 C   0  0  0  0  0  0  0  0  0  0  0  0
   33.3364   18.7221   23.4336 O   0  0  0  0  0  0  0  0  0  0  0  0
   31.6307   16.0161   22.2138 C   0  0  0  0  0  0  0  0  0  0  0  0
   29.9324   16.4337   21.9673 S   0  0  0  0  0  0  0  0  0  0  0  0
   29.1504   14.9135   22.3976 C   0  0  0  0  0  0  0  0  0  0  0  0
   27.7053   14.9484   21.9103 C   0  0  0  0  0  0  0  0  0  0  0  0
   27.6765   15.0316   20.4639 N   0  0  0  0  0  0  0  0  0  0  0  0
   31.3182   18.9666   22.9723 O   0  0  0  0  0  0  0  0  0  0  0  0
  2  1  1  1  0  0  0
  2  3  1  0  0  0  0
  2  5  1  0  0  0  0
  3  4  1  0  0  0  0
  3 10  1  0  0  0  0
  5  6  1  0  0  0  0
  6  7  1  0  0  0  0
  7  8  1  0  0  0  0
  8  9  1  0  0  0  0
M  END
>  <CHROM.1>
-8.29269664,-163.28291438,176.80804678,-165.52876545,63.76507241,30.84015886
16.73376235,22.15452204,-0.59476086,-0.08353541,-2.64555492

>  <Name>
ligand

>  <RI>
0

>  <Rbt.Current_Directory>
/home/itssahil/PROJECTS/Mol_Feturizer/New_Systems/rnas/3DIG

>  <Rbt.Executable>
rbdock ($Id: //depot/dev/client3/rdock/2013.1/src/exe/rbdock.cxx#4 $)

>  <Rbt.Library>
libRbt.so (2013.1, Build901 2013/11/27)

>  <Rbt.Parameter_File>
/export/apps/rDock/src/rDock_2013.1_src/data/scripts/dock_solv.prm

>  <Rbt.Receptor>
prm/blind_docking_80.prm

>  <SCORE>
-10.0001

>  <SCORE.INTER>
-9.51925

>  <SCORE.INTER.CONST>
1

>  <SCORE.INTER.POLAR>
0

>  <SCORE.INTER.ROT>
5

>  <SCORE.INTER.SOLV>
14.9092

>  <SCORE.INTER.VDW>
-18.2492

>  <SCORE.INTER.norm>
-0.951925

>  <SCORE.INTRA>
-0.480827

>  <SCORE.INTRA.DIHEDRAL>
0.271563

>  <SCORE.INTRA.DIHEDRAL.0>
2.60093

>  <SCORE.INTRA.POLAR>
0

>  <SCORE.INTRA.POLAR.0>
0

>  <SCORE.INTRA.REPUL>
0

>  <SCORE.INTRA.REPUL.0>
0

>  <SCORE.INTRA.SOLV>
-0.535526

>  <SCORE.INTRA.SOLV.lig_0>
-33.7882

>  <SCORE.INTRA.VDW>
-0.348845

>  <SCORE.INTRA.VDW.0>
-0.593976

>  <SCORE.INTRA.norm>
-0.0480827

>  <SCORE.RESTR>
0

>  <SCORE.RESTR.CAVITY>
0

>  <SCORE.RESTR.norm>
0

>  <SCORE.SYSTEM>
0

>  <SCORE.SYSTEM.CONST>
0

>  <SCORE.SYSTEM.DIHEDRAL>
0

>  <SCORE.SYSTEM.SOLV>
0

>  <SCORE.SYSTEM.norm>
0

>  <SCORE.heavy>
10

>  <SCORE.norm>
-1.00001

>  <RMSD>
1.641

$$$$
ligand
 OpenBabel11021811473D
libRbt.so/2013.1/901 2013/11/27
 10  9  0  0  0  0  0  0  0  0999 V2000
   30.5979   17.1394   21.1857 N   0  0  0  0  0  0  0  0  0  0  0  0
   31.1848   16.4362   22.3637 C   0  0  2  0  0  0  0  0  0  0  0  0
   32.6847   16.4118   22.3088 C   0  0  0  0  0  0  0  0  0  0  0  0
   33.3560   16.5231   23.3304 O   0  0  0  0  0  0  0  0  0  0  0  0
   30.5923   15.0348   22.4808 C   0  0  0  0  0  0  0  0  0  0  0  0
   28.8330   15.1854   22.5187 S   0  0  0  0  0  0  0  0  0  0  0  0
   28.4292   14.7868   20.8496 C   0  0  0  0  0  0  0  0  0  0  0  0
   27.0285   15.3082   20.5443 C   0  0  0  0  0  0  0  0  0  0  0  0
   26.0605   14.6407   21.3912 N   0  0  0  0  0  0  0  0  0  0  0  0
   33.3121   16.2595   21.2630 O   0  0  0  0  0  0  0  0  0  0  0  0
  2  1  1  6  0  0  0
  2  3  1  0  0  0  0
  2  5  1  0  0  0  0
  3  4  1  0  0  0  0
  3 10  1  0  0  0  0
  5  6  1  0  0  0  0
  6  7  1  0  0  0  0
  7  8  1  0  0  0  0
  8  9  1  0  0  0  0
M  END
>  <CHROM.1>
143.28758013,-54.37280993,100.20511243,-160.95633110,-62.91134878,30.09256307
15.70908494,21.90465495,-0.07069993,-0.30082067,-1.22017986

>  <Name>
ligand

>  <RI>
0

>  <Rbt.Current_Directory>
/home/itssahil/PROJECTS/Mol_Feturizer/New_Systems/rnas/3DIG

>  <Rbt.Executable>
rbdock ($Id: //depot/dev/client3/rdock/2013.1/src/exe/rbdock.cxx#4 $)

>  <Rbt.Library>
libRbt.so (2013.1, Build901 2013/11/27)

>  <Rbt.Parameter_File>
/export/apps/rDock/src/rDock_2013.1_src/data/scripts/dock_solv.prm

>  <Rbt.Receptor>
prm/pocket_docking_5.prm

>  <SCORE>
-8.51386

>  <SCORE.INTER>
-9.58145

>  <SCORE.INTER.CONST>
1

>  <SCORE.INTER.POLAR>
0

>  <SCORE.INTER.ROT>
5

>  <SCORE.INTER.SOLV>
19.3273

>  <SCORE.INTER.VDW>
-19.7634

>  <SCORE.INTER.norm>
-0.958145

>  <SCORE.INTRA>
1.06759

>  <SCORE.INTRA.DIHEDRAL>
1.37022

>  <SCORE.INTRA.DIHEDRAL.0>
2.60093

>  <SCORE.INTRA.POLAR>
0

>  <SCORE.INTRA.POLAR.0>
0

>  <SCORE.INTRA.REPUL>
0

>  <SCORE.INTRA.REPUL.0>
0

>  <SCORE.INTRA.SOLV>
1.59255

>  <SCORE.INTRA.SOLV.lig_0>
-33.7882

>  <SCORE.INTRA.VDW>
-0.413792

>  <SCORE.INTRA.VDW.0>
-0.593976

>  <SCORE.INTRA.norm>
0.106759

>  <SCORE.RESTR>
0

>  <SCORE.RESTR.CAVITY>
0

>  <SCORE.RESTR.norm>
0

>  <SCORE.SYSTEM>
0

>  <SCORE.SYSTEM.CONST>
0

>  <SCORE.SYSTEM.DIHEDRAL>
0

>  <SCORE.SYSTEM.SOLV>
0

>  <SCORE.SYSTEM.norm>
0

>  <SCORE.heavy>
10

>  <SCORE.norm>
-0.851386

>  <RMSD>
1.659

$$$$
ligand
 OpenBabel11021811473D
libRbt.so/2013.1/901 2013/11/27
 10  9  0  0  0  0  0  0  0  0999 V2000
   30.8934   17.8305   22.1361 N   0  0  0  0  0  0  0  0  0  0  0  0
   31.5138   16.5508   22.5876 C   0  0  2  0  0  0  0  0  0  0  0  0
   32.9726   16.4846   22.2397 C   0  0  0  0  0  0  0  0  0  0  0  0
   33.8319   16.7991   23.0578 O   0  0  0  0  0  0  0  0  0  0  0  0
   30.7348   15.3672   22.0212 C   0  0  0  0  0  0  0  0  0  0  0  0
   29.0617   15.4991   22.5711 S   0  0  0  0  0  0  0  0  0  0  0  0
   28.2735   14.3207   21.5233 C   0  0  0  0  0  0  0  0  0  0  0  0
   26.9063   14.8612   21.1160 C   0  0  0  0  0  0  0  0  0  0  0  0
   27.0708   16.0246   20.2679 N   0  0  0  0  0  0  0  0  0  0  0  0
   33.3815   16.0982   21.1469 O   0  0  0  0  0  0  0  0  0  0  0  0
  2  1  1  6  0  0  0
  2  3  1  0  0  0  0
  2  5  1  0  0  0  0
  3  4  1  0  0  0  0
  3 10  1  0  0  0  0
  5  6  1  0  0  0  0
  6  7  1  0  0  0  0
  7  8  1  0  0  0  0
  8  9  1  0  0  0  0
M  END
>  <CHROM.1>
95.88851731,-58.32252743,166.76812635,-141.90380921,66.93648154,30.34501514
15.93007368,21.94326727,0.20078024,-0.23401411,-0.23515819

>  <Name>
ligand

>  <RI>
0

>  <Rbt.Current_Directory>
/home/itssahil/PROJECTS/Mol_Feturizer/New_Systems/rnas/3DIG

>  <Rbt.Executable>
rbdock ($Id: //depot/dev/client3/rdock/2013.1/src/exe/rbdock.cxx#4 $)

>  <Rbt.Library>
libRbt.so (2013.1, Build901 2013/11/27)

>  <Rbt.Parameter_File>
/export/apps/rDock/src/rDock_2013.1_src/data/scripts/dock_solv.prm

>  <Rbt.Receptor>
prm/blind_docking_100.prm

>  <SCORE>
-8.29002

>  <SCORE.INTER>
-8.9738

>  <SCORE.INTER.CONST>
1

>  <SCORE.INTER.POLAR>
0

>  <SCORE.INTER.ROT>
5

>  <SCORE.INTER.SOLV>
18.6101

>  <SCORE.INTER.VDW>
-19.1192

>  <SCORE.INTER.norm>
-0.89738

>  <SCORE.INTRA>
0.68378

>  <SCORE.INTRA.DIHEDRAL>
1.10863

>  <SCORE.INTRA.DIHEDRAL.0>
2.60093

>  <SCORE.INTRA.POLAR>
0

>  <SCORE.INTRA.POLAR.0>
0

>  <SCORE.INTRA.REPUL>
0

>  <SCORE.INTRA.REPUL.0>
0

>  <SCORE.INTRA.SOLV>
0.576285

>  <SCORE.INTRA.SOLV.lig_0>
-33.7882

>  <SCORE.INTRA.VDW>
-0.158679

>  <SCORE.INTRA.VDW.0>
-0.593976

>  <SCORE.INTRA.norm>
0.068378

>  <SCORE.RESTR>
0

>  <SCORE.RESTR.CAVITY>
0

>  <SCORE.RESTR.norm>
0

>  <SCORE.SYSTEM>
0

>  <SCORE.SYSTEM.CONST>
0

>  <SCORE.SYSTEM.DIHEDRAL>
0

>  <SCORE.SYSTEM.SOLV>
0

>  <SCORE.SYSTEM.norm>
0

>  <SCORE.heavy>
10

>  <SCORE.norm>
-0.829002

>  <RMSD>
1.678

$$$$
ligand
 OpenBabel11021811473D
libRbt.so/2013.1/901 2013/11/27
 10  9  0  0  0  0  0  0  0  0999 V2000
   30.7341   17.4476   21.5189 N   0  0  0  0  0  0  0  0  0  0  0  0
   31.7547   16.4606   21.9780 C   0  0  2  0  0  0  0  0  0  0  0  0
   33.0942   16.7087   21.3474 C   0  0  0  0  0  0  0  0  0  0  0  0
   33.2468   16.6189   20.1328 O   0  0  0  0  0  0  0  0  0  0  0  0
   31.2557   15.0410   21.7249 C   0  0  0  0  0  0  0  0  0  0  0  0
   29.7305   14.8339   22.5910 S   0  0  0  0  0  0  0  0  0  0  0  0
   28.5706   15.1155   21.2936 C   0  0  0  0  0  0  0  0  0  0  0  0
   27.1673   14.8255   21.8167 C   0  0  0  0  0  0  0  0  0  0  0  0
   26.1945   15.0575   20.7681 N   0  0  0  0  0  0  0  0  0  0  0  0
   34.0877   17.0312   21.9953 O   0  0  0  0  0  0  0  0  0  0  0  0
  2  1  1  6  0  0  0
  2  3  1  0  0  0  0
  2  5  1  0  0  0  0
  3  4  1  0  0  0  0
  3 10  1  0  0  0  0
  5  6  1  0  0  0  0
  6  7  1  0  0  0  0
  7  8  1  0  0  0  0
  8  9  1  0  0  0  0
M  END
>  <CHROM.1>
-62.92470971,-58.43314190,98.01393111,173.75695923,179.68867767,30.52472863
15.80066332,21.62647512,0.21561442,-0.22943057,-0.90498766

>  <Name>
ligand

>  <RI>
0

>  <Rbt.Current_Directory>
/home/itssahil/PROJECTS/Mol_Feturizer/New_Systems/rnas/3DIG

>  <Rbt.Executable>
rbdock ($Id: //depot/dev/client3/rdock/2013.1/src/exe/rbdock.cxx#4 $)

>  <Rbt.Library>
libRbt.so (2013.1, Build901 2013/11/27)

>  <Rbt.Parameter_File>
/export/apps/rDock/src/rDock_2013.1_src/data/scripts/dock_solv.prm

>  <Rbt.Receptor>
prm/pocket_docking_8.prm

>  <SCORE>
-9.34408

>  <SCORE.INTER>
-9.5407

>  <SCORE.INTER.CONST>
1

>  <SCORE.INTER.POLAR>
0

>  <SCORE.INTER.ROT>
5

>  <SCORE.INTER.SOLV>
19.3234

>  <SCORE.INTER.VDW>
-19.7349

>  <SCORE.INTER.norm>
-0.95407

>  <SCORE.INTRA>
0.196624

>  <SCORE.INTRA.DIHEDRAL>
0.65446

>  <SCORE.INTRA.DIHEDRAL.0>
2.60093

>  <SCORE.INTRA.POLAR>
0

>  <SCORE.INTRA.POLAR.0>
0

>  <SCORE.INTRA.REPUL>
0

>  <SCORE.INTRA.REPUL.0>
0

>  <SCORE.INTRA.SOLV>
0.48481

>  <SCORE.INTRA.SOLV.lig_0>
-33.7882

>  <SCORE.INTRA.VDW>
-0.373011

>  <SCORE.INTRA.VDW.0>
-0.593976

>  <SCORE.INTRA.norm>
0.0196624

>  <SCORE.RESTR>
0

>  <SCORE.RESTR.CAVITY>
0

>  <SCORE.RESTR.norm>
0

>  <SCORE.SYSTEM>
0

>  <SCORE.SYSTEM.CONST>
0

>  <SCORE.SYSTEM.DIHEDRAL>
0

>  <SCORE.SYSTEM.SOLV>
0

>  <SCORE.SYSTEM.norm>
0

>  <SCORE.heavy>
10

>  <SCORE.norm>
-0.934408

>  <RMSD>
1.729

$$$$
ligand
 OpenBabel11021811473D
libRbt.so/2013.1/901 2013/11/27
 10  9  0  0  0  0  0  0  0  0999 V2000
   30.8019   17.4775   21.6478 N   0  0  0  0  0  0  0  0  0  0  0  0
   31.8149   16.4419   22.0055 C   0  0  2  0  0  0  0  0  0  0  0  0
   33.1376   16.7037   21.3459 C   0  0  0  0  0  0  0  0  0  0  0  0
   33.2662   16.6092   20.1288 O   0  0  0  0  0  0  0  0  0  0  0  0
   31.2757   15.0525   21.6781 C   0  0  0  0  0  0  0  0  0  0  0  0
   29.7617   14.8306   22.5601 S   0  0  0  0  0  0  0  0  0  0  0  0
   28.5855   15.1179   21.2788 C   0  0  0  0  0  0  0  0  0  0  0  0
   27.1880   14.8357   21.8214 C   0  0  0  0  0  0  0  0  0  0  0  0
   26.2034   15.0559   20.7814 N   0  0  0  0  0  0  0  0  0  0  0  0
   34.1401   17.0426   21.9712 O   0  0  0  0  0  0  0  0  0  0  0  0
  2  1  1  6  0  0  0
  2  3  1  0  0  0  0
  2  5  1  0  0  0  0
  3  4  1  0  0  0  0
  3 10  1  0  0  0  0
  5  6  1  0  0  0  0
  6  7  1  0  0  0  0
  7  8  1  0  0  0  0
  8  9  1  0  0  0  0
M  END
>  <CHROM.1>
-67.50991861,-57.46709387,101.41625962,174.54585960,-179.58240224,30.55807316
15.80287471,21.62704933,0.21426336,-0.22942796,-0.90371476

>  <Name>
ligand

>  <RI>
0

>  <Rbt.Current_Directory>
/home/itssahil/PROJECTS/Mol_Feturizer/New_Systems/rnas/3DIG

>  <Rbt.Executable>
rbdock ($Id: //depot/dev/client3/rdock/2013.1/src/exe/rbdock.cxx#4 $)

>  <Rbt.Library>
libRbt.so (2013.1, Build901 2013/11/27)

>  <Rbt.Parameter_File>
/export/apps/rDock/src/rDock_2013.1_src/data/scripts/dock_solv.prm

>  <Rbt.Receptor>
prm/blind_docking_100.prm

>  <SCORE>
-9.34608

>  <SCORE.INTER>
-9.62649

>  <SCORE.INTER.CONST>
1

>  <SCORE.INTER.POLAR>
0

>  <SCORE.INTER.ROT>
5

>  <SCORE.INTER.SOLV>
19.2388

>  <SCORE.INTER.VDW>
-19.7639

>  <SCORE.INTER.norm>
-0.962649

>  <SCORE.INTRA>
0.280417

>  <SCORE.INTRA.DIHEDRAL>
0.831331

>  <SCORE.INTRA.DIHEDRAL.0>
2.60093

>  <SCORE.INTRA.POLAR>
0

>  <SCORE.INTRA.POLAR.0>
0

>  <SCORE.INTRA.REPUL>
0

>  <SCORE.INTRA.REPUL.0>
0

>  <SCORE.INTRA.SOLV>
0.408335

>  <SCORE.INTRA.SOLV.lig_0>
-33.7882

>  <SCORE.INTRA.VDW>
-0.339416

>  <SCORE.INTRA.VDW.0>
-0.593976

>  <SCORE.INTRA.norm>
0.0280417

>  <SCORE.RESTR>
0

>  <SCORE.RESTR.CAVITY>
0

>  <SCORE.RESTR.norm>
0

>  <SCORE.SYSTEM>
0

>  <SCORE.SYSTEM.CONST>
0

>  <SCORE.SYSTEM.DIHEDRAL>
0

>  <SCORE.SYSTEM.SOLV>
0

>  <SCORE.SYSTEM.norm>
0

>  <SCORE.heavy>
10

>  <SCORE.norm>
-0.934608

>  <RMSD>
1.738

$$$$
ligand
 OpenBabel11021811473D
libRbt.so/2013.1/901 2013/11/27
 10  9  0  0  0  0  0  0  0  0999 V2000
   31.8126   17.2569   22.7990 N   0  0  0  0  0  0  0  0  0  0  0  0
   32.3373   16.1120   21.9988 C   0  0  2  0  0  0  0  0  0  0  0  0
   33.5358   16.5034   21.1840 C   0  0  0  0  0  0  0  0  0  0  0  0
   34.1476   17.5413   21.4188 O   0  0  0  0  0  0  0  0  0  0  0  0
   31.2232   15.5272   21.1356 C   0  0  0  0  0  0  0  0  0  0  0  0
   29.9337   14.9726   22.2075 S   0  0  0  0  0  0  0  0  0  0  0  0
   28.5788   14.8899   21.0827 C   0  0  0  0  0  0  0  0  0  0  0  0
   27.2806   14.8182   21.8805 C   0  0  0  0  0  0  0  0  0  0  0  0
   26.1476   14.8297   20.9773 N   0  0  0  0  0  0  0  0  0  0  0  0
   33.9768   15.8103   20.2698 O   0  0  0  0  0  0  0  0  0  0  0  0
  2  1  1  6  0  0  0
  2  3  1  0  0  0  0
  2  5  1  0  0  0  0
  3  4  1  0  0  0  0
  3 10  1  0  0  0  0
  5  6  1  0  0  0  0
  6  7  1  0  0  0  0
  7  8  1  0  0  0  0
  8  9  1  0  0  0  0
M  END
>  <CHROM.1>
15.39500974,-59.99942615,160.77665890,-163.80939850,176.62116439,30.82463965
15.74005428,21.56058098,0.13388144,0.26786326,0.98273125

>  <Name>
ligand

>  <RI>
0

>  <Rbt.Current_Directory>
/home/itssahil/PROJECTS/Mol_Feturizer/New_Systems/rnas/3DIG

>  <Rbt.Executable>
rbdock ($Id: //depot/dev/client3/rdock/2013.1/src/exe/rbdock.cxx#4 $)

>  <Rbt.Library>
libRbt.so (2013.1, Build901 2013/11/27)

>  <Rbt.Parameter_File>
/export/apps/rDock/src/rDock_2013.1_src/data/scripts/dock_solv.prm

>  <Rbt.Receptor>
prm/blind_docking_60.prm

>  <SCORE>
-10.124

>  <SCORE.INTER>
-9.80981

>  <SCORE.INTER.CONST>
1

>  <SCORE.INTER.POLAR>
0

>  <SCORE.INTER.ROT>
5

>  <SCORE.INTER.SOLV>
18.2541

>  <SCORE.INTER.VDW>
-19.5579

>  <SCORE.INTER.norm>
-0.980981

>  <SCORE.INTRA>
-0.314223

>  <SCORE.INTRA.DIHEDRAL>
-0.123334

>  <SCORE.INTRA.DIHEDRAL.0>
2.60093

>  <SCORE.INTRA.POLAR>
0

>  <SCORE.INTRA.POLAR.0>
0

>  <SCORE.INTRA.REPUL>
0

>  <SCORE.INTRA.REPUL.0>
0

>  <SCORE.INTRA.SOLV>
-0.570838

>  <SCORE.INTRA.SOLV.lig_0>
-33.7882

>  <SCORE.INTRA.VDW>
0.0328629

>  <SCORE.INTRA.VDW.0>
-0.593976

>  <SCORE.INTRA.norm>
-0.0314223

>  <SCORE.RESTR>
0

>  <SCORE.RESTR.CAVITY>
0

>  <SCORE.RESTR.norm>
0

>  <SCORE.SYSTEM>
0

>  <SCORE.SYSTEM.CONST>
0

>  <SCORE.SYSTEM.DIHEDRAL>
0

>  <SCORE.SYSTEM.SOLV>
0

>  <SCORE.SYSTEM.norm>
0

>  <SCORE.heavy>
10

>  <SCORE.norm>
-1.0124

>  <RMSD>
1.799

$$$$
ligand
 OpenBabel11021811473D
libRbt.so/2013.1/901 2013/11/27
 10  9  0  0  0  0  0  0  0  0999 V2000
   31.6997   15.7559   22.9405 N   0  0  0  0  0  0  0  0  0  0  0  0
   31.5463   15.7406   21.4564 C   0  0  2  0  0  0  0  0  0  0  0  0
   32.8217   16.1161   20.7595 C   0  0  0  0  0  0  0  0  0  0  0  0
   33.5828   16.9499   21.2413 O   0  0  0  0  0  0  0  0  0  0  0  0
   30.3824   16.6375   21.0449 C   0  0  0  0  0  0  0  0  0  0  0  0
   28.9027   15.9674   21.7383 S   0  0  0  0  0  0  0  0  0  0  0  0
   28.6485   14.5708   20.6930 C   0  0  0  0  0  0  0  0  0  0  0  0
   28.2519   15.0614   19.3042 C   0  0  0  0  0  0  0  0  0  0  0  0
   28.0171   13.9287   18.4315 N   0  0  0  0  0  0  0  0  0  0  0  0
   33.1798   15.6043   19.7009 O   0  0  0  0  0  0  0  0  0  0  0  0
  2  1  1  1  0  0  0
  2  3  1  0  0  0  0
  2  5  1  0  0  0  0
  3  4  1  0  0  0  0
  3 10  1  0  0  0  0
  5  6  1  0  0  0  0
  6  7  1  0  0  0  0
  7  8  1  0  0  0  0
  8  9  1  0  0  0  0
M  END
>  <CHROM.1>
-34.94666576,-62.97574552,-74.19976066,-69.69519717,-179.11713565,30.53374667
15.68044562,20.83378036,0.33921162,0.18841005,1.19540530

>  <Name>
ligand

>  <RI>
0

>  <Rbt.Current_Directory>
/home/itssahil/PROJECTS/Mol_Feturizer/New_Systems/rnas/3DIG

>  <Rbt.Executable>
rbdock ($Id: //depot/dev/client3/rdock/2013.1/src/exe/rbdock.cxx#4 $)

>  <Rbt.Library>
libRbt.so (2013.1, Build901 2013/11/27)

>  <Rbt.Parameter_File>
/export/apps/rDock/src/rDock_2013.1_src/data/scripts/dock_solv.prm

>  <Rbt.Receptor>
prm/pocket_docking_7.prm

>  <SCORE>
-9.1635

>  <SCORE.INTER>
-8.77143

>  <SCORE.INTER.CONST>
1

>  <SCORE.INTER.POLAR>
0

>  <SCORE.INTER.ROT>
5

>  <SCORE.INTER.SOLV>
16.5665

>  <SCORE.INTER.VDW>
-18.3031

>  <SCORE.INTER.norm>
-0.877143

>  <SCORE.INTRA>
-0.392067

>  <SCORE.INTRA.DIHEDRAL>
-0.558094

>  <SCORE.INTRA.DIHEDRAL.0>
2.60093

>  <SCORE.INTRA.POLAR>
0

>  <SCORE.INTRA.POLAR.0>
0

>  <SCORE.INTRA.REPUL>
0

>  <SCORE.INTRA.REPUL.0>
0

>  <SCORE.INTRA.SOLV>
-0.0639425

>  <SCORE.INTRA.SOLV.lig_0>
-33.7882

>  <SCORE.INTRA.VDW>
-0.081049

>  <SCORE.INTRA.VDW.0>
-0.593976

>  <SCORE.INTRA.norm>
-0.0392067

>  <SCORE.RESTR>
0

>  <SCORE.RESTR.CAVITY>
0

>  <SCORE.RESTR.norm>
0

>  <SCORE.SYSTEM>
0

>  <SCORE.SYSTEM.CONST>
0

>  <SCORE.SYSTEM.DIHEDRAL>
0

>  <SCORE.SYSTEM.SOLV>
0

>  <SCORE.SYSTEM.norm>
0

>  <SCORE.heavy>
10

>  <SCORE.norm>
-0.91635

>  <RMSD>
1.862

$$$$
ligand
 OpenBabel11021811473D
libRbt.so/2013.1/901 2013/11/27
 10  9  0  0  0  0  0  0  0  0999 V2000
   31.9677   17.4233   22.6671 N   0  0  0  0  0  0  0  0  0  0  0  0
   32.1786   16.1871   21.8586 C   0  0  2  0  0  0  0  0  0  0  0  0
   33.2103   16.3902   20.7873 C   0  0  0  0  0  0  0  0  0  0  0  0
   34.0394   17.2914   20.8715 O   0  0  0  0  0  0  0  0  0  0  0  0
   30.8475   15.7052   21.2889 C   0  0  0  0  0  0  0  0  0  0  0  0
   29.7698   15.3484   22.6419 S   0  0  0  0  0  0  0  0  0  0  0  0
   28.4535   14.5223   21.8096 C   0  0  0  0  0  0  0  0  0  0  0  0
   27.7100   15.5322   20.9411 C   0  0  0  0  0  0  0  0  0  0  0  0
   26.6667   14.8616   20.1916 N   0  0  0  0  0  0  0  0  0  0  0  0
   33.2960   15.6669   19.7972 O   0  0  0  0  0  0  0  0  0  0  0  0
  2  1  1  6  0  0  0
  2  3  1  0  0  0  0
  2  5  1  0  0  0  0
  3  4  1  0  0  0  0
  3 10  1  0  0  0  0
  5  6  1  0  0  0  0
  6  7  1  0  0  0  0
  7  8  1  0  0  0  0
  8  9  1  0  0  0  0
M  END
>  <CHROM.1>
21.35435557,-60.53696021,-169.18990429,-68.99170909,176.98070324,30.72779825
15.83751209,21.41821096,0.01250655,0.29492128,1.35322392

>  <Name>
ligand

>  <RI>
0

>  <Rbt.Current_Directory>
/home/itssahil/PROJECTS/Mol_Feturizer/New_Systems/rnas/3DIG

>  <Rbt.Executable>
rbdock ($Id: //depot/dev/client3/rdock/2013.1/src/exe/rbdock.cxx#4 $)

>  <Rbt.Library>
libRbt.so (2013.1, Build901 2013/11/27)

>  <Rbt.Parameter_File>
/export/apps/rDock/src/rDock_2013.1_src/data/scripts/dock_solv.prm

>  <Rbt.Receptor>
prm/pocket_docking_7.prm

>  <SCORE>
-10.1252

>  <SCORE.INTER>
-9.91774

>  <SCORE.INTER.CONST>
1

>  <SCORE.INTER.POLAR>
0

>  <SCORE.INTER.ROT>
5

>  <SCORE.INTER.SOLV>
16.6678

>  <SCORE.INTER.VDW>
-19.1011

>  <SCORE.INTER.norm>
-0.991774

>  <SCORE.INTRA>
-0.207429

>  <SCORE.INTRA.DIHEDRAL>
-0.787404

>  <SCORE.INTRA.DIHEDRAL.0>
2.60093

>  <SCORE.INTRA.POLAR>
0

>  <SCORE.INTRA.POLAR.0>
0

>  <SCORE.INTRA.REPUL>
0

>  <SCORE.INTRA.REPUL.0>
0

>  <SCORE.INTRA.SOLV>
-0.53236

>  <SCORE.INTRA.SOLV.lig_0>
-33.7882

>  <SCORE.INTRA.VDW>
0.452454

>  <SCORE.INTRA.VDW.0>
-0.593976

>  <SCORE.INTRA.norm>
-0.0207429

>  <SCORE.RESTR>
0

>  <SCORE.RESTR.CAVITY>
0

>  <SCORE.RESTR.norm>
0

>  <SCORE.SYSTEM>
0

>  <SCORE.SYSTEM.CONST>
0

>  <SCORE.SYSTEM.DIHEDRAL>
0

>  <SCORE.SYSTEM.SOLV>
0

>  <SCORE.SYSTEM.norm>
0

>  <SCORE.heavy>
10

>  <SCORE.norm>
-1.01252

>  <RMSD>
1.863

$$$$
ligand
 OpenBabel11021811473D
libRbt.so/2013.1/901 2013/11/27
 10  9  0  0  0  0  0  0  0  0999 V2000
   31.5597   17.4511   22.4892 N   0  0  0  0  0  0  0  0  0  0  0  0
   31.8622   16.0983   21.9371 C   0  0  2  0  0  0  0  0  0  0  0  0
   32.9866   16.1397   20.9434 C   0  0  0  0  0  0  0  0  0  0  0  0
   32.9272   15.5031   19.8956 O   0  0  0  0  0  0  0  0  0  0  0  0
   30.5970   15.4831   21.3463 C   0  0  0  0  0  0  0  0  0  0  0  0
   29.3412   15.5151   22.5877 S   0  0  0  0  0  0  0  0  0  0  0  0
   28.0711   14.5801   21.8000 C   0  0  0  0  0  0  0  0  0  0  0  0
   27.4148   15.4460   20.7292 C   0  0  0  0  0  0  0  0  0  0  0  0
   28.2863   15.5455   19.5758 N   0  0  0  0  0  0  0  0  0  0  0  0
   33.9990   16.8168   21.1086 O   0  0  0  0  0  0  0  0  0  0  0  0
  2  1  1  6  0  0  0
  2  3  1  0  0  0  0
  2  5  1  0  0  0  0
  3  4  1  0  0  0  0
  3 10  1  0  0  0  0
  5  6  1  0  0  0  0
  6  7  1  0  0  0  0
  7  8  1  0  0  0  0
  8  9  1  0  0  0  0
M  END
>  <CHROM.1>
-137.29089486,-53.92822505,-172.54020432,-75.16183561,75.47329767,30.58240289
15.82127823,21.37490606,0.00687218,0.23312469,1.33316541

>  <Name>
ligand

>  <RI>
0

>  <Rbt.Current_Directory>
/home/itssahil/PROJECTS/Mol_Feturizer/New_Systems/rnas/3DIG

>  <Rbt.Executable>
rbdock ($Id: //depot/dev/client3/rdock/2013.1/src/exe/rbdock.cxx#4 $)

>  <Rbt.Library>
libRbt.so (2013.1, Build901 2013/11/27)

>  <Rbt.Parameter_File>
/export/apps/rDock/src/rDock_2013.1_src/data/scripts/dock_solv.prm

>  <Rbt.Receptor>
prm/pocket_docking_3.prm

>  <SCORE>
-9.89736

>  <SCORE.INTER>
-11.8143

>  <SCORE.INTER.CONST>
1

>  <SCORE.INTER.POLAR>
0

>  <SCORE.INTER.ROT>
5

>  <SCORE.INTER.SOLV>
11.7586

>  <SCORE.INTER.VDW>
-18.7291

>  <SCORE.INTER.norm>
-1.18143

>  <SCORE.INTRA>
1.91698

>  <SCORE.INTRA.DIHEDRAL>
0.3843

>  <SCORE.INTRA.DIHEDRAL.0>
2.60093

>  <SCORE.INTRA.POLAR>
0

>  <SCORE.INTRA.POLAR.0>
0

>  <SCORE.INTRA.REPUL>
0

>  <SCORE.INTRA.REPUL.0>
0

>  <SCORE.INTRA.SOLV>
1.59706

>  <SCORE.INTRA.SOLV.lig_0>
-33.7882

>  <SCORE.INTRA.VDW>
0.926301

>  <SCORE.INTRA.VDW.0>
-0.593976

>  <SCORE.INTRA.norm>
0.191698

>  <SCORE.RESTR>
0

>  <SCORE.RESTR.CAVITY>
0

>  <SCORE.RESTR.norm>
0

>  <SCORE.SYSTEM>
0

>  <SCORE.SYSTEM.CONST>
0

>  <SCORE.SYSTEM.DIHEDRAL>
0

>  <SCORE.SYSTEM.SOLV>
0

>  <SCORE.SYSTEM.norm>
0

>  <SCORE.heavy>
10

>  <SCORE.norm>
-0.989736

>  <RMSD>
1.896

$$$$
ligand
 OpenBabel11021811473D
libRbt.so/2013.1/901 2013/11/27
 10  9  0  0  0  0  0  0  0  0999 V2000
   32.1361   17.0436   22.7956 N   0  0  0  0  0  0  0  0  0  0  0  0
   32.1978   15.9827   21.7482 C   0  0  2  0  0  0  0  0  0  0  0  0
   33.1907   16.3169   20.6730 C   0  0  0  0  0  0  0  0  0  0  0  0
   33.2771   15.6320   19.6581 O   0  0  0  0  0  0  0  0  0  0  0  0
   30.8035   15.7291   21.1824 C   0  0  0  0  0  0  0  0  0  0  0  0
   29.8466   14.9192   22.4265 S   0  0  0  0  0  0  0  0  0  0  0  0
   28.2138   15.3627   21.9314 C   0  0  0  0  0  0  0  0  0  0  0  0
   27.8894   14.6578   20.6180 C   0  0  0  0  0  0  0  0  0  0  0  0
   26.6295   15.1475   20.0959 N   0  0  0  0  0  0  0  0  0  0  0  0
   33.9417   17.2879   20.7363 O   0  0  0  0  0  0  0  0  0  0  0  0
  2  1  1  1  0  0  0
  2  3  1  0  0  0  0
  2  5  1  0  0  0  0
  3  4  1  0  0  0  0
  3 10  1  0  0  0  0
  5  6  1  0  0  0  0
  6  7  1  0  0  0  0
  7  8  1  0  0  0  0
  8  9  1  0  0  0  0
M  END
>  <CHROM.1>
-172.27561240,-70.63016581,155.58127313,68.53349695,-172.15342199,30.73398976
15.71579280,21.30537684,-0.01727629,0.28381086,1.47980807

>  <Name>
ligand

>  <RI>
0

>  <Rbt.Current_Directory>
/home/itssahil/PROJECTS/Mol_Feturizer/New_Systems/rnas/3DIG

>  <Rbt.Executable>
rbdock ($Id: //depot/dev/client3/rdock/2013.1/src/exe/rbdock.cxx#4 $)

>  <Rbt.Library>
libRbt.so (2013.1, Build901 2013/11/27)

>  <Rbt.Parameter_File>
/export/apps/rDock/src/rDock_2013.1_src/data/scripts/dock_solv.prm

>  <Rbt.Receptor>
prm/pocket_docking_6.prm

>  <SCORE>
-9.64554

>  <SCORE.INTER>
-9.97144

>  <SCORE.INTER.CONST>
1

>  <SCORE.INTER.POLAR>
0

>  <SCORE.INTER.ROT>
5

>  <SCORE.INTER.SOLV>
16.6022

>  <SCORE.INTER.VDW>
-19.115

>  <SCORE.INTER.norm>
-0.997144

>  <SCORE.INTRA>
0.325902

>  <SCORE.INTRA.DIHEDRAL>
0.490477

>  <SCORE.INTRA.DIHEDRAL.0>
2.60093

>  <SCORE.INTRA.POLAR>
0

>  <SCORE.INTRA.POLAR.0>
0

>  <SCORE.INTRA.REPUL>
0

>  <SCORE.INTRA.REPUL.0>
0

>  <SCORE.INTRA.SOLV>
-0.394541

>  <SCORE.INTRA.SOLV.lig_0>
-33.7882

>  <SCORE.INTRA.VDW>
0.277934

>  <SCORE.INTRA.VDW.0>
-0.593976

>  <SCORE.INTRA.norm>
0.0325902

>  <SCORE.RESTR>
0

>  <SCORE.RESTR.CAVITY>
0

>  <SCORE.RESTR.norm>
0

>  <SCORE.SYSTEM>
0

>  <SCORE.SYSTEM.CONST>
0

>  <SCORE.SYSTEM.DIHEDRAL>
0

>  <SCORE.SYSTEM.SOLV>
0

>  <SCORE.SYSTEM.norm>
0

>  <SCORE.heavy>
10

>  <SCORE.norm>
-0.964554

>  <RMSD>
1.905

$$$$
ligand
 OpenBabel11021811473D
libRbt.so/2013.1/901 2013/11/27
 10  9  0  0  0  0  0  0  0  0999 V2000
   31.0564   17.5218   22.2998 N   0  0  0  0  0  0  0  0  0  0  0  0
   31.5077   16.1108   22.1211 C   0  0  2  0  0  0  0  0  0  0  0  0
   32.7338   16.0219   21.2595 C   0  0  0  0  0  0  0  0  0  0  0  0
   32.6952   15.4768   20.1604 O   0  0  0  0  0  0  0  0  0  0  0  0
   30.3614   15.2634   21.5766 C   0  0  0  0  0  0  0  0  0  0  0  0
   28.9703   15.4726   22.6444 S   0  0  0  0  0  0  0  0  0  0  0  0
   27.7219   14.6235   21.7344 C   0  0  0  0  0  0  0  0  0  0  0  0
   27.2902   15.4957   20.5597 C   0  0  0  0  0  0  0  0  0  0  0  0
   28.3076   15.4693   19.5282 N   0  0  0  0  0  0  0  0  0  0  0  0
   33.8173   16.4996   21.5889 O   0  0  0  0  0  0  0  0  0  0  0  0
  2  1  1  6  0  0  0
  2  3  1  0  0  0  0
  2  5  1  0  0  0  0
  3  4  1  0  0  0  0
  3 10  1  0  0  0  0
  5  6  1  0  0  0  0
  6  7  1  0  0  0  0
  7  8  1  0  0  0  0
  8  9  1  0  0  0  0
M  END
>  <CHROM.1>
-114.20399955,-53.76546010,172.27935282,-75.30914167,75.01039923,30.31315028
15.75870205,21.47884983,0.05905686,0.19192695,1.33350968

>  <Name>
ligand

>  <RI>
0

>  <Rbt.Current_Directory>
/home/itssahil/PROJECTS/Mol_Feturizer/New_Systems/rnas/3DIG

>  <Rbt.Executable>
rbdock ($Id: //depot/dev/client3/rdock/2013.1/src/exe/rbdock.cxx#4 $)

>  <Rbt.Library>
libRbt.so (2013.1, Build901 2013/11/27)

>  <Rbt.Parameter_File>
/export/apps/rDock/src/rDock_2013.1_src/data/scripts/dock_solv.prm

>  <Rbt.Receptor>
prm/pocket_docking_4.prm

>  <SCORE>
-10.1146

>  <SCORE.INTER>
-12.0377

>  <SCORE.INTER.CONST>
1

>  <SCORE.INTER.POLAR>
0

>  <SCORE.INTER.ROT>
5

>  <SCORE.INTER.SOLV>
12.3375

>  <SCORE.INTER.VDW>
-19.071

>  <SCORE.INTER.norm>
-1.20377

>  <SCORE.INTRA>
1.9231

>  <SCORE.INTRA.DIHEDRAL>
0.30738

>  <SCORE.INTRA.DIHEDRAL.0>
2.60093

>  <SCORE.INTRA.POLAR>
0

>  <SCORE.INTRA.POLAR.0>
0

>  <SCORE.INTRA.REPUL>
0

>  <SCORE.INTRA.REPUL.0>
0

>  <SCORE.INTRA.SOLV>
1.85357

>  <SCORE.INTRA.SOLV.lig_0>
-33.7882

>  <SCORE.INTRA.VDW>
0.842619

>  <SCORE.INTRA.VDW.0>
-0.593976

>  <SCORE.INTRA.norm>
0.19231

>  <SCORE.RESTR>
0

>  <SCORE.RESTR.CAVITY>
0

>  <SCORE.RESTR.norm>
0

>  <SCORE.SYSTEM>
0

>  <SCORE.SYSTEM.CONST>
0

>  <SCORE.SYSTEM.DIHEDRAL>
0

>  <SCORE.SYSTEM.SOLV>
0

>  <SCORE.SYSTEM.norm>
0

>  <SCORE.heavy>
10

>  <SCORE.norm>
-1.01146

>  <RMSD>
1.916

$$$$
ligand
 OpenBabel11021811473D
libRbt.so/2013.1/901 2013/11/27
 10  9  0  0  0  0  0  0  0  0999 V2000
   31.9522   15.9563   22.9984 N   0  0  0  0  0  0  0  0  0  0  0  0
   31.8119   15.4162   21.6146 C   0  0  2  0  0  0  0  0  0  0  0  0
   32.8192   16.0156   20.6767 C   0  0  0  0  0  0  0  0  0  0  0  0
   33.0466   15.5052   19.5838 O   0  0  0  0  0  0  0  0  0  0  0  0
   30.3812   15.6134   21.1221 C   0  0  0  0  0  0  0  0  0  0  0  0
   29.3165   14.6183   22.1197 S   0  0  0  0  0  0  0  0  0  0  0  0
   27.7410   15.2814   21.6884 C   0  0  0  0  0  0  0  0  0  0  0  0
   27.2742   14.6347   20.3881 C   0  0  0  0  0  0  0  0  0  0  0  0
   28.1304   15.0528   19.2964 N   0  0  0  0  0  0  0  0  0  0  0  0
   33.4434   17.0425   20.9348 O   0  0  0  0  0  0  0  0  0  0  0  0
  2  1  1  1  0  0  0
  2  3  1  0  0  0  0
  2  5  1  0  0  0  0
  3  4  1  0  0  0  0
  3 10  1  0  0  0  0
  5  6  1  0  0  0  0
  6  7  1  0  0  0  0
  7  8  1  0  0  0  0
  8  9  1  0  0  0  0
M  END
>  <CHROM.1>
164.63460561,-65.62858878,166.28478336,82.65071240,-67.23974638,30.47718848
15.42530509,21.14590604,-0.01511207,0.26387137,1.60015829

>  <Name>
ligand

>  <RI>
0

>  <Rbt.Current_Directory>
/home/itssahil/PROJECTS/Mol_Feturizer/New_Systems/rnas/3DIG

>  <Rbt.Executable>
rbdock ($Id: //depot/dev/client3/rdock/2013.1/src/exe/rbdock.cxx#4 $)

>  <Rbt.Library>
libRbt.so (2013.1, Build901 2013/11/27)

>  <Rbt.Parameter_File>
/export/apps/rDock/src/rDock_2013.1_src/data/scripts/dock_solv.prm

>  <Rbt.Receptor>
prm/blind_docking_100.prm

>  <SCORE>
-10.3819

>  <SCORE.INTER>
-11.1791

>  <SCORE.INTER.CONST>
1

>  <SCORE.INTER.POLAR>
0

>  <SCORE.INTER.ROT>
5

>  <SCORE.INTER.SOLV>
14.7239

>  <SCORE.INTER.VDW>
-19.294

>  <SCORE.INTER.norm>
-1.11791

>  <SCORE.INTRA>
0.797194

>  <SCORE.INTRA.DIHEDRAL>
0.209038

>  <SCORE.INTRA.DIHEDRAL.0>
2.60093

>  <SCORE.INTRA.POLAR>
0

>  <SCORE.INTRA.POLAR.0>
0

>  <SCORE.INTRA.REPUL>
0

>  <SCORE.INTRA.REPUL.0>
0

>  <SCORE.INTRA.SOLV>
1.57245

>  <SCORE.INTRA.SOLV.lig_0>
-33.7882

>  <SCORE.INTRA.VDW>
-0.0935477

>  <SCORE.INTRA.VDW.0>
-0.593976

>  <SCORE.INTRA.norm>
0.0797194

>  <SCORE.RESTR>
0

>  <SCORE.RESTR.CAVITY>
0

>  <SCORE.RESTR.norm>
0

>  <SCORE.SYSTEM>
0

>  <SCORE.SYSTEM.CONST>
0

>  <SCORE.SYSTEM.DIHEDRAL>
0

>  <SCORE.SYSTEM.SOLV>
0

>  <SCORE.SYSTEM.norm>
0

>  <SCORE.heavy>
10

>  <SCORE.norm>
-1.03819

>  <RMSD>
1.930

$$$$
ligand
 OpenBabel11021811473D
libRbt.so/2013.1/901 2013/11/27
 10  9  0  0  0  0  0  0  0  0999 V2000
   31.3301   16.9961   22.7873 N   0  0  0  0  0  0  0  0  0  0  0  0
   31.4309   16.0518   21.6364 C   0  0  2  0  0  0  0  0  0  0  0  0
   32.7115   16.2349   20.8747 C   0  0  0  0  0  0  0  0  0  0  0  0
   33.5312   17.0839   21.2122 O   0  0  0  0  0  0  0  0  0  0  0  0
   30.2047   16.1930   20.7392 C   0  0  0  0  0  0  0  0  0  0  0  0
   28.7919   15.6589   21.6546 S   0  0  0  0  0  0  0  0  0  0  0  0
   27.5320   15.7913   20.4287 C   0  0  0  0  0  0  0  0  0  0  0  0
   27.5501   14.5329   19.5667 C   0  0  0  0  0  0  0  0  0  0  0  0
   28.7648   14.4954   18.7775 N   0  0  0  0  0  0  0  0  0  0  0  0
   33.0155   15.5447   19.9042 O   0  0  0  0  0  0  0  0  0  0  0  0
  2  1  1  1  0  0  0
  2  3  1  0  0  0  0
  2  5  1  0  0  0  0
  3  4  1  0  0  0  0
  3 10  1  0  0  0  0
  5  6  1  0  0  0  0
  6  7  1  0  0  0  0
  7  8  1  0  0  0  0
  8  9  1  0  0  0  0
M  END
>  <CHROM.1>
-0.23903271,-65.68067824,-176.24957580,82.97192698,-68.13001892,30.32936655
15.84103671,20.84768932,0.29738023,0.16113071,1.09632640

>  <Name>
ligand

>  <RI>
0

>  <Rbt.Current_Directory>
/home/itssahil/PROJECTS/Mol_Feturizer/New_Systems/rnas/3DIG

>  <Rbt.Executable>
rbdock ($Id: //depot/dev/client3/rdock/2013.1/src/exe/rbdock.cxx#4 $)

>  <Rbt.Library>
libRbt.so (2013.1, Build901 2013/11/27)

>  <Rbt.Parameter_File>
/export/apps/rDock/src/rDock_2013.1_src/data/scripts/dock_solv.prm

>  <Rbt.Receptor>
prm/pocket_docking_5.prm

>  <SCORE>
-9.78385

>  <SCORE.INTER>
-10.543

>  <SCORE.INTER.CONST>
1

>  <SCORE.INTER.POLAR>
0

>  <SCORE.INTER.ROT>
5

>  <SCORE.INTER.SOLV>
11.6179

>  <SCORE.INTER.VDW>
-17.8346

>  <SCORE.INTER.norm>
-1.0543

>  <SCORE.INTRA>
0.759142

>  <SCORE.INTRA.DIHEDRAL>
0.0460991

>  <SCORE.INTRA.DIHEDRAL.0>
2.60093

>  <SCORE.INTRA.POLAR>
0

>  <SCORE.INTRA.POLAR.0>
0

>  <SCORE.INTRA.REPUL>
0

>  <SCORE.INTRA.REPUL.0>
0

>  <SCORE.INTRA.SOLV>
1.56175

>  <SCORE.INTRA.SOLV.lig_0>
-33.7882

>  <SCORE.INTRA.VDW>
-0.0447846

>  <SCORE.INTRA.VDW.0>
-0.593976

>  <SCORE.INTRA.norm>
0.0759142

>  <SCORE.RESTR>
0

>  <SCORE.RESTR.CAVITY>
0

>  <SCORE.RESTR.norm>
0

>  <SCORE.SYSTEM>
0

>  <SCORE.SYSTEM.CONST>
0

>  <SCORE.SYSTEM.DIHEDRAL>
0

>  <SCORE.SYSTEM.SOLV>
0

>  <SCORE.SYSTEM.norm>
0

>  <SCORE.heavy>
10

>  <SCORE.norm>
-0.978385

>  <RMSD>
1.933

$$$$
ligand
 OpenBabel11021811473D
libRbt.so/2013.1/901 2013/11/27
 10  9  0  0  0  0  0  0  0  0999 V2000
   32.1465   17.8032   22.7659 N   0  0  0  0  0  0  0  0  0  0  0  0
   32.3414   16.3606   22.4380 C   0  0  2  0  0  0  0  0  0  0  0  0
   32.9468   16.1744   21.0770 C   0  0  0  0  0  0  0  0  0  0  0  0
   32.4980   15.3419   20.2946 O   0  0  0  0  0  0  0  0  0  0  0  0
   31.0205   15.6109   22.5856 C   0  0  0  0  0  0  0  0  0  0  0  0
   29.8513   16.3385   21.4798 S   0  0  0  0  0  0  0  0  0  0  0  0
   28.4283   15.3491   21.8024 C   0  0  0  0  0  0  0  0  0  0  0  0
   27.4058   15.5817   20.6945 C   0  0  0  0  0  0  0  0  0  0  0  0
   26.2007   14.8262   20.9717 N   0  0  0  0  0  0  0  0  0  0  0  0
   33.8916   16.8464   20.6691 O   0  0  0  0  0  0  0  0  0  0  0  0
  2  1  1  6  0  0  0
  2  3  1  0  0  0  0
  2  5  1  0  0  0  0
  3  4  1  0  0  0  0
  3 10  1  0  0  0  0
  5  6  1  0  0  0  0
  6  7  1  0  0  0  0
  7  8  1  0  0  0  0
  8  9  1  0  0  0  0
M  END
>  <CHROM.1>
-134.37718092,59.56075246,-179.94985987,-165.62121967,-177.31573638,30.60351700
16.05662166,21.45227739,0.14458870,0.16661550,1.02756476

>  <Name>
ligand

>  <RI>
0

>  <Rbt.Current_Directory>
/home/itssahil/PROJECTS/Mol_Feturizer/New_Systems/rnas/3DIG

>  <Rbt.Executable>
rbdock ($Id: //depot/dev/client3/rdock/2013.1/src/exe/rbdock.cxx#4 $)

>  <Rbt.Library>
libRbt.so (2013.1, Build901 2013/11/27)

>  <Rbt.Parameter_File>
/export/apps/rDock/src/rDock_2013.1_src/data/scripts/dock_solv.prm

>  <Rbt.Receptor>
prm/blind_docking_80.prm

>  <SCORE>
-9.20515

>  <SCORE.INTER>
-8.91183

>  <SCORE.INTER.CONST>
1

>  <SCORE.INTER.POLAR>
0

>  <SCORE.INTER.ROT>
5

>  <SCORE.INTER.SOLV>
18.4337

>  <SCORE.INTER.VDW>
-19.0191

>  <SCORE.INTER.norm>
-0.891183

>  <SCORE.INTRA>
-0.293327

>  <SCORE.INTRA.DIHEDRAL>
-0.713956

>  <SCORE.INTRA.DIHEDRAL.0>
2.60093

>  <SCORE.INTRA.POLAR>
0

>  <SCORE.INTRA.POLAR.0>
0

>  <SCORE.INTRA.REPUL>
0

>  <SCORE.INTRA.REPUL.0>
0

>  <SCORE.INTRA.SOLV>
-0.628066

>  <SCORE.INTRA.SOLV.lig_0>
-33.7882

>  <SCORE.INTRA.VDW>
0.377684

>  <SCORE.INTRA.VDW.0>
-0.593976

>  <SCORE.INTRA.norm>
-0.0293327

>  <SCORE.RESTR>
0

>  <SCORE.RESTR.CAVITY>
0

>  <SCORE.RESTR.norm>
0

>  <SCORE.SYSTEM>
0

>  <SCORE.SYSTEM.CONST>
0

>  <SCORE.SYSTEM.DIHEDRAL>
0

>  <SCORE.SYSTEM.SOLV>
0

>  <SCORE.SYSTEM.norm>
0

>  <SCORE.heavy>
10

>  <SCORE.norm>
-0.920515

>  <RMSD>
1.935

$$$$
ligand
 OpenBabel11021811473D
libRbt.so/2013.1/901 2013/11/27
 10  9  0  0  0  0  0  0  0  0999 V2000
   31.6988   16.0535   22.9310 N   0  0  0  0  0  0  0  0  0  0  0  0
   31.6314   15.7766   21.4663 C   0  0  2  0  0  0  0  0  0  0  0  0
   32.8829   16.2082   20.7586 C   0  0  0  0  0  0  0  0  0  0  0  0
   33.2336   15.6716   19.7118 O   0  0  0  0  0  0  0  0  0  0  0  0
   30.3840   16.4238   20.8717 C   0  0  0  0  0  0  0  0  0  0  0  0
   28.9746   15.5316   21.4520 S   0  0  0  0  0  0  0  0  0  0  0  0
   27.8077   15.8895   20.1799 C   0  0  0  0  0  0  0  0  0  0  0  0
   28.2999   15.2745   18.8736 C   0  0  0  0  0  0  0  0  0  0  0  0
   28.3948   13.8353   19.0132 N   0  0  0  0  0  0  0  0  0  0  0  0
   33.6001   17.1193   21.1663 O   0  0  0  0  0  0  0  0  0  0  0  0
  2  1  1  1  0  0  0
  2  3  1  0  0  0  0
  2  5  1  0  0  0  0
  3  4  1  0  0  0  0
  3 10  1  0  0  0  0
  5  6  1  0  0  0  0
  6  7  1  0  0  0  0
  7  8  1  0  0  0  0
  8  9  1  0  0  0  0
M  END
>  <CHROM.1>
153.77026796,-70.50199362,-155.54277873,64.78682631,61.57775180,30.53038915
15.76051159,20.72233115,0.30644939,0.17695922,1.26121063

>  <Name>
ligand

>  <RI>
0

>  <Rbt.Current_Directory>
/home/itssahil/PROJECTS/Mol_Feturizer/New_Systems/rnas/3DIG

>  <Rbt.Executable>
rbdock ($Id: //depot/dev/client3/rdock/2013.1/src/exe/rbdock.cxx#4 $)

>  <Rbt.Library>
libRbt.so (2013.1, Build901 2013/11/27)

>  <Rbt.Parameter_File>
/export/apps/rDock/src/rDock_2013.1_src/data/scripts/dock_solv.prm

>  <Rbt.Receptor>
prm/pocket_docking_7.prm

>  <SCORE>
-9.21123

>  <SCORE.INTER>
-9.62809

>  <SCORE.INTER.CONST>
1

>  <SCORE.INTER.POLAR>
0

>  <SCORE.INTER.ROT>
5

>  <SCORE.INTER.SOLV>
14.3093

>  <SCORE.INTER.VDW>
-18.1218

>  <SCORE.INTER.norm>
-0.962809

>  <SCORE.INTRA>
0.416861

>  <SCORE.INTRA.DIHEDRAL>
0.121947

>  <SCORE.INTRA.DIHEDRAL.0>
2.60093

>  <SCORE.INTRA.POLAR>
0

>  <SCORE.INTRA.POLAR.0>
0

>  <SCORE.INTRA.REPUL>
0

>  <SCORE.INTRA.REPUL.0>
0

>  <SCORE.INTRA.SOLV>
0.699559

>  <SCORE.INTRA.SOLV.lig_0>
-33.7882

>  <SCORE.INTRA.VDW>
0.00610736

>  <SCORE.INTRA.VDW.0>
-0.593976

>  <SCORE.INTRA.norm>
0.0416861

>  <SCORE.RESTR>
0

>  <SCORE.RESTR.CAVITY>
0

>  <SCORE.RESTR.norm>
0

>  <SCORE.SYSTEM>
0

>  <SCORE.SYSTEM.CONST>
0

>  <SCORE.SYSTEM.DIHEDRAL>
0

>  <SCORE.SYSTEM.SOLV>
0

>  <SCORE.SYSTEM.norm>
0

>  <SCORE.heavy>
10

>  <SCORE.norm>
-0.921123

>  <RMSD>
1.938

$$$$
ligand
 OpenBabel11021811473D
libRbt.so/2013.1/901 2013/11/27
 10  9  0  0  0  0  0  0  0  0999 V2000
   31.7969   15.8663   23.0305 N   0  0  0  0  0  0  0  0  0  0  0  0
   31.6834   15.3536   21.6338 C   0  0  2  0  0  0  0  0  0  0  0  0
   32.6903   15.9917   20.7215 C   0  0  0  0  0  0  0  0  0  0  0  0
   33.2460   17.0417   21.0300 O   0  0  0  0  0  0  0  0  0  0  0  0
   30.2552   15.5348   21.1280 C   0  0  0  0  0  0  0  0  0  0  0  0
   29.1910   14.5361   22.1226 S   0  0  0  0  0  0  0  0  0  0  0  0
   27.6193   15.2306   21.7286 C   0  0  0  0  0  0  0  0  0  0  0  0
   27.1334   14.6329   20.4119 C   0  0  0  0  0  0  0  0  0  0  0  0
   27.9692   15.0979   19.3233 N   0  0  0  0  0  0  0  0  0  0  0  0
   33.0251   15.4976   19.6470 O   0  0  0  0  0  0  0  0  0  0  0  0
  2  1  1  1  0  0  0
  2  3  1  0  0  0  0
  2  5  1  0  0  0  0
  3  4  1  0  0  0  0
  3 10  1  0  0  0  0
  5  6  1  0  0  0  0
  6  7  1  0  0  0  0
  7  8  1  0  0  0  0
  8  9  1  0  0  0  0
M  END
>  <CHROM.1>
-18.46866922,-63.94093142,163.85825231,81.74464201,-68.30086030,30.34759198
15.38549625,21.17873468,-0.01941353,0.26073791,1.63414471

>  <Name>
ligand

>  <RI>
0

>  <Rbt.Current_Directory>
/home/itssahil/PROJECTS/Mol_Feturizer/New_Systems/rnas/3DIG

>  <Rbt.Executable>
rbdock ($Id: //depot/dev/client3/rdock/2013.1/src/exe/rbdock.cxx#4 $)

>  <Rbt.Library>
libRbt.so (2013.1, Build901 2013/11/27)

>  <Rbt.Parameter_File>
/export/apps/rDock/src/rDock_2013.1_src/data/scripts/dock_solv.prm

>  <Rbt.Receptor>
prm/blind_docking_60.prm

>  <SCORE>
-10.4897

>  <SCORE.INTER>
-11.4021

>  <SCORE.INTER.CONST>
1

>  <SCORE.INTER.POLAR>
0

>  <SCORE.INTER.ROT>
5

>  <SCORE.INTER.SOLV>
15.2199

>  <SCORE.INTER.VDW>
-19.608

>  <SCORE.INTER.norm>
-1.14021

>  <SCORE.INTRA>
0.912423

>  <SCORE.INTRA.DIHEDRAL>
0.346409

>  <SCORE.INTRA.DIHEDRAL.0>
2.60093

>  <SCORE.INTRA.POLAR>
0

>  <SCORE.INTRA.POLAR.0>
0

>  <SCORE.INTRA.REPUL>
0

>  <SCORE.INTRA.REPUL.0>
0

>  <SCORE.INTRA.SOLV>
1.618

>  <SCORE.INTRA.SOLV.lig_0>
-33.7882

>  <SCORE.INTRA.VDW>
-0.0697831

>  <SCORE.INTRA.VDW.0>
-0.593976

>  <SCORE.INTRA.norm>
0.0912423

>  <SCORE.RESTR>
0

>  <SCORE.RESTR.CAVITY>
0

>  <SCORE.RESTR.norm>
0

>  <SCORE.SYSTEM>
0

>  <SCORE.SYSTEM.CONST>
0

>  <SCORE.SYSTEM.DIHEDRAL>
0

>  <SCORE.SYSTEM.SOLV>
0

>  <SCORE.SYSTEM.norm>
0

>  <SCORE.heavy>
10

>  <SCORE.norm>
-1.04897

>  <RMSD>
1.947

$$$$
ligand
 OpenBabel11021811473D
libRbt.so/2013.1/901 2013/11/27
 10  9  0  0  0  0  0  0  0  0999 V2000
   31.2613   16.8156   22.9003 N   0  0  0  0  0  0  0  0  0  0  0  0
   31.3345   16.0324   21.6324 C   0  0  2  0  0  0  0  0  0  0  0  0
   32.6118   16.2935   20.8881 C   0  0  0  0  0  0  0  0  0  0  0  0
   33.3490   17.2223   21.2052 O   0  0  0  0  0  0  0  0  0  0  0  0
   30.1036   16.3140   20.7756 C   0  0  0  0  0  0  0  0  0  0  0  0
   28.6903   15.6761   21.6209 S   0  0  0  0  0  0  0  0  0  0  0  0
   27.4822   15.7325   20.3383 C   0  0  0  0  0  0  0  0  0  0  0  0
   27.6264   14.4856   19.4714 C   0  0  0  0  0  0  0  0  0  0  0  0
   28.8733   14.5406   18.7352 N   0  0  0  0  0  0  0  0  0  0  0  0
   32.9949   15.5932   19.9535 O   0  0  0  0  0  0  0  0  0  0  0  0
  2  1  1  1  0  0  0
  2  3  1  0  0  0  0
  2  5  1  0  0  0  0
  3  4  1  0  0  0  0
  3 10  1  0  0  0  0
  5  6  1  0  0  0  0
  6  7  1  0  0  0  0
  7  8  1  0  0  0  0
  8  9  1  0  0  0  0
M  END
>  <CHROM.1>
-12.04020646,-66.10481419,-166.73328682,83.00475657,-68.37846335,30.27002349
15.85552143,20.83890858,0.31384201,0.17380237,1.12225970

>  <Name>
ligand

>  <RI>
0

>  <Rbt.Current_Directory>
/home/itssahil/PROJECTS/Mol_Feturizer/New_Systems/rnas/3DIG

>  <Rbt.Executable>
rbdock ($Id: //depot/dev/client3/rdock/2013.1/src/exe/rbdock.cxx#4 $)

>  <Rbt.Library>
libRbt.so (2013.1, Build901 2013/11/27)

>  <Rbt.Parameter_File>
/export/apps/rDock/src/rDock_2013.1_src/data/scripts/dock_solv.prm

>  <Rbt.Receptor>
prm/pocket_docking_6.prm

>  <SCORE>
-9.76376

>  <SCORE.INTER>
-10.5793

>  <SCORE.INTER.CONST>
1

>  <SCORE.INTER.POLAR>
0

>  <SCORE.INTER.ROT>
5

>  <SCORE.INTER.SOLV>
11.8

>  <SCORE.INTER.VDW>
-17.9196

>  <SCORE.INTER.norm>
-1.05793

>  <SCORE.INTRA>
0.815593

>  <SCORE.INTRA.DIHEDRAL>
0.360904

>  <SCORE.INTRA.DIHEDRAL.0>
2.60093

>  <SCORE.INTRA.POLAR>
0

>  <SCORE.INTRA.POLAR.0>
0

>  <SCORE.INTRA.REPUL>
0

>  <SCORE.INTRA.REPUL.0>
0

>  <SCORE.INTRA.SOLV>
1.59891

>  <SCORE.INTRA.SOLV.lig_0>
-33.7882

>  <SCORE.INTRA.VDW>
-0.164314

>  <SCORE.INTRA.VDW.0>
-0.593976

>  <SCORE.INTRA.norm>
0.0815593

>  <SCORE.RESTR>
0

>  <SCORE.RESTR.CAVITY>
0

>  <SCORE.RESTR.norm>
0

>  <SCORE.SYSTEM>
0

>  <SCORE.SYSTEM.CONST>
0

>  <SCORE.SYSTEM.DIHEDRAL>
0

>  <SCORE.SYSTEM.SOLV>
0

>  <SCORE.SYSTEM.norm>
0

>  <SCORE.heavy>
10

>  <SCORE.norm>
-0.976376

>  <RMSD>
1.963

$$$$
ligand
 OpenBabel11021811473D
libRbt.so/2013.1/901 2013/11/27
 10  9  0  0  0  0  0  0  0  0999 V2000
   33.2549   17.6560   23.0679 N   0  0  0  0  0  0  0  0  0  0  0  0
   32.5592   16.5063   22.4194 C   0  0  2  0  0  0  0  0  0  0  0  0
   32.9992   16.3182   20.9966 C   0  0  0  0  0  0  0  0  0  0  0  0
   33.7433   17.1291   20.4531 O   0  0  0  0  0  0  0  0  0  0  0  0
   31.0477   16.6818   22.5339 C   0  0  0  0  0  0  0  0  0  0  0  0
   30.2803   15.1841   21.9979 S   0  0  0  0  0  0  0  0  0  0  0  0
   28.5771   15.5940   22.1956 C   0  0  0  0  0  0  0  0  0  0  0  0
   27.7418   14.6578   21.3279 C   0  0  0  0  0  0  0  0  0  0  0  0
   28.0182   14.9085   19.9277 N   0  0  0  0  0  0  0  0  0  0  0  0
   32.6647   15.3504   20.3168 O   0  0  0  0  0  0  0  0  0  0  0  0
  2  1  1  6  0  0  0
  2  3  1  0  0  0  0
  2  5  1  0  0  0  0
  3  4  1  0  0  0  0
  3 10  1  0  0  0  0
  5  6  1  0  0  0  0
  6  7  1  0  0  0  0
  7  8  1  0  0  0  0
  8  9  1  0  0  0  0
M  END
>  <CHROM.1>
-6.65415481,-170.76688247,-179.66655564,159.40056614,-66.03291910,31.01610584
15.90499820,21.55019232,0.18718965,0.32176600,1.18979312

>  <Name>
ligand

>  <RI>
0

>  <Rbt.Current_Directory>
/home/itssahil/PROJECTS/Mol_Feturizer/New_Systems/rnas/3DIG

>  <Rbt.Executable>
rbdock ($Id: //depot/dev/client3/rdock/2013.1/src/exe/rbdock.cxx#4 $)

>  <Rbt.Library>
libRbt.so (2013.1, Build901 2013/11/27)

>  <Rbt.Parameter_File>
/export/apps/rDock/src/rDock_2013.1_src/data/scripts/dock_solv.prm

>  <Rbt.Receptor>
prm/pocket_docking_3.prm

>  <SCORE>
-10.4457

>  <SCORE.INTER>
-10.0815

>  <SCORE.INTER.CONST>
1

>  <SCORE.INTER.POLAR>
0

>  <SCORE.INTER.ROT>
5

>  <SCORE.INTER.SOLV>
13.1259

>  <SCORE.INTER.VDW>
-18.0296

>  <SCORE.INTER.norm>
-1.00815

>  <SCORE.INTRA>
-0.364206

>  <SCORE.INTRA.DIHEDRAL>
-0.00105298

>  <SCORE.INTRA.DIHEDRAL.0>
2.60093

>  <SCORE.INTRA.POLAR>
0

>  <SCORE.INTRA.POLAR.0>
0

>  <SCORE.INTRA.REPUL>
0

>  <SCORE.INTRA.REPUL.0>
0

>  <SCORE.INTRA.SOLV>
-0.516297

>  <SCORE.INTRA.SOLV.lig_0>
-33.7882

>  <SCORE.INTRA.VDW>
-0.105531

>  <SCORE.INTRA.VDW.0>
-0.593976

>  <SCORE.INTRA.norm>
-0.0364206

>  <SCORE.RESTR>
0

>  <SCORE.RESTR.CAVITY>
0

>  <SCORE.RESTR.norm>
0

>  <SCORE.SYSTEM>
0

>  <SCORE.SYSTEM.CONST>
0

>  <SCORE.SYSTEM.DIHEDRAL>
0

>  <SCORE.SYSTEM.SOLV>
0

>  <SCORE.SYSTEM.norm>
0

>  <SCORE.heavy>
10

>  <SCORE.norm>
-1.04457

>  <RMSD>
1.967

$$$$
ligand
 OpenBabel11021811473D
libRbt.so/2013.1/901 2013/11/27
 10  9  0  0  0  0  0  0  0  0999 V2000
   31.2793   17.5589   22.9862 N   0  0  0  0  0  0  0  0  0  0  0  0
   31.5831   16.1632   22.5547 C   0  0  2  0  0  0  0  0  0  0  0  0
   32.1783   16.1220   21.1771 C   0  0  0  0  0  0  0  0  0  0  0  0
   32.0786   17.0807   20.4171 O   0  0  0  0  0  0  0  0  0  0  0  0
   30.3290   15.3008   22.6637 C   0  0  0  0  0  0  0  0  0  0  0  0
   29.0734   16.0305   21.6586 S   0  0  0  0  0  0  0  0  0  0  0  0
   27.7626   14.8709   21.8700 C   0  0  0  0  0  0  0  0  0  0  0  0
   26.7757   15.0283   20.7175 C   0  0  0  0  0  0  0  0  0  0  0  0
   27.4371   14.7377   19.4613 N   0  0  0  0  0  0  0  0  0  0  0  0
   32.8054   15.1553   20.7495 O   0  0  0  0  0  0  0  0  0  0  0  0
  2  1  1  6  0  0  0
  2  3  1  0  0  0  0
  2  5  1  0  0  0  0
  3  4  1  0  0  0  0
  3 10  1  0  0  0  0
  5  6  1  0  0  0  0
  6  7  1  0  0  0  0
  7  8  1  0  0  0  0
  8  9  1  0  0  0  0
M  END
>  <CHROM.1>
-17.46118916,58.10311031,177.85721303,-159.67579674,61.80123467,30.03289672
15.83179932,21.42712761,0.23820102,0.20093103,1.19281305

>  <Name>
ligand

>  <RI>
0

>  <Rbt.Current_Directory>
/home/itssahil/PROJECTS/Mol_Feturizer/New_Systems/rnas/3DIG

>  <Rbt.Executable>
rbdock ($Id: //depot/dev/client3/rdock/2013.1/src/exe/rbdock.cxx#4 $)

>  <Rbt.Library>
libRbt.so (2013.1, Build901 2013/11/27)

>  <Rbt.Parameter_File>
/export/apps/rDock/src/rDock_2013.1_src/data/scripts/dock_solv.prm

>  <Rbt.Receptor>
prm/pocket_docking_3.prm

>  <SCORE>
-9.85712

>  <SCORE.INTER>
-9.51211

>  <SCORE.INTER.CONST>
1

>  <SCORE.INTER.POLAR>
0

>  <SCORE.INTER.ROT>
5

>  <SCORE.INTER.SOLV>
15.3623

>  <SCORE.INTER.VDW>
-18.3955

>  <SCORE.INTER.norm>
-0.951211

>  <SCORE.INTRA>
-0.345017

>  <SCORE.INTRA.DIHEDRAL>
-0.41366

>  <SCORE.INTRA.DIHEDRAL.0>
2.60093

>  <SCORE.INTRA.POLAR>
0

>  <SCORE.INTRA.POLAR.0>
0

>  <SCORE.INTRA.REPUL>
0

>  <SCORE.INTRA.REPUL.0>
0

>  <SCORE.INTRA.SOLV>
0.479398

>  <SCORE.INTRA.SOLV.lig_0>
-33.7882

>  <SCORE.INTRA.VDW>
-0.377886

>  <SCORE.INTRA.VDW.0>
-0.593976

>  <SCORE.INTRA.norm>
-0.0345017

>  <SCORE.RESTR>
0

>  <SCORE.RESTR.CAVITY>
0

>  <SCORE.RESTR.norm>
0

>  <SCORE.SYSTEM>
0

>  <SCORE.SYSTEM.CONST>
0

>  <SCORE.SYSTEM.DIHEDRAL>
0

>  <SCORE.SYSTEM.SOLV>
0

>  <SCORE.SYSTEM.norm>
0

>  <SCORE.heavy>
10

>  <SCORE.norm>
-0.985712

>  <RMSD>
2.004

$$$$
ligand
 OpenBabel11021811473D
libRbt.so/2013.1/901 2013/11/27
 10  9  0  0  0  0  0  0  0  0999 V2000
   32.2116   17.4854   22.7094 N   0  0  0  0  0  0  0  0  0  0  0  0
   32.1806   16.0611   22.2660 C   0  0  2  0  0  0  0  0  0  0  0  0
   32.5620   15.9180   20.8211 C   0  0  0  0  0  0  0  0  0  0  0  0
   31.9126   15.2022   20.0644 O   0  0  0  0  0  0  0  0  0  0  0  0
   30.8118   15.4544   22.5606 C   0  0  0  0  0  0  0  0  0  0  0  0
   29.5887   16.4510   21.7667 S   0  0  0  0  0  0  0  0  0  0  0  0
   28.1638   15.4271   21.9372 C   0  0  0  0  0  0  0  0  0  0  0  0
   28.1321   14.4317   20.7816 C   0  0  0  0  0  0  0  0  0  0  0  0
   28.0572   15.1438   19.5218 N   0  0  0  0  0  0  0  0  0  0  0  0
   33.5123   16.5144   20.3192 O   0  0  0  0  0  0  0  0  0  0  0  0
  2  1  1  6  0  0  0
  2  3  1  0  0  0  0
  2  5  1  0  0  0  0
  3  4  1  0  0  0  0
  3 10  1  0  0  0  0
  5  6  1  0  0  0  0
  6  7  1  0  0  0  0
  7  8  1  0  0  0  0
  8  9  1  0  0  0  0
M  END
>  <CHROM.1>
-134.66055764,56.27025403,168.88718501,-85.42757849,-60.60988230,30.60288528
15.87977089,21.30319375,0.17822439,0.20198166,1.11937249

>  <Name>
ligand

>  <RI>
0

>  <Rbt.Current_Directory>
/home/itssahil/PROJECTS/Mol_Feturizer/New_Systems/rnas/3DIG

>  <Rbt.Executable>
rbdock ($Id: //depot/dev/client3/rdock/2013.1/src/exe/rbdock.cxx#4 $)

>  <Rbt.Library>
libRbt.so (2013.1, Build901 2013/11/27)

>  <Rbt.Parameter_File>
/export/apps/rDock/src/rDock_2013.1_src/data/scripts/dock_solv.prm

>  <Rbt.Receptor>
prm/pocket_docking_5.prm

>  <SCORE>
-9.34668

>  <SCORE.INTER>
-10.0186

>  <SCORE.INTER.CONST>
1

>  <SCORE.INTER.POLAR>
0

>  <SCORE.INTER.ROT>
5

>  <SCORE.INTER.SOLV>
11.4064

>  <SCORE.INTER.VDW>
-17.4145

>  <SCORE.INTER.norm>
-1.00186

>  <SCORE.INTRA>
0.671909

>  <SCORE.INTRA.DIHEDRAL>
0.0922984

>  <SCORE.INTRA.DIHEDRAL.0>
2.60093

>  <SCORE.INTRA.POLAR>
0

>  <SCORE.INTRA.POLAR.0>
0

>  <SCORE.INTRA.REPUL>
0

>  <SCORE.INTRA.REPUL.0>
0

>  <SCORE.INTRA.SOLV>
0.720096

>  <SCORE.INTRA.SOLV.lig_0>
-33.7882

>  <SCORE.INTRA.VDW>
0.265712

>  <SCORE.INTRA.VDW.0>
-0.593976

>  <SCORE.INTRA.norm>
0.0671909

>  <SCORE.RESTR>
0

>  <SCORE.RESTR.CAVITY>
0

>  <SCORE.RESTR.norm>
0

>  <SCORE.SYSTEM>
0

>  <SCORE.SYSTEM.CONST>
0

>  <SCORE.SYSTEM.DIHEDRAL>
0

>  <SCORE.SYSTEM.SOLV>
0

>  <SCORE.SYSTEM.norm>
0

>  <SCORE.heavy>
10

>  <SCORE.norm>
-0.934668

>  <RMSD>
2.012

$$$$
ligand
 OpenBabel11021811473D
libRbt.so/2013.1/901 2013/11/27
 10  9  0  0  0  0  0  0  0  0999 V2000
   33.1625   17.7599   22.8053 N   0  0  0  0  0  0  0  0  0  0  0  0
   32.3974   16.5663   22.3400 C   0  0  2  0  0  0  0  0  0  0  0  0
   32.8952   16.0661   21.0151 C   0  0  0  0  0  0  0  0  0  0  0  0
   32.2287   15.2832   20.3446 O   0  0  0  0  0  0  0  0  0  0  0  0
   30.9055   16.8849   22.3089 C   0  0  0  0  0  0  0  0  0  0  0  0
   30.0190   15.3574   22.3160 S   0  0  0  0  0  0  0  0  0  0  0  0
   28.4962   15.8534   21.5790 C   0  0  0  0  0  0  0  0  0  0  0  0
   27.4977   14.7057   21.6929 C   0  0  0  0  0  0  0  0  0  0  0  0
   26.2773   15.0448   20.9891 N   0  0  0  0  0  0  0  0  0  0  0  0
   33.9654   16.4220   20.5263 O   0  0  0  0  0  0  0  0  0  0  0  0
  2  1  1  6  0  0  0
  2  3  1  0  0  0  0
  2  5  1  0  0  0  0
  3  4  1  0  0  0  0
  3 10  1  0  0  0  0
  5  6  1  0  0  0  0
  6  7  1  0  0  0  0
  7  8  1  0  0  0  0
  8  9  1  0  0  0  0
M  END
>  <CHROM.1>
-164.65917653,-160.44866715,-156.05941585,-171.22765501,-174.92517624,30.71841685
15.91406317,21.64758556,0.13006048,0.22228597,0.97936324

>  <Name>
ligand

>  <RI>
0

>  <Rbt.Current_Directory>
/home/itssahil/PROJECTS/Mol_Feturizer/New_Systems/rnas/3DIG

>  <Rbt.Executable>
rbdock ($Id: //depot/dev/client3/rdock/2013.1/src/exe/rbdock.cxx#4 $)

>  <Rbt.Library>
libRbt.so (2013.1, Build901 2013/11/27)

>  <Rbt.Parameter_File>
/export/apps/rDock/src/rDock_2013.1_src/data/scripts/dock_solv.prm

>  <Rbt.Receptor>
prm/blind_docking_60.prm

>  <SCORE>
-9.56831

>  <SCORE.INTER>
-9.36876

>  <SCORE.INTER.CONST>
1

>  <SCORE.INTER.POLAR>
0

>  <SCORE.INTER.ROT>
5

>  <SCORE.INTER.SOLV>
19.0288

>  <SCORE.INTER.VDW>
-19.5221

>  <SCORE.INTER.norm>
-0.936876

>  <SCORE.INTRA>
-0.199548

>  <SCORE.INTRA.DIHEDRAL>
1.24232

>  <SCORE.INTRA.DIHEDRAL.0>
2.60093

>  <SCORE.INTRA.POLAR>
0

>  <SCORE.INTRA.POLAR.0>
0

>  <SCORE.INTRA.REPUL>
0

>  <SCORE.INTRA.REPUL.0>
0

>  <SCORE.INTRA.SOLV>
-1.54215

>  <SCORE.INTRA.SOLV.lig_0>
-33.7882

>  <SCORE.INTRA.VDW>
-0.0496305

>  <SCORE.INTRA.VDW.0>
-0.593976

>  <SCORE.INTRA.norm>
-0.0199548

>  <SCORE.RESTR>
0

>  <SCORE.RESTR.CAVITY>
0

>  <SCORE.RESTR.norm>
0

>  <SCORE.SYSTEM>
0

>  <SCORE.SYSTEM.CONST>
0

>  <SCORE.SYSTEM.DIHEDRAL>
0

>  <SCORE.SYSTEM.SOLV>
0

>  <SCORE.SYSTEM.norm>
0

>  <SCORE.heavy>
10

>  <SCORE.norm>
-0.956831

>  <RMSD>
2.060

$$$$
ligand
 OpenBabel11021811473D
libRbt.so/2013.1/901 2013/11/27
 10  9  0  0  0  0  0  0  0  0999 V2000
   33.1845   17.7902   22.7242 N   0  0  0  0  0  0  0  0  0  0  0  0
   32.4110   16.5776   22.3267 C   0  0  2  0  0  0  0  0  0  0  0  0
   32.8870   16.0161   21.0184 C   0  0  0  0  0  0  0  0  0  0  0  0
   34.0185   16.2509   20.6046 O   0  0  0  0  0  0  0  0  0  0  0  0
   30.9190   16.8968   22.3049 C   0  0  0  0  0  0  0  0  0  0  0  0
   30.0319   15.3699   22.3353 S   0  0  0  0  0  0  0  0  0  0  0  0
   28.5115   15.8538   21.5856 C   0  0  0  0  0  0  0  0  0  0  0  0
   27.5182   14.7017   21.6993 C   0  0  0  0  0  0  0  0  0  0  0  0
   26.2915   15.0404   21.0062 N   0  0  0  0  0  0  0  0  0  0  0  0
   32.1935   15.2863   20.3133 O   0  0  0  0  0  0  0  0  0  0  0  0
  2  1  1  6  0  0  0
  2  3  1  0  0  0  0
  2  5  1  0  0  0  0
  3  4  1  0  0  0  0
  3 10  1  0  0  0  0
  5  6  1  0  0  0  0
  6  7  1  0  0  0  0
  7  8  1  0  0  0  0
  8  9  1  0  0  0  0
M  END
>  <CHROM.1>
22.62199961,-162.54609568,-155.30875801,-171.98388307,-175.95876915,30.73084135
15.89984991,21.65053383,0.13294302,0.21100635,0.94073525

>  <Name>
ligand

>  <RI>
0

>  <Rbt.Current_Directory>
/home/itssahil/PROJECTS/Mol_Feturizer/New_Systems/rnas/3DIG

>  <Rbt.Executable>
rbdock ($Id: //depot/dev/client3/rdock/2013.1/src/exe/rbdock.cxx#4 $)

>  <Rbt.Library>
libRbt.so (2013.1, Build901 2013/11/27)

>  <Rbt.Parameter_File>
/export/apps/rDock/src/rDock_2013.1_src/data/scripts/dock_solv.prm

>  <Rbt.Receptor>
prm/pocket_docking_3.prm

>  <SCORE>
-9.74752

>  <SCORE.INTER>
-9.41026

>  <SCORE.INTER.CONST>
1

>  <SCORE.INTER.POLAR>
0

>  <SCORE.INTER.ROT>
5

>  <SCORE.INTER.SOLV>
19.0242

>  <SCORE.INTER.VDW>
-19.5482

>  <SCORE.INTER.norm>
-0.941026

>  <SCORE.INTRA>
-0.337257

>  <SCORE.INTRA.DIHEDRAL>
0.923824

>  <SCORE.INTRA.DIHEDRAL.0>
2.60093

>  <SCORE.INTRA.POLAR>
0

>  <SCORE.INTRA.POLAR.0>
0

>  <SCORE.INTRA.REPUL>
0

>  <SCORE.INTRA.REPUL.0>
0

>  <SCORE.INTRA.SOLV>
-1.54002

>  <SCORE.INTRA.SOLV.lig_0>
-33.7882

>  <SCORE.INTRA.VDW>
-0.0291608

>  <SCORE.INTRA.VDW.0>
-0.593976

>  <SCORE.INTRA.norm>
-0.0337257

>  <SCORE.RESTR>
0

>  <SCORE.RESTR.CAVITY>
0

>  <SCORE.RESTR.norm>
0

>  <SCORE.SYSTEM>
0

>  <SCORE.SYSTEM.CONST>
0

>  <SCORE.SYSTEM.DIHEDRAL>
0

>  <SCORE.SYSTEM.SOLV>
0

>  <SCORE.SYSTEM.norm>
0

>  <SCORE.heavy>
10

>  <SCORE.norm>
-0.974752

>  <RMSD>
2.063

$$$$
ligand
 OpenBabel11021811473D
libRbt.so/2013.1/901 2013/11/27
 10  9  0  0  0  0  0  0  0  0999 V2000
   33.1563   17.7214   22.7171 N   0  0  0  0  0  0  0  0  0  0  0  0
   32.3562   16.5177   22.3462 C   0  0  2  0  0  0  0  0  0  0  0  0
   32.7909   15.9428   21.0294 C   0  0  0  0  0  0  0  0  0  0  0  0
   33.9330   16.1115   20.6127 O   0  0  0  0  0  0  0  0  0  0  0  0
   30.8687   16.8576   22.3606 C   0  0  0  0  0  0  0  0  0  0  0  0
   29.9612   15.3431   22.4051 S   0  0  0  0  0  0  0  0  0  0  0  0
   28.4870   15.8140   21.5609 C   0  0  0  0  0  0  0  0  0  0  0  0
   27.4532   14.7035   21.7194 C   0  0  0  0  0  0  0  0  0  0  0  0
   26.2565   15.0361   20.9730 N   0  0  0  0  0  0  0  0  0  0  0  0
   32.0504   15.2656   20.3196 O   0  0  0  0  0  0  0  0  0  0  0  0
  2  1  1  6  0  0  0
  2  3  1  0  0  0  0
  2  5  1  0  0  0  0
  3  4  1  0  0  0  0
  3 10  1  0  0  0  0
  5  6  1  0  0  0  0
  6  7  1  0  0  0  0
  7  8  1  0  0  0  0
  8  9  1  0  0  0  0
M  END
>  <CHROM.1>
25.78301629,-163.12091734,-150.39269675,-169.58521201,-176.94486547,30.66402647
15.85471309,21.66941399,0.12536755,0.20527967,0.97044983

>  <Name>
ligand

>  <RI>
0

>  <Rbt.Current_Directory>
/home/itssahil/PROJECTS/Mol_Feturizer/New_Systems/rnas/3DIG

>  <Rbt.Executable>
rbdock ($Id: //depot/dev/client3/rdock/2013.1/src/exe/rbdock.cxx#4 $)

>  <Rbt.Library>
libRbt.so (2013.1, Build901 2013/11/27)

>  <Rbt.Parameter_File>
/export/apps/rDock/src/rDock_2013.1_src/data/scripts/dock_solv.prm

>  <Rbt.Receptor>
prm/pocket_docking_4.prm

>  <SCORE>
-9.78335

>  <SCORE.INTER>
-9.60027

>  <SCORE.INTER.CONST>
1

>  <SCORE.INTER.POLAR>
0

>  <SCORE.INTER.ROT>
5

>  <SCORE.INTER.SOLV>
19.0072

>  <SCORE.INTER.VDW>
-19.6692

>  <SCORE.INTER.norm>
-0.960027

>  <SCORE.INTRA>
-0.183081

>  <SCORE.INTRA.DIHEDRAL>
1.2079

>  <SCORE.INTRA.DIHEDRAL.0>
2.60093

>  <SCORE.INTRA.POLAR>
0

>  <SCORE.INTRA.POLAR.0>
0

>  <SCORE.INTRA.REPUL>
0

>  <SCORE.INTRA.REPUL.0>
0

>  <SCORE.INTRA.SOLV>
-1.54278

>  <SCORE.INTRA.SOLV.lig_0>
-33.7882

>  <SCORE.INTRA.VDW>
-0.0156445

>  <SCORE.INTRA.VDW.0>
-0.593976

>  <SCORE.INTRA.norm>
-0.0183081

>  <SCORE.RESTR>
0

>  <SCORE.RESTR.CAVITY>
0

>  <SCORE.RESTR.norm>
0

>  <SCORE.SYSTEM>
0

>  <SCORE.SYSTEM.CONST>
0

>  <SCORE.SYSTEM.DIHEDRAL>
0

>  <SCORE.SYSTEM.SOLV>
0

>  <SCORE.SYSTEM.norm>
0

>  <SCORE.heavy>
10

>  <SCORE.norm>
-0.978335

>  <RMSD>
2.080

$$$$
ligand
 OpenBabel11021811473D
libRbt.so/2013.1/901 2013/11/27
 10  9  0  0  0  0  0  0  0  0999 V2000
   31.6109   17.3251   22.7087 N   0  0  0  0  0  0  0  0  0  0  0  0
   31.6986   15.8642   22.4182 C   0  0  2  0  0  0  0  0  0  0  0  0
   32.1510   15.6011   21.0112 C   0  0  0  0  0  0  0  0  0  0  0  0
   33.2997   15.8530   20.6595 O   0  0  0  0  0  0  0  0  0  0  0  0
   30.3641   15.1917   22.7268 C   0  0  0  0  0  0  0  0  0  0  0  0
   29.1100   16.0070   21.7877 S   0  0  0  0  0  0  0  0  0  0  0  0
   27.7647   14.8849   21.9849 C   0  0  0  0  0  0  0  0  0  0  0  0
   26.8050   15.0561   20.8116 C   0  0  0  0  0  0  0  0  0  0  0  0
   27.4949   14.7778   19.5680 N   0  0  0  0  0  0  0  0  0  0  0  0
   31.4190   15.1078   20.1558 O   0  0  0  0  0  0  0  0  0  0  0  0
  2  1  1  6  0  0  0
  2  3  1  0  0  0  0
  2  5  1  0  0  0  0
  3  4  1  0  0  0  0
  3 10  1  0  0  0  0
  5  6  1  0  0  0  0
  6  7  1  0  0  0  0
  7  8  1  0  0  0  0
  8  9  1  0  0  0  0
M  END
>  <CHROM.1>
69.28978544,56.31078780,167.65290807,-155.62314531,59.91388930,30.07114872
15.61213796,21.40308902,0.16403787,0.13176995,1.16727475

>  <Name>
ligand

>  <RI>
0

>  <Rbt.Current_Directory>
/home/itssahil/PROJECTS/Mol_Feturizer/New_Systems/rnas/3DIG

>  <Rbt.Executable>
rbdock ($Id: //depot/dev/client3/rdock/2013.1/src/exe/rbdock.cxx#4 $)

>  <Rbt.Library>
libRbt.so (2013.1, Build901 2013/11/27)

>  <Rbt.Parameter_File>
/export/apps/rDock/src/rDock_2013.1_src/data/scripts/dock_solv.prm

>  <Rbt.Receptor>
prm/blind_docking_80.prm

>  <SCORE>
-11.3836

>  <SCORE.INTER>
-11.8993

>  <SCORE.INTER.CONST>
1

>  <SCORE.INTER.POLAR>
0

>  <SCORE.INTER.ROT>
5

>  <SCORE.INTER.SOLV>
14.0203

>  <SCORE.INTER.VDW>
-19.5396

>  <SCORE.INTER.norm>
-1.18993

>  <SCORE.INTRA>
0.515735

>  <SCORE.INTRA.DIHEDRAL>
0.0554162

>  <SCORE.INTRA.DIHEDRAL.0>
2.60093

>  <SCORE.INTRA.POLAR>
0

>  <SCORE.INTRA.POLAR.0>
0

>  <SCORE.INTRA.REPUL>
0

>  <SCORE.INTRA.REPUL.0>
0

>  <SCORE.INTRA.SOLV>
0.514547

>  <SCORE.INTRA.SOLV.lig_0>
-33.7882

>  <SCORE.INTRA.VDW>
0.230753

>  <SCORE.INTRA.VDW.0>
-0.593976

>  <SCORE.INTRA.norm>
0.0515735

>  <SCORE.RESTR>
0

>  <SCORE.RESTR.CAVITY>
0

>  <SCORE.RESTR.norm>
0

>  <SCORE.SYSTEM>
0

>  <SCORE.SYSTEM.CONST>
0

>  <SCORE.SYSTEM.DIHEDRAL>
0

>  <SCORE.SYSTEM.SOLV>
0

>  <SCORE.SYSTEM.norm>
0

>  <SCORE.heavy>
10

>  <SCORE.norm>
-1.13836

>  <RMSD>
2.112

$$$$
ligand
 OpenBabel11021811473D
libRbt.so/2013.1/901 2013/11/27
 10  9  0  0  0  0  0  0  0  0999 V2000
   33.3013   17.6226   22.4741 N   0  0  0  0  0  0  0  0  0  0  0  0
   32.4310   16.4407   22.2052 C   0  0  2  0  0  0  0  0  0  0  0  0
   32.7178   15.8300   20.8642 C   0  0  0  0  0  0  0  0  0  0  0  0
   33.8241   15.9395   20.3439 O   0  0  0  0  0  0  0  0  0  0  0  0
   30.9634   16.8308   22.3556 C   0  0  0  0  0  0  0  0  0  0  0  0
   30.0102   15.3476   22.4583 S   0  0  0  0  0  0  0  0  0  0  0  0
   28.5587   15.8236   21.5782 C   0  0  0  0  0  0  0  0  0  0  0  0
   27.5202   14.7135   21.7050 C   0  0  0  0  0  0  0  0  0  0  0  0
   26.3315   15.0649   20.9545 N   0  0  0  0  0  0  0  0  0  0  0  0
   31.8857   15.1801   20.2349 O   0  0  0  0  0  0  0  0  0  0  0  0
  2  1  1  6  0  0  0
  2  3  1  0  0  0  0
  2  5  1  0  0  0  0
  3  4  1  0  0  0  0
  3 10  1  0  0  0  0
  5  6  1  0  0  0  0
  6  7  1  0  0  0  0
  7  8  1  0  0  0  0
  8  9  1  0  0  0  0
M  END
>  <CHROM.1>
26.67442857,-165.12122080,-143.77391917,-172.99283512,-178.26614138,30.68690798
15.80812533,21.59740983,0.08434085,0.21342517,1.01291435

>  <Name>
ligand

>  <RI>
0

>  <Rbt.Current_Directory>
/home/itssahil/PROJECTS/Mol_Feturizer/New_Systems/rnas/3DIG

>  <Rbt.Executable>
rbdock ($Id: //depot/dev/client3/rdock/2013.1/src/exe/rbdock.cxx#4 $)

>  <Rbt.Library>
libRbt.so (2013.1, Build901 2013/11/27)

>  <Rbt.Parameter_File>
/export/apps/rDock/src/rDock_2013.1_src/data/scripts/dock_solv.prm

>  <Rbt.Receptor>
prm/pocket_docking_7.prm

>  <SCORE>
-9.67356

>  <SCORE.INTER>
-9.5824

>  <SCORE.INTER.CONST>
1

>  <SCORE.INTER.POLAR>
0

>  <SCORE.INTER.ROT>
5

>  <SCORE.INTER.SOLV>
19.0956

>  <SCORE.INTER.VDW>
-19.6868

>  <SCORE.INTER.norm>
-0.95824

>  <SCORE.INTRA>
-0.0911654

>  <SCORE.INTRA.DIHEDRAL>
1.29661

>  <SCORE.INTRA.DIHEDRAL.0>
2.60093

>  <SCORE.INTRA.POLAR>
0

>  <SCORE.INTRA.POLAR.0>
0

>  <SCORE.INTRA.REPUL>
0

>  <SCORE.INTRA.REPUL.0>
0

>  <SCORE.INTRA.SOLV>
-1.54556

>  <SCORE.INTRA.SOLV.lig_0>
-33.7882

>  <SCORE.INTRA.VDW>
0.0333051

>  <SCORE.INTRA.VDW.0>
-0.593976

>  <SCORE.INTRA.norm>
-0.00911654

>  <SCORE.RESTR>
0

>  <SCORE.RESTR.CAVITY>
0

>  <SCORE.RESTR.norm>
0

>  <SCORE.SYSTEM>
0

>  <SCORE.SYSTEM.CONST>
0

>  <SCORE.SYSTEM.DIHEDRAL>
0

>  <SCORE.SYSTEM.SOLV>
0

>  <SCORE.SYSTEM.norm>
0

>  <SCORE.heavy>
10

>  <SCORE.norm>
-0.967356

>  <RMSD>
2.115

$$$$
ligand
 OpenBabel11021811473D
libRbt.so/2013.1/901 2013/11/27
 10  9  0  0  0  0  0  0  0  0999 V2000
   31.6019   17.3181   22.6860 N   0  0  0  0  0  0  0  0  0  0  0  0
   31.6989   15.8527   22.4215 C   0  0  2  0  0  0  0  0  0  0  0  0
   32.1581   15.5676   21.0211 C   0  0  0  0  0  0  0  0  0  0  0  0
   31.3793   15.1351   20.1767 O   0  0  0  0  0  0  0  0  0  0  0  0
   30.3669   15.1783   22.7368 C   0  0  0  0  0  0  0  0  0  0  0  0
   29.1074   15.9892   21.8011 S   0  0  0  0  0  0  0  0  0  0  0  0
   27.7673   14.8612   21.9999 C   0  0  0  0  0  0  0  0  0  0  0  0
   26.7872   15.0534   20.8469 C   0  0  0  0  0  0  0  0  0  0  0  0
   27.4486   14.7744   19.5882 N   0  0  0  0  0  0  0  0  0  0  0  0
   33.3101   15.7681   20.6424 O   0  0  0  0  0  0  0  0  0  0  0  0
  2  1  1  6  0  0  0
  2  3  1  0  0  0  0
  2  5  1  0  0  0  0
  3  4  1  0  0  0  0
  3 10  1  0  0  0  0
  5  6  1  0  0  0  0
  6  7  1  0  0  0  0
  7  8  1  0  0  0  0
  8  9  1  0  0  0  0
M  END
>  <CHROM.1>
-107.19971378,55.28995406,167.40984455,-156.99716539,61.04424474,30.06227900
15.59488177,21.41229340,0.15641057,0.12816442,1.16765504

>  <Name>
ligand

>  <RI>
0

>  <Rbt.Current_Directory>
/home/itssahil/PROJECTS/Mol_Feturizer/New_Systems/rnas/3DIG

>  <Rbt.Executable>
rbdock ($Id: //depot/dev/client3/rdock/2013.1/src/exe/rbdock.cxx#4 $)

>  <Rbt.Library>
libRbt.so (2013.1, Build901 2013/11/27)

>  <Rbt.Parameter_File>
/export/apps/rDock/src/rDock_2013.1_src/data/scripts/dock_solv.prm

>  <Rbt.Receptor>
prm/pocket_docking_7.prm

>  <SCORE>
-11.2451

>  <SCORE.INTER>
-11.8966

>  <SCORE.INTER.CONST>
1

>  <SCORE.INTER.POLAR>
0

>  <SCORE.INTER.ROT>
5

>  <SCORE.INTER.SOLV>
14.1815

>  <SCORE.INTER.VDW>
-19.5916

>  <SCORE.INTER.norm>
-1.18966

>  <SCORE.INTRA>
0.651521

>  <SCORE.INTRA.DIHEDRAL>
-0.0296041

>  <SCORE.INTRA.DIHEDRAL.0>
2.60093

>  <SCORE.INTRA.POLAR>
0

>  <SCORE.INTRA.POLAR.0>
0

>  <SCORE.INTRA.REPUL>
0

>  <SCORE.INTRA.REPUL.0>
0

>  <SCORE.INTRA.SOLV>
0.500429

>  <SCORE.INTRA.SOLV.lig_0>
-33.7882

>  <SCORE.INTRA.VDW>
0.416108

>  <SCORE.INTRA.VDW.0>
-0.593976

>  <SCORE.INTRA.norm>
0.0651521

>  <SCORE.RESTR>
0

>  <SCORE.RESTR.CAVITY>
0

>  <SCORE.RESTR.norm>
0

>  <SCORE.SYSTEM>
0

>  <SCORE.SYSTEM.CONST>
0

>  <SCORE.SYSTEM.DIHEDRAL>
0

>  <SCORE.SYSTEM.SOLV>
0

>  <SCORE.SYSTEM.norm>
0

>  <SCORE.heavy>
10

>  <SCORE.norm>
-1.12451

>  <RMSD>
2.117

$$$$
ligand
 OpenBabel11021811473D
libRbt.so/2013.1/901 2013/11/27
 10  9  0  0  0  0  0  0  0  0999 V2000
   31.5962   17.3612   22.6272 N   0  0  0  0  0  0  0  0  0  0  0  0
   31.6849   15.8891   22.4002 C   0  0  2  0  0  0  0  0  0  0  0  0
   32.1307   15.5656   21.0037 C   0  0  0  0  0  0  0  0  0  0  0  0
   33.2893   15.7616   20.6492 O   0  0  0  0  0  0  0  0  0  0  0  0
   30.3531   15.2288   22.7446 C   0  0  0  0  0  0  0  0  0  0  0  0
   29.0903   16.0123   21.7902 S   0  0  0  0  0  0  0  0  0  0  0  0
   27.7644   14.8678   21.9897 C   0  0  0  0  0  0  0  0  0  0  0  0
   26.7837   15.0448   20.8348 C   0  0  0  0  0  0  0  0  0  0  0  0
   27.4429   14.7439   19.5799 N   0  0  0  0  0  0  0  0  0  0  0  0
   31.3824   15.0753   20.1608 O   0  0  0  0  0  0  0  0  0  0  0  0
  2  1  1  6  0  0  0
  2  3  1  0  0  0  0
  2  5  1  0  0  0  0
  3  4  1  0  0  0  0
  3 10  1  0  0  0  0
  5  6  1  0  0  0  0
  6  7  1  0  0  0  0
  7  8  1  0  0  0  0
  8  9  1  0  0  0  0
M  END
>  <CHROM.1>
71.78821979,55.70340511,165.64138823,-157.60008271,62.24252060,30.05108129
15.60107900,21.39892923,0.16142495,0.12634980,1.13764074

>  <Name>
ligand

>  <RI>
0

>  <Rbt.Current_Directory>
/home/itssahil/PROJECTS/Mol_Feturizer/New_Systems/rnas/3DIG

>  <Rbt.Executable>
rbdock ($Id: //depot/dev/client3/rdock/2013.1/src/exe/rbdock.cxx#4 $)

>  <Rbt.Library>
libRbt.so (2013.1, Build901 2013/11/27)

>  <Rbt.Parameter_File>
/export/apps/rDock/src/rDock_2013.1_src/data/scripts/dock_solv.prm

>  <Rbt.Receptor>
prm/blind_docking_100.prm

>  <SCORE>
-11.3634

>  <SCORE.INTER>
-11.8069

>  <SCORE.INTER.CONST>
1

>  <SCORE.INTER.POLAR>
0

>  <SCORE.INTER.ROT>
5

>  <SCORE.INTER.SOLV>
14.3182

>  <SCORE.INTER.VDW>
-19.5773

>  <SCORE.INTER.norm>
-1.18069

>  <SCORE.INTRA>
0.443477

>  <SCORE.INTRA.DIHEDRAL>
0.0603198

>  <SCORE.INTRA.DIHEDRAL.0>
2.60093

>  <SCORE.INTRA.POLAR>
0

>  <SCORE.INTRA.POLAR.0>
0

>  <SCORE.INTRA.REPUL>
0

>  <SCORE.INTRA.REPUL.0>
0

>  <SCORE.INTRA.SOLV>
0.455309

>  <SCORE.INTRA.SOLV.lig_0>
-33.7882

>  <SCORE.INTRA.VDW>
0.185663

>  <SCORE.INTRA.VDW.0>
-0.593976

>  <SCORE.INTRA.norm>
0.0443477

>  <SCORE.RESTR>
0

>  <SCORE.RESTR.CAVITY>
0

>  <SCORE.RESTR.norm>
0

>  <SCORE.SYSTEM>
0

>  <SCORE.SYSTEM.CONST>
0

>  <SCORE.SYSTEM.DIHEDRAL>
0

>  <SCORE.SYSTEM.SOLV>
0

>  <SCORE.SYSTEM.norm>
0

>  <SCORE.heavy>
10

>  <SCORE.norm>
-1.13634

>  <RMSD>
2.121

$$$$
ligand
 OpenBabel11021811473D
libRbt.so/2013.1/901 2013/11/27
 10  9  0  0  0  0  0  0  0  0999 V2000
   33.4965   17.5020   22.3371 N   0  0  0  0  0  0  0  0  0  0  0  0
   32.3374   16.6101   22.0413 C   0  0  2  0  0  0  0  0  0  0  0  0
   32.4855   15.9240   20.7143 C   0  0  0  0  0  0  0  0  0  0  0  0
   33.4563   16.1419   19.9955 O   0  0  0  0  0  0  0  0  0  0  0  0
   31.0357   17.4006   22.1361 C   0  0  0  0  0  0  0  0  0  0  0  0
   29.6934   16.2541   22.0815 S   0  0  0  0  0  0  0  0  0  0  0  0
   28.9640   16.6697   20.5313 C   0  0  0  0  0  0  0  0  0  0  0  0
   27.6547   15.9014   20.3819 C   0  0  0  0  0  0  0  0  0  0  0  0
   27.9177   14.4764   20.3884 N   0  0  0  0  0  0  0  0  0  0  0  0
   31.6720   15.1054   20.2915 O   0  0  0  0  0  0  0  0  0  0  0  0
  2  1  1  6  0  0  0
  2  3  1  0  0  0  0
  2  5  1  0  0  0  0
  3  4  1  0  0  0  0
  3 10  1  0  0  0  0
  5  6  1  0  0  0  0
  6  7  1  0  0  0  0
  7  8  1  0  0  0  0
  8  9  1  0  0  0  0
M  END
>  <CHROM.1>
-1.55593112,-169.51058900,-112.81331013,-172.44575687,-61.84085223,30.75016503
16.19152636,21.17741163,0.21629772,0.09308877,0.89508657

>  <Name>
ligand

>  <RI>
0

>  <Rbt.Current_Directory>
/home/itssahil/PROJECTS/Mol_Feturizer/New_Systems/rnas/3DIG

>  <Rbt.Executable>
rbdock ($Id: //depot/dev/client3/rdock/2013.1/src/exe/rbdock.cxx#4 $)

>  <Rbt.Library>
libRbt.so (2013.1, Build901 2013/11/27)

>  <Rbt.Parameter_File>
/export/apps/rDock/src/rDock_2013.1_src/data/scripts/dock_solv.prm

>  <Rbt.Receptor>
prm/blind_docking_80.prm

>  <SCORE>
-8.83742

>  <SCORE.INTER>
-9.12629

>  <SCORE.INTER.CONST>
1

>  <SCORE.INTER.POLAR>
0

>  <SCORE.INTER.ROT>
5

>  <SCORE.INTER.SOLV>
13.7563

>  <SCORE.INTER.VDW>
-17.603

>  <SCORE.INTER.norm>
-0.912629

>  <SCORE.INTRA>
0.288874

>  <SCORE.INTRA.DIHEDRAL>
1.72444

>  <SCORE.INTRA.DIHEDRAL.0>
2.60093

>  <SCORE.INTRA.POLAR>
0

>  <SCORE.INTRA.POLAR.0>
0

>  <SCORE.INTRA.REPUL>
0

>  <SCORE.INTRA.REPUL.0>
0

>  <SCORE.INTRA.SOLV>
-0.530302

>  <SCORE.INTRA.SOLV.lig_0>
-33.7882

>  <SCORE.INTRA.VDW>
-0.308196

>  <SCORE.INTRA.VDW.0>
-0.593976

>  <SCORE.INTRA.norm>
0.0288874

>  <SCORE.RESTR>
0

>  <SCORE.RESTR.CAVITY>
0

>  <SCORE.RESTR.norm>
0

>  <SCORE.SYSTEM>
0

>  <SCORE.SYSTEM.CONST>
0

>  <SCORE.SYSTEM.DIHEDRAL>
0

>  <SCORE.SYSTEM.SOLV>
0

>  <SCORE.SYSTEM.norm>
0

>  <SCORE.heavy>
10

>  <SCORE.norm>
-0.883742

>  <RMSD>
2.125

$$$$
ligand
 OpenBabel11021811473D
libRbt.so/2013.1/901 2013/11/27
 10  9  0  0  0  0  0  0  0  0999 V2000
   31.5393   17.2955   22.7039 N   0  0  0  0  0  0  0  0  0  0  0  0
   31.6270   15.8307   22.4334 C   0  0  2  0  0  0  0  0  0  0  0  0
   32.1127   15.5483   21.0413 C   0  0  0  0  0  0  0  0  0  0  0  0
   33.2836   15.7434   20.7292 O   0  0  0  0  0  0  0  0  0  0  0  0
   30.2819   15.1682   22.7170 C   0  0  0  0  0  0  0  0  0  0  0  0
   29.0534   15.9856   21.7465 S   0  0  0  0  0  0  0  0  0  0  0  0
   27.7008   14.8671   21.9117 C   0  0  0  0  0  0  0  0  0  0  0  0
   26.7537   15.0627   20.7319 C   0  0  0  0  0  0  0  0  0  0  0  0
   27.4441   14.7650   19.4931 N   0  0  0  0  0  0  0  0  0  0  0  0
   31.3862   15.0939   20.1601 O   0  0  0  0  0  0  0  0  0  0  0  0
  2  1  1  6  0  0  0
  2  3  1  0  0  0  0
  2  5  1  0  0  0  0
  3  4  1  0  0  0  0
  3 10  1  0  0  0  0
  5  6  1  0  0  0  0
  6  7  1  0  0  0  0
  7  8  1  0  0  0  0
  8  9  1  0  0  0  0
M  END
>  <CHROM.1>
72.06209050,55.88768520,167.26930290,-156.94645950,61.52037745,30.01792825
15.58191710,21.38439668,0.18042824,0.11123697,1.15991678

>  <Name>
ligand

>  <RI>
0

>  <Rbt.Current_Directory>
/home/itssahil/PROJECTS/Mol_Feturizer/New_Systems/rnas/3DIG

>  <Rbt.Executable>
rbdock ($Id: //depot/dev/client3/rdock/2013.1/src/exe/rbdock.cxx#4 $)

>  <Rbt.Library>
libRbt.so (2013.1, Build901 2013/11/27)

>  <Rbt.Parameter_File>
/export/apps/rDock/src/rDock_2013.1_src/data/scripts/dock_solv.prm

>  <Rbt.Receptor>
prm/pocket_docking_5.prm

>  <SCORE>
-11.3486

>  <SCORE.INTER>
-11.7959

>  <SCORE.INTER.CONST>
1

>  <SCORE.INTER.POLAR>
0

>  <SCORE.INTER.ROT>
5

>  <SCORE.INTER.SOLV>
14.3455

>  <SCORE.INTER.VDW>
-19.5791

>  <SCORE.INTER.norm>
-1.17959

>  <SCORE.INTRA>
0.447275

>  <SCORE.INTRA.DIHEDRAL>
0.0170152

>  <SCORE.INTRA.DIHEDRAL.0>
2.60093

>  <SCORE.INTRA.POLAR>
0

>  <SCORE.INTRA.POLAR.0>
0

>  <SCORE.INTRA.REPUL>
0

>  <SCORE.INTRA.REPUL.0>
0

>  <SCORE.INTRA.SOLV>
0.471561

>  <SCORE.INTRA.SOLV.lig_0>
-33.7882

>  <SCORE.INTRA.VDW>
0.202987

>  <SCORE.INTRA.VDW.0>
-0.593976

>  <SCORE.INTRA.norm>
0.0447275

>  <SCORE.RESTR>
0

>  <SCORE.RESTR.CAVITY>
0

>  <SCORE.RESTR.norm>
0

>  <SCORE.SYSTEM>
0

>  <SCORE.SYSTEM.CONST>
0

>  <SCORE.SYSTEM.DIHEDRAL>
0

>  <SCORE.SYSTEM.SOLV>
0

>  <SCORE.SYSTEM.norm>
0

>  <SCORE.heavy>
10

>  <SCORE.norm>
-1.13486

>  <RMSD>
2.132

$$$$
ligand
 OpenBabel11021811473D
libRbt.so/2013.1/901 2013/11/27
 10  9  0  0  0  0  0  0  0  0999 V2000
   31.5333   17.3096   22.7044 N   0  0  0  0  0  0  0  0  0  0  0  0
   31.6052   15.8455   22.4261 C   0  0  2  0  0  0  0  0  0  0  0  0
   32.0572   15.5658   21.0221 C   0  0  0  0  0  0  0  0  0  0  0  0
   33.2083   15.8050   20.6697 O   0  0  0  0  0  0  0  0  0  0  0  0
   30.2627   15.1905   22.7376 C   0  0  0  0  0  0  0  0  0  0  0  0
   29.0196   16.0113   21.7888 S   0  0  0  0  0  0  0  0  0  0  0  0
   27.6865   14.8659   21.9256 C   0  0  0  0  0  0  0  0  0  0  0  0
   26.7519   15.0542   20.7348 C   0  0  0  0  0  0  0  0  0  0  0  0
   27.4673   14.7914   19.5024 N   0  0  0  0  0  0  0  0  0  0  0  0
   31.3222   15.0708   20.1703 O   0  0  0  0  0  0  0  0  0  0  0  0
  2  1  1  6  0  0  0
  2  3  1  0  0  0  0
  2  5  1  0  0  0  0
  3  4  1  0  0  0  0
  3 10  1  0  0  0  0
  5  6  1  0  0  0  0
  6  7  1  0  0  0  0
  7  8  1  0  0  0  0
  8  9  1  0  0  0  0
M  END
>  <CHROM.1>
69.11623659,56.34147689,164.93261593,-155.69245751,61.06708326,29.98954785
15.59815729,21.39007508,0.17776044,0.12067553,1.16378704

>  <Name>
ligand

>  <RI>
0

>  <Rbt.Current_Directory>
/home/itssahil/PROJECTS/Mol_Feturizer/New_Systems/rnas/3DIG

>  <Rbt.Executable>
rbdock ($Id: //depot/dev/client3/rdock/2013.1/src/exe/rbdock.cxx#4 $)

>  <Rbt.Library>
libRbt.so (2013.1, Build901 2013/11/27)

>  <Rbt.Parameter_File>
/export/apps/rDock/src/rDock_2013.1_src/data/scripts/dock_solv.prm

>  <Rbt.Receptor>
prm/pocket_docking_5.prm

>  <SCORE>
-11.4031

>  <SCORE.INTER>
-11.954

>  <SCORE.INTER.CONST>
1

>  <SCORE.INTER.POLAR>
0

>  <SCORE.INTER.ROT>
5

>  <SCORE.INTER.SOLV>
14.2588

>  <SCORE.INTER.VDW>
-19.6556

>  <SCORE.INTER.norm>
-1.1954

>  <SCORE.INTRA>
0.550812

>  <SCORE.INTRA.DIHEDRAL>
0.166714

>  <SCORE.INTRA.DIHEDRAL.0>
2.60093

>  <SCORE.INTRA.POLAR>
0

>  <SCORE.INTRA.POLAR.0>
0

>  <SCORE.INTRA.REPUL>
0

>  <SCORE.INTRA.REPUL.0>
0

>  <SCORE.INTRA.SOLV>
0.526113

>  <SCORE.INTRA.SOLV.lig_0>
-33.7882

>  <SCORE.INTRA.VDW>
0.204399

>  <SCORE.INTRA.VDW.0>
-0.593976

>  <SCORE.INTRA.norm>
0.0550812

>  <SCORE.RESTR>
0

>  <SCORE.RESTR.CAVITY>
0

>  <SCORE.RESTR.norm>
0

>  <SCORE.SYSTEM>
0

>  <SCORE.SYSTEM.CONST>
0

>  <SCORE.SYSTEM.DIHEDRAL>
0

>  <SCORE.SYSTEM.SOLV>
0

>  <SCORE.SYSTEM.norm>
0

>  <SCORE.heavy>
10

>  <SCORE.norm>
-1.14031

>  <RMSD>
2.151

$$$$
ligand
 OpenBabel11021811473D
libRbt.so/2013.1/901 2013/11/27
 10  9  0  0  0  0  0  0  0  0999 V2000
   32.3568   17.3625   22.6571 N   0  0  0  0  0  0  0  0  0  0  0  0
   31.6876   16.0637   22.3541 C   0  0  2  0  0  0  0  0  0  0  0  0
   32.0694   15.5419   20.9994 C   0  0  0  0  0  0  0  0  0  0  0  0
   31.2196   15.1080   20.2272 O   0  0  0  0  0  0  0  0  0  0  0  0
   30.1764   16.2093   22.5077 C   0  0  0  0  0  0  0  0  0  0  0  0
   29.4727   14.5902   22.5598 S   0  0  0  0  0  0  0  0  0  0  0  0
   27.8009   14.9401   22.1233 C   0  0  0  0  0  0  0  0  0  0  0  0
   27.7212   15.1563   20.6153 C   0  0  0  0  0  0  0  0  0  0  0  0
   26.3555   15.4546   20.2334 N   0  0  0  0  0  0  0  0  0  0  0  0
   33.2270   15.5405   20.5864 O   0  0  0  0  0  0  0  0  0  0  0  0
  2  1  1  6  0  0  0
  2  3  1  0  0  0  0
  2  5  1  0  0  0  0
  3  4  1  0  0  0  0
  3 10  1  0  0  0  0
  5  6  1  0  0  0  0
  6  7  1  0  0  0  0
  7  8  1  0  0  0  0
  8  9  1  0  0  0  0
M  END
>  <CHROM.1>
-134.16627848,-165.40412885,-159.52731058,77.63290475,-179.62582402,30.14255324
15.47346899,21.58189015,0.09508074,0.17488978,1.37263116

>  <Name>
ligand

>  <RI>
0

>  <Rbt.Current_Directory>
/home/itssahil/PROJECTS/Mol_Feturizer/New_Systems/rnas/3DIG

>  <Rbt.Executable>
rbdock ($Id: //depot/dev/client3/rdock/2013.1/src/exe/rbdock.cxx#4 $)

>  <Rbt.Library>
libRbt.so (2013.1, Build901 2013/11/27)

>  <Rbt.Parameter_File>
/export/apps/rDock/src/rDock_2013.1_src/data/scripts/dock_solv.prm

>  <Rbt.Receptor>
prm/pocket_docking_3.prm

>  <SCORE>
-10.2235

>  <SCORE.INTER>
-10.3104

>  <SCORE.INTER.CONST>
1

>  <SCORE.INTER.POLAR>
0

>  <SCORE.INTER.ROT>
5

>  <SCORE.INTER.SOLV>
18.1074

>  <SCORE.INTER.VDW>
-19.8428

>  <SCORE.INTER.norm>
-1.03104

>  <SCORE.INTRA>
0.086976

>  <SCORE.INTRA.DIHEDRAL>
0.775315

>  <SCORE.INTRA.DIHEDRAL.0>
2.60093

>  <SCORE.INTRA.POLAR>
0

>  <SCORE.INTRA.POLAR.0>
0

>  <SCORE.INTRA.REPUL>
0

>  <SCORE.INTRA.REPUL.0>
0

>  <SCORE.INTRA.SOLV>
-1.38701

>  <SCORE.INTRA.SOLV.lig_0>
-33.7882

>  <SCORE.INTRA.VDW>
0.392822

>  <SCORE.INTRA.VDW.0>
-0.593976

>  <SCORE.INTRA.norm>
0.0086976

>  <SCORE.RESTR>
0

>  <SCORE.RESTR.CAVITY>
0

>  <SCORE.RESTR.norm>
0

>  <SCORE.SYSTEM>
0

>  <SCORE.SYSTEM.CONST>
0

>  <SCORE.SYSTEM.DIHEDRAL>
0

>  <SCORE.SYSTEM.SOLV>
0

>  <SCORE.SYSTEM.norm>
0

>  <SCORE.heavy>
10

>  <SCORE.norm>
-1.02235

>  <RMSD>
2.266

$$$$
ligand
 OpenBabel11021811473D
libRbt.so/2013.1/901 2013/11/27
 10  9  0  0  0  0  0  0  0  0999 V2000
   32.1555   17.2337   22.6627 N   0  0  0  0  0  0  0  0  0  0  0  0
   31.4675   15.9606   22.2989 C   0  0  2  0  0  0  0  0  0  0  0  0
   31.8747   15.4754   20.9379 C   0  0  0  0  0  0  0  0  0  0  0  0
   31.0410   15.0510   20.1432 O   0  0  0  0  0  0  0  0  0  0  0  0
   29.9561   16.1342   22.4174 C   0  0  0  0  0  0  0  0  0  0  0  0
   29.2119   14.5354   22.3210 S   0  0  0  0  0  0  0  0  0  0  0  0
   27.5376   14.9682   21.9789 C   0  0  0  0  0  0  0  0  0  0  0  0
   27.4659   15.5987   20.5917 C   0  0  0  0  0  0  0  0  0  0  0  0
   27.9197   14.6485   19.5962 N   0  0  0  0  0  0  0  0  0  0  0  0
   33.0381   15.4962   20.5422 O   0  0  0  0  0  0  0  0  0  0  0  0
  2  1  1  6  0  0  0
  2  3  1  0  0  0  0
  2  5  1  0  0  0  0
  3  4  1  0  0  0  0
  3 10  1  0  0  0  0
  5  6  1  0  0  0  0
  6  7  1  0  0  0  0
  7  8  1  0  0  0  0
  8  9  1  0  0  0  0
M  END
>  <CHROM.1>
-136.21837255,-168.00275105,-163.48166999,66.84799383,60.79645209,30.07522959
15.39137227,21.43341704,0.14081698,0.20950385,1.25688153

>  <Name>
ligand

>  <RI>
0

>  <Rbt.Current_Directory>
/home/itssahil/PROJECTS/Mol_Feturizer/New_Systems/rnas/3DIG

>  <Rbt.Executable>
rbdock ($Id: //depot/dev/client3/rdock/2013.1/src/exe/rbdock.cxx#4 $)

>  <Rbt.Library>
libRbt.so (2013.1, Build901 2013/11/27)

>  <Rbt.Parameter_File>
/export/apps/rDock/src/rDock_2013.1_src/data/scripts/dock_solv.prm

>  <Rbt.Receptor>
prm/pocket_docking_8.prm

>  <SCORE>
-11.4731

>  <SCORE.INTER>
-12.3702

>  <SCORE.INTER.CONST>
1

>  <SCORE.INTER.POLAR>
0

>  <SCORE.INTER.ROT>
5

>  <SCORE.INTER.SOLV>
12.5931

>  <SCORE.INTER.VDW>
-19.3778

>  <SCORE.INTER.norm>
-1.23702

>  <SCORE.INTRA>
0.897098

>  <SCORE.INTRA.DIHEDRAL>
-0.0518177

>  <SCORE.INTRA.DIHEDRAL.0>
2.60093

>  <SCORE.INTRA.POLAR>
0

>  <SCORE.INTRA.POLAR.0>
0

>  <SCORE.INTRA.REPUL>
0

>  <SCORE.INTRA.REPUL.0>
0

>  <SCORE.INTRA.SOLV>
0.462507

>  <SCORE.INTRA.SOLV.lig_0>
-33.7882

>  <SCORE.INTRA.VDW>
0.691754

>  <SCORE.INTRA.VDW.0>
-0.593976

>  <SCORE.INTRA.norm>
0.0897098

>  <SCORE.RESTR>
0

>  <SCORE.RESTR.CAVITY>
0

>  <SCORE.RESTR.norm>
0

>  <SCORE.SYSTEM>
0

>  <SCORE.SYSTEM.CONST>
0

>  <SCORE.SYSTEM.DIHEDRAL>
0

>  <SCORE.SYSTEM.SOLV>
0

>  <SCORE.SYSTEM.norm>
0

>  <SCORE.heavy>
10

>  <SCORE.norm>
-1.14731

>  <RMSD>
2.278

$$$$
ligand
 OpenBabel11021811473D
libRbt.so/2013.1/901 2013/11/27
 10  9  0  0  0  0  0  0  0  0999 V2000
   32.1595   17.2716   22.7294 N   0  0  0  0  0  0  0  0  0  0  0  0
   31.4725   15.9978   22.3661 C   0  0  2  0  0  0  0  0  0  0  0  0
   31.9125   15.4894   21.0240 C   0  0  0  0  0  0  0  0  0  0  0  0
   31.0971   15.0620   20.2121 O   0  0  0  0  0  0  0  0  0  0  0  0
   29.9598   16.1832   22.4414 C   0  0  0  0  0  0  0  0  0  0  0  0
   29.2098   14.5844   22.4115 S   0  0  0  0  0  0  0  0  0  0  0  0
   27.5517   15.0030   21.9834 C   0  0  0  0  0  0  0  0  0  0  0  0
   27.3175   14.6485   20.5183 C   0  0  0  0  0  0  0  0  0  0  0  0
   28.1720   15.4589   19.6740 N   0  0  0  0  0  0  0  0  0  0  0  0
   33.0867   15.4933   20.6607 O   0  0  0  0  0  0  0  0  0  0  0  0
  2  1  1  6  0  0  0
  2  3  1  0  0  0  0
  2  5  1  0  0  0  0
  3  4  1  0  0  0  0
  3 10  1  0  0  0  0
  5  6  1  0  0  0  0
  6  7  1  0  0  0  0
  7  8  1  0  0  0  0
  8  9  1  0  0  0  0
M  END
>  <CHROM.1>
-136.02230091,-165.85726663,-162.57902425,104.39009096,-64.04594720,30.09963197
15.40446688,21.49124539,0.13634897,0.23226682,1.31408521

>  <Name>
ligand

>  <RI>
0

>  <Rbt.Current_Directory>
/home/itssahil/PROJECTS/Mol_Feturizer/New_Systems/rnas/3DIG

>  <Rbt.Executable>
rbdock ($Id: //depot/dev/client3/rdock/2013.1/src/exe/rbdock.cxx#4 $)

>  <Rbt.Library>
libRbt.so (2013.1, Build901 2013/11/27)

>  <Rbt.Parameter_File>
/export/apps/rDock/src/rDock_2013.1_src/data/scripts/dock_solv.prm

>  <Rbt.Receptor>
prm/blind_docking_60.prm

>  <SCORE>
-11.0762

>  <SCORE.INTER>
-12.7351

>  <SCORE.INTER.CONST>
1

>  <SCORE.INTER.POLAR>
0

>  <SCORE.INTER.ROT>
5

>  <SCORE.INTER.SOLV>
11.9207

>  <SCORE.INTER.VDW>
-19.397

>  <SCORE.INTER.norm>
-1.27351

>  <SCORE.INTRA>
1.65892

>  <SCORE.INTRA.DIHEDRAL>
2.18161

>  <SCORE.INTRA.DIHEDRAL.0>
2.60093

>  <SCORE.INTRA.POLAR>
0

>  <SCORE.INTRA.POLAR.0>
0

>  <SCORE.INTRA.REPUL>
0

>  <SCORE.INTRA.REPUL.0>
0

>  <SCORE.INTRA.SOLV>
1.05163

>  <SCORE.INTRA.SOLV.lig_0>
-33.7882

>  <SCORE.INTRA.VDW>
0.0422937

>  <SCORE.INTRA.VDW.0>
-0.593976

>  <SCORE.INTRA.norm>
0.165892

>  <SCORE.RESTR>
0

>  <SCORE.RESTR.CAVITY>
0

>  <SCORE.RESTR.norm>
0

>  <SCORE.SYSTEM>
0

>  <SCORE.SYSTEM.CONST>
0

>  <SCORE.SYSTEM.DIHEDRAL>
0

>  <SCORE.SYSTEM.SOLV>
0

>  <SCORE.SYSTEM.norm>
0

>  <SCORE.heavy>
10

>  <SCORE.norm>
-1.10762

>  <RMSD>
2.288

$$$$
ligand
 OpenBabel11021811473D
libRbt.so/2013.1/901 2013/11/27
 10  9  0  0  0  0  0  0  0  0999 V2000
   32.1285   17.1133   22.7280 N   0  0  0  0  0  0  0  0  0  0  0  0
   31.4116   15.8783   22.2952 C   0  0  2  0  0  0  0  0  0  0  0  0
   31.8090   15.4589   20.9097 C   0  0  0  0  0  0  0  0  0  0  0  0
   32.9806   15.5073   20.5468 O   0  0  0  0  0  0  0  0  0  0  0  0
   29.9045   16.0802   22.4231 C   0  0  0  0  0  0  0  0  0  0  0  0
   29.1243   14.5052   22.2511 S   0  0  0  0  0  0  0  0  0  0  0  0
   27.4760   14.9918   21.8586 C   0  0  0  0  0  0  0  0  0  0  0  0
   27.4612   15.5939   20.4571 C   0  0  0  0  0  0  0  0  0  0  0  0
   27.8657   14.5945   19.4888 N   0  0  0  0  0  0  0  0  0  0  0  0
   31.0043   15.0308   20.0851 O   0  0  0  0  0  0  0  0  0  0  0  0
  2  1  1  6  0  0  0
  2  3  1  0  0  0  0
  2  5  1  0  0  0  0
  3  4  1  0  0  0  0
  3 10  1  0  0  0  0
  5  6  1  0  0  0  0
  6  7  1  0  0  0  0
  7  8  1  0  0  0  0
  8  9  1  0  0  0  0
M  END
>  <CHROM.1>
41.43197901,-167.60308825,-161.01299411,69.92855410,62.44489937,30.02106593
15.35793610,21.38586263,0.16750214,0.20075897,1.28469079

>  <Name>
ligand

>  <RI>
0

>  <Rbt.Current_Directory>
/home/itssahil/PROJECTS/Mol_Feturizer/New_Systems/rnas/3DIG

>  <Rbt.Executable>
rbdock ($Id: //depot/dev/client3/rdock/2013.1/src/exe/rbdock.cxx#4 $)

>  <Rbt.Library>
libRbt.so (2013.1, Build901 2013/11/27)

>  <Rbt.Parameter_File>
/export/apps/rDock/src/rDock_2013.1_src/data/scripts/dock_solv.prm

>  <Rbt.Receptor>
prm/pocket_docking_4.prm

>  <SCORE>
-11.726

>  <SCORE.INTER>
-12.2983

>  <SCORE.INTER.CONST>
1

>  <SCORE.INTER.POLAR>
0

>  <SCORE.INTER.ROT>
5

>  <SCORE.INTER.SOLV>
13.0522

>  <SCORE.INTER.VDW>
-19.4829

>  <SCORE.INTER.norm>
-1.22983

>  <SCORE.INTRA>
0.572313

>  <SCORE.INTRA.DIHEDRAL>
0.130645

>  <SCORE.INTRA.DIHEDRAL.0>
2.60093

>  <SCORE.INTRA.POLAR>
0

>  <SCORE.INTRA.POLAR.0>
0

>  <SCORE.INTRA.REPUL>
0

>  <SCORE.INTRA.REPUL.0>
0

>  <SCORE.INTRA.SOLV>
0.369306

>  <SCORE.INTRA.SOLV.lig_0>
-33.7882

>  <SCORE.INTRA.VDW>
0.322337

>  <SCORE.INTRA.VDW.0>
-0.593976

>  <SCORE.INTRA.norm>
0.0572313

>  <SCORE.RESTR>
0

>  <SCORE.RESTR.CAVITY>
0

>  <SCORE.RESTR.norm>
0

>  <SCORE.SYSTEM>
0

>  <SCORE.SYSTEM.CONST>
0

>  <SCORE.SYSTEM.DIHEDRAL>
0

>  <SCORE.SYSTEM.SOLV>
0

>  <SCORE.SYSTEM.norm>
0

>  <SCORE.heavy>
10

>  <SCORE.norm>
-1.1726

>  <RMSD>
2.306

$$$$
ligand
 OpenBabel11021811473D
libRbt.so/2013.1/901 2013/11/27
 10  9  0  0  0  0  0  0  0  0999 V2000
   32.0637   17.0779   22.7543 N   0  0  0  0  0  0  0  0  0  0  0  0
   31.3440   15.8518   22.3013 C   0  0  2  0  0  0  0  0  0  0  0  0
   31.7718   15.4298   20.9257 C   0  0  0  0  0  0  0  0  0  0  0  0
   32.9490   15.4912   20.5837 O   0  0  0  0  0  0  0  0  0  0  0  0
   29.8366   16.0707   22.3912 C   0  0  0  0  0  0  0  0  0  0  0  0
   29.0443   14.5009   22.2251 S   0  0  0  0  0  0  0  0  0  0  0  0
   27.3983   14.9987   21.8373 C   0  0  0  0  0  0  0  0  0  0  0  0
   27.3839   15.6023   20.4364 C   0  0  0  0  0  0  0  0  0  0  0  0
   27.8105   14.6106   19.4698 N   0  0  0  0  0  0  0  0  0  0  0  0
   30.9877   14.9867   20.0892 O   0  0  0  0  0  0  0  0  0  0  0  0
  2  1  1  6  0  0  0
  2  3  1  0  0  0  0
  2  5  1  0  0  0  0
  3  4  1  0  0  0  0
  3 10  1  0  0  0  0
  5  6  1  0  0  0  0
  6  7  1  0  0  0  0
  7  8  1  0  0  0  0
  8  9  1  0  0  0  0
M  END
>  <CHROM.1>
39.92647863,-166.62486874,-162.71862744,69.73720258,61.07832690,29.96157078
15.34549332,21.38060084,0.17174135,0.18685766,1.27745594

>  <Name>
ligand

>  <RI>
0

>  <Rbt.Current_Directory>
/home/itssahil/PROJECTS/Mol_Feturizer/New_Systems/rnas/3DIG

>  <Rbt.Executable>
rbdock ($Id: //depot/dev/client3/rdock/2013.1/src/exe/rbdock.cxx#4 $)

>  <Rbt.Library>
libRbt.so (2013.1, Build901 2013/11/27)

>  <Rbt.Parameter_File>
/export/apps/rDock/src/rDock_2013.1_src/data/scripts/dock_solv.prm

>  <Rbt.Receptor>
prm/pocket_docking_7.prm

>  <SCORE>
-11.7447

>  <SCORE.INTER>
-12.3002

>  <SCORE.INTER.CONST>
1

>  <SCORE.INTER.POLAR>
0

>  <SCORE.INTER.ROT>
5

>  <SCORE.INTER.SOLV>
13.2409

>  <SCORE.INTER.VDW>
-19.5471

>  <SCORE.INTER.norm>
-1.23002

>  <SCORE.INTRA>
0.555481

>  <SCORE.INTRA.DIHEDRAL>
0.101434

>  <SCORE.INTRA.DIHEDRAL.0>
2.60093

>  <SCORE.INTRA.POLAR>
0

>  <SCORE.INTRA.POLAR.0>
0

>  <SCORE.INTRA.REPUL>
0

>  <SCORE.INTRA.REPUL.0>
0

>  <SCORE.INTRA.SOLV>
0.382892

>  <SCORE.INTRA.SOLV.lig_0>
-33.7882

>  <SCORE.INTRA.VDW>
0.313318

>  <SCORE.INTRA.VDW.0>
-0.593976

>  <SCORE.INTRA.norm>
0.0555481

>  <SCORE.RESTR>
0

>  <SCORE.RESTR.CAVITY>
0

>  <SCORE.RESTR.norm>
0

>  <SCORE.SYSTEM>
0

>  <SCORE.SYSTEM.CONST>
0

>  <SCORE.SYSTEM.DIHEDRAL>
0

>  <SCORE.SYSTEM.SOLV>
0

>  <SCORE.SYSTEM.norm>
0

>  <SCORE.heavy>
10

>  <SCORE.norm>
-1.17447

>  <RMSD>
2.328

$$$$
ligand
 OpenBabel11021811473D
libRbt.so/2013.1/901 2013/11/27
 10  9  0  0  0  0  0  0  0  0999 V2000
   32.0158   15.4923   21.8195 N   0  0  0  0  0  0  0  0  0  0  0  0
   30.5686   15.7184   21.5353 C   0  0  2  0  0  0  0  0  0  0  0  0
   30.2230   17.1792   21.5270 C   0  0  0  0  0  0  0  0  0  0  0  0
   30.8389   17.9779   22.2265 O   0  0  0  0  0  0  0  0  0  0  0  0
   29.7152   14.9327   22.5268 C   0  0  0  0  0  0  0  0  0  0  0  0
   28.0174   15.2664   22.1727 S   0  0  0  0  0  0  0  0  0  0  0  0
   27.8164   14.3925   20.6549 C   0  0  0  0  0  0  0  0  0  0  0  0
   28.1063   15.3433   19.4977 C   0  0  0  0  0  0  0  0  0  0  0  0
   28.0467   14.6219   18.2424 N   0  0  0  0  0  0  0  0  0  0  0  0
   29.3375   17.6517   20.8175 O   0  0  0  0  0  0  0  0  0  0  0  0
  2  1  1  1  0  0  0
  2  3  1  0  0  0  0
  2  5  1  0  0  0  0
  3  4  1  0  0  0  0
  3 10  1  0  0  0  0
  5  6  1  0  0  0  0
  6  7  1  0  0  0  0
  7  8  1  0  0  0  0
  8  9  1  0  0  0  0
M  END
>  <CHROM.1>
-30.19215286,178.60843860,71.32480601,-91.61814525,175.69173975,29.30287513
15.82350484,21.22587137,0.28817683,0.74350005,1.95129824

>  <Name>
ligand

>  <RI>
0

>  <Rbt.Current_Directory>
/home/itssahil/PROJECTS/Mol_Feturizer/New_Systems/rnas/3DIG

>  <Rbt.Executable>
rbdock ($Id: //depot/dev/client3/rdock/2013.1/src/exe/rbdock.cxx#4 $)

>  <Rbt.Library>
libRbt.so (2013.1, Build901 2013/11/27)

>  <Rbt.Parameter_File>
/export/apps/rDock/src/rDock_2013.1_src/data/scripts/dock_solv.prm

>  <Rbt.Receptor>
prm/pocket_docking_7.prm

>  <SCORE>
-9.07988

>  <SCORE.INTER>
-8.82763

>  <SCORE.INTER.CONST>
1

>  <SCORE.INTER.POLAR>
0

>  <SCORE.INTER.ROT>
5

>  <SCORE.INTER.SOLV>
17.4523

>  <SCORE.INTER.VDW>
-18.6359

>  <SCORE.INTER.norm>
-0.882763

>  <SCORE.INTRA>
-0.252256

>  <SCORE.INTRA.DIHEDRAL>
0.527769

>  <SCORE.INTRA.DIHEDRAL.0>
2.60093

>  <SCORE.INTRA.POLAR>
0

>  <SCORE.INTRA.POLAR.0>
0

>  <SCORE.INTRA.REPUL>
0

>  <SCORE.INTRA.REPUL.0>
0

>  <SCORE.INTRA.SOLV>
-0.856652

>  <SCORE.INTRA.SOLV.lig_0>
-33.7882

>  <SCORE.INTRA.VDW>
-0.0878148

>  <SCORE.INTRA.VDW.0>
-0.593976

>  <SCORE.INTRA.norm>
-0.0252256

>  <SCORE.RESTR>
0

>  <SCORE.RESTR.CAVITY>
0

>  <SCORE.RESTR.norm>
0

>  <SCORE.SYSTEM>
0

>  <SCORE.SYSTEM.CONST>
0

>  <SCORE.SYSTEM.DIHEDRAL>
0

>  <SCORE.SYSTEM.SOLV>
0

>  <SCORE.SYSTEM.norm>
0

>  <SCORE.heavy>
10

>  <SCORE.norm>
-0.907988

>  <RMSD>
2.542

$$$$
ligand
 OpenBabel11021811473D
libRbt.so/2013.1/901 2013/11/27
 10  9  0  0  0  0  0  0  0  0999 V2000
   30.6295   16.4869   23.2034 N   0  0  0  0  0  0  0  0  0  0  0  0
   30.6703   15.2024   22.4452 C   0  0  2  0  0  0  0  0  0  0  0  0
   31.5244   15.3073   21.2152 C   0  0  0  0  0  0  0  0  0  0  0  0
   31.0911   14.9768   20.1153 O   0  0  0  0  0  0  0  0  0  0  0  0
   29.2511   14.7450   22.1207 C   0  0  0  0  0  0  0  0  0  0  0  0
   28.4452   16.0449   21.2375 S   0  0  0  0  0  0  0  0  0  0  0  0
   27.1266   15.1594   20.4727 C   0  0  0  0  0  0  0  0  0  0  0  0
   27.6918   14.3314   19.3230 C   0  0  0  0  0  0  0  0  0  0  0  0
   28.2935   15.2062   18.3368 N   0  0  0  0  0  0  0  0  0  0  0  0
   32.6738   15.7422   21.2356 O   0  0  0  0  0  0  0  0  0  0  0  0
  2  1  1  6  0  0  0
  2  3  1  0  0  0  0
  2  5  1  0  0  0  0
  3  4  1  0  0  0  0
  3 10  1  0  0  0  0
  5  6  1  0  0  0  0
  6  7  1  0  0  0  0
  7  8  1  0  0  0  0
  8  9  1  0  0  0  0
M  END
>  <CHROM.1>
-127.64333854,56.16927845,160.47790609,-74.23364003,-61.27903123,29.61777503
15.40410488,20.98107854,0.51921011,-0.01102320,1.28759728

>  <Name>
ligand

>  <RI>
0

>  <Rbt.Current_Directory>
/home/itssahil/PROJECTS/Mol_Feturizer/New_Systems/rnas/3DIG

>  <Rbt.Executable>
rbdock ($Id: //depot/dev/client3/rdock/2013.1/src/exe/rbdock.cxx#4 $)

>  <Rbt.Library>
libRbt.so (2013.1, Build901 2013/11/27)

>  <Rbt.Parameter_File>
/export/apps/rDock/src/rDock_2013.1_src/data/scripts/dock_solv.prm

>  <Rbt.Receptor>
prm/pocket_docking_4.prm

>  <SCORE>
-9.77051

>  <SCORE.INTER>
-10.6298

>  <SCORE.INTER.CONST>
1

>  <SCORE.INTER.POLAR>
0

>  <SCORE.INTER.ROT>
5

>  <SCORE.INTER.SOLV>
15.8745

>  <SCORE.INTER.VDW>
-19.3114

>  <SCORE.INTER.norm>
-1.06298

>  <SCORE.INTRA>
0.859327

>  <SCORE.INTRA.DIHEDRAL>
-0.1345

>  <SCORE.INTRA.DIHEDRAL.0>
2.60093

>  <SCORE.INTRA.POLAR>
0

>  <SCORE.INTRA.POLAR.0>
0

>  <SCORE.INTRA.REPUL>
0

>  <SCORE.INTRA.REPUL.0>
0

>  <SCORE.INTRA.SOLV>
1.17884

>  <SCORE.INTRA.SOLV.lig_0>
-33.7882

>  <SCORE.INTRA.VDW>
0.337157

>  <SCORE.INTRA.VDW.0>
-0.593976

>  <SCORE.INTRA.norm>
0.0859327

>  <SCORE.RESTR>
0

>  <SCORE.RESTR.CAVITY>
0

>  <SCORE.RESTR.norm>
0

>  <SCORE.SYSTEM>
0

>  <SCORE.SYSTEM.CONST>
0

>  <SCORE.SYSTEM.DIHEDRAL>
0

>  <SCORE.SYSTEM.SOLV>
0

>  <SCORE.SYSTEM.norm>
0

>  <SCORE.heavy>
10

>  <SCORE.norm>
-0.977051

>  <RMSD>
2.601

$$$$
ligand
 OpenBabel11021811473D
libRbt.so/2013.1/901 2013/11/27
 10  9  0  0  0  0  0  0  0  0999 V2000
   30.5204   16.5413   23.1712 N   0  0  0  0  0  0  0  0  0  0  0  0
   30.6267   15.2365   22.4552 C   0  0  2  0  0  0  0  0  0  0  0  0
   31.4797   15.3431   21.2246 C   0  0  0  0  0  0  0  0  0  0  0  0
   31.0346   15.0458   20.1200 O   0  0  0  0  0  0  0  0  0  0  0  0
   29.2328   14.7002   22.1423 C   0  0  0  0  0  0  0  0  0  0  0  0
   28.3488   15.9519   21.2642 S   0  0  0  0  0  0  0  0  0  0  0  0
   27.3065   14.9661   20.2397 C   0  0  0  0  0  0  0  0  0  0  0  0
   28.1293   14.4289   19.0729 C   0  0  0  0  0  0  0  0  0  0  0  0
   27.3131   13.5503   18.2595 N   0  0  0  0  0  0  0  0  0  0  0  0
   32.6402   15.7472   21.2496 O   0  0  0  0  0  0  0  0  0  0  0  0
  2  1  1  6  0  0  0
  2  3  1  0  0  0  0
  2  5  1  0  0  0  0
  3  4  1  0  0  0  0
  3 10  1  0  0  0  0
  5  6  1  0  0  0  0
  6  7  1  0  0  0  0
  7  8  1  0  0  0  0
  8  9  1  0  0  0  0
M  END
>  <CHROM.1>
-122.39961062,54.22897598,148.64777559,-77.56875852,176.62487885,29.53928929
15.24499317,20.93955873,0.64318680,0.00693223,1.10686195

>  <Name>
ligand

>  <RI>
0

>  <Rbt.Current_Directory>
/home/itssahil/PROJECTS/Mol_Feturizer/New_Systems/rnas/3DIG

>  <Rbt.Executable>
rbdock ($Id: //depot/dev/client3/rdock/2013.1/src/exe/rbdock.cxx#4 $)

>  <Rbt.Library>
libRbt.so (2013.1, Build901 2013/11/27)

>  <Rbt.Parameter_File>
/export/apps/rDock/src/rDock_2013.1_src/data/scripts/dock_solv.prm

>  <Rbt.Receptor>
prm/pocket_docking_6.prm

>  <SCORE>
-9.29934

>  <SCORE.INTER>
-9.86754

>  <SCORE.INTER.CONST>
1

>  <SCORE.INTER.POLAR>
0

>  <SCORE.INTER.ROT>
5

>  <SCORE.INTER.SOLV>
18.4027

>  <SCORE.INTER.VDW>
-19.6459

>  <SCORE.INTER.norm>
-0.986754

>  <SCORE.INTRA>
0.568205

>  <SCORE.INTRA.DIHEDRAL>
0.817864

>  <SCORE.INTRA.DIHEDRAL.0>
2.60093

>  <SCORE.INTRA.POLAR>
0

>  <SCORE.INTRA.POLAR.0>
0

>  <SCORE.INTRA.REPUL>
0

>  <SCORE.INTRA.REPUL.0>
0

>  <SCORE.INTRA.SOLV>
-0.425411

>  <SCORE.INTRA.SOLV.lig_0>
-33.7882

>  <SCORE.INTRA.VDW>
0.371978

>  <SCORE.INTRA.VDW.0>
-0.593976

>  <SCORE.INTRA.norm>
0.0568205

>  <SCORE.RESTR>
0

>  <SCORE.RESTR.CAVITY>
0

>  <SCORE.RESTR.norm>
0

>  <SCORE.SYSTEM>
0

>  <SCORE.SYSTEM.CONST>
0

>  <SCORE.SYSTEM.DIHEDRAL>
0

>  <SCORE.SYSTEM.SOLV>
0

>  <SCORE.SYSTEM.norm>
0

>  <SCORE.heavy>
10

>  <SCORE.norm>
-0.929934

>  <RMSD>
2.625

$$$$
ligand
 OpenBabel11021811473D
libRbt.so/2013.1/901 2013/11/27
 10  9  0  0  0  0  0  0  0  0999 V2000
   31.1179   17.2856   22.5367 N   0  0  0  0  0  0  0  0  0  0  0  0
   29.9318   16.5008   22.0854 C   0  0  2  0  0  0  0  0  0  0  0  0
   30.1761   15.0220   22.1697 C   0  0  0  0  0  0  0  0  0  0  0  0
   31.2789   14.5484   21.9129 O   0  0  0  0  0  0  0  0  0  0  0  0
   29.5247   16.9357   20.6805 C   0  0  0  0  0  0  0  0  0  0  0  0
   28.0326   16.0911   20.2566 S   0  0  0  0  0  0  0  0  0  0  0  0
   28.6739   14.7045   19.3769 C   0  0  0  0  0  0  0  0  0  0  0  0
   27.5177   13.9705   18.7050 C   0  0  0  0  0  0  0  0  0  0  0  0
   27.9991   12.7447   18.1004 N   0  0  0  0  0  0  0  0  0  0  0  0
   29.3102   14.2210   22.5152 O   0  0  0  0  0  0  0  0  0  0  0  0
  2  1  1  6  0  0  0
  2  3  1  0  0  0  0
  2  5  1  0  0  0  0
  3  4  1  0  0  0  0
  3 10  1  0  0  0  0
  5  6  1  0  0  0  0
  6  7  1  0  0  0  0
  7  8  1  0  0  0  0
  8  9  1  0  0  0  0
M  END
>  <CHROM.1>
-36.56508338,-174.70694550,-94.89705256,-169.94727691,-173.65479692,29.21552241
15.27692437,20.77802734,0.62406838,-0.83297716,0.21111399

>  <Name>
ligand

>  <RI>
0

>  <Rbt.Current_Directory>
/home/itssahil/PROJECTS/Mol_Feturizer/New_Systems/rnas/3DIG

>  <Rbt.Executable>
rbdock ($Id: //depot/dev/client3/rdock/2013.1/src/exe/rbdock.cxx#4 $)

>  <Rbt.Library>
libRbt.so (2013.1, Build901 2013/11/27)

>  <Rbt.Parameter_File>
/export/apps/rDock/src/rDock_2013.1_src/data/scripts/dock_solv.prm

>  <Rbt.Receptor>
prm/pocket_docking_8.prm

>  <SCORE>
-9.30549

>  <SCORE.INTER>
-8.28279

>  <SCORE.INTER.CONST>
1

>  <SCORE.INTER.POLAR>
0

>  <SCORE.INTER.ROT>
5

>  <SCORE.INTER.SOLV>
17.0587

>  <SCORE.INTER.VDW>
-18.1414

>  <SCORE.INTER.norm>
-0.828279

>  <SCORE.INTRA>
-1.02269

>  <SCORE.INTRA.DIHEDRAL>
0.867724

>  <SCORE.INTRA.DIHEDRAL.0>
2.60093

>  <SCORE.INTRA.POLAR>
0

>  <SCORE.INTRA.POLAR.0>
0

>  <SCORE.INTRA.REPUL>
0

>  <SCORE.INTRA.REPUL.0>
0

>  <SCORE.INTRA.SOLV>
-1.54448

>  <SCORE.INTRA.SOLV.lig_0>
-33.7882

>  <SCORE.INTRA.VDW>
-0.684315

>  <SCORE.INTRA.VDW.0>
-0.593976

>  <SCORE.INTRA.norm>
-0.102269

>  <SCORE.RESTR>
0

>  <SCORE.RESTR.CAVITY>
0

>  <SCORE.RESTR.norm>
0

>  <SCORE.SYSTEM>
0

>  <SCORE.SYSTEM.CONST>
0

>  <SCORE.SYSTEM.DIHEDRAL>
0

>  <SCORE.SYSTEM.SOLV>
0

>  <SCORE.SYSTEM.norm>
0

>  <SCORE.heavy>
10

>  <SCORE.norm>
-0.930549

>  <RMSD>
3.042

$$$$
ligand
 OpenBabel11021811473D
libRbt.so/2013.1/901 2013/11/27
 10  9  0  0  0  0  0  0  0  0999 V2000
   31.1924   16.0125   22.8348 N   0  0  0  0  0  0  0  0  0  0  0  0
   29.8491   16.1891   22.2097 C   0  0  2  0  0  0  0  0  0  0  0  0
   28.9037   15.0897   22.5985 C   0  0  0  0  0  0  0  0  0  0  0  0
   29.2829   13.9241   22.6633 O   0  0  0  0  0  0  0  0  0  0  0  0
   29.9926   16.3133   20.6956 C   0  0  0  0  0  0  0  0  0  0  0  0
   28.4311   16.8099   20.0364 S   0  0  0  0  0  0  0  0  0  0  0  0
   27.6597   15.2435   19.7930 C   0  0  0  0  0  0  0  0  0  0  0  0
   28.2683   14.5815   18.5608 C   0  0  0  0  0  0  0  0  0  0  0  0
   27.6068   13.3179   18.3048 N   0  0  0  0  0  0  0  0  0  0  0  0
   27.7271   15.2930   22.8900 O   0  0  0  0  0  0  0  0  0  0  0  0
  2  1  1  1  0  0  0
  2  3  1  0  0  0  0
  2  5  1  0  0  0  0
  3  4  1  0  0  0  0
  3 10  1  0  0  0  0
  5  6  1  0  0  0  0
  6  7  1  0  0  0  0
  7  8  1  0  0  0  0
  8  9  1  0  0  0  0
M  END
>  <CHROM.1>
-40.65393335,-169.87726255,-87.85449525,-75.41390736,-177.41096820,28.82330231
15.43122807,20.95880056,-0.59656595,-1.02266543,-0.89405693

>  <Name>
ligand

>  <RI>
0

>  <Rbt.Current_Directory>
/home/itssahil/PROJECTS/Mol_Feturizer/New_Systems/rnas/3DIG

>  <Rbt.Executable>
rbdock ($Id: //depot/dev/client3/rdock/2013.1/src/exe/rbdock.cxx#4 $)

>  <Rbt.Library>
libRbt.so (2013.1, Build901 2013/11/27)

>  <Rbt.Parameter_File>
/export/apps/rDock/src/rDock_2013.1_src/data/scripts/dock_solv.prm

>  <Rbt.Receptor>
prm/blind_docking_100.prm

>  <SCORE>
-10.9975

>  <SCORE.INTER>
-10.266

>  <SCORE.INTER.CONST>
1

>  <SCORE.INTER.POLAR>
0

>  <SCORE.INTER.ROT>
5

>  <SCORE.INTER.SOLV>
17.3987

>  <SCORE.INTER.VDW>
-19.5769

>  <SCORE.INTER.norm>
-1.0266

>  <SCORE.INTRA>
-0.731578

>  <SCORE.INTRA.DIHEDRAL>
0.768586

>  <SCORE.INTRA.DIHEDRAL.0>
2.60093

>  <SCORE.INTRA.POLAR>
0

>  <SCORE.INTRA.POLAR.0>
0

>  <SCORE.INTRA.REPUL>
0

>  <SCORE.INTRA.REPUL.0>
0

>  <SCORE.INTRA.SOLV>
-1.38074

>  <SCORE.INTRA.SOLV.lig_0>
-33.7882

>  <SCORE.INTRA.VDW>
-0.425504

>  <SCORE.INTRA.VDW.0>
-0.593976

>  <SCORE.INTRA.norm>
-0.0731578

>  <SCORE.RESTR>
0

>  <SCORE.RESTR.CAVITY>
0

>  <SCORE.RESTR.norm>
0

>  <SCORE.SYSTEM>
0

>  <SCORE.SYSTEM.CONST>
0

>  <SCORE.SYSTEM.DIHEDRAL>
0

>  <SCORE.SYSTEM.SOLV>
0

>  <SCORE.SYSTEM.norm>
0

>  <SCORE.heavy>
10

>  <SCORE.norm>
-1.09975

>  <RMSD>
3.550

$$$$
ligand
 OpenBabel11021811473D
libRbt.so/2013.1/901 2013/11/27
 10  9  0  0  0  0  0  0  0  0999 V2000
   31.1528   16.0398   22.9035 N   0  0  0  0  0  0  0  0  0  0  0  0
   29.8202   16.2032   22.2523 C   0  0  2  0  0  0  0  0  0  0  0  0
   28.8854   15.0830   22.6054 C   0  0  0  0  0  0  0  0  0  0  0  0
   29.2783   13.9207   22.6432 O   0  0  0  0  0  0  0  0  0  0  0  0
   29.9936   16.3516   20.7435 C   0  0  0  0  0  0  0  0  0  0  0  0
   28.4422   16.8470   20.0601 S   0  0  0  0  0  0  0  0  0  0  0  0
   27.6661   15.2813   19.8276 C   0  0  0  0  0  0  0  0  0  0  0  0
   28.2654   14.6134   18.5940 C   0  0  0  0  0  0  0  0  0  0  0  0
   27.5985   13.3511   18.3460 N   0  0  0  0  0  0  0  0  0  0  0  0
   27.7042   15.2646   22.8927 O   0  0  0  0  0  0  0  0  0  0  0  0
  2  1  1  1  0  0  0
  2  3  1  0  0  0  0
  2  5  1  0  0  0  0
  3  4  1  0  0  0  0
  3 10  1  0  0  0  0
  5  6  1  0  0  0  0
  6  7  1  0  0  0  0
  7  8  1  0  0  0  0
  8  9  1  0  0  0  0
M  END
>  <CHROM.1>
-41.70499381,-169.33687363,-86.04134106,-76.57565535,-177.33599919,28.81521825
15.45100296,20.98567336,-0.58958982,-1.02529174,-0.88337385

>  <Name>
ligand

>  <RI>
0

>  <Rbt.Current_Directory>
/home/itssahil/PROJECTS/Mol_Feturizer/New_Systems/rnas/3DIG

>  <Rbt.Executable>
rbdock ($Id: //depot/dev/client3/rdock/2013.1/src/exe/rbdock.cxx#4 $)

>  <Rbt.Library>
libRbt.so (2013.1, Build901 2013/11/27)

>  <Rbt.Parameter_File>
/export/apps/rDock/src/rDock_2013.1_src/data/scripts/dock_solv.prm

>  <Rbt.Receptor>
prm/blind_docking_100.prm

>  <SCORE>
-11.0278

>  <SCORE.INTER>
-10.3332

>  <SCORE.INTER.CONST>
1

>  <SCORE.INTER.POLAR>
0

>  <SCORE.INTER.ROT>
5

>  <SCORE.INTER.SOLV>
17.5241

>  <SCORE.INTER.VDW>
-19.6635

>  <SCORE.INTER.norm>
-1.03332

>  <SCORE.INTRA>
-0.694552

>  <SCORE.INTRA.DIHEDRAL>
0.748837

>  <SCORE.INTRA.DIHEDRAL.0>
2.60093

>  <SCORE.INTRA.POLAR>
0

>  <SCORE.INTRA.POLAR.0>
0

>  <SCORE.INTRA.REPUL>
0

>  <SCORE.INTRA.REPUL.0>
0

>  <SCORE.INTRA.SOLV>
-1.38962

>  <SCORE.INTRA.SOLV.lig_0>
-33.7882

>  <SCORE.INTRA.VDW>
-0.37416

>  <SCORE.INTRA.VDW.0>
-0.593976

>  <SCORE.INTRA.norm>
-0.0694552

>  <SCORE.RESTR>
0

>  <SCORE.RESTR.CAVITY>
0

>  <SCORE.RESTR.norm>
0

>  <SCORE.SYSTEM>
0

>  <SCORE.SYSTEM.CONST>
0

>  <SCORE.SYSTEM.DIHEDRAL>
0

>  <SCORE.SYSTEM.SOLV>
0

>  <SCORE.SYSTEM.norm>
0

>  <SCORE.heavy>
10

>  <SCORE.norm>
-1.10278

>  <RMSD>
3.562

$$$$
ligand
 OpenBabel11021811473D
libRbt.so/2013.1/901 2013/11/27
 10  9  0  0  0  0  0  0  0  0999 V2000
   31.1429   15.9995   22.8961 N   0  0  0  0  0  0  0  0  0  0  0  0
   29.8129   16.1631   22.2397 C   0  0  2  0  0  0  0  0  0  0  0  0
   28.8801   15.0374   22.5806 C   0  0  0  0  0  0  0  0  0  0  0  0
   27.7051   15.2540   22.8618 O   0  0  0  0  0  0  0  0  0  0  0  0
   29.9929   16.3224   20.7328 C   0  0  0  0  0  0  0  0  0  0  0  0
   28.4436   16.8191   20.0456 S   0  0  0  0  0  0  0  0  0  0  0  0
   27.6742   15.2531   19.7940 C   0  0  0  0  0  0  0  0  0  0  0  0
   28.2911   14.5936   18.5646 C   0  0  0  0  0  0  0  0  0  0  0  0
   27.6255   13.3348   18.2963 N   0  0  0  0  0  0  0  0  0  0  0  0
   29.2268   13.8582   22.5753 O   0  0  0  0  0  0  0  0  0  0  0  0
  2  1  1  1  0  0  0
  2  3  1  0  0  0  0
  2  5  1  0  0  0  0
  3  4  1  0  0  0  0
  3 10  1  0  0  0  0
  5  6  1  0  0  0  0
  6  7  1  0  0  0  0
  7  8  1  0  0  0  0
  8  9  1  0  0  0  0
M  END
>  <CHROM.1>
136.82510064,-169.28141529,-86.20478146,-76.08314483,-177.02235230,28.81384995
15.41953261,20.95843044,-0.58806858,-1.03630569,-0.87894235

>  <Name>
ligand

>  <RI>
0

>  <Rbt.Current_Directory>
/home/itssahil/PROJECTS/Mol_Feturizer/New_Systems/rnas/3DIG

>  <Rbt.Executable>
rbdock ($Id: //depot/dev/client3/rdock/2013.1/src/exe/rbdock.cxx#4 $)

>  <Rbt.Library>
libRbt.so (2013.1, Build901 2013/11/27)

>  <Rbt.Parameter_File>
/export/apps/rDock/src/rDock_2013.1_src/data/scripts/dock_solv.prm

>  <Rbt.Receptor>
prm/pocket_docking_5.prm

>  <SCORE>
-11.047

>  <SCORE.INTER>
-10.2634

>  <SCORE.INTER.CONST>
1

>  <SCORE.INTER.POLAR>
0

>  <SCORE.INTER.ROT>
5

>  <SCORE.INTER.SOLV>
17.5815

>  <SCORE.INTER.VDW>
-19.6361

>  <SCORE.INTER.norm>
-1.02634

>  <SCORE.INTRA>
-0.783646

>  <SCORE.INTRA.DIHEDRAL>
0.676474

>  <SCORE.INTRA.DIHEDRAL.0>
2.60093

>  <SCORE.INTRA.POLAR>
0

>  <SCORE.INTRA.POLAR.0>
0

>  <SCORE.INTRA.REPUL>
0

>  <SCORE.INTRA.REPUL.0>
0

>  <SCORE.INTRA.SOLV>
-1.40474

>  <SCORE.INTRA.SOLV.lig_0>
-33.7882

>  <SCORE.INTRA.VDW>
-0.419514

>  <SCORE.INTRA.VDW.0>
-0.593976

>  <SCORE.INTRA.norm>
-0.0783646

>  <SCORE.RESTR>
0

>  <SCORE.RESTR.CAVITY>
0

>  <SCORE.RESTR.norm>
0

>  <SCORE.SYSTEM>
0

>  <SCORE.SYSTEM.CONST>
0

>  <SCORE.SYSTEM.DIHEDRAL>
0

>  <SCORE.SYSTEM.SOLV>
0

>  <SCORE.SYSTEM.norm>
0

>  <SCORE.heavy>
10

>  <SCORE.norm>
-1.1047

>  <RMSD>
3.583

$$$$
ligand
 OpenBabel11021811473D
libRbt.so/2013.1/901 2013/11/27
 10  9  0  0  0  0  0  0  0  0999 V2000
   30.9625   16.2149   22.2184 N   0  0  0  0  0  0  0  0  0  0  0  0
   29.5003   16.2915   21.9310 C   0  0  2  0  0  0  0  0  0  0  0  0
   28.7529   15.1343   22.5275 C   0  0  0  0  0  0  0  0  0  0  0  0
   27.5428   15.1975   22.7232 O   0  0  0  0  0  0  0  0  0  0  0  0
   29.2715   16.4078   20.4268 C   0  0  0  0  0  0  0  0  0  0  0  0
   29.8505   14.9216   19.6682 S   0  0  0  0  0  0  0  0  0  0  0  0
   28.8048   14.8424   18.2511 C   0  0  0  0  0  0  0  0  0  0  0  0
   27.5504   14.0516   18.6088 C   0  0  0  0  0  0  0  0  0  0  0  0
   26.8809   14.6743   19.7330 N   0  0  0  0  0  0  0  0  0  0  0  0
   29.2947   14.0724   22.8264 O   0  0  0  0  0  0  0  0  0  0  0  0
  2  1  1  6  0  0  0
  2  3  1  0  0  0  0
  2  5  1  0  0  0  0
  3  4  1  0  0  0  0
  3 10  1  0  0  0  0
  5  6  1  0  0  0  0
  6  7  1  0  0  0  0
  7  8  1  0  0  0  0
  8  9  1  0  0  0  0
M  END
>  <CHROM.1>
159.73123087,64.32205909,151.36016927,-90.31984070,57.51966892,28.94192668
15.13141693,20.77223972,-1.26802160,-0.39287502,-1.66539389

>  <Name>
ligand

>  <RI>
0

>  <Rbt.Current_Directory>
/home/itssahil/PROJECTS/Mol_Feturizer/New_Systems/rnas/3DIG

>  <Rbt.Executable>
rbdock ($Id: //depot/dev/client3/rdock/2013.1/src/exe/rbdock.cxx#4 $)

>  <Rbt.Library>
libRbt.so (2013.1, Build901 2013/11/27)

>  <Rbt.Parameter_File>
/export/apps/rDock/src/rDock_2013.1_src/data/scripts/dock_solv.prm

>  <Rbt.Receptor>
prm/blind_docking_60.prm

>  <SCORE>
-8.60607

>  <SCORE.INTER>
-9.88187

>  <SCORE.INTER.CONST>
1

>  <SCORE.INTER.POLAR>
0

>  <SCORE.INTER.ROT>
5

>  <SCORE.INTER.SOLV>
13.2486

>  <SCORE.INTER.VDW>
-17.9374

>  <SCORE.INTER.norm>
-0.988187

>  <SCORE.INTRA>
1.27579

>  <SCORE.INTRA.DIHEDRAL>
1.28933

>  <SCORE.INTRA.DIHEDRAL.0>
2.60093

>  <SCORE.INTRA.POLAR>
0

>  <SCORE.INTRA.POLAR.0>
0

>  <SCORE.INTRA.REPUL>
0

>  <SCORE.INTRA.REPUL.0>
0

>  <SCORE.INTRA.SOLV>
2.77945

>  <SCORE.INTRA.SOLV.lig_0>
-33.7882

>  <SCORE.INTRA.VDW>
-0.758598

>  <SCORE.INTRA.VDW.0>
-0.593976

>  <SCORE.INTRA.norm>
0.127579

>  <SCORE.RESTR>
0

>  <SCORE.RESTR.CAVITY>
0

>  <SCORE.RESTR.norm>
0

>  <SCORE.SYSTEM>
0

>  <SCORE.SYSTEM.CONST>
0

>  <SCORE.SYSTEM.DIHEDRAL>
0

>  <SCORE.SYSTEM.SOLV>
0

>  <SCORE.SYSTEM.norm>
0

>  <SCORE.heavy>
10

>  <SCORE.norm>
-0.860607

>  <RMSD>
3.680

$$$$
ligand
 OpenBabel11021811473D
libRbt.so/2013.1/901 2013/11/27
 10  9  0  0  0  0  0  0  0  0999 V2000
   30.7969   15.9510   21.3930 N   0  0  0  0  0  0  0  0  0  0  0  0
   29.3785   16.2796   21.7195 C   0  0  2  0  0  0  0  0  0  0  0  0
   28.6331   15.0832   22.2360 C   0  0  0  0  0  0  0  0  0  0  0  0
   29.1879   13.9943   22.3500 O   0  0  0  0  0  0  0  0  0  0  0  0
   28.6956   16.9000   20.5041 C   0  0  0  0  0  0  0  0  0  0  0  0
   28.8254   15.7599   19.1615 S   0  0  0  0  0  0  0  0  0  0  0  0
   27.4605   14.6955   19.4961 C   0  0  0  0  0  0  0  0  0  0  0  0
   27.3438   13.6756   18.3677 C   0  0  0  0  0  0  0  0  0  0  0  0
   28.5648   12.9005   18.2778 N   0  0  0  0  0  0  0  0  0  0  0  0
   27.4565   15.1306   22.5880 O   0  0  0  0  0  0  0  0  0  0  0  0
  2  1  1  6  0  0  0
  2  3  1  0  0  0  0
  2  5  1  0  0  0  0
  3  4  1  0  0  0  0
  3 10  1  0  0  0  0
  5  6  1  0  0  0  0
  6  7  1  0  0  0  0
  7  8  1  0  0  0  0
  8  9  1  0  0  0  0
M  END
>  <CHROM.1>
-0.01489282,57.21317690,83.31989982,176.12084500,59.60455148,28.64325753
15.09883861,20.46401663,-1.02144741,-1.02919864,-1.49452180

>  <Name>
ligand

>  <RI>
0

>  <Rbt.Current_Directory>
/home/itssahil/PROJECTS/Mol_Feturizer/New_Systems/rnas/3DIG

>  <Rbt.Executable>
rbdock ($Id: //depot/dev/client3/rdock/2013.1/src/exe/rbdock.cxx#4 $)

>  <Rbt.Library>
libRbt.so (2013.1, Build901 2013/11/27)

>  <Rbt.Parameter_File>
/export/apps/rDock/src/rDock_2013.1_src/data/scripts/dock_solv.prm

>  <Rbt.Receptor>
prm/blind_docking_60.prm

>  <SCORE>
-8.585

>  <SCORE.INTER>
-8.59487

>  <SCORE.INTER.CONST>
1

>  <SCORE.INTER.POLAR>
0

>  <SCORE.INTER.ROT>
5

>  <SCORE.INTER.SOLV>
14.4777

>  <SCORE.INTER.VDW>
-17.4892

>  <SCORE.INTER.norm>
-0.859487

>  <SCORE.INTRA>
0.00986963

>  <SCORE.INTRA.DIHEDRAL>
-0.259318

>  <SCORE.INTRA.DIHEDRAL.0>
2.60093

>  <SCORE.INTRA.POLAR>
0

>  <SCORE.INTRA.POLAR.0>
0

>  <SCORE.INTRA.REPUL>
0

>  <SCORE.INTRA.REPUL.0>
0

>  <SCORE.INTRA.SOLV>
0.734563

>  <SCORE.INTRA.SOLV.lig_0>
-33.7882

>  <SCORE.INTRA.VDW>
-0.227753

>  <SCORE.INTRA.VDW.0>
-0.593976

>  <SCORE.INTRA.norm>
0.000986963

>  <SCORE.RESTR>
0

>  <SCORE.RESTR.CAVITY>
0

>  <SCORE.RESTR.norm>
0

>  <SCORE.SYSTEM>
0

>  <SCORE.SYSTEM.CONST>
0

>  <SCORE.SYSTEM.DIHEDRAL>
0

>  <SCORE.SYSTEM.SOLV>
0

>  <SCORE.SYSTEM.norm>
0

>  <SCORE.heavy>
10

>  <SCORE.norm>
-0.8585

>  <RMSD>
3.748

$$$$
ligand
 OpenBabel11021811473D
libRbt.so/2013.1/901 2013/11/27
 10  9  0  0  0  0  0  0  0  0999 V2000
   30.6583   16.5335   22.9439 N   0  0  0  0  0  0  0  0  0  0  0  0
   29.4849   16.3300   22.0450 C   0  0  2  0  0  0  0  0  0  0  0  0
   28.7483   15.0623   22.3671 C   0  0  0  0  0  0  0  0  0  0  0  0
   27.5230   15.0443   22.4380 O   0  0  0  0  0  0  0  0  0  0  0  0
   29.9323   16.3787   20.5870 C   0  0  0  0  0  0  0  0  0  0  0  0
   28.5142   16.1082   19.5696 S   0  0  0  0  0  0  0  0  0  0  0  0
   28.7154   14.4042   19.1651 C   0  0  0  0  0  0  0  0  0  0  0  0
   27.5200   13.9516   18.3326 C   0  0  0  0  0  0  0  0  0  0  0  0
   27.6563   12.5479   17.9998 N   0  0  0  0  0  0  0  0  0  0  0  0
   29.3169   13.9883   22.5518 O   0  0  0  0  0  0  0  0  0  0  0  0
  2  1  1  1  0  0  0
  2  3  1  0  0  0  0
  2  5  1  0  0  0  0
  3  4  1  0  0  0  0
  3 10  1  0  0  0  0
  5  6  1  0  0  0  0
  6  7  1  0  0  0  0
  7  8  1  0  0  0  0
  8  9  1  0  0  0  0
M  END
>  <CHROM.1>
134.80737100,179.13311896,-100.07857894,176.92259163,-179.38225077,28.76055858
15.13520805,20.67497675,-0.71109497,-1.07978959,-1.24079007

>  <Name>
ligand

>  <RI>
0

>  <Rbt.Current_Directory>
/home/itssahil/PROJECTS/Mol_Feturizer/New_Systems/rnas/3DIG

>  <Rbt.Executable>
rbdock ($Id: //depot/dev/client3/rdock/2013.1/src/exe/rbdock.cxx#4 $)

>  <Rbt.Library>
libRbt.so (2013.1, Build901 2013/11/27)

>  <Rbt.Parameter_File>
/export/apps/rDock/src/rDock_2013.1_src/data/scripts/dock_solv.prm

>  <Rbt.Receptor>
prm/blind_docking_60.prm

>  <SCORE>
-10.1911

>  <SCORE.INTER>
-9.0697

>  <SCORE.INTER.CONST>
1

>  <SCORE.INTER.POLAR>
0

>  <SCORE.INTER.ROT>
5

>  <SCORE.INTER.SOLV>
17.1436

>  <SCORE.INTER.VDW>
-18.6943

>  <SCORE.INTER.norm>
-0.90697

>  <SCORE.INTRA>
-1.12142

>  <SCORE.INTRA.DIHEDRAL>
0.692929

>  <SCORE.INTRA.DIHEDRAL.0>
2.60093

>  <SCORE.INTRA.POLAR>
0

>  <SCORE.INTRA.POLAR.0>
0

>  <SCORE.INTRA.REPUL>
0

>  <SCORE.INTRA.REPUL.0>
0

>  <SCORE.INTRA.SOLV>
-1.5598

>  <SCORE.INTRA.SOLV.lig_0>
-33.7882

>  <SCORE.INTRA.VDW>
-0.687989

>  <SCORE.INTRA.VDW.0>
-0.593976

>  <SCORE.INTRA.norm>
-0.112142

>  <SCORE.RESTR>
0

>  <SCORE.RESTR.CAVITY>
0

>  <SCORE.RESTR.norm>
0

>  <SCORE.SYSTEM>
0

>  <SCORE.SYSTEM.CONST>
0

>  <SCORE.SYSTEM.DIHEDRAL>
0

>  <SCORE.SYSTEM.SOLV>
0

>  <SCORE.SYSTEM.norm>
0

>  <SCORE.heavy>
10

>  <SCORE.norm>
-1.01911

>  <RMSD>
3.755

$$$$
ligand
 OpenBabel11021811473D
libRbt.so/2013.1/901 2013/11/27
 10  9  0  0  0  0  0  0  0  0999 V2000
   30.5700   16.4484   22.9559 N   0  0  0  0  0  0  0  0  0  0  0  0
   29.3880   16.2692   22.0630 C   0  0  2  0  0  0  0  0  0  0  0  0
   28.6852   14.9682   22.3217 C   0  0  0  0  0  0  0  0  0  0  0  0
   29.3195   13.9377   22.5277 O   0  0  0  0  0  0  0  0  0  0  0  0
   29.8123   16.4116   20.6041 C   0  0  0  0  0  0  0  0  0  0  0  0
   28.4025   16.0904   19.5899 S   0  0  0  0  0  0  0  0  0  0  0  0
   28.6852   14.4065   19.1514 C   0  0  0  0  0  0  0  0  0  0  0  0
   27.5008   13.9065   18.3302 C   0  0  0  0  0  0  0  0  0  0  0  0
   27.6904   12.5095   17.9948 N   0  0  0  0  0  0  0  0  0  0  0  0
   27.4609   14.8676   22.3637 O   0  0  0  0  0  0  0  0  0  0  0  0
  2  1  1  1  0  0  0
  2  3  1  0  0  0  0
  2  5  1  0  0  0  0
  3  4  1  0  0  0  0
  3 10  1  0  0  0  0
  5  6  1  0  0  0  0
  6  7  1  0  0  0  0
  7  8  1  0  0  0  0
  8  9  1  0  0  0  0
M  END
>  <CHROM.1>
-41.05287027,176.46886991,-98.29842295,176.30730649,-178.13653916,28.69970902
15.08497009,20.66794492,-0.63833632,-1.11570632,-1.15138071

>  <Name>
ligand

>  <RI>
0

>  <Rbt.Current_Directory>
/home/itssahil/PROJECTS/Mol_Feturizer/New_Systems/rnas/3DIG

>  <Rbt.Executable>
rbdock ($Id: //depot/dev/client3/rdock/2013.1/src/exe/rbdock.cxx#4 $)

>  <Rbt.Library>
libRbt.so (2013.1, Build901 2013/11/27)

>  <Rbt.Parameter_File>
/export/apps/rDock/src/rDock_2013.1_src/data/scripts/dock_solv.prm

>  <Rbt.Receptor>
prm/blind_docking_60.prm

>  <SCORE>
-10.1194

>  <SCORE.INTER>
-9.16033

>  <SCORE.INTER.CONST>
1

>  <SCORE.INTER.POLAR>
0

>  <SCORE.INTER.ROT>
5

>  <SCORE.INTER.SOLV>
17.3805

>  <SCORE.INTER.VDW>
-18.8337

>  <SCORE.INTER.norm>
-0.916033

>  <SCORE.INTRA>
-0.959121

>  <SCORE.INTRA.DIHEDRAL>
0.716514

>  <SCORE.INTRA.DIHEDRAL.0>
2.60093

>  <SCORE.INTRA.POLAR>
0

>  <SCORE.INTRA.POLAR.0>
0

>  <SCORE.INTRA.REPUL>
0

>  <SCORE.INTRA.REPUL.0>
0

>  <SCORE.INTRA.SOLV>
-1.53348

>  <SCORE.INTRA.SOLV.lig_0>
-33.7882

>  <SCORE.INTRA.VDW>
-0.550636

>  <SCORE.INTRA.VDW.0>
-0.593976

>  <SCORE.INTRA.norm>
-0.0959121

>  <SCORE.RESTR>
0

>  <SCORE.RESTR.CAVITY>
0

>  <SCORE.RESTR.norm>
0

>  <SCORE.SYSTEM>
0

>  <SCORE.SYSTEM.CONST>
0

>  <SCORE.SYSTEM.DIHEDRAL>
0

>  <SCORE.SYSTEM.SOLV>
0

>  <SCORE.SYSTEM.norm>
0

>  <SCORE.heavy>
10

>  <SCORE.norm>
-1.01194

>  <RMSD>
3.816

$$$$
ligand
 OpenBabel11021811473D
libRbt.so/2013.1/901 2013/11/27
 10  9  0  0  0  0  0  0  0  0999 V2000
   30.0693   16.7407   21.9646 N   0  0  0  0  0  0  0  0  0  0  0  0
   28.8162   16.1401   21.4210 C   0  0  2  0  0  0  0  0  0  0  0  0
   28.3079   15.0270   22.2906 C   0  0  0  0  0  0  0  0  0  0  0  0
   29.0782   14.2074   22.7821 O   0  0  0  0  0  0  0  0  0  0  0  0
   29.0391   15.6869   19.9811 C   0  0  0  0  0  0  0  0  0  0  0  0
   27.5520   14.9234   19.4108 S   0  0  0  0  0  0  0  0  0  0  0  0
   28.2055   13.5707   18.4884 C   0  0  0  0  0  0  0  0  0  0  0  0
   27.0470   12.7674   17.9055 C   0  0  0  0  0  0  0  0  0  0  0  0
   27.5254   11.4801   17.4430 N   0  0  0  0  0  0  0  0  0  0  0  0
   27.1194   14.8894   22.5722 O   0  0  0  0  0  0  0  0  0  0  0  0
  2  1  1  1  0  0  0
  2  3  1  0  0  0  0
  2  5  1  0  0  0  0
  3  4  1  0  0  0  0
  3 10  1  0  0  0  0
  5  6  1  0  0  0  0
  6  7  1  0  0  0  0
  7  8  1  0  0  0  0
  8  9  1  0  0  0  0
M  END
>  <CHROM.1>
-41.57602305,177.60407839,-140.19881373,179.80015295,-165.38518626,28.18564749
14.57038355,20.33701514,-0.98439569,-1.07344219,-1.64159320

>  <Name>
ligand

>  <RI>
0

>  <Rbt.Current_Directory>
/home/itssahil/PROJECTS/Mol_Feturizer/New_Systems/rnas/3DIG

>  <Rbt.Executable>
rbdock ($Id: //depot/dev/client3/rdock/2013.1/src/exe/rbdock.cxx#4 $)

>  <Rbt.Library>
libRbt.so (2013.1, Build901 2013/11/27)

>  <Rbt.Parameter_File>
/export/apps/rDock/src/rDock_2013.1_src/data/scripts/dock_solv.prm

>  <Rbt.Receptor>
prm/pocket_docking_8.prm

>  <SCORE>
-9.75979

>  <SCORE.INTER>
-9.35912

>  <SCORE.INTER.CONST>
1

>  <SCORE.INTER.POLAR>
0

>  <SCORE.INTER.ROT>
5

>  <SCORE.INTER.SOLV>
17.8689

>  <SCORE.INTER.VDW>
-19.129

>  <SCORE.INTER.norm>
-0.935912

>  <SCORE.INTRA>
-0.400675

>  <SCORE.INTRA.DIHEDRAL>
1.51188

>  <SCORE.INTRA.DIHEDRAL.0>
2.60093

>  <SCORE.INTRA.POLAR>
0

>  <SCORE.INTRA.POLAR.0>
0

>  <SCORE.INTRA.REPUL>
0

>  <SCORE.INTRA.REPUL.0>
0

>  <SCORE.INTRA.SOLV>
-1.52734

>  <SCORE.INTRA.SOLV.lig_0>
-33.7882

>  <SCORE.INTRA.VDW>
-0.392943

>  <SCORE.INTRA.VDW.0>
-0.593976

>  <SCORE.INTRA.norm>
-0.0400675

>  <SCORE.RESTR>
0

>  <SCORE.RESTR.CAVITY>
0

>  <SCORE.RESTR.norm>
0

>  <SCORE.SYSTEM>
0

>  <SCORE.SYSTEM.CONST>
0

>  <SCORE.SYSTEM.DIHEDRAL>
0

>  <SCORE.SYSTEM.SOLV>
0

>  <SCORE.SYSTEM.norm>
0

>  <SCORE.heavy>
10

>  <SCORE.norm>
-0.975979

>  <RMSD>
4.258

$$$$
ligand
 OpenBabel11021811473D
libRbt.so/2013.1/901 2013/11/27
 10  9  0  0  0  0  0  0  0  0999 V2000
   29.8995   16.8066   21.6927 N   0  0  0  0  0  0  0  0  0  0  0  0
   28.6674   16.1007   21.2341 C   0  0  2  0  0  0  0  0  0  0  0  0
   28.2554   15.0190   22.1899 C   0  0  0  0  0  0  0  0  0  0  0  0
   29.0864   14.2627   22.6840 O   0  0  0  0  0  0  0  0  0  0  0  0
   28.8697   15.5686   19.8183 C   0  0  0  0  0  0  0  0  0  0  0  0
   27.3975   14.7202   19.3365 S   0  0  0  0  0  0  0  0  0  0  0  0
   28.0721   13.3960   18.3884 C   0  0  0  0  0  0  0  0  0  0  0  0
   26.9279   12.5371   17.8590 C   0  0  0  0  0  0  0  0  0  0  0  0
   27.4401   11.2573   17.4124 N   0  0  0  0  0  0  0  0  0  0  0  0
   27.0904   14.8474   22.5420 O   0  0  0  0  0  0  0  0  0  0  0  0
  2  1  1  1  0  0  0
  2  3  1  0  0  0  0
  2  5  1  0  0  0  0
  3  4  1  0  0  0  0
  3 10  1  0  0  0  0
  5  6  1  0  0  0  0
  6  7  1  0  0  0  0
  7  8  1  0  0  0  0
  8  9  1  0  0  0  0
M  END
>  <CHROM.1>
-42.96279835,179.01385361,-143.77984831,-179.38656606,-163.80511287,28.07667339
14.46704501,20.23240141,-0.95074328,-1.10001093,-1.64686255

>  <Name>
ligand

>  <RI>
0

>  <Rbt.Current_Directory>
/home/itssahil/PROJECTS/Mol_Feturizer/New_Systems/rnas/3DIG

>  <Rbt.Executable>
rbdock ($Id: //depot/dev/client3/rdock/2013.1/src/exe/rbdock.cxx#4 $)

>  <Rbt.Library>
libRbt.so (2013.1, Build901 2013/11/27)

>  <Rbt.Parameter_File>
/export/apps/rDock/src/rDock_2013.1_src/data/scripts/dock_solv.prm

>  <Rbt.Receptor>
prm/pocket_docking_7.prm

>  <SCORE>
-9.8347

>  <SCORE.INTER>
-9.38888

>  <SCORE.INTER.CONST>
1

>  <SCORE.INTER.POLAR>
0

>  <SCORE.INTER.ROT>
5

>  <SCORE.INTER.SOLV>
18.28

>  <SCORE.INTER.VDW>
-19.2859

>  <SCORE.INTER.norm>
-0.938888

>  <SCORE.INTRA>
-0.44582

>  <SCORE.INTRA.DIHEDRAL>
1.4553

>  <SCORE.INTRA.DIHEDRAL.0>
2.60093

>  <SCORE.INTRA.POLAR>
0

>  <SCORE.INTRA.POLAR.0>
0

>  <SCORE.INTRA.REPUL>
0

>  <SCORE.INTRA.REPUL.0>
0

>  <SCORE.INTRA.SOLV>
-1.52766

>  <SCORE.INTRA.SOLV.lig_0>
-33.7882

>  <SCORE.INTRA.VDW>
-0.409636

>  <SCORE.INTRA.VDW.0>
-0.593976

>  <SCORE.INTRA.norm>
-0.044582

>  <SCORE.RESTR>
0

>  <SCORE.RESTR.CAVITY>
0

>  <SCORE.RESTR.norm>
0

>  <SCORE.SYSTEM>
0

>  <SCORE.SYSTEM.CONST>
0

>  <SCORE.SYSTEM.DIHEDRAL>
0

>  <SCORE.SYSTEM.SOLV>
0

>  <SCORE.SYSTEM.norm>
0

>  <SCORE.heavy>
10

>  <SCORE.norm>
-0.98347

>  <RMSD>
4.357

$$$$
ligand
 OpenBabel11021811473D
libRbt.so/2013.1/901 2013/11/27
 10  9  0  0  0  0  0  0  0  0999 V2000
   29.8875   16.7680   21.7192 N   0  0  0  0  0  0  0  0  0  0  0  0
   28.6558   16.0731   21.2432 C   0  0  2  0  0  0  0  0  0  0  0  0
   28.2092   15.0088   22.2030 C   0  0  0  0  0  0  0  0  0  0  0  0
   29.0217   14.2630   22.7419 O   0  0  0  0  0  0  0  0  0  0  0  0
   28.8803   15.5211   19.8384 C   0  0  0  0  0  0  0  0  0  0  0  0
   27.4015   14.7004   19.3297 S   0  0  0  0  0  0  0  0  0  0  0  0
   28.0676   13.3770   18.3743 C   0  0  0  0  0  0  0  0  0  0  0  0
   26.9175   12.5344   17.8317 C   0  0  0  0  0  0  0  0  0  0  0  0
   27.4159   11.2457   17.3953 N   0  0  0  0  0  0  0  0  0  0  0  0
   27.0320   14.8420   22.5145 O   0  0  0  0  0  0  0  0  0  0  0  0
  2  1  1  1  0  0  0
  2  3  1  0  0  0  0
  2  5  1  0  0  0  0
  3  4  1  0  0  0  0
  3 10  1  0  0  0  0
  5  6  1  0  0  0  0
  6  7  1  0  0  0  0
  7  8  1  0  0  0  0
  8  9  1  0  0  0  0
M  END
>  <CHROM.1>
-41.64452497,179.56077493,-145.30114692,-179.87032794,-162.97241023,28.05711170
14.44899239,20.23474682,-0.99838018,-1.07288650,-1.69083947

>  <Name>
ligand

>  <RI>
0

>  <Rbt.Current_Directory>
/home/itssahil/PROJECTS/Mol_Feturizer/New_Systems/rnas/3DIG

>  <Rbt.Executable>
rbdock ($Id: //depot/dev/client3/rdock/2013.1/src/exe/rbdock.cxx#4 $)

>  <Rbt.Library>
libRbt.so (2013.1, Build901 2013/11/27)

>  <Rbt.Parameter_File>
/export/apps/rDock/src/rDock_2013.1_src/data/scripts/dock_solv.prm

>  <Rbt.Receptor>
prm/blind_docking_80.prm

>  <SCORE>
-9.8514

>  <SCORE.INTER>
-9.40179

>  <SCORE.INTER.CONST>
1

>  <SCORE.INTER.POLAR>
0

>  <SCORE.INTER.ROT>
5

>  <SCORE.INTER.SOLV>
18.1482

>  <SCORE.INTER.VDW>
-19.2506

>  <SCORE.INTER.norm>
-0.940179

>  <SCORE.INTRA>
-0.449615

>  <SCORE.INTRA.DIHEDRAL>
1.4552

>  <SCORE.INTRA.DIHEDRAL.0>
2.60093

>  <SCORE.INTRA.POLAR>
0

>  <SCORE.INTRA.POLAR.0>
0

>  <SCORE.INTRA.REPUL>
0

>  <SCORE.INTRA.REPUL.0>
0

>  <SCORE.INTRA.SOLV>
-1.52603

>  <SCORE.INTRA.SOLV.lig_0>
-33.7882

>  <SCORE.INTRA.VDW>
-0.414202

>  <SCORE.INTRA.VDW.0>
-0.593976

>  <SCORE.INTRA.norm>
-0.0449615

>  <SCORE.RESTR>
0

>  <SCORE.RESTR.CAVITY>
0

>  <SCORE.RESTR.norm>
0

>  <SCORE.SYSTEM>
0

>  <SCORE.SYSTEM.CONST>
0

>  <SCORE.SYSTEM.DIHEDRAL>
0

>  <SCORE.SYSTEM.SOLV>
0

>  <SCORE.SYSTEM.norm>
0

>  <SCORE.heavy>
10

>  <SCORE.norm>
-0.98514

>  <RMSD>
4.388

$$$$
ligand
 OpenBabel11021811473D
libRbt.so/2013.1/901 2013/11/27
 10  9  0  0  0  0  0  0  0  0999 V2000
   27.3592   14.0364   19.5036 N   0  0  0  0  0  0  0  0  0  0  0  0
   27.2776   15.3402   20.2245 C   0  0  2  0  0  0  0  0  0  0  0  0
   28.2615   16.3381   19.6863 C   0  0  0  0  0  0  0  0  0  0  0  0
   28.7454   16.2068   18.5660 O   0  0  0  0  0  0  0  0  0  0  0  0
   27.4497   15.1167   21.7242 C   0  0  0  0  0  0  0  0  0  0  0  0
   29.0972   14.5467   22.0075 S   0  0  0  0  0  0  0  0  0  0  0  0
   29.8153   15.9682   22.7635 C   0  0  0  0  0  0  0  0  0  0  0  0
   31.3319   15.8050   22.7771 C   0  0  0  0  0  0  0  0  0  0  0  0
   31.8439   15.8590   21.4226 N   0  0  0  0  0  0  0  0  0  0  0  0
   28.6134   17.3342   20.3145 O   0  0  0  0  0  0  0  0  0  0  0  0
  2  1  1  6  0  0  0
  2  3  1  0  0  0  0
  2  5  1  0  0  0  0
  3  4  1  0  0  0  0
  3 10  1  0  0  0  0
  5  6  1  0  0  0  0
  6  7  1  0  0  0  0
  7  8  1  0  0  0  0
  8  9  1  0  0  0  0
M  END
>  <CHROM.1>
20.12969535,66.16976533,108.14824796,-166.14913761,67.81380298,29.00511671
15.55074797,21.00812664,2.56946633,-0.49619902,-0.97517486

>  <Name>
ligand

>  <RI>
0

>  <Rbt.Current_Directory>
/home/itssahil/PROJECTS/Mol_Feturizer/New_Systems/rnas/3DIG

>  <Rbt.Executable>
rbdock ($Id: //depot/dev/client3/rdock/2013.1/src/exe/rbdock.cxx#4 $)

>  <Rbt.Library>
libRbt.so (2013.1, Build901 2013/11/27)

>  <Rbt.Parameter_File>
/export/apps/rDock/src/rDock_2013.1_src/data/scripts/dock_solv.prm

>  <Rbt.Receptor>
prm/pocket_docking_4.prm

>  <SCORE>
-11.009

>  <SCORE.INTER>
-11.6053

>  <SCORE.INTER.CONST>
1

>  <SCORE.INTER.POLAR>
0

>  <SCORE.INTER.ROT>
5

>  <SCORE.INTER.SOLV>
15.9969

>  <SCORE.INTER.VDW>
-20.0025

>  <SCORE.INTER.norm>
-1.16053

>  <SCORE.INTRA>
0.596308

>  <SCORE.INTRA.DIHEDRAL>
1.71118

>  <SCORE.INTRA.DIHEDRAL.0>
2.60093

>  <SCORE.INTRA.POLAR>
0

>  <SCORE.INTRA.POLAR.0>
0

>  <SCORE.INTRA.REPUL>
0

>  <SCORE.INTRA.REPUL.0>
0

>  <SCORE.INTRA.SOLV>
0.478611

>  <SCORE.INTRA.SOLV.lig_0>
-33.7882

>  <SCORE.INTRA.VDW>
-0.49859

>  <SCORE.INTRA.VDW.0>
-0.593976

>  <SCORE.INTRA.norm>
0.0596308

>  <SCORE.RESTR>
0

>  <SCORE.RESTR.CAVITY>
0

>  <SCORE.RESTR.norm>
0

>  <SCORE.SYSTEM>
0

>  <SCORE.SYSTEM.CONST>
0

>  <SCORE.SYSTEM.DIHEDRAL>
0

>  <SCORE.SYSTEM.SOLV>
0

>  <SCORE.SYSTEM.norm>
0

>  <SCORE.heavy>
10

>  <SCORE.norm>
-1.1009

>  <RMSD>
4.823

$$$$
ligand
 OpenBabel11021811473D
libRbt.so/2013.1/901 2013/11/27
 10  9  0  0  0  0  0  0  0  0999 V2000
   27.5503   15.7676   20.0184 N   0  0  0  0  0  0  0  0  0  0  0  0
   28.2927   14.4896   20.2236 C   0  0  2  0  0  0  0  0  0  0  0  0
   29.4908   14.6761   21.1087 C   0  0  0  0  0  0  0  0  0  0  0  0
   29.4868   14.2770   22.2694 O   0  0  0  0  0  0  0  0  0  0  0  0
   28.6655   13.8826   18.8742 C   0  0  0  0  0  0  0  0  0  0  0  0
   27.1843   13.3031   18.1063 S   0  0  0  0  0  0  0  0  0  0  0  0
   27.6705   11.6765   17.6314 C   0  0  0  0  0  0  0  0  0  0  0  0
   26.4680   10.7465   17.7593 C   0  0  0  0  0  0  0  0  0  0  0  0
   26.8709    9.3819   17.4848 N   0  0  0  0  0  0  0  0  0  0  0  0
   30.5297   15.2075   20.7227 O   0  0  0  0  0  0  0  0  0  0  0  0
  2  1  1  6  0  0  0
  2  3  1  0  0  0  0
  2  5  1  0  0  0  0
  3  4  1  0  0  0  0
  3 10  1  0  0  0  0
  5  6  1  0  0  0  0
  6  7  1  0  0  0  0
  7  8  1  0  0  0  0
  8  9  1  0  0  0  0
M  END
>  <CHROM.1>
105.72089614,-70.27196183,-131.13647607,145.25366284,-175.12514827,28.13154571
13.34730677,19.29622110,0.86327554,-0.85811143,0.13014839

>  <Name>
ligand

>  <RI>
0

>  <Rbt.Current_Directory>
/home/itssahil/PROJECTS/Mol_Feturizer/New_Systems/rnas/3DIG

>  <Rbt.Executable>
rbdock ($Id: //depot/dev/client3/rdock/2013.1/src/exe/rbdock.cxx#4 $)

>  <Rbt.Library>
libRbt.so (2013.1, Build901 2013/11/27)

>  <Rbt.Parameter_File>
/export/apps/rDock/src/rDock_2013.1_src/data/scripts/dock_solv.prm

>  <Rbt.Receptor>
prm/blind_docking_100.prm

>  <SCORE>
-5.62727

>  <SCORE.INTER>
-6.41611

>  <SCORE.INTER.CONST>
1

>  <SCORE.INTER.POLAR>
0

>  <SCORE.INTER.ROT>
5

>  <SCORE.INTER.SOLV>
16.6662

>  <SCORE.INTER.VDW>
-16.7661

>  <SCORE.INTER.norm>
-0.641611

>  <SCORE.INTRA>
0.722473

>  <SCORE.INTRA.DIHEDRAL>
3.06876

>  <SCORE.INTRA.DIHEDRAL.0>
2.60093

>  <SCORE.INTRA.POLAR>
0

>  <SCORE.INTRA.POLAR.0>
0

>  <SCORE.INTRA.REPUL>
0

>  <SCORE.INTRA.REPUL.0>
0

>  <SCORE.INTRA.SOLV>
-0.948553

>  <SCORE.INTRA.SOLV.lig_0>
-33.7882

>  <SCORE.INTRA.VDW>
-0.33763

>  <SCORE.INTRA.VDW.0>
-0.593976

>  <SCORE.INTRA.norm>
0.0722473

>  <SCORE.RESTR>
0.0663709

>  <SCORE.RESTR.CAVITY>
0.0663709

>  <SCORE.RESTR.norm>
0.00663709

>  <SCORE.SYSTEM>
0

>  <SCORE.SYSTEM.CONST>
0

>  <SCORE.SYSTEM.DIHEDRAL>
0

>  <SCORE.SYSTEM.SOLV>
0

>  <SCORE.SYSTEM.norm>
0

>  <SCORE.heavy>
10

>  <SCORE.norm>
-0.562727

>  <RMSD>
4.824

$$$$
ligand
 OpenBabel11021811473D
libRbt.so/2013.1/901 2013/11/27
 10  9  0  0  0  0  0  0  0  0999 V2000
   29.5384   15.8243   20.0796 N   0  0  0  0  0  0  0  0  0  0  0  0
   28.1438   15.5645   20.5423 C   0  0  2  0  0  0  0  0  0  0  0  0
   28.1161   14.7354   21.7934 C   0  0  0  0  0  0  0  0  0  0  0  0
   27.1226   14.7119   22.5137 O   0  0  0  0  0  0  0  0  0  0  0  0
   27.3321   14.9308   19.4162 C   0  0  0  0  0  0  0  0  0  0  0  0
   28.3199   13.6705   18.6712 S   0  0  0  0  0  0  0  0  0  0  0  0
   27.0760   12.6778   17.9129 C   0  0  0  0  0  0  0  0  0  0  0  0
   27.6625   11.3035   17.6059 C   0  0  0  0  0  0  0  0  0  0  0  0
   26.5956   10.3313   17.4785 N   0  0  0  0  0  0  0  0  0  0  0  0
   29.0583   14.0302   22.1479 O   0  0  0  0  0  0  0  0  0  0  0  0
  2  1  1  6  0  0  0
  2  3  1  0  0  0  0
  2  5  1  0  0  0  0
  3  4  1  0  0  0  0
  3 10  1  0  0  0  0
  5  6  1  0  0  0  0
  6  7  1  0  0  0  0
  7  8  1  0  0  0  0
  8  9  1  0  0  0  0
M  END
>  <CHROM.1>
160.54288716,44.73167950,158.40729951,-161.59456382,158.03122506,27.94490806
13.75728913,19.71940891,-1.12401792,-1.07791484,-1.90276577

>  <Name>
ligand

>  <RI>
0

>  <Rbt.Current_Directory>
/home/itssahil/PROJECTS/Mol_Feturizer/New_Systems/rnas/3DIG

>  <Rbt.Executable>
rbdock ($Id: //depot/dev/client3/rdock/2013.1/src/exe/rbdock.cxx#4 $)

>  <Rbt.Library>
libRbt.so (2013.1, Build901 2013/11/27)

>  <Rbt.Parameter_File>
/export/apps/rDock/src/rDock_2013.1_src/data/scripts/dock_solv.prm

>  <Rbt.Receptor>
prm/blind_docking_80.prm

>  <SCORE>
-9.15512

>  <SCORE.INTER>
-9.91515

>  <SCORE.INTER.CONST>
1

>  <SCORE.INTER.POLAR>
0

>  <SCORE.INTER.ROT>
5

>  <SCORE.INTER.SOLV>
14.4394

>  <SCORE.INTER.VDW>
-18.3566

>  <SCORE.INTER.norm>
-0.991515

>  <SCORE.INTRA>
0.760039

>  <SCORE.INTRA.DIHEDRAL>
2.45561

>  <SCORE.INTRA.DIHEDRAL.0>
2.60093

>  <SCORE.INTRA.POLAR>
0

>  <SCORE.INTRA.POLAR.0>
0

>  <SCORE.INTRA.REPUL>
0

>  <SCORE.INTRA.REPUL.0>
0

>  <SCORE.INTRA.SOLV>
-0.470382

>  <SCORE.INTRA.SOLV.lig_0>
-33.7882

>  <SCORE.INTRA.VDW>
-0.232574

>  <SCORE.INTRA.VDW.0>
-0.593976

>  <SCORE.INTRA.norm>
0.0760039

>  <SCORE.RESTR>
0

>  <SCORE.RESTR.CAVITY>
0

>  <SCORE.RESTR.norm>
0

>  <SCORE.SYSTEM>
0

>  <SCORE.SYSTEM.CONST>
0

>  <SCORE.SYSTEM.DIHEDRAL>
0

>  <SCORE.SYSTEM.SOLV>
0

>  <SCORE.SYSTEM.norm>
0

>  <SCORE.heavy>
10

>  <SCORE.norm>
-0.915512

>  <RMSD>
4.861

$$$$
ligand
 OpenBabel11021811473D
libRbt.so/2013.1/901 2013/11/27
 10  9  0  0  0  0  0  0  0  0999 V2000
   26.5406   15.1757   20.2618 N   0  0  0  0  0  0  0  0  0  0  0  0
   27.7150   15.6551   21.0476 C   0  0  2  0  0  0  0  0  0  0  0  0
   28.5966   16.5605   20.2374 C   0  0  0  0  0  0  0  0  0  0  0  0
   28.7044   16.4163   19.0233 O   0  0  0  0  0  0  0  0  0  0  0  0
   28.4824   14.4641   21.6144 C   0  0  0  0  0  0  0  0  0  0  0  0
   29.6873   15.0792   22.7498 S   0  0  0  0  0  0  0  0  0  0  0  0
   31.0558   15.3450   21.6706 C   0  0  0  0  0  0  0  0  0  0  0  0
   32.0092   16.3421   22.3216 C   0  0  0  0  0  0  0  0  0  0  0  0
   33.1060   16.6332   21.4204 N   0  0  0  0  0  0  0  0  0  0  0  0
   29.2294   17.4920   20.7300 O   0  0  0  0  0  0  0  0  0  0  0  0
  2  1  1  6  0  0  0
  2  3  1  0  0  0  0
  2  5  1  0  0  0  0
  3  4  1  0  0  0  0
  3 10  1  0  0  0  0
  5  6  1  0  0  0  0
  6  7  1  0  0  0  0
  7  8  1  0  0  0  0
  8  9  1  0  0  0  0
M  END
>  <CHROM.1>
-31.19619235,-170.56700952,-89.19387157,158.94966008,-176.85979576,29.54184372
15.84071017,21.27466383,2.91807083,-0.30478076,-0.90501549

>  <Name>
ligand

>  <RI>
0

>  <Rbt.Current_Directory>
/home/itssahil/PROJECTS/Mol_Feturizer/New_Systems/rnas/3DIG

>  <Rbt.Executable>
rbdock ($Id: //depot/dev/client3/rdock/2013.1/src/exe/rbdock.cxx#4 $)

>  <Rbt.Library>
libRbt.so (2013.1, Build901 2013/11/27)

>  <Rbt.Parameter_File>
/export/apps/rDock/src/rDock_2013.1_src/data/scripts/dock_solv.prm

>  <Rbt.Receptor>
prm/pocket_docking_8.prm

>  <SCORE>
-10.4537

>  <SCORE.INTER>
-9.65156

>  <SCORE.INTER.CONST>
1

>  <SCORE.INTER.POLAR>
0

>  <SCORE.INTER.ROT>
5

>  <SCORE.INTER.SOLV>
18.146

>  <SCORE.INTER.VDW>
-19.4164

>  <SCORE.INTER.norm>
-0.965156

>  <SCORE.INTRA>
-0.802177

>  <SCORE.INTRA.DIHEDRAL>
1.11414

>  <SCORE.INTRA.DIHEDRAL.0>
2.60093

>  <SCORE.INTRA.POLAR>
0

>  <SCORE.INTRA.POLAR.0>
0

>  <SCORE.INTRA.REPUL>
0

>  <SCORE.INTRA.REPUL.0>
0

>  <SCORE.INTRA.SOLV>
-1.52524

>  <SCORE.INTRA.SOLV.lig_0>
-33.7882

>  <SCORE.INTRA.VDW>
-0.596625

>  <SCORE.INTRA.VDW.0>
-0.593976

>  <SCORE.INTRA.norm>
-0.0802177

>  <SCORE.RESTR>
0

>  <SCORE.RESTR.CAVITY>
0

>  <SCORE.RESTR.norm>
0

>  <SCORE.SYSTEM>
0

>  <SCORE.SYSTEM.CONST>
0

>  <SCORE.SYSTEM.DIHEDRAL>
0

>  <SCORE.SYSTEM.SOLV>
0

>  <SCORE.SYSTEM.norm>
0

>  <SCORE.heavy>
10

>  <SCORE.norm>
-1.04537

>  <RMSD>
4.872

$$$$
ligand
 OpenBabel11021811473D
libRbt.so/2013.1/901 2013/11/27
 10  9  0  0  0  0  0  0  0  0999 V2000
   26.5112   15.2323   20.2793 N   0  0  0  0  0  0  0  0  0  0  0  0
   27.7137   15.6744   21.0441 C   0  0  2  0  0  0  0  0  0  0  0  0
   28.5895   16.5827   20.2308 C   0  0  0  0  0  0  0  0  0  0  0  0
   29.2554   17.4639   20.7662 O   0  0  0  0  0  0  0  0  0  0  0  0
   28.4749   14.4585   21.5644 C   0  0  0  0  0  0  0  0  0  0  0  0
   29.6624   15.0198   22.7451 S   0  0  0  0  0  0  0  0  0  0  0  0
   31.0477   15.3323   21.7005 C   0  0  0  0  0  0  0  0  0  0  0  0
   32.0320   16.2297   22.4440 C   0  0  0  0  0  0  0  0  0  0  0  0
   33.1235   16.5965   21.5643 N   0  0  0  0  0  0  0  0  0  0  0  0
   28.7046   16.4829   19.0111 O   0  0  0  0  0  0  0  0  0  0  0  0
  2  1  1  6  0  0  0
  2  3  1  0  0  0  0
  2  5  1  0  0  0  0
  3  4  1  0  0  0  0
  3 10  1  0  0  0  0
  5  6  1  0  0  0  0
  6  7  1  0  0  0  0
  7  8  1  0  0  0  0
  8  9  1  0  0  0  0
M  END
>  <CHROM.1>
148.98370417,-167.61698533,-89.39610176,162.35611574,-175.02052669,29.53840758
15.82609336,21.29854634,2.88752047,-0.30467594,-0.88786931

>  <Name>
ligand

>  <RI>
0

>  <Rbt.Current_Directory>
/home/itssahil/PROJECTS/Mol_Feturizer/New_Systems/rnas/3DIG

>  <Rbt.Executable>
rbdock ($Id: //depot/dev/client3/rdock/2013.1/src/exe/rbdock.cxx#4 $)

>  <Rbt.Library>
libRbt.so (2013.1, Build901 2013/11/27)

>  <Rbt.Parameter_File>
/export/apps/rDock/src/rDock_2013.1_src/data/scripts/dock_solv.prm

>  <Rbt.Receptor>
prm/blind_docking_60.prm

>  <SCORE>
-10.5615

>  <SCORE.INTER>
-9.73382

>  <SCORE.INTER.CONST>
1

>  <SCORE.INTER.POLAR>
0

>  <SCORE.INTER.ROT>
5

>  <SCORE.INTER.SOLV>
18.2917

>  <SCORE.INTER.VDW>
-19.5198

>  <SCORE.INTER.norm>
-0.973382

>  <SCORE.INTRA>
-0.827669

>  <SCORE.INTRA.DIHEDRAL>
1.12859

>  <SCORE.INTRA.DIHEDRAL.0>
2.60093

>  <SCORE.INTRA.POLAR>
0

>  <SCORE.INTRA.POLAR.0>
0

>  <SCORE.INTRA.REPUL>
0

>  <SCORE.INTRA.REPUL.0>
0

>  <SCORE.INTRA.SOLV>
-1.54387

>  <SCORE.INTRA.SOLV.lig_0>
-33.7882

>  <SCORE.INTRA.VDW>
-0.620032

>  <SCORE.INTRA.VDW.0>
-0.593976

>  <SCORE.INTRA.norm>
-0.0827669

>  <SCORE.RESTR>
0

>  <SCORE.RESTR.CAVITY>
0

>  <SCORE.RESTR.norm>
0

>  <SCORE.SYSTEM>
0

>  <SCORE.SYSTEM.CONST>
0

>  <SCORE.SYSTEM.DIHEDRAL>
0

>  <SCORE.SYSTEM.SOLV>
0

>  <SCORE.SYSTEM.norm>
0

>  <SCORE.heavy>
10

>  <SCORE.norm>
-1.05615

>  <RMSD>
4.883

$$$$
ligand
 OpenBabel11021811473D
libRbt.so/2013.1/901 2013/11/27
 10  9  0  0  0  0  0  0  0  0999 V2000
   29.7508   15.4962   21.2216 N   0  0  0  0  0  0  0  0  0  0  0  0
   28.4546   15.9347   20.6265 C   0  0  2  0  0  0  0  0  0  0  0  0
   27.2951   15.1594   21.1814 C   0  0  0  0  0  0  0  0  0  0  0  0
   27.4207   14.4699   22.1891 O   0  0  0  0  0  0  0  0  0  0  0  0
   28.5259   15.8493   19.1046 C   0  0  0  0  0  0  0  0  0  0  0  0
   28.8949   14.1786   18.6666 S   0  0  0  0  0  0  0  0  0  0  0  0
   27.2838   13.5701   18.2898 C   0  0  0  0  0  0  0  0  0  0  0  0
   27.4076   12.1451   17.7597 C   0  0  0  0  0  0  0  0  0  0  0  0
   26.0888   11.5786   17.5608 N   0  0  0  0  0  0  0  0  0  0  0  0
   26.1724   15.1885   20.6820 O   0  0  0  0  0  0  0  0  0  0  0  0
  2  1  1  1  0  0  0
  2  3  1  0  0  0  0
  2  5  1  0  0  0  0
  3  4  1  0  0  0  0
  3 10  1  0  0  0  0
  5  6  1  0  0  0  0
  6  7  1  0  0  0  0
  7  8  1  0  0  0  0
  8  9  1  0  0  0  0
M  END
>  <CHROM.1>
13.90416372,58.55983720,98.08206445,174.97050375,174.68948269,27.83920862
14.32858469,19.62625034,-1.28899125,-0.49696913,-2.16549020

>  <Name>
ligand

>  <RI>
0

>  <Rbt.Current_Directory>
/home/itssahil/PROJECTS/Mol_Feturizer/New_Systems/rnas/3DIG

>  <Rbt.Executable>
rbdock ($Id: //depot/dev/client3/rdock/2013.1/src/exe/rbdock.cxx#4 $)

>  <Rbt.Library>
libRbt.so (2013.1, Build901 2013/11/27)

>  <Rbt.Parameter_File>
/export/apps/rDock/src/rDock_2013.1_src/data/scripts/dock_solv.prm

>  <Rbt.Receptor>
prm/blind_docking_100.prm

>  <SCORE>
-10.4572

>  <SCORE.INTER>
-10.2281

>  <SCORE.INTER.CONST>
1

>  <SCORE.INTER.POLAR>
0

>  <SCORE.INTER.ROT>
5

>  <SCORE.INTER.SOLV>
16.6253

>  <SCORE.INTER.VDW>
-19.2939

>  <SCORE.INTER.norm>
-1.02281

>  <SCORE.INTRA>
-0.229107

>  <SCORE.INTRA.DIHEDRAL>
0.717281

>  <SCORE.INTRA.DIHEDRAL.0>
2.60093

>  <SCORE.INTRA.POLAR>
0

>  <SCORE.INTRA.POLAR.0>
0

>  <SCORE.INTRA.REPUL>
0

>  <SCORE.INTRA.REPUL.0>
0

>  <SCORE.INTRA.SOLV>
-0.403574

>  <SCORE.INTRA.SOLV.lig_0>
-33.7882

>  <SCORE.INTRA.VDW>
-0.38596

>  <SCORE.INTRA.VDW.0>
-0.593976

>  <SCORE.INTRA.norm>
-0.0229107

>  <SCORE.RESTR>
0

>  <SCORE.RESTR.CAVITY>
0

>  <SCORE.RESTR.norm>
0

>  <SCORE.SYSTEM>
0

>  <SCORE.SYSTEM.CONST>
0

>  <SCORE.SYSTEM.DIHEDRAL>
0

>  <SCORE.SYSTEM.SOLV>
0

>  <SCORE.SYSTEM.norm>
0

>  <SCORE.heavy>
10

>  <SCORE.norm>
-1.04572

>  <RMSD>
4.938

$$$$
ligand
 OpenBabel11021811473D
libRbt.so/2013.1/901 2013/11/27
 10  9  0  0  0  0  0  0  0  0999 V2000
   27.2886   13.9670   19.5264 N   0  0  0  0  0  0  0  0  0  0  0  0
   27.2205   15.2871   20.2187 C   0  0  2  0  0  0  0  0  0  0  0  0
   28.2228   16.2590   19.6670 C   0  0  0  0  0  0  0  0  0  0  0  0
   28.4312   17.3342   20.2212 O   0  0  0  0  0  0  0  0  0  0  0  0
   27.3780   15.0934   21.7241 C   0  0  0  0  0  0  0  0  0  0  0  0
   28.9988   14.4610   22.0283 S   0  0  0  0  0  0  0  0  0  0  0  0
   29.8699   15.9465   22.4054 C   0  0  0  0  0  0  0  0  0  0  0  0
   31.3614   15.7106   22.1895 C   0  0  0  0  0  0  0  0  0  0  0  0
   32.0937   16.9360   22.4386 N   0  0  0  0  0  0  0  0  0  0  0  0
   28.8937   16.0285   18.6633 O   0  0  0  0  0  0  0  0  0  0  0  0
  2  1  1  6  0  0  0
  2  3  1  0  0  0  0
  2  5  1  0  0  0  0
  3  4  1  0  0  0  0
  3 10  1  0  0  0  0
  5  6  1  0  0  0  0
  6  7  1  0  0  0  0
  7  8  1  0  0  0  0
  8  9  1  0  0  0  0
M  END
>  <CHROM.1>
-170.62887444,64.53010891,95.93890243,-158.93521400,177.57276896,28.99115095
15.58162724,21.01887671,2.81482194,-0.58540954,-0.88249329

>  <Name>
ligand

>  <RI>
0

>  <Rbt.Current_Directory>
/home/itssahil/PROJECTS/Mol_Feturizer/New_Systems/rnas/3DIG

>  <Rbt.Executable>
rbdock ($Id: //depot/dev/client3/rdock/2013.1/src/exe/rbdock.cxx#4 $)

>  <Rbt.Library>
libRbt.so (2013.1, Build901 2013/11/27)

>  <Rbt.Parameter_File>
/export/apps/rDock/src/rDock_2013.1_src/data/scripts/dock_solv.prm

>  <Rbt.Receptor>
prm/blind_docking_80.prm

>  <SCORE>
-11.4747

>  <SCORE.INTER>
-11.4906

>  <SCORE.INTER.CONST>
1

>  <SCORE.INTER.POLAR>
0

>  <SCORE.INTER.ROT>
5

>  <SCORE.INTER.SOLV>
15.5002

>  <SCORE.INTER.VDW>
-19.7604

>  <SCORE.INTER.norm>
-1.14906

>  <SCORE.INTRA>
0.0158553

>  <SCORE.INTRA.DIHEDRAL>
1.24743

>  <SCORE.INTRA.DIHEDRAL.0>
2.60093

>  <SCORE.INTRA.POLAR>
0

>  <SCORE.INTRA.POLAR.0>
0

>  <SCORE.INTRA.REPUL>
0

>  <SCORE.INTRA.REPUL.0>
0

>  <SCORE.INTRA.SOLV>
-0.487854

>  <SCORE.INTRA.SOLV.lig_0>
-33.7882

>  <SCORE.INTRA.VDW>
-0.363932

>  <SCORE.INTRA.VDW.0>
-0.593976

>  <SCORE.INTRA.norm>
0.00158553

>  <SCORE.RESTR>
0

>  <SCORE.RESTR.CAVITY>
0

>  <SCORE.RESTR.norm>
0

>  <SCORE.SYSTEM>
0

>  <SCORE.SYSTEM.CONST>
0

>  <SCORE.SYSTEM.DIHEDRAL>
0

>  <SCORE.SYSTEM.SOLV>
0

>  <SCORE.SYSTEM.norm>
0

>  <SCORE.heavy>
10

>  <SCORE.norm>
-1.14747

>  <RMSD>
4.953

$$$$
ligand
 OpenBabel11021811473D
libRbt.so/2013.1/901 2013/11/27
 10  9  0  0  0  0  0  0  0  0999 V2000
   27.2703   14.0022   19.5158 N   0  0  0  0  0  0  0  0  0  0  0  0
   27.2069   15.3123   20.2272 C   0  0  2  0  0  0  0  0  0  0  0  0
   28.1990   16.2950   19.6764 C   0  0  0  0  0  0  0  0  0  0  0  0
   28.8290   16.0496   18.6520 O   0  0  0  0  0  0  0  0  0  0  0  0
   27.3842   15.0982   21.7276 C   0  0  0  0  0  0  0  0  0  0  0  0
   29.0077   14.4591   22.0017 S   0  0  0  0  0  0  0  0  0  0  0  0
   29.8851   15.9371   22.3932 C   0  0  0  0  0  0  0  0  0  0  0  0
   31.3722   15.7075   22.1426 C   0  0  0  0  0  0  0  0  0  0  0  0
   32.1087   16.9277   22.4046 N   0  0  0  0  0  0  0  0  0  0  0  0
   28.4156   17.3875   20.1963 O   0  0  0  0  0  0  0  0  0  0  0  0
  2  1  1  6  0  0  0
  2  3  1  0  0  0  0
  2  5  1  0  0  0  0
  3  4  1  0  0  0  0
  3 10  1  0  0  0  0
  5  6  1  0  0  0  0
  6  7  1  0  0  0  0
  7  8  1  0  0  0  0
  8  9  1  0  0  0  0
M  END
>  <CHROM.1>
8.82300809,64.24108147,96.15501476,-158.39637049,177.62890607,28.98451485
15.59517815,21.00244173,2.82420629,-0.57878640,-0.85587331

>  <Name>
ligand

>  <RI>
0

>  <Rbt.Current_Directory>
/home/itssahil/PROJECTS/Mol_Feturizer/New_Systems/rnas/3DIG

>  <Rbt.Executable>
rbdock ($Id: //depot/dev/client3/rdock/2013.1/src/exe/rbdock.cxx#4 $)

>  <Rbt.Library>
libRbt.so (2013.1, Build901 2013/11/27)

>  <Rbt.Parameter_File>
/export/apps/rDock/src/rDock_2013.1_src/data/scripts/dock_solv.prm

>  <Rbt.Receptor>
prm/pocket_docking_6.prm

>  <SCORE>
-11.6419

>  <SCORE.INTER>
-11.5471

>  <SCORE.INTER.CONST>
1

>  <SCORE.INTER.POLAR>
0

>  <SCORE.INTER.ROT>
5

>  <SCORE.INTER.SOLV>
15.4857

>  <SCORE.INTER.VDW>
-19.7933

>  <SCORE.INTER.norm>
-1.15471

>  <SCORE.INTRA>
-0.0948385

>  <SCORE.INTRA.DIHEDRAL>
1.24351

>  <SCORE.INTRA.DIHEDRAL.0>
2.60093

>  <SCORE.INTRA.POLAR>
0

>  <SCORE.INTRA.POLAR.0>
0

>  <SCORE.INTRA.REPUL>
0

>  <SCORE.INTRA.REPUL.0>
0

>  <SCORE.INTRA.SOLV>
-0.474822

>  <SCORE.INTRA.SOLV.lig_0>
-33.7882

>  <SCORE.INTRA.VDW>
-0.479183

>  <SCORE.INTRA.VDW.0>
-0.593976

>  <SCORE.INTRA.norm>
-0.00948385

>  <SCORE.RESTR>
0

>  <SCORE.RESTR.CAVITY>
0

>  <SCORE.RESTR.norm>
0

>  <SCORE.SYSTEM>
0

>  <SCORE.SYSTEM.CONST>
0

>  <SCORE.SYSTEM.DIHEDRAL>
0

>  <SCORE.SYSTEM.SOLV>
0

>  <SCORE.SYSTEM.norm>
0

>  <SCORE.heavy>
10

>  <SCORE.norm>
-1.16419

>  <RMSD>
4.963

$$$$
ligand
 OpenBabel11021811473D
libRbt.so/2013.1/901 2013/11/27
 10  9  0  0  0  0  0  0  0  0999 V2000
   27.3243   13.9797   19.5132 N   0  0  0  0  0  0  0  0  0  0  0  0
   27.2372   15.2958   20.2109 C   0  0  2  0  0  0  0  0  0  0  0  0
   28.1987   16.2960   19.6377 C   0  0  0  0  0  0  0  0  0  0  0  0
   28.7542   16.0936   18.5621 O   0  0  0  0  0  0  0  0  0  0  0  0
   27.4368   15.1029   21.7113 C   0  0  0  0  0  0  0  0  0  0  0  0
   29.0752   14.4973   21.9725 S   0  0  0  0  0  0  0  0  0  0  0  0
   29.9218   15.9907   22.3733 C   0  0  0  0  0  0  0  0  0  0  0  0
   31.4236   15.7535   22.2492 C   0  0  0  0  0  0  0  0  0  0  0  0
   32.1374   16.9938   22.4774 N   0  0  0  0  0  0  0  0  0  0  0  0
   28.4613   17.3621   20.1902 O   0  0  0  0  0  0  0  0  0  0  0  0
  2  1  1  6  0  0  0
  2  3  1  0  0  0  0
  2  5  1  0  0  0  0
  3  4  1  0  0  0  0
  3 10  1  0  0  0  0
  5  6  1  0  0  0  0
  6  7  1  0  0  0  0
  7  8  1  0  0  0  0
  8  9  1  0  0  0  0
M  END
>  <CHROM.1>
13.81293122,63.90610443,97.43496981,-164.03961736,175.79020815,29.01731850
15.61648021,20.99504167,2.81402056,-0.60191743,-0.84774177

>  <Name>
ligand

>  <RI>
0

>  <Rbt.Current_Directory>
/home/itssahil/PROJECTS/Mol_Feturizer/New_Systems/rnas/3DIG

>  <Rbt.Executable>
rbdock ($Id: //depot/dev/client3/rdock/2013.1/src/exe/rbdock.cxx#4 $)

>  <Rbt.Library>
libRbt.so (2013.1, Build901 2013/11/27)

>  <Rbt.Parameter_File>
/export/apps/rDock/src/rDock_2013.1_src/data/scripts/dock_solv.prm

>  <Rbt.Receptor>
prm/pocket_docking_5.prm

>  <SCORE>
-11.6065

>  <SCORE.INTER>
-11.5722

>  <SCORE.INTER.CONST>
1

>  <SCORE.INTER.POLAR>
0

>  <SCORE.INTER.ROT>
5

>  <SCORE.INTER.SOLV>
15.4269

>  <SCORE.INTER.VDW>
-19.7905

>  <SCORE.INTER.norm>
-1.15722

>  <SCORE.INTRA>
-0.0342619

>  <SCORE.INTRA.DIHEDRAL>
1.04978

>  <SCORE.INTRA.DIHEDRAL.0>
2.60093

>  <SCORE.INTRA.POLAR>
0

>  <SCORE.INTRA.POLAR.0>
0

>  <SCORE.INTRA.REPUL>
0

>  <SCORE.INTRA.REPUL.0>
0

>  <SCORE.INTRA.SOLV>
-0.486008

>  <SCORE.INTRA.SOLV.lig_0>
-33.7882

>  <SCORE.INTRA.VDW>
-0.316146

>  <SCORE.INTRA.VDW.0>
-0.593976

>  <SCORE.INTRA.norm>
-0.00342619

>  <SCORE.RESTR>
0

>  <SCORE.RESTR.CAVITY>
0

>  <SCORE.RESTR.norm>
0

>  <SCORE.SYSTEM>
0

>  <SCORE.SYSTEM.CONST>
0

>  <SCORE.SYSTEM.DIHEDRAL>
0

>  <SCORE.SYSTEM.SOLV>
0

>  <SCORE.SYSTEM.norm>
0

>  <SCORE.heavy>
10

>  <SCORE.norm>
-1.16065

>  <RMSD>
4.982

$$$$
ligand
 OpenBabel11021811473D
libRbt.so/2013.1/901 2013/11/27
 10  9  0  0  0  0  0  0  0  0999 V2000
   27.9580   13.3332   18.5351 N   0  0  0  0  0  0  0  0  0  0  0  0
   27.5169   14.6865   18.9830 C   0  0  2  0  0  0  0  0  0  0  0  0
   28.4486   15.7631   18.5072 C   0  0  0  0  0  0  0  0  0  0  0  0
   28.7628   16.6959   19.2405 O   0  0  0  0  0  0  0  0  0  0  0  0
   27.3483   14.7029   20.4995 C   0  0  0  0  0  0  0  0  0  0  0  0
   28.9142   14.3345   21.2286 S   0  0  0  0  0  0  0  0  0  0  0  0
   29.0225   15.6067   22.4441 C   0  0  0  0  0  0  0  0  0  0  0  0
   30.4792   15.7561   22.8715 C   0  0  0  0  0  0  0  0  0  0  0  0
   31.2666   16.2614   21.7649 N   0  0  0  0  0  0  0  0  0  0  0  0
   28.9569   15.7595   17.3881 O   0  0  0  0  0  0  0  0  0  0  0  0
  2  1  1  1  0  0  0
  2  3  1  0  0  0  0
  2  5  1  0  0  0  0
  3  4  1  0  0  0  0
  3 10  1  0  0  0  0
  5  6  1  0  0  0  0
  6  7  1  0  0  0  0
  7  8  1  0  0  0  0
  8  9  1  0  0  0  0
M  END
>  <CHROM.1>
-139.09140942,61.02133566,132.24576106,-161.41031242,66.79921673,28.88616634
15.20292735,20.25157598,2.24122126,-0.81425512,-1.19341470

>  <Name>
ligand

>  <RI>
0

>  <Rbt.Current_Directory>
/home/itssahil/PROJECTS/Mol_Feturizer/New_Systems/rnas/3DIG

>  <Rbt.Executable>
rbdock ($Id: //depot/dev/client3/rdock/2013.1/src/exe/rbdock.cxx#4 $)

>  <Rbt.Library>
libRbt.so (2013.1, Build901 2013/11/27)

>  <Rbt.Parameter_File>
/export/apps/rDock/src/rDock_2013.1_src/data/scripts/dock_solv.prm

>  <Rbt.Receptor>
prm/pocket_docking_8.prm

>  <SCORE>
-9.61609

>  <SCORE.INTER>
-10.7455

>  <SCORE.INTER.CONST>
1

>  <SCORE.INTER.POLAR>
0

>  <SCORE.INTER.ROT>
5

>  <SCORE.INTER.SOLV>
14.5496

>  <SCORE.INTER.VDW>
-18.9469

>  <SCORE.INTER.norm>
-1.07455

>  <SCORE.INTRA>
1.12945

>  <SCORE.INTRA.DIHEDRAL>
1.80628

>  <SCORE.INTRA.DIHEDRAL.0>
2.60093

>  <SCORE.INTRA.POLAR>
0

>  <SCORE.INTRA.POLAR.0>
0

>  <SCORE.INTRA.REPUL>
0

>  <SCORE.INTRA.REPUL.0>
0

>  <SCORE.INTRA.SOLV>
0.551886

>  <SCORE.INTRA.SOLV.lig_0>
-33.7882

>  <SCORE.INTRA.VDW>
-0.0496265

>  <SCORE.INTRA.VDW.0>
-0.593976

>  <SCORE.INTRA.norm>
0.112945

>  <SCORE.RESTR>
0

>  <SCORE.RESTR.CAVITY>
0

>  <SCORE.RESTR.norm>
0

>  <SCORE.SYSTEM>
0

>  <SCORE.SYSTEM.CONST>
0

>  <SCORE.SYSTEM.DIHEDRAL>
0

>  <SCORE.SYSTEM.SOLV>
0

>  <SCORE.SYSTEM.norm>
0

>  <SCORE.heavy>
10

>  <SCORE.norm>
-0.961609

>  <RMSD>
4.988

$$$$
ligand
 OpenBabel11021811473D
libRbt.so/2013.1/901 2013/11/27
 10  9  0  0  0  0  0  0  0  0999 V2000
   29.6349   15.3481   21.3312 N   0  0  0  0  0  0  0  0  0  0  0  0
   28.3892   15.8646   20.6926 C   0  0  2  0  0  0  0  0  0  0  0  0
   27.1681   15.1471   21.1903 C   0  0  0  0  0  0  0  0  0  0  0  0
   27.1974   14.4983   22.2319 O   0  0  0  0  0  0  0  0  0  0  0  0
   28.5162   15.7946   19.1736 C   0  0  0  0  0  0  0  0  0  0  0  0
   28.8715   14.1224   18.7301 S   0  0  0  0  0  0  0  0  0  0  0  0
   27.2639   13.5457   18.2930 C   0  0  0  0  0  0  0  0  0  0  0  0
   27.3812   12.1237   17.7535 C   0  0  0  0  0  0  0  0  0  0  0  0
   26.0598   11.5673   17.5435 N   0  0  0  0  0  0  0  0  0  0  0  0
   26.0867   15.1865   20.6075 O   0  0  0  0  0  0  0  0  0  0  0  0
  2  1  1  1  0  0  0
  2  3  1  0  0  0  0
  2  5  1  0  0  0  0
  3  4  1  0  0  0  0
  3 10  1  0  0  0  0
  5  6  1  0  0  0  0
  6  7  1  0  0  0  0
  7  8  1  0  0  0  0
  8  9  1  0  0  0  0
M  END
>  <CHROM.1>
17.92782437,56.46117651,97.84504186,175.03332040,172.92886021,27.77082147
14.29038317,19.65589133,-1.32700122,-0.44877581,-2.17881707

>  <Name>
ligand

>  <RI>
0

>  <Rbt.Current_Directory>
/home/itssahil/PROJECTS/Mol_Feturizer/New_Systems/rnas/3DIG

>  <Rbt.Executable>
rbdock ($Id: //depot/dev/client3/rdock/2013.1/src/exe/rbdock.cxx#4 $)

>  <Rbt.Library>
libRbt.so (2013.1, Build901 2013/11/27)

>  <Rbt.Parameter_File>
/export/apps/rDock/src/rDock_2013.1_src/data/scripts/dock_solv.prm

>  <Rbt.Receptor>
prm/pocket_docking_7.prm

>  <SCORE>
-10.6038

>  <SCORE.INTER>
-10.5096

>  <SCORE.INTER.CONST>
1

>  <SCORE.INTER.POLAR>
0

>  <SCORE.INTER.ROT>
5

>  <SCORE.INTER.SOLV>
16.7339

>  <SCORE.INTER.VDW>
-19.5177

>  <SCORE.INTER.norm>
-1.05096

>  <SCORE.INTRA>
-0.094147

>  <SCORE.INTRA.DIHEDRAL>
0.810042

>  <SCORE.INTRA.DIHEDRAL.0>
2.60093

>  <SCORE.INTRA.POLAR>
0

>  <SCORE.INTRA.POLAR.0>
0

>  <SCORE.INTRA.REPUL>
0

>  <SCORE.INTRA.REPUL.0>
0

>  <SCORE.INTRA.SOLV>
-0.362038

>  <SCORE.INTRA.SOLV.lig_0>
-33.7882

>  <SCORE.INTRA.VDW>
-0.318149

>  <SCORE.INTRA.VDW.0>
-0.593976

>  <SCORE.INTRA.norm>
-0.0094147

>  <SCORE.RESTR>
0

>  <SCORE.RESTR.CAVITY>
0

>  <SCORE.RESTR.norm>
0

>  <SCORE.SYSTEM>
0

>  <SCORE.SYSTEM.CONST>
0

>  <SCORE.SYSTEM.DIHEDRAL>
0

>  <SCORE.SYSTEM.SOLV>
0

>  <SCORE.SYSTEM.norm>
0

>  <SCORE.heavy>
10

>  <SCORE.norm>
-1.06038

>  <RMSD>
5.011

$$$$
ligand
 OpenBabel11021811473D
libRbt.so/2013.1/901 2013/11/27
 10  9  0  0  0  0  0  0  0  0999 V2000
   26.3935   15.0068   20.6155 N   0  0  0  0  0  0  0  0  0  0  0  0
   27.6512   15.5905   21.1667 C   0  0  2  0  0  0  0  0  0  0  0  0
   28.3922   16.3930   20.1369 C   0  0  0  0  0  0  0  0  0  0  0  0
   29.0046   17.4099   20.4493 O   0  0  0  0  0  0  0  0  0  0  0  0
   28.5177   14.4866   21.7659 C   0  0  0  0  0  0  0  0  0  0  0  0
   29.7328   15.2443   22.7996 S   0  0  0  0  0  0  0  0  0  0  0  0
   31.0491   15.4766   21.6501 C   0  0  0  0  0  0  0  0  0  0  0  0
   32.1534   16.2852   22.3235 C   0  0  0  0  0  0  0  0  0  0  0  0
   33.1957   16.5881   21.3634 N   0  0  0  0  0  0  0  0  0  0  0  0
   28.4454   16.0718   18.9517 O   0  0  0  0  0  0  0  0  0  0  0  0
  2  1  1  6  0  0  0
  2  3  1  0  0  0  0
  2  5  1  0  0  0  0
  3  4  1  0  0  0  0
  3 10  1  0  0  0  0
  5  6  1  0  0  0  0
  6  7  1  0  0  0  0
  7  8  1  0  0  0  0
  8  9  1  0  0  0  0
M  END
>  <CHROM.1>
144.41588422,-163.79768750,-90.86692116,173.22344090,-175.09300393,29.49191113
15.80292607,21.28925202,2.91776287,-0.27709930,-1.00691884

>  <Name>
ligand

>  <RI>
0

>  <Rbt.Current_Directory>
/home/itssahil/PROJECTS/Mol_Feturizer/New_Systems/rnas/3DIG

>  <Rbt.Executable>
rbdock ($Id: //depot/dev/client3/rdock/2013.1/src/exe/rbdock.cxx#4 $)

>  <Rbt.Library>
libRbt.so (2013.1, Build901 2013/11/27)

>  <Rbt.Parameter_File>
/export/apps/rDock/src/rDock_2013.1_src/data/scripts/dock_solv.prm

>  <Rbt.Receptor>
prm/pocket_docking_5.prm

>  <SCORE>
-10.5449

>  <SCORE.INTER>
-9.53037

>  <SCORE.INTER.CONST>
1

>  <SCORE.INTER.POLAR>
0

>  <SCORE.INTER.ROT>
5

>  <SCORE.INTER.SOLV>
18.8813

>  <SCORE.INTER.VDW>
-19.5807

>  <SCORE.INTER.norm>
-0.953037

>  <SCORE.INTRA>
-1.01457

>  <SCORE.INTRA.DIHEDRAL>
1.17383

>  <SCORE.INTRA.DIHEDRAL.0>
2.60093

>  <SCORE.INTRA.POLAR>
0

>  <SCORE.INTRA.POLAR.0>
0

>  <SCORE.INTRA.REPUL>
0

>  <SCORE.INTRA.REPUL.0>
0

>  <SCORE.INTRA.SOLV>
-1.55465

>  <SCORE.INTRA.SOLV.lig_0>
-33.7882

>  <SCORE.INTRA.VDW>
-0.824155

>  <SCORE.INTRA.VDW.0>
-0.593976

>  <SCORE.INTRA.norm>
-0.101457

>  <SCORE.RESTR>
0

>  <SCORE.RESTR.CAVITY>
0

>  <SCORE.RESTR.norm>
0

>  <SCORE.SYSTEM>
0

>  <SCORE.SYSTEM.CONST>
0

>  <SCORE.SYSTEM.DIHEDRAL>
0

>  <SCORE.SYSTEM.SOLV>
0

>  <SCORE.SYSTEM.norm>
0

>  <SCORE.heavy>
10

>  <SCORE.norm>
-1.05449

>  <RMSD>
5.017

$$$$
ligand
 OpenBabel11021811473D
libRbt.so/2013.1/901 2013/11/27
 10  9  0  0  0  0  0  0  0  0999 V2000
   26.3803   14.9521   20.6049 N   0  0  0  0  0  0  0  0  0  0  0  0
   27.6336   15.5555   21.1450 C   0  0  2  0  0  0  0  0  0  0  0  0
   28.3625   16.3537   20.1034 C   0  0  0  0  0  0  0  0  0  0  0  0
   28.4198   15.9698   18.9390 O   0  0  0  0  0  0  0  0  0  0  0  0
   28.5137   14.4678   21.7539 C   0  0  0  0  0  0  0  0  0  0  0  0
   29.7142   15.2493   22.7871 S   0  0  0  0  0  0  0  0  0  0  0  0
   31.0111   15.5397   21.6289 C   0  0  0  0  0  0  0  0  0  0  0  0
   32.1209   16.3258   22.3198 C   0  0  0  0  0  0  0  0  0  0  0  0
   33.1682   16.6372   21.3679 N   0  0  0  0  0  0  0  0  0  0  0  0
   28.9123   17.4256   20.3475 O   0  0  0  0  0  0  0  0  0  0  0  0
  2  1  1  6  0  0  0
  2  3  1  0  0  0  0
  2  5  1  0  0  0  0
  3  4  1  0  0  0  0
  3 10  1  0  0  0  0
  5  6  1  0  0  0  0
  6  7  1  0  0  0  0
  7  8  1  0  0  0  0
  8  9  1  0  0  0  0
M  END
>  <CHROM.1>
-38.61668006,-163.24986330,-89.15613816,175.46275454,-177.03805091,29.46246701
15.79639800,21.26715076,2.92110805,-0.29395109,-1.01112361

>  <Name>
ligand

>  <RI>
0

>  <Rbt.Current_Directory>
/home/itssahil/PROJECTS/Mol_Feturizer/New_Systems/rnas/3DIG

>  <Rbt.Executable>
rbdock ($Id: //depot/dev/client3/rdock/2013.1/src/exe/rbdock.cxx#4 $)

>  <Rbt.Library>
libRbt.so (2013.1, Build901 2013/11/27)

>  <Rbt.Parameter_File>
/export/apps/rDock/src/rDock_2013.1_src/data/scripts/dock_solv.prm

>  <Rbt.Receptor>
prm/pocket_docking_4.prm

>  <SCORE>
-10.5146

>  <SCORE.INTER>
-9.4933

>  <SCORE.INTER.CONST>
1

>  <SCORE.INTER.POLAR>
0

>  <SCORE.INTER.ROT>
5

>  <SCORE.INTER.SOLV>
18.7941

>  <SCORE.INTER.VDW>
-19.5269

>  <SCORE.INTER.norm>
-0.94933

>  <SCORE.INTRA>
-1.02127

>  <SCORE.INTRA.DIHEDRAL>
1.10835

>  <SCORE.INTRA.DIHEDRAL.0>
2.60093

>  <SCORE.INTRA.POLAR>
0

>  <SCORE.INTRA.POLAR.0>
0

>  <SCORE.INTRA.REPUL>
0

>  <SCORE.INTRA.REPUL.0>
0

>  <SCORE.INTRA.SOLV>
-1.54116

>  <SCORE.INTRA.SOLV.lig_0>
-33.7882

>  <SCORE.INTRA.VDW>
-0.804865

>  <SCORE.INTRA.VDW.0>
-0.593976

>  <SCORE.INTRA.norm>
-0.102127

>  <SCORE.RESTR>
0

>  <SCORE.RESTR.CAVITY>
0

>  <SCORE.RESTR.norm>
0

>  <SCORE.SYSTEM>
0

>  <SCORE.SYSTEM.CONST>
0

>  <SCORE.SYSTEM.DIHEDRAL>
0

>  <SCORE.SYSTEM.SOLV>
0

>  <SCORE.SYSTEM.norm>
0

>  <SCORE.heavy>
10

>  <SCORE.norm>
-1.05146

>  <RMSD>
5.042

$$$$
ligand
 OpenBabel11021811473D
libRbt.so/2013.1/901 2013/11/27
 10  9  0  0  0  0  0  0  0  0999 V2000
   26.3581   14.9838   20.6496 N   0  0  0  0  0  0  0  0  0  0  0  0
   27.6405   15.5645   21.1443 C   0  0  2  0  0  0  0  0  0  0  0  0
   28.3552   16.3340   20.0717 C   0  0  0  0  0  0  0  0  0  0  0  0
   28.8947   17.4086   20.3182 O   0  0  0  0  0  0  0  0  0  0  0  0
   28.5140   14.4640   21.7396 C   0  0  0  0  0  0  0  0  0  0  0  0
   29.7230   15.2257   22.7776 S   0  0  0  0  0  0  0  0  0  0  0  0
   31.0096   15.5400   21.6141 C   0  0  0  0  0  0  0  0  0  0  0  0
   32.1134   16.3353   22.3040 C   0  0  0  0  0  0  0  0  0  0  0  0
   33.1600   16.6503   21.3526 N   0  0  0  0  0  0  0  0  0  0  0  0
   28.4582   15.9293   18.9157 O   0  0  0  0  0  0  0  0  0  0  0  0
  2  1  1  6  0  0  0
  2  3  1  0  0  0  0
  2  5  1  0  0  0  0
  3  4  1  0  0  0  0
  3 10  1  0  0  0  0
  5  6  1  0  0  0  0
  6  7  1  0  0  0  0
  7  8  1  0  0  0  0
  8  9  1  0  0  0  0
M  END
>  <CHROM.1>
138.23350370,-161.04494103,-88.35940630,174.42990305,-177.81671367,29.46290269
15.78960405,21.25614946,2.92276940,-0.29018794,-1.01881060

>  <Name>
ligand

>  <RI>
0

>  <Rbt.Current_Directory>
/home/itssahil/PROJECTS/Mol_Feturizer/New_Systems/rnas/3DIG

>  <Rbt.Executable>
rbdock ($Id: //depot/dev/client3/rdock/2013.1/src/exe/rbdock.cxx#4 $)

>  <Rbt.Library>
libRbt.so (2013.1, Build901 2013/11/27)

>  <Rbt.Parameter_File>
/export/apps/rDock/src/rDock_2013.1_src/data/scripts/dock_solv.prm

>  <Rbt.Receptor>
prm/pocket_docking_7.prm

>  <SCORE>
-10.6017

>  <SCORE.INTER>
-9.58053

>  <SCORE.INTER.CONST>
1

>  <SCORE.INTER.POLAR>
0

>  <SCORE.INTER.ROT>
5

>  <SCORE.INTER.SOLV>
18.83

>  <SCORE.INTER.VDW>
-19.597

>  <SCORE.INTER.norm>
-0.958053

>  <SCORE.INTRA>
-1.02112

>  <SCORE.INTRA.DIHEDRAL>
1.22545

>  <SCORE.INTRA.DIHEDRAL.0>
2.60093

>  <SCORE.INTRA.POLAR>
0

>  <SCORE.INTRA.POLAR.0>
0

>  <SCORE.INTRA.REPUL>
0

>  <SCORE.INTRA.REPUL.0>
0

>  <SCORE.INTRA.SOLV>
-1.55751

>  <SCORE.INTRA.SOLV.lig_0>
-33.7882

>  <SCORE.INTRA.VDW>
-0.855093

>  <SCORE.INTRA.VDW.0>
-0.593976

>  <SCORE.INTRA.norm>
-0.102112

>  <SCORE.RESTR>
0

>  <SCORE.RESTR.CAVITY>
0

>  <SCORE.RESTR.norm>
0

>  <SCORE.SYSTEM>
0

>  <SCORE.SYSTEM.CONST>
0

>  <SCORE.SYSTEM.DIHEDRAL>
0

>  <SCORE.SYSTEM.SOLV>
0

>  <SCORE.SYSTEM.norm>
0

>  <SCORE.heavy>
10

>  <SCORE.norm>
-1.06017

>  <RMSD>
5.045

$$$$
ligand
 OpenBabel11021811473D
libRbt.so/2013.1/901 2013/11/27
 10  9  0  0  0  0  0  0  0  0999 V2000
   26.3219   15.0054   20.7067 N   0  0  0  0  0  0  0  0  0  0  0  0
   27.6288   15.5693   21.1543 C   0  0  2  0  0  0  0  0  0  0  0  0
   28.3344   16.2922   20.0438 C   0  0  0  0  0  0  0  0  0  0  0  0
   28.8269   17.4017   20.2252 O   0  0  0  0  0  0  0  0  0  0  0  0
   28.4915   14.4655   21.7591 C   0  0  0  0  0  0  0  0  0  0  0  0
   29.7314   15.2263   22.7608 S   0  0  0  0  0  0  0  0  0  0  0  0
   30.9688   15.5710   21.5534 C   0  0  0  0  0  0  0  0  0  0  0  0
   32.1090   16.3331   22.2213 C   0  0  0  0  0  0  0  0  0  0  0  0
   33.1206   16.6646   21.2381 N   0  0  0  0  0  0  0  0  0  0  0  0
   28.4758   15.8144   18.9202 O   0  0  0  0  0  0  0  0  0  0  0  0
  2  1  1  6  0  0  0
  2  3  1  0  0  0  0
  2  5  1  0  0  0  0
  3  4  1  0  0  0  0
  3 10  1  0  0  0  0
  5  6  1  0  0  0  0
  6  7  1  0  0  0  0
  7  8  1  0  0  0  0
  8  9  1  0  0  0  0
M  END
>  <CHROM.1>
133.32379015,-160.42078901,-85.41860696,176.08531153,-178.22754199,29.44441259
15.78051775,21.22657891,2.94016128,-0.27962412,-1.03687348

>  <Name>
ligand

>  <RI>
0

>  <Rbt.Current_Directory>
/home/itssahil/PROJECTS/Mol_Feturizer/New_Systems/rnas/3DIG

>  <Rbt.Executable>
rbdock ($Id: //depot/dev/client3/rdock/2013.1/src/exe/rbdock.cxx#4 $)

>  <Rbt.Library>
libRbt.so (2013.1, Build901 2013/11/27)

>  <Rbt.Parameter_File>
/export/apps/rDock/src/rDock_2013.1_src/data/scripts/dock_solv.prm

>  <Rbt.Receptor>
prm/pocket_docking_5.prm

>  <SCORE>
-10.5198

>  <SCORE.INTER>
-9.49198

>  <SCORE.INTER.CONST>
1

>  <SCORE.INTER.POLAR>
0

>  <SCORE.INTER.ROT>
5

>  <SCORE.INTER.SOLV>
18.9556

>  <SCORE.INTER.VDW>
-19.5799

>  <SCORE.INTER.norm>
-0.949198

>  <SCORE.INTRA>
-1.02781

>  <SCORE.INTRA.DIHEDRAL>
1.09209

>  <SCORE.INTRA.DIHEDRAL.0>
2.60093

>  <SCORE.INTRA.POLAR>
0

>  <SCORE.INTRA.POLAR.0>
0

>  <SCORE.INTRA.REPUL>
0

>  <SCORE.INTRA.REPUL.0>
0

>  <SCORE.INTRA.SOLV>
-1.55919

>  <SCORE.INTRA.SOLV.lig_0>
-33.7882

>  <SCORE.INTRA.VDW>
-0.794255

>  <SCORE.INTRA.VDW.0>
-0.593976

>  <SCORE.INTRA.norm>
-0.102781

>  <SCORE.RESTR>
0

>  <SCORE.RESTR.CAVITY>
0

>  <SCORE.RESTR.norm>
0

>  <SCORE.SYSTEM>
0

>  <SCORE.SYSTEM.CONST>
0

>  <SCORE.SYSTEM.DIHEDRAL>
0

>  <SCORE.SYSTEM.SOLV>
0

>  <SCORE.SYSTEM.norm>
0

>  <SCORE.heavy>
10

>  <SCORE.norm>
-1.05198

>  <RMSD>
5.053

$$$$
ligand
 OpenBabel11021811473D
libRbt.so/2013.1/901 2013/11/27
 10  9  0  0  0  0  0  0  0  0999 V2000
   26.3601   14.9501   20.6776 N   0  0  0  0  0  0  0  0  0  0  0  0
   27.6321   15.5614   21.1621 C   0  0  2  0  0  0  0  0  0  0  0  0
   28.3291   16.3321   20.0788 C   0  0  0  0  0  0  0  0  0  0  0  0
   28.9113   17.3839   20.3265 O   0  0  0  0  0  0  0  0  0  0  0  0
   28.5284   14.4852   21.7678 C   0  0  0  0  0  0  0  0  0  0  0  0
   29.7273   15.2826   22.7905 S   0  0  0  0  0  0  0  0  0  0  0  0
   31.0477   15.5045   21.6437 C   0  0  0  0  0  0  0  0  0  0  0  0
   32.1579   16.3026   22.3200 C   0  0  0  0  0  0  0  0  0  0  0  0
   33.1965   16.6120   21.3580 N   0  0  0  0  0  0  0  0  0  0  0  0
   28.3748   15.9502   18.9114 O   0  0  0  0  0  0  0  0  0  0  0  0
  2  1  1  6  0  0  0
  2  3  1  0  0  0  0
  2  5  1  0  0  0  0
  3  4  1  0  0  0  0
  3 10  1  0  0  0  0
  5  6  1  0  0  0  0
  6  7  1  0  0  0  0
  7  8  1  0  0  0  0
  8  9  1  0  0  0  0
M  END
>  <CHROM.1>
142.27769435,-161.18584896,-92.11480907,175.11806507,-174.36859669,29.46634089
15.78980034,21.27055073,2.91381989,-0.28229325,-1.03216054

>  <Name>
ligand

>  <RI>
0

>  <Rbt.Current_Directory>
/home/itssahil/PROJECTS/Mol_Feturizer/New_Systems/rnas/3DIG

>  <Rbt.Executable>
rbdock ($Id: //depot/dev/client3/rdock/2013.1/src/exe/rbdock.cxx#4 $)

>  <Rbt.Library>
libRbt.so (2013.1, Build901 2013/11/27)

>  <Rbt.Parameter_File>
/export/apps/rDock/src/rDock_2013.1_src/data/scripts/dock_solv.prm

>  <Rbt.Receptor>
prm/pocket_docking_7.prm

>  <SCORE>
-10.5617

>  <SCORE.INTER>
-9.63039

>  <SCORE.INTER.CONST>
1

>  <SCORE.INTER.POLAR>
0

>  <SCORE.INTER.ROT>
5

>  <SCORE.INTER.SOLV>
18.931

>  <SCORE.INTER.VDW>
-19.6639

>  <SCORE.INTER.norm>
-0.963039

>  <SCORE.INTRA>
-0.931302

>  <SCORE.INTRA.DIHEDRAL>
1.52906

>  <SCORE.INTRA.DIHEDRAL.0>
2.60093

>  <SCORE.INTRA.POLAR>
0

>  <SCORE.INTRA.POLAR.0>
0

>  <SCORE.INTRA.REPUL>
0

>  <SCORE.INTRA.REPUL.0>
0

>  <SCORE.INTRA.SOLV>
-1.55575

>  <SCORE.INTRA.SOLV.lig_0>
-33.7882

>  <SCORE.INTRA.VDW>
-0.917956

>  <SCORE.INTRA.VDW.0>
-0.593976

>  <SCORE.INTRA.norm>
-0.0931302

>  <SCORE.RESTR>
0

>  <SCORE.RESTR.CAVITY>
0

>  <SCORE.RESTR.norm>
0

>  <SCORE.SYSTEM>
0

>  <SCORE.SYSTEM.CONST>
0

>  <SCORE.SYSTEM.DIHEDRAL>
0

>  <SCORE.SYSTEM.SOLV>
0

>  <SCORE.SYSTEM.norm>
0

>  <SCORE.heavy>
10

>  <SCORE.norm>
-1.05617

>  <RMSD>
5.063

$$$$
ligand
 OpenBabel11021811473D
libRbt.so/2013.1/901 2013/11/27
 10  9  0  0  0  0  0  0  0  0999 V2000
   26.3532   14.9445   20.6923 N   0  0  0  0  0  0  0  0  0  0  0  0
   27.6389   15.5474   21.1507 C   0  0  2  0  0  0  0  0  0  0  0  0
   28.3074   16.3325   20.0599 C   0  0  0  0  0  0  0  0  0  0  0  0
   28.8388   17.4138   20.2946 O   0  0  0  0  0  0  0  0  0  0  0  0
   28.5496   14.4616   21.7165 C   0  0  0  0  0  0  0  0  0  0  0  0
   29.7646   15.2412   22.7341 S   0  0  0  0  0  0  0  0  0  0  0  0
   31.0226   15.5827   21.5473 C   0  0  0  0  0  0  0  0  0  0  0  0
   32.1555   16.3383   22.2347 C   0  0  0  0  0  0  0  0  0  0  0  0
   33.1748   16.6845   21.2646 N   0  0  0  0  0  0  0  0  0  0  0  0
   28.3790   15.9351   18.8990 O   0  0  0  0  0  0  0  0  0  0  0  0
  2  1  1  6  0  0  0
  2  3  1  0  0  0  0
  2  5  1  0  0  0  0
  3  4  1  0  0  0  0
  3 10  1  0  0  0  0
  5  6  1  0  0  0  0
  6  7  1  0  0  0  0
  7  8  1  0  0  0  0
  8  9  1  0  0  0  0
M  END
>  <CHROM.1>
138.52157015,-160.47178267,-88.77182281,177.06365008,-177.38532562,29.46283678
15.79566300,21.22493225,2.94206279,-0.28677795,-1.00828189

>  <Name>
ligand

>  <RI>
0

>  <Rbt.Current_Directory>
/home/itssahil/PROJECTS/Mol_Feturizer/New_Systems/rnas/3DIG

>  <Rbt.Executable>
rbdock ($Id: //depot/dev/client3/rdock/2013.1/src/exe/rbdock.cxx#4 $)

>  <Rbt.Library>
libRbt.so (2013.1, Build901 2013/11/27)

>  <Rbt.Parameter_File>
/export/apps/rDock/src/rDock_2013.1_src/data/scripts/dock_solv.prm

>  <Rbt.Receptor>
prm/pocket_docking_3.prm

>  <SCORE>
-10.6396

>  <SCORE.INTER>
-9.64012

>  <SCORE.INTER.CONST>
1

>  <SCORE.INTER.POLAR>
0

>  <SCORE.INTER.ROT>
5

>  <SCORE.INTER.SOLV>
18.9671

>  <SCORE.INTER.VDW>
-19.6824

>  <SCORE.INTER.norm>
-0.964012

>  <SCORE.INTRA>
-0.999488

>  <SCORE.INTRA.DIHEDRAL>
1.28807

>  <SCORE.INTRA.DIHEDRAL.0>
2.60093

>  <SCORE.INTRA.POLAR>
0

>  <SCORE.INTRA.POLAR.0>
0

>  <SCORE.INTRA.REPUL>
0

>  <SCORE.INTRA.REPUL.0>
0

>  <SCORE.INTRA.SOLV>
-1.55819

>  <SCORE.INTRA.SOLV.lig_0>
-33.7882

>  <SCORE.INTRA.VDW>
-0.864429

>  <SCORE.INTRA.VDW.0>
-0.593976

>  <SCORE.INTRA.norm>
-0.0999488

>  <SCORE.RESTR>
0

>  <SCORE.RESTR.CAVITY>
0

>  <SCORE.RESTR.norm>
0

>  <SCORE.SYSTEM>
0

>  <SCORE.SYSTEM.CONST>
0

>  <SCORE.SYSTEM.DIHEDRAL>
0

>  <SCORE.SYSTEM.SOLV>
0

>  <SCORE.SYSTEM.norm>
0

>  <SCORE.heavy>
10

>  <SCORE.norm>
-1.06396

>  <RMSD>
5.068

$$$$
ligand
 OpenBabel11021811473D
libRbt.so/2013.1/901 2013/11/27
 10  9  0  0  0  0  0  0  0  0999 V2000
   26.2857   14.9154   20.8136 N   0  0  0  0  0  0  0  0  0  0  0  0
   27.5881   15.5202   21.2194 C   0  0  2  0  0  0  0  0  0  0  0  0
   28.2463   16.2439   20.0808 C   0  0  0  0  0  0  0  0  0  0  0  0
   28.3264   15.7311   18.9685 O   0  0  0  0  0  0  0  0  0  0  0  0
   28.4945   14.4488   21.8186 C   0  0  0  0  0  0  0  0  0  0  0  0
   29.7531   15.2582   22.7567 S   0  0  0  0  0  0  0  0  0  0  0  0
   30.9689   15.5369   21.5110 C   0  0  0  0  0  0  0  0  0  0  0  0
   32.1317   16.3117   22.1229 C   0  0  0  0  0  0  0  0  0  0  0  0
   33.1165   16.6074   21.1018 N   0  0  0  0  0  0  0  0  0  0  0  0
   28.7122   17.3760   20.1896 O   0  0  0  0  0  0  0  0  0  0  0  0
  2  1  1  6  0  0  0
  2  3  1  0  0  0  0
  2  5  1  0  0  0  0
  3  4  1  0  0  0  0
  3 10  1  0  0  0  0
  5  6  1  0  0  0  0
  6  7  1  0  0  0  0
  7  8  1  0  0  0  0
  8  9  1  0  0  0  0
M  END
>  <CHROM.1>
-46.27808914,-161.27990779,-87.71224695,176.95127967,-177.34697437,29.41099239
15.74901245,21.22542044,2.96727857,-0.26284935,-1.04368322

>  <Name>
ligand

>  <RI>
0

>  <Rbt.Current_Directory>
/home/itssahil/PROJECTS/Mol_Feturizer/New_Systems/rnas/3DIG

>  <Rbt.Executable>
rbdock ($Id: //depot/dev/client3/rdock/2013.1/src/exe/rbdock.cxx#4 $)

>  <Rbt.Library>
libRbt.so (2013.1, Build901 2013/11/27)

>  <Rbt.Parameter_File>
/export/apps/rDock/src/rDock_2013.1_src/data/scripts/dock_solv.prm

>  <Rbt.Receptor>
prm/blind_docking_100.prm

>  <SCORE>
-10.5246

>  <SCORE.INTER>
-9.50883

>  <SCORE.INTER.CONST>
1

>  <SCORE.INTER.POLAR>
0

>  <SCORE.INTER.ROT>
5

>  <SCORE.INTER.SOLV>
19.3938

>  <SCORE.INTER.VDW>
-19.7372

>  <SCORE.INTER.norm>
-0.950883

>  <SCORE.INTRA>
-1.01581

>  <SCORE.INTRA.DIHEDRAL>
1.19559

>  <SCORE.INTRA.DIHEDRAL.0>
2.60093

>  <SCORE.INTRA.POLAR>
0

>  <SCORE.INTRA.POLAR.0>
0

>  <SCORE.INTRA.REPUL>
0

>  <SCORE.INTRA.REPUL.0>
0

>  <SCORE.INTRA.SOLV>
-1.54506

>  <SCORE.INTRA.SOLV.lig_0>
-33.7882

>  <SCORE.INTRA.VDW>
-0.841075

>  <SCORE.INTRA.VDW.0>
-0.593976

>  <SCORE.INTRA.norm>
-0.101581

>  <SCORE.RESTR>
0

>  <SCORE.RESTR.CAVITY>
0

>  <SCORE.RESTR.norm>
0

>  <SCORE.SYSTEM>
0

>  <SCORE.SYSTEM.CONST>
0

>  <SCORE.SYSTEM.DIHEDRAL>
0

>  <SCORE.SYSTEM.SOLV>
0

>  <SCORE.SYSTEM.norm>
0

>  <SCORE.heavy>
10

>  <SCORE.norm>
-1.05246

>  <RMSD>
5.092

$$$$
ligand
 OpenBabel11021811473D
libRbt.so/2013.1/901 2013/11/27
 10  9  0  0  0  0  0  0  0  0999 V2000
   26.1934   14.9235   20.8789 N   0  0  0  0  0  0  0  0  0  0  0  0
   27.5084   15.5308   21.2373 C   0  0  2  0  0  0  0  0  0  0  0  0
   28.1770   16.1564   20.0478 C   0  0  0  0  0  0  0  0  0  0  0  0
   28.6528   17.2861   20.1123 O   0  0  0  0  0  0  0  0  0  0  0  0
   28.3958   14.4885   21.9116 C   0  0  0  0  0  0  0  0  0  0  0  0
   29.7437   15.3317   22.6806 S   0  0  0  0  0  0  0  0  0  0  0  0
   30.8948   15.4038   21.3473 C   0  0  0  0  0  0  0  0  0  0  0  0
   32.1962   16.0179   21.8535 C   0  0  0  0  0  0  0  0  0  0  0  0
   31.9470   17.3556   22.3517 N   0  0  0  0  0  0  0  0  0  0  0  0
   28.3034   15.5767   18.9714 O   0  0  0  0  0  0  0  0  0  0  0  0
  2  1  1  6  0  0  0
  2  3  1  0  0  0  0
  2  5  1  0  0  0  0
  3  4  1  0  0  0  0
  3 10  1  0  0  0  0
  5  6  1  0  0  0  0
  6  7  1  0  0  0  0
  7  8  1  0  0  0  0
  8  9  1  0  0  0  0
M  END
>  <CHROM.1>
132.47294000,-165.62663540,-87.48804886,-175.71113674,-60.09840632,29.26849545
15.76596210,21.28731013,2.89207867,-0.37034257,-1.00908507

>  <Name>
ligand

>  <RI>
0

>  <Rbt.Current_Directory>
/home/itssahil/PROJECTS/Mol_Feturizer/New_Systems/rnas/3DIG

>  <Rbt.Executable>
rbdock ($Id: //depot/dev/client3/rdock/2013.1/src/exe/rbdock.cxx#4 $)

>  <Rbt.Library>
libRbt.so (2013.1, Build901 2013/11/27)

>  <Rbt.Parameter_File>
/export/apps/rDock/src/rDock_2013.1_src/data/scripts/dock_solv.prm

>  <Rbt.Receptor>
prm/pocket_docking_7.prm

>  <SCORE>
-10.6572

>  <SCORE.INTER>
-9.89908

>  <SCORE.INTER.CONST>
1

>  <SCORE.INTER.POLAR>
0

>  <SCORE.INTER.ROT>
5

>  <SCORE.INTER.SOLV>
17.7503

>  <SCORE.INTER.VDW>
-19.4495

>  <SCORE.INTER.norm>
-0.989908

>  <SCORE.INTRA>
-0.758151

>  <SCORE.INTRA.DIHEDRAL>
0.66539

>  <SCORE.INTRA.DIHEDRAL.0>
2.60093

>  <SCORE.INTRA.POLAR>
0

>  <SCORE.INTRA.POLAR.0>
0

>  <SCORE.INTRA.REPUL>
0

>  <SCORE.INTRA.REPUL.0>
0

>  <SCORE.INTRA.SOLV>
-0.628209

>  <SCORE.INTRA.SOLV.lig_0>
-33.7882

>  <SCORE.INTRA.VDW>
-0.776742

>  <SCORE.INTRA.VDW.0>
-0.593976

>  <SCORE.INTRA.norm>
-0.0758151

>  <SCORE.RESTR>
0

>  <SCORE.RESTR.CAVITY>
0

>  <SCORE.RESTR.norm>
0

>  <SCORE.SYSTEM>
0

>  <SCORE.SYSTEM.CONST>
0

>  <SCORE.SYSTEM.DIHEDRAL>
0

>  <SCORE.SYSTEM.SOLV>
0

>  <SCORE.SYSTEM.norm>
0

>  <SCORE.heavy>
10

>  <SCORE.norm>
-1.06572

>  <RMSD>
5.106

$$$$
ligand
 OpenBabel11021811473D
libRbt.so/2013.1/901 2013/11/27
 10  9  0  0  0  0  0  0  0  0999 V2000
   26.1973   14.9033   20.8797 N   0  0  0  0  0  0  0  0  0  0  0  0
   27.5070   15.5248   21.2332 C   0  0  2  0  0  0  0  0  0  0  0  0
   28.1529   16.1787   20.0463 C   0  0  0  0  0  0  0  0  0  0  0  0
   28.5973   17.3206   20.1184 O   0  0  0  0  0  0  0  0  0  0  0  0
   28.4173   14.4858   21.8815 C   0  0  0  0  0  0  0  0  0  0  0  0
   29.7665   15.3366   22.6398 S   0  0  0  0  0  0  0  0  0  0  0  0
   30.8797   15.4735   21.2798 C   0  0  0  0  0  0  0  0  0  0  0  0
   32.1903   16.0766   21.7755 C   0  0  0  0  0  0  0  0  0  0  0  0
   31.9473   17.3951   22.3253 N   0  0  0  0  0  0  0  0  0  0  0  0
   28.2908   15.6116   18.9646 O   0  0  0  0  0  0  0  0  0  0  0  0
  2  1  1  6  0  0  0
  2  3  1  0  0  0  0
  2  5  1  0  0  0  0
  3  4  1  0  0  0  0
  3 10  1  0  0  0  0
  5  6  1  0  0  0  0
  6  7  1  0  0  0  0
  7  8  1  0  0  0  0
  8  9  1  0  0  0  0
M  END
>  <CHROM.1>
131.54110057,-165.98419275,-86.16891783,-174.61194136,-60.58904480,29.26470996
15.78788843,21.26086514,2.91547340,-0.37543593,-0.98804129

>  <Name>
ligand

>  <RI>
0

>  <Rbt.Current_Directory>
/home/itssahil/PROJECTS/Mol_Feturizer/New_Systems/rnas/3DIG

>  <Rbt.Executable>
rbdock ($Id: //depot/dev/client3/rdock/2013.1/src/exe/rbdock.cxx#4 $)

>  <Rbt.Library>
libRbt.so (2013.1, Build901 2013/11/27)

>  <Rbt.Parameter_File>
/export/apps/rDock/src/rDock_2013.1_src/data/scripts/dock_solv.prm

>  <Rbt.Receptor>
prm/blind_docking_100.prm

>  <SCORE>
-10.5507

>  <SCORE.INTER>
-9.79259

>  <SCORE.INTER.CONST>
1

>  <SCORE.INTER.POLAR>
0

>  <SCORE.INTER.ROT>
5

>  <SCORE.INTER.SOLV>
17.8287

>  <SCORE.INTER.VDW>
-19.4046

>  <SCORE.INTER.norm>
-0.979259

>  <SCORE.INTRA>
-0.758066

>  <SCORE.INTRA.DIHEDRAL>
0.57107

>  <SCORE.INTRA.DIHEDRAL.0>
2.60093

>  <SCORE.INTRA.POLAR>
0

>  <SCORE.INTRA.POLAR.0>
0

>  <SCORE.INTRA.REPUL>
0

>  <SCORE.INTRA.REPUL.0>
0

>  <SCORE.INTRA.SOLV>
-0.651253

>  <SCORE.INTRA.SOLV.lig_0>
-33.7882

>  <SCORE.INTRA.VDW>
-0.717975

>  <SCORE.INTRA.VDW.0>
-0.593976

>  <SCORE.INTRA.norm>
-0.0758066

>  <SCORE.RESTR>
0

>  <SCORE.RESTR.CAVITY>
0

>  <SCORE.RESTR.norm>
0

>  <SCORE.SYSTEM>
0

>  <SCORE.SYSTEM.CONST>
0

>  <SCORE.SYSTEM.DIHEDRAL>
0

>  <SCORE.SYSTEM.SOLV>
0

>  <SCORE.SYSTEM.norm>
0

>  <SCORE.heavy>
10

>  <SCORE.norm>
-1.05507

>  <RMSD>
5.110

$$$$
ligand
 OpenBabel11021811473D
libRbt.so/2013.1/901 2013/11/27
 10  9  0  0  0  0  0  0  0  0999 V2000
   26.2006   14.9294   20.8880 N   0  0  0  0  0  0  0  0  0  0  0  0
   27.5139   15.5412   21.2448 C   0  0  2  0  0  0  0  0  0  0  0  0
   28.1684   16.1887   20.0591 C   0  0  0  0  0  0  0  0  0  0  0  0
   28.2717   15.5927   18.9910 O   0  0  0  0  0  0  0  0  0  0  0  0
   28.4142   14.4961   21.8971 C   0  0  0  0  0  0  0  0  0  0  0  0
   29.7457   15.3403   22.6932 S   0  0  0  0  0  0  0  0  0  0  0  0
   30.8978   15.4710   21.3652 C   0  0  0  0  0  0  0  0  0  0  0  0
   32.1967   16.0679   21.8976 C   0  0  0  0  0  0  0  0  0  0  0  0
   31.9534   17.4054   22.3994 N   0  0  0  0  0  0  0  0  0  0  0  0
   28.6083   17.3361   20.0833 O   0  0  0  0  0  0  0  0  0  0  0  0
  2  1  1  6  0  0  0
  2  3  1  0  0  0  0
  2  5  1  0  0  0  0
  3  4  1  0  0  0  0
  3 10  1  0  0  0  0
  5  6  1  0  0  0  0
  6  7  1  0  0  0  0
  7  8  1  0  0  0  0
  8  9  1  0  0  0  0
M  END
>  <CHROM.1>
-48.79226636,-164.58468607,-87.19076970,-174.61987184,-62.47888126,29.26418512
15.79351200,21.29957952,2.89447399,-0.38337654,-0.98677111

>  <Name>
ligand

>  <RI>
0

>  <Rbt.Current_Directory>
/home/itssahil/PROJECTS/Mol_Feturizer/New_Systems/rnas/3DIG

>  <Rbt.Executable>
rbdock ($Id: //depot/dev/client3/rdock/2013.1/src/exe/rbdock.cxx#4 $)

>  <Rbt.Library>
libRbt.so (2013.1, Build901 2013/11/27)

>  <Rbt.Parameter_File>
/export/apps/rDock/src/rDock_2013.1_src/data/scripts/dock_solv.prm

>  <Rbt.Receptor>
prm/pocket_docking_7.prm

>  <SCORE>
-10.5771

>  <SCORE.INTER>
-9.87036

>  <SCORE.INTER.CONST>
1

>  <SCORE.INTER.POLAR>
0

>  <SCORE.INTER.ROT>
5

>  <SCORE.INTER.SOLV>
17.8375

>  <SCORE.INTER.VDW>
-19.4594

>  <SCORE.INTER.norm>
-0.987036

>  <SCORE.INTRA>
-0.706741

>  <SCORE.INTRA.DIHEDRAL>
0.836034

>  <SCORE.INTRA.DIHEDRAL.0>
2.60093

>  <SCORE.INTRA.POLAR>
0

>  <SCORE.INTRA.POLAR.0>
0

>  <SCORE.INTRA.REPUL>
0

>  <SCORE.INTRA.REPUL.0>
0

>  <SCORE.INTRA.SOLV>
-0.664187

>  <SCORE.INTRA.SOLV.lig_0>
-33.7882

>  <SCORE.INTRA.VDW>
-0.792664

>  <SCORE.INTRA.VDW.0>
-0.593976

>  <SCORE.INTRA.norm>
-0.0706741

>  <SCORE.RESTR>
0

>  <SCORE.RESTR.CAVITY>
0

>  <SCORE.RESTR.norm>
0

>  <SCORE.SYSTEM>
0

>  <SCORE.SYSTEM.CONST>
0

>  <SCORE.SYSTEM.DIHEDRAL>
0

>  <SCORE.SYSTEM.SOLV>
0

>  <SCORE.SYSTEM.norm>
0

>  <SCORE.heavy>
10

>  <SCORE.norm>
-1.05771

>  <RMSD>
5.120

$$$$
ligand
 OpenBabel11021811473D
libRbt.so/2013.1/901 2013/11/27
 10  9  0  0  0  0  0  0  0  0999 V2000
   27.2116   13.0338   18.1065 N   0  0  0  0  0  0  0  0  0  0  0  0
   27.5398   14.3792   18.6622 C   0  0  2  0  0  0  0  0  0  0  0  0
   28.7945   14.9410   18.0595 C   0  0  0  0  0  0  0  0  0  0  0  0
   28.7858   16.0196   17.4737 O   0  0  0  0  0  0  0  0  0  0  0  0
   27.6167   14.3082   20.1846 C   0  0  0  0  0  0  0  0  0  0  0  0
   27.9715   15.9285   20.7912 S   0  0  0  0  0  0  0  0  0  0  0  0
   28.6594   15.5493   22.3694 C   0  0  0  0  0  0  0  0  0  0  0  0
   30.1158   15.1349   22.1847 C   0  0  0  0  0  0  0  0  0  0  0  0
   30.8819   16.2501   21.6659 N   0  0  0  0  0  0  0  0  0  0  0  0
   29.8833   14.3759   18.1366 O   0  0  0  0  0  0  0  0  0  0  0  0
  2  1  1  6  0  0  0
  2  3  1  0  0  0  0
  2  5  1  0  0  0  0
  3  4  1  0  0  0  0
  3 10  1  0  0  0  0
  5  6  1  0  0  0  0
  6  7  1  0  0  0  0
  7  8  1  0  0  0  0
  8  9  1  0  0  0  0
M  END
>  <CHROM.1>
121.98548245,-178.78291921,-157.78472995,80.09971605,64.09022944,28.67982232
15.10784510,19.85984063,1.90058896,-0.42478052,-1.76218719

>  <Name>
ligand

>  <RI>
0

>  <Rbt.Current_Directory>
/home/itssahil/PROJECTS/Mol_Feturizer/New_Systems/rnas/3DIG

>  <Rbt.Executable>
rbdock ($Id: //depot/dev/client3/rdock/2013.1/src/exe/rbdock.cxx#4 $)

>  <Rbt.Library>
libRbt.so (2013.1, Build901 2013/11/27)

>  <Rbt.Parameter_File>
/export/apps/rDock/src/rDock_2013.1_src/data/scripts/dock_solv.prm

>  <Rbt.Receptor>
prm/blind_docking_60.prm

>  <SCORE>
-12.0165

>  <SCORE.INTER>
-11.492

>  <SCORE.INTER.CONST>
1

>  <SCORE.INTER.POLAR>
0

>  <SCORE.INTER.ROT>
5

>  <SCORE.INTER.SOLV>
15.9259

>  <SCORE.INTER.VDW>
-19.9033

>  <SCORE.INTER.norm>
-1.1492

>  <SCORE.INTRA>
-0.524555

>  <SCORE.INTRA.DIHEDRAL>
0.29891

>  <SCORE.INTRA.DIHEDRAL.0>
2.60093

>  <SCORE.INTRA.POLAR>
0

>  <SCORE.INTRA.POLAR.0>
0

>  <SCORE.INTRA.REPUL>
0

>  <SCORE.INTRA.REPUL.0>
0

>  <SCORE.INTRA.SOLV>
-0.284925

>  <SCORE.INTRA.SOLV.lig_0>
-33.7882

>  <SCORE.INTRA.VDW>
-0.531547

>  <SCORE.INTRA.VDW.0>
-0.593976

>  <SCORE.INTRA.norm>
-0.0524555

>  <SCORE.RESTR>
0

>  <SCORE.RESTR.CAVITY>
0

>  <SCORE.RESTR.norm>
0

>  <SCORE.SYSTEM>
0

>  <SCORE.SYSTEM.CONST>
0

>  <SCORE.SYSTEM.DIHEDRAL>
0

>  <SCORE.SYSTEM.SOLV>
0

>  <SCORE.SYSTEM.norm>
0

>  <SCORE.heavy>
10

>  <SCORE.norm>
-1.20165

>  <RMSD>
5.141

$$$$
ligand
 OpenBabel11021811473D
libRbt.so/2013.1/901 2013/11/27
 10  9  0  0  0  0  0  0  0  0999 V2000
   28.6467   16.9329   19.1981 N   0  0  0  0  0  0  0  0  0  0  0  0
   28.8478   15.6408   19.9168 C   0  0  2  0  0  0  0  0  0  0  0  0
   28.3308   14.4752   19.1246 C   0  0  0  0  0  0  0  0  0  0  0  0
   29.0839   13.8009   18.4283 O   0  0  0  0  0  0  0  0  0  0  0  0
   28.2190   15.7148   21.3051 C   0  0  0  0  0  0  0  0  0  0  0  0
   29.0366   14.5402   22.3400 S   0  0  0  0  0  0  0  0  0  0  0  0
   30.7050   15.0975   22.2219 C   0  0  0  0  0  0  0  0  0  0  0  0
   30.8045   16.4873   22.8427 C   0  0  0  0  0  0  0  0  0  0  0  0
   32.1484   17.0038   22.6779 N   0  0  0  0  0  0  0  0  0  0  0  0
   27.1532   14.1235   19.1456 O   0  0  0  0  0  0  0  0  0  0  0  0
  2  1  1  6  0  0  0
  2  3  1  0  0  0  0
  2  5  1  0  0  0  0
  3  4  1  0  0  0  0
  3 10  1  0  0  0  0
  5  6  1  0  0  0  0
  6  7  1  0  0  0  0
  7  8  1  0  0  0  0
  8  9  1  0  0  0  0
M  END
>  <CHROM.1>
96.77540786,-155.74070697,58.04695680,64.64284855,-176.22541109,29.25362237
15.26063405,20.88092367,-2.60384110,0.82878500,2.04975063

>  <Name>
ligand

>  <RI>
0

>  <Rbt.Current_Directory>
/home/itssahil/PROJECTS/Mol_Feturizer/New_Systems/rnas/3DIG

>  <Rbt.Executable>
rbdock ($Id: //depot/dev/client3/rdock/2013.1/src/exe/rbdock.cxx#4 $)

>  <Rbt.Library>
libRbt.so (2013.1, Build901 2013/11/27)

>  <Rbt.Parameter_File>
/export/apps/rDock/src/rDock_2013.1_src/data/scripts/dock_solv.prm

>  <Rbt.Receptor>
prm/pocket_docking_6.prm

>  <SCORE>
-8.62582

>  <SCORE.INTER>
-9.34701

>  <SCORE.INTER.CONST>
1

>  <SCORE.INTER.POLAR>
0

>  <SCORE.INTER.ROT>
5

>  <SCORE.INTER.SOLV>
15.5675

>  <SCORE.INTER.VDW>
-18.3538

>  <SCORE.INTER.norm>
-0.934701

>  <SCORE.INTRA>
0.721197

>  <SCORE.INTRA.DIHEDRAL>
0.88514

>  <SCORE.INTRA.DIHEDRAL.0>
2.60093

>  <SCORE.INTRA.POLAR>
0

>  <SCORE.INTRA.POLAR.0>
0

>  <SCORE.INTRA.REPUL>
0

>  <SCORE.INTRA.REPUL.0>
0

>  <SCORE.INTRA.SOLV>
-0.382157

>  <SCORE.INTRA.SOLV.lig_0>
-33.7882

>  <SCORE.INTRA.VDW>
0.469705

>  <SCORE.INTRA.VDW.0>
-0.593976

>  <SCORE.INTRA.norm>
0.0721197

>  <SCORE.RESTR>
0

>  <SCORE.RESTR.CAVITY>
0

>  <SCORE.RESTR.norm>
0

>  <SCORE.SYSTEM>
0

>  <SCORE.SYSTEM.CONST>
0

>  <SCORE.SYSTEM.DIHEDRAL>
0

>  <SCORE.SYSTEM.SOLV>
0

>  <SCORE.SYSTEM.norm>
0

>  <SCORE.heavy>
10

>  <SCORE.norm>
-0.862582

>  <RMSD>
5.153

$$$$
ligand
 OpenBabel11021811473D
libRbt.so/2013.1/901 2013/11/27
 10  9  0  0  0  0  0  0  0  0999 V2000
   27.4517   15.5335   19.8553 N   0  0  0  0  0  0  0  0  0  0  0  0
   28.6905   15.4328   20.6810 C   0  0  2  0  0  0  0  0  0  0  0  0
   28.4071   14.8785   22.0470 C   0  0  0  0  0  0  0  0  0  0  0  0
   29.2641   14.2543   22.6656 O   0  0  0  0  0  0  0  0  0  0  0  0
   29.3841   16.7904   20.7455 C   0  0  0  0  0  0  0  0  0  0  0  0
   31.0706   16.5229   21.1967 S   0  0  0  0  0  0  0  0  0  0  0  0
   31.3019   17.7997   22.3901 C   0  0  0  0  0  0  0  0  0  0  0  0
   32.7975   18.0425   22.5672 C   0  0  0  0  0  0  0  0  0  0  0  0
   33.4426   16.8261   23.0188 N   0  0  0  0  0  0  0  0  0  0  0  0
   27.3314   15.0345   22.6209 O   0  0  0  0  0  0  0  0  0  0  0  0
  2  1  1  6  0  0  0
  2  3  1  0  0  0  0
  2  5  1  0  0  0  0
  3  4  1  0  0  0  0
  3 10  1  0  0  0  0
  5  6  1  0  0  0  0
  6  7  1  0  0  0  0
  7  8  1  0  0  0  0
  8  9  1  0  0  0  0
M  END
>  <CHROM.1>
151.80188225,-159.77060918,-136.22382324,-161.37399885,-59.80231581,30.03176824
16.14163991,21.73794615,3.06044029,0.48857374,2.15203022

>  <Name>
ligand

>  <RI>
0

>  <Rbt.Current_Directory>
/home/itssahil/PROJECTS/Mol_Feturizer/New_Systems/rnas/3DIG

>  <Rbt.Executable>
rbdock ($Id: //depot/dev/client3/rdock/2013.1/src/exe/rbdock.cxx#4 $)

>  <Rbt.Library>
libRbt.so (2013.1, Build901 2013/11/27)

>  <Rbt.Parameter_File>
/export/apps/rDock/src/rDock_2013.1_src/data/scripts/dock_solv.prm

>  <Rbt.Receptor>
prm/blind_docking_100.prm

>  <SCORE>
-8.20066

>  <SCORE.INTER>
-8.56772

>  <SCORE.INTER.CONST>
1

>  <SCORE.INTER.POLAR>
0

>  <SCORE.INTER.ROT>
5

>  <SCORE.INTER.SOLV>
16.2325

>  <SCORE.INTER.VDW>
-18.056

>  <SCORE.INTER.norm>
-0.856772

>  <SCORE.INTRA>
0.367064

>  <SCORE.INTRA.DIHEDRAL>
2.71694

>  <SCORE.INTRA.DIHEDRAL.0>
2.60093

>  <SCORE.INTRA.POLAR>
0

>  <SCORE.INTRA.POLAR.0>
0

>  <SCORE.INTRA.REPUL>
0

>  <SCORE.INTRA.REPUL.0>
0

>  <SCORE.INTRA.SOLV>
-0.677434

>  <SCORE.INTRA.SOLV.lig_0>
-33.7882

>  <SCORE.INTRA.VDW>
-0.652687

>  <SCORE.INTRA.VDW.0>
-0.593976

>  <SCORE.INTRA.norm>
0.0367064

>  <SCORE.RESTR>
0

>  <SCORE.RESTR.CAVITY>
0

>  <SCORE.RESTR.norm>
0

>  <SCORE.SYSTEM>
0

>  <SCORE.SYSTEM.CONST>
0

>  <SCORE.SYSTEM.DIHEDRAL>
0

>  <SCORE.SYSTEM.SOLV>
0

>  <SCORE.SYSTEM.norm>
0

>  <SCORE.heavy>
10

>  <SCORE.norm>
-0.820066

>  <RMSD>
5.175

$$$$
ligand
 OpenBabel11021811473D
libRbt.so/2013.1/901 2013/11/27
 10  9  0  0  0  0  0  0  0  0999 V2000
   26.2577   14.6713   21.1240 N   0  0  0  0  0  0  0  0  0  0  0  0
   27.5111   15.4542   21.3299 C   0  0  2  0  0  0  0  0  0  0  0  0
   28.0808   15.9474   20.0315 C   0  0  0  0  0  0  0  0  0  0  0  0
   28.5720   17.0687   19.9427 O   0  0  0  0  0  0  0  0  0  0  0  0
   28.5188   14.6240   22.1197 C   0  0  0  0  0  0  0  0  0  0  0  0
   29.8655   15.6761   22.5656 S   0  0  0  0  0  0  0  0  0  0  0  0
   31.0007   15.3340   21.2609 C   0  0  0  0  0  0  0  0  0  0  0  0
   31.9503   16.5184   21.1117 C   0  0  0  0  0  0  0  0  0  0  0  0
   32.7085   16.6972   22.3336 N   0  0  0  0  0  0  0  0  0  0  0  0
   28.1077   15.2624   19.0113 O   0  0  0  0  0  0  0  0  0  0  0  0
  2  1  1  6  0  0  0
  2  3  1  0  0  0  0
  2  5  1  0  0  0  0
  3  4  1  0  0  0  0
  3 10  1  0  0  0  0
  5  6  1  0  0  0  0
  6  7  1  0  0  0  0
  7  8  1  0  0  0  0
  8  9  1  0  0  0  0
M  END
>  <CHROM.1>
140.50158177,-170.77931245,-95.48514845,156.38229055,61.82637860,29.32936758
15.72962483,21.22279692,2.92096863,-0.31447134,-1.19796365

>  <Name>
ligand

>  <RI>
0

>  <Rbt.Current_Directory>
/home/itssahil/PROJECTS/Mol_Feturizer/New_Systems/rnas/3DIG

>  <Rbt.Executable>
rbdock ($Id: //depot/dev/client3/rdock/2013.1/src/exe/rbdock.cxx#4 $)

>  <Rbt.Library>
libRbt.so (2013.1, Build901 2013/11/27)

>  <Rbt.Parameter_File>
/export/apps/rDock/src/rDock_2013.1_src/data/scripts/dock_solv.prm

>  <Rbt.Receptor>
prm/pocket_docking_8.prm

>  <SCORE>
-9.91768

>  <SCORE.INTER>
-9.42942

>  <SCORE.INTER.CONST>
1

>  <SCORE.INTER.POLAR>
0

>  <SCORE.INTER.ROT>
5

>  <SCORE.INTER.SOLV>
18.5084

>  <SCORE.INTER.VDW>
-19.3891

>  <SCORE.INTER.norm>
-0.942942

>  <SCORE.INTRA>
-0.488265

>  <SCORE.INTRA.DIHEDRAL>
1.5295

>  <SCORE.INTRA.DIHEDRAL.0>
2.60093

>  <SCORE.INTRA.POLAR>
0

>  <SCORE.INTRA.POLAR.0>
0

>  <SCORE.INTRA.REPUL>
0

>  <SCORE.INTRA.REPUL.0>
0

>  <SCORE.INTRA.SOLV>
-0.708829

>  <SCORE.INTRA.SOLV.lig_0>
-33.7882

>  <SCORE.INTRA.VDW>
-0.898603

>  <SCORE.INTRA.VDW.0>
-0.593976

>  <SCORE.INTRA.norm>
-0.0488265

>  <SCORE.RESTR>
0

>  <SCORE.RESTR.CAVITY>
0

>  <SCORE.RESTR.norm>
0

>  <SCORE.SYSTEM>
0

>  <SCORE.SYSTEM.CONST>
0

>  <SCORE.SYSTEM.DIHEDRAL>
0

>  <SCORE.SYSTEM.SOLV>
0

>  <SCORE.SYSTEM.norm>
0

>  <SCORE.heavy>
10

>  <SCORE.norm>
-0.991768

>  <RMSD>
5.176

$$$$
ligand
 OpenBabel11021811473D
libRbt.so/2013.1/901 2013/11/27
 10  9  0  0  0  0  0  0  0  0999 V2000
   27.4902   16.3524   19.9603 N   0  0  0  0  0  0  0  0  0  0  0  0
   28.5435   15.2955   19.9544 C   0  0  2  0  0  0  0  0  0  0  0  0
   28.5585   14.5297   18.6634 C   0  0  0  0  0  0  0  0  0  0  0  0
   29.5840   14.4385   17.9950 O   0  0  0  0  0  0  0  0  0  0  0  0
   28.3680   14.3799   21.1624 C   0  0  0  0  0  0  0  0  0  0  0  0
   28.8228   15.2870   22.6079 S   0  0  0  0  0  0  0  0  0  0  0  0
   30.5785   15.1355   22.5567 C   0  0  0  0  0  0  0  0  0  0  0  0
   31.1474   16.2836   21.7288 C   0  0  0  0  0  0  0  0  0  0  0  0
   30.9448   17.5384   22.4246 N   0  0  0  0  0  0  0  0  0  0  0  0
   27.5717   13.9439   18.2231 O   0  0  0  0  0  0  0  0  0  0  0  0
  2  1  1  6  0  0  0
  2  3  1  0  0  0  0
  2  5  1  0  0  0  0
  3  4  1  0  0  0  0
  3 10  1  0  0  0  0
  5  6  1  0  0  0  0
  6  7  1  0  0  0  0
  7  8  1  0  0  0  0
  8  9  1  0  0  0  0
M  END
>  <CHROM.1>
124.70643224,-71.01124814,-81.09582635,88.62008041,67.76858066,29.11971285
15.29665471,20.73043021,2.04481942,-0.42869552,-1.75690729

>  <Name>
ligand

>  <RI>
0

>  <Rbt.Current_Directory>
/home/itssahil/PROJECTS/Mol_Feturizer/New_Systems/rnas/3DIG

>  <Rbt.Executable>
rbdock ($Id: //depot/dev/client3/rdock/2013.1/src/exe/rbdock.cxx#4 $)

>  <Rbt.Library>
libRbt.so (2013.1, Build901 2013/11/27)

>  <Rbt.Parameter_File>
/export/apps/rDock/src/rDock_2013.1_src/data/scripts/dock_solv.prm

>  <Rbt.Receptor>
prm/pocket_docking_6.prm

>  <SCORE>
-9.59805

>  <SCORE.INTER>
-10.3147

>  <SCORE.INTER.CONST>
1

>  <SCORE.INTER.POLAR>
0

>  <SCORE.INTER.ROT>
5

>  <SCORE.INTER.SOLV>
16.1105

>  <SCORE.INTER.VDW>
-19.1799

>  <SCORE.INTER.norm>
-1.03147

>  <SCORE.INTRA>
0.716633

>  <SCORE.INTRA.DIHEDRAL>
1.29134

>  <SCORE.INTRA.DIHEDRAL.0>
2.60093

>  <SCORE.INTRA.POLAR>
0

>  <SCORE.INTRA.POLAR.0>
0

>  <SCORE.INTRA.REPUL>
0

>  <SCORE.INTRA.REPUL.0>
0

>  <SCORE.INTRA.SOLV>
1.39016

>  <SCORE.INTRA.SOLV.lig_0>
-33.7882

>  <SCORE.INTRA.VDW>
-0.624121

>  <SCORE.INTRA.VDW.0>
-0.593976

>  <SCORE.INTRA.norm>
0.0716633

>  <SCORE.RESTR>
0

>  <SCORE.RESTR.CAVITY>
0

>  <SCORE.RESTR.norm>
0

>  <SCORE.SYSTEM>
0

>  <SCORE.SYSTEM.CONST>
0

>  <SCORE.SYSTEM.DIHEDRAL>
0

>  <SCORE.SYSTEM.SOLV>
0

>  <SCORE.SYSTEM.norm>
0

>  <SCORE.heavy>
10

>  <SCORE.norm>
-0.959805

>  <RMSD>
5.187

$$$$
ligand
 OpenBabel11021811473D
libRbt.so/2013.1/901 2013/11/27
 10  9  0  0  0  0  0  0  0  0999 V2000
   26.2273   14.6716   21.0994 N   0  0  0  0  0  0  0  0  0  0  0  0
   27.4858   15.4452   21.3098 C   0  0  2  0  0  0  0  0  0  0  0  0
   28.0565   15.9455   20.0146 C   0  0  0  0  0  0  0  0  0  0  0  0
   27.9993   15.2652   18.9946 O   0  0  0  0  0  0  0  0  0  0  0  0
   28.4896   14.6025   22.0913 C   0  0  0  0  0  0  0  0  0  0  0  0
   29.8342   15.6473   22.5601 S   0  0  0  0  0  0  0  0  0  0  0  0
   30.9408   15.3899   21.2122 C   0  0  0  0  0  0  0  0  0  0  0  0
   31.8533   16.6058   21.0857 C   0  0  0  0  0  0  0  0  0  0  0  0
   32.6049   16.7855   22.3116 N   0  0  0  0  0  0  0  0  0  0  0  0
   28.5820   17.0507   19.8993 O   0  0  0  0  0  0  0  0  0  0  0  0
  2  1  1  6  0  0  0
  2  3  1  0  0  0  0
  2  5  1  0  0  0  0
  3  4  1  0  0  0  0
  3 10  1  0  0  0  0
  5  6  1  0  0  0  0
  6  7  1  0  0  0  0
  7  8  1  0  0  0  0
  8  9  1  0  0  0  0
M  END
>  <CHROM.1>
-37.06631820,-170.12035666,-92.66557490,155.23489747,59.74261975,29.28107123
15.73993239,21.19955108,2.92786305,-0.33647703,-1.18456309

>  <Name>
ligand

>  <RI>
0

>  <Rbt.Current_Directory>
/home/itssahil/PROJECTS/Mol_Feturizer/New_Systems/rnas/3DIG

>  <Rbt.Executable>
rbdock ($Id: //depot/dev/client3/rdock/2013.1/src/exe/rbdock.cxx#4 $)

>  <Rbt.Library>
libRbt.so (2013.1, Build901 2013/11/27)

>  <Rbt.Parameter_File>
/export/apps/rDock/src/rDock_2013.1_src/data/scripts/dock_solv.prm

>  <Rbt.Receptor>
prm/pocket_docking_7.prm

>  <SCORE>
-9.80427

>  <SCORE.INTER>
-9.45454

>  <SCORE.INTER.CONST>
1

>  <SCORE.INTER.POLAR>
0

>  <SCORE.INTER.ROT>
5

>  <SCORE.INTER.SOLV>
18.1248

>  <SCORE.INTER.VDW>
-19.278

>  <SCORE.INTER.norm>
-0.945454

>  <SCORE.INTRA>
-0.34973

>  <SCORE.INTRA.DIHEDRAL>
1.53776

>  <SCORE.INTRA.DIHEDRAL.0>
2.60093

>  <SCORE.INTRA.POLAR>
0

>  <SCORE.INTRA.POLAR.0>
0

>  <SCORE.INTRA.REPUL>
0

>  <SCORE.INTRA.REPUL.0>
0

>  <SCORE.INTRA.SOLV>
-0.655032

>  <SCORE.INTRA.SOLV.lig_0>
-33.7882

>  <SCORE.INTRA.VDW>
-0.791094

>  <SCORE.INTRA.VDW.0>
-0.593976

>  <SCORE.INTRA.norm>
-0.034973

>  <SCORE.RESTR>
0

>  <SCORE.RESTR.CAVITY>
0

>  <SCORE.RESTR.norm>
0

>  <SCORE.SYSTEM>
0

>  <SCORE.SYSTEM.CONST>
0

>  <SCORE.SYSTEM.DIHEDRAL>
0

>  <SCORE.SYSTEM.SOLV>
0

>  <SCORE.SYSTEM.norm>
0

>  <SCORE.heavy>
10

>  <SCORE.norm>
-0.980427

>  <RMSD>
5.187

$$$$
ligand
 OpenBabel11021811473D
libRbt.so/2013.1/901 2013/11/27
 10  9  0  0  0  0  0  0  0  0999 V2000
   26.1496   14.7682   21.0245 N   0  0  0  0  0  0  0  0  0  0  0  0
   27.4478   15.4737   21.2326 C   0  0  2  0  0  0  0  0  0  0  0  0
   28.0487   15.9313   19.9353 C   0  0  0  0  0  0  0  0  0  0  0  0
   28.0347   15.2086   18.9432 O   0  0  0  0  0  0  0  0  0  0  0  0
   28.4019   14.5841   22.0243 C   0  0  0  0  0  0  0  0  0  0  0  0
   29.7854   15.5657   22.5157 S   0  0  0  0  0  0  0  0  0  0  0  0
   30.8904   15.2788   21.1724 C   0  0  0  0  0  0  0  0  0  0  0  0
   31.8850   16.4330   21.0983 C   0  0  0  0  0  0  0  0  0  0  0  0
   32.6365   16.5140   22.3347 N   0  0  0  0  0  0  0  0  0  0  0  0
   28.5576   17.0405   19.7897 O   0  0  0  0  0  0  0  0  0  0  0  0
  2  1  1  6  0  0  0
  2  3  1  0  0  0  0
  2  5  1  0  0  0  0
  3  4  1  0  0  0  0
  3 10  1  0  0  0  0
  5  6  1  0  0  0  0
  6  7  1  0  0  0  0
  7  8  1  0  0  0  0
  8  9  1  0  0  0  0
M  END
>  <CHROM.1>
-41.91630092,-169.04361339,-92.02087856,157.20793900,60.12530121,29.25523572
15.67602517,21.14926702,2.88920300,-0.29284884,-1.19820701

>  <Name>
ligand

>  <RI>
0

>  <Rbt.Current_Directory>
/home/itssahil/PROJECTS/Mol_Feturizer/New_Systems/rnas/3DIG

>  <Rbt.Executable>
rbdock ($Id: //depot/dev/client3/rdock/2013.1/src/exe/rbdock.cxx#4 $)

>  <Rbt.Library>
libRbt.so (2013.1, Build901 2013/11/27)

>  <Rbt.Parameter_File>
/export/apps/rDock/src/rDock_2013.1_src/data/scripts/dock_solv.prm

>  <Rbt.Receptor>
prm/blind_docking_60.prm

>  <SCORE>
-9.97171

>  <SCORE.INTER>
-9.53392

>  <SCORE.INTER.CONST>
1

>  <SCORE.INTER.POLAR>
0

>  <SCORE.INTER.ROT>
5

>  <SCORE.INTER.SOLV>
18.6515

>  <SCORE.INTER.VDW>
-19.5064

>  <SCORE.INTER.norm>
-0.953392

>  <SCORE.INTRA>
-0.437798

>  <SCORE.INTRA.DIHEDRAL>
1.45059

>  <SCORE.INTRA.DIHEDRAL.0>
2.60093

>  <SCORE.INTRA.POLAR>
0

>  <SCORE.INTRA.POLAR.0>
0

>  <SCORE.INTRA.REPUL>
0

>  <SCORE.INTRA.REPUL.0>
0

>  <SCORE.INTRA.SOLV>
-0.663829

>  <SCORE.INTRA.SOLV.lig_0>
-33.7882

>  <SCORE.INTRA.VDW>
-0.831181

>  <SCORE.INTRA.VDW.0>
-0.593976

>  <SCORE.INTRA.norm>
-0.0437798

>  <SCORE.RESTR>
0

>  <SCORE.RESTR.CAVITY>
0

>  <SCORE.RESTR.norm>
0

>  <SCORE.SYSTEM>
0

>  <SCORE.SYSTEM.CONST>
0

>  <SCORE.SYSTEM.DIHEDRAL>
0

>  <SCORE.SYSTEM.SOLV>
0

>  <SCORE.SYSTEM.norm>
0

>  <SCORE.heavy>
10

>  <SCORE.norm>
-0.997171

>  <RMSD>
5.200

$$$$
ligand
 OpenBabel11021811473D
libRbt.so/2013.1/901 2013/11/27
 10  9  0  0  0  0  0  0  0  0999 V2000
   26.1692   14.7236   21.0238 N   0  0  0  0  0  0  0  0  0  0  0  0
   27.4566   15.4463   21.2403 C   0  0  2  0  0  0  0  0  0  0  0  0
   28.0716   15.8910   19.9452 C   0  0  0  0  0  0  0  0  0  0  0  0
   28.0591   15.1627   18.9572 O   0  0  0  0  0  0  0  0  0  0  0  0
   28.4083   14.5790   22.0592 C   0  0  0  0  0  0  0  0  0  0  0  0
   29.7885   15.5750   22.5306 S   0  0  0  0  0  0  0  0  0  0  0  0
   30.8825   15.2885   21.1783 C   0  0  0  0  0  0  0  0  0  0  0  0
   31.9553   16.3730   21.1750 C   0  0  0  0  0  0  0  0  0  0  0  0
   32.6722   16.3587   22.4342 N   0  0  0  0  0  0  0  0  0  0  0  0
   28.5913   16.9950   19.7972 O   0  0  0  0  0  0  0  0  0  0  0  0
  2  1  1  6  0  0  0
  2  3  1  0  0  0  0
  2  5  1  0  0  0  0
  3  4  1  0  0  0  0
  3 10  1  0  0  0  0
  5  6  1  0  0  0  0
  6  7  1  0  0  0  0
  7  8  1  0  0  0  0
  8  9  1  0  0  0  0
M  END
>  <CHROM.1>
-40.62131896,-170.07657735,-90.57101485,163.03273703,58.34536366,29.27504979
15.64095059,21.17486279,2.86879901,-0.28429608,-1.21975119

>  <Name>
ligand

>  <RI>
0

>  <Rbt.Current_Directory>
/home/itssahil/PROJECTS/Mol_Feturizer/New_Systems/rnas/3DIG

>  <Rbt.Executable>
rbdock ($Id: //depot/dev/client3/rdock/2013.1/src/exe/rbdock.cxx#4 $)

>  <Rbt.Library>
libRbt.so (2013.1, Build901 2013/11/27)

>  <Rbt.Parameter_File>
/export/apps/rDock/src/rDock_2013.1_src/data/scripts/dock_solv.prm

>  <Rbt.Receptor>
prm/pocket_docking_3.prm

>  <SCORE>
-9.9259

>  <SCORE.INTER>
-9.397

>  <SCORE.INTER.CONST>
1

>  <SCORE.INTER.POLAR>
0

>  <SCORE.INTER.ROT>
5

>  <SCORE.INTER.SOLV>
19.1424

>  <SCORE.INTER.VDW>
-19.5788

>  <SCORE.INTER.norm>
-0.9397

>  <SCORE.INTRA>
-0.528902

>  <SCORE.INTRA.DIHEDRAL>
0.983453

>  <SCORE.INTRA.DIHEDRAL.0>
2.60093

>  <SCORE.INTRA.POLAR>
0

>  <SCORE.INTRA.POLAR.0>
0

>  <SCORE.INTRA.REPUL>
0

>  <SCORE.INTRA.REPUL.0>
0

>  <SCORE.INTRA.SOLV>
-0.626798

>  <SCORE.INTRA.SOLV.lig_0>
-33.7882

>  <SCORE.INTRA.VDW>
-0.707229

>  <SCORE.INTRA.VDW.0>
-0.593976

>  <SCORE.INTRA.norm>
-0.0528902

>  <SCORE.RESTR>
0

>  <SCORE.RESTR.CAVITY>
0

>  <SCORE.RESTR.norm>
0

>  <SCORE.SYSTEM>
0

>  <SCORE.SYSTEM.CONST>
0

>  <SCORE.SYSTEM.DIHEDRAL>
0

>  <SCORE.SYSTEM.SOLV>
0

>  <SCORE.SYSTEM.norm>
0

>  <SCORE.heavy>
10

>  <SCORE.norm>
-0.99259

>  <RMSD>
5.200

$$$$
ligand
 OpenBabel11021811473D
libRbt.so/2013.1/901 2013/11/27
 10  9  0  0  0  0  0  0  0  0999 V2000
   26.1814   14.7460   21.0602 N   0  0  0  0  0  0  0  0  0  0  0  0
   27.4773   15.4580   21.2609 C   0  0  2  0  0  0  0  0  0  0  0  0
   28.0573   15.9381   19.9623 C   0  0  0  0  0  0  0  0  0  0  0  0
   28.0294   15.2319   18.9587 O   0  0  0  0  0  0  0  0  0  0  0  0
   28.4482   14.5644   22.0272 C   0  0  0  0  0  0  0  0  0  0  0  0
   29.8211   15.5539   22.5323 S   0  0  0  0  0  0  0  0  0  0  0  0
   30.8935   15.3672   21.1456 C   0  0  0  0  0  0  0  0  0  0  0  0
   31.9566   16.4600   21.1951 C   0  0  0  0  0  0  0  0  0  0  0  0
   32.7150   16.3522   22.4252 N   0  0  0  0  0  0  0  0  0  0  0  0
   28.5620   17.0506   19.8273 O   0  0  0  0  0  0  0  0  0  0  0  0
  2  1  1  6  0  0  0
  2  3  1  0  0  0  0
  2  5  1  0  0  0  0
  3  4  1  0  0  0  0
  3 10  1  0  0  0  0
  5  6  1  0  0  0  0
  6  7  1  0  0  0  0
  7  8  1  0  0  0  0
  8  9  1  0  0  0  0
M  END
>  <CHROM.1>
-41.55867169,-168.30964430,-89.72819569,163.57379180,59.58242563,29.28577262
15.66848645,21.17983911,2.88086824,-0.28885356,-1.18284014

>  <Name>
ligand

>  <RI>
0

>  <Rbt.Current_Directory>
/home/itssahil/PROJECTS/Mol_Feturizer/New_Systems/rnas/3DIG

>  <Rbt.Executable>
rbdock ($Id: //depot/dev/client3/rdock/2013.1/src/exe/rbdock.cxx#4 $)

>  <Rbt.Library>
libRbt.so (2013.1, Build901 2013/11/27)

>  <Rbt.Parameter_File>
/export/apps/rDock/src/rDock_2013.1_src/data/scripts/dock_solv.prm

>  <Rbt.Receptor>
prm/pocket_docking_4.prm

>  <SCORE>
-9.95741

>  <SCORE.INTER>
-9.41165

>  <SCORE.INTER.CONST>
1

>  <SCORE.INTER.POLAR>
0

>  <SCORE.INTER.ROT>
5

>  <SCORE.INTER.SOLV>
19.2302

>  <SCORE.INTER.VDW>
-19.6178

>  <SCORE.INTER.norm>
-0.941165

>  <SCORE.INTRA>
-0.545761

>  <SCORE.INTRA.DIHEDRAL>
1.02364

>  <SCORE.INTRA.DIHEDRAL.0>
2.60093

>  <SCORE.INTRA.POLAR>
0

>  <SCORE.INTRA.POLAR.0>
0

>  <SCORE.INTRA.REPUL>
0

>  <SCORE.INTRA.REPUL.0>
0

>  <SCORE.INTRA.SOLV>
-0.645784

>  <SCORE.INTRA.SOLV.lig_0>
-33.7882

>  <SCORE.INTRA.VDW>
-0.734689

>  <SCORE.INTRA.VDW.0>
-0.593976

>  <SCORE.INTRA.norm>
-0.0545761

>  <SCORE.RESTR>
0

>  <SCORE.RESTR.CAVITY>
0

>  <SCORE.RESTR.norm>
0

>  <SCORE.SYSTEM>
0

>  <SCORE.SYSTEM.CONST>
0

>  <SCORE.SYSTEM.DIHEDRAL>
0

>  <SCORE.SYSTEM.SOLV>
0

>  <SCORE.SYSTEM.norm>
0

>  <SCORE.heavy>
10

>  <SCORE.norm>
-0.995741

>  <RMSD>
5.204

$$$$
ligand
 OpenBabel11021811473D
libRbt.so/2013.1/901 2013/11/27
 10  9  0  0  0  0  0  0  0  0999 V2000
   26.1353   14.7268   21.1008 N   0  0  0  0  0  0  0  0  0  0  0  0
   27.4195   15.4588   21.3040 C   0  0  2  0  0  0  0  0  0  0  0  0
   27.9845   15.9648   20.0085 C   0  0  0  0  0  0  0  0  0  0  0  0
   27.9623   15.2712   18.9961 O   0  0  0  0  0  0  0  0  0  0  0  0
   28.4098   14.5730   22.0545 C   0  0  0  0  0  0  0  0  0  0  0  0
   29.7882   15.5709   22.5271 S   0  0  0  0  0  0  0  0  0  0  0  0
   30.8633   15.3256   21.1517 C   0  0  0  0  0  0  0  0  0  0  0  0
   31.8911   16.4525   21.1235 C   0  0  0  0  0  0  0  0  0  0  0  0
   32.6768   16.4313   22.3409 N   0  0  0  0  0  0  0  0  0  0  0  0
   28.4705   17.0870   19.8852 O   0  0  0  0  0  0  0  0  0  0  0  0
  2  1  1  6  0  0  0
  2  3  1  0  0  0  0
  2  5  1  0  0  0  0
  3  4  1  0  0  0  0
  3 10  1  0  0  0  0
  5  6  1  0  0  0  0
  6  7  1  0  0  0  0
  7  8  1  0  0  0  0
  8  9  1  0  0  0  0
M  END
>  <CHROM.1>
-41.47060056,-169.81080406,-92.10645978,160.72567123,60.97417004,29.23374562
15.68329485,21.18817957,2.90941717,-0.28568038,-1.16656737

>  <Name>
ligand

>  <RI>
0

>  <Rbt.Current_Directory>
/home/itssahil/PROJECTS/Mol_Feturizer/New_Systems/rnas/3DIG

>  <Rbt.Executable>
rbdock ($Id: //depot/dev/client3/rdock/2013.1/src/exe/rbdock.cxx#4 $)

>  <Rbt.Library>
libRbt.so (2013.1, Build901 2013/11/27)

>  <Rbt.Parameter_File>
/export/apps/rDock/src/rDock_2013.1_src/data/scripts/dock_solv.prm

>  <Rbt.Receptor>
prm/blind_docking_60.prm

>  <SCORE>
-10.0361

>  <SCORE.INTER>
-9.49115

>  <SCORE.INTER.CONST>
1

>  <SCORE.INTER.POLAR>
0

>  <SCORE.INTER.ROT>
5

>  <SCORE.INTER.SOLV>
19.0313

>  <SCORE.INTER.VDW>
-19.6045

>  <SCORE.INTER.norm>
-0.949115

>  <SCORE.INTRA>
-0.54494

>  <SCORE.INTRA.DIHEDRAL>
1.20781

>  <SCORE.INTRA.DIHEDRAL.0>
2.60093

>  <SCORE.INTRA.POLAR>
0

>  <SCORE.INTRA.POLAR.0>
0

>  <SCORE.INTRA.REPUL>
0

>  <SCORE.INTRA.REPUL.0>
0

>  <SCORE.INTRA.SOLV>
-0.673762

>  <SCORE.INTRA.SOLV.lig_0>
-33.7882

>  <SCORE.INTRA.VDW>
-0.811962

>  <SCORE.INTRA.VDW.0>
-0.593976

>  <SCORE.INTRA.norm>
-0.054494

>  <SCORE.RESTR>
0

>  <SCORE.RESTR.CAVITY>
0

>  <SCORE.RESTR.norm>
0

>  <SCORE.SYSTEM>
0

>  <SCORE.SYSTEM.CONST>
0

>  <SCORE.SYSTEM.DIHEDRAL>
0

>  <SCORE.SYSTEM.SOLV>
0

>  <SCORE.SYSTEM.norm>
0

>  <SCORE.heavy>
10

>  <SCORE.norm>
-1.00361

>  <RMSD>
5.217

$$$$
ligand
 OpenBabel11021811473D
libRbt.so/2013.1/901 2013/11/27
 10  9  0  0  0  0  0  0  0  0999 V2000
   27.3757   16.3081   20.0230 N   0  0  0  0  0  0  0  0  0  0  0  0
   28.4849   15.3107   19.9884 C   0  0  2  0  0  0  0  0  0  0  0  0
   28.5491   14.5927   18.6716 C   0  0  0  0  0  0  0  0  0  0  0  0
   29.6109   14.4758   18.0671 O   0  0  0  0  0  0  0  0  0  0  0  0
   28.3523   14.3448   21.1623 C   0  0  0  0  0  0  0  0  0  0  0  0
   28.5801   15.2619   22.6545 S   0  0  0  0  0  0  0  0  0  0  0  0
   30.3332   15.4472   22.6664 C   0  0  0  0  0  0  0  0  0  0  0  0
   30.6870   16.8174   22.0968 C   0  0  0  0  0  0  0  0  0  0  0  0
   32.1170   17.0330   22.1881 N   0  0  0  0  0  0  0  0  0  0  0  0
   27.5671   14.0727   18.1463 O   0  0  0  0  0  0  0  0  0  0  0  0
  2  1  1  6  0  0  0
  2  3  1  0  0  0  0
  2  5  1  0  0  0  0
  3  4  1  0  0  0  0
  3 10  1  0  0  0  0
  5  6  1  0  0  0  0
  6  7  1  0  0  0  0
  7  8  1  0  0  0  0
  8  9  1  0  0  0  0
M  END
>  <CHROM.1>
131.44487558,-65.09098044,-77.24000395,97.41729590,175.78369592,29.09707371
15.33733916,20.76954685,2.09663659,-0.37521497,-1.75970068

>  <Name>
ligand

>  <RI>
0

>  <Rbt.Current_Directory>
/home/itssahil/PROJECTS/Mol_Feturizer/New_Systems/rnas/3DIG

>  <Rbt.Executable>
rbdock ($Id: //depot/dev/client3/rdock/2013.1/src/exe/rbdock.cxx#4 $)

>  <Rbt.Library>
libRbt.so (2013.1, Build901 2013/11/27)

>  <Rbt.Parameter_File>
/export/apps/rDock/src/rDock_2013.1_src/data/scripts/dock_solv.prm

>  <Rbt.Receptor>
prm/pocket_docking_4.prm

>  <SCORE>
-11.0183

>  <SCORE.INTER>
-11.1132

>  <SCORE.INTER.CONST>
1

>  <SCORE.INTER.POLAR>
0

>  <SCORE.INTER.ROT>
5

>  <SCORE.INTER.SOLV>
14.668

>  <SCORE.INTER.VDW>
-19.2315

>  <SCORE.INTER.norm>
-1.11132

>  <SCORE.INTRA>
0.0949373

>  <SCORE.INTRA.DIHEDRAL>
1.13793

>  <SCORE.INTRA.DIHEDRAL.0>
2.60093

>  <SCORE.INTRA.POLAR>
0

>  <SCORE.INTRA.POLAR.0>
0

>  <SCORE.INTRA.REPUL>
0

>  <SCORE.INTRA.REPUL.0>
0

>  <SCORE.INTRA.SOLV>
0.207754

>  <SCORE.INTRA.SOLV.lig_0>
-33.7882

>  <SCORE.INTRA.VDW>
-0.577906

>  <SCORE.INTRA.VDW.0>
-0.593976

>  <SCORE.INTRA.norm>
0.00949373

>  <SCORE.RESTR>
0

>  <SCORE.RESTR.CAVITY>
0

>  <SCORE.RESTR.norm>
0

>  <SCORE.SYSTEM>
0

>  <SCORE.SYSTEM.CONST>
0

>  <SCORE.SYSTEM.DIHEDRAL>
0

>  <SCORE.SYSTEM.SOLV>
0

>  <SCORE.SYSTEM.norm>
0

>  <SCORE.heavy>
10

>  <SCORE.norm>
-1.10183

>  <RMSD>
5.234

$$$$
ligand
 OpenBabel11021811473D
libRbt.so/2013.1/901 2013/11/27
 10  9  0  0  0  0  0  0  0  0999 V2000
   26.3667   14.8683   21.4630 N   0  0  0  0  0  0  0  0  0  0  0  0
   27.7361   15.4446   21.3249 C   0  0  2  0  0  0  0  0  0  0  0  0
   28.0306   15.8509   19.9102 C   0  0  0  0  0  0  0  0  0  0  0  0
   27.7428   15.1170   18.9693 O   0  0  0  0  0  0  0  0  0  0  0  0
   28.7706   14.4622   21.8666 C   0  0  0  0  0  0  0  0  0  0  0  0
   30.3737   15.1561   21.6064 S   0  0  0  0  0  0  0  0  0  0  0  0
   30.4188   16.3753   22.8789 C   0  0  0  0  0  0  0  0  0  0  0  0
   31.2827   17.5425   22.4115 C   0  0  0  0  0  0  0  0  0  0  0  0
   32.6178   17.0722   22.1013 N   0  0  0  0  0  0  0  0  0  0  0  0
   28.5450   16.9284   19.6183 O   0  0  0  0  0  0  0  0  0  0  0  0
  2  1  1  6  0  0  0
  2  3  1  0  0  0  0
  2  5  1  0  0  0  0
  3  4  1  0  0  0  0
  3 10  1  0  0  0  0
  5  6  1  0  0  0  0
  6  7  1  0  0  0  0
  7  8  1  0  0  0  0
  8  9  1  0  0  0  0
M  END
>  <CHROM.1>
-44.62748059,177.21904830,75.72831242,-149.26223639,-58.53853974,29.32062843
15.80617707,21.22743759,2.93530701,-0.50367013,-1.02018744

>  <Name>
ligand

>  <RI>
0

>  <Rbt.Current_Directory>
/home/itssahil/PROJECTS/Mol_Feturizer/New_Systems/rnas/3DIG

>  <Rbt.Executable>
rbdock ($Id: //depot/dev/client3/rdock/2013.1/src/exe/rbdock.cxx#4 $)

>  <Rbt.Library>
libRbt.so (2013.1, Build901 2013/11/27)

>  <Rbt.Parameter_File>
/export/apps/rDock/src/rDock_2013.1_src/data/scripts/dock_solv.prm

>  <Rbt.Receptor>
prm/blind_docking_80.prm

>  <SCORE>
-9.42592

>  <SCORE.INTER>
-9.11871

>  <SCORE.INTER.CONST>
1

>  <SCORE.INTER.POLAR>
0

>  <SCORE.INTER.ROT>
5

>  <SCORE.INTER.SOLV>
17.8495

>  <SCORE.INTER.VDW>
-18.9623

>  <SCORE.INTER.norm>
-0.911871

>  <SCORE.INTRA>
-0.307201

>  <SCORE.INTRA.DIHEDRAL>
0.593432

>  <SCORE.INTRA.DIHEDRAL.0>
2.60093

>  <SCORE.INTRA.POLAR>
0

>  <SCORE.INTRA.POLAR.0>
0

>  <SCORE.INTRA.REPUL>
0

>  <SCORE.INTRA.REPUL.0>
0

>  <SCORE.INTRA.SOLV>
-0.49488

>  <SCORE.INTRA.SOLV.lig_0>
-33.7882

>  <SCORE.INTRA.VDW>
-0.356477

>  <SCORE.INTRA.VDW.0>
-0.593976

>  <SCORE.INTRA.norm>
-0.0307201

>  <SCORE.RESTR>
0

>  <SCORE.RESTR.CAVITY>
0

>  <SCORE.RESTR.norm>
0

>  <SCORE.SYSTEM>
0

>  <SCORE.SYSTEM.CONST>
0

>  <SCORE.SYSTEM.DIHEDRAL>
0

>  <SCORE.SYSTEM.SOLV>
0

>  <SCORE.SYSTEM.norm>
0

>  <SCORE.heavy>
10

>  <SCORE.norm>
-0.942592

>  <RMSD>
5.237

$$$$
ligand
 OpenBabel11021811473D
libRbt.so/2013.1/901 2013/11/27
 10  9  0  0  0  0  0  0  0  0999 V2000
   29.7684   15.7124   20.8516 N   0  0  0  0  0  0  0  0  0  0  0  0
   28.5241   15.2864   20.1468 C   0  0  2  0  0  0  0  0  0  0  0  0
   27.4322   14.9250   21.1114 C   0  0  0  0  0  0  0  0  0  0  0  0
   27.6949   14.5050   22.2344 O   0  0  0  0  0  0  0  0  0  0  0  0
   28.8375   14.1464   19.1820 C   0  0  0  0  0  0  0  0  0  0  0  0
   27.3737   13.7915   18.2597 S   0  0  0  0  0  0  0  0  0  0  0  0
   27.6645   12.1126   17.8076 C   0  0  0  0  0  0  0  0  0  0  0  0
   26.3219   11.4060   17.6494 C   0  0  0  0  0  0  0  0  0  0  0  0
   26.5299    9.9771   17.5281 N   0  0  0  0  0  0  0  0  0  0  0  0
   26.2386   15.0482   20.8453 O   0  0  0  0  0  0  0  0  0  0  0  0
  2  1  1  1  0  0  0
  2  3  1  0  0  0  0
  2  5  1  0  0  0  0
  3  4  1  0  0  0  0
  3 10  1  0  0  0  0
  5  6  1  0  0  0  0
  6  7  1  0  0  0  0
  7  8  1  0  0  0  0
  8  9  1  0  0  0  0
M  END
>  <CHROM.1>
-27.77865850,-174.36990376,-155.41500689,151.36537055,-169.27735571,27.58880002
13.70382124,19.43995222,-1.25806445,-0.58191798,-2.23278030

>  <Name>
ligand

>  <RI>
0

>  <Rbt.Current_Directory>
/home/itssahil/PROJECTS/Mol_Feturizer/New_Systems/rnas/3DIG

>  <Rbt.Executable>
rbdock ($Id: //depot/dev/client3/rdock/2013.1/src/exe/rbdock.cxx#4 $)

>  <Rbt.Library>
libRbt.so (2013.1, Build901 2013/11/27)

>  <Rbt.Parameter_File>
/export/apps/rDock/src/rDock_2013.1_src/data/scripts/dock_solv.prm

>  <Rbt.Receptor>
prm/pocket_docking_5.prm

>  <SCORE>
-9.54549

>  <SCORE.INTER>
-9.04238

>  <SCORE.INTER.CONST>
1

>  <SCORE.INTER.POLAR>
0

>  <SCORE.INTER.ROT>
5

>  <SCORE.INTER.SOLV>
13.0648

>  <SCORE.INTER.VDW>
-17.3165

>  <SCORE.INTER.norm>
-0.904238

>  <SCORE.INTRA>
-0.50311

>  <SCORE.INTRA.DIHEDRAL>
1.46948

>  <SCORE.INTRA.DIHEDRAL.0>
2.60093

>  <SCORE.INTRA.POLAR>
0

>  <SCORE.INTRA.POLAR.0>
0

>  <SCORE.INTRA.REPUL>
0

>  <SCORE.INTRA.REPUL.0>
0

>  <SCORE.INTRA.SOLV>
-1.54057

>  <SCORE.INTRA.SOLV.lig_0>
-33.7882

>  <SCORE.INTRA.VDW>
-0.467569

>  <SCORE.INTRA.VDW.0>
-0.593976

>  <SCORE.INTRA.norm>
-0.050311

>  <SCORE.RESTR>
0

>  <SCORE.RESTR.CAVITY>
0

>  <SCORE.RESTR.norm>
0

>  <SCORE.SYSTEM>
0

>  <SCORE.SYSTEM.CONST>
0

>  <SCORE.SYSTEM.DIHEDRAL>
0

>  <SCORE.SYSTEM.SOLV>
0

>  <SCORE.SYSTEM.norm>
0

>  <SCORE.heavy>
10

>  <SCORE.norm>
-0.954549

>  <RMSD>
5.238

$$$$
ligand
 OpenBabel11021811473D
libRbt.so/2013.1/901 2013/11/27
 10  9  0  0  0  0  0  0  0  0999 V2000
   27.3938   16.3151   20.0252 N   0  0  0  0  0  0  0  0  0  0  0  0
   28.4907   15.3043   19.9852 C   0  0  2  0  0  0  0  0  0  0  0  0
   28.5391   14.5852   18.6684 C   0  0  0  0  0  0  0  0  0  0  0  0
   29.5978   14.4465   18.0630 O   0  0  0  0  0  0  0  0  0  0  0  0
   28.3527   14.3406   21.1602 C   0  0  0  0  0  0  0  0  0  0  0  0
   28.5908   15.2571   22.6510 S   0  0  0  0  0  0  0  0  0  0  0  0
   30.3460   15.4208   22.6640 C   0  0  0  0  0  0  0  0  0  0  0  0
   30.7161   16.7944   22.1132 C   0  0  0  0  0  0  0  0  0  0  0  0
   32.1495   16.9886   22.2001 N   0  0  0  0  0  0  0  0  0  0  0  0
   27.5462   14.0852   18.1439 O   0  0  0  0  0  0  0  0  0  0  0  0
  2  1  1  6  0  0  0
  2  3  1  0  0  0  0
  2  5  1  0  0  0  0
  3  4  1  0  0  0  0
  3 10  1  0  0  0  0
  5  6  1  0  0  0  0
  6  7  1  0  0  0  0
  7  8  1  0  0  0  0
  8  9  1  0  0  0  0
M  END
>  <CHROM.1>
131.99033299,-64.78514668,-77.53738520,98.31262463,176.06377092,29.10369478
15.32560614,20.76998226,2.10146461,-0.36219023,-1.75965711

>  <Name>
ligand

>  <RI>
0

>  <Rbt.Current_Directory>
/home/itssahil/PROJECTS/Mol_Feturizer/New_Systems/rnas/3DIG

>  <Rbt.Executable>
rbdock ($Id: //depot/dev/client3/rdock/2013.1/src/exe/rbdock.cxx#4 $)

>  <Rbt.Library>
libRbt.so (2013.1, Build901 2013/11/27)

>  <Rbt.Parameter_File>
/export/apps/rDock/src/rDock_2013.1_src/data/scripts/dock_solv.prm

>  <Rbt.Receptor>
prm/pocket_docking_8.prm

>  <SCORE>
-11.0045

>  <SCORE.INTER>
-11.1047

>  <SCORE.INTER.CONST>
1

>  <SCORE.INTER.POLAR>
0

>  <SCORE.INTER.ROT>
5

>  <SCORE.INTER.SOLV>
14.636

>  <SCORE.INTER.VDW>
-19.2152

>  <SCORE.INTER.norm>
-1.11047

>  <SCORE.INTRA>
0.100257

>  <SCORE.INTRA.DIHEDRAL>
1.18446

>  <SCORE.INTRA.DIHEDRAL.0>
2.60093

>  <SCORE.INTRA.POLAR>
0

>  <SCORE.INTRA.POLAR.0>
0

>  <SCORE.INTRA.REPUL>
0

>  <SCORE.INTRA.REPUL.0>
0

>  <SCORE.INTRA.SOLV>
0.188802

>  <SCORE.INTRA.SOLV.lig_0>
-33.7882

>  <SCORE.INTRA.VDW>
-0.586372

>  <SCORE.INTRA.VDW.0>
-0.593976

>  <SCORE.INTRA.norm>
0.0100257

>  <SCORE.RESTR>
0

>  <SCORE.RESTR.CAVITY>
0

>  <SCORE.RESTR.norm>
0

>  <SCORE.SYSTEM>
0

>  <SCORE.SYSTEM.CONST>
0

>  <SCORE.SYSTEM.DIHEDRAL>
0

>  <SCORE.SYSTEM.SOLV>
0

>  <SCORE.SYSTEM.norm>
0

>  <SCORE.heavy>
10

>  <SCORE.norm>
-1.10045

>  <RMSD>
5.241

$$$$
ligand
 OpenBabel11021811473D
libRbt.so/2013.1/901 2013/11/27
 10  9  0  0  0  0  0  0  0  0999 V2000
   27.2536   16.2236   20.1255 N   0  0  0  0  0  0  0  0  0  0  0  0
   28.4542   15.3435   20.0237 C   0  0  2  0  0  0  0  0  0  0  0  0
   28.5196   14.6397   18.6993 C   0  0  0  0  0  0  0  0  0  0  0  0
   27.5220   14.1160   18.2124 O   0  0  0  0  0  0  0  0  0  0  0  0
   28.4828   14.3656   21.1948 C   0  0  0  0  0  0  0  0  0  0  0  0
   28.6591   15.2992   22.6836 S   0  0  0  0  0  0  0  0  0  0  0  0
   30.4092   15.5025   22.7432 C   0  0  0  0  0  0  0  0  0  0  0  0
   30.7786   16.7980   22.0274 C   0  0  0  0  0  0  0  0  0  0  0  0
   32.2035   17.0347   22.1442 N   0  0  0  0  0  0  0  0  0  0  0  0
   29.5487   14.5692   18.0309 O   0  0  0  0  0  0  0  0  0  0  0  0
  2  1  1  6  0  0  0
  2  3  1  0  0  0  0
  2  5  1  0  0  0  0
  3  4  1  0  0  0  0
  3 10  1  0  0  0  0
  5  6  1  0  0  0  0
  6  7  1  0  0  0  0
  7  8  1  0  0  0  0
  8  9  1  0  0  0  0
M  END
>  <CHROM.1>
-44.62053343,-63.80098400,-84.59888499,91.02858951,176.02814898,29.12058097
15.36252471,20.79208846,2.12856431,-0.36029980,-1.74549260

>  <Name>
ligand

>  <RI>
0

>  <Rbt.Current_Directory>
/home/itssahil/PROJECTS/Mol_Feturizer/New_Systems/rnas/3DIG

>  <Rbt.Executable>
rbdock ($Id: //depot/dev/client3/rdock/2013.1/src/exe/rbdock.cxx#4 $)

>  <Rbt.Library>
libRbt.so (2013.1, Build901 2013/11/27)

>  <Rbt.Parameter_File>
/export/apps/rDock/src/rDock_2013.1_src/data/scripts/dock_solv.prm

>  <Rbt.Receptor>
prm/pocket_docking_8.prm

>  <SCORE>
-10.9051

>  <SCORE.INTER>
-10.9645

>  <SCORE.INTER.CONST>
1

>  <SCORE.INTER.POLAR>
0

>  <SCORE.INTER.ROT>
5

>  <SCORE.INTER.SOLV>
14.7806

>  <SCORE.INTER.VDW>
-19.1699

>  <SCORE.INTER.norm>
-1.09645

>  <SCORE.INTRA>
0.0594557

>  <SCORE.INTRA.DIHEDRAL>
1.16577

>  <SCORE.INTRA.DIHEDRAL.0>
2.60093

>  <SCORE.INTRA.POLAR>
0

>  <SCORE.INTRA.POLAR.0>
0

>  <SCORE.INTRA.REPUL>
0

>  <SCORE.INTRA.REPUL.0>
0

>  <SCORE.INTRA.SOLV>
0.0906104

>  <SCORE.INTRA.SOLV.lig_0>
-33.7882

>  <SCORE.INTRA.VDW>
-0.568734

>  <SCORE.INTRA.VDW.0>
-0.593976

>  <SCORE.INTRA.norm>
0.00594557

>  <SCORE.RESTR>
0

>  <SCORE.RESTR.CAVITY>
0

>  <SCORE.RESTR.norm>
0

>  <SCORE.SYSTEM>
0

>  <SCORE.SYSTEM.CONST>
0

>  <SCORE.SYSTEM.DIHEDRAL>
0

>  <SCORE.SYSTEM.SOLV>
0

>  <SCORE.SYSTEM.norm>
0

>  <SCORE.heavy>
10

>  <SCORE.norm>
-1.09051

>  <RMSD>
5.250

$$$$
ligand
 OpenBabel11021811473D
libRbt.so/2013.1/901 2013/11/27
 10  9  0  0  0  0  0  0  0  0999 V2000
   25.9360   14.8787   20.9899 N   0  0  0  0  0  0  0  0  0  0  0  0
   27.2657   15.5383   21.1420 C   0  0  2  0  0  0  0  0  0  0  0  0
   27.9355   15.7564   19.8164 C   0  0  0  0  0  0  0  0  0  0  0  0
   28.5675   16.7839   19.5896 O   0  0  0  0  0  0  0  0  0  0  0  0
   28.1389   14.7332   22.1001 C   0  0  0  0  0  0  0  0  0  0  0  0
   29.5549   15.7092   22.5022 S   0  0  0  0  0  0  0  0  0  0  0  0
   30.6959   15.1606   21.2755 C   0  0  0  0  0  0  0  0  0  0  0  0
   31.7564   16.2383   21.0729 C   0  0  0  0  0  0  0  0  0  0  0  0
   32.4768   16.4575   22.3109 N   0  0  0  0  0  0  0  0  0  0  0  0
   27.9086   14.9264   18.9103 O   0  0  0  0  0  0  0  0  0  0  0  0
  2  1  1  6  0  0  0
  2  3  1  0  0  0  0
  2  5  1  0  0  0  0
  3  4  1  0  0  0  0
  3 10  1  0  0  0  0
  5  6  1  0  0  0  0
  6  7  1  0  0  0  0
  7  8  1  0  0  0  0
  8  9  1  0  0  0  0
M  END
>  <CHROM.1>
141.02303095,-168.64881090,-92.40448155,157.16205989,61.18855793,29.08918815
15.63317374,21.11513541,2.83073625,-0.24956384,-1.37554262

>  <Name>
ligand

>  <RI>
0

>  <Rbt.Current_Directory>
/home/itssahil/PROJECTS/Mol_Feturizer/New_Systems/rnas/3DIG

>  <Rbt.Executable>
rbdock ($Id: //depot/dev/client3/rdock/2013.1/src/exe/rbdock.cxx#4 $)

>  <Rbt.Library>
libRbt.so (2013.1, Build901 2013/11/27)

>  <Rbt.Parameter_File>
/export/apps/rDock/src/rDock_2013.1_src/data/scripts/dock_solv.prm

>  <Rbt.Receptor>
prm/blind_docking_100.prm

>  <SCORE>
-9.91727

>  <SCORE.INTER>
-9.43845

>  <SCORE.INTER.CONST>
1

>  <SCORE.INTER.POLAR>
0

>  <SCORE.INTER.ROT>
5

>  <SCORE.INTER.SOLV>
18.6017

>  <SCORE.INTER.VDW>
-19.4262

>  <SCORE.INTER.norm>
-0.943845

>  <SCORE.INTRA>
-0.478823

>  <SCORE.INTRA.DIHEDRAL>
1.43682

>  <SCORE.INTRA.DIHEDRAL.0>
2.60093

>  <SCORE.INTRA.POLAR>
0

>  <SCORE.INTRA.POLAR.0>
0

>  <SCORE.INTRA.REPUL>
0

>  <SCORE.INTRA.REPUL.0>
0

>  <SCORE.INTRA.SOLV>
-0.695956

>  <SCORE.INTRA.SOLV.lig_0>
-33.7882

>  <SCORE.INTRA.VDW>
-0.849253

>  <SCORE.INTRA.VDW.0>
-0.593976

>  <SCORE.INTRA.norm>
-0.0478823

>  <SCORE.RESTR>
0

>  <SCORE.RESTR.CAVITY>
0

>  <SCORE.RESTR.norm>
0

>  <SCORE.SYSTEM>
0

>  <SCORE.SYSTEM.CONST>
0

>  <SCORE.SYSTEM.DIHEDRAL>
0

>  <SCORE.SYSTEM.SOLV>
0

>  <SCORE.SYSTEM.norm>
0

>  <SCORE.heavy>
10

>  <SCORE.norm>
-0.991727

>  <RMSD>
5.268

$$$$
ligand
 OpenBabel11021811473D
libRbt.so/2013.1/901 2013/11/27
 10  9  0  0  0  0  0  0  0  0999 V2000
   28.1043   16.8112   19.9192 N   0  0  0  0  0  0  0  0  0  0  0  0
   28.2799   15.3394   19.7478 C   0  0  2  0  0  0  0  0  0  0  0  0
   28.2311   14.9361   18.3026 C   0  0  0  0  0  0  0  0  0  0  0  0
   28.9449   15.4858   17.4690 O   0  0  0  0  0  0  0  0  0  0  0  0
   27.2481   14.5914   20.5871 C   0  0  0  0  0  0  0  0  0  0  0  0
   27.5117   15.0124   22.2820 S   0  0  0  0  0  0  0  0  0  0  0  0
   29.2302   14.6569   22.4495 C   0  0  0  0  0  0  0  0  0  0  0  0
   29.9924   15.9702   22.5957 C   0  0  0  0  0  0  0  0  0  0  0  0
   31.4152   15.7065   22.6729 N   0  0  0  0  0  0  0  0  0  0  0  0
   27.5055   14.0363   17.8848 O   0  0  0  0  0  0  0  0  0  0  0  0
  2  1  1  6  0  0  0
  2  3  1  0  0  0  0
  2  5  1  0  0  0  0
  3  4  1  0  0  0  0
  3 10  1  0  0  0  0
  5  6  1  0  0  0  0
  6  7  1  0  0  0  0
  7  8  1  0  0  0  0
  8  9  1  0  0  0  0
M  END
>  <CHROM.1>
52.31954549,-60.98834799,-52.64342184,109.54321840,-177.36671698,28.51465771
15.21818706,20.56827724,-1.89610941,0.34306577,1.58260262

>  <Name>
ligand

>  <RI>
0

>  <Rbt.Current_Directory>
/home/itssahil/PROJECTS/Mol_Feturizer/New_Systems/rnas/3DIG

>  <Rbt.Executable>
rbdock ($Id: //depot/dev/client3/rdock/2013.1/src/exe/rbdock.cxx#4 $)

>  <Rbt.Library>
libRbt.so (2013.1, Build901 2013/11/27)

>  <Rbt.Parameter_File>
/export/apps/rDock/src/rDock_2013.1_src/data/scripts/dock_solv.prm

>  <Rbt.Receptor>
prm/pocket_docking_3.prm

>  <SCORE>
-11.0346

>  <SCORE.INTER>
-13.1202

>  <SCORE.INTER.CONST>
1

>  <SCORE.INTER.POLAR>
0

>  <SCORE.INTER.ROT>
5

>  <SCORE.INTER.SOLV>
17.551

>  <SCORE.INTER.VDW>
-21.5305

>  <SCORE.INTER.norm>
-1.31202

>  <SCORE.INTRA>
2.08562

>  <SCORE.INTRA.DIHEDRAL>
1.22015

>  <SCORE.INTRA.DIHEDRAL.0>
2.60093

>  <SCORE.INTRA.POLAR>
0

>  <SCORE.INTRA.POLAR.0>
0

>  <SCORE.INTRA.REPUL>
0

>  <SCORE.INTRA.REPUL.0>
0

>  <SCORE.INTRA.SOLV>
1.27155

>  <SCORE.INTRA.SOLV.lig_0>
-33.7882

>  <SCORE.INTRA.VDW>
0.839771

>  <SCORE.INTRA.VDW.0>
-0.593976

>  <SCORE.INTRA.norm>
0.208562

>  <SCORE.RESTR>
0

>  <SCORE.RESTR.CAVITY>
0

>  <SCORE.RESTR.norm>
0

>  <SCORE.SYSTEM>
0

>  <SCORE.SYSTEM.CONST>
0

>  <SCORE.SYSTEM.DIHEDRAL>
0

>  <SCORE.SYSTEM.SOLV>
0

>  <SCORE.SYSTEM.norm>
0

>  <SCORE.heavy>
10

>  <SCORE.norm>
-1.10346

>  <RMSD>
5.269

$$$$
ligand
 OpenBabel11021811473D
libRbt.so/2013.1/901 2013/11/27
 10  9  0  0  0  0  0  0  0  0999 V2000
   27.1168   16.0033   20.2166 N   0  0  0  0  0  0  0  0  0  0  0  0
   28.4110   15.2792   20.0516 C   0  0  2  0  0  0  0  0  0  0  0  0
   28.4997   14.5911   18.7203 C   0  0  0  0  0  0  0  0  0  0  0  0
   29.5568   14.5542   18.0977 O   0  0  0  0  0  0  0  0  0  0  0  0
   28.6164   14.3106   21.2126 C   0  0  0  0  0  0  0  0  0  0  0  0
   28.7568   15.2570   22.6972 S   0  0  0  0  0  0  0  0  0  0  0  0
   30.4984   15.5234   22.7581 C   0  0  0  0  0  0  0  0  0  0  0  0
   30.8247   16.8156   22.0160 C   0  0  0  0  0  0  0  0  0  0  0  0
   32.2440   17.0919   22.1113 N   0  0  0  0  0  0  0  0  0  0  0  0
   27.5449   14.0182   18.2000 O   0  0  0  0  0  0  0  0  0  0  0  0
  2  1  1  1  0  0  0
  2  3  1  0  0  0  0
  2  5  1  0  0  0  0
  3  4  1  0  0  0  0
  3 10  1  0  0  0  0
  5  6  1  0  0  0  0
  6  7  1  0  0  0  0
  7  8  1  0  0  0  0
  8  9  1  0  0  0  0
M  END
>  <CHROM.1>
141.89668536,-64.14905406,-90.30239529,90.07304261,177.08759373,29.15356546
15.31795998,20.81112009,2.15895617,-0.37500805,-1.74805404

>  <Name>
ligand

>  <RI>
0

>  <Rbt.Current_Directory>
/home/itssahil/PROJECTS/Mol_Feturizer/New_Systems/rnas/3DIG

>  <Rbt.Executable>
rbdock ($Id: //depot/dev/client3/rdock/2013.1/src/exe/rbdock.cxx#4 $)

>  <Rbt.Library>
libRbt.so (2013.1, Build901 2013/11/27)

>  <Rbt.Parameter_File>
/export/apps/rDock/src/rDock_2013.1_src/data/scripts/dock_solv.prm

>  <Rbt.Receptor>
prm/pocket_docking_3.prm

>  <SCORE>
-10.9064

>  <SCORE.INTER>
-10.9248

>  <SCORE.INTER.CONST>
1

>  <SCORE.INTER.POLAR>
0

>  <SCORE.INTER.ROT>
5

>  <SCORE.INTER.SOLV>
14.8

>  <SCORE.INTER.VDW>
-19.1499

>  <SCORE.INTER.norm>
-1.09248

>  <SCORE.INTRA>
0.0184058

>  <SCORE.INTRA.DIHEDRAL>
1.36921

>  <SCORE.INTRA.DIHEDRAL.0>
2.60093

>  <SCORE.INTRA.POLAR>
0

>  <SCORE.INTRA.POLAR.0>
0

>  <SCORE.INTRA.REPUL>
0

>  <SCORE.INTRA.REPUL.0>
0

>  <SCORE.INTRA.SOLV>
-0.0965098

>  <SCORE.INTRA.SOLV.lig_0>
-33.7882

>  <SCORE.INTRA.VDW>
-0.617945

>  <SCORE.INTRA.VDW.0>
-0.593976

>  <SCORE.INTRA.norm>
0.00184058

>  <SCORE.RESTR>
0

>  <SCORE.RESTR.CAVITY>
0

>  <SCORE.RESTR.norm>
0

>  <SCORE.SYSTEM>
0

>  <SCORE.SYSTEM.CONST>
0

>  <SCORE.SYSTEM.DIHEDRAL>
0

>  <SCORE.SYSTEM.SOLV>
0

>  <SCORE.SYSTEM.norm>
0

>  <SCORE.heavy>
10

>  <SCORE.norm>
-1.09064

>  <RMSD>
5.277

$$$$
ligand
 OpenBabel11021811473D
libRbt.so/2013.1/901 2013/11/27
 10  9  0  0  0  0  0  0  0  0999 V2000
   25.9470   14.7985   20.9998 N   0  0  0  0  0  0  0  0  0  0  0  0
   27.2531   15.5026   21.1568 C   0  0  2  0  0  0  0  0  0  0  0  0
   27.9206   15.7422   19.8337 C   0  0  0  0  0  0  0  0  0  0  0  0
   27.9226   14.8784   18.9617 O   0  0  0  0  0  0  0  0  0  0  0  0
   28.1489   14.7280   22.1191 C   0  0  0  0  0  0  0  0  0  0  0  0
   29.5550   15.7315   22.4865 S   0  0  0  0  0  0  0  0  0  0  0  0
   30.6931   15.1699   21.2629 C   0  0  0  0  0  0  0  0  0  0  0  0
   31.7795   16.2250   21.0801 C   0  0  0  0  0  0  0  0  0  0  0  0
   32.4531   16.4601   22.3414 N   0  0  0  0  0  0  0  0  0  0  0  0
   28.4715   16.8026   19.5462 O   0  0  0  0  0  0  0  0  0  0  0  0
  2  1  1  6  0  0  0
  2  3  1  0  0  0  0
  2  5  1  0  0  0  0
  3  4  1  0  0  0  0
  3 10  1  0  0  0  0
  5  6  1  0  0  0  0
  6  7  1  0  0  0  0
  7  8  1  0  0  0  0
  8  9  1  0  0  0  0
M  END
>  <CHROM.1>
-41.43903840,-170.39429524,-92.73064869,160.14090211,58.51560208,29.08037647
15.62310163,21.12006853,2.83435617,-0.25825633,-1.36913194

>  <Name>
ligand

>  <RI>
0

>  <Rbt.Current_Directory>
/home/itssahil/PROJECTS/Mol_Feturizer/New_Systems/rnas/3DIG

>  <Rbt.Executable>
rbdock ($Id: //depot/dev/client3/rdock/2013.1/src/exe/rbdock.cxx#4 $)

>  <Rbt.Library>
libRbt.so (2013.1, Build901 2013/11/27)

>  <Rbt.Parameter_File>
/export/apps/rDock/src/rDock_2013.1_src/data/scripts/dock_solv.prm

>  <Rbt.Receptor>
prm/pocket_docking_4.prm

>  <SCORE>
-9.91246

>  <SCORE.INTER>
-9.4297

>  <SCORE.INTER.CONST>
1

>  <SCORE.INTER.POLAR>
0

>  <SCORE.INTER.ROT>
5

>  <SCORE.INTER.SOLV>
18.6546

>  <SCORE.INTER.VDW>
-19.438

>  <SCORE.INTER.norm>
-0.94297

>  <SCORE.INTRA>
-0.482755

>  <SCORE.INTRA.DIHEDRAL>
1.24305

>  <SCORE.INTRA.DIHEDRAL.0>
2.60093

>  <SCORE.INTRA.POLAR>
0

>  <SCORE.INTRA.POLAR.0>
0

>  <SCORE.INTRA.REPUL>
0

>  <SCORE.INTRA.REPUL.0>
0

>  <SCORE.INTRA.SOLV>
-0.635538

>  <SCORE.INTRA.SOLV.lig_0>
-33.7882

>  <SCORE.INTRA.VDW>
-0.786509

>  <SCORE.INTRA.VDW.0>
-0.593976

>  <SCORE.INTRA.norm>
-0.0482755

>  <SCORE.RESTR>
0

>  <SCORE.RESTR.CAVITY>
0

>  <SCORE.RESTR.norm>
0

>  <SCORE.SYSTEM>
0

>  <SCORE.SYSTEM.CONST>
0

>  <SCORE.SYSTEM.DIHEDRAL>
0

>  <SCORE.SYSTEM.SOLV>
0

>  <SCORE.SYSTEM.norm>
0

>  <SCORE.heavy>
10

>  <SCORE.norm>
-0.991246

>  <RMSD>
5.279

$$$$
ligand
 OpenBabel11021811473D
libRbt.so/2013.1/901 2013/11/27
 10  9  0  0  0  0  0  0  0  0999 V2000
   27.1301   16.0023   20.2171 N   0  0  0  0  0  0  0  0  0  0  0  0
   28.4232   15.2736   20.0645 C   0  0  2  0  0  0  0  0  0  0  0  0
   28.5173   14.5753   18.7390 C   0  0  0  0  0  0  0  0  0  0  0  0
   27.5663   13.9428   18.2894 O   0  0  0  0  0  0  0  0  0  0  0  0
   28.6199   14.3133   21.2339 C   0  0  0  0  0  0  0  0  0  0  0  0
   28.7774   15.2716   22.7090 S   0  0  0  0  0  0  0  0  0  0  0  0
   30.5212   15.5262   22.7554 C   0  0  0  0  0  0  0  0  0  0  0  0
   30.8386   16.8752   22.1179 C   0  0  0  0  0  0  0  0  0  0  0  0
   32.2644   17.1257   22.1823 N   0  0  0  0  0  0  0  0  0  0  0  0
   29.5228   14.6154   18.0332 O   0  0  0  0  0  0  0  0  0  0  0  0
  2  1  1  1  0  0  0
  2  3  1  0  0  0  0
  2  5  1  0  0  0  0
  3  4  1  0  0  0  0
  3 10  1  0  0  0  0
  5  6  1  0  0  0  0
  6  7  1  0  0  0  0
  7  8  1  0  0  0  0
  8  9  1  0  0  0  0
M  END
>  <CHROM.1>
-43.89021688,-64.93076323,-89.89412951,95.46145412,178.21997552,29.16528242
15.32645447,20.83537574,2.16254894,-0.39260739,-1.74635804

>  <Name>
ligand

>  <RI>
0

>  <Rbt.Current_Directory>
/home/itssahil/PROJECTS/Mol_Feturizer/New_Systems/rnas/3DIG

>  <Rbt.Executable>
rbdock ($Id: //depot/dev/client3/rdock/2013.1/src/exe/rbdock.cxx#4 $)

>  <Rbt.Library>
libRbt.so (2013.1, Build901 2013/11/27)

>  <Rbt.Parameter_File>
/export/apps/rDock/src/rDock_2013.1_src/data/scripts/dock_solv.prm

>  <Rbt.Receptor>
prm/pocket_docking_4.prm

>  <SCORE>
-10.8676

>  <SCORE.INTER>
-11.0206

>  <SCORE.INTER.CONST>
1

>  <SCORE.INTER.POLAR>
0

>  <SCORE.INTER.ROT>
5

>  <SCORE.INTER.SOLV>
14.7413

>  <SCORE.INTER.VDW>
-19.1942

>  <SCORE.INTER.norm>
-1.10206

>  <SCORE.INTRA>
0.153012

>  <SCORE.INTRA.DIHEDRAL>
1.75444

>  <SCORE.INTRA.DIHEDRAL.0>
2.60093

>  <SCORE.INTRA.POLAR>
0

>  <SCORE.INTRA.POLAR.0>
0

>  <SCORE.INTRA.REPUL>
0

>  <SCORE.INTRA.REPUL.0>
0

>  <SCORE.INTRA.SOLV>
-0.170572

>  <SCORE.INTRA.SOLV.lig_0>
-33.7882

>  <SCORE.INTRA.VDW>
-0.638922

>  <SCORE.INTRA.VDW.0>
-0.593976

>  <SCORE.INTRA.norm>
0.0153012

>  <SCORE.RESTR>
0

>  <SCORE.RESTR.CAVITY>
0

>  <SCORE.RESTR.norm>
0

>  <SCORE.SYSTEM>
0

>  <SCORE.SYSTEM.CONST>
0

>  <SCORE.SYSTEM.DIHEDRAL>
0

>  <SCORE.SYSTEM.SOLV>
0

>  <SCORE.SYSTEM.norm>
0

>  <SCORE.heavy>
10

>  <SCORE.norm>
-1.08676

>  <RMSD>
5.285

$$$$
ligand
 OpenBabel11021811473D
libRbt.so/2013.1/901 2013/11/27
 10  9  0  0  0  0  0  0  0  0999 V2000
   27.3606   16.3027   20.0082 N   0  0  0  0  0  0  0  0  0  0  0  0
   28.4648   15.2991   20.0047 C   0  0  2  0  0  0  0  0  0  0  0  0
   28.5236   14.5385   18.7118 C   0  0  0  0  0  0  0  0  0  0  0  0
   29.5700   14.4543   18.0757 O   0  0  0  0  0  0  0  0  0  0  0  0
   28.3289   14.3725   21.2095 C   0  0  0  0  0  0  0  0  0  0  0  0
   28.7629   15.2879   22.6562 S   0  0  0  0  0  0  0  0  0  0  0  0
   30.5071   15.4340   22.4464 C   0  0  0  0  0  0  0  0  0  0  0  0
   30.8817   16.9127   22.4564 C   0  0  0  0  0  0  0  0  0  0  0  0
   32.3107   17.0588   22.2655 N   0  0  0  0  0  0  0  0  0  0  0  0
   27.5536   13.9505   18.2384 O   0  0  0  0  0  0  0  0  0  0  0  0
  2  1  1  6  0  0  0
  2  3  1  0  0  0  0
  2  5  1  0  0  0  0
  3  4  1  0  0  0  0
  3 10  1  0  0  0  0
  5  6  1  0  0  0  0
  6  7  1  0  0  0  0
  7  8  1  0  0  0  0
  8  9  1  0  0  0  0
M  END
>  <CHROM.1>
127.71264381,-72.12313664,-71.84745892,123.07532663,-179.16572258,29.17098190
15.33455568,20.80633226,2.14852931,-0.35490675,-1.78080101

>  <Name>
ligand

>  <RI>
0

>  <Rbt.Current_Directory>
/home/itssahil/PROJECTS/Mol_Feturizer/New_Systems/rnas/3DIG

>  <Rbt.Executable>
rbdock ($Id: //depot/dev/client3/rdock/2013.1/src/exe/rbdock.cxx#4 $)

>  <Rbt.Library>
libRbt.so (2013.1, Build901 2013/11/27)

>  <Rbt.Parameter_File>
/export/apps/rDock/src/rDock_2013.1_src/data/scripts/dock_solv.prm

>  <Rbt.Receptor>
prm/pocket_docking_7.prm

>  <SCORE>
-10.4641

>  <SCORE.INTER>
-10.8135

>  <SCORE.INTER.CONST>
1

>  <SCORE.INTER.POLAR>
0

>  <SCORE.INTER.ROT>
5

>  <SCORE.INTER.SOLV>
14.8851

>  <SCORE.INTER.VDW>
-19.104

>  <SCORE.INTER.norm>
-1.08135

>  <SCORE.INTRA>
0.349374

>  <SCORE.INTRA.DIHEDRAL>
1.97978

>  <SCORE.INTRA.DIHEDRAL.0>
2.60093

>  <SCORE.INTRA.POLAR>
0

>  <SCORE.INTRA.POLAR.0>
0

>  <SCORE.INTRA.REPUL>
0

>  <SCORE.INTRA.REPUL.0>
0

>  <SCORE.INTRA.SOLV>
-0.186365

>  <SCORE.INTRA.SOLV.lig_0>
-33.7882

>  <SCORE.INTRA.VDW>
-0.547334

>  <SCORE.INTRA.VDW.0>
-0.593976

>  <SCORE.INTRA.norm>
0.0349374

>  <SCORE.RESTR>
0

>  <SCORE.RESTR.CAVITY>
0

>  <SCORE.RESTR.norm>
0

>  <SCORE.SYSTEM>
0

>  <SCORE.SYSTEM.CONST>
0

>  <SCORE.SYSTEM.DIHEDRAL>
0

>  <SCORE.SYSTEM.SOLV>
0

>  <SCORE.SYSTEM.norm>
0

>  <SCORE.heavy>
10

>  <SCORE.norm>
-1.04641

>  <RMSD>
5.292

$$$$
ligand
 OpenBabel11021811473D
libRbt.so/2013.1/901 2013/11/27
 10  9  0  0  0  0  0  0  0  0999 V2000
   28.2321   15.2092   19.3096 N   0  0  0  0  0  0  0  0  0  0  0  0
   28.3131   14.5699   20.6554 C   0  0  2  0  0  0  0  0  0  0  0  0
   27.1090   14.8832   21.4954 C   0  0  0  0  0  0  0  0  0  0  0  0
   25.9912   14.9579   20.9940 O   0  0  0  0  0  0  0  0  0  0  0  0
   29.6137   14.9722   21.3447 C   0  0  0  0  0  0  0  0  0  0  0  0
   29.6734   16.7359   21.4150 S   0  0  0  0  0  0  0  0  0  0  0  0
   31.0226   16.9789   22.5233 C   0  0  0  0  0  0  0  0  0  0  0  0
   32.3089   17.1036   21.7128 C   0  0  0  0  0  0  0  0  0  0  0  0
   32.6017   15.8440   21.0591 N   0  0  0  0  0  0  0  0  0  0  0  0
   27.1697   15.0566   22.7107 O   0  0  0  0  0  0  0  0  0  0  0  0
  2  1  1  6  0  0  0
  2  3  1  0  0  0  0
  2  5  1  0  0  0  0
  3  4  1  0  0  0  0
  3 10  1  0  0  0  0
  5  6  1  0  0  0  0
  6  7  1  0  0  0  0
  7  8  1  0  0  0  0
  8  9  1  0  0  0  0
M  END
>  <CHROM.1>
37.05609621,56.31543048,168.27226199,91.73716027,-66.28466967,29.22360488
15.75705290,21.34798010,-2.93016429,0.28319729,1.15676932

>  <Name>
ligand

>  <RI>
0

>  <Rbt.Current_Directory>
/home/itssahil/PROJECTS/Mol_Feturizer/New_Systems/rnas/3DIG

>  <Rbt.Executable>
rbdock ($Id: //depot/dev/client3/rdock/2013.1/src/exe/rbdock.cxx#4 $)

>  <Rbt.Library>
libRbt.so (2013.1, Build901 2013/11/27)

>  <Rbt.Parameter_File>
/export/apps/rDock/src/rDock_2013.1_src/data/scripts/dock_solv.prm

>  <Rbt.Receptor>
prm/pocket_docking_7.prm

>  <SCORE>
-10.1763

>  <SCORE.INTER>
-11.2295

>  <SCORE.INTER.CONST>
1

>  <SCORE.INTER.POLAR>
0

>  <SCORE.INTER.ROT>
5

>  <SCORE.INTER.SOLV>
12.6387

>  <SCORE.INTER.VDW>
-18.6326

>  <SCORE.INTER.norm>
-1.12295

>  <SCORE.INTRA>
1.05325

>  <SCORE.INTRA.DIHEDRAL>
0.574477

>  <SCORE.INTRA.DIHEDRAL.0>
2.60093

>  <SCORE.INTRA.POLAR>
0

>  <SCORE.INTRA.POLAR.0>
0

>  <SCORE.INTRA.REPUL>
0

>  <SCORE.INTRA.REPUL.0>
0

>  <SCORE.INTRA.SOLV>
1.42784

>  <SCORE.INTRA.SOLV.lig_0>
-33.7882

>  <SCORE.INTRA.VDW>
0.0520938

>  <SCORE.INTRA.VDW.0>
-0.593976

>  <SCORE.INTRA.norm>
0.105325

>  <SCORE.RESTR>
0

>  <SCORE.RESTR.CAVITY>
0

>  <SCORE.RESTR.norm>
0

>  <SCORE.SYSTEM>
0

>  <SCORE.SYSTEM.CONST>
0

>  <SCORE.SYSTEM.DIHEDRAL>
0

>  <SCORE.SYSTEM.SOLV>
0

>  <SCORE.SYSTEM.norm>
0

>  <SCORE.heavy>
10

>  <SCORE.norm>
-1.01763

>  <RMSD>
5.293

$$$$
ligand
 OpenBabel11021811473D
libRbt.so/2013.1/901 2013/11/27
 10  9  0  0  0  0  0  0  0  0999 V2000
   27.4629   16.3496   19.9871 N   0  0  0  0  0  0  0  0  0  0  0  0
   28.5112   15.2878   19.9738 C   0  0  2  0  0  0  0  0  0  0  0  0
   28.5265   14.5350   18.6752 C   0  0  0  0  0  0  0  0  0  0  0  0
   29.5703   14.3772   18.0489 O   0  0  0  0  0  0  0  0  0  0  0  0
   28.3275   14.3610   21.1720 C   0  0  0  0  0  0  0  0  0  0  0  0
   28.7811   15.2516   22.6281 S   0  0  0  0  0  0  0  0  0  0  0  0
   30.5255   15.3808   22.4088 C   0  0  0  0  0  0  0  0  0  0  0  0
   30.9410   16.8341   22.6144 C   0  0  0  0  0  0  0  0  0  0  0  0
   32.3644   16.9756   22.3825 N   0  0  0  0  0  0  0  0  0  0  0  0
   27.5202   14.0251   18.1872 O   0  0  0  0  0  0  0  0  0  0  0  0
  2  1  1  6  0  0  0
  2  3  1  0  0  0  0
  2  5  1  0  0  0  0
  3  4  1  0  0  0  0
  3 10  1  0  0  0  0
  5  6  1  0  0  0  0
  6  7  1  0  0  0  0
  7  8  1  0  0  0  0
  8  9  1  0  0  0  0
M  END
>  <CHROM.1>
129.11008837,-70.97272497,-69.97323303,130.25792807,-177.55746298,29.19578136
15.30999454,20.80328354,2.14221554,-0.32484955,-1.77920409

>  <Name>
ligand

>  <RI>
0

>  <Rbt.Current_Directory>
/home/itssahil/PROJECTS/Mol_Feturizer/New_Systems/rnas/3DIG

>  <Rbt.Executable>
rbdock ($Id: //depot/dev/client3/rdock/2013.1/src/exe/rbdock.cxx#4 $)

>  <Rbt.Library>
libRbt.so (2013.1, Build901 2013/11/27)

>  <Rbt.Parameter_File>
/export/apps/rDock/src/rDock_2013.1_src/data/scripts/dock_solv.prm

>  <Rbt.Receptor>
prm/pocket_docking_5.prm

>  <SCORE>
-10.4564

>  <SCORE.INTER>
-10.7182

>  <SCORE.INTER.CONST>
1

>  <SCORE.INTER.POLAR>
0

>  <SCORE.INTER.ROT>
5

>  <SCORE.INTER.SOLV>
15.1078

>  <SCORE.INTER.VDW>
-19.1147

>  <SCORE.INTER.norm>
-1.07182

>  <SCORE.INTRA>
0.261835

>  <SCORE.INTRA.DIHEDRAL>
1.6927

>  <SCORE.INTRA.DIHEDRAL.0>
2.60093

>  <SCORE.INTRA.POLAR>
0

>  <SCORE.INTRA.POLAR.0>
0

>  <SCORE.INTRA.REPUL>
0

>  <SCORE.INTRA.REPUL.0>
0

>  <SCORE.INTRA.SOLV>
-0.179176

>  <SCORE.INTRA.SOLV.lig_0>
-33.7882

>  <SCORE.INTRA.VDW>
-0.494926

>  <SCORE.INTRA.VDW.0>
-0.593976

>  <SCORE.INTRA.norm>
0.0261835

>  <SCORE.RESTR>
0

>  <SCORE.RESTR.CAVITY>
0

>  <SCORE.RESTR.norm>
0

>  <SCORE.SYSTEM>
0

>  <SCORE.SYSTEM.CONST>
0

>  <SCORE.SYSTEM.DIHEDRAL>
0

>  <SCORE.SYSTEM.SOLV>
0

>  <SCORE.SYSTEM.norm>
0

>  <SCORE.heavy>
10

>  <SCORE.norm>
-1.04564

>  <RMSD>
5.305

$$$$
ligand
 OpenBabel11021811473D
libRbt.so/2013.1/901 2013/11/27
 10  9  0  0  0  0  0  0  0  0999 V2000
   26.6493   14.5538   20.7340 N   0  0  0  0  0  0  0  0  0  0  0  0
   27.4889   15.5186   19.9655 C   0  0  2  0  0  0  0  0  0  0  0  0
   28.2047   14.8519   18.8268 C   0  0  0  0  0  0  0  0  0  0  0  0
   28.5629   15.4934   17.8436 O   0  0  0  0  0  0  0  0  0  0  0  0
   28.4521   16.2350   20.9076 C   0  0  0  0  0  0  0  0  0  0  0  0
   29.4226   15.0116   21.7326 S   0  0  0  0  0  0  0  0  0  0  0  0
   30.3652   16.0193   22.8298 C   0  0  0  0  0  0  0  0  0  0  0  0
   31.3251   16.8753   22.0095 C   0  0  0  0  0  0  0  0  0  0  0  0
   32.2816   16.0259   21.3289 N   0  0  0  0  0  0  0  0  0  0  0  0
   28.4869   13.6556   18.8246 O   0  0  0  0  0  0  0  0  0  0  0  0
  2  1  1  1  0  0  0
  2  3  1  0  0  0  0
  2  5  1  0  0  0  0
  3  4  1  0  0  0  0
  3 10  1  0  0  0  0
  5  6  1  0  0  0  0
  6  7  1  0  0  0  0
  7  8  1  0  0  0  0
  8  9  1  0  0  0  0
M  END
>  <CHROM.1>
155.34940135,57.14327226,-176.23205828,-67.55395146,-64.46993350,29.16481349
15.36293235,20.61065115,2.38550894,-0.29756130,-1.70242297

>  <Name>
ligand

>  <RI>
0

>  <Rbt.Current_Directory>
/home/itssahil/PROJECTS/Mol_Feturizer/New_Systems/rnas/3DIG

>  <Rbt.Executable>
rbdock ($Id: //depot/dev/client3/rdock/2013.1/src/exe/rbdock.cxx#4 $)

>  <Rbt.Library>
libRbt.so (2013.1, Build901 2013/11/27)

>  <Rbt.Parameter_File>
/export/apps/rDock/src/rDock_2013.1_src/data/scripts/dock_solv.prm

>  <Rbt.Receptor>
prm/pocket_docking_8.prm

>  <SCORE>
-10.0221

>  <SCORE.INTER>
-9.89477

>  <SCORE.INTER.CONST>
1

>  <SCORE.INTER.POLAR>
0

>  <SCORE.INTER.ROT>
5

>  <SCORE.INTER.SOLV>
15.8932

>  <SCORE.INTER.VDW>
-18.8276

>  <SCORE.INTER.norm>
-0.989477

>  <SCORE.INTRA>
-0.127368

>  <SCORE.INTRA.DIHEDRAL>
-0.929432

>  <SCORE.INTRA.DIHEDRAL.0>
2.60093

>  <SCORE.INTRA.POLAR>
0

>  <SCORE.INTRA.POLAR.0>
0

>  <SCORE.INTRA.REPUL>
0

>  <SCORE.INTRA.REPUL.0>
0

>  <SCORE.INTRA.SOLV>
0.871094

>  <SCORE.INTRA.SOLV.lig_0>
-33.7882

>  <SCORE.INTRA.VDW>
-0.0981987

>  <SCORE.INTRA.VDW.0>
-0.593976

>  <SCORE.INTRA.norm>
-0.0127368

>  <SCORE.RESTR>
0

>  <SCORE.RESTR.CAVITY>
0

>  <SCORE.RESTR.norm>
0

>  <SCORE.SYSTEM>
0

>  <SCORE.SYSTEM.CONST>
0

>  <SCORE.SYSTEM.DIHEDRAL>
0

>  <SCORE.SYSTEM.SOLV>
0

>  <SCORE.SYSTEM.norm>
0

>  <SCORE.heavy>
10

>  <SCORE.norm>
-1.00221

>  <RMSD>
5.306

$$$$
ligand
 OpenBabel11021811473D
libRbt.so/2013.1/901 2013/11/27
 10  9  0  0  0  0  0  0  0  0999 V2000
   25.8923   14.8154   21.0517 N   0  0  0  0  0  0  0  0  0  0  0  0
   27.2242   15.4806   21.1521 C   0  0  2  0  0  0  0  0  0  0  0  0
   27.8860   15.6098   19.8109 C   0  0  0  0  0  0  0  0  0  0  0  0
   27.7836   14.7234   18.9680 O   0  0  0  0  0  0  0  0  0  0  0  0
   28.1018   14.7381   22.1555 C   0  0  0  0  0  0  0  0  0  0  0  0
   29.5134   15.7430   22.4974 S   0  0  0  0  0  0  0  0  0  0  0  0
   30.6337   15.1744   21.2608 C   0  0  0  0  0  0  0  0  0  0  0  0
   31.7453   16.2054   21.0924 C   0  0  0  0  0  0  0  0  0  0  0  0
   32.4546   16.3722   22.3449 N   0  0  0  0  0  0  0  0  0  0  0  0
   28.5352   16.5994   19.4793 O   0  0  0  0  0  0  0  0  0  0  0  0
  2  1  1  6  0  0  0
  2  3  1  0  0  0  0
  2  5  1  0  0  0  0
  3  4  1  0  0  0  0
  3 10  1  0  0  0  0
  5  6  1  0  0  0  0
  6  7  1  0  0  0  0
  7  8  1  0  0  0  0
  8  9  1  0  0  0  0
M  END
>  <CHROM.1>
-37.21471248,-168.03807364,-90.16791392,162.13533778,60.26223400,29.04235542
15.57092375,21.12305070,2.81768986,-0.24722899,-1.43799908

>  <Name>
ligand

>  <RI>
0

>  <Rbt.Current_Directory>
/home/itssahil/PROJECTS/Mol_Feturizer/New_Systems/rnas/3DIG

>  <Rbt.Executable>
rbdock ($Id: //depot/dev/client3/rdock/2013.1/src/exe/rbdock.cxx#4 $)

>  <Rbt.Library>
libRbt.so (2013.1, Build901 2013/11/27)

>  <Rbt.Parameter_File>
/export/apps/rDock/src/rDock_2013.1_src/data/scripts/dock_solv.prm

>  <Rbt.Receptor>
prm/pocket_docking_3.prm

>  <SCORE>
-9.80206

>  <SCORE.INTER>
-9.32699

>  <SCORE.INTER.CONST>
1

>  <SCORE.INTER.POLAR>
0

>  <SCORE.INTER.ROT>
5

>  <SCORE.INTER.SOLV>
18.866

>  <SCORE.INTER.VDW>
-19.44

>  <SCORE.INTER.norm>
-0.932699

>  <SCORE.INTRA>
-0.47507

>  <SCORE.INTRA.DIHEDRAL>
1.14874

>  <SCORE.INTRA.DIHEDRAL.0>
2.60093

>  <SCORE.INTRA.POLAR>
0

>  <SCORE.INTRA.POLAR.0>
0

>  <SCORE.INTRA.REPUL>
0

>  <SCORE.INTRA.REPUL.0>
0

>  <SCORE.INTRA.SOLV>
-0.656392

>  <SCORE.INTRA.SOLV.lig_0>
-33.7882

>  <SCORE.INTRA.VDW>
-0.721247

>  <SCORE.INTRA.VDW.0>
-0.593976

>  <SCORE.INTRA.norm>
-0.047507

>  <SCORE.RESTR>
0

>  <SCORE.RESTR.CAVITY>
0

>  <SCORE.RESTR.norm>
0

>  <SCORE.SYSTEM>
0

>  <SCORE.SYSTEM.CONST>
0

>  <SCORE.SYSTEM.DIHEDRAL>
0

>  <SCORE.SYSTEM.SOLV>
0

>  <SCORE.SYSTEM.norm>
0

>  <SCORE.heavy>
10

>  <SCORE.norm>
-0.980206

>  <RMSD>
5.318

$$$$
ligand
 OpenBabel11021811473D
libRbt.so/2013.1/901 2013/11/27
 10  9  0  0  0  0  0  0  0  0999 V2000
   26.2719   14.9450   21.1531 N   0  0  0  0  0  0  0  0  0  0  0  0
   27.6841   15.3990   20.9920 C   0  0  2  0  0  0  0  0  0  0  0  0
   28.0840   15.4765   19.5472 C   0  0  0  0  0  0  0  0  0  0  0  0
   27.8240   14.5629   18.7699 O   0  0  0  0  0  0  0  0  0  0  0  0
   28.6152   14.4970   21.7971 C   0  0  0  0  0  0  0  0  0  0  0  0
   30.2647   15.0960   21.5986 S   0  0  0  0  0  0  0  0  0  0  0  0
   30.3209   16.3363   22.8501 C   0  0  0  0  0  0  0  0  0  0  0  0
   31.3263   17.4067   22.4372 C   0  0  0  0  0  0  0  0  0  0  0  0
   32.6309   16.8066   22.2432 N   0  0  0  0  0  0  0  0  0  0  0  0
   28.6621   16.4485   19.0658 O   0  0  0  0  0  0  0  0  0  0  0  0
  2  1  1  6  0  0  0
  2  3  1  0  0  0  0
  2  5  1  0  0  0  0
  3  4  1  0  0  0  0
  3 10  1  0  0  0  0
  5  6  1  0  0  0  0
  6  7  1  0  0  0  0
  7  8  1  0  0  0  0
  8  9  1  0  0  0  0
M  END
>  <CHROM.1>
-46.29975980,-178.86960638,85.06643585,-152.31181903,-58.36459572,29.29273316
15.62920597,21.07449086,2.70085228,-0.45791610,-1.35711291

>  <Name>
ligand

>  <RI>
0

>  <Rbt.Current_Directory>
/home/itssahil/PROJECTS/Mol_Feturizer/New_Systems/rnas/3DIG

>  <Rbt.Executable>
rbdock ($Id: //depot/dev/client3/rdock/2013.1/src/exe/rbdock.cxx#4 $)

>  <Rbt.Library>
libRbt.so (2013.1, Build901 2013/11/27)

>  <Rbt.Parameter_File>
/export/apps/rDock/src/rDock_2013.1_src/data/scripts/dock_solv.prm

>  <Rbt.Receptor>
prm/blind_docking_60.prm

>  <SCORE>
-9.30978

>  <SCORE.INTER>
-9.01935

>  <SCORE.INTER.CONST>
1

>  <SCORE.INTER.POLAR>
0

>  <SCORE.INTER.ROT>
5

>  <SCORE.INTER.SOLV>
17.7693

>  <SCORE.INTER.VDW>
-18.8693

>  <SCORE.INTER.norm>
-0.901935

>  <SCORE.INTRA>
-0.290431

>  <SCORE.INTRA.DIHEDRAL>
0.893694

>  <SCORE.INTRA.DIHEDRAL.0>
2.60093

>  <SCORE.INTRA.POLAR>
0

>  <SCORE.INTRA.POLAR.0>
0

>  <SCORE.INTRA.REPUL>
0

>  <SCORE.INTRA.REPUL.0>
0

>  <SCORE.INTRA.SOLV>
-0.551731

>  <SCORE.INTRA.SOLV.lig_0>
-33.7882

>  <SCORE.INTRA.VDW>
-0.461413

>  <SCORE.INTRA.VDW.0>
-0.593976

>  <SCORE.INTRA.norm>
-0.0290431

>  <SCORE.RESTR>
0

>  <SCORE.RESTR.CAVITY>
0

>  <SCORE.RESTR.norm>
0

>  <SCORE.SYSTEM>
0

>  <SCORE.SYSTEM.CONST>
0

>  <SCORE.SYSTEM.DIHEDRAL>
0

>  <SCORE.SYSTEM.SOLV>
0

>  <SCORE.SYSTEM.norm>
0

>  <SCORE.heavy>
10

>  <SCORE.norm>
-0.930978

>  <RMSD>
5.323

$$$$
ligand
 OpenBabel11021811473D
libRbt.so/2013.1/901 2013/11/27
 10  9  0  0  0  0  0  0  0  0999 V2000
   25.9399   14.7565   21.1050 N   0  0  0  0  0  0  0  0  0  0  0  0
   27.2436   15.4812   21.1419 C   0  0  2  0  0  0  0  0  0  0  0  0
   27.8983   15.5213   19.7916 C   0  0  0  0  0  0  0  0  0  0  0  0
   28.4765   16.5307   19.3997 O   0  0  0  0  0  0  0  0  0  0  0  0
   28.1518   14.8639   22.2014 C   0  0  0  0  0  0  0  0  0  0  0  0
   29.5213   15.9510   22.4498 S   0  0  0  0  0  0  0  0  0  0  0  0
   30.6895   15.2791   21.3132 C   0  0  0  0  0  0  0  0  0  0  0  0
   31.8063   16.2955   21.0971 C   0  0  0  0  0  0  0  0  0  0  0  0
   32.4729   16.5678   22.3546 N   0  0  0  0  0  0  0  0  0  0  0  0
   27.9118   14.5588   19.0274 O   0  0  0  0  0  0  0  0  0  0  0  0
  2  1  1  6  0  0  0
  2  3  1  0  0  0  0
  2  5  1  0  0  0  0
  3  4  1  0  0  0  0
  3 10  1  0  0  0  0
  5  6  1  0  0  0  0
  6  7  1  0  0  0  0
  7  8  1  0  0  0  0
  8  9  1  0  0  0  0
M  END
>  <CHROM.1>
140.22754685,-168.02343515,-92.60582044,164.80997567,60.71186828,29.07396971
15.62301043,21.12373615,2.80518935,-0.26485212,-1.52760664

>  <Name>
ligand

>  <RI>
0

>  <Rbt.Current_Directory>
/home/itssahil/PROJECTS/Mol_Feturizer/New_Systems/rnas/3DIG

>  <Rbt.Executable>
rbdock ($Id: //depot/dev/client3/rdock/2013.1/src/exe/rbdock.cxx#4 $)

>  <Rbt.Library>
libRbt.so (2013.1, Build901 2013/11/27)

>  <Rbt.Parameter_File>
/export/apps/rDock/src/rDock_2013.1_src/data/scripts/dock_solv.prm

>  <Rbt.Receptor>
prm/pocket_docking_3.prm

>  <SCORE>
-9.71748

>  <SCORE.INTER>
-9.09192

>  <SCORE.INTER.CONST>
1

>  <SCORE.INTER.POLAR>
0

>  <SCORE.INTER.ROT>
5

>  <SCORE.INTER.SOLV>
18.4962

>  <SCORE.INTER.VDW>
-19.16

>  <SCORE.INTER.norm>
-0.909192

>  <SCORE.INTRA>
-0.625567

>  <SCORE.INTRA.DIHEDRAL>
1.09569

>  <SCORE.INTRA.DIHEDRAL.0>
2.60093

>  <SCORE.INTRA.POLAR>
0

>  <SCORE.INTRA.POLAR.0>
0

>  <SCORE.INTRA.REPUL>
0

>  <SCORE.INTRA.REPUL.0>
0

>  <SCORE.INTRA.SOLV>
-0.678751

>  <SCORE.INTRA.SOLV.lig_0>
-33.7882

>  <SCORE.INTRA.VDW>
-0.834039

>  <SCORE.INTRA.VDW.0>
-0.593976

>  <SCORE.INTRA.norm>
-0.0625567

>  <SCORE.RESTR>
0

>  <SCORE.RESTR.CAVITY>
0

>  <SCORE.RESTR.norm>
0

>  <SCORE.SYSTEM>
0

>  <SCORE.SYSTEM.CONST>
0

>  <SCORE.SYSTEM.DIHEDRAL>
0

>  <SCORE.SYSTEM.SOLV>
0

>  <SCORE.SYSTEM.norm>
0

>  <SCORE.heavy>
10

>  <SCORE.norm>
-0.971748

>  <RMSD>
5.327

$$$$
ligand
 OpenBabel11021811473D
libRbt.so/2013.1/901 2013/11/27
 10  9  0  0  0  0  0  0  0  0999 V2000
   26.9946   16.2252   20.1872 N   0  0  0  0  0  0  0  0  0  0  0  0
   28.2289   15.4365   19.9026 C   0  0  2  0  0  0  0  0  0  0  0  0
   28.2088   14.8472   18.5221 C   0  0  0  0  0  0  0  0  0  0  0  0
   27.5037   13.8774   18.2596 O   0  0  0  0  0  0  0  0  0  0  0  0
   28.4249   14.3718   20.9780 C   0  0  0  0  0  0  0  0  0  0  0  0
   28.8491   15.1877   22.4858 S   0  0  0  0  0  0  0  0  0  0  0  0
   30.6096   15.1365   22.4075 C   0  0  0  0  0  0  0  0  0  0  0  0
   31.1008   16.3295   21.5935 C   0  0  0  0  0  0  0  0  0  0  0  0
   30.8699   17.5556   22.3305 N   0  0  0  0  0  0  0  0  0  0  0  0
   28.8658   15.3066   17.5905 O   0  0  0  0  0  0  0  0  0  0  0  0
  2  1  1  1  0  0  0
  2  3  1  0  0  0  0
  2  5  1  0  0  0  0
  3  4  1  0  0  0  0
  3 10  1  0  0  0  0
  5  6  1  0  0  0  0
  6  7  1  0  0  0  0
  7  8  1  0  0  0  0
  8  9  1  0  0  0  0
M  END
>  <CHROM.1>
-74.84890804,-69.43633843,-93.60811924,85.20289825,69.24524833,28.94731229
15.38646503,20.62432922,2.19168358,-0.57893495,-1.51668770

>  <Name>
ligand

>  <RI>
0

>  <Rbt.Current_Directory>
/home/itssahil/PROJECTS/Mol_Feturizer/New_Systems/rnas/3DIG

>  <Rbt.Executable>
rbdock ($Id: //depot/dev/client3/rdock/2013.1/src/exe/rbdock.cxx#4 $)

>  <Rbt.Library>
libRbt.so (2013.1, Build901 2013/11/27)

>  <Rbt.Parameter_File>
/export/apps/rDock/src/rDock_2013.1_src/data/scripts/dock_solv.prm

>  <Rbt.Receptor>
prm/pocket_docking_6.prm

>  <SCORE>
-9.52133

>  <SCORE.INTER>
-10.468

>  <SCORE.INTER.CONST>
1

>  <SCORE.INTER.POLAR>
0

>  <SCORE.INTER.ROT>
5

>  <SCORE.INTER.SOLV>
17.0827

>  <SCORE.INTER.VDW>
-19.6062

>  <SCORE.INTER.norm>
-1.0468

>  <SCORE.INTRA>
0.946649

>  <SCORE.INTRA.DIHEDRAL>
1.80374

>  <SCORE.INTRA.DIHEDRAL.0>
2.60093

>  <SCORE.INTRA.POLAR>
0

>  <SCORE.INTRA.POLAR.0>
0

>  <SCORE.INTRA.REPUL>
0

>  <SCORE.INTRA.REPUL.0>
0

>  <SCORE.INTRA.SOLV>
1.05087

>  <SCORE.INTRA.SOLV.lig_0>
-33.7882

>  <SCORE.INTRA.VDW>
-0.480659

>  <SCORE.INTRA.VDW.0>
-0.593976

>  <SCORE.INTRA.norm>
0.0946649

>  <SCORE.RESTR>
0

>  <SCORE.RESTR.CAVITY>
0

>  <SCORE.RESTR.norm>
0

>  <SCORE.SYSTEM>
0

>  <SCORE.SYSTEM.CONST>
0

>  <SCORE.SYSTEM.DIHEDRAL>
0

>  <SCORE.SYSTEM.SOLV>
0

>  <SCORE.SYSTEM.norm>
0

>  <SCORE.heavy>
10

>  <SCORE.norm>
-0.952133

>  <RMSD>
5.340

$$$$
ligand
 OpenBabel11021811473D
libRbt.so/2013.1/901 2013/11/27
 10  9  0  0  0  0  0  0  0  0999 V2000
   28.2301   14.3005   19.1974 N   0  0  0  0  0  0  0  0  0  0  0  0
   28.4200   14.5489   20.6564 C   0  0  2  0  0  0  0  0  0  0  0  0
   27.1247   14.8783   21.3397 C   0  0  0  0  0  0  0  0  0  0  0  0
   27.0340   14.8611   22.5637 O   0  0  0  0  0  0  0  0  0  0  0  0
   29.4715   15.6347   20.8663 C   0  0  0  0  0  0  0  0  0  0  0  0
   29.9044   15.6541   22.5784 S   0  0  0  0  0  0  0  0  0  0  0  0
   31.0343   17.0067   22.6203 C   0  0  0  0  0  0  0  0  0  0  0  0
   32.4439   16.4781   22.3744 C   0  0  0  0  0  0  0  0  0  0  0  0
   32.5454   15.9586   21.0255 N   0  0  0  0  0  0  0  0  0  0  0  0
   26.1090   15.1993   20.7263 O   0  0  0  0  0  0  0  0  0  0  0  0
  2  1  1  6  0  0  0
  2  3  1  0  0  0  0
  2  5  1  0  0  0  0
  3  4  1  0  0  0  0
  3 10  1  0  0  0  0
  5  6  1  0  0  0  0
  6  7  1  0  0  0  0
  7  8  1  0  0  0  0
  8  9  1  0  0  0  0
M  END
>  <CHROM.1>
165.89461371,-168.31142891,-176.96059987,-90.34622835,66.03838197,29.27352752
15.47754276,21.54081465,-2.83065875,0.21724000,1.25048072

>  <Name>
ligand

>  <RI>
0

>  <Rbt.Current_Directory>
/home/itssahil/PROJECTS/Mol_Feturizer/New_Systems/rnas/3DIG

>  <Rbt.Executable>
rbdock ($Id: //depot/dev/client3/rdock/2013.1/src/exe/rbdock.cxx#4 $)

>  <Rbt.Library>
libRbt.so (2013.1, Build901 2013/11/27)

>  <Rbt.Parameter_File>
/export/apps/rDock/src/rDock_2013.1_src/data/scripts/dock_solv.prm

>  <Rbt.Receptor>
prm/pocket_docking_3.prm

>  <SCORE>
-11.0048

>  <SCORE.INTER>
-11.4281

>  <SCORE.INTER.CONST>
1

>  <SCORE.INTER.POLAR>
0

>  <SCORE.INTER.ROT>
5

>  <SCORE.INTER.SOLV>
13.5328

>  <SCORE.INTER.VDW>
-19.063

>  <SCORE.INTER.norm>
-1.14281

>  <SCORE.INTRA>
0.42329

>  <SCORE.INTRA.DIHEDRAL>
0.726717

>  <SCORE.INTRA.DIHEDRAL.0>
2.60093

>  <SCORE.INTRA.POLAR>
0

>  <SCORE.INTRA.POLAR.0>
0

>  <SCORE.INTRA.REPUL>
0

>  <SCORE.INTRA.REPUL.0>
0

>  <SCORE.INTRA.SOLV>
0.614668

>  <SCORE.INTRA.SOLV.lig_0>
-33.7882

>  <SCORE.INTRA.VDW>
-0.247403

>  <SCORE.INTRA.VDW.0>
-0.593976

>  <SCORE.INTRA.norm>
0.042329

>  <SCORE.RESTR>
0

>  <SCORE.RESTR.CAVITY>
0

>  <SCORE.RESTR.norm>
0

>  <SCORE.SYSTEM>
0

>  <SCORE.SYSTEM.CONST>
0

>  <SCORE.SYSTEM.DIHEDRAL>
0

>  <SCORE.SYSTEM.SOLV>
0

>  <SCORE.SYSTEM.norm>
0

>  <SCORE.heavy>
10

>  <SCORE.norm>
-1.10048

>  <RMSD>
5.346

$$$$
ligand
 OpenBabel11021811473D
libRbt.so/2013.1/901 2013/11/27
 10  9  0  0  0  0  0  0  0  0999 V2000
   28.6732   16.4660   18.7358 N   0  0  0  0  0  0  0  0  0  0  0  0
   28.9022   15.0209   19.0283 C   0  0  2  0  0  0  0  0  0  0  0  0
   27.6109   14.2690   19.1718 C   0  0  0  0  0  0  0  0  0  0  0  0
   27.2690   13.4360   18.3376 O   0  0  0  0  0  0  0  0  0  0  0  0
   29.7911   14.8743   20.2600 C   0  0  0  0  0  0  0  0  0  0  0  0
   29.0639   15.8039   21.5739 S   0  0  0  0  0  0  0  0  0  0  0  0
   30.2914   15.6249   22.8266 C   0  0  0  0  0  0  0  0  0  0  0  0
   31.4033   16.6383   22.5743 C   0  0  0  0  0  0  0  0  0  0  0  0
   32.1790   16.2386   21.4174 N   0  0  0  0  0  0  0  0  0  0  0  0
   26.8498   14.4251   20.1242 O   0  0  0  0  0  0  0  0  0  0  0  0
  2  1  1  1  0  0  0
  2  3  1  0  0  0  0
  2  5  1  0  0  0  0
  3  4  1  0  0  0  0
  3 10  1  0  0  0  0
  5  6  1  0  0  0  0
  6  7  1  0  0  0  0
  7  8  1  0  0  0  0
  8  9  1  0  0  0  0
M  END
>  <CHROM.1>
111.36370458,53.41693976,-175.20446177,81.68858515,-71.94838142,29.15620256
15.31980769,20.53272802,-2.44328463,0.44864412,1.50726664

>  <Name>
ligand

>  <RI>
0

>  <Rbt.Current_Directory>
/home/itssahil/PROJECTS/Mol_Feturizer/New_Systems/rnas/3DIG

>  <Rbt.Executable>
rbdock ($Id: //depot/dev/client3/rdock/2013.1/src/exe/rbdock.cxx#4 $)

>  <Rbt.Library>
libRbt.so (2013.1, Build901 2013/11/27)

>  <Rbt.Parameter_File>
/export/apps/rDock/src/rDock_2013.1_src/data/scripts/dock_solv.prm

>  <Rbt.Receptor>
prm/blind_docking_60.prm

>  <SCORE>
-7.56064

>  <SCORE.INTER>
-8.52563

>  <SCORE.INTER.CONST>
1

>  <SCORE.INTER.POLAR>
0

>  <SCORE.INTER.ROT>
5

>  <SCORE.INTER.SOLV>
14.2437

>  <SCORE.INTER.VDW>
-17.365

>  <SCORE.INTER.norm>
-0.852563

>  <SCORE.INTRA>
0.964993

>  <SCORE.INTRA.DIHEDRAL>
0.319267

>  <SCORE.INTRA.DIHEDRAL.0>
2.60093

>  <SCORE.INTRA.POLAR>
0

>  <SCORE.INTRA.POLAR.0>
0

>  <SCORE.INTRA.REPUL>
0

>  <SCORE.INTRA.REPUL.0>
0

>  <SCORE.INTRA.SOLV>
1.78127

>  <SCORE.INTRA.SOLV.lig_0>
-33.7882

>  <SCORE.INTRA.VDW>
-0.0852738

>  <SCORE.INTRA.VDW.0>
-0.593976

>  <SCORE.INTRA.norm>
0.0964993

>  <SCORE.RESTR>
0

>  <SCORE.RESTR.CAVITY>
0

>  <SCORE.RESTR.norm>
0

>  <SCORE.SYSTEM>
0

>  <SCORE.SYSTEM.CONST>
0

>  <SCORE.SYSTEM.DIHEDRAL>
0

>  <SCORE.SYSTEM.SOLV>
0

>  <SCORE.SYSTEM.norm>
0

>  <SCORE.heavy>
10

>  <SCORE.norm>
-0.756064

>  <RMSD>
5.347

$$$$
ligand
 OpenBabel11021811473D
libRbt.so/2013.1/901 2013/11/27
 10  9  0  0  0  0  0  0  0  0999 V2000
   26.9491   16.1679   20.2151 N   0  0  0  0  0  0  0  0  0  0  0  0
   28.2215   15.4628   19.8831 C   0  0  2  0  0  0  0  0  0  0  0  0
   28.1987   14.8946   18.4939 C   0  0  0  0  0  0  0  0  0  0  0  0
   27.5236   13.9048   18.2273 O   0  0  0  0  0  0  0  0  0  0  0  0
   28.5141   14.3960   20.9343 C   0  0  0  0  0  0  0  0  0  0  0  0
   28.8873   15.2133   22.4549 S   0  0  0  0  0  0  0  0  0  0  0  0
   30.6497   15.2064   22.4122 C   0  0  0  0  0  0  0  0  0  0  0  0
   31.1254   16.3684   21.5458 C   0  0  0  0  0  0  0  0  0  0  0  0
   30.9102   17.6207   22.2423 N   0  0  0  0  0  0  0  0  0  0  0  0
   28.8236   15.3912   17.5592 O   0  0  0  0  0  0  0  0  0  0  0  0
  2  1  1  1  0  0  0
  2  3  1  0  0  0  0
  2  5  1  0  0  0  0
  3  4  1  0  0  0  0
  3 10  1  0  0  0  0
  5  6  1  0  0  0  0
  6  7  1  0  0  0  0
  7  8  1  0  0  0  0
  8  9  1  0  0  0  0
M  END
>  <CHROM.1>
-73.13631742,-67.94280326,-97.33828968,81.87006436,72.16165023,28.96451553
15.42100066,20.59501701,2.21103081,-0.58582062,-1.50064692

>  <Name>
ligand

>  <RI>
0

>  <Rbt.Current_Directory>
/home/itssahil/PROJECTS/Mol_Feturizer/New_Systems/rnas/3DIG

>  <Rbt.Executable>
rbdock ($Id: //depot/dev/client3/rdock/2013.1/src/exe/rbdock.cxx#4 $)

>  <Rbt.Library>
libRbt.so (2013.1, Build901 2013/11/27)

>  <Rbt.Parameter_File>
/export/apps/rDock/src/rDock_2013.1_src/data/scripts/dock_solv.prm

>  <Rbt.Receptor>
prm/blind_docking_80.prm

>  <SCORE>
-9.49643

>  <SCORE.INTER>
-10.5317

>  <SCORE.INTER.CONST>
1

>  <SCORE.INTER.POLAR>
0

>  <SCORE.INTER.ROT>
5

>  <SCORE.INTER.SOLV>
17.1988

>  <SCORE.INTER.VDW>
-19.6874

>  <SCORE.INTER.norm>
-1.05317

>  <SCORE.INTRA>
1.03528

>  <SCORE.INTRA.DIHEDRAL>
1.97122

>  <SCORE.INTRA.DIHEDRAL.0>
2.60093

>  <SCORE.INTRA.POLAR>
0

>  <SCORE.INTRA.POLAR.0>
0

>  <SCORE.INTRA.REPUL>
0

>  <SCORE.INTRA.REPUL.0>
0

>  <SCORE.INTRA.SOLV>
0.980578

>  <SCORE.INTRA.SOLV.lig_0>
-33.7882

>  <SCORE.INTRA.VDW>
-0.440616

>  <SCORE.INTRA.VDW.0>
-0.593976

>  <SCORE.INTRA.norm>
0.103528

>  <SCORE.RESTR>
0

>  <SCORE.RESTR.CAVITY>
0

>  <SCORE.RESTR.norm>
0

>  <SCORE.SYSTEM>
0

>  <SCORE.SYSTEM.CONST>
0

>  <SCORE.SYSTEM.DIHEDRAL>
0

>  <SCORE.SYSTEM.SOLV>
0

>  <SCORE.SYSTEM.norm>
0

>  <SCORE.heavy>
10

>  <SCORE.norm>
-0.949643

>  <RMSD>
5.348

$$$$
ligand
 OpenBabel11021811473D
libRbt.so/2013.1/901 2013/11/27
 10  9  0  0  0  0  0  0  0  0999 V2000
   28.4080   13.9128   18.9722 N   0  0  0  0  0  0  0  0  0  0  0  0
   28.3859   14.3457   20.4000 C   0  0  2  0  0  0  0  0  0  0  0  0
   27.1801   15.1842   20.7104 C   0  0  0  0  0  0  0  0  0  0  0  0
   27.0147   16.2756   20.1738 O   0  0  0  0  0  0  0  0  0  0  0  0
   29.6877   15.0628   20.7459 C   0  0  0  0  0  0  0  0  0  0  0  0
   29.6015   15.5695   22.4357 S   0  0  0  0  0  0  0  0  0  0  0  0
   31.3138   15.7349   22.8208 C   0  0  0  0  0  0  0  0  0  0  0  0
   31.8597   16.9719   22.1145 C   0  0  0  0  0  0  0  0  0  0  0  0
   31.2916   18.1664   22.7063 N   0  0  0  0  0  0  0  0  0  0  0  0
   26.2975   14.8230   21.4858 O   0  0  0  0  0  0  0  0  0  0  0  0
  2  1  1  6  0  0  0
  2  3  1  0  0  0  0
  2  5  1  0  0  0  0
  3  4  1  0  0  0  0
  3 10  1  0  0  0  0
  5  6  1  0  0  0  0
  6  7  1  0  0  0  0
  7  8  1  0  0  0  0
  8  9  1  0  0  0  0
M  END
>  <CHROM.1>
-63.93873078,179.32727322,157.69377250,71.90772083,68.69629964,29.12844191
15.61250799,21.39198121,-2.50266457,-0.05712956,0.76878128

>  <Name>
ligand

>  <RI>
0

>  <Rbt.Current_Directory>
/home/itssahil/PROJECTS/Mol_Feturizer/New_Systems/rnas/3DIG

>  <Rbt.Executable>
rbdock ($Id: //depot/dev/client3/rdock/2013.1/src/exe/rbdock.cxx#4 $)

>  <Rbt.Library>
libRbt.so (2013.1, Build901 2013/11/27)

>  <Rbt.Parameter_File>
/export/apps/rDock/src/rDock_2013.1_src/data/scripts/dock_solv.prm

>  <Rbt.Receptor>
prm/pocket_docking_6.prm

>  <SCORE>
-9.58446

>  <SCORE.INTER>
-9.49494

>  <SCORE.INTER.CONST>
1

>  <SCORE.INTER.POLAR>
0

>  <SCORE.INTER.ROT>
5

>  <SCORE.INTER.SOLV>
16.5127

>  <SCORE.INTER.VDW>
-18.7675

>  <SCORE.INTER.norm>
-0.949494

>  <SCORE.INTRA>
-0.0895168

>  <SCORE.INTRA.DIHEDRAL>
0.125107

>  <SCORE.INTRA.DIHEDRAL.0>
2.60093

>  <SCORE.INTRA.POLAR>
0

>  <SCORE.INTRA.POLAR.0>
0

>  <SCORE.INTRA.REPUL>
0

>  <SCORE.INTRA.REPUL.0>
0

>  <SCORE.INTRA.SOLV>
-0.271272

>  <SCORE.INTRA.SOLV.lig_0>
-33.7882

>  <SCORE.INTRA.VDW>
-0.0164346

>  <SCORE.INTRA.VDW.0>
-0.593976

>  <SCORE.INTRA.norm>
-0.00895168

>  <SCORE.RESTR>
0

>  <SCORE.RESTR.CAVITY>
0

>  <SCORE.RESTR.norm>
0

>  <SCORE.SYSTEM>
0

>  <SCORE.SYSTEM.CONST>
0

>  <SCORE.SYSTEM.DIHEDRAL>
0

>  <SCORE.SYSTEM.SOLV>
0

>  <SCORE.SYSTEM.norm>
0

>  <SCORE.heavy>
10

>  <SCORE.norm>
-0.958446

>  <RMSD>
5.351

$$$$
ligand
 OpenBabel11021811473D
libRbt.so/2013.1/901 2013/11/27
 10  9  0  0  0  0  0  0  0  0999 V2000
   29.3448   14.7362   19.8001 N   0  0  0  0  0  0  0  0  0  0  0  0
   28.3611   14.3434   20.8509 C   0  0  2  0  0  0  0  0  0  0  0  0
   27.1306   15.2024   20.8126 C   0  0  0  0  0  0  0  0  0  0  0  0
   26.0817   14.8266   21.3276 O   0  0  0  0  0  0  0  0  0  0  0  0
   29.0303   14.3609   22.2222 C   0  0  0  0  0  0  0  0  0  0  0  0
   29.7257   15.9651   22.4717 S   0  0  0  0  0  0  0  0  0  0  0  0
   31.3484   15.7284   21.8246 C   0  0  0  0  0  0  0  0  0  0  0  0
   32.1132   17.0448   21.9204 C   0  0  0  0  0  0  0  0  0  0  0  0
   33.4426   16.8819   21.3673 N   0  0  0  0  0  0  0  0  0  0  0  0
   27.1102   16.3167   20.2944 O   0  0  0  0  0  0  0  0  0  0  0  0
  2  1  1  6  0  0  0
  2  3  1  0  0  0  0
  2  5  1  0  0  0  0
  3  4  1  0  0  0  0
  3 10  1  0  0  0  0
  5  6  1  0  0  0  0
  6  7  1  0  0  0  0
  7  8  1  0  0  0  0
  8  9  1  0  0  0  0
M  END
>  <CHROM.1>
160.03898933,55.60775816,-90.84886773,178.55369264,-178.78558486,29.37475967
15.60129479,21.42027284,-3.00261443,0.28692166,1.64380467

>  <Name>
ligand

>  <RI>
0

>  <Rbt.Current_Directory>
/home/itssahil/PROJECTS/Mol_Feturizer/New_Systems/rnas/3DIG

>  <Rbt.Executable>
rbdock ($Id: //depot/dev/client3/rdock/2013.1/src/exe/rbdock.cxx#4 $)

>  <Rbt.Library>
libRbt.so (2013.1, Build901 2013/11/27)

>  <Rbt.Parameter_File>
/export/apps/rDock/src/rDock_2013.1_src/data/scripts/dock_solv.prm

>  <Rbt.Receptor>
prm/pocket_docking_3.prm

>  <SCORE>
-10.7966

>  <SCORE.INTER>
-10.9303

>  <SCORE.INTER.CONST>
1

>  <SCORE.INTER.POLAR>
0

>  <SCORE.INTER.ROT>
5

>  <SCORE.INTER.SOLV>
13.5592

>  <SCORE.INTER.VDW>
-18.74

>  <SCORE.INTER.norm>
-1.09303

>  <SCORE.INTRA>
0.133699

>  <SCORE.INTRA.DIHEDRAL>
0.182113

>  <SCORE.INTRA.DIHEDRAL.0>
2.60093

>  <SCORE.INTRA.POLAR>
0

>  <SCORE.INTRA.POLAR.0>
0

>  <SCORE.INTRA.REPUL>
0

>  <SCORE.INTRA.REPUL.0>
0

>  <SCORE.INTRA.SOLV>
0.913373

>  <SCORE.INTRA.SOLV.lig_0>
-33.7882

>  <SCORE.INTRA.VDW>
-0.414044

>  <SCORE.INTRA.VDW.0>
-0.593976

>  <SCORE.INTRA.norm>
0.0133699

>  <SCORE.RESTR>
0

>  <SCORE.RESTR.CAVITY>
0

>  <SCORE.RESTR.norm>
0

>  <SCORE.SYSTEM>
0

>  <SCORE.SYSTEM.CONST>
0

>  <SCORE.SYSTEM.DIHEDRAL>
0

>  <SCORE.SYSTEM.SOLV>
0

>  <SCORE.SYSTEM.norm>
0

>  <SCORE.heavy>
10

>  <SCORE.norm>
-1.07966

>  <RMSD>
5.353

$$$$
ligand
 OpenBabel11021811473D
libRbt.so/2013.1/901 2013/11/27
 10  9  0  0  0  0  0  0  0  0999 V2000
   28.0959   14.4064   19.0793 N   0  0  0  0  0  0  0  0  0  0  0  0
   28.3455   14.5183   20.5462 C   0  0  2  0  0  0  0  0  0  0  0  0
   27.0917   14.8505   21.3019 C   0  0  0  0  0  0  0  0  0  0  0  0
   26.0622   15.1630   20.7112 O   0  0  0  0  0  0  0  0  0  0  0  0
   29.4581   15.5291   20.8085 C   0  0  0  0  0  0  0  0  0  0  0  0
   29.9262   15.4000   22.5066 S   0  0  0  0  0  0  0  0  0  0  0  0
   30.9775   16.8057   22.6695 C   0  0  0  0  0  0  0  0  0  0  0  0
   32.4127   16.3840   22.3704 C   0  0  0  0  0  0  0  0  0  0  0  0
   32.5354   16.0145   20.9746 N   0  0  0  0  0  0  0  0  0  0  0  0
   27.0201   14.8071   22.5282 O   0  0  0  0  0  0  0  0  0  0  0  0
  2  1  1  6  0  0  0
  2  3  1  0  0  0  0
  2  5  1  0  0  0  0
  3  4  1  0  0  0  0
  3 10  1  0  0  0  0
  5  6  1  0  0  0  0
  6  7  1  0  0  0  0
  7  8  1  0  0  0  0
  8  9  1  0  0  0  0
M  END
>  <CHROM.1>
-9.23277777,-169.32943519,-170.35134024,-91.24831188,66.77451544,29.24160531
15.39161848,21.49341834,-2.84747151,0.22240708,1.34003701

>  <Name>
ligand

>  <RI>
0

>  <Rbt.Current_Directory>
/home/itssahil/PROJECTS/Mol_Feturizer/New_Systems/rnas/3DIG

>  <Rbt.Executable>
rbdock ($Id: //depot/dev/client3/rdock/2013.1/src/exe/rbdock.cxx#4 $)

>  <Rbt.Library>
libRbt.so (2013.1, Build901 2013/11/27)

>  <Rbt.Parameter_File>
/export/apps/rDock/src/rDock_2013.1_src/data/scripts/dock_solv.prm

>  <Rbt.Receptor>
prm/pocket_docking_7.prm

>  <SCORE>
-10.9864

>  <SCORE.INTER>
-11.5229

>  <SCORE.INTER.CONST>
1

>  <SCORE.INTER.POLAR>
0

>  <SCORE.INTER.ROT>
5

>  <SCORE.INTER.SOLV>
13.8738

>  <SCORE.INTER.VDW>
-19.2399

>  <SCORE.INTER.norm>
-1.15229

>  <SCORE.INTRA>
0.536514

>  <SCORE.INTRA.DIHEDRAL>
0.933565

>  <SCORE.INTRA.DIHEDRAL.0>
2.60093

>  <SCORE.INTRA.POLAR>
0

>  <SCORE.INTRA.POLAR.0>
0

>  <SCORE.INTRA.REPUL>
0

>  <SCORE.INTRA.REPUL.0>
0

>  <SCORE.INTRA.SOLV>
0.536352

>  <SCORE.INTRA.SOLV.lig_0>
-33.7882

>  <SCORE.INTRA.VDW>
-0.198445

>  <SCORE.INTRA.VDW.0>
-0.593976

>  <SCORE.INTRA.norm>
0.0536514

>  <SCORE.RESTR>
0

>  <SCORE.RESTR.CAVITY>
0

>  <SCORE.RESTR.norm>
0

>  <SCORE.SYSTEM>
0

>  <SCORE.SYSTEM.CONST>
0

>  <SCORE.SYSTEM.DIHEDRAL>
0

>  <SCORE.SYSTEM.SOLV>
0

>  <SCORE.SYSTEM.norm>
0

>  <SCORE.heavy>
10

>  <SCORE.norm>
-1.09864

>  <RMSD>
5.371

$$$$
ligand
 OpenBabel11021811473D
libRbt.so/2013.1/901 2013/11/27
 10  9  0  0  0  0  0  0  0  0999 V2000
   27.4227   14.4618   20.6053 N   0  0  0  0  0  0  0  0  0  0  0  0
   27.8493   15.5442   19.6710 C   0  0  2  0  0  0  0  0  0  0  0  0
   28.5383   14.9935   18.4563 C   0  0  0  0  0  0  0  0  0  0  0  0
   28.7931   15.7123   17.4945 O   0  0  0  0  0  0  0  0  0  0  0  0
   28.7160   16.5585   20.4116 C   0  0  0  0  0  0  0  0  0  0  0  0
   30.1497   15.7194   21.0115 S   0  0  0  0  0  0  0  0  0  0  0  0
   30.8830   16.9804   22.0014 C   0  0  0  0  0  0  0  0  0  0  0  0
   32.2439   16.4937   22.4895 C   0  0  0  0  0  0  0  0  0  0  0  0
   33.1378   16.3228   21.3619 N   0  0  0  0  0  0  0  0  0  0  0  0
   28.8991   13.8220   18.3671 O   0  0  0  0  0  0  0  0  0  0  0  0
  2  1  1  1  0  0  0
  2  3  1  0  0  0  0
  2  5  1  0  0  0  0
  3  4  1  0  0  0  0
  3 10  1  0  0  0  0
  5  6  1  0  0  0  0
  6  7  1  0  0  0  0
  7  8  1  0  0  0  0
  8  9  1  0  0  0  0
M  END
>  <CHROM.1>
169.81693171,61.17922708,-172.56022661,-173.49015050,65.16603177,29.72372146
15.65459936,20.24946014,2.38926312,-0.17435207,-1.84677073

>  <Name>
ligand

>  <RI>
0

>  <Rbt.Current_Directory>
/home/itssahil/PROJECTS/Mol_Feturizer/New_Systems/rnas/3DIG

>  <Rbt.Executable>
rbdock ($Id: //depot/dev/client3/rdock/2013.1/src/exe/rbdock.cxx#4 $)

>  <Rbt.Library>
libRbt.so (2013.1, Build901 2013/11/27)

>  <Rbt.Parameter_File>
/export/apps/rDock/src/rDock_2013.1_src/data/scripts/dock_solv.prm

>  <Rbt.Receptor>
prm/blind_docking_60.prm

>  <SCORE>
-10.0701

>  <SCORE.INTER>
-9.43339

>  <SCORE.INTER.CONST>
1

>  <SCORE.INTER.POLAR>
0

>  <SCORE.INTER.ROT>
5

>  <SCORE.INTER.SOLV>
14.3629

>  <SCORE.INTER.VDW>
-18.0099

>  <SCORE.INTER.norm>
-0.943339

>  <SCORE.INTRA>
-0.636693

>  <SCORE.INTRA.DIHEDRAL>
-0.8595

>  <SCORE.INTRA.DIHEDRAL.0>
2.60093

>  <SCORE.INTRA.POLAR>
0

>  <SCORE.INTRA.POLAR.0>
0

>  <SCORE.INTRA.REPUL>
0

>  <SCORE.INTRA.REPUL.0>
0

>  <SCORE.INTRA.SOLV>
0.319733

>  <SCORE.INTRA.SOLV.lig_0>
-33.7882

>  <SCORE.INTRA.VDW>
-0.366809

>  <SCORE.INTRA.VDW.0>
-0.593976

>  <SCORE.INTRA.norm>
-0.0636693

>  <SCORE.RESTR>
0

>  <SCORE.RESTR.CAVITY>
0

>  <SCORE.RESTR.norm>
0

>  <SCORE.SYSTEM>
0

>  <SCORE.SYSTEM.CONST>
0

>  <SCORE.SYSTEM.DIHEDRAL>
0

>  <SCORE.SYSTEM.SOLV>
0

>  <SCORE.SYSTEM.norm>
0

>  <SCORE.heavy>
10

>  <SCORE.norm>
-1.00701

>  <RMSD>
5.373

$$$$
ligand
 OpenBabel11021811473D
libRbt.so/2013.1/901 2013/11/27
 10  9  0  0  0  0  0  0  0  0999 V2000
   28.1208   14.4386   19.0623 N   0  0  0  0  0  0  0  0  0  0  0  0
   28.3322   14.5151   20.5375 C   0  0  2  0  0  0  0  0  0  0  0  0
   27.0634   14.8500   21.2665 C   0  0  0  0  0  0  0  0  0  0  0  0
   27.0140   14.8244   22.4927 O   0  0  0  0  0  0  0  0  0  0  0  0
   29.4520   15.5029   20.8516 C   0  0  0  0  0  0  0  0  0  0  0  0
   29.9439   15.2576   22.5300 S   0  0  0  0  0  0  0  0  0  0  0  0
   30.9577   16.6762   22.7901 C   0  0  0  0  0  0  0  0  0  0  0  0
   32.3958   16.3278   22.4192 C   0  0  0  0  0  0  0  0  0  0  0  0
   32.4835   16.0499   20.9997 N   0  0  0  0  0  0  0  0  0  0  0  0
   26.0304   15.1838   20.6901 O   0  0  0  0  0  0  0  0  0  0  0  0
  2  1  1  6  0  0  0
  2  3  1  0  0  0  0
  2  5  1  0  0  0  0
  3  4  1  0  0  0  0
  3 10  1  0  0  0  0
  5  6  1  0  0  0  0
  6  7  1  0  0  0  0
  7  8  1  0  0  0  0
  8  9  1  0  0  0  0
M  END
>  <CHROM.1>
172.66888571,-165.71261352,-168.48157987,-90.14720902,65.21069163,29.23197552
15.35374051,21.50850469,-2.84069856,0.21379352,1.37668861

>  <Name>
ligand

>  <RI>
0

>  <Rbt.Current_Directory>
/home/itssahil/PROJECTS/Mol_Feturizer/New_Systems/rnas/3DIG

>  <Rbt.Executable>
rbdock ($Id: //depot/dev/client3/rdock/2013.1/src/exe/rbdock.cxx#4 $)

>  <Rbt.Library>
libRbt.so (2013.1, Build901 2013/11/27)

>  <Rbt.Parameter_File>
/export/apps/rDock/src/rDock_2013.1_src/data/scripts/dock_solv.prm

>  <Rbt.Receptor>
prm/blind_docking_100.prm

>  <SCORE>
-10.8927

>  <SCORE.INTER>
-11.5556

>  <SCORE.INTER.CONST>
1

>  <SCORE.INTER.POLAR>
0

>  <SCORE.INTER.ROT>
5

>  <SCORE.INTER.SOLV>
13.7395

>  <SCORE.INTER.VDW>
-19.2169

>  <SCORE.INTER.norm>
-1.15556

>  <SCORE.INTRA>
0.662907

>  <SCORE.INTRA.DIHEDRAL>
1.11303

>  <SCORE.INTRA.DIHEDRAL.0>
2.60093

>  <SCORE.INTRA.POLAR>
0

>  <SCORE.INTRA.POLAR.0>
0

>  <SCORE.INTRA.REPUL>
0

>  <SCORE.INTRA.REPUL.0>
0

>  <SCORE.INTRA.SOLV>
0.583115

>  <SCORE.INTRA.SOLV.lig_0>
-33.7882

>  <SCORE.INTRA.VDW>
-0.185167

>  <SCORE.INTRA.VDW.0>
-0.593976

>  <SCORE.INTRA.norm>
0.0662907

>  <SCORE.RESTR>
0

>  <SCORE.RESTR.CAVITY>
0

>  <SCORE.RESTR.norm>
0

>  <SCORE.SYSTEM>
0

>  <SCORE.SYSTEM.CONST>
0

>  <SCORE.SYSTEM.DIHEDRAL>
0

>  <SCORE.SYSTEM.SOLV>
0

>  <SCORE.SYSTEM.norm>
0

>  <SCORE.heavy>
10

>  <SCORE.norm>
-1.08927

>  <RMSD>
5.374

$$$$
ligand
 OpenBabel11021811473D
libRbt.so/2013.1/901 2013/11/27
 10  9  0  0  0  0  0  0  0  0999 V2000
   29.6388   15.9584   20.2760 N   0  0  0  0  0  0  0  0  0  0  0  0
   28.3953   15.3441   19.7256 C   0  0  2  0  0  0  0  0  0  0  0  0
   27.4072   15.0190   20.8079 C   0  0  0  0  0  0  0  0  0  0  0  0
   26.2050   15.2022   20.6413 O   0  0  0  0  0  0  0  0  0  0  0  0
   28.7482   14.1206   18.8848 C   0  0  0  0  0  0  0  0  0  0  0  0
   27.2561   13.4925   18.1787 S   0  0  0  0  0  0  0  0  0  0  0  0
   27.7599   11.8632   17.7319 C   0  0  0  0  0  0  0  0  0  0  0  0
   26.5313   10.9596   17.7005 C   0  0  0  0  0  0  0  0  0  0  0  0
   26.9378    9.5849   17.4892 N   0  0  0  0  0  0  0  0  0  0  0  0
   27.7366   14.5399   21.8908 O   0  0  0  0  0  0  0  0  0  0  0  0
  2  1  1  1  0  0  0
  2  3  1  0  0  0  0
  2  5  1  0  0  0  0
  3  4  1  0  0  0  0
  3 10  1  0  0  0  0
  5  6  1  0  0  0  0
  6  7  1  0  0  0  0
  7  8  1  0  0  0  0
  8  9  1  0  0  0  0
M  END
>  <CHROM.1>
140.42012896,-176.57551873,-162.06217994,154.42156806,-173.37109078,27.59697023
13.59795572,19.22881536,-1.33672573,-0.61204938,-2.39219813

>  <Name>
ligand

>  <RI>
0

>  <Rbt.Current_Directory>
/home/itssahil/PROJECTS/Mol_Feturizer/New_Systems/rnas/3DIG

>  <Rbt.Executable>
rbdock ($Id: //depot/dev/client3/rdock/2013.1/src/exe/rbdock.cxx#4 $)

>  <Rbt.Library>
libRbt.so (2013.1, Build901 2013/11/27)

>  <Rbt.Parameter_File>
/export/apps/rDock/src/rDock_2013.1_src/data/scripts/dock_solv.prm

>  <Rbt.Receptor>
prm/blind_docking_100.prm

>  <SCORE>
-10.2398

>  <SCORE.INTER>
-9.22586

>  <SCORE.INTER.CONST>
1

>  <SCORE.INTER.POLAR>
0

>  <SCORE.INTER.ROT>
5

>  <SCORE.INTER.SOLV>
13.6208

>  <SCORE.INTER.VDW>
-17.6242

>  <SCORE.INTER.norm>
-0.922586

>  <SCORE.INTRA>
-1.01552

>  <SCORE.INTRA.DIHEDRAL>
0.489141

>  <SCORE.INTRA.DIHEDRAL.0>
2.60093

>  <SCORE.INTRA.POLAR>
0

>  <SCORE.INTRA.POLAR.0>
0

>  <SCORE.INTRA.REPUL>
0

>  <SCORE.INTRA.REPUL.0>
0

>  <SCORE.INTRA.SOLV>
-1.56673

>  <SCORE.INTRA.SOLV.lig_0>
-33.7882

>  <SCORE.INTRA.VDW>
-0.47673

>  <SCORE.INTRA.VDW.0>
-0.593976

>  <SCORE.INTRA.norm>
-0.101552

>  <SCORE.RESTR>
0.00154461

>  <SCORE.RESTR.CAVITY>
0.00154461

>  <SCORE.RESTR.norm>
0.000154461

>  <SCORE.SYSTEM>
0

>  <SCORE.SYSTEM.CONST>
0

>  <SCORE.SYSTEM.DIHEDRAL>
0

>  <SCORE.SYSTEM.SOLV>
0

>  <SCORE.SYSTEM.norm>
0

>  <SCORE.heavy>
10

>  <SCORE.norm>
-1.02398

>  <RMSD>
5.377

$$$$
ligand
 OpenBabel11021811473D
libRbt.so/2013.1/901 2013/11/27
 10  9  0  0  0  0  0  0  0  0999 V2000
   26.2489   14.8255   20.9291 N   0  0  0  0  0  0  0  0  0  0  0  0
   27.3181   15.5064   20.1419 C   0  0  2  0  0  0  0  0  0  0  0  0
   27.8677   14.6191   19.0630 C   0  0  0  0  0  0  0  0  0  0  0  0
   28.9731   14.8307   18.5733 O   0  0  0  0  0  0  0  0  0  0  0  0
   28.4103   16.0138   21.0789 C   0  0  0  0  0  0  0  0  0  0  0  0
   29.0757   14.6266   21.9463 S   0  0  0  0  0  0  0  0  0  0  0  0
   30.4118   15.3849   22.8110 C   0  0  0  0  0  0  0  0  0  0  0  0
   31.5919   15.5378   21.8566 C   0  0  0  0  0  0  0  0  0  0  0  0
   31.3123   16.5835   20.8932 N   0  0  0  0  0  0  0  0  0  0  0  0
   27.2645   13.6379   18.6338 O   0  0  0  0  0  0  0  0  0  0  0  0
  2  1  1  1  0  0  0
  2  3  1  0  0  0  0
  2  5  1  0  0  0  0
  3  4  1  0  0  0  0
  3 10  1  0  0  0  0
  5  6  1  0  0  0  0
  6  7  1  0  0  0  0
  7  8  1  0  0  0  0
  8  9  1  0  0  0  0
M  END
>  <CHROM.1>
-159.00935331,59.53498073,173.82727366,-80.37974657,72.26485707,28.87732297
15.07816374,20.71889097,2.49848644,-0.26597576,-1.65404662

>  <Name>
ligand

>  <RI>
0

>  <Rbt.Current_Directory>
/home/itssahil/PROJECTS/Mol_Feturizer/New_Systems/rnas/3DIG

>  <Rbt.Executable>
rbdock ($Id: //depot/dev/client3/rdock/2013.1/src/exe/rbdock.cxx#4 $)

>  <Rbt.Library>
libRbt.so (2013.1, Build901 2013/11/27)

>  <Rbt.Parameter_File>
/export/apps/rDock/src/rDock_2013.1_src/data/scripts/dock_solv.prm

>  <Rbt.Receptor>
prm/pocket_docking_6.prm

>  <SCORE>
-10.0116

>  <SCORE.INTER>
-11.0412

>  <SCORE.INTER.CONST>
1

>  <SCORE.INTER.POLAR>
0

>  <SCORE.INTER.ROT>
5

>  <SCORE.INTER.SOLV>
16.7114

>  <SCORE.INTER.VDW>
-19.8646

>  <SCORE.INTER.norm>
-1.10412

>  <SCORE.INTRA>
1.0296

>  <SCORE.INTRA.DIHEDRAL>
0.173163

>  <SCORE.INTRA.DIHEDRAL.0>
2.60093

>  <SCORE.INTRA.POLAR>
0

>  <SCORE.INTRA.POLAR.0>
0

>  <SCORE.INTRA.REPUL>
0

>  <SCORE.INTRA.REPUL.0>
0

>  <SCORE.INTRA.SOLV>
1.84424

>  <SCORE.INTRA.SOLV.lig_0>
-33.7882

>  <SCORE.INTRA.VDW>
0.0209007

>  <SCORE.INTRA.VDW.0>
-0.593976

>  <SCORE.INTRA.norm>
0.10296

>  <SCORE.RESTR>
0

>  <SCORE.RESTR.CAVITY>
0

>  <SCORE.RESTR.norm>
0

>  <SCORE.SYSTEM>
0

>  <SCORE.SYSTEM.CONST>
0

>  <SCORE.SYSTEM.DIHEDRAL>
0

>  <SCORE.SYSTEM.SOLV>
0

>  <SCORE.SYSTEM.norm>
0

>  <SCORE.heavy>
10

>  <SCORE.norm>
-1.00116

>  <RMSD>
5.378

$$$$
ligand
 OpenBabel11021811473D
libRbt.so/2013.1/901 2013/11/27
 10  9  0  0  0  0  0  0  0  0999 V2000
   29.3841   14.8469   19.8116 N   0  0  0  0  0  0  0  0  0  0  0  0
   28.3825   14.3470   20.7982 C   0  0  2  0  0  0  0  0  0  0  0  0
   27.1138   15.1486   20.7605 C   0  0  0  0  0  0  0  0  0  0  0  0
   26.0790   14.7171   21.2602 O   0  0  0  0  0  0  0  0  0  0  0  0
   28.9989   14.3143   22.1937 C   0  0  0  0  0  0  0  0  0  0  0  0
   29.4557   15.9637   22.6294 S   0  0  0  0  0  0  0  0  0  0  0  0
   31.1320   15.9993   22.0849 C   0  0  0  0  0  0  0  0  0  0  0  0
   31.6951   17.3980   22.3167 C   0  0  0  0  0  0  0  0  0  0  0  0
   33.0897   17.4373   21.9251 N   0  0  0  0  0  0  0  0  0  0  0  0
   27.0462   16.2682   20.2579 O   0  0  0  0  0  0  0  0  0  0  0  0
  2  1  1  6  0  0  0
  2  3  1  0  0  0  0
  2  5  1  0  0  0  0
  3  4  1  0  0  0  0
  3 10  1  0  0  0  0
  5  6  1  0  0  0  0
  6  7  1  0  0  0  0
  7  8  1  0  0  0  0
  8  9  1  0  0  0  0
M  END
>  <CHROM.1>
163.07434028,61.31663073,-92.62422686,177.17154544,177.75209018,29.22790035
15.69086379,21.53878459,-2.92499435,0.39734739,1.66010972

>  <Name>
ligand

>  <RI>
0

>  <Rbt.Current_Directory>
/home/itssahil/PROJECTS/Mol_Feturizer/New_Systems/rnas/3DIG

>  <Rbt.Executable>
rbdock ($Id: //depot/dev/client3/rdock/2013.1/src/exe/rbdock.cxx#4 $)

>  <Rbt.Library>
libRbt.so (2013.1, Build901 2013/11/27)

>  <Rbt.Parameter_File>
/export/apps/rDock/src/rDock_2013.1_src/data/scripts/dock_solv.prm

>  <Rbt.Receptor>
prm/pocket_docking_4.prm

>  <SCORE>
-10.6222

>  <SCORE.INTER>
-10.63

>  <SCORE.INTER.CONST>
1

>  <SCORE.INTER.POLAR>
0

>  <SCORE.INTER.ROT>
5

>  <SCORE.INTER.SOLV>
13.0401

>  <SCORE.INTER.VDW>
-18.3667

>  <SCORE.INTER.norm>
-1.063

>  <SCORE.INTRA>
0.00778548

>  <SCORE.INTRA.DIHEDRAL>
0.267619

>  <SCORE.INTRA.DIHEDRAL.0>
2.60093

>  <SCORE.INTRA.POLAR>
0

>  <SCORE.INTRA.POLAR.0>
0

>  <SCORE.INTRA.REPUL>
0

>  <SCORE.INTRA.REPUL.0>
0

>  <SCORE.INTRA.SOLV>
0.765162

>  <SCORE.INTRA.SOLV.lig_0>
-33.7882

>  <SCORE.INTRA.VDW>
-0.508605

>  <SCORE.INTRA.VDW.0>
-0.593976

>  <SCORE.INTRA.norm>
0.000778548

>  <SCORE.RESTR>
0

>  <SCORE.RESTR.CAVITY>
0

>  <SCORE.RESTR.norm>
0

>  <SCORE.SYSTEM>
0

>  <SCORE.SYSTEM.CONST>
0

>  <SCORE.SYSTEM.DIHEDRAL>
0

>  <SCORE.SYSTEM.SOLV>
0

>  <SCORE.SYSTEM.norm>
0

>  <SCORE.heavy>
10

>  <SCORE.norm>
-1.06222

>  <RMSD>
5.380

$$$$
ligand
 OpenBabel11021811473D
libRbt.so/2013.1/901 2013/11/27
 10  9  0  0  0  0  0  0  0  0999 V2000
   29.2975   14.6788   19.7643 N   0  0  0  0  0  0  0  0  0  0  0  0
   28.3204   14.3219   20.8341 C   0  0  2  0  0  0  0  0  0  0  0  0
   27.0947   15.1870   20.7816 C   0  0  0  0  0  0  0  0  0  0  0  0
   27.1186   16.2835   20.2305 O   0  0  0  0  0  0  0  0  0  0  0  0
   29.0014   14.3744   22.1986 C   0  0  0  0  0  0  0  0  0  0  0  0
   29.6972   15.9849   22.4019 S   0  0  0  0  0  0  0  0  0  0  0  0
   31.3671   15.6888   21.9208 C   0  0  0  0  0  0  0  0  0  0  0  0
   32.1396   17.0023   21.9907 C   0  0  0  0  0  0  0  0  0  0  0  0
   33.4995   16.7974   21.5343 N   0  0  0  0  0  0  0  0  0  0  0  0
   26.0146   14.8439   21.2574 O   0  0  0  0  0  0  0  0  0  0  0  0
  2  1  1  6  0  0  0
  2  3  1  0  0  0  0
  2  5  1  0  0  0  0
  3  4  1  0  0  0  0
  3 10  1  0  0  0  0
  5  6  1  0  0  0  0
  6  7  1  0  0  0  0
  7  8  1  0  0  0  0
  8  9  1  0  0  0  0
M  END
>  <CHROM.1>
-21.69245342,56.05131482,-97.03880140,178.29988165,-177.12339656,29.35933853
15.58222651,21.41316118,-2.94131979,0.25604921,1.51890056

>  <Name>
ligand

>  <RI>
0

>  <Rbt.Current_Directory>
/home/itssahil/PROJECTS/Mol_Feturizer/New_Systems/rnas/3DIG

>  <Rbt.Executable>
rbdock ($Id: //depot/dev/client3/rdock/2013.1/src/exe/rbdock.cxx#4 $)

>  <Rbt.Library>
libRbt.so (2013.1, Build901 2013/11/27)

>  <Rbt.Parameter_File>
/export/apps/rDock/src/rDock_2013.1_src/data/scripts/dock_solv.prm

>  <Rbt.Receptor>
prm/blind_docking_60.prm

>  <SCORE>
-10.6546

>  <SCORE.INTER>
-10.8387

>  <SCORE.INTER.CONST>
1

>  <SCORE.INTER.POLAR>
0

>  <SCORE.INTER.ROT>
5

>  <SCORE.INTER.SOLV>
13.7254

>  <SCORE.INTER.VDW>
-18.7343

>  <SCORE.INTER.norm>
-1.08387

>  <SCORE.INTRA>
0.184079

>  <SCORE.INTRA.DIHEDRAL>
0.660746

>  <SCORE.INTRA.DIHEDRAL.0>
2.60093

>  <SCORE.INTRA.POLAR>
0

>  <SCORE.INTRA.POLAR.0>
0

>  <SCORE.INTRA.REPUL>
0

>  <SCORE.INTRA.REPUL.0>
0

>  <SCORE.INTRA.SOLV>
0.74027

>  <SCORE.INTRA.SOLV.lig_0>
-33.7882

>  <SCORE.INTRA.VDW>
-0.516429

>  <SCORE.INTRA.VDW.0>
-0.593976

>  <SCORE.INTRA.norm>
0.0184079

>  <SCORE.RESTR>
0

>  <SCORE.RESTR.CAVITY>
0

>  <SCORE.RESTR.norm>
0

>  <SCORE.SYSTEM>
0

>  <SCORE.SYSTEM.CONST>
0

>  <SCORE.SYSTEM.DIHEDRAL>
0

>  <SCORE.SYSTEM.SOLV>
0

>  <SCORE.SYSTEM.norm>
0

>  <SCORE.heavy>
10

>  <SCORE.norm>
-1.06546

>  <RMSD>
5.389

$$$$
ligand
 OpenBabel11021811473D
libRbt.so/2013.1/901 2013/11/27
 10  9  0  0  0  0  0  0  0  0999 V2000
   26.9340   16.1488   20.2623 N   0  0  0  0  0  0  0  0  0  0  0  0
   28.2040   15.4312   19.9484 C   0  0  2  0  0  0  0  0  0  0  0  0
   28.1954   14.8634   18.5588 C   0  0  0  0  0  0  0  0  0  0  0  0
   28.8555   15.3791   17.6616 O   0  0  0  0  0  0  0  0  0  0  0  0
   28.4712   14.3616   21.0034 C   0  0  0  0  0  0  0  0  0  0  0  0
   28.6268   15.1636   22.5692 S   0  0  0  0  0  0  0  0  0  0  0  0
   30.3695   15.4198   22.6398 C   0  0  0  0  0  0  0  0  0  0  0  0
   30.6899   16.7889   22.0482 C   0  0  0  0  0  0  0  0  0  0  0  0
   32.1085   17.0576   22.1715 N   0  0  0  0  0  0  0  0  0  0  0  0
   27.5585   13.8578   18.2525 O   0  0  0  0  0  0  0  0  0  0  0  0
  2  1  1  1  0  0  0
  2  3  1  0  0  0  0
  2  5  1  0  0  0  0
  3  4  1  0  0  0  0
  3 10  1  0  0  0  0
  5  6  1  0  0  0  0
  6  7  1  0  0  0  0
  7  8  1  0  0  0  0
  8  9  1  0  0  0  0
M  END
>  <CHROM.1>
105.90258987,-60.83739512,-92.48112209,91.31662598,176.44330220,28.95433981
15.40172719,20.70945398,2.21241820,-0.47936757,-1.57459764

>  <Name>
ligand

>  <RI>
0

>  <Rbt.Current_Directory>
/home/itssahil/PROJECTS/Mol_Feturizer/New_Systems/rnas/3DIG

>  <Rbt.Executable>
rbdock ($Id: //depot/dev/client3/rdock/2013.1/src/exe/rbdock.cxx#4 $)

>  <Rbt.Library>
libRbt.so (2013.1, Build901 2013/11/27)

>  <Rbt.Parameter_File>
/export/apps/rDock/src/rDock_2013.1_src/data/scripts/dock_solv.prm

>  <Rbt.Receptor>
prm/pocket_docking_7.prm

>  <SCORE>
-11.0793

>  <SCORE.INTER>
-11.4387

>  <SCORE.INTER.CONST>
1

>  <SCORE.INTER.POLAR>
0

>  <SCORE.INTER.ROT>
5

>  <SCORE.INTER.SOLV>
15.4571

>  <SCORE.INTER.VDW>
-19.7115

>  <SCORE.INTER.norm>
-1.14387

>  <SCORE.INTRA>
0.359428

>  <SCORE.INTRA.DIHEDRAL>
1.62102

>  <SCORE.INTRA.DIHEDRAL.0>
2.60093

>  <SCORE.INTRA.POLAR>
0

>  <SCORE.INTRA.POLAR.0>
0

>  <SCORE.INTRA.REPUL>
0

>  <SCORE.INTRA.REPUL.0>
0

>  <SCORE.INTRA.SOLV>
-0.0865341

>  <SCORE.INTRA.SOLV.lig_0>
-33.7882

>  <SCORE.INTRA.VDW>
-0.407813

>  <SCORE.INTRA.VDW.0>
-0.593976

>  <SCORE.INTRA.norm>
0.0359428

>  <SCORE.RESTR>
0

>  <SCORE.RESTR.CAVITY>
0

>  <SCORE.RESTR.norm>
0

>  <SCORE.SYSTEM>
0

>  <SCORE.SYSTEM.CONST>
0

>  <SCORE.SYSTEM.DIHEDRAL>
0

>  <SCORE.SYSTEM.SOLV>
0

>  <SCORE.SYSTEM.norm>
0

>  <SCORE.heavy>
10

>  <SCORE.norm>
-1.10793

>  <RMSD>
5.389

$$$$
ligand
 OpenBabel11021811473D
libRbt.so/2013.1/901 2013/11/27
 10  9  0  0  0  0  0  0  0  0999 V2000
   25.9969   15.1703   20.8452 N   0  0  0  0  0  0  0  0  0  0  0  0
   27.4661   15.3986   20.7199 C   0  0  2  0  0  0  0  0  0  0  0  0
   27.9547   15.1362   19.3250 C   0  0  0  0  0  0  0  0  0  0  0  0
   28.7606   15.8889   18.7859 O   0  0  0  0  0  0  0  0  0  0  0  0
   28.2123   14.5627   21.7557 C   0  0  0  0  0  0  0  0  0  0  0  0
   29.9432   14.8377   21.5376 S   0  0  0  0  0  0  0  0  0  0  0  0
   30.1829   16.2638   22.5459 C   0  0  0  0  0  0  0  0  0  0  0  0
   31.6693   16.6058   22.5690 C   0  0  0  0  0  0  0  0  0  0  0  0
   32.1191   16.9329   21.2309 N   0  0  0  0  0  0  0  0  0  0  0  0
   27.6005   14.1610   18.6659 O   0  0  0  0  0  0  0  0  0  0  0  0
  2  1  1  6  0  0  0
  2  3  1  0  0  0  0
  2  5  1  0  0  0  0
  3  4  1  0  0  0  0
  3 10  1  0  0  0  0
  5  6  1  0  0  0  0
  6  7  1  0  0  0  0
  7  8  1  0  0  0  0
  8  9  1  0  0  0  0
M  END
>  <CHROM.1>
137.39302570,178.58624658,87.11722783,175.90224447,62.39177141,29.10115768
15.41460649,20.84961103,2.65211823,-0.35952837,-1.53563537

>  <Name>
ligand

>  <RI>
0

>  <Rbt.Current_Directory>
/home/itssahil/PROJECTS/Mol_Feturizer/New_Systems/rnas/3DIG

>  <Rbt.Executable>
rbdock ($Id: //depot/dev/client3/rdock/2013.1/src/exe/rbdock.cxx#4 $)

>  <Rbt.Library>
libRbt.so (2013.1, Build901 2013/11/27)

>  <Rbt.Parameter_File>
/export/apps/rDock/src/rDock_2013.1_src/data/scripts/dock_solv.prm

>  <Rbt.Receptor>
prm/pocket_docking_8.prm

>  <SCORE>
-9.23804

>  <SCORE.INTER>
-8.45109

>  <SCORE.INTER.CONST>
1

>  <SCORE.INTER.POLAR>
0

>  <SCORE.INTER.ROT>
5

>  <SCORE.INTER.SOLV>
17.8425

>  <SCORE.INTER.VDW>
-18.5149

>  <SCORE.INTER.norm>
-0.845109

>  <SCORE.INTRA>
-0.78695

>  <SCORE.INTRA.DIHEDRAL>
-0.0606088

>  <SCORE.INTRA.DIHEDRAL.0>
2.60093

>  <SCORE.INTRA.POLAR>
0

>  <SCORE.INTRA.POLAR.0>
0

>  <SCORE.INTRA.REPUL>
0

>  <SCORE.INTRA.REPUL.0>
0

>  <SCORE.INTRA.SOLV>
-0.609217

>  <SCORE.INTRA.SOLV.lig_0>
-33.7882

>  <SCORE.INTRA.VDW>
-0.452037

>  <SCORE.INTRA.VDW.0>
-0.593976

>  <SCORE.INTRA.norm>
-0.078695

>  <SCORE.RESTR>
0

>  <SCORE.RESTR.CAVITY>
0

>  <SCORE.RESTR.norm>
0

>  <SCORE.SYSTEM>
0

>  <SCORE.SYSTEM.CONST>
0

>  <SCORE.SYSTEM.DIHEDRAL>
0

>  <SCORE.SYSTEM.SOLV>
0

>  <SCORE.SYSTEM.norm>
0

>  <SCORE.heavy>
10

>  <SCORE.norm>
-0.923804

>  <RMSD>
5.394

$$$$
ligand
 OpenBabel11021811473D
libRbt.so/2013.1/901 2013/11/27
 10  9  0  0  0  0  0  0  0  0999 V2000
   27.5714   14.6114   20.6915 N   0  0  0  0  0  0  0  0  0  0  0  0
   27.9504   15.6507   19.6902 C   0  0  2  0  0  0  0  0  0  0  0  0
   28.5449   15.0431   18.4529 C   0  0  0  0  0  0  0  0  0  0  0  0
   28.7906   13.8419   18.3945 O   0  0  0  0  0  0  0  0  0  0  0  0
   28.8827   16.6746   20.3312 C   0  0  0  0  0  0  0  0  0  0  0  0
   30.3071   15.8191   20.9298 S   0  0  0  0  0  0  0  0  0  0  0  0
   31.0353   17.0588   21.9499 C   0  0  0  0  0  0  0  0  0  0  0  0
   32.4411   16.6126   22.3391 C   0  0  0  0  0  0  0  0  0  0  0  0
   33.2951   16.6030   21.1685 N   0  0  0  0  0  0  0  0  0  0  0  0
   28.7929   15.6960   17.4415 O   0  0  0  0  0  0  0  0  0  0  0  0
  2  1  1  1  0  0  0
  2  3  1  0  0  0  0
  2  5  1  0  0  0  0
  3  4  1  0  0  0  0
  3 10  1  0  0  0  0
  5  6  1  0  0  0  0
  6  7  1  0  0  0  0
  7  8  1  0  0  0  0
  8  9  1  0  0  0  0
M  END
>  <CHROM.1>
-6.93333842,58.60269976,-166.76114674,-168.41264358,67.69141504,29.82567141
15.75291855,20.19745394,2.42833953,-0.22420769,-1.82599133

>  <Name>
ligand

>  <RI>
0

>  <Rbt.Current_Directory>
/home/itssahil/PROJECTS/Mol_Feturizer/New_Systems/rnas/3DIG

>  <Rbt.Executable>
rbdock ($Id: //depot/dev/client3/rdock/2013.1/src/exe/rbdock.cxx#4 $)

>  <Rbt.Library>
libRbt.so (2013.1, Build901 2013/11/27)

>  <Rbt.Parameter_File>
/export/apps/rDock/src/rDock_2013.1_src/data/scripts/dock_solv.prm

>  <Rbt.Receptor>
prm/pocket_docking_5.prm

>  <SCORE>
-10.0151

>  <SCORE.INTER>
-9.70357

>  <SCORE.INTER.CONST>
1

>  <SCORE.INTER.POLAR>
0

>  <SCORE.INTER.ROT>
5

>  <SCORE.INTER.SOLV>
13.9849

>  <SCORE.INTER.VDW>
-18.064

>  <SCORE.INTER.norm>
-0.970357

>  <SCORE.INTRA>
-0.311549

>  <SCORE.INTRA.DIHEDRAL>
-0.363498

>  <SCORE.INTRA.DIHEDRAL.0>
2.60093

>  <SCORE.INTRA.POLAR>
0

>  <SCORE.INTRA.POLAR.0>
0

>  <SCORE.INTRA.REPUL>
0

>  <SCORE.INTRA.REPUL.0>
0

>  <SCORE.INTRA.SOLV>
0.412868

>  <SCORE.INTRA.SOLV.lig_0>
-33.7882

>  <SCORE.INTRA.VDW>
-0.336234

>  <SCORE.INTRA.VDW.0>
-0.593976

>  <SCORE.INTRA.norm>
-0.0311549

>  <SCORE.RESTR>
0

>  <SCORE.RESTR.CAVITY>
0

>  <SCORE.RESTR.norm>
0

>  <SCORE.SYSTEM>
0

>  <SCORE.SYSTEM.CONST>
0

>  <SCORE.SYSTEM.DIHEDRAL>
0

>  <SCORE.SYSTEM.SOLV>
0

>  <SCORE.SYSTEM.norm>
0

>  <SCORE.heavy>
10

>  <SCORE.norm>
-1.00151

>  <RMSD>
5.398

$$$$
ligand
 OpenBabel11021811473D
libRbt.so/2013.1/901 2013/11/27
 10  9  0  0  0  0  0  0  0  0999 V2000
   27.0758   16.3959   20.0453 N   0  0  0  0  0  0  0  0  0  0  0  0
   28.1218   15.3712   20.3323 C   0  0  2  0  0  0  0  0  0  0  0  0
   28.2459   14.3730   19.2180 C   0  0  0  0  0  0  0  0  0  0  0  0
   27.2925   13.6744   18.8869 O   0  0  0  0  0  0  0  0  0  0  0  0
   27.8389   14.7011   21.6737 C   0  0  0  0  0  0  0  0  0  0  0  0
   29.3866   14.3640   22.4549 S   0  0  0  0  0  0  0  0  0  0  0  0
   30.0025   15.9988   22.6916 C   0  0  0  0  0  0  0  0  0  0  0  0
   31.5259   15.9660   22.6181 C   0  0  0  0  0  0  0  0  0  0  0  0
   32.0508   17.3142   22.7000 N   0  0  0  0  0  0  0  0  0  0  0  0
   29.2804   14.2180   18.5727 O   0  0  0  0  0  0  0  0  0  0  0  0
  2  1  1  6  0  0  0
  2  3  1  0  0  0  0
  2  5  1  0  0  0  0
  3  4  1  0  0  0  0
  3 10  1  0  0  0  0
  5  6  1  0  0  0  0
  6  7  1  0  0  0  0
  7  8  1  0  0  0  0
  8  9  1  0  0  0  0
M  END
>  <CHROM.1>
-60.10013185,-144.18509752,63.78358843,-149.03412433,175.32753700,29.11343155
15.11638751,21.06417916,-2.40917635,0.52690005,1.62172883

>  <Name>
ligand

>  <RI>
0

>  <Rbt.Current_Directory>
/home/itssahil/PROJECTS/Mol_Feturizer/New_Systems/rnas/3DIG

>  <Rbt.Executable>
rbdock ($Id: //depot/dev/client3/rdock/2013.1/src/exe/rbdock.cxx#4 $)

>  <Rbt.Library>
libRbt.so (2013.1, Build901 2013/11/27)

>  <Rbt.Parameter_File>
/export/apps/rDock/src/rDock_2013.1_src/data/scripts/dock_solv.prm

>  <Rbt.Receptor>
prm/blind_docking_80.prm

>  <SCORE>
-8.76079

>  <SCORE.INTER>
-9.71796

>  <SCORE.INTER.CONST>
1

>  <SCORE.INTER.POLAR>
0

>  <SCORE.INTER.ROT>
5

>  <SCORE.INTER.SOLV>
16.9332

>  <SCORE.INTER.VDW>
-19.0564

>  <SCORE.INTER.norm>
-0.971796

>  <SCORE.INTRA>
0.957169

>  <SCORE.INTRA.DIHEDRAL>
3.64469

>  <SCORE.INTRA.DIHEDRAL.0>
2.60093

>  <SCORE.INTRA.POLAR>
0

>  <SCORE.INTRA.POLAR.0>
0

>  <SCORE.INTRA.REPUL>
0

>  <SCORE.INTRA.REPUL.0>
0

>  <SCORE.INTRA.SOLV>
-0.926939

>  <SCORE.INTRA.SOLV.lig_0>
-33.7882

>  <SCORE.INTRA.VDW>
-0.401705

>  <SCORE.INTRA.VDW.0>
-0.593976

>  <SCORE.INTRA.norm>
0.0957169

>  <SCORE.RESTR>
0

>  <SCORE.RESTR.CAVITY>
0

>  <SCORE.RESTR.norm>
0

>  <SCORE.SYSTEM>
0

>  <SCORE.SYSTEM.CONST>
0

>  <SCORE.SYSTEM.DIHEDRAL>
0

>  <SCORE.SYSTEM.SOLV>
0

>  <SCORE.SYSTEM.norm>
0

>  <SCORE.heavy>
10

>  <SCORE.norm>
-0.876079

>  <RMSD>
5.400

$$$$
ligand
 OpenBabel11021811473D
libRbt.so/2013.1/901 2013/11/27
 10  9  0  0  0  0  0  0  0  0999 V2000
   26.8315   14.5582   20.7008 N   0  0  0  0  0  0  0  0  0  0  0  0
   27.9705   15.2489   20.0284 C   0  0  2  0  0  0  0  0  0  0  0  0
   28.0823   14.8622   18.5822 C   0  0  0  0  0  0  0  0  0  0  0  0
   27.4516   13.9102   18.1324 O   0  0  0  0  0  0  0  0  0  0  0  0
   29.2637   14.9851   20.7943 C   0  0  0  0  0  0  0  0  0  0  0  0
   29.1342   15.7658   22.3732 S   0  0  0  0  0  0  0  0  0  0  0  0
   30.8045   15.6710   22.9290 C   0  0  0  0  0  0  0  0  0  0  0  0
   31.5754   16.8658   22.3767 C   0  0  0  0  0  0  0  0  0  0  0  0
   31.6961   16.7499   20.9373 N   0  0  0  0  0  0  0  0  0  0  0  0
   28.7794   15.4778   17.7786 O   0  0  0  0  0  0  0  0  0  0  0  0
  2  1  1  1  0  0  0
  2  3  1  0  0  0  0
  2  5  1  0  0  0  0
  3  4  1  0  0  0  0
  3 10  1  0  0  0  0
  5  6  1  0  0  0  0
  6  7  1  0  0  0  0
  7  8  1  0  0  0  0
  8  9  1  0  0  0  0
M  END
>  <CHROM.1>
-12.39195037,-66.26088685,-167.64352617,85.35791467,-67.60435376,29.15136762
15.44001340,20.64397124,2.29812401,-0.45014381,-1.61801970

>  <Name>
ligand

>  <RI>
0

>  <Rbt.Current_Directory>
/home/itssahil/PROJECTS/Mol_Feturizer/New_Systems/rnas/3DIG

>  <Rbt.Executable>
rbdock ($Id: //depot/dev/client3/rdock/2013.1/src/exe/rbdock.cxx#4 $)

>  <Rbt.Library>
libRbt.so (2013.1, Build901 2013/11/27)

>  <Rbt.Parameter_File>
/export/apps/rDock/src/rDock_2013.1_src/data/scripts/dock_solv.prm

>  <Rbt.Receptor>
prm/pocket_docking_3.prm

>  <SCORE>
-9.62246

>  <SCORE.INTER>
-10.3827

>  <SCORE.INTER.CONST>
1

>  <SCORE.INTER.POLAR>
0

>  <SCORE.INTER.ROT>
5

>  <SCORE.INTER.SOLV>
15.2096

>  <SCORE.INTER.VDW>
-18.925

>  <SCORE.INTER.norm>
-1.03827

>  <SCORE.INTRA>
0.757079

>  <SCORE.INTRA.DIHEDRAL>
0.42797

>  <SCORE.INTRA.DIHEDRAL.0>
2.60093

>  <SCORE.INTRA.POLAR>
0

>  <SCORE.INTRA.POLAR.0>
0

>  <SCORE.INTRA.REPUL>
0

>  <SCORE.INTRA.REPUL.0>
0

>  <SCORE.INTRA.SOLV>
1.55084

>  <SCORE.INTRA.SOLV.lig_0>
-33.7882

>  <SCORE.INTRA.VDW>
-0.232326

>  <SCORE.INTRA.VDW.0>
-0.593976

>  <SCORE.INTRA.norm>
0.0757079

>  <SCORE.RESTR>
0.0031652

>  <SCORE.RESTR.CAVITY>
0.0031652

>  <SCORE.RESTR.norm>
0.00031652

>  <SCORE.SYSTEM>
0

>  <SCORE.SYSTEM.CONST>
0

>  <SCORE.SYSTEM.DIHEDRAL>
0

>  <SCORE.SYSTEM.SOLV>
0

>  <SCORE.SYSTEM.norm>
0

>  <SCORE.heavy>
10

>  <SCORE.norm>
-0.962246

>  <RMSD>
5.400

$$$$
ligand
 OpenBabel11021811473D
libRbt.so/2013.1/901 2013/11/27
 10  9  0  0  0  0  0  0  0  0999 V2000
   29.2611   14.9638   19.6695 N   0  0  0  0  0  0  0  0  0  0  0  0
   28.2740   14.3798   20.6240 C   0  0  2  0  0  0  0  0  0  0  0  0
   27.0160   15.1959   20.6948 C   0  0  0  0  0  0  0  0  0  0  0  0
   26.0304   14.7858   21.3005 O   0  0  0  0  0  0  0  0  0  0  0  0
   28.9196   14.2010   21.9950 C   0  0  0  0  0  0  0  0  0  0  0  0
   29.3791   15.7968   22.5963 S   0  0  0  0  0  0  0  0  0  0  0  0
   31.0459   15.8977   22.0313 C   0  0  0  0  0  0  0  0  0  0  0  0
   31.6224   17.2502   22.4380 C   0  0  0  0  0  0  0  0  0  0  0  0
   32.9835   17.3692   21.9556 N   0  0  0  0  0  0  0  0  0  0  0  0
   26.9115   16.3073   20.1804 O   0  0  0  0  0  0  0  0  0  0  0  0
  2  1  1  6  0  0  0
  2  3  1  0  0  0  0
  2  5  1  0  0  0  0
  3  4  1  0  0  0  0
  3 10  1  0  0  0  0
  5  6  1  0  0  0  0
  6  7  1  0  0  0  0
  7  8  1  0  0  0  0
  8  9  1  0  0  0  0
M  END
>  <CHROM.1>
171.08278354,62.43382182,-92.87841676,178.84698833,-178.62535067,29.13663368
15.64667817,21.48780877,-2.93597954,0.38952107,1.75585678

>  <Name>
ligand

>  <RI>
0

>  <Rbt.Current_Directory>
/home/itssahil/PROJECTS/Mol_Feturizer/New_Systems/rnas/3DIG

>  <Rbt.Executable>
rbdock ($Id: //depot/dev/client3/rdock/2013.1/src/exe/rbdock.cxx#4 $)

>  <Rbt.Library>
libRbt.so (2013.1, Build901 2013/11/27)

>  <Rbt.Parameter_File>
/export/apps/rDock/src/rDock_2013.1_src/data/scripts/dock_solv.prm

>  <Rbt.Receptor>
prm/pocket_docking_3.prm

>  <SCORE>
-10.5265

>  <SCORE.INTER>
-10.5835

>  <SCORE.INTER.CONST>
1

>  <SCORE.INTER.POLAR>
0

>  <SCORE.INTER.ROT>
5

>  <SCORE.INTER.SOLV>
12.5066

>  <SCORE.INTER.VDW>
-18.1579

>  <SCORE.INTER.norm>
-1.05835

>  <SCORE.INTRA>
0.0570287

>  <SCORE.INTRA.DIHEDRAL>
0.291332

>  <SCORE.INTRA.DIHEDRAL.0>
2.60093

>  <SCORE.INTRA.POLAR>
0

>  <SCORE.INTRA.POLAR.0>
0

>  <SCORE.INTRA.REPUL>
0

>  <SCORE.INTRA.REPUL.0>
0

>  <SCORE.INTRA.SOLV>
0.720232

>  <SCORE.INTRA.SOLV.lig_0>
-33.7882

>  <SCORE.INTRA.VDW>
-0.448753

>  <SCORE.INTRA.VDW.0>
-0.593976

>  <SCORE.INTRA.norm>
0.00570287

>  <SCORE.RESTR>
0

>  <SCORE.RESTR.CAVITY>
0

>  <SCORE.RESTR.norm>
0

>  <SCORE.SYSTEM>
0

>  <SCORE.SYSTEM.CONST>
0

>  <SCORE.SYSTEM.DIHEDRAL>
0

>  <SCORE.SYSTEM.SOLV>
0

>  <SCORE.SYSTEM.norm>
0

>  <SCORE.heavy>
10

>  <SCORE.norm>
-1.05265

>  <RMSD>
5.404

$$$$
ligand
 OpenBabel11021811473D
libRbt.so/2013.1/901 2013/11/27
 10  9  0  0  0  0  0  0  0  0999 V2000
   26.6747   14.6530   20.7704 N   0  0  0  0  0  0  0  0  0  0  0  0
   27.5864   15.5751   20.0321 C   0  0  2  0  0  0  0  0  0  0  0  0
   28.2651   14.8874   18.8833 C   0  0  0  0  0  0  0  0  0  0  0  0
   28.5787   15.5080   17.8718 O   0  0  0  0  0  0  0  0  0  0  0  0
   28.5878   16.2003   20.9989 C   0  0  0  0  0  0  0  0  0  0  0  0
   29.4291   14.8930   21.8371 S   0  0  0  0  0  0  0  0  0  0  0  0
   30.6501   15.8007   22.7277 C   0  0  0  0  0  0  0  0  0  0  0  0
   31.7216   16.2738   21.7504 C   0  0  0  0  0  0  0  0  0  0  0  0
   32.6982   17.0862   22.4477 N   0  0  0  0  0  0  0  0  0  0  0  0
   28.5595   13.6942   18.8992 O   0  0  0  0  0  0  0  0  0  0  0  0
  2  1  1  1  0  0  0
  2  3  1  0  0  0  0
  2  5  1  0  0  0  0
  3  4  1  0  0  0  0
  3 10  1  0  0  0  0
  5  6  1  0  0  0  0
  6  7  1  0  0  0  0
  7  8  1  0  0  0  0
  8  9  1  0  0  0  0
M  END
>  <CHROM.1>
149.37495983,55.45654486,173.20265554,-73.76742365,176.83969989,29.29845524
15.37841123,20.72959801,2.46516893,-0.38695480,-1.57922442

>  <Name>
ligand

>  <RI>
0

>  <Rbt.Current_Directory>
/home/itssahil/PROJECTS/Mol_Feturizer/New_Systems/rnas/3DIG

>  <Rbt.Executable>
rbdock ($Id: //depot/dev/client3/rdock/2013.1/src/exe/rbdock.cxx#4 $)

>  <Rbt.Library>
libRbt.so (2013.1, Build901 2013/11/27)

>  <Rbt.Parameter_File>
/export/apps/rDock/src/rDock_2013.1_src/data/scripts/dock_solv.prm

>  <Rbt.Receptor>
prm/blind_docking_100.prm

>  <SCORE>
-10.8601

>  <SCORE.INTER>
-10.0216

>  <SCORE.INTER.CONST>
1

>  <SCORE.INTER.POLAR>
0

>  <SCORE.INTER.ROT>
5

>  <SCORE.INTER.SOLV>
16.286

>  <SCORE.INTER.VDW>
-19.043

>  <SCORE.INTER.norm>
-1.00216

>  <SCORE.INTRA>
-0.838559

>  <SCORE.INTRA.DIHEDRAL>
-0.668866

>  <SCORE.INTRA.DIHEDRAL.0>
2.60093

>  <SCORE.INTRA.POLAR>
0

>  <SCORE.INTRA.POLAR.0>
0

>  <SCORE.INTRA.REPUL>
0

>  <SCORE.INTRA.REPUL.0>
0

>  <SCORE.INTRA.SOLV>
-0.397248

>  <SCORE.INTRA.SOLV.lig_0>
-33.7882

>  <SCORE.INTRA.VDW>
-0.305502

>  <SCORE.INTRA.VDW.0>
-0.593976

>  <SCORE.INTRA.norm>
-0.0838559

>  <SCORE.RESTR>
0

>  <SCORE.RESTR.CAVITY>
0

>  <SCORE.RESTR.norm>
0

>  <SCORE.SYSTEM>
0

>  <SCORE.SYSTEM.CONST>
0

>  <SCORE.SYSTEM.DIHEDRAL>
0

>  <SCORE.SYSTEM.SOLV>
0

>  <SCORE.SYSTEM.norm>
0

>  <SCORE.heavy>
10

>  <SCORE.norm>
-1.08601

>  <RMSD>
5.405

$$$$
ligand
 OpenBabel11021811473D
libRbt.so/2013.1/901 2013/11/27
 10  9  0  0  0  0  0  0  0  0999 V2000
   27.3193   16.2714   20.0642 N   0  0  0  0  0  0  0  0  0  0  0  0
   28.3775   15.2194   20.0519 C   0  0  2  0  0  0  0  0  0  0  0  0
   28.2660   14.3297   18.8481 C   0  0  0  0  0  0  0  0  0  0  0  0
   29.2590   14.0239   18.1946 O   0  0  0  0  0  0  0  0  0  0  0  0
   28.3386   14.4277   21.3558 C   0  0  0  0  0  0  0  0  0  0  0  0
   29.2569   15.3247   22.5688 S   0  0  0  0  0  0  0  0  0  0  0  0
   30.8953   15.1498   21.9418 C   0  0  0  0  0  0  0  0  0  0  0  0
   31.8246   16.0663   22.7313 C   0  0  0  0  0  0  0  0  0  0  0  0
   31.4915   17.4512   22.4649 N   0  0  0  0  0  0  0  0  0  0  0  0
   27.2000   13.8487   18.4698 O   0  0  0  0  0  0  0  0  0  0  0  0
  2  1  1  1  0  0  0
  2  3  1  0  0  0  0
  2  5  1  0  0  0  0
  3  4  1  0  0  0  0
  3 10  1  0  0  0  0
  5  6  1  0  0  0  0
  6  7  1  0  0  0  0
  7  8  1  0  0  0  0
  8  9  1  0  0  0  0
M  END
>  <CHROM.1>
134.95836671,-83.54027554,-68.99939180,170.39353429,-66.68830515,29.21952894
15.20321765,20.85321468,2.19656647,-0.08930251,-1.95646904

>  <Name>
ligand

>  <RI>
0

>  <Rbt.Current_Directory>
/home/itssahil/PROJECTS/Mol_Feturizer/New_Systems/rnas/3DIG

>  <Rbt.Executable>
rbdock ($Id: //depot/dev/client3/rdock/2013.1/src/exe/rbdock.cxx#4 $)

>  <Rbt.Library>
libRbt.so (2013.1, Build901 2013/11/27)

>  <Rbt.Parameter_File>
/export/apps/rDock/src/rDock_2013.1_src/data/scripts/dock_solv.prm

>  <Rbt.Receptor>
prm/pocket_docking_4.prm

>  <SCORE>
-9.79386

>  <SCORE.INTER>
-9.99146

>  <SCORE.INTER.CONST>
1

>  <SCORE.INTER.POLAR>
0

>  <SCORE.INTER.ROT>
5

>  <SCORE.INTER.SOLV>
15.7493

>  <SCORE.INTER.VDW>
-18.8441

>  <SCORE.INTER.norm>
-0.999146

>  <SCORE.INTRA>
0.197598

>  <SCORE.INTRA.DIHEDRAL>
1.01062

>  <SCORE.INTRA.DIHEDRAL.0>
2.60093

>  <SCORE.INTRA.POLAR>
0

>  <SCORE.INTRA.POLAR.0>
0

>  <SCORE.INTRA.REPUL>
0

>  <SCORE.INTRA.REPUL.0>
0

>  <SCORE.INTRA.SOLV>
0.302668

>  <SCORE.INTRA.SOLV.lig_0>
-33.7882

>  <SCORE.INTRA.VDW>
-0.459045

>  <SCORE.INTRA.VDW.0>
-0.593976

>  <SCORE.INTRA.norm>
0.0197598

>  <SCORE.RESTR>
0

>  <SCORE.RESTR.CAVITY>
0

>  <SCORE.RESTR.norm>
0

>  <SCORE.SYSTEM>
0

>  <SCORE.SYSTEM.CONST>
0

>  <SCORE.SYSTEM.DIHEDRAL>
0

>  <SCORE.SYSTEM.SOLV>
0

>  <SCORE.SYSTEM.norm>
0

>  <SCORE.heavy>
10

>  <SCORE.norm>
-0.979386

>  <RMSD>
5.411

$$$$
ligand
 OpenBabel11021811473D
libRbt.so/2013.1/901 2013/11/27
 10  9  0  0  0  0  0  0  0  0999 V2000
   28.3870   14.1103   18.8871 N   0  0  0  0  0  0  0  0  0  0  0  0
   28.3663   14.3251   20.3635 C   0  0  2  0  0  0  0  0  0  0  0  0
   27.1600   15.1063   20.7970 C   0  0  0  0  0  0  0  0  0  0  0  0
   26.8634   16.1649   20.2510 O   0  0  0  0  0  0  0  0  0  0  0  0
   29.6677   14.9841   20.8113 C   0  0  0  0  0  0  0  0  0  0  0  0
   29.6555   15.0783   22.5749 S   0  0  0  0  0  0  0  0  0  0  0  0
   31.2560   15.7500   22.8831 C   0  0  0  0  0  0  0  0  0  0  0  0
   31.2794   17.2011   22.4132 C   0  0  0  0  0  0  0  0  0  0  0  0
   32.6014   17.7603   22.6114 N   0  0  0  0  0  0  0  0  0  0  0  0
   26.4041   14.7271   21.6889 O   0  0  0  0  0  0  0  0  0  0  0  0
  2  1  1  6  0  0  0
  2  3  1  0  0  0  0
  2  5  1  0  0  0  0
  3  4  1  0  0  0  0
  3 10  1  0  0  0  0
  5  6  1  0  0  0  0
  6  7  1  0  0  0  0
  7  8  1  0  0  0  0
  8  9  1  0  0  0  0
M  END
>  <CHROM.1>
-50.71943155,-174.82052687,176.28074935,70.00786137,-177.90859169,29.18712444
15.48148063,21.47347454,-2.60588315,0.26915190,1.28863282

>  <Name>
ligand

>  <RI>
0

>  <Rbt.Current_Directory>
/home/itssahil/PROJECTS/Mol_Feturizer/New_Systems/rnas/3DIG

>  <Rbt.Executable>
rbdock ($Id: //depot/dev/client3/rdock/2013.1/src/exe/rbdock.cxx#4 $)

>  <Rbt.Library>
libRbt.so (2013.1, Build901 2013/11/27)

>  <Rbt.Parameter_File>
/export/apps/rDock/src/rDock_2013.1_src/data/scripts/dock_solv.prm

>  <Rbt.Receptor>
prm/pocket_docking_3.prm

>  <SCORE>
-11.8019

>  <SCORE.INTER>
-10.611

>  <SCORE.INTER.CONST>
1

>  <SCORE.INTER.POLAR>
0

>  <SCORE.INTER.ROT>
5

>  <SCORE.INTER.SOLV>
14.5654

>  <SCORE.INTER.VDW>
-18.8625

>  <SCORE.INTER.norm>
-1.0611

>  <SCORE.INTRA>
-1.19088

>  <SCORE.INTRA.DIHEDRAL>
-0.777741

>  <SCORE.INTRA.DIHEDRAL.0>
2.60093

>  <SCORE.INTRA.POLAR>
0

>  <SCORE.INTRA.POLAR.0>
0

>  <SCORE.INTRA.REPUL>
0

>  <SCORE.INTRA.REPUL.0>
0

>  <SCORE.INTRA.SOLV>
-1.32948

>  <SCORE.INTRA.SOLV.lig_0>
-33.7882

>  <SCORE.INTRA.VDW>
-0.137265

>  <SCORE.INTRA.VDW.0>
-0.593976

>  <SCORE.INTRA.norm>
-0.119088

>  <SCORE.RESTR>
0

>  <SCORE.RESTR.CAVITY>
0

>  <SCORE.RESTR.norm>
0

>  <SCORE.SYSTEM>
0

>  <SCORE.SYSTEM.CONST>
0

>  <SCORE.SYSTEM.DIHEDRAL>
0

>  <SCORE.SYSTEM.SOLV>
0

>  <SCORE.SYSTEM.norm>
0

>  <SCORE.heavy>
10

>  <SCORE.norm>
-1.18019

>  <RMSD>
5.418

$$$$
ligand
 OpenBabel11021811473D
libRbt.so/2013.1/901 2013/11/27
 10  9  0  0  0  0  0  0  0  0999 V2000
   27.6308   14.2203   18.8538 N   0  0  0  0  0  0  0  0  0  0  0  0
   28.0985   14.7544   20.1662 C   0  0  2  0  0  0  0  0  0  0  0  0
   26.9740   14.8719   21.1537 C   0  0  0  0  0  0  0  0  0  0  0  0
   27.1796   14.7727   22.3597 O   0  0  0  0  0  0  0  0  0  0  0  0
   28.8211   16.0824   19.9592 C   0  0  0  0  0  0  0  0  0  0  0  0
   29.4949   16.5871   21.5118 S   0  0  0  0  0  0  0  0  0  0  0  0
   30.7089   15.3351   21.7700 C   0  0  0  0  0  0  0  0  0  0  0  0
   31.9718   15.7080   21.0001 C   0  0  0  0  0  0  0  0  0  0  0  0
   32.5627   16.9004   21.5737 N   0  0  0  0  0  0  0  0  0  0  0  0
   25.8120   15.0921   20.8191 O   0  0  0  0  0  0  0  0  0  0  0  0
  2  1  1  6  0  0  0
  2  3  1  0  0  0  0
  2  5  1  0  0  0  0
  3  4  1  0  0  0  0
  3 10  1  0  0  0  0
  5  6  1  0  0  0  0
  6  7  1  0  0  0  0
  7  8  1  0  0  0  0
  8  9  1  0  0  0  0
M  END
>  <CHROM.1>
151.03777279,-174.30990443,66.63101707,82.65994923,66.50868168,28.95936501
15.56220486,21.00274915,-2.90488831,0.24085394,1.24073547

>  <Name>
ligand

>  <RI>
0

>  <Rbt.Current_Directory>
/home/itssahil/PROJECTS/Mol_Feturizer/New_Systems/rnas/3DIG

>  <Rbt.Executable>
rbdock ($Id: //depot/dev/client3/rdock/2013.1/src/exe/rbdock.cxx#4 $)

>  <Rbt.Library>
libRbt.so (2013.1, Build901 2013/11/27)

>  <Rbt.Parameter_File>
/export/apps/rDock/src/rDock_2013.1_src/data/scripts/dock_solv.prm

>  <Rbt.Receptor>
prm/pocket_docking_7.prm

>  <SCORE>
-11.8115

>  <SCORE.INTER>
-11.5024

>  <SCORE.INTER.CONST>
1

>  <SCORE.INTER.POLAR>
0

>  <SCORE.INTER.ROT>
5

>  <SCORE.INTER.SOLV>
14.5488

>  <SCORE.INTER.VDW>
-19.4512

>  <SCORE.INTER.norm>
-1.15024

>  <SCORE.INTRA>
-0.309139

>  <SCORE.INTRA.DIHEDRAL>
-0.0426627

>  <SCORE.INTRA.DIHEDRAL.0>
2.60093

>  <SCORE.INTRA.POLAR>
0

>  <SCORE.INTRA.POLAR.0>
0

>  <SCORE.INTRA.REPUL>
0

>  <SCORE.INTRA.REPUL.0>
0

>  <SCORE.INTRA.SOLV>
-0.0891519

>  <SCORE.INTRA.SOLV.lig_0>
-33.7882

>  <SCORE.INTRA.VDW>
-0.243232

>  <SCORE.INTRA.VDW.0>
-0.593976

>  <SCORE.INTRA.norm>
-0.0309139

>  <SCORE.RESTR>
0

>  <SCORE.RESTR.CAVITY>
0

>  <SCORE.RESTR.norm>
0

>  <SCORE.SYSTEM>
0

>  <SCORE.SYSTEM.CONST>
0

>  <SCORE.SYSTEM.DIHEDRAL>
0

>  <SCORE.SYSTEM.SOLV>
0

>  <SCORE.SYSTEM.norm>
0

>  <SCORE.heavy>
10

>  <SCORE.norm>
-1.18115

>  <RMSD>
5.418

$$$$
ligand
 OpenBabel11021811473D
libRbt.so/2013.1/901 2013/11/27
 10  9  0  0  0  0  0  0  0  0999 V2000
   26.2132   14.8204   20.9314 N   0  0  0  0  0  0  0  0  0  0  0  0
   27.2461   15.5697   20.1579 C   0  0  2  0  0  0  0  0  0  0  0  0
   27.7519   14.7763   18.9882 C   0  0  0  0  0  0  0  0  0  0  0  0
   27.3726   13.6252   18.7944 O   0  0  0  0  0  0  0  0  0  0  0  0
   28.3757   16.0062   21.0863 C   0  0  0  0  0  0  0  0  0  0  0  0
   29.0411   14.5624   21.8558 S   0  0  0  0  0  0  0  0  0  0  0  0
   30.3548   15.2639   22.7991 C   0  0  0  0  0  0  0  0  0  0  0  0
   31.5604   15.4687   21.8872 C   0  0  0  0  0  0  0  0  0  0  0  0
   31.2801   16.5209   20.9311 N   0  0  0  0  0  0  0  0  0  0  0  0
   28.5403   15.2325   18.1629 O   0  0  0  0  0  0  0  0  0  0  0  0
  2  1  1  1  0  0  0
  2  3  1  0  0  0  0
  2  5  1  0  0  0  0
  3  4  1  0  0  0  0
  3 10  1  0  0  0  0
  5  6  1  0  0  0  0
  6  7  1  0  0  0  0
  7  8  1  0  0  0  0
  8  9  1  0  0  0  0
M  END
>  <CHROM.1>
-3.74563677,57.42888486,177.24221406,-81.75769291,69.10702221,28.80627853
15.09799885,20.67704454,2.50403590,-0.30286701,-1.51317967

>  <Name>
ligand

>  <RI>
0

>  <Rbt.Current_Directory>
/home/itssahil/PROJECTS/Mol_Feturizer/New_Systems/rnas/3DIG

>  <Rbt.Executable>
rbdock ($Id: //depot/dev/client3/rdock/2013.1/src/exe/rbdock.cxx#4 $)

>  <Rbt.Library>
libRbt.so (2013.1, Build901 2013/11/27)

>  <Rbt.Parameter_File>
/export/apps/rDock/src/rDock_2013.1_src/data/scripts/dock_solv.prm

>  <Rbt.Receptor>
prm/pocket_docking_6.prm

>  <SCORE>
-10.4833

>  <SCORE.INTER>
-11.1401

>  <SCORE.INTER.CONST>
1

>  <SCORE.INTER.POLAR>
0

>  <SCORE.INTER.ROT>
5

>  <SCORE.INTER.SOLV>
16.8143

>  <SCORE.INTER.VDW>
-19.9649

>  <SCORE.INTER.norm>
-1.11401

>  <SCORE.INTRA>
0.65689

>  <SCORE.INTRA.DIHEDRAL>
-0.0497399

>  <SCORE.INTRA.DIHEDRAL.0>
2.60093

>  <SCORE.INTRA.POLAR>
0

>  <SCORE.INTRA.POLAR.0>
0

>  <SCORE.INTRA.REPUL>
0

>  <SCORE.INTRA.REPUL.0>
0

>  <SCORE.INTRA.SOLV>
1.77653

>  <SCORE.INTRA.SOLV.lig_0>
-33.7882

>  <SCORE.INTRA.VDW>
-0.206507

>  <SCORE.INTRA.VDW.0>
-0.593976

>  <SCORE.INTRA.norm>
0.065689

>  <SCORE.RESTR>
0

>  <SCORE.RESTR.CAVITY>
0

>  <SCORE.RESTR.norm>
0

>  <SCORE.SYSTEM>
0

>  <SCORE.SYSTEM.CONST>
0

>  <SCORE.SYSTEM.DIHEDRAL>
0

>  <SCORE.SYSTEM.SOLV>
0

>  <SCORE.SYSTEM.norm>
0

>  <SCORE.heavy>
10

>  <SCORE.norm>
-1.04833

>  <RMSD>
5.421

$$$$
ligand
 OpenBabel11021811473D
libRbt.so/2013.1/901 2013/11/27
 10  9  0  0  0  0  0  0  0  0999 V2000
   27.6032   14.2199   18.8576 N   0  0  0  0  0  0  0  0  0  0  0  0
   28.0770   14.7592   20.1657 C   0  0  2  0  0  0  0  0  0  0  0  0
   26.9629   14.8523   21.1675 C   0  0  0  0  0  0  0  0  0  0  0  0
   27.1848   14.7483   22.3703 O   0  0  0  0  0  0  0  0  0  0  0  0
   28.7713   16.1015   19.9538 C   0  0  0  0  0  0  0  0  0  0  0  0
   29.4739   16.6039   21.4943 S   0  0  0  0  0  0  0  0  0  0  0  0
   30.7018   15.3596   21.7213 C   0  0  0  0  0  0  0  0  0  0  0  0
   31.9540   15.7568   20.9460 C   0  0  0  0  0  0  0  0  0  0  0  0
   32.5666   16.9162   21.5628 N   0  0  0  0  0  0  0  0  0  0  0  0
   25.7936   15.0562   20.8486 O   0  0  0  0  0  0  0  0  0  0  0  0
  2  1  1  6  0  0  0
  2  3  1  0  0  0  0
  2  5  1  0  0  0  0
  3  4  1  0  0  0  0
  3 10  1  0  0  0  0
  5  6  1  0  0  0  0
  6  7  1  0  0  0  0
  7  8  1  0  0  0  0
  8  9  1  0  0  0  0
M  END
>  <CHROM.1>
150.74729014,-173.54417405,65.96328530,83.60576667,68.60807336,28.94255962
15.56794029,20.99409368,-2.91312036,0.25381050,1.24775682

>  <Name>
ligand

>  <RI>
0

>  <Rbt.Current_Directory>
/home/itssahil/PROJECTS/Mol_Feturizer/New_Systems/rnas/3DIG

>  <Rbt.Executable>
rbdock ($Id: //depot/dev/client3/rdock/2013.1/src/exe/rbdock.cxx#4 $)

>  <Rbt.Library>
libRbt.so (2013.1, Build901 2013/11/27)

>  <Rbt.Parameter_File>
/export/apps/rDock/src/rDock_2013.1_src/data/scripts/dock_solv.prm

>  <Rbt.Receptor>
prm/blind_docking_100.prm

>  <SCORE>
-11.7312

>  <SCORE.INTER>
-11.4633

>  <SCORE.INTER.CONST>
1

>  <SCORE.INTER.POLAR>
0

>  <SCORE.INTER.ROT>
5

>  <SCORE.INTER.SOLV>
14.6922

>  <SCORE.INTER.VDW>
-19.4729

>  <SCORE.INTER.norm>
-1.14633

>  <SCORE.INTRA>
-0.267944

>  <SCORE.INTRA.DIHEDRAL>
0.149794

>  <SCORE.INTRA.DIHEDRAL.0>
2.60093

>  <SCORE.INTRA.POLAR>
0

>  <SCORE.INTRA.POLAR.0>
0

>  <SCORE.INTRA.REPUL>
0

>  <SCORE.INTRA.REPUL.0>
0

>  <SCORE.INTRA.SOLV>
-0.135264

>  <SCORE.INTRA.SOLV.lig_0>
-33.7882

>  <SCORE.INTRA.VDW>
-0.275209

>  <SCORE.INTRA.VDW.0>
-0.593976

>  <SCORE.INTRA.norm>
-0.0267944

>  <SCORE.RESTR>
0

>  <SCORE.RESTR.CAVITY>
0

>  <SCORE.RESTR.norm>
0

>  <SCORE.SYSTEM>
0

>  <SCORE.SYSTEM.CONST>
0

>  <SCORE.SYSTEM.DIHEDRAL>
0

>  <SCORE.SYSTEM.SOLV>
0

>  <SCORE.SYSTEM.norm>
0

>  <SCORE.heavy>
10

>  <SCORE.norm>
-1.17312

>  <RMSD>
5.429

$$$$
ligand
 OpenBabel11021811473D
libRbt.so/2013.1/901 2013/11/27
 10  9  0  0  0  0  0  0  0  0999 V2000
   27.4547   14.3898   18.9555 N   0  0  0  0  0  0  0  0  0  0  0  0
   28.0152   14.8062   20.2742 C   0  0  2  0  0  0  0  0  0  0  0  0
   26.9573   14.8621   21.3377 C   0  0  0  0  0  0  0  0  0  0  0  0
   25.7668   14.9102   21.0425 O   0  0  0  0  0  0  0  0  0  0  0  0
   28.7535   16.1338   20.1294 C   0  0  0  0  0  0  0  0  0  0  0  0
   29.5605   16.4816   21.6614 S   0  0  0  0  0  0  0  0  0  0  0  0
   30.7669   15.1968   21.7008 C   0  0  0  0  0  0  0  0  0  0  0  0
   31.9864   15.6423   20.8999 C   0  0  0  0  0  0  0  0  0  0  0  0
   32.6242   16.7640   21.5593 N   0  0  0  0  0  0  0  0  0  0  0  0
   27.2165   14.8403   22.5390 O   0  0  0  0  0  0  0  0  0  0  0  0
  2  1  1  6  0  0  0
  2  3  1  0  0  0  0
  2  5  1  0  0  0  0
  3  4  1  0  0  0  0
  3 10  1  0  0  0  0
  5  6  1  0  0  0  0
  6  7  1  0  0  0  0
  7  8  1  0  0  0  0
  8  9  1  0  0  0  0
M  END
>  <CHROM.1>
-17.95812762,-173.19831522,67.08289329,84.23149232,66.00371633,28.95403862
15.52244991,21.10380577,-2.96740865,0.24258800,1.31637141

>  <Name>
ligand

>  <RI>
0

>  <Rbt.Current_Directory>
/home/itssahil/PROJECTS/Mol_Feturizer/New_Systems/rnas/3DIG

>  <Rbt.Executable>
rbdock ($Id: //depot/dev/client3/rdock/2013.1/src/exe/rbdock.cxx#4 $)

>  <Rbt.Library>
libRbt.so (2013.1, Build901 2013/11/27)

>  <Rbt.Parameter_File>
/export/apps/rDock/src/rDock_2013.1_src/data/scripts/dock_solv.prm

>  <Rbt.Receptor>
prm/pocket_docking_8.prm

>  <SCORE>
-11.5777

>  <SCORE.INTER>
-11.5017

>  <SCORE.INTER.CONST>
1

>  <SCORE.INTER.POLAR>
0

>  <SCORE.INTER.ROT>
5

>  <SCORE.INTER.SOLV>
14.9084

>  <SCORE.INTER.VDW>
-19.5706

>  <SCORE.INTER.norm>
-1.15017

>  <SCORE.INTRA>
-0.0760427

>  <SCORE.INTRA.DIHEDRAL>
0.172349

>  <SCORE.INTRA.DIHEDRAL.0>
2.60093

>  <SCORE.INTRA.POLAR>
0

>  <SCORE.INTRA.POLAR.0>
0

>  <SCORE.INTRA.REPUL>
0

>  <SCORE.INTRA.REPUL.0>
0

>  <SCORE.INTRA.SOLV>
-0.0738932

>  <SCORE.INTRA.SOLV.lig_0>
-33.7882

>  <SCORE.INTRA.VDW>
-0.125271

>  <SCORE.INTRA.VDW.0>
-0.593976

>  <SCORE.INTRA.norm>
-0.00760427

>  <SCORE.RESTR>
0

>  <SCORE.RESTR.CAVITY>
0

>  <SCORE.RESTR.norm>
0

>  <SCORE.SYSTEM>
0

>  <SCORE.SYSTEM.CONST>
0

>  <SCORE.SYSTEM.DIHEDRAL>
0

>  <SCORE.SYSTEM.SOLV>
0

>  <SCORE.SYSTEM.norm>
0

>  <SCORE.heavy>
10

>  <SCORE.norm>
-1.15777

>  <RMSD>
5.429

$$$$
ligand
 OpenBabel11021811473D
libRbt.so/2013.1/901 2013/11/27
 10  9  0  0  0  0  0  0  0  0999 V2000
   28.5544   16.9090   20.0064 N   0  0  0  0  0  0  0  0  0  0  0  0
   28.6582   15.5802   20.6773 C   0  0  2  0  0  0  0  0  0  0  0  0
   27.3677   14.8167   20.6060 C   0  0  0  0  0  0  0  0  0  0  0  0
   27.1483   14.0314   19.6885 O   0  0  0  0  0  0  0  0  0  0  0  0
   29.1399   15.7596   22.1141 C   0  0  0  0  0  0  0  0  0  0  0  0
   30.6827   16.6181   22.0714 S   0  0  0  0  0  0  0  0  0  0  0  0
   31.7056   15.4240   21.2740 C   0  0  0  0  0  0  0  0  0  0  0  0
   32.8738   16.1436   20.6074 C   0  0  0  0  0  0  0  0  0  0  0  0
   33.6639   16.8306   21.6092 N   0  0  0  0  0  0  0  0  0  0  0  0
   26.4857   14.9154   21.4565 O   0  0  0  0  0  0  0  0  0  0  0  0
  2  1  1  1  0  0  0
  2  3  1  0  0  0  0
  2  5  1  0  0  0  0
  3  4  1  0  0  0  0
  3 10  1  0  0  0  0
  5  6  1  0  0  0  0
  6  7  1  0  0  0  0
  7  8  1  0  0  0  0
  8  9  1  0  0  0  0
M  END
>  <CHROM.1>
92.14882621,-56.86150367,-65.93081520,155.82433704,61.35995590,29.71220465
15.78777215,21.12761568,-2.86296871,0.16567979,1.01710254

>  <Name>
ligand

>  <RI>
0

>  <Rbt.Current_Directory>
/home/itssahil/PROJECTS/Mol_Feturizer/New_Systems/rnas/3DIG

>  <Rbt.Executable>
rbdock ($Id: //depot/dev/client3/rdock/2013.1/src/exe/rbdock.cxx#4 $)

>  <Rbt.Library>
libRbt.so (2013.1, Build901 2013/11/27)

>  <Rbt.Parameter_File>
/export/apps/rDock/src/rDock_2013.1_src/data/scripts/dock_solv.prm

>  <Rbt.Receptor>
prm/pocket_docking_3.prm

>  <SCORE>
-9.23998

>  <SCORE.INTER>
-9.90679

>  <SCORE.INTER.CONST>
1

>  <SCORE.INTER.POLAR>
0

>  <SCORE.INTER.ROT>
5

>  <SCORE.INTER.SOLV>
16.1785

>  <SCORE.INTER.VDW>
-18.9307

>  <SCORE.INTER.norm>
-0.990679

>  <SCORE.INTRA>
0.666818

>  <SCORE.INTRA.DIHEDRAL>
-0.109138

>  <SCORE.INTRA.DIHEDRAL.0>
2.60093

>  <SCORE.INTRA.POLAR>
0

>  <SCORE.INTRA.POLAR.0>
0

>  <SCORE.INTRA.REPUL>
0

>  <SCORE.INTRA.REPUL.0>
0

>  <SCORE.INTRA.SOLV>
0.988406

>  <SCORE.INTRA.SOLV.lig_0>
-33.7882

>  <SCORE.INTRA.VDW>
0.227184

>  <SCORE.INTRA.VDW.0>
-0.593976

>  <SCORE.INTRA.norm>
0.0666818

>  <SCORE.RESTR>
0

>  <SCORE.RESTR.CAVITY>
0

>  <SCORE.RESTR.norm>
0

>  <SCORE.SYSTEM>
0

>  <SCORE.SYSTEM.CONST>
0

>  <SCORE.SYSTEM.DIHEDRAL>
0

>  <SCORE.SYSTEM.SOLV>
0

>  <SCORE.SYSTEM.norm>
0

>  <SCORE.heavy>
10

>  <SCORE.norm>
-0.923998

>  <RMSD>
5.432

$$$$
ligand
 OpenBabel11021811473D
libRbt.so/2013.1/901 2013/11/27
 10  9  0  0  0  0  0  0  0  0999 V2000
   27.5515   14.1694   18.9465 N   0  0  0  0  0  0  0  0  0  0  0  0
   28.1004   14.7770   20.1939 C   0  0  2  0  0  0  0  0  0  0  0  0
   27.0661   14.8541   21.2791 C   0  0  0  0  0  0  0  0  0  0  0  0
   27.3926   14.8804   22.4620 O   0  0  0  0  0  0  0  0  0  0  0  0
   28.7087   16.1416   19.8833 C   0  0  0  0  0  0  0  0  0  0  0  0
   29.5562   16.7047   21.3269 S   0  0  0  0  0  0  0  0  0  0  0  0
   30.8338   15.4967   21.4548 C   0  0  0  0  0  0  0  0  0  0  0  0
   32.1481   16.1200   20.9954 C   0  0  0  0  0  0  0  0  0  0  0  0
   32.5427   17.1680   21.9150 N   0  0  0  0  0  0  0  0  0  0  0  0
   25.8604   14.9169   21.0490 O   0  0  0  0  0  0  0  0  0  0  0  0
  2  1  1  6  0  0  0
  2  3  1  0  0  0  0
  2  5  1  0  0  0  0
  3  4  1  0  0  0  0
  3 10  1  0  0  0  0
  5  6  1  0  0  0  0
  6  7  1  0  0  0  0
  7  8  1  0  0  0  0
  8  9  1  0  0  0  0
M  END
>  <CHROM.1>
154.91604981,-171.49596223,64.82380307,104.75846268,66.04370996,29.01298855
15.65445889,21.01392896,-2.89991975,0.30543247,1.25871932

>  <Name>
ligand

>  <RI>
0

>  <Rbt.Current_Directory>
/home/itssahil/PROJECTS/Mol_Feturizer/New_Systems/rnas/3DIG

>  <Rbt.Executable>
rbdock ($Id: //depot/dev/client3/rdock/2013.1/src/exe/rbdock.cxx#4 $)

>  <Rbt.Library>
libRbt.so (2013.1, Build901 2013/11/27)

>  <Rbt.Parameter_File>
/export/apps/rDock/src/rDock_2013.1_src/data/scripts/dock_solv.prm

>  <Rbt.Receptor>
prm/pocket_docking_3.prm

>  <SCORE>
-11.5277

>  <SCORE.INTER>
-11.7703

>  <SCORE.INTER.CONST>
1

>  <SCORE.INTER.POLAR>
0

>  <SCORE.INTER.ROT>
5

>  <SCORE.INTER.SOLV>
14.7639

>  <SCORE.INTER.VDW>
-19.7015

>  <SCORE.INTER.norm>
-1.17703

>  <SCORE.INTRA>
0.242659

>  <SCORE.INTRA.DIHEDRAL>
1.33269

>  <SCORE.INTRA.DIHEDRAL.0>
2.60093

>  <SCORE.INTRA.POLAR>
0

>  <SCORE.INTRA.POLAR.0>
0

>  <SCORE.INTRA.REPUL>
0

>  <SCORE.INTRA.REPUL.0>
0

>  <SCORE.INTRA.SOLV>
-0.287382

>  <SCORE.INTRA.SOLV.lig_0>
-33.7882

>  <SCORE.INTRA.VDW>
-0.279993

>  <SCORE.INTRA.VDW.0>
-0.593976

>  <SCORE.INTRA.norm>
0.0242659

>  <SCORE.RESTR>
0

>  <SCORE.RESTR.CAVITY>
0

>  <SCORE.RESTR.norm>
0

>  <SCORE.SYSTEM>
0

>  <SCORE.SYSTEM.CONST>
0

>  <SCORE.SYSTEM.DIHEDRAL>
0

>  <SCORE.SYSTEM.SOLV>
0

>  <SCORE.SYSTEM.norm>
0

>  <SCORE.heavy>
10

>  <SCORE.norm>
-1.15277

>  <RMSD>
5.435

$$$$
ligand
 OpenBabel11021811473D
libRbt.so/2013.1/901 2013/11/27
 10  9  0  0  0  0  0  0  0  0999 V2000
   28.4157   14.0172   18.9688 N   0  0  0  0  0  0  0  0  0  0  0  0
   28.3953   14.3120   20.4314 C   0  0  2  0  0  0  0  0  0  0  0  0
   27.1684   15.0803   20.8288 C   0  0  0  0  0  0  0  0  0  0  0  0
   26.4706   14.7134   21.7695 O   0  0  0  0  0  0  0  0  0  0  0  0
   29.6787   15.0323   20.8344 C   0  0  0  0  0  0  0  0  0  0  0  0
   29.7023   15.1650   22.5954 S   0  0  0  0  0  0  0  0  0  0  0  0
   31.3307   15.7862   22.8602 C   0  0  0  0  0  0  0  0  0  0  0  0
   31.3784   17.2456   22.4188 C   0  0  0  0  0  0  0  0  0  0  0  0
   32.7071   17.7815   22.6365 N   0  0  0  0  0  0  0  0  0  0  0  0
   26.8132   16.1110   20.2612 O   0  0  0  0  0  0  0  0  0  0  0  0
  2  1  1  6  0  0  0
  2  3  1  0  0  0  0
  2  5  1  0  0  0  0
  3  4  1  0  0  0  0
  3 10  1  0  0  0  0
  5  6  1  0  0  0  0
  6  7  1  0  0  0  0
  7  8  1  0  0  0  0
  8  9  1  0  0  0  0
M  END
>  <CHROM.1>
129.72056783,-172.58408701,171.94955431,72.66429987,179.58567229,29.22928919
15.49416164,21.50460024,-2.59775289,0.23609569,1.20701651

>  <Name>
ligand

>  <RI>
0

>  <Rbt.Current_Directory>
/home/itssahil/PROJECTS/Mol_Feturizer/New_Systems/rnas/3DIG

>  <Rbt.Executable>
rbdock ($Id: //depot/dev/client3/rdock/2013.1/src/exe/rbdock.cxx#4 $)

>  <Rbt.Library>
libRbt.so (2013.1, Build901 2013/11/27)

>  <Rbt.Parameter_File>
/export/apps/rDock/src/rDock_2013.1_src/data/scripts/dock_solv.prm

>  <Rbt.Receptor>
prm/pocket_docking_3.prm

>  <SCORE>
-11.7266

>  <SCORE.INTER>
-10.4966

>  <SCORE.INTER.CONST>
1

>  <SCORE.INTER.POLAR>
0

>  <SCORE.INTER.ROT>
5

>  <SCORE.INTER.SOLV>
14.7169

>  <SCORE.INTER.VDW>
-18.8367

>  <SCORE.INTER.norm>
-1.04966

>  <SCORE.INTRA>
-1.23008

>  <SCORE.INTRA.DIHEDRAL>
-0.555517

>  <SCORE.INTRA.DIHEDRAL.0>
2.60093

>  <SCORE.INTRA.POLAR>
0

>  <SCORE.INTRA.POLAR.0>
0

>  <SCORE.INTRA.REPUL>
0

>  <SCORE.INTRA.REPUL.0>
0

>  <SCORE.INTRA.SOLV>
-1.38715

>  <SCORE.INTRA.SOLV.lig_0>
-33.7882

>  <SCORE.INTRA.VDW>
-0.258751

>  <SCORE.INTRA.VDW.0>
-0.593976

>  <SCORE.INTRA.norm>
-0.123008

>  <SCORE.RESTR>
0

>  <SCORE.RESTR.CAVITY>
0

>  <SCORE.RESTR.norm>
0

>  <SCORE.SYSTEM>
0

>  <SCORE.SYSTEM.CONST>
0

>  <SCORE.SYSTEM.DIHEDRAL>
0

>  <SCORE.SYSTEM.SOLV>
0

>  <SCORE.SYSTEM.norm>
0

>  <SCORE.heavy>
10

>  <SCORE.norm>
-1.17266

>  <RMSD>
5.436

$$$$
ligand
 OpenBabel11021811473D
libRbt.so/2013.1/901 2013/11/27
 10  9  0  0  0  0  0  0  0  0999 V2000
   27.1263   15.9826   20.2192 N   0  0  0  0  0  0  0  0  0  0  0  0
   28.3792   15.1868   20.0655 C   0  0  2  0  0  0  0  0  0  0  0  0
   28.3868   14.3993   18.7875 C   0  0  0  0  0  0  0  0  0  0  0  0
   29.4056   14.3057   18.1094 O   0  0  0  0  0  0  0  0  0  0  0  0
   28.5835   14.2974   21.2885 C   0  0  0  0  0  0  0  0  0  0  0  0
   29.1358   15.3168   22.6208 S   0  0  0  0  0  0  0  0  0  0  0  0
   30.7981   15.6360   22.1281 C   0  0  0  0  0  0  0  0  0  0  0  0
   31.2402   16.9693   22.7231 C   0  0  0  0  0  0  0  0  0  0  0  0
   32.5876   17.2785   22.2887 N   0  0  0  0  0  0  0  0  0  0  0  0
   27.4005   13.7974   18.3683 O   0  0  0  0  0  0  0  0  0  0  0  0
  2  1  1  1  0  0  0
  2  3  1  0  0  0  0
  2  5  1  0  0  0  0
  3  4  1  0  0  0  0
  3 10  1  0  0  0  0
  5  6  1  0  0  0  0
  6  7  1  0  0  0  0
  7  8  1  0  0  0  0
  8  9  1  0  0  0  0
M  END
>  <CHROM.1>
139.26747416,-75.18367069,-73.71624881,153.03261893,-177.79223776,29.28026459
15.29770080,20.84935891,2.24691592,-0.34096970,-1.82585783

>  <Name>
ligand

>  <RI>
0

>  <Rbt.Current_Directory>
/home/itssahil/PROJECTS/Mol_Feturizer/New_Systems/rnas/3DIG

>  <Rbt.Executable>
rbdock ($Id: //depot/dev/client3/rdock/2013.1/src/exe/rbdock.cxx#4 $)

>  <Rbt.Library>
libRbt.so (2013.1, Build901 2013/11/27)

>  <Rbt.Parameter_File>
/export/apps/rDock/src/rDock_2013.1_src/data/scripts/dock_solv.prm

>  <Rbt.Receptor>
prm/pocket_docking_4.prm

>  <SCORE>
-10.3361

>  <SCORE.INTER>
-10.0382

>  <SCORE.INTER.CONST>
1

>  <SCORE.INTER.POLAR>
0

>  <SCORE.INTER.ROT>
5

>  <SCORE.INTER.SOLV>
15.2338

>  <SCORE.INTER.VDW>
-18.7034

>  <SCORE.INTER.norm>
-1.00382

>  <SCORE.INTRA>
-0.297866

>  <SCORE.INTRA.DIHEDRAL>
0.938787

>  <SCORE.INTRA.DIHEDRAL.0>
2.60093

>  <SCORE.INTRA.POLAR>
0

>  <SCORE.INTRA.POLAR.0>
0

>  <SCORE.INTRA.REPUL>
0

>  <SCORE.INTRA.REPUL.0>
0

>  <SCORE.INTRA.SOLV>
-0.553036

>  <SCORE.INTRA.SOLV.lig_0>
-33.7882

>  <SCORE.INTRA.VDW>
-0.490742

>  <SCORE.INTRA.VDW.0>
-0.593976

>  <SCORE.INTRA.norm>
-0.0297866

>  <SCORE.RESTR>
0

>  <SCORE.RESTR.CAVITY>
0

>  <SCORE.RESTR.norm>
0

>  <SCORE.SYSTEM>
0

>  <SCORE.SYSTEM.CONST>
0

>  <SCORE.SYSTEM.DIHEDRAL>
0

>  <SCORE.SYSTEM.SOLV>
0

>  <SCORE.SYSTEM.norm>
0

>  <SCORE.heavy>
10

>  <SCORE.norm>
-1.03361

>  <RMSD>
5.438

$$$$
ligand
 OpenBabel11021811473D
libRbt.so/2013.1/901 2013/11/27
 10  9  0  0  0  0  0  0  0  0999 V2000
   26.4947   14.6566   20.9976 N   0  0  0  0  0  0  0  0  0  0  0  0
   27.3004   15.5717   20.1375 C   0  0  2  0  0  0  0  0  0  0  0  0
   27.8317   14.8706   18.9211 C   0  0  0  0  0  0  0  0  0  0  0  0
   27.5497   13.6977   18.6945 O   0  0  0  0  0  0  0  0  0  0  0  0
   28.4129   16.2140   20.9611 C   0  0  0  0  0  0  0  0  0  0  0  0
   29.3910   14.9215   21.6625 S   0  0  0  0  0  0  0  0  0  0  0  0
   30.3553   15.8287   22.8265 C   0  0  0  0  0  0  0  0  0  0  0  0
   31.2868   16.7685   22.0676 C   0  0  0  0  0  0  0  0  0  0  0  0
   32.2720   15.9982   21.3354 N   0  0  0  0  0  0  0  0  0  0  0  0
   28.5456   15.4261   18.0889 O   0  0  0  0  0  0  0  0  0  0  0  0
  2  1  1  1  0  0  0
  2  3  1  0  0  0  0
  2  5  1  0  0  0  0
  3  4  1  0  0  0  0
  3 10  1  0  0  0  0
  5  6  1  0  0  0  0
  6  7  1  0  0  0  0
  7  8  1  0  0  0  0
  8  9  1  0  0  0  0
M  END
>  <CHROM.1>
2.85138014,57.18418609,-168.01195672,-66.47037334,-67.23169003,28.99683199
15.32657194,20.66259090,2.47398254,-0.29270299,-1.66627631

>  <Name>
ligand

>  <RI>
0

>  <Rbt.Current_Directory>
/home/itssahil/PROJECTS/Mol_Feturizer/New_Systems/rnas/3DIG

>  <Rbt.Executable>
rbdock ($Id: //depot/dev/client3/rdock/2013.1/src/exe/rbdock.cxx#4 $)

>  <Rbt.Library>
libRbt.so (2013.1, Build901 2013/11/27)

>  <Rbt.Parameter_File>
/export/apps/rDock/src/rDock_2013.1_src/data/scripts/dock_solv.prm

>  <Rbt.Receptor>
prm/pocket_docking_3.prm

>  <SCORE>
-9.90566

>  <SCORE.INTER>
-10.1954

>  <SCORE.INTER.CONST>
1

>  <SCORE.INTER.POLAR>
0

>  <SCORE.INTER.ROT>
5

>  <SCORE.INTER.SOLV>
16.5747

>  <SCORE.INTER.VDW>
-19.2552

>  <SCORE.INTER.norm>
-1.01954

>  <SCORE.INTRA>
0.289785

>  <SCORE.INTRA.DIHEDRAL>
-0.587337

>  <SCORE.INTRA.DIHEDRAL.0>
2.60093

>  <SCORE.INTRA.POLAR>
0

>  <SCORE.INTRA.POLAR.0>
0

>  <SCORE.INTRA.REPUL>
0

>  <SCORE.INTRA.REPUL.0>
0

>  <SCORE.INTRA.SOLV>
0.899335

>  <SCORE.INTRA.SOLV.lig_0>
-33.7882

>  <SCORE.INTRA.VDW>
0.133786

>  <SCORE.INTRA.VDW.0>
-0.593976

>  <SCORE.INTRA.norm>
0.0289785

>  <SCORE.RESTR>
0

>  <SCORE.RESTR.CAVITY>
0

>  <SCORE.RESTR.norm>
0

>  <SCORE.SYSTEM>
0

>  <SCORE.SYSTEM.CONST>
0

>  <SCORE.SYSTEM.DIHEDRAL>
0

>  <SCORE.SYSTEM.SOLV>
0

>  <SCORE.SYSTEM.norm>
0

>  <SCORE.heavy>
10

>  <SCORE.norm>
-0.990566

>  <RMSD>
5.439

$$$$
ligand
 OpenBabel11021811473D
libRbt.so/2013.1/901 2013/11/27
 10  9  0  0  0  0  0  0  0  0999 V2000
   27.4163   14.1231   19.0274 N   0  0  0  0  0  0  0  0  0  0  0  0
   28.0233   14.7977   20.2119 C   0  0  2  0  0  0  0  0  0  0  0  0
   27.0579   14.8887   21.3579 C   0  0  0  0  0  0  0  0  0  0  0  0
   25.8464   14.8300   21.1693 O   0  0  0  0  0  0  0  0  0  0  0  0
   28.5663   16.1658   19.8094 C   0  0  0  0  0  0  0  0  0  0  0  0
   29.4772   16.8169   21.1752 S   0  0  0  0  0  0  0  0  0  0  0  0
   30.8336   15.6925   21.2366 C   0  0  0  0  0  0  0  0  0  0  0  0
   31.6594   15.9854   22.4852 C   0  0  0  0  0  0  0  0  0  0  0  0
   32.2341   17.3126   22.3940 N   0  0  0  0  0  0  0  0  0  0  0  0
   27.4187   15.0019   22.5273 O   0  0  0  0  0  0  0  0  0  0  0  0
  2  1  1  6  0  0  0
  2  3  1  0  0  0  0
  2  5  1  0  0  0  0
  3  4  1  0  0  0  0
  3 10  1  0  0  0  0
  5  6  1  0  0  0  0
  6  7  1  0  0  0  0
  7  8  1  0  0  0  0
  8  9  1  0  0  0  0
M  END
>  <CHROM.1>
-22.31712449,-171.81555417,66.93880777,-172.78811365,-63.98696394,28.89668660
15.70100360,21.16426520,-2.83579338,0.37332583,1.46663925

>  <Name>
ligand

>  <RI>
0

>  <Rbt.Current_Directory>
/home/itssahil/PROJECTS/Mol_Feturizer/New_Systems/rnas/3DIG

>  <Rbt.Executable>
rbdock ($Id: //depot/dev/client3/rdock/2013.1/src/exe/rbdock.cxx#4 $)

>  <Rbt.Library>
libRbt.so (2013.1, Build901 2013/11/27)

>  <Rbt.Parameter_File>
/export/apps/rDock/src/rDock_2013.1_src/data/scripts/dock_solv.prm

>  <Rbt.Receptor>
prm/pocket_docking_3.prm

>  <SCORE>
-12.6476

>  <SCORE.INTER>
-11.8538

>  <SCORE.INTER.CONST>
1

>  <SCORE.INTER.POLAR>
0

>  <SCORE.INTER.ROT>
5

>  <SCORE.INTER.SOLV>
14.9607

>  <SCORE.INTER.VDW>
-19.8228

>  <SCORE.INTER.norm>
-1.18538

>  <SCORE.INTRA>
-0.793733

>  <SCORE.INTRA.DIHEDRAL>
-0.586695

>  <SCORE.INTRA.DIHEDRAL.0>
2.60093

>  <SCORE.INTRA.POLAR>
0

>  <SCORE.INTRA.POLAR.0>
0

>  <SCORE.INTRA.REPUL>
0

>  <SCORE.INTRA.REPUL.0>
0

>  <SCORE.INTRA.SOLV>
-0.401243

>  <SCORE.INTRA.SOLV.lig_0>
-33.7882

>  <SCORE.INTRA.VDW>
-0.299764

>  <SCORE.INTRA.VDW.0>
-0.593976

>  <SCORE.INTRA.norm>
-0.0793733

>  <SCORE.RESTR>
0

>  <SCORE.RESTR.CAVITY>
0

>  <SCORE.RESTR.norm>
0

>  <SCORE.SYSTEM>
0

>  <SCORE.SYSTEM.CONST>
0

>  <SCORE.SYSTEM.DIHEDRAL>
0

>  <SCORE.SYSTEM.SOLV>
0

>  <SCORE.SYSTEM.norm>
0

>  <SCORE.heavy>
10

>  <SCORE.norm>
-1.26476

>  <RMSD>
5.445

$$$$
ligand
 OpenBabel11021811473D
libRbt.so/2013.1/901 2013/11/27
 10  9  0  0  0  0  0  0  0  0999 V2000
   28.2304   16.8643   20.3883 N   0  0  0  0  0  0  0  0  0  0  0  0
   27.8436   15.4234   20.3662 C   0  0  2  0  0  0  0  0  0  0  0  0
   26.9032   15.0807   21.4851 C   0  0  0  0  0  0  0  0  0  0  0  0
   25.7493   14.7309   21.2555 O   0  0  0  0  0  0  0  0  0  0  0  0
   29.0942   14.5491   20.3801 C   0  0  0  0  0  0  0  0  0  0  0  0
   30.0384   14.9665   21.8131 S   0  0  0  0  0  0  0  0  0  0  0  0
   31.5321   15.5387   21.0721 C   0  0  0  0  0  0  0  0  0  0  0  0
   32.3630   16.2567   22.1308 C   0  0  0  0  0  0  0  0  0  0  0  0
   31.7057   17.4882   22.5194 N   0  0  0  0  0  0  0  0  0  0  0  0
   27.2351   15.1085   22.6682 O   0  0  0  0  0  0  0  0  0  0  0  0
  2  1  1  1  0  0  0
  2  3  1  0  0  0  0
  2  5  1  0  0  0  0
  3  4  1  0  0  0  0
  3 10  1  0  0  0  0
  5  6  1  0  0  0  0
  6  7  1  0  0  0  0
  7  8  1  0  0  0  0
  8  9  1  0  0  0  0
M  END
>  <CHROM.1>
114.52464561,57.18027767,-118.54787184,166.73979601,-68.20435607,29.15034190
15.51929390,21.47313208,2.88874170,-0.07626445,-2.38046974

>  <Name>
ligand

>  <RI>
0

>  <Rbt.Current_Directory>
/home/itssahil/PROJECTS/Mol_Feturizer/New_Systems/rnas/3DIG

>  <Rbt.Executable>
rbdock ($Id: //depot/dev/client3/rdock/2013.1/src/exe/rbdock.cxx#4 $)

>  <Rbt.Library>
libRbt.so (2013.1, Build901 2013/11/27)

>  <Rbt.Parameter_File>
/export/apps/rDock/src/rDock_2013.1_src/data/scripts/dock_solv.prm

>  <Rbt.Receptor>
prm/blind_docking_100.prm

>  <SCORE>
-9.31417

>  <SCORE.INTER>
-10.6116

>  <SCORE.INTER.CONST>
1

>  <SCORE.INTER.POLAR>
0

>  <SCORE.INTER.ROT>
5

>  <SCORE.INTER.SOLV>
15.7433

>  <SCORE.INTER.VDW>
-19.2555

>  <SCORE.INTER.norm>
-1.06116

>  <SCORE.INTRA>
1.29745

>  <SCORE.INTRA.DIHEDRAL>
1.86527

>  <SCORE.INTRA.DIHEDRAL.0>
2.60093

>  <SCORE.INTRA.POLAR>
0

>  <SCORE.INTRA.POLAR.0>
0

>  <SCORE.INTRA.REPUL>
0

>  <SCORE.INTRA.REPUL.0>
0

>  <SCORE.INTRA.SOLV>
1.48338

>  <SCORE.INTRA.SOLV.lig_0>
-33.7882

>  <SCORE.INTRA.VDW>
-0.376877

>  <SCORE.INTRA.VDW.0>
-0.593976

>  <SCORE.INTRA.norm>
0.129745

>  <SCORE.RESTR>
0

>  <SCORE.RESTR.CAVITY>
0

>  <SCORE.RESTR.norm>
0

>  <SCORE.SYSTEM>
0

>  <SCORE.SYSTEM.CONST>
0

>  <SCORE.SYSTEM.DIHEDRAL>
0

>  <SCORE.SYSTEM.SOLV>
0

>  <SCORE.SYSTEM.norm>
0

>  <SCORE.heavy>
10

>  <SCORE.norm>
-0.931417

>  <RMSD>
5.448

$$$$
ligand
 OpenBabel11021811473D
libRbt.so/2013.1/901 2013/11/27
 10  9  0  0  0  0  0  0  0  0999 V2000
   27.4673   14.0842   18.9182 N   0  0  0  0  0  0  0  0  0  0  0  0
   28.0465   14.7588   20.1165 C   0  0  2  0  0  0  0  0  0  0  0  0
   27.0397   14.8949   21.2215 C   0  0  0  0  0  0  0  0  0  0  0  0
   25.8377   14.9459   20.9781 O   0  0  0  0  0  0  0  0  0  0  0  0
   28.6450   16.1044   19.7169 C   0  0  0  0  0  0  0  0  0  0  0  0
   29.4827   16.7702   21.1220 S   0  0  0  0  0  0  0  0  0  0  0  0
   30.7901   15.6033   21.3133 C   0  0  0  0  0  0  0  0  0  0  0  0
   31.5741   15.9454   22.5763 C   0  0  0  0  0  0  0  0  0  0  0  0
   32.2073   17.2402   22.4259 N   0  0  0  0  0  0  0  0  0  0  0  0
   27.3537   14.9392   22.4090 O   0  0  0  0  0  0  0  0  0  0  0  0
  2  1  1  6  0  0  0
  2  3  1  0  0  0  0
  2  5  1  0  0  0  0
  3  4  1  0  0  0  0
  3 10  1  0  0  0  0
  5  6  1  0  0  0  0
  6  7  1  0  0  0  0
  7  8  1  0  0  0  0
  8  9  1  0  0  0  0
M  END
>  <CHROM.1>
-26.56762200,-173.33621589,65.99998077,-175.12890178,-64.16858030,28.88863006
15.66763285,21.10416527,-2.79325302,0.35521948,1.45731743

>  <Name>
ligand

>  <RI>
0

>  <Rbt.Current_Directory>
/home/itssahil/PROJECTS/Mol_Feturizer/New_Systems/rnas/3DIG

>  <Rbt.Executable>
rbdock ($Id: //depot/dev/client3/rdock/2013.1/src/exe/rbdock.cxx#4 $)

>  <Rbt.Library>
libRbt.so (2013.1, Build901 2013/11/27)

>  <Rbt.Parameter_File>
/export/apps/rDock/src/rDock_2013.1_src/data/scripts/dock_solv.prm

>  <Rbt.Receptor>
prm/pocket_docking_3.prm

>  <SCORE>
-12.6708

>  <SCORE.INTER>
-11.8048

>  <SCORE.INTER.CONST>
1

>  <SCORE.INTER.POLAR>
0

>  <SCORE.INTER.ROT>
5

>  <SCORE.INTER.SOLV>
14.8505

>  <SCORE.INTER.VDW>
-19.7534

>  <SCORE.INTER.norm>
-1.18048

>  <SCORE.INTRA>
-0.866022

>  <SCORE.INTRA.DIHEDRAL>
-0.724255

>  <SCORE.INTRA.DIHEDRAL.0>
2.60093

>  <SCORE.INTRA.POLAR>
0

>  <SCORE.INTRA.POLAR.0>
0

>  <SCORE.INTRA.REPUL>
0

>  <SCORE.INTRA.REPUL.0>
0

>  <SCORE.INTRA.SOLV>
-0.399437

>  <SCORE.INTRA.SOLV.lig_0>
-33.7882

>  <SCORE.INTRA.VDW>
-0.304176

>  <SCORE.INTRA.VDW.0>
-0.593976

>  <SCORE.INTRA.norm>
-0.0866022

>  <SCORE.RESTR>
0

>  <SCORE.RESTR.CAVITY>
0

>  <SCORE.RESTR.norm>
0

>  <SCORE.SYSTEM>
0

>  <SCORE.SYSTEM.CONST>
0

>  <SCORE.SYSTEM.DIHEDRAL>
0

>  <SCORE.SYSTEM.SOLV>
0

>  <SCORE.SYSTEM.norm>
0

>  <SCORE.heavy>
10

>  <SCORE.norm>
-1.26708

>  <RMSD>
5.448

$$$$
ligand
 OpenBabel11021811473D
libRbt.so/2013.1/901 2013/11/27
 10  9  0  0  0  0  0  0  0  0999 V2000
   27.0171   15.9872   20.2780 N   0  0  0  0  0  0  0  0  0  0  0  0
   28.2614   15.1690   20.1847 C   0  0  2  0  0  0  0  0  0  0  0  0
   28.2741   14.3108   18.9531 C   0  0  0  0  0  0  0  0  0  0  0  0
   29.3138   14.1142   18.3310 O   0  0  0  0  0  0  0  0  0  0  0  0
   28.4400   14.3473   21.4581 C   0  0  0  0  0  0  0  0  0  0  0  0
   28.9739   15.4362   22.7421 S   0  0  0  0  0  0  0  0  0  0  0  0
   30.6806   15.6149   22.3382 C   0  0  0  0  0  0  0  0  0  0  0  0
   31.1039   17.0539   22.6161 C   0  0  0  0  0  0  0  0  0  0  0  0
   32.4988   17.2319   22.2662 N   0  0  0  0  0  0  0  0  0  0  0  0
   27.2699   13.7499   18.5200 O   0  0  0  0  0  0  0  0  0  0  0  0
  2  1  1  1  0  0  0
  2  3  1  0  0  0  0
  2  5  1  0  0  0  0
  3  4  1  0  0  0  0
  3 10  1  0  0  0  0
  5  6  1  0  0  0  0
  6  7  1  0  0  0  0
  7  8  1  0  0  0  0
  8  9  1  0  0  0  0
M  END
>  <CHROM.1>
142.86495270,-74.61977732,-78.19935705,142.45509841,-178.88336340,29.15472439
15.29589466,20.96077558,2.24328941,-0.30459985,-1.88866865

>  <Name>
ligand

>  <RI>
0

>  <Rbt.Current_Directory>
/home/itssahil/PROJECTS/Mol_Feturizer/New_Systems/rnas/3DIG

>  <Rbt.Executable>
rbdock ($Id: //depot/dev/client3/rdock/2013.1/src/exe/rbdock.cxx#4 $)

>  <Rbt.Library>
libRbt.so (2013.1, Build901 2013/11/27)

>  <Rbt.Parameter_File>
/export/apps/rDock/src/rDock_2013.1_src/data/scripts/dock_solv.prm

>  <Rbt.Receptor>
prm/pocket_docking_6.prm

>  <SCORE>
-10.2558

>  <SCORE.INTER>
-10.2523

>  <SCORE.INTER.CONST>
1

>  <SCORE.INTER.POLAR>
0

>  <SCORE.INTER.ROT>
5

>  <SCORE.INTER.SOLV>
15.6148

>  <SCORE.INTER.VDW>
-18.9731

>  <SCORE.INTER.norm>
-1.02523

>  <SCORE.INTRA>
-0.00347507

>  <SCORE.INTRA.DIHEDRAL>
1.72774

>  <SCORE.INTRA.DIHEDRAL.0>
2.60093

>  <SCORE.INTRA.POLAR>
0

>  <SCORE.INTRA.POLAR.0>
0

>  <SCORE.INTRA.REPUL>
0

>  <SCORE.INTRA.REPUL.0>
0

>  <SCORE.INTRA.SOLV>
-0.592032

>  <SCORE.INTRA.SOLV.lig_0>
-33.7882

>  <SCORE.INTRA.VDW>
-0.571328

>  <SCORE.INTRA.VDW.0>
-0.593976

>  <SCORE.INTRA.norm>
-0.000347507

>  <SCORE.RESTR>
0

>  <SCORE.RESTR.CAVITY>
0

>  <SCORE.RESTR.norm>
0

>  <SCORE.SYSTEM>
0

>  <SCORE.SYSTEM.CONST>
0

>  <SCORE.SYSTEM.DIHEDRAL>
0

>  <SCORE.SYSTEM.SOLV>
0

>  <SCORE.SYSTEM.norm>
0

>  <SCORE.heavy>
10

>  <SCORE.norm>
-1.02558

>  <RMSD>
5.452

$$$$
ligand
 OpenBabel11021811473D
libRbt.so/2013.1/901 2013/11/27
 10  9  0  0  0  0  0  0  0  0999 V2000
   27.3804   14.1227   19.0344 N   0  0  0  0  0  0  0  0  0  0  0  0
   27.9874   14.7991   20.2178 C   0  0  2  0  0  0  0  0  0  0  0  0
   27.0169   14.9064   21.3580 C   0  0  0  0  0  0  0  0  0  0  0  0
   25.8058   14.8660   21.1625 O   0  0  0  0  0  0  0  0  0  0  0  0
   28.5453   16.1595   19.8095 C   0  0  0  0  0  0  0  0  0  0  0  0
   29.4715   16.8021   21.1691 S   0  0  0  0  0  0  0  0  0  0  0  0
   30.7929   15.6380   21.2509 C   0  0  0  0  0  0  0  0  0  0  0  0
   31.6212   15.9210   22.5002 C   0  0  0  0  0  0  0  0  0  0  0  0
   32.2423   17.2259   22.3927 N   0  0  0  0  0  0  0  0  0  0  0  0
   27.3726   15.0157   22.5294 O   0  0  0  0  0  0  0  0  0  0  0  0
  2  1  1  6  0  0  0
  2  3  1  0  0  0  0
  2  5  1  0  0  0  0
  3  4  1  0  0  0  0
  3 10  1  0  0  0  0
  5  6  1  0  0  0  0
  6  7  1  0  0  0  0
  7  8  1  0  0  0  0
  8  9  1  0  0  0  0
M  END
>  <CHROM.1>
-22.76688332,-171.13843856,65.61068122,-172.63167291,-64.30276309,28.86957471
15.68576872,21.16614416,-2.83816077,0.35739090,1.47048503

>  <Name>
ligand

>  <RI>
0

>  <Rbt.Current_Directory>
/home/itssahil/PROJECTS/Mol_Feturizer/New_Systems/rnas/3DIG

>  <Rbt.Executable>
rbdock ($Id: //depot/dev/client3/rdock/2013.1/src/exe/rbdock.cxx#4 $)

>  <Rbt.Library>
libRbt.so (2013.1, Build901 2013/11/27)

>  <Rbt.Parameter_File>
/export/apps/rDock/src/rDock_2013.1_src/data/scripts/dock_solv.prm

>  <Rbt.Receptor>
prm/pocket_docking_3.prm

>  <SCORE>
-12.6414

>  <SCORE.INTER>
-11.8692

>  <SCORE.INTER.CONST>
1

>  <SCORE.INTER.POLAR>
0

>  <SCORE.INTER.ROT>
5

>  <SCORE.INTER.SOLV>
14.9911

>  <SCORE.INTER.VDW>
-19.8431

>  <SCORE.INTER.norm>
-1.18692

>  <SCORE.INTRA>
-0.772225

>  <SCORE.INTRA.DIHEDRAL>
-0.559333

>  <SCORE.INTRA.DIHEDRAL.0>
2.60093

>  <SCORE.INTRA.POLAR>
0

>  <SCORE.INTRA.POLAR.0>
0

>  <SCORE.INTRA.REPUL>
0

>  <SCORE.INTRA.REPUL.0>
0

>  <SCORE.INTRA.SOLV>
-0.392048

>  <SCORE.INTRA.SOLV.lig_0>
-33.7882

>  <SCORE.INTRA.VDW>
-0.296534

>  <SCORE.INTRA.VDW.0>
-0.593976

>  <SCORE.INTRA.norm>
-0.0772225

>  <SCORE.RESTR>
0

>  <SCORE.RESTR.CAVITY>
0

>  <SCORE.RESTR.norm>
0

>  <SCORE.SYSTEM>
0

>  <SCORE.SYSTEM.CONST>
0

>  <SCORE.SYSTEM.DIHEDRAL>
0

>  <SCORE.SYSTEM.SOLV>
0

>  <SCORE.SYSTEM.norm>
0

>  <SCORE.heavy>
10

>  <SCORE.norm>
-1.26414

>  <RMSD>
5.454

$$$$
ligand
 OpenBabel11021811473D
libRbt.so/2013.1/901 2013/11/27
 10  9  0  0  0  0  0  0  0  0999 V2000
   27.7141   15.8327   19.8998 N   0  0  0  0  0  0  0  0  0  0  0  0
   28.8303   15.4559   20.8156 C   0  0  2  0  0  0  0  0  0  0  0  0
   28.3310   14.7525   22.0442 C   0  0  0  0  0  0  0  0  0  0  0  0
   29.0602   13.9969   22.6797 O   0  0  0  0  0  0  0  0  0  0  0  0
   29.6602   16.6896   21.1586 C   0  0  0  0  0  0  0  0  0  0  0  0
   31.0968   16.1565   22.0369 S   0  0  0  0  0  0  0  0  0  0  0  0
   31.9243   17.6932   22.2847 C   0  0  0  0  0  0  0  0  0  0  0  0
   33.3733   17.4149   22.6722 C   0  0  0  0  0  0  0  0  0  0  0  0
   34.0807   18.6657   22.8593 N   0  0  0  0  0  0  0  0  0  0  0  0
   27.1949   14.9075   22.4869 O   0  0  0  0  0  0  0  0  0  0  0  0
  2  1  1  6  0  0  0
  2  3  1  0  0  0  0
  2  5  1  0  0  0  0
  3  4  1  0  0  0  0
  3 10  1  0  0  0  0
  5  6  1  0  0  0  0
  6  7  1  0  0  0  0
  7  8  1  0  0  0  0
  8  9  1  0  0  0  0
M  END
>  <CHROM.1>
155.85039023,-171.58738397,178.24234482,-163.90854436,179.03603203,30.21769389
16.13623880,21.93213980,2.94689543,0.49319264,2.29871311

>  <Name>
ligand

>  <RI>
0

>  <Rbt.Current_Directory>
/home/itssahil/PROJECTS/Mol_Feturizer/New_Systems/rnas/3DIG

>  <Rbt.Executable>
rbdock ($Id: //depot/dev/client3/rdock/2013.1/src/exe/rbdock.cxx#4 $)

>  <Rbt.Library>
libRbt.so (2013.1, Build901 2013/11/27)

>  <Rbt.Parameter_File>
/export/apps/rDock/src/rDock_2013.1_src/data/scripts/dock_solv.prm

>  <Rbt.Receptor>
prm/pocket_docking_4.prm

>  <SCORE>
-9.92362

>  <SCORE.INTER>
-8.55966

>  <SCORE.INTER.CONST>
1

>  <SCORE.INTER.POLAR>
0

>  <SCORE.INTER.ROT>
5

>  <SCORE.INTER.SOLV>
15.6377

>  <SCORE.INTER.VDW>
-17.8523

>  <SCORE.INTER.norm>
-0.855966

>  <SCORE.INTRA>
-1.36396

>  <SCORE.INTRA.DIHEDRAL>
-0.475182

>  <SCORE.INTRA.DIHEDRAL.0>
2.60093

>  <SCORE.INTRA.POLAR>
0

>  <SCORE.INTRA.POLAR.0>
0

>  <SCORE.INTRA.REPUL>
0

>  <SCORE.INTRA.REPUL.0>
0

>  <SCORE.INTRA.SOLV>
-1.56704

>  <SCORE.INTRA.SOLV.lig_0>
-33.7882

>  <SCORE.INTRA.VDW>
-0.342851

>  <SCORE.INTRA.VDW.0>
-0.593976

>  <SCORE.INTRA.norm>
-0.136396

>  <SCORE.RESTR>
0

>  <SCORE.RESTR.CAVITY>
0

>  <SCORE.RESTR.norm>
0

>  <SCORE.SYSTEM>
0

>  <SCORE.SYSTEM.CONST>
0

>  <SCORE.SYSTEM.DIHEDRAL>
0

>  <SCORE.SYSTEM.SOLV>
0

>  <SCORE.SYSTEM.norm>
0

>  <SCORE.heavy>
10

>  <SCORE.norm>
-0.992362

>  <RMSD>
5.455

$$$$
ligand
 OpenBabel11021811473D
libRbt.so/2013.1/901 2013/11/27
 10  9  0  0  0  0  0  0  0  0999 V2000
   27.4353   14.1392   18.9851 N   0  0  0  0  0  0  0  0  0  0  0  0
   28.0194   14.7952   20.1913 C   0  0  2  0  0  0  0  0  0  0  0  0
   27.0326   14.8673   21.3203 C   0  0  0  0  0  0  0  0  0  0  0  0
   25.8246   14.8813   21.1034 O   0  0  0  0  0  0  0  0  0  0  0  0
   28.5685   16.1698   19.8209 C   0  0  0  0  0  0  0  0  0  0  0  0
   29.4672   16.7926   21.2079 S   0  0  0  0  0  0  0  0  0  0  0  0
   30.8021   15.6435   21.2823 C   0  0  0  0  0  0  0  0  0  0  0  0
   31.6285   15.9296   22.5322 C   0  0  0  0  0  0  0  0  0  0  0  0
   32.2382   17.2401   22.4287 N   0  0  0  0  0  0  0  0  0  0  0  0
   27.3707   14.8930   22.5018 O   0  0  0  0  0  0  0  0  0  0  0  0
  2  1  1  6  0  0  0
  2  3  1  0  0  0  0
  2  5  1  0  0  0  0
  3  4  1  0  0  0  0
  3 10  1  0  0  0  0
  5  6  1  0  0  0  0
  6  7  1  0  0  0  0
  7  8  1  0  0  0  0
  8  9  1  0  0  0  0
M  END
>  <CHROM.1>
-26.16240689,-171.24551602,65.75633765,-173.97087035,-64.51228571,28.88214806
15.67464412,21.16564906,-2.83118569,0.36868537,1.49372028

>  <Name>
ligand

>  <RI>
0

>  <Rbt.Current_Directory>
/home/itssahil/PROJECTS/Mol_Feturizer/New_Systems/rnas/3DIG

>  <Rbt.Executable>
rbdock ($Id: //depot/dev/client3/rdock/2013.1/src/exe/rbdock.cxx#4 $)

>  <Rbt.Library>
libRbt.so (2013.1, Build901 2013/11/27)

>  <Rbt.Parameter_File>
/export/apps/rDock/src/rDock_2013.1_src/data/scripts/dock_solv.prm

>  <Rbt.Receptor>
prm/pocket_docking_5.prm

>  <SCORE>
-12.6223

>  <SCORE.INTER>
-11.7951

>  <SCORE.INTER.CONST>
1

>  <SCORE.INTER.POLAR>
0

>  <SCORE.INTER.ROT>
5

>  <SCORE.INTER.SOLV>
14.9311

>  <SCORE.INTER.VDW>
-19.7738

>  <SCORE.INTER.norm>
-1.17951

>  <SCORE.INTRA>
-0.827195

>  <SCORE.INTRA.DIHEDRAL>
-0.583402

>  <SCORE.INTRA.DIHEDRAL.0>
2.60093

>  <SCORE.INTRA.POLAR>
0

>  <SCORE.INTRA.POLAR.0>
0

>  <SCORE.INTRA.REPUL>
0

>  <SCORE.INTRA.REPUL.0>
0

>  <SCORE.INTRA.SOLV>
-0.392689

>  <SCORE.INTRA.SOLV.lig_0>
-33.7882

>  <SCORE.INTRA.VDW>
-0.33915

>  <SCORE.INTRA.VDW.0>
-0.593976

>  <SCORE.INTRA.norm>
-0.0827195

>  <SCORE.RESTR>
0

>  <SCORE.RESTR.CAVITY>
0

>  <SCORE.RESTR.norm>
0

>  <SCORE.SYSTEM>
0

>  <SCORE.SYSTEM.CONST>
0

>  <SCORE.SYSTEM.DIHEDRAL>
0

>  <SCORE.SYSTEM.SOLV>
0

>  <SCORE.SYSTEM.norm>
0

>  <SCORE.heavy>
10

>  <SCORE.norm>
-1.26223

>  <RMSD>
5.455

$$$$
ligand
 OpenBabel11021811473D
libRbt.so/2013.1/901 2013/11/27
 10  9  0  0  0  0  0  0  0  0999 V2000
   27.5516   14.0636   18.9560 N   0  0  0  0  0  0  0  0  0  0  0  0
   28.0758   14.7623   20.1658 C   0  0  2  0  0  0  0  0  0  0  0  0
   27.0437   14.8468   21.2526 C   0  0  0  0  0  0  0  0  0  0  0  0
   27.3728   14.8865   22.4344 O   0  0  0  0  0  0  0  0  0  0  0  0
   28.6157   16.1363   19.7795 C   0  0  0  0  0  0  0  0  0  0  0  0
   29.4706   16.8009   21.1748 S   0  0  0  0  0  0  0  0  0  0  0  0
   30.8730   15.7351   21.2441 C   0  0  0  0  0  0  0  0  0  0  0  0
   31.6292   16.0007   22.5420 C   0  0  0  0  0  0  0  0  0  0  0  0
   32.1634   17.3477   22.5326 N   0  0  0  0  0  0  0  0  0  0  0  0
   25.8372   14.9029   21.0246 O   0  0  0  0  0  0  0  0  0  0  0  0
  2  1  1  6  0  0  0
  2  3  1  0  0  0  0
  2  5  1  0  0  0  0
  3  4  1  0  0  0  0
  3 10  1  0  0  0  0
  5  6  1  0  0  0  0
  6  7  1  0  0  0  0
  7  8  1  0  0  0  0
  8  9  1  0  0  0  0
M  END
>  <CHROM.1>
151.36453208,-170.32154407,69.21434789,-170.49382360,-64.85788581,28.90390458
15.68779231,21.13751222,-2.78886511,0.36848510,1.42878913

>  <Name>
ligand

>  <RI>
0

>  <Rbt.Current_Directory>
/home/itssahil/PROJECTS/Mol_Feturizer/New_Systems/rnas/3DIG

>  <Rbt.Executable>
rbdock ($Id: //depot/dev/client3/rdock/2013.1/src/exe/rbdock.cxx#4 $)

>  <Rbt.Library>
libRbt.so (2013.1, Build901 2013/11/27)

>  <Rbt.Parameter_File>
/export/apps/rDock/src/rDock_2013.1_src/data/scripts/dock_solv.prm

>  <Rbt.Receptor>
prm/pocket_docking_7.prm

>  <SCORE>
-12.6964

>  <SCORE.INTER>
-11.7993

>  <SCORE.INTER.CONST>
1

>  <SCORE.INTER.POLAR>
0

>  <SCORE.INTER.ROT>
5

>  <SCORE.INTER.SOLV>
14.836

>  <SCORE.INTER.VDW>
-19.7449

>  <SCORE.INTER.norm>
-1.17993

>  <SCORE.INTRA>
-0.897061

>  <SCORE.INTRA.DIHEDRAL>
-0.435264

>  <SCORE.INTRA.DIHEDRAL.0>
2.60093

>  <SCORE.INTRA.POLAR>
0

>  <SCORE.INTRA.POLAR.0>
0

>  <SCORE.INTRA.REPUL>
0

>  <SCORE.INTRA.REPUL.0>
0

>  <SCORE.INTRA.SOLV>
-0.447975

>  <SCORE.INTRA.SOLV.lig_0>
-33.7882

>  <SCORE.INTRA.VDW>
-0.455441

>  <SCORE.INTRA.VDW.0>
-0.593976

>  <SCORE.INTRA.norm>
-0.0897061

>  <SCORE.RESTR>
0

>  <SCORE.RESTR.CAVITY>
0

>  <SCORE.RESTR.norm>
0

>  <SCORE.SYSTEM>
0

>  <SCORE.SYSTEM.CONST>
0

>  <SCORE.SYSTEM.DIHEDRAL>
0

>  <SCORE.SYSTEM.SOLV>
0

>  <SCORE.SYSTEM.norm>
0

>  <SCORE.heavy>
10

>  <SCORE.norm>
-1.26964

>  <RMSD>
5.455

$$$$
ligand
 OpenBabel11021811473D
libRbt.so/2013.1/901 2013/11/27
 10  9  0  0  0  0  0  0  0  0999 V2000
   26.1124   15.3934   20.3932 N   0  0  0  0  0  0  0  0  0  0  0  0
   27.6009   15.2938   20.4225 C   0  0  2  0  0  0  0  0  0  0  0  0
   28.1281   14.4754   19.2798 C   0  0  0  0  0  0  0  0  0  0  0  0
   27.4205   13.6436   18.7194 O   0  0  0  0  0  0  0  0  0  0  0  0
   28.0593   14.7538   21.7741 C   0  0  0  0  0  0  0  0  0  0  0  0
   29.8232   14.8288   21.8242 S   0  0  0  0  0  0  0  0  0  0  0  0
   30.0841   16.5707   21.7497 C   0  0  0  0  0  0  0  0  0  0  0  0
   31.5699   16.8366   21.5288 C   0  0  0  0  0  0  0  0  0  0  0  0
   32.3311   16.3382   22.6566 N   0  0  0  0  0  0  0  0  0  0  0  0
   29.2666   14.6050   18.8352 O   0  0  0  0  0  0  0  0  0  0  0  0
  2  1  1  1  0  0  0
  2  3  1  0  0  0  0
  2  5  1  0  0  0  0
  3  4  1  0  0  0  0
  3 10  1  0  0  0  0
  5  6  1  0  0  0  0
  6  7  1  0  0  0  0
  7  8  1  0  0  0  0
  8  9  1  0  0  0  0
M  END
>  <CHROM.1>
-23.47818407,-173.65211019,64.56062888,-169.90616190,-62.99833888,29.13175094
15.20483107,20.81536673,2.48828007,-0.14627978,-1.97175408

>  <Name>
ligand

>  <RI>
0

>  <Rbt.Current_Directory>
/home/itssahil/PROJECTS/Mol_Feturizer/New_Systems/rnas/3DIG

>  <Rbt.Executable>
rbdock ($Id: //depot/dev/client3/rdock/2013.1/src/exe/rbdock.cxx#4 $)

>  <Rbt.Library>
libRbt.so (2013.1, Build901 2013/11/27)

>  <Rbt.Parameter_File>
/export/apps/rDock/src/rDock_2013.1_src/data/scripts/dock_solv.prm

>  <Rbt.Receptor>
prm/pocket_docking_8.prm

>  <SCORE>
-9.49763

>  <SCORE.INTER>
-8.74361

>  <SCORE.INTER.CONST>
1

>  <SCORE.INTER.POLAR>
0

>  <SCORE.INTER.ROT>
5

>  <SCORE.INTER.SOLV>
18.139

>  <SCORE.INTER.VDW>
-18.8088

>  <SCORE.INTER.norm>
-0.874361

>  <SCORE.INTRA>
-0.754019

>  <SCORE.INTRA.DIHEDRAL>
-0.671738

>  <SCORE.INTRA.DIHEDRAL.0>
2.60093

>  <SCORE.INTRA.POLAR>
0

>  <SCORE.INTRA.POLAR.0>
0

>  <SCORE.INTRA.REPUL>
0

>  <SCORE.INTRA.REPUL.0>
0

>  <SCORE.INTRA.SOLV>
-0.392687

>  <SCORE.INTRA.SOLV.lig_0>
-33.7882

>  <SCORE.INTRA.VDW>
-0.221807

>  <SCORE.INTRA.VDW.0>
-0.593976

>  <SCORE.INTRA.norm>
-0.0754019

>  <SCORE.RESTR>
0

>  <SCORE.RESTR.CAVITY>
0

>  <SCORE.RESTR.norm>
0

>  <SCORE.SYSTEM>
0

>  <SCORE.SYSTEM.CONST>
0

>  <SCORE.SYSTEM.DIHEDRAL>
0

>  <SCORE.SYSTEM.SOLV>
0

>  <SCORE.SYSTEM.norm>
0

>  <SCORE.heavy>
10

>  <SCORE.norm>
-0.949763

>  <RMSD>
5.456

$$$$
ligand
 OpenBabel11021811473D
libRbt.so/2013.1/901 2013/11/27
 10  9  0  0  0  0  0  0  0  0999 V2000
   27.4297   14.1207   19.0037 N   0  0  0  0  0  0  0  0  0  0  0  0
   28.0265   14.7795   20.2022 C   0  0  2  0  0  0  0  0  0  0  0  0
   27.0494   14.8606   21.3390 C   0  0  0  0  0  0  0  0  0  0  0  0
   25.8394   14.8640   21.1328 O   0  0  0  0  0  0  0  0  0  0  0  0
   28.5782   16.1502   19.8212 C   0  0  0  0  0  0  0  0  0  0  0  0
   29.4590   16.7917   21.2112 S   0  0  0  0  0  0  0  0  0  0  0  0
   30.8413   15.6988   21.2620 C   0  0  0  0  0  0  0  0  0  0  0  0
   31.6623   16.0016   22.5116 C   0  0  0  0  0  0  0  0  0  0  0  0
   32.2447   17.3245   22.4081 N   0  0  0  0  0  0  0  0  0  0  0  0
   27.3978   14.9044   22.5169 O   0  0  0  0  0  0  0  0  0  0  0  0
  2  1  1  6  0  0  0
  2  3  1  0  0  0  0
  2  5  1  0  0  0  0
  3  4  1  0  0  0  0
  3 10  1  0  0  0  0
  5  6  1  0  0  0  0
  6  7  1  0  0  0  0
  7  8  1  0  0  0  0
  8  9  1  0  0  0  0
M  END
>  <CHROM.1>
-25.35998966,-172.54801533,68.70691937,-173.90466253,-66.00140263,28.89393497
15.68738379,21.16934292,-2.82974825,0.37557991,1.47065332

>  <Name>
ligand

>  <RI>
0

>  <Rbt.Current_Directory>
/home/itssahil/PROJECTS/Mol_Feturizer/New_Systems/rnas/3DIG

>  <Rbt.Executable>
rbdock ($Id: //depot/dev/client3/rdock/2013.1/src/exe/rbdock.cxx#4 $)

>  <Rbt.Library>
libRbt.so (2013.1, Build901 2013/11/27)

>  <Rbt.Parameter_File>
/export/apps/rDock/src/rDock_2013.1_src/data/scripts/dock_solv.prm

>  <Rbt.Receptor>
prm/pocket_docking_4.prm

>  <SCORE>
-12.6589

>  <SCORE.INTER>
-11.7964

>  <SCORE.INTER.CONST>
1

>  <SCORE.INTER.POLAR>
0

>  <SCORE.INTER.ROT>
5

>  <SCORE.INTER.SOLV>
14.9946

>  <SCORE.INTER.VDW>
-19.7958

>  <SCORE.INTER.norm>
-1.17964

>  <SCORE.INTRA>
-0.862503

>  <SCORE.INTRA.DIHEDRAL>
-0.529777

>  <SCORE.INTRA.DIHEDRAL.0>
2.60093

>  <SCORE.INTRA.POLAR>
0

>  <SCORE.INTRA.POLAR.0>
0

>  <SCORE.INTRA.REPUL>
0

>  <SCORE.INTRA.REPUL.0>
0

>  <SCORE.INTRA.SOLV>
-0.447515

>  <SCORE.INTRA.SOLV.lig_0>
-33.7882

>  <SCORE.INTRA.VDW>
-0.373857

>  <SCORE.INTRA.VDW.0>
-0.593976

>  <SCORE.INTRA.norm>
-0.0862503

>  <SCORE.RESTR>
0

>  <SCORE.RESTR.CAVITY>
0

>  <SCORE.RESTR.norm>
0

>  <SCORE.SYSTEM>
0

>  <SCORE.SYSTEM.CONST>
0

>  <SCORE.SYSTEM.DIHEDRAL>
0

>  <SCORE.SYSTEM.SOLV>
0

>  <SCORE.SYSTEM.norm>
0

>  <SCORE.heavy>
10

>  <SCORE.norm>
-1.26589

>  <RMSD>
5.457

$$$$
ligand
 OpenBabel11021811473D
libRbt.so/2013.1/901 2013/11/27
 10  9  0  0  0  0  0  0  0  0999 V2000
   26.0892   15.4144   20.3674 N   0  0  0  0  0  0  0  0  0  0  0  0
   27.5784   15.3249   20.3935 C   0  0  2  0  0  0  0  0  0  0  0  0
   28.1076   14.4941   19.2607 C   0  0  0  0  0  0  0  0  0  0  0  0
   27.3938   13.6729   18.6926 O   0  0  0  0  0  0  0  0  0  0  0  0
   28.0443   14.8067   21.7511 C   0  0  0  0  0  0  0  0  0  0  0  0
   29.8086   14.8781   21.7886 S   0  0  0  0  0  0  0  0  0  0  0  0
   30.0733   16.6174   21.6761 C   0  0  0  0  0  0  0  0  0  0  0  0
   31.5553   16.8741   21.4215 C   0  0  0  0  0  0  0  0  0  0  0  0
   32.3366   16.3962   22.5445 N   0  0  0  0  0  0  0  0  0  0  0  0
   29.2543   14.6030   18.8319 O   0  0  0  0  0  0  0  0  0  0  0  0
  2  1  1  1  0  0  0
  2  3  1  0  0  0  0
  2  5  1  0  0  0  0
  3  4  1  0  0  0  0
  3 10  1  0  0  0  0
  5  6  1  0  0  0  0
  6  7  1  0  0  0  0
  7  8  1  0  0  0  0
  8  9  1  0  0  0  0
M  END
>  <CHROM.1>
-21.69392064,-174.22881875,64.33108094,-169.14724559,-63.07865447,29.11635631
15.24049804,20.77127335,2.50049403,-0.15097532,-1.98129223

>  <Name>
ligand

>  <RI>
0

>  <Rbt.Current_Directory>
/home/itssahil/PROJECTS/Mol_Feturizer/New_Systems/rnas/3DIG

>  <Rbt.Executable>
rbdock ($Id: //depot/dev/client3/rdock/2013.1/src/exe/rbdock.cxx#4 $)

>  <Rbt.Library>
libRbt.so (2013.1, Build901 2013/11/27)

>  <Rbt.Parameter_File>
/export/apps/rDock/src/rDock_2013.1_src/data/scripts/dock_solv.prm

>  <Rbt.Receptor>
prm/pocket_docking_6.prm

>  <SCORE>
-9.49484

>  <SCORE.INTER>
-8.78335

>  <SCORE.INTER.CONST>
1

>  <SCORE.INTER.POLAR>
0

>  <SCORE.INTER.ROT>
5

>  <SCORE.INTER.SOLV>
17.7015

>  <SCORE.INTER.VDW>
-18.6894

>  <SCORE.INTER.norm>
-0.878335

>  <SCORE.INTRA>
-0.711493

>  <SCORE.INTRA.DIHEDRAL>
-0.674918

>  <SCORE.INTRA.DIHEDRAL.0>
2.60093

>  <SCORE.INTRA.POLAR>
0

>  <SCORE.INTRA.POLAR.0>
0

>  <SCORE.INTRA.REPUL>
0

>  <SCORE.INTRA.REPUL.0>
0

>  <SCORE.INTRA.SOLV>
-0.397889

>  <SCORE.INTRA.SOLV.lig_0>
-33.7882

>  <SCORE.INTRA.VDW>
-0.175089

>  <SCORE.INTRA.VDW.0>
-0.593976

>  <SCORE.INTRA.norm>
-0.0711493

>  <SCORE.RESTR>
0

>  <SCORE.RESTR.CAVITY>
0

>  <SCORE.RESTR.norm>
0

>  <SCORE.SYSTEM>
0

>  <SCORE.SYSTEM.CONST>
0

>  <SCORE.SYSTEM.DIHEDRAL>
0

>  <SCORE.SYSTEM.SOLV>
0

>  <SCORE.SYSTEM.norm>
0

>  <SCORE.heavy>
10

>  <SCORE.norm>
-0.949484

>  <RMSD>
5.460

$$$$
ligand
 OpenBabel11021811473D
libRbt.so/2013.1/901 2013/11/27
 10  9  0  0  0  0  0  0  0  0999 V2000
   28.9975   14.3251   19.5242 N   0  0  0  0  0  0  0  0  0  0  0  0
   28.1431   14.3047   20.7473 C   0  0  2  0  0  0  0  0  0  0  0  0
   27.0138   15.2895   20.6558 C   0  0  0  0  0  0  0  0  0  0  0  0
   25.8959   15.0095   21.0783 O   0  0  0  0  0  0  0  0  0  0  0  0
   29.0039   14.5327   21.9865 C   0  0  0  0  0  0  0  0  0  0  0  0
   29.9277   16.0186   21.7459 S   0  0  0  0  0  0  0  0  0  0  0  0
   31.3043   15.7300   22.8087 C   0  0  0  0  0  0  0  0  0  0  0  0
   32.4486   16.6486   22.3920 C   0  0  0  0  0  0  0  0  0  0  0  0
   32.1012   18.0263   22.6765 N   0  0  0  0  0  0  0  0  0  0  0  0
   27.1473   16.4163   20.1834 O   0  0  0  0  0  0  0  0  0  0  0  0
  2  1  1  6  0  0  0
  2  3  1  0  0  0  0
  2  5  1  0  0  0  0
  3  4  1  0  0  0  0
  3 10  1  0  0  0  0
  5  6  1  0  0  0  0
  6  7  1  0  0  0  0
  7  8  1  0  0  0  0
  8  9  1  0  0  0  0
M  END
>  <CHROM.1>
140.64021305,53.76458762,-155.13916412,160.34554807,67.98247013,29.24860535
15.68874496,21.41599907,-2.73728558,-0.29558580,0.24322730

>  <Name>
ligand

>  <RI>
0

>  <Rbt.Current_Directory>
/home/itssahil/PROJECTS/Mol_Feturizer/New_Systems/rnas/3DIG

>  <Rbt.Executable>
rbdock ($Id: //depot/dev/client3/rdock/2013.1/src/exe/rbdock.cxx#4 $)

>  <Rbt.Library>
libRbt.so (2013.1, Build901 2013/11/27)

>  <Rbt.Parameter_File>
/export/apps/rDock/src/rDock_2013.1_src/data/scripts/dock_solv.prm

>  <Rbt.Receptor>
prm/pocket_docking_8.prm

>  <SCORE>
-9.83905

>  <SCORE.INTER>
-9.874

>  <SCORE.INTER.CONST>
1

>  <SCORE.INTER.POLAR>
0

>  <SCORE.INTER.ROT>
5

>  <SCORE.INTER.SOLV>
14.4695

>  <SCORE.INTER.VDW>
-18.3392

>  <SCORE.INTER.norm>
-0.9874

>  <SCORE.INTRA>
0.0349492

>  <SCORE.INTRA.DIHEDRAL>
0.687314

>  <SCORE.INTRA.DIHEDRAL.0>
2.60093

>  <SCORE.INTRA.POLAR>
0

>  <SCORE.INTRA.POLAR.0>
0

>  <SCORE.INTRA.REPUL>
0

>  <SCORE.INTRA.REPUL.0>
0

>  <SCORE.INTRA.SOLV>
0.393817

>  <SCORE.INTRA.SOLV.lig_0>
-33.7882

>  <SCORE.INTRA.VDW>
-0.505616

>  <SCORE.INTRA.VDW.0>
-0.593976

>  <SCORE.INTRA.norm>
0.00349492

>  <SCORE.RESTR>
0

>  <SCORE.RESTR.CAVITY>
0

>  <SCORE.RESTR.norm>
0

>  <SCORE.SYSTEM>
0

>  <SCORE.SYSTEM.CONST>
0

>  <SCORE.SYSTEM.DIHEDRAL>
0

>  <SCORE.SYSTEM.SOLV>
0

>  <SCORE.SYSTEM.norm>
0

>  <SCORE.heavy>
10

>  <SCORE.norm>
-0.983905

>  <RMSD>
5.460

$$$$
ligand
 OpenBabel11021811473D
libRbt.so/2013.1/901 2013/11/27
 10  9  0  0  0  0  0  0  0  0999 V2000
   27.4358   14.1285   19.0077 N   0  0  0  0  0  0  0  0  0  0  0  0
   28.0174   14.7993   20.2070 C   0  0  2  0  0  0  0  0  0  0  0  0
   27.0258   14.8925   21.3302 C   0  0  0  0  0  0  0  0  0  0  0  0
   25.8184   14.8824   21.1093 O   0  0  0  0  0  0  0  0  0  0  0  0
   28.5747   16.1659   19.8192 C   0  0  0  0  0  0  0  0  0  0  0  0
   29.4776   16.8005   21.1980 S   0  0  0  0  0  0  0  0  0  0  0  0
   30.8449   15.6885   21.2403 C   0  0  0  0  0  0  0  0  0  0  0  0
   31.6787   15.9810   22.4837 C   0  0  0  0  0  0  0  0  0  0  0  0
   32.2413   17.3135   22.3957 N   0  0  0  0  0  0  0  0  0  0  0  0
   27.3592   14.9597   22.5113 O   0  0  0  0  0  0  0  0  0  0  0  0
  2  1  1  6  0  0  0
  2  3  1  0  0  0  0
  2  5  1  0  0  0  0
  3  4  1  0  0  0  0
  3 10  1  0  0  0  0
  5  6  1  0  0  0  0
  6  7  1  0  0  0  0
  7  8  1  0  0  0  0
  8  9  1  0  0  0  0
M  END
>  <CHROM.1>
-24.71988467,-170.92482631,68.23502070,-173.67661510,-64.04619521,28.89086590
15.69897304,21.15821445,-2.82826529,0.36130926,1.45040937

>  <Name>
ligand

>  <RI>
0

>  <Rbt.Current_Directory>
/home/itssahil/PROJECTS/Mol_Feturizer/New_Systems/rnas/3DIG

>  <Rbt.Executable>
rbdock ($Id: //depot/dev/client3/rdock/2013.1/src/exe/rbdock.cxx#4 $)

>  <Rbt.Library>
libRbt.so (2013.1, Build901 2013/11/27)

>  <Rbt.Parameter_File>
/export/apps/rDock/src/rDock_2013.1_src/data/scripts/dock_solv.prm

>  <Rbt.Receptor>
prm/pocket_docking_5.prm

>  <SCORE>
-12.6258

>  <SCORE.INTER>
-11.7947

>  <SCORE.INTER.CONST>
1

>  <SCORE.INTER.POLAR>
0

>  <SCORE.INTER.ROT>
5

>  <SCORE.INTER.SOLV>
14.9268

>  <SCORE.INTER.VDW>
-19.7721

>  <SCORE.INTER.norm>
-1.17947

>  <SCORE.INTRA>
-0.831046

>  <SCORE.INTRA.DIHEDRAL>
-0.517399

>  <SCORE.INTRA.DIHEDRAL.0>
2.60093

>  <SCORE.INTRA.POLAR>
0

>  <SCORE.INTRA.POLAR.0>
0

>  <SCORE.INTRA.REPUL>
0

>  <SCORE.INTRA.REPUL.0>
0

>  <SCORE.INTRA.SOLV>
-0.401981

>  <SCORE.INTRA.SOLV.lig_0>
-33.7882

>  <SCORE.INTRA.VDW>
-0.371356

>  <SCORE.INTRA.VDW.0>
-0.593976

>  <SCORE.INTRA.norm>
-0.0831046

>  <SCORE.RESTR>
0

>  <SCORE.RESTR.CAVITY>
0

>  <SCORE.RESTR.norm>
0

>  <SCORE.SYSTEM>
0

>  <SCORE.SYSTEM.CONST>
0

>  <SCORE.SYSTEM.DIHEDRAL>
0

>  <SCORE.SYSTEM.SOLV>
0

>  <SCORE.SYSTEM.norm>
0

>  <SCORE.heavy>
10

>  <SCORE.norm>
-1.26258

>  <RMSD>
5.462

$$$$
ligand
 OpenBabel11021811473D
libRbt.so/2013.1/901 2013/11/27
 10  9  0  0  0  0  0  0  0  0999 V2000
   27.4377   14.1179   19.0004 N   0  0  0  0  0  0  0  0  0  0  0  0
   28.0228   14.7838   20.2007 C   0  0  2  0  0  0  0  0  0  0  0  0
   27.0370   14.8654   21.3299 C   0  0  0  0  0  0  0  0  0  0  0  0
   25.8286   14.8688   21.1144 O   0  0  0  0  0  0  0  0  0  0  0  0
   28.5717   16.1554   19.8185 C   0  0  0  0  0  0  0  0  0  0  0  0
   29.4565   16.7972   21.2057 S   0  0  0  0  0  0  0  0  0  0  0  0
   30.8415   15.7074   21.2498 C   0  0  0  0  0  0  0  0  0  0  0  0
   31.6595   16.0018   22.5033 C   0  0  0  0  0  0  0  0  0  0  0  0
   32.2179   17.3366   22.4232 N   0  0  0  0  0  0  0  0  0  0  0  0
   27.3763   14.9094   22.5104 O   0  0  0  0  0  0  0  0  0  0  0  0
  2  1  1  6  0  0  0
  2  3  1  0  0  0  0
  2  5  1  0  0  0  0
  3  4  1  0  0  0  0
  3 10  1  0  0  0  0
  5  6  1  0  0  0  0
  6  7  1  0  0  0  0
  7  8  1  0  0  0  0
  8  9  1  0  0  0  0
M  END
>  <CHROM.1>
-25.68248036,-171.85687855,68.78804180,-173.38098345,-64.92455564,28.88649909
15.69224040,21.16390337,-2.82563692,0.37389573,1.46227427

>  <Name>
ligand

>  <RI>
0

>  <Rbt.Current_Directory>
/home/itssahil/PROJECTS/Mol_Feturizer/New_Systems/rnas/3DIG

>  <Rbt.Executable>
rbdock ($Id: //depot/dev/client3/rdock/2013.1/src/exe/rbdock.cxx#4 $)

>  <Rbt.Library>
libRbt.so (2013.1, Build901 2013/11/27)

>  <Rbt.Parameter_File>
/export/apps/rDock/src/rDock_2013.1_src/data/scripts/dock_solv.prm

>  <Rbt.Receptor>
prm/pocket_docking_8.prm

>  <SCORE>
-12.6623

>  <SCORE.INTER>
-11.8027

>  <SCORE.INTER.CONST>
1

>  <SCORE.INTER.POLAR>
0

>  <SCORE.INTER.ROT>
5

>  <SCORE.INTER.SOLV>
14.9891

>  <SCORE.INTER.VDW>
-19.7982

>  <SCORE.INTER.norm>
-1.18027

>  <SCORE.INTRA>
-0.859557

>  <SCORE.INTRA.DIHEDRAL>
-0.522467

>  <SCORE.INTRA.DIHEDRAL.0>
2.60093

>  <SCORE.INTRA.POLAR>
0

>  <SCORE.INTRA.POLAR.0>
0

>  <SCORE.INTRA.REPUL>
0

>  <SCORE.INTRA.REPUL.0>
0

>  <SCORE.INTRA.SOLV>
-0.428662

>  <SCORE.INTRA.SOLV.lig_0>
-33.7882

>  <SCORE.INTRA.VDW>
-0.383993

>  <SCORE.INTRA.VDW.0>
-0.593976

>  <SCORE.INTRA.norm>
-0.0859557

>  <SCORE.RESTR>
0

>  <SCORE.RESTR.CAVITY>
0

>  <SCORE.RESTR.norm>
0

>  <SCORE.SYSTEM>
0

>  <SCORE.SYSTEM.CONST>
0

>  <SCORE.SYSTEM.DIHEDRAL>
0

>  <SCORE.SYSTEM.SOLV>
0

>  <SCORE.SYSTEM.norm>
0

>  <SCORE.heavy>
10

>  <SCORE.norm>
-1.26623

>  <RMSD>
5.462

$$$$
ligand
 OpenBabel11021811473D
libRbt.so/2013.1/901 2013/11/27
 10  9  0  0  0  0  0  0  0  0999 V2000
   27.4938   14.0995   18.9508 N   0  0  0  0  0  0  0  0  0  0  0  0
   28.0405   14.7760   20.1632 C   0  0  2  0  0  0  0  0  0  0  0  0
   27.0223   14.8587   21.2631 C   0  0  0  0  0  0  0  0  0  0  0  0
   27.3652   14.8712   22.4416 O   0  0  0  0  0  0  0  0  0  0  0  0
   28.5927   16.1482   19.7884 C   0  0  0  0  0  0  0  0  0  0  0  0
   29.4565   16.7920   21.1879 S   0  0  0  0  0  0  0  0  0  0  0  0
   30.8459   15.7086   21.2482 C   0  0  0  0  0  0  0  0  0  0  0  0
   31.6438   16.0018   22.5149 C   0  0  0  0  0  0  0  0  0  0  0  0
   32.2097   17.3338   22.4418 N   0  0  0  0  0  0  0  0  0  0  0  0
   25.8145   14.9399   21.0500 O   0  0  0  0  0  0  0  0  0  0  0  0
  2  1  1  6  0  0  0
  2  3  1  0  0  0  0
  2  5  1  0  0  0  0
  3  4  1  0  0  0  0
  3 10  1  0  0  0  0
  5  6  1  0  0  0  0
  6  7  1  0  0  0  0
  7  8  1  0  0  0  0
  8  9  1  0  0  0  0
M  END
>  <CHROM.1>
150.94351239,-170.94185504,69.01833666,-173.19746762,-65.58054453,28.88935351
15.69094577,21.13433401,-2.80639253,0.36441169,1.44293552

>  <Name>
ligand

>  <RI>
0

>  <Rbt.Current_Directory>
/home/itssahil/PROJECTS/Mol_Feturizer/New_Systems/rnas/3DIG

>  <Rbt.Executable>
rbdock ($Id: //depot/dev/client3/rdock/2013.1/src/exe/rbdock.cxx#4 $)

>  <Rbt.Library>
libRbt.so (2013.1, Build901 2013/11/27)

>  <Rbt.Parameter_File>
/export/apps/rDock/src/rDock_2013.1_src/data/scripts/dock_solv.prm

>  <Rbt.Receptor>
prm/pocket_docking_7.prm

>  <SCORE>
-12.6616

>  <SCORE.INTER>
-11.7258

>  <SCORE.INTER.CONST>
1

>  <SCORE.INTER.POLAR>
0

>  <SCORE.INTER.ROT>
5

>  <SCORE.INTER.SOLV>
14.9014

>  <SCORE.INTER.VDW>
-19.7177

>  <SCORE.INTER.norm>
-1.17258

>  <SCORE.INTRA>
-0.93579

>  <SCORE.INTRA.DIHEDRAL>
-0.523361

>  <SCORE.INTRA.DIHEDRAL.0>
2.60093

>  <SCORE.INTRA.POLAR>
0

>  <SCORE.INTRA.POLAR.0>
0

>  <SCORE.INTRA.REPUL>
0

>  <SCORE.INTRA.REPUL.0>
0

>  <SCORE.INTRA.SOLV>
-0.451828

>  <SCORE.INTRA.SOLV.lig_0>
-33.7882

>  <SCORE.INTRA.VDW>
-0.448196

>  <SCORE.INTRA.VDW.0>
-0.593976

>  <SCORE.INTRA.norm>
-0.093579

>  <SCORE.RESTR>
0

>  <SCORE.RESTR.CAVITY>
0

>  <SCORE.RESTR.norm>
0

>  <SCORE.SYSTEM>
0

>  <SCORE.SYSTEM.CONST>
0

>  <SCORE.SYSTEM.DIHEDRAL>
0

>  <SCORE.SYSTEM.SOLV>
0

>  <SCORE.SYSTEM.norm>
0

>  <SCORE.heavy>
10

>  <SCORE.norm>
-1.26616

>  <RMSD>
5.463

$$$$
ligand
 OpenBabel11021811473D
libRbt.so/2013.1/901 2013/11/27
 10  9  0  0  0  0  0  0  0  0999 V2000
   29.1078   16.4457   19.8493 N   0  0  0  0  0  0  0  0  0  0  0  0
   28.6418   15.1283   20.3723 C   0  0  2  0  0  0  0  0  0  0  0  0
   27.2833   14.7674   19.8453 C   0  0  0  0  0  0  0  0  0  0  0  0
   26.2692   15.2798   20.3096 O   0  0  0  0  0  0  0  0  0  0  0  0
   28.6831   15.1305   21.8977 C   0  0  0  0  0  0  0  0  0  0  0  0
   30.3759   15.0870   22.3998 S   0  0  0  0  0  0  0  0  0  0  0  0
   30.8009   16.7940   22.2841 C   0  0  0  0  0  0  0  0  0  0  0  0
   32.3065   16.9406   22.4809 C   0  0  0  0  0  0  0  0  0  0  0  0
   33.0092   16.3117   21.3807 N   0  0  0  0  0  0  0  0  0  0  0  0
   27.1146   13.9724   18.9232 O   0  0  0  0  0  0  0  0  0  0  0  0
  2  1  1  1  0  0  0
  2  3  1  0  0  0  0
  2  5  1  0  0  0  0
  3  4  1  0  0  0  0
  3 10  1  0  0  0  0
  5  6  1  0  0  0  0
  6  7  1  0  0  0  0
  7  8  1  0  0  0  0
  8  9  1  0  0  0  0
M  END
>  <CHROM.1>
-77.72598278,-71.50297808,82.85524956,-171.52544205,65.95451084,29.43868283
15.51852079,21.12030720,-2.77460759,0.40194584,1.78897002

>  <Name>
ligand

>  <RI>
0

>  <Rbt.Current_Directory>
/home/itssahil/PROJECTS/Mol_Feturizer/New_Systems/rnas/3DIG

>  <Rbt.Executable>
rbdock ($Id: //depot/dev/client3/rdock/2013.1/src/exe/rbdock.cxx#4 $)

>  <Rbt.Library>
libRbt.so (2013.1, Build901 2013/11/27)

>  <Rbt.Parameter_File>
/export/apps/rDock/src/rDock_2013.1_src/data/scripts/dock_solv.prm

>  <Rbt.Receptor>
prm/pocket_docking_8.prm

>  <SCORE>
-10.0254

>  <SCORE.INTER>
-10.9369

>  <SCORE.INTER.CONST>
1

>  <SCORE.INTER.POLAR>
0

>  <SCORE.INTER.ROT>
5

>  <SCORE.INTER.SOLV>
12.4904

>  <SCORE.INTER.VDW>
-18.3881

>  <SCORE.INTER.norm>
-1.09369

>  <SCORE.INTRA>
0.911554

>  <SCORE.INTRA.DIHEDRAL>
0.308504

>  <SCORE.INTRA.DIHEDRAL.0>
2.60093

>  <SCORE.INTRA.POLAR>
0

>  <SCORE.INTRA.POLAR.0>
0

>  <SCORE.INTRA.REPUL>
0

>  <SCORE.INTRA.REPUL.0>
0

>  <SCORE.INTRA.SOLV>
1.90147

>  <SCORE.INTRA.SOLV.lig_0>
-33.7882

>  <SCORE.INTRA.VDW>
-0.193432

>  <SCORE.INTRA.VDW.0>
-0.593976

>  <SCORE.INTRA.norm>
0.0911554

>  <SCORE.RESTR>
0

>  <SCORE.RESTR.CAVITY>
0

>  <SCORE.RESTR.norm>
0

>  <SCORE.SYSTEM>
0

>  <SCORE.SYSTEM.CONST>
0

>  <SCORE.SYSTEM.DIHEDRAL>
0

>  <SCORE.SYSTEM.SOLV>
0

>  <SCORE.SYSTEM.norm>
0

>  <SCORE.heavy>
10

>  <SCORE.norm>
-1.00254

>  <RMSD>
5.463

$$$$
ligand
 OpenBabel11021811473D
libRbt.so/2013.1/901 2013/11/27
 10  9  0  0  0  0  0  0  0  0999 V2000
   27.3239   14.0518   19.0807 N   0  0  0  0  0  0  0  0  0  0  0  0
   27.9596   14.7894   20.2113 C   0  0  2  0  0  0  0  0  0  0  0  0
   27.0524   14.8713   21.4045 C   0  0  0  0  0  0  0  0  0  0  0  0
   25.8350   14.7769   21.2800 O   0  0  0  0  0  0  0  0  0  0  0  0
   28.4155   16.1679   19.7418 C   0  0  0  0  0  0  0  0  0  0  0  0
   29.4847   16.8409   20.9759 S   0  0  0  0  0  0  0  0  0  0  0  0
   30.8314   15.7055   20.9040 C   0  0  0  0  0  0  0  0  0  0  0  0
   32.1207   16.4498   21.2369 C   0  0  0  0  0  0  0  0  0  0  0  0
   32.0411   16.9953   22.5770 N   0  0  0  0  0  0  0  0  0  0  0  0
   27.4698   15.0117   22.5521 O   0  0  0  0  0  0  0  0  0  0  0  0
  2  1  1  6  0  0  0
  2  3  1  0  0  0  0
  2  5  1  0  0  0  0
  3  4  1  0  0  0  0
  3 10  1  0  0  0  0
  5  6  1  0  0  0  0
  6  7  1  0  0  0  0
  7  8  1  0  0  0  0
  8  9  1  0  0  0  0
M  END
>  <CHROM.1>
-23.71512511,-166.77245731,64.66533522,148.10947763,61.01375760,28.89863702
15.70753956,21.01673711,-2.91427809,0.36698097,1.39100770

>  <Name>
ligand

>  <RI>
0

>  <Rbt.Current_Directory>
/home/itssahil/PROJECTS/Mol_Feturizer/New_Systems/rnas/3DIG

>  <Rbt.Executable>
rbdock ($Id: //depot/dev/client3/rdock/2013.1/src/exe/rbdock.cxx#4 $)

>  <Rbt.Library>
libRbt.so (2013.1, Build901 2013/11/27)

>  <Rbt.Parameter_File>
/export/apps/rDock/src/rDock_2013.1_src/data/scripts/dock_solv.prm

>  <Rbt.Receptor>
prm/pocket_docking_3.prm

>  <SCORE>
-11.6742

>  <SCORE.INTER>
-11.6755

>  <SCORE.INTER.CONST>
1

>  <SCORE.INTER.POLAR>
0

>  <SCORE.INTER.ROT>
5

>  <SCORE.INTER.SOLV>
15.0687

>  <SCORE.INTER.VDW>
-19.7399

>  <SCORE.INTER.norm>
-1.16755

>  <SCORE.INTRA>
0.00121261

>  <SCORE.INTRA.DIHEDRAL>
0.917485

>  <SCORE.INTRA.DIHEDRAL.0>
2.60093

>  <SCORE.INTRA.POLAR>
0

>  <SCORE.INTRA.POLAR.0>
0

>  <SCORE.INTRA.REPUL>
0

>  <SCORE.INTRA.REPUL.0>
0

>  <SCORE.INTRA.SOLV>
-0.352215

>  <SCORE.INTRA.SOLV.lig_0>
-33.7882

>  <SCORE.INTRA.VDW>
-0.281423

>  <SCORE.INTRA.VDW.0>
-0.593976

>  <SCORE.INTRA.norm>
0.000121261

>  <SCORE.RESTR>
0

>  <SCORE.RESTR.CAVITY>
0

>  <SCORE.RESTR.norm>
0

>  <SCORE.SYSTEM>
0

>  <SCORE.SYSTEM.CONST>
0

>  <SCORE.SYSTEM.DIHEDRAL>
0

>  <SCORE.SYSTEM.SOLV>
0

>  <SCORE.SYSTEM.norm>
0

>  <SCORE.heavy>
10

>  <SCORE.norm>
-1.16742

>  <RMSD>
5.465

$$$$
ligand
 OpenBabel11021811473D
libRbt.so/2013.1/901 2013/11/27
 10  9  0  0  0  0  0  0  0  0999 V2000
   28.4753   14.9328   19.2968 N   0  0  0  0  0  0  0  0  0  0  0  0
   28.4050   14.4868   20.7189 C   0  0  2  0  0  0  0  0  0  0  0  0
   27.0997   14.8630   21.3579 C   0  0  0  0  0  0  0  0  0  0  0  0
   26.9780   14.8868   22.5791 O   0  0  0  0  0  0  0  0  0  0  0  0
   29.6011   15.0313   21.4943 C   0  0  0  0  0  0  0  0  0  0  0  0
   29.6168   16.7881   21.3141 S   0  0  0  0  0  0  0  0  0  0  0  0
   31.0555   17.2048   22.2438 C   0  0  0  0  0  0  0  0  0  0  0  0
   32.2909   16.7870   21.4524 C   0  0  0  0  0  0  0  0  0  0  0  0
   33.4881   17.2031   22.1547 N   0  0  0  0  0  0  0  0  0  0  0  0
   26.1066   15.1838   20.7088 O   0  0  0  0  0  0  0  0  0  0  0  0
  2  1  1  6  0  0  0
  2  3  1  0  0  0  0
  2  5  1  0  0  0  0
  3  4  1  0  0  0  0
  3 10  1  0  0  0  0
  5  6  1  0  0  0  0
  6  7  1  0  0  0  0
  7  8  1  0  0  0  0
  8  9  1  0  0  0  0
M  END
>  <CHROM.1>
-161.71875254,55.93617051,-179.22391151,72.91419025,176.06287607,29.31095294
15.85736359,21.34147621,-2.87981457,0.32213009,1.22140997

>  <Name>
ligand

>  <RI>
0

>  <Rbt.Current_Directory>
/home/itssahil/PROJECTS/Mol_Feturizer/New_Systems/rnas/3DIG

>  <Rbt.Executable>
rbdock ($Id: //depot/dev/client3/rdock/2013.1/src/exe/rbdock.cxx#4 $)

>  <Rbt.Library>
libRbt.so (2013.1, Build901 2013/11/27)

>  <Rbt.Parameter_File>
/export/apps/rDock/src/rDock_2013.1_src/data/scripts/dock_solv.prm

>  <Rbt.Receptor>
prm/pocket_docking_4.prm

>  <SCORE>
-11.2289

>  <SCORE.INTER>
-10.9076

>  <SCORE.INTER.CONST>
1

>  <SCORE.INTER.POLAR>
0

>  <SCORE.INTER.ROT>
5

>  <SCORE.INTER.SOLV>
13.1577

>  <SCORE.INTER.VDW>
-18.5909

>  <SCORE.INTER.norm>
-1.09076

>  <SCORE.INTRA>
-0.321318

>  <SCORE.INTRA.DIHEDRAL>
-0.688298

>  <SCORE.INTRA.DIHEDRAL.0>
2.60093

>  <SCORE.INTRA.POLAR>
0

>  <SCORE.INTRA.POLAR.0>
0

>  <SCORE.INTRA.REPUL>
0

>  <SCORE.INTRA.REPUL.0>
0

>  <SCORE.INTRA.SOLV>
-0.400725

>  <SCORE.INTRA.SOLV.lig_0>
-33.7882

>  <SCORE.INTRA.VDW>
0.223194

>  <SCORE.INTRA.VDW.0>
-0.593976

>  <SCORE.INTRA.norm>
-0.0321318

>  <SCORE.RESTR>
0

>  <SCORE.RESTR.CAVITY>
0

>  <SCORE.RESTR.norm>
0

>  <SCORE.SYSTEM>
0

>  <SCORE.SYSTEM.CONST>
0

>  <SCORE.SYSTEM.DIHEDRAL>
0

>  <SCORE.SYSTEM.SOLV>
0

>  <SCORE.SYSTEM.norm>
0

>  <SCORE.heavy>
10

>  <SCORE.norm>
-1.12289

>  <RMSD>
5.465

$$$$
ligand
 OpenBabel11021811473D
libRbt.so/2013.1/901 2013/11/27
 10  9  0  0  0  0  0  0  0  0999 V2000
   28.8483   14.7462   19.5746 N   0  0  0  0  0  0  0  0  0  0  0  0
   28.6461   15.2369   20.9691 C   0  0  2  0  0  0  0  0  0  0  0  0
   27.2287   15.0492   21.4268 C   0  0  0  0  0  0  0  0  0  0  0  0
   26.2973   15.0844   20.6281 O   0  0  0  0  0  0  0  0  0  0  0  0
   29.0966   16.6906   21.0792 C   0  0  0  0  0  0  0  0  0  0  0  0
   30.8519   16.7359   20.8895 S   0  0  0  0  0  0  0  0  0  0  0  0
   31.3727   16.1920   22.4835 C   0  0  0  0  0  0  0  0  0  0  0  0
   32.8518   16.5221   22.6571 C   0  0  0  0  0  0  0  0  0  0  0  0
   33.0438   17.9576   22.6091 N   0  0  0  0  0  0  0  0  0  0  0  0
   26.9288   14.8317   22.5987 O   0  0  0  0  0  0  0  0  0  0  0  0
  2  1  1  6  0  0  0
  2  3  1  0  0  0  0
  2  5  1  0  0  0  0
  3  4  1  0  0  0  0
  3 10  1  0  0  0  0
  5  6  1  0  0  0  0
  6  7  1  0  0  0  0
  7  8  1  0  0  0  0
  8  9  1  0  0  0  0
M  END
>  <CHROM.1>
-30.32096279,-68.17500352,-77.63056382,-164.60962921,62.89126532,29.63002386
15.99031167,21.43062925,-2.95162711,0.37557895,1.56303576

>  <Name>
ligand

>  <RI>
0

>  <Rbt.Current_Directory>
/home/itssahil/PROJECTS/Mol_Feturizer/New_Systems/rnas/3DIG

>  <Rbt.Executable>
rbdock ($Id: //depot/dev/client3/rdock/2013.1/src/exe/rbdock.cxx#4 $)

>  <Rbt.Library>
libRbt.so (2013.1, Build901 2013/11/27)

>  <Rbt.Parameter_File>
/export/apps/rDock/src/rDock_2013.1_src/data/scripts/dock_solv.prm

>  <Rbt.Receptor>
prm/pocket_docking_5.prm

>  <SCORE>
-9.74538

>  <SCORE.INTER>
-9.66799

>  <SCORE.INTER.CONST>
1

>  <SCORE.INTER.POLAR>
0

>  <SCORE.INTER.ROT>
5

>  <SCORE.INTER.SOLV>
12.0101

>  <SCORE.INTER.VDW>
-17.382

>  <SCORE.INTER.norm>
-0.966799

>  <SCORE.INTRA>
-0.0773953

>  <SCORE.INTRA.DIHEDRAL>
0.0431237

>  <SCORE.INTRA.DIHEDRAL.0>
2.60093

>  <SCORE.INTRA.POLAR>
0

>  <SCORE.INTRA.POLAR.0>
0

>  <SCORE.INTRA.REPUL>
0

>  <SCORE.INTRA.REPUL.0>
0

>  <SCORE.INTRA.SOLV>
0.577198

>  <SCORE.INTRA.SOLV.lig_0>
-33.7882

>  <SCORE.INTRA.VDW>
-0.387556

>  <SCORE.INTRA.VDW.0>
-0.593976

>  <SCORE.INTRA.norm>
-0.00773953

>  <SCORE.RESTR>
0

>  <SCORE.RESTR.CAVITY>
0

>  <SCORE.RESTR.norm>
0

>  <SCORE.SYSTEM>
0

>  <SCORE.SYSTEM.CONST>
0

>  <SCORE.SYSTEM.DIHEDRAL>
0

>  <SCORE.SYSTEM.SOLV>
0

>  <SCORE.SYSTEM.norm>
0

>  <SCORE.heavy>
10

>  <SCORE.norm>
-0.974538

>  <RMSD>
5.465

$$$$
ligand
 OpenBabel11021811473D
libRbt.so/2013.1/901 2013/11/27
 10  9  0  0  0  0  0  0  0  0999 V2000
   27.3958   14.1206   18.9611 N   0  0  0  0  0  0  0  0  0  0  0  0
   27.9787   14.7924   20.1593 C   0  0  2  0  0  0  0  0  0  0  0  0
   26.9925   14.8745   21.2881 C   0  0  0  0  0  0  0  0  0  0  0  0
   27.3711   14.9541   22.4529 O   0  0  0  0  0  0  0  0  0  0  0  0
   28.5233   16.1643   19.7725 C   0  0  0  0  0  0  0  0  0  0  0  0
   29.4382   16.7970   21.1443 S   0  0  0  0  0  0  0  0  0  0  0  0
   30.7868   15.6628   21.1960 C   0  0  0  0  0  0  0  0  0  0  0  0
   31.5974   15.9195   22.4625 C   0  0  0  0  0  0  0  0  0  0  0  0
   32.2074   17.2324   22.3976 N   0  0  0  0  0  0  0  0  0  0  0  0
   25.7762   14.8894   21.1121 O   0  0  0  0  0  0  0  0  0  0  0  0
  2  1  1  6  0  0  0
  2  3  1  0  0  0  0
  2  5  1  0  0  0  0
  3  4  1  0  0  0  0
  3 10  1  0  0  0  0
  5  6  1  0  0  0  0
  6  7  1  0  0  0  0
  7  8  1  0  0  0  0
  8  9  1  0  0  0  0
M  END
>  <CHROM.1>
154.82779044,-170.53668488,66.56235482,-171.60962725,-65.33884773,28.85089508
15.68081313,21.12089707,-2.82891625,0.35879031,1.46858746

>  <Name>
ligand

>  <RI>
0

>  <Rbt.Current_Directory>
/home/itssahil/PROJECTS/Mol_Feturizer/New_Systems/rnas/3DIG

>  <Rbt.Executable>
rbdock ($Id: //depot/dev/client3/rdock/2013.1/src/exe/rbdock.cxx#4 $)

>  <Rbt.Library>
libRbt.so (2013.1, Build901 2013/11/27)

>  <Rbt.Parameter_File>
/export/apps/rDock/src/rDock_2013.1_src/data/scripts/dock_solv.prm

>  <Rbt.Receptor>
prm/pocket_docking_8.prm

>  <SCORE>
-12.6768

>  <SCORE.INTER>
-11.8333

>  <SCORE.INTER.CONST>
1

>  <SCORE.INTER.POLAR>
0

>  <SCORE.INTER.ROT>
5

>  <SCORE.INTER.SOLV>
15.0694

>  <SCORE.INTER.VDW>
-19.8454

>  <SCORE.INTER.norm>
-1.18333

>  <SCORE.INTRA>
-0.843463

>  <SCORE.INTRA.DIHEDRAL>
-0.528881

>  <SCORE.INTRA.DIHEDRAL.0>
2.60093

>  <SCORE.INTRA.POLAR>
0

>  <SCORE.INTRA.POLAR.0>
0

>  <SCORE.INTRA.REPUL>
0

>  <SCORE.INTRA.REPUL.0>
0

>  <SCORE.INTRA.SOLV>
-0.431372

>  <SCORE.INTRA.SOLV.lig_0>
-33.7882

>  <SCORE.INTRA.VDW>
-0.363336

>  <SCORE.INTRA.VDW.0>
-0.593976

>  <SCORE.INTRA.norm>
-0.0843463

>  <SCORE.RESTR>
0

>  <SCORE.RESTR.CAVITY>
0

>  <SCORE.RESTR.norm>
0

>  <SCORE.SYSTEM>
0

>  <SCORE.SYSTEM.CONST>
0

>  <SCORE.SYSTEM.DIHEDRAL>
0

>  <SCORE.SYSTEM.SOLV>
0

>  <SCORE.SYSTEM.norm>
0

>  <SCORE.heavy>
10

>  <SCORE.norm>
-1.26768

>  <RMSD>
5.465

$$$$
ligand
 OpenBabel11021811473D
libRbt.so/2013.1/901 2013/11/27
 10  9  0  0  0  0  0  0  0  0999 V2000
   28.6175   14.9107   19.2434 N   0  0  0  0  0  0  0  0  0  0  0  0
   28.1904   14.3647   20.5647 C   0  0  2  0  0  0  0  0  0  0  0  0
   26.8339   14.8683   20.9646 C   0  0  0  0  0  0  0  0  0  0  0  0
   26.1792   15.5844   20.2129 O   0  0  0  0  0  0  0  0  0  0  0  0
   29.2494   14.6698   21.6201 C   0  0  0  0  0  0  0  0  0  0  0  0
   29.5190   16.4152   21.6369 S   0  0  0  0  0  0  0  0  0  0  0  0
   30.7706   16.5463   22.8715 C   0  0  0  0  0  0  0  0  0  0  0  0
   31.8355   17.5268   22.3903 C   0  0  0  0  0  0  0  0  0  0  0  0
   32.5426   16.9666   21.2563 N   0  0  0  0  0  0  0  0  0  0  0  0
   26.3035   14.5796   22.0351 O   0  0  0  0  0  0  0  0  0  0  0  0
  2  1  1  6  0  0  0
  2  3  1  0  0  0  0
  2  5  1  0  0  0  0
  3  4  1  0  0  0  0
  3 10  1  0  0  0  0
  5  6  1  0  0  0  0
  6  7  1  0  0  0  0
  7  8  1  0  0  0  0
  8  9  1  0  0  0  0
M  END
>  <CHROM.1>
3.55348442,55.79250548,-178.92133229,136.82615635,-67.56870414,29.02623572
15.73460528,21.32499222,-2.80853750,0.34014786,1.29133684

>  <Name>
ligand

>  <RI>
0

>  <Rbt.Current_Directory>
/home/itssahil/PROJECTS/Mol_Feturizer/New_Systems/rnas/3DIG

>  <Rbt.Executable>
rbdock ($Id: //depot/dev/client3/rdock/2013.1/src/exe/rbdock.cxx#4 $)

>  <Rbt.Library>
libRbt.so (2013.1, Build901 2013/11/27)

>  <Rbt.Parameter_File>
/export/apps/rDock/src/rDock_2013.1_src/data/scripts/dock_solv.prm

>  <Rbt.Receptor>
prm/pocket_docking_4.prm

>  <SCORE>
-9.78013

>  <SCORE.INTER>
-10.4133

>  <SCORE.INTER.CONST>
1

>  <SCORE.INTER.POLAR>
0

>  <SCORE.INTER.ROT>
5

>  <SCORE.INTER.SOLV>
12.3952

>  <SCORE.INTER.VDW>
-18.0072

>  <SCORE.INTER.norm>
-1.04133

>  <SCORE.INTRA>
0.63316

>  <SCORE.INTRA.DIHEDRAL>
1.13009

>  <SCORE.INTRA.DIHEDRAL.0>
2.60093

>  <SCORE.INTRA.POLAR>
0

>  <SCORE.INTRA.POLAR.0>
0

>  <SCORE.INTRA.REPUL>
0

>  <SCORE.INTRA.REPUL.0>
0

>  <SCORE.INTRA.SOLV>
0.709696

>  <SCORE.INTRA.SOLV.lig_0>
-33.7882

>  <SCORE.INTRA.VDW>
-0.286734

>  <SCORE.INTRA.VDW.0>
-0.593976

>  <SCORE.INTRA.norm>
0.063316

>  <SCORE.RESTR>
0

>  <SCORE.RESTR.CAVITY>
0

>  <SCORE.RESTR.norm>
0

>  <SCORE.SYSTEM>
0

>  <SCORE.SYSTEM.CONST>
0

>  <SCORE.SYSTEM.DIHEDRAL>
0

>  <SCORE.SYSTEM.SOLV>
0

>  <SCORE.SYSTEM.norm>
0

>  <SCORE.heavy>
10

>  <SCORE.norm>
-0.978013

>  <RMSD>
5.467

$$$$
ligand
 OpenBabel11021811473D
libRbt.so/2013.1/901 2013/11/27
 10  9  0  0  0  0  0  0  0  0999 V2000
   26.1770   14.8476   20.9563 N   0  0  0  0  0  0  0  0  0  0  0  0
   27.3238   15.5928   20.3596 C   0  0  2  0  0  0  0  0  0  0  0  0
   27.7856   14.9703   19.0740 C   0  0  0  0  0  0  0  0  0  0  0  0
   28.5208   15.5819   18.3045 O   0  0  0  0  0  0  0  0  0  0  0  0
   28.4538   15.7104   21.3783 C   0  0  0  0  0  0  0  0  0  0  0  0
   29.6161   16.8943   20.7728 S   0  0  0  0  0  0  0  0  0  0  0  0
   30.7077   17.0235   22.1510 C   0  0  0  0  0  0  0  0  0  0  0  0
   31.6633   15.8345   22.1348 C   0  0  0  0  0  0  0  0  0  0  0  0
   32.5610   15.9412   21.0023 N   0  0  0  0  0  0  0  0  0  0  0  0
   27.4788   13.8289   18.7370 O   0  0  0  0  0  0  0  0  0  0  0  0
  2  1  1  1  0  0  0
  2  3  1  0  0  0  0
  2  5  1  0  0  0  0
  3  4  1  0  0  0  0
  3 10  1  0  0  0  0
  5  6  1  0  0  0  0
  6  7  1  0  0  0  0
  7  8  1  0  0  0  0
  8  9  1  0  0  0  0
M  END
>  <CHROM.1>
164.90536518,-167.31613536,173.49616252,79.62508420,68.15613516,29.09627922
15.75238264,20.48928451,2.58680949,-0.16071627,-1.97537171

>  <Name>
ligand

>  <RI>
0

>  <Rbt.Current_Directory>
/home/itssahil/PROJECTS/Mol_Feturizer/New_Systems/rnas/3DIG

>  <Rbt.Executable>
rbdock ($Id: //depot/dev/client3/rdock/2013.1/src/exe/rbdock.cxx#4 $)

>  <Rbt.Library>
libRbt.so (2013.1, Build901 2013/11/27)

>  <Rbt.Parameter_File>
/export/apps/rDock/src/rDock_2013.1_src/data/scripts/dock_solv.prm

>  <Rbt.Receptor>
prm/pocket_docking_6.prm

>  <SCORE>
-10.2979

>  <SCORE.INTER>
-10.0151

>  <SCORE.INTER.CONST>
1

>  <SCORE.INTER.POLAR>
0

>  <SCORE.INTER.ROT>
5

>  <SCORE.INTER.SOLV>
18.5309

>  <SCORE.INTER.VDW>
-19.787

>  <SCORE.INTER.norm>
-1.00151

>  <SCORE.INTRA>
-0.28284

>  <SCORE.INTRA.DIHEDRAL>
0.329213

>  <SCORE.INTRA.DIHEDRAL.0>
2.60093

>  <SCORE.INTRA.POLAR>
0

>  <SCORE.INTRA.POLAR.0>
0

>  <SCORE.INTRA.REPUL>
0

>  <SCORE.INTRA.REPUL.0>
0

>  <SCORE.INTRA.SOLV>
-0.362458

>  <SCORE.INTRA.SOLV.lig_0>
-33.7882

>  <SCORE.INTRA.VDW>
-0.266217

>  <SCORE.INTRA.VDW.0>
-0.593976

>  <SCORE.INTRA.norm>
-0.028284

>  <SCORE.RESTR>
0

>  <SCORE.RESTR.CAVITY>
0

>  <SCORE.RESTR.norm>
0

>  <SCORE.SYSTEM>
0

>  <SCORE.SYSTEM.CONST>
0

>  <SCORE.SYSTEM.DIHEDRAL>
0

>  <SCORE.SYSTEM.SOLV>
0

>  <SCORE.SYSTEM.norm>
0

>  <SCORE.heavy>
10

>  <SCORE.norm>
-1.02979

>  <RMSD>
5.468

$$$$
ligand
 OpenBabel11021811473D
libRbt.so/2013.1/901 2013/11/27
 10  9  0  0  0  0  0  0  0  0999 V2000
   26.1584   14.8455   20.9806 N   0  0  0  0  0  0  0  0  0  0  0  0
   27.3042   15.5837   20.3735 C   0  0  2  0  0  0  0  0  0  0  0  0
   27.7695   14.9414   19.0990 C   0  0  0  0  0  0  0  0  0  0  0  0
   28.4976   15.5451   18.3166 O   0  0  0  0  0  0  0  0  0  0  0  0
   28.4324   15.7209   21.3917 C   0  0  0  0  0  0  0  0  0  0  0  0
   29.6042   16.8804   20.7579 S   0  0  0  0  0  0  0  0  0  0  0  0
   30.7035   17.0250   22.1285 C   0  0  0  0  0  0  0  0  0  0  0  0
   31.6541   15.8319   22.1247 C   0  0  0  0  0  0  0  0  0  0  0  0
   32.5454   15.9175   20.9854 N   0  0  0  0  0  0  0  0  0  0  0  0
   27.4728   13.7909   18.7842 O   0  0  0  0  0  0  0  0  0  0  0  0
  2  1  1  1  0  0  0
  2  3  1  0  0  0  0
  2  5  1  0  0  0  0
  3  4  1  0  0  0  0
  3 10  1  0  0  0  0
  5  6  1  0  0  0  0
  6  7  1  0  0  0  0
  7  8  1  0  0  0  0
  8  9  1  0  0  0  0
M  END
>  <CHROM.1>
164.44852584,-168.11533373,174.11390549,80.09598690,68.09068288,29.08205968
15.73770150,20.49421252,2.59281573,-0.15736635,-1.99212737

>  <Name>
ligand

>  <RI>
0

>  <Rbt.Current_Directory>
/home/itssahil/PROJECTS/Mol_Feturizer/New_Systems/rnas/3DIG

>  <Rbt.Executable>
rbdock ($Id: //depot/dev/client3/rdock/2013.1/src/exe/rbdock.cxx#4 $)

>  <Rbt.Library>
libRbt.so (2013.1, Build901 2013/11/27)

>  <Rbt.Parameter_File>
/export/apps/rDock/src/rDock_2013.1_src/data/scripts/dock_solv.prm

>  <Rbt.Receptor>
prm/pocket_docking_3.prm

>  <SCORE>
-10.2742

>  <SCORE.INTER>
-9.96838

>  <SCORE.INTER.CONST>
1

>  <SCORE.INTER.POLAR>
0

>  <SCORE.INTER.ROT>
5

>  <SCORE.INTER.SOLV>
18.6614

>  <SCORE.INTER.VDW>
-19.7994

>  <SCORE.INTER.norm>
-0.996838

>  <SCORE.INTRA>
-0.305809

>  <SCORE.INTRA.DIHEDRAL>
0.271989

>  <SCORE.INTRA.DIHEDRAL.0>
2.60093

>  <SCORE.INTRA.POLAR>
0

>  <SCORE.INTRA.POLAR.0>
0

>  <SCORE.INTRA.REPUL>
0

>  <SCORE.INTRA.REPUL.0>
0

>  <SCORE.INTRA.SOLV>
-0.367889

>  <SCORE.INTRA.SOLV.lig_0>
-33.7882

>  <SCORE.INTRA.VDW>
-0.257859

>  <SCORE.INTRA.VDW.0>
-0.593976

>  <SCORE.INTRA.norm>
-0.0305809

>  <SCORE.RESTR>
0

>  <SCORE.RESTR.CAVITY>
0

>  <SCORE.RESTR.norm>
0

>  <SCORE.SYSTEM>
0

>  <SCORE.SYSTEM.CONST>
0

>  <SCORE.SYSTEM.DIHEDRAL>
0

>  <SCORE.SYSTEM.SOLV>
0

>  <SCORE.SYSTEM.norm>
0

>  <SCORE.heavy>
10

>  <SCORE.norm>
-1.02742

>  <RMSD>
5.473

$$$$
ligand
 OpenBabel11021811473D
libRbt.so/2013.1/901 2013/11/27
 10  9  0  0  0  0  0  0  0  0999 V2000
   26.1802   14.8474   20.9767 N   0  0  0  0  0  0  0  0  0  0  0  0
   27.3230   15.5939   20.3739 C   0  0  2  0  0  0  0  0  0  0  0  0
   27.7870   14.9644   19.0926 C   0  0  0  0  0  0  0  0  0  0  0  0
   27.4716   13.8139   18.8036 O   0  0  0  0  0  0  0  0  0  0  0  0
   28.4531   15.7243   21.3910 C   0  0  0  0  0  0  0  0  0  0  0  0
   29.6268   16.8834   20.7600 S   0  0  0  0  0  0  0  0  0  0  0  0
   30.6864   17.0767   22.1556 C   0  0  0  0  0  0  0  0  0  0  0  0
   31.6412   15.8886   22.2167 C   0  0  0  0  0  0  0  0  0  0  0  0
   32.5735   15.9501   21.1091 N   0  0  0  0  0  0  0  0  0  0  0  0
   28.4756   15.5603   18.2671 O   0  0  0  0  0  0  0  0  0  0  0  0
  2  1  1  1  0  0  0
  2  3  1  0  0  0  0
  2  5  1  0  0  0  0
  3  4  1  0  0  0  0
  3 10  1  0  0  0  0
  5  6  1  0  0  0  0
  6  7  1  0  0  0  0
  7  8  1  0  0  0  0
  8  9  1  0  0  0  0
M  END
>  <CHROM.1>
-16.82562556,-168.52597073,171.61703260,79.44195540,68.72582142,29.09069250
15.75760770,20.51212497,2.57962121,-0.17147145,-1.96111454

>  <Name>
ligand

>  <RI>
0

>  <Rbt.Current_Directory>
/home/itssahil/PROJECTS/Mol_Feturizer/New_Systems/rnas/3DIG

>  <Rbt.Executable>
rbdock ($Id: //depot/dev/client3/rdock/2013.1/src/exe/rbdock.cxx#4 $)

>  <Rbt.Library>
libRbt.so (2013.1, Build901 2013/11/27)

>  <Rbt.Parameter_File>
/export/apps/rDock/src/rDock_2013.1_src/data/scripts/dock_solv.prm

>  <Rbt.Receptor>
prm/pocket_docking_4.prm

>  <SCORE>
-10.3526

>  <SCORE.INTER>
-10.0698

>  <SCORE.INTER.CONST>
1

>  <SCORE.INTER.POLAR>
0

>  <SCORE.INTER.ROT>
5

>  <SCORE.INTER.SOLV>
18.3399

>  <SCORE.INTER.VDW>
-19.7599

>  <SCORE.INTER.norm>
-1.00698

>  <SCORE.INTRA>
-0.282817

>  <SCORE.INTRA.DIHEDRAL>
0.374121

>  <SCORE.INTRA.DIHEDRAL.0>
2.60093

>  <SCORE.INTRA.POLAR>
0

>  <SCORE.INTRA.POLAR.0>
0

>  <SCORE.INTRA.REPUL>
0

>  <SCORE.INTRA.REPUL.0>
0

>  <SCORE.INTRA.SOLV>
-0.359494

>  <SCORE.INTRA.SOLV.lig_0>
-33.7882

>  <SCORE.INTRA.VDW>
-0.290131

>  <SCORE.INTRA.VDW.0>
-0.593976

>  <SCORE.INTRA.norm>
-0.0282817

>  <SCORE.RESTR>
0

>  <SCORE.RESTR.CAVITY>
0

>  <SCORE.RESTR.norm>
0

>  <SCORE.SYSTEM>
0

>  <SCORE.SYSTEM.CONST>
0

>  <SCORE.SYSTEM.DIHEDRAL>
0

>  <SCORE.SYSTEM.SOLV>
0

>  <SCORE.SYSTEM.norm>
0

>  <SCORE.heavy>
10

>  <SCORE.norm>
-1.03526

>  <RMSD>
5.478

$$$$
ligand
 OpenBabel11021811473D
libRbt.so/2013.1/901 2013/11/27
 10  9  0  0  0  0  0  0  0  0999 V2000
   27.3932   14.1488   18.9787 N   0  0  0  0  0  0  0  0  0  0  0  0
   27.9737   14.7985   20.1901 C   0  0  2  0  0  0  0  0  0  0  0  0
   26.9702   14.9051   21.3014 C   0  0  0  0  0  0  0  0  0  0  0  0
   25.7665   14.9435   21.0639 O   0  0  0  0  0  0  0  0  0  0  0  0
   28.5651   16.1554   19.8192 C   0  0  0  0  0  0  0  0  0  0  0  0
   29.4331   16.7775   21.2260 S   0  0  0  0  0  0  0  0  0  0  0  0
   30.7556   15.6174   21.3404 C   0  0  0  0  0  0  0  0  0  0  0  0
   31.5920   15.9448   22.5733 C   0  0  0  0  0  0  0  0  0  0  0  0
   32.2513   17.2228   22.3945 N   0  0  0  0  0  0  0  0  0  0  0  0
   27.2889   14.9365   22.4880 O   0  0  0  0  0  0  0  0  0  0  0  0
  2  1  1  6  0  0  0
  2  3  1  0  0  0  0
  2  5  1  0  0  0  0
  3  4  1  0  0  0  0
  3 10  1  0  0  0  0
  5  6  1  0  0  0  0
  6  7  1  0  0  0  0
  7  8  1  0  0  0  0
  8  9  1  0  0  0  0
M  END
>  <CHROM.1>
-25.85490269,-172.18846819,66.74148891,-176.69364197,-66.40409527,28.84264396
15.68246728,21.16742489,-2.81865569,0.34820222,1.46738925

>  <Name>
ligand

>  <RI>
0

>  <Rbt.Current_Directory>
/home/itssahil/PROJECTS/Mol_Feturizer/New_Systems/rnas/3DIG

>  <Rbt.Executable>
rbdock ($Id: //depot/dev/client3/rdock/2013.1/src/exe/rbdock.cxx#4 $)

>  <Rbt.Library>
libRbt.so (2013.1, Build901 2013/11/27)

>  <Rbt.Parameter_File>
/export/apps/rDock/src/rDock_2013.1_src/data/scripts/dock_solv.prm

>  <Rbt.Receptor>
prm/pocket_docking_8.prm

>  <SCORE>
-12.6158

>  <SCORE.INTER>
-11.7624

>  <SCORE.INTER.CONST>
1

>  <SCORE.INTER.POLAR>
0

>  <SCORE.INTER.ROT>
5

>  <SCORE.INTER.SOLV>
15.0044

>  <SCORE.INTER.VDW>
-19.7764

>  <SCORE.INTER.norm>
-1.17624

>  <SCORE.INTRA>
-0.853427

>  <SCORE.INTRA.DIHEDRAL>
-0.582821

>  <SCORE.INTRA.DIHEDRAL.0>
2.60093

>  <SCORE.INTRA.POLAR>
0

>  <SCORE.INTRA.POLAR.0>
0

>  <SCORE.INTRA.REPUL>
0

>  <SCORE.INTRA.REPUL.0>
0

>  <SCORE.INTRA.SOLV>
-0.423059

>  <SCORE.INTRA.SOLV.lig_0>
-33.7882

>  <SCORE.INTRA.VDW>
-0.350487

>  <SCORE.INTRA.VDW.0>
-0.593976

>  <SCORE.INTRA.norm>
-0.0853427

>  <SCORE.RESTR>
0

>  <SCORE.RESTR.CAVITY>
0

>  <SCORE.RESTR.norm>
0

>  <SCORE.SYSTEM>
0

>  <SCORE.SYSTEM.CONST>
0

>  <SCORE.SYSTEM.DIHEDRAL>
0

>  <SCORE.SYSTEM.SOLV>
0

>  <SCORE.SYSTEM.norm>
0

>  <SCORE.heavy>
10

>  <SCORE.norm>
-1.26158

>  <RMSD>
5.478

$$$$
ligand
 OpenBabel11021811473D
libRbt.so/2013.1/901 2013/11/27
 10  9  0  0  0  0  0  0  0  0999 V2000
   27.0544   16.2456   20.2305 N   0  0  0  0  0  0  0  0  0  0  0  0
   28.2387   15.4165   19.8609 C   0  0  2  0  0  0  0  0  0  0  0  0
   28.1156   14.8545   18.4743 C   0  0  0  0  0  0  0  0  0  0  0  0
   27.3992   13.8840   18.2475 O   0  0  0  0  0  0  0  0  0  0  0  0
   28.4554   14.3250   20.9050 C   0  0  0  0  0  0  0  0  0  0  0  0
   29.2208   15.0612   22.3162 S   0  0  0  0  0  0  0  0  0  0  0  0
   30.8831   15.2161   21.7498 C   0  0  0  0  0  0  0  0  0  0  0  0
   31.6598   16.0833   22.7355 C   0  0  0  0  0  0  0  0  0  0  0  0
   31.1363   17.4344   22.7198 N   0  0  0  0  0  0  0  0  0  0  0  0
   28.6951   15.3379   17.5042 O   0  0  0  0  0  0  0  0  0  0  0  0
  2  1  1  1  0  0  0
  2  3  1  0  0  0  0
  2  5  1  0  0  0  0
  3  4  1  0  0  0  0
  3 10  1  0  0  0  0
  5  6  1  0  0  0  0
  6  7  1  0  0  0  0
  7  8  1  0  0  0  0
  8  9  1  0  0  0  0
M  END
>  <CHROM.1>
-77.71001049,-77.64406930,-77.17602235,169.20400430,-65.83165822,29.09303191
15.33602718,20.64756520,2.26951209,-0.50735542,-1.48090512

>  <Name>
ligand

>  <RI>
0

>  <Rbt.Current_Directory>
/home/itssahil/PROJECTS/Mol_Feturizer/New_Systems/rnas/3DIG

>  <Rbt.Executable>
rbdock ($Id: //depot/dev/client3/rdock/2013.1/src/exe/rbdock.cxx#4 $)

>  <Rbt.Library>
libRbt.so (2013.1, Build901 2013/11/27)

>  <Rbt.Parameter_File>
/export/apps/rDock/src/rDock_2013.1_src/data/scripts/dock_solv.prm

>  <Rbt.Receptor>
prm/pocket_docking_4.prm

>  <SCORE>
-10.1547

>  <SCORE.INTER>
-10.3374

>  <SCORE.INTER.CONST>
1

>  <SCORE.INTER.POLAR>
0

>  <SCORE.INTER.ROT>
5

>  <SCORE.INTER.SOLV>
16.91

>  <SCORE.INTER.VDW>
-19.4616

>  <SCORE.INTER.norm>
-1.03374

>  <SCORE.INTRA>
0.182702

>  <SCORE.INTRA.DIHEDRAL>
0.628921

>  <SCORE.INTRA.DIHEDRAL.0>
2.60093

>  <SCORE.INTRA.POLAR>
0

>  <SCORE.INTRA.POLAR.0>
0

>  <SCORE.INTRA.REPUL>
0

>  <SCORE.INTRA.REPUL.0>
0

>  <SCORE.INTRA.SOLV>
0.331809

>  <SCORE.INTRA.SOLV.lig_0>
-33.7882

>  <SCORE.INTRA.VDW>
-0.297663

>  <SCORE.INTRA.VDW.0>
-0.593976

>  <SCORE.INTRA.norm>
0.0182702

>  <SCORE.RESTR>
0

>  <SCORE.RESTR.CAVITY>
0

>  <SCORE.RESTR.norm>
0

>  <SCORE.SYSTEM>
0

>  <SCORE.SYSTEM.CONST>
0

>  <SCORE.SYSTEM.DIHEDRAL>
0

>  <SCORE.SYSTEM.SOLV>
0

>  <SCORE.SYSTEM.norm>
0

>  <SCORE.heavy>
10

>  <SCORE.norm>
-1.01547

>  <RMSD>
5.481

$$$$
ligand
 OpenBabel11021811473D
libRbt.so/2013.1/901 2013/11/27
 10  9  0  0  0  0  0  0  0  0999 V2000
   28.2426   14.9796   19.2868 N   0  0  0  0  0  0  0  0  0  0  0  0
   28.3091   14.4822   20.6920 C   0  0  2  0  0  0  0  0  0  0  0  0
   27.0747   14.8375   21.4688 C   0  0  0  0  0  0  0  0  0  0  0  0
   25.9886   14.9557   20.9094 O   0  0  0  0  0  0  0  0  0  0  0  0
   29.5783   14.9958   21.3657 C   0  0  0  0  0  0  0  0  0  0  0  0
   29.5424   16.7611   21.3281 S   0  0  0  0  0  0  0  0  0  0  0  0
   30.9765   17.1432   22.2796 C   0  0  0  0  0  0  0  0  0  0  0  0
   32.2165   16.8145   21.4542 C   0  0  0  0  0  0  0  0  0  0  0  0
   33.4081   17.2003   22.1828 N   0  0  0  0  0  0  0  0  0  0  0  0
   27.0771   15.0042   22.6866 O   0  0  0  0  0  0  0  0  0  0  0  0
  2  1  1  6  0  0  0
  2  3  1  0  0  0  0
  2  5  1  0  0  0  0
  3  4  1  0  0  0  0
  3 10  1  0  0  0  0
  5  6  1  0  0  0  0
  6  7  1  0  0  0  0
  7  8  1  0  0  0  0
  8  9  1  0  0  0  0
M  END
>  <CHROM.1>
29.59975435,59.04062691,174.50001976,72.39305891,176.36037715,29.24129521
15.83622798,21.37501501,-2.88947276,0.33687301,1.24288853

>  <Name>
ligand

>  <RI>
0

>  <Rbt.Current_Directory>
/home/itssahil/PROJECTS/Mol_Feturizer/New_Systems/rnas/3DIG

>  <Rbt.Executable>
rbdock ($Id: //depot/dev/client3/rdock/2013.1/src/exe/rbdock.cxx#4 $)

>  <Rbt.Library>
libRbt.so (2013.1, Build901 2013/11/27)

>  <Rbt.Parameter_File>
/export/apps/rDock/src/rDock_2013.1_src/data/scripts/dock_solv.prm

>  <Rbt.Receptor>
prm/pocket_docking_7.prm

>  <SCORE>
-11.405

>  <SCORE.INTER>
-11.0332

>  <SCORE.INTER.CONST>
1

>  <SCORE.INTER.POLAR>
0

>  <SCORE.INTER.ROT>
5

>  <SCORE.INTER.SOLV>
13.3392

>  <SCORE.INTER.VDW>
-18.7352

>  <SCORE.INTER.norm>
-1.10332

>  <SCORE.INTRA>
-0.371784

>  <SCORE.INTRA.DIHEDRAL>
-0.800651

>  <SCORE.INTRA.DIHEDRAL.0>
2.60093

>  <SCORE.INTRA.POLAR>
0

>  <SCORE.INTRA.POLAR.0>
0

>  <SCORE.INTRA.REPUL>
0

>  <SCORE.INTRA.REPUL.0>
0

>  <SCORE.INTRA.SOLV>
-0.466517

>  <SCORE.INTRA.SOLV.lig_0>
-33.7882

>  <SCORE.INTRA.VDW>
0.2618

>  <SCORE.INTRA.VDW.0>
-0.593976

>  <SCORE.INTRA.norm>
-0.0371784

>  <SCORE.RESTR>
0

>  <SCORE.RESTR.CAVITY>
0

>  <SCORE.RESTR.norm>
0

>  <SCORE.SYSTEM>
0

>  <SCORE.SYSTEM.CONST>
0

>  <SCORE.SYSTEM.DIHEDRAL>
0

>  <SCORE.SYSTEM.SOLV>
0

>  <SCORE.SYSTEM.norm>
0

>  <SCORE.heavy>
10

>  <SCORE.norm>
-1.1405

>  <RMSD>
5.481

$$$$
ligand
 OpenBabel11021811473D
libRbt.so/2013.1/901 2013/11/27
 10  9  0  0  0  0  0  0  0  0999 V2000
   27.4788   13.7939   18.9537 N   0  0  0  0  0  0  0  0  0  0  0  0
   28.0344   14.6775   20.0200 C   0  0  2  0  0  0  0  0  0  0  0  0
   27.0856   14.8239   21.1740 C   0  0  0  0  0  0  0  0  0  0  0  0
   27.4973   14.8571   22.3299 O   0  0  0  0  0  0  0  0  0  0  0  0
   28.4264   16.0269   19.4251 C   0  0  0  0  0  0  0  0  0  0  0  0
   29.2167   16.9740   20.6891 S   0  0  0  0  0  0  0  0  0  0  0  0
   30.7569   16.1272   20.8251 C   0  0  0  0  0  0  0  0  0  0  0  0
   31.6889   16.9413   21.7170 C   0  0  0  0  0  0  0  0  0  0  0  0
   32.9872   16.3013   21.7848 N   0  0  0  0  0  0  0  0  0  0  0  0
   25.8705   14.9393   21.0288 O   0  0  0  0  0  0  0  0  0  0  0  0
  2  1  1  6  0  0  0
  2  3  1  0  0  0  0
  2  5  1  0  0  0  0
  3  4  1  0  0  0  0
  3 10  1  0  0  0  0
  5  6  1  0  0  0  0
  6  7  1  0  0  0  0
  7  8  1  0  0  0  0
  8  9  1  0  0  0  0
M  END
>  <CHROM.1>
141.45408700,-174.67043617,71.97779168,170.65267373,-176.89863959,28.91284281
15.70668875,20.80492992,-2.91314255,0.35276601,1.39881037

>  <Name>
ligand

>  <RI>
0

>  <Rbt.Current_Directory>
/home/itssahil/PROJECTS/Mol_Feturizer/New_Systems/rnas/3DIG

>  <Rbt.Executable>
rbdock ($Id: //depot/dev/client3/rdock/2013.1/src/exe/rbdock.cxx#4 $)

>  <Rbt.Library>
libRbt.so (2013.1, Build901 2013/11/27)

>  <Rbt.Parameter_File>
/export/apps/rDock/src/rDock_2013.1_src/data/scripts/dock_solv.prm

>  <Rbt.Receptor>
prm/pocket_docking_8.prm

>  <SCORE>
-11.9288

>  <SCORE.INTER>
-10.4695

>  <SCORE.INTER.CONST>
1

>  <SCORE.INTER.POLAR>
0

>  <SCORE.INTER.ROT>
5

>  <SCORE.INTER.SOLV>
16.7265

>  <SCORE.INTER.VDW>
-19.4885

>  <SCORE.INTER.norm>
-1.04695

>  <SCORE.INTRA>
-1.45928

>  <SCORE.INTRA.DIHEDRAL>
-0.625929

>  <SCORE.INTRA.DIHEDRAL.0>
2.60093

>  <SCORE.INTRA.POLAR>
0

>  <SCORE.INTRA.POLAR.0>
0

>  <SCORE.INTRA.REPUL>
0

>  <SCORE.INTRA.REPUL.0>
0

>  <SCORE.INTRA.SOLV>
-1.34326

>  <SCORE.INTRA.SOLV.lig_0>
-33.7882

>  <SCORE.INTRA.VDW>
-0.474681

>  <SCORE.INTRA.VDW.0>
-0.593976

>  <SCORE.INTRA.norm>
-0.145928

>  <SCORE.RESTR>
0

>  <SCORE.RESTR.CAVITY>
0

>  <SCORE.RESTR.norm>
0

>  <SCORE.SYSTEM>
0

>  <SCORE.SYSTEM.CONST>
0

>  <SCORE.SYSTEM.DIHEDRAL>
0

>  <SCORE.SYSTEM.SOLV>
0

>  <SCORE.SYSTEM.norm>
0

>  <SCORE.heavy>
10

>  <SCORE.norm>
-1.19288

>  <RMSD>
5.486

$$$$
ligand
 OpenBabel11021811473D
libRbt.so/2013.1/901 2013/11/27
 10  9  0  0  0  0  0  0  0  0999 V2000
   27.5064   13.7848   18.9499 N   0  0  0  0  0  0  0  0  0  0  0  0
   28.0485   14.6759   20.0169 C   0  0  2  0  0  0  0  0  0  0  0  0
   27.0847   14.8313   21.1573 C   0  0  0  0  0  0  0  0  0  0  0  0
   27.4791   14.8509   22.3194 O   0  0  0  0  0  0  0  0  0  0  0  0
   28.4492   16.0206   19.4174 C   0  0  0  0  0  0  0  0  0  0  0  0
   29.2208   16.9776   20.6855 S   0  0  0  0  0  0  0  0  0  0  0  0
   30.7706   16.1500   20.8300 C   0  0  0  0  0  0  0  0  0  0  0  0
   31.6864   16.9740   21.7298 C   0  0  0  0  0  0  0  0  0  0  0  0
   33.0035   16.3714   21.7739 N   0  0  0  0  0  0  0  0  0  0  0  0
   25.8741   14.9676   20.9943 O   0  0  0  0  0  0  0  0  0  0  0  0
  2  1  1  6  0  0  0
  2  3  1  0  0  0  0
  2  5  1  0  0  0  0
  3  4  1  0  0  0  0
  3 10  1  0  0  0  0
  5  6  1  0  0  0  0
  6  7  1  0  0  0  0
  7  8  1  0  0  0  0
  8  9  1  0  0  0  0
M  END
>  <CHROM.1>
140.26212483,-174.77343850,72.96391698,170.79376794,-175.25236019,28.92012570
15.71976027,20.79774776,-2.90025905,0.35170368,1.36871017

>  <Name>
ligand

>  <RI>
0

>  <Rbt.Current_Directory>
/home/itssahil/PROJECTS/Mol_Feturizer/New_Systems/rnas/3DIG

>  <Rbt.Executable>
rbdock ($Id: //depot/dev/client3/rdock/2013.1/src/exe/rbdock.cxx#4 $)

>  <Rbt.Library>
libRbt.so (2013.1, Build901 2013/11/27)

>  <Rbt.Parameter_File>
/export/apps/rDock/src/rDock_2013.1_src/data/scripts/dock_solv.prm

>  <Rbt.Receptor>
prm/blind_docking_100.prm

>  <SCORE>
-11.907

>  <SCORE.INTER>
-10.4673

>  <SCORE.INTER.CONST>
1

>  <SCORE.INTER.POLAR>
0

>  <SCORE.INTER.ROT>
5

>  <SCORE.INTER.SOLV>
16.6095

>  <SCORE.INTER.VDW>
-19.448

>  <SCORE.INTER.norm>
-1.04673

>  <SCORE.INTRA>
-1.43974

>  <SCORE.INTRA.DIHEDRAL>
-0.546351

>  <SCORE.INTRA.DIHEDRAL.0>
2.60093

>  <SCORE.INTRA.POLAR>
0

>  <SCORE.INTRA.POLAR.0>
0

>  <SCORE.INTRA.REPUL>
0

>  <SCORE.INTRA.REPUL.0>
0

>  <SCORE.INTRA.SOLV>
-1.35126

>  <SCORE.INTRA.SOLV.lig_0>
-33.7882

>  <SCORE.INTRA.VDW>
-0.490931

>  <SCORE.INTRA.VDW.0>
-0.593976

>  <SCORE.INTRA.norm>
-0.143974

>  <SCORE.RESTR>
0

>  <SCORE.RESTR.CAVITY>
0

>  <SCORE.RESTR.norm>
0

>  <SCORE.SYSTEM>
0

>  <SCORE.SYSTEM.CONST>
0

>  <SCORE.SYSTEM.DIHEDRAL>
0

>  <SCORE.SYSTEM.SOLV>
0

>  <SCORE.SYSTEM.norm>
0

>  <SCORE.heavy>
10

>  <SCORE.norm>
-1.1907

>  <RMSD>
5.490

$$$$
ligand
 OpenBabel11021811473D
libRbt.so/2013.1/901 2013/11/27
 10  9  0  0  0  0  0  0  0  0999 V2000
   28.3980   14.7375   19.1235 N   0  0  0  0  0  0  0  0  0  0  0  0
   28.2924   14.4381   20.5814 C   0  0  2  0  0  0  0  0  0  0  0  0
   26.9723   14.8753   21.1468 C   0  0  0  0  0  0  0  0  0  0  0  0
   26.7572   14.8327   22.3545 O   0  0  0  0  0  0  0  0  0  0  0  0
   29.4698   15.0602   21.3265 C   0  0  0  0  0  0  0  0  0  0  0  0
   29.4779   16.7936   20.9878 S   0  0  0  0  0  0  0  0  0  0  0  0
   30.9417   17.2909   21.8350 C   0  0  0  0  0  0  0  0  0  0  0  0
   32.1533   16.7460   21.0853 C   0  0  0  0  0  0  0  0  0  0  0  0
   33.3717   17.1852   21.7354 N   0  0  0  0  0  0  0  0  0  0  0  0
   26.0595   15.3130   20.4497 O   0  0  0  0  0  0  0  0  0  0  0  0
  2  1  1  6  0  0  0
  2  3  1  0  0  0  0
  2  5  1  0  0  0  0
  3  4  1  0  0  0  0
  3 10  1  0  0  0  0
  5  6  1  0  0  0  0
  6  7  1  0  0  0  0
  7  8  1  0  0  0  0
  8  9  1  0  0  0  0
M  END
>  <CHROM.1>
-172.64910429,56.73554566,-176.47314293,70.29169582,177.84482043,29.18646468
15.85072773,21.06468970,-2.88590987,0.31428995,1.13005507

>  <Name>
ligand

>  <RI>
0

>  <Rbt.Current_Directory>
/home/itssahil/PROJECTS/Mol_Feturizer/New_Systems/rnas/3DIG

>  <Rbt.Executable>
rbdock ($Id: //depot/dev/client3/rdock/2013.1/src/exe/rbdock.cxx#4 $)

>  <Rbt.Library>
libRbt.so (2013.1, Build901 2013/11/27)

>  <Rbt.Parameter_File>
/export/apps/rDock/src/rDock_2013.1_src/data/scripts/dock_solv.prm

>  <Rbt.Receptor>
prm/blind_docking_60.prm

>  <SCORE>
-11.1456

>  <SCORE.INTER>
-10.684

>  <SCORE.INTER.CONST>
1

>  <SCORE.INTER.POLAR>
0

>  <SCORE.INTER.ROT>
5

>  <SCORE.INTER.SOLV>
13.4535

>  <SCORE.INTER.VDW>
-18.5405

>  <SCORE.INTER.norm>
-1.0684

>  <SCORE.INTRA>
-0.461623

>  <SCORE.INTRA.DIHEDRAL>
-0.844623

>  <SCORE.INTRA.DIHEDRAL.0>
2.60093

>  <SCORE.INTRA.POLAR>
0

>  <SCORE.INTRA.POLAR.0>
0

>  <SCORE.INTRA.REPUL>
0

>  <SCORE.INTRA.REPUL.0>
0

>  <SCORE.INTRA.SOLV>
-0.353777

>  <SCORE.INTRA.SOLV.lig_0>
-33.7882

>  <SCORE.INTRA.VDW>
0.137577

>  <SCORE.INTRA.VDW.0>
-0.593976

>  <SCORE.INTRA.norm>
-0.0461623

>  <SCORE.RESTR>
0

>  <SCORE.RESTR.CAVITY>
0

>  <SCORE.RESTR.norm>
0

>  <SCORE.SYSTEM>
0

>  <SCORE.SYSTEM.CONST>
0

>  <SCORE.SYSTEM.DIHEDRAL>
0

>  <SCORE.SYSTEM.SOLV>
0

>  <SCORE.SYSTEM.norm>
0

>  <SCORE.heavy>
10

>  <SCORE.norm>
-1.11456

>  <RMSD>
5.490

$$$$
ligand
 OpenBabel11021811473D
libRbt.so/2013.1/901 2013/11/27
 10  9  0  0  0  0  0  0  0  0999 V2000
   27.5503   13.8341   18.9569 N   0  0  0  0  0  0  0  0  0  0  0  0
   28.0806   14.7017   20.0489 C   0  0  2  0  0  0  0  0  0  0  0  0
   27.0966   14.8482   21.1731 C   0  0  0  0  0  0  0  0  0  0  0  0
   27.4731   14.8899   22.3406 O   0  0  0  0  0  0  0  0  0  0  0  0
   28.5061   16.0520   19.4797 C   0  0  0  0  0  0  0  0  0  0  0  0
   29.2563   16.9827   20.7798 S   0  0  0  0  0  0  0  0  0  0  0  0
   30.8463   16.2252   20.8563 C   0  0  0  0  0  0  0  0  0  0  0  0
   31.7070   16.9881   21.8583 C   0  0  0  0  0  0  0  0  0  0  0  0
   33.0550   16.4563   21.8531 N   0  0  0  0  0  0  0  0  0  0  0  0
   25.8858   14.9551   20.9907 O   0  0  0  0  0  0  0  0  0  0  0  0
  2  1  1  6  0  0  0
  2  3  1  0  0  0  0
  2  5  1  0  0  0  0
  3  4  1  0  0  0  0
  3 10  1  0  0  0  0
  5  6  1  0  0  0  0
  6  7  1  0  0  0  0
  7  8  1  0  0  0  0
  8  9  1  0  0  0  0
M  END
>  <CHROM.1>
142.74675637,-175.01688424,77.41779852,174.92820105,-175.04963057,28.95326116
15.74929134,20.84904464,-2.87741259,0.34496342,1.33805101

>  <Name>
ligand

>  <RI>
0

>  <Rbt.Current_Directory>
/home/itssahil/PROJECTS/Mol_Feturizer/New_Systems/rnas/3DIG

>  <Rbt.Executable>
rbdock ($Id: //depot/dev/client3/rdock/2013.1/src/exe/rbdock.cxx#4 $)

>  <Rbt.Library>
libRbt.so (2013.1, Build901 2013/11/27)

>  <Rbt.Parameter_File>
/export/apps/rDock/src/rDock_2013.1_src/data/scripts/dock_solv.prm

>  <Rbt.Receptor>
prm/pocket_docking_5.prm

>  <SCORE>
-11.8957

>  <SCORE.INTER>
-10.4639

>  <SCORE.INTER.CONST>
1

>  <SCORE.INTER.POLAR>
0

>  <SCORE.INTER.ROT>
5

>  <SCORE.INTER.SOLV>
16.5197

>  <SCORE.INTER.VDW>
-19.4158

>  <SCORE.INTER.norm>
-1.04639

>  <SCORE.INTRA>
-1.43174

>  <SCORE.INTRA.DIHEDRAL>
-0.446289

>  <SCORE.INTRA.DIHEDRAL.0>
2.60093

>  <SCORE.INTRA.POLAR>
0

>  <SCORE.INTRA.POLAR.0>
0

>  <SCORE.INTRA.REPUL>
0

>  <SCORE.INTRA.REPUL.0>
0

>  <SCORE.INTRA.SOLV>
-1.38537

>  <SCORE.INTRA.SOLV.lig_0>
-33.7882

>  <SCORE.INTRA.VDW>
-0.515912

>  <SCORE.INTRA.VDW.0>
-0.593976

>  <SCORE.INTRA.norm>
-0.143174

>  <SCORE.RESTR>
0

>  <SCORE.RESTR.CAVITY>
0

>  <SCORE.RESTR.norm>
0

>  <SCORE.SYSTEM>
0

>  <SCORE.SYSTEM.CONST>
0

>  <SCORE.SYSTEM.DIHEDRAL>
0

>  <SCORE.SYSTEM.SOLV>
0

>  <SCORE.SYSTEM.norm>
0

>  <SCORE.heavy>
10

>  <SCORE.norm>
-1.18957

>  <RMSD>
5.492

$$$$
ligand
 OpenBabel11021811473D
libRbt.so/2013.1/901 2013/11/27
 10  9  0  0  0  0  0  0  0  0999 V2000
   27.5165   13.8149   18.9568 N   0  0  0  0  0  0  0  0  0  0  0  0
   28.0570   14.6844   20.0424 C   0  0  2  0  0  0  0  0  0  0  0  0
   27.0843   14.8311   21.1763 C   0  0  0  0  0  0  0  0  0  0  0  0
   27.4731   14.8804   22.3395 O   0  0  0  0  0  0  0  0  0  0  0  0
   28.4753   16.0345   19.4673 C   0  0  0  0  0  0  0  0  0  0  0  0
   29.2085   16.9798   20.7666 S   0  0  0  0  0  0  0  0  0  0  0  0
   30.7962   16.2213   20.8744 C   0  0  0  0  0  0  0  0  0  0  0  0
   31.6357   16.9804   21.8971 C   0  0  0  0  0  0  0  0  0  0  0  0
   32.9888   16.4619   21.9041 N   0  0  0  0  0  0  0  0  0  0  0  0
   25.8711   14.9308   21.0065 O   0  0  0  0  0  0  0  0  0  0  0  0
  2  1  1  6  0  0  0
  2  3  1  0  0  0  0
  2  5  1  0  0  0  0
  3  4  1  0  0  0  0
  3 10  1  0  0  0  0
  5  6  1  0  0  0  0
  6  7  1  0  0  0  0
  7  8  1  0  0  0  0
  8  9  1  0  0  0  0
M  END
>  <CHROM.1>
143.06841709,-176.13274553,76.66564731,175.90348216,-174.16701953,28.91708075
15.73883950,20.85595457,-2.87471699,0.35621944,1.36246931

>  <Name>
ligand

>  <RI>
0

>  <Rbt.Current_Directory>
/home/itssahil/PROJECTS/Mol_Feturizer/New_Systems/rnas/3DIG

>  <Rbt.Executable>
rbdock ($Id: //depot/dev/client3/rdock/2013.1/src/exe/rbdock.cxx#4 $)

>  <Rbt.Library>
libRbt.so (2013.1, Build901 2013/11/27)

>  <Rbt.Parameter_File>
/export/apps/rDock/src/rDock_2013.1_src/data/scripts/dock_solv.prm

>  <Rbt.Receptor>
prm/pocket_docking_8.prm

>  <SCORE>
-11.8824

>  <SCORE.INTER>
-10.4532

>  <SCORE.INTER.CONST>
1

>  <SCORE.INTER.POLAR>
0

>  <SCORE.INTER.ROT>
5

>  <SCORE.INTER.SOLV>
16.5659

>  <SCORE.INTER.VDW>
-19.4241

>  <SCORE.INTER.norm>
-1.04532

>  <SCORE.INTRA>
-1.42917

>  <SCORE.INTRA.DIHEDRAL>
-0.498807

>  <SCORE.INTRA.DIHEDRAL.0>
2.60093

>  <SCORE.INTRA.POLAR>
0

>  <SCORE.INTRA.POLAR.0>
0

>  <SCORE.INTRA.REPUL>
0

>  <SCORE.INTRA.REPUL.0>
0

>  <SCORE.INTRA.SOLV>
-1.38567

>  <SCORE.INTRA.SOLV.lig_0>
-33.7882

>  <SCORE.INTRA.VDW>
-0.486933

>  <SCORE.INTRA.VDW.0>
-0.593976

>  <SCORE.INTRA.norm>
-0.142917

>  <SCORE.RESTR>
0

>  <SCORE.RESTR.CAVITY>
0

>  <SCORE.RESTR.norm>
0

>  <SCORE.SYSTEM>
0

>  <SCORE.SYSTEM.CONST>
0

>  <SCORE.SYSTEM.DIHEDRAL>
0

>  <SCORE.SYSTEM.SOLV>
0

>  <SCORE.SYSTEM.norm>
0

>  <SCORE.heavy>
10

>  <SCORE.norm>
-1.18824

>  <RMSD>
5.494

$$$$
ligand
 OpenBabel11021811473D
libRbt.so/2013.1/901 2013/11/27
 10  9  0  0  0  0  0  0  0  0999 V2000
   28.0246   15.0504   19.2065 N   0  0  0  0  0  0  0  0  0  0  0  0
   28.3126   14.9989   20.6696 C   0  0  2  0  0  0  0  0  0  0  0  0
   27.0534   14.9351   21.4844 C   0  0  0  0  0  0  0  0  0  0  0  0
   25.9511   14.9327   20.9443 O   0  0  0  0  0  0  0  0  0  0  0  0
   29.1941   16.1791   21.0678 C   0  0  0  0  0  0  0  0  0  0  0  0
   29.9450   15.8023   22.6213 S   0  0  0  0  0  0  0  0  0  0  0  0
   31.6300   15.6129   22.1388 C   0  0  0  0  0  0  0  0  0  0  0  0
   32.2028   16.9862   21.8025 C   0  0  0  0  0  0  0  0  0  0  0  0
   33.5798   16.8520   21.3715 N   0  0  0  0  0  0  0  0  0  0  0  0
   27.0551   14.8604   22.7112 O   0  0  0  0  0  0  0  0  0  0  0  0
  2  1  1  6  0  0  0
  2  3  1  0  0  0  0
  2  5  1  0  0  0  0
  3  4  1  0  0  0  0
  3 10  1  0  0  0  0
  5  6  1  0  0  0  0
  6  7  1  0  0  0  0
  7  8  1  0  0  0  0
  8  9  1  0  0  0  0
M  END
>  <CHROM.1>
-0.17371073,-161.22992729,111.30319175,72.00693081,-178.62725115,29.33353698
15.63610551,21.55436878,-3.02452582,0.28385556,1.58766500

>  <Name>
ligand

>  <RI>
0

>  <Rbt.Current_Directory>
/home/itssahil/PROJECTS/Mol_Feturizer/New_Systems/rnas/3DIG

>  <Rbt.Executable>
rbdock ($Id: //depot/dev/client3/rdock/2013.1/src/exe/rbdock.cxx#4 $)

>  <Rbt.Library>
libRbt.so (2013.1, Build901 2013/11/27)

>  <Rbt.Parameter_File>
/export/apps/rDock/src/rDock_2013.1_src/data/scripts/dock_solv.prm

>  <Rbt.Receptor>
prm/pocket_docking_6.prm

>  <SCORE>
-10.4516

>  <SCORE.INTER>
-11.0597

>  <SCORE.INTER.CONST>
1

>  <SCORE.INTER.POLAR>
0

>  <SCORE.INTER.ROT>
5

>  <SCORE.INTER.SOLV>
14.1164

>  <SCORE.INTER.VDW>
-19.0119

>  <SCORE.INTER.norm>
-1.10597

>  <SCORE.INTRA>
0.608093

>  <SCORE.INTRA.DIHEDRAL>
2.59252

>  <SCORE.INTRA.DIHEDRAL.0>
2.60093

>  <SCORE.INTRA.POLAR>
0

>  <SCORE.INTRA.POLAR.0>
0

>  <SCORE.INTRA.REPUL>
0

>  <SCORE.INTRA.REPUL.0>
0

>  <SCORE.INTRA.SOLV>
-1.29451

>  <SCORE.INTRA.SOLV.lig_0>
-33.7882

>  <SCORE.INTRA.VDW>
-0.0409101

>  <SCORE.INTRA.VDW.0>
-0.593976

>  <SCORE.INTRA.norm>
0.0608093

>  <SCORE.RESTR>
0

>  <SCORE.RESTR.CAVITY>
0

>  <SCORE.RESTR.norm>
0

>  <SCORE.SYSTEM>
0

>  <SCORE.SYSTEM.CONST>
0

>  <SCORE.SYSTEM.DIHEDRAL>
0

>  <SCORE.SYSTEM.SOLV>
0

>  <SCORE.SYSTEM.norm>
0

>  <SCORE.heavy>
10

>  <SCORE.norm>
-1.04516

>  <RMSD>
5.495

$$$$
ligand
 OpenBabel11021811473D
libRbt.so/2013.1/901 2013/11/27
 10  9  0  0  0  0  0  0  0  0999 V2000
   27.5551   13.8469   18.9397 N   0  0  0  0  0  0  0  0  0  0  0  0
   28.0850   14.7083   20.0367 C   0  0  2  0  0  0  0  0  0  0  0  0
   27.1035   14.8425   21.1646 C   0  0  0  0  0  0  0  0  0  0  0  0
   25.9020   14.9642   20.9452 O   0  0  0  0  0  0  0  0  0  0  0  0
   28.5039   16.0645   19.4766 C   0  0  0  0  0  0  0  0  0  0  0  0
   29.2753   16.9791   20.7757 S   0  0  0  0  0  0  0  0  0  0  0  0
   30.8433   16.1778   20.8606 C   0  0  0  0  0  0  0  0  0  0  0  0
   31.7512   16.9712   21.7951 C   0  0  0  0  0  0  0  0  0  0  0  0
   33.0762   16.3845   21.8078 N   0  0  0  0  0  0  0  0  0  0  0  0
   27.4377   14.8157   22.3471 O   0  0  0  0  0  0  0  0  0  0  0  0
  2  1  1  6  0  0  0
  2  3  1  0  0  0  0
  2  5  1  0  0  0  0
  3  4  1  0  0  0  0
  3 10  1  0  0  0  0
  5  6  1  0  0  0  0
  6  7  1  0  0  0  0
  7  8  1  0  0  0  0
  8  9  1  0  0  0  0
M  END
>  <CHROM.1>
-39.61826536,-174.20006421,75.35783957,171.37520038,-176.00475210,28.96177346
15.73237497,20.83167772,-2.89569516,0.34608218,1.36865825

>  <Name>
ligand

>  <RI>
0

>  <Rbt.Current_Directory>
/home/itssahil/PROJECTS/Mol_Feturizer/New_Systems/rnas/3DIG

>  <Rbt.Executable>
rbdock ($Id: //depot/dev/client3/rdock/2013.1/src/exe/rbdock.cxx#4 $)

>  <Rbt.Library>
libRbt.so (2013.1, Build901 2013/11/27)

>  <Rbt.Parameter_File>
/export/apps/rDock/src/rDock_2013.1_src/data/scripts/dock_solv.prm

>  <Rbt.Receptor>
prm/pocket_docking_6.prm

>  <SCORE>
-11.9307

>  <SCORE.INTER>
-10.5554

>  <SCORE.INTER.CONST>
1

>  <SCORE.INTER.POLAR>
0

>  <SCORE.INTER.ROT>
5

>  <SCORE.INTER.SOLV>
16.5783

>  <SCORE.INTER.VDW>
-19.4964

>  <SCORE.INTER.norm>
-1.05554

>  <SCORE.INTRA>
-1.37528

>  <SCORE.INTRA.DIHEDRAL>
-0.385088

>  <SCORE.INTRA.DIHEDRAL.0>
2.60093

>  <SCORE.INTRA.POLAR>
0

>  <SCORE.INTRA.POLAR.0>
0

>  <SCORE.INTRA.REPUL>
0

>  <SCORE.INTRA.REPUL.0>
0

>  <SCORE.INTRA.SOLV>
-1.34985

>  <SCORE.INTRA.SOLV.lig_0>
-33.7882

>  <SCORE.INTRA.VDW>
-0.507815

>  <SCORE.INTRA.VDW.0>
-0.593976

>  <SCORE.INTRA.norm>
-0.137528

>  <SCORE.RESTR>
0

>  <SCORE.RESTR.CAVITY>
0

>  <SCORE.RESTR.norm>
0

>  <SCORE.SYSTEM>
0

>  <SCORE.SYSTEM.CONST>
0

>  <SCORE.SYSTEM.DIHEDRAL>
0

>  <SCORE.SYSTEM.SOLV>
0

>  <SCORE.SYSTEM.norm>
0

>  <SCORE.heavy>
10

>  <SCORE.norm>
-1.19307

>  <RMSD>
5.496

$$$$
ligand
 OpenBabel11021811473D
libRbt.so/2013.1/901 2013/11/27
 10  9  0  0  0  0  0  0  0  0999 V2000
   27.1041   16.2129   20.2481 N   0  0  0  0  0  0  0  0  0  0  0  0
   28.2818   15.3909   19.8432 C   0  0  2  0  0  0  0  0  0  0  0  0
   28.1142   14.8157   18.4668 C   0  0  0  0  0  0  0  0  0  0  0  0
   28.7506   15.2588   17.5153 O   0  0  0  0  0  0  0  0  0  0  0  0
   28.5457   14.3105   20.8880 C   0  0  0  0  0  0  0  0  0  0  0  0
   29.3421   15.0683   22.2703 S   0  0  0  0  0  0  0  0  0  0  0  0
   30.9948   15.1997   21.6708 C   0  0  0  0  0  0  0  0  0  0  0  0
   31.8221   15.9920   22.6782 C   0  0  0  0  0  0  0  0  0  0  0  0
   31.3563   17.3633   22.7260 N   0  0  0  0  0  0  0  0  0  0  0  0
   27.3632   13.8735   18.2238 O   0  0  0  0  0  0  0  0  0  0  0  0
  2  1  1  1  0  0  0
  2  3  1  0  0  0  0
  2  5  1  0  0  0  0
  3  4  1  0  0  0  0
  3 10  1  0  0  0  0
  5  6  1  0  0  0  0
  6  7  1  0  0  0  0
  7  8  1  0  0  0  0
  8  9  1  0  0  0  0
M  END
>  <CHROM.1>
106.74779553,-77.17224445,-78.75990564,173.41950239,-66.76310487,29.17869144
15.30353729,20.62362103,2.26707278,-0.41215784,-1.55013523

>  <Name>
ligand

>  <RI>
0

>  <Rbt.Current_Directory>
/home/itssahil/PROJECTS/Mol_Feturizer/New_Systems/rnas/3DIG

>  <Rbt.Executable>
rbdock ($Id: //depot/dev/client3/rdock/2013.1/src/exe/rbdock.cxx#4 $)

>  <Rbt.Library>
libRbt.so (2013.1, Build901 2013/11/27)

>  <Rbt.Parameter_File>
/export/apps/rDock/src/rDock_2013.1_src/data/scripts/dock_solv.prm

>  <Rbt.Receptor>
prm/blind_docking_80.prm

>  <SCORE>
-10.1954

>  <SCORE.INTER>
-10.238

>  <SCORE.INTER.CONST>
1

>  <SCORE.INTER.POLAR>
0

>  <SCORE.INTER.ROT>
5

>  <SCORE.INTER.SOLV>
16.1679

>  <SCORE.INTER.VDW>
-19.148

>  <SCORE.INTER.norm>
-1.0238

>  <SCORE.INTRA>
0.0426073

>  <SCORE.INTRA.DIHEDRAL>
0.657797

>  <SCORE.INTRA.DIHEDRAL.0>
2.60093

>  <SCORE.INTRA.POLAR>
0

>  <SCORE.INTRA.POLAR.0>
0

>  <SCORE.INTRA.REPUL>
0

>  <SCORE.INTRA.REPUL.0>
0

>  <SCORE.INTRA.SOLV>
0.217565

>  <SCORE.INTRA.SOLV.lig_0>
-33.7882

>  <SCORE.INTRA.VDW>
-0.395074

>  <SCORE.INTRA.VDW.0>
-0.593976

>  <SCORE.INTRA.norm>
0.00426073

>  <SCORE.RESTR>
0

>  <SCORE.RESTR.CAVITY>
0

>  <SCORE.RESTR.norm>
0

>  <SCORE.SYSTEM>
0

>  <SCORE.SYSTEM.CONST>
0

>  <SCORE.SYSTEM.DIHEDRAL>
0

>  <SCORE.SYSTEM.SOLV>
0

>  <SCORE.SYSTEM.norm>
0

>  <SCORE.heavy>
10

>  <SCORE.norm>
-1.01954

>  <RMSD>
5.498

$$$$
ligand
 OpenBabel11021811473D
libRbt.so/2013.1/901 2013/11/27
 10  9  0  0  0  0  0  0  0  0999 V2000
   27.4656   13.8552   18.9662 N   0  0  0  0  0  0  0  0  0  0  0  0
   28.0377   14.7063   20.0501 C   0  0  2  0  0  0  0  0  0  0  0  0
   27.0801   14.8711   21.1944 C   0  0  0  0  0  0  0  0  0  0  0  0
   25.8695   14.9312   21.0012 O   0  0  0  0  0  0  0  0  0  0  0  0
   28.4828   16.0486   19.4769 C   0  0  0  0  0  0  0  0  0  0  0  0
   29.2455   16.9724   20.7746 S   0  0  0  0  0  0  0  0  0  0  0  0
   30.8084   16.1642   20.8840 C   0  0  0  0  0  0  0  0  0  0  0  0
   31.7173   16.9733   21.8039 C   0  0  0  0  0  0  0  0  0  0  0  0
   33.0173   16.3391   21.8918 N   0  0  0  0  0  0  0  0  0  0  0  0
   27.4447   14.9310   22.3667 O   0  0  0  0  0  0  0  0  0  0  0  0
  2  1  1  6  0  0  0
  2  3  1  0  0  0  0
  2  5  1  0  0  0  0
  3  4  1  0  0  0  0
  3 10  1  0  0  0  0
  5  6  1  0  0  0  0
  6  7  1  0  0  0  0
  7  8  1  0  0  0  0
  8  9  1  0  0  0  0
M  END
>  <CHROM.1>
-34.51809549,-176.36536352,75.96470514,170.56707387,-179.06087863,28.92658506
15.73563071,20.85499561,-2.89078361,0.34073007,1.37216662

>  <Name>
ligand

>  <RI>
0

>  <Rbt.Current_Directory>
/home/itssahil/PROJECTS/Mol_Feturizer/New_Systems/rnas/3DIG

>  <Rbt.Executable>
rbdock ($Id: //depot/dev/client3/rdock/2013.1/src/exe/rbdock.cxx#4 $)

>  <Rbt.Library>
libRbt.so (2013.1, Build901 2013/11/27)

>  <Rbt.Parameter_File>
/export/apps/rDock/src/rDock_2013.1_src/data/scripts/dock_solv.prm

>  <Rbt.Receptor>
prm/pocket_docking_6.prm

>  <SCORE>
-11.7995

>  <SCORE.INTER>
-10.442

>  <SCORE.INTER.CONST>
1

>  <SCORE.INTER.POLAR>
0

>  <SCORE.INTER.ROT>
5

>  <SCORE.INTER.SOLV>
16.7741

>  <SCORE.INTER.VDW>
-19.486

>  <SCORE.INTER.norm>
-1.0442

>  <SCORE.INTRA>
-1.35756

>  <SCORE.INTRA.DIHEDRAL>
-0.460543

>  <SCORE.INTRA.DIHEDRAL.0>
2.60093

>  <SCORE.INTRA.POLAR>
0

>  <SCORE.INTRA.POLAR.0>
0

>  <SCORE.INTRA.REPUL>
0

>  <SCORE.INTRA.REPUL.0>
0

>  <SCORE.INTRA.SOLV>
-1.36764

>  <SCORE.INTRA.SOLV.lig_0>
-33.7882

>  <SCORE.INTRA.VDW>
-0.443467

>  <SCORE.INTRA.VDW.0>
-0.593976

>  <SCORE.INTRA.norm>
-0.135756

>  <SCORE.RESTR>
0

>  <SCORE.RESTR.CAVITY>
0

>  <SCORE.RESTR.norm>
0

>  <SCORE.SYSTEM>
0

>  <SCORE.SYSTEM.CONST>
0

>  <SCORE.SYSTEM.DIHEDRAL>
0

>  <SCORE.SYSTEM.SOLV>
0

>  <SCORE.SYSTEM.norm>
0

>  <SCORE.heavy>
10

>  <SCORE.norm>
-1.17995

>  <RMSD>
5.498

$$$$
ligand
 OpenBabel11021811473D
libRbt.so/2013.1/901 2013/11/27
 10  9  0  0  0  0  0  0  0  0999 V2000
   27.4753   13.8323   18.9581 N   0  0  0  0  0  0  0  0  0  0  0  0
   28.0256   14.6933   20.0455 C   0  0  2  0  0  0  0  0  0  0  0  0
   27.0669   14.8237   21.1933 C   0  0  0  0  0  0  0  0  0  0  0  0
   27.4731   14.9212   22.3475 O   0  0  0  0  0  0  0  0  0  0  0  0
   28.4300   16.0512   19.4789 C   0  0  0  0  0  0  0  0  0  0  0  0
   29.2101   16.9723   20.7682 S   0  0  0  0  0  0  0  0  0  0  0  0
   30.7740   16.1633   20.8553 C   0  0  0  0  0  0  0  0  0  0  0  0
   31.6926   16.9657   21.7715 C   0  0  0  0  0  0  0  0  0  0  0  0
   33.0126   16.3681   21.7892 N   0  0  0  0  0  0  0  0  0  0  0  0
   25.8476   14.8622   21.0436 O   0  0  0  0  0  0  0  0  0  0  0  0
  2  1  1  6  0  0  0
  2  3  1  0  0  0  0
  2  5  1  0  0  0  0
  3  4  1  0  0  0  0
  3 10  1  0  0  0  0
  5  6  1  0  0  0  0
  6  7  1  0  0  0  0
  7  8  1  0  0  0  0
  8  9  1  0  0  0  0
M  END
>  <CHROM.1>
146.24557839,-174.80176182,74.46457907,170.91418323,-176.25532307,28.90870515
15.72304829,20.84062337,-2.89493063,0.34692550,1.35133372

>  <Name>
ligand

>  <RI>
0

>  <Rbt.Current_Directory>
/home/itssahil/PROJECTS/Mol_Feturizer/New_Systems/rnas/3DIG

>  <Rbt.Executable>
rbdock ($Id: //depot/dev/client3/rdock/2013.1/src/exe/rbdock.cxx#4 $)

>  <Rbt.Library>
libRbt.so (2013.1, Build901 2013/11/27)

>  <Rbt.Parameter_File>
/export/apps/rDock/src/rDock_2013.1_src/data/scripts/dock_solv.prm

>  <Rbt.Receptor>
prm/pocket_docking_6.prm

>  <SCORE>
-11.7862

>  <SCORE.INTER>
-10.3795

>  <SCORE.INTER.CONST>
1

>  <SCORE.INTER.POLAR>
0

>  <SCORE.INTER.ROT>
5

>  <SCORE.INTER.SOLV>
16.68

>  <SCORE.INTER.VDW>
-19.413

>  <SCORE.INTER.norm>
-1.03795

>  <SCORE.INTRA>
-1.40671

>  <SCORE.INTRA.DIHEDRAL>
-0.526761

>  <SCORE.INTRA.DIHEDRAL.0>
2.60093

>  <SCORE.INTRA.POLAR>
0

>  <SCORE.INTRA.POLAR.0>
0

>  <SCORE.INTRA.REPUL>
0

>  <SCORE.INTRA.REPUL.0>
0

>  <SCORE.INTRA.SOLV>
-1.36049

>  <SCORE.INTRA.SOLV.lig_0>
-33.7882

>  <SCORE.INTRA.VDW>
-0.463084

>  <SCORE.INTRA.VDW.0>
-0.593976

>  <SCORE.INTRA.norm>
-0.140671

>  <SCORE.RESTR>
0

>  <SCORE.RESTR.CAVITY>
0

>  <SCORE.RESTR.norm>
0

>  <SCORE.SYSTEM>
0

>  <SCORE.SYSTEM.CONST>
0

>  <SCORE.SYSTEM.DIHEDRAL>
0

>  <SCORE.SYSTEM.SOLV>
0

>  <SCORE.SYSTEM.norm>
0

>  <SCORE.heavy>
10

>  <SCORE.norm>
-1.17862

>  <RMSD>
5.499

$$$$
ligand
 OpenBabel11021811473D
libRbt.so/2013.1/901 2013/11/27
 10  9  0  0  0  0  0  0  0  0999 V2000
   29.1203   15.0190   19.7676 N   0  0  0  0  0  0  0  0  0  0  0  0
   28.3272   14.3252   20.8240 C   0  0  2  0  0  0  0  0  0  0  0  0
   26.9603   14.9257   20.9804 C   0  0  0  0  0  0  0  0  0  0  0  0
   26.5638   15.8010   20.2167 O   0  0  0  0  0  0  0  0  0  0  0  0
   29.1043   14.3186   22.1373 C   0  0  0  0  0  0  0  0  0  0  0  0
   29.4798   15.9918   22.5600 S   0  0  0  0  0  0  0  0  0  0  0  0
   31.2076   16.0425   22.2136 C   0  0  0  0  0  0  0  0  0  0  0  0
   31.7058   17.4717   22.4041 C   0  0  0  0  0  0  0  0  0  0  0  0
   33.1203   17.5437   22.0979 N   0  0  0  0  0  0  0  0  0  0  0  0
   26.1688   14.5665   21.8495 O   0  0  0  0  0  0  0  0  0  0  0  0
  2  1  1  6  0  0  0
  2  3  1  0  0  0  0
  2  5  1  0  0  0  0
  3  4  1  0  0  0  0
  3 10  1  0  0  0  0
  5  6  1  0  0  0  0
  6  7  1  0  0  0  0
  7  8  1  0  0  0  0
  8  9  1  0  0  0  0
M  END
>  <CHROM.1>
5.95185590,56.78503166,-106.90098067,175.02172010,-178.83504308,29.17355021
15.65099885,21.62399546,-2.91797049,0.40861692,1.59872156

>  <Name>
ligand

>  <RI>
0

>  <Rbt.Current_Directory>
/home/itssahil/PROJECTS/Mol_Feturizer/New_Systems/rnas/3DIG

>  <Rbt.Executable>
rbdock ($Id: //depot/dev/client3/rdock/2013.1/src/exe/rbdock.cxx#4 $)

>  <Rbt.Library>
libRbt.so (2013.1, Build901 2013/11/27)

>  <Rbt.Parameter_File>
/export/apps/rDock/src/rDock_2013.1_src/data/scripts/dock_solv.prm

>  <Rbt.Receptor>
prm/blind_docking_80.prm

>  <SCORE>
-10.5834

>  <SCORE.INTER>
-11.0217

>  <SCORE.INTER.CONST>
1

>  <SCORE.INTER.POLAR>
0

>  <SCORE.INTER.ROT>
5

>  <SCORE.INTER.SOLV>
12.5739

>  <SCORE.INTER.VDW>
-18.4724

>  <SCORE.INTER.norm>
-1.10217

>  <SCORE.INTRA>
0.438364

>  <SCORE.INTRA.DIHEDRAL>
1.09493

>  <SCORE.INTRA.DIHEDRAL.0>
2.60093

>  <SCORE.INTRA.POLAR>
0

>  <SCORE.INTRA.POLAR.0>
0

>  <SCORE.INTRA.REPUL>
0

>  <SCORE.INTRA.REPUL.0>
0

>  <SCORE.INTRA.SOLV>
0.469659

>  <SCORE.INTRA.SOLV.lig_0>
-33.7882

>  <SCORE.INTRA.VDW>
-0.343931

>  <SCORE.INTRA.VDW.0>
-0.593976

>  <SCORE.INTRA.norm>
0.0438364

>  <SCORE.RESTR>
0

>  <SCORE.RESTR.CAVITY>
0

>  <SCORE.RESTR.norm>
0

>  <SCORE.SYSTEM>
0

>  <SCORE.SYSTEM.CONST>
0

>  <SCORE.SYSTEM.DIHEDRAL>
0

>  <SCORE.SYSTEM.SOLV>
0

>  <SCORE.SYSTEM.norm>
0

>  <SCORE.heavy>
10

>  <SCORE.norm>
-1.05834

>  <RMSD>
5.500

$$$$
ligand
 OpenBabel11021811473D
libRbt.so/2013.1/901 2013/11/27
 10  9  0  0  0  0  0  0  0  0999 V2000
   27.8499   14.6407   19.1609 N   0  0  0  0  0  0  0  0  0  0  0  0
   28.2706   14.5728   20.5909 C   0  0  2  0  0  0  0  0  0  0  0  0
   27.1224   14.8300   21.5232 C   0  0  0  0  0  0  0  0  0  0  0  0
   25.9633   14.8023   21.1203 O   0  0  0  0  0  0  0  0  0  0  0  0
   29.4340   15.5291   20.8365 C   0  0  0  0  0  0  0  0  0  0  0  0
   30.2419   15.0371   22.3280 S   0  0  0  0  0  0  0  0  0  0  0  0
   31.5342   16.2330   22.4161 C   0  0  0  0  0  0  0  0  0  0  0  0
   32.4749   16.0290   21.2326 C   0  0  0  0  0  0  0  0  0  0  0  0
   33.5563   16.9916   21.2930 N   0  0  0  0  0  0  0  0  0  0  0  0
   27.2735   15.0556   22.7219 O   0  0  0  0  0  0  0  0  0  0  0  0
  2  1  1  6  0  0  0
  2  3  1  0  0  0  0
  2  5  1  0  0  0  0
  3  4  1  0  0  0  0
  3 10  1  0  0  0  0
  5  6  1  0  0  0  0
  6  7  1  0  0  0  0
  7  8  1  0  0  0  0
  8  9  1  0  0  0  0
M  END
>  <CHROM.1>
14.38508436,-161.03153626,179.44533554,-64.74135897,-179.29059016,29.43751935
15.33500915,21.45346209,-3.03470008,0.26567501,1.53309915

>  <Name>
ligand

>  <RI>
0

>  <Rbt.Current_Directory>
/home/itssahil/PROJECTS/Mol_Feturizer/New_Systems/rnas/3DIG

>  <Rbt.Executable>
rbdock ($Id: //depot/dev/client3/rdock/2013.1/src/exe/rbdock.cxx#4 $)

>  <Rbt.Library>
libRbt.so (2013.1, Build901 2013/11/27)

>  <Rbt.Parameter_File>
/export/apps/rDock/src/rDock_2013.1_src/data/scripts/dock_solv.prm

>  <Rbt.Receptor>
prm/pocket_docking_3.prm

>  <SCORE>
-12.0944

>  <SCORE.INTER>
-11.9152

>  <SCORE.INTER.CONST>
1

>  <SCORE.INTER.POLAR>
0

>  <SCORE.INTER.ROT>
5

>  <SCORE.INTER.SOLV>
15.0681

>  <SCORE.INTER.VDW>
-19.8995

>  <SCORE.INTER.norm>
-1.19152

>  <SCORE.INTRA>
-0.179195

>  <SCORE.INTRA.DIHEDRAL>
0.10704

>  <SCORE.INTRA.DIHEDRAL.0>
2.60093

>  <SCORE.INTRA.POLAR>
0

>  <SCORE.INTRA.POLAR.0>
0

>  <SCORE.INTRA.REPUL>
0

>  <SCORE.INTRA.REPUL.0>
0

>  <SCORE.INTRA.SOLV>
-1.2803

>  <SCORE.INTRA.SOLV.lig_0>
-33.7882

>  <SCORE.INTRA.VDW>
0.407435

>  <SCORE.INTRA.VDW.0>
-0.593976

>  <SCORE.INTRA.norm>
-0.0179195

>  <SCORE.RESTR>
0

>  <SCORE.RESTR.CAVITY>
0

>  <SCORE.RESTR.norm>
0

>  <SCORE.SYSTEM>
0

>  <SCORE.SYSTEM.CONST>
0

>  <SCORE.SYSTEM.DIHEDRAL>
0

>  <SCORE.SYSTEM.SOLV>
0

>  <SCORE.SYSTEM.norm>
0

>  <SCORE.heavy>
10

>  <SCORE.norm>
-1.20944

>  <RMSD>
5.502

$$$$
ligand
 OpenBabel11021811473D
libRbt.so/2013.1/901 2013/11/27
 10  9  0  0  0  0  0  0  0  0999 V2000
   27.4421   14.0144   19.0056 N   0  0  0  0  0  0  0  0  0  0  0  0
   28.0141   14.7703   20.1580 C   0  0  2  0  0  0  0  0  0  0  0  0
   27.0696   14.8086   21.3242 C   0  0  0  0  0  0  0  0  0  0  0  0
   27.4902   14.8263   22.4772 O   0  0  0  0  0  0  0  0  0  0  0  0
   28.4276   16.1687   19.7087 C   0  0  0  0  0  0  0  0  0  0  0  0
   29.3121   16.9306   21.0340 S   0  0  0  0  0  0  0  0  0  0  0  0
   30.8799   16.1382   20.8861 C   0  0  0  0  0  0  0  0  0  0  0  0
   31.8774   16.8472   21.7968 C   0  0  0  0  0  0  0  0  0  0  0  0
   33.2106   16.3301   21.5621 N   0  0  0  0  0  0  0  0  0  0  0  0
   25.8481   14.8465   21.1931 O   0  0  0  0  0  0  0  0  0  0  0  0
  2  1  1  6  0  0  0
  2  3  1  0  0  0  0
  2  5  1  0  0  0  0
  3  4  1  0  0  0  0
  3 10  1  0  0  0  0
  5  6  1  0  0  0  0
  6  7  1  0  0  0  0
  7  8  1  0  0  0  0
  8  9  1  0  0  0  0
M  END
>  <CHROM.1>
147.70223994,-171.65997300,77.33501493,169.89093787,-172.48592281,28.97019730
15.71907935,20.95067106,-2.94297639,0.32598784,1.35098890

>  <Name>
ligand

>  <RI>
0

>  <Rbt.Current_Directory>
/home/itssahil/PROJECTS/Mol_Feturizer/New_Systems/rnas/3DIG

>  <Rbt.Executable>
rbdock ($Id: //depot/dev/client3/rdock/2013.1/src/exe/rbdock.cxx#4 $)

>  <Rbt.Library>
libRbt.so (2013.1, Build901 2013/11/27)

>  <Rbt.Parameter_File>
/export/apps/rDock/src/rDock_2013.1_src/data/scripts/dock_solv.prm

>  <Rbt.Receptor>
prm/pocket_docking_6.prm

>  <SCORE>
-11.7822

>  <SCORE.INTER>
-10.5613

>  <SCORE.INTER.CONST>
1

>  <SCORE.INTER.POLAR>
0

>  <SCORE.INTER.ROT>
5

>  <SCORE.INTER.SOLV>
16.8969

>  <SCORE.INTER.VDW>
-19.6065

>  <SCORE.INTER.norm>
-1.05613

>  <SCORE.INTRA>
-1.22085

>  <SCORE.INTRA.DIHEDRAL>
-0.0534951

>  <SCORE.INTRA.DIHEDRAL.0>
2.60093

>  <SCORE.INTRA.POLAR>
0

>  <SCORE.INTRA.POLAR.0>
0

>  <SCORE.INTRA.REPUL>
0

>  <SCORE.INTRA.REPUL.0>
0

>  <SCORE.INTRA.SOLV>
-1.35649

>  <SCORE.INTRA.SOLV.lig_0>
-33.7882

>  <SCORE.INTRA.VDW>
-0.515855

>  <SCORE.INTRA.VDW.0>
-0.593976

>  <SCORE.INTRA.norm>
-0.122085

>  <SCORE.RESTR>
0

>  <SCORE.RESTR.CAVITY>
0

>  <SCORE.RESTR.norm>
0

>  <SCORE.SYSTEM>
0

>  <SCORE.SYSTEM.CONST>
0

>  <SCORE.SYSTEM.DIHEDRAL>
0

>  <SCORE.SYSTEM.SOLV>
0

>  <SCORE.SYSTEM.norm>
0

>  <SCORE.heavy>
10

>  <SCORE.norm>
-1.17822

>  <RMSD>
5.502

$$$$
ligand
 OpenBabel11021811473D
libRbt.so/2013.1/901 2013/11/27
 10  9  0  0  0  0  0  0  0  0999 V2000
   27.8818   14.6577   19.1134 N   0  0  0  0  0  0  0  0  0  0  0  0
   28.2897   14.5848   20.5469 C   0  0  2  0  0  0  0  0  0  0  0  0
   27.1365   14.8531   21.4696 C   0  0  0  0  0  0  0  0  0  0  0  0
   25.9844   14.8865   21.0476 O   0  0  0  0  0  0  0  0  0  0  0  0
   29.4608   15.5290   20.8028 C   0  0  0  0  0  0  0  0  0  0  0  0
   30.2831   14.9961   22.2722 S   0  0  0  0  0  0  0  0  0  0  0  0
   31.5666   16.1988   22.3898 C   0  0  0  0  0  0  0  0  0  0  0  0
   32.5230   16.0140   21.2159 C   0  0  0  0  0  0  0  0  0  0  0  0
   33.6174   16.9580   21.3205 N   0  0  0  0  0  0  0  0  0  0  0  0
   27.2754   15.0282   22.6783 O   0  0  0  0  0  0  0  0  0  0  0  0
  2  1  1  6  0  0  0
  2  3  1  0  0  0  0
  2  5  1  0  0  0  0
  3  4  1  0  0  0  0
  3 10  1  0  0  0  0
  5  6  1  0  0  0  0
  6  7  1  0  0  0  0
  7  8  1  0  0  0  0
  8  9  1  0  0  0  0
M  END
>  <CHROM.1>
11.65604620,-159.21096974,-179.67496751,-66.37036328,-177.71954549,29.46838138
15.32936805,21.41437246,-3.03006068,0.25432602,1.54504130

>  <Name>
ligand

>  <RI>
0

>  <Rbt.Current_Directory>
/home/itssahil/PROJECTS/Mol_Feturizer/New_Systems/rnas/3DIG

>  <Rbt.Executable>
rbdock ($Id: //depot/dev/client3/rdock/2013.1/src/exe/rbdock.cxx#4 $)

>  <Rbt.Library>
libRbt.so (2013.1, Build901 2013/11/27)

>  <Rbt.Parameter_File>
/export/apps/rDock/src/rDock_2013.1_src/data/scripts/dock_solv.prm

>  <Rbt.Receptor>
prm/pocket_docking_6.prm

>  <SCORE>
-12.1104

>  <SCORE.INTER>
-11.9111

>  <SCORE.INTER.CONST>
1

>  <SCORE.INTER.POLAR>
0

>  <SCORE.INTER.ROT>
5

>  <SCORE.INTER.SOLV>
15.1167

>  <SCORE.INTER.VDW>
-19.913

>  <SCORE.INTER.norm>
-1.19111

>  <SCORE.INTRA>
-0.199308

>  <SCORE.INTRA.DIHEDRAL>
0.372713

>  <SCORE.INTRA.DIHEDRAL.0>
2.60093

>  <SCORE.INTRA.POLAR>
0

>  <SCORE.INTRA.POLAR.0>
0

>  <SCORE.INTRA.REPUL>
0

>  <SCORE.INTRA.REPUL.0>
0

>  <SCORE.INTRA.SOLV>
-1.29937

>  <SCORE.INTRA.SOLV.lig_0>
-33.7882

>  <SCORE.INTRA.VDW>
0.264019

>  <SCORE.INTRA.VDW.0>
-0.593976

>  <SCORE.INTRA.norm>
-0.0199308

>  <SCORE.RESTR>
0

>  <SCORE.RESTR.CAVITY>
0

>  <SCORE.RESTR.norm>
0

>  <SCORE.SYSTEM>
0

>  <SCORE.SYSTEM.CONST>
0

>  <SCORE.SYSTEM.DIHEDRAL>
0

>  <SCORE.SYSTEM.SOLV>
0

>  <SCORE.SYSTEM.norm>
0

>  <SCORE.heavy>
10

>  <SCORE.norm>
-1.21104

>  <RMSD>
5.503

$$$$
ligand
 OpenBabel11021811473D
libRbt.so/2013.1/901 2013/11/27
 10  9  0  0  0  0  0  0  0  0999 V2000
   26.3662   15.3282   20.5106 N   0  0  0  0  0  0  0  0  0  0  0  0
   27.8049   15.2416   20.1242 C   0  0  2  0  0  0  0  0  0  0  0  0
   27.9745   14.8009   18.6993 C   0  0  0  0  0  0  0  0  0  0  0  0
   27.4312   13.7813   18.2846 O   0  0  0  0  0  0  0  0  0  0  0  0
   28.5510   14.3341   21.0979 C   0  0  0  0  0  0  0  0  0  0  0  0
   28.6459   15.1620   22.6551 S   0  0  0  0  0  0  0  0  0  0  0  0
   29.9329   16.3238   22.3360 C   0  0  0  0  0  0  0  0  0  0  0  0
   31.2493   15.5692   22.1798 C   0  0  0  0  0  0  0  0  0  0  0  0
   32.3102   16.4967   21.8421 N   0  0  0  0  0  0  0  0  0  0  0  0
   28.6344   15.4346   17.8785 O   0  0  0  0  0  0  0  0  0  0  0  0
  2  1  1  1  0  0  0
  2  3  1  0  0  0  0
  2  5  1  0  0  0  0
  3  4  1  0  0  0  0
  3 10  1  0  0  0  0
  5  6  1  0  0  0  0
  6  7  1  0  0  0  0
  7  8  1  0  0  0  0
  8  9  1  0  0  0  0
M  END
>  <CHROM.1>
-52.69990671,-69.75410829,-77.06349444,-68.76926946,176.81132431,28.85949746
15.22725855,20.76279447,2.29765309,-0.28837170,-1.65165445

>  <Name>
ligand

>  <RI>
0

>  <Rbt.Current_Directory>
/home/itssahil/PROJECTS/Mol_Feturizer/New_Systems/rnas/3DIG

>  <Rbt.Executable>
rbdock ($Id: //depot/dev/client3/rdock/2013.1/src/exe/rbdock.cxx#4 $)

>  <Rbt.Library>
libRbt.so (2013.1, Build901 2013/11/27)

>  <Rbt.Parameter_File>
/export/apps/rDock/src/rDock_2013.1_src/data/scripts/dock_solv.prm

>  <Rbt.Receptor>
prm/pocket_docking_8.prm

>  <SCORE>
-11.5117

>  <SCORE.INTER>
-11.184

>  <SCORE.INTER.CONST>
1

>  <SCORE.INTER.POLAR>
0

>  <SCORE.INTER.ROT>
5

>  <SCORE.INTER.SOLV>
16.6338

>  <SCORE.INTER.VDW>
-19.9339

>  <SCORE.INTER.norm>
-1.1184

>  <SCORE.INTRA>
-0.327743

>  <SCORE.INTRA.DIHEDRAL>
-0.160616

>  <SCORE.INTRA.DIHEDRAL.0>
2.60093

>  <SCORE.INTRA.POLAR>
0

>  <SCORE.INTRA.POLAR.0>
0

>  <SCORE.INTRA.REPUL>
0

>  <SCORE.INTRA.REPUL.0>
0

>  <SCORE.INTRA.SOLV>
-0.221942

>  <SCORE.INTRA.SOLV.lig_0>
-33.7882

>  <SCORE.INTRA.VDW>
-0.136464

>  <SCORE.INTRA.VDW.0>
-0.593976

>  <SCORE.INTRA.norm>
-0.0327743

>  <SCORE.RESTR>
0

>  <SCORE.RESTR.CAVITY>
0

>  <SCORE.RESTR.norm>
0

>  <SCORE.SYSTEM>
0

>  <SCORE.SYSTEM.CONST>
0

>  <SCORE.SYSTEM.DIHEDRAL>
0

>  <SCORE.SYSTEM.SOLV>
0

>  <SCORE.SYSTEM.norm>
0

>  <SCORE.heavy>
10

>  <SCORE.norm>
-1.15117

>  <RMSD>
5.506

$$$$
ligand
 OpenBabel11021811473D
libRbt.so/2013.1/901 2013/11/27
 10  9  0  0  0  0  0  0  0  0999 V2000
   27.3311   14.5037   20.8343 N   0  0  0  0  0  0  0  0  0  0  0  0
   27.6100   15.5071   19.7658 C   0  0  2  0  0  0  0  0  0  0  0  0
   28.1453   14.8620   18.5205 C   0  0  0  0  0  0  0  0  0  0  0  0
   28.1586   13.6408   18.3974 O   0  0  0  0  0  0  0  0  0  0  0  0
   28.5455   16.5881   20.2992 C   0  0  0  0  0  0  0  0  0  0  0  0
   30.0426   15.8089   20.8197 S   0  0  0  0  0  0  0  0  0  0  0  0
   30.7419   17.0735   21.8294 C   0  0  0  0  0  0  0  0  0  0  0  0
   32.0738   16.5792   22.3851 C   0  0  0  0  0  0  0  0  0  0  0  0
   33.0105   16.3672   21.3000 N   0  0  0  0  0  0  0  0  0  0  0  0
   28.5706   15.5069   17.5644 O   0  0  0  0  0  0  0  0  0  0  0  0
  2  1  1  1  0  0  0
  2  3  1  0  0  0  0
  2  5  1  0  0  0  0
  3  4  1  0  0  0  0
  3 10  1  0  0  0  0
  5  6  1  0  0  0  0
  6  7  1  0  0  0  0
  7  8  1  0  0  0  0
  8  9  1  0  0  0  0
M  END
>  <CHROM.1>
8.85211335,59.40646874,-163.06912961,-179.96763443,64.25881442,29.49441508
15.64673846,20.21396021,2.43496996,-0.21458228,-1.87474990

>  <Name>
ligand

>  <RI>
0

>  <Rbt.Current_Directory>
/home/itssahil/PROJECTS/Mol_Feturizer/New_Systems/rnas/3DIG

>  <Rbt.Executable>
rbdock ($Id: //depot/dev/client3/rdock/2013.1/src/exe/rbdock.cxx#4 $)

>  <Rbt.Library>
libRbt.so (2013.1, Build901 2013/11/27)

>  <Rbt.Parameter_File>
/export/apps/rDock/src/rDock_2013.1_src/data/scripts/dock_solv.prm

>  <Rbt.Receptor>
prm/pocket_docking_7.prm

>  <SCORE>
-9.99109

>  <SCORE.INTER>
-9.69694

>  <SCORE.INTER.CONST>
1

>  <SCORE.INTER.POLAR>
0

>  <SCORE.INTER.ROT>
5

>  <SCORE.INTER.SOLV>
14.5457

>  <SCORE.INTER.VDW>
-18.2465

>  <SCORE.INTER.norm>
-0.969694

>  <SCORE.INTRA>
-0.294143

>  <SCORE.INTRA.DIHEDRAL>
-0.607242

>  <SCORE.INTRA.DIHEDRAL.0>
2.60093

>  <SCORE.INTRA.POLAR>
0

>  <SCORE.INTRA.POLAR.0>
0

>  <SCORE.INTRA.REPUL>
0

>  <SCORE.INTRA.REPUL.0>
0

>  <SCORE.INTRA.SOLV>
0.401463

>  <SCORE.INTRA.SOLV.lig_0>
-33.7882

>  <SCORE.INTRA.VDW>
-0.191253

>  <SCORE.INTRA.VDW.0>
-0.593976

>  <SCORE.INTRA.norm>
-0.0294143

>  <SCORE.RESTR>
0

>  <SCORE.RESTR.CAVITY>
0

>  <SCORE.RESTR.norm>
0

>  <SCORE.SYSTEM>
0

>  <SCORE.SYSTEM.CONST>
0

>  <SCORE.SYSTEM.DIHEDRAL>
0

>  <SCORE.SYSTEM.SOLV>
0

>  <SCORE.SYSTEM.norm>
0

>  <SCORE.heavy>
10

>  <SCORE.norm>
-0.999109

>  <RMSD>
5.507

$$$$
ligand
 OpenBabel11021811473D
libRbt.so/2013.1/901 2013/11/27
 10  9  0  0  0  0  0  0  0  0999 V2000
   28.0048   14.1789   18.5196 N   0  0  0  0  0  0  0  0  0  0  0  0
   27.9760   14.3186   20.0049 C   0  0  2  0  0  0  0  0  0  0  0  0
   26.8972   15.2599   20.4561 C   0  0  0  0  0  0  0  0  0  0  0  0
   26.9380   16.4522   20.1677 O   0  0  0  0  0  0  0  0  0  0  0  0
   29.3521   14.7369   20.5145 C   0  0  0  0  0  0  0  0  0  0  0  0
   29.3326   14.6503   22.2784 S   0  0  0  0  0  0  0  0  0  0  0  0
   30.1852   16.1364   22.6936 C   0  0  0  0  0  0  0  0  0  0  0  0
   31.6672   15.9576   22.3792 C   0  0  0  0  0  0  0  0  0  0  0  0
   32.3791   17.1903   22.6501 N   0  0  0  0  0  0  0  0  0  0  0  0
   25.9208   14.8936   21.1067 O   0  0  0  0  0  0  0  0  0  0  0  0
  2  1  1  6  0  0  0
  2  3  1  0  0  0  0
  2  5  1  0  0  0  0
  3  4  1  0  0  0  0
  3 10  1  0  0  0  0
  5  6  1  0  0  0  0
  6  7  1  0  0  0  0
  7  8  1  0  0  0  0
  8  9  1  0  0  0  0
M  END
>  <CHROM.1>
-65.11954457,-171.55545791,-137.42002873,-73.00674032,177.16622578,28.88807849
15.31054257,21.21702561,-2.57586864,-0.00553923,1.09204768

>  <Name>
ligand

>  <RI>
0

>  <Rbt.Current_Directory>
/home/itssahil/PROJECTS/Mol_Feturizer/New_Systems/rnas/3DIG

>  <Rbt.Executable>
rbdock ($Id: //depot/dev/client3/rdock/2013.1/src/exe/rbdock.cxx#4 $)

>  <Rbt.Library>
libRbt.so (2013.1, Build901 2013/11/27)

>  <Rbt.Parameter_File>
/export/apps/rDock/src/rDock_2013.1_src/data/scripts/dock_solv.prm

>  <Rbt.Receptor>
prm/blind_docking_60.prm

>  <SCORE>
-10.6372

>  <SCORE.INTER>
-10.3525

>  <SCORE.INTER.CONST>
1

>  <SCORE.INTER.POLAR>
0

>  <SCORE.INTER.ROT>
5

>  <SCORE.INTER.SOLV>
15.125

>  <SCORE.INTER.VDW>
-18.8766

>  <SCORE.INTER.norm>
-1.03525

>  <SCORE.INTRA>
-0.284757

>  <SCORE.INTRA.DIHEDRAL>
1.37911

>  <SCORE.INTRA.DIHEDRAL.0>
2.60093

>  <SCORE.INTRA.POLAR>
0

>  <SCORE.INTRA.POLAR.0>
0

>  <SCORE.INTRA.REPUL>
0

>  <SCORE.INTRA.REPUL.0>
0

>  <SCORE.INTRA.SOLV>
-1.35774

>  <SCORE.INTRA.SOLV.lig_0>
-33.7882

>  <SCORE.INTRA.VDW>
-0.29544

>  <SCORE.INTRA.VDW.0>
-0.593976

>  <SCORE.INTRA.norm>
-0.0284757

>  <SCORE.RESTR>
0

>  <SCORE.RESTR.CAVITY>
0

>  <SCORE.RESTR.norm>
0

>  <SCORE.SYSTEM>
0

>  <SCORE.SYSTEM.CONST>
0

>  <SCORE.SYSTEM.DIHEDRAL>
0

>  <SCORE.SYSTEM.SOLV>
0

>  <SCORE.SYSTEM.norm>
0

>  <SCORE.heavy>
10

>  <SCORE.norm>
-1.06372

>  <RMSD>
5.508

$$$$
ligand
 OpenBabel11021811473D
libRbt.so/2013.1/901 2013/11/27
 10  9  0  0  0  0  0  0  0  0999 V2000
   26.0529   14.8796   20.9819 N   0  0  0  0  0  0  0  0  0  0  0  0
   27.4065   15.3605   20.5781 C   0  0  2  0  0  0  0  0  0  0  0  0
   27.9739   14.5481   19.4505 C   0  0  0  0  0  0  0  0  0  0  0  0
   29.1643   14.2499   19.4235 O   0  0  0  0  0  0  0  0  0  0  0  0
   28.3328   15.3844   21.7905 C   0  0  0  0  0  0  0  0  0  0  0  0
   29.7528   16.3492   21.3759 S   0  0  0  0  0  0  0  0  0  0  0  0
   30.8420   15.9212   22.6943 C   0  0  0  0  0  0  0  0  0  0  0  0
   32.1595   16.6667   22.5058 C   0  0  0  0  0  0  0  0  0  0  0  0
   32.7983   16.2330   21.2796 N   0  0  0  0  0  0  0  0  0  0  0  0
   27.2889   14.1252   18.5217 O   0  0  0  0  0  0  0  0  0  0  0  0
  2  1  1  1  0  0  0
  2  3  1  0  0  0  0
  2  5  1  0  0  0  0
  3  4  1  0  0  0  0
  3 10  1  0  0  0  0
  5  6  1  0  0  0  0
  6  7  1  0  0  0  0
  7  8  1  0  0  0  0
  8  9  1  0  0  0  0
M  END
>  <CHROM.1>
-140.71599085,-164.98074159,-166.27235364,179.71107848,-63.51246508,29.24522576
15.46360368,20.89138427,2.58026091,-0.12770549,-2.03833103

>  <Name>
ligand

>  <RI>
0

>  <Rbt.Current_Directory>
/home/itssahil/PROJECTS/Mol_Feturizer/New_Systems/rnas/3DIG

>  <Rbt.Executable>
rbdock ($Id: //depot/dev/client3/rdock/2013.1/src/exe/rbdock.cxx#4 $)

>  <Rbt.Library>
libRbt.so (2013.1, Build901 2013/11/27)

>  <Rbt.Parameter_File>
/export/apps/rDock/src/rDock_2013.1_src/data/scripts/dock_solv.prm

>  <Rbt.Receptor>
prm/pocket_docking_6.prm

>  <SCORE>
-9.24081

>  <SCORE.INTER>
-9.33093

>  <SCORE.INTER.CONST>
1

>  <SCORE.INTER.POLAR>
0

>  <SCORE.INTER.ROT>
5

>  <SCORE.INTER.SOLV>
17.8468

>  <SCORE.INTER.VDW>
-19.1029

>  <SCORE.INTER.norm>
-0.933093

>  <SCORE.INTRA>
0.0901192

>  <SCORE.INTRA.DIHEDRAL>
0.0656172

>  <SCORE.INTRA.DIHEDRAL.0>
2.60093

>  <SCORE.INTRA.POLAR>
0

>  <SCORE.INTRA.POLAR.0>
0

>  <SCORE.INTRA.REPUL>
0

>  <SCORE.INTRA.REPUL.0>
0

>  <SCORE.INTRA.SOLV>
-0.655174

>  <SCORE.INTRA.SOLV.lig_0>
-33.7882

>  <SCORE.INTRA.VDW>
0.384898

>  <SCORE.INTRA.VDW.0>
-0.593976

>  <SCORE.INTRA.norm>
0.00901192

>  <SCORE.RESTR>
0

>  <SCORE.RESTR.CAVITY>
0

>  <SCORE.RESTR.norm>
0

>  <SCORE.SYSTEM>
0

>  <SCORE.SYSTEM.CONST>
0

>  <SCORE.SYSTEM.DIHEDRAL>
0

>  <SCORE.SYSTEM.SOLV>
0

>  <SCORE.SYSTEM.norm>
0

>  <SCORE.heavy>
10

>  <SCORE.norm>
-0.924081

>  <RMSD>
5.509

$$$$
ligand
 OpenBabel11021811473D
libRbt.so/2013.1/901 2013/11/27
 10  9  0  0  0  0  0  0  0  0999 V2000
   27.9188   14.5264   19.1005 N   0  0  0  0  0  0  0  0  0  0  0  0
   28.2624   14.4885   20.5520 C   0  0  2  0  0  0  0  0  0  0  0  0
   27.0951   14.8768   21.4123 C   0  0  0  0  0  0  0  0  0  0  0  0
   25.9794   15.0394   20.9270 O   0  0  0  0  0  0  0  0  0  0  0  0
   29.4866   15.3593   20.8194 C   0  0  0  0  0  0  0  0  0  0  0  0
   30.0799   14.9873   22.4408 S   0  0  0  0  0  0  0  0  0  0  0  0
   31.6395   15.8089   22.4207 C   0  0  0  0  0  0  0  0  0  0  0  0
   31.4031   17.3148   22.4802 C   0  0  0  0  0  0  0  0  0  0  0  0
   32.6735   18.0098   22.5322 N   0  0  0  0  0  0  0  0  0  0  0  0
   27.1835   15.0286   22.6288 O   0  0  0  0  0  0  0  0  0  0  0  0
  2  1  1  6  0  0  0
  2  3  1  0  0  0  0
  2  5  1  0  0  0  0
  3  4  1  0  0  0  0
  3 10  1  0  0  0  0
  5  6  1  0  0  0  0
  6  7  1  0  0  0  0
  7  8  1  0  0  0  0
  8  9  1  0  0  0  0
M  END
>  <CHROM.1>
7.83829843,-166.77310050,168.60853270,72.14664695,177.17148388,29.24255991
15.48323839,21.64839990,-2.76023067,0.34787266,1.37035314

>  <Name>
ligand

>  <RI>
0

>  <Rbt.Current_Directory>
/home/itssahil/PROJECTS/Mol_Feturizer/New_Systems/rnas/3DIG

>  <Rbt.Executable>
rbdock ($Id: //depot/dev/client3/rdock/2013.1/src/exe/rbdock.cxx#4 $)

>  <Rbt.Library>
libRbt.so (2013.1, Build901 2013/11/27)

>  <Rbt.Parameter_File>
/export/apps/rDock/src/rDock_2013.1_src/data/scripts/dock_solv.prm

>  <Rbt.Receptor>
prm/pocket_docking_6.prm

>  <SCORE>
-12.1107

>  <SCORE.INTER>
-11.6888

>  <SCORE.INTER.CONST>
1

>  <SCORE.INTER.POLAR>
0

>  <SCORE.INTER.ROT>
5

>  <SCORE.INTER.SOLV>
14.7385

>  <SCORE.INTER.VDW>
-19.6387

>  <SCORE.INTER.norm>
-1.16888

>  <SCORE.INTRA>
-0.421867

>  <SCORE.INTRA.DIHEDRAL>
-0.0290632

>  <SCORE.INTRA.DIHEDRAL.0>
2.60093

>  <SCORE.INTRA.POLAR>
0

>  <SCORE.INTRA.POLAR.0>
0

>  <SCORE.INTRA.REPUL>
0

>  <SCORE.INTRA.REPUL.0>
0

>  <SCORE.INTRA.SOLV>
-1.35814

>  <SCORE.INTRA.SOLV.lig_0>
-33.7882

>  <SCORE.INTRA.VDW>
0.271736

>  <SCORE.INTRA.VDW.0>
-0.593976

>  <SCORE.INTRA.norm>
-0.0421867

>  <SCORE.RESTR>
0

>  <SCORE.RESTR.CAVITY>
0

>  <SCORE.RESTR.norm>
0

>  <SCORE.SYSTEM>
0

>  <SCORE.SYSTEM.CONST>
0

>  <SCORE.SYSTEM.DIHEDRAL>
0

>  <SCORE.SYSTEM.SOLV>
0

>  <SCORE.SYSTEM.norm>
0

>  <SCORE.heavy>
10

>  <SCORE.norm>
-1.21107

>  <RMSD>
5.511

$$$$
ligand
 OpenBabel11021811473D
libRbt.so/2013.1/901 2013/11/27
 10  9  0  0  0  0  0  0  0  0999 V2000
   28.5693   14.8049   19.3391 N   0  0  0  0  0  0  0  0  0  0  0  0
   28.6896   14.7996   20.8263 C   0  0  2  0  0  0  0  0  0  0  0  0
   27.3646   15.0272   21.4942 C   0  0  0  0  0  0  0  0  0  0  0  0
   26.3409   15.1739   20.8330 O   0  0  0  0  0  0  0  0  0  0  0  0
   29.7365   15.8186   21.2669 C   0  0  0  0  0  0  0  0  0  0  0  0
   31.3147   15.2611   20.7030 S   0  0  0  0  0  0  0  0  0  0  0  0
   32.2999   16.6914   21.0054 C   0  0  0  0  0  0  0  0  0  0  0  0
   32.6826   16.7221   22.4817 C   0  0  0  0  0  0  0  0  0  0  0  0
   33.4697   17.9064   22.7606 N   0  0  0  0  0  0  0  0  0  0  0  0
   27.2288   15.0563   22.7155 O   0  0  0  0  0  0  0  0  0  0  0  0
  2  1  1  6  0  0  0
  2  3  1  0  0  0  0
  2  5  1  0  0  0  0
  3  4  1  0  0  0  0
  3 10  1  0  0  0  0
  5  6  1  0  0  0  0
  6  7  1  0  0  0  0
  7  8  1  0  0  0  0
  8  9  1  0  0  0  0
M  END
>  <CHROM.1>
0.94106010,-66.89775022,168.92782615,80.59056903,-178.75798473,29.90768847
15.67287174,21.28223617,-2.88324840,0.24325643,1.12996609

>  <Name>
ligand

>  <RI>
0

>  <Rbt.Current_Directory>
/home/itssahil/PROJECTS/Mol_Feturizer/New_Systems/rnas/3DIG

>  <Rbt.Executable>
rbdock ($Id: //depot/dev/client3/rdock/2013.1/src/exe/rbdock.cxx#4 $)

>  <Rbt.Library>
libRbt.so (2013.1, Build901 2013/11/27)

>  <Rbt.Parameter_File>
/export/apps/rDock/src/rDock_2013.1_src/data/scripts/dock_solv.prm

>  <Rbt.Receptor>
prm/pocket_docking_8.prm

>  <SCORE>
-10.482

>  <SCORE.INTER>
-10.0572

>  <SCORE.INTER.CONST>
1

>  <SCORE.INTER.POLAR>
0

>  <SCORE.INTER.ROT>
5

>  <SCORE.INTER.SOLV>
13.153

>  <SCORE.INTER.VDW>
-18.0225

>  <SCORE.INTER.norm>
-1.00572

>  <SCORE.INTRA>
-0.424835

>  <SCORE.INTRA.DIHEDRAL>
-0.108879

>  <SCORE.INTRA.DIHEDRAL.0>
2.60093

>  <SCORE.INTRA.POLAR>
0

>  <SCORE.INTRA.POLAR.0>
0

>  <SCORE.INTRA.REPUL>
0

>  <SCORE.INTRA.REPUL.0>
0

>  <SCORE.INTRA.SOLV>
-0.598026

>  <SCORE.INTRA.SOLV.lig_0>
-33.7882

>  <SCORE.INTRA.VDW>
-0.0713822

>  <SCORE.INTRA.VDW.0>
-0.593976

>  <SCORE.INTRA.norm>
-0.0424835

>  <SCORE.RESTR>
0

>  <SCORE.RESTR.CAVITY>
0

>  <SCORE.RESTR.norm>
0

>  <SCORE.SYSTEM>
0

>  <SCORE.SYSTEM.CONST>
0

>  <SCORE.SYSTEM.DIHEDRAL>
0

>  <SCORE.SYSTEM.SOLV>
0

>  <SCORE.SYSTEM.norm>
0

>  <SCORE.heavy>
10

>  <SCORE.norm>
-1.0482

>  <RMSD>
5.512

$$$$
ligand
 OpenBabel11021811473D
libRbt.so/2013.1/901 2013/11/27
 10  9  0  0  0  0  0  0  0  0999 V2000
   27.9602   14.4908   19.0523 N   0  0  0  0  0  0  0  0  0  0  0  0
   28.2728   14.4547   20.5109 C   0  0  2  0  0  0  0  0  0  0  0  0
   27.0890   14.8495   21.3453 C   0  0  0  0  0  0  0  0  0  0  0  0
   26.0159   15.1368   20.8232 O   0  0  0  0  0  0  0  0  0  0  0  0
   29.4945   15.3212   20.8024 C   0  0  0  0  0  0  0  0  0  0  0  0
   30.0356   14.9697   22.4464 S   0  0  0  0  0  0  0  0  0  0  0  0
   31.6033   15.7760   22.4600 C   0  0  0  0  0  0  0  0  0  0  0  0
   31.3802   17.2850   22.4773 C   0  0  0  0  0  0  0  0  0  0  0  0
   32.6546   17.9690   22.5663 N   0  0  0  0  0  0  0  0  0  0  0  0
   27.1198   14.8847   22.5735 O   0  0  0  0  0  0  0  0  0  0  0  0
  2  1  1  6  0  0  0
  2  3  1  0  0  0  0
  2  5  1  0  0  0  0
  3  4  1  0  0  0  0
  3 10  1  0  0  0  0
  5  6  1  0  0  0  0
  6  7  1  0  0  0  0
  7  8  1  0  0  0  0
  8  9  1  0  0  0  0
M  END
>  <CHROM.1>
0.97422305,-167.69038414,168.43453742,71.69430473,176.73408262,29.22877347
15.45456635,21.62558819,-2.75696128,0.35860111,1.40813129

>  <Name>
ligand

>  <RI>
0

>  <Rbt.Current_Directory>
/home/itssahil/PROJECTS/Mol_Feturizer/New_Systems/rnas/3DIG

>  <Rbt.Executable>
rbdock ($Id: //depot/dev/client3/rdock/2013.1/src/exe/rbdock.cxx#4 $)

>  <Rbt.Library>
libRbt.so (2013.1, Build901 2013/11/27)

>  <Rbt.Parameter_File>
/export/apps/rDock/src/rDock_2013.1_src/data/scripts/dock_solv.prm

>  <Rbt.Receptor>
prm/pocket_docking_7.prm

>  <SCORE>
-12.1231

>  <SCORE.INTER>
-11.5995

>  <SCORE.INTER.CONST>
1

>  <SCORE.INTER.POLAR>
0

>  <SCORE.INTER.ROT>
5

>  <SCORE.INTER.SOLV>
14.6672

>  <SCORE.INTER.VDW>
-19.5554

>  <SCORE.INTER.norm>
-1.15995

>  <SCORE.INTRA>
-0.523637

>  <SCORE.INTRA.DIHEDRAL>
-0.0910082

>  <SCORE.INTRA.DIHEDRAL.0>
2.60093

>  <SCORE.INTRA.POLAR>
0

>  <SCORE.INTRA.POLAR.0>
0

>  <SCORE.INTRA.REPUL>
0

>  <SCORE.INTRA.REPUL.0>
0

>  <SCORE.INTRA.SOLV>
-1.35785

>  <SCORE.INTRA.SOLV.lig_0>
-33.7882

>  <SCORE.INTRA.VDW>
0.200792

>  <SCORE.INTRA.VDW.0>
-0.593976

>  <SCORE.INTRA.norm>
-0.0523637

>  <SCORE.RESTR>
0

>  <SCORE.RESTR.CAVITY>
0

>  <SCORE.RESTR.norm>
0

>  <SCORE.SYSTEM>
0

>  <SCORE.SYSTEM.CONST>
0

>  <SCORE.SYSTEM.DIHEDRAL>
0

>  <SCORE.SYSTEM.SOLV>
0

>  <SCORE.SYSTEM.norm>
0

>  <SCORE.heavy>
10

>  <SCORE.norm>
-1.21231

>  <RMSD>
5.513

$$$$
ligand
 OpenBabel11021811473D
libRbt.so/2013.1/901 2013/11/27
 10  9  0  0  0  0  0  0  0  0999 V2000
   27.9503   14.7107   19.0880 N   0  0  0  0  0  0  0  0  0  0  0  0
   28.3070   14.6057   20.5331 C   0  0  2  0  0  0  0  0  0  0  0  0
   27.1272   14.8785   21.4203 C   0  0  0  0  0  0  0  0  0  0  0  0
   25.9893   14.9227   20.9623 O   0  0  0  0  0  0  0  0  0  0  0  0
   29.4845   15.5245   20.8460 C   0  0  0  0  0  0  0  0  0  0  0  0
   30.1547   15.0433   22.4076 S   0  0  0  0  0  0  0  0  0  0  0  0
   31.2594   16.3808   22.7215 C   0  0  0  0  0  0  0  0  0  0  0  0
   32.4041   16.3201   21.7149 C   0  0  0  0  0  0  0  0  0  0  0  0
   33.3380   17.3989   21.9674 N   0  0  0  0  0  0  0  0  0  0  0  0
   27.2291   15.0468   22.6336 O   0  0  0  0  0  0  0  0  0  0  0  0
  2  1  1  6  0  0  0
  2  3  1  0  0  0  0
  2  5  1  0  0  0  0
  3  4  1  0  0  0  0
  3 10  1  0  0  0  0
  5  6  1  0  0  0  0
  6  7  1  0  0  0  0
  7  8  1  0  0  0  0
  8  9  1  0  0  0  0
M  END
>  <CHROM.1>
12.59631722,-164.30693423,-169.62764469,-67.97211254,-179.08264013,29.38506162
15.43408369,21.55542241,-2.91718682,0.30592257,1.52189288

>  <Name>
ligand

>  <RI>
0

>  <Rbt.Current_Directory>
/home/itssahil/PROJECTS/Mol_Feturizer/New_Systems/rnas/3DIG

>  <Rbt.Executable>
rbdock ($Id: //depot/dev/client3/rdock/2013.1/src/exe/rbdock.cxx#4 $)

>  <Rbt.Library>
libRbt.so (2013.1, Build901 2013/11/27)

>  <Rbt.Parameter_File>
/export/apps/rDock/src/rDock_2013.1_src/data/scripts/dock_solv.prm

>  <Rbt.Receptor>
prm/pocket_docking_5.prm

>  <SCORE>
-12.0515

>  <SCORE.INTER>
-11.79

>  <SCORE.INTER.CONST>
1

>  <SCORE.INTER.POLAR>
0

>  <SCORE.INTER.ROT>
5

>  <SCORE.INTER.SOLV>
14.3481

>  <SCORE.INTER.VDW>
-19.576

>  <SCORE.INTER.norm>
-1.179

>  <SCORE.INTRA>
-0.261547

>  <SCORE.INTRA.DIHEDRAL>
-0.00107221

>  <SCORE.INTRA.DIHEDRAL.0>
2.60093

>  <SCORE.INTRA.POLAR>
0

>  <SCORE.INTRA.POLAR.0>
0

>  <SCORE.INTRA.REPUL>
0

>  <SCORE.INTRA.REPUL.0>
0

>  <SCORE.INTRA.SOLV>
-1.31237

>  <SCORE.INTRA.SOLV.lig_0>
-33.7882

>  <SCORE.INTRA.VDW>
0.395175

>  <SCORE.INTRA.VDW.0>
-0.593976

>  <SCORE.INTRA.norm>
-0.0261547

>  <SCORE.RESTR>
0

>  <SCORE.RESTR.CAVITY>
0

>  <SCORE.RESTR.norm>
0

>  <SCORE.SYSTEM>
0

>  <SCORE.SYSTEM.CONST>
0

>  <SCORE.SYSTEM.DIHEDRAL>
0

>  <SCORE.SYSTEM.SOLV>
0

>  <SCORE.SYSTEM.norm>
0

>  <SCORE.heavy>
10

>  <SCORE.norm>
-1.20515

>  <RMSD>
5.515

$$$$
ligand
 OpenBabel11021811473D
libRbt.so/2013.1/901 2013/11/27
 10  9  0  0  0  0  0  0  0  0999 V2000
   28.0782   14.4140   19.0278 N   0  0  0  0  0  0  0  0  0  0  0  0
   28.2500   14.4372   20.5099 C   0  0  2  0  0  0  0  0  0  0  0  0
   27.0098   14.9147   21.2081 C   0  0  0  0  0  0  0  0  0  0  0  0
   26.0662   15.3770   20.5737 O   0  0  0  0  0  0  0  0  0  0  0  0
   29.4730   15.2720   20.8784 C   0  0  0  0  0  0  0  0  0  0  0  0
   29.7273   15.1316   22.6205 S   0  0  0  0  0  0  0  0  0  0  0  0
   31.3557   15.7896   22.7729 C   0  0  0  0  0  0  0  0  0  0  0  0
   31.3057   17.2918   22.5121 C   0  0  0  0  0  0  0  0  0  0  0  0
   32.6445   17.8440   22.5625 N   0  0  0  0  0  0  0  0  0  0  0  0
   26.8629   14.8502   22.4267 O   0  0  0  0  0  0  0  0  0  0  0  0
  2  1  1  6  0  0  0
  2  3  1  0  0  0  0
  2  5  1  0  0  0  0
  3  4  1  0  0  0  0
  3 10  1  0  0  0  0
  5  6  1  0  0  0  0
  6  7  1  0  0  0  0
  7  8  1  0  0  0  0
  8  9  1  0  0  0  0
M  END
>  <CHROM.1>
-8.49026900,-174.28966146,166.26081452,70.36253180,-177.00751350,29.11730805
15.49106222,21.64522382,-2.72695707,0.35997014,1.43940433

>  <Name>
ligand

>  <RI>
0

>  <Rbt.Current_Directory>
/home/itssahil/PROJECTS/Mol_Feturizer/New_Systems/rnas/3DIG

>  <Rbt.Executable>
rbdock ($Id: //depot/dev/client3/rdock/2013.1/src/exe/rbdock.cxx#4 $)

>  <Rbt.Library>
libRbt.so (2013.1, Build901 2013/11/27)

>  <Rbt.Parameter_File>
/export/apps/rDock/src/rDock_2013.1_src/data/scripts/dock_solv.prm

>  <Rbt.Receptor>
prm/pocket_docking_4.prm

>  <SCORE>
-11.9944

>  <SCORE.INTER>
-11.4604

>  <SCORE.INTER.CONST>
1

>  <SCORE.INTER.POLAR>
0

>  <SCORE.INTER.ROT>
5

>  <SCORE.INTER.SOLV>
14.3325

>  <SCORE.INTER.VDW>
-19.3511

>  <SCORE.INTER.norm>
-1.14604

>  <SCORE.INTRA>
-0.533924

>  <SCORE.INTRA.DIHEDRAL>
-0.449609

>  <SCORE.INTRA.DIHEDRAL.0>
2.60093

>  <SCORE.INTRA.POLAR>
0

>  <SCORE.INTRA.POLAR.0>
0

>  <SCORE.INTRA.REPUL>
0

>  <SCORE.INTRA.REPUL.0>
0

>  <SCORE.INTRA.SOLV>
-1.30871

>  <SCORE.INTRA.SOLV.lig_0>
-33.7882

>  <SCORE.INTRA.VDW>
0.345233

>  <SCORE.INTRA.VDW.0>
-0.593976

>  <SCORE.INTRA.norm>
-0.0533924

>  <SCORE.RESTR>
0

>  <SCORE.RESTR.CAVITY>
0

>  <SCORE.RESTR.norm>
0

>  <SCORE.SYSTEM>
0

>  <SCORE.SYSTEM.CONST>
0

>  <SCORE.SYSTEM.DIHEDRAL>
0

>  <SCORE.SYSTEM.SOLV>
0

>  <SCORE.SYSTEM.norm>
0

>  <SCORE.heavy>
10

>  <SCORE.norm>
-1.19944

>  <RMSD>
5.519

$$$$
ligand
 OpenBabel11021811473D
libRbt.so/2013.1/901 2013/11/27
 10  9  0  0  0  0  0  0  0  0999 V2000
   26.0736   14.8805   21.0210 N   0  0  0  0  0  0  0  0  0  0  0  0
   27.3684   15.5318   20.6662 C   0  0  2  0  0  0  0  0  0  0  0  0
   27.8337   15.1381   19.2944 C   0  0  0  0  0  0  0  0  0  0  0  0
   27.4717   14.0824   18.7834 O   0  0  0  0  0  0  0  0  0  0  0  0
   28.4136   15.2276   21.7356 C   0  0  0  0  0  0  0  0  0  0  0  0
   29.8081   16.2735   21.4517 S   0  0  0  0  0  0  0  0  0  0  0  0
   30.9772   15.5809   22.5748 C   0  0  0  0  0  0  0  0  0  0  0  0
   32.2326   16.4474   22.5746 C   0  0  0  0  0  0  0  0  0  0  0  0
   32.8493   16.4185   21.2636 N   0  0  0  0  0  0  0  0  0  0  0  0
   28.5697   15.8460   18.6103 O   0  0  0  0  0  0  0  0  0  0  0  0
  2  1  1  1  0  0  0
  2  3  1  0  0  0  0
  2  5  1  0  0  0  0
  3  4  1  0  0  0  0
  3 10  1  0  0  0  0
  5  6  1  0  0  0  0
  6  7  1  0  0  0  0
  7  8  1  0  0  0  0
  8  9  1  0  0  0  0
M  END
>  <CHROM.1>
-24.61593329,-168.60227448,-170.38752706,-174.58917317,-63.62168530,29.23304959
15.61629077,20.83937163,2.66945655,-0.25274730,-1.64531287

>  <Name>
ligand

>  <RI>
0

>  <Rbt.Current_Directory>
/home/itssahil/PROJECTS/Mol_Feturizer/New_Systems/rnas/3DIG

>  <Rbt.Executable>
rbdock ($Id: //depot/dev/client3/rdock/2013.1/src/exe/rbdock.cxx#4 $)

>  <Rbt.Library>
libRbt.so (2013.1, Build901 2013/11/27)

>  <Rbt.Parameter_File>
/export/apps/rDock/src/rDock_2013.1_src/data/scripts/dock_solv.prm

>  <Rbt.Receptor>
prm/pocket_docking_6.prm

>  <SCORE>
-10.5272

>  <SCORE.INTER>
-9.58704

>  <SCORE.INTER.CONST>
1

>  <SCORE.INTER.POLAR>
0

>  <SCORE.INTER.ROT>
5

>  <SCORE.INTER.SOLV>
18.0515

>  <SCORE.INTER.VDW>
-19.3418

>  <SCORE.INTER.norm>
-0.958704

>  <SCORE.INTRA>
-0.940171

>  <SCORE.INTRA.DIHEDRAL>
-0.344762

>  <SCORE.INTRA.DIHEDRAL.0>
2.60093

>  <SCORE.INTRA.POLAR>
0

>  <SCORE.INTRA.POLAR.0>
0

>  <SCORE.INTRA.REPUL>
0

>  <SCORE.INTRA.REPUL.0>
0

>  <SCORE.INTRA.SOLV>
-0.682677

>  <SCORE.INTRA.SOLV.lig_0>
-33.7882

>  <SCORE.INTRA.VDW>
-0.426452

>  <SCORE.INTRA.VDW.0>
-0.593976

>  <SCORE.INTRA.norm>
-0.0940171

>  <SCORE.RESTR>
0

>  <SCORE.RESTR.CAVITY>
0

>  <SCORE.RESTR.norm>
0

>  <SCORE.SYSTEM>
0

>  <SCORE.SYSTEM.CONST>
0

>  <SCORE.SYSTEM.DIHEDRAL>
0

>  <SCORE.SYSTEM.SOLV>
0

>  <SCORE.SYSTEM.norm>
0

>  <SCORE.heavy>
10

>  <SCORE.norm>
-1.05272

>  <RMSD>
5.519

$$$$
ligand
 OpenBabel11021811473D
libRbt.so/2013.1/901 2013/11/27
 10  9  0  0  0  0  0  0  0  0999 V2000
   28.2102   14.2218   18.9799 N   0  0  0  0  0  0  0  0  0  0  0  0
   28.2985   14.3572   20.4633 C   0  0  2  0  0  0  0  0  0  0  0  0
   27.0225   14.8847   21.0524 C   0  0  0  0  0  0  0  0  0  0  0  0
   26.1959   15.4634   20.3535 O   0  0  0  0  0  0  0  0  0  0  0  0
   29.5015   15.2188   20.8360 C   0  0  0  0  0  0  0  0  0  0  0  0
   29.7130   15.1358   22.5875 S   0  0  0  0  0  0  0  0  0  0  0  0
   31.3294   15.8179   22.7598 C   0  0  0  0  0  0  0  0  0  0  0  0
   31.2653   17.3144   22.4706 C   0  0  0  0  0  0  0  0  0  0  0  0
   32.5836   17.8991   22.6127 N   0  0  0  0  0  0  0  0  0  0  0  0
   26.7290   14.7499   22.2383 O   0  0  0  0  0  0  0  0  0  0  0  0
  2  1  1  6  0  0  0
  2  3  1  0  0  0  0
  2  5  1  0  0  0  0
  3  4  1  0  0  0  0
  3 10  1  0  0  0  0
  5  6  1  0  0  0  0
  6  7  1  0  0  0  0
  7  8  1  0  0  0  0
  8  9  1  0  0  0  0
M  END
>  <CHROM.1>
-18.59457396,-171.08138759,166.21217051,71.17462914,179.72348305,29.12180874
15.46943658,21.57361575,-2.67500898,0.35085098,1.37336507

>  <Name>
ligand

>  <RI>
0

>  <Rbt.Current_Directory>
/home/itssahil/PROJECTS/Mol_Feturizer/New_Systems/rnas/3DIG

>  <Rbt.Executable>
rbdock ($Id: //depot/dev/client3/rdock/2013.1/src/exe/rbdock.cxx#4 $)

>  <Rbt.Library>
libRbt.so (2013.1, Build901 2013/11/27)

>  <Rbt.Parameter_File>
/export/apps/rDock/src/rDock_2013.1_src/data/scripts/dock_solv.prm

>  <Rbt.Receptor>
prm/pocket_docking_8.prm

>  <SCORE>
-12.0865

>  <SCORE.INTER>
-11.2633

>  <SCORE.INTER.CONST>
1

>  <SCORE.INTER.POLAR>
0

>  <SCORE.INTER.ROT>
5

>  <SCORE.INTER.SOLV>
14.6222

>  <SCORE.INTER.VDW>
-19.3162

>  <SCORE.INTER.norm>
-1.12633

>  <SCORE.INTRA>
-0.823159

>  <SCORE.INTRA.DIHEDRAL>
-0.270023

>  <SCORE.INTRA.DIHEDRAL.0>
2.60093

>  <SCORE.INTRA.POLAR>
0

>  <SCORE.INTRA.POLAR.0>
0

>  <SCORE.INTRA.REPUL>
0

>  <SCORE.INTRA.REPUL.0>
0

>  <SCORE.INTRA.SOLV>
-1.34388

>  <SCORE.INTRA.SOLV.lig_0>
-33.7882

>  <SCORE.INTRA.VDW>
-0.0162098

>  <SCORE.INTRA.VDW.0>
-0.593976

>  <SCORE.INTRA.norm>
-0.0823159

>  <SCORE.RESTR>
0

>  <SCORE.RESTR.CAVITY>
0

>  <SCORE.RESTR.norm>
0

>  <SCORE.SYSTEM>
0

>  <SCORE.SYSTEM.CONST>
0

>  <SCORE.SYSTEM.DIHEDRAL>
0

>  <SCORE.SYSTEM.SOLV>
0

>  <SCORE.SYSTEM.norm>
0

>  <SCORE.heavy>
10

>  <SCORE.norm>
-1.20865

>  <RMSD>
5.519

$$$$
ligand
 OpenBabel11021811473D
libRbt.so/2013.1/901 2013/11/27
 10  9  0  0  0  0  0  0  0  0999 V2000
   27.8056   14.6006   19.1780 N   0  0  0  0  0  0  0  0  0  0  0  0
   28.2307   14.5490   20.6074 C   0  0  2  0  0  0  0  0  0  0  0  0
   27.0875   14.8265   21.5399 C   0  0  0  0  0  0  0  0  0  0  0  0
   25.9286   14.8288   21.1353 O   0  0  0  0  0  0  0  0  0  0  0  0
   29.4014   15.5006   20.8362 C   0  0  0  0  0  0  0  0  0  0  0  0
   30.1956   15.0390   22.3447 S   0  0  0  0  0  0  0  0  0  0  0  0
   31.4873   16.2363   22.4203 C   0  0  0  0  0  0  0  0  0  0  0  0
   32.4701   15.9723   21.2839 C   0  0  0  0  0  0  0  0  0  0  0  0
   33.5566   16.9294   21.3417 N   0  0  0  0  0  0  0  0  0  0  0  0
   27.2420   15.0399   22.7404 O   0  0  0  0  0  0  0  0  0  0  0  0
  2  1  1  6  0  0  0
  2  3  1  0  0  0  0
  2  5  1  0  0  0  0
  3  4  1  0  0  0  0
  3 10  1  0  0  0  0
  5  6  1  0  0  0  0
  6  7  1  0  0  0  0
  7  8  1  0  0  0  0
  8  9  1  0  0  0  0
M  END
>  <CHROM.1>
12.84551076,-161.91019471,-179.94267743,-67.07410818,-178.86840923,29.40432176
15.31803433,21.47345573,-3.02635320,0.25706912,1.51463101

>  <Name>
ligand

>  <RI>
0

>  <Rbt.Current_Directory>
/home/itssahil/PROJECTS/Mol_Feturizer/New_Systems/rnas/3DIG

>  <Rbt.Executable>
rbdock ($Id: //depot/dev/client3/rdock/2013.1/src/exe/rbdock.cxx#4 $)

>  <Rbt.Library>
libRbt.so (2013.1, Build901 2013/11/27)

>  <Rbt.Parameter_File>
/export/apps/rDock/src/rDock_2013.1_src/data/scripts/dock_solv.prm

>  <Rbt.Receptor>
prm/pocket_docking_8.prm

>  <SCORE>
-12.0047

>  <SCORE.INTER>
-11.713

>  <SCORE.INTER.CONST>
1

>  <SCORE.INTER.POLAR>
0

>  <SCORE.INTER.ROT>
5

>  <SCORE.INTER.SOLV>
15.2017

>  <SCORE.INTER.VDW>
-19.8092

>  <SCORE.INTER.norm>
-1.1713

>  <SCORE.INTRA>
-0.291723

>  <SCORE.INTRA.DIHEDRAL>
0.0583911

>  <SCORE.INTRA.DIHEDRAL.0>
2.60093

>  <SCORE.INTRA.POLAR>
0

>  <SCORE.INTRA.POLAR.0>
0

>  <SCORE.INTRA.REPUL>
0

>  <SCORE.INTRA.REPUL.0>
0

>  <SCORE.INTRA.SOLV>
-1.30181

>  <SCORE.INTRA.SOLV.lig_0>
-33.7882

>  <SCORE.INTRA.VDW>
0.329984

>  <SCORE.INTRA.VDW.0>
-0.593976

>  <SCORE.INTRA.norm>
-0.0291723

>  <SCORE.RESTR>
0

>  <SCORE.RESTR.CAVITY>
0

>  <SCORE.RESTR.norm>
0

>  <SCORE.SYSTEM>
0

>  <SCORE.SYSTEM.CONST>
0

>  <SCORE.SYSTEM.DIHEDRAL>
0

>  <SCORE.SYSTEM.SOLV>
0

>  <SCORE.SYSTEM.norm>
0

>  <SCORE.heavy>
10

>  <SCORE.norm>
-1.20047

>  <RMSD>
5.519

$$$$
ligand
 OpenBabel11021811473D
libRbt.so/2013.1/901 2013/11/27
 10  9  0  0  0  0  0  0  0  0999 V2000
   29.1021   15.3063   19.9676 N   0  0  0  0  0  0  0  0  0  0  0  0
   28.4238   14.8089   21.2000 C   0  0  2  0  0  0  0  0  0  0  0  0
   26.9313   14.9402   21.1073 C   0  0  0  0  0  0  0  0  0  0  0  0
   26.2022   14.4968   21.9896 O   0  0  0  0  0  0  0  0  0  0  0  0
   28.9871   15.5207   22.4266 C   0  0  0  0  0  0  0  0  0  0  0  0
   30.7218   15.1970   22.4993 S   0  0  0  0  0  0  0  0  0  0  0  0
   31.3682   16.8364   22.4516 C   0  0  0  0  0  0  0  0  0  0  0  0
   32.8874   16.7630   22.3355 C   0  0  0  0  0  0  0  0  0  0  0  0
   33.2551   16.1772   21.0621 N   0  0  0  0  0  0  0  0  0  0  0  0
   26.3677   15.5072   20.1737 O   0  0  0  0  0  0  0  0  0  0  0  0
  2  1  1  6  0  0  0
  2  3  1  0  0  0  0
  2  5  1  0  0  0  0
  3  4  1  0  0  0  0
  3 10  1  0  0  0  0
  5  6  1  0  0  0  0
  6  7  1  0  0  0  0
  7  8  1  0  0  0  0
  8  9  1  0  0  0  0
M  END
>  <CHROM.1>
174.90600983,-59.24532326,121.57849874,-173.21664024,65.55273485,29.53124359
15.51352179,21.62874505,-3.01056774,0.25120615,1.72849728

>  <Name>
ligand

>  <RI>
0

>  <Rbt.Current_Directory>
/home/itssahil/PROJECTS/Mol_Feturizer/New_Systems/rnas/3DIG

>  <Rbt.Executable>
rbdock ($Id: //depot/dev/client3/rdock/2013.1/src/exe/rbdock.cxx#4 $)

>  <Rbt.Library>
libRbt.so (2013.1, Build901 2013/11/27)

>  <Rbt.Parameter_File>
/export/apps/rDock/src/rDock_2013.1_src/data/scripts/dock_solv.prm

>  <Rbt.Receptor>
prm/pocket_docking_5.prm

>  <SCORE>
-11.4239

>  <SCORE.INTER>
-12.269

>  <SCORE.INTER.CONST>
1

>  <SCORE.INTER.POLAR>
0

>  <SCORE.INTER.ROT>
5

>  <SCORE.INTER.SOLV>
12.4701

>  <SCORE.INTER.VDW>
-19.2694

>  <SCORE.INTER.norm>
-1.2269

>  <SCORE.INTRA>
0.845138

>  <SCORE.INTRA.DIHEDRAL>
1.47525

>  <SCORE.INTRA.DIHEDRAL.0>
2.60093

>  <SCORE.INTRA.POLAR>
0

>  <SCORE.INTRA.POLAR.0>
0

>  <SCORE.INTRA.REPUL>
0

>  <SCORE.INTRA.REPUL.0>
0

>  <SCORE.INTRA.SOLV>
0.860981

>  <SCORE.INTRA.SOLV.lig_0>
-33.7882

>  <SCORE.INTRA.VDW>
-0.322979

>  <SCORE.INTRA.VDW.0>
-0.593976

>  <SCORE.INTRA.norm>
0.0845138

>  <SCORE.RESTR>
0

>  <SCORE.RESTR.CAVITY>
0

>  <SCORE.RESTR.norm>
0

>  <SCORE.SYSTEM>
0

>  <SCORE.SYSTEM.CONST>
0

>  <SCORE.SYSTEM.DIHEDRAL>
0

>  <SCORE.SYSTEM.SOLV>
0

>  <SCORE.SYSTEM.norm>
0

>  <SCORE.heavy>
10

>  <SCORE.norm>
-1.14239

>  <RMSD>
5.521

$$$$
ligand
 OpenBabel11021811473D
libRbt.so/2013.1/901 2013/11/27
 10  9  0  0  0  0  0  0  0  0999 V2000
   27.7789   13.8972   18.7493 N   0  0  0  0  0  0  0  0  0  0  0  0
   28.2973   14.3013   20.0889 C   0  0  2  0  0  0  0  0  0  0  0  0
   27.3475   15.2202   20.8009 C   0  0  0  0  0  0  0  0  0  0  0  0
   26.9009   14.9330   21.9076 O   0  0  0  0  0  0  0  0  0  0  0  0
   29.6879   14.9128   19.9454 C   0  0  0  0  0  0  0  0  0  0  0  0
   30.3474   15.1598   21.5651 S   0  0  0  0  0  0  0  0  0  0  0  0
   31.7770   16.1240   21.1984 C   0  0  0  0  0  0  0  0  0  0  0  0
   32.4200   16.5684   22.5084 C   0  0  0  0  0  0  0  0  0  0  0  0
   33.5174   17.4742   22.2345 N   0  0  0  0  0  0  0  0  0  0  0  0
   26.9886   16.3000   20.3361 O   0  0  0  0  0  0  0  0  0  0  0  0
  2  1  1  6  0  0  0
  2  3  1  0  0  0  0
  2  5  1  0  0  0  0
  3  4  1  0  0  0  0
  3 10  1  0  0  0  0
  5  6  1  0  0  0  0
  6  7  1  0  0  0  0
  7  8  1  0  0  0  0
  8  9  1  0  0  0  0
M  END
>  <CHROM.1>
122.55736131,-172.05920888,-169.94866018,174.22034932,-174.22210189,29.57280604
15.46583052,21.01682663,-2.69931895,0.08160164,0.95788365

>  <Name>
ligand

>  <RI>
0

>  <Rbt.Current_Directory>
/home/itssahil/PROJECTS/Mol_Feturizer/New_Systems/rnas/3DIG

>  <Rbt.Executable>
rbdock ($Id: //depot/dev/client3/rdock/2013.1/src/exe/rbdock.cxx#4 $)

>  <Rbt.Library>
libRbt.so (2013.1, Build901 2013/11/27)

>  <Rbt.Parameter_File>
/export/apps/rDock/src/rDock_2013.1_src/data/scripts/dock_solv.prm

>  <Rbt.Receptor>
prm/blind_docking_60.prm

>  <SCORE>
-9.86944

>  <SCORE.INTER>
-8.30916

>  <SCORE.INTER.CONST>
1

>  <SCORE.INTER.POLAR>
0

>  <SCORE.INTER.ROT>
5

>  <SCORE.INTER.SOLV>
16.5192

>  <SCORE.INTER.VDW>
-17.9792

>  <SCORE.INTER.norm>
-0.830916

>  <SCORE.INTRA>
-1.56028

>  <SCORE.INTRA.DIHEDRAL>
-0.52798

>  <SCORE.INTRA.DIHEDRAL.0>
2.60093

>  <SCORE.INTRA.POLAR>
0

>  <SCORE.INTRA.POLAR.0>
0

>  <SCORE.INTRA.REPUL>
0

>  <SCORE.INTRA.REPUL.0>
0

>  <SCORE.INTRA.SOLV>
-1.58235

>  <SCORE.INTRA.SOLV.lig_0>
-33.7882

>  <SCORE.INTRA.VDW>
-0.505116

>  <SCORE.INTRA.VDW.0>
-0.593976

>  <SCORE.INTRA.norm>
-0.156028

>  <SCORE.RESTR>
0

>  <SCORE.RESTR.CAVITY>
0

>  <SCORE.RESTR.norm>
0

>  <SCORE.SYSTEM>
0

>  <SCORE.SYSTEM.CONST>
0

>  <SCORE.SYSTEM.DIHEDRAL>
0

>  <SCORE.SYSTEM.SOLV>
0

>  <SCORE.SYSTEM.norm>
0

>  <SCORE.heavy>
10

>  <SCORE.norm>
-0.986944

>  <RMSD>
5.522

$$$$
ligand
 OpenBabel11021811473D
libRbt.so/2013.1/901 2013/11/27
 10  9  0  0  0  0  0  0  0  0999 V2000
   29.0615   15.7107   20.0529 N   0  0  0  0  0  0  0  0  0  0  0  0
   28.4422   14.8943   21.1375 C   0  0  2  0  0  0  0  0  0  0  0  0
   26.9428   14.9550   21.0949 C   0  0  0  0  0  0  0  0  0  0  0  0
   26.3582   15.4679   20.1453 O   0  0  0  0  0  0  0  0  0  0  0  0
   28.9953   15.3251   22.4928 C   0  0  0  0  0  0  0  0  0  0  0  0
   30.7480   15.1092   22.4627 S   0  0  0  0  0  0  0  0  0  0  0  0
   31.2901   16.7864   22.4914 C   0  0  0  0  0  0  0  0  0  0  0  0
   32.8147   16.8115   22.4472 C   0  0  0  0  0  0  0  0  0  0  0  0
   33.2790   16.2556   21.1921 N   0  0  0  0  0  0  0  0  0  0  0  0
   26.2302   14.4845   21.9789 O   0  0  0  0  0  0  0  0  0  0  0  0
  2  1  1  6  0  0  0
  2  3  1  0  0  0  0
  2  5  1  0  0  0  0
  3  4  1  0  0  0  0
  3 10  1  0  0  0  0
  5  6  1  0  0  0  0
  6  7  1  0  0  0  0
  7  8  1  0  0  0  0
  8  9  1  0  0  0  0
M  END
>  <CHROM.1>
9.70457107,-58.79952173,111.09806825,-179.09919957,64.03084078,29.52674003
15.52386648,21.64953904,-3.03784073,0.27148062,1.89010421

>  <Name>
ligand

>  <RI>
0

>  <Rbt.Current_Directory>
/home/itssahil/PROJECTS/Mol_Feturizer/New_Systems/rnas/3DIG

>  <Rbt.Executable>
rbdock ($Id: //depot/dev/client3/rdock/2013.1/src/exe/rbdock.cxx#4 $)

>  <Rbt.Library>
libRbt.so (2013.1, Build901 2013/11/27)

>  <Rbt.Parameter_File>
/export/apps/rDock/src/rDock_2013.1_src/data/scripts/dock_solv.prm

>  <Rbt.Receptor>
prm/pocket_docking_5.prm

>  <SCORE>
-11.3874

>  <SCORE.INTER>
-12.3608

>  <SCORE.INTER.CONST>
1

>  <SCORE.INTER.POLAR>
0

>  <SCORE.INTER.ROT>
5

>  <SCORE.INTER.SOLV>
12.3218

>  <SCORE.INTER.VDW>
-19.2811

>  <SCORE.INTER.norm>
-1.23608

>  <SCORE.INTRA>
0.97342

>  <SCORE.INTRA.DIHEDRAL>
1.22242

>  <SCORE.INTRA.DIHEDRAL.0>
2.60093

>  <SCORE.INTRA.POLAR>
0

>  <SCORE.INTRA.POLAR.0>
0

>  <SCORE.INTRA.REPUL>
0

>  <SCORE.INTRA.REPUL.0>
0

>  <SCORE.INTRA.SOLV>
1.0788

>  <SCORE.INTRA.SOLV.lig_0>
-33.7882

>  <SCORE.INTRA.VDW>
-0.177188

>  <SCORE.INTRA.VDW.0>
-0.593976

>  <SCORE.INTRA.norm>
0.097342

>  <SCORE.RESTR>
0

>  <SCORE.RESTR.CAVITY>
0

>  <SCORE.RESTR.norm>
0

>  <SCORE.SYSTEM>
0

>  <SCORE.SYSTEM.CONST>
0

>  <SCORE.SYSTEM.DIHEDRAL>
0

>  <SCORE.SYSTEM.SOLV>
0

>  <SCORE.SYSTEM.norm>
0

>  <SCORE.heavy>
10

>  <SCORE.norm>
-1.13874

>  <RMSD>
5.523

$$$$
ligand
 OpenBabel11021811473D
libRbt.so/2013.1/901 2013/11/27
 10  9  0  0  0  0  0  0  0  0999 V2000
   28.8033   14.9459   19.4545 N   0  0  0  0  0  0  0  0  0  0  0  0
   28.3824   14.6968   20.8642 C   0  0  2  0  0  0  0  0  0  0  0  0
   26.9129   14.9345   21.0582 C   0  0  0  0  0  0  0  0  0  0  0  0
   26.2523   15.5298   20.2122 O   0  0  0  0  0  0  0  0  0  0  0  0
   29.2297   15.5364   21.8158 C   0  0  0  0  0  0  0  0  0  0  0  0
   30.8962   14.9594   21.7192 S   0  0  0  0  0  0  0  0  0  0  0  0
   31.6963   16.0661   22.8341 C   0  0  0  0  0  0  0  0  0  0  0  0
   32.2421   17.2513   22.0439 C   0  0  0  0  0  0  0  0  0  0  0  0
   33.3086   16.8087   21.1684 N   0  0  0  0  0  0  0  0  0  0  0  0
   26.2964   14.5350   22.0437 O   0  0  0  0  0  0  0  0  0  0  0  0
  2  1  1  6  0  0  0
  2  3  1  0  0  0  0
  2  5  1  0  0  0  0
  3  4  1  0  0  0  0
  3 10  1  0  0  0  0
  5  6  1  0  0  0  0
  6  7  1  0  0  0  0
  7  8  1  0  0  0  0
  8  9  1  0  0  0  0
M  END
>  <CHROM.1>
-14.20690671,-65.62519044,178.51513095,-93.16213691,-66.91818909,29.53132153
15.46256291,21.36816364,-3.00253016,0.26914167,1.67639791

>  <Name>
ligand

>  <RI>
0

>  <Rbt.Current_Directory>
/home/itssahil/PROJECTS/Mol_Feturizer/New_Systems/rnas/3DIG

>  <Rbt.Executable>
rbdock ($Id: //depot/dev/client3/rdock/2013.1/src/exe/rbdock.cxx#4 $)

>  <Rbt.Library>
libRbt.so (2013.1, Build901 2013/11/27)

>  <Rbt.Parameter_File>
/export/apps/rDock/src/rDock_2013.1_src/data/scripts/dock_solv.prm

>  <Rbt.Receptor>
prm/blind_docking_80.prm

>  <SCORE>
-11.2125

>  <SCORE.INTER>
-11.3304

>  <SCORE.INTER.CONST>
1

>  <SCORE.INTER.POLAR>
0

>  <SCORE.INTER.ROT>
5

>  <SCORE.INTER.SOLV>
12.739

>  <SCORE.INTER.VDW>
-18.7333

>  <SCORE.INTER.norm>
-1.13304

>  <SCORE.INTRA>
0.117865

>  <SCORE.INTRA.DIHEDRAL>
0.616761

>  <SCORE.INTRA.DIHEDRAL.0>
2.60093

>  <SCORE.INTRA.POLAR>
0

>  <SCORE.INTRA.POLAR.0>
0

>  <SCORE.INTRA.REPUL>
0

>  <SCORE.INTRA.REPUL.0>
0

>  <SCORE.INTRA.SOLV>
0.275399

>  <SCORE.INTRA.SOLV.lig_0>
-33.7882

>  <SCORE.INTRA.VDW>
-0.328215

>  <SCORE.INTRA.VDW.0>
-0.593976

>  <SCORE.INTRA.norm>
0.0117865

>  <SCORE.RESTR>
0

>  <SCORE.RESTR.CAVITY>
0

>  <SCORE.RESTR.norm>
0

>  <SCORE.SYSTEM>
0

>  <SCORE.SYSTEM.CONST>
0

>  <SCORE.SYSTEM.DIHEDRAL>
0

>  <SCORE.SYSTEM.SOLV>
0

>  <SCORE.SYSTEM.norm>
0

>  <SCORE.heavy>
10

>  <SCORE.norm>
-1.12125

>  <RMSD>
5.525

$$$$
ligand
 OpenBabel11021811473D
libRbt.so/2013.1/901 2013/11/27
 10  9  0  0  0  0  0  0  0  0999 V2000
   28.7702   15.1442   19.4523 N   0  0  0  0  0  0  0  0  0  0  0  0
   28.3902   14.7467   20.8394 C   0  0  2  0  0  0  0  0  0  0  0  0
   26.9213   14.9293   21.0897 C   0  0  0  0  0  0  0  0  0  0  0  0
   26.4088   14.5575   22.1412 O   0  0  0  0  0  0  0  0  0  0  0  0
   29.2432   15.5076   21.8503 C   0  0  0  0  0  0  0  0  0  0  0  0
   30.9189   14.9842   21.6570 S   0  0  0  0  0  0  0  0  0  0  0  0
   31.7308   16.0332   22.8181 C   0  0  0  0  0  0  0  0  0  0  0  0
   32.2858   17.2474   22.0800 C   0  0  0  0  0  0  0  0  0  0  0  0
   33.3375   16.8329   21.1735 N   0  0  0  0  0  0  0  0  0  0  0  0
   26.1688   15.4705   20.2825 O   0  0  0  0  0  0  0  0  0  0  0  0
  2  1  1  6  0  0  0
  2  3  1  0  0  0  0
  2  5  1  0  0  0  0
  3  4  1  0  0  0  0
  3 10  1  0  0  0  0
  5  6  1  0  0  0  0
  6  7  1  0  0  0  0
  7  8  1  0  0  0  0
  8  9  1  0  0  0  0
M  END
>  <CHROM.1>
174.33381777,-65.54250819,176.62014187,-96.26438327,-66.34057452,29.54777109
15.48134857,21.37792194,-3.02021924,0.26908572,1.70964720

>  <Name>
ligand

>  <RI>
0

>  <Rbt.Current_Directory>
/home/itssahil/PROJECTS/Mol_Feturizer/New_Systems/rnas/3DIG

>  <Rbt.Executable>
rbdock ($Id: //depot/dev/client3/rdock/2013.1/src/exe/rbdock.cxx#4 $)

>  <Rbt.Library>
libRbt.so (2013.1, Build901 2013/11/27)

>  <Rbt.Parameter_File>
/export/apps/rDock/src/rDock_2013.1_src/data/scripts/dock_solv.prm

>  <Rbt.Receptor>
prm/pocket_docking_4.prm

>  <SCORE>
-11.0481

>  <SCORE.INTER>
-11.2698

>  <SCORE.INTER.CONST>
1

>  <SCORE.INTER.POLAR>
0

>  <SCORE.INTER.ROT>
5

>  <SCORE.INTER.SOLV>
12.6535

>  <SCORE.INTER.VDW>
-18.6643

>  <SCORE.INTER.norm>
-1.12698

>  <SCORE.INTRA>
0.221691

>  <SCORE.INTRA.DIHEDRAL>
0.739024

>  <SCORE.INTRA.DIHEDRAL.0>
2.60093

>  <SCORE.INTRA.POLAR>
0

>  <SCORE.INTRA.POLAR.0>
0

>  <SCORE.INTRA.REPUL>
0

>  <SCORE.INTRA.REPUL.0>
0

>  <SCORE.INTRA.SOLV>
0.254083

>  <SCORE.INTRA.SOLV.lig_0>
-33.7882

>  <SCORE.INTRA.VDW>
-0.274862

>  <SCORE.INTRA.VDW.0>
-0.593976

>  <SCORE.INTRA.norm>
0.0221691

>  <SCORE.RESTR>
0

>  <SCORE.RESTR.CAVITY>
0

>  <SCORE.RESTR.norm>
0

>  <SCORE.SYSTEM>
0

>  <SCORE.SYSTEM.CONST>
0

>  <SCORE.SYSTEM.DIHEDRAL>
0

>  <SCORE.SYSTEM.SOLV>
0

>  <SCORE.SYSTEM.norm>
0

>  <SCORE.heavy>
10

>  <SCORE.norm>
-1.10481

>  <RMSD>
5.525

$$$$
ligand
 OpenBabel11021811473D
libRbt.so/2013.1/901 2013/11/27
 10  9  0  0  0  0  0  0  0  0999 V2000
   28.8103   14.9704   19.4539 N   0  0  0  0  0  0  0  0  0  0  0  0
   28.3752   14.7051   20.8563 C   0  0  2  0  0  0  0  0  0  0  0  0
   26.9051   14.9471   21.0398 C   0  0  0  0  0  0  0  0  0  0  0  0
   26.3202   14.5509   22.0436 O   0  0  0  0  0  0  0  0  0  0  0  0
   29.2174   15.5285   21.8265 C   0  0  0  0  0  0  0  0  0  0  0  0
   30.8907   14.9769   21.7035 S   0  0  0  0  0  0  0  0  0  0  0  0
   31.6869   16.0774   22.8272 C   0  0  0  0  0  0  0  0  0  0  0  0
   32.2432   17.2626   22.0442 C   0  0  0  0  0  0  0  0  0  0  0  0
   33.3114   16.8173   21.1721 N   0  0  0  0  0  0  0  0  0  0  0  0
   26.2227   15.5623   20.2234 O   0  0  0  0  0  0  0  0  0  0  0  0
  2  1  1  6  0  0  0
  2  3  1  0  0  0  0
  2  5  1  0  0  0  0
  3  4  1  0  0  0  0
  3 10  1  0  0  0  0
  5  6  1  0  0  0  0
  6  7  1  0  0  0  0
  7  8  1  0  0  0  0
  8  9  1  0  0  0  0
M  END
>  <CHROM.1>
166.38768017,-64.00017307,177.73066650,-94.79986751,-66.73044561,29.52750607
15.47680857,21.36471545,-3.00267977,0.26723555,1.67602381

>  <Name>
ligand

>  <RI>
0

>  <Rbt.Current_Directory>
/home/itssahil/PROJECTS/Mol_Feturizer/New_Systems/rnas/3DIG

>  <Rbt.Executable>
rbdock ($Id: //depot/dev/client3/rdock/2013.1/src/exe/rbdock.cxx#4 $)

>  <Rbt.Library>
libRbt.so (2013.1, Build901 2013/11/27)

>  <Rbt.Parameter_File>
/export/apps/rDock/src/rDock_2013.1_src/data/scripts/dock_solv.prm

>  <Rbt.Receptor>
prm/pocket_docking_6.prm

>  <SCORE>
-11.2253

>  <SCORE.INTER>
-11.3336

>  <SCORE.INTER.CONST>
1

>  <SCORE.INTER.POLAR>
0

>  <SCORE.INTER.ROT>
5

>  <SCORE.INTER.SOLV>
12.7089

>  <SCORE.INTER.VDW>
-18.7254

>  <SCORE.INTER.norm>
-1.13336

>  <SCORE.INTRA>
0.108336

>  <SCORE.INTRA.DIHEDRAL>
0.594337

>  <SCORE.INTRA.DIHEDRAL.0>
2.60093

>  <SCORE.INTRA.POLAR>
0

>  <SCORE.INTRA.POLAR.0>
0

>  <SCORE.INTRA.REPUL>
0

>  <SCORE.INTRA.REPUL.0>
0

>  <SCORE.INTRA.SOLV>
0.275537

>  <SCORE.INTRA.SOLV.lig_0>
-33.7882

>  <SCORE.INTRA.VDW>
-0.3266

>  <SCORE.INTRA.VDW.0>
-0.593976

>  <SCORE.INTRA.norm>
0.0108336

>  <SCORE.RESTR>
0

>  <SCORE.RESTR.CAVITY>
0

>  <SCORE.RESTR.norm>
0

>  <SCORE.SYSTEM>
0

>  <SCORE.SYSTEM.CONST>
0

>  <SCORE.SYSTEM.DIHEDRAL>
0

>  <SCORE.SYSTEM.SOLV>
0

>  <SCORE.SYSTEM.norm>
0

>  <SCORE.heavy>
10

>  <SCORE.norm>
-1.12253

>  <RMSD>
5.525

$$$$
ligand
 OpenBabel11021811473D
libRbt.so/2013.1/901 2013/11/27
 10  9  0  0  0  0  0  0  0  0999 V2000
   27.9090   14.6116   19.1448 N   0  0  0  0  0  0  0  0  0  0  0  0
   28.2736   14.5413   20.5899 C   0  0  2  0  0  0  0  0  0  0  0  0
   27.1027   14.8512   21.4767 C   0  0  0  0  0  0  0  0  0  0  0  0
   25.9650   14.9167   21.0207 O   0  0  0  0  0  0  0  0  0  0  0  0
   29.4634   15.4545   20.8709 C   0  0  0  0  0  0  0  0  0  0  0  0
   30.1382   15.0075   22.4407 S   0  0  0  0  0  0  0  0  0  0  0  0
   31.1681   16.4002   22.7686 C   0  0  0  0  0  0  0  0  0  0  0  0
   32.3528   16.3731   21.8081 C   0  0  0  0  0  0  0  0  0  0  0  0
   33.1957   17.5298   22.0349 N   0  0  0  0  0  0  0  0  0  0  0  0
   27.2115   15.0307   22.6878 O   0  0  0  0  0  0  0  0  0  0  0  0
  2  1  1  6  0  0  0
  2  3  1  0  0  0  0
  2  5  1  0  0  0  0
  3  4  1  0  0  0  0
  3 10  1  0  0  0  0
  5  6  1  0  0  0  0
  6  7  1  0  0  0  0
  7  8  1  0  0  0  0
  8  9  1  0  0  0  0
M  END
>  <CHROM.1>
11.45346753,-164.29833634,-165.53664304,-69.91656885,178.46771429,29.34235101
15.42032268,21.60779649,-2.90252226,0.32087506,1.49542946

>  <Name>
ligand

>  <RI>
0

>  <Rbt.Current_Directory>
/home/itssahil/PROJECTS/Mol_Feturizer/New_Systems/rnas/3DIG

>  <Rbt.Executable>
rbdock ($Id: //depot/dev/client3/rdock/2013.1/src/exe/rbdock.cxx#4 $)

>  <Rbt.Library>
libRbt.so (2013.1, Build901 2013/11/27)

>  <Rbt.Parameter_File>
/export/apps/rDock/src/rDock_2013.1_src/data/scripts/dock_solv.prm

>  <Rbt.Receptor>
prm/pocket_docking_3.prm

>  <SCORE>
-12.008

>  <SCORE.INTER>
-11.773

>  <SCORE.INTER.CONST>
1

>  <SCORE.INTER.POLAR>
0

>  <SCORE.INTER.ROT>
5

>  <SCORE.INTER.SOLV>
14.3815

>  <SCORE.INTER.VDW>
-19.5759

>  <SCORE.INTER.norm>
-1.1773

>  <SCORE.INTRA>
-0.235

>  <SCORE.INTRA.DIHEDRAL>
0.218259

>  <SCORE.INTRA.DIHEDRAL.0>
2.60093

>  <SCORE.INTRA.POLAR>
0

>  <SCORE.INTRA.POLAR.0>
0

>  <SCORE.INTRA.REPUL>
0

>  <SCORE.INTRA.REPUL.0>
0

>  <SCORE.INTRA.SOLV>
-1.31105

>  <SCORE.INTRA.SOLV.lig_0>
-33.7882

>  <SCORE.INTRA.VDW>
0.311397

>  <SCORE.INTRA.VDW.0>
-0.593976

>  <SCORE.INTRA.norm>
-0.0235

>  <SCORE.RESTR>
0

>  <SCORE.RESTR.CAVITY>
0

>  <SCORE.RESTR.norm>
0

>  <SCORE.SYSTEM>
0

>  <SCORE.SYSTEM.CONST>
0

>  <SCORE.SYSTEM.DIHEDRAL>
0

>  <SCORE.SYSTEM.SOLV>
0

>  <SCORE.SYSTEM.norm>
0

>  <SCORE.heavy>
10

>  <SCORE.norm>
-1.2008

>  <RMSD>
5.526

$$$$
ligand
 OpenBabel11021811473D
libRbt.so/2013.1/901 2013/11/27
 10  9  0  0  0  0  0  0  0  0999 V2000
   27.3828   13.6028   18.8301 N   0  0  0  0  0  0  0  0  0  0  0  0
   27.9434   14.5323   19.8539 C   0  0  2  0  0  0  0  0  0  0  0  0
   26.9756   14.7771   20.9750 C   0  0  0  0  0  0  0  0  0  0  0  0
   27.3340   14.7019   22.1465 O   0  0  0  0  0  0  0  0  0  0  0  0
   28.3901   15.8307   19.1881 C   0  0  0  0  0  0  0  0  0  0  0  0
   28.9354   16.9356   20.4534 S   0  0  0  0  0  0  0  0  0  0  0  0
   30.4612   16.1838   20.9165 C   0  0  0  0  0  0  0  0  0  0  0  0
   31.0905   16.9999   22.0412 C   0  0  0  0  0  0  0  0  0  0  0  0
   32.4045   16.4748   22.3533 N   0  0  0  0  0  0  0  0  0  0  0  0
   25.7999   15.0825   20.7873 O   0  0  0  0  0  0  0  0  0  0  0  0
  2  1  1  6  0  0  0
  2  3  1  0  0  0  0
  2  5  1  0  0  0  0
  3  4  1  0  0  0  0
  3 10  1  0  0  0  0
  5  6  1  0  0  0  0
  6  7  1  0  0  0  0
  7  8  1  0  0  0  0
  8  9  1  0  0  0  0
M  END
>  <CHROM.1>
132.24184730,175.99598434,72.38286771,-179.12832415,-174.65418454,28.67521946
15.67365326,20.74102240,-2.81814539,0.43580560,1.51431177

>  <Name>
ligand

>  <RI>
0

>  <Rbt.Current_Directory>
/home/itssahil/PROJECTS/Mol_Feturizer/New_Systems/rnas/3DIG

>  <Rbt.Executable>
rbdock ($Id: //depot/dev/client3/rdock/2013.1/src/exe/rbdock.cxx#4 $)

>  <Rbt.Library>
libRbt.so (2013.1, Build901 2013/11/27)

>  <Rbt.Parameter_File>
/export/apps/rDock/src/rDock_2013.1_src/data/scripts/dock_solv.prm

>  <Rbt.Receptor>
prm/pocket_docking_5.prm

>  <SCORE>
-11.8591

>  <SCORE.INTER>
-10.4903

>  <SCORE.INTER.CONST>
1

>  <SCORE.INTER.POLAR>
0

>  <SCORE.INTER.ROT>
5

>  <SCORE.INTER.SOLV>
16.7674

>  <SCORE.INTER.VDW>
-19.516

>  <SCORE.INTER.norm>
-1.04903

>  <SCORE.INTRA>
-1.36872

>  <SCORE.INTRA.DIHEDRAL>
-0.722417

>  <SCORE.INTRA.DIHEDRAL.0>
2.60093

>  <SCORE.INTRA.POLAR>
0

>  <SCORE.INTRA.POLAR.0>
0

>  <SCORE.INTRA.REPUL>
0

>  <SCORE.INTRA.REPUL.0>
0

>  <SCORE.INTRA.SOLV>
-1.39783

>  <SCORE.INTRA.SOLV.lig_0>
-33.7882

>  <SCORE.INTRA.VDW>
-0.308597

>  <SCORE.INTRA.VDW.0>
-0.593976

>  <SCORE.INTRA.norm>
-0.136872

>  <SCORE.RESTR>
0

>  <SCORE.RESTR.CAVITY>
0

>  <SCORE.RESTR.norm>
0

>  <SCORE.SYSTEM>
0

>  <SCORE.SYSTEM.CONST>
0

>  <SCORE.SYSTEM.DIHEDRAL>
0

>  <SCORE.SYSTEM.SOLV>
0

>  <SCORE.SYSTEM.norm>
0

>  <SCORE.heavy>
10

>  <SCORE.norm>
-1.18591

>  <RMSD>
5.526

$$$$
ligand
 OpenBabel11021811473D
libRbt.so/2013.1/901 2013/11/27
 10  9  0  0  0  0  0  0  0  0999 V2000
   27.4809   13.7822   18.9325 N   0  0  0  0  0  0  0  0  0  0  0  0
   28.0015   14.6679   20.0146 C   0  0  2  0  0  0  0  0  0  0  0  0
   27.0001   14.8486   21.1181 C   0  0  0  0  0  0  0  0  0  0  0  0
   27.3487   14.8402   22.2950 O   0  0  0  0  0  0  0  0  0  0  0  0
   28.4508   16.0012   19.4239 C   0  0  0  0  0  0  0  0  0  0  0  0
   29.1379   16.9742   20.7279 S   0  0  0  0  0  0  0  0  0  0  0  0
   30.7169   16.2127   20.9144 C   0  0  0  0  0  0  0  0  0  0  0  0
   31.5155   16.9855   21.9594 C   0  0  0  0  0  0  0  0  0  0  0  0
   32.8728   16.4810   22.0123 N   0  0  0  0  0  0  0  0  0  0  0  0
   25.8030   15.0340   20.9096 O   0  0  0  0  0  0  0  0  0  0  0  0
  2  1  1  6  0  0  0
  2  3  1  0  0  0  0
  2  5  1  0  0  0  0
  3  4  1  0  0  0  0
  3 10  1  0  0  0  0
  5  6  1  0  0  0  0
  6  7  1  0  0  0  0
  7  8  1  0  0  0  0
  8  9  1  0  0  0  0
M  END
>  <CHROM.1>
138.81435963,-176.93442135,76.80422024,176.39429482,-173.02058205,28.83956298
15.73957656,20.83985634,-2.84768409,0.35017621,1.35499336

>  <Name>
ligand

>  <RI>
0

>  <Rbt.Current_Directory>
/home/itssahil/PROJECTS/Mol_Feturizer/New_Systems/rnas/3DIG

>  <Rbt.Executable>
rbdock ($Id: //depot/dev/client3/rdock/2013.1/src/exe/rbdock.cxx#4 $)

>  <Rbt.Library>
libRbt.so (2013.1, Build901 2013/11/27)

>  <Rbt.Parameter_File>
/export/apps/rDock/src/rDock_2013.1_src/data/scripts/dock_solv.prm

>  <Rbt.Receptor>
prm/pocket_docking_5.prm

>  <SCORE>
-11.8895

>  <SCORE.INTER>
-10.4657

>  <SCORE.INTER.CONST>
1

>  <SCORE.INTER.POLAR>
0

>  <SCORE.INTER.ROT>
5

>  <SCORE.INTER.SOLV>
16.5958

>  <SCORE.INTER.VDW>
-19.4424

>  <SCORE.INTER.norm>
-1.04657

>  <SCORE.INTRA>
-1.42381

>  <SCORE.INTRA.DIHEDRAL>
-0.459267

>  <SCORE.INTRA.DIHEDRAL.0>
2.60093

>  <SCORE.INTRA.POLAR>
0

>  <SCORE.INTRA.POLAR.0>
0

>  <SCORE.INTRA.REPUL>
0

>  <SCORE.INTRA.REPUL.0>
0

>  <SCORE.INTRA.SOLV>
-1.3929

>  <SCORE.INTRA.SOLV.lig_0>
-33.7882

>  <SCORE.INTRA.VDW>
-0.497727

>  <SCORE.INTRA.VDW.0>
-0.593976

>  <SCORE.INTRA.norm>
-0.142381

>  <SCORE.RESTR>
0

>  <SCORE.RESTR.CAVITY>
0

>  <SCORE.RESTR.norm>
0

>  <SCORE.SYSTEM>
0

>  <SCORE.SYSTEM.CONST>
0

>  <SCORE.SYSTEM.DIHEDRAL>
0

>  <SCORE.SYSTEM.SOLV>
0

>  <SCORE.SYSTEM.norm>
0

>  <SCORE.heavy>
10

>  <SCORE.norm>
-1.18895

>  <RMSD>
5.526

$$$$
ligand
 OpenBabel11021811473D
libRbt.so/2013.1/901 2013/11/27
 10  9  0  0  0  0  0  0  0  0999 V2000
   26.3782   15.3488   20.5238 N   0  0  0  0  0  0  0  0  0  0  0  0
   27.8042   15.2435   20.0975 C   0  0  2  0  0  0  0  0  0  0  0  0
   27.9281   14.8073   18.6664 C   0  0  0  0  0  0  0  0  0  0  0  0
   27.3619   13.7957   18.2632 O   0  0  0  0  0  0  0  0  0  0  0  0
   28.5637   14.3206   21.0461 C   0  0  0  0  0  0  0  0  0  0  0  0
   28.6484   15.1077   22.6249 S   0  0  0  0  0  0  0  0  0  0  0  0
   29.9297   16.2848   22.3413 C   0  0  0  0  0  0  0  0  0  0  0  0
   31.2519   15.5423   22.1754 C   0  0  0  0  0  0  0  0  0  0  0  0
   32.3075   16.4834   21.8593 N   0  0  0  0  0  0  0  0  0  0  0  0
   28.5713   15.4375   17.8297 O   0  0  0  0  0  0  0  0  0  0  0  0
  2  1  1  1  0  0  0
  2  3  1  0  0  0  0
  2  5  1  0  0  0  0
  3  4  1  0  0  0  0
  3 10  1  0  0  0  0
  5  6  1  0  0  0  0
  6  7  1  0  0  0  0
  7  8  1  0  0  0  0
  8  9  1  0  0  0  0
M  END
>  <CHROM.1>
-52.90233035,-67.17790820,-77.59365534,-68.98496251,176.50865739,28.84502510
15.21234110,20.74318495,2.30221932,-0.29043428,-1.63427780

>  <Name>
ligand

>  <RI>
0

>  <Rbt.Current_Directory>
/home/itssahil/PROJECTS/Mol_Feturizer/New_Systems/rnas/3DIG

>  <Rbt.Executable>
rbdock ($Id: //depot/dev/client3/rdock/2013.1/src/exe/rbdock.cxx#4 $)

>  <Rbt.Library>
libRbt.so (2013.1, Build901 2013/11/27)

>  <Rbt.Parameter_File>
/export/apps/rDock/src/rDock_2013.1_src/data/scripts/dock_solv.prm

>  <Rbt.Receptor>
prm/pocket_docking_6.prm

>  <SCORE>
-11.5627

>  <SCORE.INTER>
-11.2184

>  <SCORE.INTER.CONST>
1

>  <SCORE.INTER.POLAR>
0

>  <SCORE.INTER.ROT>
5

>  <SCORE.INTER.SOLV>
16.6651

>  <SCORE.INTER.VDW>
-19.9673

>  <SCORE.INTER.norm>
-1.12184

>  <SCORE.INTRA>
-0.344363

>  <SCORE.INTRA.DIHEDRAL>
-0.266432

>  <SCORE.INTRA.DIHEDRAL.0>
2.60093

>  <SCORE.INTRA.POLAR>
0

>  <SCORE.INTRA.POLAR.0>
0

>  <SCORE.INTRA.REPUL>
0

>  <SCORE.INTRA.REPUL.0>
0

>  <SCORE.INTRA.SOLV>
-0.173501

>  <SCORE.INTRA.SOLV.lig_0>
-33.7882

>  <SCORE.INTRA.VDW>
-0.124397

>  <SCORE.INTRA.VDW.0>
-0.593976

>  <SCORE.INTRA.norm>
-0.0344363

>  <SCORE.RESTR>
0

>  <SCORE.RESTR.CAVITY>
0

>  <SCORE.RESTR.norm>
0

>  <SCORE.SYSTEM>
0

>  <SCORE.SYSTEM.CONST>
0

>  <SCORE.SYSTEM.DIHEDRAL>
0

>  <SCORE.SYSTEM.SOLV>
0

>  <SCORE.SYSTEM.norm>
0

>  <SCORE.heavy>
10

>  <SCORE.norm>
-1.15627

>  <RMSD>
5.529

$$$$
ligand
 OpenBabel11021811473D
libRbt.so/2013.1/901 2013/11/27
 10  9  0  0  0  0  0  0  0  0999 V2000
   27.9461   14.6440   19.0816 N   0  0  0  0  0  0  0  0  0  0  0  0
   28.2844   14.5683   20.5330 C   0  0  2  0  0  0  0  0  0  0  0  0
   27.0922   14.8533   21.3995 C   0  0  0  0  0  0  0  0  0  0  0  0
   25.9747   14.9914   20.9108 O   0  0  0  0  0  0  0  0  0  0  0  0
   29.4542   15.4976   20.8432 C   0  0  0  0  0  0  0  0  0  0  0  0
   30.1055   15.0498   22.4227 S   0  0  0  0  0  0  0  0  0  0  0  0
   31.1813   16.4106   22.7367 C   0  0  0  0  0  0  0  0  0  0  0  0
   32.3587   16.3404   21.7692 C   0  0  0  0  0  0  0  0  0  0  0  0
   33.2485   17.4613   21.9963 N   0  0  0  0  0  0  0  0  0  0  0  0
   27.1620   14.9402   22.6235 O   0  0  0  0  0  0  0  0  0  0  0  0
  2  1  1  6  0  0  0
  2  3  1  0  0  0  0
  2  5  1  0  0  0  0
  3  4  1  0  0  0  0
  3 10  1  0  0  0  0
  5  6  1  0  0  0  0
  6  7  1  0  0  0  0
  7  8  1  0  0  0  0
  8  9  1  0  0  0  0
M  END
>  <CHROM.1>
6.64273968,-164.33309239,-168.75133395,-69.09332160,179.20385504,29.34066358
15.42826327,21.55855946,-2.90560283,0.31683835,1.51863013

>  <Name>
ligand

>  <RI>
0

>  <Rbt.Current_Directory>
/home/itssahil/PROJECTS/Mol_Feturizer/New_Systems/rnas/3DIG

>  <Rbt.Executable>
rbdock ($Id: //depot/dev/client3/rdock/2013.1/src/exe/rbdock.cxx#4 $)

>  <Rbt.Library>
libRbt.so (2013.1, Build901 2013/11/27)

>  <Rbt.Parameter_File>
/export/apps/rDock/src/rDock_2013.1_src/data/scripts/dock_solv.prm

>  <Rbt.Receptor>
prm/pocket_docking_8.prm

>  <SCORE>
-12.0625

>  <SCORE.INTER>
-11.7152

>  <SCORE.INTER.CONST>
1

>  <SCORE.INTER.POLAR>
0

>  <SCORE.INTER.ROT>
5

>  <SCORE.INTER.SOLV>
14.3189

>  <SCORE.INTER.VDW>
-19.5165

>  <SCORE.INTER.norm>
-1.17152

>  <SCORE.INTRA>
-0.347235

>  <SCORE.INTRA.DIHEDRAL>
0.0685449

>  <SCORE.INTRA.DIHEDRAL.0>
2.60093

>  <SCORE.INTRA.POLAR>
0

>  <SCORE.INTRA.POLAR.0>
0

>  <SCORE.INTRA.REPUL>
0

>  <SCORE.INTRA.REPUL.0>
0

>  <SCORE.INTRA.SOLV>
-1.30862

>  <SCORE.INTRA.SOLV.lig_0>
-33.7882

>  <SCORE.INTRA.VDW>
0.272803

>  <SCORE.INTRA.VDW.0>
-0.593976

>  <SCORE.INTRA.norm>
-0.0347235

>  <SCORE.RESTR>
0

>  <SCORE.RESTR.CAVITY>
0

>  <SCORE.RESTR.norm>
0

>  <SCORE.SYSTEM>
0

>  <SCORE.SYSTEM.CONST>
0

>  <SCORE.SYSTEM.DIHEDRAL>
0

>  <SCORE.SYSTEM.SOLV>
0

>  <SCORE.SYSTEM.norm>
0

>  <SCORE.heavy>
10

>  <SCORE.norm>
-1.20625

>  <RMSD>
5.529

$$$$
ligand
 OpenBabel11021811473D
libRbt.so/2013.1/901 2013/11/27
 10  9  0  0  0  0  0  0  0  0999 V2000
   26.2853   14.7320   21.0403 N   0  0  0  0  0  0  0  0  0  0  0  0
   27.2526   15.5443   20.2460 C   0  0  2  0  0  0  0  0  0  0  0  0
   27.7568   14.7961   19.0462 C   0  0  0  0  0  0  0  0  0  0  0  0
   27.3880   13.6480   18.8170 O   0  0  0  0  0  0  0  0  0  0  0  0
   28.3903   16.0222   21.1436 C   0  0  0  0  0  0  0  0  0  0  0  0
   29.1227   14.6047   21.9010 S   0  0  0  0  0  0  0  0  0  0  0  0
   30.6408   15.2860   22.4834 C   0  0  0  0  0  0  0  0  0  0  0  0
   31.5369   15.5861   21.2859 C   0  0  0  0  0  0  0  0  0  0  0  0
   32.7556   16.2298   21.7334 N   0  0  0  0  0  0  0  0  0  0  0  0
   28.5333   15.2881   18.2304 O   0  0  0  0  0  0  0  0  0  0  0  0
  2  1  1  1  0  0  0
  2  3  1  0  0  0  0
  2  5  1  0  0  0  0
  3  4  1  0  0  0  0
  3 10  1  0  0  0  0
  5  6  1  0  0  0  0
  6  7  1  0  0  0  0
  7  8  1  0  0  0  0
  8  9  1  0  0  0  0
M  END
>  <CHROM.1>
-0.89432259,55.82915575,164.32119199,-70.41037877,176.20904392,28.98506325
15.09413498,20.71120734,2.63103580,-0.23351619,-1.57309283

>  <Name>
ligand

>  <RI>
0

>  <Rbt.Current_Directory>
/home/itssahil/PROJECTS/Mol_Feturizer/New_Systems/rnas/3DIG

>  <Rbt.Executable>
rbdock ($Id: //depot/dev/client3/rdock/2013.1/src/exe/rbdock.cxx#4 $)

>  <Rbt.Library>
libRbt.so (2013.1, Build901 2013/11/27)

>  <Rbt.Parameter_File>
/export/apps/rDock/src/rDock_2013.1_src/data/scripts/dock_solv.prm

>  <Rbt.Receptor>
prm/pocket_docking_8.prm

>  <SCORE>
-11.6704

>  <SCORE.INTER>
-11.2143

>  <SCORE.INTER.CONST>
1

>  <SCORE.INTER.POLAR>
0

>  <SCORE.INTER.ROT>
5

>  <SCORE.INTER.SOLV>
17.9615

>  <SCORE.INTER.VDW>
-20.3967

>  <SCORE.INTER.norm>
-1.12143

>  <SCORE.INTRA>
-0.456099

>  <SCORE.INTRA.DIHEDRAL>
-0.429354

>  <SCORE.INTRA.DIHEDRAL.0>
2.60093

>  <SCORE.INTRA.POLAR>
0

>  <SCORE.INTRA.POLAR.0>
0

>  <SCORE.INTRA.REPUL>
0

>  <SCORE.INTRA.REPUL.0>
0

>  <SCORE.INTRA.SOLV>
-0.376041

>  <SCORE.INTRA.SOLV.lig_0>
-33.7882

>  <SCORE.INTRA.VDW>
-0.053402

>  <SCORE.INTRA.VDW.0>
-0.593976

>  <SCORE.INTRA.norm>
-0.0456099

>  <SCORE.RESTR>
0

>  <SCORE.RESTR.CAVITY>
0

>  <SCORE.RESTR.norm>
0

>  <SCORE.SYSTEM>
0

>  <SCORE.SYSTEM.CONST>
0

>  <SCORE.SYSTEM.DIHEDRAL>
0

>  <SCORE.SYSTEM.SOLV>
0

>  <SCORE.SYSTEM.norm>
0

>  <SCORE.heavy>
10

>  <SCORE.norm>
-1.16704

>  <RMSD>
5.530

$$$$
ligand
 OpenBabel11021811473D
libRbt.so/2013.1/901 2013/11/27
 10  9  0  0  0  0  0  0  0  0999 V2000
   26.3972   15.3206   20.4867 N   0  0  0  0  0  0  0  0  0  0  0  0
   27.8296   15.2269   20.0792 C   0  0  2  0  0  0  0  0  0  0  0  0
   27.9760   14.7869   18.6515 C   0  0  0  0  0  0  0  0  0  0  0  0
   27.4642   13.7436   18.2564 O   0  0  0  0  0  0  0  0  0  0  0  0
   28.5850   14.3143   21.0410 C   0  0  0  0  0  0  0  0  0  0  0  0
   28.6279   15.1002   22.6220 S   0  0  0  0  0  0  0  0  0  0  0  0
   29.8543   16.3361   22.3458 C   0  0  0  0  0  0  0  0  0  0  0  0
   31.2257   15.6690   22.3099 C   0  0  0  0  0  0  0  0  0  0  0  0
   32.2502   16.6647   22.0675 N   0  0  0  0  0  0  0  0  0  0  0  0
   28.5846   15.4438   17.8096 O   0  0  0  0  0  0  0  0  0  0  0  0
  2  1  1  1  0  0  0
  2  3  1  0  0  0  0
  2  5  1  0  0  0  0
  3  4  1  0  0  0  0
  3 10  1  0  0  0  0
  5  6  1  0  0  0  0
  6  7  1  0  0  0  0
  7  8  1  0  0  0  0
  8  9  1  0  0  0  0
M  END
>  <CHROM.1>
-55.54581265,-66.61720544,-75.60438805,-74.10012638,179.31580203,28.84776750
15.23192807,20.76411455,2.27872830,-0.33267079,-1.63501596

>  <Name>
ligand

>  <RI>
0

>  <Rbt.Current_Directory>
/home/itssahil/PROJECTS/Mol_Feturizer/New_Systems/rnas/3DIG

>  <Rbt.Executable>
rbdock ($Id: //depot/dev/client3/rdock/2013.1/src/exe/rbdock.cxx#4 $)

>  <Rbt.Library>
libRbt.so (2013.1, Build901 2013/11/27)

>  <Rbt.Parameter_File>
/export/apps/rDock/src/rDock_2013.1_src/data/scripts/dock_solv.prm

>  <Rbt.Receptor>
prm/pocket_docking_7.prm

>  <SCORE>
-11.4661

>  <SCORE.INTER>
-11.0621

>  <SCORE.INTER.CONST>
1

>  <SCORE.INTER.POLAR>
0

>  <SCORE.INTER.ROT>
5

>  <SCORE.INTER.SOLV>
16.4192

>  <SCORE.INTER.VDW>
-19.7811

>  <SCORE.INTER.norm>
-1.10621

>  <SCORE.INTRA>
-0.404029

>  <SCORE.INTRA.DIHEDRAL>
-0.256119

>  <SCORE.INTRA.DIHEDRAL.0>
2.60093

>  <SCORE.INTRA.POLAR>
0

>  <SCORE.INTRA.POLAR.0>
0

>  <SCORE.INTRA.REPUL>
0

>  <SCORE.INTRA.REPUL.0>
0

>  <SCORE.INTRA.SOLV>
-0.197588

>  <SCORE.INTRA.SOLV.lig_0>
-33.7882

>  <SCORE.INTRA.VDW>
-0.177176

>  <SCORE.INTRA.VDW.0>
-0.593976

>  <SCORE.INTRA.norm>
-0.0404029

>  <SCORE.RESTR>
0

>  <SCORE.RESTR.CAVITY>
0

>  <SCORE.RESTR.norm>
0

>  <SCORE.SYSTEM>
0

>  <SCORE.SYSTEM.CONST>
0

>  <SCORE.SYSTEM.DIHEDRAL>
0

>  <SCORE.SYSTEM.SOLV>
0

>  <SCORE.SYSTEM.norm>
0

>  <SCORE.heavy>
10

>  <SCORE.norm>
-1.14661

>  <RMSD>
5.531

$$$$
ligand
 OpenBabel11021811473D
libRbt.so/2013.1/901 2013/11/27
 10  9  0  0  0  0  0  0  0  0999 V2000
   26.2712   14.6791   21.0985 N   0  0  0  0  0  0  0  0  0  0  0  0
   27.2998   15.3181   20.2267 C   0  0  2  0  0  0  0  0  0  0  0  0
   27.8720   14.3472   19.2350 C   0  0  0  0  0  0  0  0  0  0  0  0
   29.0656   14.0612   19.2477 O   0  0  0  0  0  0  0  0  0  0  0  0
   28.3821   15.9639   21.0871 C   0  0  0  0  0  0  0  0  0  0  0  0
   29.0427   14.7243   22.1578 S   0  0  0  0  0  0  0  0  0  0  0  0
   30.5449   15.4925   22.6686 C   0  0  0  0  0  0  0  0  0  0  0  0
   31.5094   15.5212   21.4871 C   0  0  0  0  0  0  0  0  0  0  0  0
   32.7176   16.2309   21.8562 N   0  0  0  0  0  0  0  0  0  0  0  0
   27.1882   13.7784   18.3867 O   0  0  0  0  0  0  0  0  0  0  0  0
  2  1  1  1  0  0  0
  2  3  1  0  0  0  0
  2  5  1  0  0  0  0
  3  4  1  0  0  0  0
  3 10  1  0  0  0  0
  5  6  1  0  0  0  0
  6  7  1  0  0  0  0
  7  8  1  0  0  0  0
  8  9  1  0  0  0  0
M  END
>  <CHROM.1>
-117.96072135,55.78643678,163.17136203,-70.70710063,176.07640367,28.99874142
14.95843014,20.87960374,2.55286965,-0.13483974,-1.86295373

>  <Name>
ligand

>  <RI>
0

>  <Rbt.Current_Directory>
/home/itssahil/PROJECTS/Mol_Feturizer/New_Systems/rnas/3DIG

>  <Rbt.Executable>
rbdock ($Id: //depot/dev/client3/rdock/2013.1/src/exe/rbdock.cxx#4 $)

>  <Rbt.Library>
libRbt.so (2013.1, Build901 2013/11/27)

>  <Rbt.Parameter_File>
/export/apps/rDock/src/rDock_2013.1_src/data/scripts/dock_solv.prm

>  <Rbt.Receptor>
prm/pocket_docking_5.prm

>  <SCORE>
-10.93

>  <SCORE.INTER>
-11.1784

>  <SCORE.INTER.CONST>
1

>  <SCORE.INTER.POLAR>
0

>  <SCORE.INTER.ROT>
5

>  <SCORE.INTER.SOLV>
18.0686

>  <SCORE.INTER.VDW>
-20.4085

>  <SCORE.INTER.norm>
-1.11784

>  <SCORE.INTRA>
0.248468

>  <SCORE.INTRA.DIHEDRAL>
-0.367328

>  <SCORE.INTRA.DIHEDRAL.0>
2.60093

>  <SCORE.INTRA.POLAR>
0

>  <SCORE.INTRA.POLAR.0>
0

>  <SCORE.INTRA.REPUL>
0

>  <SCORE.INTRA.REPUL.0>
0

>  <SCORE.INTRA.SOLV>
-0.391202

>  <SCORE.INTRA.SOLV.lig_0>
-33.7882

>  <SCORE.INTRA.VDW>
0.627733

>  <SCORE.INTRA.VDW.0>
-0.593976

>  <SCORE.INTRA.norm>
0.0248468

>  <SCORE.RESTR>
0

>  <SCORE.RESTR.CAVITY>
0

>  <SCORE.RESTR.norm>
0

>  <SCORE.SYSTEM>
0

>  <SCORE.SYSTEM.CONST>
0

>  <SCORE.SYSTEM.DIHEDRAL>
0

>  <SCORE.SYSTEM.SOLV>
0

>  <SCORE.SYSTEM.norm>
0

>  <SCORE.heavy>
10

>  <SCORE.norm>
-1.093

>  <RMSD>
5.533

$$$$
ligand
 OpenBabel11021811473D
libRbt.so/2013.1/901 2013/11/27
 10  9  0  0  0  0  0  0  0  0999 V2000
   28.1136   14.3574   19.0174 N   0  0  0  0  0  0  0  0  0  0  0  0
   28.2424   14.4224   20.5026 C   0  0  2  0  0  0  0  0  0  0  0  0
   26.9755   14.8979   21.1524 C   0  0  0  0  0  0  0  0  0  0  0  0
   26.0537   15.3527   20.4815 O   0  0  0  0  0  0  0  0  0  0  0  0
   29.4413   15.2863   20.8830 C   0  0  0  0  0  0  0  0  0  0  0  0
   29.6965   15.1328   22.6239 S   0  0  0  0  0  0  0  0  0  0  0  0
   31.3281   15.7823   22.7793 C   0  0  0  0  0  0  0  0  0  0  0  0
   31.2923   17.2783   22.4833 C   0  0  0  0  0  0  0  0  0  0  0  0
   32.6313   17.8268   22.5619 N   0  0  0  0  0  0  0  0  0  0  0  0
   26.7844   14.8388   22.3651 O   0  0  0  0  0  0  0  0  0  0  0  0
  2  1  1  6  0  0  0
  2  3  1  0  0  0  0
  2  5  1  0  0  0  0
  3  4  1  0  0  0  0
  3 10  1  0  0  0  0
  5  6  1  0  0  0  0
  6  7  1  0  0  0  0
  7  8  1  0  0  0  0
  8  9  1  0  0  0  0
M  END
>  <CHROM.1>
-9.95554879,-171.54088868,164.38799677,68.50144439,-178.13401871,29.09428849
15.47817567,21.62313822,-2.71924072,0.35769061,1.43309050

>  <Name>
ligand

>  <RI>
0

>  <Rbt.Current_Directory>
/home/itssahil/PROJECTS/Mol_Feturizer/New_Systems/rnas/3DIG

>  <Rbt.Executable>
rbdock ($Id: //depot/dev/client3/rdock/2013.1/src/exe/rbdock.cxx#4 $)

>  <Rbt.Library>
libRbt.so (2013.1, Build901 2013/11/27)

>  <Rbt.Parameter_File>
/export/apps/rDock/src/rDock_2013.1_src/data/scripts/dock_solv.prm

>  <Rbt.Receptor>
prm/blind_docking_100.prm

>  <SCORE>
-12.2192

>  <SCORE.INTER>
-11.6478

>  <SCORE.INTER.CONST>
1

>  <SCORE.INTER.POLAR>
0

>  <SCORE.INTER.ROT>
5

>  <SCORE.INTER.SOLV>
14.3282

>  <SCORE.INTER.VDW>
-19.4746

>  <SCORE.INTER.norm>
-1.16478

>  <SCORE.INTRA>
-0.571391

>  <SCORE.INTRA.DIHEDRAL>
-0.302301

>  <SCORE.INTRA.DIHEDRAL.0>
2.60093

>  <SCORE.INTRA.POLAR>
0

>  <SCORE.INTRA.POLAR.0>
0

>  <SCORE.INTRA.REPUL>
0

>  <SCORE.INTRA.REPUL.0>
0

>  <SCORE.INTRA.SOLV>
-1.30396

>  <SCORE.INTRA.SOLV.lig_0>
-33.7882

>  <SCORE.INTRA.VDW>
0.231739

>  <SCORE.INTRA.VDW.0>
-0.593976

>  <SCORE.INTRA.norm>
-0.0571391

>  <SCORE.RESTR>
0

>  <SCORE.RESTR.CAVITY>
0

>  <SCORE.RESTR.norm>
0

>  <SCORE.SYSTEM>
0

>  <SCORE.SYSTEM.CONST>
0

>  <SCORE.SYSTEM.DIHEDRAL>
0

>  <SCORE.SYSTEM.SOLV>
0

>  <SCORE.SYSTEM.norm>
0

>  <SCORE.heavy>
10

>  <SCORE.norm>
-1.22192

>  <RMSD>
5.534

$$$$
ligand
 OpenBabel11021811473D
libRbt.so/2013.1/901 2013/11/27
 10  9  0  0  0  0  0  0  0  0999 V2000
   28.8898   14.4761   19.6176 N   0  0  0  0  0  0  0  0  0  0  0  0
   28.4627   15.1587   20.8738 C   0  0  2  0  0  0  0  0  0  0  0  0
   26.9865   15.0217   21.1093 C   0  0  0  0  0  0  0  0  0  0  0  0
   26.1757   15.3763   20.2588 O   0  0  0  0  0  0  0  0  0  0  0  0
   28.9065   16.6184   20.8490 C   0  0  0  0  0  0  0  0  0  0  0  0
   30.6720   16.6536   20.8147 S   0  0  0  0  0  0  0  0  0  0  0  0
   31.0456   16.2232   22.4829 C   0  0  0  0  0  0  0  0  0  0  0  0
   32.5431   16.4004   22.7132 C   0  0  0  0  0  0  0  0  0  0  0  0
   32.8963   17.8007   22.5934 N   0  0  0  0  0  0  0  0  0  0  0  0
   26.5165   14.5360   22.1359 O   0  0  0  0  0  0  0  0  0  0  0  0
  2  1  1  6  0  0  0
  2  3  1  0  0  0  0
  2  5  1  0  0  0  0
  3  4  1  0  0  0  0
  3 10  1  0  0  0  0
  5  6  1  0  0  0  0
  6  7  1  0  0  0  0
  7  8  1  0  0  0  0
  8  9  1  0  0  0  0
M  END
>  <CHROM.1>
-55.27085542,-63.48788635,-74.73462752,-171.71201322,65.31920598,29.42474271
15.91297755,21.28715030,-2.93029086,0.37766300,1.62589136

>  <Name>
ligand

>  <RI>
0

>  <Rbt.Current_Directory>
/home/itssahil/PROJECTS/Mol_Feturizer/New_Systems/rnas/3DIG

>  <Rbt.Executable>
rbdock ($Id: //depot/dev/client3/rdock/2013.1/src/exe/rbdock.cxx#4 $)

>  <Rbt.Library>
libRbt.so (2013.1, Build901 2013/11/27)

>  <Rbt.Parameter_File>
/export/apps/rDock/src/rDock_2013.1_src/data/scripts/dock_solv.prm

>  <Rbt.Receptor>
prm/pocket_docking_7.prm

>  <SCORE>
-9.93518

>  <SCORE.INTER>
-9.65108

>  <SCORE.INTER.CONST>
1

>  <SCORE.INTER.POLAR>
0

>  <SCORE.INTER.ROT>
5

>  <SCORE.INTER.SOLV>
12.4389

>  <SCORE.INTER.VDW>
-17.5137

>  <SCORE.INTER.norm>
-0.965108

>  <SCORE.INTRA>
-0.284103

>  <SCORE.INTRA.DIHEDRAL>
-0.496508

>  <SCORE.INTRA.DIHEDRAL.0>
2.60093

>  <SCORE.INTRA.POLAR>
0

>  <SCORE.INTRA.POLAR.0>
0

>  <SCORE.INTRA.REPUL>
0

>  <SCORE.INTRA.REPUL.0>
0

>  <SCORE.INTRA.SOLV>
0.613184

>  <SCORE.INTRA.SOLV.lig_0>
-33.7882

>  <SCORE.INTRA.VDW>
-0.342441

>  <SCORE.INTRA.VDW.0>
-0.593976

>  <SCORE.INTRA.norm>
-0.0284103

>  <SCORE.RESTR>
0

>  <SCORE.RESTR.CAVITY>
0

>  <SCORE.RESTR.norm>
0

>  <SCORE.SYSTEM>
0

>  <SCORE.SYSTEM.CONST>
0

>  <SCORE.SYSTEM.DIHEDRAL>
0

>  <SCORE.SYSTEM.SOLV>
0

>  <SCORE.SYSTEM.norm>
0

>  <SCORE.heavy>
10

>  <SCORE.norm>
-0.993518

>  <RMSD>
5.534

$$$$
ligand
 OpenBabel11021811473D
libRbt.so/2013.1/901 2013/11/27
 10  9  0  0  0  0  0  0  0  0999 V2000
   26.3710   15.4780   20.4067 N   0  0  0  0  0  0  0  0  0  0  0  0
   27.7971   15.2863   20.0116 C   0  0  2  0  0  0  0  0  0  0  0  0
   27.9241   14.8092   18.5940 C   0  0  0  0  0  0  0  0  0  0  0  0
   28.5943   15.4318   17.7756 O   0  0  0  0  0  0  0  0  0  0  0  0
   28.4878   14.3478   20.9967 C   0  0  0  0  0  0  0  0  0  0  0  0
   28.5649   15.1588   22.5637 S   0  0  0  0  0  0  0  0  0  0  0  0
   29.8934   16.2848   22.2903 C   0  0  0  0  0  0  0  0  0  0  0  0
   31.1923   15.4938   22.1717 C   0  0  0  0  0  0  0  0  0  0  0  0
   32.2990   16.3990   21.9356 N   0  0  0  0  0  0  0  0  0  0  0  0
   27.3941   13.7776   18.1867 O   0  0  0  0  0  0  0  0  0  0  0  0
  2  1  1  1  0  0  0
  2  3  1  0  0  0  0
  2  5  1  0  0  0  0
  3  4  1  0  0  0  0
  3 10  1  0  0  0  0
  5  6  1  0  0  0  0
  6  7  1  0  0  0  0
  7  8  1  0  0  0  0
  8  9  1  0  0  0  0
M  END
>  <CHROM.1>
123.72073612,-66.39733173,-76.97754502,-69.15592734,179.54797766,28.81633496
15.22596340,20.69247335,2.27456774,-0.25092551,-1.66140875

>  <Name>
ligand

>  <RI>
0

>  <Rbt.Current_Directory>
/home/itssahil/PROJECTS/Mol_Feturizer/New_Systems/rnas/3DIG

>  <Rbt.Executable>
rbdock ($Id: //depot/dev/client3/rdock/2013.1/src/exe/rbdock.cxx#4 $)

>  <Rbt.Library>
libRbt.so (2013.1, Build901 2013/11/27)

>  <Rbt.Parameter_File>
/export/apps/rDock/src/rDock_2013.1_src/data/scripts/dock_solv.prm

>  <Rbt.Receptor>
prm/blind_docking_100.prm

>  <SCORE>
-11.5888

>  <SCORE.INTER>
-11.1741

>  <SCORE.INTER.CONST>
1

>  <SCORE.INTER.POLAR>
0

>  <SCORE.INTER.ROT>
5

>  <SCORE.INTER.SOLV>
16.8693

>  <SCORE.INTER.VDW>
-20.0058

>  <SCORE.INTER.norm>
-1.11741

>  <SCORE.INTRA>
-0.414724

>  <SCORE.INTRA.DIHEDRAL>
-0.392448

>  <SCORE.INTRA.DIHEDRAL.0>
2.60093

>  <SCORE.INTRA.POLAR>
0

>  <SCORE.INTRA.POLAR.0>
0

>  <SCORE.INTRA.REPUL>
0

>  <SCORE.INTRA.REPUL.0>
0

>  <SCORE.INTRA.SOLV>
-0.190518

>  <SCORE.INTRA.SOLV.lig_0>
-33.7882

>  <SCORE.INTRA.VDW>
-0.123241

>  <SCORE.INTRA.VDW.0>
-0.593976

>  <SCORE.INTRA.norm>
-0.0414724

>  <SCORE.RESTR>
0

>  <SCORE.RESTR.CAVITY>
0

>  <SCORE.RESTR.norm>
0

>  <SCORE.SYSTEM>
0

>  <SCORE.SYSTEM.CONST>
0

>  <SCORE.SYSTEM.DIHEDRAL>
0

>  <SCORE.SYSTEM.SOLV>
0

>  <SCORE.SYSTEM.norm>
0

>  <SCORE.heavy>
10

>  <SCORE.norm>
-1.15888

>  <RMSD>
5.535

$$$$
ligand
 OpenBabel11021811473D
libRbt.so/2013.1/901 2013/11/27
 10  9  0  0  0  0  0  0  0  0999 V2000
   27.8526   14.6256   19.0980 N   0  0  0  0  0  0  0  0  0  0  0  0
   28.2236   14.5338   20.5404 C   0  0  2  0  0  0  0  0  0  0  0  0
   27.0571   14.8323   21.4368 C   0  0  0  0  0  0  0  0  0  0  0  0
   25.9218   14.9376   20.9821 O   0  0  0  0  0  0  0  0  0  0  0  0
   29.4158   15.4413   20.8292 C   0  0  0  0  0  0  0  0  0  0  0  0
   30.0944   14.9736   22.3913 S   0  0  0  0  0  0  0  0  0  0  0  0
   31.2013   16.3133   22.6875 C   0  0  0  0  0  0  0  0  0  0  0  0
   32.3230   16.2622   21.6549 C   0  0  0  0  0  0  0  0  0  0  0  0
   33.2407   17.3625   21.8716 N   0  0  0  0  0  0  0  0  0  0  0  0
   27.1668   14.9629   22.6540 O   0  0  0  0  0  0  0  0  0  0  0  0
  2  1  1  6  0  0  0
  2  3  1  0  0  0  0
  2  5  1  0  0  0  0
  3  4  1  0  0  0  0
  3 10  1  0  0  0  0
  5  6  1  0  0  0  0
  6  7  1  0  0  0  0
  7  8  1  0  0  0  0
  8  9  1  0  0  0  0
M  END
>  <CHROM.1>
9.69035985,-164.45323986,-168.80536944,-66.66752294,179.51160775,29.31227002
15.37464070,21.54071266,-2.93289807,0.30633849,1.52845316

>  <Name>
ligand

>  <RI>
0

>  <Rbt.Current_Directory>
/home/itssahil/PROJECTS/Mol_Feturizer/New_Systems/rnas/3DIG

>  <Rbt.Executable>
rbdock ($Id: //depot/dev/client3/rdock/2013.1/src/exe/rbdock.cxx#4 $)

>  <Rbt.Library>
libRbt.so (2013.1, Build901 2013/11/27)

>  <Rbt.Parameter_File>
/export/apps/rDock/src/rDock_2013.1_src/data/scripts/dock_solv.prm

>  <Rbt.Receptor>
prm/pocket_docking_3.prm

>  <SCORE>
-12.0586

>  <SCORE.INTER>
-11.8086

>  <SCORE.INTER.CONST>
1

>  <SCORE.INTER.POLAR>
0

>  <SCORE.INTER.ROT>
5

>  <SCORE.INTER.SOLV>
14.5473

>  <SCORE.INTER.VDW>
-19.6548

>  <SCORE.INTER.norm>
-1.18086

>  <SCORE.INTRA>
-0.250048

>  <SCORE.INTRA.DIHEDRAL>
-0.0147968

>  <SCORE.INTRA.DIHEDRAL.0>
2.60093

>  <SCORE.INTRA.POLAR>
0

>  <SCORE.INTRA.POLAR.0>
0

>  <SCORE.INTRA.REPUL>
0

>  <SCORE.INTRA.REPUL.0>
0

>  <SCORE.INTRA.SOLV>
-1.29256

>  <SCORE.INTRA.SOLV.lig_0>
-33.7882

>  <SCORE.INTRA.VDW>
0.403632

>  <SCORE.INTRA.VDW.0>
-0.593976

>  <SCORE.INTRA.norm>
-0.0250048

>  <SCORE.RESTR>
0

>  <SCORE.RESTR.CAVITY>
0

>  <SCORE.RESTR.norm>
0

>  <SCORE.SYSTEM>
0

>  <SCORE.SYSTEM.CONST>
0

>  <SCORE.SYSTEM.DIHEDRAL>
0

>  <SCORE.SYSTEM.SOLV>
0

>  <SCORE.SYSTEM.norm>
0

>  <SCORE.heavy>
10

>  <SCORE.norm>
-1.20586

>  <RMSD>
5.535

$$$$
ligand
 OpenBabel11021811473D
libRbt.so/2013.1/901 2013/11/27
 10  9  0  0  0  0  0  0  0  0999 V2000
   27.9971   14.5182   19.1326 N   0  0  0  0  0  0  0  0  0  0  0  0
   28.2949   14.5214   20.5947 C   0  0  2  0  0  0  0  0  0  0  0  0
   27.0720   14.8196   21.4127 C   0  0  0  0  0  0  0  0  0  0  0  0
   27.1385   14.9211   22.6341 O   0  0  0  0  0  0  0  0  0  0  0  0
   29.4339   15.4927   20.8910 C   0  0  0  0  0  0  0  0  0  0  0  0
   30.0855   15.1025   22.4855 S   0  0  0  0  0  0  0  0  0  0  0  0
   31.1872   16.4560   22.7347 C   0  0  0  0  0  0  0  0  0  0  0  0
   32.3677   16.3119   21.7793 C   0  0  0  0  0  0  0  0  0  0  0  0
   33.2711   17.4331   21.9421 N   0  0  0  0  0  0  0  0  0  0  0  0
   25.9626   14.9976   20.9144 O   0  0  0  0  0  0  0  0  0  0  0  0
  2  1  1  6  0  0  0
  2  3  1  0  0  0  0
  2  5  1  0  0  0  0
  3  4  1  0  0  0  0
  3 10  1  0  0  0  0
  5  6  1  0  0  0  0
  6  7  1  0  0  0  0
  7  8  1  0  0  0  0
  8  9  1  0  0  0  0
M  END
>  <CHROM.1>
-176.80915702,-162.43376297,-171.81246975,-69.87114438,178.54411486,29.33839201
15.41874004,21.58331283,-2.90177755,0.31347420,1.48029152

>  <Name>
ligand

>  <RI>
0

>  <Rbt.Current_Directory>
/home/itssahil/PROJECTS/Mol_Feturizer/New_Systems/rnas/3DIG

>  <Rbt.Executable>
rbdock ($Id: //depot/dev/client3/rdock/2013.1/src/exe/rbdock.cxx#4 $)

>  <Rbt.Library>
libRbt.so (2013.1, Build901 2013/11/27)

>  <Rbt.Parameter_File>
/export/apps/rDock/src/rDock_2013.1_src/data/scripts/dock_solv.prm

>  <Rbt.Receptor>
prm/blind_docking_60.prm

>  <SCORE>
-12.0004

>  <SCORE.INTER>
-11.6715

>  <SCORE.INTER.CONST>
1

>  <SCORE.INTER.POLAR>
0

>  <SCORE.INTER.ROT>
5

>  <SCORE.INTER.SOLV>
14.3454

>  <SCORE.INTER.VDW>
-19.4961

>  <SCORE.INTER.norm>
-1.16715

>  <SCORE.INTRA>
-0.328893

>  <SCORE.INTRA.DIHEDRAL>
0.219211

>  <SCORE.INTRA.DIHEDRAL.0>
2.60093

>  <SCORE.INTRA.POLAR>
0

>  <SCORE.INTRA.POLAR.0>
0

>  <SCORE.INTRA.REPUL>
0

>  <SCORE.INTRA.REPUL.0>
0

>  <SCORE.INTRA.SOLV>
-1.3189

>  <SCORE.INTRA.SOLV.lig_0>
-33.7882

>  <SCORE.INTRA.VDW>
0.220953

>  <SCORE.INTRA.VDW.0>
-0.593976

>  <SCORE.INTRA.norm>
-0.0328893

>  <SCORE.RESTR>
0

>  <SCORE.RESTR.CAVITY>
0

>  <SCORE.RESTR.norm>
0

>  <SCORE.SYSTEM>
0

>  <SCORE.SYSTEM.CONST>
0

>  <SCORE.SYSTEM.DIHEDRAL>
0

>  <SCORE.SYSTEM.SOLV>
0

>  <SCORE.SYSTEM.norm>
0

>  <SCORE.heavy>
10

>  <SCORE.norm>
-1.20004

>  <RMSD>
5.536

$$$$
ligand
 OpenBabel11021811473D
libRbt.so/2013.1/901 2013/11/27
 10  9  0  0  0  0  0  0  0  0999 V2000
   27.9151   14.6042   19.0961 N   0  0  0  0  0  0  0  0  0  0  0  0
   28.2517   14.5309   20.5480 C   0  0  2  0  0  0  0  0  0  0  0  0
   27.0571   14.8111   21.4127 C   0  0  0  0  0  0  0  0  0  0  0  0
   27.1709   14.9244   22.6296 O   0  0  0  0  0  0  0  0  0  0  0  0
   29.4169   15.4657   20.8592 C   0  0  0  0  0  0  0  0  0  0  0  0
   30.0898   14.9998   22.4243 S   0  0  0  0  0  0  0  0  0  0  0  0
   31.1858   16.3465   22.7292 C   0  0  0  0  0  0  0  0  0  0  0  0
   32.3299   16.2875   21.7218 C   0  0  0  0  0  0  0  0  0  0  0  0
   33.2276   17.4055   21.9319 N   0  0  0  0  0  0  0  0  0  0  0  0
   25.9250   14.9624   20.9587 O   0  0  0  0  0  0  0  0  0  0  0  0
  2  1  1  6  0  0  0
  2  3  1  0  0  0  0
  2  5  1  0  0  0  0
  3  4  1  0  0  0  0
  3 10  1  0  0  0  0
  5  6  1  0  0  0  0
  6  7  1  0  0  0  0
  7  8  1  0  0  0  0
  8  9  1  0  0  0  0
M  END
>  <CHROM.1>
-172.78934785,-163.15465105,-170.02138921,-67.87790756,178.59093007,29.31805379
15.38595308,21.55872299,-2.91877825,0.31315911,1.52391616

>  <Name>
ligand

>  <RI>
0

>  <Rbt.Current_Directory>
/home/itssahil/PROJECTS/Mol_Feturizer/New_Systems/rnas/3DIG

>  <Rbt.Executable>
rbdock ($Id: //depot/dev/client3/rdock/2013.1/src/exe/rbdock.cxx#4 $)

>  <Rbt.Library>
libRbt.so (2013.1, Build901 2013/11/27)

>  <Rbt.Parameter_File>
/export/apps/rDock/src/rDock_2013.1_src/data/scripts/dock_solv.prm

>  <Rbt.Receptor>
prm/pocket_docking_4.prm

>  <SCORE>
-12.0144

>  <SCORE.INTER>
-11.8204

>  <SCORE.INTER.CONST>
1

>  <SCORE.INTER.POLAR>
0

>  <SCORE.INTER.ROT>
5

>  <SCORE.INTER.SOLV>
14.4133

>  <SCORE.INTER.VDW>
-19.618

>  <SCORE.INTER.norm>
-1.18204

>  <SCORE.INTRA>
-0.194036

>  <SCORE.INTRA.DIHEDRAL>
0.146642

>  <SCORE.INTRA.DIHEDRAL.0>
2.60093

>  <SCORE.INTRA.POLAR>
0

>  <SCORE.INTRA.POLAR.0>
0

>  <SCORE.INTRA.REPUL>
0

>  <SCORE.INTRA.REPUL.0>
0

>  <SCORE.INTRA.SOLV>
-1.30431

>  <SCORE.INTRA.SOLV.lig_0>
-33.7882

>  <SCORE.INTRA.VDW>
0.384798

>  <SCORE.INTRA.VDW.0>
-0.593976

>  <SCORE.INTRA.norm>
-0.0194036

>  <SCORE.RESTR>
0

>  <SCORE.RESTR.CAVITY>
0

>  <SCORE.RESTR.norm>
0

>  <SCORE.SYSTEM>
0

>  <SCORE.SYSTEM.CONST>
0

>  <SCORE.SYSTEM.DIHEDRAL>
0

>  <SCORE.SYSTEM.SOLV>
0

>  <SCORE.SYSTEM.norm>
0

>  <SCORE.heavy>
10

>  <SCORE.norm>
-1.20144

>  <RMSD>
5.536

$$$$
ligand
 OpenBabel11021811473D
libRbt.so/2013.1/901 2013/11/27
 10  9  0  0  0  0  0  0  0  0999 V2000
   27.8942   14.5968   19.0995 N   0  0  0  0  0  0  0  0  0  0  0  0
   28.2451   14.5203   20.5478 C   0  0  2  0  0  0  0  0  0  0  0  0
   27.0609   14.8064   21.4248 C   0  0  0  0  0  0  0  0  0  0  0  0
   27.1913   14.9409   22.6379 O   0  0  0  0  0  0  0  0  0  0  0  0
   29.4187   15.4483   20.8480 C   0  0  0  0  0  0  0  0  0  0  0  0
   30.1096   14.9724   22.4021 S   0  0  0  0  0  0  0  0  0  0  0  0
   31.1963   16.3256   22.7113 C   0  0  0  0  0  0  0  0  0  0  0  0
   32.3394   16.2791   21.7023 C   0  0  0  0  0  0  0  0  0  0  0  0
   33.2262   17.4058   21.9122 N   0  0  0  0  0  0  0  0  0  0  0  0
   25.9214   14.9419   20.9847 O   0  0  0  0  0  0  0  0  0  0  0  0
  2  1  1  6  0  0  0
  2  3  1  0  0  0  0
  2  5  1  0  0  0  0
  3  4  1  0  0  0  0
  3 10  1  0  0  0  0
  5  6  1  0  0  0  0
  6  7  1  0  0  0  0
  7  8  1  0  0  0  0
  8  9  1  0  0  0  0
M  END
>  <CHROM.1>
-171.51735849,-162.88864479,-169.13793601,-68.44749118,178.34601981,29.32345090
15.37405991,21.55286323,-2.92373504,0.31211437,1.52299851

>  <Name>
ligand

>  <RI>
0

>  <Rbt.Current_Directory>
/home/itssahil/PROJECTS/Mol_Feturizer/New_Systems/rnas/3DIG

>  <Rbt.Executable>
rbdock ($Id: //depot/dev/client3/rdock/2013.1/src/exe/rbdock.cxx#4 $)

>  <Rbt.Library>
libRbt.so (2013.1, Build901 2013/11/27)

>  <Rbt.Parameter_File>
/export/apps/rDock/src/rDock_2013.1_src/data/scripts/dock_solv.prm

>  <Rbt.Receptor>
prm/pocket_docking_5.prm

>  <SCORE>
-12.0084

>  <SCORE.INTER>
-11.844

>  <SCORE.INTER.CONST>
1

>  <SCORE.INTER.POLAR>
0

>  <SCORE.INTER.ROT>
5

>  <SCORE.INTER.SOLV>
14.4877

>  <SCORE.INTER.VDW>
-19.6586

>  <SCORE.INTER.norm>
-1.1844

>  <SCORE.INTRA>
-0.164414

>  <SCORE.INTRA.DIHEDRAL>
0.22418

>  <SCORE.INTRA.DIHEDRAL.0>
2.60093

>  <SCORE.INTRA.POLAR>
0

>  <SCORE.INTRA.POLAR.0>
0

>  <SCORE.INTRA.REPUL>
0

>  <SCORE.INTRA.REPUL.0>
0

>  <SCORE.INTRA.SOLV>
-1.30667

>  <SCORE.INTRA.SOLV.lig_0>
-33.7882

>  <SCORE.INTRA.VDW>
0.376829

>  <SCORE.INTRA.VDW.0>
-0.593976

>  <SCORE.INTRA.norm>
-0.0164414

>  <SCORE.RESTR>
0

>  <SCORE.RESTR.CAVITY>
0

>  <SCORE.RESTR.norm>
0

>  <SCORE.SYSTEM>
0

>  <SCORE.SYSTEM.CONST>
0

>  <SCORE.SYSTEM.DIHEDRAL>
0

>  <SCORE.SYSTEM.SOLV>
0

>  <SCORE.SYSTEM.norm>
0

>  <SCORE.heavy>
10

>  <SCORE.norm>
-1.20084

>  <RMSD>
5.536

$$$$
ligand
 OpenBabel11021811473D
libRbt.so/2013.1/901 2013/11/27
 10  9  0  0  0  0  0  0  0  0999 V2000
   27.8726   14.6494   19.0948 N   0  0  0  0  0  0  0  0  0  0  0  0
   28.2235   14.5472   20.5415 C   0  0  2  0  0  0  0  0  0  0  0  0
   27.0430   14.8330   21.4236 C   0  0  0  0  0  0  0  0  0  0  0  0
   25.9127   14.9286   20.9548 O   0  0  0  0  0  0  0  0  0  0  0  0
   29.4074   15.4575   20.8548 C   0  0  0  0  0  0  0  0  0  0  0  0
   30.0626   14.9830   22.4248 S   0  0  0  0  0  0  0  0  0  0  0  0
   31.1830   16.3089   22.7320 C   0  0  0  0  0  0  0  0  0  0  0  0
   32.3104   16.2481   21.7062 C   0  0  0  0  0  0  0  0  0  0  0  0
   33.2238   17.3537   21.9139 N   0  0  0  0  0  0  0  0  0  0  0  0
   27.1361   14.9624   22.6424 O   0  0  0  0  0  0  0  0  0  0  0  0
  2  1  1  6  0  0  0
  2  3  1  0  0  0  0
  2  5  1  0  0  0  0
  3  4  1  0  0  0  0
  3 10  1  0  0  0  0
  5  6  1  0  0  0  0
  6  7  1  0  0  0  0
  7  8  1  0  0  0  0
  8  9  1  0  0  0  0
M  END
>  <CHROM.1>
10.16616407,-164.62540242,-169.86830744,-66.29795920,178.28937361,29.29761962
15.37786493,21.55678279,-2.92442926,0.30575603,1.53367429

>  <Name>
ligand

>  <RI>
0

>  <Rbt.Current_Directory>
/home/itssahil/PROJECTS/Mol_Feturizer/New_Systems/rnas/3DIG

>  <Rbt.Executable>
rbdock ($Id: //depot/dev/client3/rdock/2013.1/src/exe/rbdock.cxx#4 $)

>  <Rbt.Library>
libRbt.so (2013.1, Build901 2013/11/27)

>  <Rbt.Parameter_File>
/export/apps/rDock/src/rDock_2013.1_src/data/scripts/dock_solv.prm

>  <Rbt.Receptor>
prm/pocket_docking_4.prm

>  <SCORE>
-12.0565

>  <SCORE.INTER>
-11.8153

>  <SCORE.INTER.CONST>
1

>  <SCORE.INTER.POLAR>
0

>  <SCORE.INTER.ROT>
5

>  <SCORE.INTER.SOLV>
14.4317

>  <SCORE.INTER.VDW>
-19.6207

>  <SCORE.INTER.norm>
-1.18153

>  <SCORE.INTRA>
-0.241225

>  <SCORE.INTRA.DIHEDRAL>
-0.0658036

>  <SCORE.INTRA.DIHEDRAL.0>
2.60093

>  <SCORE.INTRA.POLAR>
0

>  <SCORE.INTRA.POLAR.0>
0

>  <SCORE.INTRA.REPUL>
0

>  <SCORE.INTRA.REPUL.0>
0

>  <SCORE.INTRA.SOLV>
-1.28114

>  <SCORE.INTRA.SOLV.lig_0>
-33.7882

>  <SCORE.INTRA.VDW>
0.432249

>  <SCORE.INTRA.VDW.0>
-0.593976

>  <SCORE.INTRA.norm>
-0.0241225

>  <SCORE.RESTR>
0

>  <SCORE.RESTR.CAVITY>
0

>  <SCORE.RESTR.norm>
0

>  <SCORE.SYSTEM>
0

>  <SCORE.SYSTEM.CONST>
0

>  <SCORE.SYSTEM.DIHEDRAL>
0

>  <SCORE.SYSTEM.SOLV>
0

>  <SCORE.SYSTEM.norm>
0

>  <SCORE.heavy>
10

>  <SCORE.norm>
-1.20565

>  <RMSD>
5.538

$$$$
ligand
 OpenBabel11021811473D
libRbt.so/2013.1/901 2013/11/27
 10  9  0  0  0  0  0  0  0  0999 V2000
   26.5816   14.7564   20.6933 N   0  0  0  0  0  0  0  0  0  0  0  0
   27.7925   15.2278   19.9599 C   0  0  2  0  0  0  0  0  0  0  0  0
   27.8305   14.7073   18.5524 C   0  0  0  0  0  0  0  0  0  0  0  0
   28.4141   15.3244   17.6663 O   0  0  0  0  0  0  0  0  0  0  0  0
   29.0500   14.8593   20.7418 C   0  0  0  0  0  0  0  0  0  0  0  0
   29.0329   15.7583   22.2619 S   0  0  0  0  0  0  0  0  0  0  0  0
   30.6673   15.4522   22.8475 C   0  0  0  0  0  0  0  0  0  0  0  0
   31.5562   16.6312   22.4643 C   0  0  0  0  0  0  0  0  0  0  0  0
   31.6630   16.7173   21.0217 N   0  0  0  0  0  0  0  0  0  0  0  0
   27.3098   13.6449   18.2192 O   0  0  0  0  0  0  0  0  0  0  0  0
  2  1  1  1  0  0  0
  2  3  1  0  0  0  0
  2  5  1  0  0  0  0
  3  4  1  0  0  0  0
  3 10  1  0  0  0  0
  5  6  1  0  0  0  0
  6  7  1  0  0  0  0
  7  8  1  0  0  0  0
  8  9  1  0  0  0  0
M  END
>  <CHROM.1>
152.83792209,-65.14505506,-169.38925429,96.83878526,-64.59893711,28.98895064
15.34651846,20.61381956,2.31380295,-0.39895525,-1.64763648

>  <Name>
ligand

>  <RI>
0

>  <Rbt.Current_Directory>
/home/itssahil/PROJECTS/Mol_Feturizer/New_Systems/rnas/3DIG

>  <Rbt.Executable>
rbdock ($Id: //depot/dev/client3/rdock/2013.1/src/exe/rbdock.cxx#4 $)

>  <Rbt.Library>
libRbt.so (2013.1, Build901 2013/11/27)

>  <Rbt.Parameter_File>
/export/apps/rDock/src/rDock_2013.1_src/data/scripts/dock_solv.prm

>  <Rbt.Receptor>
prm/pocket_docking_4.prm

>  <SCORE>
-10.0881

>  <SCORE.INTER>
-10.687

>  <SCORE.INTER.CONST>
1

>  <SCORE.INTER.POLAR>
0

>  <SCORE.INTER.ROT>
5

>  <SCORE.INTER.SOLV>
15.8097

>  <SCORE.INTER.VDW>
-19.3279

>  <SCORE.INTER.norm>
-1.0687

>  <SCORE.INTRA>
0.598927

>  <SCORE.INTRA.DIHEDRAL>
0.819756

>  <SCORE.INTRA.DIHEDRAL.0>
2.60093

>  <SCORE.INTRA.POLAR>
0

>  <SCORE.INTRA.POLAR.0>
0

>  <SCORE.INTRA.REPUL>
0

>  <SCORE.INTRA.REPUL.0>
0

>  <SCORE.INTRA.SOLV>
1.29668

>  <SCORE.INTRA.SOLV.lig_0>
-33.7882

>  <SCORE.INTRA.VDW>
-0.459289

>  <SCORE.INTRA.VDW.0>
-0.593976

>  <SCORE.INTRA.norm>
0.0598927

>  <SCORE.RESTR>
0

>  <SCORE.RESTR.CAVITY>
0

>  <SCORE.RESTR.norm>
0

>  <SCORE.SYSTEM>
0

>  <SCORE.SYSTEM.CONST>
0

>  <SCORE.SYSTEM.DIHEDRAL>
0

>  <SCORE.SYSTEM.SOLV>
0

>  <SCORE.SYSTEM.norm>
0

>  <SCORE.heavy>
10

>  <SCORE.norm>
-1.00881

>  <RMSD>
5.539

$$$$
ligand
 OpenBabel11021811473D
libRbt.so/2013.1/901 2013/11/27
 10  9  0  0  0  0  0  0  0  0999 V2000
   29.0669   15.2886   19.9326 N   0  0  0  0  0  0  0  0  0  0  0  0
   28.4052   14.7626   21.1623 C   0  0  2  0  0  0  0  0  0  0  0  0
   26.9119   14.9002   21.0949 C   0  0  0  0  0  0  0  0  0  0  0  0
   26.1972   14.4769   21.9986 O   0  0  0  0  0  0  0  0  0  0  0  0
   28.9886   15.4423   22.3977 C   0  0  0  0  0  0  0  0  0  0  0  0
   30.7298   15.1469   22.4145 S   0  0  0  0  0  0  0  0  0  0  0  0
   31.3449   16.7933   22.5524 C   0  0  0  0  0  0  0  0  0  0  0  0
   32.8634   16.7648   22.4094 C   0  0  0  0  0  0  0  0  0  0  0  0
   33.2231   16.3253   21.0763 N   0  0  0  0  0  0  0  0  0  0  0  0
   26.3339   15.4530   20.1616 O   0  0  0  0  0  0  0  0  0  0  0  0
  2  1  1  6  0  0  0
  2  3  1  0  0  0  0
  2  5  1  0  0  0  0
  3  4  1  0  0  0  0
  3 10  1  0  0  0  0
  5  6  1  0  0  0  0
  6  7  1  0  0  0  0
  7  8  1  0  0  0  0
  8  9  1  0  0  0  0
M  END
>  <CHROM.1>
177.38974278,-57.82017097,126.41393947,-173.06498260,64.88689294,29.51601439
15.49009572,21.61834188,-3.00717352,0.26452681,1.73617294

>  <Name>
ligand

>  <RI>
0

>  <Rbt.Current_Directory>
/home/itssahil/PROJECTS/Mol_Feturizer/New_Systems/rnas/3DIG

>  <Rbt.Executable>
rbdock ($Id: //depot/dev/client3/rdock/2013.1/src/exe/rbdock.cxx#4 $)

>  <Rbt.Library>
libRbt.so (2013.1, Build901 2013/11/27)

>  <Rbt.Parameter_File>
/export/apps/rDock/src/rDock_2013.1_src/data/scripts/dock_solv.prm

>  <Rbt.Receptor>
prm/blind_docking_60.prm

>  <SCORE>
-11.437

>  <SCORE.INTER>
-12.301

>  <SCORE.INTER.CONST>
1

>  <SCORE.INTER.POLAR>
0

>  <SCORE.INTER.ROT>
5

>  <SCORE.INTER.SOLV>
12.4158

>  <SCORE.INTER.VDW>
-19.2726

>  <SCORE.INTER.norm>
-1.2301

>  <SCORE.INTRA>
0.863994

>  <SCORE.INTRA.DIHEDRAL>
1.41258

>  <SCORE.INTRA.DIHEDRAL.0>
2.60093

>  <SCORE.INTRA.POLAR>
0

>  <SCORE.INTRA.POLAR.0>
0

>  <SCORE.INTRA.REPUL>
0

>  <SCORE.INTRA.REPUL.0>
0

>  <SCORE.INTRA.SOLV>
0.792613

>  <SCORE.INTRA.SOLV.lig_0>
-33.7882

>  <SCORE.INTRA.VDW>
-0.238604

>  <SCORE.INTRA.VDW.0>
-0.593976

>  <SCORE.INTRA.norm>
0.0863994

>  <SCORE.RESTR>
0

>  <SCORE.RESTR.CAVITY>
0

>  <SCORE.RESTR.norm>
0

>  <SCORE.SYSTEM>
0

>  <SCORE.SYSTEM.CONST>
0

>  <SCORE.SYSTEM.DIHEDRAL>
0

>  <SCORE.SYSTEM.SOLV>
0

>  <SCORE.SYSTEM.norm>
0

>  <SCORE.heavy>
10

>  <SCORE.norm>
-1.1437

>  <RMSD>
5.540

$$$$
ligand
 OpenBabel11021811473D
libRbt.so/2013.1/901 2013/11/27
 10  9  0  0  0  0  0  0  0  0999 V2000
   27.2929   16.3318   20.2294 N   0  0  0  0  0  0  0  0  0  0  0  0
   28.3867   15.4081   19.8090 C   0  0  2  0  0  0  0  0  0  0  0  0
   28.1433   14.8412   18.4405 C   0  0  0  0  0  0  0  0  0  0  0  0
   28.6452   15.3554   17.4454 O   0  0  0  0  0  0  0  0  0  0  0  0
   28.5758   14.3153   20.8572 C   0  0  0  0  0  0  0  0  0  0  0  0
   29.3816   15.0317   22.2561 S   0  0  0  0  0  0  0  0  0  0  0  0
   30.9854   15.3416   21.5933 C   0  0  0  0  0  0  0  0  0  0  0  0
   31.7786   16.1760   22.5941 C   0  0  0  0  0  0  0  0  0  0  0  0
   33.0711   16.5168   22.0345 N   0  0  0  0  0  0  0  0  0  0  0  0
   27.4607   13.8379   18.2452 O   0  0  0  0  0  0  0  0  0  0  0  0
  2  1  1  1  0  0  0
  2  3  1  0  0  0  0
  2  5  1  0  0  0  0
  3  4  1  0  0  0  0
  3 10  1  0  0  0  0
  5  6  1  0  0  0  0
  6  7  1  0  0  0  0
  7  8  1  0  0  0  0
  8  9  1  0  0  0  0
M  END
>  <CHROM.1>
95.58534994,-74.05802591,-69.30930386,170.91370211,-176.33651825,29.36210047
15.27074207,20.53166571,2.37746918,-0.31797830,-1.53136264

>  <Name>
ligand

>  <RI>
0

>  <Rbt.Current_Directory>
/home/itssahil/PROJECTS/Mol_Feturizer/New_Systems/rnas/3DIG

>  <Rbt.Executable>
rbdock ($Id: //depot/dev/client3/rdock/2013.1/src/exe/rbdock.cxx#4 $)

>  <Rbt.Library>
libRbt.so (2013.1, Build901 2013/11/27)

>  <Rbt.Parameter_File>
/export/apps/rDock/src/rDock_2013.1_src/data/scripts/dock_solv.prm

>  <Rbt.Receptor>
prm/pocket_docking_5.prm

>  <SCORE>
-10.415

>  <SCORE.INTER>
-10.0169

>  <SCORE.INTER.CONST>
1

>  <SCORE.INTER.POLAR>
0

>  <SCORE.INTER.ROT>
5

>  <SCORE.INTER.SOLV>
16.8542

>  <SCORE.INTER.VDW>
-19.2294

>  <SCORE.INTER.norm>
-1.00169

>  <SCORE.INTRA>
-0.398062

>  <SCORE.INTRA.DIHEDRAL>
-0.0838663

>  <SCORE.INTRA.DIHEDRAL.0>
2.60093

>  <SCORE.INTRA.POLAR>
0

>  <SCORE.INTRA.POLAR.0>
0

>  <SCORE.INTRA.REPUL>
0

>  <SCORE.INTRA.REPUL.0>
0

>  <SCORE.INTRA.SOLV>
-0.489746

>  <SCORE.INTRA.SOLV.lig_0>
-33.7882

>  <SCORE.INTRA.VDW>
-0.111256

>  <SCORE.INTRA.VDW.0>
-0.593976

>  <SCORE.INTRA.norm>
-0.0398062

>  <SCORE.RESTR>
0

>  <SCORE.RESTR.CAVITY>
0

>  <SCORE.RESTR.norm>
0

>  <SCORE.SYSTEM>
0

>  <SCORE.SYSTEM.CONST>
0

>  <SCORE.SYSTEM.DIHEDRAL>
0

>  <SCORE.SYSTEM.SOLV>
0

>  <SCORE.SYSTEM.norm>
0

>  <SCORE.heavy>
10

>  <SCORE.norm>
-1.0415

>  <RMSD>
5.541

$$$$
ligand
 OpenBabel11021811473D
libRbt.so/2013.1/901 2013/11/27
 10  9  0  0  0  0  0  0  0  0999 V2000
   27.9678   14.5541   19.1311 N   0  0  0  0  0  0  0  0  0  0  0  0
   28.2723   14.5413   20.5917 C   0  0  2  0  0  0  0  0  0  0  0  0
   27.0524   14.8267   21.4187 C   0  0  0  0  0  0  0  0  0  0  0  0
   27.1264   14.9269   22.6398 O   0  0  0  0  0  0  0  0  0  0  0  0
   29.4101   15.5121   20.8941 C   0  0  0  0  0  0  0  0  0  0  0  0
   30.0565   15.1185   22.4898 S   0  0  0  0  0  0  0  0  0  0  0  0
   31.1682   16.4637   22.7393 C   0  0  0  0  0  0  0  0  0  0  0  0
   32.3427   16.3162   21.7770 C   0  0  0  0  0  0  0  0  0  0  0  0
   33.2696   17.4147   21.9612 N   0  0  0  0  0  0  0  0  0  0  0  0
   25.9380   14.9953   20.9284 O   0  0  0  0  0  0  0  0  0  0  0  0
  2  1  1  6  0  0  0
  2  3  1  0  0  0  0
  2  5  1  0  0  0  0
  3  4  1  0  0  0  0
  3 10  1  0  0  0  0
  5  6  1  0  0  0  0
  6  7  1  0  0  0  0
  7  8  1  0  0  0  0
  8  9  1  0  0  0  0
M  END
>  <CHROM.1>
-176.11820563,-163.14750777,-172.31572703,-69.37093236,179.83485057,29.31682160
15.42877615,21.58839507,-2.90342852,0.31238728,1.48598232

>  <Name>
ligand

>  <RI>
0

>  <Rbt.Current_Directory>
/home/itssahil/PROJECTS/Mol_Feturizer/New_Systems/rnas/3DIG

>  <Rbt.Executable>
rbdock ($Id: //depot/dev/client3/rdock/2013.1/src/exe/rbdock.cxx#4 $)

>  <Rbt.Library>
libRbt.so (2013.1, Build901 2013/11/27)

>  <Rbt.Parameter_File>
/export/apps/rDock/src/rDock_2013.1_src/data/scripts/dock_solv.prm

>  <Rbt.Receptor>
prm/blind_docking_60.prm

>  <SCORE>
-12.0213

>  <SCORE.INTER>
-11.6907

>  <SCORE.INTER.CONST>
1

>  <SCORE.INTER.POLAR>
0

>  <SCORE.INTER.ROT>
5

>  <SCORE.INTER.SOLV>
14.3064

>  <SCORE.INTER.VDW>
-19.496

>  <SCORE.INTER.norm>
-1.16907

>  <SCORE.INTRA>
-0.330547

>  <SCORE.INTRA.DIHEDRAL>
0.108766

>  <SCORE.INTRA.DIHEDRAL.0>
2.60093

>  <SCORE.INTRA.POLAR>
0

>  <SCORE.INTRA.POLAR.0>
0

>  <SCORE.INTRA.REPUL>
0

>  <SCORE.INTRA.REPUL.0>
0

>  <SCORE.INTRA.SOLV>
-1.32472

>  <SCORE.INTRA.SOLV.lig_0>
-33.7882

>  <SCORE.INTRA.VDW>
0.277428

>  <SCORE.INTRA.VDW.0>
-0.593976

>  <SCORE.INTRA.norm>
-0.0330547

>  <SCORE.RESTR>
0

>  <SCORE.RESTR.CAVITY>
0

>  <SCORE.RESTR.norm>
0

>  <SCORE.SYSTEM>
0

>  <SCORE.SYSTEM.CONST>
0

>  <SCORE.SYSTEM.DIHEDRAL>
0

>  <SCORE.SYSTEM.SOLV>
0

>  <SCORE.SYSTEM.norm>
0

>  <SCORE.heavy>
10

>  <SCORE.norm>
-1.20213

>  <RMSD>
5.542

$$$$
ligand
 OpenBabel11021811473D
libRbt.so/2013.1/901 2013/11/27
 10  9  0  0  0  0  0  0  0  0999 V2000
   28.1034   14.3022   19.0271 N   0  0  0  0  0  0  0  0  0  0  0  0
   28.2352   14.4132   20.5092 C   0  0  2  0  0  0  0  0  0  0  0  0
   26.9636   14.8906   21.1484 C   0  0  0  0  0  0  0  0  0  0  0  0
   26.8107   14.8401   22.3653 O   0  0  0  0  0  0  0  0  0  0  0  0
   29.4232   15.3042   20.8602 C   0  0  0  0  0  0  0  0  0  0  0  0
   29.7044   15.1822   22.5996 S   0  0  0  0  0  0  0  0  0  0  0  0
   31.3351   15.8411   22.7197 C   0  0  0  0  0  0  0  0  0  0  0  0
   31.2792   17.3432   22.4596 C   0  0  0  0  0  0  0  0  0  0  0  0
   32.6057   17.9130   22.5839 N   0  0  0  0  0  0  0  0  0  0  0  0
   26.0323   15.3701   20.5054 O   0  0  0  0  0  0  0  0  0  0  0  0
  2  1  1  6  0  0  0
  2  3  1  0  0  0  0
  2  5  1  0  0  0  0
  3  4  1  0  0  0  0
  3 10  1  0  0  0  0
  5  6  1  0  0  0  0
  6  7  1  0  0  0  0
  7  8  1  0  0  0  0
  8  9  1  0  0  0  0
M  END
>  <CHROM.1>
168.26193864,-170.47550880,163.59237913,71.00095056,178.68158157,29.08958030
15.50388341,21.61433344,-2.70307359,0.35231654,1.38084301

>  <Name>
ligand

>  <RI>
0

>  <Rbt.Current_Directory>
/home/itssahil/PROJECTS/Mol_Feturizer/New_Systems/rnas/3DIG

>  <Rbt.Executable>
rbdock ($Id: //depot/dev/client3/rdock/2013.1/src/exe/rbdock.cxx#4 $)

>  <Rbt.Library>
libRbt.so (2013.1, Build901 2013/11/27)

>  <Rbt.Parameter_File>
/export/apps/rDock/src/rDock_2013.1_src/data/scripts/dock_solv.prm

>  <Rbt.Receptor>
prm/pocket_docking_3.prm

>  <SCORE>
-12.1762

>  <SCORE.INTER>
-11.5521

>  <SCORE.INTER.CONST>
1

>  <SCORE.INTER.POLAR>
0

>  <SCORE.INTER.ROT>
5

>  <SCORE.INTER.SOLV>
14.5465

>  <SCORE.INTER.VDW>
-19.4836

>  <SCORE.INTER.norm>
-1.15521

>  <SCORE.INTRA>
-0.624063

>  <SCORE.INTRA.DIHEDRAL>
-0.183271

>  <SCORE.INTRA.DIHEDRAL.0>
2.60093

>  <SCORE.INTRA.POLAR>
0

>  <SCORE.INTRA.POLAR.0>
0

>  <SCORE.INTRA.REPUL>
0

>  <SCORE.INTRA.REPUL.0>
0

>  <SCORE.INTRA.SOLV>
-1.36062

>  <SCORE.INTRA.SOLV.lig_0>
-33.7882

>  <SCORE.INTRA.VDW>
0.147884

>  <SCORE.INTRA.VDW.0>
-0.593976

>  <SCORE.INTRA.norm>
-0.0624063

>  <SCORE.RESTR>
0

>  <SCORE.RESTR.CAVITY>
0

>  <SCORE.RESTR.norm>
0

>  <SCORE.SYSTEM>
0

>  <SCORE.SYSTEM.CONST>
0

>  <SCORE.SYSTEM.DIHEDRAL>
0

>  <SCORE.SYSTEM.SOLV>
0

>  <SCORE.SYSTEM.norm>
0

>  <SCORE.heavy>
10

>  <SCORE.norm>
-1.21762

>  <RMSD>
5.542

$$$$
ligand
 OpenBabel11021811473D
libRbt.so/2013.1/901 2013/11/27
 10  9  0  0  0  0  0  0  0  0999 V2000
   28.5393   14.8174   19.1747 N   0  0  0  0  0  0  0  0  0  0  0  0
   28.2160   14.3759   20.5628 C   0  0  2  0  0  0  0  0  0  0  0  0
   26.8545   14.8393   20.9930 C   0  0  0  0  0  0  0  0  0  0  0  0
   26.4178   14.5676   22.1075 O   0  0  0  0  0  0  0  0  0  0  0  0
   29.3087   14.8373   21.5228 C   0  0  0  0  0  0  0  0  0  0  0  0
   29.4153   16.5976   21.4261 S   0  0  0  0  0  0  0  0  0  0  0  0
   31.1379   16.8099   21.1176 C   0  0  0  0  0  0  0  0  0  0  0  0
   31.9048   16.5519   22.4107 C   0  0  0  0  0  0  0  0  0  0  0  0
   33.3205   16.7734   22.1949 N   0  0  0  0  0  0  0  0  0  0  0  0
   26.1246   15.5219   20.2774 O   0  0  0  0  0  0  0  0  0  0  0  0
  2  1  1  6  0  0  0
  2  3  1  0  0  0  0
  2  5  1  0  0  0  0
  3  4  1  0  0  0  0
  3 10  1  0  0  0  0
  5  6  1  0  0  0  0
  6  7  1  0  0  0  0
  7  8  1  0  0  0  0
  8  9  1  0  0  0  0
M  END
>  <CHROM.1>
179.92355574,58.68475397,-127.43838267,-74.68537527,-177.70544794,29.12026627
15.68947405,21.21348436,-2.88576350,0.29386011,1.39668824

>  <Name>
ligand

>  <RI>
0

>  <Rbt.Current_Directory>
/home/itssahil/PROJECTS/Mol_Feturizer/New_Systems/rnas/3DIG

>  <Rbt.Executable>
rbdock ($Id: //depot/dev/client3/rdock/2013.1/src/exe/rbdock.cxx#4 $)

>  <Rbt.Library>
libRbt.so (2013.1, Build901 2013/11/27)

>  <Rbt.Parameter_File>
/export/apps/rDock/src/rDock_2013.1_src/data/scripts/dock_solv.prm

>  <Rbt.Receptor>
prm/pocket_docking_5.prm

>  <SCORE>
-9.52129

>  <SCORE.INTER>
-10.2625

>  <SCORE.INTER.CONST>
1

>  <SCORE.INTER.POLAR>
0

>  <SCORE.INTER.ROT>
5

>  <SCORE.INTER.SOLV>
13.6059

>  <SCORE.INTER.VDW>
-18.3103

>  <SCORE.INTER.norm>
-1.02625

>  <SCORE.INTRA>
0.741193

>  <SCORE.INTRA.DIHEDRAL>
1.56889

>  <SCORE.INTRA.DIHEDRAL.0>
2.60093

>  <SCORE.INTRA.POLAR>
0

>  <SCORE.INTRA.POLAR.0>
0

>  <SCORE.INTRA.REPUL>
0

>  <SCORE.INTRA.REPUL.0>
0

>  <SCORE.INTRA.SOLV>
0.0991894

>  <SCORE.INTRA.SOLV.lig_0>
-33.7882

>  <SCORE.INTRA.VDW>
-0.0928479

>  <SCORE.INTRA.VDW.0>
-0.593976

>  <SCORE.INTRA.norm>
0.0741193

>  <SCORE.RESTR>
0

>  <SCORE.RESTR.CAVITY>
0

>  <SCORE.RESTR.norm>
0

>  <SCORE.SYSTEM>
0

>  <SCORE.SYSTEM.CONST>
0

>  <SCORE.SYSTEM.DIHEDRAL>
0

>  <SCORE.SYSTEM.SOLV>
0

>  <SCORE.SYSTEM.norm>
0

>  <SCORE.heavy>
10

>  <SCORE.norm>
-0.952129

>  <RMSD>
5.543

$$$$
ligand
 OpenBabel11021811473D
libRbt.so/2013.1/901 2013/11/27
 10  9  0  0  0  0  0  0  0  0999 V2000
   26.3046   15.3615   20.4137 N   0  0  0  0  0  0  0  0  0  0  0  0
   27.7460   15.2614   20.0408 C   0  0  2  0  0  0  0  0  0  0  0  0
   27.9249   14.8112   18.6200 C   0  0  0  0  0  0  0  0  0  0  0  0
   27.3712   13.7977   18.2041 O   0  0  0  0  0  0  0  0  0  0  0  0
   28.4760   14.3536   21.0264 C   0  0  0  0  0  0  0  0  0  0  0  0
   28.5653   15.1904   22.5791 S   0  0  0  0  0  0  0  0  0  0  0  0
   29.8948   16.3084   22.2782 C   0  0  0  0  0  0  0  0  0  0  0  0
   31.1967   15.5166   22.2061 C   0  0  0  0  0  0  0  0  0  0  0  0
   32.2992   16.4098   21.9120 N   0  0  0  0  0  0  0  0  0  0  0  0
   28.6032   15.4310   17.8037 O   0  0  0  0  0  0  0  0  0  0  0  0
  2  1  1  1  0  0  0
  2  3  1  0  0  0  0
  2  5  1  0  0  0  0
  3  4  1  0  0  0  0
  3 10  1  0  0  0  0
  5  6  1  0  0  0  0
  6  7  1  0  0  0  0
  7  8  1  0  0  0  0
  8  9  1  0  0  0  0
M  END
>  <CHROM.1>
-52.28281766,-69.82520043,-78.56010015,-70.83585880,177.98398972,28.80456303
15.22768045,20.70762212,2.28776753,-0.25852623,-1.66160820

>  <Name>
ligand

>  <RI>
0

>  <Rbt.Current_Directory>
/home/itssahil/PROJECTS/Mol_Feturizer/New_Systems/rnas/3DIG

>  <Rbt.Executable>
rbdock ($Id: //depot/dev/client3/rdock/2013.1/src/exe/rbdock.cxx#4 $)

>  <Rbt.Library>
libRbt.so (2013.1, Build901 2013/11/27)

>  <Rbt.Parameter_File>
/export/apps/rDock/src/rDock_2013.1_src/data/scripts/dock_solv.prm

>  <Rbt.Receptor>
prm/pocket_docking_6.prm

>  <SCORE>
-11.5682

>  <SCORE.INTER>
-11.2429

>  <SCORE.INTER.CONST>
1

>  <SCORE.INTER.POLAR>
0

>  <SCORE.INTER.ROT>
5

>  <SCORE.INTER.SOLV>
17.0087

>  <SCORE.INTER.VDW>
-20.0982

>  <SCORE.INTER.norm>
-1.12429

>  <SCORE.INTRA>
-0.325238

>  <SCORE.INTRA.DIHEDRAL>
-0.0388308

>  <SCORE.INTRA.DIHEDRAL.0>
2.60093

>  <SCORE.INTRA.POLAR>
0

>  <SCORE.INTRA.POLAR.0>
0

>  <SCORE.INTRA.REPUL>
0

>  <SCORE.INTRA.REPUL.0>
0

>  <SCORE.INTRA.SOLV>
-0.268488

>  <SCORE.INTRA.SOLV.lig_0>
-33.7882

>  <SCORE.INTRA.VDW>
-0.171578

>  <SCORE.INTRA.VDW.0>
-0.593976

>  <SCORE.INTRA.norm>
-0.0325238

>  <SCORE.RESTR>
0

>  <SCORE.RESTR.CAVITY>
0

>  <SCORE.RESTR.norm>
0

>  <SCORE.SYSTEM>
0

>  <SCORE.SYSTEM.CONST>
0

>  <SCORE.SYSTEM.DIHEDRAL>
0

>  <SCORE.SYSTEM.SOLV>
0

>  <SCORE.SYSTEM.norm>
0

>  <SCORE.heavy>
10

>  <SCORE.norm>
-1.15682

>  <RMSD>
5.543

$$$$
ligand
 OpenBabel11021811473D
libRbt.so/2013.1/901 2013/11/27
 10  9  0  0  0  0  0  0  0  0999 V2000
   28.0608   14.3796   19.0787 N   0  0  0  0  0  0  0  0  0  0  0  0
   28.3077   14.5022   20.5451 C   0  0  2  0  0  0  0  0  0  0  0  0
   27.0543   14.8489   21.2950 C   0  0  0  0  0  0  0  0  0  0  0  0
   27.0302   14.8421   22.5222 O   0  0  0  0  0  0  0  0  0  0  0  0
   29.4262   15.5080   20.8016 C   0  0  0  0  0  0  0  0  0  0  0  0
   29.9633   15.3153   22.4731 S   0  0  0  0  0  0  0  0  0  0  0  0
   31.0754   16.6749   22.6237 C   0  0  0  0  0  0  0  0  0  0  0  0
   32.3527   16.3533   21.8542 C   0  0  0  0  0  0  0  0  0  0  0  0
   33.2804   17.4617   21.9570 N   0  0  0  0  0  0  0  0  0  0  0  0
   26.0097   15.1742   20.7350 O   0  0  0  0  0  0  0  0  0  0  0  0
  2  1  1  6  0  0  0
  2  3  1  0  0  0  0
  2  5  1  0  0  0  0
  3  4  1  0  0  0  0
  3 10  1  0  0  0  0
  5  6  1  0  0  0  0
  6  7  1  0  0  0  0
  7  8  1  0  0  0  0
  8  9  1  0  0  0  0
M  END
>  <CHROM.1>
171.66337245,-165.60570076,-172.95870126,-73.72186533,179.65639346,29.30189575
15.48665412,21.52411725,-2.85544038,0.30789773,1.39814225

>  <Name>
ligand

>  <RI>
0

>  <Rbt.Current_Directory>
/home/itssahil/PROJECTS/Mol_Feturizer/New_Systems/rnas/3DIG

>  <Rbt.Executable>
rbdock ($Id: //depot/dev/client3/rdock/2013.1/src/exe/rbdock.cxx#4 $)

>  <Rbt.Library>
libRbt.so (2013.1, Build901 2013/11/27)

>  <Rbt.Parameter_File>
/export/apps/rDock/src/rDock_2013.1_src/data/scripts/dock_solv.prm

>  <Rbt.Receptor>
prm/pocket_docking_8.prm

>  <SCORE>
-11.9633

>  <SCORE.INTER>
-11.2799

>  <SCORE.INTER.CONST>
1

>  <SCORE.INTER.POLAR>
0

>  <SCORE.INTER.ROT>
5

>  <SCORE.INTER.SOLV>
14.4064

>  <SCORE.INTER.VDW>
-19.2554

>  <SCORE.INTER.norm>
-1.12799

>  <SCORE.INTRA>
-0.683403

>  <SCORE.INTRA.DIHEDRAL>
-0.0244919

>  <SCORE.INTRA.DIHEDRAL.0>
2.60093

>  <SCORE.INTRA.POLAR>
0

>  <SCORE.INTRA.POLAR.0>
0

>  <SCORE.INTRA.REPUL>
0

>  <SCORE.INTRA.REPUL.0>
0

>  <SCORE.INTRA.SOLV>
-1.36493

>  <SCORE.INTRA.SOLV.lig_0>
-33.7882

>  <SCORE.INTRA.VDW>
0.0113057

>  <SCORE.INTRA.VDW.0>
-0.593976

>  <SCORE.INTRA.norm>
-0.0683403

>  <SCORE.RESTR>
0

>  <SCORE.RESTR.CAVITY>
0

>  <SCORE.RESTR.norm>
0

>  <SCORE.SYSTEM>
0

>  <SCORE.SYSTEM.CONST>
0

>  <SCORE.SYSTEM.DIHEDRAL>
0

>  <SCORE.SYSTEM.SOLV>
0

>  <SCORE.SYSTEM.norm>
0

>  <SCORE.heavy>
10

>  <SCORE.norm>
-1.19633

>  <RMSD>
5.544

$$$$
ligand
 OpenBabel11021811473D
libRbt.so/2013.1/901 2013/11/27
 10  9  0  0  0  0  0  0  0  0999 V2000
   28.0463   14.4044   19.0169 N   0  0  0  0  0  0  0  0  0  0  0  0
   28.2909   14.5418   20.4824 C   0  0  2  0  0  0  0  0  0  0  0  0
   27.0290   14.8577   21.2317 C   0  0  0  0  0  0  0  0  0  0  0  0
   26.9893   14.7944   22.4569 O   0  0  0  0  0  0  0  0  0  0  0  0
   29.3813   15.5796   20.7324 C   0  0  0  0  0  0  0  0  0  0  0  0
   29.8719   15.4617   22.4250 S   0  0  0  0  0  0  0  0  0  0  0  0
   31.0669   16.7546   22.5156 C   0  0  0  0  0  0  0  0  0  0  0  0
   32.3199   16.3201   21.7617 C   0  0  0  0  0  0  0  0  0  0  0  0
   33.3219   17.3645   21.8312 N   0  0  0  0  0  0  0  0  0  0  0  0
   25.9925   15.2120   20.6742 O   0  0  0  0  0  0  0  0  0  0  0  0
  2  1  1  6  0  0  0
  2  3  1  0  0  0  0
  2  5  1  0  0  0  0
  3  4  1  0  0  0  0
  3 10  1  0  0  0  0
  5  6  1  0  0  0  0
  6  7  1  0  0  0  0
  7  8  1  0  0  0  0
  8  9  1  0  0  0  0
M  END
>  <CHROM.1>
168.13691686,-168.21243848,-178.04857974,-71.99756958,-179.56285625,29.26912391
15.52309080,21.45157058,-2.86338233,0.30217202,1.38741190

>  <Name>
ligand

>  <RI>
0

>  <Rbt.Current_Directory>
/home/itssahil/PROJECTS/Mol_Feturizer/New_Systems/rnas/3DIG

>  <Rbt.Executable>
rbdock ($Id: //depot/dev/client3/rdock/2013.1/src/exe/rbdock.cxx#4 $)

>  <Rbt.Library>
libRbt.so (2013.1, Build901 2013/11/27)

>  <Rbt.Parameter_File>
/export/apps/rDock/src/rDock_2013.1_src/data/scripts/dock_solv.prm

>  <Rbt.Receptor>
prm/pocket_docking_5.prm

>  <SCORE>
-12.0678

>  <SCORE.INTER>
-11.2627

>  <SCORE.INTER.CONST>
1

>  <SCORE.INTER.POLAR>
0

>  <SCORE.INTER.ROT>
5

>  <SCORE.INTER.SOLV>
14.417

>  <SCORE.INTER.VDW>
-19.2475

>  <SCORE.INTER.norm>
-1.12627

>  <SCORE.INTRA>
-0.805103

>  <SCORE.INTRA.DIHEDRAL>
-0.399099

>  <SCORE.INTRA.DIHEDRAL.0>
2.60093

>  <SCORE.INTRA.POLAR>
0

>  <SCORE.INTRA.POLAR.0>
0

>  <SCORE.INTRA.REPUL>
0

>  <SCORE.INTRA.REPUL.0>
0

>  <SCORE.INTRA.SOLV>
-1.35954

>  <SCORE.INTRA.SOLV.lig_0>
-33.7882

>  <SCORE.INTRA.VDW>
0.0742145

>  <SCORE.INTRA.VDW.0>
-0.593976

>  <SCORE.INTRA.norm>
-0.0805103

>  <SCORE.RESTR>
0

>  <SCORE.RESTR.CAVITY>
0

>  <SCORE.RESTR.norm>
0

>  <SCORE.SYSTEM>
0

>  <SCORE.SYSTEM.CONST>
0

>  <SCORE.SYSTEM.DIHEDRAL>
0

>  <SCORE.SYSTEM.SOLV>
0

>  <SCORE.SYSTEM.norm>
0

>  <SCORE.heavy>
10

>  <SCORE.norm>
-1.20678

>  <RMSD>
5.545

$$$$
ligand
 OpenBabel11021811473D
libRbt.so/2013.1/901 2013/11/27
 10  9  0  0  0  0  0  0  0  0999 V2000
   26.3398   15.3112   20.3983 N   0  0  0  0  0  0  0  0  0  0  0  0
   27.7632   15.2794   19.9519 C   0  0  2  0  0  0  0  0  0  0  0  0
   27.8962   14.7690   18.5464 C   0  0  0  0  0  0  0  0  0  0  0  0
   27.3358   13.7353   18.1943 O   0  0  0  0  0  0  0  0  0  0  0  0
   28.5993   14.4688   20.9379 C   0  0  0  0  0  0  0  0  0  0  0  0
   28.7213   15.3903   22.4397 S   0  0  0  0  0  0  0  0  0  0  0  0
   30.4320   15.1893   22.8151 C   0  0  0  0  0  0  0  0  0  0  0  0
   31.2461   16.1038   21.9052 C   0  0  0  0  0  0  0  0  0  0  0  0
   31.0139   17.4881   22.2651 N   0  0  0  0  0  0  0  0  0  0  0  0
   28.5413   15.3567   17.6809 O   0  0  0  0  0  0  0  0  0  0  0  0
  2  1  1  1  0  0  0
  2  3  1  0  0  0  0
  2  5  1  0  0  0  0
  3  4  1  0  0  0  0
  3 10  1  0  0  0  0
  5  6  1  0  0  0  0
  6  7  1  0  0  0  0
  7  8  1  0  0  0  0
  8  9  1  0  0  0  0
M  END
>  <CHROM.1>
-48.91668282,-70.03227085,-135.98077632,76.41726616,68.87837750,28.77798092
15.30622334,20.69608775,2.23009035,-0.43086227,-1.61408893

>  <Name>
ligand

>  <RI>
0

>  <Rbt.Current_Directory>
/home/itssahil/PROJECTS/Mol_Feturizer/New_Systems/rnas/3DIG

>  <Rbt.Executable>
rbdock ($Id: //depot/dev/client3/rdock/2013.1/src/exe/rbdock.cxx#4 $)

>  <Rbt.Library>
libRbt.so (2013.1, Build901 2013/11/27)

>  <Rbt.Parameter_File>
/export/apps/rDock/src/rDock_2013.1_src/data/scripts/dock_solv.prm

>  <Rbt.Receptor>
prm/pocket_docking_6.prm

>  <SCORE>
-10.1272

>  <SCORE.INTER>
-10.8709

>  <SCORE.INTER.CONST>
1

>  <SCORE.INTER.POLAR>
0

>  <SCORE.INTER.ROT>
5

>  <SCORE.INTER.SOLV>
17.8317

>  <SCORE.INTER.VDW>
-20.1245

>  <SCORE.INTER.norm>
-1.08709

>  <SCORE.INTRA>
0.743692

>  <SCORE.INTRA.DIHEDRAL>
1.96886

>  <SCORE.INTRA.DIHEDRAL.0>
2.60093

>  <SCORE.INTRA.POLAR>
0

>  <SCORE.INTRA.POLAR.0>
0

>  <SCORE.INTRA.REPUL>
0

>  <SCORE.INTRA.REPUL.0>
0

>  <SCORE.INTRA.SOLV>
0.353597

>  <SCORE.INTRA.SOLV.lig_0>
-33.7882

>  <SCORE.INTRA.VDW>
-0.417539

>  <SCORE.INTRA.VDW.0>
-0.593976

>  <SCORE.INTRA.norm>
0.0743692

>  <SCORE.RESTR>
0

>  <SCORE.RESTR.CAVITY>
0

>  <SCORE.RESTR.norm>
0

>  <SCORE.SYSTEM>
0

>  <SCORE.SYSTEM.CONST>
0

>  <SCORE.SYSTEM.DIHEDRAL>
0

>  <SCORE.SYSTEM.SOLV>
0

>  <SCORE.SYSTEM.norm>
0

>  <SCORE.heavy>
10

>  <SCORE.norm>
-1.01272

>  <RMSD>
5.545

$$$$
ligand
 OpenBabel11021811473D
libRbt.so/2013.1/901 2013/11/27
 10  9  0  0  0  0  0  0  0  0999 V2000
   28.8880   14.4634   19.9161 N   0  0  0  0  0  0  0  0  0  0  0  0
   28.2174   14.5140   21.2480 C   0  0  2  0  0  0  0  0  0  0  0  0
   26.7612   14.8582   21.1270 C   0  0  0  0  0  0  0  0  0  0  0  0
   26.3477   15.5338   20.1894 O   0  0  0  0  0  0  0  0  0  0  0  0
   28.9602   15.4787   22.1678 C   0  0  0  0  0  0  0  0  0  0  0  0
   30.6313   14.9246   22.3081 S   0  0  0  0  0  0  0  0  0  0  0  0
   31.4412   16.0255   21.1947 C   0  0  0  0  0  0  0  0  0  0  0  0
   31.4003   17.4341   21.7788 C   0  0  0  0  0  0  0  0  0  0  0  0
   32.3334   17.5355   22.8829 N   0  0  0  0  0  0  0  0  0  0  0  0
   25.9150   14.4721   21.9304 O   0  0  0  0  0  0  0  0  0  0  0  0
  2  1  1  6  0  0  0
  2  3  1  0  0  0  0
  2  5  1  0  0  0  0
  3  4  1  0  0  0  0
  3 10  1  0  0  0  0
  5  6  1  0  0  0  0
  6  7  1  0  0  0  0
  7  8  1  0  0  0  0
  8  9  1  0  0  0  0
M  END
>  <CHROM.1>
-27.95278391,-58.23019364,101.07663739,68.17878445,73.62831592,29.22551384
15.45787587,21.56435329,-2.90789778,-0.33252191,-0.35570073

>  <Name>
ligand

>  <RI>
0

>  <Rbt.Current_Directory>
/home/itssahil/PROJECTS/Mol_Feturizer/New_Systems/rnas/3DIG

>  <Rbt.Executable>
rbdock ($Id: //depot/dev/client3/rdock/2013.1/src/exe/rbdock.cxx#4 $)

>  <Rbt.Library>
libRbt.so (2013.1, Build901 2013/11/27)

>  <Rbt.Parameter_File>
/export/apps/rDock/src/rDock_2013.1_src/data/scripts/dock_solv.prm

>  <Rbt.Receptor>
prm/blind_docking_60.prm

>  <SCORE>
-9.21008

>  <SCORE.INTER>
-10.7881

>  <SCORE.INTER.CONST>
1

>  <SCORE.INTER.POLAR>
0

>  <SCORE.INTER.ROT>
5

>  <SCORE.INTER.SOLV>
12.2811

>  <SCORE.INTER.VDW>
-18.2191

>  <SCORE.INTER.norm>
-1.07881

>  <SCORE.INTRA>
1.57805

>  <SCORE.INTRA.DIHEDRAL>
1.60024

>  <SCORE.INTRA.DIHEDRAL.0>
2.60093

>  <SCORE.INTRA.POLAR>
0

>  <SCORE.INTRA.POLAR.0>
0

>  <SCORE.INTRA.REPUL>
0

>  <SCORE.INTRA.REPUL.0>
0

>  <SCORE.INTRA.SOLV>
1.78024

>  <SCORE.INTRA.SOLV.lig_0>
-33.7882

>  <SCORE.INTRA.VDW>
-0.112186

>  <SCORE.INTRA.VDW.0>
-0.593976

>  <SCORE.INTRA.norm>
0.157805

>  <SCORE.RESTR>
0

>  <SCORE.RESTR.CAVITY>
0

>  <SCORE.RESTR.norm>
0

>  <SCORE.SYSTEM>
0

>  <SCORE.SYSTEM.CONST>
0

>  <SCORE.SYSTEM.DIHEDRAL>
0

>  <SCORE.SYSTEM.SOLV>
0

>  <SCORE.SYSTEM.norm>
0

>  <SCORE.heavy>
10

>  <SCORE.norm>
-0.921008

>  <RMSD>
5.547

$$$$
ligand
 OpenBabel11021811473D
libRbt.so/2013.1/901 2013/11/27
 10  9  0  0  0  0  0  0  0  0999 V2000
   26.3612   15.4194   20.3961 N   0  0  0  0  0  0  0  0  0  0  0  0
   27.7976   15.2770   20.0178 C   0  0  2  0  0  0  0  0  0  0  0  0
   27.9577   14.8031   18.6025 C   0  0  0  0  0  0  0  0  0  0  0  0
   27.4459   13.7527   18.2264 O   0  0  0  0  0  0  0  0  0  0  0  0
   28.5090   14.3641   21.0123 C   0  0  0  0  0  0  0  0  0  0  0  0
   28.5600   15.1887   22.5733 S   0  0  0  0  0  0  0  0  0  0  0  0
   29.8740   16.3322   22.3024 C   0  0  0  0  0  0  0  0  0  0  0  0
   31.1994   15.5782   22.3465 C   0  0  0  0  0  0  0  0  0  0  0  0
   32.2969   16.5014   22.1394 N   0  0  0  0  0  0  0  0  0  0  0  0
   28.5780   15.4378   17.7521 O   0  0  0  0  0  0  0  0  0  0  0  0
  2  1  1  1  0  0  0
  2  3  1  0  0  0  0
  2  5  1  0  0  0  0
  3  4  1  0  0  0  0
  3 10  1  0  0  0  0
  5  6  1  0  0  0  0
  6  7  1  0  0  0  0
  7  8  1  0  0  0  0
  8  9  1  0  0  0  0
M  END
>  <CHROM.1>
-57.01432291,-67.19319143,-77.68391889,-74.97327639,-179.43129400,28.82124402
15.24575464,20.73199657,2.26391341,-0.27110033,-1.66369499

>  <Name>
ligand

>  <RI>
0

>  <Rbt.Current_Directory>
/home/itssahil/PROJECTS/Mol_Feturizer/New_Systems/rnas/3DIG

>  <Rbt.Executable>
rbdock ($Id: //depot/dev/client3/rdock/2013.1/src/exe/rbdock.cxx#4 $)

>  <Rbt.Library>
libRbt.so (2013.1, Build901 2013/11/27)

>  <Rbt.Parameter_File>
/export/apps/rDock/src/rDock_2013.1_src/data/scripts/dock_solv.prm

>  <Rbt.Receptor>
prm/pocket_docking_4.prm

>  <SCORE>
-11.4919

>  <SCORE.INTER>
-11.1221

>  <SCORE.INTER.CONST>
1

>  <SCORE.INTER.POLAR>
0

>  <SCORE.INTER.ROT>
5

>  <SCORE.INTER.SOLV>
16.8419

>  <SCORE.INTER.VDW>
-19.962

>  <SCORE.INTER.norm>
-1.11221

>  <SCORE.INTRA>
-0.369828

>  <SCORE.INTRA.DIHEDRAL>
-0.0957954

>  <SCORE.INTRA.DIHEDRAL.0>
2.60093

>  <SCORE.INTRA.POLAR>
0

>  <SCORE.INTRA.POLAR.0>
0

>  <SCORE.INTRA.REPUL>
0

>  <SCORE.INTRA.REPUL.0>
0

>  <SCORE.INTRA.SOLV>
-0.25481

>  <SCORE.INTRA.SOLV.lig_0>
-33.7882

>  <SCORE.INTRA.VDW>
-0.194525

>  <SCORE.INTRA.VDW.0>
-0.593976

>  <SCORE.INTRA.norm>
-0.0369828

>  <SCORE.RESTR>
0

>  <SCORE.RESTR.CAVITY>
0

>  <SCORE.RESTR.norm>
0

>  <SCORE.SYSTEM>
0

>  <SCORE.SYSTEM.CONST>
0

>  <SCORE.SYSTEM.DIHEDRAL>
0

>  <SCORE.SYSTEM.SOLV>
0

>  <SCORE.SYSTEM.norm>
0

>  <SCORE.heavy>
10

>  <SCORE.norm>
-1.14919

>  <RMSD>
5.548

$$$$
ligand
 OpenBabel11021811473D
libRbt.so/2013.1/901 2013/11/27
 10  9  0  0  0  0  0  0  0  0999 V2000
   27.9947   14.4569   19.0329 N   0  0  0  0  0  0  0  0  0  0  0  0
   28.2682   14.5692   20.4955 C   0  0  2  0  0  0  0  0  0  0  0  0
   27.0220   14.8758   21.2743 C   0  0  0  0  0  0  0  0  0  0  0  0
   27.0228   14.8541   22.5015 O   0  0  0  0  0  0  0  0  0  0  0  0
   29.3662   15.5999   20.7413 C   0  0  0  0  0  0  0  0  0  0  0  0
   29.8870   15.4548   22.4227 S   0  0  0  0  0  0  0  0  0  0  0  0
   31.0709   16.7577   22.5176 C   0  0  0  0  0  0  0  0  0  0  0  0
   32.3250   16.3393   21.7566 C   0  0  0  0  0  0  0  0  0  0  0  0
   33.3174   17.3928   21.8282 N   0  0  0  0  0  0  0  0  0  0  0  0
   25.9586   15.1816   20.7391 O   0  0  0  0  0  0  0  0  0  0  0  0
  2  1  1  6  0  0  0
  2  3  1  0  0  0  0
  2  5  1  0  0  0  0
  3  4  1  0  0  0  0
  3 10  1  0  0  0  0
  5  6  1  0  0  0  0
  6  7  1  0  0  0  0
  7  8  1  0  0  0  0
  8  9  1  0  0  0  0
M  END
>  <CHROM.1>
171.62870302,-168.31908190,-177.27636670,-73.06770425,-179.62892043,29.26429792
15.53908912,21.46805887,-2.87359351,0.30441653,1.39839038

>  <Name>
ligand

>  <RI>
0

>  <Rbt.Current_Directory>
/home/itssahil/PROJECTS/Mol_Feturizer/New_Systems/rnas/3DIG

>  <Rbt.Executable>
rbdock ($Id: //depot/dev/client3/rdock/2013.1/src/exe/rbdock.cxx#4 $)

>  <Rbt.Library>
libRbt.so (2013.1, Build901 2013/11/27)

>  <Rbt.Parameter_File>
/export/apps/rDock/src/rDock_2013.1_src/data/scripts/dock_solv.prm

>  <Rbt.Receptor>
prm/pocket_docking_7.prm

>  <SCORE>
-11.9809

>  <SCORE.INTER>
-11.2542

>  <SCORE.INTER.CONST>
1

>  <SCORE.INTER.POLAR>
0

>  <SCORE.INTER.ROT>
5

>  <SCORE.INTER.SOLV>
14.3878

>  <SCORE.INTER.VDW>
-19.2321

>  <SCORE.INTER.norm>
-1.12542

>  <SCORE.INTRA>
-0.726726

>  <SCORE.INTRA.DIHEDRAL>
-0.353796

>  <SCORE.INTRA.DIHEDRAL.0>
2.60093

>  <SCORE.INTRA.POLAR>
0

>  <SCORE.INTRA.POLAR.0>
0

>  <SCORE.INTRA.REPUL>
0

>  <SCORE.INTRA.REPUL.0>
0

>  <SCORE.INTRA.SOLV>
-1.36557

>  <SCORE.INTRA.SOLV.lig_0>
-33.7882

>  <SCORE.INTRA.VDW>
0.132959

>  <SCORE.INTRA.VDW.0>
-0.593976

>  <SCORE.INTRA.norm>
-0.0726726

>  <SCORE.RESTR>
0

>  <SCORE.RESTR.CAVITY>
0

>  <SCORE.RESTR.norm>
0

>  <SCORE.SYSTEM>
0

>  <SCORE.SYSTEM.CONST>
0

>  <SCORE.SYSTEM.DIHEDRAL>
0

>  <SCORE.SYSTEM.SOLV>
0

>  <SCORE.SYSTEM.norm>
0

>  <SCORE.heavy>
10

>  <SCORE.norm>
-1.19809

>  <RMSD>
5.548

$$$$
ligand
 OpenBabel11021811473D
libRbt.so/2013.1/901 2013/11/27
 10  9  0  0  0  0  0  0  0  0999 V2000
   26.2743   14.7234   21.0747 N   0  0  0  0  0  0  0  0  0  0  0  0
   27.2253   15.5335   20.2587 C   0  0  2  0  0  0  0  0  0  0  0  0
   27.7077   14.7806   19.0529 C   0  0  0  0  0  0  0  0  0  0  0  0
   28.4814   15.2982   18.2529 O   0  0  0  0  0  0  0  0  0  0  0  0
   28.3792   16.0167   21.1326 C   0  0  0  0  0  0  0  0  0  0  0  0
   29.0982   14.6079   21.9185 S   0  0  0  0  0  0  0  0  0  0  0  0
   30.6027   15.2976   22.5255 C   0  0  0  0  0  0  0  0  0  0  0  0
   31.5265   15.5791   21.3447 C   0  0  0  0  0  0  0  0  0  0  0  0
   32.7462   16.2056   21.8135 N   0  0  0  0  0  0  0  0  0  0  0  0
   27.3801   13.6200   18.8154 O   0  0  0  0  0  0  0  0  0  0  0  0
  2  1  1  1  0  0  0
  2  3  1  0  0  0  0
  2  5  1  0  0  0  0
  3  4  1  0  0  0  0
  3 10  1  0  0  0  0
  5  6  1  0  0  0  0
  6  7  1  0  0  0  0
  7  8  1  0  0  0  0
  8  9  1  0  0  0  0
M  END
>  <CHROM.1>
178.84311273,54.22462978,166.52057628,-70.78503730,177.31959841,28.96113341
15.08795098,20.73638789,2.61995195,-0.23239172,-1.57588714

>  <Name>
ligand

>  <RI>
0

>  <Rbt.Current_Directory>
/home/itssahil/PROJECTS/Mol_Feturizer/New_Systems/rnas/3DIG

>  <Rbt.Executable>
rbdock ($Id: //depot/dev/client3/rdock/2013.1/src/exe/rbdock.cxx#4 $)

>  <Rbt.Library>
libRbt.so (2013.1, Build901 2013/11/27)

>  <Rbt.Parameter_File>
/export/apps/rDock/src/rDock_2013.1_src/data/scripts/dock_solv.prm

>  <Rbt.Receptor>
prm/blind_docking_60.prm

>  <SCORE>
-11.674

>  <SCORE.INTER>
-11.2089

>  <SCORE.INTER.CONST>
1

>  <SCORE.INTER.POLAR>
0

>  <SCORE.INTER.ROT>
5

>  <SCORE.INTER.SOLV>
18.1436

>  <SCORE.INTER.VDW>
-20.4538

>  <SCORE.INTER.norm>
-1.12089

>  <SCORE.INTRA>
-0.465147

>  <SCORE.INTRA.DIHEDRAL>
-0.497478

>  <SCORE.INTRA.DIHEDRAL.0>
2.60093

>  <SCORE.INTRA.POLAR>
0

>  <SCORE.INTRA.POLAR.0>
0

>  <SCORE.INTRA.REPUL>
0

>  <SCORE.INTRA.REPUL.0>
0

>  <SCORE.INTRA.SOLV>
-0.373879

>  <SCORE.INTRA.SOLV.lig_0>
-33.7882

>  <SCORE.INTRA.VDW>
-0.0294685

>  <SCORE.INTRA.VDW.0>
-0.593976

>  <SCORE.INTRA.norm>
-0.0465147

>  <SCORE.RESTR>
0

>  <SCORE.RESTR.CAVITY>
0

>  <SCORE.RESTR.norm>
0

>  <SCORE.SYSTEM>
0

>  <SCORE.SYSTEM.CONST>
0

>  <SCORE.SYSTEM.DIHEDRAL>
0

>  <SCORE.SYSTEM.SOLV>
0

>  <SCORE.SYSTEM.norm>
0

>  <SCORE.heavy>
10

>  <SCORE.norm>
-1.1674

>  <RMSD>
5.549

$$$$
ligand
 OpenBabel11021811473D
libRbt.so/2013.1/901 2013/11/27
 10  9  0  0  0  0  0  0  0  0999 V2000
   26.2900   14.7087   21.0815 N   0  0  0  0  0  0  0  0  0  0  0  0
   27.2412   15.5173   20.2641 C   0  0  2  0  0  0  0  0  0  0  0  0
   27.7279   14.7602   19.0627 C   0  0  0  0  0  0  0  0  0  0  0  0
   27.3096   13.6334   18.8141 O   0  0  0  0  0  0  0  0  0  0  0  0
   28.3919   16.0068   21.1386 C   0  0  0  0  0  0  0  0  0  0  0  0
   29.1381   14.5989   21.9004 S   0  0  0  0  0  0  0  0  0  0  0  0
   30.6433   15.3000   22.4925 C   0  0  0  0  0  0  0  0  0  0  0  0
   31.5562   15.5816   21.3032 C   0  0  0  0  0  0  0  0  0  0  0  0
   32.7754   16.2179   21.7596 N   0  0  0  0  0  0  0  0  0  0  0  0
   28.5387   15.2249   18.2643 O   0  0  0  0  0  0  0  0  0  0  0  0
  2  1  1  1  0  0  0
  2  3  1  0  0  0  0
  2  5  1  0  0  0  0
  3  4  1  0  0  0  0
  3 10  1  0  0  0  0
  5  6  1  0  0  0  0
  6  7  1  0  0  0  0
  7  8  1  0  0  0  0
  8  9  1  0  0  0  0
M  END
>  <CHROM.1>
2.69253172,55.62959676,165.88633082,-71.72586035,177.28465873,28.98192871
15.07659901,20.72475408,2.63297678,-0.23188847,-1.58697877

>  <Name>
ligand

>  <RI>
0

>  <Rbt.Current_Directory>
/home/itssahil/PROJECTS/Mol_Feturizer/New_Systems/rnas/3DIG

>  <Rbt.Executable>
rbdock ($Id: //depot/dev/client3/rdock/2013.1/src/exe/rbdock.cxx#4 $)

>  <Rbt.Library>
libRbt.so (2013.1, Build901 2013/11/27)

>  <Rbt.Parameter_File>
/export/apps/rDock/src/rDock_2013.1_src/data/scripts/dock_solv.prm

>  <Rbt.Receptor>
prm/pocket_docking_4.prm

>  <SCORE>
-11.6814

>  <SCORE.INTER>
-11.1949

>  <SCORE.INTER.CONST>
1

>  <SCORE.INTER.POLAR>
0

>  <SCORE.INTER.ROT>
5

>  <SCORE.INTER.SOLV>
18.072

>  <SCORE.INTER.VDW>
-20.4206

>  <SCORE.INTER.norm>
-1.11949

>  <SCORE.INTRA>
-0.486577

>  <SCORE.INTRA.DIHEDRAL>
-0.482626

>  <SCORE.INTRA.DIHEDRAL.0>
2.60093

>  <SCORE.INTRA.POLAR>
0

>  <SCORE.INTRA.POLAR.0>
0

>  <SCORE.INTRA.REPUL>
0

>  <SCORE.INTRA.REPUL.0>
0

>  <SCORE.INTRA.SOLV>
-0.389164

>  <SCORE.INTRA.SOLV.lig_0>
-33.7882

>  <SCORE.INTRA.VDW>
-0.0506813

>  <SCORE.INTRA.VDW.0>
-0.593976

>  <SCORE.INTRA.norm>
-0.0486577

>  <SCORE.RESTR>
0

>  <SCORE.RESTR.CAVITY>
0

>  <SCORE.RESTR.norm>
0

>  <SCORE.SYSTEM>
0

>  <SCORE.SYSTEM.CONST>
0

>  <SCORE.SYSTEM.DIHEDRAL>
0

>  <SCORE.SYSTEM.SOLV>
0

>  <SCORE.SYSTEM.norm>
0

>  <SCORE.heavy>
10

>  <SCORE.norm>
-1.16814

>  <RMSD>
5.549

$$$$
ligand
 OpenBabel11021811473D
libRbt.so/2013.1/901 2013/11/27
 10  9  0  0  0  0  0  0  0  0999 V2000
   28.0690   14.3589   19.0098 N   0  0  0  0  0  0  0  0  0  0  0  0
   28.2025   14.4163   20.4948 C   0  0  2  0  0  0  0  0  0  0  0  0
   26.9359   14.8832   21.1514 C   0  0  0  0  0  0  0  0  0  0  0  0
   26.7976   14.8254   22.3697 O   0  0  0  0  0  0  0  0  0  0  0  0
   29.3993   15.2829   20.8761 C   0  0  0  0  0  0  0  0  0  0  0  0
   29.6996   15.0724   22.6037 S   0  0  0  0  0  0  0  0  0  0  0  0
   31.3363   15.7136   22.7372 C   0  0  0  0  0  0  0  0  0  0  0  0
   31.2983   17.2168   22.4808 C   0  0  0  0  0  0  0  0  0  0  0  0
   32.6339   17.7679   22.5908 N   0  0  0  0  0  0  0  0  0  0  0  0
   25.9944   15.3607   20.5219 O   0  0  0  0  0  0  0  0  0  0  0  0
  2  1  1  6  0  0  0
  2  3  1  0  0  0  0
  2  5  1  0  0  0  0
  3  4  1  0  0  0  0
  3 10  1  0  0  0  0
  5  6  1  0  0  0  0
  6  7  1  0  0  0  0
  7  8  1  0  0  0  0
  8  9  1  0  0  0  0
M  END
>  <CHROM.1>
170.29655501,-169.38526809,163.48210350,68.08605764,179.76320310,29.07786748
15.44702100,21.62020619,-2.72525289,0.34552327,1.43853864

>  <Name>
ligand

>  <RI>
0

>  <Rbt.Current_Directory>
/home/itssahil/PROJECTS/Mol_Feturizer/New_Systems/rnas/3DIG

>  <Rbt.Executable>
rbdock ($Id: //depot/dev/client3/rdock/2013.1/src/exe/rbdock.cxx#4 $)

>  <Rbt.Library>
libRbt.so (2013.1, Build901 2013/11/27)

>  <Rbt.Parameter_File>
/export/apps/rDock/src/rDock_2013.1_src/data/scripts/dock_solv.prm

>  <Rbt.Receptor>
prm/pocket_docking_5.prm

>  <SCORE>
-12.1268

>  <SCORE.INTER>
-11.6044

>  <SCORE.INTER.CONST>
1

>  <SCORE.INTER.POLAR>
0

>  <SCORE.INTER.ROT>
5

>  <SCORE.INTER.SOLV>
14.3971

>  <SCORE.INTER.VDW>
-19.4686

>  <SCORE.INTER.norm>
-1.16044

>  <SCORE.INTRA>
-0.522474

>  <SCORE.INTRA.DIHEDRAL>
-0.192464

>  <SCORE.INTRA.DIHEDRAL.0>
2.60093

>  <SCORE.INTRA.POLAR>
0

>  <SCORE.INTRA.POLAR.0>
0

>  <SCORE.INTRA.REPUL>
0

>  <SCORE.INTRA.REPUL.0>
0

>  <SCORE.INTRA.SOLV>
-1.32907

>  <SCORE.INTRA.SOLV.lig_0>
-33.7882

>  <SCORE.INTRA.VDW>
0.238294

>  <SCORE.INTRA.VDW.0>
-0.593976

>  <SCORE.INTRA.norm>
-0.0522474

>  <SCORE.RESTR>
0

>  <SCORE.RESTR.CAVITY>
0

>  <SCORE.RESTR.norm>
0

>  <SCORE.SYSTEM>
0

>  <SCORE.SYSTEM.CONST>
0

>  <SCORE.SYSTEM.DIHEDRAL>
0

>  <SCORE.SYSTEM.SOLV>
0

>  <SCORE.SYSTEM.norm>
0

>  <SCORE.heavy>
10

>  <SCORE.norm>
-1.21268

>  <RMSD>
5.549

$$$$
ligand
 OpenBabel11021811473D
libRbt.so/2013.1/901 2013/11/27
 10  9  0  0  0  0  0  0  0  0999 V2000
   26.2668   14.7143   21.0676 N   0  0  0  0  0  0  0  0  0  0  0  0
   27.2369   15.5080   20.2580 C   0  0  2  0  0  0  0  0  0  0  0  0
   27.7359   14.7366   19.0708 C   0  0  0  0  0  0  0  0  0  0  0  0
   27.2632   13.6402   18.7860 O   0  0  0  0  0  0  0  0  0  0  0  0
   28.3781   15.9960   21.1457 C   0  0  0  0  0  0  0  0  0  0  0  0
   29.1301   14.5850   21.8960 S   0  0  0  0  0  0  0  0  0  0  0  0
   30.6308   15.2882   22.4969 C   0  0  0  0  0  0  0  0  0  0  0  0
   31.5483   15.5757   21.3126 C   0  0  0  0  0  0  0  0  0  0  0  0
   32.7599   16.2219   21.7753 N   0  0  0  0  0  0  0  0  0  0  0  0
   28.6115   15.1602   18.3194 O   0  0  0  0  0  0  0  0  0  0  0  0
  2  1  1  1  0  0  0
  2  3  1  0  0  0  0
  2  5  1  0  0  0  0
  3  4  1  0  0  0  0
  3 10  1  0  0  0  0
  5  6  1  0  0  0  0
  6  7  1  0  0  0  0
  7  8  1  0  0  0  0
  8  9  1  0  0  0  0
M  END
>  <CHROM.1>
6.47289135,57.19357592,165.52874296,-72.14080112,176.90052892,28.97682189
15.06378171,20.72870355,2.63112625,-0.22574196,-1.60585873

>  <Name>
ligand

>  <RI>
0

>  <Rbt.Current_Directory>
/home/itssahil/PROJECTS/Mol_Feturizer/New_Systems/rnas/3DIG

>  <Rbt.Executable>
rbdock ($Id: //depot/dev/client3/rdock/2013.1/src/exe/rbdock.cxx#4 $)

>  <Rbt.Library>
libRbt.so (2013.1, Build901 2013/11/27)

>  <Rbt.Parameter_File>
/export/apps/rDock/src/rDock_2013.1_src/data/scripts/dock_solv.prm

>  <Rbt.Receptor>
prm/pocket_docking_7.prm

>  <SCORE>
-11.6653

>  <SCORE.INTER>
-11.1644

>  <SCORE.INTER.CONST>
1

>  <SCORE.INTER.POLAR>
0

>  <SCORE.INTER.ROT>
5

>  <SCORE.INTER.SOLV>
18.0788

>  <SCORE.INTER.VDW>
-20.4025

>  <SCORE.INTER.norm>
-1.11644

>  <SCORE.INTRA>
-0.500918

>  <SCORE.INTRA.DIHEDRAL>
-0.489631

>  <SCORE.INTRA.DIHEDRAL.0>
2.60093

>  <SCORE.INTRA.POLAR>
0

>  <SCORE.INTRA.POLAR.0>
0

>  <SCORE.INTRA.REPUL>
0

>  <SCORE.INTRA.REPUL.0>
0

>  <SCORE.INTRA.SOLV>
-0.411375

>  <SCORE.INTRA.SOLV.lig_0>
-33.7882

>  <SCORE.INTRA.VDW>
-0.0504141

>  <SCORE.INTRA.VDW.0>
-0.593976

>  <SCORE.INTRA.norm>
-0.0500918

>  <SCORE.RESTR>
0

>  <SCORE.RESTR.CAVITY>
0

>  <SCORE.RESTR.norm>
0

>  <SCORE.SYSTEM>
0

>  <SCORE.SYSTEM.CONST>
0

>  <SCORE.SYSTEM.DIHEDRAL>
0

>  <SCORE.SYSTEM.SOLV>
0

>  <SCORE.SYSTEM.norm>
0

>  <SCORE.heavy>
10

>  <SCORE.norm>
-1.16653

>  <RMSD>
5.549

$$$$
ligand
 OpenBabel11021811473D
libRbt.so/2013.1/901 2013/11/27
 10  9  0  0  0  0  0  0  0  0999 V2000
   26.3456   15.3162   20.3995 N   0  0  0  0  0  0  0  0  0  0  0  0
   27.7639   15.2830   19.9370 C   0  0  2  0  0  0  0  0  0  0  0  0
   27.8803   14.7733   18.5298 C   0  0  0  0  0  0  0  0  0  0  0  0
   27.3323   13.7293   18.1888 O   0  0  0  0  0  0  0  0  0  0  0  0
   28.6099   14.4705   20.9130 C   0  0  0  0  0  0  0  0  0  0  0  0
   28.7020   15.3643   22.4335 S   0  0  0  0  0  0  0  0  0  0  0  0
   30.4096   15.1740   22.8281 C   0  0  0  0  0  0  0  0  0  0  0  0
   31.2290   16.0853   21.9197 C   0  0  0  0  0  0  0  0  0  0  0  0
   30.9818   17.4714   22.2622 N   0  0  0  0  0  0  0  0  0  0  0  0
   28.4988   15.3715   17.6522 O   0  0  0  0  0  0  0  0  0  0  0  0
  2  1  1  1  0  0  0
  2  3  1  0  0  0  0
  2  5  1  0  0  0  0
  3  4  1  0  0  0  0
  3 10  1  0  0  0  0
  5  6  1  0  0  0  0
  6  7  1  0  0  0  0
  7  8  1  0  0  0  0
  8  9  1  0  0  0  0
M  END
>  <CHROM.1>
-50.09789519,-68.04632164,-136.67659087,74.83753495,68.59536733,28.76347377
15.29864827,20.68904395,2.22636725,-0.43692057,-1.60300104

>  <Name>
ligand

>  <RI>
0

>  <Rbt.Current_Directory>
/home/itssahil/PROJECTS/Mol_Feturizer/New_Systems/rnas/3DIG

>  <Rbt.Executable>
rbdock ($Id: //depot/dev/client3/rdock/2013.1/src/exe/rbdock.cxx#4 $)

>  <Rbt.Library>
libRbt.so (2013.1, Build901 2013/11/27)

>  <Rbt.Parameter_File>
/export/apps/rDock/src/rDock_2013.1_src/data/scripts/dock_solv.prm

>  <Rbt.Receptor>
prm/blind_docking_80.prm

>  <SCORE>
-10.1009

>  <SCORE.INTER>
-10.788

>  <SCORE.INTER.CONST>
1

>  <SCORE.INTER.POLAR>
0

>  <SCORE.INTER.ROT>
5

>  <SCORE.INTER.SOLV>
17.8212

>  <SCORE.INTER.VDW>
-20.0658

>  <SCORE.INTER.norm>
-1.0788

>  <SCORE.INTRA>
0.687118

>  <SCORE.INTRA.DIHEDRAL>
1.72356

>  <SCORE.INTRA.DIHEDRAL.0>
2.60093

>  <SCORE.INTRA.POLAR>
0

>  <SCORE.INTRA.POLAR.0>
0

>  <SCORE.INTRA.REPUL>
0

>  <SCORE.INTRA.REPUL.0>
0

>  <SCORE.INTRA.SOLV>
0.420339

>  <SCORE.INTRA.SOLV.lig_0>
-33.7882

>  <SCORE.INTRA.VDW>
-0.384829

>  <SCORE.INTRA.VDW.0>
-0.593976

>  <SCORE.INTRA.norm>
0.0687118

>  <SCORE.RESTR>
0

>  <SCORE.RESTR.CAVITY>
0

>  <SCORE.RESTR.norm>
0

>  <SCORE.SYSTEM>
0

>  <SCORE.SYSTEM.CONST>
0

>  <SCORE.SYSTEM.DIHEDRAL>
0

>  <SCORE.SYSTEM.SOLV>
0

>  <SCORE.SYSTEM.norm>
0

>  <SCORE.heavy>
10

>  <SCORE.norm>
-1.01009

>  <RMSD>
5.550

$$$$
ligand
 OpenBabel11021811473D
libRbt.so/2013.1/901 2013/11/27
 10  9  0  0  0  0  0  0  0  0999 V2000
   27.9729   14.4624   19.0463 N   0  0  0  0  0  0  0  0  0  0  0  0
   28.2549   14.5745   20.5073 C   0  0  2  0  0  0  0  0  0  0  0  0
   27.0101   14.8615   21.2956 C   0  0  0  0  0  0  0  0  0  0  0  0
   27.0155   14.8194   22.5223 O   0  0  0  0  0  0  0  0  0  0  0  0
   29.3402   15.6197   20.7484 C   0  0  0  0  0  0  0  0  0  0  0  0
   29.8865   15.4660   22.4209 S   0  0  0  0  0  0  0  0  0  0  0  0
   31.0974   16.7452   22.4940 C   0  0  0  0  0  0  0  0  0  0  0  0
   32.3241   16.3075   21.6999 C   0  0  0  0  0  0  0  0  0  0  0  0
   33.3308   17.3491   21.7372 N   0  0  0  0  0  0  0  0  0  0  0  0
   25.9431   15.1707   20.7695 O   0  0  0  0  0  0  0  0  0  0  0  0
  2  1  1  6  0  0  0
  2  3  1  0  0  0  0
  2  5  1  0  0  0  0
  3  4  1  0  0  0  0
  3 10  1  0  0  0  0
  5  6  1  0  0  0  0
  6  7  1  0  0  0  0
  7  8  1  0  0  0  0
  8  9  1  0  0  0  0
M  END
>  <CHROM.1>
170.67101159,-167.74301168,-179.40648450,-72.46397393,179.56993830,29.25916090
15.53060908,21.46213233,-2.89360132,0.30563055,1.41027401

>  <Name>
ligand

>  <RI>
0

>  <Rbt.Current_Directory>
/home/itssahil/PROJECTS/Mol_Feturizer/New_Systems/rnas/3DIG

>  <Rbt.Executable>
rbdock ($Id: //depot/dev/client3/rdock/2013.1/src/exe/rbdock.cxx#4 $)

>  <Rbt.Library>
libRbt.so (2013.1, Build901 2013/11/27)

>  <Rbt.Parameter_File>
/export/apps/rDock/src/rDock_2013.1_src/data/scripts/dock_solv.prm

>  <Rbt.Receptor>
prm/pocket_docking_3.prm

>  <SCORE>
-12.0058

>  <SCORE.INTER>
-11.2583

>  <SCORE.INTER.CONST>
1

>  <SCORE.INTER.POLAR>
0

>  <SCORE.INTER.ROT>
5

>  <SCORE.INTER.SOLV>
14.446

>  <SCORE.INTER.VDW>
-19.2542

>  <SCORE.INTER.norm>
-1.12583

>  <SCORE.INTRA>
-0.747558

>  <SCORE.INTRA.DIHEDRAL>
-0.344364

>  <SCORE.INTRA.DIHEDRAL.0>
2.60093

>  <SCORE.INTRA.POLAR>
0

>  <SCORE.INTRA.POLAR.0>
0

>  <SCORE.INTRA.REPUL>
0

>  <SCORE.INTRA.REPUL.0>
0

>  <SCORE.INTRA.SOLV>
-1.35498

>  <SCORE.INTRA.SOLV.lig_0>
-33.7882

>  <SCORE.INTRA.VDW>
0.102117

>  <SCORE.INTRA.VDW.0>
-0.593976

>  <SCORE.INTRA.norm>
-0.0747558

>  <SCORE.RESTR>
0

>  <SCORE.RESTR.CAVITY>
0

>  <SCORE.RESTR.norm>
0

>  <SCORE.SYSTEM>
0

>  <SCORE.SYSTEM.CONST>
0

>  <SCORE.SYSTEM.DIHEDRAL>
0

>  <SCORE.SYSTEM.SOLV>
0

>  <SCORE.SYSTEM.norm>
0

>  <SCORE.heavy>
10

>  <SCORE.norm>
-1.20058

>  <RMSD>
5.550

$$$$
ligand
 OpenBabel11021811473D
libRbt.so/2013.1/901 2013/11/27
 10  9  0  0  0  0  0  0  0  0999 V2000
   26.3756   15.3428   20.4331 N   0  0  0  0  0  0  0  0  0  0  0  0
   27.8051   15.2949   20.0082 C   0  0  2  0  0  0  0  0  0  0  0  0
   27.9511   14.8153   18.5932 C   0  0  0  0  0  0  0  0  0  0  0  0
   27.4162   13.7752   18.2205 O   0  0  0  0  0  0  0  0  0  0  0  0
   28.6103   14.4457   20.9875 C   0  0  0  0  0  0  0  0  0  0  0  0
   28.5869   15.2515   22.5589 S   0  0  0  0  0  0  0  0  0  0  0  0
   30.3063   15.5550   22.8026 C   0  0  0  0  0  0  0  0  0  0  0  0
   30.7014   16.8031   22.0197 C   0  0  0  0  0  0  0  0  0  0  0  0
   32.1042   17.0950   22.2359 N   0  0  0  0  0  0  0  0  0  0  0  0
   28.5821   15.4352   17.7399 O   0  0  0  0  0  0  0  0  0  0  0  0
  2  1  1  1  0  0  0
  2  3  1  0  0  0  0
  2  5  1  0  0  0  0
  3  4  1  0  0  0  0
  3 10  1  0  0  0  0
  5  6  1  0  0  0  0
  6  7  1  0  0  0  0
  7  8  1  0  0  0  0
  8  9  1  0  0  0  0
M  END
>  <CHROM.1>
-51.53550606,-64.38928160,-118.75197529,80.86505833,178.36255126,28.81163785
15.35492399,20.75066861,2.27600434,-0.45001613,-1.60462484

>  <Name>
ligand

>  <RI>
0

>  <Rbt.Current_Directory>
/home/itssahil/PROJECTS/Mol_Feturizer/New_Systems/rnas/3DIG

>  <Rbt.Executable>
rbdock ($Id: //depot/dev/client3/rdock/2013.1/src/exe/rbdock.cxx#4 $)

>  <Rbt.Library>
libRbt.so (2013.1, Build901 2013/11/27)

>  <Rbt.Parameter_File>
/export/apps/rDock/src/rDock_2013.1_src/data/scripts/dock_solv.prm

>  <Rbt.Receptor>
prm/pocket_docking_6.prm

>  <SCORE>
-11.4771

>  <SCORE.INTER>
-11.7448

>  <SCORE.INTER.CONST>
1

>  <SCORE.INTER.POLAR>
0

>  <SCORE.INTER.ROT>
5

>  <SCORE.INTER.SOLV>
16.4202

>  <SCORE.INTER.VDW>
-20.2366

>  <SCORE.INTER.norm>
-1.17448

>  <SCORE.INTRA>
0.267723

>  <SCORE.INTRA.DIHEDRAL>
2.03358

>  <SCORE.INTRA.DIHEDRAL.0>
2.60093

>  <SCORE.INTRA.POLAR>
0

>  <SCORE.INTRA.POLAR.0>
0

>  <SCORE.INTRA.REPUL>
0

>  <SCORE.INTRA.REPUL.0>
0

>  <SCORE.INTRA.SOLV>
-0.634889

>  <SCORE.INTRA.SOLV.lig_0>
-33.7882

>  <SCORE.INTRA.VDW>
-0.431624

>  <SCORE.INTRA.VDW.0>
-0.593976

>  <SCORE.INTRA.norm>
0.0267723

>  <SCORE.RESTR>
0

>  <SCORE.RESTR.CAVITY>
0

>  <SCORE.RESTR.norm>
0

>  <SCORE.SYSTEM>
0

>  <SCORE.SYSTEM.CONST>
0

>  <SCORE.SYSTEM.DIHEDRAL>
0

>  <SCORE.SYSTEM.SOLV>
0

>  <SCORE.SYSTEM.norm>
0

>  <SCORE.heavy>
10

>  <SCORE.norm>
-1.14771

>  <RMSD>
5.550

$$$$
ligand
 OpenBabel11021811473D
libRbt.so/2013.1/901 2013/11/27
 10  9  0  0  0  0  0  0  0  0999 V2000
   27.1093   16.1981   20.2722 N   0  0  0  0  0  0  0  0  0  0  0  0
   28.2922   15.3888   19.8569 C   0  0  2  0  0  0  0  0  0  0  0  0
   28.1266   14.8271   18.4747 C   0  0  0  0  0  0  0  0  0  0  0  0
   28.7116   15.3239   17.5168 O   0  0  0  0  0  0  0  0  0  0  0  0
   28.5652   14.2993   20.8898 C   0  0  0  0  0  0  0  0  0  0  0  0
   29.3680   15.0461   22.2744 S   0  0  0  0  0  0  0  0  0  0  0  0
   30.9402   15.4339   21.5777 C   0  0  0  0  0  0  0  0  0  0  0  0
   31.7319   16.2654   22.5821 C   0  0  0  0  0  0  0  0  0  0  0  0
   32.9789   16.7000   21.9855 N   0  0  0  0  0  0  0  0  0  0  0  0
   27.4286   13.8448   18.2324 O   0  0  0  0  0  0  0  0  0  0  0  0
  2  1  1  1  0  0  0
  2  3  1  0  0  0  0
  2  5  1  0  0  0  0
  3  4  1  0  0  0  0
  3 10  1  0  0  0  0
  5  6  1  0  0  0  0
  6  7  1  0  0  0  0
  7  8  1  0  0  0  0
  8  9  1  0  0  0  0
M  END
>  <CHROM.1>
103.37950728,-77.54168844,-69.72654481,172.55670900,-174.79968483,29.32051621
15.28747128,20.54764976,2.38845187,-0.33755489,-1.54659287

>  <Name>
ligand

>  <RI>
0

>  <Rbt.Current_Directory>
/home/itssahil/PROJECTS/Mol_Feturizer/New_Systems/rnas/3DIG

>  <Rbt.Executable>
rbdock ($Id: //depot/dev/client3/rdock/2013.1/src/exe/rbdock.cxx#4 $)

>  <Rbt.Library>
libRbt.so (2013.1, Build901 2013/11/27)

>  <Rbt.Parameter_File>
/export/apps/rDock/src/rDock_2013.1_src/data/scripts/dock_solv.prm

>  <Rbt.Receptor>
prm/pocket_docking_7.prm

>  <SCORE>
-10.5954

>  <SCORE.INTER>
-10.2173

>  <SCORE.INTER.CONST>
1

>  <SCORE.INTER.POLAR>
0

>  <SCORE.INTER.ROT>
5

>  <SCORE.INTER.SOLV>
16.4389

>  <SCORE.INTER.VDW>
-19.2245

>  <SCORE.INTER.norm>
-1.02173

>  <SCORE.INTRA>
-0.378147

>  <SCORE.INTRA.DIHEDRAL>
0.270512

>  <SCORE.INTRA.DIHEDRAL.0>
2.60093

>  <SCORE.INTRA.POLAR>
0

>  <SCORE.INTRA.POLAR.0>
0

>  <SCORE.INTRA.REPUL>
0

>  <SCORE.INTRA.REPUL.0>
0

>  <SCORE.INTRA.SOLV>
-0.568712

>  <SCORE.INTRA.SOLV.lig_0>
-33.7882

>  <SCORE.INTRA.VDW>
-0.229047

>  <SCORE.INTRA.VDW.0>
-0.593976

>  <SCORE.INTRA.norm>
-0.0378147

>  <SCORE.RESTR>
0

>  <SCORE.RESTR.CAVITY>
0

>  <SCORE.RESTR.norm>
0

>  <SCORE.SYSTEM>
0

>  <SCORE.SYSTEM.CONST>
0

>  <SCORE.SYSTEM.DIHEDRAL>
0

>  <SCORE.SYSTEM.SOLV>
0

>  <SCORE.SYSTEM.norm>
0

>  <SCORE.heavy>
10

>  <SCORE.norm>
-1.05954

>  <RMSD>
5.550

$$$$
ligand
 OpenBabel11021811473D
libRbt.so/2013.1/901 2013/11/27
 10  9  0  0  0  0  0  0  0  0999 V2000
   26.3016   14.6999   21.1152 N   0  0  0  0  0  0  0  0  0  0  0  0
   27.2436   15.5072   20.2860 C   0  0  2  0  0  0  0  0  0  0  0  0
   27.7262   14.7439   19.0869 C   0  0  0  0  0  0  0  0  0  0  0  0
   27.2960   13.6217   18.8373 O   0  0  0  0  0  0  0  0  0  0  0  0
   28.3976   16.0083   21.1495 C   0  0  0  0  0  0  0  0  0  0  0  0
   29.1411   14.6116   21.9343 S   0  0  0  0  0  0  0  0  0  0  0  0
   30.6403   15.3233   22.5287 C   0  0  0  0  0  0  0  0  0  0  0  0
   31.5620   15.5910   21.3430 C   0  0  0  0  0  0  0  0  0  0  0  0
   32.7736   16.2415   21.7996 N   0  0  0  0  0  0  0  0  0  0  0  0
   28.5451   15.1988   18.2912 O   0  0  0  0  0  0  0  0  0  0  0  0
  2  1  1  1  0  0  0
  2  3  1  0  0  0  0
  2  5  1  0  0  0  0
  3  4  1  0  0  0  0
  3 10  1  0  0  0  0
  5  6  1  0  0  0  0
  6  7  1  0  0  0  0
  7  8  1  0  0  0  0
  8  9  1  0  0  0  0
M  END
>  <CHROM.1>
3.84349453,54.84683001,166.56968785,-71.77945785,177.00576684,28.98347429
15.07763505,20.75436850,2.62816571,-0.23589417,-1.59437443

>  <Name>
ligand

>  <RI>
0

>  <Rbt.Current_Directory>
/home/itssahil/PROJECTS/Mol_Feturizer/New_Systems/rnas/3DIG

>  <Rbt.Executable>
rbdock ($Id: //depot/dev/client3/rdock/2013.1/src/exe/rbdock.cxx#4 $)

>  <Rbt.Library>
libRbt.so (2013.1, Build901 2013/11/27)

>  <Rbt.Parameter_File>
/export/apps/rDock/src/rDock_2013.1_src/data/scripts/dock_solv.prm

>  <Rbt.Receptor>
prm/pocket_docking_5.prm

>  <SCORE>
-11.6883

>  <SCORE.INTER>
-11.2297

>  <SCORE.INTER.CONST>
1

>  <SCORE.INTER.POLAR>
0

>  <SCORE.INTER.ROT>
5

>  <SCORE.INTER.SOLV>
18.0859

>  <SCORE.INTER.VDW>
-20.4484

>  <SCORE.INTER.norm>
-1.12297

>  <SCORE.INTRA>
-0.458638

>  <SCORE.INTRA.DIHEDRAL>
-0.480968

>  <SCORE.INTRA.DIHEDRAL.0>
2.60093

>  <SCORE.INTRA.POLAR>
0

>  <SCORE.INTRA.POLAR.0>
0

>  <SCORE.INTRA.REPUL>
0

>  <SCORE.INTRA.REPUL.0>
0

>  <SCORE.INTRA.SOLV>
-0.37561

>  <SCORE.INTRA.SOLV.lig_0>
-33.7882

>  <SCORE.INTRA.VDW>
-0.0303489

>  <SCORE.INTRA.VDW.0>
-0.593976

>  <SCORE.INTRA.norm>
-0.0458638

>  <SCORE.RESTR>
0

>  <SCORE.RESTR.CAVITY>
0

>  <SCORE.RESTR.norm>
0

>  <SCORE.SYSTEM>
0

>  <SCORE.SYSTEM.CONST>
0

>  <SCORE.SYSTEM.DIHEDRAL>
0

>  <SCORE.SYSTEM.SOLV>
0

>  <SCORE.SYSTEM.norm>
0

>  <SCORE.heavy>
10

>  <SCORE.norm>
-1.16883

>  <RMSD>
5.551

$$$$
ligand
 OpenBabel11021811473D
libRbt.so/2013.1/901 2013/11/27
 10  9  0  0  0  0  0  0  0  0999 V2000
   29.0415   16.8485   20.8616 N   0  0  0  0  0  0  0  0  0  0  0  0
   28.8654   15.3914   21.1308 C   0  0  2  0  0  0  0  0  0  0  0  0
   27.4679   15.0710   21.5755 C   0  0  0  0  0  0  0  0  0  0  0  0
   26.6016   14.7623   20.7626 O   0  0  0  0  0  0  0  0  0  0  0  0
   29.9102   14.9188   22.1375 C   0  0  0  0  0  0  0  0  0  0  0  0
   31.5081   15.1804   21.4322 S   0  0  0  0  0  0  0  0  0  0  0  0
   32.0419   16.5975   22.3348 C   0  0  0  0  0  0  0  0  0  0  0  0
   33.4095   17.0268   21.8130 C   0  0  0  0  0  0  0  0  0  0  0  0
   33.8664   18.1963   22.5365 N   0  0  0  0  0  0  0  0  0  0  0  0
   27.1249   15.0772   22.7558 O   0  0  0  0  0  0  0  0  0  0  0  0
  2  1  1  1  0  0  0
  2  3  1  0  0  0  0
  2  5  1  0  0  0  0
  3  4  1  0  0  0  0
  3 10  1  0  0  0  0
  5  6  1  0  0  0  0
  6  7  1  0  0  0  0
  7  8  1  0  0  0  0
  8  9  1  0  0  0  0
M  END
>  <CHROM.1>
91.30289279,-61.30714704,104.74435650,-177.41090984,179.70055012,30.11763830
15.81366822,21.70631279,2.80289165,0.03463889,-2.96644921

>  <Name>
ligand

>  <RI>
0

>  <Rbt.Current_Directory>
/home/itssahil/PROJECTS/Mol_Feturizer/New_Systems/rnas/3DIG

>  <Rbt.Executable>
rbdock ($Id: //depot/dev/client3/rdock/2013.1/src/exe/rbdock.cxx#4 $)

>  <Rbt.Library>
libRbt.so (2013.1, Build901 2013/11/27)

>  <Rbt.Parameter_File>
/export/apps/rDock/src/rDock_2013.1_src/data/scripts/dock_solv.prm

>  <Rbt.Receptor>
prm/pocket_docking_4.prm

>  <SCORE>
-9.5976

>  <SCORE.INTER>
-10.0617

>  <SCORE.INTER.CONST>
1

>  <SCORE.INTER.POLAR>
0

>  <SCORE.INTER.ROT>
5

>  <SCORE.INTER.SOLV>
16.1021

>  <SCORE.INTER.VDW>
-19.0085

>  <SCORE.INTER.norm>
-1.00617

>  <SCORE.INTRA>
0.464133

>  <SCORE.INTRA.DIHEDRAL>
0.999354

>  <SCORE.INTRA.DIHEDRAL.0>
2.60093

>  <SCORE.INTRA.POLAR>
0

>  <SCORE.INTRA.POLAR.0>
0

>  <SCORE.INTRA.REPUL>
0

>  <SCORE.INTRA.REPUL.0>
0

>  <SCORE.INTRA.SOLV>
0.28972

>  <SCORE.INTRA.SOLV.lig_0>
-33.7882

>  <SCORE.INTRA.VDW>
-0.180404

>  <SCORE.INTRA.VDW.0>
-0.593976

>  <SCORE.INTRA.norm>
0.0464133

>  <SCORE.RESTR>
0

>  <SCORE.RESTR.CAVITY>
0

>  <SCORE.RESTR.norm>
0

>  <SCORE.SYSTEM>
0

>  <SCORE.SYSTEM.CONST>
0

>  <SCORE.SYSTEM.DIHEDRAL>
0

>  <SCORE.SYSTEM.SOLV>
0

>  <SCORE.SYSTEM.norm>
0

>  <SCORE.heavy>
10

>  <SCORE.norm>
-0.95976

>  <RMSD>
5.552

$$$$
ligand
 OpenBabel11021811473D
libRbt.so/2013.1/901 2013/11/27
 10  9  0  0  0  0  0  0  0  0999 V2000
   25.9754   14.8865   21.0054 N   0  0  0  0  0  0  0  0  0  0  0  0
   27.2718   15.5112   20.6109 C   0  0  2  0  0  0  0  0  0  0  0  0
   27.7468   15.0154   19.2760 C   0  0  0  0  0  0  0  0  0  0  0  0
   28.4864   15.6996   18.5748 O   0  0  0  0  0  0  0  0  0  0  0  0
   28.3100   15.2908   21.7072 C   0  0  0  0  0  0  0  0  0  0  0  0
   29.6993   16.3252   21.3618 S   0  0  0  0  0  0  0  0  0  0  0  0
   30.8522   15.7455   22.5629 C   0  0  0  0  0  0  0  0  0  0  0  0
   32.1295   16.5729   22.4583 C   0  0  0  0  0  0  0  0  0  0  0  0
   32.7592   16.3440   21.1734 N   0  0  0  0  0  0  0  0  0  0  0  0
   27.4470   13.9104   18.8290 O   0  0  0  0  0  0  0  0  0  0  0  0
  2  1  1  1  0  0  0
  2  3  1  0  0  0  0
  2  5  1  0  0  0  0
  3  4  1  0  0  0  0
  3 10  1  0  0  0  0
  5  6  1  0  0  0  0
  6  7  1  0  0  0  0
  7  8  1  0  0  0  0
  8  9  1  0  0  0  0
M  END
>  <CHROM.1>
154.18541262,-168.11106089,-171.53787228,-177.79601709,-64.93277748,29.14001795
15.60886735,20.79325400,2.65785802,-0.23932227,-1.74006750

>  <Name>
ligand

>  <RI>
0

>  <Rbt.Current_Directory>
/home/itssahil/PROJECTS/Mol_Feturizer/New_Systems/rnas/3DIG

>  <Rbt.Executable>
rbdock ($Id: //depot/dev/client3/rdock/2013.1/src/exe/rbdock.cxx#4 $)

>  <Rbt.Library>
libRbt.so (2013.1, Build901 2013/11/27)

>  <Rbt.Parameter_File>
/export/apps/rDock/src/rDock_2013.1_src/data/scripts/dock_solv.prm

>  <Rbt.Receptor>
prm/pocket_docking_6.prm

>  <SCORE>
-10.6138

>  <SCORE.INTER>
-9.59082

>  <SCORE.INTER.CONST>
1

>  <SCORE.INTER.POLAR>
0

>  <SCORE.INTER.ROT>
5

>  <SCORE.INTER.SOLV>
18.2908

>  <SCORE.INTER.VDW>
-19.4242

>  <SCORE.INTER.norm>
-0.959082

>  <SCORE.INTRA>
-1.02301

>  <SCORE.INTRA.DIHEDRAL>
-0.428065

>  <SCORE.INTRA.DIHEDRAL.0>
2.60093

>  <SCORE.INTRA.POLAR>
0

>  <SCORE.INTRA.POLAR.0>
0

>  <SCORE.INTRA.REPUL>
0

>  <SCORE.INTRA.REPUL.0>
0

>  <SCORE.INTRA.SOLV>
-0.702417

>  <SCORE.INTRA.SOLV.lig_0>
-33.7882

>  <SCORE.INTRA.VDW>
-0.457774

>  <SCORE.INTRA.VDW.0>
-0.593976

>  <SCORE.INTRA.norm>
-0.102301

>  <SCORE.RESTR>
0

>  <SCORE.RESTR.CAVITY>
0

>  <SCORE.RESTR.norm>
0

>  <SCORE.SYSTEM>
0

>  <SCORE.SYSTEM.CONST>
0

>  <SCORE.SYSTEM.DIHEDRAL>
0

>  <SCORE.SYSTEM.SOLV>
0

>  <SCORE.SYSTEM.norm>
0

>  <SCORE.heavy>
10

>  <SCORE.norm>
-1.06138

>  <RMSD>
5.553

$$$$
ligand
 OpenBabel11021811473D
libRbt.so/2013.1/901 2013/11/27
 10  9  0  0  0  0  0  0  0  0999 V2000
   26.2975   14.7076   21.0974 N   0  0  0  0  0  0  0  0  0  0  0  0
   27.2381   15.5195   20.2712 C   0  0  2  0  0  0  0  0  0  0  0  0
   27.7138   14.7653   19.0636 C   0  0  0  0  0  0  0  0  0  0  0  0
   27.3219   13.6244   18.8367 O   0  0  0  0  0  0  0  0  0  0  0  0
   28.3970   16.0103   21.1341 C   0  0  0  0  0  0  0  0  0  0  0  0
   29.1498   14.6037   21.8917 S   0  0  0  0  0  0  0  0  0  0  0  0
   30.6527   15.3096   22.4840 C   0  0  0  0  0  0  0  0  0  0  0  0
   31.5634   15.5974   21.2947 C   0  0  0  0  0  0  0  0  0  0  0  0
   32.7722   16.2548   21.7492 N   0  0  0  0  0  0  0  0  0  0  0  0
   28.4884   15.2455   18.2389 O   0  0  0  0  0  0  0  0  0  0  0  0
  2  1  1  1  0  0  0
  2  3  1  0  0  0  0
  2  5  1  0  0  0  0
  3  4  1  0  0  0  0
  3 10  1  0  0  0  0
  5  6  1  0  0  0  0
  6  7  1  0  0  0  0
  7  8  1  0  0  0  0
  8  9  1  0  0  0  0
M  END
>  <CHROM.1>
0.76874684,55.37957791,166.48010014,-71.75282395,176.47754270,28.98144196
15.08500461,20.72196639,2.63693957,-0.23980670,-1.57815438

>  <Name>
ligand

>  <RI>
0

>  <Rbt.Current_Directory>
/home/itssahil/PROJECTS/Mol_Feturizer/New_Systems/rnas/3DIG

>  <Rbt.Executable>
rbdock ($Id: //depot/dev/client3/rdock/2013.1/src/exe/rbdock.cxx#4 $)

>  <Rbt.Library>
libRbt.so (2013.1, Build901 2013/11/27)

>  <Rbt.Parameter_File>
/export/apps/rDock/src/rDock_2013.1_src/data/scripts/dock_solv.prm

>  <Rbt.Receptor>
prm/pocket_docking_6.prm

>  <SCORE>
-11.7067

>  <SCORE.INTER>
-11.22

>  <SCORE.INTER.CONST>
1

>  <SCORE.INTER.POLAR>
0

>  <SCORE.INTER.ROT>
5

>  <SCORE.INTER.SOLV>
17.9947

>  <SCORE.INTER.VDW>
-20.4116

>  <SCORE.INTER.norm>
-1.122

>  <SCORE.INTRA>
-0.486611

>  <SCORE.INTRA.DIHEDRAL>
-0.475236

>  <SCORE.INTRA.DIHEDRAL.0>
2.60093

>  <SCORE.INTRA.POLAR>
0

>  <SCORE.INTRA.POLAR.0>
0

>  <SCORE.INTRA.REPUL>
0

>  <SCORE.INTRA.REPUL.0>
0

>  <SCORE.INTRA.SOLV>
-0.378065

>  <SCORE.INTRA.SOLV.lig_0>
-33.7882

>  <SCORE.INTRA.VDW>
-0.0599599

>  <SCORE.INTRA.VDW.0>
-0.593976

>  <SCORE.INTRA.norm>
-0.0486611

>  <SCORE.RESTR>
0

>  <SCORE.RESTR.CAVITY>
0

>  <SCORE.RESTR.norm>
0

>  <SCORE.SYSTEM>
0

>  <SCORE.SYSTEM.CONST>
0

>  <SCORE.SYSTEM.DIHEDRAL>
0

>  <SCORE.SYSTEM.SOLV>
0

>  <SCORE.SYSTEM.norm>
0

>  <SCORE.heavy>
10

>  <SCORE.norm>
-1.17067

>  <RMSD>
5.554

$$$$
ligand
 OpenBabel11021811473D
libRbt.so/2013.1/901 2013/11/27
 10  9  0  0  0  0  0  0  0  0999 V2000
   26.1360   14.8153   20.9402 N   0  0  0  0  0  0  0  0  0  0  0  0
   27.1679   15.5670   20.1678 C   0  0  2  0  0  0  0  0  0  0  0  0
   27.6848   14.7705   19.0051 C   0  0  0  0  0  0  0  0  0  0  0  0
   28.4553   15.2696   18.1903 O   0  0  0  0  0  0  0  0  0  0  0  0
   28.2899   16.0160   21.0995 C   0  0  0  0  0  0  0  0  0  0  0  0
   28.9879   14.5773   21.8493 S   0  0  0  0  0  0  0  0  0  0  0  0
   30.5240   15.2175   22.4308 C   0  0  0  0  0  0  0  0  0  0  0  0
   31.4181   15.5164   21.2316 C   0  0  0  0  0  0  0  0  0  0  0  0
   32.6513   16.1316   21.6794 N   0  0  0  0  0  0  0  0  0  0  0  0
   27.3900   13.5918   18.8195 O   0  0  0  0  0  0  0  0  0  0  0  0
  2  1  1  1  0  0  0
  2  3  1  0  0  0  0
  2  5  1  0  0  0  0
  3  4  1  0  0  0  0
  3 10  1  0  0  0  0
  5  6  1  0  0  0  0
  6  7  1  0  0  0  0
  7  8  1  0  0  0  0
  8  9  1  0  0  0  0
M  END
>  <CHROM.1>
173.75018648,58.84030684,162.51527552,-69.69514054,176.01557382,28.88599679
15.06699477,20.66066612,2.62838957,-0.20433371,-1.59294889

>  <Name>
ligand

>  <RI>
0

>  <Rbt.Current_Directory>
/home/itssahil/PROJECTS/Mol_Feturizer/New_Systems/rnas/3DIG

>  <Rbt.Executable>
rbdock ($Id: //depot/dev/client3/rdock/2013.1/src/exe/rbdock.cxx#4 $)

>  <Rbt.Library>
libRbt.so (2013.1, Build901 2013/11/27)

>  <Rbt.Parameter_File>
/export/apps/rDock/src/rDock_2013.1_src/data/scripts/dock_solv.prm

>  <Rbt.Receptor>
prm/pocket_docking_6.prm

>  <SCORE>
-11.7786

>  <SCORE.INTER>
-11.1968

>  <SCORE.INTER.CONST>
1

>  <SCORE.INTER.POLAR>
0

>  <SCORE.INTER.ROT>
5

>  <SCORE.INTER.SOLV>
18.2352

>  <SCORE.INTER.VDW>
-20.4763

>  <SCORE.INTER.norm>
-1.11968

>  <SCORE.INTRA>
-0.581806

>  <SCORE.INTRA.DIHEDRAL>
-0.434485

>  <SCORE.INTRA.DIHEDRAL.0>
2.60093

>  <SCORE.INTRA.POLAR>
0

>  <SCORE.INTRA.POLAR.0>
0

>  <SCORE.INTRA.REPUL>
0

>  <SCORE.INTRA.REPUL.0>
0

>  <SCORE.INTRA.SOLV>
-0.426519

>  <SCORE.INTRA.SOLV.lig_0>
-33.7882

>  <SCORE.INTRA.VDW>
-0.151304

>  <SCORE.INTRA.VDW.0>
-0.593976

>  <SCORE.INTRA.norm>
-0.0581806

>  <SCORE.RESTR>
0

>  <SCORE.RESTR.CAVITY>
0

>  <SCORE.RESTR.norm>
0

>  <SCORE.SYSTEM>
0

>  <SCORE.SYSTEM.CONST>
0

>  <SCORE.SYSTEM.DIHEDRAL>
0

>  <SCORE.SYSTEM.SOLV>
0

>  <SCORE.SYSTEM.norm>
0

>  <SCORE.heavy>
10

>  <SCORE.norm>
-1.17786

>  <RMSD>
5.554

$$$$
ligand
 OpenBabel11021811473D
libRbt.so/2013.1/901 2013/11/27
 10  9  0  0  0  0  0  0  0  0999 V2000
   28.0296   14.4235   19.0245 N   0  0  0  0  0  0  0  0  0  0  0  0
   28.2776   14.5546   20.4901 C   0  0  2  0  0  0  0  0  0  0  0  0
   27.0130   14.8411   21.2466 C   0  0  0  0  0  0  0  0  0  0  0  0
   26.9775   14.7608   22.4709 O   0  0  0  0  0  0  0  0  0  0  0  0
   29.3493   15.6108   20.7435 C   0  0  0  0  0  0  0  0  0  0  0  0
   29.8741   15.4665   22.4237 S   0  0  0  0  0  0  0  0  0  0  0  0
   31.0665   16.7619   22.5120 C   0  0  0  0  0  0  0  0  0  0  0  0
   32.3141   16.3353   21.7448 C   0  0  0  0  0  0  0  0  0  0  0  0
   33.3120   17.3842   21.8075 N   0  0  0  0  0  0  0  0  0  0  0  0
   25.9698   15.1871   20.6965 O   0  0  0  0  0  0  0  0  0  0  0  0
  2  1  1  6  0  0  0
  2  3  1  0  0  0  0
  2  5  1  0  0  0  0
  3  4  1  0  0  0  0
  3 10  1  0  0  0  0
  5  6  1  0  0  0  0
  6  7  1  0  0  0  0
  7  8  1  0  0  0  0
  8  9  1  0  0  0  0
M  END
>  <CHROM.1>
167.72326063,-166.99839535,-179.18238385,-72.89300107,-179.79925486,29.25812876
15.52610832,21.45446767,-2.87410021,0.31092424,1.40242406

>  <Name>
ligand

>  <RI>
0

>  <Rbt.Current_Directory>
/home/itssahil/PROJECTS/Mol_Feturizer/New_Systems/rnas/3DIG

>  <Rbt.Executable>
rbdock ($Id: //depot/dev/client3/rdock/2013.1/src/exe/rbdock.cxx#4 $)

>  <Rbt.Library>
libRbt.so (2013.1, Build901 2013/11/27)

>  <Rbt.Parameter_File>
/export/apps/rDock/src/rDock_2013.1_src/data/scripts/dock_solv.prm

>  <Rbt.Receptor>
prm/pocket_docking_7.prm

>  <SCORE>
-12.0223

>  <SCORE.INTER>
-11.2069

>  <SCORE.INTER.CONST>
1

>  <SCORE.INTER.POLAR>
0

>  <SCORE.INTER.ROT>
5

>  <SCORE.INTER.SOLV>
14.4201

>  <SCORE.INTER.VDW>
-19.2113

>  <SCORE.INTER.norm>
-1.12069

>  <SCORE.INTRA>
-0.815425

>  <SCORE.INTRA.DIHEDRAL>
-0.27086

>  <SCORE.INTRA.DIHEDRAL.0>
2.60093

>  <SCORE.INTRA.POLAR>
0

>  <SCORE.INTRA.POLAR.0>
0

>  <SCORE.INTRA.REPUL>
0

>  <SCORE.INTRA.REPUL.0>
0

>  <SCORE.INTRA.SOLV>
-1.36421

>  <SCORE.INTRA.SOLV.lig_0>
-33.7882

>  <SCORE.INTRA.VDW>
0.0021113

>  <SCORE.INTRA.VDW.0>
-0.593976

>  <SCORE.INTRA.norm>
-0.0815425

>  <SCORE.RESTR>
0

>  <SCORE.RESTR.CAVITY>
0

>  <SCORE.RESTR.norm>
0

>  <SCORE.SYSTEM>
0

>  <SCORE.SYSTEM.CONST>
0

>  <SCORE.SYSTEM.DIHEDRAL>
0

>  <SCORE.SYSTEM.SOLV>
0

>  <SCORE.SYSTEM.norm>
0

>  <SCORE.heavy>
10

>  <SCORE.norm>
-1.20223

>  <RMSD>
5.554

$$$$
ligand
 OpenBabel11021811473D
libRbt.so/2013.1/901 2013/11/27
 10  9  0  0  0  0  0  0  0  0999 V2000
   26.2962   14.7006   21.0960 N   0  0  0  0  0  0  0  0  0  0  0  0
   27.2366   15.5138   20.2709 C   0  0  2  0  0  0  0  0  0  0  0  0
   27.7127   14.7612   19.0625 C   0  0  0  0  0  0  0  0  0  0  0  0
   27.3336   13.6147   18.8426 O   0  0  0  0  0  0  0  0  0  0  0  0
   28.3952   16.0039   21.1346 C   0  0  0  0  0  0  0  0  0  0  0  0
   29.1492   14.5965   21.8895 S   0  0  0  0  0  0  0  0  0  0  0  0
   30.6559   15.3003   22.4747 C   0  0  0  0  0  0  0  0  0  0  0  0
   31.5468   15.6201   21.2785 C   0  0  0  0  0  0  0  0  0  0  0  0
   32.7660   16.2593   21.7310 N   0  0  0  0  0  0  0  0  0  0  0  0
   28.4750   15.2481   18.2303 O   0  0  0  0  0  0  0  0  0  0  0  0
  2  1  1  1  0  0  0
  2  3  1  0  0  0  0
  2  5  1  0  0  0  0
  3  4  1  0  0  0  0
  3 10  1  0  0  0  0
  5  6  1  0  0  0  0
  6  7  1  0  0  0  0
  7  8  1  0  0  0  0
  8  9  1  0  0  0  0
M  END
>  <CHROM.1>
-0.10791290,55.42554093,166.16385087,-70.27805928,177.27650277,28.97894502
15.08245317,20.71719024,2.63991765,-0.24484448,-1.57307624

>  <Name>
ligand

>  <RI>
0

>  <Rbt.Current_Directory>
/home/itssahil/PROJECTS/Mol_Feturizer/New_Systems/rnas/3DIG

>  <Rbt.Executable>
rbdock ($Id: //depot/dev/client3/rdock/2013.1/src/exe/rbdock.cxx#4 $)

>  <Rbt.Library>
libRbt.so (2013.1, Build901 2013/11/27)

>  <Rbt.Parameter_File>
/export/apps/rDock/src/rDock_2013.1_src/data/scripts/dock_solv.prm

>  <Rbt.Receptor>
prm/pocket_docking_8.prm

>  <SCORE>
-11.6966

>  <SCORE.INTER>
-11.2148

>  <SCORE.INTER.CONST>
1

>  <SCORE.INTER.POLAR>
0

>  <SCORE.INTER.ROT>
5

>  <SCORE.INTER.SOLV>
17.9637

>  <SCORE.INTER.VDW>
-20.3978

>  <SCORE.INTER.norm>
-1.12148

>  <SCORE.INTRA>
-0.481735

>  <SCORE.INTRA.DIHEDRAL>
-0.530783

>  <SCORE.INTRA.DIHEDRAL.0>
2.60093

>  <SCORE.INTRA.POLAR>
0

>  <SCORE.INTRA.POLAR.0>
0

>  <SCORE.INTRA.REPUL>
0

>  <SCORE.INTRA.REPUL.0>
0

>  <SCORE.INTRA.SOLV>
-0.374163

>  <SCORE.INTRA.SOLV.lig_0>
-33.7882

>  <SCORE.INTRA.VDW>
-0.0292618

>  <SCORE.INTRA.VDW.0>
-0.593976

>  <SCORE.INTRA.norm>
-0.0481735

>  <SCORE.RESTR>
0

>  <SCORE.RESTR.CAVITY>
0

>  <SCORE.RESTR.norm>
0

>  <SCORE.SYSTEM>
0

>  <SCORE.SYSTEM.CONST>
0

>  <SCORE.SYSTEM.DIHEDRAL>
0

>  <SCORE.SYSTEM.SOLV>
0

>  <SCORE.SYSTEM.norm>
0

>  <SCORE.heavy>
10

>  <SCORE.norm>
-1.16966

>  <RMSD>
5.554

$$$$
ligand
 OpenBabel11021811473D
libRbt.so/2013.1/901 2013/11/27
 10  9  0  0  0  0  0  0  0  0999 V2000
   28.0550   14.4225   18.9941 N   0  0  0  0  0  0  0  0  0  0  0  0
   28.1829   14.4261   20.4807 C   0  0  2  0  0  0  0  0  0  0  0  0
   26.9067   14.8469   21.1497 C   0  0  0  0  0  0  0  0  0  0  0  0
   26.7661   14.7422   22.3646 O   0  0  0  0  0  0  0  0  0  0  0  0
   29.3639   15.2974   20.8988 C   0  0  0  0  0  0  0  0  0  0  0  0
   29.6520   15.0393   22.6220 S   0  0  0  0  0  0  0  0  0  0  0  0
   31.2820   15.6900   22.7877 C   0  0  0  0  0  0  0  0  0  0  0  0
   31.2499   17.1829   22.4761 C   0  0  0  0  0  0  0  0  0  0  0  0
   32.5896   17.7298   22.5530 N   0  0  0  0  0  0  0  0  0  0  0  0
   25.9588   15.3309   20.5350 O   0  0  0  0  0  0  0  0  0  0  0  0
  2  1  1  6  0  0  0
  2  3  1  0  0  0  0
  2  5  1  0  0  0  0
  3  4  1  0  0  0  0
  3 10  1  0  0  0  0
  5  6  1  0  0  0  0
  6  7  1  0  0  0  0
  7  8  1  0  0  0  0
  8  9  1  0  0  0  0
M  END
>  <CHROM.1>
170.36966807,-169.95056426,163.15522595,64.06265926,-177.70186576,29.04042161
15.42553176,21.62475396,-2.75234281,0.37242092,1.51252879

>  <Name>
ligand

>  <RI>
0

>  <Rbt.Current_Directory>
/home/itssahil/PROJECTS/Mol_Feturizer/New_Systems/rnas/3DIG

>  <Rbt.Executable>
rbdock ($Id: //depot/dev/client3/rdock/2013.1/src/exe/rbdock.cxx#4 $)

>  <Rbt.Library>
libRbt.so (2013.1, Build901 2013/11/27)

>  <Rbt.Parameter_File>
/export/apps/rDock/src/rDock_2013.1_src/data/scripts/dock_solv.prm

>  <Rbt.Receptor>
prm/pocket_docking_3.prm

>  <SCORE>
-12.1187

>  <SCORE.INTER>
-11.7545

>  <SCORE.INTER.CONST>
1

>  <SCORE.INTER.POLAR>
0

>  <SCORE.INTER.ROT>
5

>  <SCORE.INTER.SOLV>
14.252

>  <SCORE.INTER.VDW>
-19.5203

>  <SCORE.INTER.norm>
-1.17545

>  <SCORE.INTRA>
-0.364256

>  <SCORE.INTRA.DIHEDRAL>
-0.275825

>  <SCORE.INTRA.DIHEDRAL.0>
2.60093

>  <SCORE.INTRA.POLAR>
0

>  <SCORE.INTRA.POLAR.0>
0

>  <SCORE.INTRA.REPUL>
0

>  <SCORE.INTRA.REPUL.0>
0

>  <SCORE.INTRA.SOLV>
-1.28066

>  <SCORE.INTRA.SOLV.lig_0>
-33.7882

>  <SCORE.INTRA.VDW>
0.413986

>  <SCORE.INTRA.VDW.0>
-0.593976

>  <SCORE.INTRA.norm>
-0.0364256

>  <SCORE.RESTR>
0

>  <SCORE.RESTR.CAVITY>
0

>  <SCORE.RESTR.norm>
0

>  <SCORE.SYSTEM>
0

>  <SCORE.SYSTEM.CONST>
0

>  <SCORE.SYSTEM.DIHEDRAL>
0

>  <SCORE.SYSTEM.SOLV>
0

>  <SCORE.SYSTEM.norm>
0

>  <SCORE.heavy>
10

>  <SCORE.norm>
-1.21187

>  <RMSD>
5.555

$$$$
ligand
 OpenBabel11021811473D
libRbt.so/2013.1/901 2013/11/27
 10  9  0  0  0  0  0  0  0  0999 V2000
   26.2799   14.6860   21.0807 N   0  0  0  0  0  0  0  0  0  0  0  0
   27.2289   15.4987   20.2650 C   0  0  2  0  0  0  0  0  0  0  0  0
   27.7231   14.7427   19.0659 C   0  0  0  0  0  0  0  0  0  0  0  0
   27.2732   13.6350   18.7881 O   0  0  0  0  0  0  0  0  0  0  0  0
   28.3747   15.9954   21.1419 C   0  0  0  0  0  0  0  0  0  0  0  0
   29.1314   14.5918   21.9013 S   0  0  0  0  0  0  0  0  0  0  0  0
   30.6291   15.3043   22.4989 C   0  0  0  0  0  0  0  0  0  0  0  0
   31.5528   15.5729   21.3150 C   0  0  0  0  0  0  0  0  0  0  0  0
   32.7793   16.1896   21.7790 N   0  0  0  0  0  0  0  0  0  0  0  0
   28.5717   15.1904   18.2976 O   0  0  0  0  0  0  0  0  0  0  0  0
  2  1  1  1  0  0  0
  2  3  1  0  0  0  0
  2  5  1  0  0  0  0
  3  4  1  0  0  0  0
  3 10  1  0  0  0  0
  5  6  1  0  0  0  0
  6  7  1  0  0  0  0
  7  8  1  0  0  0  0
  8  9  1  0  0  0  0
M  END
>  <CHROM.1>
5.57125762,55.91009666,165.96675746,-72.79306042,178.61770963,28.97525035
15.06315859,20.72952552,2.63099422,-0.22717539,-1.59790646

>  <Name>
ligand

>  <RI>
0

>  <Rbt.Current_Directory>
/home/itssahil/PROJECTS/Mol_Feturizer/New_Systems/rnas/3DIG

>  <Rbt.Executable>
rbdock ($Id: //depot/dev/client3/rdock/2013.1/src/exe/rbdock.cxx#4 $)

>  <Rbt.Library>
libRbt.so (2013.1, Build901 2013/11/27)

>  <Rbt.Parameter_File>
/export/apps/rDock/src/rDock_2013.1_src/data/scripts/dock_solv.prm

>  <Rbt.Receptor>
prm/pocket_docking_3.prm

>  <SCORE>
-11.6553

>  <SCORE.INTER>
-11.152

>  <SCORE.INTER.CONST>
1

>  <SCORE.INTER.POLAR>
0

>  <SCORE.INTER.ROT>
5

>  <SCORE.INTER.SOLV>
18.1813

>  <SCORE.INTER.VDW>
-20.4284

>  <SCORE.INTER.norm>
-1.1152

>  <SCORE.INTRA>
-0.503283

>  <SCORE.INTRA.DIHEDRAL>
-0.481287

>  <SCORE.INTRA.DIHEDRAL.0>
2.60093

>  <SCORE.INTRA.POLAR>
0

>  <SCORE.INTRA.POLAR.0>
0

>  <SCORE.INTRA.REPUL>
0

>  <SCORE.INTRA.REPUL.0>
0

>  <SCORE.INTRA.SOLV>
-0.411318

>  <SCORE.INTRA.SOLV.lig_0>
-33.7882

>  <SCORE.INTRA.VDW>
-0.056981

>  <SCORE.INTRA.VDW.0>
-0.593976

>  <SCORE.INTRA.norm>
-0.0503283

>  <SCORE.RESTR>
0

>  <SCORE.RESTR.CAVITY>
0

>  <SCORE.RESTR.norm>
0

>  <SCORE.SYSTEM>
0

>  <SCORE.SYSTEM.CONST>
0

>  <SCORE.SYSTEM.DIHEDRAL>
0

>  <SCORE.SYSTEM.SOLV>
0

>  <SCORE.SYSTEM.norm>
0

>  <SCORE.heavy>
10

>  <SCORE.norm>
-1.16553

>  <RMSD>
5.555

$$$$
ligand
 OpenBabel11021811473D
libRbt.so/2013.1/901 2013/11/27
 10  9  0  0  0  0  0  0  0  0999 V2000
   26.9967   16.1257   20.2769 N   0  0  0  0  0  0  0  0  0  0  0  0
   28.2172   15.3649   19.8794 C   0  0  2  0  0  0  0  0  0  0  0  0
   28.0883   14.7832   18.5016 C   0  0  0  0  0  0  0  0  0  0  0  0
   28.6759   15.2837   17.5472 O   0  0  0  0  0  0  0  0  0  0  0  0
   28.5286   14.2984   20.9254 C   0  0  0  0  0  0  0  0  0  0  0  0
   29.1942   15.1049   22.3487 S   0  0  0  0  0  0  0  0  0  0  0  0
   30.7772   15.5921   21.7449 C   0  0  0  0  0  0  0  0  0  0  0  0
   31.3642   16.6360   22.6897 C   0  0  0  0  0  0  0  0  0  0  0  0
   32.6402   17.0970   22.1807 N   0  0  0  0  0  0  0  0  0  0  0  0
   27.4193   13.7808   18.2601 O   0  0  0  0  0  0  0  0  0  0  0  0
  2  1  1  1  0  0  0
  2  3  1  0  0  0  0
  2  5  1  0  0  0  0
  3  4  1  0  0  0  0
  3 10  1  0  0  0  0
  5  6  1  0  0  0  0
  6  7  1  0  0  0  0
  7  8  1  0  0  0  0
  8  9  1  0  0  0  0
M  END
>  <CHROM.1>
104.52255425,-74.09870575,-71.05342764,164.51279849,-177.41041830,29.18228502
15.35865866,20.61724669,2.35534230,-0.44369768,-1.55135817

>  <Name>
ligand

>  <RI>
0

>  <Rbt.Current_Directory>
/home/itssahil/PROJECTS/Mol_Feturizer/New_Systems/rnas/3DIG

>  <Rbt.Executable>
rbdock ($Id: //depot/dev/client3/rdock/2013.1/src/exe/rbdock.cxx#4 $)

>  <Rbt.Library>
libRbt.so (2013.1, Build901 2013/11/27)

>  <Rbt.Parameter_File>
/export/apps/rDock/src/rDock_2013.1_src/data/scripts/dock_solv.prm

>  <Rbt.Receptor>
prm/pocket_docking_5.prm

>  <SCORE>
-10.5915

>  <SCORE.INTER>
-10.1854

>  <SCORE.INTER.CONST>
1

>  <SCORE.INTER.POLAR>
0

>  <SCORE.INTER.ROT>
5

>  <SCORE.INTER.SOLV>
15.7053

>  <SCORE.INTER.VDW>
-18.9587

>  <SCORE.INTER.norm>
-1.01854

>  <SCORE.INTRA>
-0.406027

>  <SCORE.INTRA.DIHEDRAL>
0.180754

>  <SCORE.INTRA.DIHEDRAL.0>
2.60093

>  <SCORE.INTRA.POLAR>
0

>  <SCORE.INTRA.POLAR.0>
0

>  <SCORE.INTRA.REPUL>
0

>  <SCORE.INTRA.REPUL.0>
0

>  <SCORE.INTRA.SOLV>
-0.511962

>  <SCORE.INTRA.SOLV.lig_0>
-33.7882

>  <SCORE.INTRA.VDW>
-0.240423

>  <SCORE.INTRA.VDW.0>
-0.593976

>  <SCORE.INTRA.norm>
-0.0406027

>  <SCORE.RESTR>
0

>  <SCORE.RESTR.CAVITY>
0

>  <SCORE.RESTR.norm>
0

>  <SCORE.SYSTEM>
0

>  <SCORE.SYSTEM.CONST>
0

>  <SCORE.SYSTEM.DIHEDRAL>
0

>  <SCORE.SYSTEM.SOLV>
0

>  <SCORE.SYSTEM.norm>
0

>  <SCORE.heavy>
10

>  <SCORE.norm>
-1.05915

>  <RMSD>
5.555

$$$$
ligand
 OpenBabel11021811473D
libRbt.so/2013.1/901 2013/11/27
 10  9  0  0  0  0  0  0  0  0999 V2000
   26.3800   15.4795   20.2485 N   0  0  0  0  0  0  0  0  0  0  0  0
   27.8141   15.2962   19.8795 C   0  0  2  0  0  0  0  0  0  0  0  0
   27.9690   14.8006   18.4710 C   0  0  0  0  0  0  0  0  0  0  0  0
   27.4047   13.7772   18.0959 O   0  0  0  0  0  0  0  0  0  0  0  0
   28.4973   14.3781   20.8889 C   0  0  0  0  0  0  0  0  0  0  0  0
   28.4662   15.1763   22.4640 S   0  0  0  0  0  0  0  0  0  0  0  0
   30.1892   15.4163   22.7492 C   0  0  0  0  0  0  0  0  0  0  0  0
   30.6496   16.6467   21.9739 C   0  0  0  0  0  0  0  0  0  0  0  0
   32.0436   16.9165   22.2631 N   0  0  0  0  0  0  0  0  0  0  0  0
   28.6371   15.3913   17.6251 O   0  0  0  0  0  0  0  0  0  0  0  0
  2  1  1  1  0  0  0
  2  3  1  0  0  0  0
  2  5  1  0  0  0  0
  3  4  1  0  0  0  0
  3 10  1  0  0  0  0
  5  6  1  0  0  0  0
  6  7  1  0  0  0  0
  7  8  1  0  0  0  0
  8  9  1  0  0  0  0
M  END
>  <CHROM.1>
-55.12836123,-63.50924445,-115.65565748,80.40759924,176.22531819,28.76400583
15.29892971,20.65645280,2.23360611,-0.41394147,-1.61025821

>  <Name>
ligand

>  <RI>
0

>  <Rbt.Current_Directory>
/home/itssahil/PROJECTS/Mol_Feturizer/New_Systems/rnas/3DIG

>  <Rbt.Executable>
rbdock ($Id: //depot/dev/client3/rdock/2013.1/src/exe/rbdock.cxx#4 $)

>  <Rbt.Library>
libRbt.so (2013.1, Build901 2013/11/27)

>  <Rbt.Parameter_File>
/export/apps/rDock/src/rDock_2013.1_src/data/scripts/dock_solv.prm

>  <Rbt.Receptor>
prm/pocket_docking_6.prm

>  <SCORE>
-11.4252

>  <SCORE.INTER>
-11.7058

>  <SCORE.INTER.CONST>
1

>  <SCORE.INTER.POLAR>
0

>  <SCORE.INTER.ROT>
5

>  <SCORE.INTER.SOLV>
16.3839

>  <SCORE.INTER.VDW>
-20.1985

>  <SCORE.INTER.norm>
-1.17058

>  <SCORE.INTRA>
0.28059

>  <SCORE.INTRA.DIHEDRAL>
1.99211

>  <SCORE.INTRA.DIHEDRAL.0>
2.60093

>  <SCORE.INTRA.POLAR>
0

>  <SCORE.INTRA.POLAR.0>
0

>  <SCORE.INTRA.REPUL>
0

>  <SCORE.INTRA.REPUL.0>
0

>  <SCORE.INTRA.SOLV>
-0.607336

>  <SCORE.INTRA.SOLV.lig_0>
-33.7882

>  <SCORE.INTRA.VDW>
-0.411796

>  <SCORE.INTRA.VDW.0>
-0.593976

>  <SCORE.INTRA.norm>
0.028059

>  <SCORE.RESTR>
0

>  <SCORE.RESTR.CAVITY>
0

>  <SCORE.RESTR.norm>
0

>  <SCORE.SYSTEM>
0

>  <SCORE.SYSTEM.CONST>
0

>  <SCORE.SYSTEM.DIHEDRAL>
0

>  <SCORE.SYSTEM.SOLV>
0

>  <SCORE.SYSTEM.norm>
0

>  <SCORE.heavy>
10

>  <SCORE.norm>
-1.14252

>  <RMSD>
5.555

$$$$
ligand
 OpenBabel11021811473D
libRbt.so/2013.1/901 2013/11/27
 10  9  0  0  0  0  0  0  0  0999 V2000
   26.1847   14.8657   20.9964 N   0  0  0  0  0  0  0  0  0  0  0  0
   27.3313   15.5958   20.3809 C   0  0  2  0  0  0  0  0  0  0  0  0
   27.7826   14.9504   19.1029 C   0  0  0  0  0  0  0  0  0  0  0  0
   27.4734   13.7928   18.8364 O   0  0  0  0  0  0  0  0  0  0  0  0
   28.4679   15.7246   21.3909 C   0  0  0  0  0  0  0  0  0  0  0  0
   29.6678   16.8371   20.7261 S   0  0  0  0  0  0  0  0  0  0  0  0
   31.1515   15.9221   20.9898 C   0  0  0  0  0  0  0  0  0  0  0  0
   31.5906   16.1038   22.4393 C   0  0  0  0  0  0  0  0  0  0  0  0
   31.9728   17.4828   22.6677 N   0  0  0  0  0  0  0  0  0  0  0  0
   28.4539   15.5394   18.2584 O   0  0  0  0  0  0  0  0  0  0  0  0
  2  1  1  1  0  0  0
  2  3  1  0  0  0  0
  2  5  1  0  0  0  0
  3  4  1  0  0  0  0
  3 10  1  0  0  0  0
  5  6  1  0  0  0  0
  6  7  1  0  0  0  0
  7  8  1  0  0  0  0
  8  9  1  0  0  0  0
M  END
>  <CHROM.1>
-18.06148544,-169.85532403,-131.90420161,-80.84461002,-66.31716973,29.08267578
15.79687728,20.56483257,2.52964083,-0.32005837,-1.81352546

>  <Name>
ligand

>  <RI>
0

>  <Rbt.Current_Directory>
/home/itssahil/PROJECTS/Mol_Feturizer/New_Systems/rnas/3DIG

>  <Rbt.Executable>
rbdock ($Id: //depot/dev/client3/rdock/2013.1/src/exe/rbdock.cxx#4 $)

>  <Rbt.Library>
libRbt.so (2013.1, Build901 2013/11/27)

>  <Rbt.Parameter_File>
/export/apps/rDock/src/rDock_2013.1_src/data/scripts/dock_solv.prm

>  <Rbt.Receptor>
prm/pocket_docking_4.prm

>  <SCORE>
-9.45957

>  <SCORE.INTER>
-10.0421

>  <SCORE.INTER.CONST>
1

>  <SCORE.INTER.POLAR>
0

>  <SCORE.INTER.ROT>
5

>  <SCORE.INTER.SOLV>
17.1388

>  <SCORE.INTER.VDW>
-19.341

>  <SCORE.INTER.norm>
-1.00421

>  <SCORE.INTRA>
0.582576

>  <SCORE.INTRA.DIHEDRAL>
2.28149

>  <SCORE.INTRA.DIHEDRAL.0>
2.60093

>  <SCORE.INTRA.POLAR>
0

>  <SCORE.INTRA.POLAR.0>
0

>  <SCORE.INTRA.REPUL>
0

>  <SCORE.INTRA.REPUL.0>
0

>  <SCORE.INTRA.SOLV>
-0.326893

>  <SCORE.INTRA.SOLV.lig_0>
-33.7882

>  <SCORE.INTRA.VDW>
-0.394724

>  <SCORE.INTRA.VDW.0>
-0.593976

>  <SCORE.INTRA.norm>
0.0582576

>  <SCORE.RESTR>
0

>  <SCORE.RESTR.CAVITY>
0

>  <SCORE.RESTR.norm>
0

>  <SCORE.SYSTEM>
0

>  <SCORE.SYSTEM.CONST>
0

>  <SCORE.SYSTEM.DIHEDRAL>
0

>  <SCORE.SYSTEM.SOLV>
0

>  <SCORE.SYSTEM.norm>
0

>  <SCORE.heavy>
10

>  <SCORE.norm>
-0.945957

>  <RMSD>
5.556

$$$$
ligand
 OpenBabel11021811473D
libRbt.so/2013.1/901 2013/11/27
 10  9  0  0  0  0  0  0  0  0999 V2000
   29.0548   15.3250   19.8666 N   0  0  0  0  0  0  0  0  0  0  0  0
   28.4571   14.8619   21.1530 C   0  0  2  0  0  0  0  0  0  0  0  0
   26.9585   14.9465   21.1346 C   0  0  0  0  0  0  0  0  0  0  0  0
   26.3674   15.4788   20.1998 O   0  0  0  0  0  0  0  0  0  0  0  0
   29.0613   15.6415   22.3173 C   0  0  0  0  0  0  0  0  0  0  0  0
   30.8039   15.3543   22.3232 S   0  0  0  0  0  0  0  0  0  0  0  0
   31.3492   16.5959   21.1967 C   0  0  0  0  0  0  0  0  0  0  0  0
   32.8679   16.5180   21.0760 C   0  0  0  0  0  0  0  0  0  0  0  0
   33.4809   16.9027   22.3314 N   0  0  0  0  0  0  0  0  0  0  0  0
   26.2523   14.4775   22.0246 O   0  0  0  0  0  0  0  0  0  0  0  0
  2  1  1  6  0  0  0
  2  3  1  0  0  0  0
  2  5  1  0  0  0  0
  3  4  1  0  0  0  0
  3 10  1  0  0  0  0
  5  6  1  0  0  0  0
  6  7  1  0  0  0  0
  7  8  1  0  0  0  0
  8  9  1  0  0  0  0
M  END
>  <CHROM.1>
-7.26129032,-59.95352396,86.08391963,179.38841574,-67.19769828,29.57643021
15.57854914,21.46923064,-3.08828827,0.27488723,1.85223553

>  <Name>
ligand

>  <RI>
0

>  <Rbt.Current_Directory>
/home/itssahil/PROJECTS/Mol_Feturizer/New_Systems/rnas/3DIG

>  <Rbt.Executable>
rbdock ($Id: //depot/dev/client3/rdock/2013.1/src/exe/rbdock.cxx#4 $)

>  <Rbt.Library>
libRbt.so (2013.1, Build901 2013/11/27)

>  <Rbt.Parameter_File>
/export/apps/rDock/src/rDock_2013.1_src/data/scripts/dock_solv.prm

>  <Rbt.Receptor>
prm/pocket_docking_3.prm

>  <SCORE>
-11.1596

>  <SCORE.INTER>
-11.988

>  <SCORE.INTER.CONST>
1

>  <SCORE.INTER.POLAR>
0

>  <SCORE.INTER.ROT>
5

>  <SCORE.INTER.SOLV>
12.2023

>  <SCORE.INTER.VDW>
-18.9928

>  <SCORE.INTER.norm>
-1.1988

>  <SCORE.INTRA>
0.828424

>  <SCORE.INTRA.DIHEDRAL>
0.070742

>  <SCORE.INTRA.DIHEDRAL.0>
2.60093

>  <SCORE.INTRA.POLAR>
0

>  <SCORE.INTRA.POLAR.0>
0

>  <SCORE.INTRA.REPUL>
0

>  <SCORE.INTRA.REPUL.0>
0

>  <SCORE.INTRA.SOLV>
1.71614

>  <SCORE.INTRA.SOLV.lig_0>
-33.7882

>  <SCORE.INTRA.VDW>
-0.0650141

>  <SCORE.INTRA.VDW.0>
-0.593976

>  <SCORE.INTRA.norm>
0.0828424

>  <SCORE.RESTR>
0

>  <SCORE.RESTR.CAVITY>
0

>  <SCORE.RESTR.norm>
0

>  <SCORE.SYSTEM>
0

>  <SCORE.SYSTEM.CONST>
0

>  <SCORE.SYSTEM.DIHEDRAL>
0

>  <SCORE.SYSTEM.SOLV>
0

>  <SCORE.SYSTEM.norm>
0

>  <SCORE.heavy>
10

>  <SCORE.norm>
-1.11596

>  <RMSD>
5.557

$$$$
ligand
 OpenBabel11021811473D
libRbt.so/2013.1/901 2013/11/27
 10  9  0  0  0  0  0  0  0  0999 V2000
   29.2616   16.3028   19.9348 N   0  0  0  0  0  0  0  0  0  0  0  0
   28.6114   15.0701   20.4682 C   0  0  2  0  0  0  0  0  0  0  0  0
   27.2957   14.7987   19.7984 C   0  0  0  0  0  0  0  0  0  0  0  0
   26.2669   15.3480   20.1811 O   0  0  0  0  0  0  0  0  0  0  0  0
   28.4733   15.1698   21.9846 C   0  0  0  0  0  0  0  0  0  0  0  0
   30.0776   14.9682   22.6951 S   0  0  0  0  0  0  0  0  0  0  0  0
   30.7504   16.5806   22.4596 C   0  0  0  0  0  0  0  0  0  0  0  0
   32.2664   16.5084   22.6137 C   0  0  0  0  0  0  0  0  0  0  0  0
   32.8390   17.8310   22.4635 N   0  0  0  0  0  0  0  0  0  0  0  0
   27.1802   14.0444   18.8348 O   0  0  0  0  0  0  0  0  0  0  0  0
  2  1  1  6  0  0  0
  2  3  1  0  0  0  0
  2  5  1  0  0  0  0
  3  4  1  0  0  0  0
  3 10  1  0  0  0  0
  5  6  1  0  0  0  0
  6  7  1  0  0  0  0
  7  8  1  0  0  0  0
  8  9  1  0  0  0  0
M  END
>  <CHROM.1>
-83.91229808,-72.86673738,79.75719917,-162.78011137,-178.31281213,29.35550598
15.57399159,21.29992692,-2.86752439,0.58050826,2.08605796

>  <Name>
ligand

>  <RI>
0

>  <Rbt.Current_Directory>
/home/itssahil/PROJECTS/Mol_Feturizer/New_Systems/rnas/3DIG

>  <Rbt.Executable>
rbdock ($Id: //depot/dev/client3/rdock/2013.1/src/exe/rbdock.cxx#4 $)

>  <Rbt.Library>
libRbt.so (2013.1, Build901 2013/11/27)

>  <Rbt.Parameter_File>
/export/apps/rDock/src/rDock_2013.1_src/data/scripts/dock_solv.prm

>  <Rbt.Receptor>
prm/pocket_docking_7.prm

>  <SCORE>
-10.3962

>  <SCORE.INTER>
-11.0544

>  <SCORE.INTER.CONST>
1

>  <SCORE.INTER.POLAR>
0

>  <SCORE.INTER.ROT>
5

>  <SCORE.INTER.SOLV>
12.2566

>  <SCORE.INTER.VDW>
-18.3885

>  <SCORE.INTER.norm>
-1.10544

>  <SCORE.INTRA>
0.658224

>  <SCORE.INTRA.DIHEDRAL>
0.452798

>  <SCORE.INTRA.DIHEDRAL.0>
2.60093

>  <SCORE.INTRA.POLAR>
0

>  <SCORE.INTRA.POLAR.0>
0

>  <SCORE.INTRA.REPUL>
0

>  <SCORE.INTRA.REPUL.0>
0

>  <SCORE.INTRA.SOLV>
0.828175

>  <SCORE.INTRA.SOLV.lig_0>
-33.7882

>  <SCORE.INTRA.VDW>
0.0177369

>  <SCORE.INTRA.VDW.0>
-0.593976

>  <SCORE.INTRA.norm>
0.0658224

>  <SCORE.RESTR>
0

>  <SCORE.RESTR.CAVITY>
0

>  <SCORE.RESTR.norm>
0

>  <SCORE.SYSTEM>
0

>  <SCORE.SYSTEM.CONST>
0

>  <SCORE.SYSTEM.DIHEDRAL>
0

>  <SCORE.SYSTEM.SOLV>
0

>  <SCORE.SYSTEM.norm>
0

>  <SCORE.heavy>
10

>  <SCORE.norm>
-1.03962

>  <RMSD>
5.558

$$$$
ligand
 OpenBabel11021811473D
libRbt.so/2013.1/901 2013/11/27
 10  9  0  0  0  0  0  0  0  0999 V2000
   26.1783   14.8050   20.9436 N   0  0  0  0  0  0  0  0  0  0  0  0
   27.1942   15.5616   20.1549 C   0  0  2  0  0  0  0  0  0  0  0  0
   27.6848   14.7736   18.9751 C   0  0  0  0  0  0  0  0  0  0  0  0
   28.4246   15.2832   18.1387 O   0  0  0  0  0  0  0  0  0  0  0  0
   28.3367   16.0021   21.0655 C   0  0  0  0  0  0  0  0  0  0  0  0
   28.9944   14.5647   21.8534 S   0  0  0  0  0  0  0  0  0  0  0  0
   30.5268   15.1902   22.4604 C   0  0  0  0  0  0  0  0  0  0  0  0
   31.4262   15.5242   21.2746 C   0  0  0  0  0  0  0  0  0  0  0  0
   32.6484   16.1450   21.7445 N   0  0  0  0  0  0  0  0  0  0  0  0
   27.3981   13.5919   18.7957 O   0  0  0  0  0  0  0  0  0  0  0  0
  2  1  1  1  0  0  0
  2  3  1  0  0  0  0
  2  5  1  0  0  0  0
  3  4  1  0  0  0  0
  3 10  1  0  0  0  0
  5  6  1  0  0  0  0
  6  7  1  0  0  0  0
  7  8  1  0  0  0  0
  8  9  1  0  0  0  0
M  END
>  <CHROM.1>
172.81603552,55.94705613,164.62180138,-66.79631876,175.22633133,28.89573994
15.06295554,20.66001850,2.61035555,-0.21687506,-1.57221542

>  <Name>
ligand

>  <RI>
0

>  <Rbt.Current_Directory>
/home/itssahil/PROJECTS/Mol_Feturizer/New_Systems/rnas/3DIG

>  <Rbt.Executable>
rbdock ($Id: //depot/dev/client3/rdock/2013.1/src/exe/rbdock.cxx#4 $)

>  <Rbt.Library>
libRbt.so (2013.1, Build901 2013/11/27)

>  <Rbt.Parameter_File>
/export/apps/rDock/src/rDock_2013.1_src/data/scripts/dock_solv.prm

>  <Rbt.Receptor>
prm/blind_docking_100.prm

>  <SCORE>
-11.7861

>  <SCORE.INTER>
-11.3073

>  <SCORE.INTER.CONST>
1

>  <SCORE.INTER.POLAR>
0

>  <SCORE.INTER.ROT>
5

>  <SCORE.INTER.SOLV>
18.1597

>  <SCORE.INTER.VDW>
-20.5248

>  <SCORE.INTER.norm>
-1.13073

>  <SCORE.INTRA>
-0.478749

>  <SCORE.INTRA.DIHEDRAL>
-0.53864

>  <SCORE.INTRA.DIHEDRAL.0>
2.60093

>  <SCORE.INTRA.POLAR>
0

>  <SCORE.INTRA.POLAR.0>
0

>  <SCORE.INTRA.REPUL>
0

>  <SCORE.INTRA.REPUL.0>
0

>  <SCORE.INTRA.SOLV>
-0.35487

>  <SCORE.INTRA.SOLV.lig_0>
-33.7882

>  <SCORE.INTRA.VDW>
-0.0319943

>  <SCORE.INTRA.VDW.0>
-0.593976

>  <SCORE.INTRA.norm>
-0.0478749

>  <SCORE.RESTR>
0

>  <SCORE.RESTR.CAVITY>
0

>  <SCORE.RESTR.norm>
0

>  <SCORE.SYSTEM>
0

>  <SCORE.SYSTEM.CONST>
0

>  <SCORE.SYSTEM.DIHEDRAL>
0

>  <SCORE.SYSTEM.SOLV>
0

>  <SCORE.SYSTEM.norm>
0

>  <SCORE.heavy>
10

>  <SCORE.norm>
-1.17861

>  <RMSD>
5.559

$$$$
ligand
 OpenBabel11021811473D
libRbt.so/2013.1/901 2013/11/27
 10  9  0  0  0  0  0  0  0  0999 V2000
   26.9854   15.9974   20.3144 N   0  0  0  0  0  0  0  0  0  0  0  0
   28.2468   15.3392   19.8647 C   0  0  2  0  0  0  0  0  0  0  0  0
   28.1312   14.8085   18.4653 C   0  0  0  0  0  0  0  0  0  0  0  0
   27.4351   13.8284   18.2169 O   0  0  0  0  0  0  0  0  0  0  0  0
   28.6494   14.2534   20.8584 C   0  0  0  0  0  0  0  0  0  0  0  0
   29.2684   15.0433   22.3118 S   0  0  0  0  0  0  0  0  0  0  0  0
   30.8449   15.5928   21.7457 C   0  0  0  0  0  0  0  0  0  0  0  0
   31.3756   16.6457   22.7136 C   0  0  0  0  0  0  0  0  0  0  0  0
   32.6473   17.1529   22.2388 N   0  0  0  0  0  0  0  0  0  0  0  0
   28.6968   15.3277   17.5055 O   0  0  0  0  0  0  0  0  0  0  0  0
  2  1  1  1  0  0  0
  2  3  1  0  0  0  0
  2  5  1  0  0  0  0
  3  4  1  0  0  0  0
  3 10  1  0  0  0  0
  5  6  1  0  0  0  0
  6  7  1  0  0  0  0
  7  8  1  0  0  0  0
  8  9  1  0  0  0  0
M  END
>  <CHROM.1>
-71.12296357,-73.44605505,-74.25336048,163.63237997,-177.65569140,29.22380003
15.34586782,20.60202389,2.36437283,-0.46861169,-1.52036512

>  <Name>
ligand

>  <RI>
0

>  <Rbt.Current_Directory>
/home/itssahil/PROJECTS/Mol_Feturizer/New_Systems/rnas/3DIG

>  <Rbt.Executable>
rbdock ($Id: //depot/dev/client3/rdock/2013.1/src/exe/rbdock.cxx#4 $)

>  <Rbt.Library>
libRbt.so (2013.1, Build901 2013/11/27)

>  <Rbt.Parameter_File>
/export/apps/rDock/src/rDock_2013.1_src/data/scripts/dock_solv.prm

>  <Rbt.Receptor>
prm/blind_docking_100.prm

>  <SCORE>
-10.5546

>  <SCORE.INTER>
-10.1116

>  <SCORE.INTER.CONST>
1

>  <SCORE.INTER.POLAR>
0

>  <SCORE.INTER.ROT>
5

>  <SCORE.INTER.SOLV>
15.6212

>  <SCORE.INTER.VDW>
-18.8814

>  <SCORE.INTER.norm>
-1.01116

>  <SCORE.INTRA>
-0.443025

>  <SCORE.INTRA.DIHEDRAL>
0.219531

>  <SCORE.INTRA.DIHEDRAL.0>
2.60093

>  <SCORE.INTRA.POLAR>
0

>  <SCORE.INTRA.POLAR.0>
0

>  <SCORE.INTRA.REPUL>
0

>  <SCORE.INTRA.REPUL.0>
0

>  <SCORE.INTRA.SOLV>
-0.525262

>  <SCORE.INTRA.SOLV.lig_0>
-33.7882

>  <SCORE.INTRA.VDW>
-0.29016

>  <SCORE.INTRA.VDW.0>
-0.593976

>  <SCORE.INTRA.norm>
-0.0443025

>  <SCORE.RESTR>
0

>  <SCORE.RESTR.CAVITY>
0

>  <SCORE.RESTR.norm>
0

>  <SCORE.SYSTEM>
0

>  <SCORE.SYSTEM.CONST>
0

>  <SCORE.SYSTEM.DIHEDRAL>
0

>  <SCORE.SYSTEM.SOLV>
0

>  <SCORE.SYSTEM.norm>
0

>  <SCORE.heavy>
10

>  <SCORE.norm>
-1.05546

>  <RMSD>
5.559

$$$$
ligand
 OpenBabel11021811473D
libRbt.so/2013.1/901 2013/11/27
 10  9  0  0  0  0  0  0  0  0999 V2000
   26.1690   14.8724   20.9977 N   0  0  0  0  0  0  0  0  0  0  0  0
   27.3229   15.5832   20.3733 C   0  0  2  0  0  0  0  0  0  0  0  0
   27.7547   14.9292   19.0930 C   0  0  0  0  0  0  0  0  0  0  0  0
   28.4169   15.5436   18.2620 O   0  0  0  0  0  0  0  0  0  0  0  0
   28.4685   15.6948   21.3751 C   0  0  0  0  0  0  0  0  0  0  0  0
   29.6686   16.8086   20.7129 S   0  0  0  0  0  0  0  0  0  0  0  0
   31.1482   15.8781   20.9426 C   0  0  0  0  0  0  0  0  0  0  0  0
   31.5937   16.0130   22.3953 C   0  0  0  0  0  0  0  0  0  0  0  0
   31.9777   17.3837   22.6662 N   0  0  0  0  0  0  0  0  0  0  0  0
   27.4946   13.7593   18.8201 O   0  0  0  0  0  0  0  0  0  0  0  0
  2  1  1  1  0  0  0
  2  3  1  0  0  0  0
  2  5  1  0  0  0  0
  3  4  1  0  0  0  0
  3 10  1  0  0  0  0
  5  6  1  0  0  0  0
  6  7  1  0  0  0  0
  7  8  1  0  0  0  0
  8  9  1  0  0  0  0
M  END
>  <CHROM.1>
159.92906071,-168.90180821,-131.49235511,-79.85742651,-66.02334112,29.07753124
15.76292604,20.55009560,2.53295966,-0.30345397,-1.81743412

>  <Name>
ligand

>  <RI>
0

>  <Rbt.Current_Directory>
/home/itssahil/PROJECTS/Mol_Feturizer/New_Systems/rnas/3DIG

>  <Rbt.Executable>
rbdock ($Id: //depot/dev/client3/rdock/2013.1/src/exe/rbdock.cxx#4 $)

>  <Rbt.Library>
libRbt.so (2013.1, Build901 2013/11/27)

>  <Rbt.Parameter_File>
/export/apps/rDock/src/rDock_2013.1_src/data/scripts/dock_solv.prm

>  <Rbt.Receptor>
prm/blind_docking_80.prm

>  <SCORE>
-9.47144

>  <SCORE.INTER>
-10.0029

>  <SCORE.INTER.CONST>
1

>  <SCORE.INTER.POLAR>
0

>  <SCORE.INTER.ROT>
5

>  <SCORE.INTER.SOLV>
17.0364

>  <SCORE.INTER.VDW>
-19.2807

>  <SCORE.INTER.norm>
-1.00029

>  <SCORE.INTRA>
0.531494

>  <SCORE.INTRA.DIHEDRAL>
2.21678

>  <SCORE.INTRA.DIHEDRAL.0>
2.60093

>  <SCORE.INTRA.POLAR>
0

>  <SCORE.INTRA.POLAR.0>
0

>  <SCORE.INTRA.REPUL>
0

>  <SCORE.INTRA.REPUL.0>
0

>  <SCORE.INTRA.SOLV>
-0.323963

>  <SCORE.INTRA.SOLV.lig_0>
-33.7882

>  <SCORE.INTRA.VDW>
-0.414916

>  <SCORE.INTRA.VDW.0>
-0.593976

>  <SCORE.INTRA.norm>
0.0531494

>  <SCORE.RESTR>
0

>  <SCORE.RESTR.CAVITY>
0

>  <SCORE.RESTR.norm>
0

>  <SCORE.SYSTEM>
0

>  <SCORE.SYSTEM.CONST>
0

>  <SCORE.SYSTEM.DIHEDRAL>
0

>  <SCORE.SYSTEM.SOLV>
0

>  <SCORE.SYSTEM.norm>
0

>  <SCORE.heavy>
10

>  <SCORE.norm>
-0.947144

>  <RMSD>
5.559

$$$$
ligand
 OpenBabel11021811473D
libRbt.so/2013.1/901 2013/11/27
 10  9  0  0  0  0  0  0  0  0999 V2000
   26.0623   14.9328   20.9007 N   0  0  0  0  0  0  0  0  0  0  0  0
   27.3862   15.4914   20.4983 C   0  0  2  0  0  0  0  0  0  0  0  0
   27.8300   14.9682   19.1631 C   0  0  0  0  0  0  0  0  0  0  0  0
   27.4589   13.8699   18.7600 O   0  0  0  0  0  0  0  0  0  0  0  0
   28.4173   15.2235   21.5908 C   0  0  0  0  0  0  0  0  0  0  0  0
   29.8392   16.2166   21.2573 S   0  0  0  0  0  0  0  0  0  0  0  0
   30.8791   15.7731   22.6099 C   0  0  0  0  0  0  0  0  0  0  0  0
   32.1790   16.5654   22.5116 C   0  0  0  0  0  0  0  0  0  0  0  0
   32.8892   16.1961   21.3036 N   0  0  0  0  0  0  0  0  0  0  0  0
   28.5564   15.6061   18.4040 O   0  0  0  0  0  0  0  0  0  0  0  0
  2  1  1  1  0  0  0
  2  3  1  0  0  0  0
  2  5  1  0  0  0  0
  3  4  1  0  0  0  0
  3 10  1  0  0  0  0
  5  6  1  0  0  0  0
  6  7  1  0  0  0  0
  7  8  1  0  0  0  0
  8  9  1  0  0  0  0
M  END
>  <CHROM.1>
-27.52081461,-166.75352864,179.69679299,-178.94614487,-63.61543880,29.22735238
15.55524537,20.73120665,2.62303688,-0.22268236,-1.74316699

>  <Name>
ligand

>  <RI>
0

>  <Rbt.Current_Directory>
/home/itssahil/PROJECTS/Mol_Feturizer/New_Systems/rnas/3DIG

>  <Rbt.Executable>
rbdock ($Id: //depot/dev/client3/rdock/2013.1/src/exe/rbdock.cxx#4 $)

>  <Rbt.Library>
libRbt.so (2013.1, Build901 2013/11/27)

>  <Rbt.Parameter_File>
/export/apps/rDock/src/rDock_2013.1_src/data/scripts/dock_solv.prm

>  <Rbt.Receptor>
prm/pocket_docking_4.prm

>  <SCORE>
-10.5828

>  <SCORE.INTER>
-9.58364

>  <SCORE.INTER.CONST>
1

>  <SCORE.INTER.POLAR>
0

>  <SCORE.INTER.ROT>
5

>  <SCORE.INTER.SOLV>
18.0518

>  <SCORE.INTER.VDW>
-19.3397

>  <SCORE.INTER.norm>
-0.958364

>  <SCORE.INTRA>
-0.999192

>  <SCORE.INTRA.DIHEDRAL>
-0.386189

>  <SCORE.INTRA.DIHEDRAL.0>
2.60093

>  <SCORE.INTRA.POLAR>
0

>  <SCORE.INTRA.POLAR.0>
0

>  <SCORE.INTRA.REPUL>
0

>  <SCORE.INTRA.REPUL.0>
0

>  <SCORE.INTRA.SOLV>
-0.660838

>  <SCORE.INTRA.SOLV.lig_0>
-33.7882

>  <SCORE.INTRA.VDW>
-0.475679

>  <SCORE.INTRA.VDW.0>
-0.593976

>  <SCORE.INTRA.norm>
-0.0999192

>  <SCORE.RESTR>
0

>  <SCORE.RESTR.CAVITY>
0

>  <SCORE.RESTR.norm>
0

>  <SCORE.SYSTEM>
0

>  <SCORE.SYSTEM.CONST>
0

>  <SCORE.SYSTEM.DIHEDRAL>
0

>  <SCORE.SYSTEM.SOLV>
0

>  <SCORE.SYSTEM.norm>
0

>  <SCORE.heavy>
10

>  <SCORE.norm>
-1.05828

>  <RMSD>
5.559

$$$$
ligand
 OpenBabel11021811473D
libRbt.so/2013.1/901 2013/11/27
 10  9  0  0  0  0  0  0  0  0999 V2000
   29.5994   15.3830   19.7676 N   0  0  0  0  0  0  0  0  0  0  0  0
   28.5959   14.7206   20.6511 C   0  0  2  0  0  0  0  0  0  0  0  0
   27.2301   14.7019   20.0284 C   0  0  0  0  0  0  0  0  0  0  0  0
   27.0560   14.2481   18.9013 O   0  0  0  0  0  0  0  0  0  0  0  0
   28.5913   15.3873   22.0237 C   0  0  0  0  0  0  0  0  0  0  0  0
   30.1896   15.1705   22.7433 S   0  0  0  0  0  0  0  0  0  0  0  0
   31.0288   16.5916   22.1236 C   0  0  0  0  0  0  0  0  0  0  0  0
   32.5153   16.4622   22.4404 C   0  0  0  0  0  0  0  0  0  0  0  0
   33.2205   17.6406   21.9780 N   0  0  0  0  0  0  0  0  0  0  0  0
   26.2263   15.1104   20.6083 O   0  0  0  0  0  0  0  0  0  0  0  0
  2  1  1  6  0  0  0
  2  3  1  0  0  0  0
  2  5  1  0  0  0  0
  3  4  1  0  0  0  0
  3 10  1  0  0  0  0
  5  6  1  0  0  0  0
  6  7  1  0  0  0  0
  7  8  1  0  0  0  0
  8  9  1  0  0  0  0
M  END
>  <CHROM.1>
53.31631386,-62.08228028,88.53402945,-170.22743857,-178.16825324,29.47544897
15.49380212,21.29268385,-2.75765912,0.40725454,1.66466099

>  <Name>
ligand

>  <RI>
0

>  <Rbt.Current_Directory>
/home/itssahil/PROJECTS/Mol_Feturizer/New_Systems/rnas/3DIG

>  <Rbt.Executable>
rbdock ($Id: //depot/dev/client3/rdock/2013.1/src/exe/rbdock.cxx#4 $)

>  <Rbt.Library>
libRbt.so (2013.1, Build901 2013/11/27)

>  <Rbt.Parameter_File>
/export/apps/rDock/src/rDock_2013.1_src/data/scripts/dock_solv.prm

>  <Rbt.Receptor>
prm/pocket_docking_7.prm

>  <SCORE>
-9.98407

>  <SCORE.INTER>
-10.8188

>  <SCORE.INTER.CONST>
1

>  <SCORE.INTER.POLAR>
0

>  <SCORE.INTER.ROT>
5

>  <SCORE.INTER.SOLV>
12.2151

>  <SCORE.INTER.VDW>
-18.2176

>  <SCORE.INTER.norm>
-1.08188

>  <SCORE.INTRA>
0.834729

>  <SCORE.INTRA.DIHEDRAL>
0.168075

>  <SCORE.INTRA.DIHEDRAL.0>
2.60093

>  <SCORE.INTRA.POLAR>
0

>  <SCORE.INTRA.POLAR.0>
0

>  <SCORE.INTRA.REPUL>
0

>  <SCORE.INTRA.REPUL.0>
0

>  <SCORE.INTRA.SOLV>
0.824746

>  <SCORE.INTRA.SOLV.lig_0>
-33.7882

>  <SCORE.INTRA.VDW>
0.338318

>  <SCORE.INTRA.VDW.0>
-0.593976

>  <SCORE.INTRA.norm>
0.0834729

>  <SCORE.RESTR>
0

>  <SCORE.RESTR.CAVITY>
0

>  <SCORE.RESTR.norm>
0

>  <SCORE.SYSTEM>
0

>  <SCORE.SYSTEM.CONST>
0

>  <SCORE.SYSTEM.DIHEDRAL>
0

>  <SCORE.SYSTEM.SOLV>
0

>  <SCORE.SYSTEM.norm>
0

>  <SCORE.heavy>
10

>  <SCORE.norm>
-0.998407

>  <RMSD>
5.560

$$$$
ligand
 OpenBabel11021811473D
libRbt.so/2013.1/901 2013/11/27
 10  9  0  0  0  0  0  0  0  0999 V2000
   26.3703   15.3394   20.4172 N   0  0  0  0  0  0  0  0  0  0  0  0
   27.7973   15.2913   19.9839 C   0  0  2  0  0  0  0  0  0  0  0  0
   27.9357   14.7990   18.5725 C   0  0  0  0  0  0  0  0  0  0  0  0
   28.5974   15.4227   17.7481 O   0  0  0  0  0  0  0  0  0  0  0  0
   28.6108   14.4533   20.9660 C   0  0  0  0  0  0  0  0  0  0  0  0
   28.6120   15.2838   22.5246 S   0  0  0  0  0  0  0  0  0  0  0  0
   30.3376   15.5658   22.7497 C   0  0  0  0  0  0  0  0  0  0  0  0
   30.7307   16.8349   22.0002 C   0  0  0  0  0  0  0  0  0  0  0  0
   32.1405   17.1055   22.1978 N   0  0  0  0  0  0  0  0  0  0  0  0
   27.4239   13.7539   18.1768 O   0  0  0  0  0  0  0  0  0  0  0  0
  2  1  1  1  0  0  0
  2  3  1  0  0  0  0
  2  5  1  0  0  0  0
  3  4  1  0  0  0  0
  3 10  1  0  0  0  0
  5  6  1  0  0  0  0
  6  7  1  0  0  0  0
  7  8  1  0  0  0  0
  8  9  1  0  0  0  0
M  END
>  <CHROM.1>
129.18979365,-65.09165865,-119.35575062,83.63505843,178.61230981,28.82533084
15.36156876,20.72361180,2.28309075,-0.44396438,-1.61718776

>  <Name>
ligand

>  <RI>
0

>  <Rbt.Current_Directory>
/home/itssahil/PROJECTS/Mol_Feturizer/New_Systems/rnas/3DIG

>  <Rbt.Executable>
rbdock ($Id: //depot/dev/client3/rdock/2013.1/src/exe/rbdock.cxx#4 $)

>  <Rbt.Library>
libRbt.so (2013.1, Build901 2013/11/27)

>  <Rbt.Parameter_File>
/export/apps/rDock/src/rDock_2013.1_src/data/scripts/dock_solv.prm

>  <Rbt.Receptor>
prm/pocket_docking_8.prm

>  <SCORE>
-11.4813

>  <SCORE.INTER>
-11.7364

>  <SCORE.INTER.CONST>
1

>  <SCORE.INTER.POLAR>
0

>  <SCORE.INTER.ROT>
5

>  <SCORE.INTER.SOLV>
16.4294

>  <SCORE.INTER.VDW>
-20.234

>  <SCORE.INTER.norm>
-1.17364

>  <SCORE.INTRA>
0.255041

>  <SCORE.INTRA.DIHEDRAL>
2.17888

>  <SCORE.INTRA.DIHEDRAL.0>
2.60093

>  <SCORE.INTRA.POLAR>
0

>  <SCORE.INTRA.POLAR.0>
0

>  <SCORE.INTRA.REPUL>
0

>  <SCORE.INTRA.REPUL.0>
0

>  <SCORE.INTRA.SOLV>
-0.689816

>  <SCORE.INTRA.SOLV.lig_0>
-33.7882

>  <SCORE.INTRA.VDW>
-0.48949

>  <SCORE.INTRA.VDW.0>
-0.593976

>  <SCORE.INTRA.norm>
0.0255041

>  <SCORE.RESTR>
0

>  <SCORE.RESTR.CAVITY>
0

>  <SCORE.RESTR.norm>
0

>  <SCORE.SYSTEM>
0

>  <SCORE.SYSTEM.CONST>
0

>  <SCORE.SYSTEM.DIHEDRAL>
0

>  <SCORE.SYSTEM.SOLV>
0

>  <SCORE.SYSTEM.norm>
0

>  <SCORE.heavy>
10

>  <SCORE.norm>
-1.14813

>  <RMSD>
5.560

$$$$
ligand
 OpenBabel11021811473D
libRbt.so/2013.1/901 2013/11/27
 10  9  0  0  0  0  0  0  0  0999 V2000
   29.0509   14.5661   19.5721 N   0  0  0  0  0  0  0  0  0  0  0  0
   28.4063   14.3369   20.8982 C   0  0  2  0  0  0  0  0  0  0  0  0
   27.0799   15.0321   21.0016 C   0  0  0  0  0  0  0  0  0  0  0  0
   26.2081   14.6196   21.7609 O   0  0  0  0  0  0  0  0  0  0  0  0
   29.3585   14.7488   22.0171 C   0  0  0  0  0  0  0  0  0  0  0  0
   29.8226   16.4318   21.7495 S   0  0  0  0  0  0  0  0  0  0  0  0
   31.3550   16.4963   22.6186 C   0  0  0  0  0  0  0  0  0  0  0  0
   31.9730   17.8774   22.4243 C   0  0  0  0  0  0  0  0  0  0  0  0
   33.2983   17.9092   23.0095 N   0  0  0  0  0  0  0  0  0  0  0  0
   26.8056   16.0454   20.3623 O   0  0  0  0  0  0  0  0  0  0  0  0
  2  1  1  6  0  0  0
  2  3  1  0  0  0  0
  2  5  1  0  0  0  0
  3  4  1  0  0  0  0
  3 10  1  0  0  0  0
  5  6  1  0  0  0  0
  6  7  1  0  0  0  0
  7  8  1  0  0  0  0
  8  9  1  0  0  0  0
M  END
>  <CHROM.1>
154.23730750,55.97506376,-156.36814899,176.27567032,-173.95271314,29.35482735
15.88446304,21.56407266,-2.59712262,0.04855484,0.68098059

>  <Name>
ligand

>  <RI>
0

>  <Rbt.Current_Directory>
/home/itssahil/PROJECTS/Mol_Feturizer/New_Systems/rnas/3DIG

>  <Rbt.Executable>
rbdock ($Id: //depot/dev/client3/rdock/2013.1/src/exe/rbdock.cxx#4 $)

>  <Rbt.Library>
libRbt.so (2013.1, Build901 2013/11/27)

>  <Rbt.Parameter_File>
/export/apps/rDock/src/rDock_2013.1_src/data/scripts/dock_solv.prm

>  <Rbt.Receptor>
prm/pocket_docking_4.prm

>  <SCORE>
-10.7187

>  <SCORE.INTER>
-10.0014

>  <SCORE.INTER.CONST>
1

>  <SCORE.INTER.POLAR>
0

>  <SCORE.INTER.ROT>
5

>  <SCORE.INTER.SOLV>
13.9785

>  <SCORE.INTER.VDW>
-18.2604

>  <SCORE.INTER.norm>
-1.00014

>  <SCORE.INTRA>
-0.717285

>  <SCORE.INTRA.DIHEDRAL>
-0.127514

>  <SCORE.INTRA.DIHEDRAL.0>
2.60093

>  <SCORE.INTRA.POLAR>
0

>  <SCORE.INTRA.POLAR.0>
0

>  <SCORE.INTRA.REPUL>
0

>  <SCORE.INTRA.REPUL.0>
0

>  <SCORE.INTRA.SOLV>
-0.397562

>  <SCORE.INTRA.SOLV.lig_0>
-33.7882

>  <SCORE.INTRA.VDW>
-0.454747

>  <SCORE.INTRA.VDW.0>
-0.593976

>  <SCORE.INTRA.norm>
-0.0717285

>  <SCORE.RESTR>
0

>  <SCORE.RESTR.CAVITY>
0

>  <SCORE.RESTR.norm>
0

>  <SCORE.SYSTEM>
0

>  <SCORE.SYSTEM.CONST>
0

>  <SCORE.SYSTEM.DIHEDRAL>
0

>  <SCORE.SYSTEM.SOLV>
0

>  <SCORE.SYSTEM.norm>
0

>  <SCORE.heavy>
10

>  <SCORE.norm>
-1.07187

>  <RMSD>
5.561

$$$$
ligand
 OpenBabel11021811473D
libRbt.so/2013.1/901 2013/11/27
 10  9  0  0  0  0  0  0  0  0999 V2000
   27.4718   14.1853   19.0576 N   0  0  0  0  0  0  0  0  0  0  0  0
   28.1043   14.3861   20.3941 C   0  0  2  0  0  0  0  0  0  0  0  0
   27.0960   14.7749   21.4360 C   0  0  0  0  0  0  0  0  0  0  0  0
   27.4391   15.0068   22.5914 O   0  0  0  0  0  0  0  0  0  0  0  0
   29.2377   15.4020   20.2855 C   0  0  0  0  0  0  0  0  0  0  0  0
   30.2355   15.2665   21.7365 S   0  0  0  0  0  0  0  0  0  0  0  0
   31.7833   15.8549   21.1316 C   0  0  0  0  0  0  0  0  0  0  0  0
   32.5882   16.4136   22.3009 C   0  0  0  0  0  0  0  0  0  0  0  0
   31.9523   17.6137   22.8061 N   0  0  0  0  0  0  0  0  0  0  0  0
   25.8983   14.9026   21.1911 O   0  0  0  0  0  0  0  0  0  0  0  0
  2  1  1  6  0  0  0
  2  3  1  0  0  0  0
  2  5  1  0  0  0  0
  3  4  1  0  0  0  0
  3 10  1  0  0  0  0
  5  6  1  0  0  0  0
  6  7  1  0  0  0  0
  7  8  1  0  0  0  0
  8  9  1  0  0  0  0
M  END
>  <CHROM.1>
-178.59151255,-164.03268626,154.16108146,154.47847801,-67.70638783,29.27094187
15.37098823,21.36210247,-2.77807954,0.23339686,1.17108921

>  <Name>
ligand

>  <RI>
0

>  <Rbt.Current_Directory>
/home/itssahil/PROJECTS/Mol_Feturizer/New_Systems/rnas/3DIG

>  <Rbt.Executable>
rbdock ($Id: //depot/dev/client3/rdock/2013.1/src/exe/rbdock.cxx#4 $)

>  <Rbt.Library>
libRbt.so (2013.1, Build901 2013/11/27)

>  <Rbt.Parameter_File>
/export/apps/rDock/src/rDock_2013.1_src/data/scripts/dock_solv.prm

>  <Rbt.Receptor>
prm/pocket_docking_7.prm

>  <SCORE>
-10.1268

>  <SCORE.INTER>
-10.6703

>  <SCORE.INTER.CONST>
1

>  <SCORE.INTER.POLAR>
0

>  <SCORE.INTER.ROT>
5

>  <SCORE.INTER.SOLV>
15.3427

>  <SCORE.INTER.VDW>
-19.1611

>  <SCORE.INTER.norm>
-1.06703

>  <SCORE.INTRA>
0.543446

>  <SCORE.INTRA.DIHEDRAL>
1.85728

>  <SCORE.INTRA.DIHEDRAL.0>
2.60093

>  <SCORE.INTRA.POLAR>
0

>  <SCORE.INTRA.POLAR.0>
0

>  <SCORE.INTRA.REPUL>
0

>  <SCORE.INTRA.REPUL.0>
0

>  <SCORE.INTRA.SOLV>
-0.494554

>  <SCORE.INTRA.SOLV.lig_0>
-33.7882

>  <SCORE.INTRA.VDW>
-0.137919

>  <SCORE.INTRA.VDW.0>
-0.593976

>  <SCORE.INTRA.norm>
0.0543446

>  <SCORE.RESTR>
0

>  <SCORE.RESTR.CAVITY>
0

>  <SCORE.RESTR.norm>
0

>  <SCORE.SYSTEM>
0

>  <SCORE.SYSTEM.CONST>
0

>  <SCORE.SYSTEM.DIHEDRAL>
0

>  <SCORE.SYSTEM.SOLV>
0

>  <SCORE.SYSTEM.norm>
0

>  <SCORE.heavy>
10

>  <SCORE.norm>
-1.01268

>  <RMSD>
5.561

$$$$
ligand
 OpenBabel11021811473D
libRbt.so/2013.1/901 2013/11/27
 10  9  0  0  0  0  0  0  0  0999 V2000
   28.7762   15.4709   23.2160 N   0  0  0  0  0  0  0  0  0  0  0  0
   28.6813   15.6761   21.7411 C   0  0  2  0  0  0  0  0  0  0  0  0
   27.2999   15.3933   21.2260 C   0  0  0  0  0  0  0  0  0  0  0  0
   26.9042   15.8883   20.1748 O   0  0  0  0  0  0  0  0  0  0  0  0
   29.7409   14.8391   21.0305 C   0  0  0  0  0  0  0  0  0  0  0  0
   31.2899   15.1226   21.8303 S   0  0  0  0  0  0  0  0  0  0  0  0
   31.8229   16.5901   21.0118 C   0  0  0  0  0  0  0  0  0  0  0  0
   33.2497   16.9067   21.4489 C   0  0  0  0  0  0  0  0  0  0  0  0
   33.2723   17.2185   22.8638 N   0  0  0  0  0  0  0  0  0  0  0  0
   26.5117   14.6478   21.8036 O   0  0  0  0  0  0  0  0  0  0  0  0
  2  1  1  1  0  0  0
  2  3  1  0  0  0  0
  2  5  1  0  0  0  0
  3  4  1  0  0  0  0
  3 10  1  0  0  0  0
  5  6  1  0  0  0  0
  6  7  1  0  0  0  0
  7  8  1  0  0  0  0
  8  9  1  0  0  0  0
M  END
>  <CHROM.1>
156.71888464,-48.95567967,-84.53300601,-172.95169713,-64.81932357,29.89083244
15.69413592,21.64500337,3.10984630,-0.24932787,-1.25231960

>  <Name>
ligand

>  <RI>
0

>  <Rbt.Current_Directory>
/home/itssahil/PROJECTS/Mol_Feturizer/New_Systems/rnas/3DIG

>  <Rbt.Executable>
rbdock ($Id: //depot/dev/client3/rdock/2013.1/src/exe/rbdock.cxx#4 $)

>  <Rbt.Library>
libRbt.so (2013.1, Build901 2013/11/27)

>  <Rbt.Parameter_File>
/export/apps/rDock/src/rDock_2013.1_src/data/scripts/dock_solv.prm

>  <Rbt.Receptor>
prm/blind_docking_80.prm

>  <SCORE>
-8.89832

>  <SCORE.INTER>
-9.23533

>  <SCORE.INTER.CONST>
1

>  <SCORE.INTER.POLAR>
0

>  <SCORE.INTER.ROT>
5

>  <SCORE.INTER.SOLV>
17.3196

>  <SCORE.INTER.VDW>
-18.8634

>  <SCORE.INTER.norm>
-0.923533

>  <SCORE.INTRA>
0.337006

>  <SCORE.INTRA.DIHEDRAL>
0.32168

>  <SCORE.INTRA.DIHEDRAL.0>
2.60093

>  <SCORE.INTRA.POLAR>
0

>  <SCORE.INTRA.POLAR.0>
0

>  <SCORE.INTRA.REPUL>
0

>  <SCORE.INTRA.REPUL.0>
0

>  <SCORE.INTRA.SOLV>
0.702606

>  <SCORE.INTRA.SOLV.lig_0>
-33.7882

>  <SCORE.INTRA.VDW>
-0.175137

>  <SCORE.INTRA.VDW.0>
-0.593976

>  <SCORE.INTRA.norm>
0.0337006

>  <SCORE.RESTR>
0

>  <SCORE.RESTR.CAVITY>
0

>  <SCORE.RESTR.norm>
0

>  <SCORE.SYSTEM>
0

>  <SCORE.SYSTEM.CONST>
0

>  <SCORE.SYSTEM.DIHEDRAL>
0

>  <SCORE.SYSTEM.SOLV>
0

>  <SCORE.SYSTEM.norm>
0

>  <SCORE.heavy>
10

>  <SCORE.norm>
-0.889832

>  <RMSD>
5.562

$$$$
ligand
 OpenBabel11021811473D
libRbt.so/2013.1/901 2013/11/27
 10  9  0  0  0  0  0  0  0  0999 V2000
   29.0721   15.2494   19.8541 N   0  0  0  0  0  0  0  0  0  0  0  0
   28.4632   14.8591   21.1593 C   0  0  2  0  0  0  0  0  0  0  0  0
   26.9650   14.9462   21.1245 C   0  0  0  0  0  0  0  0  0  0  0  0
   26.3839   15.4550   20.1705 O   0  0  0  0  0  0  0  0  0  0  0  0
   29.0606   15.7001   22.2837 C   0  0  0  0  0  0  0  0  0  0  0  0
   30.7968   15.3817   22.3428 S   0  0  0  0  0  0  0  0  0  0  0  0
   31.3891   16.5478   21.1608 C   0  0  0  0  0  0  0  0  0  0  0  0
   32.9141   16.5096   21.1535 C   0  0  0  0  0  0  0  0  0  0  0  0
   33.4238   16.9971   22.4194 N   0  0  0  0  0  0  0  0  0  0  0  0
   26.2495   14.5020   22.0197 O   0  0  0  0  0  0  0  0  0  0  0  0
  2  1  1  6  0  0  0
  2  3  1  0  0  0  0
  2  5  1  0  0  0  0
  3  4  1  0  0  0  0
  3 10  1  0  0  0  0
  5  6  1  0  0  0  0
  6  7  1  0  0  0  0
  7  8  1  0  0  0  0
  8  9  1  0  0  0  0
M  END
>  <CHROM.1>
-8.92006149,-61.21841094,86.53486931,175.15208120,-66.55079821,29.58139385
15.58574575,21.47686588,-3.06430160,0.28007468,1.80027419

>  <Name>
ligand

>  <RI>
0

>  <Rbt.Current_Directory>
/home/itssahil/PROJECTS/Mol_Feturizer/New_Systems/rnas/3DIG

>  <Rbt.Executable>
rbdock ($Id: //depot/dev/client3/rdock/2013.1/src/exe/rbdock.cxx#4 $)

>  <Rbt.Library>
libRbt.so (2013.1, Build901 2013/11/27)

>  <Rbt.Parameter_File>
/export/apps/rDock/src/rDock_2013.1_src/data/scripts/dock_solv.prm

>  <Rbt.Receptor>
prm/pocket_docking_7.prm

>  <SCORE>
-11.0924

>  <SCORE.INTER>
-11.868

>  <SCORE.INTER.CONST>
1

>  <SCORE.INTER.POLAR>
0

>  <SCORE.INTER.ROT>
5

>  <SCORE.INTER.SOLV>
12.1504

>  <SCORE.INTER.VDW>
-18.8955

>  <SCORE.INTER.norm>
-1.1868

>  <SCORE.INTRA>
0.775683

>  <SCORE.INTRA.DIHEDRAL>
0.110192

>  <SCORE.INTRA.DIHEDRAL.0>
2.60093

>  <SCORE.INTRA.POLAR>
0

>  <SCORE.INTRA.POLAR.0>
0

>  <SCORE.INTRA.REPUL>
0

>  <SCORE.INTRA.REPUL.0>
0

>  <SCORE.INTRA.SOLV>
1.67744

>  <SCORE.INTRA.SOLV.lig_0>
-33.7882

>  <SCORE.INTRA.VDW>
-0.118132

>  <SCORE.INTRA.VDW.0>
-0.593976

>  <SCORE.INTRA.norm>
0.0775683

>  <SCORE.RESTR>
0

>  <SCORE.RESTR.CAVITY>
0

>  <SCORE.RESTR.norm>
0

>  <SCORE.SYSTEM>
0

>  <SCORE.SYSTEM.CONST>
0

>  <SCORE.SYSTEM.DIHEDRAL>
0

>  <SCORE.SYSTEM.SOLV>
0

>  <SCORE.SYSTEM.norm>
0

>  <SCORE.heavy>
10

>  <SCORE.norm>
-1.10924

>  <RMSD>
5.562

$$$$
ligand
 OpenBabel11021811473D
libRbt.so/2013.1/901 2013/11/27
 10  9  0  0  0  0  0  0  0  0999 V2000
   26.3717   15.3134   20.4437 N   0  0  0  0  0  0  0  0  0  0  0  0
   27.7988   15.2834   20.0090 C   0  0  2  0  0  0  0  0  0  0  0  0
   27.9419   14.7949   18.5968 C   0  0  0  0  0  0  0  0  0  0  0  0
   27.4083   13.7514   18.2323 O   0  0  0  0  0  0  0  0  0  0  0  0
   28.6234   14.4540   20.9891 C   0  0  0  0  0  0  0  0  0  0  0  0
   28.6036   15.2745   22.5529 S   0  0  0  0  0  0  0  0  0  0  0  0
   30.3258   15.5559   22.8026 C   0  0  0  0  0  0  0  0  0  0  0  0
   30.7352   16.8108   22.0381 C   0  0  0  0  0  0  0  0  0  0  0  0
   32.1372   17.0930   22.2718 N   0  0  0  0  0  0  0  0  0  0  0  0
   28.5693   15.4107   17.7378 O   0  0  0  0  0  0  0  0  0  0  0  0
  2  1  1  1  0  0  0
  2  3  1  0  0  0  0
  2  5  1  0  0  0  0
  3  4  1  0  0  0  0
  3 10  1  0  0  0  0
  5  6  1  0  0  0  0
  6  7  1  0  0  0  0
  7  8  1  0  0  0  0
  8  9  1  0  0  0  0
M  END
>  <CHROM.1>
-50.75925770,-64.57885913,-120.48698489,82.24303896,177.72388112,28.82014023
15.35093991,20.75661643,2.28069013,-0.44468196,-1.61306174

>  <Name>
ligand

>  <RI>
0

>  <Rbt.Current_Directory>
/home/itssahil/PROJECTS/Mol_Feturizer/New_Systems/rnas/3DIG

>  <Rbt.Executable>
rbdock ($Id: //depot/dev/client3/rdock/2013.1/src/exe/rbdock.cxx#4 $)

>  <Rbt.Library>
libRbt.so (2013.1, Build901 2013/11/27)

>  <Rbt.Parameter_File>
/export/apps/rDock/src/rDock_2013.1_src/data/scripts/dock_solv.prm

>  <Rbt.Receptor>
prm/blind_docking_80.prm

>  <SCORE>
-11.4871

>  <SCORE.INTER>
-11.7747

>  <SCORE.INTER.CONST>
1

>  <SCORE.INTER.POLAR>
0

>  <SCORE.INTER.ROT>
5

>  <SCORE.INTER.SOLV>
16.3879

>  <SCORE.INTER.VDW>
-20.2458

>  <SCORE.INTER.norm>
-1.17747

>  <SCORE.INTRA>
0.287597

>  <SCORE.INTRA.DIHEDRAL>
2.13082

>  <SCORE.INTRA.DIHEDRAL.0>
2.60093

>  <SCORE.INTRA.POLAR>
0

>  <SCORE.INTRA.POLAR.0>
0

>  <SCORE.INTRA.REPUL>
0

>  <SCORE.INTRA.REPUL.0>
0

>  <SCORE.INTRA.SOLV>
-0.664756

>  <SCORE.INTRA.SOLV.lig_0>
-33.7882

>  <SCORE.INTRA.VDW>
-0.445437

>  <SCORE.INTRA.VDW.0>
-0.593976

>  <SCORE.INTRA.norm>
0.0287597

>  <SCORE.RESTR>
0

>  <SCORE.RESTR.CAVITY>
0

>  <SCORE.RESTR.norm>
0

>  <SCORE.SYSTEM>
0

>  <SCORE.SYSTEM.CONST>
0

>  <SCORE.SYSTEM.DIHEDRAL>
0

>  <SCORE.SYSTEM.SOLV>
0

>  <SCORE.SYSTEM.norm>
0

>  <SCORE.heavy>
10

>  <SCORE.norm>
-1.14871

>  <RMSD>
5.563

$$$$
ligand
 OpenBabel11021811473D
libRbt.so/2013.1/901 2013/11/27
 10  9  0  0  0  0  0  0  0  0999 V2000
   26.3530   15.2875   20.4641 N   0  0  0  0  0  0  0  0  0  0  0  0
   27.7796   15.2863   20.0266 C   0  0  2  0  0  0  0  0  0  0  0  0
   27.9289   14.8091   18.6112 C   0  0  0  0  0  0  0  0  0  0  0  0
   27.3839   13.7767   18.2319 O   0  0  0  0  0  0  0  0  0  0  0  0
   28.6212   14.4663   21.0001 C   0  0  0  0  0  0  0  0  0  0  0  0
   28.6003   15.2840   22.5654 S   0  0  0  0  0  0  0  0  0  0  0  0
   30.3220   15.5690   22.8147 C   0  0  0  0  0  0  0  0  0  0  0  0
   30.7328   16.8134   22.0340 C   0  0  0  0  0  0  0  0  0  0  0  0
   32.1357   17.0958   22.2624 N   0  0  0  0  0  0  0  0  0  0  0  0
   28.5729   15.4239   17.7638 O   0  0  0  0  0  0  0  0  0  0  0  0
  2  1  1  1  0  0  0
  2  3  1  0  0  0  0
  2  5  1  0  0  0  0
  3  4  1  0  0  0  0
  3 10  1  0  0  0  0
  5  6  1  0  0  0  0
  6  7  1  0  0  0  0
  7  8  1  0  0  0  0
  8  9  1  0  0  0  0
M  END
>  <CHROM.1>
-48.77694479,-65.03972984,-121.19230102,81.34270925,177.95462969,28.81229774
15.35847315,20.76687761,2.28554264,-0.44355502,-1.61148750

>  <Name>
ligand

>  <RI>
0

>  <Rbt.Current_Directory>
/home/itssahil/PROJECTS/Mol_Feturizer/New_Systems/rnas/3DIG

>  <Rbt.Executable>
rbdock ($Id: //depot/dev/client3/rdock/2013.1/src/exe/rbdock.cxx#4 $)

>  <Rbt.Library>
libRbt.so (2013.1, Build901 2013/11/27)

>  <Rbt.Parameter_File>
/export/apps/rDock/src/rDock_2013.1_src/data/scripts/dock_solv.prm

>  <Rbt.Receptor>
prm/pocket_docking_4.prm

>  <SCORE>
-11.5092

>  <SCORE.INTER>
-11.7786

>  <SCORE.INTER.CONST>
1

>  <SCORE.INTER.POLAR>
0

>  <SCORE.INTER.ROT>
5

>  <SCORE.INTER.SOLV>
16.4335

>  <SCORE.INTER.VDW>
-20.2635

>  <SCORE.INTER.norm>
-1.17786

>  <SCORE.INTRA>
0.269397

>  <SCORE.INTRA.DIHEDRAL>
2.09276

>  <SCORE.INTRA.DIHEDRAL.0>
2.60093

>  <SCORE.INTRA.POLAR>
0

>  <SCORE.INTRA.POLAR.0>
0

>  <SCORE.INTRA.REPUL>
0

>  <SCORE.INTRA.REPUL.0>
0

>  <SCORE.INTRA.SOLV>
-0.668131

>  <SCORE.INTRA.SOLV.lig_0>
-33.7882

>  <SCORE.INTRA.VDW>
-0.442918

>  <SCORE.INTRA.VDW.0>
-0.593976

>  <SCORE.INTRA.norm>
0.0269397

>  <SCORE.RESTR>
0

>  <SCORE.RESTR.CAVITY>
0

>  <SCORE.RESTR.norm>
0

>  <SCORE.SYSTEM>
0

>  <SCORE.SYSTEM.CONST>
0

>  <SCORE.SYSTEM.DIHEDRAL>
0

>  <SCORE.SYSTEM.SOLV>
0

>  <SCORE.SYSTEM.norm>
0

>  <SCORE.heavy>
10

>  <SCORE.norm>
-1.15092

>  <RMSD>
5.564

$$$$
ligand
 OpenBabel11021811473D
libRbt.so/2013.1/901 2013/11/27
 10  9  0  0  0  0  0  0  0  0999 V2000
   26.1156   14.9681   20.8746 N   0  0  0  0  0  0  0  0  0  0  0  0
   27.3627   15.6458   20.4143 C   0  0  2  0  0  0  0  0  0  0  0  0
   27.8721   15.0636   19.1278 C   0  0  0  0  0  0  0  0  0  0  0  0
   28.5520   15.7341   18.3566 O   0  0  0  0  0  0  0  0  0  0  0  0
   28.4148   15.6045   21.5188 C   0  0  0  0  0  0  0  0  0  0  0  0
   29.6906   16.7530   21.1032 S   0  0  0  0  0  0  0  0  0  0  0  0
   30.6796   16.6931   22.5613 C   0  0  0  0  0  0  0  0  0  0  0  0
   31.9220   17.5524   22.3487 C   0  0  0  0  0  0  0  0  0  0  0  0
   32.7796   16.9388   21.3548 N   0  0  0  0  0  0  0  0  0  0  0  0
   27.6609   13.9004   18.7916 O   0  0  0  0  0  0  0  0  0  0  0  0
  2  1  1  1  0  0  0
  2  3  1  0  0  0  0
  2  5  1  0  0  0  0
  3  4  1  0  0  0  0
  3 10  1  0  0  0  0
  5  6  1  0  0  0  0
  6  7  1  0  0  0  0
  7  8  1  0  0  0  0
  8  9  1  0  0  0  0
M  END
>  <CHROM.1>
153.69790986,-165.66894453,173.64952434,175.37984479,-68.23181170,29.17313939
15.96908858,20.66627660,2.55989791,-0.31966617,-1.87542181

>  <Name>
ligand

>  <RI>
0

>  <Rbt.Current_Directory>
/home/itssahil/PROJECTS/Mol_Feturizer/New_Systems/rnas/3DIG

>  <Rbt.Executable>
rbdock ($Id: //depot/dev/client3/rdock/2013.1/src/exe/rbdock.cxx#4 $)

>  <Rbt.Library>
libRbt.so (2013.1, Build901 2013/11/27)

>  <Rbt.Parameter_File>
/export/apps/rDock/src/rDock_2013.1_src/data/scripts/dock_solv.prm

>  <Rbt.Receptor>
prm/pocket_docking_5.prm

>  <SCORE>
-10.3776

>  <SCORE.INTER>
-9.44182

>  <SCORE.INTER.CONST>
1

>  <SCORE.INTER.POLAR>
0

>  <SCORE.INTER.ROT>
5

>  <SCORE.INTER.SOLV>
17.6682

>  <SCORE.INTER.VDW>
-19.1173

>  <SCORE.INTER.norm>
-0.944182

>  <SCORE.INTRA>
-0.935784

>  <SCORE.INTRA.DIHEDRAL>
-0.078641

>  <SCORE.INTRA.DIHEDRAL.0>
2.60093

>  <SCORE.INTRA.POLAR>
0

>  <SCORE.INTRA.POLAR.0>
0

>  <SCORE.INTRA.REPUL>
0

>  <SCORE.INTRA.REPUL.0>
0

>  <SCORE.INTRA.SOLV>
-0.709909

>  <SCORE.INTRA.SOLV.lig_0>
-33.7882

>  <SCORE.INTRA.VDW>
-0.541509

>  <SCORE.INTRA.VDW.0>
-0.593976

>  <SCORE.INTRA.norm>
-0.0935784

>  <SCORE.RESTR>
0

>  <SCORE.RESTR.CAVITY>
0

>  <SCORE.RESTR.norm>
0

>  <SCORE.SYSTEM>
0

>  <SCORE.SYSTEM.CONST>
0

>  <SCORE.SYSTEM.DIHEDRAL>
0

>  <SCORE.SYSTEM.SOLV>
0

>  <SCORE.SYSTEM.norm>
0

>  <SCORE.heavy>
10

>  <SCORE.norm>
-1.03776

>  <RMSD>
5.564

$$$$
ligand
 OpenBabel11021811473D
libRbt.so/2013.1/901 2013/11/27
 10  9  0  0  0  0  0  0  0  0999 V2000
   28.1617   14.4246   18.9981 N   0  0  0  0  0  0  0  0  0  0  0  0
   28.2787   14.5118   20.4831 C   0  0  2  0  0  0  0  0  0  0  0  0
   26.9714   14.8744   21.1256 C   0  0  0  0  0  0  0  0  0  0  0  0
   26.8088   14.7574   22.3366 O   0  0  0  0  0  0  0  0  0  0  0  0
   29.3925   15.4842   20.8605 C   0  0  0  0  0  0  0  0  0  0  0  0
   29.7194   15.2992   22.5863 S   0  0  0  0  0  0  0  0  0  0  0  0
   30.8301   16.6406   22.8599 C   0  0  0  0  0  0  0  0  0  0  0  0
   32.1592   16.3252   22.1809 C   0  0  0  0  0  0  0  0  0  0  0  0
   33.0818   17.4262   22.3717 N   0  0  0  0  0  0  0  0  0  0  0  0
   26.0174   15.3210   20.4922 O   0  0  0  0  0  0  0  0  0  0  0  0
  2  1  1  6  0  0  0
  2  3  1  0  0  0  0
  2  5  1  0  0  0  0
  3  4  1  0  0  0  0
  3 10  1  0  0  0  0
  5  6  1  0  0  0  0
  6  7  1  0  0  0  0
  7  8  1  0  0  0  0
  8  9  1  0  0  0  0
M  END
>  <CHROM.1>
166.69058596,-168.27669539,-172.03383211,-70.33875351,178.95871463,29.17242040
15.48559382,21.57017331,-2.76546672,0.29059114,1.39771471

>  <Name>
ligand

>  <RI>
0

>  <Rbt.Current_Directory>
/home/itssahil/PROJECTS/Mol_Feturizer/New_Systems/rnas/3DIG

>  <Rbt.Executable>
rbdock ($Id: //depot/dev/client3/rdock/2013.1/src/exe/rbdock.cxx#4 $)

>  <Rbt.Library>
libRbt.so (2013.1, Build901 2013/11/27)

>  <Rbt.Parameter_File>
/export/apps/rDock/src/rDock_2013.1_src/data/scripts/dock_solv.prm

>  <Rbt.Receptor>
prm/pocket_docking_4.prm

>  <SCORE>
-11.87

>  <SCORE.INTER>
-11.1032

>  <SCORE.INTER.CONST>
1

>  <SCORE.INTER.POLAR>
0

>  <SCORE.INTER.ROT>
5

>  <SCORE.INTER.SOLV>
14.1362

>  <SCORE.INTER.VDW>
-19.0475

>  <SCORE.INTER.norm>
-1.11032

>  <SCORE.INTRA>
-0.76684

>  <SCORE.INTRA.DIHEDRAL>
-0.364333

>  <SCORE.INTRA.DIHEDRAL.0>
2.60093

>  <SCORE.INTRA.POLAR>
0

>  <SCORE.INTRA.POLAR.0>
0

>  <SCORE.INTRA.REPUL>
0

>  <SCORE.INTRA.REPUL.0>
0

>  <SCORE.INTRA.SOLV>
-1.33866

>  <SCORE.INTRA.SOLV.lig_0>
-33.7882

>  <SCORE.INTRA.VDW>
0.0846549

>  <SCORE.INTRA.VDW.0>
-0.593976

>  <SCORE.INTRA.norm>
-0.076684

>  <SCORE.RESTR>
0

>  <SCORE.RESTR.CAVITY>
0

>  <SCORE.RESTR.norm>
0

>  <SCORE.SYSTEM>
0

>  <SCORE.SYSTEM.CONST>
0

>  <SCORE.SYSTEM.DIHEDRAL>
0

>  <SCORE.SYSTEM.SOLV>
0

>  <SCORE.SYSTEM.norm>
0

>  <SCORE.heavy>
10

>  <SCORE.norm>
-1.187

>  <RMSD>
5.565

$$$$
ligand
 OpenBabel11021811473D
libRbt.so/2013.1/901 2013/11/27
 10  9  0  0  0  0  0  0  0  0999 V2000
   29.0750   15.1673   19.8788 N   0  0  0  0  0  0  0  0  0  0  0  0
   28.4495   14.8080   21.1850 C   0  0  2  0  0  0  0  0  0  0  0  0
   26.9522   14.8999   21.1308 C   0  0  0  0  0  0  0  0  0  0  0  0
   26.3843   15.3903   20.1594 O   0  0  0  0  0  0  0  0  0  0  0  0
   29.0372   15.6712   22.2977 C   0  0  0  0  0  0  0  0  0  0  0  0
   30.7797   15.3880   22.3482 S   0  0  0  0  0  0  0  0  0  0  0  0
   31.3469   16.6001   21.2007 C   0  0  0  0  0  0  0  0  0  0  0  0
   32.8660   16.5069   21.0972 C   0  0  0  0  0  0  0  0  0  0  0  0
   33.4685   16.8851   22.3597 N   0  0  0  0  0  0  0  0  0  0  0  0
   26.2245   14.4777   22.0268 O   0  0  0  0  0  0  0  0  0  0  0  0
  2  1  1  6  0  0  0
  2  3  1  0  0  0  0
  2  5  1  0  0  0  0
  3  4  1  0  0  0  0
  3 10  1  0  0  0  0
  5  6  1  0  0  0  0
  6  7  1  0  0  0  0
  7  8  1  0  0  0  0
  8  9  1  0  0  0  0
M  END
>  <CHROM.1>
-8.94303575,-59.35342577,88.75314899,-179.69619199,-65.92639664,29.56754793
15.55514547,21.47683296,-3.06830347,0.28101338,1.78996443

>  <Name>
ligand

>  <RI>
0

>  <Rbt.Current_Directory>
/home/itssahil/PROJECTS/Mol_Feturizer/New_Systems/rnas/3DIG

>  <Rbt.Executable>
rbdock ($Id: //depot/dev/client3/rdock/2013.1/src/exe/rbdock.cxx#4 $)

>  <Rbt.Library>
libRbt.so (2013.1, Build901 2013/11/27)

>  <Rbt.Parameter_File>
/export/apps/rDock/src/rDock_2013.1_src/data/scripts/dock_solv.prm

>  <Rbt.Receptor>
prm/blind_docking_60.prm

>  <SCORE>
-11.0684

>  <SCORE.INTER>
-11.8477

>  <SCORE.INTER.CONST>
1

>  <SCORE.INTER.POLAR>
0

>  <SCORE.INTER.ROT>
5

>  <SCORE.INTER.SOLV>
12.3768

>  <SCORE.INTER.VDW>
-18.9574

>  <SCORE.INTER.norm>
-1.18477

>  <SCORE.INTRA>
0.779282

>  <SCORE.INTRA.DIHEDRAL>
0.180496

>  <SCORE.INTRA.DIHEDRAL.0>
2.60093

>  <SCORE.INTRA.POLAR>
0

>  <SCORE.INTRA.POLAR.0>
0

>  <SCORE.INTRA.REPUL>
0

>  <SCORE.INTRA.REPUL.0>
0

>  <SCORE.INTRA.SOLV>
1.67555

>  <SCORE.INTRA.SOLV.lig_0>
-33.7882

>  <SCORE.INTRA.VDW>
-0.14874

>  <SCORE.INTRA.VDW.0>
-0.593976

>  <SCORE.INTRA.norm>
0.0779282

>  <SCORE.RESTR>
0

>  <SCORE.RESTR.CAVITY>
0

>  <SCORE.RESTR.norm>
0

>  <SCORE.SYSTEM>
0

>  <SCORE.SYSTEM.CONST>
0

>  <SCORE.SYSTEM.DIHEDRAL>
0

>  <SCORE.SYSTEM.SOLV>
0

>  <SCORE.SYSTEM.norm>
0

>  <SCORE.heavy>
10

>  <SCORE.norm>
-1.10684

>  <RMSD>
5.566

$$$$
ligand
 OpenBabel11021811473D
libRbt.so/2013.1/901 2013/11/27
 10  9  0  0  0  0  0  0  0  0999 V2000
   26.0567   14.8935   20.9325 N   0  0  0  0  0  0  0  0  0  0  0  0
   27.3400   15.5929   20.6317 C   0  0  2  0  0  0  0  0  0  0  0  0
   27.8626   15.2388   19.2697 C   0  0  0  0  0  0  0  0  0  0  0  0
   27.5809   14.1658   18.7445 O   0  0  0  0  0  0  0  0  0  0  0  0
   28.3592   15.3043   21.7300 C   0  0  0  0  0  0  0  0  0  0  0  0
   29.7670   16.3349   21.4553 S   0  0  0  0  0  0  0  0  0  0  0  0
   30.9094   15.6522   22.6115 C   0  0  0  0  0  0  0  0  0  0  0  0
   32.2735   16.3002   22.3964 C   0  0  0  0  0  0  0  0  0  0  0  0
   32.2017   17.7127   22.7119 N   0  0  0  0  0  0  0  0  0  0  0  0
   28.5687   15.9965   18.6078 O   0  0  0  0  0  0  0  0  0  0  0  0
  2  1  1  1  0  0  0
  2  3  1  0  0  0  0
  2  5  1  0  0  0  0
  3  4  1  0  0  0  0
  3 10  1  0  0  0  0
  5  6  1  0  0  0  0
  6  7  1  0  0  0  0
  7  8  1  0  0  0  0
  8  9  1  0  0  0  0
M  END
>  <CHROM.1>
-26.53130977,-171.81371799,-170.06968717,172.56186946,65.01516671,29.16986095
15.77983042,20.93794564,2.58081151,-0.35706547,-1.60818058

>  <Name>
ligand

>  <RI>
0

>  <Rbt.Current_Directory>
/home/itssahil/PROJECTS/Mol_Feturizer/New_Systems/rnas/3DIG

>  <Rbt.Executable>
rbdock ($Id: //depot/dev/client3/rdock/2013.1/src/exe/rbdock.cxx#4 $)

>  <Rbt.Library>
libRbt.so (2013.1, Build901 2013/11/27)

>  <Rbt.Parameter_File>
/export/apps/rDock/src/rDock_2013.1_src/data/scripts/dock_solv.prm

>  <Rbt.Receptor>
prm/pocket_docking_5.prm

>  <SCORE>
-10.5375

>  <SCORE.INTER>
-9.55579

>  <SCORE.INTER.CONST>
1

>  <SCORE.INTER.POLAR>
0

>  <SCORE.INTER.ROT>
5

>  <SCORE.INTER.SOLV>
17.9762

>  <SCORE.INTER.VDW>
-19.2959

>  <SCORE.INTER.norm>
-0.955579

>  <SCORE.INTRA>
-0.981749

>  <SCORE.INTRA.DIHEDRAL>
-0.464048

>  <SCORE.INTRA.DIHEDRAL.0>
2.60093

>  <SCORE.INTRA.POLAR>
0

>  <SCORE.INTRA.POLAR.0>
0

>  <SCORE.INTRA.REPUL>
0

>  <SCORE.INTRA.REPUL.0>
0

>  <SCORE.INTRA.SOLV>
-0.713516

>  <SCORE.INTRA.SOLV.lig_0>
-33.7882

>  <SCORE.INTRA.VDW>
-0.392967

>  <SCORE.INTRA.VDW.0>
-0.593976

>  <SCORE.INTRA.norm>
-0.0981749

>  <SCORE.RESTR>
0

>  <SCORE.RESTR.CAVITY>
0

>  <SCORE.RESTR.norm>
0

>  <SCORE.SYSTEM>
0

>  <SCORE.SYSTEM.CONST>
0

>  <SCORE.SYSTEM.DIHEDRAL>
0

>  <SCORE.SYSTEM.SOLV>
0

>  <SCORE.SYSTEM.norm>
0

>  <SCORE.heavy>
10

>  <SCORE.norm>
-1.05375

>  <RMSD>
5.568

$$$$
ligand
 OpenBabel11021811473D
libRbt.so/2013.1/901 2013/11/27
 10  9  0  0  0  0  0  0  0  0999 V2000
   26.2178   15.4808   20.2341 N   0  0  0  0  0  0  0  0  0  0  0  0
   27.6671   15.3058   19.9250 C   0  0  2  0  0  0  0  0  0  0  0  0
   27.8823   14.7913   18.5313 C   0  0  0  0  0  0  0  0  0  0  0  0
   28.5887   15.4021   17.7346 O   0  0  0  0  0  0  0  0  0  0  0  0
   28.3178   14.4091   20.9742 C   0  0  0  0  0  0  0  0  0  0  0  0
   28.2676   15.2543   22.5242 S   0  0  0  0  0  0  0  0  0  0  0  0
   29.9828   15.5632   22.7901 C   0  0  0  0  0  0  0  0  0  0  0  0
   30.4036   16.7617   21.9455 C   0  0  0  0  0  0  0  0  0  0  0  0
   31.7857   17.0973   22.2229 N   0  0  0  0  0  0  0  0  0  0  0  0
   27.3923   13.7400   18.1246 O   0  0  0  0  0  0  0  0  0  0  0  0
  2  1  1  1  0  0  0
  2  3  1  0  0  0  0
  2  5  1  0  0  0  0
  3  4  1  0  0  0  0
  3 10  1  0  0  0  0
  5  6  1  0  0  0  0
  6  7  1  0  0  0  0
  7  8  1  0  0  0  0
  8  9  1  0  0  0  0
M  END
>  <CHROM.1>
123.88112155,-65.46356938,-112.49396869,78.92266254,175.75526721,28.60670051
15.35389606,20.69454933,2.20939836,-0.44180457,-1.64348717

>  <Name>
ligand

>  <RI>
0

>  <Rbt.Current_Directory>
/home/itssahil/PROJECTS/Mol_Feturizer/New_Systems/rnas/3DIG

>  <Rbt.Executable>
rbdock ($Id: //depot/dev/client3/rdock/2013.1/src/exe/rbdock.cxx#4 $)

>  <Rbt.Library>
libRbt.so (2013.1, Build901 2013/11/27)

>  <Rbt.Parameter_File>
/export/apps/rDock/src/rDock_2013.1_src/data/scripts/dock_solv.prm

>  <Rbt.Receptor>
prm/pocket_docking_6.prm

>  <SCORE>
-11.4177

>  <SCORE.INTER>
-11.6182

>  <SCORE.INTER.CONST>
1

>  <SCORE.INTER.POLAR>
0

>  <SCORE.INTER.ROT>
5

>  <SCORE.INTER.SOLV>
17.0106

>  <SCORE.INTER.VDW>
-20.349

>  <SCORE.INTER.norm>
-1.16182

>  <SCORE.INTRA>
0.200488

>  <SCORE.INTRA.DIHEDRAL>
1.90909

>  <SCORE.INTRA.DIHEDRAL.0>
2.60093

>  <SCORE.INTRA.POLAR>
0

>  <SCORE.INTRA.POLAR.0>
0

>  <SCORE.INTRA.REPUL>
0

>  <SCORE.INTRA.REPUL.0>
0

>  <SCORE.INTRA.SOLV>
-0.628268

>  <SCORE.INTRA.SOLV.lig_0>
-33.7882

>  <SCORE.INTRA.VDW>
-0.439923

>  <SCORE.INTRA.VDW.0>
-0.593976

>  <SCORE.INTRA.norm>
0.0200488

>  <SCORE.RESTR>
0

>  <SCORE.RESTR.CAVITY>
0

>  <SCORE.RESTR.norm>
0

>  <SCORE.SYSTEM>
0

>  <SCORE.SYSTEM.CONST>
0

>  <SCORE.SYSTEM.DIHEDRAL>
0

>  <SCORE.SYSTEM.SOLV>
0

>  <SCORE.SYSTEM.norm>
0

>  <SCORE.heavy>
10

>  <SCORE.norm>
-1.14177

>  <RMSD>
5.568

$$$$
ligand
 OpenBabel11021811473D
libRbt.so/2013.1/901 2013/11/27
 10  9  0  0  0  0  0  0  0  0999 V2000
   26.1381   14.8600   20.9462 N   0  0  0  0  0  0  0  0  0  0  0  0
   27.1763   15.5951   20.1663 C   0  0  2  0  0  0  0  0  0  0  0  0
   27.6714   14.7907   18.9996 C   0  0  0  0  0  0  0  0  0  0  0  0
   27.2840   13.6407   18.8153 O   0  0  0  0  0  0  0  0  0  0  0  0
   28.3124   16.0254   21.0897 C   0  0  0  0  0  0  0  0  0  0  0  0
   28.9920   14.5753   21.8344 S   0  0  0  0  0  0  0  0  0  0  0  0
   30.5037   15.2111   22.4812 C   0  0  0  0  0  0  0  0  0  0  0  0
   31.4361   15.5400   21.3195 C   0  0  0  0  0  0  0  0  0  0  0  0
   32.6132   16.2259   21.8134 N   0  0  0  0  0  0  0  0  0  0  0  0
   28.4587   15.2364   18.1675 O   0  0  0  0  0  0  0  0  0  0  0  0
  2  1  1  1  0  0  0
  2  3  1  0  0  0  0
  2  5  1  0  0  0  0
  3  4  1  0  0  0  0
  3 10  1  0  0  0  0
  5  6  1  0  0  0  0
  6  7  1  0  0  0  0
  7  8  1  0  0  0  0
  8  9  1  0  0  0  0
M  END
>  <CHROM.1>
-3.99818691,58.81908276,165.44121902,-69.61722728,172.53016704,28.87477882
15.08657679,20.67806172,2.60905244,-0.21421420,-1.58666530

>  <Name>
ligand

>  <RI>
0

>  <Rbt.Current_Directory>
/home/itssahil/PROJECTS/Mol_Feturizer/New_Systems/rnas/3DIG

>  <Rbt.Executable>
rbdock ($Id: //depot/dev/client3/rdock/2013.1/src/exe/rbdock.cxx#4 $)

>  <Rbt.Library>
libRbt.so (2013.1, Build901 2013/11/27)

>  <Rbt.Parameter_File>
/export/apps/rDock/src/rDock_2013.1_src/data/scripts/dock_solv.prm

>  <Rbt.Receptor>
prm/blind_docking_100.prm

>  <SCORE>
-11.679

>  <SCORE.INTER>
-11.2022

>  <SCORE.INTER.CONST>
1

>  <SCORE.INTER.POLAR>
0

>  <SCORE.INTER.ROT>
5

>  <SCORE.INTER.SOLV>
18.0649

>  <SCORE.INTER.VDW>
-20.4231

>  <SCORE.INTER.norm>
-1.12022

>  <SCORE.INTRA>
-0.47679

>  <SCORE.INTRA.DIHEDRAL>
-0.394238

>  <SCORE.INTRA.DIHEDRAL.0>
2.60093

>  <SCORE.INTRA.POLAR>
0

>  <SCORE.INTRA.POLAR.0>
0

>  <SCORE.INTRA.REPUL>
0

>  <SCORE.INTRA.REPUL.0>
0

>  <SCORE.INTRA.SOLV>
-0.376458

>  <SCORE.INTRA.SOLV.lig_0>
-33.7882

>  <SCORE.INTRA.VDW>
-0.0914414

>  <SCORE.INTRA.VDW.0>
-0.593976

>  <SCORE.INTRA.norm>
-0.047679

>  <SCORE.RESTR>
0

>  <SCORE.RESTR.CAVITY>
0

>  <SCORE.RESTR.norm>
0

>  <SCORE.SYSTEM>
0

>  <SCORE.SYSTEM.CONST>
0

>  <SCORE.SYSTEM.DIHEDRAL>
0

>  <SCORE.SYSTEM.SOLV>
0

>  <SCORE.SYSTEM.norm>
0

>  <SCORE.heavy>
10

>  <SCORE.norm>
-1.1679

>  <RMSD>
5.569

$$$$
ligand
 OpenBabel11021811473D
libRbt.so/2013.1/901 2013/11/27
 10  9  0  0  0  0  0  0  0  0999 V2000
   29.2150   16.2763   19.9827 N   0  0  0  0  0  0  0  0  0  0  0  0
   28.5435   15.0404   20.4807 C   0  0  2  0  0  0  0  0  0  0  0  0
   27.2304   14.8030   19.7931 C   0  0  0  0  0  0  0  0  0  0  0  0
   27.1574   14.0817   18.8026 O   0  0  0  0  0  0  0  0  0  0  0  0
   28.3929   15.1060   21.9978 C   0  0  0  0  0  0  0  0  0  0  0  0
   29.9938   14.9064   22.7163 S   0  0  0  0  0  0  0  0  0  0  0  0
   30.6600   16.5240   22.4987 C   0  0  0  0  0  0  0  0  0  0  0  0
   32.1792   16.4503   22.6153 C   0  0  0  0  0  0  0  0  0  0  0  0
   32.7477   17.7755   22.4721 N   0  0  0  0  0  0  0  0  0  0  0  0
   26.1726   15.2887   20.1880 O   0  0  0  0  0  0  0  0  0  0  0  0
  2  1  1  6  0  0  0
  2  3  1  0  0  0  0
  2  5  1  0  0  0  0
  3  4  1  0  0  0  0
  3 10  1  0  0  0  0
  5  6  1  0  0  0  0
  6  7  1  0  0  0  0
  7  8  1  0  0  0  0
  8  9  1  0  0  0  0
M  END
>  <CHROM.1>
93.80207313,-71.46022153,78.94446630,-160.91917707,-178.61228810,29.28150885
15.53426306,21.31198704,-2.85137815,0.57383117,2.07194787

>  <Name>
ligand

>  <RI>
0

>  <Rbt.Current_Directory>
/home/itssahil/PROJECTS/Mol_Feturizer/New_Systems/rnas/3DIG

>  <Rbt.Executable>
rbdock ($Id: //depot/dev/client3/rdock/2013.1/src/exe/rbdock.cxx#4 $)

>  <Rbt.Library>
libRbt.so (2013.1, Build901 2013/11/27)

>  <Rbt.Parameter_File>
/export/apps/rDock/src/rDock_2013.1_src/data/scripts/dock_solv.prm

>  <Rbt.Receptor>
prm/blind_docking_80.prm

>  <SCORE>
-10.3577

>  <SCORE.INTER>
-11.0938

>  <SCORE.INTER.CONST>
1

>  <SCORE.INTER.POLAR>
0

>  <SCORE.INTER.ROT>
5

>  <SCORE.INTER.SOLV>
12.106

>  <SCORE.INTER.VDW>
-18.3645

>  <SCORE.INTER.norm>
-1.10938

>  <SCORE.INTRA>
0.736075

>  <SCORE.INTRA.DIHEDRAL>
0.480974

>  <SCORE.INTRA.DIHEDRAL.0>
2.60093

>  <SCORE.INTRA.POLAR>
0

>  <SCORE.INTRA.POLAR.0>
0

>  <SCORE.INTRA.REPUL>
0

>  <SCORE.INTRA.REPUL.0>
0

>  <SCORE.INTRA.SOLV>
0.898932

>  <SCORE.INTRA.SOLV.lig_0>
-33.7882

>  <SCORE.INTRA.VDW>
0.0461226

>  <SCORE.INTRA.VDW.0>
-0.593976

>  <SCORE.INTRA.norm>
0.0736075

>  <SCORE.RESTR>
0

>  <SCORE.RESTR.CAVITY>
0

>  <SCORE.RESTR.norm>
0

>  <SCORE.SYSTEM>
0

>  <SCORE.SYSTEM.CONST>
0

>  <SCORE.SYSTEM.DIHEDRAL>
0

>  <SCORE.SYSTEM.SOLV>
0

>  <SCORE.SYSTEM.norm>
0

>  <SCORE.heavy>
10

>  <SCORE.norm>
-1.03577

>  <RMSD>
5.569

$$$$
ligand
 OpenBabel11021811473D
libRbt.so/2013.1/901 2013/11/27
 10  9  0  0  0  0  0  0  0  0999 V2000
   29.0451   15.3173   19.8527 N   0  0  0  0  0  0  0  0  0  0  0  0
   28.4312   14.8690   21.1367 C   0  0  2  0  0  0  0  0  0  0  0  0
   26.9326   14.9482   21.0965 C   0  0  0  0  0  0  0  0  0  0  0  0
   26.2506   14.4730   21.9996 O   0  0  0  0  0  0  0  0  0  0  0  0
   29.0166   15.6658   22.2989 C   0  0  0  0  0  0  0  0  0  0  0  0
   30.7577   15.3724   22.3422 S   0  0  0  0  0  0  0  0  0  0  0  0
   31.3281   16.5881   21.2001 C   0  0  0  0  0  0  0  0  0  0  0  0
   32.8528   16.5538   21.1657 C   0  0  0  0  0  0  0  0  0  0  0  0
   33.3828   16.9818   22.4447 N   0  0  0  0  0  0  0  0  0  0  0  0
   26.3175   15.5016   20.1876 O   0  0  0  0  0  0  0  0  0  0  0  0
  2  1  1  6  0  0  0
  2  3  1  0  0  0  0
  2  5  1  0  0  0  0
  3  4  1  0  0  0  0
  3 10  1  0  0  0  0
  5  6  1  0  0  0  0
  6  7  1  0  0  0  0
  7  8  1  0  0  0  0
  8  9  1  0  0  0  0
M  END
>  <CHROM.1>
171.26198523,-60.49276101,85.84488627,176.32213909,-66.21793468,29.54124395
15.59564222,21.48043756,-3.07123768,0.28495321,1.84372882

>  <Name>
ligand

>  <RI>
0

>  <Rbt.Current_Directory>
/home/itssahil/PROJECTS/Mol_Feturizer/New_Systems/rnas/3DIG

>  <Rbt.Executable>
rbdock ($Id: //depot/dev/client3/rdock/2013.1/src/exe/rbdock.cxx#4 $)

>  <Rbt.Library>
libRbt.so (2013.1, Build901 2013/11/27)

>  <Rbt.Parameter_File>
/export/apps/rDock/src/rDock_2013.1_src/data/scripts/dock_solv.prm

>  <Rbt.Receptor>
prm/pocket_docking_3.prm

>  <SCORE>
-11.1535

>  <SCORE.INTER>
-11.9241

>  <SCORE.INTER.CONST>
1

>  <SCORE.INTER.POLAR>
0

>  <SCORE.INTER.ROT>
5

>  <SCORE.INTER.SOLV>
12.0842

>  <SCORE.INTER.VDW>
-18.9108

>  <SCORE.INTER.norm>
-1.19241

>  <SCORE.INTRA>
0.770609

>  <SCORE.INTRA.DIHEDRAL>
-0.0144531

>  <SCORE.INTRA.DIHEDRAL.0>
2.60093

>  <SCORE.INTRA.POLAR>
0

>  <SCORE.INTRA.POLAR.0>
0

>  <SCORE.INTRA.REPUL>
0

>  <SCORE.INTRA.REPUL.0>
0

>  <SCORE.INTRA.SOLV>
1.7064

>  <SCORE.INTRA.SOLV.lig_0>
-33.7882

>  <SCORE.INTRA.VDW>
-0.075366

>  <SCORE.INTRA.VDW.0>
-0.593976

>  <SCORE.INTRA.norm>
0.0770609

>  <SCORE.RESTR>
0

>  <SCORE.RESTR.CAVITY>
0

>  <SCORE.RESTR.norm>
0

>  <SCORE.SYSTEM>
0

>  <SCORE.SYSTEM.CONST>
0

>  <SCORE.SYSTEM.DIHEDRAL>
0

>  <SCORE.SYSTEM.SOLV>
0

>  <SCORE.SYSTEM.norm>
0

>  <SCORE.heavy>
10

>  <SCORE.norm>
-1.11535

>  <RMSD>
5.569

$$$$
ligand
 OpenBabel11021811473D
libRbt.so/2013.1/901 2013/11/27
 10  9  0  0  0  0  0  0  0  0999 V2000
   27.0268   16.1388   20.2912 N   0  0  0  0  0  0  0  0  0  0  0  0
   28.2252   15.3653   19.8530 C   0  0  2  0  0  0  0  0  0  0  0  0
   28.0506   14.7994   18.4736 C   0  0  0  0  0  0  0  0  0  0  0  0
   28.6096   15.3084   17.5067 O   0  0  0  0  0  0  0  0  0  0  0  0
   28.5499   14.2840   20.8796 C   0  0  0  0  0  0  0  0  0  0  0  0
   29.1920   15.0741   22.3228 S   0  0  0  0  0  0  0  0  0  0  0  0
   30.7698   15.6010   21.7392 C   0  0  0  0  0  0  0  0  0  0  0  0
   31.3337   16.6339   22.7098 C   0  0  0  0  0  0  0  0  0  0  0  0
   32.6020   17.1311   22.2159 N   0  0  0  0  0  0  0  0  0  0  0  0
   27.3706   13.8020   18.2424 O   0  0  0  0  0  0  0  0  0  0  0  0
  2  1  1  1  0  0  0
  2  3  1  0  0  0  0
  2  5  1  0  0  0  0
  3  4  1  0  0  0  0
  3 10  1  0  0  0  0
  5  6  1  0  0  0  0
  6  7  1  0  0  0  0
  7  8  1  0  0  0  0
  8  9  1  0  0  0  0
M  END
>  <CHROM.1>
103.87350597,-71.37535675,-71.09282850,164.64584172,-177.19114989,29.16589405
15.36183400,20.60349858,2.36243553,-0.46925805,-1.52103507

>  <Name>
ligand

>  <RI>
0

>  <Rbt.Current_Directory>
/home/itssahil/PROJECTS/Mol_Feturizer/New_Systems/rnas/3DIG

>  <Rbt.Executable>
rbdock ($Id: //depot/dev/client3/rdock/2013.1/src/exe/rbdock.cxx#4 $)

>  <Rbt.Library>
libRbt.so (2013.1, Build901 2013/11/27)

>  <Rbt.Parameter_File>
/export/apps/rDock/src/rDock_2013.1_src/data/scripts/dock_solv.prm

>  <Rbt.Receptor>
prm/pocket_docking_6.prm

>  <SCORE>
-10.5374

>  <SCORE.INTER>
-10.0695

>  <SCORE.INTER.CONST>
1

>  <SCORE.INTER.POLAR>
0

>  <SCORE.INTER.ROT>
5

>  <SCORE.INTER.SOLV>
15.6422

>  <SCORE.INTER.VDW>
-18.8604

>  <SCORE.INTER.norm>
-1.00695

>  <SCORE.INTRA>
-0.467941

>  <SCORE.INTRA.DIHEDRAL>
-0.0422344

>  <SCORE.INTRA.DIHEDRAL.0>
2.60093

>  <SCORE.INTRA.POLAR>
0

>  <SCORE.INTRA.POLAR.0>
0

>  <SCORE.INTRA.REPUL>
0

>  <SCORE.INTRA.REPUL.0>
0

>  <SCORE.INTRA.SOLV>
-0.454129

>  <SCORE.INTRA.SOLV.lig_0>
-33.7882

>  <SCORE.INTRA.VDW>
-0.21976

>  <SCORE.INTRA.VDW.0>
-0.593976

>  <SCORE.INTRA.norm>
-0.0467941

>  <SCORE.RESTR>
0

>  <SCORE.RESTR.CAVITY>
0

>  <SCORE.RESTR.norm>
0

>  <SCORE.SYSTEM>
0

>  <SCORE.SYSTEM.CONST>
0

>  <SCORE.SYSTEM.DIHEDRAL>
0

>  <SCORE.SYSTEM.SOLV>
0

>  <SCORE.SYSTEM.norm>
0

>  <SCORE.heavy>
10

>  <SCORE.norm>
-1.05374

>  <RMSD>
5.569

$$$$
ligand
 OpenBabel11021811473D
libRbt.so/2013.1/901 2013/11/27
 10  9  0  0  0  0  0  0  0  0999 V2000
   26.3511   15.4261   20.3765 N   0  0  0  0  0  0  0  0  0  0  0  0
   27.7763   15.2381   19.9765 C   0  0  2  0  0  0  0  0  0  0  0  0
   27.8993   14.7503   18.5621 C   0  0  0  0  0  0  0  0  0  0  0  0
   27.3539   13.7110   18.2028 O   0  0  0  0  0  0  0  0  0  0  0  0
   28.4760   14.3108   20.9659 C   0  0  0  0  0  0  0  0  0  0  0  0
   28.5505   15.1321   22.5276 S   0  0  0  0  0  0  0  0  0  0  0  0
   29.8668   16.2696   22.2425 C   0  0  0  0  0  0  0  0  0  0  0  0
   31.1815   15.4977   22.1901 C   0  0  0  0  0  0  0  0  0  0  0  0
   32.2764   16.4095   21.9261 N   0  0  0  0  0  0  0  0  0  0  0  0
   28.5209   15.3626   17.6964 O   0  0  0  0  0  0  0  0  0  0  0  0
  2  1  1  1  0  0  0
  2  3  1  0  0  0  0
  2  5  1  0  0  0  0
  3  4  1  0  0  0  0
  3 10  1  0  0  0  0
  5  6  1  0  0  0  0
  6  7  1  0  0  0  0
  7  8  1  0  0  0  0
  8  9  1  0  0  0  0
M  END
>  <CHROM.1>
-57.25622278,-66.18030505,-76.80586470,-71.81042481,178.71421456,28.79039435
15.19063323,20.66478836,2.27713958,-0.26244825,-1.66314404

>  <Name>
ligand

>  <RI>
0

>  <Rbt.Current_Directory>
/home/itssahil/PROJECTS/Mol_Feturizer/New_Systems/rnas/3DIG

>  <Rbt.Executable>
rbdock ($Id: //depot/dev/client3/rdock/2013.1/src/exe/rbdock.cxx#4 $)

>  <Rbt.Library>
libRbt.so (2013.1, Build901 2013/11/27)

>  <Rbt.Parameter_File>
/export/apps/rDock/src/rDock_2013.1_src/data/scripts/dock_solv.prm

>  <Rbt.Receptor>
prm/pocket_docking_8.prm

>  <SCORE>
-11.5479

>  <SCORE.INTER>
-11.1772

>  <SCORE.INTER.CONST>
1

>  <SCORE.INTER.POLAR>
0

>  <SCORE.INTER.ROT>
5

>  <SCORE.INTER.SOLV>
16.8793

>  <SCORE.INTER.VDW>
-20.0112

>  <SCORE.INTER.norm>
-1.11772

>  <SCORE.INTRA>
-0.370698

>  <SCORE.INTRA.DIHEDRAL>
-0.308075

>  <SCORE.INTRA.DIHEDRAL.0>
2.60093

>  <SCORE.INTRA.POLAR>
0

>  <SCORE.INTRA.POLAR.0>
0

>  <SCORE.INTRA.REPUL>
0

>  <SCORE.INTRA.REPUL.0>
0

>  <SCORE.INTRA.SOLV>
-0.182699

>  <SCORE.INTRA.SOLV.lig_0>
-33.7882

>  <SCORE.INTRA.VDW>
-0.125311

>  <SCORE.INTRA.VDW.0>
-0.593976

>  <SCORE.INTRA.norm>
-0.0370698

>  <SCORE.RESTR>
0

>  <SCORE.RESTR.CAVITY>
0

>  <SCORE.RESTR.norm>
0

>  <SCORE.SYSTEM>
0

>  <SCORE.SYSTEM.CONST>
0

>  <SCORE.SYSTEM.DIHEDRAL>
0

>  <SCORE.SYSTEM.SOLV>
0

>  <SCORE.SYSTEM.norm>
0

>  <SCORE.heavy>
10

>  <SCORE.norm>
-1.15479

>  <RMSD>
5.569

$$$$
ligand
 OpenBabel11021811473D
libRbt.so/2013.1/901 2013/11/27
 10  9  0  0  0  0  0  0  0  0999 V2000
   26.5827   15.1574   20.4631 N   0  0  0  0  0  0  0  0  0  0  0  0
   27.9048   15.3842   19.8095 C   0  0  2  0  0  0  0  0  0  0  0  0
   27.9526   14.7976   18.4285 C   0  0  0  0  0  0  0  0  0  0  0  0
   28.5997   15.3365   17.5355 O   0  0  0  0  0  0  0  0  0  0  0  0
   29.0231   14.8487   20.6990 C   0  0  0  0  0  0  0  0  0  0  0  0
   29.0650   15.8224   22.1720 S   0  0  0  0  0  0  0  0  0  0  0  0
   30.6102   15.3220   22.8574 C   0  0  0  0  0  0  0  0  0  0  0  0
   31.7359   15.9753   22.0617 C   0  0  0  0  0  0  0  0  0  0  0  0
   31.7234   17.4080   22.2784 N   0  0  0  0  0  0  0  0  0  0  0  0
   27.3772   13.7545   18.1260 O   0  0  0  0  0  0  0  0  0  0  0  0
  2  1  1  1  0  0  0
  2  3  1  0  0  0  0
  2  5  1  0  0  0  0
  3  4  1  0  0  0  0
  3 10  1  0  0  0  0
  5  6  1  0  0  0  0
  6  7  1  0  0  0  0
  7  8  1  0  0  0  0
  8  9  1  0  0  0  0
M  END
>  <CHROM.1>
146.16544894,-65.81705419,-167.10596930,74.89700193,67.59300445,29.05308507
15.41712648,20.60349899,2.26343920,-0.32456868,-1.69235881

>  <Name>
ligand

>  <RI>
0

>  <Rbt.Current_Directory>
/home/itssahil/PROJECTS/Mol_Feturizer/New_Systems/rnas/3DIG

>  <Rbt.Executable>
rbdock ($Id: //depot/dev/client3/rdock/2013.1/src/exe/rbdock.cxx#4 $)

>  <Rbt.Library>
libRbt.so (2013.1, Build901 2013/11/27)

>  <Rbt.Parameter_File>
/export/apps/rDock/src/rDock_2013.1_src/data/scripts/dock_solv.prm

>  <Rbt.Receptor>
prm/pocket_docking_6.prm

>  <SCORE>
-10.5451

>  <SCORE.INTER>
-10.365

>  <SCORE.INTER.CONST>
1

>  <SCORE.INTER.POLAR>
0

>  <SCORE.INTER.ROT>
5

>  <SCORE.INTER.SOLV>
15.9553

>  <SCORE.INTER.VDW>
-19.1618

>  <SCORE.INTER.norm>
-1.0365

>  <SCORE.INTRA>
-0.180026

>  <SCORE.INTRA.DIHEDRAL>
-0.209372

>  <SCORE.INTRA.DIHEDRAL.0>
2.60093

>  <SCORE.INTRA.POLAR>
0

>  <SCORE.INTRA.POLAR.0>
0

>  <SCORE.INTRA.REPUL>
0

>  <SCORE.INTRA.REPUL.0>
0

>  <SCORE.INTRA.SOLV>
0.394002

>  <SCORE.INTRA.SOLV.lig_0>
-33.7882

>  <SCORE.INTRA.VDW>
-0.272342

>  <SCORE.INTRA.VDW.0>
-0.593976

>  <SCORE.INTRA.norm>
-0.0180026

>  <SCORE.RESTR>
0

>  <SCORE.RESTR.CAVITY>
0

>  <SCORE.RESTR.norm>
0

>  <SCORE.SYSTEM>
0

>  <SCORE.SYSTEM.CONST>
0

>  <SCORE.SYSTEM.DIHEDRAL>
0

>  <SCORE.SYSTEM.SOLV>
0

>  <SCORE.SYSTEM.norm>
0

>  <SCORE.heavy>
10

>  <SCORE.norm>
-1.05451

>  <RMSD>
5.571

$$$$
ligand
 OpenBabel11021811473D
libRbt.so/2013.1/901 2013/11/27
 10  9  0  0  0  0  0  0  0  0999 V2000
   27.3563   14.9075   20.9453 N   0  0  0  0  0  0  0  0  0  0  0  0
   27.8759   15.7918   19.8615 C   0  0  2  0  0  0  0  0  0  0  0  0
   28.0645   15.0441   18.5735 C   0  0  0  0  0  0  0  0  0  0  0  0
   27.5483   13.9441   18.4003 O   0  0  0  0  0  0  0  0  0  0  0  0
   29.1599   16.4768   20.3203 C   0  0  0  0  0  0  0  0  0  0  0  0
   30.2922   15.2256   20.8414 S   0  0  0  0  0  0  0  0  0  0  0  0
   31.7539   16.1805   21.0849 C   0  0  0  0  0  0  0  0  0  0  0  0
   31.5923   17.0127   22.3531 C   0  0  0  0  0  0  0  0  0  0  0  0
   32.8176   17.7369   22.6249 N   0  0  0  0  0  0  0  0  0  0  0  0
   28.7140   15.4916   17.6308 O   0  0  0  0  0  0  0  0  0  0  0  0
  2  1  1  1  0  0  0
  2  3  1  0  0  0  0
  2  5  1  0  0  0  0
  3  4  1  0  0  0  0
  3 10  1  0  0  0  0
  5  6  1  0  0  0  0
  6  7  1  0  0  0  0
  7  8  1  0  0  0  0
  8  9  1  0  0  0  0
M  END
>  <CHROM.1>
15.67325747,54.69922924,171.73019737,73.11533039,176.08316759,29.59952252
15.70099138,20.29691240,2.46896108,-0.38855387,-1.69030362

>  <Name>
ligand

>  <RI>
0

>  <Rbt.Current_Directory>
/home/itssahil/PROJECTS/Mol_Feturizer/New_Systems/rnas/3DIG

>  <Rbt.Executable>
rbdock ($Id: //depot/dev/client3/rdock/2013.1/src/exe/rbdock.cxx#4 $)

>  <Rbt.Library>
libRbt.so (2013.1, Build901 2013/11/27)

>  <Rbt.Parameter_File>
/export/apps/rDock/src/rDock_2013.1_src/data/scripts/dock_solv.prm

>  <Rbt.Receptor>
prm/pocket_docking_6.prm

>  <SCORE>
-10.4148

>  <SCORE.INTER>
-10.0392

>  <SCORE.INTER.CONST>
1

>  <SCORE.INTER.POLAR>
0

>  <SCORE.INTER.ROT>
5

>  <SCORE.INTER.SOLV>
14.196

>  <SCORE.INTER.VDW>
-18.3581

>  <SCORE.INTER.norm>
-1.00392

>  <SCORE.INTRA>
-0.375646

>  <SCORE.INTRA.DIHEDRAL>
-0.600395

>  <SCORE.INTRA.DIHEDRAL.0>
2.60093

>  <SCORE.INTRA.POLAR>
0

>  <SCORE.INTRA.POLAR.0>
0

>  <SCORE.INTRA.REPUL>
0

>  <SCORE.INTRA.REPUL.0>
0

>  <SCORE.INTRA.SOLV>
-0.423621

>  <SCORE.INTRA.SOLV.lig_0>
-33.7882

>  <SCORE.INTRA.VDW>
0.136362

>  <SCORE.INTRA.VDW.0>
-0.593976

>  <SCORE.INTRA.norm>
-0.0375646

>  <SCORE.RESTR>
0

>  <SCORE.RESTR.CAVITY>
0

>  <SCORE.RESTR.norm>
0

>  <SCORE.SYSTEM>
0

>  <SCORE.SYSTEM.CONST>
0

>  <SCORE.SYSTEM.DIHEDRAL>
0

>  <SCORE.SYSTEM.SOLV>
0

>  <SCORE.SYSTEM.norm>
0

>  <SCORE.heavy>
10

>  <SCORE.norm>
-1.04148

>  <RMSD>
5.573

$$$$
ligand
 OpenBabel11021811473D
libRbt.so/2013.1/901 2013/11/27
 10  9  0  0  0  0  0  0  0  0999 V2000
   26.9875   16.1156   20.2774 N   0  0  0  0  0  0  0  0  0  0  0  0
   28.2092   15.3634   19.8675 C   0  0  2  0  0  0  0  0  0  0  0  0
   28.0737   14.7880   18.4876 C   0  0  0  0  0  0  0  0  0  0  0  0
   28.6247   15.3160   17.5263 O   0  0  0  0  0  0  0  0  0  0  0  0
   28.5335   14.2932   20.9058 C   0  0  0  0  0  0  0  0  0  0  0  0
   29.2620   15.0895   22.3039 S   0  0  0  0  0  0  0  0  0  0  0  0
   30.8495   15.5052   21.6598 C   0  0  0  0  0  0  0  0  0  0  0  0
   31.5441   16.4503   22.6352 C   0  0  0  0  0  0  0  0  0  0  0  0
   32.8140   16.8788   22.0842 N   0  0  0  0  0  0  0  0  0  0  0  0
   27.4356   13.7646   18.2508 O   0  0  0  0  0  0  0  0  0  0  0  0
  2  1  1  1  0  0  0
  2  3  1  0  0  0  0
  2  5  1  0  0  0  0
  3  4  1  0  0  0  0
  3 10  1  0  0  0  0
  5  6  1  0  0  0  0
  6  7  1  0  0  0  0
  7  8  1  0  0  0  0
  8  9  1  0  0  0  0
M  END
>  <CHROM.1>
102.66760129,-76.23902507,-72.47941904,168.98692634,-176.11949729,29.22780489
15.31285035,20.58068760,2.37359699,-0.38235383,-1.55710445

>  <Name>
ligand

>  <RI>
0

>  <Rbt.Current_Directory>
/home/itssahil/PROJECTS/Mol_Feturizer/New_Systems/rnas/3DIG

>  <Rbt.Executable>
rbdock ($Id: //depot/dev/client3/rdock/2013.1/src/exe/rbdock.cxx#4 $)

>  <Rbt.Library>
libRbt.so (2013.1, Build901 2013/11/27)

>  <Rbt.Parameter_File>
/export/apps/rDock/src/rDock_2013.1_src/data/scripts/dock_solv.prm

>  <Rbt.Receptor>
prm/pocket_docking_6.prm

>  <SCORE>
-10.497

>  <SCORE.INTER>
-10.0893

>  <SCORE.INTER.CONST>
1

>  <SCORE.INTER.POLAR>
0

>  <SCORE.INTER.ROT>
5

>  <SCORE.INTER.SOLV>
16.1099

>  <SCORE.INTER.VDW>
-19.0295

>  <SCORE.INTER.norm>
-1.00893

>  <SCORE.INTRA>
-0.407763

>  <SCORE.INTRA.DIHEDRAL>
0.290892

>  <SCORE.INTRA.DIHEDRAL.0>
2.60093

>  <SCORE.INTRA.POLAR>
0

>  <SCORE.INTRA.POLAR.0>
0

>  <SCORE.INTRA.REPUL>
0

>  <SCORE.INTRA.REPUL.0>
0

>  <SCORE.INTRA.SOLV>
-0.577879

>  <SCORE.INTRA.SOLV.lig_0>
-33.7882

>  <SCORE.INTRA.VDW>
-0.26427

>  <SCORE.INTRA.VDW.0>
-0.593976

>  <SCORE.INTRA.norm>
-0.0407763

>  <SCORE.RESTR>
0

>  <SCORE.RESTR.CAVITY>
0

>  <SCORE.RESTR.norm>
0

>  <SCORE.SYSTEM>
0

>  <SCORE.SYSTEM.CONST>
0

>  <SCORE.SYSTEM.DIHEDRAL>
0

>  <SCORE.SYSTEM.SOLV>
0

>  <SCORE.SYSTEM.norm>
0

>  <SCORE.heavy>
10

>  <SCORE.norm>
-1.0497

>  <RMSD>
5.573

$$$$
ligand
 OpenBabel11021811473D
libRbt.so/2013.1/901 2013/11/27
 10  9  0  0  0  0  0  0  0  0999 V2000
   29.0449   15.3180   19.8768 N   0  0  0  0  0  0  0  0  0  0  0  0
   28.4361   14.8560   21.1585 C   0  0  2  0  0  0  0  0  0  0  0  0
   26.9364   14.9033   21.1130 C   0  0  0  0  0  0  0  0  0  0  0  0
   26.2620   14.4473   22.0316 O   0  0  0  0  0  0  0  0  0  0  0  0
   29.0004   15.6646   22.3231 C   0  0  0  0  0  0  0  0  0  0  0  0
   30.7452   15.3970   22.3811 S   0  0  0  0  0  0  0  0  0  0  0  0
   31.3074   16.6230   21.2459 C   0  0  0  0  0  0  0  0  0  0  0  0
   32.8305   16.5702   21.1791 C   0  0  0  0  0  0  0  0  0  0  0  0
   33.3922   16.9691   22.4539 N   0  0  0  0  0  0  0  0  0  0  0  0
   26.3124   15.4109   20.1837 O   0  0  0  0  0  0  0  0  0  0  0  0
  2  1  1  6  0  0  0
  2  3  1  0  0  0  0
  2  5  1  0  0  0  0
  3  4  1  0  0  0  0
  3 10  1  0  0  0  0
  5  6  1  0  0  0  0
  6  7  1  0  0  0  0
  7  8  1  0  0  0  0
  8  9  1  0  0  0  0
M  END
>  <CHROM.1>
173.36348552,-60.98357193,86.09559981,178.76443855,-66.09806368,29.53564063
15.58783748,21.50441987,-3.06847653,0.29412329,1.83041301

>  <Name>
ligand

>  <RI>
0

>  <Rbt.Current_Directory>
/home/itssahil/PROJECTS/Mol_Feturizer/New_Systems/rnas/3DIG

>  <Rbt.Executable>
rbdock ($Id: //depot/dev/client3/rdock/2013.1/src/exe/rbdock.cxx#4 $)

>  <Rbt.Library>
libRbt.so (2013.1, Build901 2013/11/27)

>  <Rbt.Parameter_File>
/export/apps/rDock/src/rDock_2013.1_src/data/scripts/dock_solv.prm

>  <Rbt.Receptor>
prm/blind_docking_80.prm

>  <SCORE>
-11.1297

>  <SCORE.INTER>
-11.8889

>  <SCORE.INTER.CONST>
1

>  <SCORE.INTER.POLAR>
0

>  <SCORE.INTER.ROT>
5

>  <SCORE.INTER.SOLV>
12.1108

>  <SCORE.INTER.VDW>
-18.8962

>  <SCORE.INTER.norm>
-1.18889

>  <SCORE.INTRA>
0.759244

>  <SCORE.INTRA.DIHEDRAL>
-0.0178987

>  <SCORE.INTRA.DIHEDRAL.0>
2.60093

>  <SCORE.INTRA.POLAR>
0

>  <SCORE.INTRA.POLAR.0>
0

>  <SCORE.INTRA.REPUL>
0

>  <SCORE.INTRA.REPUL.0>
0

>  <SCORE.INTRA.SOLV>
1.69431

>  <SCORE.INTRA.SOLV.lig_0>
-33.7882

>  <SCORE.INTRA.VDW>
-0.0789602

>  <SCORE.INTRA.VDW.0>
-0.593976

>  <SCORE.INTRA.norm>
0.0759244

>  <SCORE.RESTR>
0

>  <SCORE.RESTR.CAVITY>
0

>  <SCORE.RESTR.norm>
0

>  <SCORE.SYSTEM>
0

>  <SCORE.SYSTEM.CONST>
0

>  <SCORE.SYSTEM.DIHEDRAL>
0

>  <SCORE.SYSTEM.SOLV>
0

>  <SCORE.SYSTEM.norm>
0

>  <SCORE.heavy>
10

>  <SCORE.norm>
-1.11297

>  <RMSD>
5.574

$$$$
ligand
 OpenBabel11021811473D
libRbt.so/2013.1/901 2013/11/27
 10  9  0  0  0  0  0  0  0  0999 V2000
   26.9670   16.0936   20.2742 N   0  0  0  0  0  0  0  0  0  0  0  0
   28.1963   15.3510   19.8693 C   0  0  2  0  0  0  0  0  0  0  0  0
   28.0632   14.7577   18.4968 C   0  0  0  0  0  0  0  0  0  0  0  0
   28.6310   15.2626   17.5327 O   0  0  0  0  0  0  0  0  0  0  0  0
   28.5365   14.2972   20.9191 C   0  0  0  0  0  0  0  0  0  0  0  0
   29.1803   15.1266   22.3392 S   0  0  0  0  0  0  0  0  0  0  0  0
   30.7585   15.6350   21.7402 C   0  0  0  0  0  0  0  0  0  0  0  0
   31.3497   16.6511   22.7123 C   0  0  0  0  0  0  0  0  0  0  0  0
   32.6308   17.1151   22.2190 N   0  0  0  0  0  0  0  0  0  0  0  0
   27.4106   13.7413   18.2692 O   0  0  0  0  0  0  0  0  0  0  0  0
  2  1  1  1  0  0  0
  2  3  1  0  0  0  0
  2  5  1  0  0  0  0
  3  4  1  0  0  0  0
  3 10  1  0  0  0  0
  5  6  1  0  0  0  0
  6  7  1  0  0  0  0
  7  8  1  0  0  0  0
  8  9  1  0  0  0  0
M  END
>  <CHROM.1>
104.41808801,-73.27394961,-71.78597857,166.98802990,-178.24859895,29.16482684
15.35765935,20.61777435,2.35263326,-0.44455516,-1.56252818

>  <Name>
ligand

>  <RI>
0

>  <Rbt.Current_Directory>
/home/itssahil/PROJECTS/Mol_Feturizer/New_Systems/rnas/3DIG

>  <Rbt.Executable>
rbdock ($Id: //depot/dev/client3/rdock/2013.1/src/exe/rbdock.cxx#4 $)

>  <Rbt.Library>
libRbt.so (2013.1, Build901 2013/11/27)

>  <Rbt.Parameter_File>
/export/apps/rDock/src/rDock_2013.1_src/data/scripts/dock_solv.prm

>  <Rbt.Receptor>
prm/pocket_docking_4.prm

>  <SCORE>
-10.5988

>  <SCORE.INTER>
-10.1098

>  <SCORE.INTER.CONST>
1

>  <SCORE.INTER.POLAR>
0

>  <SCORE.INTER.ROT>
5

>  <SCORE.INTER.SOLV>
15.7211

>  <SCORE.INTER.VDW>
-18.9136

>  <SCORE.INTER.norm>
-1.01098

>  <SCORE.INTRA>
-0.488983

>  <SCORE.INTRA.DIHEDRAL>
0.0154767

>  <SCORE.INTRA.DIHEDRAL.0>
2.60093

>  <SCORE.INTRA.POLAR>
0

>  <SCORE.INTRA.POLAR.0>
0

>  <SCORE.INTRA.REPUL>
0

>  <SCORE.INTRA.REPUL.0>
0

>  <SCORE.INTRA.SOLV>
-0.505649

>  <SCORE.INTRA.SOLV.lig_0>
-33.7882

>  <SCORE.INTRA.VDW>
-0.243896

>  <SCORE.INTRA.VDW.0>
-0.593976

>  <SCORE.INTRA.norm>
-0.0488983

>  <SCORE.RESTR>
0

>  <SCORE.RESTR.CAVITY>
0

>  <SCORE.RESTR.norm>
0

>  <SCORE.SYSTEM>
0

>  <SCORE.SYSTEM.CONST>
0

>  <SCORE.SYSTEM.DIHEDRAL>
0

>  <SCORE.SYSTEM.SOLV>
0

>  <SCORE.SYSTEM.norm>
0

>  <SCORE.heavy>
10

>  <SCORE.norm>
-1.05988

>  <RMSD>
5.574

$$$$
ligand
 OpenBabel11021811473D
libRbt.so/2013.1/901 2013/11/27
 10  9  0  0  0  0  0  0  0  0999 V2000
   26.1564   14.8251   20.9669 N   0  0  0  0  0  0  0  0  0  0  0  0
   27.1734   15.5683   20.1670 C   0  0  2  0  0  0  0  0  0  0  0  0
   27.6475   14.7702   18.9873 C   0  0  0  0  0  0  0  0  0  0  0  0
   28.4355   15.2485   18.1768 O   0  0  0  0  0  0  0  0  0  0  0  0
   28.3269   16.0020   21.0669 C   0  0  0  0  0  0  0  0  0  0  0  0
   28.9880   14.5599   21.8432 S   0  0  0  0  0  0  0  0  0  0  0  0
   30.5088   15.1898   22.4745 C   0  0  0  0  0  0  0  0  0  0  0  0
   31.4309   15.5142   21.3034 C   0  0  0  0  0  0  0  0  0  0  0  0
   32.6344   16.1584   21.7895 N   0  0  0  0  0  0  0  0  0  0  0  0
   27.2986   13.6096   18.7827 O   0  0  0  0  0  0  0  0  0  0  0  0
  2  1  1  1  0  0  0
  2  3  1  0  0  0  0
  2  5  1  0  0  0  0
  3  4  1  0  0  0  0
  3 10  1  0  0  0  0
  5  6  1  0  0  0  0
  6  7  1  0  0  0  0
  7  8  1  0  0  0  0
  8  9  1  0  0  0  0
M  END
>  <CHROM.1>
176.28396361,56.54166528,166.10719575,-68.17562864,174.28293835,28.87581780
15.06260651,20.67231564,2.61015841,-0.21272449,-1.58100122

>  <Name>
ligand

>  <RI>
0

>  <Rbt.Current_Directory>
/home/itssahil/PROJECTS/Mol_Feturizer/New_Systems/rnas/3DIG

>  <Rbt.Executable>
rbdock ($Id: //depot/dev/client3/rdock/2013.1/src/exe/rbdock.cxx#4 $)

>  <Rbt.Library>
libRbt.so (2013.1, Build901 2013/11/27)

>  <Rbt.Parameter_File>
/export/apps/rDock/src/rDock_2013.1_src/data/scripts/dock_solv.prm

>  <Rbt.Receptor>
prm/pocket_docking_8.prm

>  <SCORE>
-11.7739

>  <SCORE.INTER>
-11.3148

>  <SCORE.INTER.CONST>
1

>  <SCORE.INTER.POLAR>
0

>  <SCORE.INTER.ROT>
5

>  <SCORE.INTER.SOLV>
18.1998

>  <SCORE.INTER.VDW>
-20.5431

>  <SCORE.INTER.norm>
-1.13148

>  <SCORE.INTRA>
-0.459095

>  <SCORE.INTRA.DIHEDRAL>
-0.540115

>  <SCORE.INTRA.DIHEDRAL.0>
2.60093

>  <SCORE.INTRA.POLAR>
0

>  <SCORE.INTRA.POLAR.0>
0

>  <SCORE.INTRA.REPUL>
0

>  <SCORE.INTRA.REPUL.0>
0

>  <SCORE.INTRA.SOLV>
-0.361426

>  <SCORE.INTRA.SOLV.lig_0>
-33.7882

>  <SCORE.INTRA.VDW>
-0.00832408

>  <SCORE.INTRA.VDW.0>
-0.593976

>  <SCORE.INTRA.norm>
-0.0459095

>  <SCORE.RESTR>
0

>  <SCORE.RESTR.CAVITY>
0

>  <SCORE.RESTR.norm>
0

>  <SCORE.SYSTEM>
0

>  <SCORE.SYSTEM.CONST>
0

>  <SCORE.SYSTEM.DIHEDRAL>
0

>  <SCORE.SYSTEM.SOLV>
0

>  <SCORE.SYSTEM.norm>
0

>  <SCORE.heavy>
10

>  <SCORE.norm>
-1.17739

>  <RMSD>
5.575

$$$$
ligand
 OpenBabel11021811473D
libRbt.so/2013.1/901 2013/11/27
 10  9  0  0  0  0  0  0  0  0999 V2000
   28.3109   15.3574   19.4735 N   0  0  0  0  0  0  0  0  0  0  0  0
   28.3595   14.5738   20.7424 C   0  0  2  0  0  0  0  0  0  0  0  0
   27.1754   14.8586   21.6200 C   0  0  0  0  0  0  0  0  0  0  0  0
   26.0342   14.8339   21.1686 O   0  0  0  0  0  0  0  0  0  0  0  0
   29.6810   14.8299   21.4613 C   0  0  0  0  0  0  0  0  0  0  0  0
   29.8420   16.5714   21.7074 S   0  0  0  0  0  0  0  0  0  0  0  0
   31.4842   16.6672   22.3411 C   0  0  0  0  0  0  0  0  0  0  0  0
   31.8062   18.1248   22.6552 C   0  0  0  0  0  0  0  0  0  0  0  0
   33.1811   18.2399   23.0980 N   0  0  0  0  0  0  0  0  0  0  0  0
   27.2776   15.1051   22.8198 O   0  0  0  0  0  0  0  0  0  0  0  0
  2  1  1  6  0  0  0
  2  3  1  0  0  0  0
  2  5  1  0  0  0  0
  3  4  1  0  0  0  0
  3 10  1  0  0  0  0
  5  6  1  0  0  0  0
  6  7  1  0  0  0  0
  7  8  1  0  0  0  0
  8  9  1  0  0  0  0
M  END
>  <CHROM.1>
48.85014775,55.83160893,-173.00751940,-178.63605720,-176.39118178,29.34174937
15.98863827,21.72300960,-2.75245392,0.42774985,1.25823529

>  <Name>
ligand

>  <RI>
0

>  <Rbt.Current_Directory>
/home/itssahil/PROJECTS/Mol_Feturizer/New_Systems/rnas/3DIG

>  <Rbt.Executable>
rbdock ($Id: //depot/dev/client3/rdock/2013.1/src/exe/rbdock.cxx#4 $)

>  <Rbt.Library>
libRbt.so (2013.1, Build901 2013/11/27)

>  <Rbt.Parameter_File>
/export/apps/rDock/src/rDock_2013.1_src/data/scripts/dock_solv.prm

>  <Rbt.Receptor>
prm/pocket_docking_4.prm

>  <SCORE>
-10.9227

>  <SCORE.INTER>
-10.3918

>  <SCORE.INTER.CONST>
1

>  <SCORE.INTER.POLAR>
0

>  <SCORE.INTER.ROT>
5

>  <SCORE.INTER.SOLV>
13.66

>  <SCORE.INTER.VDW>
-18.4145

>  <SCORE.INTER.norm>
-1.03918

>  <SCORE.INTRA>
-0.530937

>  <SCORE.INTRA.DIHEDRAL>
-0.941376

>  <SCORE.INTRA.DIHEDRAL.0>
2.60093

>  <SCORE.INTRA.POLAR>
0

>  <SCORE.INTRA.POLAR.0>
0

>  <SCORE.INTRA.REPUL>
0

>  <SCORE.INTRA.REPUL.0>
0

>  <SCORE.INTRA.SOLV>
-0.538741

>  <SCORE.INTRA.SOLV.lig_0>
-33.7882

>  <SCORE.INTRA.VDW>
0.209122

>  <SCORE.INTRA.VDW.0>
-0.593976

>  <SCORE.INTRA.norm>
-0.0530937

>  <SCORE.RESTR>
0

>  <SCORE.RESTR.CAVITY>
0

>  <SCORE.RESTR.norm>
0

>  <SCORE.SYSTEM>
0

>  <SCORE.SYSTEM.CONST>
0

>  <SCORE.SYSTEM.DIHEDRAL>
0

>  <SCORE.SYSTEM.SOLV>
0

>  <SCORE.SYSTEM.norm>
0

>  <SCORE.heavy>
10

>  <SCORE.norm>
-1.09227

>  <RMSD>
5.577

$$$$
ligand
 OpenBabel11021811473D
libRbt.so/2013.1/901 2013/11/27
 10  9  0  0  0  0  0  0  0  0999 V2000
   28.9979   14.5227   19.5774 N   0  0  0  0  0  0  0  0  0  0  0  0
   28.3539   14.2716   20.8997 C   0  0  2  0  0  0  0  0  0  0  0  0
   27.0127   14.9380   21.0028 C   0  0  0  0  0  0  0  0  0  0  0  0
   26.1870   14.5705   21.8334 O   0  0  0  0  0  0  0  0  0  0  0  0
   29.2934   14.6965   22.0246 C   0  0  0  0  0  0  0  0  0  0  0  0
   29.6279   16.4205   21.8368 S   0  0  0  0  0  0  0  0  0  0  0  0
   31.2109   16.5374   22.6039 C   0  0  0  0  0  0  0  0  0  0  0  0
   31.7164   17.9707   22.4731 C   0  0  0  0  0  0  0  0  0  0  0  0
   33.0730   18.0608   22.9742 N   0  0  0  0  0  0  0  0  0  0  0  0
   26.6808   15.8840   20.2917 O   0  0  0  0  0  0  0  0  0  0  0  0
  2  1  1  6  0  0  0
  2  3  1  0  0  0  0
  2  5  1  0  0  0  0
  3  4  1  0  0  0  0
  3 10  1  0  0  0  0
  5  6  1  0  0  0  0
  6  7  1  0  0  0  0
  7  8  1  0  0  0  0
  8  9  1  0  0  0  0
M  END
>  <CHROM.1>
160.23814046,60.07741726,-153.22967491,176.91400983,-174.18932999,29.22607782
15.86535430,21.58308262,-2.56335432,0.08583937,0.70463611

>  <Name>
ligand

>  <RI>
0

>  <Rbt.Current_Directory>
/home/itssahil/PROJECTS/Mol_Feturizer/New_Systems/rnas/3DIG

>  <Rbt.Executable>
rbdock ($Id: //depot/dev/client3/rdock/2013.1/src/exe/rbdock.cxx#4 $)

>  <Rbt.Library>
libRbt.so (2013.1, Build901 2013/11/27)

>  <Rbt.Parameter_File>
/export/apps/rDock/src/rDock_2013.1_src/data/scripts/dock_solv.prm

>  <Rbt.Receptor>
prm/pocket_docking_7.prm

>  <SCORE>
-10.8015

>  <SCORE.INTER>
-10.1519

>  <SCORE.INTER.CONST>
1

>  <SCORE.INTER.POLAR>
0

>  <SCORE.INTER.ROT>
5

>  <SCORE.INTER.SOLV>
14.3737

>  <SCORE.INTER.VDW>
-18.4925

>  <SCORE.INTER.norm>
-1.01519

>  <SCORE.INTRA>
-0.649614

>  <SCORE.INTRA.DIHEDRAL>
-0.000226761

>  <SCORE.INTRA.DIHEDRAL.0>
2.60093

>  <SCORE.INTRA.POLAR>
0

>  <SCORE.INTRA.POLAR.0>
0

>  <SCORE.INTRA.REPUL>
0

>  <SCORE.INTRA.REPUL.0>
0

>  <SCORE.INTRA.SOLV>
-0.410925

>  <SCORE.INTRA.SOLV.lig_0>
-33.7882

>  <SCORE.INTRA.VDW>
-0.444038

>  <SCORE.INTRA.VDW.0>
-0.593976

>  <SCORE.INTRA.norm>
-0.0649614

>  <SCORE.RESTR>
0

>  <SCORE.RESTR.CAVITY>
0

>  <SCORE.RESTR.norm>
0

>  <SCORE.SYSTEM>
0

>  <SCORE.SYSTEM.CONST>
0

>  <SCORE.SYSTEM.DIHEDRAL>
0

>  <SCORE.SYSTEM.SOLV>
0

>  <SCORE.SYSTEM.norm>
0

>  <SCORE.heavy>
10

>  <SCORE.norm>
-1.08015

>  <RMSD>
5.577

$$$$
ligand
 OpenBabel11021811473D
libRbt.so/2013.1/901 2013/11/27
 10  9  0  0  0  0  0  0  0  0999 V2000
   29.1197   15.2820   19.9774 N   0  0  0  0  0  0  0  0  0  0  0  0
   28.4603   14.8261   21.2359 C   0  0  2  0  0  0  0  0  0  0  0  0
   26.9646   14.9176   21.1470 C   0  0  0  0  0  0  0  0  0  0  0  0
   26.4193   15.4126   20.1650 O   0  0  0  0  0  0  0  0  0  0  0  0
   29.0130   15.6070   22.4247 C   0  0  0  0  0  0  0  0  0  0  0  0
   30.7608   15.3589   22.4780 S   0  0  0  0  0  0  0  0  0  0  0  0
   31.3123   16.6485   21.4100 C   0  0  0  0  0  0  0  0  0  0  0  0
   32.8362   16.7036   21.4513 C   0  0  0  0  0  0  0  0  0  0  0  0
   33.2785   17.0757   22.7801 N   0  0  0  0  0  0  0  0  0  0  0  0
   26.2163   14.4904   22.0236 O   0  0  0  0  0  0  0  0  0  0  0  0
  2  1  1  6  0  0  0
  2  3  1  0  0  0  0
  2  5  1  0  0  0  0
  3  4  1  0  0  0  0
  3 10  1  0  0  0  0
  5  6  1  0  0  0  0
  6  7  1  0  0  0  0
  7  8  1  0  0  0  0
  8  9  1  0  0  0  0
M  END
>  <CHROM.1>
-5.01852262,-57.92614367,87.37136158,173.46917379,-64.62885307,29.54766957
15.59844362,21.61508985,-3.03478035,0.31671353,1.83111863

>  <Name>
ligand

>  <RI>
0

>  <Rbt.Current_Directory>
/home/itssahil/PROJECTS/Mol_Feturizer/New_Systems/rnas/3DIG

>  <Rbt.Executable>
rbdock ($Id: //depot/dev/client3/rdock/2013.1/src/exe/rbdock.cxx#4 $)

>  <Rbt.Library>
libRbt.so (2013.1, Build901 2013/11/27)

>  <Rbt.Parameter_File>
/export/apps/rDock/src/rDock_2013.1_src/data/scripts/dock_solv.prm

>  <Rbt.Receptor>
prm/pocket_docking_4.prm

>  <SCORE>
-11.1631

>  <SCORE.INTER>
-12.0783

>  <SCORE.INTER.CONST>
1

>  <SCORE.INTER.POLAR>
0

>  <SCORE.INTER.ROT>
5

>  <SCORE.INTER.SOLV>
12.1326

>  <SCORE.INTER.VDW>
-19.0298

>  <SCORE.INTER.norm>
-1.20783

>  <SCORE.INTRA>
0.915275

>  <SCORE.INTRA.DIHEDRAL>
0.119705

>  <SCORE.INTRA.DIHEDRAL.0>
2.60093

>  <SCORE.INTRA.POLAR>
0

>  <SCORE.INTRA.POLAR.0>
0

>  <SCORE.INTRA.REPUL>
0

>  <SCORE.INTRA.REPUL.0>
0

>  <SCORE.INTRA.SOLV>
1.75446

>  <SCORE.INTRA.SOLV.lig_0>
-33.7882

>  <SCORE.INTRA.VDW>
-0.0218098

>  <SCORE.INTRA.VDW.0>
-0.593976

>  <SCORE.INTRA.norm>
0.0915275

>  <SCORE.RESTR>
0

>  <SCORE.RESTR.CAVITY>
0

>  <SCORE.RESTR.norm>
0

>  <SCORE.SYSTEM>
0

>  <SCORE.SYSTEM.CONST>
0

>  <SCORE.SYSTEM.DIHEDRAL>
0

>  <SCORE.SYSTEM.SOLV>
0

>  <SCORE.SYSTEM.norm>
0

>  <SCORE.heavy>
10

>  <SCORE.norm>
-1.11631

>  <RMSD>
5.578

$$$$
ligand
 OpenBabel11021811473D
libRbt.so/2013.1/901 2013/11/27
 10  9  0  0  0  0  0  0  0  0999 V2000
   28.4345   14.8827   19.3761 N   0  0  0  0  0  0  0  0  0  0  0  0
   28.5382   14.7994   20.8623 C   0  0  2  0  0  0  0  0  0  0  0  0
   27.2029   14.9744   21.5256 C   0  0  0  0  0  0  0  0  0  0  0  0
   27.1090   15.0447   22.7474 O   0  0  0  0  0  0  0  0  0  0  0  0
   29.5667   15.8064   21.3689 C   0  0  0  0  0  0  0  0  0  0  0  0
   31.1648   15.2682   20.8439 S   0  0  0  0  0  0  0  0  0  0  0  0
   32.1071   16.7382   21.0871 C   0  0  0  0  0  0  0  0  0  0  0  0
   32.7021   16.7144   22.4915 C   0  0  0  0  0  0  0  0  0  0  0  0
   33.4247   17.9456   22.7398 N   0  0  0  0  0  0  0  0  0  0  0  0
   26.1528   15.0780   20.8953 O   0  0  0  0  0  0  0  0  0  0  0  0
  2  1  1  6  0  0  0
  2  3  1  0  0  0  0
  2  5  1  0  0  0  0
  3  4  1  0  0  0  0
  3 10  1  0  0  0  0
  5  6  1  0  0  0  0
  6  7  1  0  0  0  0
  7  8  1  0  0  0  0
  8  9  1  0  0  0  0
M  END
>  <CHROM.1>
-174.00827969,-68.89430544,164.08170567,91.43232676,-177.05918057,29.77591291
15.67216246,21.34388237,-2.88577442,0.25297619,1.14823939

>  <Name>
ligand

>  <RI>
0

>  <Rbt.Current_Directory>
/home/itssahil/PROJECTS/Mol_Feturizer/New_Systems/rnas/3DIG

>  <Rbt.Executable>
rbdock ($Id: //depot/dev/client3/rdock/2013.1/src/exe/rbdock.cxx#4 $)

>  <Rbt.Library>
libRbt.so (2013.1, Build901 2013/11/27)

>  <Rbt.Parameter_File>
/export/apps/rDock/src/rDock_2013.1_src/data/scripts/dock_solv.prm

>  <Rbt.Receptor>
prm/pocket_docking_4.prm

>  <SCORE>
-10.3524

>  <SCORE.INTER>
-10.3739

>  <SCORE.INTER.CONST>
1

>  <SCORE.INTER.POLAR>
0

>  <SCORE.INTER.ROT>
5

>  <SCORE.INTER.SOLV>
13.0731

>  <SCORE.INTER.VDW>
-18.2069

>  <SCORE.INTER.norm>
-1.03739

>  <SCORE.INTRA>
0.0215183

>  <SCORE.INTRA.DIHEDRAL>
0.888339

>  <SCORE.INTRA.DIHEDRAL.0>
2.60093

>  <SCORE.INTRA.POLAR>
0

>  <SCORE.INTRA.POLAR.0>
0

>  <SCORE.INTRA.REPUL>
0

>  <SCORE.INTRA.REPUL.0>
0

>  <SCORE.INTRA.SOLV>
-0.673859

>  <SCORE.INTRA.SOLV.lig_0>
-33.7882

>  <SCORE.INTRA.VDW>
-0.0857214

>  <SCORE.INTRA.VDW.0>
-0.593976

>  <SCORE.INTRA.norm>
0.00215183

>  <SCORE.RESTR>
0

>  <SCORE.RESTR.CAVITY>
0

>  <SCORE.RESTR.norm>
0

>  <SCORE.SYSTEM>
0

>  <SCORE.SYSTEM.CONST>
0

>  <SCORE.SYSTEM.DIHEDRAL>
0

>  <SCORE.SYSTEM.SOLV>
0

>  <SCORE.SYSTEM.norm>
0

>  <SCORE.heavy>
10

>  <SCORE.norm>
-1.03524

>  <RMSD>
5.578

$$$$
ligand
 OpenBabel11021811473D
libRbt.so/2013.1/901 2013/11/27
 10  9  0  0  0  0  0  0  0  0999 V2000
   29.1901   16.2346   19.9735 N   0  0  0  0  0  0  0  0  0  0  0  0
   28.5301   15.0001   20.4900 C   0  0  2  0  0  0  0  0  0  0  0  0
   27.2195   14.7399   19.8057 C   0  0  0  0  0  0  0  0  0  0  0  0
   26.1886   15.2862   20.1869 O   0  0  0  0  0  0  0  0  0  0  0  0
   28.3782   15.0872   22.0059 C   0  0  0  0  0  0  0  0  0  0  0  0
   29.9783   14.8955   22.7285 S   0  0  0  0  0  0  0  0  0  0  0  0
   30.6603   16.4981   22.4561 C   0  0  0  0  0  0  0  0  0  0  0  0
   32.1745   16.4237   22.6256 C   0  0  0  0  0  0  0  0  0  0  0  0
   32.7549   17.7383   22.4389 N   0  0  0  0  0  0  0  0  0  0  0  0
   27.1107   13.9985   18.8314 O   0  0  0  0  0  0  0  0  0  0  0  0
  2  1  1  6  0  0  0
  2  3  1  0  0  0  0
  2  5  1  0  0  0  0
  3  4  1  0  0  0  0
  3 10  1  0  0  0  0
  5  6  1  0  0  0  0
  6  7  1  0  0  0  0
  7  8  1  0  0  0  0
  8  9  1  0  0  0  0
M  END
>  <CHROM.1>
-84.19929956,-72.08478285,77.71768129,-163.05490924,-178.58207330,29.27013874
15.50216113,21.31306237,-2.85645707,0.57382504,2.07073694

>  <Name>
ligand

>  <RI>
0

>  <Rbt.Current_Directory>
/home/itssahil/PROJECTS/Mol_Feturizer/New_Systems/rnas/3DIG

>  <Rbt.Executable>
rbdock ($Id: //depot/dev/client3/rdock/2013.1/src/exe/rbdock.cxx#4 $)

>  <Rbt.Library>
libRbt.so (2013.1, Build901 2013/11/27)

>  <Rbt.Parameter_File>
/export/apps/rDock/src/rDock_2013.1_src/data/scripts/dock_solv.prm

>  <Rbt.Receptor>
prm/pocket_docking_6.prm

>  <SCORE>
-10.3643

>  <SCORE.INTER>
-11.0804

>  <SCORE.INTER.CONST>
1

>  <SCORE.INTER.POLAR>
0

>  <SCORE.INTER.ROT>
5

>  <SCORE.INTER.SOLV>
12.077

>  <SCORE.INTER.VDW>
-18.3459

>  <SCORE.INTER.norm>
-1.10804

>  <SCORE.INTRA>
0.716107

>  <SCORE.INTRA.DIHEDRAL>
0.266407

>  <SCORE.INTRA.DIHEDRAL.0>
2.60093

>  <SCORE.INTRA.POLAR>
0

>  <SCORE.INTRA.POLAR.0>
0

>  <SCORE.INTRA.REPUL>
0

>  <SCORE.INTRA.REPUL.0>
0

>  <SCORE.INTRA.SOLV>
0.895832

>  <SCORE.INTRA.SOLV.lig_0>
-33.7882

>  <SCORE.INTRA.VDW>
0.134988

>  <SCORE.INTRA.VDW.0>
-0.593976

>  <SCORE.INTRA.norm>
0.0716107

>  <SCORE.RESTR>
0

>  <SCORE.RESTR.CAVITY>
0

>  <SCORE.RESTR.norm>
0

>  <SCORE.SYSTEM>
0

>  <SCORE.SYSTEM.CONST>
0

>  <SCORE.SYSTEM.DIHEDRAL>
0

>  <SCORE.SYSTEM.SOLV>
0

>  <SCORE.SYSTEM.norm>
0

>  <SCORE.heavy>
10

>  <SCORE.norm>
-1.03643

>  <RMSD>
5.579

$$$$
ligand
 OpenBabel11021811473D
libRbt.so/2013.1/901 2013/11/27
 10  9  0  0  0  0  0  0  0  0999 V2000
   27.4938   14.4971   20.8591 N   0  0  0  0  0  0  0  0  0  0  0  0
   27.8288   15.4955   19.8020 C   0  0  2  0  0  0  0  0  0  0  0  0
   28.3941   14.8408   18.5751 C   0  0  0  0  0  0  0  0  0  0  0  0
   28.5101   13.6208   18.5067 O   0  0  0  0  0  0  0  0  0  0  0  0
   28.7660   16.5579   20.3687 C   0  0  0  0  0  0  0  0  0  0  0  0
   30.2284   15.7494   20.9406 S   0  0  0  0  0  0  0  0  0  0  0  0
   31.0854   17.0989   21.6838 C   0  0  0  0  0  0  0  0  0  0  0  0
   32.4382   16.6054   22.1872 C   0  0  0  0  0  0  0  0  0  0  0  0
   33.1693   17.7032   22.7873 N   0  0  0  0  0  0  0  0  0  0  0  0
   28.7442   15.4742   17.5817 O   0  0  0  0  0  0  0  0  0  0  0  0
  2  1  1  1  0  0  0
  2  3  1  0  0  0  0
  2  5  1  0  0  0  0
  3  4  1  0  0  0  0
  3 10  1  0  0  0  0
  5  6  1  0  0  0  0
  6  7  1  0  0  0  0
  7  8  1  0  0  0  0
  8  9  1  0  0  0  0
M  END
>  <CHROM.1>
1.54069585,59.36367804,-174.70178561,-177.14312598,179.24779238,29.73138004
15.74578916,20.36701367,2.43206252,-0.40793600,-1.74498764

>  <Name>
ligand

>  <RI>
0

>  <Rbt.Current_Directory>
/home/itssahil/PROJECTS/Mol_Feturizer/New_Systems/rnas/3DIG

>  <Rbt.Executable>
rbdock ($Id: //depot/dev/client3/rdock/2013.1/src/exe/rbdock.cxx#4 $)

>  <Rbt.Library>
libRbt.so (2013.1, Build901 2013/11/27)

>  <Rbt.Parameter_File>
/export/apps/rDock/src/rDock_2013.1_src/data/scripts/dock_solv.prm

>  <Rbt.Receptor>
prm/blind_docking_80.prm

>  <SCORE>
-10.4001

>  <SCORE.INTER>
-9.33665

>  <SCORE.INTER.CONST>
1

>  <SCORE.INTER.POLAR>
0

>  <SCORE.INTER.ROT>
5

>  <SCORE.INTER.SOLV>
14.3434

>  <SCORE.INTER.VDW>
-17.9389

>  <SCORE.INTER.norm>
-0.933665

>  <SCORE.INTRA>
-1.06342

>  <SCORE.INTRA.DIHEDRAL>
-1.0382

>  <SCORE.INTRA.DIHEDRAL.0>
2.60093

>  <SCORE.INTRA.POLAR>
0

>  <SCORE.INTRA.POLAR.0>
0

>  <SCORE.INTRA.REPUL>
0

>  <SCORE.INTRA.REPUL.0>
0

>  <SCORE.INTRA.SOLV>
-0.576362

>  <SCORE.INTRA.SOLV.lig_0>
-33.7882

>  <SCORE.INTRA.VDW>
-0.256141

>  <SCORE.INTRA.VDW.0>
-0.593976

>  <SCORE.INTRA.norm>
-0.106342

>  <SCORE.RESTR>
0

>  <SCORE.RESTR.CAVITY>
0

>  <SCORE.RESTR.norm>
0

>  <SCORE.SYSTEM>
0

>  <SCORE.SYSTEM.CONST>
0

>  <SCORE.SYSTEM.DIHEDRAL>
0

>  <SCORE.SYSTEM.SOLV>
0

>  <SCORE.SYSTEM.norm>
0

>  <SCORE.heavy>
10

>  <SCORE.norm>
-1.04001

>  <RMSD>
5.580

$$$$
ligand
 OpenBabel11021811473D
libRbt.so/2013.1/901 2013/11/27
 10  9  0  0  0  0  0  0  0  0999 V2000
   28.0193   14.4515   18.9440 N   0  0  0  0  0  0  0  0  0  0  0  0
   28.1544   14.4163   20.4296 C   0  0  2  0  0  0  0  0  0  0  0  0
   26.8889   14.8427   21.1154 C   0  0  0  0  0  0  0  0  0  0  0  0
   26.7388   14.6794   22.3226 O   0  0  0  0  0  0  0  0  0  0  0  0
   29.3524   15.2564   20.8627 C   0  0  0  0  0  0  0  0  0  0  0  0
   29.6628   14.9284   22.5701 S   0  0  0  0  0  0  0  0  0  0  0  0
   30.5865   16.3606   23.0212 C   0  0  0  0  0  0  0  0  0  0  0  0
   31.9324   16.3240   22.3042 C   0  0  0  0  0  0  0  0  0  0  0  0
   32.6839   17.5251   22.6083 N   0  0  0  0  0  0  0  0  0  0  0  0
   25.9602   15.3886   20.5236 O   0  0  0  0  0  0  0  0  0  0  0  0
  2  1  1  6  0  0  0
  2  3  1  0  0  0  0
  2  5  1  0  0  0  0
  3  4  1  0  0  0  0
  3 10  1  0  0  0  0
  5  6  1  0  0  0  0
  6  7  1  0  0  0  0
  7  8  1  0  0  0  0
  8  9  1  0  0  0  0
M  END
>  <CHROM.1>
168.48974235,-168.91453049,-159.19019879,-67.50074864,177.21155594,29.03934842
15.36587414,21.60486507,-2.73503201,0.31003829,1.45967097

>  <Name>
ligand

>  <RI>
0

>  <Rbt.Current_Directory>
/home/itssahil/PROJECTS/Mol_Feturizer/New_Systems/rnas/3DIG

>  <Rbt.Executable>
rbdock ($Id: //depot/dev/client3/rdock/2013.1/src/exe/rbdock.cxx#4 $)

>  <Rbt.Library>
libRbt.so (2013.1, Build901 2013/11/27)

>  <Rbt.Parameter_File>
/export/apps/rDock/src/rDock_2013.1_src/data/scripts/dock_solv.prm

>  <Rbt.Receptor>
prm/pocket_docking_3.prm

>  <SCORE>
-11.8118

>  <SCORE.INTER>
-11.3965

>  <SCORE.INTER.CONST>
1

>  <SCORE.INTER.POLAR>
0

>  <SCORE.INTER.ROT>
5

>  <SCORE.INTER.SOLV>
14.1841

>  <SCORE.INTER.VDW>
-19.259

>  <SCORE.INTER.norm>
-1.13965

>  <SCORE.INTRA>
-0.415247

>  <SCORE.INTRA.DIHEDRAL>
0.0764439

>  <SCORE.INTRA.DIHEDRAL.0>
2.60093

>  <SCORE.INTRA.POLAR>
0

>  <SCORE.INTRA.POLAR.0>
0

>  <SCORE.INTRA.REPUL>
0

>  <SCORE.INTRA.REPUL.0>
0

>  <SCORE.INTRA.SOLV>
-1.30413

>  <SCORE.INTRA.SOLV.lig_0>
-33.7882

>  <SCORE.INTRA.VDW>
0.198597

>  <SCORE.INTRA.VDW.0>
-0.593976

>  <SCORE.INTRA.norm>
-0.0415247

>  <SCORE.RESTR>
0

>  <SCORE.RESTR.CAVITY>
0

>  <SCORE.RESTR.norm>
0

>  <SCORE.SYSTEM>
0

>  <SCORE.SYSTEM.CONST>
0

>  <SCORE.SYSTEM.DIHEDRAL>
0

>  <SCORE.SYSTEM.SOLV>
0

>  <SCORE.SYSTEM.norm>
0

>  <SCORE.heavy>
10

>  <SCORE.norm>
-1.18118

>  <RMSD>
5.580

$$$$
ligand
 OpenBabel11021811473D
libRbt.so/2013.1/901 2013/11/27
 10  9  0  0  0  0  0  0  0  0999 V2000
   26.3206   15.2919   20.4230 N   0  0  0  0  0  0  0  0  0  0  0  0
   27.7454   15.2520   19.9816 C   0  0  2  0  0  0  0  0  0  0  0  0
   27.8797   14.7477   18.5741 C   0  0  0  0  0  0  0  0  0  0  0  0
   28.5589   15.3514   17.7490 O   0  0  0  0  0  0  0  0  0  0  0  0
   28.5720   14.4304   20.9666 C   0  0  0  0  0  0  0  0  0  0  0  0
   28.5302   15.2476   22.5318 S   0  0  0  0  0  0  0  0  0  0  0  0
   30.2471   15.5477   22.7960 C   0  0  0  0  0  0  0  0  0  0  0  0
   30.6720   16.7475   21.9552 C   0  0  0  0  0  0  0  0  0  0  0  0
   32.0753   17.0316   22.1784 N   0  0  0  0  0  0  0  0  0  0  0  0
   27.3471   13.7114   18.1826 O   0  0  0  0  0  0  0  0  0  0  0  0
  2  1  1  1  0  0  0
  2  3  1  0  0  0  0
  2  5  1  0  0  0  0
  3  4  1  0  0  0  0
  3 10  1  0  0  0  0
  5  6  1  0  0  0  0
  6  7  1  0  0  0  0
  7  8  1  0  0  0  0
  8  9  1  0  0  0  0
M  END
>  <CHROM.1>
131.05134592,-63.21835827,-120.52224193,78.08019157,178.77269851,28.76213226
15.31373770,20.72462815,2.27439528,-0.43385503,-1.62675987

>  <Name>
ligand

>  <RI>
0

>  <Rbt.Current_Directory>
/home/itssahil/PROJECTS/Mol_Feturizer/New_Systems/rnas/3DIG

>  <Rbt.Executable>
rbdock ($Id: //depot/dev/client3/rdock/2013.1/src/exe/rbdock.cxx#4 $)

>  <Rbt.Library>
libRbt.so (2013.1, Build901 2013/11/27)

>  <Rbt.Parameter_File>
/export/apps/rDock/src/rDock_2013.1_src/data/scripts/dock_solv.prm

>  <Rbt.Receptor>
prm/pocket_docking_7.prm

>  <SCORE>
-11.4919

>  <SCORE.INTER>
-11.6882

>  <SCORE.INTER.CONST>
1

>  <SCORE.INTER.POLAR>
0

>  <SCORE.INTER.ROT>
5

>  <SCORE.INTER.SOLV>
16.5013

>  <SCORE.INTER.VDW>
-20.2259

>  <SCORE.INTER.norm>
-1.16882

>  <SCORE.INTRA>
0.196351

>  <SCORE.INTRA.DIHEDRAL>
1.81319

>  <SCORE.INTRA.DIHEDRAL.0>
2.60093

>  <SCORE.INTRA.POLAR>
0

>  <SCORE.INTRA.POLAR.0>
0

>  <SCORE.INTRA.REPUL>
0

>  <SCORE.INTRA.REPUL.0>
0

>  <SCORE.INTRA.SOLV>
-0.61602

>  <SCORE.INTRA.SOLV.lig_0>
-33.7882

>  <SCORE.INTRA.VDW>
-0.402235

>  <SCORE.INTRA.VDW.0>
-0.593976

>  <SCORE.INTRA.norm>
0.0196351

>  <SCORE.RESTR>
0

>  <SCORE.RESTR.CAVITY>
0

>  <SCORE.RESTR.norm>
0

>  <SCORE.SYSTEM>
0

>  <SCORE.SYSTEM.CONST>
0

>  <SCORE.SYSTEM.DIHEDRAL>
0

>  <SCORE.SYSTEM.SOLV>
0

>  <SCORE.SYSTEM.norm>
0

>  <SCORE.heavy>
10

>  <SCORE.norm>
-1.14919

>  <RMSD>
5.580

$$$$
ligand
 OpenBabel11021811473D
libRbt.so/2013.1/901 2013/11/27
 10  9  0  0  0  0  0  0  0  0999 V2000
   26.3173   15.4076   20.3215 N   0  0  0  0  0  0  0  0  0  0  0  0
   27.7541   15.2306   19.9598 C   0  0  2  0  0  0  0  0  0  0  0  0
   27.9178   14.7197   18.5578 C   0  0  0  0  0  0  0  0  0  0  0  0
   27.3440   13.7003   18.1860 O   0  0  0  0  0  0  0  0  0  0  0  0
   28.4404   14.3296   20.9824 C   0  0  0  0  0  0  0  0  0  0  0  0
   28.4694   15.1803   22.5299 S   0  0  0  0  0  0  0  0  0  0  0  0
   29.8424   16.2598   22.2902 C   0  0  0  0  0  0  0  0  0  0  0  0
   31.1284   15.4418   22.3546 C   0  0  0  0  0  0  0  0  0  0  0  0
   32.2743   16.3149   22.1984 N   0  0  0  0  0  0  0  0  0  0  0  0
   28.6030   15.2934   17.7140 O   0  0  0  0  0  0  0  0  0  0  0  0
  2  1  1  1  0  0  0
  2  3  1  0  0  0  0
  2  5  1  0  0  0  0
  3  4  1  0  0  0  0
  3 10  1  0  0  0  0
  5  6  1  0  0  0  0
  6  7  1  0  0  0  0
  7  8  1  0  0  0  0
  8  9  1  0  0  0  0
M  END
>  <CHROM.1>
-53.85336292,-66.29187226,-80.08226902,-73.22180326,-178.36289542,28.76776654
15.17530057,20.70290936,2.24898116,-0.22431816,-1.69345367

>  <Name>
ligand

>  <RI>
0

>  <Rbt.Current_Directory>
/home/itssahil/PROJECTS/Mol_Feturizer/New_Systems/rnas/3DIG

>  <Rbt.Executable>
rbdock ($Id: //depot/dev/client3/rdock/2013.1/src/exe/rbdock.cxx#4 $)

>  <Rbt.Library>
libRbt.so (2013.1, Build901 2013/11/27)

>  <Rbt.Parameter_File>
/export/apps/rDock/src/rDock_2013.1_src/data/scripts/dock_solv.prm

>  <Rbt.Receptor>
prm/blind_docking_100.prm

>  <SCORE>
-11.4801

>  <SCORE.INTER>
-11.133

>  <SCORE.INTER.CONST>
1

>  <SCORE.INTER.POLAR>
0

>  <SCORE.INTER.ROT>
5

>  <SCORE.INTER.SOLV>
17.3638

>  <SCORE.INTER.VDW>
-20.1432

>  <SCORE.INTER.norm>
-1.1133

>  <SCORE.INTRA>
-0.347109

>  <SCORE.INTRA.DIHEDRAL>
-0.0682518

>  <SCORE.INTRA.DIHEDRAL.0>
2.60093

>  <SCORE.INTRA.POLAR>
0

>  <SCORE.INTRA.POLAR.0>
0

>  <SCORE.INTRA.REPUL>
0

>  <SCORE.INTRA.REPUL.0>
0

>  <SCORE.INTRA.SOLV>
-0.258806

>  <SCORE.INTRA.SOLV.lig_0>
-33.7882

>  <SCORE.INTRA.VDW>
-0.18358

>  <SCORE.INTRA.VDW.0>
-0.593976

>  <SCORE.INTRA.norm>
-0.0347109

>  <SCORE.RESTR>
0

>  <SCORE.RESTR.CAVITY>
0

>  <SCORE.RESTR.norm>
0

>  <SCORE.SYSTEM>
0

>  <SCORE.SYSTEM.CONST>
0

>  <SCORE.SYSTEM.DIHEDRAL>
0

>  <SCORE.SYSTEM.SOLV>
0

>  <SCORE.SYSTEM.norm>
0

>  <SCORE.heavy>
10

>  <SCORE.norm>
-1.14801

>  <RMSD>
5.581

$$$$
ligand
 OpenBabel11021811473D
libRbt.so/2013.1/901 2013/11/27
 10  9  0  0  0  0  0  0  0  0999 V2000
   26.1513   14.8214   21.0130 N   0  0  0  0  0  0  0  0  0  0  0  0
   27.1577   15.5695   20.2043 C   0  0  2  0  0  0  0  0  0  0  0  0
   27.6221   14.7755   19.0180 C   0  0  0  0  0  0  0  0  0  0  0  0
   28.3841   15.2649   18.1896 O   0  0  0  0  0  0  0  0  0  0  0  0
   28.3190   16.0049   21.0932 C   0  0  0  0  0  0  0  0  0  0  0  0
   28.9953   14.5627   21.8563 S   0  0  0  0  0  0  0  0  0  0  0  0
   30.5184   15.1979   22.4763 C   0  0  0  0  0  0  0  0  0  0  0  0
   31.4384   15.5064   21.2993 C   0  0  0  0  0  0  0  0  0  0  0  0
   32.6420   16.1588   21.7743 N   0  0  0  0  0  0  0  0  0  0  0  0
   27.2907   13.6077   18.8251 O   0  0  0  0  0  0  0  0  0  0  0  0
  2  1  1  1  0  0  0
  2  3  1  0  0  0  0
  2  5  1  0  0  0  0
  3  4  1  0  0  0  0
  3 10  1  0  0  0  0
  5  6  1  0  0  0  0
  6  7  1  0  0  0  0
  7  8  1  0  0  0  0
  8  9  1  0  0  0  0
M  END
>  <CHROM.1>
175.15887591,56.68697698,166.22208492,-69.31292284,174.09077379,28.86916226
15.06510657,20.69070144,2.62058649,-0.21229805,-1.57684612

>  <Name>
ligand

>  <RI>
0

>  <Rbt.Current_Directory>
/home/itssahil/PROJECTS/Mol_Feturizer/New_Systems/rnas/3DIG

>  <Rbt.Executable>
rbdock ($Id: //depot/dev/client3/rdock/2013.1/src/exe/rbdock.cxx#4 $)

>  <Rbt.Library>
libRbt.so (2013.1, Build901 2013/11/27)

>  <Rbt.Parameter_File>
/export/apps/rDock/src/rDock_2013.1_src/data/scripts/dock_solv.prm

>  <Rbt.Receptor>
prm/pocket_docking_3.prm

>  <SCORE>
-11.7895

>  <SCORE.INTER>
-11.2762

>  <SCORE.INTER.CONST>
1

>  <SCORE.INTER.POLAR>
0

>  <SCORE.INTER.ROT>
5

>  <SCORE.INTER.SOLV>
18.2743

>  <SCORE.INTER.VDW>
-20.5422

>  <SCORE.INTER.norm>
-1.12762

>  <SCORE.INTRA>
-0.513342

>  <SCORE.INTRA.DIHEDRAL>
-0.51084

>  <SCORE.INTRA.DIHEDRAL.0>
2.60093

>  <SCORE.INTRA.POLAR>
0

>  <SCORE.INTRA.POLAR.0>
0

>  <SCORE.INTRA.REPUL>
0

>  <SCORE.INTRA.REPUL.0>
0

>  <SCORE.INTRA.SOLV>
-0.37026

>  <SCORE.INTRA.SOLV.lig_0>
-33.7882

>  <SCORE.INTRA.VDW>
-0.0727917

>  <SCORE.INTRA.VDW.0>
-0.593976

>  <SCORE.INTRA.norm>
-0.0513342

>  <SCORE.RESTR>
0

>  <SCORE.RESTR.CAVITY>
0

>  <SCORE.RESTR.norm>
0

>  <SCORE.SYSTEM>
0

>  <SCORE.SYSTEM.CONST>
0

>  <SCORE.SYSTEM.DIHEDRAL>
0

>  <SCORE.SYSTEM.SOLV>
0

>  <SCORE.SYSTEM.norm>
0

>  <SCORE.heavy>
10

>  <SCORE.norm>
-1.17895

>  <RMSD>
5.581

$$$$
ligand
 OpenBabel11021811473D
libRbt.so/2013.1/901 2013/11/27
 10  9  0  0  0  0  0  0  0  0999 V2000
   28.9703   15.3444   19.7459 N   0  0  0  0  0  0  0  0  0  0  0  0
   28.4160   14.8055   21.0221 C   0  0  2  0  0  0  0  0  0  0  0  0
   26.9216   14.9352   21.0803 C   0  0  0  0  0  0  0  0  0  0  0  0
   26.2840   14.4755   22.0231 O   0  0  0  0  0  0  0  0  0  0  0  0
   29.0968   15.4791   22.2100 C   0  0  0  0  0  0  0  0  0  0  0  0
   30.8338   15.1847   22.0850 S   0  0  0  0  0  0  0  0  0  0  0  0
   31.4742   16.7109   22.6918 C   0  0  0  0  0  0  0  0  0  0  0  0
   32.9928   16.6994   22.5475 C   0  0  0  0  0  0  0  0  0  0  0  0
   33.3537   16.7755   21.1462 N   0  0  0  0  0  0  0  0  0  0  0  0
   26.2678   15.5165   20.2170 O   0  0  0  0  0  0  0  0  0  0  0  0
  2  1  1  6  0  0  0
  2  3  1  0  0  0  0
  2  5  1  0  0  0  0
  3  4  1  0  0  0  0
  3 10  1  0  0  0  0
  5  6  1  0  0  0  0
  6  7  1  0  0  0  0
  7  8  1  0  0  0  0
  8  9  1  0  0  0  0
M  END
>  <CHROM.1>
175.79625078,-58.17548347,143.83415191,-175.08867899,69.88553622,29.57599245
15.54485284,21.54509185,-3.00813441,0.27575033,1.75005685

>  <Name>
ligand

>  <RI>
0

>  <Rbt.Current_Directory>
/home/itssahil/PROJECTS/Mol_Feturizer/New_Systems/rnas/3DIG

>  <Rbt.Executable>
rbdock ($Id: //depot/dev/client3/rdock/2013.1/src/exe/rbdock.cxx#4 $)

>  <Rbt.Library>
libRbt.so (2013.1, Build901 2013/11/27)

>  <Rbt.Parameter_File>
/export/apps/rDock/src/rDock_2013.1_src/data/scripts/dock_solv.prm

>  <Rbt.Receptor>
prm/pocket_docking_7.prm

>  <SCORE>
-11.5003

>  <SCORE.INTER>
-11.9456

>  <SCORE.INTER.CONST>
1

>  <SCORE.INTER.POLAR>
0

>  <SCORE.INTER.ROT>
5

>  <SCORE.INTER.SOLV>
12.2093

>  <SCORE.INTER.VDW>
-18.9668

>  <SCORE.INTER.norm>
-1.19456

>  <SCORE.INTRA>
0.445224

>  <SCORE.INTRA.DIHEDRAL>
0.88388

>  <SCORE.INTRA.DIHEDRAL.0>
2.60093

>  <SCORE.INTRA.POLAR>
0

>  <SCORE.INTRA.POLAR.0>
0

>  <SCORE.INTRA.REPUL>
0

>  <SCORE.INTRA.REPUL.0>
0

>  <SCORE.INTRA.SOLV>
0.462811

>  <SCORE.INTRA.SOLV.lig_0>
-33.7882

>  <SCORE.INTRA.VDW>
-0.228122

>  <SCORE.INTRA.VDW.0>
-0.593976

>  <SCORE.INTRA.norm>
0.0445224

>  <SCORE.RESTR>
0

>  <SCORE.RESTR.CAVITY>
0

>  <SCORE.RESTR.norm>
0

>  <SCORE.SYSTEM>
0

>  <SCORE.SYSTEM.CONST>
0

>  <SCORE.SYSTEM.DIHEDRAL>
0

>  <SCORE.SYSTEM.SOLV>
0

>  <SCORE.SYSTEM.norm>
0

>  <SCORE.heavy>
10

>  <SCORE.norm>
-1.15003

>  <RMSD>
5.581

$$$$
ligand
 OpenBabel11021811473D
libRbt.so/2013.1/901 2013/11/27
 10  9  0  0  0  0  0  0  0  0999 V2000
   28.9686   14.8109   19.7463 N   0  0  0  0  0  0  0  0  0  0  0  0
   28.3589   14.6733   21.1013 C   0  0  2  0  0  0  0  0  0  0  0  0
   26.8739   14.8904   21.0697 C   0  0  0  0  0  0  0  0  0  0  0  0
   26.1663   14.5551   22.0149 O   0  0  0  0  0  0  0  0  0  0  0  0
   29.0550   15.6120   22.0824 C   0  0  0  0  0  0  0  0  0  0  0  0
   30.7746   15.2093   22.0994 S   0  0  0  0  0  0  0  0  0  0  0  0
   31.4644   16.7218   22.6861 C   0  0  0  0  0  0  0  0  0  0  0  0
   32.9647   16.7181   22.4100 C   0  0  0  0  0  0  0  0  0  0  0  0
   33.2013   16.7475   20.9807 N   0  0  0  0  0  0  0  0  0  0  0  0
   26.2973   15.4256   20.1252 O   0  0  0  0  0  0  0  0  0  0  0  0
  2  1  1  6  0  0  0
  2  3  1  0  0  0  0
  2  5  1  0  0  0  0
  3  4  1  0  0  0  0
  3 10  1  0  0  0  0
  5  6  1  0  0  0  0
  6  7  1  0  0  0  0
  7  8  1  0  0  0  0
  8  9  1  0  0  0  0
M  END
>  <CHROM.1>
164.96088568,-57.99864857,157.37935595,-164.44524172,66.42093384,29.52636019
15.49939823,21.50524739,-2.96543380,0.26033011,1.55658234

>  <Name>
ligand

>  <RI>
0

>  <Rbt.Current_Directory>
/home/itssahil/PROJECTS/Mol_Feturizer/New_Systems/rnas/3DIG

>  <Rbt.Executable>
rbdock ($Id: //depot/dev/client3/rdock/2013.1/src/exe/rbdock.cxx#4 $)

>  <Rbt.Library>
libRbt.so (2013.1, Build901 2013/11/27)

>  <Rbt.Parameter_File>
/export/apps/rDock/src/rDock_2013.1_src/data/scripts/dock_solv.prm

>  <Rbt.Receptor>
prm/pocket_docking_6.prm

>  <SCORE>
-11.56

>  <SCORE.INTER>
-11.5853

>  <SCORE.INTER.CONST>
1

>  <SCORE.INTER.POLAR>
0

>  <SCORE.INTER.ROT>
5

>  <SCORE.INTER.SOLV>
12.9185

>  <SCORE.INTER.VDW>
-18.9631

>  <SCORE.INTER.norm>
-1.15853

>  <SCORE.INTRA>
0.0253858

>  <SCORE.INTRA.DIHEDRAL>
0.161768

>  <SCORE.INTRA.DIHEDRAL.0>
2.60093

>  <SCORE.INTRA.POLAR>
0

>  <SCORE.INTRA.POLAR.0>
0

>  <SCORE.INTRA.REPUL>
0

>  <SCORE.INTRA.REPUL.0>
0

>  <SCORE.INTRA.SOLV>
0.451519

>  <SCORE.INTRA.SOLV.lig_0>
-33.7882

>  <SCORE.INTRA.VDW>
-0.281257

>  <SCORE.INTRA.VDW.0>
-0.593976

>  <SCORE.INTRA.norm>
0.00253858

>  <SCORE.RESTR>
0

>  <SCORE.RESTR.CAVITY>
0

>  <SCORE.RESTR.norm>
0

>  <SCORE.SYSTEM>
0

>  <SCORE.SYSTEM.CONST>
0

>  <SCORE.SYSTEM.DIHEDRAL>
0

>  <SCORE.SYSTEM.SOLV>
0

>  <SCORE.SYSTEM.norm>
0

>  <SCORE.heavy>
10

>  <SCORE.norm>
-1.156

>  <RMSD>
5.583

$$$$
ligand
 OpenBabel11021811473D
libRbt.so/2013.1/901 2013/11/27
 10  9  0  0  0  0  0  0  0  0999 V2000
   28.1279   14.2457   18.9290 N   0  0  0  0  0  0  0  0  0  0  0  0
   28.1642   14.3703   20.4155 C   0  0  2  0  0  0  0  0  0  0  0  0
   26.8543   14.8533   20.9672 C   0  0  0  0  0  0  0  0  0  0  0  0
   26.0797   15.5067   20.2745 O   0  0  0  0  0  0  0  0  0  0  0  0
   29.3275   15.2647   20.8340 C   0  0  0  0  0  0  0  0  0  0  0  0
   29.4305   15.2403   22.5969 S   0  0  0  0  0  0  0  0  0  0  0  0
   31.1015   15.7472   22.8394 C   0  0  0  0  0  0  0  0  0  0  0  0
   31.2323   17.2152   22.4460 C   0  0  0  0  0  0  0  0  0  0  0  0
   32.6158   17.6319   22.5560 N   0  0  0  0  0  0  0  0  0  0  0  0
   26.4809   14.6078   22.1122 O   0  0  0  0  0  0  0  0  0  0  0  0
  2  1  1  6  0  0  0
  2  3  1  0  0  0  0
  2  5  1  0  0  0  0
  3  4  1  0  0  0  0
  3 10  1  0  0  0  0
  5  6  1  0  0  0  0
  6  7  1  0  0  0  0
  7  8  1  0  0  0  0
  8  9  1  0  0  0  0
M  END
>  <CHROM.1>
-24.49779582,-174.06195755,158.78853639,69.43139920,-176.38852280,28.96187337
15.44691279,21.53975953,-2.69525671,0.34728351,1.42392791

>  <Name>
ligand

>  <RI>
0

>  <Rbt.Current_Directory>
/home/itssahil/PROJECTS/Mol_Feturizer/New_Systems/rnas/3DIG

>  <Rbt.Executable>
rbdock ($Id: //depot/dev/client3/rdock/2013.1/src/exe/rbdock.cxx#4 $)

>  <Rbt.Library>
libRbt.so (2013.1, Build901 2013/11/27)

>  <Rbt.Parameter_File>
/export/apps/rDock/src/rDock_2013.1_src/data/scripts/dock_solv.prm

>  <Rbt.Receptor>
prm/pocket_docking_8.prm

>  <SCORE>
-12.1613

>  <SCORE.INTER>
-11.5071

>  <SCORE.INTER.CONST>
1

>  <SCORE.INTER.POLAR>
0

>  <SCORE.INTER.ROT>
5

>  <SCORE.INTER.SOLV>
14.3582

>  <SCORE.INTER.VDW>
-19.3908

>  <SCORE.INTER.norm>
-1.15071

>  <SCORE.INTRA>
-0.654258

>  <SCORE.INTRA.DIHEDRAL>
-0.0613294

>  <SCORE.INTRA.DIHEDRAL.0>
2.60093

>  <SCORE.INTRA.POLAR>
0

>  <SCORE.INTRA.POLAR.0>
0

>  <SCORE.INTRA.REPUL>
0

>  <SCORE.INTRA.REPUL.0>
0

>  <SCORE.INTRA.SOLV>
-1.302

>  <SCORE.INTRA.SOLV.lig_0>
-33.7882

>  <SCORE.INTRA.VDW>
0.0274085

>  <SCORE.INTRA.VDW.0>
-0.593976

>  <SCORE.INTRA.norm>
-0.0654258

>  <SCORE.RESTR>
0

>  <SCORE.RESTR.CAVITY>
0

>  <SCORE.RESTR.norm>
0

>  <SCORE.SYSTEM>
0

>  <SCORE.SYSTEM.CONST>
0

>  <SCORE.SYSTEM.DIHEDRAL>
0

>  <SCORE.SYSTEM.SOLV>
0

>  <SCORE.SYSTEM.norm>
0

>  <SCORE.heavy>
10

>  <SCORE.norm>
-1.21613

>  <RMSD>
5.583

$$$$
ligand
 OpenBabel11021811473D
libRbt.so/2013.1/901 2013/11/27
 10  9  0  0  0  0  0  0  0  0999 V2000
   28.1733   14.2706   18.9604 N   0  0  0  0  0  0  0  0  0  0  0  0
   28.1813   14.4110   20.4459 C   0  0  2  0  0  0  0  0  0  0  0  0
   26.8465   14.8527   20.9719 C   0  0  0  0  0  0  0  0  0  0  0  0
   26.5033   14.5933   22.1215 O   0  0  0  0  0  0  0  0  0  0  0  0
   29.3054   15.3502   20.8732 C   0  0  0  0  0  0  0  0  0  0  0  0
   29.4599   15.2558   22.6301 S   0  0  0  0  0  0  0  0  0  0  0  0
   31.1330   15.7682   22.8447 C   0  0  0  0  0  0  0  0  0  0  0  0
   31.2576   17.2296   22.4258 C   0  0  0  0  0  0  0  0  0  0  0  0
   32.6348   17.6617   22.5540 N   0  0  0  0  0  0  0  0  0  0  0  0
   26.0479   15.5049   20.3029 O   0  0  0  0  0  0  0  0  0  0  0  0
  2  1  1  6  0  0  0
  2  3  1  0  0  0  0
  2  5  1  0  0  0  0
  3  4  1  0  0  0  0
  3 10  1  0  0  0  0
  5  6  1  0  0  0  0
  6  7  1  0  0  0  0
  7  8  1  0  0  0  0
  8  9  1  0  0  0  0
M  END
>  <CHROM.1>
154.71223298,-169.94216770,156.11283822,66.00110302,-178.22025774,28.97638448
15.46716876,21.55779928,-2.71170200,0.35858476,1.44978630

>  <Name>
ligand

>  <RI>
0

>  <Rbt.Current_Directory>
/home/itssahil/PROJECTS/Mol_Feturizer/New_Systems/rnas/3DIG

>  <Rbt.Executable>
rbdock ($Id: //depot/dev/client3/rdock/2013.1/src/exe/rbdock.cxx#4 $)

>  <Rbt.Library>
libRbt.so (2013.1, Build901 2013/11/27)

>  <Rbt.Parameter_File>
/export/apps/rDock/src/rDock_2013.1_src/data/scripts/dock_solv.prm

>  <Rbt.Receptor>
prm/blind_docking_100.prm

>  <SCORE>
-12.097

>  <SCORE.INTER>
-11.5379

>  <SCORE.INTER.CONST>
1

>  <SCORE.INTER.POLAR>
0

>  <SCORE.INTER.ROT>
5

>  <SCORE.INTER.SOLV>
14.2336

>  <SCORE.INTER.VDW>
-19.3698

>  <SCORE.INTER.norm>
-1.15379

>  <SCORE.INTRA>
-0.559097

>  <SCORE.INTRA.DIHEDRAL>
0.113109

>  <SCORE.INTRA.DIHEDRAL.0>
2.60093

>  <SCORE.INTRA.POLAR>
0

>  <SCORE.INTRA.POLAR.0>
0

>  <SCORE.INTRA.REPUL>
0

>  <SCORE.INTRA.REPUL.0>
0

>  <SCORE.INTRA.SOLV>
-1.30848

>  <SCORE.INTRA.SOLV.lig_0>
-33.7882

>  <SCORE.INTRA.VDW>
0.0385874

>  <SCORE.INTRA.VDW.0>
-0.593976

>  <SCORE.INTRA.norm>
-0.0559097

>  <SCORE.RESTR>
0

>  <SCORE.RESTR.CAVITY>
0

>  <SCORE.RESTR.norm>
0

>  <SCORE.SYSTEM>
0

>  <SCORE.SYSTEM.CONST>
0

>  <SCORE.SYSTEM.DIHEDRAL>
0

>  <SCORE.SYSTEM.SOLV>
0

>  <SCORE.SYSTEM.norm>
0

>  <SCORE.heavy>
10

>  <SCORE.norm>
-1.2097

>  <RMSD>
5.585

$$$$
ligand
 OpenBabel11021811473D
libRbt.so/2013.1/901 2013/11/27
 10  9  0  0  0  0  0  0  0  0999 V2000
   26.3356   15.1815   20.5169 N   0  0  0  0  0  0  0  0  0  0  0  0
   27.7440   15.2783   20.0338 C   0  0  2  0  0  0  0  0  0  0  0  0
   27.8785   14.8212   18.6103 C   0  0  0  0  0  0  0  0  0  0  0  0
   28.5590   15.4513   17.8062 O   0  0  0  0  0  0  0  0  0  0  0  0
   28.6697   14.5101   20.9727 C   0  0  0  0  0  0  0  0  0  0  0  0
   28.6371   15.3082   22.5479 S   0  0  0  0  0  0  0  0  0  0  0  0
   30.3580   15.5781   22.8194 C   0  0  0  0  0  0  0  0  0  0  0  0
   30.7952   16.8040   22.0238 C   0  0  0  0  0  0  0  0  0  0  0  0
   32.1943   17.0819   22.2789 N   0  0  0  0  0  0  0  0  0  0  0  0
   27.3446   13.7995   18.1839 O   0  0  0  0  0  0  0  0  0  0  0  0
  2  1  1  1  0  0  0
  2  3  1  0  0  0  0
  2  5  1  0  0  0  0
  3  4  1  0  0  0  0
  3 10  1  0  0  0  0
  5  6  1  0  0  0  0
  6  7  1  0  0  0  0
  7  8  1  0  0  0  0
  8  9  1  0  0  0  0
M  END
>  <CHROM.1>
136.50636410,-64.66689474,-126.18992006,79.57925503,177.43384487,28.82422466
15.36193929,20.76652855,2.30400279,-0.43667101,-1.60868589

>  <Name>
ligand

>  <RI>
0

>  <Rbt.Current_Directory>
/home/itssahil/PROJECTS/Mol_Feturizer/New_Systems/rnas/3DIG

>  <Rbt.Executable>
rbdock ($Id: //depot/dev/client3/rdock/2013.1/src/exe/rbdock.cxx#4 $)

>  <Rbt.Library>
libRbt.so (2013.1, Build901 2013/11/27)

>  <Rbt.Parameter_File>
/export/apps/rDock/src/rDock_2013.1_src/data/scripts/dock_solv.prm

>  <Rbt.Receptor>
prm/pocket_docking_4.prm

>  <SCORE>
-11.542

>  <SCORE.INTER>
-11.7074

>  <SCORE.INTER.CONST>
1

>  <SCORE.INTER.POLAR>
0

>  <SCORE.INTER.ROT>
5

>  <SCORE.INTER.SOLV>
16.4996

>  <SCORE.INTER.VDW>
-20.2381

>  <SCORE.INTER.norm>
-1.17074

>  <SCORE.INTRA>
0.165346

>  <SCORE.INTRA.DIHEDRAL>
1.87614

>  <SCORE.INTRA.DIHEDRAL.0>
2.60093

>  <SCORE.INTRA.POLAR>
0

>  <SCORE.INTRA.POLAR.0>
0

>  <SCORE.INTRA.REPUL>
0

>  <SCORE.INTRA.REPUL.0>
0

>  <SCORE.INTRA.SOLV>
-0.694646

>  <SCORE.INTRA.SOLV.lig_0>
-33.7882

>  <SCORE.INTRA.VDW>
-0.425401

>  <SCORE.INTRA.VDW.0>
-0.593976

>  <SCORE.INTRA.norm>
0.0165346

>  <SCORE.RESTR>
0

>  <SCORE.RESTR.CAVITY>
0

>  <SCORE.RESTR.norm>
0

>  <SCORE.SYSTEM>
0

>  <SCORE.SYSTEM.CONST>
0

>  <SCORE.SYSTEM.DIHEDRAL>
0

>  <SCORE.SYSTEM.SOLV>
0

>  <SCORE.SYSTEM.norm>
0

>  <SCORE.heavy>
10

>  <SCORE.norm>
-1.1542

>  <RMSD>
5.585

$$$$
ligand
 OpenBabel11021811473D
libRbt.so/2013.1/901 2013/11/27
 10  9  0  0  0  0  0  0  0  0999 V2000
   28.9987   14.9627   19.8087 N   0  0  0  0  0  0  0  0  0  0  0  0
   28.3677   14.7286   21.1404 C   0  0  2  0  0  0  0  0  0  0  0  0
   26.8769   14.8972   21.0890 C   0  0  0  0  0  0  0  0  0  0  0  0
   26.1606   14.4605   21.9851 O   0  0  0  0  0  0  0  0  0  0  0  0
   29.0115   15.6333   22.1870 C   0  0  0  0  0  0  0  0  0  0  0  0
   30.7436   15.2897   22.2171 S   0  0  0  0  0  0  0  0  0  0  0  0
   31.3940   16.8902   22.5683 C   0  0  0  0  0  0  0  0  0  0  0  0
   32.9150   16.8364   22.4664 C   0  0  0  0  0  0  0  0  0  0  0  0
   33.3063   16.5592   21.0990 N   0  0  0  0  0  0  0  0  0  0  0  0
   26.3030   15.4894   20.1776 O   0  0  0  0  0  0  0  0  0  0  0  0
  2  1  1  6  0  0  0
  2  3  1  0  0  0  0
  2  5  1  0  0  0  0
  3  4  1  0  0  0  0
  3 10  1  0  0  0  0
  5  6  1  0  0  0  0
  6  7  1  0  0  0  0
  7  8  1  0  0  0  0
  8  9  1  0  0  0  0
M  END
>  <CHROM.1>
163.40250844,-57.92507393,145.79164564,-173.09980860,65.35002780,29.51853039
15.54146794,21.55557373,-2.96704066,0.26513232,1.56931269

>  <Name>
ligand

>  <RI>
0

>  <Rbt.Current_Directory>
/home/itssahil/PROJECTS/Mol_Feturizer/New_Systems/rnas/3DIG

>  <Rbt.Executable>
rbdock ($Id: //depot/dev/client3/rdock/2013.1/src/exe/rbdock.cxx#4 $)

>  <Rbt.Library>
libRbt.so (2013.1, Build901 2013/11/27)

>  <Rbt.Parameter_File>
/export/apps/rDock/src/rDock_2013.1_src/data/scripts/dock_solv.prm

>  <Rbt.Receptor>
prm/pocket_docking_8.prm

>  <SCORE>
-11.48

>  <SCORE.INTER>
-11.711

>  <SCORE.INTER.CONST>
1

>  <SCORE.INTER.POLAR>
0

>  <SCORE.INTER.ROT>
5

>  <SCORE.INTER.SOLV>
12.6858

>  <SCORE.INTER.VDW>
-18.9693

>  <SCORE.INTER.norm>
-1.1711

>  <SCORE.INTRA>
0.23098

>  <SCORE.INTRA.DIHEDRAL>
0.529135

>  <SCORE.INTRA.DIHEDRAL.0>
2.60093

>  <SCORE.INTRA.POLAR>
0

>  <SCORE.INTRA.POLAR.0>
0

>  <SCORE.INTRA.REPUL>
0

>  <SCORE.INTRA.REPUL.0>
0

>  <SCORE.INTRA.SOLV>
0.523142

>  <SCORE.INTRA.SOLV.lig_0>
-33.7882

>  <SCORE.INTRA.VDW>
-0.295158

>  <SCORE.INTRA.VDW.0>
-0.593976

>  <SCORE.INTRA.norm>
0.023098

>  <SCORE.RESTR>
0

>  <SCORE.RESTR.CAVITY>
0

>  <SCORE.RESTR.norm>
0

>  <SCORE.SYSTEM>
0

>  <SCORE.SYSTEM.CONST>
0

>  <SCORE.SYSTEM.DIHEDRAL>
0

>  <SCORE.SYSTEM.SOLV>
0

>  <SCORE.SYSTEM.norm>
0

>  <SCORE.heavy>
10

>  <SCORE.norm>
-1.148

>  <RMSD>
5.587

$$$$
ligand
 OpenBabel11021811473D
libRbt.so/2013.1/901 2013/11/27
 10  9  0  0  0  0  0  0  0  0999 V2000
   29.1014   15.2973   19.9389 N   0  0  0  0  0  0  0  0  0  0  0  0
   28.4389   14.8319   21.1924 C   0  0  2  0  0  0  0  0  0  0  0  0
   26.9433   14.9216   21.0997 C   0  0  0  0  0  0  0  0  0  0  0  0
   26.2276   14.4826   21.9950 O   0  0  0  0  0  0  0  0  0  0  0  0
   28.9869   15.6055   22.3881 C   0  0  0  0  0  0  0  0  0  0  0  0
   30.7295   15.3292   22.4672 S   0  0  0  0  0  0  0  0  0  0  0  0
   31.3183   16.6163   21.4163 C   0  0  0  0  0  0  0  0  0  0  0  0
   32.8413   16.6558   21.4927 C   0  0  0  0  0  0  0  0  0  0  0  0
   33.2563   17.0634   22.8199 N   0  0  0  0  0  0  0  0  0  0  0  0
   26.3636   15.4490   20.1528 O   0  0  0  0  0  0  0  0  0  0  0  0
  2  1  1  6  0  0  0
  2  3  1  0  0  0  0
  2  5  1  0  0  0  0
  3  4  1  0  0  0  0
  3 10  1  0  0  0  0
  5  6  1  0  0  0  0
  6  7  1  0  0  0  0
  7  8  1  0  0  0  0
  8  9  1  0  0  0  0
M  END
>  <CHROM.1>
174.14461869,-59.23574471,87.82158007,172.90974176,-66.55186893,29.52866492
15.58915765,21.60278327,-3.02536898,0.31288598,1.83900071

>  <Name>
ligand

>  <RI>
0

>  <Rbt.Current_Directory>
/home/itssahil/PROJECTS/Mol_Feturizer/New_Systems/rnas/3DIG

>  <Rbt.Executable>
rbdock ($Id: //depot/dev/client3/rdock/2013.1/src/exe/rbdock.cxx#4 $)

>  <Rbt.Library>
libRbt.so (2013.1, Build901 2013/11/27)

>  <Rbt.Parameter_File>
/export/apps/rDock/src/rDock_2013.1_src/data/scripts/dock_solv.prm

>  <Rbt.Receptor>
prm/pocket_docking_4.prm

>  <SCORE>
-11.1636

>  <SCORE.INTER>
-12.0021

>  <SCORE.INTER.CONST>
1

>  <SCORE.INTER.POLAR>
0

>  <SCORE.INTER.ROT>
5

>  <SCORE.INTER.SOLV>
12.1968

>  <SCORE.INTER.VDW>
-19.0003

>  <SCORE.INTER.norm>
-1.20021

>  <SCORE.INTRA>
0.838548

>  <SCORE.INTRA.DIHEDRAL>
0.192944

>  <SCORE.INTRA.DIHEDRAL.0>
2.60093

>  <SCORE.INTRA.POLAR>
0

>  <SCORE.INTRA.POLAR.0>
0

>  <SCORE.INTRA.REPUL>
0

>  <SCORE.INTRA.REPUL.0>
0

>  <SCORE.INTRA.SOLV>
1.67088

>  <SCORE.INTRA.SOLV.lig_0>
-33.7882

>  <SCORE.INTRA.VDW>
-0.0933625

>  <SCORE.INTRA.VDW.0>
-0.593976

>  <SCORE.INTRA.norm>
0.0838548

>  <SCORE.RESTR>
0

>  <SCORE.RESTR.CAVITY>
0

>  <SCORE.RESTR.norm>
0

>  <SCORE.SYSTEM>
0

>  <SCORE.SYSTEM.CONST>
0

>  <SCORE.SYSTEM.DIHEDRAL>
0

>  <SCORE.SYSTEM.SOLV>
0

>  <SCORE.SYSTEM.norm>
0

>  <SCORE.heavy>
10

>  <SCORE.norm>
-1.11636

>  <RMSD>
5.588

$$$$
ligand
 OpenBabel11021811473D
libRbt.so/2013.1/901 2013/11/27
 10  9  0  0  0  0  0  0  0  0999 V2000
   29.1345   16.4232   19.8494 N   0  0  0  0  0  0  0  0  0  0  0  0
   28.5710   15.1492   20.3841 C   0  0  2  0  0  0  0  0  0  0  0  0
   27.2578   14.8071   19.7424 C   0  0  0  0  0  0  0  0  0  0  0  0
   26.2166   15.3436   20.1096 O   0  0  0  0  0  0  0  0  0  0  0  0
   28.4638   15.2258   21.9043 C   0  0  0  0  0  0  0  0  0  0  0  0
   30.0779   14.9859   22.5800 S   0  0  0  0  0  0  0  0  0  0  0  0
   30.7719   16.5916   22.3611 C   0  0  0  0  0  0  0  0  0  0  0  0
   32.2790   16.5106   22.5825 C   0  0  0  0  0  0  0  0  0  0  0  0
   32.8645   17.8309   22.4653 N   0  0  0  0  0  0  0  0  0  0  0  0
   27.1558   14.0042   18.8173 O   0  0  0  0  0  0  0  0  0  0  0  0
  2  1  1  6  0  0  0
  2  3  1  0  0  0  0
  2  5  1  0  0  0  0
  3  4  1  0  0  0  0
  3 10  1  0  0  0  0
  5  6  1  0  0  0  0
  6  7  1  0  0  0  0
  7  8  1  0  0  0  0
  8  9  1  0  0  0  0
M  END
>  <CHROM.1>
-80.08986547,-77.21882853,79.87521428,-166.75048629,-177.51277527,29.33513143
15.59684167,21.23082438,-2.90790181,0.58996098,2.15510583

>  <Name>
ligand

>  <RI>
0

>  <Rbt.Current_Directory>
/home/itssahil/PROJECTS/Mol_Feturizer/New_Systems/rnas/3DIG

>  <Rbt.Executable>
rbdock ($Id: //depot/dev/client3/rdock/2013.1/src/exe/rbdock.cxx#4 $)

>  <Rbt.Library>
libRbt.so (2013.1, Build901 2013/11/27)

>  <Rbt.Parameter_File>
/export/apps/rDock/src/rDock_2013.1_src/data/scripts/dock_solv.prm

>  <Rbt.Receptor>
prm/pocket_docking_7.prm

>  <SCORE>
-10.331

>  <SCORE.INTER>
-10.8946

>  <SCORE.INTER.CONST>
1

>  <SCORE.INTER.POLAR>
0

>  <SCORE.INTER.ROT>
5

>  <SCORE.INTER.SOLV>
12.7568

>  <SCORE.INTER.VDW>
-18.4486

>  <SCORE.INTER.norm>
-1.08946

>  <SCORE.INTRA>
0.56354

>  <SCORE.INTRA.DIHEDRAL>
0.707266

>  <SCORE.INTRA.DIHEDRAL.0>
2.60093

>  <SCORE.INTRA.POLAR>
0

>  <SCORE.INTRA.POLAR.0>
0

>  <SCORE.INTRA.REPUL>
0

>  <SCORE.INTRA.REPUL.0>
0

>  <SCORE.INTRA.SOLV>
0.648357

>  <SCORE.INTRA.SOLV.lig_0>
-33.7882

>  <SCORE.INTRA.VDW>
-0.114272

>  <SCORE.INTRA.VDW.0>
-0.593976

>  <SCORE.INTRA.norm>
0.056354

>  <SCORE.RESTR>
0

>  <SCORE.RESTR.CAVITY>
0

>  <SCORE.RESTR.norm>
0

>  <SCORE.SYSTEM>
0

>  <SCORE.SYSTEM.CONST>
0

>  <SCORE.SYSTEM.DIHEDRAL>
0

>  <SCORE.SYSTEM.SOLV>
0

>  <SCORE.SYSTEM.norm>
0

>  <SCORE.heavy>
10

>  <SCORE.norm>
-1.0331

>  <RMSD>
5.589

$$$$
ligand
 OpenBabel11021811473D
libRbt.so/2013.1/901 2013/11/27
 10  9  0  0  0  0  0  0  0  0999 V2000
   25.9962   14.9250   20.9773 N   0  0  0  0  0  0  0  0  0  0  0  0
   27.2985   15.5748   20.6482 C   0  0  2  0  0  0  0  0  0  0  0  0
   27.8120   15.1465   19.3042 C   0  0  0  0  0  0  0  0  0  0  0  0
   27.4753   14.0737   18.8120 O   0  0  0  0  0  0  0  0  0  0  0  0
   28.3087   15.3071   21.7601 C   0  0  0  0  0  0  0  0  0  0  0  0
   29.7410   16.2920   21.4476 S   0  0  0  0  0  0  0  0  0  0  0  0
   30.8744   15.6096   22.6127 C   0  0  0  0  0  0  0  0  0  0  0  0
   32.2442   16.2455   22.3971 C   0  0  0  0  0  0  0  0  0  0  0  0
   32.1795   17.6629   22.6912 N   0  0  0  0  0  0  0  0  0  0  0  0
   28.5649   15.8411   18.6249 O   0  0  0  0  0  0  0  0  0  0  0  0
  2  1  1  1  0  0  0
  2  3  1  0  0  0  0
  2  5  1  0  0  0  0
  3  4  1  0  0  0  0
  3 10  1  0  0  0  0
  5  6  1  0  0  0  0
  6  7  1  0  0  0  0
  7  8  1  0  0  0  0
  8  9  1  0  0  0  0
M  END
>  <CHROM.1>
-24.74099813,-171.50626103,-169.04860526,174.21956390,64.55685728,29.12903998
15.72797048,20.95377690,2.57441956,-0.32697562,-1.66121900

>  <Name>
ligand

>  <RI>
0

>  <Rbt.Current_Directory>
/home/itssahil/PROJECTS/Mol_Feturizer/New_Systems/rnas/3DIG

>  <Rbt.Executable>
rbdock ($Id: //depot/dev/client3/rdock/2013.1/src/exe/rbdock.cxx#4 $)

>  <Rbt.Library>
libRbt.so (2013.1, Build901 2013/11/27)

>  <Rbt.Parameter_File>
/export/apps/rDock/src/rDock_2013.1_src/data/scripts/dock_solv.prm

>  <Rbt.Receptor>
prm/pocket_docking_8.prm

>  <SCORE>
-10.6273

>  <SCORE.INTER>
-9.66963

>  <SCORE.INTER.CONST>
1

>  <SCORE.INTER.POLAR>
0

>  <SCORE.INTER.ROT>
5

>  <SCORE.INTER.SOLV>
17.9638

>  <SCORE.INTER.VDW>
-19.3677

>  <SCORE.INTER.norm>
-0.966963

>  <SCORE.INTRA>
-0.957678

>  <SCORE.INTRA.DIHEDRAL>
-0.46513

>  <SCORE.INTRA.DIHEDRAL.0>
2.60093

>  <SCORE.INTRA.POLAR>
0

>  <SCORE.INTRA.POLAR.0>
0

>  <SCORE.INTRA.REPUL>
0

>  <SCORE.INTRA.REPUL.0>
0

>  <SCORE.INTRA.SOLV>
-0.697837

>  <SCORE.INTRA.SOLV.lig_0>
-33.7882

>  <SCORE.INTRA.VDW>
-0.376194

>  <SCORE.INTRA.VDW.0>
-0.593976

>  <SCORE.INTRA.norm>
-0.0957678

>  <SCORE.RESTR>
0

>  <SCORE.RESTR.CAVITY>
0

>  <SCORE.RESTR.norm>
0

>  <SCORE.SYSTEM>
0

>  <SCORE.SYSTEM.CONST>
0

>  <SCORE.SYSTEM.DIHEDRAL>
0

>  <SCORE.SYSTEM.SOLV>
0

>  <SCORE.SYSTEM.norm>
0

>  <SCORE.heavy>
10

>  <SCORE.norm>
-1.06273

>  <RMSD>
5.589

$$$$
ligand
 OpenBabel11021811473D
libRbt.so/2013.1/901 2013/11/27
 10  9  0  0  0  0  0  0  0  0999 V2000
   26.3652   15.3003   20.4119 N   0  0  0  0  0  0  0  0  0  0  0  0
   27.7889   15.2229   19.9721 C   0  0  2  0  0  0  0  0  0  0  0  0
   27.9089   14.7665   18.5471 C   0  0  0  0  0  0  0  0  0  0  0  0
   28.5966   15.3863   17.7412 O   0  0  0  0  0  0  0  0  0  0  0  0
   28.5805   14.3345   20.9275 C   0  0  0  0  0  0  0  0  0  0  0  0
   28.6162   15.1240   22.5069 S   0  0  0  0  0  0  0  0  0  0  0  0
   29.9175   16.2889   22.2670 C   0  0  0  0  0  0  0  0  0  0  0  0
   31.2546   15.5651   22.3900 C   0  0  0  0  0  0  0  0  0  0  0  0
   32.3413   16.5085   22.2206 N   0  0  0  0  0  0  0  0  0  0  0  0
   27.3554   13.7551   18.1212 O   0  0  0  0  0  0  0  0  0  0  0  0
  2  1  1  1  0  0  0
  2  3  1  0  0  0  0
  2  5  1  0  0  0  0
  3  4  1  0  0  0  0
  3 10  1  0  0  0  0
  5  6  1  0  0  0  0
  6  7  1  0  0  0  0
  7  8  1  0  0  0  0
  8  9  1  0  0  0  0
M  END
>  <CHROM.1>
129.90177805,-65.32751771,-81.03620477,-78.63888159,-178.95670976,28.84020012
15.20318141,20.70083472,2.27896427,-0.28355129,-1.65197033

>  <Name>
ligand

>  <RI>
0

>  <Rbt.Current_Directory>
/home/itssahil/PROJECTS/Mol_Feturizer/New_Systems/rnas/3DIG

>  <Rbt.Executable>
rbdock ($Id: //depot/dev/client3/rdock/2013.1/src/exe/rbdock.cxx#4 $)

>  <Rbt.Library>
libRbt.so (2013.1, Build901 2013/11/27)

>  <Rbt.Parameter_File>
/export/apps/rDock/src/rDock_2013.1_src/data/scripts/dock_solv.prm

>  <Rbt.Receptor>
prm/pocket_docking_8.prm

>  <SCORE>
-11.4281

>  <SCORE.INTER>
-11.0416

>  <SCORE.INTER.CONST>
1

>  <SCORE.INTER.POLAR>
0

>  <SCORE.INTER.ROT>
5

>  <SCORE.INTER.SOLV>
17.0327

>  <SCORE.INTER.VDW>
-19.972

>  <SCORE.INTER.norm>
-1.10416

>  <SCORE.INTRA>
-0.386461

>  <SCORE.INTRA.DIHEDRAL>
0.160355

>  <SCORE.INTRA.DIHEDRAL.0>
2.60093

>  <SCORE.INTRA.POLAR>
0

>  <SCORE.INTRA.POLAR.0>
0

>  <SCORE.INTRA.REPUL>
0

>  <SCORE.INTRA.REPUL.0>
0

>  <SCORE.INTRA.SOLV>
-0.306165

>  <SCORE.INTRA.SOLV.lig_0>
-33.7882

>  <SCORE.INTRA.VDW>
-0.313556

>  <SCORE.INTRA.VDW.0>
-0.593976

>  <SCORE.INTRA.norm>
-0.0386461

>  <SCORE.RESTR>
0

>  <SCORE.RESTR.CAVITY>
0

>  <SCORE.RESTR.norm>
0

>  <SCORE.SYSTEM>
0

>  <SCORE.SYSTEM.CONST>
0

>  <SCORE.SYSTEM.DIHEDRAL>
0

>  <SCORE.SYSTEM.SOLV>
0

>  <SCORE.SYSTEM.norm>
0

>  <SCORE.heavy>
10

>  <SCORE.norm>
-1.14281

>  <RMSD>
5.590

$$$$
ligand
 OpenBabel11021811473D
libRbt.so/2013.1/901 2013/11/27
 10  9  0  0  0  0  0  0  0  0999 V2000
   26.2755   15.3562   20.3813 N   0  0  0  0  0  0  0  0  0  0  0  0
   27.7118   15.2310   19.9969 C   0  0  2  0  0  0  0  0  0  0  0  0
   27.8717   14.7195   18.5946 C   0  0  0  0  0  0  0  0  0  0  0  0
   28.5140   15.3514   17.7612 O   0  0  0  0  0  0  0  0  0  0  0  0
   28.4477   14.3613   21.0120 C   0  0  0  0  0  0  0  0  0  0  0  0
   28.4821   15.2263   22.5514 S   0  0  0  0  0  0  0  0  0  0  0  0
   29.8635   16.2929   22.3026 C   0  0  0  0  0  0  0  0  0  0  0  0
   31.1417   15.4617   22.3495 C   0  0  0  0  0  0  0  0  0  0  0  0
   32.2939   16.3219   22.1701 N   0  0  0  0  0  0  0  0  0  0  0  0
   27.3977   13.6505   18.2158 O   0  0  0  0  0  0  0  0  0  0  0  0
  2  1  1  1  0  0  0
  2  3  1  0  0  0  0
  2  5  1  0  0  0  0
  3  4  1  0  0  0  0
  3 10  1  0  0  0  0
  5  6  1  0  0  0  0
  6  7  1  0  0  0  0
  7  8  1  0  0  0  0
  8  9  1  0  0  0  0
M  END
>  <CHROM.1>
123.91853494,-66.76864541,-82.65789695,-72.17259494,-179.01876865,28.76156215
15.18897571,20.72682437,2.26133646,-0.22348869,-1.70113539

>  <Name>
ligand

>  <RI>
0

>  <Rbt.Current_Directory>
/home/itssahil/PROJECTS/Mol_Feturizer/New_Systems/rnas/3DIG

>  <Rbt.Executable>
rbdock ($Id: //depot/dev/client3/rdock/2013.1/src/exe/rbdock.cxx#4 $)

>  <Rbt.Library>
libRbt.so (2013.1, Build901 2013/11/27)

>  <Rbt.Parameter_File>
/export/apps/rDock/src/rDock_2013.1_src/data/scripts/dock_solv.prm

>  <Rbt.Receptor>
prm/blind_docking_60.prm

>  <SCORE>
-11.6006

>  <SCORE.INTER>
-11.2715

>  <SCORE.INTER.CONST>
1

>  <SCORE.INTER.POLAR>
0

>  <SCORE.INTER.ROT>
5

>  <SCORE.INTER.SOLV>
17.4208

>  <SCORE.INTER.VDW>
-20.2546

>  <SCORE.INTER.norm>
-1.12715

>  <SCORE.INTRA>
-0.32909

>  <SCORE.INTRA.DIHEDRAL>
0.0328732

>  <SCORE.INTRA.DIHEDRAL.0>
2.60093

>  <SCORE.INTRA.POLAR>
0

>  <SCORE.INTRA.POLAR.0>
0

>  <SCORE.INTRA.REPUL>
0

>  <SCORE.INTRA.REPUL.0>
0

>  <SCORE.INTRA.SOLV>
-0.307396

>  <SCORE.INTRA.SOLV.lig_0>
-33.7882

>  <SCORE.INTRA.VDW>
-0.191829

>  <SCORE.INTRA.VDW.0>
-0.593976

>  <SCORE.INTRA.norm>
-0.032909

>  <SCORE.RESTR>
0

>  <SCORE.RESTR.CAVITY>
0

>  <SCORE.RESTR.norm>
0

>  <SCORE.SYSTEM>
0

>  <SCORE.SYSTEM.CONST>
0

>  <SCORE.SYSTEM.DIHEDRAL>
0

>  <SCORE.SYSTEM.SOLV>
0

>  <SCORE.SYSTEM.norm>
0

>  <SCORE.heavy>
10

>  <SCORE.norm>
-1.16006

>  <RMSD>
5.592

$$$$
ligand
 OpenBabel11021811473D
libRbt.so/2013.1/901 2013/11/27
 10  9  0  0  0  0  0  0  0  0999 V2000
   28.3192   15.2887   19.4425 N   0  0  0  0  0  0  0  0  0  0  0  0
   28.3046   14.5273   20.7257 C   0  0  2  0  0  0  0  0  0  0  0  0
   27.0900   14.8442   21.5489 C   0  0  0  0  0  0  0  0  0  0  0  0
   27.1861   15.0901   22.7477 O   0  0  0  0  0  0  0  0  0  0  0  0
   29.5993   14.7777   21.4935 C   0  0  0  0  0  0  0  0  0  0  0  0
   29.7718   16.5205   21.7226 S   0  0  0  0  0  0  0  0  0  0  0  0
   31.4322   16.6161   22.3072 C   0  0  0  0  0  0  0  0  0  0  0  0
   31.7724   18.0769   22.5856 C   0  0  0  0  0  0  0  0  0  0  0  0
   33.1624   18.1913   22.9786 N   0  0  0  0  0  0  0  0  0  0  0  0
   25.9573   14.8967   21.0748 O   0  0  0  0  0  0  0  0  0  0  0  0
  2  1  1  6  0  0  0
  2  3  1  0  0  0  0
  2  5  1  0  0  0  0
  3  4  1  0  0  0  0
  3 10  1  0  0  0  0
  5  6  1  0  0  0  0
  6  7  1  0  0  0  0
  7  8  1  0  0  0  0
  8  9  1  0  0  0  0
M  END
>  <CHROM.1>
-133.26368979,56.09356800,-168.97338138,-179.30355816,-176.03322961,29.28409222
15.95464869,21.68313861,-2.74502606,0.40521393,1.22286297

>  <Name>
ligand

>  <RI>
0

>  <Rbt.Current_Directory>
/home/itssahil/PROJECTS/Mol_Feturizer/New_Systems/rnas/3DIG

>  <Rbt.Executable>
rbdock ($Id: //depot/dev/client3/rdock/2013.1/src/exe/rbdock.cxx#4 $)

>  <Rbt.Library>
libRbt.so (2013.1, Build901 2013/11/27)

>  <Rbt.Parameter_File>
/export/apps/rDock/src/rDock_2013.1_src/data/scripts/dock_solv.prm

>  <Rbt.Receptor>
prm/pocket_docking_5.prm

>  <SCORE>
-10.7709

>  <SCORE.INTER>
-10.5197

>  <SCORE.INTER.CONST>
1

>  <SCORE.INTER.POLAR>
0

>  <SCORE.INTER.ROT>
5

>  <SCORE.INTER.SOLV>
13.5216

>  <SCORE.INTER.VDW>
-18.4536

>  <SCORE.INTER.norm>
-1.05197

>  <SCORE.INTRA>
-0.251207

>  <SCORE.INTRA.DIHEDRAL>
-0.765314

>  <SCORE.INTRA.DIHEDRAL.0>
2.60093

>  <SCORE.INTRA.POLAR>
0

>  <SCORE.INTRA.POLAR.0>
0

>  <SCORE.INTRA.REPUL>
0

>  <SCORE.INTRA.REPUL.0>
0

>  <SCORE.INTRA.SOLV>
-0.510856

>  <SCORE.INTRA.SOLV.lig_0>
-33.7882

>  <SCORE.INTRA.VDW>
0.386878

>  <SCORE.INTRA.VDW.0>
-0.593976

>  <SCORE.INTRA.norm>
-0.0251207

>  <SCORE.RESTR>
0

>  <SCORE.RESTR.CAVITY>
0

>  <SCORE.RESTR.norm>
0

>  <SCORE.SYSTEM>
0

>  <SCORE.SYSTEM.CONST>
0

>  <SCORE.SYSTEM.DIHEDRAL>
0

>  <SCORE.SYSTEM.SOLV>
0

>  <SCORE.SYSTEM.norm>
0

>  <SCORE.heavy>
10

>  <SCORE.norm>
-1.07709

>  <RMSD>
5.592

$$$$
ligand
 OpenBabel11021811473D
libRbt.so/2013.1/901 2013/11/27
 10  9  0  0  0  0  0  0  0  0999 V2000
   28.9799   14.7263   19.6375 N   0  0  0  0  0  0  0  0  0  0  0  0
   28.4916   14.8157   21.0447 C   0  0  2  0  0  0  0  0  0  0  0  0
   26.9979   14.9503   21.1096 C   0  0  0  0  0  0  0  0  0  0  0  0
   26.3721   15.4882   20.2009 O   0  0  0  0  0  0  0  0  0  0  0  0
   29.2022   15.9547   21.7702 C   0  0  0  0  0  0  0  0  0  0  0  0
   30.9137   15.5383   21.8994 S   0  0  0  0  0  0  0  0  0  0  0  0
   31.5864   17.0679   22.4613 C   0  0  0  0  0  0  0  0  0  0  0  0
   33.1087   16.9739   22.4383 C   0  0  0  0  0  0  0  0  0  0  0  0
   33.5724   16.8438   21.0716 N   0  0  0  0  0  0  0  0  0  0  0  0
   26.3287   14.5186   22.0459 O   0  0  0  0  0  0  0  0  0  0  0  0
  2  1  1  6  0  0  0
  2  3  1  0  0  0  0
  2  5  1  0  0  0  0
  3  4  1  0  0  0  0
  3 10  1  0  0  0  0
  5  6  1  0  0  0  0
  6  7  1  0  0  0  0
  7  8  1  0  0  0  0
  8  9  1  0  0  0  0
M  END
>  <CHROM.1>
-28.96975854,-65.69504674,169.61773976,-171.64902865,65.74735300,29.66846228
15.66871006,21.42763426,-2.92424869,0.25530408,1.35255302

>  <Name>
ligand

>  <RI>
0

>  <Rbt.Current_Directory>
/home/itssahil/PROJECTS/Mol_Feturizer/New_Systems/rnas/3DIG

>  <Rbt.Executable>
rbdock ($Id: //depot/dev/client3/rdock/2013.1/src/exe/rbdock.cxx#4 $)

>  <Rbt.Library>
libRbt.so (2013.1, Build901 2013/11/27)

>  <Rbt.Parameter_File>
/export/apps/rDock/src/rDock_2013.1_src/data/scripts/dock_solv.prm

>  <Rbt.Receptor>
prm/pocket_docking_3.prm

>  <SCORE>
-11.5255

>  <SCORE.INTER>
-10.9588

>  <SCORE.INTER.CONST>
1

>  <SCORE.INTER.POLAR>
0

>  <SCORE.INTER.ROT>
5

>  <SCORE.INTER.SOLV>
13.2168

>  <SCORE.INTER.VDW>
-18.6448

>  <SCORE.INTER.norm>
-1.09588

>  <SCORE.INTRA>
-0.566723

>  <SCORE.INTRA.DIHEDRAL>
-0.538435

>  <SCORE.INTRA.DIHEDRAL.0>
2.60093

>  <SCORE.INTRA.POLAR>
0

>  <SCORE.INTRA.POLAR.0>
0

>  <SCORE.INTRA.REPUL>
0

>  <SCORE.INTRA.REPUL.0>
0

>  <SCORE.INTRA.SOLV>
0.193998

>  <SCORE.INTRA.SOLV.lig_0>
-33.7882

>  <SCORE.INTRA.VDW>
-0.394505

>  <SCORE.INTRA.VDW.0>
-0.593976

>  <SCORE.INTRA.norm>
-0.0566723

>  <SCORE.RESTR>
0

>  <SCORE.RESTR.CAVITY>
0

>  <SCORE.RESTR.norm>
0

>  <SCORE.SYSTEM>
0

>  <SCORE.SYSTEM.CONST>
0

>  <SCORE.SYSTEM.DIHEDRAL>
0

>  <SCORE.SYSTEM.SOLV>
0

>  <SCORE.SYSTEM.norm>
0

>  <SCORE.heavy>
10

>  <SCORE.norm>
-1.15255

>  <RMSD>
5.593

$$$$
ligand
 OpenBabel11021811473D
libRbt.so/2013.1/901 2013/11/27
 10  9  0  0  0  0  0  0  0  0999 V2000
   26.3293   15.2073   20.5165 N   0  0  0  0  0  0  0  0  0  0  0  0
   27.7389   15.2528   20.0292 C   0  0  2  0  0  0  0  0  0  0  0  0
   27.8555   14.7694   18.6127 C   0  0  0  0  0  0  0  0  0  0  0  0
   28.5332   15.3794   17.7910 O   0  0  0  0  0  0  0  0  0  0  0  0
   28.6426   14.4710   20.9782 C   0  0  0  0  0  0  0  0  0  0  0  0
   28.6122   15.2753   22.5503 S   0  0  0  0  0  0  0  0  0  0  0  0
   30.3312   15.5721   22.8050 C   0  0  0  0  0  0  0  0  0  0  0  0
   30.7379   16.8143   22.0185 C   0  0  0  0  0  0  0  0  0  0  0  0
   32.1405   17.1007   22.2432 N   0  0  0  0  0  0  0  0  0  0  0  0
   27.3091   13.7448   18.2099 O   0  0  0  0  0  0  0  0  0  0  0  0
  2  1  1  1  0  0  0
  2  3  1  0  0  0  0
  2  5  1  0  0  0  0
  3  4  1  0  0  0  0
  3 10  1  0  0  0  0
  5  6  1  0  0  0  0
  6  7  1  0  0  0  0
  7  8  1  0  0  0  0
  8  9  1  0  0  0  0
M  END
>  <CHROM.1>
135.12516255,-63.50876637,-124.03672219,80.49726129,178.37814972,28.79582121
15.33746573,20.76345217,2.30147079,-0.44604898,-1.61440147

>  <Name>
ligand

>  <RI>
0

>  <Rbt.Current_Directory>
/home/itssahil/PROJECTS/Mol_Feturizer/New_Systems/rnas/3DIG

>  <Rbt.Executable>
rbdock ($Id: //depot/dev/client3/rdock/2013.1/src/exe/rbdock.cxx#4 $)

>  <Rbt.Library>
libRbt.so (2013.1, Build901 2013/11/27)

>  <Rbt.Parameter_File>
/export/apps/rDock/src/rDock_2013.1_src/data/scripts/dock_solv.prm

>  <Rbt.Receptor>
prm/pocket_docking_7.prm

>  <SCORE>
-11.5446

>  <SCORE.INTER>
-11.7399

>  <SCORE.INTER.CONST>
1

>  <SCORE.INTER.POLAR>
0

>  <SCORE.INTER.ROT>
5

>  <SCORE.INTER.SOLV>
16.5352

>  <SCORE.INTER.VDW>
-20.2717

>  <SCORE.INTER.norm>
-1.17399

>  <SCORE.INTRA>
0.195343

>  <SCORE.INTRA.DIHEDRAL>
1.91805

>  <SCORE.INTRA.DIHEDRAL.0>
2.60093

>  <SCORE.INTRA.POLAR>
0

>  <SCORE.INTRA.POLAR.0>
0

>  <SCORE.INTRA.REPUL>
0

>  <SCORE.INTRA.REPUL.0>
0

>  <SCORE.INTRA.SOLV>
-0.663376

>  <SCORE.INTRA.SOLV.lig_0>
-33.7882

>  <SCORE.INTRA.VDW>
-0.431996

>  <SCORE.INTRA.VDW.0>
-0.593976

>  <SCORE.INTRA.norm>
0.0195343

>  <SCORE.RESTR>
0

>  <SCORE.RESTR.CAVITY>
0

>  <SCORE.RESTR.norm>
0

>  <SCORE.SYSTEM>
0

>  <SCORE.SYSTEM.CONST>
0

>  <SCORE.SYSTEM.DIHEDRAL>
0

>  <SCORE.SYSTEM.SOLV>
0

>  <SCORE.SYSTEM.norm>
0

>  <SCORE.heavy>
10

>  <SCORE.norm>
-1.15446

>  <RMSD>
5.594

$$$$
ligand
 OpenBabel11021811473D
libRbt.so/2013.1/901 2013/11/27
 10  9  0  0  0  0  0  0  0  0999 V2000
   25.9907   14.9199   21.0092 N   0  0  0  0  0  0  0  0  0  0  0  0
   27.2964   15.5478   20.6522 C   0  0  2  0  0  0  0  0  0  0  0  0
   27.7959   15.0765   19.3173 C   0  0  0  0  0  0  0  0  0  0  0  0
   28.5229   15.7862   18.6285 O   0  0  0  0  0  0  0  0  0  0  0  0
   28.3124   15.3025   21.7639 C   0  0  0  0  0  0  0  0  0  0  0  0
   29.7377   16.2909   21.4312 S   0  0  0  0  0  0  0  0  0  0  0  0
   30.8831   15.6249   22.5941 C   0  0  0  0  0  0  0  0  0  0  0  0
   32.2459   16.2719   22.3682 C   0  0  0  0  0  0  0  0  0  0  0  0
   32.1719   17.6888   22.6628 N   0  0  0  0  0  0  0  0  0  0  0  0
   27.5295   13.9679   18.8583 O   0  0  0  0  0  0  0  0  0  0  0  0
  2  1  1  1  0  0  0
  2  3  1  0  0  0  0
  2  5  1  0  0  0  0
  3  4  1  0  0  0  0
  3 10  1  0  0  0  0
  5  6  1  0  0  0  0
  6  7  1  0  0  0  0
  7  8  1  0  0  0  0
  8  9  1  0  0  0  0
M  END
>  <CHROM.1>
152.26223501,-170.32089009,-168.67232914,174.59930907,64.89368998,29.12830486
15.70917632,20.95326667,2.57104456,-0.32189128,-1.69737697

>  <Name>
ligand

>  <RI>
0

>  <Rbt.Current_Directory>
/home/itssahil/PROJECTS/Mol_Feturizer/New_Systems/rnas/3DIG

>  <Rbt.Executable>
rbdock ($Id: //depot/dev/client3/rdock/2013.1/src/exe/rbdock.cxx#4 $)

>  <Rbt.Library>
libRbt.so (2013.1, Build901 2013/11/27)

>  <Rbt.Parameter_File>
/export/apps/rDock/src/rDock_2013.1_src/data/scripts/dock_solv.prm

>  <Rbt.Receptor>
prm/pocket_docking_5.prm

>  <SCORE>
-10.6623

>  <SCORE.INTER>
-9.63461

>  <SCORE.INTER.CONST>
1

>  <SCORE.INTER.POLAR>
0

>  <SCORE.INTER.ROT>
5

>  <SCORE.INTER.SOLV>
18.0789

>  <SCORE.INTER.VDW>
-19.3827

>  <SCORE.INTER.norm>
-0.963461

>  <SCORE.INTRA>
-1.02767

>  <SCORE.INTRA.DIHEDRAL>
-0.463817

>  <SCORE.INTRA.DIHEDRAL.0>
2.60093

>  <SCORE.INTRA.POLAR>
0

>  <SCORE.INTRA.POLAR.0>
0

>  <SCORE.INTRA.REPUL>
0

>  <SCORE.INTRA.REPUL.0>
0

>  <SCORE.INTRA.SOLV>
-0.719107

>  <SCORE.INTRA.SOLV.lig_0>
-33.7882

>  <SCORE.INTRA.VDW>
-0.436212

>  <SCORE.INTRA.VDW.0>
-0.593976

>  <SCORE.INTRA.norm>
-0.102767

>  <SCORE.RESTR>
0

>  <SCORE.RESTR.CAVITY>
0

>  <SCORE.RESTR.norm>
0

>  <SCORE.SYSTEM>
0

>  <SCORE.SYSTEM.CONST>
0

>  <SCORE.SYSTEM.DIHEDRAL>
0

>  <SCORE.SYSTEM.SOLV>
0

>  <SCORE.SYSTEM.norm>
0

>  <SCORE.heavy>
10

>  <SCORE.norm>
-1.06623

>  <RMSD>
5.596

$$$$
ligand
 OpenBabel11021811473D
libRbt.so/2013.1/901 2013/11/27
 10  9  0  0  0  0  0  0  0  0999 V2000
   26.0090   14.8978   21.0819 N   0  0  0  0  0  0  0  0  0  0  0  0
   27.2959   15.5500   20.7012 C   0  0  2  0  0  0  0  0  0  0  0  0
   27.7678   15.1054   19.3473 C   0  0  0  0  0  0  0  0  0  0  0  0
   28.5102   15.8133   18.6733 O   0  0  0  0  0  0  0  0  0  0  0  0
   28.3435   15.3038   21.7831 C   0  0  0  0  0  0  0  0  0  0  0  0
   29.7601   16.2896   21.4082 S   0  0  0  0  0  0  0  0  0  0  0  0
   30.9467   15.6010   22.5153 C   0  0  0  0  0  0  0  0  0  0  0  0
   32.2973   16.2640   22.2636 C   0  0  0  0  0  0  0  0  0  0  0  0
   32.2326   17.6648   22.6291 N   0  0  0  0  0  0  0  0  0  0  0  0
   27.4625   14.0205   18.8569 O   0  0  0  0  0  0  0  0  0  0  0  0
  2  1  1  1  0  0  0
  2  3  1  0  0  0  0
  2  5  1  0  0  0  0
  3  4  1  0  0  0  0
  3 10  1  0  0  0  0
  5  6  1  0  0  0  0
  6  7  1  0  0  0  0
  7  8  1  0  0  0  0
  8  9  1  0  0  0  0
M  END
>  <CHROM.1>
155.19277256,-171.61939809,-167.60400475,175.70971021,66.25640285,29.14245712
15.71253938,20.94823928,2.60072382,-0.32325327,-1.68017861

>  <Name>
ligand

>  <RI>
0

>  <Rbt.Current_Directory>
/home/itssahil/PROJECTS/Mol_Feturizer/New_Systems/rnas/3DIG

>  <Rbt.Executable>
rbdock ($Id: //depot/dev/client3/rdock/2013.1/src/exe/rbdock.cxx#4 $)

>  <Rbt.Library>
libRbt.so (2013.1, Build901 2013/11/27)

>  <Rbt.Parameter_File>
/export/apps/rDock/src/rDock_2013.1_src/data/scripts/dock_solv.prm

>  <Rbt.Receptor>
prm/pocket_docking_8.prm

>  <SCORE>
-10.4753

>  <SCORE.INTER>
-9.49859

>  <SCORE.INTER.CONST>
1

>  <SCORE.INTER.POLAR>
0

>  <SCORE.INTER.ROT>
5

>  <SCORE.INTER.SOLV>
18.0238

>  <SCORE.INTER.VDW>
-19.2737

>  <SCORE.INTER.norm>
-0.949859

>  <SCORE.INTRA>
-0.976728

>  <SCORE.INTRA.DIHEDRAL>
-0.466403

>  <SCORE.INTRA.DIHEDRAL.0>
2.60093

>  <SCORE.INTRA.POLAR>
0

>  <SCORE.INTRA.POLAR.0>
0

>  <SCORE.INTRA.REPUL>
0

>  <SCORE.INTRA.REPUL.0>
0

>  <SCORE.INTRA.SOLV>
-0.732279

>  <SCORE.INTRA.SOLV.lig_0>
-33.7882

>  <SCORE.INTRA.VDW>
-0.377387

>  <SCORE.INTRA.VDW.0>
-0.593976

>  <SCORE.INTRA.norm>
-0.0976728

>  <SCORE.RESTR>
0

>  <SCORE.RESTR.CAVITY>
0

>  <SCORE.RESTR.norm>
0

>  <SCORE.SYSTEM>
0

>  <SCORE.SYSTEM.CONST>
0

>  <SCORE.SYSTEM.DIHEDRAL>
0

>  <SCORE.SYSTEM.SOLV>
0

>  <SCORE.SYSTEM.norm>
0

>  <SCORE.heavy>
10

>  <SCORE.norm>
-1.04753

>  <RMSD>
5.599

$$$$
ligand
 OpenBabel11021811473D
libRbt.so/2013.1/901 2013/11/27
 10  9  0  0  0  0  0  0  0  0999 V2000
   29.0057   14.8337   19.7340 N   0  0  0  0  0  0  0  0  0  0  0  0
   28.4319   14.7601   21.1095 C   0  0  2  0  0  0  0  0  0  0  0  0
   26.9389   14.9164   21.1004 C   0  0  0  0  0  0  0  0  0  0  0  0
   26.2553   14.5067   22.0339 O   0  0  0  0  0  0  0  0  0  0  0  0
   29.1106   15.7868   22.0115 C   0  0  0  0  0  0  0  0  0  0  0  0
   30.8382   15.4222   22.0531 S   0  0  0  0  0  0  0  0  0  0  0  0
   31.4912   16.9679   22.5937 C   0  0  0  0  0  0  0  0  0  0  0  0
   33.0146   16.9000   22.5519 C   0  0  0  0  0  0  0  0  0  0  0  0
   33.4642   16.7976   21.1781 N   0  0  0  0  0  0  0  0  0  0  0  0
   26.3314   15.4720   20.1878 O   0  0  0  0  0  0  0  0  0  0  0  0
  2  1  1  6  0  0  0
  2  3  1  0  0  0  0
  2  5  1  0  0  0  0
  3  4  1  0  0  0  0
  3 10  1  0  0  0  0
  5  6  1  0  0  0  0
  6  7  1  0  0  0  0
  7  8  1  0  0  0  0
  8  9  1  0  0  0  0
M  END
>  <CHROM.1>
158.45604873,-59.77714242,160.02628407,-174.04017632,67.06086130,29.60046745
15.61064271,21.52150938,-2.93163692,0.26187962,1.44695020

>  <Name>
ligand

>  <RI>
0

>  <Rbt.Current_Directory>
/home/itssahil/PROJECTS/Mol_Feturizer/New_Systems/rnas/3DIG

>  <Rbt.Executable>
rbdock ($Id: //depot/dev/client3/rdock/2013.1/src/exe/rbdock.cxx#4 $)

>  <Rbt.Library>
libRbt.so (2013.1, Build901 2013/11/27)

>  <Rbt.Parameter_File>
/export/apps/rDock/src/rDock_2013.1_src/data/scripts/dock_solv.prm

>  <Rbt.Receptor>
prm/pocket_docking_7.prm

>  <SCORE>
-11.5793

>  <SCORE.INTER>
-11.257

>  <SCORE.INTER.CONST>
1

>  <SCORE.INTER.POLAR>
0

>  <SCORE.INTER.ROT>
5

>  <SCORE.INTER.SOLV>
12.7389

>  <SCORE.INTER.VDW>
-18.6843

>  <SCORE.INTER.norm>
-1.1257

>  <SCORE.INTRA>
-0.322333

>  <SCORE.INTRA.DIHEDRAL>
-0.299029

>  <SCORE.INTRA.DIHEDRAL.0>
2.60093

>  <SCORE.INTRA.POLAR>
0

>  <SCORE.INTRA.POLAR.0>
0

>  <SCORE.INTRA.REPUL>
0

>  <SCORE.INTRA.REPUL.0>
0

>  <SCORE.INTRA.SOLV>
0.311488

>  <SCORE.INTRA.SOLV.lig_0>
-33.7882

>  <SCORE.INTRA.VDW>
-0.328562

>  <SCORE.INTRA.VDW.0>
-0.593976

>  <SCORE.INTRA.norm>
-0.0322333

>  <SCORE.RESTR>
0

>  <SCORE.RESTR.CAVITY>
0

>  <SCORE.RESTR.norm>
0

>  <SCORE.SYSTEM>
0

>  <SCORE.SYSTEM.CONST>
0

>  <SCORE.SYSTEM.DIHEDRAL>
0

>  <SCORE.SYSTEM.SOLV>
0

>  <SCORE.SYSTEM.norm>
0

>  <SCORE.heavy>
10

>  <SCORE.norm>
-1.15793

>  <RMSD>
5.600

$$$$
ligand
 OpenBabel11021811473D
libRbt.so/2013.1/901 2013/11/27
 10  9  0  0  0  0  0  0  0  0999 V2000
   26.6429   14.9120   20.6094 N   0  0  0  0  0  0  0  0  0  0  0  0
   27.8770   15.3109   19.8716 C   0  0  2  0  0  0  0  0  0  0  0  0
   27.8925   14.7647   18.4735 C   0  0  0  0  0  0  0  0  0  0  0  0
   27.3278   13.7094   18.2014 O   0  0  0  0  0  0  0  0  0  0  0  0
   29.1133   14.8952   20.6636 C   0  0  0  0  0  0  0  0  0  0  0  0
   29.1050   15.7761   22.1943 S   0  0  0  0  0  0  0  0  0  0  0  0
   30.6707   15.3081   22.8557 C   0  0  0  0  0  0  0  0  0  0  0  0
   31.7669   16.0491   22.0964 C   0  0  0  0  0  0  0  0  0  0  0  0
   31.6704   17.4711   22.3579 N   0  0  0  0  0  0  0  0  0  0  0  0
   28.4406   15.3423   17.5371 O   0  0  0  0  0  0  0  0  0  0  0  0
  2  1  1  1  0  0  0
  2  3  1  0  0  0  0
  2  5  1  0  0  0  0
  3  4  1  0  0  0  0
  3 10  1  0  0  0  0
  5  6  1  0  0  0  0
  6  7  1  0  0  0  0
  7  8  1  0  0  0  0
  8  9  1  0  0  0  0
M  END
>  <CHROM.1>
-29.60353613,-63.07698265,-173.76287399,74.18743092,66.06481001,29.05002876
15.38872793,20.64386005,2.29534183,-0.39223095,-1.64441859

>  <Name>
ligand

>  <RI>
0

>  <Rbt.Current_Directory>
/home/itssahil/PROJECTS/Mol_Feturizer/New_Systems/rnas/3DIG

>  <Rbt.Executable>
rbdock ($Id: //depot/dev/client3/rdock/2013.1/src/exe/rbdock.cxx#4 $)

>  <Rbt.Library>
libRbt.so (2013.1, Build901 2013/11/27)

>  <Rbt.Parameter_File>
/export/apps/rDock/src/rDock_2013.1_src/data/scripts/dock_solv.prm

>  <Rbt.Receptor>
prm/blind_docking_100.prm

>  <SCORE>
-10.3616

>  <SCORE.INTER>
-10.206

>  <SCORE.INTER.CONST>
1

>  <SCORE.INTER.POLAR>
0

>  <SCORE.INTER.ROT>
5

>  <SCORE.INTER.SOLV>
15.8901

>  <SCORE.INTER.VDW>
-19.0341

>  <SCORE.INTER.norm>
-1.0206

>  <SCORE.INTRA>
-0.155514

>  <SCORE.INTRA.DIHEDRAL>
-0.507081

>  <SCORE.INTRA.DIHEDRAL.0>
2.60093

>  <SCORE.INTRA.POLAR>
0

>  <SCORE.INTRA.POLAR.0>
0

>  <SCORE.INTRA.REPUL>
0

>  <SCORE.INTRA.REPUL.0>
0

>  <SCORE.INTRA.SOLV>
0.524431

>  <SCORE.INTRA.SOLV.lig_0>
-33.7882

>  <SCORE.INTRA.VDW>
-0.164189

>  <SCORE.INTRA.VDW.0>
-0.593976

>  <SCORE.INTRA.norm>
-0.0155514

>  <SCORE.RESTR>
0

>  <SCORE.RESTR.CAVITY>
0

>  <SCORE.RESTR.norm>
0

>  <SCORE.SYSTEM>
0

>  <SCORE.SYSTEM.CONST>
0

>  <SCORE.SYSTEM.DIHEDRAL>
0

>  <SCORE.SYSTEM.SOLV>
0

>  <SCORE.SYSTEM.norm>
0

>  <SCORE.heavy>
10

>  <SCORE.norm>
-1.03616

>  <RMSD>
5.601

$$$$
ligand
 OpenBabel11021811473D
libRbt.so/2013.1/901 2013/11/27
 10  9  0  0  0  0  0  0  0  0999 V2000
   26.4524   14.8285   20.7370 N   0  0  0  0  0  0  0  0  0  0  0  0
   27.7785   15.1676   20.1429 C   0  0  2  0  0  0  0  0  0  0  0  0
   27.8702   14.7458   18.7052 C   0  0  0  0  0  0  0  0  0  0  0  0
   28.5247   15.3971   17.8964 O   0  0  0  0  0  0  0  0  0  0  0  0
   28.8965   14.5663   20.9895 C   0  0  0  0  0  0  0  0  0  0  0  0
   28.8289   15.3063   22.5917 S   0  0  0  0  0  0  0  0  0  0  0  0
   30.5331   15.6660   22.8640 C   0  0  0  0  0  0  0  0  0  0  0  0
   30.9022   16.9216   22.0803 C   0  0  0  0  0  0  0  0  0  0  0  0
   32.2827   17.2759   22.3421 N   0  0  0  0  0  0  0  0  0  0  0  0
   27.3254   13.7334   18.2704 O   0  0  0  0  0  0  0  0  0  0  0  0
  2  1  1  1  0  0  0
  2  3  1  0  0  0  0
  2  5  1  0  0  0  0
  3  4  1  0  0  0  0
  3 10  1  0  0  0  0
  5  6  1  0  0  0  0
  6  7  1  0  0  0  0
  7  8  1  0  0  0  0
  8  9  1  0  0  0  0
M  END
>  <CHROM.1>
146.73153456,-63.01047269,-134.56169240,78.12671476,177.14037437,28.92257814
15.34378279,20.84450835,2.35879933,-0.50028091,-1.58478990

>  <Name>
ligand

>  <RI>
0

>  <Rbt.Current_Directory>
/home/itssahil/PROJECTS/Mol_Feturizer/New_Systems/rnas/3DIG

>  <Rbt.Executable>
rbdock ($Id: //depot/dev/client3/rdock/2013.1/src/exe/rbdock.cxx#4 $)

>  <Rbt.Library>
libRbt.so (2013.1, Build901 2013/11/27)

>  <Rbt.Parameter_File>
/export/apps/rDock/src/rDock_2013.1_src/data/scripts/dock_solv.prm

>  <Rbt.Receptor>
prm/pocket_docking_3.prm

>  <SCORE>
-11.4676

>  <SCORE.INTER>
-11.5199

>  <SCORE.INTER.CONST>
1

>  <SCORE.INTER.POLAR>
0

>  <SCORE.INTER.ROT>
5

>  <SCORE.INTER.SOLV>
16.4913

>  <SCORE.INTER.VDW>
-20.1104

>  <SCORE.INTER.norm>
-1.15199

>  <SCORE.INTRA>
0.0523328

>  <SCORE.INTRA.DIHEDRAL>
1.48236

>  <SCORE.INTRA.DIHEDRAL.0>
2.60093

>  <SCORE.INTRA.POLAR>
0

>  <SCORE.INTRA.POLAR.0>
0

>  <SCORE.INTRA.REPUL>
0

>  <SCORE.INTRA.REPUL.0>
0

>  <SCORE.INTRA.SOLV>
-0.688498

>  <SCORE.INTRA.SOLV.lig_0>
-33.7882

>  <SCORE.INTRA.VDW>
-0.3446

>  <SCORE.INTRA.VDW.0>
-0.593976

>  <SCORE.INTRA.norm>
0.00523328

>  <SCORE.RESTR>
0

>  <SCORE.RESTR.CAVITY>
0

>  <SCORE.RESTR.norm>
0

>  <SCORE.SYSTEM>
0

>  <SCORE.SYSTEM.CONST>
0

>  <SCORE.SYSTEM.DIHEDRAL>
0

>  <SCORE.SYSTEM.SOLV>
0

>  <SCORE.SYSTEM.norm>
0

>  <SCORE.heavy>
10

>  <SCORE.norm>
-1.14676

>  <RMSD>
5.601

$$$$
ligand
 OpenBabel11021811473D
libRbt.so/2013.1/901 2013/11/27
 10  9  0  0  0  0  0  0  0  0999 V2000
   28.9736   14.8609   19.7969 N   0  0  0  0  0  0  0  0  0  0  0  0
   28.3555   14.7141   21.1470 C   0  0  2  0  0  0  0  0  0  0  0  0
   26.8654   14.8905   21.1009 C   0  0  0  0  0  0  0  0  0  0  0  0
   26.3255   15.4576   20.1557 O   0  0  0  0  0  0  0  0  0  0  0  0
   29.0168   15.6769   22.1290 C   0  0  0  0  0  0  0  0  0  0  0  0
   30.7429   15.3065   22.1807 S   0  0  0  0  0  0  0  0  0  0  0  0
   31.4087   16.8833   22.6032 C   0  0  0  0  0  0  0  0  0  0  0  0
   32.9283   16.8239   22.4830 C   0  0  0  0  0  0  0  0  0  0  0  0
   33.3048   16.6497   21.0946 N   0  0  0  0  0  0  0  0  0  0  0  0
   26.1155   14.4659   21.9773 O   0  0  0  0  0  0  0  0  0  0  0  0
  2  1  1  6  0  0  0
  2  3  1  0  0  0  0
  2  5  1  0  0  0  0
  3  4  1  0  0  0  0
  3 10  1  0  0  0  0
  5  6  1  0  0  0  0
  6  7  1  0  0  0  0
  7  8  1  0  0  0  0
  8  9  1  0  0  0  0
M  END
>  <CHROM.1>
-19.27723547,-58.77823089,151.91772964,-171.17512165,66.97072536,29.51485555
15.54165268,21.54470837,-2.95490137,0.26573262,1.52877512

>  <Name>
ligand

>  <RI>
0

>  <Rbt.Current_Directory>
/home/itssahil/PROJECTS/Mol_Feturizer/New_Systems/rnas/3DIG

>  <Rbt.Executable>
rbdock ($Id: //depot/dev/client3/rdock/2013.1/src/exe/rbdock.cxx#4 $)

>  <Rbt.Library>
libRbt.so (2013.1, Build901 2013/11/27)

>  <Rbt.Parameter_File>
/export/apps/rDock/src/rDock_2013.1_src/data/scripts/dock_solv.prm

>  <Rbt.Receptor>
prm/pocket_docking_8.prm

>  <SCORE>
-11.5627

>  <SCORE.INTER>
-11.6414

>  <SCORE.INTER.CONST>
1

>  <SCORE.INTER.POLAR>
0

>  <SCORE.INTER.ROT>
5

>  <SCORE.INTER.SOLV>
12.7234

>  <SCORE.INTER.VDW>
-18.9354

>  <SCORE.INTER.norm>
-1.16414

>  <SCORE.INTRA>
0.0786559

>  <SCORE.INTRA.DIHEDRAL>
0.33607

>  <SCORE.INTRA.DIHEDRAL.0>
2.60093

>  <SCORE.INTRA.POLAR>
0

>  <SCORE.INTRA.POLAR.0>
0

>  <SCORE.INTRA.REPUL>
0

>  <SCORE.INTRA.REPUL.0>
0

>  <SCORE.INTRA.SOLV>
0.44775

>  <SCORE.INTRA.SOLV.lig_0>
-33.7882

>  <SCORE.INTRA.VDW>
-0.313254

>  <SCORE.INTRA.VDW.0>
-0.593976

>  <SCORE.INTRA.norm>
0.00786559

>  <SCORE.RESTR>
0

>  <SCORE.RESTR.CAVITY>
0

>  <SCORE.RESTR.norm>
0

>  <SCORE.SYSTEM>
0

>  <SCORE.SYSTEM.CONST>
0

>  <SCORE.SYSTEM.DIHEDRAL>
0

>  <SCORE.SYSTEM.SOLV>
0

>  <SCORE.SYSTEM.norm>
0

>  <SCORE.heavy>
10

>  <SCORE.norm>
-1.15627

>  <RMSD>
5.601

$$$$
ligand
 OpenBabel11021811473D
libRbt.so/2013.1/901 2013/11/27
 10  9  0  0  0  0  0  0  0  0999 V2000
   28.9752   14.8024   19.6647 N   0  0  0  0  0  0  0  0  0  0  0  0
   28.4617   14.7974   21.0656 C   0  0  2  0  0  0  0  0  0  0  0  0
   26.9671   14.9294   21.1127 C   0  0  0  0  0  0  0  0  0  0  0  0
   26.3508   15.4610   20.1939 O   0  0  0  0  0  0  0  0  0  0  0  0
   29.1593   15.8840   21.8788 C   0  0  0  0  0  0  0  0  0  0  0  0
   30.8836   15.5059   21.9327 S   0  0  0  0  0  0  0  0  0  0  0  0
   31.5382   17.0249   22.5426 C   0  0  0  0  0  0  0  0  0  0  0  0
   33.0610   16.9352   22.5538 C   0  0  0  0  0  0  0  0  0  0  0  0
   33.5567   16.8262   21.1965 N   0  0  0  0  0  0  0  0  0  0  0  0
   26.2881   14.5014   22.0435 O   0  0  0  0  0  0  0  0  0  0  0  0
  2  1  1  6  0  0  0
  2  3  1  0  0  0  0
  2  5  1  0  0  0  0
  3  4  1  0  0  0  0
  3 10  1  0  0  0  0
  5  6  1  0  0  0  0
  6  7  1  0  0  0  0
  7  8  1  0  0  0  0
  8  9  1  0  0  0  0
M  END
>  <CHROM.1>
-24.77865421,-62.52970873,166.85562305,-175.42009940,65.36576471,29.63740468
15.64636466,21.47566287,-2.91838575,0.25581322,1.38375536

>  <Name>
ligand

>  <RI>
0

>  <Rbt.Current_Directory>
/home/itssahil/PROJECTS/Mol_Feturizer/New_Systems/rnas/3DIG

>  <Rbt.Executable>
rbdock ($Id: //depot/dev/client3/rdock/2013.1/src/exe/rbdock.cxx#4 $)

>  <Rbt.Library>
libRbt.so (2013.1, Build901 2013/11/27)

>  <Rbt.Parameter_File>
/export/apps/rDock/src/rDock_2013.1_src/data/scripts/dock_solv.prm

>  <Rbt.Receptor>
prm/pocket_docking_5.prm

>  <SCORE>
-11.5782

>  <SCORE.INTER>
-11.0489

>  <SCORE.INTER.CONST>
1

>  <SCORE.INTER.POLAR>
0

>  <SCORE.INTER.ROT>
5

>  <SCORE.INTER.SOLV>
12.8861

>  <SCORE.INTER.VDW>
-18.5946

>  <SCORE.INTER.norm>
-1.10489

>  <SCORE.INTRA>
-0.529333

>  <SCORE.INTRA.DIHEDRAL>
-0.61979

>  <SCORE.INTRA.DIHEDRAL.0>
2.60093

>  <SCORE.INTRA.POLAR>
0

>  <SCORE.INTRA.POLAR.0>
0

>  <SCORE.INTRA.REPUL>
0

>  <SCORE.INTRA.REPUL.0>
0

>  <SCORE.INTRA.SOLV>
0.242879

>  <SCORE.INTRA.SOLV.lig_0>
-33.7882

>  <SCORE.INTRA.VDW>
-0.340877

>  <SCORE.INTRA.VDW.0>
-0.593976

>  <SCORE.INTRA.norm>
-0.0529333

>  <SCORE.RESTR>
0

>  <SCORE.RESTR.CAVITY>
0

>  <SCORE.RESTR.norm>
0

>  <SCORE.SYSTEM>
0

>  <SCORE.SYSTEM.CONST>
0

>  <SCORE.SYSTEM.DIHEDRAL>
0

>  <SCORE.SYSTEM.SOLV>
0

>  <SCORE.SYSTEM.norm>
0

>  <SCORE.heavy>
10

>  <SCORE.norm>
-1.15782

>  <RMSD>
5.606

$$$$
ligand
 OpenBabel11021811473D
libRbt.so/2013.1/901 2013/11/27
 10  9  0  0  0  0  0  0  0  0999 V2000
   25.9802   14.8862   21.0118 N   0  0  0  0  0  0  0  0  0  0  0  0
   27.2854   15.5118   20.6492 C   0  0  2  0  0  0  0  0  0  0  0  0
   27.7752   15.0445   19.3094 C   0  0  0  0  0  0  0  0  0  0  0  0
   28.4838   15.7626   18.6102 O   0  0  0  0  0  0  0  0  0  0  0  0
   28.3077   15.2592   21.7536 C   0  0  0  0  0  0  0  0  0  0  0  0
   29.7208   16.2691   21.4334 S   0  0  0  0  0  0  0  0  0  0  0  0
   30.8768   15.5973   22.5824 C   0  0  0  0  0  0  0  0  0  0  0  0
   32.2337   16.2569   22.3577 C   0  0  0  0  0  0  0  0  0  0  0  0
   32.1553   17.6662   22.6860 N   0  0  0  0  0  0  0  0  0  0  0  0
   27.5189   13.9312   18.8560 O   0  0  0  0  0  0  0  0  0  0  0  0
  2  1  1  1  0  0  0
  2  3  1  0  0  0  0
  2  5  1  0  0  0  0
  3  4  1  0  0  0  0
  3 10  1  0  0  0  0
  5  6  1  0  0  0  0
  6  7  1  0  0  0  0
  7  8  1  0  0  0  0
  8  9  1  0  0  0  0
M  END
>  <CHROM.1>
151.17676309,-169.20811118,-168.71825577,174.23824414,65.60287876,29.11301110
15.68086203,20.95022359,2.56953694,-0.32522677,-1.69537579

>  <Name>
ligand

>  <RI>
0

>  <Rbt.Current_Directory>
/home/itssahil/PROJECTS/Mol_Feturizer/New_Systems/rnas/3DIG

>  <Rbt.Executable>
rbdock ($Id: //depot/dev/client3/rdock/2013.1/src/exe/rbdock.cxx#4 $)

>  <Rbt.Library>
libRbt.so (2013.1, Build901 2013/11/27)

>  <Rbt.Parameter_File>
/export/apps/rDock/src/rDock_2013.1_src/data/scripts/dock_solv.prm

>  <Rbt.Receptor>
prm/blind_docking_60.prm

>  <SCORE>
-10.6686

>  <SCORE.INTER>
-9.64799

>  <SCORE.INTER.CONST>
1

>  <SCORE.INTER.POLAR>
0

>  <SCORE.INTER.ROT>
5

>  <SCORE.INTER.SOLV>
18.0848

>  <SCORE.INTER.VDW>
-19.3936

>  <SCORE.INTER.norm>
-0.964799

>  <SCORE.INTRA>
-1.02065

>  <SCORE.INTRA.DIHEDRAL>
-0.352879

>  <SCORE.INTRA.DIHEDRAL.0>
2.60093

>  <SCORE.INTRA.POLAR>
0

>  <SCORE.INTRA.POLAR.0>
0

>  <SCORE.INTRA.REPUL>
0

>  <SCORE.INTRA.REPUL.0>
0

>  <SCORE.INTRA.SOLV>
-0.732888

>  <SCORE.INTRA.SOLV.lig_0>
-33.7882

>  <SCORE.INTRA.VDW>
-0.477768

>  <SCORE.INTRA.VDW.0>
-0.593976

>  <SCORE.INTRA.norm>
-0.102065

>  <SCORE.RESTR>
0

>  <SCORE.RESTR.CAVITY>
0

>  <SCORE.RESTR.norm>
0

>  <SCORE.SYSTEM>
0

>  <SCORE.SYSTEM.CONST>
0

>  <SCORE.SYSTEM.DIHEDRAL>
0

>  <SCORE.SYSTEM.SOLV>
0

>  <SCORE.SYSTEM.norm>
0

>  <SCORE.heavy>
10

>  <SCORE.norm>
-1.06686

>  <RMSD>
5.609

$$$$
ligand
 OpenBabel11021811473D
libRbt.so/2013.1/901 2013/11/27
 10  9  0  0  0  0  0  0  0  0999 V2000
   26.4498   14.7623   20.7242 N   0  0  0  0  0  0  0  0  0  0  0  0
   27.7657   15.1392   20.1303 C   0  0  2  0  0  0  0  0  0  0  0  0
   27.8814   14.6935   18.7015 C   0  0  0  0  0  0  0  0  0  0  0  0
   27.3536   13.6531   18.3197 O   0  0  0  0  0  0  0  0  0  0  0  0
   28.9005   14.5962   20.9941 C   0  0  0  0  0  0  0  0  0  0  0  0
   28.7841   15.3489   22.5876 S   0  0  0  0  0  0  0  0  0  0  0  0
   30.4777   15.7232   22.9028 C   0  0  0  0  0  0  0  0  0  0  0  0
   30.8784   16.9334   22.0650 C   0  0  0  0  0  0  0  0  0  0  0  0
   32.2604   17.2790   22.3305 N   0  0  0  0  0  0  0  0  0  0  0  0
   28.4791   15.3427   17.8460 O   0  0  0  0  0  0  0  0  0  0  0  0
  2  1  1  1  0  0  0
  2  3  1  0  0  0  0
  2  5  1  0  0  0  0
  3  4  1  0  0  0  0
  3 10  1  0  0  0  0
  5  6  1  0  0  0  0
  6  7  1  0  0  0  0
  7  8  1  0  0  0  0
  8  9  1  0  0  0  0
M  END
>  <CHROM.1>
-33.88778726,-62.32144403,-136.89069391,75.31820562,178.71798589,28.90278494
15.33572000,20.84256287,2.34645212,-0.50350076,-1.60815796

>  <Name>
ligand

>  <RI>
0

>  <Rbt.Current_Directory>
/home/itssahil/PROJECTS/Mol_Feturizer/New_Systems/rnas/3DIG

>  <Rbt.Executable>
rbdock ($Id: //depot/dev/client3/rdock/2013.1/src/exe/rbdock.cxx#4 $)

>  <Rbt.Library>
libRbt.so (2013.1, Build901 2013/11/27)

>  <Rbt.Parameter_File>
/export/apps/rDock/src/rDock_2013.1_src/data/scripts/dock_solv.prm

>  <Rbt.Receptor>
prm/blind_docking_60.prm

>  <SCORE>
-11.4177

>  <SCORE.INTER>
-11.4835

>  <SCORE.INTER.CONST>
1

>  <SCORE.INTER.POLAR>
0

>  <SCORE.INTER.ROT>
5

>  <SCORE.INTER.SOLV>
16.473

>  <SCORE.INTER.VDW>
-20.08

>  <SCORE.INTER.norm>
-1.14835

>  <SCORE.INTRA>
0.0657743

>  <SCORE.INTRA.DIHEDRAL>
1.29301

>  <SCORE.INTRA.DIHEDRAL.0>
2.60093

>  <SCORE.INTRA.POLAR>
0

>  <SCORE.INTRA.POLAR.0>
0

>  <SCORE.INTRA.REPUL>
0

>  <SCORE.INTRA.REPUL.0>
0

>  <SCORE.INTRA.SOLV>
-0.634943

>  <SCORE.INTRA.SOLV.lig_0>
-33.7882

>  <SCORE.INTRA.VDW>
-0.26326

>  <SCORE.INTRA.VDW.0>
-0.593976

>  <SCORE.INTRA.norm>
0.00657743

>  <SCORE.RESTR>
0

>  <SCORE.RESTR.CAVITY>
0

>  <SCORE.RESTR.norm>
0

>  <SCORE.SYSTEM>
0

>  <SCORE.SYSTEM.CONST>
0

>  <SCORE.SYSTEM.DIHEDRAL>
0

>  <SCORE.SYSTEM.SOLV>
0

>  <SCORE.SYSTEM.norm>
0

>  <SCORE.heavy>
10

>  <SCORE.norm>
-1.14177

>  <RMSD>
5.609

$$$$
ligand
 OpenBabel11021811473D
libRbt.so/2013.1/901 2013/11/27
 10  9  0  0  0  0  0  0  0  0999 V2000
   25.9994   14.9214   21.0121 N   0  0  0  0  0  0  0  0  0  0  0  0
   27.3165   15.5106   20.6320 C   0  0  2  0  0  0  0  0  0  0  0  0
   27.7902   15.0059   19.3000 C   0  0  0  0  0  0  0  0  0  0  0  0
   28.5035   15.6980   18.5797 O   0  0  0  0  0  0  0  0  0  0  0  0
   28.3376   15.2574   21.7374 C   0  0  0  0  0  0  0  0  0  0  0  0
   29.7830   16.2057   21.3754 S   0  0  0  0  0  0  0  0  0  0  0  0
   30.9040   15.5765   22.5817 C   0  0  0  0  0  0  0  0  0  0  0  0
   32.2565   16.2582   22.3995 C   0  0  0  0  0  0  0  0  0  0  0  0
   32.1376   17.6720   22.6942 N   0  0  0  0  0  0  0  0  0  0  0  0
   27.5152   13.8863   18.8740 O   0  0  0  0  0  0  0  0  0  0  0  0
  2  1  1  1  0  0  0
  2  3  1  0  0  0  0
  2  5  1  0  0  0  0
  3  4  1  0  0  0  0
  3 10  1  0  0  0  0
  5  6  1  0  0  0  0
  6  7  1  0  0  0  0
  7  8  1  0  0  0  0
  8  9  1  0  0  0  0
M  END
>  <CHROM.1>
150.64899585,-170.26356055,-170.91198093,178.27081522,65.40958490,29.13798537
15.65580107,20.93810065,2.56117181,-0.31629603,-1.71091331

>  <Name>
ligand

>  <RI>
0

>  <Rbt.Current_Directory>
/home/itssahil/PROJECTS/Mol_Feturizer/New_Systems/rnas/3DIG

>  <Rbt.Executable>
rbdock ($Id: //depot/dev/client3/rdock/2013.1/src/exe/rbdock.cxx#4 $)

>  <Rbt.Library>
libRbt.so (2013.1, Build901 2013/11/27)

>  <Rbt.Parameter_File>
/export/apps/rDock/src/rDock_2013.1_src/data/scripts/dock_solv.prm

>  <Rbt.Receptor>
prm/pocket_docking_3.prm

>  <SCORE>
-10.5904

>  <SCORE.INTER>
-9.50088

>  <SCORE.INTER.CONST>
1

>  <SCORE.INTER.POLAR>
0

>  <SCORE.INTER.ROT>
5

>  <SCORE.INTER.SOLV>
18.0164

>  <SCORE.INTER.VDW>
-19.2727

>  <SCORE.INTER.norm>
-0.950088

>  <SCORE.INTRA>
-1.08957

>  <SCORE.INTRA.DIHEDRAL>
-0.554522

>  <SCORE.INTRA.DIHEDRAL.0>
2.60093

>  <SCORE.INTRA.POLAR>
0

>  <SCORE.INTRA.POLAR.0>
0

>  <SCORE.INTRA.REPUL>
0

>  <SCORE.INTRA.REPUL.0>
0

>  <SCORE.INTRA.SOLV>
-0.708355

>  <SCORE.INTRA.SOLV.lig_0>
-33.7882

>  <SCORE.INTRA.VDW>
-0.458127

>  <SCORE.INTRA.VDW.0>
-0.593976

>  <SCORE.INTRA.norm>
-0.108957

>  <SCORE.RESTR>
0

>  <SCORE.RESTR.CAVITY>
0

>  <SCORE.RESTR.norm>
0

>  <SCORE.SYSTEM>
0

>  <SCORE.SYSTEM.CONST>
0

>  <SCORE.SYSTEM.DIHEDRAL>
0

>  <SCORE.SYSTEM.SOLV>
0

>  <SCORE.SYSTEM.norm>
0

>  <SCORE.heavy>
10

>  <SCORE.norm>
-1.05904

>  <RMSD>
5.609

$$$$
ligand
 OpenBabel11021811473D
libRbt.so/2013.1/901 2013/11/27
 10  9  0  0  0  0  0  0  0  0999 V2000
   26.1333   14.8203   21.0062 N   0  0  0  0  0  0  0  0  0  0  0  0
   27.1398   15.5467   20.1780 C   0  0  2  0  0  0  0  0  0  0  0  0
   27.5837   14.7323   18.9977 C   0  0  0  0  0  0  0  0  0  0  0  0
   28.3107   15.2153   18.1346 O   0  0  0  0  0  0  0  0  0  0  0  0
   28.3146   15.9807   21.0498 C   0  0  0  0  0  0  0  0  0  0  0  0
   28.9873   14.5403   21.8191 S   0  0  0  0  0  0  0  0  0  0  0  0
   30.4970   15.1823   22.4643 C   0  0  0  0  0  0  0  0  0  0  0  0
   31.4260   15.5172   21.3017 C   0  0  0  0  0  0  0  0  0  0  0  0
   32.6272   16.1558   21.8008 N   0  0  0  0  0  0  0  0  0  0  0  0
   27.2697   13.5540   18.8435 O   0  0  0  0  0  0  0  0  0  0  0  0
  2  1  1  1  0  0  0
  2  3  1  0  0  0  0
  2  5  1  0  0  0  0
  3  4  1  0  0  0  0
  3 10  1  0  0  0  0
  5  6  1  0  0  0  0
  6  7  1  0  0  0  0
  7  8  1  0  0  0  0
  8  9  1  0  0  0  0
M  END
>  <CHROM.1>
172.95790598,56.94867360,168.08339041,-68.55419220,175.00587902,28.84745052
15.04217449,20.67291930,2.61523162,-0.21603490,-1.58067581

>  <Name>
ligand

>  <RI>
0

>  <Rbt.Current_Directory>
/home/itssahil/PROJECTS/Mol_Feturizer/New_Systems/rnas/3DIG

>  <Rbt.Executable>
rbdock ($Id: //depot/dev/client3/rdock/2013.1/src/exe/rbdock.cxx#4 $)

>  <Rbt.Library>
libRbt.so (2013.1, Build901 2013/11/27)

>  <Rbt.Parameter_File>
/export/apps/rDock/src/rDock_2013.1_src/data/scripts/dock_solv.prm

>  <Rbt.Receptor>
prm/pocket_docking_6.prm

>  <SCORE>
-11.7162

>  <SCORE.INTER>
-11.1426

>  <SCORE.INTER.CONST>
1

>  <SCORE.INTER.POLAR>
0

>  <SCORE.INTER.ROT>
5

>  <SCORE.INTER.SOLV>
18.3181

>  <SCORE.INTER.VDW>
-20.4678

>  <SCORE.INTER.norm>
-1.11426

>  <SCORE.INTRA>
-0.573607

>  <SCORE.INTRA.DIHEDRAL>
-0.652814

>  <SCORE.INTRA.DIHEDRAL.0>
2.60093

>  <SCORE.INTRA.POLAR>
0

>  <SCORE.INTRA.POLAR.0>
0

>  <SCORE.INTRA.REPUL>
0

>  <SCORE.INTRA.REPUL.0>
0

>  <SCORE.INTRA.SOLV>
-0.371329

>  <SCORE.INTRA.SOLV.lig_0>
-33.7882

>  <SCORE.INTRA.VDW>
-0.0615356

>  <SCORE.INTRA.VDW.0>
-0.593976

>  <SCORE.INTRA.norm>
-0.0573607

>  <SCORE.RESTR>
0

>  <SCORE.RESTR.CAVITY>
0

>  <SCORE.RESTR.norm>
0

>  <SCORE.SYSTEM>
0

>  <SCORE.SYSTEM.CONST>
0

>  <SCORE.SYSTEM.DIHEDRAL>
0

>  <SCORE.SYSTEM.SOLV>
0

>  <SCORE.SYSTEM.norm>
0

>  <SCORE.heavy>
10

>  <SCORE.norm>
-1.17162

>  <RMSD>
5.609

$$$$
ligand
 OpenBabel11021811473D
libRbt.so/2013.1/901 2013/11/27
 10  9  0  0  0  0  0  0  0  0999 V2000
   26.2804   14.7259   21.0322 N   0  0  0  0  0  0  0  0  0  0  0  0
   27.2195   15.5072   20.1753 C   0  0  2  0  0  0  0  0  0  0  0  0
   27.7020   14.7056   19.0014 C   0  0  0  0  0  0  0  0  0  0  0  0
   28.5486   15.1551   18.2347 O   0  0  0  0  0  0  0  0  0  0  0  0
   28.3737   16.0390   21.0199 C   0  0  0  0  0  0  0  0  0  0  0  0
   29.1592   14.6639   21.8018 S   0  0  0  0  0  0  0  0  0  0  0  0
   30.8474   15.1684   21.7440 C   0  0  0  0  0  0  0  0  0  0  0  0
   31.0505   16.3204   22.7231 C   0  0  0  0  0  0  0  0  0  0  0  0
   32.3688   16.8937   22.5406 N   0  0  0  0  0  0  0  0  0  0  0  0
   27.3019   13.5689   18.7594 O   0  0  0  0  0  0  0  0  0  0  0  0
  2  1  1  1  0  0  0
  2  3  1  0  0  0  0
  2  5  1  0  0  0  0
  3  4  1  0  0  0  0
  3 10  1  0  0  0  0
  5  6  1  0  0  0  0
  6  7  1  0  0  0  0
  7  8  1  0  0  0  0
  8  9  1  0  0  0  0
M  END
>  <CHROM.1>
-175.22607335,56.93798721,143.18577961,70.81818974,-170.85468088,28.91788309
15.18858249,20.79762501,2.47797220,-0.30862343,-1.67494704

>  <Name>
ligand

>  <RI>
0

>  <Rbt.Current_Directory>
/home/itssahil/PROJECTS/Mol_Feturizer/New_Systems/rnas/3DIG

>  <Rbt.Executable>
rbdock ($Id: //depot/dev/client3/rdock/2013.1/src/exe/rbdock.cxx#4 $)

>  <Rbt.Library>
libRbt.so (2013.1, Build901 2013/11/27)

>  <Rbt.Parameter_File>
/export/apps/rDock/src/rDock_2013.1_src/data/scripts/dock_solv.prm

>  <Rbt.Receptor>
prm/pocket_docking_3.prm

>  <SCORE>
-10.422

>  <SCORE.INTER>
-10.7725

>  <SCORE.INTER.CONST>
1

>  <SCORE.INTER.POLAR>
0

>  <SCORE.INTER.ROT>
5

>  <SCORE.INTER.SOLV>
17.2427

>  <SCORE.INTER.VDW>
-19.8626

>  <SCORE.INTER.norm>
-1.07725

>  <SCORE.INTRA>
0.350502

>  <SCORE.INTRA.DIHEDRAL>
1.05409

>  <SCORE.INTRA.DIHEDRAL.0>
2.60093

>  <SCORE.INTRA.POLAR>
0

>  <SCORE.INTRA.POLAR.0>
0

>  <SCORE.INTRA.REPUL>
0

>  <SCORE.INTRA.REPUL.0>
0

>  <SCORE.INTRA.SOLV>
-0.375876

>  <SCORE.INTRA.SOLV.lig_0>
-33.7882

>  <SCORE.INTRA.VDW>
0.0113939

>  <SCORE.INTRA.VDW.0>
-0.593976

>  <SCORE.INTRA.norm>
0.0350502

>  <SCORE.RESTR>
0

>  <SCORE.RESTR.CAVITY>
0

>  <SCORE.RESTR.norm>
0

>  <SCORE.SYSTEM>
0

>  <SCORE.SYSTEM.CONST>
0

>  <SCORE.SYSTEM.DIHEDRAL>
0

>  <SCORE.SYSTEM.SOLV>
0

>  <SCORE.SYSTEM.norm>
0

>  <SCORE.heavy>
10

>  <SCORE.norm>
-1.0422

>  <RMSD>
5.610

$$$$
ligand
 OpenBabel11021811473D
libRbt.so/2013.1/901 2013/11/27
 10  9  0  0  0  0  0  0  0  0999 V2000
   28.9208   14.7926   19.6353 N   0  0  0  0  0  0  0  0  0  0  0  0
   28.4094   14.7544   21.0365 C   0  0  2  0  0  0  0  0  0  0  0  0
   26.9175   14.9118   21.0906 C   0  0  0  0  0  0  0  0  0  0  0  0
   26.3054   15.4494   20.1725 O   0  0  0  0  0  0  0  0  0  0  0  0
   29.1277   15.8030   21.8809 C   0  0  0  0  0  0  0  0  0  0  0  0
   30.8497   15.4109   21.8927 S   0  0  0  0  0  0  0  0  0  0  0  0
   31.5299   16.9191   22.5014 C   0  0  0  0  0  0  0  0  0  0  0  0
   33.0519   16.8258   22.4567 C   0  0  0  0  0  0  0  0  0  0  0  0
   33.4995   16.7543   21.0804 N   0  0  0  0  0  0  0  0  0  0  0  0
   26.2362   14.4997   22.0270 O   0  0  0  0  0  0  0  0  0  0  0  0
  2  1  1  6  0  0  0
  2  3  1  0  0  0  0
  2  5  1  0  0  0  0
  3  4  1  0  0  0  0
  3 10  1  0  0  0  0
  5  6  1  0  0  0  0
  6  7  1  0  0  0  0
  7  8  1  0  0  0  0
  8  9  1  0  0  0  0
M  END
>  <CHROM.1>
-22.75465078,-61.39846480,165.06513601,-174.52741440,66.13081167,29.59864615
15.58776368,21.43493956,-2.94049014,0.25103806,1.42156995

>  <Name>
ligand

>  <RI>
0

>  <Rbt.Current_Directory>
/home/itssahil/PROJECTS/Mol_Feturizer/New_Systems/rnas/3DIG

>  <Rbt.Executable>
rbdock ($Id: //depot/dev/client3/rdock/2013.1/src/exe/rbdock.cxx#4 $)

>  <Rbt.Library>
libRbt.so (2013.1, Build901 2013/11/27)

>  <Rbt.Parameter_File>
/export/apps/rDock/src/rDock_2013.1_src/data/scripts/dock_solv.prm

>  <Rbt.Receptor>
prm/pocket_docking_8.prm

>  <SCORE>
-11.6155

>  <SCORE.INTER>
-11.1684

>  <SCORE.INTER.CONST>
1

>  <SCORE.INTER.POLAR>
0

>  <SCORE.INTER.ROT>
5

>  <SCORE.INTER.SOLV>
13.067

>  <SCORE.INTER.VDW>
-18.7346

>  <SCORE.INTER.norm>
-1.11684

>  <SCORE.INTRA>
-0.447103

>  <SCORE.INTRA.DIHEDRAL>
-0.512106

>  <SCORE.INTRA.DIHEDRAL.0>
2.60093

>  <SCORE.INTRA.POLAR>
0

>  <SCORE.INTRA.POLAR.0>
0

>  <SCORE.INTRA.REPUL>
0

>  <SCORE.INTRA.REPUL.0>
0

>  <SCORE.INTRA.SOLV>
0.269762

>  <SCORE.INTRA.SOLV.lig_0>
-33.7882

>  <SCORE.INTRA.VDW>
-0.32593

>  <SCORE.INTRA.VDW.0>
-0.593976

>  <SCORE.INTRA.norm>
-0.0447103

>  <SCORE.RESTR>
0

>  <SCORE.RESTR.CAVITY>
0

>  <SCORE.RESTR.norm>
0

>  <SCORE.SYSTEM>
0

>  <SCORE.SYSTEM.CONST>
0

>  <SCORE.SYSTEM.DIHEDRAL>
0

>  <SCORE.SYSTEM.SOLV>
0

>  <SCORE.SYSTEM.norm>
0

>  <SCORE.heavy>
10

>  <SCORE.norm>
-1.16155

>  <RMSD>
5.611

$$$$
ligand
 OpenBabel11021811473D
libRbt.so/2013.1/901 2013/11/27
 10  9  0  0  0  0  0  0  0  0999 V2000
   26.1497   14.7661   21.0365 N   0  0  0  0  0  0  0  0  0  0  0  0
   27.1288   15.5180   20.1983 C   0  0  2  0  0  0  0  0  0  0  0  0
   27.5814   14.7151   19.0134 C   0  0  0  0  0  0  0  0  0  0  0  0
   28.3853   15.1757   18.2082 O   0  0  0  0  0  0  0  0  0  0  0  0
   28.3009   15.9820   21.0582 C   0  0  0  0  0  0  0  0  0  0  0  0
   28.9964   14.5634   21.8475 S   0  0  0  0  0  0  0  0  0  0  0  0
   30.4981   15.2371   22.4791 C   0  0  0  0  0  0  0  0  0  0  0  0
   31.4486   15.4973   21.3147 C   0  0  0  0  0  0  0  0  0  0  0  0
   32.6485   16.1514   21.7967 N   0  0  0  0  0  0  0  0  0  0  0  0
   27.1983   13.5671   18.7992 O   0  0  0  0  0  0  0  0  0  0  0  0
  2  1  1  1  0  0  0
  2  3  1  0  0  0  0
  2  5  1  0  0  0  0
  3  4  1  0  0  0  0
  3 10  1  0  0  0  0
  5  6  1  0  0  0  0
  6  7  1  0  0  0  0
  7  8  1  0  0  0  0
  8  9  1  0  0  0  0
M  END
>  <CHROM.1>
179.75336110,55.75363563,168.19461225,-71.58890297,175.41415668,28.85272842
15.03855175,20.68992036,2.61766682,-0.21381861,-1.60029441

>  <Name>
ligand

>  <RI>
0

>  <Rbt.Current_Directory>
/home/itssahil/PROJECTS/Mol_Feturizer/New_Systems/rnas/3DIG

>  <Rbt.Executable>
rbdock ($Id: //depot/dev/client3/rdock/2013.1/src/exe/rbdock.cxx#4 $)

>  <Rbt.Library>
libRbt.so (2013.1, Build901 2013/11/27)

>  <Rbt.Parameter_File>
/export/apps/rDock/src/rDock_2013.1_src/data/scripts/dock_solv.prm

>  <Rbt.Receptor>
prm/pocket_docking_4.prm

>  <SCORE>
-11.7515

>  <SCORE.INTER>
-11.2414

>  <SCORE.INTER.CONST>
1

>  <SCORE.INTER.POLAR>
0

>  <SCORE.INTER.ROT>
5

>  <SCORE.INTER.SOLV>
18.3706

>  <SCORE.INTER.VDW>
-20.5511

>  <SCORE.INTER.norm>
-1.12414

>  <SCORE.INTRA>
-0.510086

>  <SCORE.INTRA.DIHEDRAL>
-0.531067

>  <SCORE.INTRA.DIHEDRAL.0>
2.60093

>  <SCORE.INTRA.POLAR>
0

>  <SCORE.INTRA.POLAR.0>
0

>  <SCORE.INTRA.REPUL>
0

>  <SCORE.INTRA.REPUL.0>
0

>  <SCORE.INTRA.SOLV>
-0.380687

>  <SCORE.INTRA.SOLV.lig_0>
-33.7882

>  <SCORE.INTRA.VDW>
-0.0542088

>  <SCORE.INTRA.VDW.0>
-0.593976

>  <SCORE.INTRA.norm>
-0.0510086

>  <SCORE.RESTR>
0

>  <SCORE.RESTR.CAVITY>
0

>  <SCORE.RESTR.norm>
0

>  <SCORE.SYSTEM>
0

>  <SCORE.SYSTEM.CONST>
0

>  <SCORE.SYSTEM.DIHEDRAL>
0

>  <SCORE.SYSTEM.SOLV>
0

>  <SCORE.SYSTEM.norm>
0

>  <SCORE.heavy>
10

>  <SCORE.norm>
-1.17515

>  <RMSD>
5.612

$$$$
ligand
 OpenBabel11021811473D
libRbt.so/2013.1/901 2013/11/27
 10  9  0  0  0  0  0  0  0  0999 V2000
   28.9405   14.8168   19.6104 N   0  0  0  0  0  0  0  0  0  0  0  0
   28.4527   14.8394   21.0204 C   0  0  2  0  0  0  0  0  0  0  0  0
   26.9579   14.9581   21.0919 C   0  0  0  0  0  0  0  0  0  0  0  0
   26.3225   15.4898   20.1863 O   0  0  0  0  0  0  0  0  0  0  0  0
   29.1540   15.9512   21.7954 C   0  0  0  0  0  0  0  0  0  0  0  0
   30.8745   15.5607   21.8770 S   0  0  0  0  0  0  0  0  0  0  0  0
   31.5325   17.0818   22.4778 C   0  0  0  0  0  0  0  0  0  0  0  0
   33.0498   16.9576   22.5743 C   0  0  0  0  0  0  0  0  0  0  0  0
   33.6164   16.8149   21.2482 N   0  0  0  0  0  0  0  0  0  0  0  0
   26.2975   14.5187   22.0308 O   0  0  0  0  0  0  0  0  0  0  0  0
  2  1  1  6  0  0  0
  2  3  1  0  0  0  0
  2  5  1  0  0  0  0
  3  4  1  0  0  0  0
  3 10  1  0  0  0  0
  5  6  1  0  0  0  0
  6  7  1  0  0  0  0
  7  8  1  0  0  0  0
  8  9  1  0  0  0  0
M  END
>  <CHROM.1>
-26.45323060,-64.56705830,168.47468225,-178.11496775,66.13643201,29.63248092
15.68081673,21.44563244,-2.90781808,0.24706155,1.35361344

>  <Name>
ligand

>  <RI>
0

>  <Rbt.Current_Directory>
/home/itssahil/PROJECTS/Mol_Feturizer/New_Systems/rnas/3DIG

>  <Rbt.Executable>
rbdock ($Id: //depot/dev/client3/rdock/2013.1/src/exe/rbdock.cxx#4 $)

>  <Rbt.Library>
libRbt.so (2013.1, Build901 2013/11/27)

>  <Rbt.Parameter_File>
/export/apps/rDock/src/rDock_2013.1_src/data/scripts/dock_solv.prm

>  <Rbt.Receptor>
prm/pocket_docking_5.prm

>  <SCORE>
-11.5657

>  <SCORE.INTER>
-10.9621

>  <SCORE.INTER.CONST>
1

>  <SCORE.INTER.POLAR>
0

>  <SCORE.INTER.ROT>
5

>  <SCORE.INTER.SOLV>
12.8745

>  <SCORE.INTER.VDW>
-18.5329

>  <SCORE.INTER.norm>
-1.09621

>  <SCORE.INTRA>
-0.603611

>  <SCORE.INTRA.DIHEDRAL>
-0.628284

>  <SCORE.INTRA.DIHEDRAL.0>
2.60093

>  <SCORE.INTRA.POLAR>
0

>  <SCORE.INTRA.POLAR.0>
0

>  <SCORE.INTRA.REPUL>
0

>  <SCORE.INTRA.REPUL.0>
0

>  <SCORE.INTRA.SOLV>
0.169308

>  <SCORE.INTRA.SOLV.lig_0>
-33.7882

>  <SCORE.INTRA.VDW>
-0.374123

>  <SCORE.INTRA.VDW.0>
-0.593976

>  <SCORE.INTRA.norm>
-0.0603611

>  <SCORE.RESTR>
0

>  <SCORE.RESTR.CAVITY>
0

>  <SCORE.RESTR.norm>
0

>  <SCORE.SYSTEM>
0

>  <SCORE.SYSTEM.CONST>
0

>  <SCORE.SYSTEM.DIHEDRAL>
0

>  <SCORE.SYSTEM.SOLV>
0

>  <SCORE.SYSTEM.norm>
0

>  <SCORE.heavy>
10

>  <SCORE.norm>
-1.15657

>  <RMSD>
5.616

$$$$
ligand
 OpenBabel11021811473D
libRbt.so/2013.1/901 2013/11/27
 10  9  0  0  0  0  0  0  0  0999 V2000
   26.4294   14.8363   20.7340 N   0  0  0  0  0  0  0  0  0  0  0  0
   27.7414   15.2048   20.1263 C   0  0  2  0  0  0  0  0  0  0  0  0
   27.8421   14.7517   18.6987 C   0  0  0  0  0  0  0  0  0  0  0  0
   28.4702   15.4056   17.8713 O   0  0  0  0  0  0  0  0  0  0  0  0
   28.8818   14.6613   20.9822 C   0  0  0  0  0  0  0  0  0  0  0  0
   28.7777   15.4153   22.5760 S   0  0  0  0  0  0  0  0  0  0  0  0
   30.4810   15.7239   22.9096 C   0  0  0  0  0  0  0  0  0  0  0  0
   30.9296   16.9355   22.0986 C   0  0  0  0  0  0  0  0  0  0  0  0
   32.3295   17.2077   22.3554 N   0  0  0  0  0  0  0  0  0  0  0  0
   27.3313   13.7107   18.2910 O   0  0  0  0  0  0  0  0  0  0  0  0
  2  1  1  1  0  0  0
  2  3  1  0  0  0  0
  2  5  1  0  0  0  0
  3  4  1  0  0  0  0
  3 10  1  0  0  0  0
  5  6  1  0  0  0  0
  6  7  1  0  0  0  0
  7  8  1  0  0  0  0
  8  9  1  0  0  0  0
M  END
>  <CHROM.1>
146.62443468,-62.00527738,-139.25808551,76.38610287,-179.91488653,28.90084704
15.37716839,20.84491232,2.34493806,-0.47178704,-1.61655924

>  <Name>
ligand

>  <RI>
0

>  <Rbt.Current_Directory>
/home/itssahil/PROJECTS/Mol_Feturizer/New_Systems/rnas/3DIG

>  <Rbt.Executable>
rbdock ($Id: //depot/dev/client3/rdock/2013.1/src/exe/rbdock.cxx#4 $)

>  <Rbt.Library>
libRbt.so (2013.1, Build901 2013/11/27)

>  <Rbt.Parameter_File>
/export/apps/rDock/src/rDock_2013.1_src/data/scripts/dock_solv.prm

>  <Rbt.Receptor>
prm/pocket_docking_8.prm

>  <SCORE>
-11.4994

>  <SCORE.INTER>
-11.4432

>  <SCORE.INTER.CONST>
1

>  <SCORE.INTER.POLAR>
0

>  <SCORE.INTER.ROT>
5

>  <SCORE.INTER.SOLV>
16.4333

>  <SCORE.INTER.VDW>
-20.0399

>  <SCORE.INTER.norm>
-1.14432

>  <SCORE.INTRA>
-0.0562011

>  <SCORE.INTRA.DIHEDRAL>
1.12168

>  <SCORE.INTRA.DIHEDRAL.0>
2.60093

>  <SCORE.INTRA.POLAR>
0

>  <SCORE.INTRA.POLAR.0>
0

>  <SCORE.INTRA.REPUL>
0

>  <SCORE.INTRA.REPUL.0>
0

>  <SCORE.INTRA.SOLV>
-0.653509

>  <SCORE.INTRA.SOLV.lig_0>
-33.7882

>  <SCORE.INTRA.VDW>
-0.290287

>  <SCORE.INTRA.VDW.0>
-0.593976

>  <SCORE.INTRA.norm>
-0.00562011

>  <SCORE.RESTR>
0

>  <SCORE.RESTR.CAVITY>
0

>  <SCORE.RESTR.norm>
0

>  <SCORE.SYSTEM>
0

>  <SCORE.SYSTEM.CONST>
0

>  <SCORE.SYSTEM.DIHEDRAL>
0

>  <SCORE.SYSTEM.SOLV>
0

>  <SCORE.SYSTEM.norm>
0

>  <SCORE.heavy>
10

>  <SCORE.norm>
-1.14994

>  <RMSD>
5.616

$$$$
ligand
 OpenBabel11021811473D
libRbt.so/2013.1/901 2013/11/27
 10  9  0  0  0  0  0  0  0  0999 V2000
   28.7878   14.8847   19.4611 N   0  0  0  0  0  0  0  0  0  0  0  0
   28.3764   14.6720   20.8796 C   0  0  2  0  0  0  0  0  0  0  0  0
   26.9081   14.9135   21.0771 C   0  0  0  0  0  0  0  0  0  0  0  0
   26.3459   14.5734   22.1139 O   0  0  0  0  0  0  0  0  0  0  0  0
   29.2293   15.5367   21.8034 C   0  0  0  0  0  0  0  0  0  0  0  0
   30.8990   14.9712   21.6960 S   0  0  0  0  0  0  0  0  0  0  0  0
   31.6993   16.0855   22.8030 C   0  0  0  0  0  0  0  0  0  0  0  0
   31.9307   17.4113   22.0848 C   0  0  0  0  0  0  0  0  0  0  0  0
   32.7232   18.2909   22.9203 N   0  0  0  0  0  0  0  0  0  0  0  0
   26.2051   15.4741   20.2391 O   0  0  0  0  0  0  0  0  0  0  0  0
  2  1  1  6  0  0  0
  2  3  1  0  0  0  0
  2  5  1  0  0  0  0
  3  4  1  0  0  0  0
  3 10  1  0  0  0  0
  5  6  1  0  0  0  0
  6  7  1  0  0  0  0
  7  8  1  0  0  0  0
  8  9  1  0  0  0  0
M  END
>  <CHROM.1>
167.59474535,-64.95073317,179.57980285,-79.65162908,-173.45809802,29.45116939
15.60046896,21.53045335,-2.67905936,0.00695696,0.67463494

>  <Name>
ligand

>  <RI>
0

>  <Rbt.Current_Directory>
/home/itssahil/PROJECTS/Mol_Feturizer/New_Systems/rnas/3DIG

>  <Rbt.Executable>
rbdock ($Id: //depot/dev/client3/rdock/2013.1/src/exe/rbdock.cxx#4 $)

>  <Rbt.Library>
libRbt.so (2013.1, Build901 2013/11/27)

>  <Rbt.Parameter_File>
/export/apps/rDock/src/rDock_2013.1_src/data/scripts/dock_solv.prm

>  <Rbt.Receptor>
prm/blind_docking_60.prm

>  <SCORE>
-11.2683

>  <SCORE.INTER>
-10.5876

>  <SCORE.INTER.CONST>
1

>  <SCORE.INTER.POLAR>
0

>  <SCORE.INTER.ROT>
5

>  <SCORE.INTER.SOLV>
13.7727

>  <SCORE.INTER.VDW>
-18.5826

>  <SCORE.INTER.norm>
-1.05876

>  <SCORE.INTRA>
-0.680686

>  <SCORE.INTRA.DIHEDRAL>
-0.309949

>  <SCORE.INTRA.DIHEDRAL.0>
2.60093

>  <SCORE.INTRA.POLAR>
0

>  <SCORE.INTRA.POLAR.0>
0

>  <SCORE.INTRA.REPUL>
0

>  <SCORE.INTRA.REPUL.0>
0

>  <SCORE.INTRA.SOLV>
-0.697705

>  <SCORE.INTRA.SOLV.lig_0>
-33.7882

>  <SCORE.INTRA.VDW>
-0.176859

>  <SCORE.INTRA.VDW.0>
-0.593976

>  <SCORE.INTRA.norm>
-0.0680686

>  <SCORE.RESTR>
0

>  <SCORE.RESTR.CAVITY>
0

>  <SCORE.RESTR.norm>
0

>  <SCORE.SYSTEM>
0

>  <SCORE.SYSTEM.CONST>
0

>  <SCORE.SYSTEM.DIHEDRAL>
0

>  <SCORE.SYSTEM.SOLV>
0

>  <SCORE.SYSTEM.norm>
0

>  <SCORE.heavy>
10

>  <SCORE.norm>
-1.12683

>  <RMSD>
5.619

$$$$
ligand
 OpenBabel11021811473D
libRbt.so/2013.1/901 2013/11/27
 10  9  0  0  0  0  0  0  0  0999 V2000
   28.5715   15.1598   22.6711 N   0  0  0  0  0  0  0  0  0  0  0  0
   28.1527   15.7495   21.3660 C   0  0  2  0  0  0  0  0  0  0  0  0
   26.9925   15.0097   20.7659 C   0  0  0  0  0  0  0  0  0  0  0  0
   26.0379   14.6652   21.4563 O   0  0  0  0  0  0  0  0  0  0  0  0
   29.3459   15.8118   20.4168 C   0  0  0  0  0  0  0  0  0  0  0  0
   30.5252   16.9394   21.0929 S   0  0  0  0  0  0  0  0  0  0  0  0
   31.5398   15.8399   22.0255 C   0  0  0  0  0  0  0  0  0  0  0  0
   32.7894   16.5884   22.4784 C   0  0  0  0  0  0  0  0  0  0  0  0
   33.5715   16.9825   21.3239 N   0  0  0  0  0  0  0  0  0  0  0  0
   26.9236   14.7328   19.5703 O   0  0  0  0  0  0  0  0  0  0  0  0
  2  1  1  1  0  0  0
  2  3  1  0  0  0  0
  2  5  1  0  0  0  0
  3  4  1  0  0  0  0
  3 10  1  0  0  0  0
  5  6  1  0  0  0  0
  6  7  1  0  0  0  0
  7  8  1  0  0  0  0
  8  9  1  0  0  0  0
M  END
>  <CHROM.1>
43.65423870,-65.15527925,92.27494877,169.19350568,-64.03951633,29.53272432
15.86614754,21.27793827,3.06773328,-0.34036375,-1.33595547

>  <Name>
ligand

>  <RI>
0

>  <Rbt.Current_Directory>
/home/itssahil/PROJECTS/Mol_Feturizer/New_Systems/rnas/3DIG

>  <Rbt.Executable>
rbdock ($Id: //depot/dev/client3/rdock/2013.1/src/exe/rbdock.cxx#4 $)

>  <Rbt.Library>
libRbt.so (2013.1, Build901 2013/11/27)

>  <Rbt.Parameter_File>
/export/apps/rDock/src/rDock_2013.1_src/data/scripts/dock_solv.prm

>  <Rbt.Receptor>
prm/blind_docking_60.prm

>  <SCORE>
-8.86668

>  <SCORE.INTER>
-10.0552

>  <SCORE.INTER.CONST>
1

>  <SCORE.INTER.POLAR>
0

>  <SCORE.INTER.ROT>
5

>  <SCORE.INTER.SOLV>
15.2198

>  <SCORE.INTER.VDW>
-18.7101

>  <SCORE.INTER.norm>
-1.00552

>  <SCORE.INTRA>
1.18856

>  <SCORE.INTRA.DIHEDRAL>
0.539792

>  <SCORE.INTRA.DIHEDRAL.0>
2.60093

>  <SCORE.INTRA.POLAR>
0

>  <SCORE.INTRA.POLAR.0>
0

>  <SCORE.INTRA.REPUL>
0

>  <SCORE.INTRA.REPUL.0>
0

>  <SCORE.INTRA.SOLV>
1.44173

>  <SCORE.INTRA.SOLV.lig_0>
-33.7882

>  <SCORE.INTRA.VDW>
0.197803

>  <SCORE.INTRA.VDW.0>
-0.593976

>  <SCORE.INTRA.norm>
0.118856

>  <SCORE.RESTR>
0

>  <SCORE.RESTR.CAVITY>
0

>  <SCORE.RESTR.norm>
0

>  <SCORE.SYSTEM>
0

>  <SCORE.SYSTEM.CONST>
0

>  <SCORE.SYSTEM.DIHEDRAL>
0

>  <SCORE.SYSTEM.SOLV>
0

>  <SCORE.SYSTEM.norm>
0

>  <SCORE.heavy>
10

>  <SCORE.norm>
-0.886668

>  <RMSD>
5.620

$$$$
ligand
 OpenBabel11021811473D
libRbt.so/2013.1/901 2013/11/27
 10  9  0  0  0  0  0  0  0  0999 V2000
   26.1714   14.5749   21.2575 N   0  0  0  0  0  0  0  0  0  0  0  0
   27.2186   15.2595   20.4444 C   0  0  2  0  0  0  0  0  0  0  0  0
   27.7809   14.3572   19.3846 C   0  0  0  0  0  0  0  0  0  0  0  0
   28.8977   13.8620   19.5041 O   0  0  0  0  0  0  0  0  0  0  0  0
   28.3055   15.8164   21.3592 C   0  0  0  0  0  0  0  0  0  0  0  0
   29.3214   16.9014   20.4053 S   0  0  0  0  0  0  0  0  0  0  0  0
   30.6967   17.1076   21.4888 C   0  0  0  0  0  0  0  0  0  0  0  0
   31.8112   16.1608   21.0549 C   0  0  0  0  0  0  0  0  0  0  0  0
   32.9852   16.3745   21.8770 N   0  0  0  0  0  0  0  0  0  0  0  0
   27.1591   14.0513   18.3695 O   0  0  0  0  0  0  0  0  0  0  0  0
  2  1  1  1  0  0  0
  2  3  1  0  0  0  0
  2  5  1  0  0  0  0
  3  4  1  0  0  0  0
  3 10  1  0  0  0  0
  5  6  1  0  0  0  0
  6  7  1  0  0  0  0
  7  8  1  0  0  0  0
  8  9  1  0  0  0  0
M  END
>  <CHROM.1>
-105.23033042,-167.98088870,-166.63213971,98.14678100,176.27256609,29.06954171
15.58940870,20.47753750,2.59482694,-0.06045814,-2.39700692

>  <Name>
ligand

>  <RI>
0

>  <Rbt.Current_Directory>
/home/itssahil/PROJECTS/Mol_Feturizer/New_Systems/rnas/3DIG

>  <Rbt.Executable>
rbdock ($Id: //depot/dev/client3/rdock/2013.1/src/exe/rbdock.cxx#4 $)

>  <Rbt.Library>
libRbt.so (2013.1, Build901 2013/11/27)

>  <Rbt.Parameter_File>
/export/apps/rDock/src/rDock_2013.1_src/data/scripts/dock_solv.prm

>  <Rbt.Receptor>
prm/pocket_docking_5.prm

>  <SCORE>
-8.91184

>  <SCORE.INTER>
-8.84875

>  <SCORE.INTER.CONST>
1

>  <SCORE.INTER.POLAR>
0

>  <SCORE.INTER.ROT>
5

>  <SCORE.INTER.SOLV>
18.9344

>  <SCORE.INTER.VDW>
-19.1439

>  <SCORE.INTER.norm>
-0.884875

>  <SCORE.INTRA>
-0.0630888

>  <SCORE.INTRA.DIHEDRAL>
1.4138

>  <SCORE.INTRA.DIHEDRAL.0>
2.60093

>  <SCORE.INTRA.POLAR>
0

>  <SCORE.INTRA.POLAR.0>
0

>  <SCORE.INTRA.REPUL>
0

>  <SCORE.INTRA.REPUL.0>
0

>  <SCORE.INTRA.SOLV>
-1.56685

>  <SCORE.INTRA.SOLV.lig_0>
-33.7882

>  <SCORE.INTRA.VDW>
0.0134343

>  <SCORE.INTRA.VDW.0>
-0.593976

>  <SCORE.INTRA.norm>
-0.00630888

>  <SCORE.RESTR>
0

>  <SCORE.RESTR.CAVITY>
0

>  <SCORE.RESTR.norm>
0

>  <SCORE.SYSTEM>
0

>  <SCORE.SYSTEM.CONST>
0

>  <SCORE.SYSTEM.DIHEDRAL>
0

>  <SCORE.SYSTEM.SOLV>
0

>  <SCORE.SYSTEM.norm>
0

>  <SCORE.heavy>
10

>  <SCORE.norm>
-0.891184

>  <RMSD>
5.622

$$$$
ligand
 OpenBabel11021811473D
libRbt.so/2013.1/901 2013/11/27
 10  9  0  0  0  0  0  0  0  0999 V2000
   26.2884   14.6859   21.0927 N   0  0  0  0  0  0  0  0  0  0  0  0
   27.2003   15.4970   20.2342 C   0  0  2  0  0  0  0  0  0  0  0  0
   27.6692   14.7265   19.0342 C   0  0  0  0  0  0  0  0  0  0  0  0
   27.2723   13.5845   18.8223 O   0  0  0  0  0  0  0  0  0  0  0  0
   28.3645   16.0259   21.0669 C   0  0  0  0  0  0  0  0  0  0  0  0
   29.1674   14.6468   21.8239 S   0  0  0  0  0  0  0  0  0  0  0  0
   30.8495   15.1718   21.7719 C   0  0  0  0  0  0  0  0  0  0  0  0
   31.0291   16.3436   22.7320 C   0  0  0  0  0  0  0  0  0  0  0  0
   32.3521   16.9123   22.5709 N   0  0  0  0  0  0  0  0  0  0  0  0
   28.4429   15.1938   18.2013 O   0  0  0  0  0  0  0  0  0  0  0  0
  2  1  1  1  0  0  0
  2  3  1  0  0  0  0
  2  5  1  0  0  0  0
  3  4  1  0  0  0  0
  3 10  1  0  0  0  0
  5  6  1  0  0  0  0
  6  7  1  0  0  0  0
  7  8  1  0  0  0  0
  8  9  1  0  0  0  0
M  END
>  <CHROM.1>
2.30806141,56.07203718,144.13459249,68.72430339,-172.06909707,28.89859257
15.19065297,20.82770780,2.49228467,-0.33748684,-1.63321806

>  <Name>
ligand

>  <RI>
0

>  <Rbt.Current_Directory>
/home/itssahil/PROJECTS/Mol_Feturizer/New_Systems/rnas/3DIG

>  <Rbt.Executable>
rbdock ($Id: //depot/dev/client3/rdock/2013.1/src/exe/rbdock.cxx#4 $)

>  <Rbt.Library>
libRbt.so (2013.1, Build901 2013/11/27)

>  <Rbt.Parameter_File>
/export/apps/rDock/src/rDock_2013.1_src/data/scripts/dock_solv.prm

>  <Rbt.Receptor>
prm/pocket_docking_3.prm

>  <SCORE>
-10.5416

>  <SCORE.INTER>
-10.8453

>  <SCORE.INTER.CONST>
1

>  <SCORE.INTER.POLAR>
0

>  <SCORE.INTER.ROT>
5

>  <SCORE.INTER.SOLV>
17.3309

>  <SCORE.INTER.VDW>
-19.9405

>  <SCORE.INTER.norm>
-1.08453

>  <SCORE.INTRA>
0.303728

>  <SCORE.INTRA.DIHEDRAL>
0.866488

>  <SCORE.INTRA.DIHEDRAL.0>
2.60093

>  <SCORE.INTRA.POLAR>
0

>  <SCORE.INTRA.POLAR.0>
0

>  <SCORE.INTRA.REPUL>
0

>  <SCORE.INTRA.REPUL.0>
0

>  <SCORE.INTRA.SOLV>
-0.348282

>  <SCORE.INTRA.SOLV.lig_0>
-33.7882

>  <SCORE.INTRA.VDW>
0.0446249

>  <SCORE.INTRA.VDW.0>
-0.593976

>  <SCORE.INTRA.norm>
0.0303728

>  <SCORE.RESTR>
0

>  <SCORE.RESTR.CAVITY>
0

>  <SCORE.RESTR.norm>
0

>  <SCORE.SYSTEM>
0

>  <SCORE.SYSTEM.CONST>
0

>  <SCORE.SYSTEM.DIHEDRAL>
0

>  <SCORE.SYSTEM.SOLV>
0

>  <SCORE.SYSTEM.norm>
0

>  <SCORE.heavy>
10

>  <SCORE.norm>
-1.05416

>  <RMSD>
5.623

$$$$
ligand
 OpenBabel11021811473D
libRbt.so/2013.1/901 2013/11/27
 10  9  0  0  0  0  0  0  0  0999 V2000
   26.0018   14.9356   20.9737 N   0  0  0  0  0  0  0  0  0  0  0  0
   27.3205   15.5215   20.5937 C   0  0  2  0  0  0  0  0  0  0  0  0
   27.7779   15.0403   19.2474 C   0  0  0  0  0  0  0  0  0  0  0  0
   27.4558   13.9319   18.8299 O   0  0  0  0  0  0  0  0  0  0  0  0
   28.3493   15.2373   21.6843 C   0  0  0  0  0  0  0  0  0  0  0  0
   29.7922   16.1954   21.3391 S   0  0  0  0  0  0  0  0  0  0  0  0
   30.8851   15.6147   22.5946 C   0  0  0  0  0  0  0  0  0  0  0  0
   32.2554   16.2520   22.3874 C   0  0  0  0  0  0  0  0  0  0  0  0
   32.1730   17.6802   22.6183 N   0  0  0  0  0  0  0  0  0  0  0  0
   28.4673   15.7233   18.4931 O   0  0  0  0  0  0  0  0  0  0  0  0
  2  1  1  1  0  0  0
  2  3  1  0  0  0  0
  2  5  1  0  0  0  0
  3  4  1  0  0  0  0
  3 10  1  0  0  0  0
  5  6  1  0  0  0  0
  6  7  1  0  0  0  0
  7  8  1  0  0  0  0
  8  9  1  0  0  0  0
M  END
>  <CHROM.1>
-29.73472868,-169.60284879,-174.79770732,175.20226136,66.45138347,29.13224485
15.66737757,20.89586781,2.57156164,-0.33349807,-1.67050543

>  <Name>
ligand

>  <RI>
0

>  <Rbt.Current_Directory>
/home/itssahil/PROJECTS/Mol_Feturizer/New_Systems/rnas/3DIG

>  <Rbt.Executable>
rbdock ($Id: //depot/dev/client3/rdock/2013.1/src/exe/rbdock.cxx#4 $)

>  <Rbt.Library>
libRbt.so (2013.1, Build901 2013/11/27)

>  <Rbt.Parameter_File>
/export/apps/rDock/src/rDock_2013.1_src/data/scripts/dock_solv.prm

>  <Rbt.Receptor>
prm/pocket_docking_7.prm

>  <SCORE>
-10.5695

>  <SCORE.INTER>
-9.51723

>  <SCORE.INTER.CONST>
1

>  <SCORE.INTER.POLAR>
0

>  <SCORE.INTER.ROT>
5

>  <SCORE.INTER.SOLV>
17.9731

>  <SCORE.INTER.VDW>
-19.2692

>  <SCORE.INTER.norm>
-0.951723

>  <SCORE.INTRA>
-1.05231

>  <SCORE.INTRA.DIHEDRAL>
-0.426334

>  <SCORE.INTRA.DIHEDRAL.0>
2.60093

>  <SCORE.INTRA.POLAR>
0

>  <SCORE.INTRA.POLAR.0>
0

>  <SCORE.INTRA.REPUL>
0

>  <SCORE.INTRA.REPUL.0>
0

>  <SCORE.INTRA.SOLV>
-0.72567

>  <SCORE.INTRA.SOLV.lig_0>
-33.7882

>  <SCORE.INTRA.VDW>
-0.476306

>  <SCORE.INTRA.VDW.0>
-0.593976

>  <SCORE.INTRA.norm>
-0.105231

>  <SCORE.RESTR>
0

>  <SCORE.RESTR.CAVITY>
0

>  <SCORE.RESTR.norm>
0

>  <SCORE.SYSTEM>
0

>  <SCORE.SYSTEM.CONST>
0

>  <SCORE.SYSTEM.DIHEDRAL>
0

>  <SCORE.SYSTEM.SOLV>
0

>  <SCORE.SYSTEM.norm>
0

>  <SCORE.heavy>
10

>  <SCORE.norm>
-1.05695

>  <RMSD>
5.623

$$$$
ligand
 OpenBabel11021811473D
libRbt.so/2013.1/901 2013/11/27
 10  9  0  0  0  0  0  0  0  0999 V2000
   26.3035   14.6793   21.0976 N   0  0  0  0  0  0  0  0  0  0  0  0
   27.2049   15.4937   20.2312 C   0  0  2  0  0  0  0  0  0  0  0  0
   27.6687   14.7238   19.0289 C   0  0  0  0  0  0  0  0  0  0  0  0
   27.2662   13.5842   18.8147 O   0  0  0  0  0  0  0  0  0  0  0  0
   28.3726   16.0296   21.0546 C   0  0  0  0  0  0  0  0  0  0  0  0
   29.1588   14.6602   21.8457 S   0  0  0  0  0  0  0  0  0  0  0  0
   30.8454   15.1711   21.7960 C   0  0  0  0  0  0  0  0  0  0  0  0
   31.0291   16.3541   22.7414 C   0  0  0  0  0  0  0  0  0  0  0  0
   32.3496   16.9240   22.5643 N   0  0  0  0  0  0  0  0  0  0  0  0
   28.4438   15.1894   18.1962 O   0  0  0  0  0  0  0  0  0  0  0  0
  2  1  1  1  0  0  0
  2  3  1  0  0  0  0
  2  5  1  0  0  0  0
  3  4  1  0  0  0  0
  3 10  1  0  0  0  0
  5  6  1  0  0  0  0
  6  7  1  0  0  0  0
  7  8  1  0  0  0  0
  8  9  1  0  0  0  0
M  END
>  <CHROM.1>
3.01226275,54.42879833,144.50293579,69.15311801,-171.12819376,28.89814200
15.19403335,20.83190293,2.49130780,-0.34603048,-1.62555462

>  <Name>
ligand

>  <RI>
0

>  <Rbt.Current_Directory>
/home/itssahil/PROJECTS/Mol_Feturizer/New_Systems/rnas/3DIG

>  <Rbt.Executable>
rbdock ($Id: //depot/dev/client3/rdock/2013.1/src/exe/rbdock.cxx#4 $)

>  <Rbt.Library>
libRbt.so (2013.1, Build901 2013/11/27)

>  <Rbt.Parameter_File>
/export/apps/rDock/src/rDock_2013.1_src/data/scripts/dock_solv.prm

>  <Rbt.Receptor>
prm/pocket_docking_7.prm

>  <SCORE>
-10.5223

>  <SCORE.INTER>
-10.9034

>  <SCORE.INTER.CONST>
1

>  <SCORE.INTER.POLAR>
0

>  <SCORE.INTER.ROT>
5

>  <SCORE.INTER.SOLV>
17.2756

>  <SCORE.INTER.VDW>
-19.9608

>  <SCORE.INTER.norm>
-1.09034

>  <SCORE.INTRA>
0.381042

>  <SCORE.INTRA.DIHEDRAL>
0.964701

>  <SCORE.INTRA.DIHEDRAL.0>
2.60093

>  <SCORE.INTRA.POLAR>
0

>  <SCORE.INTRA.POLAR.0>
0

>  <SCORE.INTRA.REPUL>
0

>  <SCORE.INTRA.REPUL.0>
0

>  <SCORE.INTRA.SOLV>
-0.318956

>  <SCORE.INTRA.SOLV.lig_0>
-33.7882

>  <SCORE.INTRA.VDW>
0.0581699

>  <SCORE.INTRA.VDW.0>
-0.593976

>  <SCORE.INTRA.norm>
0.0381042

>  <SCORE.RESTR>
0

>  <SCORE.RESTR.CAVITY>
0

>  <SCORE.RESTR.norm>
0

>  <SCORE.SYSTEM>
0

>  <SCORE.SYSTEM.CONST>
0

>  <SCORE.SYSTEM.DIHEDRAL>
0

>  <SCORE.SYSTEM.SOLV>
0

>  <SCORE.SYSTEM.norm>
0

>  <SCORE.heavy>
10

>  <SCORE.norm>
-1.05223

>  <RMSD>
5.624

$$$$
ligand
 OpenBabel11021811473D
libRbt.so/2013.1/901 2013/11/27
 10  9  0  0  0  0  0  0  0  0999 V2000
   26.2060   14.7016   21.0515 N   0  0  0  0  0  0  0  0  0  0  0  0
   27.1701   15.4896   20.2293 C   0  0  2  0  0  0  0  0  0  0  0  0
   27.6554   14.7120   19.0405 C   0  0  0  0  0  0  0  0  0  0  0  0
   27.2698   13.5649   18.8357 O   0  0  0  0  0  0  0  0  0  0  0  0
   28.3211   15.9783   21.1038 C   0  0  0  0  0  0  0  0  0  0  0  0
   29.0548   14.5716   21.8799 S   0  0  0  0  0  0  0  0  0  0  0  0
   30.7538   15.0418   21.8825 C   0  0  0  0  0  0  0  0  0  0  0  0
   30.9295   16.2464   22.8019 C   0  0  0  0  0  0  0  0  0  0  0  0
   32.2685   16.7817   22.6597 N   0  0  0  0  0  0  0  0  0  0  0  0
   28.4324   15.1781   18.2099 O   0  0  0  0  0  0  0  0  0  0  0  0
  2  1  1  1  0  0  0
  2  3  1  0  0  0  0
  2  5  1  0  0  0  0
  3  4  1  0  0  0  0
  3 10  1  0  0  0  0
  5  6  1  0  0  0  0
  6  7  1  0  0  0  0
  7  8  1  0  0  0  0
  8  9  1  0  0  0  0
M  END
>  <CHROM.1>
-0.45223000,55.98538868,143.94318106,66.06897818,-171.03741276,28.83544867
15.13592052,20.86461007,2.47095029,-0.32417372,-1.62300379

>  <Name>
ligand

>  <RI>
0

>  <Rbt.Current_Directory>
/home/itssahil/PROJECTS/Mol_Feturizer/New_Systems/rnas/3DIG

>  <Rbt.Executable>
rbdock ($Id: //depot/dev/client3/rdock/2013.1/src/exe/rbdock.cxx#4 $)

>  <Rbt.Library>
libRbt.so (2013.1, Build901 2013/11/27)

>  <Rbt.Parameter_File>
/export/apps/rDock/src/rDock_2013.1_src/data/scripts/dock_solv.prm

>  <Rbt.Receptor>
prm/pocket_docking_8.prm

>  <SCORE>
-10.495

>  <SCORE.INTER>
-10.8918

>  <SCORE.INTER.CONST>
1

>  <SCORE.INTER.POLAR>
0

>  <SCORE.INTER.ROT>
5

>  <SCORE.INTER.SOLV>
17.8255

>  <SCORE.INTER.VDW>
-20.1363

>  <SCORE.INTER.norm>
-1.08918

>  <SCORE.INTRA>
0.396799

>  <SCORE.INTRA.DIHEDRAL>
0.887752

>  <SCORE.INTRA.DIHEDRAL.0>
2.60093

>  <SCORE.INTRA.POLAR>
0

>  <SCORE.INTRA.POLAR.0>
0

>  <SCORE.INTRA.REPUL>
0

>  <SCORE.INTRA.REPUL.0>
0

>  <SCORE.INTRA.SOLV>
-0.316593

>  <SCORE.INTRA.SOLV.lig_0>
-33.7882

>  <SCORE.INTRA.VDW>
0.111219

>  <SCORE.INTRA.VDW.0>
-0.593976

>  <SCORE.INTRA.norm>
0.0396799

>  <SCORE.RESTR>
0

>  <SCORE.RESTR.CAVITY>
0

>  <SCORE.RESTR.norm>
0

>  <SCORE.SYSTEM>
0

>  <SCORE.SYSTEM.CONST>
0

>  <SCORE.SYSTEM.DIHEDRAL>
0

>  <SCORE.SYSTEM.SOLV>
0

>  <SCORE.SYSTEM.norm>
0

>  <SCORE.heavy>
10

>  <SCORE.norm>
-1.0495

>  <RMSD>
5.625

$$$$
ligand
 OpenBabel11021811473D
libRbt.so/2013.1/901 2013/11/27
 10  9  0  0  0  0  0  0  0  0999 V2000
   26.1065   14.6239   21.1539 N   0  0  0  0  0  0  0  0  0  0  0  0
   27.2073   15.2705   20.3814 C   0  0  2  0  0  0  0  0  0  0  0  0
   27.7696   14.3519   19.3357 C   0  0  0  0  0  0  0  0  0  0  0  0
   28.8906   13.8670   19.4577 O   0  0  0  0  0  0  0  0  0  0  0  0
   28.2833   15.7792   21.3364 C   0  0  0  0  0  0  0  0  0  0  0  0
   29.3828   16.8148   20.4211 S   0  0  0  0  0  0  0  0  0  0  0  0
   30.6120   17.1529   21.6387 C   0  0  0  0  0  0  0  0  0  0  0  0
   31.5789   15.9747   21.7020 C   0  0  0  0  0  0  0  0  0  0  0  0
   32.6175   16.2433   22.6762 N   0  0  0  0  0  0  0  0  0  0  0  0
   27.1438   14.0221   18.3305 O   0  0  0  0  0  0  0  0  0  0  0  0
  2  1  1  1  0  0  0
  2  3  1  0  0  0  0
  2  5  1  0  0  0  0
  3  4  1  0  0  0  0
  3 10  1  0  0  0  0
  5  6  1  0  0  0  0
  6  7  1  0  0  0  0
  7  8  1  0  0  0  0
  8  9  1  0  0  0  0
M  END
>  <CHROM.1>
-109.05245387,-168.53464264,-174.51060459,81.29442020,178.70867611,29.00993324
15.54712941,20.59270837,2.50820377,0.02749647,-2.35409997

>  <Name>
ligand

>  <RI>
0

>  <Rbt.Current_Directory>
/home/itssahil/PROJECTS/Mol_Feturizer/New_Systems/rnas/3DIG

>  <Rbt.Executable>
rbdock ($Id: //depot/dev/client3/rdock/2013.1/src/exe/rbdock.cxx#4 $)

>  <Rbt.Library>
libRbt.so (2013.1, Build901 2013/11/27)

>  <Rbt.Parameter_File>
/export/apps/rDock/src/rDock_2013.1_src/data/scripts/dock_solv.prm

>  <Rbt.Receptor>
prm/pocket_docking_4.prm

>  <SCORE>
-8.75921

>  <SCORE.INTER>
-8.30476

>  <SCORE.INTER.CONST>
1

>  <SCORE.INTER.POLAR>
0

>  <SCORE.INTER.ROT>
5

>  <SCORE.INTER.SOLV>
20.0788

>  <SCORE.INTER.VDW>
-19.1628

>  <SCORE.INTER.norm>
-0.830476

>  <SCORE.INTRA>
-0.454451

>  <SCORE.INTRA.DIHEDRAL>
0.0738209

>  <SCORE.INTRA.DIHEDRAL.0>
2.60093

>  <SCORE.INTRA.POLAR>
0

>  <SCORE.INTRA.POLAR.0>
0

>  <SCORE.INTRA.REPUL>
0

>  <SCORE.INTRA.REPUL.0>
0

>  <SCORE.INTRA.SOLV>
-1.45375

>  <SCORE.INTRA.SOLV.lig_0>
-33.7882

>  <SCORE.INTRA.VDW>
0.235512

>  <SCORE.INTRA.VDW.0>
-0.593976

>  <SCORE.INTRA.norm>
-0.0454451

>  <SCORE.RESTR>
0

>  <SCORE.RESTR.CAVITY>
0

>  <SCORE.RESTR.norm>
0

>  <SCORE.SYSTEM>
0

>  <SCORE.SYSTEM.CONST>
0

>  <SCORE.SYSTEM.DIHEDRAL>
0

>  <SCORE.SYSTEM.SOLV>
0

>  <SCORE.SYSTEM.norm>
0

>  <SCORE.heavy>
10

>  <SCORE.norm>
-0.875921

>  <RMSD>
5.627

$$$$
ligand
 OpenBabel11021811473D
libRbt.so/2013.1/901 2013/11/27
 10  9  0  0  0  0  0  0  0  0999 V2000
   25.9913   14.9498   20.9155 N   0  0  0  0  0  0  0  0  0  0  0  0
   27.3243   15.4902   20.5185 C   0  0  2  0  0  0  0  0  0  0  0  0
   27.7655   14.9625   19.1842 C   0  0  0  0  0  0  0  0  0  0  0  0
   28.4484   15.6475   18.4285 O   0  0  0  0  0  0  0  0  0  0  0  0
   28.3476   15.2065   21.6143 C   0  0  0  0  0  0  0  0  0  0  0  0
   29.7954   16.1581   21.2714 S   0  0  0  0  0  0  0  0  0  0  0  0
   30.8758   15.5897   22.5431 C   0  0  0  0  0  0  0  0  0  0  0  0
   32.2366   16.2561   22.3669 C   0  0  0  0  0  0  0  0  0  0  0  0
   32.1166   17.6835   22.5863 N   0  0  0  0  0  0  0  0  0  0  0  0
   27.4930   13.8304   18.7907 O   0  0  0  0  0  0  0  0  0  0  0  0
  2  1  1  1  0  0  0
  2  3  1  0  0  0  0
  2  5  1  0  0  0  0
  3  4  1  0  0  0  0
  3 10  1  0  0  0  0
  5  6  1  0  0  0  0
  6  7  1  0  0  0  0
  7  8  1  0  0  0  0
  8  9  1  0  0  0  0
M  END
>  <CHROM.1>
147.53771791,-167.73989767,-175.31525916,176.96567813,65.55574756,29.12557683
15.63058662,20.84042905,2.55237294,-0.32189470,-1.70717171

>  <Name>
ligand

>  <RI>
0

>  <Rbt.Current_Directory>
/home/itssahil/PROJECTS/Mol_Feturizer/New_Systems/rnas/3DIG

>  <Rbt.Executable>
rbdock ($Id: //depot/dev/client3/rdock/2013.1/src/exe/rbdock.cxx#4 $)

>  <Rbt.Library>
libRbt.so (2013.1, Build901 2013/11/27)

>  <Rbt.Parameter_File>
/export/apps/rDock/src/rDock_2013.1_src/data/scripts/dock_solv.prm

>  <Rbt.Receptor>
prm/pocket_docking_3.prm

>  <SCORE>
-10.6441

>  <SCORE.INTER>
-9.53384

>  <SCORE.INTER.CONST>
1

>  <SCORE.INTER.POLAR>
0

>  <SCORE.INTER.ROT>
5

>  <SCORE.INTER.SOLV>
18.0043

>  <SCORE.INTER.VDW>
-19.2907

>  <SCORE.INTER.norm>
-0.953384

>  <SCORE.INTRA>
-1.11022

>  <SCORE.INTRA.DIHEDRAL>
-0.44602

>  <SCORE.INTRA.DIHEDRAL.0>
2.60093

>  <SCORE.INTRA.POLAR>
0

>  <SCORE.INTRA.POLAR.0>
0

>  <SCORE.INTRA.REPUL>
0

>  <SCORE.INTRA.REPUL.0>
0

>  <SCORE.INTRA.SOLV>
-0.720427

>  <SCORE.INTRA.SOLV.lig_0>
-33.7882

>  <SCORE.INTRA.VDW>
-0.527001

>  <SCORE.INTRA.VDW.0>
-0.593976

>  <SCORE.INTRA.norm>
-0.111022

>  <SCORE.RESTR>
0

>  <SCORE.RESTR.CAVITY>
0

>  <SCORE.RESTR.norm>
0

>  <SCORE.SYSTEM>
0

>  <SCORE.SYSTEM.CONST>
0

>  <SCORE.SYSTEM.DIHEDRAL>
0

>  <SCORE.SYSTEM.SOLV>
0

>  <SCORE.SYSTEM.norm>
0

>  <SCORE.heavy>
10

>  <SCORE.norm>
-1.06441

>  <RMSD>
5.635

$$$$
ligand
 OpenBabel11021811473D
libRbt.so/2013.1/901 2013/11/27
 10  9  0  0  0  0  0  0  0  0999 V2000
   26.4711   14.6408   21.2185 N   0  0  0  0  0  0  0  0  0  0  0  0
   27.0720   15.1893   19.9676 C   0  0  2  0  0  0  0  0  0  0  0  0
   27.7909   14.1306   19.1829 C   0  0  0  0  0  0  0  0  0  0  0  0
   27.2426   13.5567   18.2467 O   0  0  0  0  0  0  0  0  0  0  0  0
   27.9782   16.3709   20.3010 C   0  0  0  0  0  0  0  0  0  0  0  0
   29.0100   15.9044   21.6563 S   0  0  0  0  0  0  0  0  0  0  0  0
   30.6029   15.9880   20.9057 C   0  0  0  0  0  0  0  0  0  0  0  0
   31.6649   15.9594   22.0004 C   0  0  0  0  0  0  0  0  0  0  0  0
   31.6082   17.1847   22.7719 N   0  0  0  0  0  0  0  0  0  0  0  0
   28.9523   13.8014   19.4140 O   0  0  0  0  0  0  0  0  0  0  0  0
  2  1  1  1  0  0  0
  2  3  1  0  0  0  0
  2  5  1  0  0  0  0
  3  4  1  0  0  0  0
  3 10  1  0  0  0  0
  5  6  1  0  0  0  0
  6  7  1  0  0  0  0
  7  8  1  0  0  0  0
  8  9  1  0  0  0  0
M  END
>  <CHROM.1>
96.95468967,46.89411809,116.86064318,165.90145533,-68.15791878,28.86469380
15.31951888,20.66787815,2.36329565,-0.00825367,-2.25117797

>  <Name>
ligand

>  <RI>
0

>  <Rbt.Current_Directory>
/home/itssahil/PROJECTS/Mol_Feturizer/New_Systems/rnas/3DIG

>  <Rbt.Executable>
rbdock ($Id: //depot/dev/client3/rdock/2013.1/src/exe/rbdock.cxx#4 $)

>  <Rbt.Library>
libRbt.so (2013.1, Build901 2013/11/27)

>  <Rbt.Parameter_File>
/export/apps/rDock/src/rDock_2013.1_src/data/scripts/dock_solv.prm

>  <Rbt.Receptor>
prm/pocket_docking_3.prm

>  <SCORE>
-8.40348

>  <SCORE.INTER>
-9.6636

>  <SCORE.INTER.CONST>
1

>  <SCORE.INTER.POLAR>
0

>  <SCORE.INTER.ROT>
5

>  <SCORE.INTER.SOLV>
16.5573

>  <SCORE.INTER.VDW>
-18.8948

>  <SCORE.INTER.norm>
-0.96636

>  <SCORE.INTRA>
1.26012

>  <SCORE.INTRA.DIHEDRAL>
2.4531

>  <SCORE.INTRA.DIHEDRAL.0>
2.60093

>  <SCORE.INTRA.POLAR>
0

>  <SCORE.INTRA.POLAR.0>
0

>  <SCORE.INTRA.REPUL>
0

>  <SCORE.INTRA.REPUL.0>
0

>  <SCORE.INTRA.SOLV>
0.544462

>  <SCORE.INTRA.SOLV.lig_0>
-33.7882

>  <SCORE.INTRA.VDW>
-0.238665

>  <SCORE.INTRA.VDW.0>
-0.593976

>  <SCORE.INTRA.norm>
0.126012

>  <SCORE.RESTR>
0

>  <SCORE.RESTR.CAVITY>
0

>  <SCORE.RESTR.norm>
0

>  <SCORE.SYSTEM>
0

>  <SCORE.SYSTEM.CONST>
0

>  <SCORE.SYSTEM.DIHEDRAL>
0

>  <SCORE.SYSTEM.SOLV>
0

>  <SCORE.SYSTEM.norm>
0

>  <SCORE.heavy>
10

>  <SCORE.norm>
-0.840348

>  <RMSD>
5.637

$$$$
ligand
 OpenBabel11021811473D
libRbt.so/2013.1/901 2013/11/27
 10  9  0  0  0  0  0  0  0  0999 V2000
   28.5779   15.0643   19.2866 N   0  0  0  0  0  0  0  0  0  0  0  0
   28.1828   14.3970   20.5613 C   0  0  2  0  0  0  0  0  0  0  0  0
   26.8297   14.8469   21.0307 C   0  0  0  0  0  0  0  0  0  0  0  0
   26.0729   15.4586   20.2826 O   0  0  0  0  0  0  0  0  0  0  0  0
   29.2597   14.6183   21.6195 C   0  0  0  0  0  0  0  0  0  0  0  0
   29.5009   16.3585   21.8000 S   0  0  0  0  0  0  0  0  0  0  0  0
   31.1294   16.4004   22.4736 C   0  0  0  0  0  0  0  0  0  0  0  0
   31.6333   17.8401   22.4536 C   0  0  0  0  0  0  0  0  0  0  0  0
   33.0140   17.8835   22.8914 N   0  0  0  0  0  0  0  0  0  0  0  0
   26.4030   14.6135   22.1594 O   0  0  0  0  0  0  0  0  0  0  0  0
  2  1  1  6  0  0  0
  2  3  1  0  0  0  0
  2  5  1  0  0  0  0
  3  4  1  0  0  0  0
  3 10  1  0  0  0  0
  5  6  1  0  0  0  0
  6  7  1  0  0  0  0
  7  8  1  0  0  0  0
  8  9  1  0  0  0  0
M  END
>  <CHROM.1>
14.23177694,56.35914141,-157.39684247,169.12966897,-174.92712644,29.07365518
15.81938217,21.50015738,-2.71930827,0.36672735,1.28079049

>  <Name>
ligand

>  <RI>
0

>  <Rbt.Current_Directory>
/home/itssahil/PROJECTS/Mol_Feturizer/New_Systems/rnas/3DIG

>  <Rbt.Executable>
rbdock ($Id: //depot/dev/client3/rdock/2013.1/src/exe/rbdock.cxx#4 $)

>  <Rbt.Library>
libRbt.so (2013.1, Build901 2013/11/27)

>  <Rbt.Parameter_File>
/export/apps/rDock/src/rDock_2013.1_src/data/scripts/dock_solv.prm

>  <Rbt.Receptor>
prm/pocket_docking_5.prm

>  <SCORE>
-10.6192

>  <SCORE.INTER>
-10.2602

>  <SCORE.INTER.CONST>
1

>  <SCORE.INTER.POLAR>
0

>  <SCORE.INTER.ROT>
5

>  <SCORE.INTER.SOLV>
13.4472

>  <SCORE.INTER.VDW>
-18.2559

>  <SCORE.INTER.norm>
-1.02602

>  <SCORE.INTRA>
-0.359012

>  <SCORE.INTRA.DIHEDRAL>
-0.0549352

>  <SCORE.INTRA.DIHEDRAL.0>
2.60093

>  <SCORE.INTRA.POLAR>
0

>  <SCORE.INTRA.POLAR.0>
0

>  <SCORE.INTRA.REPUL>
0

>  <SCORE.INTRA.REPUL.0>
0

>  <SCORE.INTRA.SOLV>
-0.397606

>  <SCORE.INTRA.SOLV.lig_0>
-33.7882

>  <SCORE.INTRA.VDW>
-0.132741

>  <SCORE.INTRA.VDW.0>
-0.593976

>  <SCORE.INTRA.norm>
-0.0359012

>  <SCORE.RESTR>
0

>  <SCORE.RESTR.CAVITY>
0

>  <SCORE.RESTR.norm>
0

>  <SCORE.SYSTEM>
0

>  <SCORE.SYSTEM.CONST>
0

>  <SCORE.SYSTEM.DIHEDRAL>
0

>  <SCORE.SYSTEM.SOLV>
0

>  <SCORE.SYSTEM.norm>
0

>  <SCORE.heavy>
10

>  <SCORE.norm>
-1.06192

>  <RMSD>
5.652

$$$$
ligand
 OpenBabel11021811473D
libRbt.so/2013.1/901 2013/11/27
 10  9  0  0  0  0  0  0  0  0999 V2000
   28.7798   14.8151   19.4508 N   0  0  0  0  0  0  0  0  0  0  0  0
   28.3697   14.6596   20.8770 C   0  0  2  0  0  0  0  0  0  0  0  0
   26.9043   14.9231   21.0683 C   0  0  0  0  0  0  0  0  0  0  0  0
   26.2524   15.5164   20.2140 O   0  0  0  0  0  0  0  0  0  0  0  0
   29.2333   15.5496   21.7663 C   0  0  0  0  0  0  0  0  0  0  0  0
   30.8915   14.9452   21.7006 S   0  0  0  0  0  0  0  0  0  0  0  0
   31.6977   16.0668   22.7960 C   0  0  0  0  0  0  0  0  0  0  0  0
   32.2597   17.2293   21.9837 C   0  0  0  0  0  0  0  0  0  0  0  0
   33.0324   18.1019   22.8447 N   0  0  0  0  0  0  0  0  0  0  0  0
   26.2823   14.5478   22.0598 O   0  0  0  0  0  0  0  0  0  0  0  0
  2  1  1  6  0  0  0
  2  3  1  0  0  0  0
  2  5  1  0  0  0  0
  3  4  1  0  0  0  0
  3 10  1  0  0  0  0
  5  6  1  0  0  0  0
  6  7  1  0  0  0  0
  7  8  1  0  0  0  0
  8  9  1  0  0  0  0
M  END
>  <CHROM.1>
-17.05984791,-66.00152565,-178.90805500,-92.71563419,-174.79272026,29.50289620
15.55731419,21.50219249,-2.71894353,0.09274680,0.87333135

>  <Name>
ligand

>  <RI>
0

>  <Rbt.Current_Directory>
/home/itssahil/PROJECTS/Mol_Feturizer/New_Systems/rnas/3DIG

>  <Rbt.Executable>
rbdock ($Id: //depot/dev/client3/rdock/2013.1/src/exe/rbdock.cxx#4 $)

>  <Rbt.Library>
libRbt.so (2013.1, Build901 2013/11/27)

>  <Rbt.Parameter_File>
/export/apps/rDock/src/rDock_2013.1_src/data/scripts/dock_solv.prm

>  <Rbt.Receptor>
prm/pocket_docking_8.prm

>  <SCORE>
-11.2336

>  <SCORE.INTER>
-10.7725

>  <SCORE.INTER.CONST>
1

>  <SCORE.INTER.POLAR>
0

>  <SCORE.INTER.ROT>
5

>  <SCORE.INTER.SOLV>
13.4272

>  <SCORE.INTER.VDW>
-18.5908

>  <SCORE.INTER.norm>
-1.07725

>  <SCORE.INTRA>
-0.461063

>  <SCORE.INTRA.DIHEDRAL>
0.529247

>  <SCORE.INTRA.DIHEDRAL.0>
2.60093

>  <SCORE.INTRA.POLAR>
0

>  <SCORE.INTRA.POLAR.0>
0

>  <SCORE.INTRA.REPUL>
0

>  <SCORE.INTRA.REPUL.0>
0

>  <SCORE.INTRA.SOLV>
-0.803213

>  <SCORE.INTRA.SOLV.lig_0>
-33.7882

>  <SCORE.INTRA.VDW>
-0.32408

>  <SCORE.INTRA.VDW.0>
-0.593976

>  <SCORE.INTRA.norm>
-0.0461063

>  <SCORE.RESTR>
0

>  <SCORE.RESTR.CAVITY>
0

>  <SCORE.RESTR.norm>
0

>  <SCORE.SYSTEM>
0

>  <SCORE.SYSTEM.CONST>
0

>  <SCORE.SYSTEM.DIHEDRAL>
0

>  <SCORE.SYSTEM.SOLV>
0

>  <SCORE.SYSTEM.norm>
0

>  <SCORE.heavy>
10

>  <SCORE.norm>
-1.12336

>  <RMSD>
5.654

$$$$
ligand
 OpenBabel11021811473D
libRbt.so/2013.1/901 2013/11/27
 10  9  0  0  0  0  0  0  0  0999 V2000
   26.4459   14.7731   20.7176 N   0  0  0  0  0  0  0  0  0  0  0  0
   27.7225   15.1638   20.0512 C   0  0  2  0  0  0  0  0  0  0  0  0
   27.7960   14.6517   18.6420 C   0  0  0  0  0  0  0  0  0  0  0  0
   28.4244   15.2601   17.7809 O   0  0  0  0  0  0  0  0  0  0  0  0
   28.9098   14.7027   20.8915 C   0  0  0  0  0  0  0  0  0  0  0  0
   28.7762   15.4514   22.4856 S   0  0  0  0  0  0  0  0  0  0  0  0
   30.4752   15.7274   22.8666 C   0  0  0  0  0  0  0  0  0  0  0  0
   30.9693   16.9299   22.0685 C   0  0  0  0  0  0  0  0  0  0  0  0
   32.3664   17.1754   22.3645 N   0  0  0  0  0  0  0  0  0  0  0  0
   27.2613   13.6046   18.2834 O   0  0  0  0  0  0  0  0  0  0  0  0
  2  1  1  1  0  0  0
  2  3  1  0  0  0  0
  2  5  1  0  0  0  0
  3  4  1  0  0  0  0
  3 10  1  0  0  0  0
  5  6  1  0  0  0  0
  6  7  1  0  0  0  0
  7  8  1  0  0  0  0
  8  9  1  0  0  0  0
M  END
>  <CHROM.1>
150.06790004,-58.84258787,-144.81901649,76.09428589,-179.92539361,28.89405801
15.34332440,20.79136361,2.34208844,-0.45876787,-1.64863147

>  <Name>
ligand

>  <RI>
0

>  <Rbt.Current_Directory>
/home/itssahil/PROJECTS/Mol_Feturizer/New_Systems/rnas/3DIG

>  <Rbt.Executable>
rbdock ($Id: //depot/dev/client3/rdock/2013.1/src/exe/rbdock.cxx#4 $)

>  <Rbt.Library>
libRbt.so (2013.1, Build901 2013/11/27)

>  <Rbt.Parameter_File>
/export/apps/rDock/src/rDock_2013.1_src/data/scripts/dock_solv.prm

>  <Rbt.Receptor>
prm/blind_docking_100.prm

>  <SCORE>
-11.4037

>  <SCORE.INTER>
-11.3091

>  <SCORE.INTER.CONST>
1

>  <SCORE.INTER.POLAR>
0

>  <SCORE.INTER.ROT>
5

>  <SCORE.INTER.SOLV>
16.3729

>  <SCORE.INTER.VDW>
-19.9304

>  <SCORE.INTER.norm>
-1.13091

>  <SCORE.INTRA>
-0.0946464

>  <SCORE.INTRA.DIHEDRAL>
0.783936

>  <SCORE.INTRA.DIHEDRAL.0>
2.60093

>  <SCORE.INTRA.POLAR>
0

>  <SCORE.INTRA.POLAR.0>
0

>  <SCORE.INTRA.REPUL>
0

>  <SCORE.INTRA.REPUL.0>
0

>  <SCORE.INTRA.SOLV>
-0.608754

>  <SCORE.INTRA.SOLV.lig_0>
-33.7882

>  <SCORE.INTRA.VDW>
-0.182237

>  <SCORE.INTRA.VDW.0>
-0.593976

>  <SCORE.INTRA.norm>
-0.00946464

>  <SCORE.RESTR>
0

>  <SCORE.RESTR.CAVITY>
0

>  <SCORE.RESTR.norm>
0

>  <SCORE.SYSTEM>
0

>  <SCORE.SYSTEM.CONST>
0

>  <SCORE.SYSTEM.DIHEDRAL>
0

>  <SCORE.SYSTEM.SOLV>
0

>  <SCORE.SYSTEM.norm>
0

>  <SCORE.heavy>
10

>  <SCORE.norm>
-1.14037

>  <RMSD>
5.660

$$$$
ligand
 OpenBabel11021811473D
libRbt.so/2013.1/901 2013/11/27
 10  9  0  0  0  0  0  0  0  0999 V2000
   27.0672   14.4030   21.0560 N   0  0  0  0  0  0  0  0  0  0  0  0
   27.3849   15.1192   19.7862 C   0  0  2  0  0  0  0  0  0  0  0  0
   27.9000   14.1835   18.7315 C   0  0  0  0  0  0  0  0  0  0  0  0
   29.1038   14.0725   18.5189 O   0  0  0  0  0  0  0  0  0  0  0  0
   28.3573   16.2621   20.0633 C   0  0  0  0  0  0  0  0  0  0  0  0
   29.7597   15.5961   20.9053 S   0  0  0  0  0  0  0  0  0  0  0  0
   30.6916   17.0613   21.2094 C   0  0  0  0  0  0  0  0  0  0  0  0
   32.0935   16.6673   21.6639 C   0  0  0  0  0  0  0  0  0  0  0  0
   32.0201   15.9619   22.9275 N   0  0  0  0  0  0  0  0  0  0  0  0
   27.1626   13.4736   18.0510 O   0  0  0  0  0  0  0  0  0  0  0  0
  2  1  1  1  0  0  0
  2  3  1  0  0  0  0
  2  5  1  0  0  0  0
  3  4  1  0  0  0  0
  3 10  1  0  0  0  0
  5  6  1  0  0  0  0
  6  7  1  0  0  0  0
  7  8  1  0  0  0  0
  8  9  1  0  0  0  0
M  END
>  <CHROM.1>
-98.78315761,54.16840785,-176.82260998,-167.72724218,-64.00915210,29.22436452
15.29342997,20.33364226,2.37991795,-0.15079792,-2.06149892

>  <Name>
ligand

>  <RI>
0

>  <Rbt.Current_Directory>
/home/itssahil/PROJECTS/Mol_Feturizer/New_Systems/rnas/3DIG

>  <Rbt.Executable>
rbdock ($Id: //depot/dev/client3/rdock/2013.1/src/exe/rbdock.cxx#4 $)

>  <Rbt.Library>
libRbt.so (2013.1, Build901 2013/11/27)

>  <Rbt.Parameter_File>
/export/apps/rDock/src/rDock_2013.1_src/data/scripts/dock_solv.prm

>  <Rbt.Receptor>
prm/pocket_docking_8.prm

>  <SCORE>
-8.79118

>  <SCORE.INTER>
-8.98709

>  <SCORE.INTER.CONST>
1

>  <SCORE.INTER.POLAR>
0

>  <SCORE.INTER.ROT>
5

>  <SCORE.INTER.SOLV>
17.0633

>  <SCORE.INTER.VDW>
-18.6125

>  <SCORE.INTER.norm>
-0.898709

>  <SCORE.INTRA>
0.195915

>  <SCORE.INTRA.DIHEDRAL>
-0.713075

>  <SCORE.INTRA.DIHEDRAL.0>
2.60093

>  <SCORE.INTRA.POLAR>
0

>  <SCORE.INTRA.POLAR.0>
0

>  <SCORE.INTRA.REPUL>
0

>  <SCORE.INTRA.REPUL.0>
0

>  <SCORE.INTRA.SOLV>
0.29424

>  <SCORE.INTRA.SOLV.lig_0>
-33.7882

>  <SCORE.INTRA.VDW>
0.405333

>  <SCORE.INTRA.VDW.0>
-0.593976

>  <SCORE.INTRA.norm>
0.0195915

>  <SCORE.RESTR>
0

>  <SCORE.RESTR.CAVITY>
0

>  <SCORE.RESTR.norm>
0

>  <SCORE.SYSTEM>
0

>  <SCORE.SYSTEM.CONST>
0

>  <SCORE.SYSTEM.DIHEDRAL>
0

>  <SCORE.SYSTEM.SOLV>
0

>  <SCORE.SYSTEM.norm>
0

>  <SCORE.heavy>
10

>  <SCORE.norm>
-0.879118

>  <RMSD>
5.661

$$$$
ligand
 OpenBabel11021811473D
libRbt.so/2013.1/901 2013/11/27
 10  9  0  0  0  0  0  0  0  0999 V2000
   26.2862   15.4240   20.4046 N   0  0  0  0  0  0  0  0  0  0  0  0
   27.7235   15.2066   20.0680 C   0  0  2  0  0  0  0  0  0  0  0  0
   27.8946   14.6476   18.6854 C   0  0  0  0  0  0  0  0  0  0  0  0
   28.6830   15.1538   17.8925 O   0  0  0  0  0  0  0  0  0  0  0  0
   28.3782   14.3255   21.1280 C   0  0  0  0  0  0  0  0  0  0  0  0
   28.9586   15.3714   22.4274 S   0  0  0  0  0  0  0  0  0  0  0  0
   30.4193   16.0326   21.6945 C   0  0  0  0  0  0  0  0  0  0  0  0
   31.1711   16.8461   22.7434 C   0  0  0  0  0  0  0  0  0  0  0  0
   32.4060   17.3530   22.1796 N   0  0  0  0  0  0  0  0  0  0  0  0
   27.2845   13.6585   18.2850 O   0  0  0  0  0  0  0  0  0  0  0  0
  2  1  1  1  0  0  0
  2  3  1  0  0  0  0
  2  5  1  0  0  0  0
  3  4  1  0  0  0  0
  3 10  1  0  0  0  0
  5  6  1  0  0  0  0
  6  7  1  0  0  0  0
  7  8  1  0  0  0  0
  8  9  1  0  0  0  0
M  END
>  <CHROM.1>
130.13747005,-87.35115872,-77.10747232,-173.07906220,177.57442991,28.92207126
15.38431280,20.72887632,2.36675634,-0.41949883,-1.69989503

>  <Name>
ligand

>  <RI>
0

>  <Rbt.Current_Directory>
/home/itssahil/PROJECTS/Mol_Feturizer/New_Systems/rnas/3DIG

>  <Rbt.Executable>
rbdock ($Id: //depot/dev/client3/rdock/2013.1/src/exe/rbdock.cxx#4 $)

>  <Rbt.Library>
libRbt.so (2013.1, Build901 2013/11/27)

>  <Rbt.Parameter_File>
/export/apps/rDock/src/rDock_2013.1_src/data/scripts/dock_solv.prm

>  <Rbt.Receptor>
prm/pocket_docking_3.prm

>  <SCORE>
-10.1993

>  <SCORE.INTER>
-10.0596

>  <SCORE.INTER.CONST>
1

>  <SCORE.INTER.POLAR>
0

>  <SCORE.INTER.ROT>
5

>  <SCORE.INTER.SOLV>
16.8577

>  <SCORE.INTER.VDW>
-19.259

>  <SCORE.INTER.norm>
-1.00596

>  <SCORE.INTRA>
-0.139682

>  <SCORE.INTRA.DIHEDRAL>
1.62129

>  <SCORE.INTRA.DIHEDRAL.0>
2.60093

>  <SCORE.INTRA.POLAR>
0

>  <SCORE.INTRA.POLAR.0>
0

>  <SCORE.INTRA.REPUL>
0

>  <SCORE.INTRA.REPUL.0>
0

>  <SCORE.INTRA.SOLV>
-0.856983

>  <SCORE.INTRA.SOLV.lig_0>
-33.7882

>  <SCORE.INTRA.VDW>
-0.521836

>  <SCORE.INTRA.VDW.0>
-0.593976

>  <SCORE.INTRA.norm>
-0.0139682

>  <SCORE.RESTR>
0

>  <SCORE.RESTR.CAVITY>
0

>  <SCORE.RESTR.norm>
0

>  <SCORE.SYSTEM>
0

>  <SCORE.SYSTEM.CONST>
0

>  <SCORE.SYSTEM.DIHEDRAL>
0

>  <SCORE.SYSTEM.SOLV>
0

>  <SCORE.SYSTEM.norm>
0

>  <SCORE.heavy>
10

>  <SCORE.norm>
-1.01993

>  <RMSD>
5.664

$$$$
ligand
 OpenBabel11021811473D
libRbt.so/2013.1/901 2013/11/27
 10  9  0  0  0  0  0  0  0  0999 V2000
   27.4487   14.3019   19.0970 N   0  0  0  0  0  0  0  0  0  0  0  0
   28.1022   14.4739   20.4273 C   0  0  2  0  0  0  0  0  0  0  0  0
   27.1037   14.7890   21.5031 C   0  0  0  0  0  0  0  0  0  0  0  0
   27.4666   15.0303   22.6506 O   0  0  0  0  0  0  0  0  0  0  0  0
   29.1987   15.5311   20.3351 C   0  0  0  0  0  0  0  0  0  0  0  0
   30.2931   15.3058   21.7029 S   0  0  0  0  0  0  0  0  0  0  0  0
   31.5027   16.5438   21.3681 C   0  0  0  0  0  0  0  0  0  0  0  0
   32.5771   16.4871   22.4495 C   0  0  0  0  0  0  0  0  0  0  0  0
   33.5490   17.5397   22.2322 N   0  0  0  0  0  0  0  0  0  0  0  0
   25.8936   14.8444   21.2952 O   0  0  0  0  0  0  0  0  0  0  0  0
  2  1  1  6  0  0  0
  2  3  1  0  0  0  0
  2  5  1  0  0  0  0
  3  4  1  0  0  0  0
  3 10  1  0  0  0  0
  5  6  1  0  0  0  0
  6  7  1  0  0  0  0
  7  8  1  0  0  0  0
  8  9  1  0  0  0  0
M  END
>  <CHROM.1>
-176.28314124,-160.29944023,177.25620420,-178.79326671,-177.20915727,29.39458750
15.46596749,21.37081013,-2.87956443,0.30986896,1.36034759

>  <Name>
ligand

>  <RI>
0

>  <Rbt.Current_Directory>
/home/itssahil/PROJECTS/Mol_Feturizer/New_Systems/rnas/3DIG

>  <Rbt.Executable>
rbdock ($Id: //depot/dev/client3/rdock/2013.1/src/exe/rbdock.cxx#4 $)

>  <Rbt.Library>
libRbt.so (2013.1, Build901 2013/11/27)

>  <Rbt.Parameter_File>
/export/apps/rDock/src/rDock_2013.1_src/data/scripts/dock_solv.prm

>  <Rbt.Receptor>
prm/pocket_docking_8.prm

>  <SCORE>
-11.0484

>  <SCORE.INTER>
-10.2036

>  <SCORE.INTER.CONST>
1

>  <SCORE.INTER.POLAR>
0

>  <SCORE.INTER.ROT>
5

>  <SCORE.INTER.SOLV>
16.2799

>  <SCORE.INTER.VDW>
-19.1624

>  <SCORE.INTER.norm>
-1.02036

>  <SCORE.INTRA>
-0.844763

>  <SCORE.INTRA.DIHEDRAL>
0.231733

>  <SCORE.INTRA.DIHEDRAL.0>
2.60093

>  <SCORE.INTRA.POLAR>
0

>  <SCORE.INTRA.POLAR.0>
0

>  <SCORE.INTRA.REPUL>
0

>  <SCORE.INTRA.REPUL.0>
0

>  <SCORE.INTRA.SOLV>
-1.54425

>  <SCORE.INTRA.SOLV.lig_0>
-33.7882

>  <SCORE.INTRA.VDW>
-0.188506

>  <SCORE.INTRA.VDW.0>
-0.593976

>  <SCORE.INTRA.norm>
-0.0844763

>  <SCORE.RESTR>
0

>  <SCORE.RESTR.CAVITY>
0

>  <SCORE.RESTR.norm>
0

>  <SCORE.SYSTEM>
0

>  <SCORE.SYSTEM.CONST>
0

>  <SCORE.SYSTEM.DIHEDRAL>
0

>  <SCORE.SYSTEM.SOLV>
0

>  <SCORE.SYSTEM.norm>
0

>  <SCORE.heavy>
10

>  <SCORE.norm>
-1.10484

>  <RMSD>
5.666

$$$$
ligand
 OpenBabel11021811473D
libRbt.so/2013.1/901 2013/11/27
 10  9  0  0  0  0  0  0  0  0999 V2000
   27.4765   14.2465   19.0644 N   0  0  0  0  0  0  0  0  0  0  0  0
   28.1087   14.4449   20.4014 C   0  0  2  0  0  0  0  0  0  0  0  0
   27.0930   14.7806   21.4547 C   0  0  0  0  0  0  0  0  0  0  0  0
   27.4360   15.0258   22.6074 O   0  0  0  0  0  0  0  0  0  0  0  0
   29.2063   15.5006   20.3060 C   0  0  0  0  0  0  0  0  0  0  0  0
   30.2741   15.3079   21.6996 S   0  0  0  0  0  0  0  0  0  0  0  0
   31.3830   16.6569   21.4578 C   0  0  0  0  0  0  0  0  0  0  0  0
   32.5244   16.5419   22.4632 C   0  0  0  0  0  0  0  0  0  0  0  0
   33.4005   17.6900   22.3453 N   0  0  0  0  0  0  0  0  0  0  0  0
   25.8881   14.8497   21.2222 O   0  0  0  0  0  0  0  0  0  0  0  0
  2  1  1  6  0  0  0
  2  3  1  0  0  0  0
  2  5  1  0  0  0  0
  3  4  1  0  0  0  0
  3 10  1  0  0  0  0
  5  6  1  0  0  0  0
  6  7  1  0  0  0  0
  7  8  1  0  0  0  0
  8  9  1  0  0  0  0
M  END
>  <CHROM.1>
-177.33484660,-160.58128154,-176.55856039,-171.70250825,-176.09088778,29.36171716
15.48392532,21.36634014,-2.83912287,0.31756835,1.31866671

>  <Name>
ligand

>  <RI>
0

>  <Rbt.Current_Directory>
/home/itssahil/PROJECTS/Mol_Feturizer/New_Systems/rnas/3DIG

>  <Rbt.Executable>
rbdock ($Id: //depot/dev/client3/rdock/2013.1/src/exe/rbdock.cxx#4 $)

>  <Rbt.Library>
libRbt.so (2013.1, Build901 2013/11/27)

>  <Rbt.Parameter_File>
/export/apps/rDock/src/rDock_2013.1_src/data/scripts/dock_solv.prm

>  <Rbt.Receptor>
prm/pocket_docking_4.prm

>  <SCORE>
-11.1207

>  <SCORE.INTER>
-10.3314

>  <SCORE.INTER.CONST>
1

>  <SCORE.INTER.POLAR>
0

>  <SCORE.INTER.ROT>
5

>  <SCORE.INTER.SOLV>
16.1752

>  <SCORE.INTER.VDW>
-19.2127

>  <SCORE.INTER.norm>
-1.03314

>  <SCORE.INTRA>
-0.789296

>  <SCORE.INTRA.DIHEDRAL>
0.340797

>  <SCORE.INTRA.DIHEDRAL.0>
2.60093

>  <SCORE.INTRA.POLAR>
0

>  <SCORE.INTRA.POLAR.0>
0

>  <SCORE.INTRA.REPUL>
0

>  <SCORE.INTRA.REPUL.0>
0

>  <SCORE.INTRA.SOLV>
-1.54433

>  <SCORE.INTRA.SOLV.lig_0>
-33.7882

>  <SCORE.INTRA.VDW>
-0.187528

>  <SCORE.INTRA.VDW.0>
-0.593976

>  <SCORE.INTRA.norm>
-0.0789296

>  <SCORE.RESTR>
0

>  <SCORE.RESTR.CAVITY>
0

>  <SCORE.RESTR.norm>
0

>  <SCORE.SYSTEM>
0

>  <SCORE.SYSTEM.CONST>
0

>  <SCORE.SYSTEM.DIHEDRAL>
0

>  <SCORE.SYSTEM.SOLV>
0

>  <SCORE.SYSTEM.norm>
0

>  <SCORE.heavy>
10

>  <SCORE.norm>
-1.11207

>  <RMSD>
5.668

$$$$
ligand
 OpenBabel11021811473D
libRbt.so/2013.1/901 2013/11/27
 10  9  0  0  0  0  0  0  0  0999 V2000
   27.9184   15.3078   23.0306 N   0  0  0  0  0  0  0  0  0  0  0  0
   28.1643   15.4871   21.5698 C   0  0  2  0  0  0  0  0  0  0  0  0
   26.9748   15.0801   20.7495 C   0  0  0  0  0  0  0  0  0  0  0  0
   27.0272   15.0690   19.5232 O   0  0  0  0  0  0  0  0  0  0  0  0
   29.4279   14.7366   21.1594 C   0  0  0  0  0  0  0  0  0  0  0  0
   30.7614   15.3218   22.1586 S   0  0  0  0  0  0  0  0  0  0  0  0
   30.8701   16.9970   21.6202 C   0  0  0  0  0  0  0  0  0  0  0  0
   32.0522   17.6624   22.3178 C   0  0  0  0  0  0  0  0  0  0  0  0
   33.2914   17.0667   21.8603 N   0  0  0  0  0  0  0  0  0  0  0  0
   25.9108   14.7208   21.2490 O   0  0  0  0  0  0  0  0  0  0  0  0
  2  1  1  1  0  0  0
  2  3  1  0  0  0  0
  2  5  1  0  0  0  0
  3  4  1  0  0  0  0
  3 10  1  0  0  0  0
  5  6  1  0  0  0  0
  6  7  1  0  0  0  0
  7  8  1  0  0  0  0
  8  9  1  0  0  0  0
M  END
>  <CHROM.1>
-174.77369846,-56.35219532,-65.13033377,-176.27144242,66.79702606,29.37868803
15.68586642,21.57682730,2.99838781,-0.36757869,-1.39530752

>  <Name>
ligand

>  <RI>
0

>  <Rbt.Current_Directory>
/home/itssahil/PROJECTS/Mol_Feturizer/New_Systems/rnas/3DIG

>  <Rbt.Executable>
rbdock ($Id: //depot/dev/client3/rdock/2013.1/src/exe/rbdock.cxx#4 $)

>  <Rbt.Library>
libRbt.so (2013.1, Build901 2013/11/27)

>  <Rbt.Parameter_File>
/export/apps/rDock/src/rDock_2013.1_src/data/scripts/dock_solv.prm

>  <Rbt.Receptor>
prm/pocket_docking_5.prm

>  <SCORE>
-8.87208

>  <SCORE.INTER>
-9.08203

>  <SCORE.INTER.CONST>
1

>  <SCORE.INTER.POLAR>
0

>  <SCORE.INTER.ROT>
5

>  <SCORE.INTER.SOLV>
17.2477

>  <SCORE.INTER.VDW>
-18.7372

>  <SCORE.INTER.norm>
-0.908203

>  <SCORE.INTRA>
0.209953

>  <SCORE.INTRA.DIHEDRAL>
-0.798324

>  <SCORE.INTRA.DIHEDRAL.0>
2.60093

>  <SCORE.INTRA.POLAR>
0

>  <SCORE.INTRA.POLAR.0>
0

>  <SCORE.INTRA.REPUL>
0

>  <SCORE.INTRA.REPUL.0>
0

>  <SCORE.INTRA.SOLV>
0.864743

>  <SCORE.INTRA.SOLV.lig_0>
-33.7882

>  <SCORE.INTRA.VDW>
0.176743

>  <SCORE.INTRA.VDW.0>
-0.593976

>  <SCORE.INTRA.norm>
0.0209953

>  <SCORE.RESTR>
0

>  <SCORE.RESTR.CAVITY>
0

>  <SCORE.RESTR.norm>
0

>  <SCORE.SYSTEM>
0

>  <SCORE.SYSTEM.CONST>
0

>  <SCORE.SYSTEM.DIHEDRAL>
0

>  <SCORE.SYSTEM.SOLV>
0

>  <SCORE.SYSTEM.norm>
0

>  <SCORE.heavy>
10

>  <SCORE.norm>
-0.887208

>  <RMSD>
5.668

$$$$
ligand
 OpenBabel11021811473D
libRbt.so/2013.1/901 2013/11/27
 10  9  0  0  0  0  0  0  0  0999 V2000
   27.4380   14.2494   19.0711 N   0  0  0  0  0  0  0  0  0  0  0  0
   28.0822   14.4472   20.4024 C   0  0  2  0  0  0  0  0  0  0  0  0
   27.0779   14.7968   21.4619 C   0  0  0  0  0  0  0  0  0  0  0  0
   27.4351   15.0845   22.6005 O   0  0  0  0  0  0  0  0  0  0  0  0
   29.1890   15.4921   20.2942 C   0  0  0  0  0  0  0  0  0  0  0  0
   30.2544   15.3079   21.6907 S   0  0  0  0  0  0  0  0  0  0  0  0
   31.3476   16.6710   21.4569 C   0  0  0  0  0  0  0  0  0  0  0  0
   32.5355   16.5167   22.4015 C   0  0  0  0  0  0  0  0  0  0  0  0
   33.4361   17.6412   22.2460 N   0  0  0  0  0  0  0  0  0  0  0  0
   25.8681   14.8361   21.2481 O   0  0  0  0  0  0  0  0  0  0  0  0
  2  1  1  6  0  0  0
  2  3  1  0  0  0  0
  2  5  1  0  0  0  0
  3  4  1  0  0  0  0
  3 10  1  0  0  0  0
  5  6  1  0  0  0  0
  6  7  1  0  0  0  0
  7  8  1  0  0  0  0
  8  9  1  0  0  0  0
M  END
>  <CHROM.1>
-175.02646740,-161.25840341,-175.05375354,-167.94717582,-178.86733525,29.34842062
15.48412348,21.35237248,-2.85076962,0.31236397,1.31430354

>  <Name>
ligand

>  <RI>
0

>  <Rbt.Current_Directory>
/home/itssahil/PROJECTS/Mol_Feturizer/New_Systems/rnas/3DIG

>  <Rbt.Executable>
rbdock ($Id: //depot/dev/client3/rdock/2013.1/src/exe/rbdock.cxx#4 $)

>  <Rbt.Library>
libRbt.so (2013.1, Build901 2013/11/27)

>  <Rbt.Parameter_File>
/export/apps/rDock/src/rDock_2013.1_src/data/scripts/dock_solv.prm

>  <Rbt.Receptor>
prm/pocket_docking_6.prm

>  <SCORE>
-11.0122

>  <SCORE.INTER>
-10.2886

>  <SCORE.INTER.CONST>
1

>  <SCORE.INTER.POLAR>
0

>  <SCORE.INTER.ROT>
5

>  <SCORE.INTER.SOLV>
16.2802

>  <SCORE.INTER.VDW>
-19.2191

>  <SCORE.INTER.norm>
-1.02886

>  <SCORE.INTRA>
-0.723611

>  <SCORE.INTRA.DIHEDRAL>
0.356367

>  <SCORE.INTRA.DIHEDRAL.0>
2.60093

>  <SCORE.INTRA.POLAR>
0

>  <SCORE.INTRA.POLAR.0>
0

>  <SCORE.INTRA.REPUL>
0

>  <SCORE.INTRA.REPUL.0>
0

>  <SCORE.INTRA.SOLV>
-1.54573

>  <SCORE.INTRA.SOLV.lig_0>
-33.7882

>  <SCORE.INTRA.VDW>
-0.12893

>  <SCORE.INTRA.VDW.0>
-0.593976

>  <SCORE.INTRA.norm>
-0.0723611

>  <SCORE.RESTR>
0

>  <SCORE.RESTR.CAVITY>
0

>  <SCORE.RESTR.norm>
0

>  <SCORE.SYSTEM>
0

>  <SCORE.SYSTEM.CONST>
0

>  <SCORE.SYSTEM.DIHEDRAL>
0

>  <SCORE.SYSTEM.SOLV>
0

>  <SCORE.SYSTEM.norm>
0

>  <SCORE.heavy>
10

>  <SCORE.norm>
-1.10122

>  <RMSD>
5.668

$$$$
ligand
 OpenBabel11021811473D
libRbt.so/2013.1/901 2013/11/27
 10  9  0  0  0  0  0  0  0  0999 V2000
   27.4723   14.2789   19.0737 N   0  0  0  0  0  0  0  0  0  0  0  0
   28.1090   14.4569   20.4113 C   0  0  2  0  0  0  0  0  0  0  0  0
   27.0963   14.7696   21.4744 C   0  0  0  0  0  0  0  0  0  0  0  0
   27.4449   15.0258   22.6231 O   0  0  0  0  0  0  0  0  0  0  0  0
   29.2015   15.5192   20.3298 C   0  0  0  0  0  0  0  0  0  0  0  0
   30.3010   15.2796   21.6910 S   0  0  0  0  0  0  0  0  0  0  0  0
   31.3940   16.6466   21.4800 C   0  0  0  0  0  0  0  0  0  0  0  0
   32.5503   16.5087   22.4654 C   0  0  0  0  0  0  0  0  0  0  0  0
   33.4089   17.6730   22.3814 N   0  0  0  0  0  0  0  0  0  0  0  0
   25.8877   14.8082   21.2543 O   0  0  0  0  0  0  0  0  0  0  0  0
  2  1  1  6  0  0  0
  2  3  1  0  0  0  0
  2  5  1  0  0  0  0
  3  4  1  0  0  0  0
  3 10  1  0  0  0  0
  5  6  1  0  0  0  0
  6  7  1  0  0  0  0
  7  8  1  0  0  0  0
  8  9  1  0  0  0  0
M  END
>  <CHROM.1>
-175.68771325,-159.05492119,-176.19188286,-172.30838223,-175.68495056,29.37146171
15.47335965,21.37994315,-2.84462445,0.31705055,1.32985001

>  <Name>
ligand

>  <RI>
0

>  <Rbt.Current_Directory>
/home/itssahil/PROJECTS/Mol_Feturizer/New_Systems/rnas/3DIG

>  <Rbt.Executable>
rbdock ($Id: //depot/dev/client3/rdock/2013.1/src/exe/rbdock.cxx#4 $)

>  <Rbt.Library>
libRbt.so (2013.1, Build901 2013/11/27)

>  <Rbt.Parameter_File>
/export/apps/rDock/src/rDock_2013.1_src/data/scripts/dock_solv.prm

>  <Rbt.Receptor>
prm/blind_docking_80.prm

>  <SCORE>
-11.1213

>  <SCORE.INTER>
-10.3938

>  <SCORE.INTER.CONST>
1

>  <SCORE.INTER.POLAR>
0

>  <SCORE.INTER.ROT>
5

>  <SCORE.INTER.SOLV>
16.1828

>  <SCORE.INTER.VDW>
-19.2568

>  <SCORE.INTER.norm>
-1.03938

>  <SCORE.INTRA>
-0.727488

>  <SCORE.INTRA.DIHEDRAL>
0.526789

>  <SCORE.INTRA.DIHEDRAL.0>
2.60093

>  <SCORE.INTRA.POLAR>
0

>  <SCORE.INTRA.POLAR.0>
0

>  <SCORE.INTRA.REPUL>
0

>  <SCORE.INTRA.REPUL.0>
0

>  <SCORE.INTRA.SOLV>
-1.5413

>  <SCORE.INTRA.SOLV.lig_0>
-33.7882

>  <SCORE.INTRA.VDW>
-0.220235

>  <SCORE.INTRA.VDW.0>
-0.593976

>  <SCORE.INTRA.norm>
-0.0727488

>  <SCORE.RESTR>
0

>  <SCORE.RESTR.CAVITY>
0

>  <SCORE.RESTR.norm>
0

>  <SCORE.SYSTEM>
0

>  <SCORE.SYSTEM.CONST>
0

>  <SCORE.SYSTEM.DIHEDRAL>
0

>  <SCORE.SYSTEM.SOLV>
0

>  <SCORE.SYSTEM.norm>
0

>  <SCORE.heavy>
10

>  <SCORE.norm>
-1.11213

>  <RMSD>
5.670

$$$$
ligand
 OpenBabel11021811473D
libRbt.so/2013.1/901 2013/11/27
 10  9  0  0  0  0  0  0  0  0999 V2000
   27.4358   14.2865   19.0885 N   0  0  0  0  0  0  0  0  0  0  0  0
   28.0945   14.4658   20.4154 C   0  0  2  0  0  0  0  0  0  0  0  0
   27.1008   14.7923   21.4922 C   0  0  0  0  0  0  0  0  0  0  0  0
   25.8951   14.7832   21.2628 O   0  0  0  0  0  0  0  0  0  0  0  0
   29.1945   15.5183   20.3118 C   0  0  0  0  0  0  0  0  0  0  0  0
   30.2631   15.3327   21.7056 S   0  0  0  0  0  0  0  0  0  0  0  0
   31.3781   16.6742   21.4506 C   0  0  0  0  0  0  0  0  0  0  0  0
   32.5154   16.5676   22.4616 C   0  0  0  0  0  0  0  0  0  0  0  0
   33.3955   17.7117   22.3334 N   0  0  0  0  0  0  0  0  0  0  0  0
   27.4302   15.0593   22.6458 O   0  0  0  0  0  0  0  0  0  0  0  0
  2  1  1  6  0  0  0
  2  3  1  0  0  0  0
  2  5  1  0  0  0  0
  3  4  1  0  0  0  0
  3 10  1  0  0  0  0
  5  6  1  0  0  0  0
  6  7  1  0  0  0  0
  7  8  1  0  0  0  0
  8  9  1  0  0  0  0
M  END
>  <CHROM.1>
5.71266008,-162.11085895,-176.74434930,-172.07313521,-176.01453243,29.35277307
15.49897425,21.38026720,-2.84961651,0.32794225,1.33512081

>  <Name>
ligand

>  <RI>
0

>  <Rbt.Current_Directory>
/home/itssahil/PROJECTS/Mol_Feturizer/New_Systems/rnas/3DIG

>  <Rbt.Executable>
rbdock ($Id: //depot/dev/client3/rdock/2013.1/src/exe/rbdock.cxx#4 $)

>  <Rbt.Library>
libRbt.so (2013.1, Build901 2013/11/27)

>  <Rbt.Parameter_File>
/export/apps/rDock/src/rDock_2013.1_src/data/scripts/dock_solv.prm

>  <Rbt.Receptor>
prm/pocket_docking_7.prm

>  <SCORE>
-11.1523

>  <SCORE.INTER>
-10.2832

>  <SCORE.INTER.CONST>
1

>  <SCORE.INTER.POLAR>
0

>  <SCORE.INTER.ROT>
5

>  <SCORE.INTER.SOLV>
16.1805

>  <SCORE.INTER.VDW>
-19.1823

>  <SCORE.INTER.norm>
-1.02832

>  <SCORE.INTRA>
-0.869097

>  <SCORE.INTRA.DIHEDRAL>
0.144959

>  <SCORE.INTRA.DIHEDRAL.0>
2.60093

>  <SCORE.INTRA.POLAR>
0

>  <SCORE.INTRA.POLAR.0>
0

>  <SCORE.INTRA.REPUL>
0

>  <SCORE.INTRA.REPUL.0>
0

>  <SCORE.INTRA.SOLV>
-1.53464

>  <SCORE.INTRA.SOLV.lig_0>
-33.7882

>  <SCORE.INTRA.VDW>
-0.174255

>  <SCORE.INTRA.VDW.0>
-0.593976

>  <SCORE.INTRA.norm>
-0.0869097

>  <SCORE.RESTR>
0

>  <SCORE.RESTR.CAVITY>
0

>  <SCORE.RESTR.norm>
0

>  <SCORE.SYSTEM>
0

>  <SCORE.SYSTEM.CONST>
0

>  <SCORE.SYSTEM.DIHEDRAL>
0

>  <SCORE.SYSTEM.SOLV>
0

>  <SCORE.SYSTEM.norm>
0

>  <SCORE.heavy>
10

>  <SCORE.norm>
-1.11523

>  <RMSD>
5.670

$$$$
ligand
 OpenBabel11021811473D
libRbt.so/2013.1/901 2013/11/27
 10  9  0  0  0  0  0  0  0  0999 V2000
   27.4423   14.2710   19.0751 N   0  0  0  0  0  0  0  0  0  0  0  0
   28.0809   14.4589   20.4105 C   0  0  2  0  0  0  0  0  0  0  0  0
   27.0710   14.7913   21.4703 C   0  0  0  0  0  0  0  0  0  0  0  0
   27.4199   15.0302   22.6225 O   0  0  0  0  0  0  0  0  0  0  0  0
   29.1816   15.5116   20.3169 C   0  0  0  0  0  0  0  0  0  0  0  0
   30.2378   15.3259   21.7202 S   0  0  0  0  0  0  0  0  0  0  0  0
   31.3942   16.6268   21.4403 C   0  0  0  0  0  0  0  0  0  0  0  0
   32.4914   16.5456   22.4971 C   0  0  0  0  0  0  0  0  0  0  0  0
   33.4495   17.6134   22.2935 N   0  0  0  0  0  0  0  0  0  0  0  0
   25.8651   14.8638   21.2440 O   0  0  0  0  0  0  0  0  0  0  0  0
  2  1  1  6  0  0  0
  2  3  1  0  0  0  0
  2  5  1  0  0  0  0
  3  4  1  0  0  0  0
  3 10  1  0  0  0  0
  5  6  1  0  0  0  0
  6  7  1  0  0  0  0
  7  8  1  0  0  0  0
  8  9  1  0  0  0  0
M  END
>  <CHROM.1>
-177.22064425,-161.60211039,-178.95004498,-174.50719633,-179.53915528,29.34375346
15.48541876,21.37489135,-2.85258238,0.31531418,1.33823123

>  <Name>
ligand

>  <RI>
0

>  <Rbt.Current_Directory>
/home/itssahil/PROJECTS/Mol_Feturizer/New_Systems/rnas/3DIG

>  <Rbt.Executable>
rbdock ($Id: //depot/dev/client3/rdock/2013.1/src/exe/rbdock.cxx#4 $)

>  <Rbt.Library>
libRbt.so (2013.1, Build901 2013/11/27)

>  <Rbt.Parameter_File>
/export/apps/rDock/src/rDock_2013.1_src/data/scripts/dock_solv.prm

>  <Rbt.Receptor>
prm/blind_docking_60.prm

>  <SCORE>
-11.0493

>  <SCORE.INTER>
-10.1527

>  <SCORE.INTER.CONST>
1

>  <SCORE.INTER.POLAR>
0

>  <SCORE.INTER.ROT>
5

>  <SCORE.INTER.SOLV>
16.2356

>  <SCORE.INTER.VDW>
-19.1136

>  <SCORE.INTER.norm>
-1.01527

>  <SCORE.INTRA>
-0.896648

>  <SCORE.INTRA.DIHEDRAL>
0.0883328

>  <SCORE.INTRA.DIHEDRAL.0>
2.60093

>  <SCORE.INTRA.POLAR>
0

>  <SCORE.INTRA.POLAR.0>
0

>  <SCORE.INTRA.REPUL>
0

>  <SCORE.INTRA.REPUL.0>
0

>  <SCORE.INTRA.SOLV>
-1.5469

>  <SCORE.INTRA.SOLV.lig_0>
-33.7882

>  <SCORE.INTRA.VDW>
-0.167367

>  <SCORE.INTRA.VDW.0>
-0.593976

>  <SCORE.INTRA.norm>
-0.0896648

>  <SCORE.RESTR>
0

>  <SCORE.RESTR.CAVITY>
0

>  <SCORE.RESTR.norm>
0

>  <SCORE.SYSTEM>
0

>  <SCORE.SYSTEM.CONST>
0

>  <SCORE.SYSTEM.DIHEDRAL>
0

>  <SCORE.SYSTEM.SOLV>
0

>  <SCORE.SYSTEM.norm>
0

>  <SCORE.heavy>
10

>  <SCORE.norm>
-1.10493

>  <RMSD>
5.673

$$$$
ligand
 OpenBabel11021811473D
libRbt.so/2013.1/901 2013/11/27
 10  9  0  0  0  0  0  0  0  0999 V2000
   29.0338   14.1753   22.5792 N   0  0  0  0  0  0  0  0  0  0  0  0
   28.5786   15.4843   22.0262 C   0  0  2  0  0  0  0  0  0  0  0  0
   27.2961   15.3498   21.2576 C   0  0  0  0  0  0  0  0  0  0  0  0
   26.3814   14.6449   21.6737 O   0  0  0  0  0  0  0  0  0  0  0  0
   29.6887   16.1075   21.1849 C   0  0  0  0  0  0  0  0  0  0  0  0
   31.1138   16.2952   22.2110 S   0  0  0  0  0  0  0  0  0  0  0  0
   32.3441   16.6713   21.0057 C   0  0  0  0  0  0  0  0  0  0  0  0
   33.6513   16.9963   21.7218 C   0  0  0  0  0  0  0  0  0  0  0  0
   33.4716   18.1581   22.5690 N   0  0  0  0  0  0  0  0  0  0  0  0
   27.0850   15.9431   20.2021 O   0  0  0  0  0  0  0  0  0  0  0  0
  2  1  1  6  0  0  0
  2  3  1  0  0  0  0
  2  5  1  0  0  0  0
  3  4  1  0  0  0  0
  3 10  1  0  0  0  0
  5  6  1  0  0  0  0
  6  7  1  0  0  0  0
  7  8  1  0  0  0  0
  8  9  1  0  0  0  0
M  END
>  <CHROM.1>
41.80198553,-57.97958677,168.01780232,174.97378911,-61.52529456,29.96866136
16.01202711,21.69218901,-2.99679151,-0.33134254,-0.85041524

>  <Name>
ligand

>  <RI>
0

>  <Rbt.Current_Directory>
/home/itssahil/PROJECTS/Mol_Feturizer/New_Systems/rnas/3DIG

>  <Rbt.Executable>
rbdock ($Id: //depot/dev/client3/rdock/2013.1/src/exe/rbdock.cxx#4 $)

>  <Rbt.Library>
libRbt.so (2013.1, Build901 2013/11/27)

>  <Rbt.Parameter_File>
/export/apps/rDock/src/rDock_2013.1_src/data/scripts/dock_solv.prm

>  <Rbt.Receptor>
prm/pocket_docking_5.prm

>  <SCORE>
-9.36748

>  <SCORE.INTER>
-9.47092

>  <SCORE.INTER.CONST>
1

>  <SCORE.INTER.POLAR>
0

>  <SCORE.INTER.ROT>
5

>  <SCORE.INTER.SOLV>
17.3819

>  <SCORE.INTER.VDW>
-19.0413

>  <SCORE.INTER.norm>
-0.947092

>  <SCORE.INTRA>
0.103432

>  <SCORE.INTRA.DIHEDRAL>
-0.842614

>  <SCORE.INTRA.DIHEDRAL.0>
2.60093

>  <SCORE.INTRA.POLAR>
0

>  <SCORE.INTRA.POLAR.0>
0

>  <SCORE.INTRA.REPUL>
0

>  <SCORE.INTRA.REPUL.0>
0

>  <SCORE.INTRA.SOLV>
0.344732

>  <SCORE.INTRA.SOLV.lig_0>
-33.7882

>  <SCORE.INTRA.VDW>
0.352373

>  <SCORE.INTRA.VDW.0>
-0.593976

>  <SCORE.INTRA.norm>
0.0103432

>  <SCORE.RESTR>
0

>  <SCORE.RESTR.CAVITY>
0

>  <SCORE.RESTR.norm>
0

>  <SCORE.SYSTEM>
0

>  <SCORE.SYSTEM.CONST>
0

>  <SCORE.SYSTEM.DIHEDRAL>
0

>  <SCORE.SYSTEM.SOLV>
0

>  <SCORE.SYSTEM.norm>
0

>  <SCORE.heavy>
10

>  <SCORE.norm>
-0.936748

>  <RMSD>
5.673

$$$$
ligand
 OpenBabel11021811473D
libRbt.so/2013.1/901 2013/11/27
 10  9  0  0  0  0  0  0  0  0999 V2000
   27.4654   14.2866   19.0789 N   0  0  0  0  0  0  0  0  0  0  0  0
   28.1124   14.4599   20.4123 C   0  0  2  0  0  0  0  0  0  0  0  0
   27.1078   14.7679   21.4843 C   0  0  0  0  0  0  0  0  0  0  0  0
   25.9047   14.7700   21.2408 O   0  0  0  0  0  0  0  0  0  0  0  0
   29.2037   15.5230   20.3264 C   0  0  0  0  0  0  0  0  0  0  0  0
   30.2609   15.3373   21.7289 S   0  0  0  0  0  0  0  0  0  0  0  0
   31.4235   16.6312   21.4425 C   0  0  0  0  0  0  0  0  0  0  0  0
   32.5317   16.5368   22.4864 C   0  0  0  0  0  0  0  0  0  0  0  0
   33.4714   17.6250   22.3051 N   0  0  0  0  0  0  0  0  0  0  0  0
   27.4249   15.0081   22.6473 O   0  0  0  0  0  0  0  0  0  0  0  0
  2  1  1  6  0  0  0
  2  3  1  0  0  0  0
  2  5  1  0  0  0  0
  3  4  1  0  0  0  0
  3 10  1  0  0  0  0
  5  6  1  0  0  0  0
  6  7  1  0  0  0  0
  7  8  1  0  0  0  0
  8  9  1  0  0  0  0
M  END
>  <CHROM.1>
4.60068866,-162.25588269,-179.96119527,-173.74484549,-177.64976828,29.37026970
15.47737272,21.38146186,-2.86008396,0.32752574,1.35954867

>  <Name>
ligand

>  <RI>
0

>  <Rbt.Current_Directory>
/home/itssahil/PROJECTS/Mol_Feturizer/New_Systems/rnas/3DIG

>  <Rbt.Executable>
rbdock ($Id: //depot/dev/client3/rdock/2013.1/src/exe/rbdock.cxx#4 $)

>  <Rbt.Library>
libRbt.so (2013.1, Build901 2013/11/27)

>  <Rbt.Parameter_File>
/export/apps/rDock/src/rDock_2013.1_src/data/scripts/dock_solv.prm

>  <Rbt.Receptor>
prm/pocket_docking_8.prm

>  <SCORE>
-11.1809

>  <SCORE.INTER>
-10.2334

>  <SCORE.INTER.CONST>
1

>  <SCORE.INTER.POLAR>
0

>  <SCORE.INTER.ROT>
5

>  <SCORE.INTER.SOLV>
16.1994

>  <SCORE.INTER.VDW>
-19.1554

>  <SCORE.INTER.norm>
-1.02334

>  <SCORE.INTRA>
-0.947571

>  <SCORE.INTRA.DIHEDRAL>
0.0372431

>  <SCORE.INTRA.DIHEDRAL.0>
2.60093

>  <SCORE.INTRA.POLAR>
0

>  <SCORE.INTRA.POLAR.0>
0

>  <SCORE.INTRA.REPUL>
0

>  <SCORE.INTRA.REPUL.0>
0

>  <SCORE.INTRA.SOLV>
-1.53561

>  <SCORE.INTRA.SOLV.lig_0>
-33.7882

>  <SCORE.INTRA.VDW>
-0.198389

>  <SCORE.INTRA.VDW.0>
-0.593976

>  <SCORE.INTRA.norm>
-0.0947571

>  <SCORE.RESTR>
0

>  <SCORE.RESTR.CAVITY>
0

>  <SCORE.RESTR.norm>
0

>  <SCORE.SYSTEM>
0

>  <SCORE.SYSTEM.CONST>
0

>  <SCORE.SYSTEM.DIHEDRAL>
0

>  <SCORE.SYSTEM.SOLV>
0

>  <SCORE.SYSTEM.norm>
0

>  <SCORE.heavy>
10

>  <SCORE.norm>
-1.11809

>  <RMSD>
5.673

$$$$
ligand
 OpenBabel11021811473D
libRbt.so/2013.1/901 2013/11/27
 10  9  0  0  0  0  0  0  0  0999 V2000
   28.9968   14.1784   22.5765 N   0  0  0  0  0  0  0  0  0  0  0  0
   28.5700   15.4953   22.0195 C   0  0  2  0  0  0  0  0  0  0  0  0
   27.2764   15.3894   21.2652 C   0  0  0  0  0  0  0  0  0  0  0  0
   27.0855   16.0429   20.2439 O   0  0  0  0  0  0  0  0  0  0  0  0
   29.6870   16.0839   21.1626 C   0  0  0  0  0  0  0  0  0  0  0  0
   31.1199   16.2643   22.1791 S   0  0  0  0  0  0  0  0  0  0  0  0
   32.3405   16.6515   20.9674 C   0  0  0  0  0  0  0  0  0  0  0  0
   33.6694   16.9066   21.6717 C   0  0  0  0  0  0  0  0  0  0  0  0
   33.5501   18.0575   22.5440 N   0  0  0  0  0  0  0  0  0  0  0  0
   26.3632   14.6413   21.6076 O   0  0  0  0  0  0  0  0  0  0  0  0
  2  1  1  6  0  0  0
  2  3  1  0  0  0  0
  2  5  1  0  0  0  0
  3  4  1  0  0  0  0
  3 10  1  0  0  0  0
  5  6  1  0  0  0  0
  6  7  1  0  0  0  0
  7  8  1  0  0  0  0
  8  9  1  0  0  0  0
M  END
>  <CHROM.1>
-142.75106454,-58.84747128,169.85026755,177.64423235,-62.89912240,29.97070036
15.99909292,21.67115978,-2.99814049,-0.31185200,-0.83116866

>  <Name>
ligand

>  <RI>
0

>  <Rbt.Current_Directory>
/home/itssahil/PROJECTS/Mol_Feturizer/New_Systems/rnas/3DIG

>  <Rbt.Executable>
rbdock ($Id: //depot/dev/client3/rdock/2013.1/src/exe/rbdock.cxx#4 $)

>  <Rbt.Library>
libRbt.so (2013.1, Build901 2013/11/27)

>  <Rbt.Parameter_File>
/export/apps/rDock/src/rDock_2013.1_src/data/scripts/dock_solv.prm

>  <Rbt.Receptor>
prm/pocket_docking_3.prm

>  <SCORE>
-9.17376

>  <SCORE.INTER>
-9.33724

>  <SCORE.INTER.CONST>
1

>  <SCORE.INTER.POLAR>
0

>  <SCORE.INTER.ROT>
5

>  <SCORE.INTER.SOLV>
17.4231

>  <SCORE.INTER.VDW>
-18.9659

>  <SCORE.INTER.norm>
-0.933724

>  <SCORE.INTRA>
0.163474

>  <SCORE.INTRA.DIHEDRAL>
-0.842311

>  <SCORE.INTRA.DIHEDRAL.0>
2.60093

>  <SCORE.INTRA.POLAR>
0

>  <SCORE.INTRA.POLAR.0>
0

>  <SCORE.INTRA.REPUL>
0

>  <SCORE.INTRA.REPUL.0>
0

>  <SCORE.INTRA.SOLV>
0.278965

>  <SCORE.INTRA.SOLV.lig_0>
-33.7882

>  <SCORE.INTRA.VDW>
0.445146

>  <SCORE.INTRA.VDW.0>
-0.593976

>  <SCORE.INTRA.norm>
0.0163474

>  <SCORE.RESTR>
0

>  <SCORE.RESTR.CAVITY>
0

>  <SCORE.RESTR.norm>
0

>  <SCORE.SYSTEM>
0

>  <SCORE.SYSTEM.CONST>
0

>  <SCORE.SYSTEM.DIHEDRAL>
0

>  <SCORE.SYSTEM.SOLV>
0

>  <SCORE.SYSTEM.norm>
0

>  <SCORE.heavy>
10

>  <SCORE.norm>
-0.917376

>  <RMSD>
5.674

$$$$
ligand
 OpenBabel11021811473D
libRbt.so/2013.1/901 2013/11/27
 10  9  0  0  0  0  0  0  0  0999 V2000
   27.4534   14.2743   19.0695 N   0  0  0  0  0  0  0  0  0  0  0  0
   28.0838   14.4650   20.4084 C   0  0  2  0  0  0  0  0  0  0  0  0
   27.0683   14.8058   21.4600 C   0  0  0  0  0  0  0  0  0  0  0  0
   27.4094   15.0363   22.6163 O   0  0  0  0  0  0  0  0  0  0  0  0
   29.1894   15.5129   20.3179 C   0  0  0  0  0  0  0  0  0  0  0  0
   30.2773   15.2812   21.6898 S   0  0  0  0  0  0  0  0  0  0  0  0
   31.3856   16.6339   21.4674 C   0  0  0  0  0  0  0  0  0  0  0  0
   32.4975   16.5350   22.5070 C   0  0  0  0  0  0  0  0  0  0  0  0
   33.3893   17.6703   22.3821 N   0  0  0  0  0  0  0  0  0  0  0  0
   25.8654   14.8937   21.2229 O   0  0  0  0  0  0  0  0  0  0  0  0
  2  1  1  6  0  0  0
  2  3  1  0  0  0  0
  2  5  1  0  0  0  0
  3  4  1  0  0  0  0
  3 10  1  0  0  0  0
  5  6  1  0  0  0  0
  6  7  1  0  0  0  0
  7  8  1  0  0  0  0
  8  9  1  0  0  0  0
M  END
>  <CHROM.1>
-177.87386469,-159.06800053,-176.06361259,-175.01053430,-177.47814465,29.34685867
15.48673660,21.37573639,-2.83684120,0.30757580,1.31685260

>  <Name>
ligand

>  <RI>
0

>  <Rbt.Current_Directory>
/home/itssahil/PROJECTS/Mol_Feturizer/New_Systems/rnas/3DIG

>  <Rbt.Executable>
rbdock ($Id: //depot/dev/client3/rdock/2013.1/src/exe/rbdock.cxx#4 $)

>  <Rbt.Library>
libRbt.so (2013.1, Build901 2013/11/27)

>  <Rbt.Parameter_File>
/export/apps/rDock/src/rDock_2013.1_src/data/scripts/dock_solv.prm

>  <Rbt.Receptor>
prm/pocket_docking_6.prm

>  <SCORE>
-11.1314

>  <SCORE.INTER>
-10.3159

>  <SCORE.INTER.CONST>
1

>  <SCORE.INTER.POLAR>
0

>  <SCORE.INTER.ROT>
5

>  <SCORE.INTER.SOLV>
16.1894

>  <SCORE.INTER.VDW>
-19.207

>  <SCORE.INTER.norm>
-1.03159

>  <SCORE.INTRA>
-0.815479

>  <SCORE.INTRA.DIHEDRAL>
0.42014

>  <SCORE.INTRA.DIHEDRAL.0>
2.60093

>  <SCORE.INTRA.POLAR>
0

>  <SCORE.INTRA.POLAR.0>
0

>  <SCORE.INTRA.REPUL>
0

>  <SCORE.INTRA.REPUL.0>
0

>  <SCORE.INTRA.SOLV>
-1.54277

>  <SCORE.INTRA.SOLV.lig_0>
-33.7882

>  <SCORE.INTRA.VDW>
-0.254163

>  <SCORE.INTRA.VDW.0>
-0.593976

>  <SCORE.INTRA.norm>
-0.0815479

>  <SCORE.RESTR>
0

>  <SCORE.RESTR.CAVITY>
0

>  <SCORE.RESTR.norm>
0

>  <SCORE.SYSTEM>
0

>  <SCORE.SYSTEM.CONST>
0

>  <SCORE.SYSTEM.DIHEDRAL>
0

>  <SCORE.SYSTEM.SOLV>
0

>  <SCORE.SYSTEM.norm>
0

>  <SCORE.heavy>
10

>  <SCORE.norm>
-1.11314

>  <RMSD>
5.674

$$$$
ligand
 OpenBabel11021811473D
libRbt.so/2013.1/901 2013/11/27
 10  9  0  0  0  0  0  0  0  0999 V2000
   27.5020   14.2690   18.9584 N   0  0  0  0  0  0  0  0  0  0  0  0
   28.1019   14.4489   20.3127 C   0  0  2  0  0  0  0  0  0  0  0  0
   27.0609   14.7673   21.3464 C   0  0  0  0  0  0  0  0  0  0  0  0
   27.3647   14.9019   22.5280 O   0  0  0  0  0  0  0  0  0  0  0  0
   29.1992   15.5080   20.2587 C   0  0  0  0  0  0  0  0  0  0  0  0
   30.2377   15.2930   21.6710 S   0  0  0  0  0  0  0  0  0  0  0  0
   31.3772   16.6200   21.4507 C   0  0  0  0  0  0  0  0  0  0  0  0
   32.4528   16.5289   22.5286 C   0  0  0  0  0  0  0  0  0  0  0  0
   33.3803   17.6338   22.3917 N   0  0  0  0  0  0  0  0  0  0  0  0
   25.8743   14.9301   21.0707 O   0  0  0  0  0  0  0  0  0  0  0  0
  2  1  1  6  0  0  0
  2  3  1  0  0  0  0
  2  5  1  0  0  0  0
  3  4  1  0  0  0  0
  3 10  1  0  0  0  0
  5  6  1  0  0  0  0
  6  7  1  0  0  0  0
  7  8  1  0  0  0  0
  8  9  1  0  0  0  0
M  END
>  <CHROM.1>
177.40310951,-160.36864055,-178.11834809,-175.02825829,-178.33062936,29.33587025
15.46918349,21.31767097,-2.82559607,0.31437712,1.34621918

>  <Name>
ligand

>  <RI>
0

>  <Rbt.Current_Directory>
/home/itssahil/PROJECTS/Mol_Feturizer/New_Systems/rnas/3DIG

>  <Rbt.Executable>
rbdock ($Id: //depot/dev/client3/rdock/2013.1/src/exe/rbdock.cxx#4 $)

>  <Rbt.Library>
libRbt.so (2013.1, Build901 2013/11/27)

>  <Rbt.Parameter_File>
/export/apps/rDock/src/rDock_2013.1_src/data/scripts/dock_solv.prm

>  <Rbt.Receptor>
prm/blind_docking_80.prm

>  <SCORE>
-10.9719

>  <SCORE.INTER>
-10.014

>  <SCORE.INTER.CONST>
1

>  <SCORE.INTER.POLAR>
0

>  <SCORE.INTER.ROT>
5

>  <SCORE.INTER.SOLV>
16.2012

>  <SCORE.INTER.VDW>
-19.0097

>  <SCORE.INTER.norm>
-1.0014

>  <SCORE.INTRA>
-0.957937

>  <SCORE.INTRA.DIHEDRAL>
0.221022

>  <SCORE.INTRA.DIHEDRAL.0>
2.60093

>  <SCORE.INTRA.POLAR>
0

>  <SCORE.INTRA.POLAR.0>
0

>  <SCORE.INTRA.REPUL>
0

>  <SCORE.INTRA.REPUL.0>
0

>  <SCORE.INTRA.SOLV>
-1.54675

>  <SCORE.INTRA.SOLV.lig_0>
-33.7882

>  <SCORE.INTRA.VDW>
-0.295076

>  <SCORE.INTRA.VDW.0>
-0.593976

>  <SCORE.INTRA.norm>
-0.0957937

>  <SCORE.RESTR>
0

>  <SCORE.RESTR.CAVITY>
0

>  <SCORE.RESTR.norm>
0

>  <SCORE.SYSTEM>
0

>  <SCORE.SYSTEM.CONST>
0

>  <SCORE.SYSTEM.DIHEDRAL>
0

>  <SCORE.SYSTEM.SOLV>
0

>  <SCORE.SYSTEM.norm>
0

>  <SCORE.heavy>
10

>  <SCORE.norm>
-1.09719

>  <RMSD>
5.682

$$$$
ligand
 OpenBabel11021811473D
libRbt.so/2013.1/901 2013/11/27
 10  9  0  0  0  0  0  0  0  0999 V2000
   26.3679   15.4902   20.3236 N   0  0  0  0  0  0  0  0  0  0  0  0
   27.7884   15.2585   19.9301 C   0  0  2  0  0  0  0  0  0  0  0  0
   27.8983   14.6895   18.5453 C   0  0  0  0  0  0  0  0  0  0  0  0
   28.5453   15.2653   17.6755 O   0  0  0  0  0  0  0  0  0  0  0  0
   28.4784   14.3782   20.9682 C   0  0  0  0  0  0  0  0  0  0  0  0
   28.9684   15.4055   22.3188 S   0  0  0  0  0  0  0  0  0  0  0  0
   30.4120   16.1659   21.6513 C   0  0  0  0  0  0  0  0  0  0  0  0
   31.1005   16.9660   22.7526 C   0  0  0  0  0  0  0  0  0  0  0  0
   32.3306   17.5408   22.2464 N   0  0  0  0  0  0  0  0  0  0  0  0
   27.3768   13.6260   18.2172 O   0  0  0  0  0  0  0  0  0  0  0  0
  2  1  1  1  0  0  0
  2  3  1  0  0  0  0
  2  5  1  0  0  0  0
  3  4  1  0  0  0  0
  3 10  1  0  0  0  0
  5  6  1  0  0  0  0
  6  7  1  0  0  0  0
  7  8  1  0  0  0  0
  8  9  1  0  0  0  0
M  END
>  <CHROM.1>
122.22444264,-81.41176158,-77.96804147,-172.44427479,176.86934960,28.92756698
15.45582696,20.63820788,2.34542358,-0.46887957,-1.67586746

>  <Name>
ligand

>  <RI>
0

>  <Rbt.Current_Directory>
/home/itssahil/PROJECTS/Mol_Feturizer/New_Systems/rnas/3DIG

>  <Rbt.Executable>
rbdock ($Id: //depot/dev/client3/rdock/2013.1/src/exe/rbdock.cxx#4 $)

>  <Rbt.Library>
libRbt.so (2013.1, Build901 2013/11/27)

>  <Rbt.Parameter_File>
/export/apps/rDock/src/rDock_2013.1_src/data/scripts/dock_solv.prm

>  <Rbt.Receptor>
prm/pocket_docking_4.prm

>  <SCORE>
-10.3099

>  <SCORE.INTER>
-9.93155

>  <SCORE.INTER.CONST>
1

>  <SCORE.INTER.POLAR>
0

>  <SCORE.INTER.ROT>
5

>  <SCORE.INTER.SOLV>
16.7786

>  <SCORE.INTER.VDW>
-19.1472

>  <SCORE.INTER.norm>
-0.993155

>  <SCORE.INTRA>
-0.378361

>  <SCORE.INTRA.DIHEDRAL>
0.950704

>  <SCORE.INTRA.DIHEDRAL.0>
2.60093

>  <SCORE.INTRA.POLAR>
0

>  <SCORE.INTRA.POLAR.0>
0

>  <SCORE.INTRA.REPUL>
0

>  <SCORE.INTRA.REPUL.0>
0

>  <SCORE.INTRA.SOLV>
-0.754794

>  <SCORE.INTRA.SOLV.lig_0>
-33.7882

>  <SCORE.INTRA.VDW>
-0.476316

>  <SCORE.INTRA.VDW.0>
-0.593976

>  <SCORE.INTRA.norm>
-0.0378361

>  <SCORE.RESTR>
0

>  <SCORE.RESTR.CAVITY>
0

>  <SCORE.RESTR.norm>
0

>  <SCORE.SYSTEM>
0

>  <SCORE.SYSTEM.CONST>
0

>  <SCORE.SYSTEM.DIHEDRAL>
0

>  <SCORE.SYSTEM.SOLV>
0

>  <SCORE.SYSTEM.norm>
0

>  <SCORE.heavy>
10

>  <SCORE.norm>
-1.03099

>  <RMSD>
5.683

$$$$
ligand
 OpenBabel11021811473D
libRbt.so/2013.1/901 2013/11/27
 10  9  0  0  0  0  0  0  0  0999 V2000
   26.1812   14.9073   20.9390 N   0  0  0  0  0  0  0  0  0  0  0  0
   27.3846   15.6252   20.4265 C   0  0  2  0  0  0  0  0  0  0  0  0
   27.8670   15.0489   19.1270 C   0  0  0  0  0  0  0  0  0  0  0  0
   27.5804   13.9010   18.8001 O   0  0  0  0  0  0  0  0  0  0  0  0
   28.4778   15.6334   21.4911 C   0  0  0  0  0  0  0  0  0  0  0  0
   29.7371   16.7587   20.9744 S   0  0  0  0  0  0  0  0  0  0  0  0
   30.9684   16.4660   22.2016 C   0  0  0  0  0  0  0  0  0  0  0  0
   32.2498   17.1868   21.7947 C   0  0  0  0  0  0  0  0  0  0  0  0
   33.2671   16.9897   22.8076 N   0  0  0  0  0  0  0  0  0  0  0  0
   28.5428   15.6877   18.3233 O   0  0  0  0  0  0  0  0  0  0  0  0
  2  1  1  1  0  0  0
  2  3  1  0  0  0  0
  2  5  1  0  0  0  0
  3  4  1  0  0  0  0
  3 10  1  0  0  0  0
  5  6  1  0  0  0  0
  6  7  1  0  0  0  0
  7  8  1  0  0  0  0
  8  9  1  0  0  0  0
M  END
>  <CHROM.1>
-21.98724944,-168.70611206,-172.99312345,170.65781469,178.49135994,29.28343979
15.91228413,20.68932497,2.59298001,-0.30928864,-1.77484167

>  <Name>
ligand

>  <RI>
0

>  <Rbt.Current_Directory>
/home/itssahil/PROJECTS/Mol_Feturizer/New_Systems/rnas/3DIG

>  <Rbt.Executable>
rbdock ($Id: //depot/dev/client3/rdock/2013.1/src/exe/rbdock.cxx#4 $)

>  <Rbt.Library>
libRbt.so (2013.1, Build901 2013/11/27)

>  <Rbt.Parameter_File>
/export/apps/rDock/src/rDock_2013.1_src/data/scripts/dock_solv.prm

>  <Rbt.Receptor>
prm/pocket_docking_7.prm

>  <SCORE>
-10.1623

>  <SCORE.INTER>
-8.79645

>  <SCORE.INTER.CONST>
1

>  <SCORE.INTER.POLAR>
0

>  <SCORE.INTER.ROT>
5

>  <SCORE.INTER.SOLV>
19.2797

>  <SCORE.INTER.VDW>
-19.2242

>  <SCORE.INTER.norm>
-0.879645

>  <SCORE.INTRA>
-1.36583

>  <SCORE.INTRA.DIHEDRAL>
-0.371467

>  <SCORE.INTRA.DIHEDRAL.0>
2.60093

>  <SCORE.INTRA.POLAR>
0

>  <SCORE.INTRA.POLAR.0>
0

>  <SCORE.INTRA.REPUL>
0

>  <SCORE.INTRA.REPUL.0>
0

>  <SCORE.INTRA.SOLV>
-1.55164

>  <SCORE.INTRA.SOLV.lig_0>
-33.7882

>  <SCORE.INTRA.VDW>
-0.404277

>  <SCORE.INTRA.VDW.0>
-0.593976

>  <SCORE.INTRA.norm>
-0.136583

>  <SCORE.RESTR>
0

>  <SCORE.RESTR.CAVITY>
0

>  <SCORE.RESTR.norm>
0

>  <SCORE.SYSTEM>
0

>  <SCORE.SYSTEM.CONST>
0

>  <SCORE.SYSTEM.DIHEDRAL>
0

>  <SCORE.SYSTEM.SOLV>
0

>  <SCORE.SYSTEM.norm>
0

>  <SCORE.heavy>
10

>  <SCORE.norm>
-1.01623

>  <RMSD>
5.683

$$$$
ligand
 OpenBabel11021811473D
libRbt.so/2013.1/901 2013/11/27
 10  9  0  0  0  0  0  0  0  0999 V2000
   28.8453   14.7388   19.5322 N   0  0  0  0  0  0  0  0  0  0  0  0
   28.3925   14.6084   20.9479 C   0  0  2  0  0  0  0  0  0  0  0  0
   26.9280   14.9037   21.0949 C   0  0  0  0  0  0  0  0  0  0  0  0
   26.3169   15.5167   20.2246 O   0  0  0  0  0  0  0  0  0  0  0  0
   29.2490   15.4910   21.8511 C   0  0  0  0  0  0  0  0  0  0  0  0
   30.9234   14.9441   21.7229 S   0  0  0  0  0  0  0  0  0  0  0  0
   31.7392   16.1295   22.7413 C   0  0  0  0  0  0  0  0  0  0  0  0
   32.7027   16.9389   21.8790 C   0  0  0  0  0  0  0  0  0  0  0  0
   33.3500   17.9537   22.6858 N   0  0  0  0  0  0  0  0  0  0  0  0
   26.2669   14.5365   22.0638 O   0  0  0  0  0  0  0  0  0  0  0  0
  2  1  1  6  0  0  0
  2  3  1  0  0  0  0
  2  5  1  0  0  0  0
  3  4  1  0  0  0  0
  3 10  1  0  0  0  0
  5  6  1  0  0  0  0
  6  7  1  0  0  0  0
  7  8  1  0  0  0  0
  8  9  1  0  0  0  0
M  END
>  <CHROM.1>
-18.10836418,-60.86502530,176.74985020,-116.49646077,177.92579442,29.59569479
15.50535971,21.50256912,-2.79121044,0.18291131,1.10195331

>  <Name>
ligand

>  <RI>
0

>  <Rbt.Current_Directory>
/home/itssahil/PROJECTS/Mol_Feturizer/New_Systems/rnas/3DIG

>  <Rbt.Executable>
rbdock ($Id: //depot/dev/client3/rdock/2013.1/src/exe/rbdock.cxx#4 $)

>  <Rbt.Library>
libRbt.so (2013.1, Build901 2013/11/27)

>  <Rbt.Parameter_File>
/export/apps/rDock/src/rDock_2013.1_src/data/scripts/dock_solv.prm

>  <Rbt.Receptor>
prm/pocket_docking_3.prm

>  <SCORE>
-11.1586

>  <SCORE.INTER>
-11.1638

>  <SCORE.INTER.CONST>
1

>  <SCORE.INTER.POLAR>
0

>  <SCORE.INTER.ROT>
5

>  <SCORE.INTER.SOLV>
13.5205

>  <SCORE.INTER.VDW>
-18.8827

>  <SCORE.INTER.norm>
-1.11638

>  <SCORE.INTRA>
0.00519468

>  <SCORE.INTRA.DIHEDRAL>
1.35473

>  <SCORE.INTRA.DIHEDRAL.0>
2.60093

>  <SCORE.INTRA.POLAR>
0

>  <SCORE.INTRA.POLAR.0>
0

>  <SCORE.INTRA.REPUL>
0

>  <SCORE.INTRA.REPUL.0>
0

>  <SCORE.INTRA.SOLV>
-0.706412

>  <SCORE.INTRA.SOLV.lig_0>
-33.7882

>  <SCORE.INTRA.VDW>
-0.318963

>  <SCORE.INTRA.VDW.0>
-0.593976

>  <SCORE.INTRA.norm>
0.000519468

>  <SCORE.RESTR>
0

>  <SCORE.RESTR.CAVITY>
0

>  <SCORE.RESTR.norm>
0

>  <SCORE.SYSTEM>
0

>  <SCORE.SYSTEM.CONST>
0

>  <SCORE.SYSTEM.DIHEDRAL>
0

>  <SCORE.SYSTEM.SOLV>
0

>  <SCORE.SYSTEM.norm>
0

>  <SCORE.heavy>
10

>  <SCORE.norm>
-1.11586

>  <RMSD>
5.685

$$$$
ligand
 OpenBabel11021811473D
libRbt.so/2013.1/901 2013/11/27
 10  9  0  0  0  0  0  0  0  0999 V2000
   29.0874   15.3564   20.0195 N   0  0  0  0  0  0  0  0  0  0  0  0
   28.3725   14.8441   21.2248 C   0  0  2  0  0  0  0  0  0  0  0  0
   26.8824   14.9484   21.0761 C   0  0  0  0  0  0  0  0  0  0  0  0
   26.1288   14.4884   21.9289 O   0  0  0  0  0  0  0  0  0  0  0  0
   28.8761   15.5633   22.4728 C   0  0  0  0  0  0  0  0  0  0  0  0
   30.5893   15.1822   22.6707 S   0  0  0  0  0  0  0  0  0  0  0  0
   31.3243   16.7295   22.2542 C   0  0  0  0  0  0  0  0  0  0  0  0
   32.8326   16.6287   22.4592 C   0  0  0  0  0  0  0  0  0  0  0  0
   33.4577   17.8961   22.1384 N   0  0  0  0  0  0  0  0  0  0  0  0
   26.3440   15.5085   20.1237 O   0  0  0  0  0  0  0  0  0  0  0  0
  2  1  1  6  0  0  0
  2  3  1  0  0  0  0
  2  5  1  0  0  0  0
  3  4  1  0  0  0  0
  3 10  1  0  0  0  0
  5  6  1  0  0  0  0
  6  7  1  0  0  0  0
  7  8  1  0  0  0  0
  8  9  1  0  0  0  0
M  END
>  <CHROM.1>
174.81434183,-62.99829734,108.71582451,176.21002418,-179.29420900,29.48498732
15.65149814,21.74866234,-3.09494618,0.38097806,2.07420248

>  <Name>
ligand

>  <RI>
0

>  <Rbt.Current_Directory>
/home/itssahil/PROJECTS/Mol_Feturizer/New_Systems/rnas/3DIG

>  <Rbt.Executable>
rbdock ($Id: //depot/dev/client3/rdock/2013.1/src/exe/rbdock.cxx#4 $)

>  <Rbt.Library>
libRbt.so (2013.1, Build901 2013/11/27)

>  <Rbt.Parameter_File>
/export/apps/rDock/src/rDock_2013.1_src/data/scripts/dock_solv.prm

>  <Rbt.Receptor>
prm/pocket_docking_4.prm

>  <SCORE>
-11.4168

>  <SCORE.INTER>
-11.697

>  <SCORE.INTER.CONST>
1

>  <SCORE.INTER.POLAR>
0

>  <SCORE.INTER.ROT>
5

>  <SCORE.INTER.SOLV>
12.3715

>  <SCORE.INTER.VDW>
-18.8552

>  <SCORE.INTER.norm>
-1.1697

>  <SCORE.INTRA>
0.280173

>  <SCORE.INTRA.DIHEDRAL>
1.13402

>  <SCORE.INTRA.DIHEDRAL.0>
2.60093

>  <SCORE.INTRA.POLAR>
0

>  <SCORE.INTRA.POLAR.0>
0

>  <SCORE.INTRA.REPUL>
0

>  <SCORE.INTRA.REPUL.0>
0

>  <SCORE.INTRA.SOLV>
0.105493

>  <SCORE.INTRA.SOLV.lig_0>
-33.7882

>  <SCORE.INTRA.VDW>
-0.339582

>  <SCORE.INTRA.VDW.0>
-0.593976

>  <SCORE.INTRA.norm>
0.0280173

>  <SCORE.RESTR>
0

>  <SCORE.RESTR.CAVITY>
0

>  <SCORE.RESTR.norm>
0

>  <SCORE.SYSTEM>
0

>  <SCORE.SYSTEM.CONST>
0

>  <SCORE.SYSTEM.DIHEDRAL>
0

>  <SCORE.SYSTEM.SOLV>
0

>  <SCORE.SYSTEM.norm>
0

>  <SCORE.heavy>
10

>  <SCORE.norm>
-1.14168

>  <RMSD>
5.687

$$$$
ligand
 OpenBabel11021811473D
libRbt.so/2013.1/901 2013/11/27
 10  9  0  0  0  0  0  0  0  0999 V2000
   26.1980   14.8475   20.9516 N   0  0  0  0  0  0  0  0  0  0  0  0
   27.3868   15.5970   20.4501 C   0  0  2  0  0  0  0  0  0  0  0  0
   27.8661   15.0650   19.1307 C   0  0  0  0  0  0  0  0  0  0  0  0
   27.5552   13.9393   18.7530 O   0  0  0  0  0  0  0  0  0  0  0  0
   28.4888   15.5902   21.5056 C   0  0  0  0  0  0  0  0  0  0  0  0
   29.6638   16.8377   21.0786 S   0  0  0  0  0  0  0  0  0  0  0  0
   30.9719   16.4595   22.1984 C   0  0  0  0  0  0  0  0  0  0  0  0
   32.1058   17.4574   21.9854 C   0  0  0  0  0  0  0  0  0  0  0  0
   33.2246   17.1200   22.8423 N   0  0  0  0  0  0  0  0  0  0  0  0
   28.5633   15.7211   18.3599 O   0  0  0  0  0  0  0  0  0  0  0  0
  2  1  1  1  0  0  0
  2  3  1  0  0  0  0
  2  5  1  0  0  0  0
  3  4  1  0  0  0  0
  3 10  1  0  0  0  0
  5  6  1  0  0  0  0
  6  7  1  0  0  0  0
  7  8  1  0  0  0  0
  8  9  1  0  0  0  0
M  END
>  <CHROM.1>
-19.49843386,-164.29101176,-169.38440857,-179.64646148,-176.75383565,29.25464568
15.95999271,20.73345136,2.57596387,-0.34527047,-1.76539146

>  <Name>
ligand

>  <RI>
0

>  <Rbt.Current_Directory>
/home/itssahil/PROJECTS/Mol_Feturizer/New_Systems/rnas/3DIG

>  <Rbt.Executable>
rbdock ($Id: //depot/dev/client3/rdock/2013.1/src/exe/rbdock.cxx#4 $)

>  <Rbt.Library>
libRbt.so (2013.1, Build901 2013/11/27)

>  <Rbt.Parameter_File>
/export/apps/rDock/src/rDock_2013.1_src/data/scripts/dock_solv.prm

>  <Rbt.Receptor>
prm/blind_docking_60.prm

>  <SCORE>
-10.0936

>  <SCORE.INTER>
-8.86374

>  <SCORE.INTER.CONST>
1

>  <SCORE.INTER.POLAR>
0

>  <SCORE.INTER.ROT>
5

>  <SCORE.INTER.SOLV>
19.2413

>  <SCORE.INTER.VDW>
-19.2562

>  <SCORE.INTER.norm>
-0.886374

>  <SCORE.INTRA>
-1.22983

>  <SCORE.INTRA.DIHEDRAL>
0.00926636

>  <SCORE.INTRA.DIHEDRAL.0>
2.60093

>  <SCORE.INTRA.POLAR>
0

>  <SCORE.INTRA.POLAR.0>
0

>  <SCORE.INTRA.REPUL>
0

>  <SCORE.INTRA.REPUL.0>
0

>  <SCORE.INTRA.SOLV>
-1.54618

>  <SCORE.INTRA.SOLV.lig_0>
-33.7882

>  <SCORE.INTRA.VDW>
-0.461377

>  <SCORE.INTRA.VDW.0>
-0.593976

>  <SCORE.INTRA.norm>
-0.122983

>  <SCORE.RESTR>
0

>  <SCORE.RESTR.CAVITY>
0

>  <SCORE.RESTR.norm>
0

>  <SCORE.SYSTEM>
0

>  <SCORE.SYSTEM.CONST>
0

>  <SCORE.SYSTEM.DIHEDRAL>
0

>  <SCORE.SYSTEM.SOLV>
0

>  <SCORE.SYSTEM.norm>
0

>  <SCORE.heavy>
10

>  <SCORE.norm>
-1.00936

>  <RMSD>
5.689

$$$$
ligand
 OpenBabel11021811473D
libRbt.so/2013.1/901 2013/11/27
 10  9  0  0  0  0  0  0  0  0999 V2000
   26.3857   15.5484   20.3067 N   0  0  0  0  0  0  0  0  0  0  0  0
   27.7910   15.2283   19.9206 C   0  0  2  0  0  0  0  0  0  0  0  0
   27.8693   14.6262   18.5477 C   0  0  0  0  0  0  0  0  0  0  0  0
   28.5539   15.1428   17.6696 O   0  0  0  0  0  0  0  0  0  0  0  0
   28.4291   14.3314   20.9774 C   0  0  0  0  0  0  0  0  0  0  0  0
   28.9541   15.3535   22.3187 S   0  0  0  0  0  0  0  0  0  0  0  0
   30.4271   16.0519   21.6476 C   0  0  0  0  0  0  0  0  0  0  0  0
   31.1588   16.8104   22.7505 C   0  0  0  0  0  0  0  0  0  0  0  0
   32.3910   17.3672   22.2295 N   0  0  0  0  0  0  0  0  0  0  0  0
   27.2829   13.5913   18.2382 O   0  0  0  0  0  0  0  0  0  0  0  0
  2  1  1  1  0  0  0
  2  3  1  0  0  0  0
  2  5  1  0  0  0  0
  3  4  1  0  0  0  0
  3 10  1  0  0  0  0
  5  6  1  0  0  0  0
  6  7  1  0  0  0  0
  7  8  1  0  0  0  0
  8  9  1  0  0  0  0
M  END
>  <CHROM.1>
122.59951870,-80.58027875,-77.27483845,-171.17061473,178.63530966,28.92315110
15.38427827,20.63643743,2.34397765,-0.42750979,-1.69017596

>  <Name>
ligand

>  <RI>
0

>  <Rbt.Current_Directory>
/home/itssahil/PROJECTS/Mol_Feturizer/New_Systems/rnas/3DIG

>  <Rbt.Executable>
rbdock ($Id: //depot/dev/client3/rdock/2013.1/src/exe/rbdock.cxx#4 $)

>  <Rbt.Library>
libRbt.so (2013.1, Build901 2013/11/27)

>  <Rbt.Parameter_File>
/export/apps/rDock/src/rDock_2013.1_src/data/scripts/dock_solv.prm

>  <Rbt.Receptor>
prm/pocket_docking_8.prm

>  <SCORE>
-10.2713

>  <SCORE.INTER>
-9.84761

>  <SCORE.INTER.CONST>
1

>  <SCORE.INTER.POLAR>
0

>  <SCORE.INTER.ROT>
5

>  <SCORE.INTER.SOLV>
16.5332

>  <SCORE.INTER.VDW>
-19.0095

>  <SCORE.INTER.norm>
-0.984761

>  <SCORE.INTRA>
-0.423726

>  <SCORE.INTRA.DIHEDRAL>
0.819009

>  <SCORE.INTRA.DIHEDRAL.0>
2.60093

>  <SCORE.INTRA.POLAR>
0

>  <SCORE.INTRA.POLAR.0>
0

>  <SCORE.INTRA.REPUL>
0

>  <SCORE.INTRA.REPUL.0>
0

>  <SCORE.INTRA.SOLV>
-0.730355

>  <SCORE.INTRA.SOLV.lig_0>
-33.7882

>  <SCORE.INTRA.VDW>
-0.468053

>  <SCORE.INTRA.VDW.0>
-0.593976

>  <SCORE.INTRA.norm>
-0.0423726

>  <SCORE.RESTR>
0

>  <SCORE.RESTR.CAVITY>
0

>  <SCORE.RESTR.norm>
0

>  <SCORE.SYSTEM>
0

>  <SCORE.SYSTEM.CONST>
0

>  <SCORE.SYSTEM.DIHEDRAL>
0

>  <SCORE.SYSTEM.SOLV>
0

>  <SCORE.SYSTEM.norm>
0

>  <SCORE.heavy>
10

>  <SCORE.norm>
-1.02713

>  <RMSD>
5.696

$$$$
ligand
 OpenBabel11021811473D
libRbt.so/2013.1/901 2013/11/27
 10  9  0  0  0  0  0  0  0  0999 V2000
   26.1348   14.8607   20.9980 N   0  0  0  0  0  0  0  0  0  0  0  0
   27.3308   15.5861   20.4785 C   0  0  2  0  0  0  0  0  0  0  0  0
   27.8006   15.0219   19.1692 C   0  0  0  0  0  0  0  0  0  0  0  0
   27.4898   13.8860   18.8230 O   0  0  0  0  0  0  0  0  0  0  0  0
   28.4353   15.5884   21.5314 C   0  0  0  0  0  0  0  0  0  0  0  0
   29.6953   16.7065   21.0009 S   0  0  0  0  0  0  0  0  0  0  0  0
   30.9439   16.3965   22.2062 C   0  0  0  0  0  0  0  0  0  0  0  0
   32.2191   17.1241   21.7920 C   0  0  0  0  0  0  0  0  0  0  0  0
   33.2514   16.9108   22.7863 N   0  0  0  0  0  0  0  0  0  0  0  0
   28.4896   15.6599   18.3761 O   0  0  0  0  0  0  0  0  0  0  0  0
  2  1  1  1  0  0  0
  2  3  1  0  0  0  0
  2  5  1  0  0  0  0
  3  4  1  0  0  0  0
  3 10  1  0  0  0  0
  5  6  1  0  0  0  0
  6  7  1  0  0  0  0
  7  8  1  0  0  0  0
  8  9  1  0  0  0  0
M  END
>  <CHROM.1>
-20.42131772,-169.38845134,-172.49419405,171.37896154,178.58764891,29.23708191
15.86558995,20.71673525,2.60826177,-0.30815821,-1.76366679

>  <Name>
ligand

>  <RI>
0

>  <Rbt.Current_Directory>
/home/itssahil/PROJECTS/Mol_Feturizer/New_Systems/rnas/3DIG

>  <Rbt.Executable>
rbdock ($Id: //depot/dev/client3/rdock/2013.1/src/exe/rbdock.cxx#4 $)

>  <Rbt.Library>
libRbt.so (2013.1, Build901 2013/11/27)

>  <Rbt.Parameter_File>
/export/apps/rDock/src/rDock_2013.1_src/data/scripts/dock_solv.prm

>  <Rbt.Receptor>
prm/pocket_docking_8.prm

>  <SCORE>
-10.204

>  <SCORE.INTER>
-8.84236

>  <SCORE.INTER.CONST>
1

>  <SCORE.INTER.POLAR>
0

>  <SCORE.INTER.ROT>
5

>  <SCORE.INTER.SOLV>
19.5391

>  <SCORE.INTER.VDW>
-19.3413

>  <SCORE.INTER.norm>
-0.884236

>  <SCORE.INTRA>
-1.36169

>  <SCORE.INTRA.DIHEDRAL>
-0.433805

>  <SCORE.INTRA.DIHEDRAL.0>
2.60093

>  <SCORE.INTRA.POLAR>
0

>  <SCORE.INTRA.POLAR.0>
0

>  <SCORE.INTRA.REPUL>
0

>  <SCORE.INTRA.REPUL.0>
0

>  <SCORE.INTRA.SOLV>
-1.55085

>  <SCORE.INTRA.SOLV.lig_0>
-33.7882

>  <SCORE.INTRA.VDW>
-0.369357

>  <SCORE.INTRA.VDW.0>
-0.593976

>  <SCORE.INTRA.norm>
-0.136169

>  <SCORE.RESTR>
0

>  <SCORE.RESTR.CAVITY>
0

>  <SCORE.RESTR.norm>
0

>  <SCORE.SYSTEM>
0

>  <SCORE.SYSTEM.CONST>
0

>  <SCORE.SYSTEM.DIHEDRAL>
0

>  <SCORE.SYSTEM.SOLV>
0

>  <SCORE.SYSTEM.norm>
0

>  <SCORE.heavy>
10

>  <SCORE.norm>
-1.0204

>  <RMSD>
5.698

$$$$
ligand
 OpenBabel11021811473D
libRbt.so/2013.1/901 2013/11/27
 10  9  0  0  0  0  0  0  0  0999 V2000
   26.1278   14.8835   20.9574 N   0  0  0  0  0  0  0  0  0  0  0  0
   27.3420   15.5798   20.4406 C   0  0  2  0  0  0  0  0  0  0  0  0
   27.8158   14.9881   19.1449 C   0  0  0  0  0  0  0  0  0  0  0  0
   28.4992   15.6434   18.3638 O   0  0  0  0  0  0  0  0  0  0  0  0
   28.4350   15.5781   21.5055 C   0  0  0  0  0  0  0  0  0  0  0  0
   29.6753   16.7375   21.0191 S   0  0  0  0  0  0  0  0  0  0  0  0
   30.9360   16.3914   22.2018 C   0  0  0  0  0  0  0  0  0  0  0  0
   32.1529   17.2573   21.8914 C   0  0  0  0  0  0  0  0  0  0  0  0
   33.2090   16.9800   22.8441 N   0  0  0  0  0  0  0  0  0  0  0  0
   27.5706   13.8311   18.8102 O   0  0  0  0  0  0  0  0  0  0  0  0
  2  1  1  1  0  0  0
  2  3  1  0  0  0  0
  2  5  1  0  0  0  0
  3  4  1  0  0  0  0
  3 10  1  0  0  0  0
  5  6  1  0  0  0  0
  6  7  1  0  0  0  0
  7  8  1  0  0  0  0
  8  9  1  0  0  0  0
M  END
>  <CHROM.1>
156.74982260,-166.08892453,-170.97786619,176.76163846,-179.43401259,29.23333530
15.88006419,20.72058139,2.58024915,-0.30935514,-1.79255792

>  <Name>
ligand

>  <RI>
0

>  <Rbt.Current_Directory>
/home/itssahil/PROJECTS/Mol_Feturizer/New_Systems/rnas/3DIG

>  <Rbt.Executable>
rbdock ($Id: //depot/dev/client3/rdock/2013.1/src/exe/rbdock.cxx#4 $)

>  <Rbt.Library>
libRbt.so (2013.1, Build901 2013/11/27)

>  <Rbt.Parameter_File>
/export/apps/rDock/src/rDock_2013.1_src/data/scripts/dock_solv.prm

>  <Rbt.Receptor>
prm/pocket_docking_3.prm

>  <SCORE>
-10.0354

>  <SCORE.INTER>
-8.6267

>  <SCORE.INTER.CONST>
1

>  <SCORE.INTER.POLAR>
0

>  <SCORE.INTER.ROT>
5

>  <SCORE.INTER.SOLV>
19.4698

>  <SCORE.INTER.VDW>
-19.1744

>  <SCORE.INTER.norm>
-0.86267

>  <SCORE.INTRA>
-1.40869

>  <SCORE.INTRA.DIHEDRAL>
-0.319087

>  <SCORE.INTRA.DIHEDRAL.0>
2.60093

>  <SCORE.INTRA.POLAR>
0

>  <SCORE.INTRA.POLAR.0>
0

>  <SCORE.INTRA.REPUL>
0

>  <SCORE.INTRA.REPUL.0>
0

>  <SCORE.INTRA.SOLV>
-1.56736

>  <SCORE.INTRA.SOLV.lig_0>
-33.7882

>  <SCORE.INTRA.VDW>
-0.465463

>  <SCORE.INTRA.VDW.0>
-0.593976

>  <SCORE.INTRA.norm>
-0.140869

>  <SCORE.RESTR>
0

>  <SCORE.RESTR.CAVITY>
0

>  <SCORE.RESTR.norm>
0

>  <SCORE.SYSTEM>
0

>  <SCORE.SYSTEM.CONST>
0

>  <SCORE.SYSTEM.DIHEDRAL>
0

>  <SCORE.SYSTEM.SOLV>
0

>  <SCORE.SYSTEM.norm>
0

>  <SCORE.heavy>
10

>  <SCORE.norm>
-1.00354

>  <RMSD>
5.699

$$$$
ligand
 OpenBabel11021811473D
libRbt.so/2013.1/901 2013/11/27
 10  9  0  0  0  0  0  0  0  0999 V2000
   27.4528   14.3569   19.0764 N   0  0  0  0  0  0  0  0  0  0  0  0
   28.0532   14.5067   20.4342 C   0  0  2  0  0  0  0  0  0  0  0  0
   27.0107   14.7857   21.4777 C   0  0  0  0  0  0  0  0  0  0  0  0
   27.3273   15.0156   22.6411 O   0  0  0  0  0  0  0  0  0  0  0  0
   29.1389   15.5786   20.4072 C   0  0  0  0  0  0  0  0  0  0  0  0
   30.1940   15.3247   21.8005 S   0  0  0  0  0  0  0  0  0  0  0  0
   31.3230   16.6653   21.6113 C   0  0  0  0  0  0  0  0  0  0  0  0
   32.4561   16.5004   22.6191 C   0  0  0  0  0  0  0  0  0  0  0  0
   33.3943   17.5969   22.4874 N   0  0  0  0  0  0  0  0  0  0  0  0
   25.8080   14.8214   21.2270 O   0  0  0  0  0  0  0  0  0  0  0  0
  2  1  1  6  0  0  0
  2  3  1  0  0  0  0
  2  5  1  0  0  0  0
  3  4  1  0  0  0  0
  3 10  1  0  0  0  0
  5  6  1  0  0  0  0
  6  7  1  0  0  0  0
  7  8  1  0  0  0  0
  8  9  1  0  0  0  0
M  END
>  <CHROM.1>
-175.71582048,-159.67943167,-178.42873299,-171.66576151,-179.67314254,29.29598357
15.49434557,21.44469334,-2.83892020,0.31412974,1.36578374

>  <Name>
ligand

>  <RI>
0

>  <Rbt.Current_Directory>
/home/itssahil/PROJECTS/Mol_Feturizer/New_Systems/rnas/3DIG

>  <Rbt.Executable>
rbdock ($Id: //depot/dev/client3/rdock/2013.1/src/exe/rbdock.cxx#4 $)

>  <Rbt.Library>
libRbt.so (2013.1, Build901 2013/11/27)

>  <Rbt.Parameter_File>
/export/apps/rDock/src/rDock_2013.1_src/data/scripts/dock_solv.prm

>  <Rbt.Receptor>
prm/pocket_docking_4.prm

>  <SCORE>
-11.0685

>  <SCORE.INTER>
-10.2846

>  <SCORE.INTER.CONST>
1

>  <SCORE.INTER.POLAR>
0

>  <SCORE.INTER.ROT>
5

>  <SCORE.INTER.SOLV>
16.0842

>  <SCORE.INTER.VDW>
-19.1511

>  <SCORE.INTER.norm>
-1.02846

>  <SCORE.INTRA>
-0.783865

>  <SCORE.INTRA.DIHEDRAL>
0.378859

>  <SCORE.INTRA.DIHEDRAL.0>
2.60093

>  <SCORE.INTRA.POLAR>
0

>  <SCORE.INTRA.POLAR.0>
0

>  <SCORE.INTRA.REPUL>
0

>  <SCORE.INTRA.REPUL.0>
0

>  <SCORE.INTRA.SOLV>
-1.54371

>  <SCORE.INTRA.SOLV.lig_0>
-33.7882

>  <SCORE.INTRA.VDW>
-0.201438

>  <SCORE.INTRA.VDW.0>
-0.593976

>  <SCORE.INTRA.norm>
-0.0783865

>  <SCORE.RESTR>
0

>  <SCORE.RESTR.CAVITY>
0

>  <SCORE.RESTR.norm>
0

>  <SCORE.SYSTEM>
0

>  <SCORE.SYSTEM.CONST>
0

>  <SCORE.SYSTEM.DIHEDRAL>
0

>  <SCORE.SYSTEM.SOLV>
0

>  <SCORE.SYSTEM.norm>
0

>  <SCORE.heavy>
10

>  <SCORE.norm>
-1.10685

>  <RMSD>
5.699

$$$$
ligand
 OpenBabel11021811473D
libRbt.so/2013.1/901 2013/11/27
 10  9  0  0  0  0  0  0  0  0999 V2000
   27.4062   14.4921   20.9059 N   0  0  0  0  0  0  0  0  0  0  0  0
   27.5500   15.5024   19.8173 C   0  0  2  0  0  0  0  0  0  0  0  0
   27.9568   14.8692   18.5184 C   0  0  0  0  0  0  0  0  0  0  0  0
   27.6625   13.7050   18.2639 O   0  0  0  0  0  0  0  0  0  0  0  0
   28.5200   16.5981   20.2497 C   0  0  0  0  0  0  0  0  0  0  0  0
   30.0654   15.8381   20.6417 S   0  0  0  0  0  0  0  0  0  0  0  0
   30.8498   17.1291   21.5503 C   0  0  0  0  0  0  0  0  0  0  0  0
   32.2509   16.6723   21.9443 C   0  0  0  0  0  0  0  0  0  0  0  0
   32.9292   17.7321   22.6631 N   0  0  0  0  0  0  0  0  0  0  0  0
   28.5746   15.4746   17.6452 O   0  0  0  0  0  0  0  0  0  0  0  0
  2  1  1  1  0  0  0
  2  3  1  0  0  0  0
  2  5  1  0  0  0  0
  3  4  1  0  0  0  0
  3 10  1  0  0  0  0
  5  6  1  0  0  0  0
  6  7  1  0  0  0  0
  7  8  1  0  0  0  0
  8  9  1  0  0  0  0
M  END
>  <CHROM.1>
27.62582611,57.92964832,-163.74330063,-177.99338462,178.50609230,29.45273143
15.78905196,20.23531478,2.48930249,-0.44281551,-1.69730055

>  <Name>
ligand

>  <RI>
0

>  <Rbt.Current_Directory>
/home/itssahil/PROJECTS/Mol_Feturizer/New_Systems/rnas/3DIG

>  <Rbt.Executable>
rbdock ($Id: //depot/dev/client3/rdock/2013.1/src/exe/rbdock.cxx#4 $)

>  <Rbt.Library>
libRbt.so (2013.1, Build901 2013/11/27)

>  <Rbt.Parameter_File>
/export/apps/rDock/src/rDock_2013.1_src/data/scripts/dock_solv.prm

>  <Rbt.Receptor>
prm/blind_docking_60.prm

>  <SCORE>
-10.3982

>  <SCORE.INTER>
-9.80028

>  <SCORE.INTER.CONST>
1

>  <SCORE.INTER.POLAR>
0

>  <SCORE.INTER.ROT>
5

>  <SCORE.INTER.SOLV>
14.5702

>  <SCORE.INTER.VDW>
-18.3236

>  <SCORE.INTER.norm>
-0.980028

>  <SCORE.INTRA>
-0.597927

>  <SCORE.INTRA.DIHEDRAL>
-0.709027

>  <SCORE.INTRA.DIHEDRAL.0>
2.60093

>  <SCORE.INTRA.POLAR>
0

>  <SCORE.INTRA.POLAR.0>
0

>  <SCORE.INTRA.REPUL>
0

>  <SCORE.INTRA.REPUL.0>
0

>  <SCORE.INTRA.SOLV>
-0.481949

>  <SCORE.INTRA.SOLV.lig_0>
-33.7882

>  <SCORE.INTRA.VDW>
-0.00243912

>  <SCORE.INTRA.VDW.0>
-0.593976

>  <SCORE.INTRA.norm>
-0.0597927

>  <SCORE.RESTR>
0

>  <SCORE.RESTR.CAVITY>
0

>  <SCORE.RESTR.norm>
0

>  <SCORE.SYSTEM>
0

>  <SCORE.SYSTEM.CONST>
0

>  <SCORE.SYSTEM.DIHEDRAL>
0

>  <SCORE.SYSTEM.SOLV>
0

>  <SCORE.SYSTEM.norm>
0

>  <SCORE.heavy>
10

>  <SCORE.norm>
-1.03982

>  <RMSD>
5.706

$$$$
ligand
 OpenBabel11021811473D
libRbt.so/2013.1/901 2013/11/27
 10  9  0  0  0  0  0  0  0  0999 V2000
   29.0186   15.4621   20.0702 N   0  0  0  0  0  0  0  0  0  0  0  0
   28.3333   14.8479   21.2448 C   0  0  2  0  0  0  0  0  0  0  0  0
   26.8395   14.9484   21.1349 C   0  0  0  0  0  0  0  0  0  0  0  0
   26.3134   15.5281   20.1895 O   0  0  0  0  0  0  0  0  0  0  0  0
   28.8565   15.4704   22.5360 C   0  0  0  0  0  0  0  0  0  0  0  0
   30.5876   15.1367   22.6426 S   0  0  0  0  0  0  0  0  0  0  0  0
   31.2523   16.7542   22.4196 C   0  0  0  0  0  0  0  0  0  0  0  0
   32.7748   16.6622   22.4013 C   0  0  0  0  0  0  0  0  0  0  0  0
   33.3463   17.9912   22.3161 N   0  0  0  0  0  0  0  0  0  0  0  0
   26.0745   14.4471   21.9559 O   0  0  0  0  0  0  0  0  0  0  0  0
  2  1  1  6  0  0  0
  2  3  1  0  0  0  0
  2  5  1  0  0  0  0
  3  4  1  0  0  0  0
  3 10  1  0  0  0  0
  5  6  1  0  0  0  0
  6  7  1  0  0  0  0
  7  8  1  0  0  0  0
  8  9  1  0  0  0  0
M  END
>  <CHROM.1>
-2.65756669,-61.20733484,111.23102997,-176.79709233,-175.89519317,29.44063806
15.65505276,21.79353990,-3.12441086,0.39212738,2.14946561

>  <Name>
ligand

>  <RI>
0

>  <Rbt.Current_Directory>
/home/itssahil/PROJECTS/Mol_Feturizer/New_Systems/rnas/3DIG

>  <Rbt.Executable>
rbdock ($Id: //depot/dev/client3/rdock/2013.1/src/exe/rbdock.cxx#4 $)

>  <Rbt.Library>
libRbt.so (2013.1, Build901 2013/11/27)

>  <Rbt.Parameter_File>
/export/apps/rDock/src/rDock_2013.1_src/data/scripts/dock_solv.prm

>  <Rbt.Receptor>
prm/pocket_docking_7.prm

>  <SCORE>
-11.567

>  <SCORE.INTER>
-11.9746

>  <SCORE.INTER.CONST>
1

>  <SCORE.INTER.POLAR>
0

>  <SCORE.INTER.ROT>
5

>  <SCORE.INTER.SOLV>
12.2827

>  <SCORE.INTER.VDW>
-19.0107

>  <SCORE.INTER.norm>
-1.19746

>  <SCORE.INTRA>
0.407574

>  <SCORE.INTRA.DIHEDRAL>
1.26936

>  <SCORE.INTRA.DIHEDRAL.0>
2.60093

>  <SCORE.INTRA.POLAR>
0

>  <SCORE.INTRA.POLAR.0>
0

>  <SCORE.INTRA.REPUL>
0

>  <SCORE.INTRA.REPUL.0>
0

>  <SCORE.INTRA.SOLV>
0.150537

>  <SCORE.INTRA.SOLV.lig_0>
-33.7882

>  <SCORE.INTRA.VDW>
-0.302373

>  <SCORE.INTRA.VDW.0>
-0.593976

>  <SCORE.INTRA.norm>
0.0407574

>  <SCORE.RESTR>
0

>  <SCORE.RESTR.CAVITY>
0

>  <SCORE.RESTR.norm>
0

>  <SCORE.SYSTEM>
0

>  <SCORE.SYSTEM.CONST>
0

>  <SCORE.SYSTEM.DIHEDRAL>
0

>  <SCORE.SYSTEM.SOLV>
0

>  <SCORE.SYSTEM.norm>
0

>  <SCORE.heavy>
10

>  <SCORE.norm>
-1.1567

>  <RMSD>
5.706

$$$$
ligand
 OpenBabel11021811473D
libRbt.so/2013.1/901 2013/11/27
 10  9  0  0  0  0  0  0  0  0999 V2000
   27.4472   14.4518   18.9214 N   0  0  0  0  0  0  0  0  0  0  0  0
   27.9665   14.8332   20.2672 C   0  0  2  0  0  0  0  0  0  0  0  0
   26.8748   14.8690   21.2970 C   0  0  0  0  0  0  0  0  0  0  0  0
   27.1359   14.8322   22.4958 O   0  0  0  0  0  0  0  0  0  0  0  0
   28.7151   16.1599   20.1788 C   0  0  0  0  0  0  0  0  0  0  0  0
   29.5117   16.4438   21.7293 S   0  0  0  0  0  0  0  0  0  0  0  0
   31.1235   16.9157   21.1936 C   0  0  0  0  0  0  0  0  0  0  0  0
   32.0203   17.0792   22.4167 C   0  0  0  0  0  0  0  0  0  0  0  0
   33.3484   17.4838   22.0016 N   0  0  0  0  0  0  0  0  0  0  0  0
   25.6842   14.9583   21.0050 O   0  0  0  0  0  0  0  0  0  0  0  0
  2  1  1  6  0  0  0
  2  3  1  0  0  0  0
  2  5  1  0  0  0  0
  3  4  1  0  0  0  0
  3 10  1  0  0  0  0
  5  6  1  0  0  0  0
  6  7  1  0  0  0  0
  7  8  1  0  0  0  0
  8  9  1  0  0  0  0
M  END
>  <CHROM.1>
161.75134718,-171.60599291,133.31250311,-174.61903017,-179.29045265,29.01167566
15.87075430,21.23498087,-2.87851204,0.37884918,1.40756375

>  <Name>
ligand

>  <RI>
0

>  <Rbt.Current_Directory>
/home/itssahil/PROJECTS/Mol_Feturizer/New_Systems/rnas/3DIG

>  <Rbt.Executable>
rbdock ($Id: //depot/dev/client3/rdock/2013.1/src/exe/rbdock.cxx#4 $)

>  <Rbt.Library>
libRbt.so (2013.1, Build901 2013/11/27)

>  <Rbt.Parameter_File>
/export/apps/rDock/src/rDock_2013.1_src/data/scripts/dock_solv.prm

>  <Rbt.Receptor>
prm/pocket_docking_7.prm

>  <SCORE>
-10.6106

>  <SCORE.INTER>
-10.2137

>  <SCORE.INTER.CONST>
1

>  <SCORE.INTER.POLAR>
0

>  <SCORE.INTER.ROT>
5

>  <SCORE.INTER.SOLV>
16.3002

>  <SCORE.INTER.VDW>
-19.1759

>  <SCORE.INTER.norm>
-1.02137

>  <SCORE.INTRA>
-0.396921

>  <SCORE.INTRA.DIHEDRAL>
1.28859

>  <SCORE.INTRA.DIHEDRAL.0>
2.60093

>  <SCORE.INTRA.POLAR>
0

>  <SCORE.INTRA.POLAR.0>
0

>  <SCORE.INTRA.REPUL>
0

>  <SCORE.INTRA.REPUL.0>
0

>  <SCORE.INTRA.SOLV>
-1.55915

>  <SCORE.INTRA.SOLV.lig_0>
-33.7882

>  <SCORE.INTRA.VDW>
-0.26164

>  <SCORE.INTRA.VDW.0>
-0.593976

>  <SCORE.INTRA.norm>
-0.0396921

>  <SCORE.RESTR>
0

>  <SCORE.RESTR.CAVITY>
0

>  <SCORE.RESTR.norm>
0

>  <SCORE.SYSTEM>
0

>  <SCORE.SYSTEM.CONST>
0

>  <SCORE.SYSTEM.DIHEDRAL>
0

>  <SCORE.SYSTEM.SOLV>
0

>  <SCORE.SYSTEM.norm>
0

>  <SCORE.heavy>
10

>  <SCORE.norm>
-1.06106

>  <RMSD>
5.707

$$$$
ligand
 OpenBabel11021811473D
libRbt.so/2013.1/901 2013/11/27
 10  9  0  0  0  0  0  0  0  0999 V2000
   27.1898   14.5274   20.9548 N   0  0  0  0  0  0  0  0  0  0  0  0
   27.5493   15.5143   19.8950 C   0  0  2  0  0  0  0  0  0  0  0  0
   27.9035   14.8400   18.6014 C   0  0  0  0  0  0  0  0  0  0  0  0
   27.5215   13.6990   18.3587 O   0  0  0  0  0  0  0  0  0  0  0  0
   28.6677   16.4260   20.3915 C   0  0  0  0  0  0  0  0  0  0  0  0
   30.0639   15.4174   20.7820 S   0  0  0  0  0  0  0  0  0  0  0  0
   31.2688   16.6483   21.1572 C   0  0  0  0  0  0  0  0  0  0  0  0
   32.6586   16.0609   20.9332 C   0  0  0  0  0  0  0  0  0  0  0  0
   33.6681   17.0375   21.2895 N   0  0  0  0  0  0  0  0  0  0  0  0
   28.5628   15.3887   17.7212 O   0  0  0  0  0  0  0  0  0  0  0  0
  2  1  1  1  0  0  0
  2  3  1  0  0  0  0
  2  5  1  0  0  0  0
  3  4  1  0  0  0  0
  3 10  1  0  0  0  0
  5  6  1  0  0  0  0
  6  7  1  0  0  0  0
  7  8  1  0  0  0  0
  8  9  1  0  0  0  0
M  END
>  <CHROM.1>
21.49917481,59.77262560,174.21651984,-155.65412469,-177.61211369,29.56482791
15.52444627,20.06553693,2.69449192,-0.29004120,-1.74650963

>  <Name>
ligand

>  <RI>
0

>  <Rbt.Current_Directory>
/home/itssahil/PROJECTS/Mol_Feturizer/New_Systems/rnas/3DIG

>  <Rbt.Executable>
rbdock ($Id: //depot/dev/client3/rdock/2013.1/src/exe/rbdock.cxx#4 $)

>  <Rbt.Library>
libRbt.so (2013.1, Build901 2013/11/27)

>  <Rbt.Parameter_File>
/export/apps/rDock/src/rDock_2013.1_src/data/scripts/dock_solv.prm

>  <Rbt.Receptor>
prm/pocket_docking_4.prm

>  <SCORE>
-10.5506

>  <SCORE.INTER>
-10.0342

>  <SCORE.INTER.CONST>
1

>  <SCORE.INTER.POLAR>
0

>  <SCORE.INTER.ROT>
5

>  <SCORE.INTER.SOLV>
16.4854

>  <SCORE.INTER.VDW>
-19.1179

>  <SCORE.INTER.norm>
-1.00342

>  <SCORE.INTRA>
-0.516452

>  <SCORE.INTRA.DIHEDRAL>
-0.213976

>  <SCORE.INTRA.DIHEDRAL.0>
2.60093

>  <SCORE.INTRA.POLAR>
0

>  <SCORE.INTRA.POLAR.0>
0

>  <SCORE.INTRA.REPUL>
0

>  <SCORE.INTRA.REPUL.0>
0

>  <SCORE.INTRA.SOLV>
-0.649655

>  <SCORE.INTRA.SOLV.lig_0>
-33.7882

>  <SCORE.INTRA.VDW>
-0.0846369

>  <SCORE.INTRA.VDW.0>
-0.593976

>  <SCORE.INTRA.norm>
-0.0516452

>  <SCORE.RESTR>
0

>  <SCORE.RESTR.CAVITY>
0

>  <SCORE.RESTR.norm>
0

>  <SCORE.SYSTEM>
0

>  <SCORE.SYSTEM.CONST>
0

>  <SCORE.SYSTEM.DIHEDRAL>
0

>  <SCORE.SYSTEM.SOLV>
0

>  <SCORE.SYSTEM.norm>
0

>  <SCORE.heavy>
10

>  <SCORE.norm>
-1.05506

>  <RMSD>
5.709

$$$$
ligand
 OpenBabel11021811473D
libRbt.so/2013.1/901 2013/11/27
 10  9  0  0  0  0  0  0  0  0999 V2000
   28.7822   15.0242   19.2108 N   0  0  0  0  0  0  0  0  0  0  0  0
   28.5864   14.8145   20.6751 C   0  0  2  0  0  0  0  0  0  0  0  0
   27.1401   14.9144   21.0647 C   0  0  0  0  0  0  0  0  0  0  0  0
   26.3020   15.3431   20.2770 O   0  0  0  0  0  0  0  0  0  0  0  0
   29.4606   15.7873   21.4611 C   0  0  0  0  0  0  0  0  0  0  0  0
   31.1470   15.4659   21.0465 S   0  0  0  0  0  0  0  0  0  0  0  0
   31.9645   16.7097   21.9912 C   0  0  0  0  0  0  0  0  0  0  0  0
   33.4192   16.7938   21.5398 C   0  0  0  0  0  0  0  0  0  0  0  0
   34.0993   17.8465   22.2672 N   0  0  0  0  0  0  0  0  0  0  0  0
   26.7185   14.5590   22.1631 O   0  0  0  0  0  0  0  0  0  0  0  0
  2  1  1  6  0  0  0
  2  3  1  0  0  0  0
  2  5  1  0  0  0  0
  3  4  1  0  0  0  0
  3 10  1  0  0  0  0
  5  6  1  0  0  0  0
  6  7  1  0  0  0  0
  7  8  1  0  0  0  0
  8  9  1  0  0  0  0
M  END
>  <CHROM.1>
-11.32199995,-60.82207800,177.91831852,-167.98097858,177.79909376,29.87851121
15.69305411,21.16149527,-2.91867856,0.27534553,1.31570891

>  <Name>
ligand

>  <RI>
0

>  <Rbt.Current_Directory>
/home/itssahil/PROJECTS/Mol_Feturizer/New_Systems/rnas/3DIG

>  <Rbt.Executable>
rbdock ($Id: //depot/dev/client3/rdock/2013.1/src/exe/rbdock.cxx#4 $)

>  <Rbt.Library>
libRbt.so (2013.1, Build901 2013/11/27)

>  <Rbt.Parameter_File>
/export/apps/rDock/src/rDock_2013.1_src/data/scripts/dock_solv.prm

>  <Rbt.Receptor>
prm/pocket_docking_5.prm

>  <SCORE>
-11.0947

>  <SCORE.INTER>
-10.1062

>  <SCORE.INTER.CONST>
1

>  <SCORE.INTER.POLAR>
0

>  <SCORE.INTER.ROT>
5

>  <SCORE.INTER.SOLV>
13.8603

>  <SCORE.INTER.VDW>
-18.2909

>  <SCORE.INTER.norm>
-1.01062

>  <SCORE.INTRA>
-0.988553

>  <SCORE.INTRA.DIHEDRAL>
-0.814582

>  <SCORE.INTRA.DIHEDRAL.0>
2.60093

>  <SCORE.INTRA.POLAR>
0

>  <SCORE.INTRA.POLAR.0>
0

>  <SCORE.INTRA.REPUL>
0

>  <SCORE.INTRA.REPUL.0>
0

>  <SCORE.INTRA.SOLV>
-0.713581

>  <SCORE.INTRA.SOLV.lig_0>
-33.7882

>  <SCORE.INTRA.VDW>
-0.224471

>  <SCORE.INTRA.VDW.0>
-0.593976

>  <SCORE.INTRA.norm>
-0.0988553

>  <SCORE.RESTR>
0

>  <SCORE.RESTR.CAVITY>
0

>  <SCORE.RESTR.norm>
0

>  <SCORE.SYSTEM>
0

>  <SCORE.SYSTEM.CONST>
0

>  <SCORE.SYSTEM.DIHEDRAL>
0

>  <SCORE.SYSTEM.SOLV>
0

>  <SCORE.SYSTEM.norm>
0

>  <SCORE.heavy>
10

>  <SCORE.norm>
-1.10947

>  <RMSD>
5.712

$$$$
ligand
 OpenBabel11021811473D
libRbt.so/2013.1/901 2013/11/27
 10  9  0  0  0  0  0  0  0  0999 V2000
   28.9866   13.9980   22.2555 N   0  0  0  0  0  0  0  0  0  0  0  0
   28.1979   15.1910   21.8299 C   0  0  2  0  0  0  0  0  0  0  0  0
   27.0277   14.8089   20.9707 C   0  0  0  0  0  0  0  0  0  0  0  0
   25.8988   14.7201   21.4443 O   0  0  0  0  0  0  0  0  0  0  0  0
   29.1118   16.1989   21.1390 C   0  0  0  0  0  0  0  0  0  0  0  0
   30.3813   16.6577   22.2779 S   0  0  0  0  0  0  0  0  0  0  0  0
   31.7831   16.7094   21.2101 C   0  0  0  0  0  0  0  0  0  0  0  0
   33.0334   16.9485   22.0507 C   0  0  0  0  0  0  0  0  0  0  0  0
   34.2003   16.9967   21.1930 N   0  0  0  0  0  0  0  0  0  0  0  0
   27.1277   14.5902   19.7654 O   0  0  0  0  0  0  0  0  0  0  0  0
  2  1  1  6  0  0  0
  2  3  1  0  0  0  0
  2  5  1  0  0  0  0
  3  4  1  0  0  0  0
  3 10  1  0  0  0  0
  5  6  1  0  0  0  0
  6  7  1  0  0  0  0
  7  8  1  0  0  0  0
  8  9  1  0  0  0  0
M  END
>  <CHROM.1>
99.17859495,-58.89044264,139.63348249,-173.94552929,-179.92549817,29.63080223
15.78124201,21.49441196,3.01021954,-0.34880123,-1.66227179

>  <Name>
ligand

>  <RI>
0

>  <Rbt.Current_Directory>
/home/itssahil/PROJECTS/Mol_Feturizer/New_Systems/rnas/3DIG

>  <Rbt.Executable>
rbdock ($Id: //depot/dev/client3/rdock/2013.1/src/exe/rbdock.cxx#4 $)

>  <Rbt.Library>
libRbt.so (2013.1, Build901 2013/11/27)

>  <Rbt.Parameter_File>
/export/apps/rDock/src/rDock_2013.1_src/data/scripts/dock_solv.prm

>  <Rbt.Receptor>
prm/pocket_docking_7.prm

>  <SCORE>
-8.93993

>  <SCORE.INTER>
-9.00115

>  <SCORE.INTER.CONST>
1

>  <SCORE.INTER.POLAR>
0

>  <SCORE.INTER.ROT>
5

>  <SCORE.INTER.SOLV>
18.3688

>  <SCORE.INTER.VDW>
-19.057

>  <SCORE.INTER.norm>
-0.900115

>  <SCORE.INTRA>
0.0612133

>  <SCORE.INTRA.DIHEDRAL>
0.8289

>  <SCORE.INTRA.DIHEDRAL.0>
2.60093

>  <SCORE.INTRA.POLAR>
0

>  <SCORE.INTRA.POLAR.0>
0

>  <SCORE.INTRA.REPUL>
0

>  <SCORE.INTRA.REPUL.0>
0

>  <SCORE.INTRA.SOLV>
-0.35735

>  <SCORE.INTRA.SOLV.lig_0>
-33.7882

>  <SCORE.INTRA.VDW>
-0.174562

>  <SCORE.INTRA.VDW.0>
-0.593976

>  <SCORE.INTRA.norm>
0.00612133

>  <SCORE.RESTR>
0

>  <SCORE.RESTR.CAVITY>
0

>  <SCORE.RESTR.norm>
0

>  <SCORE.SYSTEM>
0

>  <SCORE.SYSTEM.CONST>
0

>  <SCORE.SYSTEM.DIHEDRAL>
0

>  <SCORE.SYSTEM.SOLV>
0

>  <SCORE.SYSTEM.norm>
0

>  <SCORE.heavy>
10

>  <SCORE.norm>
-0.893993

>  <RMSD>
5.729

$$$$
ligand
 OpenBabel11021811473D
libRbt.so/2013.1/901 2013/11/27
 10  9  0  0  0  0  0  0  0  0999 V2000
   28.9555   15.4040   22.2452 N   0  0  0  0  0  0  0  0  0  0  0  0
   29.2179   16.4248   21.1890 C   0  0  2  0  0  0  0  0  0  0  0  0
   28.6485   16.0141   19.8621 C   0  0  0  0  0  0  0  0  0  0  0  0
   28.7664   16.7332   18.8744 O   0  0  0  0  0  0  0  0  0  0  0  0
   30.7138   16.7146   21.1063 C   0  0  0  0  0  0  0  0  0  0  0  0
   31.2045   17.4956   22.6124 S   0  0  0  0  0  0  0  0  0  0  0  0
   32.8980   17.8451   22.2693 C   0  0  0  0  0  0  0  0  0  0  0  0
   33.4452   18.7525   23.3666 C   0  0  0  0  0  0  0  0  0  0  0  0
   34.7626   19.2301   22.9976 N   0  0  0  0  0  0  0  0  0  0  0  0
   28.0643   14.9469   19.6879 O   0  0  0  0  0  0  0  0  0  0  0  0
  2  1  1  1  0  0  0
  2  3  1  0  0  0  0
  2  5  1  0  0  0  0
  3  4  1  0  0  0  0
  3 10  1  0  0  0  0
  5  6  1  0  0  0  0
  6  7  1  0  0  0  0
  7  8  1  0  0  0  0
  8  9  1  0  0  0  0
M  END
>  <CHROM.1>
179.88802575,-66.39573883,-176.05477815,169.96666616,-170.74174627,30.70709713
17.00476162,21.52390451,2.78769489,-0.60550531,-1.33300375

>  <Name>
ligand

>  <RI>
0

>  <Rbt.Current_Directory>
/home/itssahil/PROJECTS/Mol_Feturizer/New_Systems/rnas/3DIG

>  <Rbt.Executable>
rbdock ($Id: //depot/dev/client3/rdock/2013.1/src/exe/rbdock.cxx#4 $)

>  <Rbt.Library>
libRbt.so (2013.1, Build901 2013/11/27)

>  <Rbt.Parameter_File>
/export/apps/rDock/src/rDock_2013.1_src/data/scripts/dock_solv.prm

>  <Rbt.Receptor>
prm/pocket_docking_7.prm

>  <SCORE>
-7.69333

>  <SCORE.INTER>
-6.88969

>  <SCORE.INTER.CONST>
1

>  <SCORE.INTER.POLAR>
0

>  <SCORE.INTER.ROT>
5

>  <SCORE.INTER.SOLV>
14.1071

>  <SCORE.INTER.VDW>
-16.2288

>  <SCORE.INTER.norm>
-0.688969

>  <SCORE.INTRA>
-0.803637

>  <SCORE.INTRA.DIHEDRAL>
-0.464469

>  <SCORE.INTRA.DIHEDRAL.0>
2.60093

>  <SCORE.INTRA.POLAR>
0

>  <SCORE.INTRA.POLAR.0>
0

>  <SCORE.INTRA.REPUL>
0

>  <SCORE.INTRA.REPUL.0>
0

>  <SCORE.INTRA.SOLV>
-0.84053

>  <SCORE.INTRA.SOLV.lig_0>
-33.7882

>  <SCORE.INTRA.VDW>
-0.151138

>  <SCORE.INTRA.VDW.0>
-0.593976

>  <SCORE.INTRA.norm>
-0.0803637

>  <SCORE.RESTR>
0

>  <SCORE.RESTR.CAVITY>
0

>  <SCORE.RESTR.norm>
0

>  <SCORE.SYSTEM>
0

>  <SCORE.SYSTEM.CONST>
0

>  <SCORE.SYSTEM.DIHEDRAL>
0

>  <SCORE.SYSTEM.SOLV>
0

>  <SCORE.SYSTEM.norm>
0

>  <SCORE.heavy>
10

>  <SCORE.norm>
-0.769333

>  <RMSD>
5.735

$$$$
ligand
 OpenBabel11021811473D
libRbt.so/2013.1/901 2013/11/27
 10  9  0  0  0  0  0  0  0  0999 V2000
   29.1140   14.5234   19.9741 N   0  0  0  0  0  0  0  0  0  0  0  0
   28.4457   14.7907   21.2812 C   0  0  2  0  0  0  0  0  0  0  0  0
   26.9763   15.0485   21.1143 C   0  0  0  0  0  0  0  0  0  0  0  0
   26.5627   15.8000   20.2363 O   0  0  0  0  0  0  0  0  0  0  0  0
   29.1510   15.9365   22.0009 C   0  0  0  0  0  0  0  0  0  0  0  0
   30.8135   15.4378   22.3270 S   0  0  0  0  0  0  0  0  0  0  0  0
   31.6171   17.0038   22.4261 C   0  0  0  0  0  0  0  0  0  0  0  0
   33.1265   16.7831   22.4265 C   0  0  0  0  0  0  0  0  0  0  0  0
   33.8098   18.0610   22.4241 N   0  0  0  0  0  0  0  0  0  0  0  0
   26.1208   14.5155   21.8177 O   0  0  0  0  0  0  0  0  0  0  0  0
  2  1  1  6  0  0  0
  2  3  1  0  0  0  0
  2  5  1  0  0  0  0
  3  4  1  0  0  0  0
  3 10  1  0  0  0  0
  5  6  1  0  0  0  0
  6  7  1  0  0  0  0
  7  8  1  0  0  0  0
  8  9  1  0  0  0  0
M  END
>  <CHROM.1>
-45.56501913,-62.25682754,154.93836962,-168.69192567,176.49964936,29.67363050
15.75004366,21.67890196,-2.93190906,-0.34990581,-0.40874769

>  <Name>
ligand

>  <RI>
0

>  <Rbt.Current_Directory>
/home/itssahil/PROJECTS/Mol_Feturizer/New_Systems/rnas/3DIG

>  <Rbt.Executable>
rbdock ($Id: //depot/dev/client3/rdock/2013.1/src/exe/rbdock.cxx#4 $)

>  <Rbt.Library>
libRbt.so (2013.1, Build901 2013/11/27)

>  <Rbt.Parameter_File>
/export/apps/rDock/src/rDock_2013.1_src/data/scripts/dock_solv.prm

>  <Rbt.Receptor>
prm/blind_docking_80.prm

>  <SCORE>
-11.4329

>  <SCORE.INTER>
-10.809

>  <SCORE.INTER.CONST>
1

>  <SCORE.INTER.POLAR>
0

>  <SCORE.INTER.ROT>
5

>  <SCORE.INTER.SOLV>
14.2857

>  <SCORE.INTER.VDW>
-18.9012

>  <SCORE.INTER.norm>
-1.0809

>  <SCORE.INTRA>
-0.623909

>  <SCORE.INTRA.DIHEDRAL>
0.0880439

>  <SCORE.INTRA.DIHEDRAL.0>
2.60093

>  <SCORE.INTRA.POLAR>
0

>  <SCORE.INTRA.POLAR.0>
0

>  <SCORE.INTRA.REPUL>
0

>  <SCORE.INTRA.REPUL.0>
0

>  <SCORE.INTRA.SOLV>
-0.553379

>  <SCORE.INTRA.SOLV.lig_0>
-33.7882

>  <SCORE.INTRA.VDW>
-0.391242

>  <SCORE.INTRA.VDW.0>
-0.593976

>  <SCORE.INTRA.norm>
-0.0623909

>  <SCORE.RESTR>
0

>  <SCORE.RESTR.CAVITY>
0

>  <SCORE.RESTR.norm>
0

>  <SCORE.SYSTEM>
0

>  <SCORE.SYSTEM.CONST>
0

>  <SCORE.SYSTEM.DIHEDRAL>
0

>  <SCORE.SYSTEM.SOLV>
0

>  <SCORE.SYSTEM.norm>
0

>  <SCORE.heavy>
10

>  <SCORE.norm>
-1.14329

>  <RMSD>
5.739

$$$$
ligand
 OpenBabel11021811473D
libRbt.so/2013.1/901 2013/11/27
 10  9  0  0  0  0  0  0  0  0999 V2000
   26.5407   14.6576   21.2514 N   0  0  0  0  0  0  0  0  0  0  0  0
   27.1532   15.2551   20.0289 C   0  0  2  0  0  0  0  0  0  0  0  0
   27.7827   14.2111   19.1529 C   0  0  0  0  0  0  0  0  0  0  0  0
   28.9118   13.7893   19.3846 O   0  0  0  0  0  0  0  0  0  0  0  0
   28.1446   16.3457   20.4242 C   0  0  0  0  0  0  0  0  0  0  0  0
   29.2873   15.6545   21.5799 S   0  0  0  0  0  0  0  0  0  0  0  0
   30.5100   16.9232   21.6378 C   0  0  0  0  0  0  0  0  0  0  0  0
   31.7346   16.3929   22.3767 C   0  0  0  0  0  0  0  0  0  0  0  0
   32.7466   17.4270   22.4557 N   0  0  0  0  0  0  0  0  0  0  0  0
   27.2065   13.7136   18.1879 O   0  0  0  0  0  0  0  0  0  0  0  0
  2  1  1  1  0  0  0
  2  3  1  0  0  0  0
  2  5  1  0  0  0  0
  3  4  1  0  0  0  0
  3 10  1  0  0  0  0
  5  6  1  0  0  0  0
  6  7  1  0  0  0  0
  7  8  1  0  0  0  0
  8  9  1  0  0  0  0
M  END
>  <CHROM.1>
-82.35764119,53.41022492,168.51943116,-168.72441945,-179.08840325,29.03775721
15.43638428,20.72996998,2.40389266,-0.08492651,-2.21427859

>  <Name>
ligand

>  <RI>
0

>  <Rbt.Current_Directory>
/home/itssahil/PROJECTS/Mol_Feturizer/New_Systems/rnas/3DIG

>  <Rbt.Executable>
rbdock ($Id: //depot/dev/client3/rdock/2013.1/src/exe/rbdock.cxx#4 $)

>  <Rbt.Library>
libRbt.so (2013.1, Build901 2013/11/27)

>  <Rbt.Parameter_File>
/export/apps/rDock/src/rDock_2013.1_src/data/scripts/dock_solv.prm

>  <Rbt.Receptor>
prm/pocket_docking_3.prm

>  <SCORE>
-10.103

>  <SCORE.INTER>
-9.62839

>  <SCORE.INTER.CONST>
1

>  <SCORE.INTER.POLAR>
0

>  <SCORE.INTER.ROT>
5

>  <SCORE.INTER.SOLV>
17.1055

>  <SCORE.INTER.VDW>
-19.0541

>  <SCORE.INTER.norm>
-0.962839

>  <SCORE.INTRA>
-0.474581

>  <SCORE.INTRA.DIHEDRAL>
-0.58518

>  <SCORE.INTRA.DIHEDRAL.0>
2.60093

>  <SCORE.INTRA.POLAR>
0

>  <SCORE.INTRA.POLAR.0>
0

>  <SCORE.INTRA.REPUL>
0

>  <SCORE.INTRA.REPUL.0>
0

>  <SCORE.INTRA.SOLV>
-0.593801

>  <SCORE.INTRA.SOLV.lig_0>
-33.7882

>  <SCORE.INTRA.VDW>
0.114909

>  <SCORE.INTRA.VDW.0>
-0.593976

>  <SCORE.INTRA.norm>
-0.0474581

>  <SCORE.RESTR>
0

>  <SCORE.RESTR.CAVITY>
0

>  <SCORE.RESTR.norm>
0

>  <SCORE.SYSTEM>
0

>  <SCORE.SYSTEM.CONST>
0

>  <SCORE.SYSTEM.DIHEDRAL>
0

>  <SCORE.SYSTEM.SOLV>
0

>  <SCORE.SYSTEM.norm>
0

>  <SCORE.heavy>
10

>  <SCORE.norm>
-1.0103

>  <RMSD>
5.741

$$$$
ligand
 OpenBabel11021811473D
libRbt.so/2013.1/901 2013/11/27
 10  9  0  0  0  0  0  0  0  0999 V2000
   28.8158   15.7059   19.9894 N   0  0  0  0  0  0  0  0  0  0  0  0
   28.2191   14.8948   21.0906 C   0  0  2  0  0  0  0  0  0  0  0  0
   26.7192   14.9550   21.0783 C   0  0  0  0  0  0  0  0  0  0  0  0
   26.1168   15.5106   20.1646 O   0  0  0  0  0  0  0  0  0  0  0  0
   28.7997   15.3326   22.4321 C   0  0  0  0  0  0  0  0  0  0  0  0
   30.5344   15.0011   22.4125 S   0  0  0  0  0  0  0  0  0  0  0  0
   31.1853   16.6387   22.3624 C   0  0  0  0  0  0  0  0  0  0  0  0
   32.7085   16.5619   22.3310 C   0  0  0  0  0  0  0  0  0  0  0  0
   33.2684   17.8981   22.3632 N   0  0  0  0  0  0  0  0  0  0  0  0
   26.0234   14.4424   21.9523 O   0  0  0  0  0  0  0  0  0  0  0  0
  2  1  1  6  0  0  0
  2  3  1  0  0  0  0
  2  5  1  0  0  0  0
  3  4  1  0  0  0  0
  3 10  1  0  0  0  0
  5  6  1  0  0  0  0
  6  7  1  0  0  0  0
  7  8  1  0  0  0  0
  8  9  1  0  0  0  0
M  END
>  <CHROM.1>
6.73245473,-63.08734110,110.27402848,-179.64605052,-176.90374725,29.34515926
15.61194279,21.70408445,3.13619074,0.37311415,2.24350031

>  <Name>
ligand

>  <RI>
0

>  <Rbt.Current_Directory>
/home/itssahil/PROJECTS/Mol_Feturizer/New_Systems/rnas/3DIG

>  <Rbt.Executable>
rbdock ($Id: //depot/dev/client3/rdock/2013.1/src/exe/rbdock.cxx#4 $)

>  <Rbt.Library>
libRbt.so (2013.1, Build901 2013/11/27)

>  <Rbt.Parameter_File>
/export/apps/rDock/src/rDock_2013.1_src/data/scripts/dock_solv.prm

>  <Rbt.Receptor>
prm/pocket_docking_3.prm

>  <SCORE>
-11.5675

>  <SCORE.INTER>
-12.0128

>  <SCORE.INTER.CONST>
1

>  <SCORE.INTER.POLAR>
0

>  <SCORE.INTER.ROT>
5

>  <SCORE.INTER.SOLV>
12.5482

>  <SCORE.INTER.VDW>
-19.1246

>  <SCORE.INTER.norm>
-1.20128

>  <SCORE.INTRA>
0.445246

>  <SCORE.INTRA.DIHEDRAL>
1.20029

>  <SCORE.INTRA.DIHEDRAL.0>
2.60093

>  <SCORE.INTRA.POLAR>
0

>  <SCORE.INTRA.POLAR.0>
0

>  <SCORE.INTRA.REPUL>
0

>  <SCORE.INTRA.REPUL.0>
0

>  <SCORE.INTRA.SOLV>
0.1092

>  <SCORE.INTRA.SOLV.lig_0>
-33.7882

>  <SCORE.INTRA.VDW>
-0.209498

>  <SCORE.INTRA.VDW.0>
-0.593976

>  <SCORE.INTRA.norm>
0.0445246

>  <SCORE.RESTR>
0

>  <SCORE.RESTR.CAVITY>
0

>  <SCORE.RESTR.norm>
0

>  <SCORE.SYSTEM>
0

>  <SCORE.SYSTEM.CONST>
0

>  <SCORE.SYSTEM.DIHEDRAL>
0

>  <SCORE.SYSTEM.SOLV>
0

>  <SCORE.SYSTEM.norm>
0

>  <SCORE.heavy>
10

>  <SCORE.norm>
-1.15675

>  <RMSD>
5.741

$$$$
ligand
 OpenBabel11021811473D
libRbt.so/2013.1/901 2013/11/27
 10  9  0  0  0  0  0  0  0  0999 V2000
   28.9816   14.8261   19.7834 N   0  0  0  0  0  0  0  0  0  0  0  0
   28.3609   14.6797   21.1324 C   0  0  2  0  0  0  0  0  0  0  0  0
   26.8754   14.8915   21.0893 C   0  0  0  0  0  0  0  0  0  0  0  0
   26.1561   14.5099   22.0077 O   0  0  0  0  0  0  0  0  0  0  0  0
   29.0453   15.6162   22.1239 C   0  0  0  0  0  0  0  0  0  0  0  0
   30.7638   15.2107   22.1637 S   0  0  0  0  0  0  0  0  0  0  0  0
   31.4710   16.7920   22.4911 C   0  0  0  0  0  0  0  0  0  0  0  0
   32.9785   16.7117   22.2721 C   0  0  0  0  0  0  0  0  0  0  0  0
   33.5807   18.0060   22.5211 N   0  0  0  0  0  0  0  0  0  0  0  0
   26.3098   15.4672   20.1623 O   0  0  0  0  0  0  0  0  0  0  0  0
  2  1  1  6  0  0  0
  2  3  1  0  0  0  0
  2  5  1  0  0  0  0
  3  4  1  0  0  0  0
  3 10  1  0  0  0  0
  5  6  1  0  0  0  0
  6  7  1  0  0  0  0
  7  8  1  0  0  0  0
  8  9  1  0  0  0  0
M  END
>  <CHROM.1>
162.56994594,-58.46495311,148.09784741,-168.10746549,179.35664141,29.56015760
15.61798687,21.63833800,-2.93148769,0.34842936,1.62435334

>  <Name>
ligand

>  <RI>
0

>  <Rbt.Current_Directory>
/home/itssahil/PROJECTS/Mol_Feturizer/New_Systems/rnas/3DIG

>  <Rbt.Executable>
rbdock ($Id: //depot/dev/client3/rdock/2013.1/src/exe/rbdock.cxx#4 $)

>  <Rbt.Library>
libRbt.so (2013.1, Build901 2013/11/27)

>  <Rbt.Parameter_File>
/export/apps/rDock/src/rDock_2013.1_src/data/scripts/dock_solv.prm

>  <Rbt.Receptor>
prm/pocket_docking_3.prm

>  <SCORE>
-11.9107

>  <SCORE.INTER>
-11.6064

>  <SCORE.INTER.CONST>
1

>  <SCORE.INTER.POLAR>
0

>  <SCORE.INTER.ROT>
5

>  <SCORE.INTER.SOLV>
13.165

>  <SCORE.INTER.VDW>
-19.0592

>  <SCORE.INTER.norm>
-1.16064

>  <SCORE.INTRA>
-0.30438

>  <SCORE.INTRA.DIHEDRAL>
0.41899

>  <SCORE.INTRA.DIHEDRAL.0>
2.60093

>  <SCORE.INTRA.POLAR>
0

>  <SCORE.INTRA.POLAR.0>
0

>  <SCORE.INTRA.REPUL>
0

>  <SCORE.INTRA.REPUL.0>
0

>  <SCORE.INTRA.SOLV>
-0.432246

>  <SCORE.INTRA.SOLV.lig_0>
-33.7882

>  <SCORE.INTRA.VDW>
-0.297752

>  <SCORE.INTRA.VDW.0>
-0.593976

>  <SCORE.INTRA.norm>
-0.030438

>  <SCORE.RESTR>
0

>  <SCORE.RESTR.CAVITY>
0

>  <SCORE.RESTR.norm>
0

>  <SCORE.SYSTEM>
0

>  <SCORE.SYSTEM.CONST>
0

>  <SCORE.SYSTEM.DIHEDRAL>
0

>  <SCORE.SYSTEM.SOLV>
0

>  <SCORE.SYSTEM.norm>
0

>  <SCORE.heavy>
10

>  <SCORE.norm>
-1.19107

>  <RMSD>
5.751

$$$$
ligand
 OpenBabel11021811473D
libRbt.so/2013.1/901 2013/11/27
 10  9  0  0  0  0  0  0  0  0999 V2000
   28.9605   14.7262   19.7761 N   0  0  0  0  0  0  0  0  0  0  0  0
   28.3683   14.6762   21.1448 C   0  0  2  0  0  0  0  0  0  0  0  0
   26.8834   14.8945   21.1188 C   0  0  0  0  0  0  0  0  0  0  0  0
   26.3422   15.4424   20.1629 O   0  0  0  0  0  0  0  0  0  0  0  0
   29.0788   15.6735   22.0553 C   0  0  0  0  0  0  0  0  0  0  0  0
   30.7875   15.2321   22.1236 S   0  0  0  0  0  0  0  0  0  0  0  0
   31.5218   16.7975   22.4670 C   0  0  0  0  0  0  0  0  0  0  0  0
   33.0334   16.6793   22.2992 C   0  0  0  0  0  0  0  0  0  0  0  0
   33.6573   17.9631   22.5489 N   0  0  0  0  0  0  0  0  0  0  0  0
   26.1382   14.5245   22.0235 O   0  0  0  0  0  0  0  0  0  0  0  0
  2  1  1  6  0  0  0
  2  3  1  0  0  0  0
  2  5  1  0  0  0  0
  3  4  1  0  0  0  0
  3 10  1  0  0  0  0
  5  6  1  0  0  0  0
  6  7  1  0  0  0  0
  7  8  1  0  0  0  0
  8  9  1  0  0  0  0
M  END
>  <CHROM.1>
-20.49996029,-60.08538648,153.02796355,-169.15591267,178.78674944,29.58475848
15.61131568,21.63119054,-2.86769005,0.29723826,1.41941904

>  <Name>
ligand

>  <RI>
0

>  <Rbt.Current_Directory>
/home/itssahil/PROJECTS/Mol_Feturizer/New_Systems/rnas/3DIG

>  <Rbt.Executable>
rbdock ($Id: //depot/dev/client3/rdock/2013.1/src/exe/rbdock.cxx#4 $)

>  <Rbt.Library>
libRbt.so (2013.1, Build901 2013/11/27)

>  <Rbt.Parameter_File>
/export/apps/rDock/src/rDock_2013.1_src/data/scripts/dock_solv.prm

>  <Rbt.Receptor>
prm/pocket_docking_6.prm

>  <SCORE>
-11.8278

>  <SCORE.INTER>
-11.3408

>  <SCORE.INTER.CONST>
1

>  <SCORE.INTER.POLAR>
0

>  <SCORE.INTER.ROT>
5

>  <SCORE.INTER.SOLV>
13.3865

>  <SCORE.INTER.VDW>
-18.956

>  <SCORE.INTER.norm>
-1.13408

>  <SCORE.INTRA>
-0.486993

>  <SCORE.INTRA.DIHEDRAL>
0.147068

>  <SCORE.INTRA.DIHEDRAL.0>
2.60093

>  <SCORE.INTRA.POLAR>
0

>  <SCORE.INTRA.POLAR.0>
0

>  <SCORE.INTRA.REPUL>
0

>  <SCORE.INTRA.REPUL.0>
0

>  <SCORE.INTRA.SOLV>
-0.493528

>  <SCORE.INTRA.SOLV.lig_0>
-33.7882

>  <SCORE.INTRA.VDW>
-0.313763

>  <SCORE.INTRA.VDW.0>
-0.593976

>  <SCORE.INTRA.norm>
-0.0486993

>  <SCORE.RESTR>
0

>  <SCORE.RESTR.CAVITY>
0

>  <SCORE.RESTR.norm>
0

>  <SCORE.SYSTEM>
0

>  <SCORE.SYSTEM.CONST>
0

>  <SCORE.SYSTEM.DIHEDRAL>
0

>  <SCORE.SYSTEM.SOLV>
0

>  <SCORE.SYSTEM.norm>
0

>  <SCORE.heavy>
10

>  <SCORE.norm>
-1.18278

>  <RMSD>
5.761

$$$$
ligand
 OpenBabel11021811473D
libRbt.so/2013.1/901 2013/11/27
 10  9  0  0  0  0  0  0  0  0999 V2000
   28.9780   14.8493   19.7884 N   0  0  0  0  0  0  0  0  0  0  0  0
   28.3743   14.7475   21.1492 C   0  0  2  0  0  0  0  0  0  0  0  0
   26.8847   14.9300   21.1139 C   0  0  0  0  0  0  0  0  0  0  0  0
   26.3397   15.4943   20.1699 O   0  0  0  0  0  0  0  0  0  0  0  0
   29.0511   15.7366   22.0936 C   0  0  0  0  0  0  0  0  0  0  0  0
   30.7585   15.3005   22.2117 S   0  0  0  0  0  0  0  0  0  0  0  0
   31.4938   16.8891   22.4201 C   0  0  0  0  0  0  0  0  0  0  0  0
   33.0113   16.7351   22.4021 C   0  0  0  0  0  0  0  0  0  0  0  0
   33.6386   18.0274   22.5924 N   0  0  0  0  0  0  0  0  0  0  0  0
   26.1399   14.5136   21.9986 O   0  0  0  0  0  0  0  0  0  0  0  0
  2  1  1  6  0  0  0
  2  3  1  0  0  0  0
  2  5  1  0  0  0  0
  3  4  1  0  0  0  0
  3 10  1  0  0  0  0
  5  6  1  0  0  0  0
  6  7  1  0  0  0  0
  7  8  1  0  0  0  0
  8  9  1  0  0  0  0
M  END
>  <CHROM.1>
-20.74319779,-62.04929221,147.09422470,-174.33453112,-179.13564545,29.57243834
15.67277959,21.66032234,-2.92114812,0.34923251,1.61504024

>  <Name>
ligand

>  <RI>
0

>  <Rbt.Current_Directory>
/home/itssahil/PROJECTS/Mol_Feturizer/New_Systems/rnas/3DIG

>  <Rbt.Executable>
rbdock ($Id: //depot/dev/client3/rdock/2013.1/src/exe/rbdock.cxx#4 $)

>  <Rbt.Library>
libRbt.so (2013.1, Build901 2013/11/27)

>  <Rbt.Parameter_File>
/export/apps/rDock/src/rDock_2013.1_src/data/scripts/dock_solv.prm

>  <Rbt.Receptor>
prm/pocket_docking_5.prm

>  <SCORE>
-11.8448

>  <SCORE.INTER>
-11.4661

>  <SCORE.INTER.CONST>
1

>  <SCORE.INTER.POLAR>
0

>  <SCORE.INTER.ROT>
5

>  <SCORE.INTER.SOLV>
13.0918

>  <SCORE.INTER.VDW>
-18.9413

>  <SCORE.INTER.norm>
-1.14661

>  <SCORE.INTRA>
-0.378754

>  <SCORE.INTRA.DIHEDRAL>
0.391628

>  <SCORE.INTRA.DIHEDRAL.0>
2.60093

>  <SCORE.INTRA.POLAR>
0

>  <SCORE.INTRA.POLAR.0>
0

>  <SCORE.INTRA.REPUL>
0

>  <SCORE.INTRA.REPUL.0>
0

>  <SCORE.INTRA.SOLV>
-0.45421

>  <SCORE.INTRA.SOLV.lig_0>
-33.7882

>  <SCORE.INTRA.VDW>
-0.347463

>  <SCORE.INTRA.VDW.0>
-0.593976

>  <SCORE.INTRA.norm>
-0.0378754

>  <SCORE.RESTR>
0

>  <SCORE.RESTR.CAVITY>
0

>  <SCORE.RESTR.norm>
0

>  <SCORE.SYSTEM>
0

>  <SCORE.SYSTEM.CONST>
0

>  <SCORE.SYSTEM.DIHEDRAL>
0

>  <SCORE.SYSTEM.SOLV>
0

>  <SCORE.SYSTEM.norm>
0

>  <SCORE.heavy>
10

>  <SCORE.norm>
-1.18448

>  <RMSD>
5.762

$$$$
ligand
 OpenBabel11021811473D
libRbt.so/2013.1/901 2013/11/27
 10  9  0  0  0  0  0  0  0  0999 V2000
   28.9898   14.8156   19.7727 N   0  0  0  0  0  0  0  0  0  0  0  0
   28.3850   14.6980   21.1317 C   0  0  2  0  0  0  0  0  0  0  0  0
   26.8974   14.8964   21.0997 C   0  0  0  0  0  0  0  0  0  0  0  0
   26.3531   15.4395   20.1429 O   0  0  0  0  0  0  0  0  0  0  0  0
   29.0721   15.6648   22.0918 C   0  0  0  0  0  0  0  0  0  0  0  0
   30.7910   15.2618   22.1381 S   0  0  0  0  0  0  0  0  0  0  0  0
   31.4928   16.8390   22.4954 C   0  0  0  0  0  0  0  0  0  0  0  0
   33.0113   16.7365   22.3928 C   0  0  0  0  0  0  0  0  0  0  0  0
   33.6112   18.0235   22.6820 N   0  0  0  0  0  0  0  0  0  0  0  0
   26.1534   14.5141   22.0002 O   0  0  0  0  0  0  0  0  0  0  0  0
  2  1  1  6  0  0  0
  2  3  1  0  0  0  0
  2  5  1  0  0  0  0
  3  4  1  0  0  0  0
  3 10  1  0  0  0  0
  5  6  1  0  0  0  0
  6  7  1  0  0  0  0
  7  8  1  0  0  0  0
  8  9  1  0  0  0  0
M  END
>  <CHROM.1>
-18.14517665,-59.15952890,150.81463138,-172.49022573,179.96092421,29.58391915
15.63900255,21.65259232,-2.85712958,0.31023417,1.44306687

>  <Name>
ligand

>  <RI>
0

>  <Rbt.Current_Directory>
/home/itssahil/PROJECTS/Mol_Feturizer/New_Systems/rnas/3DIG

>  <Rbt.Executable>
rbdock ($Id: //depot/dev/client3/rdock/2013.1/src/exe/rbdock.cxx#4 $)

>  <Rbt.Library>
libRbt.so (2013.1, Build901 2013/11/27)

>  <Rbt.Parameter_File>
/export/apps/rDock/src/rDock_2013.1_src/data/scripts/dock_solv.prm

>  <Rbt.Receptor>
prm/pocket_docking_5.prm

>  <SCORE>
-11.8118

>  <SCORE.INTER>
-11.3862

>  <SCORE.INTER.CONST>
1

>  <SCORE.INTER.POLAR>
0

>  <SCORE.INTER.ROT>
5

>  <SCORE.INTER.SOLV>
13.2182

>  <SCORE.INTER.VDW>
-18.9302

>  <SCORE.INTER.norm>
-1.13862

>  <SCORE.INTRA>
-0.425582

>  <SCORE.INTRA.DIHEDRAL>
0.184359

>  <SCORE.INTRA.DIHEDRAL.0>
2.60093

>  <SCORE.INTRA.POLAR>
0

>  <SCORE.INTRA.POLAR.0>
0

>  <SCORE.INTRA.REPUL>
0

>  <SCORE.INTRA.REPUL.0>
0

>  <SCORE.INTRA.SOLV>
-0.456391

>  <SCORE.INTRA.SOLV.lig_0>
-33.7882

>  <SCORE.INTRA.VDW>
-0.289566

>  <SCORE.INTRA.VDW.0>
-0.593976

>  <SCORE.INTRA.norm>
-0.0425582

>  <SCORE.RESTR>
0

>  <SCORE.RESTR.CAVITY>
0

>  <SCORE.RESTR.norm>
0

>  <SCORE.SYSTEM>
0

>  <SCORE.SYSTEM.CONST>
0

>  <SCORE.SYSTEM.DIHEDRAL>
0

>  <SCORE.SYSTEM.SOLV>
0

>  <SCORE.SYSTEM.norm>
0

>  <SCORE.heavy>
10

>  <SCORE.norm>
-1.18118

>  <RMSD>
5.762

$$$$
ligand
 OpenBabel11021811473D
libRbt.so/2013.1/901 2013/11/27
 10  9  0  0  0  0  0  0  0  0999 V2000
   28.9990   14.6912   19.7909 N   0  0  0  0  0  0  0  0  0  0  0  0
   28.4119   14.7283   21.1622 C   0  0  2  0  0  0  0  0  0  0  0  0
   26.9245   14.9275   21.1274 C   0  0  0  0  0  0  0  0  0  0  0  0
   26.2107   14.5168   22.0376 O   0  0  0  0  0  0  0  0  0  0  0  0
   29.1138   15.7935   21.9996 C   0  0  0  0  0  0  0  0  0  0  0  0
   30.8160   15.3446   22.1418 S   0  0  0  0  0  0  0  0  0  0  0  0
   31.5473   16.9144   22.4718 C   0  0  0  0  0  0  0  0  0  0  0  0
   33.0652   16.7680   22.4325 C   0  0  0  0  0  0  0  0  0  0  0  0
   33.6887   18.0616   22.6266 N   0  0  0  0  0  0  0  0  0  0  0  0
   26.3515   15.5206   20.2160 O   0  0  0  0  0  0  0  0  0  0  0  0
  2  1  1  6  0  0  0
  2  3  1  0  0  0  0
  2  5  1  0  0  0  0
  3  4  1  0  0  0  0
  3 10  1  0  0  0  0
  5  6  1  0  0  0  0
  6  7  1  0  0  0  0
  7  8  1  0  0  0  0
  8  9  1  0  0  0  0
M  END
>  <CHROM.1>
153.22777523,-62.18298732,156.56486243,-171.99767459,176.80245285,29.61968497
15.68211376,21.65907986,-2.81800862,0.26623155,1.27943191

>  <Name>
ligand

>  <RI>
0

>  <Rbt.Current_Directory>
/home/itssahil/PROJECTS/Mol_Feturizer/New_Systems/rnas/3DIG

>  <Rbt.Executable>
rbdock ($Id: //depot/dev/client3/rdock/2013.1/src/exe/rbdock.cxx#4 $)

>  <Rbt.Library>
libRbt.so (2013.1, Build901 2013/11/27)

>  <Rbt.Parameter_File>
/export/apps/rDock/src/rDock_2013.1_src/data/scripts/dock_solv.prm

>  <Rbt.Receptor>
prm/pocket_docking_6.prm

>  <SCORE>
-11.876

>  <SCORE.INTER>
-11.1218

>  <SCORE.INTER.CONST>
1

>  <SCORE.INTER.POLAR>
0

>  <SCORE.INTER.ROT>
5

>  <SCORE.INTER.SOLV>
13.5653

>  <SCORE.INTER.VDW>
-18.8697

>  <SCORE.INTER.norm>
-1.11218

>  <SCORE.INTRA>
-0.754112

>  <SCORE.INTRA.DIHEDRAL>
-0.1943

>  <SCORE.INTRA.DIHEDRAL.0>
2.60093

>  <SCORE.INTRA.POLAR>
0

>  <SCORE.INTRA.POLAR.0>
0

>  <SCORE.INTRA.REPUL>
0

>  <SCORE.INTRA.REPUL.0>
0

>  <SCORE.INTRA.SOLV>
-0.578036

>  <SCORE.INTRA.SOLV.lig_0>
-33.7882

>  <SCORE.INTRA.VDW>
-0.367944

>  <SCORE.INTRA.VDW.0>
-0.593976

>  <SCORE.INTRA.norm>
-0.0754112

>  <SCORE.RESTR>
0

>  <SCORE.RESTR.CAVITY>
0

>  <SCORE.RESTR.norm>
0

>  <SCORE.SYSTEM>
0

>  <SCORE.SYSTEM.CONST>
0

>  <SCORE.SYSTEM.DIHEDRAL>
0

>  <SCORE.SYSTEM.SOLV>
0

>  <SCORE.SYSTEM.norm>
0

>  <SCORE.heavy>
10

>  <SCORE.norm>
-1.1876

>  <RMSD>
5.762

$$$$
ligand
 OpenBabel11021811473D
libRbt.so/2013.1/901 2013/11/27
 10  9  0  0  0  0  0  0  0  0999 V2000
   28.9579   13.8235   21.9877 N   0  0  0  0  0  0  0  0  0  0  0  0
   28.1297   15.0638   21.9409 C   0  0  2  0  0  0  0  0  0  0  0  0
   26.9459   14.9105   21.0306 C   0  0  0  0  0  0  0  0  0  0  0  0
   27.0803   14.9316   19.8107 O   0  0  0  0  0  0  0  0  0  0  0  0
   29.0002   16.2559   21.5538 C   0  0  0  0  0  0  0  0  0  0  0  0
   30.3421   16.3487   22.6983 S   0  0  0  0  0  0  0  0  0  0  0  0
   31.6123   17.0075   21.6686 C   0  0  0  0  0  0  0  0  0  0  0  0
   32.9534   16.8464   22.3774 C   0  0  0  0  0  0  0  0  0  0  0  0
   34.0117   17.4031   21.5589 N   0  0  0  0  0  0  0  0  0  0  0  0
   25.8024   14.7360   21.4461 O   0  0  0  0  0  0  0  0  0  0  0  0
  2  1  1  6  0  0  0
  2  3  1  0  0  0  0
  2  5  1  0  0  0  0
  3  4  1  0  0  0  0
  3 10  1  0  0  0  0
  5  6  1  0  0  0  0
  6  7  1  0  0  0  0
  7  8  1  0  0  0  0
  8  9  1  0  0  0  0
M  END
>  <CHROM.1>
-74.95737507,-55.67500842,148.10141739,-166.20157265,-178.99867055,29.54563729
15.79488892,21.71177161,3.08721801,-0.39448216,-1.29639272

>  <Name>
ligand

>  <RI>
0

>  <Rbt.Current_Directory>
/home/itssahil/PROJECTS/Mol_Feturizer/New_Systems/rnas/3DIG

>  <Rbt.Executable>
rbdock ($Id: //depot/dev/client3/rdock/2013.1/src/exe/rbdock.cxx#4 $)

>  <Rbt.Library>
libRbt.so (2013.1, Build901 2013/11/27)

>  <Rbt.Parameter_File>
/export/apps/rDock/src/rDock_2013.1_src/data/scripts/dock_solv.prm

>  <Rbt.Receptor>
prm/blind_docking_100.prm

>  <SCORE>
-9.04026

>  <SCORE.INTER>
-8.98723

>  <SCORE.INTER.CONST>
1

>  <SCORE.INTER.POLAR>
0

>  <SCORE.INTER.ROT>
5

>  <SCORE.INTER.SOLV>
18.4696

>  <SCORE.INTER.VDW>
-19.0813

>  <SCORE.INTER.norm>
-0.898723

>  <SCORE.INTRA>
-0.0530298

>  <SCORE.INTRA.DIHEDRAL>
0.561223

>  <SCORE.INTRA.DIHEDRAL.0>
2.60093

>  <SCORE.INTRA.POLAR>
0

>  <SCORE.INTRA.POLAR.0>
0

>  <SCORE.INTRA.REPUL>
0

>  <SCORE.INTRA.REPUL.0>
0

>  <SCORE.INTRA.SOLV>
-0.403451

>  <SCORE.INTRA.SOLV.lig_0>
-33.7882

>  <SCORE.INTRA.VDW>
-0.131916

>  <SCORE.INTRA.VDW.0>
-0.593976

>  <SCORE.INTRA.norm>
-0.00530298

>  <SCORE.RESTR>
0

>  <SCORE.RESTR.CAVITY>
0

>  <SCORE.RESTR.norm>
0

>  <SCORE.SYSTEM>
0

>  <SCORE.SYSTEM.CONST>
0

>  <SCORE.SYSTEM.DIHEDRAL>
0

>  <SCORE.SYSTEM.SOLV>
0

>  <SCORE.SYSTEM.norm>
0

>  <SCORE.heavy>
10

>  <SCORE.norm>
-0.904026

>  <RMSD>
5.763

$$$$
ligand
 OpenBabel11021811473D
libRbt.so/2013.1/901 2013/11/27
 10  9  0  0  0  0  0  0  0  0999 V2000
   28.9902   14.7470   19.7716 N   0  0  0  0  0  0  0  0  0  0  0  0
   28.4061   14.7471   21.1447 C   0  0  2  0  0  0  0  0  0  0  0  0
   26.9162   14.9290   21.1173 C   0  0  0  0  0  0  0  0  0  0  0  0
   26.2108   14.5007   22.0259 O   0  0  0  0  0  0  0  0  0  0  0  0
   29.0970   15.8024   22.0034 C   0  0  0  0  0  0  0  0  0  0  0  0
   30.7942   15.3444   22.1739 S   0  0  0  0  0  0  0  0  0  0  0  0
   31.5358   16.9178   22.4611 C   0  0  0  0  0  0  0  0  0  0  0  0
   33.0526   16.7568   22.4459 C   0  0  0  0  0  0  0  0  0  0  0  0
   33.6853   18.0438   22.6535 N   0  0  0  0  0  0  0  0  0  0  0  0
   26.3328   15.5243   20.2140 O   0  0  0  0  0  0  0  0  0  0  0  0
  2  1  1  6  0  0  0
  2  3  1  0  0  0  0
  2  5  1  0  0  0  0
  3  4  1  0  0  0  0
  3 10  1  0  0  0  0
  5  6  1  0  0  0  0
  6  7  1  0  0  0  0
  7  8  1  0  0  0  0
  8  9  1  0  0  0  0
M  END
>  <CHROM.1>
153.90077813,-63.91177877,154.24201741,-172.26585209,178.85739865,29.60762934
15.68591831,21.66321197,-2.84585636,0.29799139,1.39338812

>  <Name>
ligand

>  <RI>
0

>  <Rbt.Current_Directory>
/home/itssahil/PROJECTS/Mol_Feturizer/New_Systems/rnas/3DIG

>  <Rbt.Executable>
rbdock ($Id: //depot/dev/client3/rdock/2013.1/src/exe/rbdock.cxx#4 $)

>  <Rbt.Library>
libRbt.so (2013.1, Build901 2013/11/27)

>  <Rbt.Parameter_File>
/export/apps/rDock/src/rDock_2013.1_src/data/scripts/dock_solv.prm

>  <Rbt.Receptor>
prm/pocket_docking_5.prm

>  <SCORE>
-11.8869

>  <SCORE.INTER>
-11.1812

>  <SCORE.INTER.CONST>
1

>  <SCORE.INTER.POLAR>
0

>  <SCORE.INTER.ROT>
5

>  <SCORE.INTER.SOLV>
13.3904

>  <SCORE.INTER.VDW>
-18.851

>  <SCORE.INTER.norm>
-1.11812

>  <SCORE.INTRA>
-0.705658

>  <SCORE.INTRA.DIHEDRAL>
-0.0601542

>  <SCORE.INTRA.DIHEDRAL.0>
2.60093

>  <SCORE.INTRA.POLAR>
0

>  <SCORE.INTRA.POLAR.0>
0

>  <SCORE.INTRA.REPUL>
0

>  <SCORE.INTRA.REPUL.0>
0

>  <SCORE.INTRA.SOLV>
-0.578873

>  <SCORE.INTRA.SOLV.lig_0>
-33.7882

>  <SCORE.INTRA.VDW>
-0.386144

>  <SCORE.INTRA.VDW.0>
-0.593976

>  <SCORE.INTRA.norm>
-0.0705658

>  <SCORE.RESTR>
0

>  <SCORE.RESTR.CAVITY>
0

>  <SCORE.RESTR.norm>
0

>  <SCORE.SYSTEM>
0

>  <SCORE.SYSTEM.CONST>
0

>  <SCORE.SYSTEM.DIHEDRAL>
0

>  <SCORE.SYSTEM.SOLV>
0

>  <SCORE.SYSTEM.norm>
0

>  <SCORE.heavy>
10

>  <SCORE.norm>
-1.18869

>  <RMSD>
5.765

$$$$
ligand
 OpenBabel11021811473D
libRbt.so/2013.1/901 2013/11/27
 10  9  0  0  0  0  0  0  0  0999 V2000
   29.0044   14.6660   19.8076 N   0  0  0  0  0  0  0  0  0  0  0  0
   28.4046   14.7142   21.1730 C   0  0  2  0  0  0  0  0  0  0  0  0
   26.9170   14.9092   21.1226 C   0  0  0  0  0  0  0  0  0  0  0  0
   26.3842   15.4585   20.1628 O   0  0  0  0  0  0  0  0  0  0  0  0
   29.0959   15.7890   22.0069 C   0  0  0  0  0  0  0  0  0  0  0  0
   30.7969   15.3436   22.1729 S   0  0  0  0  0  0  0  0  0  0  0  0
   31.5340   16.9278   22.4072 C   0  0  0  0  0  0  0  0  0  0  0  0
   33.0499   16.7633   22.4527 C   0  0  0  0  0  0  0  0  0  0  0  0
   33.6797   18.0576   22.6196 N   0  0  0  0  0  0  0  0  0  0  0  0
   26.1619   14.5180   22.0100 O   0  0  0  0  0  0  0  0  0  0  0  0
  2  1  1  6  0  0  0
  2  3  1  0  0  0  0
  2  5  1  0  0  0  0
  3  4  1  0  0  0  0
  3 10  1  0  0  0  0
  5  6  1  0  0  0  0
  6  7  1  0  0  0  0
  7  8  1  0  0  0  0
  8  9  1  0  0  0  0
M  END
>  <CHROM.1>
-25.59856509,-62.33828274,153.63572705,-175.14214316,178.92897771,29.60863778
15.67105546,21.65530717,-2.82735781,0.28437485,1.32497213

>  <Name>
ligand

>  <RI>
0

>  <Rbt.Current_Directory>
/home/itssahil/PROJECTS/Mol_Feturizer/New_Systems/rnas/3DIG

>  <Rbt.Executable>
rbdock ($Id: //depot/dev/client3/rdock/2013.1/src/exe/rbdock.cxx#4 $)

>  <Rbt.Library>
libRbt.so (2013.1, Build901 2013/11/27)

>  <Rbt.Parameter_File>
/export/apps/rDock/src/rDock_2013.1_src/data/scripts/dock_solv.prm

>  <Rbt.Receptor>
prm/pocket_docking_5.prm

>  <SCORE>
-11.812

>  <SCORE.INTER>
-11.1856

>  <SCORE.INTER.CONST>
1

>  <SCORE.INTER.POLAR>
0

>  <SCORE.INTER.ROT>
5

>  <SCORE.INTER.SOLV>
13.6358

>  <SCORE.INTER.VDW>
-18.9357

>  <SCORE.INTER.norm>
-1.11856

>  <SCORE.INTRA>
-0.626391

>  <SCORE.INTRA.DIHEDRAL>
-0.0222261

>  <SCORE.INTRA.DIHEDRAL.0>
2.60093

>  <SCORE.INTRA.POLAR>
0

>  <SCORE.INTRA.POLAR.0>
0

>  <SCORE.INTRA.REPUL>
0

>  <SCORE.INTRA.REPUL.0>
0

>  <SCORE.INTRA.SOLV>
-0.532981

>  <SCORE.INTRA.SOLV.lig_0>
-33.7882

>  <SCORE.INTRA.VDW>
-0.348787

>  <SCORE.INTRA.VDW.0>
-0.593976

>  <SCORE.INTRA.norm>
-0.0626391

>  <SCORE.RESTR>
0

>  <SCORE.RESTR.CAVITY>
0

>  <SCORE.RESTR.norm>
0

>  <SCORE.SYSTEM>
0

>  <SCORE.SYSTEM.CONST>
0

>  <SCORE.SYSTEM.DIHEDRAL>
0

>  <SCORE.SYSTEM.SOLV>
0

>  <SCORE.SYSTEM.norm>
0

>  <SCORE.heavy>
10

>  <SCORE.norm>
-1.1812

>  <RMSD>
5.766

$$$$
ligand
 OpenBabel11021811473D
libRbt.so/2013.1/901 2013/11/27
 10  9  0  0  0  0  0  0  0  0999 V2000
   28.9752   14.7331   19.8071 N   0  0  0  0  0  0  0  0  0  0  0  0
   28.3714   14.7133   21.1715 C   0  0  2  0  0  0  0  0  0  0  0  0
   26.8838   14.9094   21.1264 C   0  0  0  0  0  0  0  0  0  0  0  0
   26.3522   15.4958   20.1883 O   0  0  0  0  0  0  0  0  0  0  0  0
   29.0594   15.7460   22.0595 C   0  0  0  0  0  0  0  0  0  0  0  0
   30.7714   15.3247   22.1643 S   0  0  0  0  0  0  0  0  0  0  0  0
   31.4849   16.9070   22.4726 C   0  0  0  0  0  0  0  0  0  0  0  0
   33.0041   16.7805   22.4186 C   0  0  0  0  0  0  0  0  0  0  0  0
   33.6129   18.0790   22.6270 N   0  0  0  0  0  0  0  0  0  0  0  0
   26.1276   14.4832   21.9966 O   0  0  0  0  0  0  0  0  0  0  0  0
  2  1  1  6  0  0  0
  2  3  1  0  0  0  0
  2  5  1  0  0  0  0
  3  4  1  0  0  0  0
  3 10  1  0  0  0  0
  5  6  1  0  0  0  0
  6  7  1  0  0  0  0
  7  8  1  0  0  0  0
  8  9  1  0  0  0  0
M  END
>  <CHROM.1>
-25.01789398,-60.47976334,153.18644871,-172.78477821,178.17827697,29.57156305
15.67110709,21.66295568,-2.84789604,0.30583234,1.39362422

>  <Name>
ligand

>  <RI>
0

>  <Rbt.Current_Directory>
/home/itssahil/PROJECTS/Mol_Feturizer/New_Systems/rnas/3DIG

>  <Rbt.Executable>
rbdock ($Id: //depot/dev/client3/rdock/2013.1/src/exe/rbdock.cxx#4 $)

>  <Rbt.Library>
libRbt.so (2013.1, Build901 2013/11/27)

>  <Rbt.Parameter_File>
/export/apps/rDock/src/rDock_2013.1_src/data/scripts/dock_solv.prm

>  <Rbt.Receptor>
prm/blind_docking_60.prm

>  <SCORE>
-11.7653

>  <SCORE.INTER>
-11.2115

>  <SCORE.INTER.CONST>
1

>  <SCORE.INTER.POLAR>
0

>  <SCORE.INTER.ROT>
5

>  <SCORE.INTER.SOLV>
13.3985

>  <SCORE.INTER.VDW>
-18.8738

>  <SCORE.INTER.norm>
-1.12115

>  <SCORE.INTRA>
-0.553783

>  <SCORE.INTRA.DIHEDRAL>
0.0440516

>  <SCORE.INTRA.DIHEDRAL.0>
2.60093

>  <SCORE.INTRA.POLAR>
0

>  <SCORE.INTRA.POLAR.0>
0

>  <SCORE.INTRA.REPUL>
0

>  <SCORE.INTRA.REPUL.0>
0

>  <SCORE.INTRA.SOLV>
-0.5019

>  <SCORE.INTRA.SOLV.lig_0>
-33.7882

>  <SCORE.INTRA.VDW>
-0.324858

>  <SCORE.INTRA.VDW.0>
-0.593976

>  <SCORE.INTRA.norm>
-0.0553783

>  <SCORE.RESTR>
0

>  <SCORE.RESTR.CAVITY>
0

>  <SCORE.RESTR.norm>
0

>  <SCORE.SYSTEM>
0

>  <SCORE.SYSTEM.CONST>
0

>  <SCORE.SYSTEM.DIHEDRAL>
0

>  <SCORE.SYSTEM.SOLV>
0

>  <SCORE.SYSTEM.norm>
0

>  <SCORE.heavy>
10

>  <SCORE.norm>
-1.17653

>  <RMSD>
5.770

$$$$
ligand
 OpenBabel11021811473D
libRbt.so/2013.1/901 2013/11/27
 10  9  0  0  0  0  0  0  0  0999 V2000
   28.9617   14.6683   19.7779 N   0  0  0  0  0  0  0  0  0  0  0  0
   28.3646   14.6893   21.1452 C   0  0  2  0  0  0  0  0  0  0  0  0
   26.8778   14.8916   21.1019 C   0  0  0  0  0  0  0  0  0  0  0  0
   26.1628   14.5217   22.0285 O   0  0  0  0  0  0  0  0  0  0  0  0
   29.0620   15.7429   22.0009 C   0  0  0  0  0  0  0  0  0  0  0  0
   30.7657   15.2977   22.1373 S   0  0  0  0  0  0  0  0  0  0  0  0
   31.4956   16.8701   22.4575 C   0  0  0  0  0  0  0  0  0  0  0  0
   33.0132   16.7162   22.4625 C   0  0  0  0  0  0  0  0  0  0  0  0
   33.6368   18.0031   22.6964 N   0  0  0  0  0  0  0  0  0  0  0  0
   26.3066   15.4476   20.1663 O   0  0  0  0  0  0  0  0  0  0  0  0
  2  1  1  6  0  0  0
  2  3  1  0  0  0  0
  2  5  1  0  0  0  0
  3  4  1  0  0  0  0
  3 10  1  0  0  0  0
  5  6  1  0  0  0  0
  6  7  1  0  0  0  0
  7  8  1  0  0  0  0
  8  9  1  0  0  0  0
M  END
>  <CHROM.1>
156.37694934,-61.64896311,155.33114110,-174.04584307,178.80987935,29.57124469
15.63980139,21.65543014,-2.80571115,0.25564419,1.26482282

>  <Name>
ligand

>  <RI>
0

>  <Rbt.Current_Directory>
/home/itssahil/PROJECTS/Mol_Feturizer/New_Systems/rnas/3DIG

>  <Rbt.Executable>
rbdock ($Id: //depot/dev/client3/rdock/2013.1/src/exe/rbdock.cxx#4 $)

>  <Rbt.Library>
libRbt.so (2013.1, Build901 2013/11/27)

>  <Rbt.Parameter_File>
/export/apps/rDock/src/rDock_2013.1_src/data/scripts/dock_solv.prm

>  <Rbt.Receptor>
prm/pocket_docking_6.prm

>  <SCORE>
-11.8641

>  <SCORE.INTER>
-11.1363

>  <SCORE.INTER.CONST>
1

>  <SCORE.INTER.POLAR>
0

>  <SCORE.INTER.ROT>
5

>  <SCORE.INTER.SOLV>
13.5678

>  <SCORE.INTER.VDW>
-18.8802

>  <SCORE.INTER.norm>
-1.11363

>  <SCORE.INTRA>
-0.727781

>  <SCORE.INTRA.DIHEDRAL>
-0.204676

>  <SCORE.INTRA.DIHEDRAL.0>
2.60093

>  <SCORE.INTRA.POLAR>
0

>  <SCORE.INTRA.POLAR.0>
0

>  <SCORE.INTRA.REPUL>
0

>  <SCORE.INTRA.REPUL.0>
0

>  <SCORE.INTRA.SOLV>
-0.557199

>  <SCORE.INTRA.SOLV.lig_0>
-33.7882

>  <SCORE.INTRA.VDW>
-0.346844

>  <SCORE.INTRA.VDW.0>
-0.593976

>  <SCORE.INTRA.norm>
-0.0727781

>  <SCORE.RESTR>
0

>  <SCORE.RESTR.CAVITY>
0

>  <SCORE.RESTR.norm>
0

>  <SCORE.SYSTEM>
0

>  <SCORE.SYSTEM.CONST>
0

>  <SCORE.SYSTEM.DIHEDRAL>
0

>  <SCORE.SYSTEM.SOLV>
0

>  <SCORE.SYSTEM.norm>
0

>  <SCORE.heavy>
10

>  <SCORE.norm>
-1.18641

>  <RMSD>
5.777

$$$$
ligand
 OpenBabel11021811473D
libRbt.so/2013.1/901 2013/11/27
 10  9  0  0  0  0  0  0  0  0999 V2000
   28.9713   14.6147   19.8224 N   0  0  0  0  0  0  0  0  0  0  0  0
   28.3837   14.7114   21.1905 C   0  0  2  0  0  0  0  0  0  0  0  0
   26.8977   14.9198   21.1463 C   0  0  0  0  0  0  0  0  0  0  0  0
   26.3692   15.5004   20.2028 O   0  0  0  0  0  0  0  0  0  0  0  0
   29.0927   15.8045   21.9848 C   0  0  0  0  0  0  0  0  0  0  0  0
   30.7909   15.3480   22.1494 S   0  0  0  0  0  0  0  0  0  0  0  0
   31.5275   16.9173   22.4694 C   0  0  0  0  0  0  0  0  0  0  0  0
   33.0448   16.7601   22.4578 C   0  0  0  0  0  0  0  0  0  0  0  0
   33.6732   18.0386   22.7232 N   0  0  0  0  0  0  0  0  0  0  0  0
   26.1397   14.5097   22.0226 O   0  0  0  0  0  0  0  0  0  0  0  0
  2  1  1  6  0  0  0
  2  3  1  0  0  0  0
  2  5  1  0  0  0  0
  3  4  1  0  0  0  0
  3 10  1  0  0  0  0
  5  6  1  0  0  0  0
  6  7  1  0  0  0  0
  7  8  1  0  0  0  0
  8  9  1  0  0  0  0
M  END
>  <CHROM.1>
-29.04078474,-62.29200761,158.36567729,-172.42158081,-179.82054103,29.59569978
15.66985966,21.67348733,-2.78287525,0.22491816,1.16032514

>  <Name>
ligand

>  <RI>
0

>  <Rbt.Current_Directory>
/home/itssahil/PROJECTS/Mol_Feturizer/New_Systems/rnas/3DIG

>  <Rbt.Executable>
rbdock ($Id: //depot/dev/client3/rdock/2013.1/src/exe/rbdock.cxx#4 $)

>  <Rbt.Library>
libRbt.so (2013.1, Build901 2013/11/27)

>  <Rbt.Parameter_File>
/export/apps/rDock/src/rDock_2013.1_src/data/scripts/dock_solv.prm

>  <Rbt.Receptor>
prm/blind_docking_80.prm

>  <SCORE>
-11.7943

>  <SCORE.INTER>
-11.0185

>  <SCORE.INTER.CONST>
1

>  <SCORE.INTER.POLAR>
0

>  <SCORE.INTER.ROT>
5

>  <SCORE.INTER.SOLV>
13.7524

>  <SCORE.INTER.VDW>
-18.8631

>  <SCORE.INTER.norm>
-1.10185

>  <SCORE.INTRA>
-0.77579

>  <SCORE.INTRA.DIHEDRAL>
-0.253806

>  <SCORE.INTRA.DIHEDRAL.0>
2.60093

>  <SCORE.INTRA.POLAR>
0

>  <SCORE.INTRA.POLAR.0>
0

>  <SCORE.INTRA.REPUL>
0

>  <SCORE.INTRA.REPUL.0>
0

>  <SCORE.INTRA.SOLV>
-0.582198

>  <SCORE.INTRA.SOLV.lig_0>
-33.7882

>  <SCORE.INTRA.VDW>
-0.357788

>  <SCORE.INTRA.VDW.0>
-0.593976

>  <SCORE.INTRA.norm>
-0.077579

>  <SCORE.RESTR>
0

>  <SCORE.RESTR.CAVITY>
0

>  <SCORE.RESTR.norm>
0

>  <SCORE.SYSTEM>
0

>  <SCORE.SYSTEM.CONST>
0

>  <SCORE.SYSTEM.DIHEDRAL>
0

>  <SCORE.SYSTEM.SOLV>
0

>  <SCORE.SYSTEM.norm>
0

>  <SCORE.heavy>
10

>  <SCORE.norm>
-1.17943

>  <RMSD>
5.778

$$$$
ligand
 OpenBabel11021811473D
libRbt.so/2013.1/901 2013/11/27
 10  9  0  0  0  0  0  0  0  0999 V2000
   28.9638   14.6341   19.8072 N   0  0  0  0  0  0  0  0  0  0  0  0
   28.3536   14.6380   21.1689 C   0  0  2  0  0  0  0  0  0  0  0  0
   26.8697   14.8584   21.1148 C   0  0  0  0  0  0  0  0  0  0  0  0
   26.3516   15.4391   20.1656 O   0  0  0  0  0  0  0  0  0  0  0  0
   29.0546   15.6680   22.0498 C   0  0  0  0  0  0  0  0  0  0  0  0
   30.7700   15.2531   22.1184 S   0  0  0  0  0  0  0  0  0  0  0  0
   31.4766   16.8227   22.4993 C   0  0  0  0  0  0  0  0  0  0  0  0
   32.9946   16.7180   22.3915 C   0  0  0  0  0  0  0  0  0  0  0  0
   33.5980   18.0013   22.6899 N   0  0  0  0  0  0  0  0  0  0  0  0
   26.1031   14.4584   21.9883 O   0  0  0  0  0  0  0  0  0  0  0  0
  2  1  1  6  0  0  0
  2  3  1  0  0  0  0
  2  5  1  0  0  0  0
  3  4  1  0  0  0  0
  3 10  1  0  0  0  0
  5  6  1  0  0  0  0
  6  7  1  0  0  0  0
  7  8  1  0  0  0  0
  8  9  1  0  0  0  0
M  END
>  <CHROM.1>
-24.70370024,-58.42525738,155.76516167,-171.37757987,179.52628709,29.56193593
15.60313113,21.65417550,-2.80139007,0.25203537,1.23674178

>  <Name>
ligand

>  <RI>
0

>  <Rbt.Current_Directory>
/home/itssahil/PROJECTS/Mol_Feturizer/New_Systems/rnas/3DIG

>  <Rbt.Executable>
rbdock ($Id: //depot/dev/client3/rdock/2013.1/src/exe/rbdock.cxx#4 $)

>  <Rbt.Library>
libRbt.so (2013.1, Build901 2013/11/27)

>  <Rbt.Parameter_File>
/export/apps/rDock/src/rDock_2013.1_src/data/scripts/dock_solv.prm

>  <Rbt.Receptor>
prm/pocket_docking_8.prm

>  <SCORE>
-11.816

>  <SCORE.INTER>
-11.2346

>  <SCORE.INTER.CONST>
1

>  <SCORE.INTER.POLAR>
0

>  <SCORE.INTER.ROT>
5

>  <SCORE.INTER.SOLV>
13.7051

>  <SCORE.INTER.VDW>
-18.9914

>  <SCORE.INTER.norm>
-1.12346

>  <SCORE.INTRA>
-0.581364

>  <SCORE.INTRA.DIHEDRAL>
-0.0783748

>  <SCORE.INTRA.DIHEDRAL.0>
2.60093

>  <SCORE.INTRA.POLAR>
0

>  <SCORE.INTRA.POLAR.0>
0

>  <SCORE.INTRA.REPUL>
0

>  <SCORE.INTRA.REPUL.0>
0

>  <SCORE.INTRA.SOLV>
-0.500792

>  <SCORE.INTRA.SOLV.lig_0>
-33.7882

>  <SCORE.INTRA.VDW>
-0.29178

>  <SCORE.INTRA.VDW.0>
-0.593976

>  <SCORE.INTRA.norm>
-0.0581364

>  <SCORE.RESTR>
0

>  <SCORE.RESTR.CAVITY>
0

>  <SCORE.RESTR.norm>
0

>  <SCORE.SYSTEM>
0

>  <SCORE.SYSTEM.CONST>
0

>  <SCORE.SYSTEM.DIHEDRAL>
0

>  <SCORE.SYSTEM.SOLV>
0

>  <SCORE.SYSTEM.norm>
0

>  <SCORE.heavy>
10

>  <SCORE.norm>
-1.1816

>  <RMSD>
5.778

$$$$
ligand
 OpenBabel11021811473D
libRbt.so/2013.1/901 2013/11/27
 10  9  0  0  0  0  0  0  0  0999 V2000
   28.9580   14.6826   19.7939 N   0  0  0  0  0  0  0  0  0  0  0  0
   28.3490   14.6874   21.1561 C   0  0  2  0  0  0  0  0  0  0  0  0
   26.8621   14.8866   21.1019 C   0  0  0  0  0  0  0  0  0  0  0  0
   26.3362   15.4641   20.1550 O   0  0  0  0  0  0  0  0  0  0  0  0
   29.0362   15.7334   22.0290 C   0  0  0  0  0  0  0  0  0  0  0  0
   30.7423   15.2976   22.1654 S   0  0  0  0  0  0  0  0  0  0  0  0
   31.4703   16.8818   22.4261 C   0  0  0  0  0  0  0  0  0  0  0  0
   32.9883   16.7307   22.4329 C   0  0  0  0  0  0  0  0  0  0  0  0
   33.6093   18.0198   22.6614 N   0  0  0  0  0  0  0  0  0  0  0  0
   26.1007   14.4714   21.9730 O   0  0  0  0  0  0  0  0  0  0  0  0
  2  1  1  6  0  0  0
  2  3  1  0  0  0  0
  2  5  1  0  0  0  0
  3  4  1  0  0  0  0
  3 10  1  0  0  0  0
  5  6  1  0  0  0  0
  6  7  1  0  0  0  0
  7  8  1  0  0  0  0
  8  9  1  0  0  0  0
M  END
>  <CHROM.1>
-25.38234296,-61.22435705,152.49411711,-174.44286828,-179.34380157,29.55139974
15.64006574,21.65068000,-2.83427542,0.29248540,1.36375183

>  <Name>
ligand

>  <RI>
0

>  <Rbt.Current_Directory>
/home/itssahil/PROJECTS/Mol_Feturizer/New_Systems/rnas/3DIG

>  <Rbt.Executable>
rbdock ($Id: //depot/dev/client3/rdock/2013.1/src/exe/rbdock.cxx#4 $)

>  <Rbt.Library>
libRbt.so (2013.1, Build901 2013/11/27)

>  <Rbt.Parameter_File>
/export/apps/rDock/src/rDock_2013.1_src/data/scripts/dock_solv.prm

>  <Rbt.Receptor>
prm/pocket_docking_5.prm

>  <SCORE>
-11.8368

>  <SCORE.INTER>
-11.2704

>  <SCORE.INTER.CONST>
1

>  <SCORE.INTER.POLAR>
0

>  <SCORE.INTER.ROT>
5

>  <SCORE.INTER.SOLV>
13.5037

>  <SCORE.INTER.VDW>
-18.9482

>  <SCORE.INTER.norm>
-1.12704

>  <SCORE.INTRA>
-0.566324

>  <SCORE.INTRA.DIHEDRAL>
0.0454062

>  <SCORE.INTRA.DIHEDRAL.0>
2.60093

>  <SCORE.INTRA.POLAR>
0

>  <SCORE.INTRA.POLAR.0>
0

>  <SCORE.INTRA.REPUL>
0

>  <SCORE.INTRA.REPUL.0>
0

>  <SCORE.INTRA.SOLV>
-0.505108

>  <SCORE.INTRA.SOLV.lig_0>
-33.7882

>  <SCORE.INTRA.VDW>
-0.336473

>  <SCORE.INTRA.VDW.0>
-0.593976

>  <SCORE.INTRA.norm>
-0.0566324

>  <SCORE.RESTR>
0

>  <SCORE.RESTR.CAVITY>
0

>  <SCORE.RESTR.norm>
0

>  <SCORE.SYSTEM>
0

>  <SCORE.SYSTEM.CONST>
0

>  <SCORE.SYSTEM.DIHEDRAL>
0

>  <SCORE.SYSTEM.SOLV>
0

>  <SCORE.SYSTEM.norm>
0

>  <SCORE.heavy>
10

>  <SCORE.norm>
-1.18368

>  <RMSD>
5.780

$$$$
ligand
 OpenBabel11021811473D
libRbt.so/2013.1/901 2013/11/27
 10  9  0  0  0  0  0  0  0  0999 V2000
   28.9405   14.6326   19.7853 N   0  0  0  0  0  0  0  0  0  0  0  0
   28.3449   14.6710   21.1529 C   0  0  2  0  0  0  0  0  0  0  0  0
   26.8581   14.8733   21.1086 C   0  0  0  0  0  0  0  0  0  0  0  0
   26.3198   15.3908   20.1344 O   0  0  0  0  0  0  0  0  0  0  0  0
   29.0436   15.7350   21.9945 C   0  0  0  0  0  0  0  0  0  0  0  0
   30.7456   15.2865   22.1414 S   0  0  0  0  0  0  0  0  0  0  0  0
   31.4760   16.8571   22.4696 C   0  0  0  0  0  0  0  0  0  0  0  0
   32.9937   16.7166   22.4070 C   0  0  0  0  0  0  0  0  0  0  0  0
   33.6172   17.9954   22.6821 N   0  0  0  0  0  0  0  0  0  0  0  0
   26.1089   14.5190   22.0163 O   0  0  0  0  0  0  0  0  0  0  0  0
  2  1  1  6  0  0  0
  2  3  1  0  0  0  0
  2  5  1  0  0  0  0
  3  4  1  0  0  0  0
  3 10  1  0  0  0  0
  5  6  1  0  0  0  0
  6  7  1  0  0  0  0
  7  8  1  0  0  0  0
  8  9  1  0  0  0  0
M  END
>  <CHROM.1>
-22.97959449,-61.93189075,156.32655068,-170.90205815,-179.65299888,29.55136732
15.62308579,21.64797649,-2.80398132,0.25596704,1.25440700

>  <Name>
ligand

>  <RI>
0

>  <Rbt.Current_Directory>
/home/itssahil/PROJECTS/Mol_Feturizer/New_Systems/rnas/3DIG

>  <Rbt.Executable>
rbdock ($Id: //depot/dev/client3/rdock/2013.1/src/exe/rbdock.cxx#4 $)

>  <Rbt.Library>
libRbt.so (2013.1, Build901 2013/11/27)

>  <Rbt.Parameter_File>
/export/apps/rDock/src/rDock_2013.1_src/data/scripts/dock_solv.prm

>  <Rbt.Receptor>
prm/pocket_docking_5.prm

>  <SCORE>
-11.7903

>  <SCORE.INTER>
-11.1341

>  <SCORE.INTER.CONST>
1

>  <SCORE.INTER.POLAR>
0

>  <SCORE.INTER.ROT>
5

>  <SCORE.INTER.SOLV>
13.6231

>  <SCORE.INTER.VDW>
-18.8971

>  <SCORE.INTER.norm>
-1.11341

>  <SCORE.INTRA>
-0.656168

>  <SCORE.INTRA.DIHEDRAL>
-0.101258

>  <SCORE.INTRA.DIHEDRAL.0>
2.60093

>  <SCORE.INTRA.POLAR>
0

>  <SCORE.INTRA.POLAR.0>
0

>  <SCORE.INTRA.REPUL>
0

>  <SCORE.INTRA.REPUL.0>
0

>  <SCORE.INTRA.SOLV>
-0.554541

>  <SCORE.INTRA.SOLV.lig_0>
-33.7882

>  <SCORE.INTRA.VDW>
-0.328269

>  <SCORE.INTRA.VDW.0>
-0.593976

>  <SCORE.INTRA.norm>
-0.0656168

>  <SCORE.RESTR>
0

>  <SCORE.RESTR.CAVITY>
0

>  <SCORE.RESTR.norm>
0

>  <SCORE.SYSTEM>
0

>  <SCORE.SYSTEM.CONST>
0

>  <SCORE.SYSTEM.DIHEDRAL>
0

>  <SCORE.SYSTEM.SOLV>
0

>  <SCORE.SYSTEM.norm>
0

>  <SCORE.heavy>
10

>  <SCORE.norm>
-1.17903

>  <RMSD>
5.784

$$$$
ligand
 OpenBabel11021811473D
libRbt.so/2013.1/901 2013/11/27
 10  9  0  0  0  0  0  0  0  0999 V2000
   28.9412   14.5440   19.7673 N   0  0  0  0  0  0  0  0  0  0  0  0
   28.3583   14.6680   21.1353 C   0  0  2  0  0  0  0  0  0  0  0  0
   26.8735   14.8850   21.0917 C   0  0  0  0  0  0  0  0  0  0  0  0
   26.1522   14.5027   22.0083 O   0  0  0  0  0  0  0  0  0  0  0  0
   29.0765   15.7702   21.9084 C   0  0  0  0  0  0  0  0  0  0  0  0
   30.7714   15.3039   22.0796 S   0  0  0  0  0  0  0  0  0  0  0  0
   31.5078   16.8604   22.4577 C   0  0  0  0  0  0  0  0  0  0  0  0
   33.0239   16.6938   22.4842 C   0  0  0  0  0  0  0  0  0  0  0  0
   33.6558   17.9806   22.6957 N   0  0  0  0  0  0  0  0  0  0  0  0
   26.3105   15.4656   20.1661 O   0  0  0  0  0  0  0  0  0  0  0  0
  2  1  1  6  0  0  0
  2  3  1  0  0  0  0
  2  5  1  0  0  0  0
  3  4  1  0  0  0  0
  3 10  1  0  0  0  0
  5  6  1  0  0  0  0
  6  7  1  0  0  0  0
  7  8  1  0  0  0  0
  8  9  1  0  0  0  0
M  END
>  <CHROM.1>
151.11715854,-62.43421776,161.33278014,-173.41627046,175.81298934,29.57405287
15.62540382,21.63296157,-2.76632912,0.19327062,1.09395643

>  <Name>
ligand

>  <RI>
0

>  <Rbt.Current_Directory>
/home/itssahil/PROJECTS/Mol_Feturizer/New_Systems/rnas/3DIG

>  <Rbt.Executable>
rbdock ($Id: //depot/dev/client3/rdock/2013.1/src/exe/rbdock.cxx#4 $)

>  <Rbt.Library>
libRbt.so (2013.1, Build901 2013/11/27)

>  <Rbt.Parameter_File>
/export/apps/rDock/src/rDock_2013.1_src/data/scripts/dock_solv.prm

>  <Rbt.Receptor>
prm/pocket_docking_4.prm

>  <SCORE>
-11.879

>  <SCORE.INTER>
-10.9589

>  <SCORE.INTER.CONST>
1

>  <SCORE.INTER.POLAR>
0

>  <SCORE.INTER.ROT>
5

>  <SCORE.INTER.SOLV>
13.9438

>  <SCORE.INTER.VDW>
-18.8872

>  <SCORE.INTER.norm>
-1.09589

>  <SCORE.INTRA>
-0.920119

>  <SCORE.INTRA.DIHEDRAL>
-0.463187

>  <SCORE.INTRA.DIHEDRAL.0>
2.60093

>  <SCORE.INTRA.POLAR>
0

>  <SCORE.INTRA.POLAR.0>
0

>  <SCORE.INTRA.REPUL>
0

>  <SCORE.INTRA.REPUL.0>
0

>  <SCORE.INTRA.SOLV>
-0.628578

>  <SCORE.INTRA.SOLV.lig_0>
-33.7882

>  <SCORE.INTRA.VDW>
-0.374237

>  <SCORE.INTRA.VDW.0>
-0.593976

>  <SCORE.INTRA.norm>
-0.0920119

>  <SCORE.RESTR>
0

>  <SCORE.RESTR.CAVITY>
0

>  <SCORE.RESTR.norm>
0

>  <SCORE.SYSTEM>
0

>  <SCORE.SYSTEM.CONST>
0

>  <SCORE.SYSTEM.DIHEDRAL>
0

>  <SCORE.SYSTEM.SOLV>
0

>  <SCORE.SYSTEM.norm>
0

>  <SCORE.heavy>
10

>  <SCORE.norm>
-1.1879

>  <RMSD>
5.785

$$$$
ligand
 OpenBabel11021811473D
libRbt.so/2013.1/901 2013/11/27
 10  9  0  0  0  0  0  0  0  0999 V2000
   28.9555   14.5439   19.7958 N   0  0  0  0  0  0  0  0  0  0  0  0
   28.3531   14.6412   21.1574 C   0  0  2  0  0  0  0  0  0  0  0  0
   26.8712   14.8729   21.0968 C   0  0  0  0  0  0  0  0  0  0  0  0
   26.1365   14.5047   22.0086 O   0  0  0  0  0  0  0  0  0  0  0  0
   29.0694   15.7183   21.9670 C   0  0  0  0  0  0  0  0  0  0  0  0
   30.7799   15.2880   22.0584 S   0  0  0  0  0  0  0  0  0  0  0  0
   31.4906   16.8413   22.4943 C   0  0  0  0  0  0  0  0  0  0  0  0
   33.0092   16.7307   22.4022 C   0  0  0  0  0  0  0  0  0  0  0  0
   33.6182   17.9827   22.8040 N   0  0  0  0  0  0  0  0  0  0  0  0
   26.3238   15.4524   20.1612 O   0  0  0  0  0  0  0  0  0  0  0  0
  2  1  1  6  0  0  0
  2  3  1  0  0  0  0
  2  5  1  0  0  0  0
  3  4  1  0  0  0  0
  3 10  1  0  0  0  0
  5  6  1  0  0  0  0
  6  7  1  0  0  0  0
  7  8  1  0  0  0  0
  8  9  1  0  0  0  0
M  END
>  <CHROM.1>
152.90504558,-58.62986670,161.20340979,-170.90162120,-177.91174610,29.56944444
15.61510911,21.64363317,-2.75430224,0.17620483,1.04541649

>  <Name>
ligand

>  <RI>
0

>  <Rbt.Current_Directory>
/home/itssahil/PROJECTS/Mol_Feturizer/New_Systems/rnas/3DIG

>  <Rbt.Executable>
rbdock ($Id: //depot/dev/client3/rdock/2013.1/src/exe/rbdock.cxx#4 $)

>  <Rbt.Library>
libRbt.so (2013.1, Build901 2013/11/27)

>  <Rbt.Parameter_File>
/export/apps/rDock/src/rDock_2013.1_src/data/scripts/dock_solv.prm

>  <Rbt.Receptor>
prm/pocket_docking_6.prm

>  <SCORE>
-11.7589

>  <SCORE.INTER>
-10.9285

>  <SCORE.INTER.CONST>
1

>  <SCORE.INTER.POLAR>
0

>  <SCORE.INTER.ROT>
5

>  <SCORE.INTER.SOLV>
13.9968

>  <SCORE.INTER.VDW>
-18.8846

>  <SCORE.INTER.norm>
-1.09285

>  <SCORE.INTRA>
-0.830443

>  <SCORE.INTRA.DIHEDRAL>
-0.450931

>  <SCORE.INTRA.DIHEDRAL.0>
2.60093

>  <SCORE.INTRA.POLAR>
0

>  <SCORE.INTRA.POLAR.0>
0

>  <SCORE.INTRA.REPUL>
0

>  <SCORE.INTRA.REPUL.0>
0

>  <SCORE.INTRA.SOLV>
-0.573906

>  <SCORE.INTRA.SOLV.lig_0>
-33.7882

>  <SCORE.INTRA.VDW>
-0.318024

>  <SCORE.INTRA.VDW.0>
-0.593976

>  <SCORE.INTRA.norm>
-0.0830443

>  <SCORE.RESTR>
0

>  <SCORE.RESTR.CAVITY>
0

>  <SCORE.RESTR.norm>
0

>  <SCORE.SYSTEM>
0

>  <SCORE.SYSTEM.CONST>
0

>  <SCORE.SYSTEM.DIHEDRAL>
0

>  <SCORE.SYSTEM.SOLV>
0

>  <SCORE.SYSTEM.norm>
0

>  <SCORE.heavy>
10

>  <SCORE.norm>
-1.17589

>  <RMSD>
5.785

$$$$
ligand
 OpenBabel11021811473D
libRbt.so/2013.1/901 2013/11/27
 10  9  0  0  0  0  0  0  0  0999 V2000
   28.9517   14.5713   19.7891 N   0  0  0  0  0  0  0  0  0  0  0  0
   28.3528   14.6827   21.1512 C   0  0  2  0  0  0  0  0  0  0  0  0
   26.8680   14.8958   21.0923 C   0  0  0  0  0  0  0  0  0  0  0  0
   26.1387   14.5158   22.0036 O   0  0  0  0  0  0  0  0  0  0  0  0
   29.0588   15.7808   21.9413 C   0  0  0  0  0  0  0  0  0  0  0  0
   30.7477   15.3072   22.1478 S   0  0  0  0  0  0  0  0  0  0  0  0
   31.5014   16.8766   22.4252 C   0  0  0  0  0  0  0  0  0  0  0  0
   33.0135   16.6896   22.5017 C   0  0  0  0  0  0  0  0  0  0  0  0
   33.6565   17.9699   22.7188 N   0  0  0  0  0  0  0  0  0  0  0  0
   26.3126   15.4708   20.1587 O   0  0  0  0  0  0  0  0  0  0  0  0
  2  1  1  6  0  0  0
  2  3  1  0  0  0  0
  2  5  1  0  0  0  0
  3  4  1  0  0  0  0
  3 10  1  0  0  0  0
  5  6  1  0  0  0  0
  6  7  1  0  0  0  0
  7  8  1  0  0  0  0
  8  9  1  0  0  0  0
M  END
>  <CHROM.1>
151.83962228,-63.22033219,157.31112874,-174.79931530,179.54068622,29.56521978
15.63335652,21.65236149,-2.78004936,0.21821037,1.16871715

>  <Name>
ligand

>  <RI>
0

>  <Rbt.Current_Directory>
/home/itssahil/PROJECTS/Mol_Feturizer/New_Systems/rnas/3DIG

>  <Rbt.Executable>
rbdock ($Id: //depot/dev/client3/rdock/2013.1/src/exe/rbdock.cxx#4 $)

>  <Rbt.Library>
libRbt.so (2013.1, Build901 2013/11/27)

>  <Rbt.Parameter_File>
/export/apps/rDock/src/rDock_2013.1_src/data/scripts/dock_solv.prm

>  <Rbt.Receptor>
prm/blind_docking_60.prm

>  <SCORE>
-11.9358

>  <SCORE.INTER>
-11.0923

>  <SCORE.INTER.CONST>
1

>  <SCORE.INTER.POLAR>
0

>  <SCORE.INTER.ROT>
5

>  <SCORE.INTER.SOLV>
13.8797

>  <SCORE.INTER.VDW>
-18.9547

>  <SCORE.INTER.norm>
-1.10923

>  <SCORE.INTRA>
-0.843528

>  <SCORE.INTRA.DIHEDRAL>
-0.317658

>  <SCORE.INTRA.DIHEDRAL.0>
2.60093

>  <SCORE.INTRA.POLAR>
0

>  <SCORE.INTRA.POLAR.0>
0

>  <SCORE.INTRA.REPUL>
0

>  <SCORE.INTRA.REPUL.0>
0

>  <SCORE.INTRA.SOLV>
-0.601722

>  <SCORE.INTRA.SOLV.lig_0>
-33.7882

>  <SCORE.INTRA.VDW>
-0.383838

>  <SCORE.INTRA.VDW.0>
-0.593976

>  <SCORE.INTRA.norm>
-0.0843528

>  <SCORE.RESTR>
0

>  <SCORE.RESTR.CAVITY>
0

>  <SCORE.RESTR.norm>
0

>  <SCORE.SYSTEM>
0

>  <SCORE.SYSTEM.CONST>
0

>  <SCORE.SYSTEM.DIHEDRAL>
0

>  <SCORE.SYSTEM.SOLV>
0

>  <SCORE.SYSTEM.norm>
0

>  <SCORE.heavy>
10

>  <SCORE.norm>
-1.19358

>  <RMSD>
5.786

$$$$
ligand
 OpenBabel11021811473D
libRbt.so/2013.1/901 2013/11/27
 10  9  0  0  0  0  0  0  0  0999 V2000
   28.9415   14.5172   19.7607 N   0  0  0  0  0  0  0  0  0  0  0  0
   28.3682   14.6689   21.1300 C   0  0  2  0  0  0  0  0  0  0  0  0
   26.8843   14.8928   21.0920 C   0  0  0  0  0  0  0  0  0  0  0  0
   26.3611   15.5024   20.1640 O   0  0  0  0  0  0  0  0  0  0  0  0
   29.0970   15.7810   21.8785 C   0  0  0  0  0  0  0  0  0  0  0  0
   30.7996   15.3296   22.0079 S   0  0  0  0  0  0  0  0  0  0  0  0
   31.5243   16.8817   22.4245 C   0  0  0  0  0  0  0  0  0  0  0  0
   33.0427   16.7364   22.4066 C   0  0  0  0  0  0  0  0  0  0  0  0
   33.6615   18.0032   22.7414 N   0  0  0  0  0  0  0  0  0  0  0  0
   26.1226   14.4678   21.9580 O   0  0  0  0  0  0  0  0  0  0  0  0
  2  1  1  6  0  0  0
  2  3  1  0  0  0  0
  2  5  1  0  0  0  0
  3  4  1  0  0  0  0
  3 10  1  0  0  0  0
  5  6  1  0  0  0  0
  6  7  1  0  0  0  0
  7  8  1  0  0  0  0
  8  9  1  0  0  0  0
M  END
>  <CHROM.1>
-32.56825565,-60.89027717,163.56504529,-172.79021756,179.77448586,29.58893507
15.63763635,21.60388584,-2.74874765,0.16020653,0.99478619

>  <Name>
ligand

>  <RI>
0

>  <Rbt.Current_Directory>
/home/itssahil/PROJECTS/Mol_Feturizer/New_Systems/rnas/3DIG

>  <Rbt.Executable>
rbdock ($Id: //depot/dev/client3/rdock/2013.1/src/exe/rbdock.cxx#4 $)

>  <Rbt.Library>
libRbt.so (2013.1, Build901 2013/11/27)

>  <Rbt.Parameter_File>
/export/apps/rDock/src/rDock_2013.1_src/data/scripts/dock_solv.prm

>  <Rbt.Receptor>
prm/blind_docking_60.prm

>  <SCORE>
-11.7231

>  <SCORE.INTER>
-10.7937

>  <SCORE.INTER.CONST>
1

>  <SCORE.INTER.POLAR>
0

>  <SCORE.INTER.ROT>
5

>  <SCORE.INTER.SOLV>
14.0387

>  <SCORE.INTER.VDW>
-18.8087

>  <SCORE.INTER.norm>
-1.07937

>  <SCORE.INTRA>
-0.929471

>  <SCORE.INTRA.DIHEDRAL>
-0.550344

>  <SCORE.INTRA.DIHEDRAL.0>
2.60093

>  <SCORE.INTRA.POLAR>
0

>  <SCORE.INTRA.POLAR.0>
0

>  <SCORE.INTRA.REPUL>
0

>  <SCORE.INTRA.REPUL.0>
0

>  <SCORE.INTRA.SOLV>
-0.612458

>  <SCORE.INTRA.SOLV.lig_0>
-33.7882

>  <SCORE.INTRA.VDW>
-0.34807

>  <SCORE.INTRA.VDW.0>
-0.593976

>  <SCORE.INTRA.norm>
-0.0929471

>  <SCORE.RESTR>
0

>  <SCORE.RESTR.CAVITY>
0

>  <SCORE.RESTR.norm>
0

>  <SCORE.SYSTEM>
0

>  <SCORE.SYSTEM.CONST>
0

>  <SCORE.SYSTEM.DIHEDRAL>
0

>  <SCORE.SYSTEM.SOLV>
0

>  <SCORE.SYSTEM.norm>
0

>  <SCORE.heavy>
10

>  <SCORE.norm>
-1.17231

>  <RMSD>
5.786

$$$$
ligand
 OpenBabel11021811473D
libRbt.so/2013.1/901 2013/11/27
 10  9  0  0  0  0  0  0  0  0999 V2000
   28.9394   14.6549   19.7808 N   0  0  0  0  0  0  0  0  0  0  0  0
   28.3334   14.6341   21.1442 C   0  0  2  0  0  0  0  0  0  0  0  0
   26.8495   14.8569   21.0989 C   0  0  0  0  0  0  0  0  0  0  0  0
   26.1290   14.5021   22.0271 O   0  0  0  0  0  0  0  0  0  0  0  0
   29.0382   15.6469   22.0419 C   0  0  0  0  0  0  0  0  0  0  0  0
   30.7506   15.2201   22.1100 S   0  0  0  0  0  0  0  0  0  0  0  0
   31.4528   16.7465   22.6434 C   0  0  0  0  0  0  0  0  0  0  0  0
   32.9651   16.6857   22.4529 C   0  0  0  0  0  0  0  0  0  0  0  0
   33.5622   17.9425   22.8574 N   0  0  0  0  0  0  0  0  0  0  0  0
   26.2867   15.4157   20.1599 O   0  0  0  0  0  0  0  0  0  0  0  0
  2  1  1  6  0  0  0
  2  3  1  0  0  0  0
  2  5  1  0  0  0  0
  3  4  1  0  0  0  0
  3 10  1  0  0  0  0
  5  6  1  0  0  0  0
  6  7  1  0  0  0  0
  7  8  1  0  0  0  0
  8  9  1  0  0  0  0
M  END
>  <CHROM.1>
158.79205247,-58.96575565,160.16571784,-166.85463233,178.73464801,29.53951388
15.58332908,21.68240366,-2.77548921,0.21998862,1.19176651

>  <Name>
ligand

>  <RI>
0

>  <Rbt.Current_Directory>
/home/itssahil/PROJECTS/Mol_Feturizer/New_Systems/rnas/3DIG

>  <Rbt.Executable>
rbdock ($Id: //depot/dev/client3/rdock/2013.1/src/exe/rbdock.cxx#4 $)

>  <Rbt.Library>
libRbt.so (2013.1, Build901 2013/11/27)

>  <Rbt.Parameter_File>
/export/apps/rDock/src/rDock_2013.1_src/data/scripts/dock_solv.prm

>  <Rbt.Receptor>
prm/pocket_docking_4.prm

>  <SCORE>
-11.7813

>  <SCORE.INTER>
-11.0708

>  <SCORE.INTER.CONST>
1

>  <SCORE.INTER.POLAR>
0

>  <SCORE.INTER.ROT>
5

>  <SCORE.INTER.SOLV>
13.6569

>  <SCORE.INTER.VDW>
-18.8661

>  <SCORE.INTER.norm>
-1.10708

>  <SCORE.INTRA>
-0.71053

>  <SCORE.INTRA.DIHEDRAL>
-0.266546

>  <SCORE.INTRA.DIHEDRAL.0>
2.60093

>  <SCORE.INTRA.POLAR>
0

>  <SCORE.INTRA.POLAR.0>
0

>  <SCORE.INTRA.REPUL>
0

>  <SCORE.INTRA.REPUL.0>
0

>  <SCORE.INTRA.SOLV>
-0.566666

>  <SCORE.INTRA.SOLV.lig_0>
-33.7882

>  <SCORE.INTRA.VDW>
-0.293924

>  <SCORE.INTRA.VDW.0>
-0.593976

>  <SCORE.INTRA.norm>
-0.071053

>  <SCORE.RESTR>
0

>  <SCORE.RESTR.CAVITY>
0

>  <SCORE.RESTR.norm>
0

>  <SCORE.SYSTEM>
0

>  <SCORE.SYSTEM.CONST>
0

>  <SCORE.SYSTEM.DIHEDRAL>
0

>  <SCORE.SYSTEM.SOLV>
0

>  <SCORE.SYSTEM.norm>
0

>  <SCORE.heavy>
10

>  <SCORE.norm>
-1.17813

>  <RMSD>
5.787

$$$$
ligand
 OpenBabel11021811473D
libRbt.so/2013.1/901 2013/11/27
 10  9  0  0  0  0  0  0  0  0999 V2000
   28.9464   14.3830   19.8632 N   0  0  0  0  0  0  0  0  0  0  0  0
   28.3694   14.6797   21.2070 C   0  0  2  0  0  0  0  0  0  0  0  0
   26.8891   14.9190   21.1383 C   0  0  0  0  0  0  0  0  0  0  0  0
   26.3973   15.5771   20.2264 O   0  0  0  0  0  0  0  0  0  0  0  0
   29.1109   15.8515   21.8439 C   0  0  0  0  0  0  0  0  0  0  0  0
   30.8014   15.3832   22.0497 S   0  0  0  0  0  0  0  0  0  0  0  0
   31.5397   16.9463   22.3949 C   0  0  0  0  0  0  0  0  0  0  0  0
   33.0545   16.7744   22.4462 C   0  0  0  0  0  0  0  0  0  0  0  0
   33.6858   18.0533   22.7024 N   0  0  0  0  0  0  0  0  0  0  0  0
   26.0998   14.4601   21.9612 O   0  0  0  0  0  0  0  0  0  0  0  0
  2  1  1  6  0  0  0
  2  3  1  0  0  0  0
  2  5  1  0  0  0  0
  3  4  1  0  0  0  0
  3 10  1  0  0  0  0
  5  6  1  0  0  0  0
  6  7  1  0  0  0  0
  7  8  1  0  0  0  0
  8  9  1  0  0  0  0
M  END
>  <CHROM.1>
-41.20896206,-61.72091320,166.45397402,-173.43638296,178.85667077,29.59726714
15.66586600,21.63212015,-2.72505946,0.07790549,0.77462965

>  <Name>
ligand

>  <RI>
0

>  <Rbt.Current_Directory>
/home/itssahil/PROJECTS/Mol_Feturizer/New_Systems/rnas/3DIG

>  <Rbt.Executable>
rbdock ($Id: //depot/dev/client3/rdock/2013.1/src/exe/rbdock.cxx#4 $)

>  <Rbt.Library>
libRbt.so (2013.1, Build901 2013/11/27)

>  <Rbt.Parameter_File>
/export/apps/rDock/src/rDock_2013.1_src/data/scripts/dock_solv.prm

>  <Rbt.Receptor>
prm/pocket_docking_5.prm

>  <SCORE>
-11.5464

>  <SCORE.INTER>
-10.5029

>  <SCORE.INTER.CONST>
1

>  <SCORE.INTER.POLAR>
0

>  <SCORE.INTER.ROT>
5

>  <SCORE.INTER.SOLV>
14.4755

>  <SCORE.INTER.VDW>
-18.7604

>  <SCORE.INTER.norm>
-1.05029

>  <SCORE.INTRA>
-1.04357

>  <SCORE.INTRA.DIHEDRAL>
-0.690414

>  <SCORE.INTRA.DIHEDRAL.0>
2.60093

>  <SCORE.INTRA.POLAR>
0

>  <SCORE.INTRA.POLAR.0>
0

>  <SCORE.INTRA.REPUL>
0

>  <SCORE.INTRA.REPUL.0>
0

>  <SCORE.INTRA.SOLV>
-0.65318

>  <SCORE.INTRA.SOLV.lig_0>
-33.7882

>  <SCORE.INTRA.VDW>
-0.371777

>  <SCORE.INTRA.VDW.0>
-0.593976

>  <SCORE.INTRA.norm>
-0.104357

>  <SCORE.RESTR>
0

>  <SCORE.RESTR.CAVITY>
0

>  <SCORE.RESTR.norm>
0

>  <SCORE.SYSTEM>
0

>  <SCORE.SYSTEM.CONST>
0

>  <SCORE.SYSTEM.DIHEDRAL>
0

>  <SCORE.SYSTEM.SOLV>
0

>  <SCORE.SYSTEM.norm>
0

>  <SCORE.heavy>
10

>  <SCORE.norm>
-1.15464

>  <RMSD>
5.789

$$$$
ligand
 OpenBabel11021811473D
libRbt.so/2013.1/901 2013/11/27
 10  9  0  0  0  0  0  0  0  0999 V2000
   28.9403   14.5485   19.7741 N   0  0  0  0  0  0  0  0  0  0  0  0
   28.3543   14.6615   21.1417 C   0  0  2  0  0  0  0  0  0  0  0  0
   26.8691   14.8751   21.0966 C   0  0  0  0  0  0  0  0  0  0  0  0
   26.1485   14.4973   22.0156 O   0  0  0  0  0  0  0  0  0  0  0  0
   29.0682   15.7600   21.9240 C   0  0  0  0  0  0  0  0  0  0  0  0
   30.7708   15.3126   22.0668 S   0  0  0  0  0  0  0  0  0  0  0  0
   31.4882   16.8661   22.4908 C   0  0  0  0  0  0  0  0  0  0  0  0
   33.0072   16.7392   22.4311 C   0  0  0  0  0  0  0  0  0  0  0  0
   33.6203   18.0002   22.7969 N   0  0  0  0  0  0  0  0  0  0  0  0
   26.3050   15.4484   20.1672 O   0  0  0  0  0  0  0  0  0  0  0  0
  2  1  1  6  0  0  0
  2  3  1  0  0  0  0
  2  5  1  0  0  0  0
  3  4  1  0  0  0  0
  3 10  1  0  0  0  0
  5  6  1  0  0  0  0
  6  7  1  0  0  0  0
  7  8  1  0  0  0  0
  8  9  1  0  0  0  0
M  END
>  <CHROM.1>
151.90420113,-61.29416543,162.33476976,-170.56967350,-179.10777149,29.56519818
15.62930828,21.64124436,-2.75430799,0.18399168,1.06109450

>  <Name>
ligand

>  <RI>
0

>  <Rbt.Current_Directory>
/home/itssahil/PROJECTS/Mol_Feturizer/New_Systems/rnas/3DIG

>  <Rbt.Executable>
rbdock ($Id: //depot/dev/client3/rdock/2013.1/src/exe/rbdock.cxx#4 $)

>  <Rbt.Library>
libRbt.so (2013.1, Build901 2013/11/27)

>  <Rbt.Parameter_File>
/export/apps/rDock/src/rDock_2013.1_src/data/scripts/dock_solv.prm

>  <Rbt.Receptor>
prm/pocket_docking_6.prm

>  <SCORE>
-11.844

>  <SCORE.INTER>
-10.9169

>  <SCORE.INTER.CONST>
1

>  <SCORE.INTER.POLAR>
0

>  <SCORE.INTER.ROT>
5

>  <SCORE.INTER.SOLV>
13.9335

>  <SCORE.INTER.VDW>
-18.8558

>  <SCORE.INTER.norm>
-1.09169

>  <SCORE.INTRA>
-0.927056

>  <SCORE.INTRA.DIHEDRAL>
-0.517871

>  <SCORE.INTRA.DIHEDRAL.0>
2.60093

>  <SCORE.INTRA.POLAR>
0

>  <SCORE.INTRA.POLAR.0>
0

>  <SCORE.INTRA.REPUL>
0

>  <SCORE.INTRA.REPUL.0>
0

>  <SCORE.INTRA.SOLV>
-0.622427

>  <SCORE.INTRA.SOLV.lig_0>
-33.7882

>  <SCORE.INTRA.VDW>
-0.356907

>  <SCORE.INTRA.VDW.0>
-0.593976

>  <SCORE.INTRA.norm>
-0.0927056

>  <SCORE.RESTR>
0

>  <SCORE.RESTR.CAVITY>
0

>  <SCORE.RESTR.norm>
0

>  <SCORE.SYSTEM>
0

>  <SCORE.SYSTEM.CONST>
0

>  <SCORE.SYSTEM.DIHEDRAL>
0

>  <SCORE.SYSTEM.SOLV>
0

>  <SCORE.SYSTEM.norm>
0

>  <SCORE.heavy>
10

>  <SCORE.norm>
-1.1844

>  <RMSD>
5.789

$$$$
ligand
 OpenBabel11021811473D
libRbt.so/2013.1/901 2013/11/27
 10  9  0  0  0  0  0  0  0  0999 V2000
   27.4127   14.9838   20.9035 N   0  0  0  0  0  0  0  0  0  0  0  0
   28.2503   15.6013   19.8341 C   0  0  2  0  0  0  0  0  0  0  0  0
   28.0584   14.9186   18.5109 C   0  0  0  0  0  0  0  0  0  0  0  0
   27.4251   13.8706   18.4269 O   0  0  0  0  0  0  0  0  0  0  0  0
   29.7142   15.6170   20.2644 C   0  0  0  0  0  0  0  0  0  0  0  0
   29.9140   16.8818   21.4807 S   0  0  0  0  0  0  0  0  0  0  0  0
   31.6625   16.8550   21.7041 C   0  0  0  0  0  0  0  0  0  0  0  0
   32.0625   18.0258   22.5964 C   0  0  0  0  0  0  0  0  0  0  0  0
   33.4961   18.0156   22.8070 N   0  0  0  0  0  0  0  0  0  0  0  0
   28.4959   15.3726   17.4558 O   0  0  0  0  0  0  0  0  0  0  0  0
  2  1  1  1  0  0  0
  2  3  1  0  0  0  0
  2  5  1  0  0  0  0
  3  4  1  0  0  0  0
  3 10  1  0  0  0  0
  5  6  1  0  0  0  0
  6  7  1  0  0  0  0
  7  8  1  0  0  0  0
  8  9  1  0  0  0  0
M  END
>  <CHROM.1>
-9.43248440,-74.46436479,-174.05007927,172.37687747,179.35541158,29.66612495
16.09435637,20.48720610,2.41106756,-0.43486996,-1.79583902

>  <Name>
ligand

>  <RI>
0

>  <Rbt.Current_Directory>
/home/itssahil/PROJECTS/Mol_Feturizer/New_Systems/rnas/3DIG

>  <Rbt.Executable>
rbdock ($Id: //depot/dev/client3/rdock/2013.1/src/exe/rbdock.cxx#4 $)

>  <Rbt.Library>
libRbt.so (2013.1, Build901 2013/11/27)

>  <Rbt.Parameter_File>
/export/apps/rDock/src/rDock_2013.1_src/data/scripts/dock_solv.prm

>  <Rbt.Receptor>
prm/pocket_docking_8.prm

>  <SCORE>
-9.78851

>  <SCORE.INTER>
-8.87115

>  <SCORE.INTER.CONST>
1

>  <SCORE.INTER.POLAR>
0

>  <SCORE.INTER.ROT>
5

>  <SCORE.INTER.SOLV>
14.9463

>  <SCORE.INTER.VDW>
-17.8295

>  <SCORE.INTER.norm>
-0.887115

>  <SCORE.INTRA>
-0.917359

>  <SCORE.INTRA.DIHEDRAL>
-0.2376

>  <SCORE.INTRA.DIHEDRAL.0>
2.60093

>  <SCORE.INTRA.POLAR>
0

>  <SCORE.INTRA.POLAR.0>
0

>  <SCORE.INTRA.REPUL>
0

>  <SCORE.INTRA.REPUL.0>
0

>  <SCORE.INTRA.SOLV>
-0.961947

>  <SCORE.INTRA.SOLV.lig_0>
-33.7882

>  <SCORE.INTRA.VDW>
-0.317586

>  <SCORE.INTRA.VDW.0>
-0.593976

>  <SCORE.INTRA.norm>
-0.0917359

>  <SCORE.RESTR>
0

>  <SCORE.RESTR.CAVITY>
0

>  <SCORE.RESTR.norm>
0

>  <SCORE.SYSTEM>
0

>  <SCORE.SYSTEM.CONST>
0

>  <SCORE.SYSTEM.DIHEDRAL>
0

>  <SCORE.SYSTEM.SOLV>
0

>  <SCORE.SYSTEM.norm>
0

>  <SCORE.heavy>
10

>  <SCORE.norm>
-0.978851

>  <RMSD>
5.795

$$$$
ligand
 OpenBabel11021811473D
libRbt.so/2013.1/901 2013/11/27
 10  9  0  0  0  0  0  0  0  0999 V2000
   28.9504   14.3217   19.8883 N   0  0  0  0  0  0  0  0  0  0  0  0
   28.3429   14.6129   21.2197 C   0  0  2  0  0  0  0  0  0  0  0  0
   26.8652   14.8567   21.1177 C   0  0  0  0  0  0  0  0  0  0  0  0
   26.3863   15.4374   20.1481 O   0  0  0  0  0  0  0  0  0  0  0  0
   29.0724   15.7794   21.8799 C   0  0  0  0  0  0  0  0  0  0  0  0
   30.7512   15.2976   22.1422 S   0  0  0  0  0  0  0  0  0  0  0  0
   31.5009   16.8620   22.4558 C   0  0  0  0  0  0  0  0  0  0  0  0
   33.0152   16.6826   22.4962 C   0  0  0  0  0  0  0  0  0  0  0  0
   33.6550   17.9606   22.7355 N   0  0  0  0  0  0  0  0  0  0  0  0
   26.0655   14.4766   21.9702 O   0  0  0  0  0  0  0  0  0  0  0  0
  2  1  1  6  0  0  0
  2  3  1  0  0  0  0
  2  5  1  0  0  0  0
  3  4  1  0  0  0  0
  3 10  1  0  0  0  0
  5  6  1  0  0  0  0
  6  7  1  0  0  0  0
  7  8  1  0  0  0  0
  8  9  1  0  0  0  0
M  END
>  <CHROM.1>
-35.88075249,-62.45396595,164.59961321,-171.26594530,179.24608084,29.56600379
15.59065290,21.66133144,-2.72886097,0.11203740,0.88247049

>  <Name>
ligand

>  <RI>
0

>  <Rbt.Current_Directory>
/home/itssahil/PROJECTS/Mol_Feturizer/New_Systems/rnas/3DIG

>  <Rbt.Executable>
rbdock ($Id: //depot/dev/client3/rdock/2013.1/src/exe/rbdock.cxx#4 $)

>  <Rbt.Library>
libRbt.so (2013.1, Build901 2013/11/27)

>  <Rbt.Parameter_File>
/export/apps/rDock/src/rDock_2013.1_src/data/scripts/dock_solv.prm

>  <Rbt.Receptor>
prm/pocket_docking_4.prm

>  <SCORE>
-11.7321

>  <SCORE.INTER>
-10.7626

>  <SCORE.INTER.CONST>
1

>  <SCORE.INTER.POLAR>
0

>  <SCORE.INTER.ROT>
5

>  <SCORE.INTER.SOLV>
14.7353

>  <SCORE.INTER.VDW>
-19.0202

>  <SCORE.INTER.norm>
-1.07626

>  <SCORE.INTRA>
-0.969452

>  <SCORE.INTRA.DIHEDRAL>
-0.544055

>  <SCORE.INTRA.DIHEDRAL.0>
2.60093

>  <SCORE.INTRA.POLAR>
0

>  <SCORE.INTRA.POLAR.0>
0

>  <SCORE.INTRA.REPUL>
0

>  <SCORE.INTRA.REPUL.0>
0

>  <SCORE.INTRA.SOLV>
-0.645406

>  <SCORE.INTRA.SOLV.lig_0>
-33.7882

>  <SCORE.INTRA.VDW>
-0.374721

>  <SCORE.INTRA.VDW.0>
-0.593976

>  <SCORE.INTRA.norm>
-0.0969452

>  <SCORE.RESTR>
0

>  <SCORE.RESTR.CAVITY>
0

>  <SCORE.RESTR.norm>
0

>  <SCORE.SYSTEM>
0

>  <SCORE.SYSTEM.CONST>
0

>  <SCORE.SYSTEM.DIHEDRAL>
0

>  <SCORE.SYSTEM.SOLV>
0

>  <SCORE.SYSTEM.norm>
0

>  <SCORE.heavy>
10

>  <SCORE.norm>
-1.17321

>  <RMSD>
5.797

$$$$
ligand
 OpenBabel11021811473D
libRbt.so/2013.1/901 2013/11/27
 10  9  0  0  0  0  0  0  0  0999 V2000
   28.8953   14.3613   19.8087 N   0  0  0  0  0  0  0  0  0  0  0  0
   28.3190   14.6204   21.1604 C   0  0  2  0  0  0  0  0  0  0  0  0
   26.8380   14.8579   21.0996 C   0  0  0  0  0  0  0  0  0  0  0  0
   26.0996   14.4774   22.0033 O   0  0  0  0  0  0  0  0  0  0  0  0
   29.0582   15.7765   21.8278 C   0  0  0  0  0  0  0  0  0  0  0  0
   30.7439   15.2963   22.0447 S   0  0  0  0  0  0  0  0  0  0  0  0
   31.4744   16.8382   22.4884 C   0  0  0  0  0  0  0  0  0  0  0  0
   32.9914   16.7094   22.3933 C   0  0  0  0  0  0  0  0  0  0  0  0
   33.6124   17.9841   22.6923 N   0  0  0  0  0  0  0  0  0  0  0  0
   26.2950   15.4542   20.1720 O   0  0  0  0  0  0  0  0  0  0  0  0
  2  1  1  6  0  0  0
  2  3  1  0  0  0  0
  2  5  1  0  0  0  0
  3  4  1  0  0  0  0
  3 10  1  0  0  0  0
  5  6  1  0  0  0  0
  6  7  1  0  0  0  0
  7  8  1  0  0  0  0
  8  9  1  0  0  0  0
M  END
>  <CHROM.1>
145.26702509,-62.67723311,168.52462733,-166.44313259,177.29614911,29.54051332
15.59844122,21.61960190,-2.73648340,0.12513710,0.90211195

>  <Name>
ligand

>  <RI>
0

>  <Rbt.Current_Directory>
/home/itssahil/PROJECTS/Mol_Feturizer/New_Systems/rnas/3DIG

>  <Rbt.Executable>
rbdock ($Id: //depot/dev/client3/rdock/2013.1/src/exe/rbdock.cxx#4 $)

>  <Rbt.Library>
libRbt.so (2013.1, Build901 2013/11/27)

>  <Rbt.Parameter_File>
/export/apps/rDock/src/rDock_2013.1_src/data/scripts/dock_solv.prm

>  <Rbt.Receptor>
prm/blind_docking_100.prm

>  <SCORE>
-11.7461

>  <SCORE.INTER>
-10.7083

>  <SCORE.INTER.CONST>
1

>  <SCORE.INTER.POLAR>
0

>  <SCORE.INTER.ROT>
5

>  <SCORE.INTER.SOLV>
14.4533

>  <SCORE.INTER.VDW>
-18.89

>  <SCORE.INTER.norm>
-1.07083

>  <SCORE.INTRA>
-1.0378

>  <SCORE.INTRA.DIHEDRAL>
-0.594949

>  <SCORE.INTRA.DIHEDRAL.0>
2.60093

>  <SCORE.INTRA.POLAR>
0

>  <SCORE.INTRA.POLAR.0>
0

>  <SCORE.INTRA.REPUL>
0

>  <SCORE.INTRA.REPUL.0>
0

>  <SCORE.INTRA.SOLV>
-0.698147

>  <SCORE.INTRA.SOLV.lig_0>
-33.7882

>  <SCORE.INTRA.VDW>
-0.391257

>  <SCORE.INTRA.VDW.0>
-0.593976

>  <SCORE.INTRA.norm>
-0.10378

>  <SCORE.RESTR>
0

>  <SCORE.RESTR.CAVITY>
0

>  <SCORE.RESTR.norm>
0

>  <SCORE.SYSTEM>
0

>  <SCORE.SYSTEM.CONST>
0

>  <SCORE.SYSTEM.DIHEDRAL>
0

>  <SCORE.SYSTEM.SOLV>
0

>  <SCORE.SYSTEM.norm>
0

>  <SCORE.heavy>
10

>  <SCORE.norm>
-1.17461

>  <RMSD>
5.798

$$$$
ligand
 OpenBabel11021811473D
libRbt.so/2013.1/901 2013/11/27
 10  9  0  0  0  0  0  0  0  0999 V2000
   28.8623   14.6157   19.7360 N   0  0  0  0  0  0  0  0  0  0  0  0
   28.2730   14.6798   21.1053 C   0  0  2  0  0  0  0  0  0  0  0  0
   26.7875   14.8926   21.0642 C   0  0  0  0  0  0  0  0  0  0  0  0
   26.0654   14.4814   21.9676 O   0  0  0  0  0  0  0  0  0  0  0  0
   28.9833   15.7513   21.9273 C   0  0  0  0  0  0  0  0  0  0  0  0
   30.6857   15.3003   22.0608 S   0  0  0  0  0  0  0  0  0  0  0  0
   31.4211   16.8698   22.3827 C   0  0  0  0  0  0  0  0  0  0  0  0
   32.9349   16.6975   22.4588 C   0  0  0  0  0  0  0  0  0  0  0  0
   33.5670   17.9869   22.6533 N   0  0  0  0  0  0  0  0  0  0  0  0
   26.2247   15.4976   20.1543 O   0  0  0  0  0  0  0  0  0  0  0  0
  2  1  1  6  0  0  0
  2  3  1  0  0  0  0
  2  5  1  0  0  0  0
  3  4  1  0  0  0  0
  3 10  1  0  0  0  0
  5  6  1  0  0  0  0
  6  7  1  0  0  0  0
  7  8  1  0  0  0  0
  8  9  1  0  0  0  0
M  END
>  <CHROM.1>
151.88672800,-61.39537677,156.97163387,-177.00367226,177.03155570,29.48752754
15.63364268,21.60571634,-2.78684219,0.22429301,1.17718455

>  <Name>
ligand

>  <RI>
0

>  <Rbt.Current_Directory>
/home/itssahil/PROJECTS/Mol_Feturizer/New_Systems/rnas/3DIG

>  <Rbt.Executable>
rbdock ($Id: //depot/dev/client3/rdock/2013.1/src/exe/rbdock.cxx#4 $)

>  <Rbt.Library>
libRbt.so (2013.1, Build901 2013/11/27)

>  <Rbt.Parameter_File>
/export/apps/rDock/src/rDock_2013.1_src/data/scripts/dock_solv.prm

>  <Rbt.Receptor>
prm/pocket_docking_6.prm

>  <SCORE>
-11.7517

>  <SCORE.INTER>
-10.9418

>  <SCORE.INTER.CONST>
1

>  <SCORE.INTER.POLAR>
0

>  <SCORE.INTER.ROT>
5

>  <SCORE.INTER.SOLV>
13.5737

>  <SCORE.INTER.VDW>
-18.7525

>  <SCORE.INTER.norm>
-1.09418

>  <SCORE.INTRA>
-0.809839

>  <SCORE.INTRA.DIHEDRAL>
-0.321543

>  <SCORE.INTRA.DIHEDRAL.0>
2.60093

>  <SCORE.INTRA.POLAR>
0

>  <SCORE.INTRA.POLAR.0>
0

>  <SCORE.INTRA.REPUL>
0

>  <SCORE.INTRA.REPUL.0>
0

>  <SCORE.INTRA.SOLV>
-0.571745

>  <SCORE.INTRA.SOLV.lig_0>
-33.7882

>  <SCORE.INTRA.VDW>
-0.363195

>  <SCORE.INTRA.VDW.0>
-0.593976

>  <SCORE.INTRA.norm>
-0.0809839

>  <SCORE.RESTR>
0

>  <SCORE.RESTR.CAVITY>
0

>  <SCORE.RESTR.norm>
0

>  <SCORE.SYSTEM>
0

>  <SCORE.SYSTEM.CONST>
0

>  <SCORE.SYSTEM.DIHEDRAL>
0

>  <SCORE.SYSTEM.SOLV>
0

>  <SCORE.SYSTEM.norm>
0

>  <SCORE.heavy>
10

>  <SCORE.norm>
-1.17517

>  <RMSD>
5.802

$$$$
ligand
 OpenBabel11021811473D
libRbt.so/2013.1/901 2013/11/27
 10  9  0  0  0  0  0  0  0  0999 V2000
   29.1299   15.8700   19.4031 N   0  0  0  0  0  0  0  0  0  0  0  0
   27.9718   14.9447   19.2322 C   0  0  2  0  0  0  0  0  0  0  0  0
   27.2537   14.7041   20.5284 C   0  0  0  0  0  0  0  0  0  0  0  0
   27.8465   14.2550   21.5049 O   0  0  0  0  0  0  0  0  0  0  0  0
   28.4370   13.6438   18.5842 C   0  0  0  0  0  0  0  0  0  0  0  0
   27.0175   12.8167   17.9361 S   0  0  0  0  0  0  0  0  0  0  0  0
   27.6853   11.2187   17.6070 C   0  0  0  0  0  0  0  0  0  0  0  0
   26.5844   10.1784   17.7888 C   0  0  0  0  0  0  0  0  0  0  0  0
   27.1164    8.8526   17.5456 N   0  0  0  0  0  0  0  0  0  0  0  0
   26.0621   14.9590   20.6887 O   0  0  0  0  0  0  0  0  0  0  0  0
  2  1  1  1  0  0  0
  2  3  1  0  0  0  0
  2  5  1  0  0  0  0
  3  4  1  0  0  0  0
  3 10  1  0  0  0  0
  5  6  1  0  0  0  0
  6  7  1  0  0  0  0
  7  8  1  0  0  0  0
  8  9  1  0  0  0  0
M  END
>  <CHROM.1>
-57.27429207,-162.10160051,-166.80817778,148.76254361,-179.02509556,27.44099741
13.11246627,18.98292827,-1.38861190,-0.84679464,-2.49703445

>  <Name>
ligand

>  <RI>
0

>  <Rbt.Current_Directory>
/home/itssahil/PROJECTS/Mol_Feturizer/New_Systems/rnas/3DIG

>  <Rbt.Executable>
rbdock ($Id: //depot/dev/client3/rdock/2013.1/src/exe/rbdock.cxx#4 $)

>  <Rbt.Library>
libRbt.so (2013.1, Build901 2013/11/27)

>  <Rbt.Parameter_File>
/export/apps/rDock/src/rDock_2013.1_src/data/scripts/dock_solv.prm

>  <Rbt.Receptor>
prm/pocket_docking_7.prm

>  <SCORE>
-11.1033

>  <SCORE.INTER>
-10.4973

>  <SCORE.INTER.CONST>
1

>  <SCORE.INTER.POLAR>
0

>  <SCORE.INTER.ROT>
5

>  <SCORE.INTER.SOLV>
14.4209

>  <SCORE.INTER.VDW>
-18.7385

>  <SCORE.INTER.norm>
-1.04973

>  <SCORE.INTRA>
-0.616452

>  <SCORE.INTRA.DIHEDRAL>
1.53731

>  <SCORE.INTRA.DIHEDRAL.0>
2.60093

>  <SCORE.INTRA.POLAR>
0

>  <SCORE.INTRA.POLAR.0>
0

>  <SCORE.INTRA.REPUL>
0

>  <SCORE.INTRA.REPUL.0>
0

>  <SCORE.INTRA.SOLV>
-1.56868

>  <SCORE.INTRA.SOLV.lig_0>
-33.7882

>  <SCORE.INTRA.VDW>
-0.600766

>  <SCORE.INTRA.VDW.0>
-0.593976

>  <SCORE.INTRA.norm>
-0.0616452

>  <SCORE.RESTR>
0.0104812

>  <SCORE.RESTR.CAVITY>
0.0104812

>  <SCORE.RESTR.norm>
0.00104812

>  <SCORE.SYSTEM>
0

>  <SCORE.SYSTEM.CONST>
0

>  <SCORE.SYSTEM.DIHEDRAL>
0

>  <SCORE.SYSTEM.SOLV>
0

>  <SCORE.SYSTEM.norm>
0

>  <SCORE.heavy>
10

>  <SCORE.norm>
-1.11033

>  <RMSD>
5.806

$$$$
ligand
 OpenBabel11021811473D
libRbt.so/2013.1/901 2013/11/27
 10  9  0  0  0  0  0  0  0  0999 V2000
   27.7098   15.2289   22.9267 N   0  0  0  0  0  0  0  0  0  0  0  0
   28.1191   15.5552   21.5294 C   0  0  2  0  0  0  0  0  0  0  0  0
   27.0827   15.1295   20.5304 C   0  0  0  0  0  0  0  0  0  0  0  0
   25.9235   14.9179   20.8741 O   0  0  0  0  0  0  0  0  0  0  0  0
   29.4863   14.9461   21.2325 C   0  0  0  0  0  0  0  0  0  0  0  0
   30.6215   15.5259   22.4550 S   0  0  0  0  0  0  0  0  0  0  0  0
   32.0066   15.9474   21.4492 C   0  0  0  0  0  0  0  0  0  0  0  0
   32.9922   16.7588   22.2842 C   0  0  0  0  0  0  0  0  0  0  0  0
   34.1198   17.1556   21.4651 N   0  0  0  0  0  0  0  0  0  0  0  0
   27.3256   14.9935   19.3332 O   0  0  0  0  0  0  0  0  0  0  0  0
  2  1  1  1  0  0  0
  2  3  1  0  0  0  0
  2  5  1  0  0  0  0
  3  4  1  0  0  0  0
  3 10  1  0  0  0  0
  5  6  1  0  0  0  0
  6  7  1  0  0  0  0
  7  8  1  0  0  0  0
  8  9  1  0  0  0  0
M  END
>  <CHROM.1>
19.51494950,-55.54418448,-135.07410565,167.62265133,-178.09664129,29.62888871
15.59570905,21.50440886,2.97013043,-0.25292436,-1.52528296

>  <Name>
ligand

>  <RI>
0

>  <Rbt.Current_Directory>
/home/itssahil/PROJECTS/Mol_Feturizer/New_Systems/rnas/3DIG

>  <Rbt.Executable>
rbdock ($Id: //depot/dev/client3/rdock/2013.1/src/exe/rbdock.cxx#4 $)

>  <Rbt.Library>
libRbt.so (2013.1, Build901 2013/11/27)

>  <Rbt.Parameter_File>
/export/apps/rDock/src/rDock_2013.1_src/data/scripts/dock_solv.prm

>  <Rbt.Receptor>
prm/pocket_docking_4.prm

>  <SCORE>
-8.43271

>  <SCORE.INTER>
-8.84308

>  <SCORE.INTER.CONST>
1

>  <SCORE.INTER.POLAR>
0

>  <SCORE.INTER.ROT>
5

>  <SCORE.INTER.SOLV>
19.3636

>  <SCORE.INTER.VDW>
-19.2833

>  <SCORE.INTER.norm>
-0.884308

>  <SCORE.INTRA>
0.41037

>  <SCORE.INTRA.DIHEDRAL>
1.24201

>  <SCORE.INTRA.DIHEDRAL.0>
2.60093

>  <SCORE.INTRA.POLAR>
0

>  <SCORE.INTRA.POLAR.0>
0

>  <SCORE.INTRA.REPUL>
0

>  <SCORE.INTRA.REPUL.0>
0

>  <SCORE.INTRA.SOLV>
-0.697618

>  <SCORE.INTRA.SOLV.lig_0>
-33.7882

>  <SCORE.INTRA.VDW>
0.138173

>  <SCORE.INTRA.VDW.0>
-0.593976

>  <SCORE.INTRA.norm>
0.041037

>  <SCORE.RESTR>
0

>  <SCORE.RESTR.CAVITY>
0

>  <SCORE.RESTR.norm>
0

>  <SCORE.SYSTEM>
0

>  <SCORE.SYSTEM.CONST>
0

>  <SCORE.SYSTEM.DIHEDRAL>
0

>  <SCORE.SYSTEM.SOLV>
0

>  <SCORE.SYSTEM.norm>
0

>  <SCORE.heavy>
10

>  <SCORE.norm>
-0.843271

>  <RMSD>
5.808

$$$$
ligand
 OpenBabel11021811473D
libRbt.so/2013.1/901 2013/11/27
 10  9  0  0  0  0  0  0  0  0999 V2000
   27.3390   14.8460   20.7830 N   0  0  0  0  0  0  0  0  0  0  0  0
   28.1666   15.5109   19.7345 C   0  0  2  0  0  0  0  0  0  0  0  0
   28.0250   14.8366   18.4008 C   0  0  0  0  0  0  0  0  0  0  0  0
   28.4873   15.3450   17.3837 O   0  0  0  0  0  0  0  0  0  0  0  0
   29.6215   15.5833   20.1889 C   0  0  0  0  0  0  0  0  0  0  0  0
   29.7523   16.8560   21.4065 S   0  0  0  0  0  0  0  0  0  0  0  0
   31.4972   16.9016   21.6537 C   0  0  0  0  0  0  0  0  0  0  0  0
   31.8290   18.0433   22.6094 C   0  0  0  0  0  0  0  0  0  0  0  0
   33.2636   18.1258   22.7969 N   0  0  0  0  0  0  0  0  0  0  0  0
   27.4699   13.7493   18.2581 O   0  0  0  0  0  0  0  0  0  0  0  0
  2  1  1  1  0  0  0
  2  3  1  0  0  0  0
  2  5  1  0  0  0  0
  3  4  1  0  0  0  0
  3 10  1  0  0  0  0
  5  6  1  0  0  0  0
  6  7  1  0  0  0  0
  7  8  1  0  0  0  0
  8  9  1  0  0  0  0
M  END
>  <CHROM.1>
170.22300341,-75.22972911,-173.81207351,175.34945071,-178.31018581,29.55756024
16.06085858,20.41013795,2.38028859,-0.47015992,-1.80305172

>  <Name>
ligand

>  <RI>
0

>  <Rbt.Current_Directory>
/home/itssahil/PROJECTS/Mol_Feturizer/New_Systems/rnas/3DIG

>  <Rbt.Executable>
rbdock ($Id: //depot/dev/client3/rdock/2013.1/src/exe/rbdock.cxx#4 $)

>  <Rbt.Library>
libRbt.so (2013.1, Build901 2013/11/27)

>  <Rbt.Parameter_File>
/export/apps/rDock/src/rDock_2013.1_src/data/scripts/dock_solv.prm

>  <Rbt.Receptor>
prm/blind_docking_80.prm

>  <SCORE>
-10.0172

>  <SCORE.INTER>
-9.06337

>  <SCORE.INTER.CONST>
1

>  <SCORE.INTER.POLAR>
0

>  <SCORE.INTER.ROT>
5

>  <SCORE.INTER.SOLV>
15.1887

>  <SCORE.INTER.VDW>
-18.0385

>  <SCORE.INTER.norm>
-0.906337

>  <SCORE.INTRA>
-0.953789

>  <SCORE.INTRA.DIHEDRAL>
-0.261152

>  <SCORE.INTRA.DIHEDRAL.0>
2.60093

>  <SCORE.INTRA.POLAR>
0

>  <SCORE.INTRA.POLAR.0>
0

>  <SCORE.INTRA.REPUL>
0

>  <SCORE.INTRA.REPUL.0>
0

>  <SCORE.INTRA.SOLV>
-0.98526

>  <SCORE.INTRA.SOLV.lig_0>
-33.7882

>  <SCORE.INTRA.VDW>
-0.330584

>  <SCORE.INTRA.VDW.0>
-0.593976

>  <SCORE.INTRA.norm>
-0.0953789

>  <SCORE.RESTR>
0

>  <SCORE.RESTR.CAVITY>
0

>  <SCORE.RESTR.norm>
0

>  <SCORE.SYSTEM>
0

>  <SCORE.SYSTEM.CONST>
0

>  <SCORE.SYSTEM.DIHEDRAL>
0

>  <SCORE.SYSTEM.SOLV>
0

>  <SCORE.SYSTEM.norm>
0

>  <SCORE.heavy>
10

>  <SCORE.norm>
-1.00172

>  <RMSD>
5.811

$$$$
ligand
 OpenBabel11021811473D
libRbt.so/2013.1/901 2013/11/27
 10  9  0  0  0  0  0  0  0  0999 V2000
   27.3915   14.6403   20.7872 N   0  0  0  0  0  0  0  0  0  0  0  0
   28.1377   15.4031   19.7442 C   0  0  2  0  0  0  0  0  0  0  0  0
   28.0028   14.7730   18.3884 C   0  0  0  0  0  0  0  0  0  0  0  0
   27.4072   13.7097   18.2425 O   0  0  0  0  0  0  0  0  0  0  0  0
   29.5972   15.5613   20.1604 C   0  0  0  0  0  0  0  0  0  0  0  0
   29.6716   16.7667   21.4491 S   0  0  0  0  0  0  0  0  0  0  0  0
   31.4153   16.9570   21.6260 C   0  0  0  0  0  0  0  0  0  0  0  0
   31.6891   18.0433   22.6614 C   0  0  0  0  0  0  0  0  0  0  0  0
   33.1171   18.1753   22.8691 N   0  0  0  0  0  0  0  0  0  0  0  0
   28.4517   15.2865   17.3659 O   0  0  0  0  0  0  0  0  0  0  0  0
  2  1  1  1  0  0  0
  2  3  1  0  0  0  0
  2  5  1  0  0  0  0
  3  4  1  0  0  0  0
  3 10  1  0  0  0  0
  5  6  1  0  0  0  0
  6  7  1  0  0  0  0
  7  8  1  0  0  0  0
  8  9  1  0  0  0  0
M  END
>  <CHROM.1>
-4.30745664,-74.04520657,-172.72175115,176.66824732,177.39605414,29.49742808
16.00858805,20.42156882,2.38623005,-0.52933216,-1.76134010

>  <Name>
ligand

>  <RI>
0

>  <Rbt.Current_Directory>
/home/itssahil/PROJECTS/Mol_Feturizer/New_Systems/rnas/3DIG

>  <Rbt.Executable>
rbdock ($Id: //depot/dev/client3/rdock/2013.1/src/exe/rbdock.cxx#4 $)

>  <Rbt.Library>
libRbt.so (2013.1, Build901 2013/11/27)

>  <Rbt.Parameter_File>
/export/apps/rDock/src/rDock_2013.1_src/data/scripts/dock_solv.prm

>  <Rbt.Receptor>
prm/blind_docking_80.prm

>  <SCORE>
-9.81315

>  <SCORE.INTER>
-8.90329

>  <SCORE.INTER.CONST>
1

>  <SCORE.INTER.POLAR>
0

>  <SCORE.INTER.ROT>
5

>  <SCORE.INTER.SOLV>
15.2013

>  <SCORE.INTER.VDW>
-17.936

>  <SCORE.INTER.norm>
-0.890329

>  <SCORE.INTRA>
-0.909859

>  <SCORE.INTRA.DIHEDRAL>
-0.310571

>  <SCORE.INTRA.DIHEDRAL.0>
2.60093

>  <SCORE.INTRA.POLAR>
0

>  <SCORE.INTRA.POLAR.0>
0

>  <SCORE.INTRA.REPUL>
0

>  <SCORE.INTRA.REPUL.0>
0

>  <SCORE.INTRA.SOLV>
-0.956896

>  <SCORE.INTRA.SOLV.lig_0>
-33.7882

>  <SCORE.INTRA.VDW>
-0.276125

>  <SCORE.INTRA.VDW.0>
-0.593976

>  <SCORE.INTRA.norm>
-0.0909859

>  <SCORE.RESTR>
0

>  <SCORE.RESTR.CAVITY>
0

>  <SCORE.RESTR.norm>
0

>  <SCORE.SYSTEM>
0

>  <SCORE.SYSTEM.CONST>
0

>  <SCORE.SYSTEM.DIHEDRAL>
0

>  <SCORE.SYSTEM.SOLV>
0

>  <SCORE.SYSTEM.norm>
0

>  <SCORE.heavy>
10

>  <SCORE.norm>
-0.981315

>  <RMSD>
5.818

$$$$
ligand
 OpenBabel11021811473D
libRbt.so/2013.1/901 2013/11/27
 10  9  0  0  0  0  0  0  0  0999 V2000
   27.2976   15.0549   20.7845 N   0  0  0  0  0  0  0  0  0  0  0  0
   28.1832   15.6002   19.7145 C   0  0  2  0  0  0  0  0  0  0  0  0
   28.0083   14.8656   18.4171 C   0  0  0  0  0  0  0  0  0  0  0  0
   28.4496   15.3238   17.3674 O   0  0  0  0  0  0  0  0  0  0  0  0
   29.6342   15.5927   20.1867 C   0  0  0  0  0  0  0  0  0  0  0  0
   29.8366   16.9012   21.3555 S   0  0  0  0  0  0  0  0  0  0  0  0
   31.5816   16.8594   21.6025 C   0  0  0  0  0  0  0  0  0  0  0  0
   31.9699   17.9808   22.5610 C   0  0  0  0  0  0  0  0  0  0  0  0
   33.4010   17.9602   22.7872 N   0  0  0  0  0  0  0  0  0  0  0  0
   27.4451   13.7760   18.3375 O   0  0  0  0  0  0  0  0  0  0  0  0
  2  1  1  1  0  0  0
  2  3  1  0  0  0  0
  2  5  1  0  0  0  0
  3  4  1  0  0  0  0
  3 10  1  0  0  0  0
  5  6  1  0  0  0  0
  6  7  1  0  0  0  0
  7  8  1  0  0  0  0
  8  9  1  0  0  0  0
M  END
>  <CHROM.1>
165.82685290,-74.32820043,-172.78478146,177.67874550,179.58543164,29.59779614
16.07541208,20.39611742,2.38147007,-0.39982222,-1.84343991

>  <Name>
ligand

>  <RI>
0

>  <Rbt.Current_Directory>
/home/itssahil/PROJECTS/Mol_Feturizer/New_Systems/rnas/3DIG

>  <Rbt.Executable>
rbdock ($Id: //depot/dev/client3/rdock/2013.1/src/exe/rbdock.cxx#4 $)

>  <Rbt.Library>
libRbt.so (2013.1, Build901 2013/11/27)

>  <Rbt.Parameter_File>
/export/apps/rDock/src/rDock_2013.1_src/data/scripts/dock_solv.prm

>  <Rbt.Receptor>
prm/pocket_docking_7.prm

>  <SCORE>
-9.8826

>  <SCORE.INTER>
-8.84768

>  <SCORE.INTER.CONST>
1

>  <SCORE.INTER.POLAR>
0

>  <SCORE.INTER.ROT>
5

>  <SCORE.INTER.SOLV>
15.2265

>  <SCORE.INTER.VDW>
-17.9073

>  <SCORE.INTER.norm>
-0.884768

>  <SCORE.INTRA>
-1.03492

>  <SCORE.INTRA.DIHEDRAL>
-0.367856

>  <SCORE.INTRA.DIHEDRAL.0>
2.60093

>  <SCORE.INTRA.POLAR>
0

>  <SCORE.INTRA.POLAR.0>
0

>  <SCORE.INTRA.REPUL>
0

>  <SCORE.INTRA.REPUL.0>
0

>  <SCORE.INTRA.SOLV>
-0.977291

>  <SCORE.INTRA.SOLV.lig_0>
-33.7882

>  <SCORE.INTRA.VDW>
-0.362346

>  <SCORE.INTRA.VDW.0>
-0.593976

>  <SCORE.INTRA.norm>
-0.103492

>  <SCORE.RESTR>
0

>  <SCORE.RESTR.CAVITY>
0

>  <SCORE.RESTR.norm>
0

>  <SCORE.SYSTEM>
0

>  <SCORE.SYSTEM.CONST>
0

>  <SCORE.SYSTEM.DIHEDRAL>
0

>  <SCORE.SYSTEM.SOLV>
0

>  <SCORE.SYSTEM.norm>
0

>  <SCORE.heavy>
10

>  <SCORE.norm>
-0.98826

>  <RMSD>
5.820

$$$$
ligand
 OpenBabel11021811473D
libRbt.so/2013.1/901 2013/11/27
 10  9  0  0  0  0  0  0  0  0999 V2000
   29.0272   15.9469   19.3058 N   0  0  0  0  0  0  0  0  0  0  0  0
   27.9092   14.9642   19.2017 C   0  0  2  0  0  0  0  0  0  0  0  0
   27.2548   14.7205   20.5305 C   0  0  0  0  0  0  0  0  0  0  0  0
   26.0606   14.9496   20.6980 O   0  0  0  0  0  0  0  0  0  0  0  0
   28.4107   13.6720   18.5637 C   0  0  0  0  0  0  0  0  0  0  0  0
   27.0121   12.7869   17.9472 S   0  0  0  0  0  0  0  0  0  0  0  0
   27.7317   11.2098   17.6267 C   0  0  0  0  0  0  0  0  0  0  0  0
   26.6501   10.1412   17.7505 C   0  0  0  0  0  0  0  0  0  0  0  0
   27.2203    8.8334   17.4969 N   0  0  0  0  0  0  0  0  0  0  0  0
   27.8597   14.2659   21.4991 O   0  0  0  0  0  0  0  0  0  0  0  0
  2  1  1  1  0  0  0
  2  3  1  0  0  0  0
  2  5  1  0  0  0  0
  3  4  1  0  0  0  0
  3 10  1  0  0  0  0
  5  6  1  0  0  0  0
  6  7  1  0  0  0  0
  7  8  1  0  0  0  0
  8  9  1  0  0  0  0
M  END
>  <CHROM.1>
120.60156693,-160.40291342,-166.88760465,152.33903431,-179.73821060,27.44373012
13.11295441,18.96689597,-1.40997347,-0.89262067,-2.51320140

>  <Name>
ligand

>  <RI>
0

>  <Rbt.Current_Directory>
/home/itssahil/PROJECTS/Mol_Feturizer/New_Systems/rnas/3DIG

>  <Rbt.Executable>
rbdock ($Id: //depot/dev/client3/rdock/2013.1/src/exe/rbdock.cxx#4 $)

>  <Rbt.Library>
libRbt.so (2013.1, Build901 2013/11/27)

>  <Rbt.Parameter_File>
/export/apps/rDock/src/rDock_2013.1_src/data/scripts/dock_solv.prm

>  <Rbt.Receptor>
prm/blind_docking_40.prm

>  <SCORE>
-11.1658

>  <SCORE.INTER>
-10.5018

>  <SCORE.INTER.CONST>
1

>  <SCORE.INTER.POLAR>
0

>  <SCORE.INTER.ROT>
5

>  <SCORE.INTER.SOLV>
15.23

>  <SCORE.INTER.VDW>
-19.0112

>  <SCORE.INTER.norm>
-1.05018

>  <SCORE.INTRA>
-0.665078

>  <SCORE.INTRA.DIHEDRAL>
1.49683

>  <SCORE.INTRA.DIHEDRAL.0>
2.60093

>  <SCORE.INTRA.POLAR>
0

>  <SCORE.INTRA.POLAR.0>
0

>  <SCORE.INTRA.REPUL>
0

>  <SCORE.INTRA.REPUL.0>
0

>  <SCORE.INTRA.SOLV>
-1.58441

>  <SCORE.INTRA.SOLV.lig_0>
-33.7882

>  <SCORE.INTRA.VDW>
-0.621292

>  <SCORE.INTRA.VDW.0>
-0.593976

>  <SCORE.INTRA.norm>
-0.0665078

>  <SCORE.RESTR>
0.00108716

>  <SCORE.RESTR.CAVITY>
0.00108716

>  <SCORE.RESTR.norm>
0.000108716

>  <SCORE.SYSTEM>
0

>  <SCORE.SYSTEM.CONST>
0

>  <SCORE.SYSTEM.DIHEDRAL>
0

>  <SCORE.SYSTEM.SOLV>
0

>  <SCORE.SYSTEM.norm>
0

>  <SCORE.heavy>
10

>  <SCORE.norm>
-1.11658

>  <RMSD>
5.824

$$$$
ligand
 OpenBabel11021811473D
libRbt.so/2013.1/901 2013/11/27
 10  9  0  0  0  0  0  0  0  0999 V2000
   29.0067   15.9484   19.3034 N   0  0  0  0  0  0  0  0  0  0  0  0
   27.8890   14.9660   19.1933 C   0  0  2  0  0  0  0  0  0  0  0  0
   27.2211   14.7299   20.5168 C   0  0  0  0  0  0  0  0  0  0  0  0
   27.8485   14.2749   21.4686 O   0  0  0  0  0  0  0  0  0  0  0  0
   28.3958   13.6700   18.5673 C   0  0  0  0  0  0  0  0  0  0  0  0
   27.0022   12.7797   17.9471 S   0  0  0  0  0  0  0  0  0  0  0  0
   27.7264   11.2026   17.6372 C   0  0  0  0  0  0  0  0  0  0  0  0
   26.6467   10.1322   17.7629 C   0  0  0  0  0  0  0  0  0  0  0  0
   27.2186    8.8254   17.5080 N   0  0  0  0  0  0  0  0  0  0  0  0
   26.0389   14.9943   20.7246 O   0  0  0  0  0  0  0  0  0  0  0  0
  2  1  1  1  0  0  0
  2  3  1  0  0  0  0
  2  5  1  0  0  0  0
  3  4  1  0  0  0  0
  3 10  1  0  0  0  0
  5  6  1  0  0  0  0
  6  7  1  0  0  0  0
  7  8  1  0  0  0  0
  8  9  1  0  0  0  0
M  END
>  <CHROM.1>
-60.87547084,-160.61912066,-167.05472495,152.21026437,179.83000497,27.43019497
13.11560624,18.96784517,-1.42030331,-0.88097589,-2.52636009

>  <Name>
ligand

>  <RI>
0

>  <Rbt.Current_Directory>
/home/itssahil/PROJECTS/Mol_Feturizer/New_Systems/rnas/3DIG

>  <Rbt.Executable>
rbdock ($Id: //depot/dev/client3/rdock/2013.1/src/exe/rbdock.cxx#4 $)

>  <Rbt.Library>
libRbt.so (2013.1, Build901 2013/11/27)

>  <Rbt.Parameter_File>
/export/apps/rDock/src/rDock_2013.1_src/data/scripts/dock_solv.prm

>  <Rbt.Receptor>
prm/blind_docking_40.prm

>  <SCORE>
-11.244

>  <SCORE.INTER>
-10.6304

>  <SCORE.INTER.CONST>
1

>  <SCORE.INTER.POLAR>
0

>  <SCORE.INTER.ROT>
5

>  <SCORE.INTER.SOLV>
15.2152

>  <SCORE.INTER.VDW>
-19.092

>  <SCORE.INTER.norm>
-1.06304

>  <SCORE.INTRA>
-0.613624

>  <SCORE.INTRA.DIHEDRAL>
1.46612

>  <SCORE.INTRA.DIHEDRAL.0>
2.60093

>  <SCORE.INTRA.POLAR>
0

>  <SCORE.INTRA.POLAR.0>
0

>  <SCORE.INTRA.REPUL>
0

>  <SCORE.INTRA.REPUL.0>
0

>  <SCORE.INTRA.SOLV>
-1.56967

>  <SCORE.INTRA.SOLV.lig_0>
-33.7882

>  <SCORE.INTRA.VDW>
-0.561849

>  <SCORE.INTRA.VDW.0>
-0.593976

>  <SCORE.INTRA.norm>
-0.0613624

>  <SCORE.RESTR>
0

>  <SCORE.RESTR.CAVITY>
0

>  <SCORE.RESTR.norm>
0

>  <SCORE.SYSTEM>
0

>  <SCORE.SYSTEM.CONST>
0

>  <SCORE.SYSTEM.DIHEDRAL>
0

>  <SCORE.SYSTEM.SOLV>
0

>  <SCORE.SYSTEM.norm>
0

>  <SCORE.heavy>
10

>  <SCORE.norm>
-1.1244

>  <RMSD>
5.833

$$$$
ligand
 OpenBabel11021811473D
libRbt.so/2013.1/901 2013/11/27
 10  9  0  0  0  0  0  0  0  0999 V2000
   29.0037   15.9533   19.2941 N   0  0  0  0  0  0  0  0  0  0  0  0
   27.8886   14.9675   19.1883 C   0  0  2  0  0  0  0  0  0  0  0  0
   27.2239   14.7323   20.5135 C   0  0  0  0  0  0  0  0  0  0  0  0
   26.0540   15.0539   20.6992 O   0  0  0  0  0  0  0  0  0  0  0  0
   28.3979   13.6715   18.5641 C   0  0  0  0  0  0  0  0  0  0  0  0
   27.0073   12.7834   17.9344 S   0  0  0  0  0  0  0  0  0  0  0  0
   27.7335   11.2081   17.6199 C   0  0  0  0  0  0  0  0  0  0  0  0
   26.6592   10.1342   17.7603 C   0  0  0  0  0  0  0  0  0  0  0  0
   27.2374    8.8269   17.5226 N   0  0  0  0  0  0  0  0  0  0  0  0
   27.7943   14.1951   21.4605 O   0  0  0  0  0  0  0  0  0  0  0  0
  2  1  1  1  0  0  0
  2  3  1  0  0  0  0
  2  5  1  0  0  0  0
  3  4  1  0  0  0  0
  3 10  1  0  0  0  0
  5  6  1  0  0  0  0
  6  7  1  0  0  0  0
  7  8  1  0  0  0  0
  8  9  1  0  0  0  0
M  END
>  <CHROM.1>
115.06288475,-160.07322485,-167.32382042,151.23401621,-179.27488775,27.43077357
13.11599180,18.95968996,-1.42556152,-0.90130692,-2.53172791

>  <Name>
ligand

>  <RI>
0

>  <Rbt.Current_Directory>
/home/itssahil/PROJECTS/Mol_Feturizer/New_Systems/rnas/3DIG

>  <Rbt.Executable>
rbdock ($Id: //depot/dev/client3/rdock/2013.1/src/exe/rbdock.cxx#4 $)

>  <Rbt.Library>
libRbt.so (2013.1, Build901 2013/11/27)

>  <Rbt.Parameter_File>
/export/apps/rDock/src/rDock_2013.1_src/data/scripts/dock_solv.prm

>  <Rbt.Receptor>
prm/blind_docking_40.prm

>  <SCORE>
-11.1791

>  <SCORE.INTER>
-10.6198

>  <SCORE.INTER.CONST>
1

>  <SCORE.INTER.POLAR>
0

>  <SCORE.INTER.ROT>
5

>  <SCORE.INTER.SOLV>
15.2943

>  <SCORE.INTER.VDW>
-19.1113

>  <SCORE.INTER.norm>
-1.06198

>  <SCORE.INTRA>
-0.559768

>  <SCORE.INTRA.DIHEDRAL>
1.60228

>  <SCORE.INTRA.DIHEDRAL.0>
2.60093

>  <SCORE.INTRA.POLAR>
0

>  <SCORE.INTRA.POLAR.0>
0

>  <SCORE.INTRA.REPUL>
0

>  <SCORE.INTRA.REPUL.0>
0

>  <SCORE.INTRA.SOLV>
-1.58625

>  <SCORE.INTRA.SOLV.lig_0>
-33.7882

>  <SCORE.INTRA.VDW>
-0.567784

>  <SCORE.INTRA.VDW.0>
-0.593976

>  <SCORE.INTRA.norm>
-0.0559768

>  <SCORE.RESTR>
0.000489152

>  <SCORE.RESTR.CAVITY>
0.000489152

>  <SCORE.RESTR.norm>
4.89152e-05

>  <SCORE.SYSTEM>
0

>  <SCORE.SYSTEM.CONST>
0

>  <SCORE.SYSTEM.DIHEDRAL>
0

>  <SCORE.SYSTEM.SOLV>
0

>  <SCORE.SYSTEM.norm>
0

>  <SCORE.heavy>
10

>  <SCORE.norm>
-1.11791

>  <RMSD>
5.840

$$$$
ligand
 OpenBabel11021811473D
libRbt.so/2013.1/901 2013/11/27
 10  9  0  0  0  0  0  0  0  0999 V2000
   28.9314   15.9692   19.3049 N   0  0  0  0  0  0  0  0  0  0  0  0
   27.8447   14.9494   19.2298 C   0  0  2  0  0  0  0  0  0  0  0  0
   27.2285   14.6904   20.5740 C   0  0  0  0  0  0  0  0  0  0  0  0
   26.0462   14.9432   20.7861 O   0  0  0  0  0  0  0  0  0  0  0  0
   28.3746   13.6715   18.5860 C   0  0  0  0  0  0  0  0  0  0  0  0
   26.9988   12.7742   17.9367 S   0  0  0  0  0  0  0  0  0  0  0  0
   27.7398   11.2037   17.6327 C   0  0  0  0  0  0  0  0  0  0  0  0
   26.6731   10.1218   17.7687 C   0  0  0  0  0  0  0  0  0  0  0  0
   27.2624    8.8188   17.5350 N   0  0  0  0  0  0  0  0  0  0  0  0
   27.8537   14.1998   21.5116 O   0  0  0  0  0  0  0  0  0  0  0  0
  2  1  1  1  0  0  0
  2  3  1  0  0  0  0
  2  5  1  0  0  0  0
  3  4  1  0  0  0  0
  3 10  1  0  0  0  0
  5  6  1  0  0  0  0
  6  7  1  0  0  0  0
  7  8  1  0  0  0  0
  8  9  1  0  0  0  0
M  END
>  <CHROM.1>
116.94850140,-157.76311884,-166.09959722,150.80002573,-179.46785870,27.42656734
13.09802729,18.98782095,-1.42112755,-0.95057668,-2.51394602

>  <Name>
ligand

>  <RI>
0

>  <Rbt.Current_Directory>
/home/itssahil/PROJECTS/Mol_Feturizer/New_Systems/rnas/3DIG

>  <Rbt.Executable>
rbdock ($Id: //depot/dev/client3/rdock/2013.1/src/exe/rbdock.cxx#4 $)

>  <Rbt.Library>
libRbt.so (2013.1, Build901 2013/11/27)

>  <Rbt.Parameter_File>
/export/apps/rDock/src/rDock_2013.1_src/data/scripts/dock_solv.prm

>  <Rbt.Receptor>
prm/blind_docking_40.prm

>  <SCORE>
-11.1343

>  <SCORE.INTER>
-10.7308

>  <SCORE.INTER.CONST>
1

>  <SCORE.INTER.POLAR>
0

>  <SCORE.INTER.ROT>
5

>  <SCORE.INTER.SOLV>
15.4688

>  <SCORE.INTER.VDW>
-19.2435

>  <SCORE.INTER.norm>
-1.07308

>  <SCORE.INTRA>
-0.403543

>  <SCORE.INTRA.DIHEDRAL>
1.9535

>  <SCORE.INTRA.DIHEDRAL.0>
2.60093

>  <SCORE.INTRA.POLAR>
0

>  <SCORE.INTRA.POLAR.0>
0

>  <SCORE.INTRA.REPUL>
0

>  <SCORE.INTRA.REPUL.0>
0

>  <SCORE.INTRA.SOLV>
-1.58306

>  <SCORE.INTRA.SOLV.lig_0>
-33.7882

>  <SCORE.INTRA.VDW>
-0.588764

>  <SCORE.INTRA.VDW.0>
-0.593976

>  <SCORE.INTRA.norm>
-0.0403543

>  <SCORE.RESTR>
0

>  <SCORE.RESTR.CAVITY>
0

>  <SCORE.RESTR.norm>
0

>  <SCORE.SYSTEM>
0

>  <SCORE.SYSTEM.CONST>
0

>  <SCORE.SYSTEM.DIHEDRAL>
0

>  <SCORE.SYSTEM.SOLV>
0

>  <SCORE.SYSTEM.norm>
0

>  <SCORE.heavy>
10

>  <SCORE.norm>
-1.11343

>  <RMSD>
5.842

$$$$
ligand
 OpenBabel11021811473D
libRbt.so/2013.1/901 2013/11/27
 10  9  0  0  0  0  0  0  0  0999 V2000
   28.9910   15.9518   19.3019 N   0  0  0  0  0  0  0  0  0  0  0  0
   27.8748   14.9684   19.1861 C   0  0  2  0  0  0  0  0  0  0  0  0
   27.1874   14.7468   20.5021 C   0  0  0  0  0  0  0  0  0  0  0  0
   26.0148   15.0714   20.6647 O   0  0  0  0  0  0  0  0  0  0  0  0
   28.3904   13.6655   18.5818 C   0  0  0  0  0  0  0  0  0  0  0  0
   27.0076   12.7759   17.9370 S   0  0  0  0  0  0  0  0  0  0  0  0
   27.7412   11.2042   17.6215 C   0  0  0  0  0  0  0  0  0  0  0  0
   26.6723   10.1251   17.7624 C   0  0  0  0  0  0  0  0  0  0  0  0
   27.2539    8.8218   17.5114 N   0  0  0  0  0  0  0  0  0  0  0  0
   27.7410   14.2183   21.4638 O   0  0  0  0  0  0  0  0  0  0  0  0
  2  1  1  1  0  0  0
  2  3  1  0  0  0  0
  2  5  1  0  0  0  0
  3  4  1  0  0  0  0
  3 10  1  0  0  0  0
  5  6  1  0  0  0  0
  6  7  1  0  0  0  0
  7  8  1  0  0  0  0
  8  9  1  0  0  0  0
M  END
>  <CHROM.1>
115.18873689,-160.08017907,-168.28568264,150.66678461,-179.81673247,27.41915894
13.11746176,18.95763413,-1.44300380,-0.87950106,-2.54874997

>  <Name>
ligand

>  <RI>
0

>  <Rbt.Current_Directory>
/home/itssahil/PROJECTS/Mol_Feturizer/New_Systems/rnas/3DIG

>  <Rbt.Executable>
rbdock ($Id: //depot/dev/client3/rdock/2013.1/src/exe/rbdock.cxx#4 $)

>  <Rbt.Library>
libRbt.so (2013.1, Build901 2013/11/27)

>  <Rbt.Parameter_File>
/export/apps/rDock/src/rDock_2013.1_src/data/scripts/dock_solv.prm

>  <Rbt.Receptor>
prm/blind_docking_40.prm

>  <SCORE>
-11.1854

>  <SCORE.INTER>
-10.6245

>  <SCORE.INTER.CONST>
1

>  <SCORE.INTER.POLAR>
0

>  <SCORE.INTER.ROT>
5

>  <SCORE.INTER.SOLV>
15.3477

>  <SCORE.INTER.VDW>
-19.1322

>  <SCORE.INTER.norm>
-1.06245

>  <SCORE.INTRA>
-0.56119

>  <SCORE.INTRA.DIHEDRAL>
1.59889

>  <SCORE.INTRA.DIHEDRAL.0>
2.60093

>  <SCORE.INTRA.POLAR>
0

>  <SCORE.INTRA.POLAR.0>
0

>  <SCORE.INTRA.REPUL>
0

>  <SCORE.INTRA.REPUL.0>
0

>  <SCORE.INTRA.SOLV>
-1.58629

>  <SCORE.INTRA.SOLV.lig_0>
-33.7882

>  <SCORE.INTRA.VDW>
-0.56749

>  <SCORE.INTRA.VDW.0>
-0.593976

>  <SCORE.INTRA.norm>
-0.056119

>  <SCORE.RESTR>
0.000275872

>  <SCORE.RESTR.CAVITY>
0.000275872

>  <SCORE.RESTR.norm>
2.75872e-05

>  <SCORE.SYSTEM>
0

>  <SCORE.SYSTEM.CONST>
0

>  <SCORE.SYSTEM.DIHEDRAL>
0

>  <SCORE.SYSTEM.SOLV>
0

>  <SCORE.SYSTEM.norm>
0

>  <SCORE.heavy>
10

>  <SCORE.norm>
-1.11854

>  <RMSD>
5.857

$$$$
ligand
 OpenBabel11021811473D
libRbt.so/2013.1/901 2013/11/27
 10  9  0  0  0  0  0  0  0  0999 V2000
   28.5875   16.0155   19.0789 N   0  0  0  0  0  0  0  0  0  0  0  0
   27.6502   14.8563   19.1428 C   0  0  2  0  0  0  0  0  0  0  0  0
   27.1726   14.6013   20.5429 C   0  0  0  0  0  0  0  0  0  0  0  0
   26.0101   14.8285   20.8650 O   0  0  0  0  0  0  0  0  0  0  0  0
   28.3054   13.6234   18.5269 C   0  0  0  0  0  0  0  0  0  0  0  0
   27.0251   12.5644   17.9280 S   0  0  0  0  0  0  0  0  0  0  0  0
   27.9305   11.0800   17.6372 C   0  0  0  0  0  0  0  0  0  0  0  0
   26.9445    9.9329   17.4399 C   0  0  0  0  0  0  0  0  0  0  0  0
   26.2869    9.6290   18.6949 N   0  0  0  0  0  0  0  0  0  0  0  0
   27.8971   14.1390   21.4217 O   0  0  0  0  0  0  0  0  0  0  0  0
  2  1  1  1  0  0  0
  2  3  1  0  0  0  0
  2  5  1  0  0  0  0
  3  4  1  0  0  0  0
  3 10  1  0  0  0  0
  5  6  1  0  0  0  0
  6  7  1  0  0  0  0
  7  8  1  0  0  0  0
  8  9  1  0  0  0  0
M  END
>  <CHROM.1>
109.90596296,-153.65821366,-166.78127696,166.13583995,-69.72014582,27.33099576
13.06736757,19.02389251,-1.36803168,-0.99580332,-2.48820666

>  <Name>
ligand

>  <RI>
0

>  <Rbt.Current_Directory>
/home/itssahil/PROJECTS/Mol_Feturizer/New_Systems/rnas/3DIG

>  <Rbt.Executable>
rbdock ($Id: //depot/dev/client3/rdock/2013.1/src/exe/rbdock.cxx#4 $)

>  <Rbt.Library>
libRbt.so (2013.1, Build901 2013/11/27)

>  <Rbt.Parameter_File>
/export/apps/rDock/src/rDock_2013.1_src/data/scripts/dock_solv.prm

>  <Rbt.Receptor>
prm/blind_docking_40.prm

>  <SCORE>
-9.23489

>  <SCORE.INTER>
-9.33268

>  <SCORE.INTER.CONST>
1

>  <SCORE.INTER.POLAR>
0

>  <SCORE.INTER.ROT>
5

>  <SCORE.INTER.SOLV>
17.3432

>  <SCORE.INTER.VDW>
-18.9362

>  <SCORE.INTER.norm>
-0.933268

>  <SCORE.INTRA>
0.0977928

>  <SCORE.INTRA.DIHEDRAL>
1.97326

>  <SCORE.INTRA.DIHEDRAL.0>
2.60093

>  <SCORE.INTRA.POLAR>
0

>  <SCORE.INTRA.POLAR.0>
0

>  <SCORE.INTRA.REPUL>
0

>  <SCORE.INTRA.REPUL.0>
0

>  <SCORE.INTRA.SOLV>
-0.668536

>  <SCORE.INTRA.SOLV.lig_0>
-33.7882

>  <SCORE.INTRA.VDW>
-0.554568

>  <SCORE.INTRA.VDW.0>
-0.593976

>  <SCORE.INTRA.norm>
0.00977928

>  <SCORE.RESTR>
0

>  <SCORE.RESTR.CAVITY>
0

>  <SCORE.RESTR.norm>
0

>  <SCORE.SYSTEM>
0

>  <SCORE.SYSTEM.CONST>
0

>  <SCORE.SYSTEM.DIHEDRAL>
0

>  <SCORE.SYSTEM.SOLV>
0

>  <SCORE.SYSTEM.norm>
0

>  <SCORE.heavy>
10

>  <SCORE.norm>
-0.923489

>  <RMSD>
5.877

$$$$
ligand
 OpenBabel11021811473D
libRbt.so/2013.1/901 2013/11/27
 10  9  0  0  0  0  0  0  0  0999 V2000
   29.1901   15.7997   19.3770 N   0  0  0  0  0  0  0  0  0  0  0  0
   27.9974   14.9544   19.0779 C   0  0  2  0  0  0  0  0  0  0  0  0
   27.0875   14.8327   20.2656 C   0  0  0  0  0  0  0  0  0  0  0  0
   27.4521   14.2518   21.2836 O   0  0  0  0  0  0  0  0  0  0  0  0
   28.4438   13.5920   18.5553 C   0  0  0  0  0  0  0  0  0  0  0  0
   27.0235   12.7575   17.9184 S   0  0  0  0  0  0  0  0  0  0  0  0
   27.6894   11.1542   17.6122 C   0  0  0  0  0  0  0  0  0  0  0  0
   26.5823   10.1197   17.7886 C   0  0  0  0  0  0  0  0  0  0  0  0
   27.1105    8.7904   17.5564 N   0  0  0  0  0  0  0  0  0  0  0  0
   25.9583   15.3171   20.2939 O   0  0  0  0  0  0  0  0  0  0  0  0
  2  1  1  1  0  0  0
  2  3  1  0  0  0  0
  2  5  1  0  0  0  0
  3  4  1  0  0  0  0
  3 10  1  0  0  0  0
  5  6  1  0  0  0  0
  6  7  1  0  0  0  0
  7  8  1  0  0  0  0
  8  9  1  0  0  0  0
M  END
>  <CHROM.1>
-65.75488723,-168.89578334,-171.55317877,149.57202916,-179.35570033,27.38723227
13.11966566,18.88154127,-1.45428031,-0.66101900,-2.61479508

>  <Name>
ligand

>  <RI>
0

>  <Rbt.Current_Directory>
/home/itssahil/PROJECTS/Mol_Feturizer/New_Systems/rnas/3DIG

>  <Rbt.Executable>
rbdock ($Id: //depot/dev/client3/rdock/2013.1/src/exe/rbdock.cxx#4 $)

>  <Rbt.Library>
libRbt.so (2013.1, Build901 2013/11/27)

>  <Rbt.Parameter_File>
/export/apps/rDock/src/rDock_2013.1_src/data/scripts/dock_solv.prm

>  <Rbt.Receptor>
prm/blind_docking_100.prm

>  <SCORE>
-11.2646

>  <SCORE.INTER>
-10.3461

>  <SCORE.INTER.CONST>
1

>  <SCORE.INTER.POLAR>
0

>  <SCORE.INTER.ROT>
5

>  <SCORE.INTER.SOLV>
14.1603

>  <SCORE.INTER.VDW>
-18.5508

>  <SCORE.INTER.norm>
-1.03461

>  <SCORE.INTRA>
-0.918453

>  <SCORE.INTRA.DIHEDRAL>
0.668555

>  <SCORE.INTRA.DIHEDRAL.0>
2.60093

>  <SCORE.INTRA.POLAR>
0

>  <SCORE.INTRA.POLAR.0>
0

>  <SCORE.INTRA.REPUL>
0

>  <SCORE.INTRA.REPUL.0>
0

>  <SCORE.INTRA.SOLV>
-1.57423

>  <SCORE.INTRA.SOLV.lig_0>
-33.7882

>  <SCORE.INTRA.VDW>
-0.465614

>  <SCORE.INTRA.VDW.0>
-0.593976

>  <SCORE.INTRA.norm>
-0.0918453

>  <SCORE.RESTR>
0

>  <SCORE.RESTR.CAVITY>
0

>  <SCORE.RESTR.norm>
0

>  <SCORE.SYSTEM>
0

>  <SCORE.SYSTEM.CONST>
0

>  <SCORE.SYSTEM.DIHEDRAL>
0

>  <SCORE.SYSTEM.SOLV>
0

>  <SCORE.SYSTEM.norm>
0

>  <SCORE.heavy>
10

>  <SCORE.norm>
-1.12646

>  <RMSD>
5.911

$$$$
ligand
 OpenBabel11021811473D
libRbt.so/2013.1/901 2013/11/27
 10  9  0  0  0  0  0  0  0  0999 V2000
   27.0796   14.0500   19.9191 N   0  0  0  0  0  0  0  0  0  0  0  0
   27.9202   13.5776   18.7804 C   0  0  2  0  0  0  0  0  0  0  0  0
   28.9389   14.6032   18.3757 C   0  0  0  0  0  0  0  0  0  0  0  0
   30.1023   14.5234   18.7591 O   0  0  0  0  0  0  0  0  0  0  0  0
   27.0290   13.1630   17.6133 C   0  0  0  0  0  0  0  0  0  0  0  0
   26.4820   11.5087   17.9026 S   0  0  0  0  0  0  0  0  0  0  0  0
   27.9771   10.6131   17.6376 C   0  0  0  0  0  0  0  0  0  0  0  0
   27.8394    9.2293   18.2645 C   0  0  0  0  0  0  0  0  0  0  0  0
   26.7740    8.4971   17.6098 N   0  0  0  0  0  0  0  0  0  0  0  0
   28.6769   15.5483   17.6349 O   0  0  0  0  0  0  0  0  0  0  0  0
  2  1  1  1  0  0  0
  2  3  1  0  0  0  0
  2  5  1  0  0  0  0
  3  4  1  0  0  0  0
  3 10  1  0  0  0  0
  5  6  1  0  0  0  0
  6  7  1  0  0  0  0
  7  8  1  0  0  0  0
  8  9  1  0  0  0  0
M  END
>  <CHROM.1>
99.02552075,-83.01850342,-71.20484745,162.01151746,62.70975137,27.74733413
12.44506741,18.20398337,1.25149875,0.03477210,0.13488284

>  <Name>
ligand

>  <RI>
0

>  <Rbt.Current_Directory>
/home/itssahil/PROJECTS/Mol_Feturizer/New_Systems/rnas/3DIG

>  <Rbt.Executable>
rbdock ($Id: //depot/dev/client3/rdock/2013.1/src/exe/rbdock.cxx#4 $)

>  <Rbt.Library>
libRbt.so (2013.1, Build901 2013/11/27)

>  <Rbt.Parameter_File>
/export/apps/rDock/src/rDock_2013.1_src/data/scripts/dock_solv.prm

>  <Rbt.Receptor>
prm/blind_docking_40.prm

>  <SCORE>
-2.1532

>  <SCORE.INTER>
-2.66248

>  <SCORE.INTER.CONST>
1

>  <SCORE.INTER.POLAR>
0

>  <SCORE.INTER.ROT>
5

>  <SCORE.INTER.SOLV>
17.0088

>  <SCORE.INTER.VDW>
-14.3779

>  <SCORE.INTER.norm>
-0.266248

>  <SCORE.INTRA>
0.507023

>  <SCORE.INTRA.DIHEDRAL>
1.29343

>  <SCORE.INTRA.DIHEDRAL.0>
2.60093

>  <SCORE.INTRA.POLAR>
0

>  <SCORE.INTRA.POLAR.0>
0

>  <SCORE.INTRA.REPUL>
0

>  <SCORE.INTRA.REPUL.0>
0

>  <SCORE.INTRA.SOLV>
0.140834

>  <SCORE.INTRA.SOLV.lig_0>
-33.7882

>  <SCORE.INTRA.VDW>
-0.210108

>  <SCORE.INTRA.VDW.0>
-0.593976

>  <SCORE.INTRA.norm>
0.0507023

>  <SCORE.RESTR>
0.00225447

>  <SCORE.RESTR.CAVITY>
0.00225447

>  <SCORE.RESTR.norm>
0.000225447

>  <SCORE.SYSTEM>
0

>  <SCORE.SYSTEM.CONST>
0

>  <SCORE.SYSTEM.DIHEDRAL>
0

>  <SCORE.SYSTEM.SOLV>
0

>  <SCORE.SYSTEM.norm>
0

>  <SCORE.heavy>
10

>  <SCORE.norm>
-0.21532

>  <RMSD>
6.219

$$$$
ligand
 OpenBabel11021811473D
libRbt.so/2013.1/901 2013/11/27
 10  9  0  0  0  0  0  0  0  0999 V2000
   25.9955   11.8440   17.8684 N   0  0  0  0  0  0  0  0  0  0  0  0
   27.4136   11.7581   17.4121 C   0  0  2  0  0  0  0  0  0  0  0  0
   27.9315   10.3500   17.4619 C   0  0  0  0  0  0  0  0  0  0  0  0
   27.3639    9.4464   16.8553 O   0  0  0  0  0  0  0  0  0  0  0  0
   28.2799   12.7169   18.2236 C   0  0  0  0  0  0  0  0  0  0  0  0
   27.3763   14.2183   18.4442 S   0  0  0  0  0  0  0  0  0  0  0  0
   27.8853   14.6771   20.0684 C   0  0  0  0  0  0  0  0  0  0  0  0
   29.3413   15.1295   20.0183 C   0  0  0  0  0  0  0  0  0  0  0  0
   29.7969   15.4675   21.3518 N   0  0  0  0  0  0  0  0  0  0  0  0
   28.9448   10.0329   18.0812 O   0  0  0  0  0  0  0  0  0  0  0  0
  2  1  1  1  0  0  0
  2  3  1  0  0  0  0
  2  5  1  0  0  0  0
  3  4  1  0  0  0  0
  3 10  1  0  0  0  0
  5  6  1  0  0  0  0
  6  7  1  0  0  0  0
  7  8  1  0  0  0  0
  8  9  1  0  0  0  0
M  END
>  <CHROM.1>
56.68171377,-40.56477627,144.38645767,71.09602117,-178.00264397,27.96675593
12.71431761,18.55706238,1.81234051,0.51714523,-2.73211532

>  <Name>
ligand

>  <RI>
0

>  <Rbt.Current_Directory>
/home/itssahil/PROJECTS/Mol_Feturizer/New_Systems/rnas/3DIG

>  <Rbt.Executable>
rbdock ($Id: //depot/dev/client3/rdock/2013.1/src/exe/rbdock.cxx#4 $)

>  <Rbt.Library>
libRbt.so (2013.1, Build901 2013/11/27)

>  <Rbt.Parameter_File>
/export/apps/rDock/src/rDock_2013.1_src/data/scripts/dock_solv.prm

>  <Rbt.Receptor>
prm/blind_docking_80.prm

>  <SCORE>
1.03599

>  <SCORE.INTER>
-1.06681

>  <SCORE.INTER.CONST>
1

>  <SCORE.INTER.POLAR>
0

>  <SCORE.INTER.ROT>
5

>  <SCORE.INTER.SOLV>
16.8374

>  <SCORE.INTER.VDW>
-13.257

>  <SCORE.INTER.norm>
-0.106681

>  <SCORE.INTRA>
2.04433

>  <SCORE.INTRA.DIHEDRAL>
1.89938

>  <SCORE.INTRA.DIHEDRAL.0>
2.60093

>  <SCORE.INTRA.POLAR>
0

>  <SCORE.INTRA.POLAR.0>
0

>  <SCORE.INTRA.REPUL>
0

>  <SCORE.INTRA.REPUL.0>
0

>  <SCORE.INTRA.SOLV>
0.0269568

>  <SCORE.INTRA.SOLV.lig_0>
-33.7882

>  <SCORE.INTRA.VDW>
1.08116

>  <SCORE.INTRA.VDW.0>
-0.593976

>  <SCORE.INTRA.norm>
0.204433

>  <SCORE.RESTR>
0.0584612

>  <SCORE.RESTR.CAVITY>
0.0584612

>  <SCORE.RESTR.norm>
0.00584612

>  <SCORE.SYSTEM>
0

>  <SCORE.SYSTEM.CONST>
0

>  <SCORE.SYSTEM.DIHEDRAL>
0

>  <SCORE.SYSTEM.SOLV>
0

>  <SCORE.SYSTEM.norm>
0

>  <SCORE.heavy>
10

>  <SCORE.norm>
0.103599

>  <RMSD>
7.196

$$$$
ligand
 OpenBabel11021811473D
libRbt.so/2013.1/901 2013/11/27
 10  9  0  0  0  0  0  0  0  0999 V2000
   25.5914    9.6932   18.2434 N   0  0  0  0  0  0  0  0  0  0  0  0
   26.8017    9.5430   17.3835 C   0  0  2  0  0  0  0  0  0  0  0  0
   27.4294    8.1878   17.5352 C   0  0  0  0  0  0  0  0  0  0  0  0
   27.5538    7.4380   16.5713 O   0  0  0  0  0  0  0  0  0  0  0  0
   27.7897   10.6686   17.6755 C   0  0  0  0  0  0  0  0  0  0  0  0
   26.8995   12.1940   17.6698 S   0  0  0  0  0  0  0  0  0  0  0  0
   28.1077   13.2866   18.3438 C   0  0  0  0  0  0  0  0  0  0  0  0
   27.3957   14.3827   19.1302 C   0  0  0  0  0  0  0  0  0  0  0  0
   28.3699   15.2985   19.6888 N   0  0  0  0  0  0  0  0  0  0  0  0
   27.8656    7.7701   18.6056 O   0  0  0  0  0  0  0  0  0  0  0  0
  2  1  1  1  0  0  0
  2  3  1  0  0  0  0
  2  5  1  0  0  0  0
  3  4  1  0  0  0  0
  3 10  1  0  0  0  0
  5  6  1  0  0  0  0
  6  7  1  0  0  0  0
  7  8  1  0  0  0  0
  8  9  1  0  0  0  0
M  END
>  <CHROM.1>
120.57532621,-47.87944704,168.72167310,-148.59431729,-179.70060199,27.33727091
10.96006734,18.03658566,1.65206813,0.46249288,-2.95177262

>  <Name>
ligand

>  <RI>
0

>  <Rbt.Current_Directory>
/home/itssahil/PROJECTS/Mol_Feturizer/New_Systems/rnas/3DIG

>  <Rbt.Executable>
rbdock ($Id: //depot/dev/client3/rdock/2013.1/src/exe/rbdock.cxx#4 $)

>  <Rbt.Library>
libRbt.so (2013.1, Build901 2013/11/27)

>  <Rbt.Parameter_File>
/export/apps/rDock/src/rDock_2013.1_src/data/scripts/dock_solv.prm

>  <Rbt.Receptor>
prm/blind_docking_40.prm

>  <SCORE>
-7.63982

>  <SCORE.INTER>
-7.7303

>  <SCORE.INTER.CONST>
1

>  <SCORE.INTER.POLAR>
0

>  <SCORE.INTER.ROT>
5

>  <SCORE.INTER.SOLV>
13.8818

>  <SCORE.INTER.VDW>
-16.7141

>  <SCORE.INTER.norm>
-0.77303

>  <SCORE.INTRA>
0.0904831

>  <SCORE.INTRA.DIHEDRAL>
0.914632

>  <SCORE.INTRA.DIHEDRAL.0>
2.60093

>  <SCORE.INTRA.POLAR>
0

>  <SCORE.INTRA.POLAR.0>
0

>  <SCORE.INTRA.REPUL>
0

>  <SCORE.INTRA.REPUL.0>
0

>  <SCORE.INTRA.SOLV>
-0.508067

>  <SCORE.INTRA.SOLV.lig_0>
-33.7882

>  <SCORE.INTRA.VDW>
-0.112799

>  <SCORE.INTRA.VDW.0>
-0.593976

>  <SCORE.INTRA.norm>
0.00904831

>  <SCORE.RESTR>
0

>  <SCORE.RESTR.CAVITY>
0

>  <SCORE.RESTR.norm>
0

>  <SCORE.SYSTEM>
0

>  <SCORE.SYSTEM.CONST>
0

>  <SCORE.SYSTEM.DIHEDRAL>
0

>  <SCORE.SYSTEM.SOLV>
0

>  <SCORE.SYSTEM.norm>
0

>  <SCORE.heavy>
10

>  <SCORE.norm>
-0.763982

>  <RMSD>
8.585

$$$$
ligand
 OpenBabel11021811473D
libRbt.so/2013.1/901 2013/11/27
 10  9  0  0  0  0  0  0  0  0999 V2000
   30.0795    8.6022   28.4131 N   0  0  0  0  0  0  0  0  0  0  0  0
   29.6823    9.7495   27.5456 C   0  0  2  0  0  0  0  0  0  0  0  0
   29.5628   11.0253   28.3275 C   0  0  0  0  0  0  0  0  0  0  0  0
   29.9857   12.0852   27.8754 O   0  0  0  0  0  0  0  0  0  0  0  0
   28.3962    9.4136   26.7961 C   0  0  0  0  0  0  0  0  0  0  0  0
   28.8071    8.3347   25.4595 S   0  0  0  0  0  0  0  0  0  0  0  0
   27.2412    8.1787   24.6648 C   0  0  0  0  0  0  0  0  0  0  0  0
   27.3659    7.1723   23.5253 C   0  0  0  0  0  0  0  0  0  0  0  0
   26.0677    6.9516   22.9204 N   0  0  0  0  0  0  0  0  0  0  0  0
   29.0257   11.0839   29.4315 O   0  0  0  0  0  0  0  0  0  0  0  0
  2  1  1  1  0  0  0
  2  3  1  0  0  0  0
  2  5  1  0  0  0  0
  3  4  1  0  0  0  0
  3 10  1  0  0  0  0
  5  6  1  0  0  0  0
  6  7  1  0  0  0  0
  7  8  1  0  0  0  0
  8  9  1  0  0  0  0
M  END
>  <CHROM.1>
138.37389153,-77.25536367,-175.69597856,-175.37189833,175.73584356,28.64587407
9.18744933,26.40236339,-0.89169924,0.89158487,-2.76736478

>  <Name>
ligand

>  <RI>
0

>  <Rbt.Current_Directory>
/home/itssahil/PROJECTS/Mol_Feturizer/New_Systems/rnas/3DIG

>  <Rbt.Executable>
rbdock ($Id: //depot/dev/client3/rdock/2013.1/src/exe/rbdock.cxx#4 $)

>  <Rbt.Library>
libRbt.so (2013.1, Build901 2013/11/27)

>  <Rbt.Parameter_File>
/export/apps/rDock/src/rDock_2013.1_src/data/scripts/dock_solv.prm

>  <Rbt.Receptor>
prm/blind_docking_80.prm

>  <SCORE>
-5.84068

>  <SCORE.INTER>
-4.8204

>  <SCORE.INTER.CONST>
1

>  <SCORE.INTER.POLAR>
0

>  <SCORE.INTER.ROT>
5

>  <SCORE.INTER.SOLV>
12.1622

>  <SCORE.INTER.VDW>
-14.201

>  <SCORE.INTER.norm>
-0.48204

>  <SCORE.INTRA>
-1.02028

>  <SCORE.INTRA.DIHEDRAL>
-0.0433908

>  <SCORE.INTRA.DIHEDRAL.0>
2.60093

>  <SCORE.INTRA.POLAR>
0

>  <SCORE.INTRA.POLAR.0>
0

>  <SCORE.INTRA.REPUL>
0

>  <SCORE.INTRA.REPUL.0>
0

>  <SCORE.INTRA.SOLV>
-1.01818

>  <SCORE.INTRA.SOLV.lig_0>
-33.7882

>  <SCORE.INTRA.VDW>
-0.489497

>  <SCORE.INTRA.VDW.0>
-0.593976

>  <SCORE.INTRA.norm>
-0.102028

>  <SCORE.RESTR>
0

>  <SCORE.RESTR.CAVITY>
0

>  <SCORE.RESTR.norm>
0

>  <SCORE.SYSTEM>
0

>  <SCORE.SYSTEM.CONST>
0

>  <SCORE.SYSTEM.DIHEDRAL>
0

>  <SCORE.SYSTEM.SOLV>
0

>  <SCORE.SYSTEM.norm>
0

>  <SCORE.heavy>
10

>  <SCORE.norm>
-0.584068

>  <RMSD>
9.177

$$$$
ligand
 OpenBabel11021811473D
libRbt.so/2013.1/901 2013/11/27
 10  9  0  0  0  0  0  0  0  0999 V2000
   28.8377    8.3825   28.9671 N   0  0  0  0  0  0  0  0  0  0  0  0
   29.6048    9.0288   27.8624 C   0  0  2  0  0  0  0  0  0  0  0  0
   29.5468   10.5266   27.9445 C   0  0  0  0  0  0  0  0  0  0  0  0
   30.4661   11.2186   27.5172 O   0  0  0  0  0  0  0  0  0  0  0  0
   29.1131    8.5088   26.5147 C   0  0  0  0  0  0  0  0  0  0  0  0
   27.4032    8.9224   26.3588 S   0  0  0  0  0  0  0  0  0  0  0  0
   26.9897    8.0719   24.8710 C   0  0  0  0  0  0  0  0  0  0  0  0
   25.5046    8.2724   24.5861 C   0  0  0  0  0  0  0  0  0  0  0  0
   25.1207    7.5062   23.4177 N   0  0  0  0  0  0  0  0  0  0  0  0
   28.5860   11.1328   28.4136 O   0  0  0  0  0  0  0  0  0  0  0  0
  2  1  1  1  0  0  0
  2  3  1  0  0  0  0
  2  5  1  0  0  0  0
  3  4  1  0  0  0  0
  3 10  1  0  0  0  0
  5  6  1  0  0  0  0
  6  7  1  0  0  0  0
  7  8  1  0  0  0  0
  8  9  1  0  0  0  0
M  END
>  <CHROM.1>
150.92044358,60.75762276,-173.09181660,178.04615741,-176.07282067,28.04405544
9.16432375,26.62153609,-0.15767653,0.85818369,2.78794841

>  <Name>
ligand

>  <RI>
0

>  <Rbt.Current_Directory>
/home/itssahil/PROJECTS/Mol_Feturizer/New_Systems/rnas/3DIG

>  <Rbt.Executable>
rbdock ($Id: //depot/dev/client3/rdock/2013.1/src/exe/rbdock.cxx#4 $)

>  <Rbt.Library>
libRbt.so (2013.1, Build901 2013/11/27)

>  <Rbt.Parameter_File>
/export/apps/rDock/src/rDock_2013.1_src/data/scripts/dock_solv.prm

>  <Rbt.Receptor>
prm/blind_docking_100.prm

>  <SCORE>
-7.7082

>  <SCORE.INTER>
-6.44328

>  <SCORE.INTER.CONST>
1

>  <SCORE.INTER.POLAR>
0

>  <SCORE.INTER.ROT>
5

>  <SCORE.INTER.SOLV>
8.79795

>  <SCORE.INTER.VDW>
-14.1615

>  <SCORE.INTER.norm>
-0.644328

>  <SCORE.INTRA>
-1.26491

>  <SCORE.INTRA.DIHEDRAL>
-1.00047

>  <SCORE.INTRA.DIHEDRAL.0>
2.60093

>  <SCORE.INTRA.POLAR>
0

>  <SCORE.INTRA.POLAR.0>
0

>  <SCORE.INTRA.REPUL>
0

>  <SCORE.INTRA.REPUL.0>
0

>  <SCORE.INTRA.SOLV>
-0.601567

>  <SCORE.INTRA.SOLV.lig_0>
-33.7882

>  <SCORE.INTRA.VDW>
-0.463894

>  <SCORE.INTRA.VDW.0>
-0.593976

>  <SCORE.INTRA.norm>
-0.126491

>  <SCORE.RESTR>
0

>  <SCORE.RESTR.CAVITY>
0

>  <SCORE.RESTR.norm>
0

>  <SCORE.SYSTEM>
0

>  <SCORE.SYSTEM.CONST>
0

>  <SCORE.SYSTEM.DIHEDRAL>
0

>  <SCORE.SYSTEM.SOLV>
0

>  <SCORE.SYSTEM.norm>
0

>  <SCORE.heavy>
10

>  <SCORE.norm>
-0.77082

>  <RMSD>
9.391

$$$$
ligand
 OpenBabel11021811473D
libRbt.so/2013.1/901 2013/11/27
 10  9  0  0  0  0  0  0  0  0999 V2000
   28.6430    8.4364   28.8339 N   0  0  0  0  0  0  0  0  0  0  0  0
   29.4605    9.0635   27.7546 C   0  0  2  0  0  0  0  0  0  0  0  0
   29.5020   10.5586   27.8833 C   0  0  0  0  0  0  0  0  0  0  0  0
   28.6169   11.1662   28.4782 O   0  0  0  0  0  0  0  0  0  0  0  0
   28.9460    8.6196   26.3883 C   0  0  0  0  0  0  0  0  0  0  0  0
   27.2085    8.9305   26.3298 S   0  0  0  0  0  0  0  0  0  0  0  0
   26.8364    8.4291   24.6812 C   0  0  0  0  0  0  0  0  0  0  0  0
   26.8701    6.9057   24.6107 C   0  0  0  0  0  0  0  0  0  0  0  0
   26.5714    6.4696   23.2615 N   0  0  0  0  0  0  0  0  0  0  0  0
   30.4169   11.2425   27.4295 O   0  0  0  0  0  0  0  0  0  0  0  0
  2  1  1  1  0  0  0
  2  3  1  0  0  0  0
  2  5  1  0  0  0  0
  3  4  1  0  0  0  0
  3 10  1  0  0  0  0
  5  6  1  0  0  0  0
  6  7  1  0  0  0  0
  7  8  1  0  0  0  0
  8  9  1  0  0  0  0
M  END
>  <CHROM.1>
-23.68823565,52.29356592,177.51143303,73.95824935,-179.79601430,28.19043463
9.01129480,26.54876638,0.36016201,1.03907049,2.01849751

>  <Name>
ligand

>  <RI>
0

>  <Rbt.Current_Directory>
/home/itssahil/PROJECTS/Mol_Feturizer/New_Systems/rnas/3DIG

>  <Rbt.Executable>
rbdock ($Id: //depot/dev/client3/rdock/2013.1/src/exe/rbdock.cxx#4 $)

>  <Rbt.Library>
libRbt.so (2013.1, Build901 2013/11/27)

>  <Rbt.Parameter_File>
/export/apps/rDock/src/rDock_2013.1_src/data/scripts/dock_solv.prm

>  <Rbt.Receptor>
prm/blind_docking_100.prm

>  <SCORE>
-6.82967

>  <SCORE.INTER>
-6.22556

>  <SCORE.INTER.CONST>
1

>  <SCORE.INTER.POLAR>
0

>  <SCORE.INTER.ROT>
5

>  <SCORE.INTER.SOLV>
7.25546

>  <SCORE.INTER.VDW>
-13.5022

>  <SCORE.INTER.norm>
-0.622556

>  <SCORE.INTRA>
-0.604106

>  <SCORE.INTRA.DIHEDRAL>
-0.542926

>  <SCORE.INTRA.DIHEDRAL.0>
2.60093

>  <SCORE.INTRA.POLAR>
0

>  <SCORE.INTRA.POLAR.0>
0

>  <SCORE.INTRA.REPUL>
0

>  <SCORE.INTRA.REPUL.0>
0

>  <SCORE.INTRA.SOLV>
-0.345709

>  <SCORE.INTRA.SOLV.lig_0>
-33.7882

>  <SCORE.INTRA.VDW>
-0.159788

>  <SCORE.INTRA.VDW.0>
-0.593976

>  <SCORE.INTRA.norm>
-0.0604106

>  <SCORE.RESTR>
0

>  <SCORE.RESTR.CAVITY>
0

>  <SCORE.RESTR.norm>
0

>  <SCORE.SYSTEM>
0

>  <SCORE.SYSTEM.CONST>
0

>  <SCORE.SYSTEM.DIHEDRAL>
0

>  <SCORE.SYSTEM.SOLV>
0

>  <SCORE.SYSTEM.norm>
0

>  <SCORE.heavy>
10

>  <SCORE.norm>
-0.682967

>  <RMSD>
9.470

$$$$
ligand
 OpenBabel11021811473D
libRbt.so/2013.1/901 2013/11/27
 10  9  0  0  0  0  0  0  0  0999 V2000
   24.4618   24.1145   20.8340 N   0  0  0  0  0  0  0  0  0  0  0  0
   24.6341   23.1914   19.6745 C   0  0  2  0  0  0  0  0  0  0  0  0
   25.2498   21.8859   20.0870 C   0  0  0  0  0  0  0  0  0  0  0  0
   25.1836   21.4956   21.2489 O   0  0  0  0  0  0  0  0  0  0  0  0
   25.4363   23.8817   18.5751 C   0  0  0  0  0  0  0  0  0  0  0  0
   25.1963   22.9817   17.0746 S   0  0  0  0  0  0  0  0  0  0  0  0
   26.0655   24.0039   15.9312 C   0  0  0  0  0  0  0  0  0  0  0  0
   25.8929   23.4300   14.5284 C   0  0  0  0  0  0  0  0  0  0  0  0
   26.6285   24.2352   13.5743 N   0  0  0  0  0  0  0  0  0  0  0  0
   25.8230   21.1389   19.2970 O   0  0  0  0  0  0  0  0  0  0  0  0
  2  1  1  1  0  0  0
  2  3  1  0  0  0  0
  2  5  1  0  0  0  0
  3  4  1  0  0  0  0
  3 10  1  0  0  0  0
  5  6  1  0  0  0  0
  6  7  1  0  0  0  0
  7  8  1  0  0  0  0
  8  9  1  0  0  0  0
M  END
>  <CHROM.1>
22.30572068,-162.87250222,175.13945413,-176.23597862,-178.52238610,25.43659229
23.00042266,17.98737592,2.10485864,-1.22090538,2.32953263

>  <Name>
ligand

>  <RI>
0

>  <Rbt.Current_Directory>
/home/itssahil/PROJECTS/Mol_Feturizer/New_Systems/rnas/3DIG

>  <Rbt.Executable>
rbdock ($Id: //depot/dev/client3/rdock/2013.1/src/exe/rbdock.cxx#4 $)

>  <Rbt.Library>
libRbt.so (2013.1, Build901 2013/11/27)

>  <Rbt.Parameter_File>
/export/apps/rDock/src/rDock_2013.1_src/data/scripts/dock_solv.prm

>  <Rbt.Receptor>
prm/blind_docking_100.prm

>  <SCORE>
-5.65784

>  <SCORE.INTER>
-4.89097

>  <SCORE.INTER.CONST>
1

>  <SCORE.INTER.POLAR>
0

>  <SCORE.INTER.ROT>
5

>  <SCORE.INTER.SOLV>
11.4532

>  <SCORE.INTER.VDW>
-14.0117

>  <SCORE.INTER.norm>
-0.489097

>  <SCORE.INTRA>
-0.766869

>  <SCORE.INTRA.DIHEDRAL>
-0.0771235

>  <SCORE.INTRA.DIHEDRAL.0>
2.60093

>  <SCORE.INTRA.POLAR>
0

>  <SCORE.INTRA.POLAR.0>
0

>  <SCORE.INTRA.REPUL>
0

>  <SCORE.INTRA.REPUL.0>
0

>  <SCORE.INTRA.SOLV>
-1.54126

>  <SCORE.INTRA.SOLV.lig_0>
-33.7882

>  <SCORE.INTRA.VDW>
0.042322

>  <SCORE.INTRA.VDW.0>
-0.593976

>  <SCORE.INTRA.norm>
-0.0766869

>  <SCORE.RESTR>
0

>  <SCORE.RESTR.CAVITY>
0

>  <SCORE.RESTR.norm>
0

>  <SCORE.SYSTEM>
0

>  <SCORE.SYSTEM.CONST>
0

>  <SCORE.SYSTEM.DIHEDRAL>
0

>  <SCORE.SYSTEM.SOLV>
0

>  <SCORE.SYSTEM.norm>
0

>  <SCORE.heavy>
10

>  <SCORE.norm>
-0.565784

>  <RMSD>
10.270

$$$$
ligand
 OpenBabel11021811473D
libRbt.so/2013.1/901 2013/11/27
 10  9  0  0  0  0  0  0  0  0999 V2000
   26.3641   22.6335   17.7940 N   0  0  0  0  0  0  0  0  0  0  0  0
   25.9255   23.0791   19.1488 C   0  0  2  0  0  0  0  0  0  0  0  0
   25.5032   21.9223   20.0072 C   0  0  0  0  0  0  0  0  0  0  0  0
   25.5857   20.7683   19.5971 O   0  0  0  0  0  0  0  0  0  0  0  0
   24.8259   24.1291   19.0200 C   0  0  0  0  0  0  0  0  0  0  0  0
   24.6377   24.9203   20.5878 S   0  0  0  0  0  0  0  0  0  0  0  0
   26.1272   25.8599   20.6669 C   0  0  0  0  0  0  0  0  0  0  0  0
   26.2535   26.4654   22.0613 C   0  0  0  0  0  0  0  0  0  0  0  0
   27.4442   27.2881   22.1337 N   0  0  0  0  0  0  0  0  0  0  0  0
   25.0812   22.0604   21.1533 O   0  0  0  0  0  0  0  0  0  0  0  0
  2  1  1  6  0  0  0
  2  3  1  0  0  0  0
  2  5  1  0  0  0  0
  3  4  1  0  0  0  0
  3 10  1  0  0  0  0
  5  6  1  0  0  0  0
  6  7  1  0  0  0  0
  7  8  1  0  0  0  0
  8  9  1  0  0  0  0
M  END
>  <CHROM.1>
2.65577028,-165.51951766,70.96994804,-171.60432058,-177.67357633,25.63727079
23.99507873,20.27240725,-2.09243780,1.26815789,0.94673384

>  <Name>
ligand

>  <RI>
0

>  <Rbt.Current_Directory>
/home/itssahil/PROJECTS/Mol_Feturizer/New_Systems/rnas/3DIG

>  <Rbt.Executable>
rbdock ($Id: //depot/dev/client3/rdock/2013.1/src/exe/rbdock.cxx#4 $)

>  <Rbt.Library>
libRbt.so (2013.1, Build901 2013/11/27)

>  <Rbt.Parameter_File>
/export/apps/rDock/src/rDock_2013.1_src/data/scripts/dock_solv.prm

>  <Rbt.Receptor>
prm/blind_docking_100.prm

>  <SCORE>
-5.94408

>  <SCORE.INTER>
-5.22209

>  <SCORE.INTER.CONST>
1

>  <SCORE.INTER.POLAR>
0

>  <SCORE.INTER.ROT>
5

>  <SCORE.INTER.SOLV>
8.58371

>  <SCORE.INTER.VDW>
-13.276

>  <SCORE.INTER.norm>
-0.522209

>  <SCORE.INTRA>
-0.721996

>  <SCORE.INTRA.DIHEDRAL>
-0.0479198

>  <SCORE.INTRA.DIHEDRAL.0>
2.60093

>  <SCORE.INTRA.POLAR>
0

>  <SCORE.INTRA.POLAR.0>
0

>  <SCORE.INTRA.REPUL>
0

>  <SCORE.INTRA.REPUL.0>
0

>  <SCORE.INTRA.SOLV>
-1.22011

>  <SCORE.INTRA.SOLV.lig_0>
-33.7882

>  <SCORE.INTRA.VDW>
-0.087982

>  <SCORE.INTRA.VDW.0>
-0.593976

>  <SCORE.INTRA.norm>
-0.0721996

>  <SCORE.RESTR>
0

>  <SCORE.RESTR.CAVITY>
0

>  <SCORE.RESTR.norm>
0

>  <SCORE.SYSTEM>
0

>  <SCORE.SYSTEM.CONST>
0

>  <SCORE.SYSTEM.DIHEDRAL>
0

>  <SCORE.SYSTEM.SOLV>
0

>  <SCORE.SYSTEM.norm>
0

>  <SCORE.heavy>
10

>  <SCORE.norm>
-0.594408

>  <RMSD>
10.490

$$$$
ligand
 OpenBabel11021811473D
libRbt.so/2013.1/901 2013/11/27
 10  9  0  0  0  0  0  0  0  0999 V2000
   26.7319   22.8732   17.9205 N   0  0  0  0  0  0  0  0  0  0  0  0
   26.2297   23.1723   19.2934 C   0  0  2  0  0  0  0  0  0  0  0  0
   25.6809   21.9477   19.9661 C   0  0  0  0  0  0  0  0  0  0  0  0
   25.6795   20.8608   19.3957 O   0  0  0  0  0  0  0  0  0  0  0  0
   25.2068   24.3033   19.2378 C   0  0  0  0  0  0  0  0  0  0  0  0
   25.0224   24.9556   20.8687 S   0  0  0  0  0  0  0  0  0  0  0  0
   26.4599   25.9695   20.9856 C   0  0  0  0  0  0  0  0  0  0  0  0
   26.4461   26.6894   22.3305 C   0  0  0  0  0  0  0  0  0  0  0  0
   27.5570   27.6171   22.4025 N   0  0  0  0  0  0  0  0  0  0  0  0
   25.2322   21.9590   21.1103 O   0  0  0  0  0  0  0  0  0  0  0  0
  2  1  1  6  0  0  0
  2  3  1  0  0  0  0
  2  5  1  0  0  0  0
  3  4  1  0  0  0  0
  3 10  1  0  0  0  0
  5  6  1  0  0  0  0
  6  7  1  0  0  0  0
  7  8  1  0  0  0  0
  8  9  1  0  0  0  0
M  END
>  <CHROM.1>
0.12543621,-162.64519685,78.80711951,177.24245684,-175.07408549,25.89976886
24.10562062,20.41893621,-1.88067586,1.05747428,0.74754050

>  <Name>
ligand

>  <RI>
0

>  <Rbt.Current_Directory>
/home/itssahil/PROJECTS/Mol_Feturizer/New_Systems/rnas/3DIG

>  <Rbt.Executable>
rbdock ($Id: //depot/dev/client3/rdock/2013.1/src/exe/rbdock.cxx#4 $)

>  <Rbt.Library>
libRbt.so (2013.1, Build901 2013/11/27)

>  <Rbt.Parameter_File>
/export/apps/rDock/src/rDock_2013.1_src/data/scripts/dock_solv.prm

>  <Rbt.Receptor>
prm/blind_docking_100.prm

>  <SCORE>
-5.97155

>  <SCORE.INTER>
-5.34102

>  <SCORE.INTER.CONST>
1

>  <SCORE.INTER.POLAR>
0

>  <SCORE.INTER.ROT>
5

>  <SCORE.INTER.SOLV>
8.50683

>  <SCORE.INTER.VDW>
-13.3296

>  <SCORE.INTER.norm>
-0.534102

>  <SCORE.INTRA>
-0.630527

>  <SCORE.INTRA.DIHEDRAL>
0.56133

>  <SCORE.INTRA.DIHEDRAL.0>
2.60093

>  <SCORE.INTRA.POLAR>
0

>  <SCORE.INTRA.POLAR.0>
0

>  <SCORE.INTRA.REPUL>
0

>  <SCORE.INTRA.REPUL.0>
0

>  <SCORE.INTRA.SOLV>
-1.25324

>  <SCORE.INTRA.SOLV.lig_0>
-33.7882

>  <SCORE.INTRA.VDW>
-0.284574

>  <SCORE.INTRA.VDW.0>
-0.593976

>  <SCORE.INTRA.norm>
-0.0630527

>  <SCORE.RESTR>
0

>  <SCORE.RESTR.CAVITY>
0

>  <SCORE.RESTR.norm>
0

>  <SCORE.SYSTEM>
0

>  <SCORE.SYSTEM.CONST>
0

>  <SCORE.SYSTEM.DIHEDRAL>
0

>  <SCORE.SYSTEM.SOLV>
0

>  <SCORE.SYSTEM.norm>
0

>  <SCORE.heavy>
10

>  <SCORE.norm>
-0.597155

>  <RMSD>
10.491

$$$$
ligand
 OpenBabel11021811473D
libRbt.so/2013.1/901 2013/11/27
 10  9  0  0  0  0  0  0  0  0999 V2000
   23.9275   24.5375   20.6869 N   0  0  0  0  0  0  0  0  0  0  0  0
   24.3267   23.5388   19.6527 C   0  0  2  0  0  0  0  0  0  0  0  0
   25.1484   22.4272   20.2382 C   0  0  0  0  0  0  0  0  0  0  0  0
   26.1111   22.6666   20.9610 O   0  0  0  0  0  0  0  0  0  0  0  0
   25.0457   24.2394   18.5035 C   0  0  0  0  0  0  0  0  0  0  0  0
   25.2280   23.0803   17.1835 S   0  0  0  0  0  0  0  0  0  0  0  0
   26.0541   24.0715   15.9823 C   0  0  0  0  0  0  0  0  0  0  0  0
   25.9735   23.3730   14.6285 C   0  0  0  0  0  0  0  0  0  0  0  0
   26.6605   24.1630   13.6266 N   0  0  0  0  0  0  0  0  0  0  0  0
   24.8955   21.2393   20.0494 O   0  0  0  0  0  0  0  0  0  0  0  0
  2  1  1  1  0  0  0
  2  3  1  0  0  0  0
  2  5  1  0  0  0  0
  3  4  1  0  0  0  0
  3 10  1  0  0  0  0
  5  6  1  0  0  0  0
  6  7  1  0  0  0  0
  7  8  1  0  0  0  0
  8  9  1  0  0  0  0
M  END
>  <CHROM.1>
-49.19590948,-169.64985774,179.70207665,-164.90522114,-179.33585284,25.33765716
23.28065352,18.06429999,2.09873006,-1.14800556,2.22001041

>  <Name>
ligand

>  <RI>
0

>  <Rbt.Current_Directory>
/home/itssahil/PROJECTS/Mol_Feturizer/New_Systems/rnas/3DIG

>  <Rbt.Executable>
rbdock ($Id: //depot/dev/client3/rdock/2013.1/src/exe/rbdock.cxx#4 $)

>  <Rbt.Library>
libRbt.so (2013.1, Build901 2013/11/27)

>  <Rbt.Parameter_File>
/export/apps/rDock/src/rDock_2013.1_src/data/scripts/dock_solv.prm

>  <Rbt.Receptor>
prm/blind_docking_100.prm

>  <SCORE>
-4.88212

>  <SCORE.INTER>
-3.42466

>  <SCORE.INTER.CONST>
1

>  <SCORE.INTER.POLAR>
0

>  <SCORE.INTER.ROT>
5

>  <SCORE.INTER.SOLV>
11.6268

>  <SCORE.INTER.VDW>
-13.0921

>  <SCORE.INTER.norm>
-0.342466

>  <SCORE.INTRA>
-1.45989

>  <SCORE.INTRA.DIHEDRAL>
-0.334214

>  <SCORE.INTRA.DIHEDRAL.0>
2.60093

>  <SCORE.INTRA.POLAR>
0

>  <SCORE.INTRA.POLAR.0>
0

>  <SCORE.INTRA.REPUL>
0

>  <SCORE.INTRA.REPUL.0>
0

>  <SCORE.INTRA.SOLV>
-1.56581

>  <SCORE.INTRA.SOLV.lig_0>
-33.7882

>  <SCORE.INTRA.VDW>
-0.509877

>  <SCORE.INTRA.VDW.0>
-0.593976

>  <SCORE.INTRA.norm>
-0.145989

>  <SCORE.RESTR>
0.00243112

>  <SCORE.RESTR.CAVITY>
0.00243112

>  <SCORE.RESTR.norm>
0.000243112

>  <SCORE.SYSTEM>
0

>  <SCORE.SYSTEM.CONST>
0

>  <SCORE.SYSTEM.DIHEDRAL>
0

>  <SCORE.SYSTEM.SOLV>
0

>  <SCORE.SYSTEM.norm>
0

>  <SCORE.heavy>
10

>  <SCORE.norm>
-0.488212

>  <RMSD>
10.521

$$$$
ligand
 OpenBabel11021811473D
libRbt.so/2013.1/901 2013/11/27
 10  9  0  0  0  0  0  0  0  0999 V2000
   25.8482   23.8888   20.9694 N   0  0  0  0  0  0  0  0  0  0  0  0
   25.2793   24.0699   19.6019 C   0  0  2  0  0  0  0  0  0  0  0  0
   24.1342   25.0406   19.5979 C   0  0  0  0  0  0  0  0  0  0  0  0
   23.3441   25.0892   20.5359 O   0  0  0  0  0  0  0  0  0  0  0  0
   24.8852   22.7157   19.0193 C   0  0  0  0  0  0  0  0  0  0  0  0
   26.3608   21.7799   18.7620 S   0  0  0  0  0  0  0  0  0  0  0  0
   27.1386   22.7272   17.4949 C   0  0  0  0  0  0  0  0  0  0  0  0
   26.3407   22.5713   16.2041 C   0  0  0  0  0  0  0  0  0  0  0  0
   26.9253   23.3925   15.1630 N   0  0  0  0  0  0  0  0  0  0  0  0
   23.9402   25.8404   18.6849 O   0  0  0  0  0  0  0  0  0  0  0  0
  2  1  1  1  0  0  0
  2  3  1  0  0  0  0
  2  5  1  0  0  0  0
  3  4  1  0  0  0  0
  3 10  1  0  0  0  0
  5  6  1  0  0  0  0
  6  7  1  0  0  0  0
  7  8  1  0  0  0  0
  8  9  1  0  0  0  0
M  END
>  <CHROM.1>
-36.30472292,-66.59984651,-66.33079436,-69.84118082,177.29661827,25.49913950
23.51710634,18.62747816,-2.68362838,0.92136113,-1.19396653

>  <Name>
ligand

>  <RI>
0

>  <Rbt.Current_Directory>
/home/itssahil/PROJECTS/Mol_Feturizer/New_Systems/rnas/3DIG

>  <Rbt.Executable>
rbdock ($Id: //depot/dev/client3/rdock/2013.1/src/exe/rbdock.cxx#4 $)

>  <Rbt.Library>
libRbt.so (2013.1, Build901 2013/11/27)

>  <Rbt.Parameter_File>
/export/apps/rDock/src/rDock_2013.1_src/data/scripts/dock_solv.prm

>  <Rbt.Receptor>
prm/blind_docking_60.prm

>  <SCORE>
-5.45562

>  <SCORE.INTER>
-5.11371

>  <SCORE.INTER.CONST>
1

>  <SCORE.INTER.POLAR>
0

>  <SCORE.INTER.ROT>
5

>  <SCORE.INTER.SOLV>
10.8415

>  <SCORE.INTER.VDW>
-13.9563

>  <SCORE.INTER.norm>
-0.511371

>  <SCORE.INTRA>
-0.341905

>  <SCORE.INTRA.DIHEDRAL>
-0.665979

>  <SCORE.INTRA.DIHEDRAL.0>
2.60093

>  <SCORE.INTRA.POLAR>
0

>  <SCORE.INTRA.POLAR.0>
0

>  <SCORE.INTRA.REPUL>
0

>  <SCORE.INTRA.REPUL.0>
0

>  <SCORE.INTRA.SOLV>
-0.00509254

>  <SCORE.INTRA.SOLV.lig_0>
-33.7882

>  <SCORE.INTRA.VDW>
-0.00636973

>  <SCORE.INTRA.VDW.0>
-0.593976

>  <SCORE.INTRA.norm>
-0.0341905

>  <SCORE.RESTR>
0

>  <SCORE.RESTR.CAVITY>
0

>  <SCORE.RESTR.norm>
0

>  <SCORE.SYSTEM>
0

>  <SCORE.SYSTEM.CONST>
0

>  <SCORE.SYSTEM.DIHEDRAL>
0

>  <SCORE.SYSTEM.SOLV>
0

>  <SCORE.SYSTEM.norm>
0

>  <SCORE.heavy>
10

>  <SCORE.norm>
-0.545562

>  <RMSD>
10.581

$$$$
ligand
 OpenBabel11021811473D
libRbt.so/2013.1/901 2013/11/27
 10  9  0  0  0  0  0  0  0  0999 V2000
   26.5118   27.4897   22.5525 N   0  0  0  0  0  0  0  0  0  0  0  0
   27.3918   26.5527   21.7948 C   0  0  2  0  0  0  0  0  0  0  0  0
   28.7265   27.1668   21.4864 C   0  0  0  0  0  0  0  0  0  0  0  0
   29.2115   28.0242   22.2187 O   0  0  0  0  0  0  0  0  0  0  0  0
   26.6770   26.0720   20.5353 C   0  0  0  0  0  0  0  0  0  0  0  0
   25.4648   24.8802   21.0146 S   0  0  0  0  0  0  0  0  0  0  0  0
   24.7669   24.4678   19.4491 C   0  0  0  0  0  0  0  0  0  0  0  0
   24.7267   22.9489   19.3132 C   0  0  0  0  0  0  0  0  0  0  0  0
   26.0765   22.4240   19.2657 N   0  0  0  0  0  0  0  0  0  0  0  0
   29.4051   26.8367   20.5163 O   0  0  0  0  0  0  0  0  0  0  0  0
  2  1  1  6  0  0  0
  2  3  1  0  0  0  0
  2  5  1  0  0  0  0
  3  4  1  0  0  0  0
  3 10  1  0  0  0  0
  5  6  1  0  0  0  0
  6  7  1  0  0  0  0
  7  8  1  0  0  0  0
  8  9  1  0  0  0  0
M  END
>  <CHROM.1>
28.45871728,-75.45268348,179.79504166,130.60122951,-65.85360584,26.76738846
25.61418008,20.83628154,0.88662887,0.26269479,0.69025918

>  <Name>
ligand

>  <RI>
0

>  <Rbt.Current_Directory>
/home/itssahil/PROJECTS/Mol_Feturizer/New_Systems/rnas/3DIG

>  <Rbt.Executable>
rbdock ($Id: //depot/dev/client3/rdock/2013.1/src/exe/rbdock.cxx#4 $)

>  <Rbt.Library>
libRbt.so (2013.1, Build901 2013/11/27)

>  <Rbt.Parameter_File>
/export/apps/rDock/src/rDock_2013.1_src/data/scripts/dock_solv.prm

>  <Rbt.Receptor>
prm/blind_docking_80.prm

>  <SCORE>
-3.87989

>  <SCORE.INTER>
-5.05122

>  <SCORE.INTER.CONST>
1

>  <SCORE.INTER.POLAR>
0

>  <SCORE.INTER.ROT>
5

>  <SCORE.INTER.SOLV>
9.94683

>  <SCORE.INTER.VDW>
-13.6164

>  <SCORE.INTER.norm>
-0.505122

>  <SCORE.INTRA>
1.17132

>  <SCORE.INTRA.DIHEDRAL>
1.97966

>  <SCORE.INTRA.DIHEDRAL.0>
2.60093

>  <SCORE.INTRA.POLAR>
0

>  <SCORE.INTRA.POLAR.0>
0

>  <SCORE.INTRA.REPUL>
0

>  <SCORE.INTRA.REPUL.0>
0

>  <SCORE.INTRA.SOLV>
0.421179

>  <SCORE.INTRA.SOLV.lig_0>
-33.7882

>  <SCORE.INTRA.VDW>
-0.0290939

>  <SCORE.INTRA.VDW.0>
-0.593976

>  <SCORE.INTRA.norm>
0.117132

>  <SCORE.RESTR>
0

>  <SCORE.RESTR.CAVITY>
0

>  <SCORE.RESTR.norm>
0

>  <SCORE.SYSTEM>
0

>  <SCORE.SYSTEM.CONST>
0

>  <SCORE.SYSTEM.DIHEDRAL>
0

>  <SCORE.SYSTEM.SOLV>
0

>  <SCORE.SYSTEM.norm>
0

>  <SCORE.heavy>
10

>  <SCORE.norm>
-0.387989

>  <RMSD>
10.661

$$$$
ligand
 OpenBabel11021811473D
libRbt.so/2013.1/901 2013/11/27
 10  9  0  0  0  0  0  0  0  0999 V2000
   26.2909   26.1002   20.5990 N   0  0  0  0  0  0  0  0  0  0  0  0
   25.6005   24.9663   19.9176 C   0  0  2  0  0  0  0  0  0  0  0  0
   24.1707   25.2941   19.5986 C   0  0  0  0  0  0  0  0  0  0  0  0
   23.8486   25.6980   18.4852 O   0  0  0  0  0  0  0  0  0  0  0  0
   25.7244   23.7003   20.7604 C   0  0  0  0  0  0  0  0  0  0  0  0
   24.9503   22.3788   19.8807 S   0  0  0  0  0  0  0  0  0  0  0  0
   26.1084   22.1246   18.5761 C   0  0  0  0  0  0  0  0  0  0  0  0
   25.6240   22.8693   17.3361 C   0  0  0  0  0  0  0  0  0  0  0  0
   26.6181   22.7739   16.2861 N   0  0  0  0  0  0  0  0  0  0  0  0
   23.2576   25.1580   20.4100 O   0  0  0  0  0  0  0  0  0  0  0  0
  2  1  1  1  0  0  0
  2  3  1  0  0  0  0
  2  5  1  0  0  0  0
  3  4  1  0  0  0  0
  3 10  1  0  0  0  0
  5  6  1  0  0  0  0
  6  7  1  0  0  0  0
  7  8  1  0  0  0  0
  8  9  1  0  0  0  0
M  END
>  <CHROM.1>
96.80637655,-177.73075133,71.63166371,-97.29061131,174.94881407,25.15810294
23.92284492,19.26059274,2.98643563,-1.19181891,2.08422056

>  <Name>
ligand

>  <RI>
0

>  <Rbt.Current_Directory>
/home/itssahil/PROJECTS/Mol_Feturizer/New_Systems/rnas/3DIG

>  <Rbt.Executable>
rbdock ($Id: //depot/dev/client3/rdock/2013.1/src/exe/rbdock.cxx#4 $)

>  <Rbt.Library>
libRbt.so (2013.1, Build901 2013/11/27)

>  <Rbt.Parameter_File>
/export/apps/rDock/src/rDock_2013.1_src/data/scripts/dock_solv.prm

>  <Rbt.Receptor>
prm/blind_docking_60.prm

>  <SCORE>
-6.95011

>  <SCORE.INTER>
-6.47195

>  <SCORE.INTER.CONST>
1

>  <SCORE.INTER.POLAR>
0

>  <SCORE.INTER.ROT>
5

>  <SCORE.INTER.SOLV>
8.31632

>  <SCORE.INTER.VDW>
-14.0201

>  <SCORE.INTER.norm>
-0.647195

>  <SCORE.INTRA>
-0.478161

>  <SCORE.INTRA.DIHEDRAL>
0.925708

>  <SCORE.INTRA.DIHEDRAL.0>
2.60093

>  <SCORE.INTRA.POLAR>
0

>  <SCORE.INTRA.POLAR.0>
0

>  <SCORE.INTRA.REPUL>
0

>  <SCORE.INTRA.REPUL.0>
0

>  <SCORE.INTRA.SOLV>
-1.0442

>  <SCORE.INTRA.SOLV.lig_0>
-33.7882

>  <SCORE.INTRA.VDW>
-0.418913

>  <SCORE.INTRA.VDW.0>
-0.593976

>  <SCORE.INTRA.norm>
-0.0478161

>  <SCORE.RESTR>
0

>  <SCORE.RESTR.CAVITY>
0

>  <SCORE.RESTR.norm>
0

>  <SCORE.SYSTEM>
0

>  <SCORE.SYSTEM.CONST>
0

>  <SCORE.SYSTEM.DIHEDRAL>
0

>  <SCORE.SYSTEM.SOLV>
0

>  <SCORE.SYSTEM.norm>
0

>  <SCORE.heavy>
10

>  <SCORE.norm>
-0.695011

>  <RMSD>
10.724

$$$$
ligand
 OpenBabel11021811473D
libRbt.so/2013.1/901 2013/11/27
 10  9  0  0  0  0  0  0  0  0999 V2000
   26.0977   23.6618   18.6421 N   0  0  0  0  0  0  0  0  0  0  0  0
   25.7771   23.3303   20.0612 C   0  0  2  0  0  0  0  0  0  0  0  0
   25.5220   21.8628   20.2476 C   0  0  0  0  0  0  0  0  0  0  0  0
   25.1024   21.4252   21.3149 O   0  0  0  0  0  0  0  0  0  0  0  0
   24.6055   24.1817   20.5419 C   0  0  0  0  0  0  0  0  0  0  0  0
   25.0714   25.8800   20.4082 S   0  0  0  0  0  0  0  0  0  0  0  0
   26.2742   25.9969   21.6917 C   0  0  0  0  0  0  0  0  0  0  0  0
   26.7731   27.4364   21.7689 C   0  0  0  0  0  0  0  0  0  0  0  0
   27.7036   27.5754   22.8710 N   0  0  0  0  0  0  0  0  0  0  0  0
   25.6935   21.0366   19.3539 O   0  0  0  0  0  0  0  0  0  0  0  0
  2  1  1  6  0  0  0
  2  3  1  0  0  0  0
  2  5  1  0  0  0  0
  3  4  1  0  0  0  0
  3 10  1  0  0  0  0
  5  6  1  0  0  0  0
  6  7  1  0  0  0  0
  7  8  1  0  0  0  0
  8  9  1  0  0  0  0
M  END
>  <CHROM.1>
-172.02444976,-59.92118557,-70.22288275,-178.04762190,176.54362848,25.76557719
24.38557363,20.65894314,2.03314907,1.09565923,3.06620883

>  <Name>
ligand

>  <RI>
0

>  <Rbt.Current_Directory>
/home/itssahil/PROJECTS/Mol_Feturizer/New_Systems/rnas/3DIG

>  <Rbt.Executable>
rbdock ($Id: //depot/dev/client3/rdock/2013.1/src/exe/rbdock.cxx#4 $)

>  <Rbt.Library>
libRbt.so (2013.1, Build901 2013/11/27)

>  <Rbt.Parameter_File>
/export/apps/rDock/src/rDock_2013.1_src/data/scripts/dock_solv.prm

>  <Rbt.Receptor>
prm/blind_docking_100.prm

>  <SCORE>
-6.65766

>  <SCORE.INTER>
-6.23938

>  <SCORE.INTER.CONST>
1

>  <SCORE.INTER.POLAR>
0

>  <SCORE.INTER.ROT>
5

>  <SCORE.INTER.SOLV>
8.14073

>  <SCORE.INTER.VDW>
-13.8065

>  <SCORE.INTER.norm>
-0.623938

>  <SCORE.INTRA>
-0.418283

>  <SCORE.INTRA.DIHEDRAL>
-0.864152

>  <SCORE.INTRA.DIHEDRAL.0>
2.60093

>  <SCORE.INTRA.POLAR>
0

>  <SCORE.INTRA.POLAR.0>
0

>  <SCORE.INTRA.REPUL>
0

>  <SCORE.INTRA.REPUL.0>
0

>  <SCORE.INTRA.SOLV>
-0.168813

>  <SCORE.INTRA.SOLV.lig_0>
-33.7882

>  <SCORE.INTRA.VDW>
0.0982001

>  <SCORE.INTRA.VDW.0>
-0.593976

>  <SCORE.INTRA.norm>
-0.0418283

>  <SCORE.RESTR>
0

>  <SCORE.RESTR.CAVITY>
0

>  <SCORE.RESTR.norm>
0

>  <SCORE.SYSTEM>
0

>  <SCORE.SYSTEM.CONST>
0

>  <SCORE.SYSTEM.DIHEDRAL>
0

>  <SCORE.SYSTEM.SOLV>
0

>  <SCORE.SYSTEM.norm>
0

>  <SCORE.heavy>
10

>  <SCORE.norm>
-0.665766

>  <RMSD>
10.762

$$$$
ligand
 OpenBabel11021811473D
libRbt.so/2013.1/901 2013/11/27
 10  9  0  0  0  0  0  0  0  0999 V2000
   26.5292   22.9248   17.9882 N   0  0  0  0  0  0  0  0  0  0  0  0
   26.3012   23.2133   19.4343 C   0  0  2  0  0  0  0  0  0  0  0  0
   25.1065   22.4780   19.9685 C   0  0  0  0  0  0  0  0  0  0  0  0
   24.0382   22.4853   19.3641 O   0  0  0  0  0  0  0  0  0  0  0  0
   26.1927   24.7196   19.6531 C   0  0  0  0  0  0  0  0  0  0  0  0
   26.1077   25.0157   21.3921 S   0  0  0  0  0  0  0  0  0  0  0  0
   26.2499   26.7723   21.4375 C   0  0  0  0  0  0  0  0  0  0  0  0
   26.4089   27.2157   22.8884 C   0  0  0  0  0  0  0  0  0  0  0  0
   26.5186   28.6592   22.9518 N   0  0  0  0  0  0  0  0  0  0  0  0
   25.1359   21.8223   21.0077 O   0  0  0  0  0  0  0  0  0  0  0  0
  2  1  1  6  0  0  0
  2  3  1  0  0  0  0
  2  5  1  0  0  0  0
  3  4  1  0  0  0  0
  3 10  1  0  0  0  0
  5  6  1  0  0  0  0
  6  7  1  0  0  0  0
  7  8  1  0  0  0  0
  8  9  1  0  0  0  0
M  END
>  <CHROM.1>
-47.82412630,-173.69364602,171.35492317,-171.53708368,-179.60419369,25.86210060
24.56067905,20.70242791,-1.92089597,1.00144065,0.84290273

>  <Name>
ligand

>  <RI>
0

>  <Rbt.Current_Directory>
/home/itssahil/PROJECTS/Mol_Feturizer/New_Systems/rnas/3DIG

>  <Rbt.Executable>
rbdock ($Id: //depot/dev/client3/rdock/2013.1/src/exe/rbdock.cxx#4 $)

>  <Rbt.Library>
libRbt.so (2013.1, Build901 2013/11/27)

>  <Rbt.Parameter_File>
/export/apps/rDock/src/rDock_2013.1_src/data/scripts/dock_solv.prm

>  <Rbt.Receptor>
prm/blind_docking_60.prm

>  <SCORE>
-6.51625

>  <SCORE.INTER>
-4.92699

>  <SCORE.INTER.CONST>
1

>  <SCORE.INTER.POLAR>
0

>  <SCORE.INTER.ROT>
5

>  <SCORE.INTER.SOLV>
8.0028

>  <SCORE.INTER.VDW>
-12.8856

>  <SCORE.INTER.norm>
-0.492699

>  <SCORE.INTRA>
-1.58926

>  <SCORE.INTRA.DIHEDRAL>
-0.687635

>  <SCORE.INTRA.DIHEDRAL.0>
2.60093

>  <SCORE.INTRA.POLAR>
0

>  <SCORE.INTRA.POLAR.0>
0

>  <SCORE.INTRA.REPUL>
0

>  <SCORE.INTRA.REPUL.0>
0

>  <SCORE.INTRA.SOLV>
-1.56227

>  <SCORE.INTRA.SOLV.lig_0>
-33.7882

>  <SCORE.INTRA.VDW>
-0.464312

>  <SCORE.INTRA.VDW.0>
-0.593976

>  <SCORE.INTRA.norm>
-0.158926

>  <SCORE.RESTR>
0

>  <SCORE.RESTR.CAVITY>
0

>  <SCORE.RESTR.norm>
0

>  <SCORE.SYSTEM>
0

>  <SCORE.SYSTEM.CONST>
0

>  <SCORE.SYSTEM.DIHEDRAL>
0

>  <SCORE.SYSTEM.SOLV>
0

>  <SCORE.SYSTEM.norm>
0

>  <SCORE.heavy>
10

>  <SCORE.norm>
-0.651625

>  <RMSD>
11.041

$$$$
ligand
 OpenBabel11021811473D
libRbt.so/2013.1/901 2013/11/27
 10  9  0  0  0  0  0  0  0  0999 V2000
   26.9773    7.4173   25.6857 N   0  0  0  0  0  0  0  0  0  0  0  0
   27.9665    7.7141   26.7627 C   0  0  2  0  0  0  0  0  0  0  0  0
   27.3956    7.4659   28.1287 C   0  0  0  0  0  0  0  0  0  0  0  0
   28.0110    6.8049   28.9599 O   0  0  0  0  0  0  0  0  0  0  0  0
   28.4893    9.1395   26.6100 C   0  0  0  0  0  0  0  0  0  0  0  0
   29.6323    9.4471   27.9208 S   0  0  0  0  0  0  0  0  0  0  0  0
   29.8451   11.1909   27.7740 C   0  0  0  0  0  0  0  0  0  0  0  0
   30.1024   11.7736   29.1601 C   0  0  0  0  0  0  0  0  0  0  0  0
   28.9621   11.5220   30.0182 N   0  0  0  0  0  0  0  0  0  0  0  0
   26.3128    7.9199   28.4923 O   0  0  0  0  0  0  0  0  0  0  0  0
  2  1  1  6  0  0  0
  2  3  1  0  0  0  0
  2  5  1  0  0  0  0
  3  4  1  0  0  0  0
  3 10  1  0  0  0  0
  5  6  1  0  0  0  0
  6  7  1  0  0  0  0
  7  8  1  0  0  0  0
  8  9  1  0  0  0  0
M  END
>  <CHROM.1>
131.05247951,179.07560897,-168.60574306,148.10748631,-61.46214217,28.49754920
9.07233637,27.97229546,-2.58470927,0.91603563,1.27568999

>  <Name>
ligand

>  <RI>
0

>  <Rbt.Current_Directory>
/home/itssahil/PROJECTS/Mol_Feturizer/New_Systems/rnas/3DIG

>  <Rbt.Executable>
rbdock ($Id: //depot/dev/client3/rdock/2013.1/src/exe/rbdock.cxx#4 $)

>  <Rbt.Library>
libRbt.so (2013.1, Build901 2013/11/27)

>  <Rbt.Parameter_File>
/export/apps/rDock/src/rDock_2013.1_src/data/scripts/dock_solv.prm

>  <Rbt.Receptor>
prm/blind_docking_80.prm

>  <SCORE>
-5.28268

>  <SCORE.INTER>
-4.93856

>  <SCORE.INTER.CONST>
1

>  <SCORE.INTER.POLAR>
0

>  <SCORE.INTER.ROT>
5

>  <SCORE.INTER.SOLV>
7.59944

>  <SCORE.INTER.VDW>
-12.7589

>  <SCORE.INTER.norm>
-0.493856

>  <SCORE.INTRA>
-0.344114

>  <SCORE.INTRA.DIHEDRAL>
0.413509

>  <SCORE.INTRA.DIHEDRAL.0>
2.60093

>  <SCORE.INTRA.POLAR>
0

>  <SCORE.INTRA.POLAR.0>
0

>  <SCORE.INTRA.REPUL>
0

>  <SCORE.INTRA.REPUL.0>
0

>  <SCORE.INTRA.SOLV>
-0.355415

>  <SCORE.INTRA.SOLV.lig_0>
-33.7882

>  <SCORE.INTRA.VDW>
-0.37316

>  <SCORE.INTRA.VDW.0>
-0.593976

>  <SCORE.INTRA.norm>
-0.0344114

>  <SCORE.RESTR>
0

>  <SCORE.RESTR.CAVITY>
0

>  <SCORE.RESTR.norm>
0

>  <SCORE.SYSTEM>
0

>  <SCORE.SYSTEM.CONST>
0

>  <SCORE.SYSTEM.DIHEDRAL>
0

>  <SCORE.SYSTEM.SOLV>
0

>  <SCORE.SYSTEM.norm>
0

>  <SCORE.heavy>
10

>  <SCORE.norm>
-0.528268

>  <RMSD>
11.099

$$$$
ligand
 OpenBabel11021811473D
libRbt.so/2013.1/901 2013/11/27
 10  9  0  0  0  0  0  0  0  0999 V2000
   28.7002   15.1941    9.6549 N   0  0  0  0  0  0  0  0  0  0  0  0
   27.6840   14.9777   10.7259 C   0  0  2  0  0  0  0  0  0  0  0  0
   28.2947   14.3870   11.9635 C   0  0  0  0  0  0  0  0  0  0  0  0
   29.4076   13.8701   11.9337 O   0  0  0  0  0  0  0  0  0  0  0  0
   26.5369   14.1262   10.1899 C   0  0  0  0  0  0  0  0  0  0  0  0
   25.2627   14.0917   11.4123 S   0  0  0  0  0  0  0  0  0  0  0  0
   24.0737   13.0559   10.6241 C   0  0  0  0  0  0  0  0  0  0  0  0
   22.9755   12.7160   11.6268 C   0  0  0  0  0  0  0  0  0  0  0  0
   22.2838   13.9250   12.0265 N   0  0  0  0  0  0  0  0  0  0  0  0
   27.7366   14.4072   13.0584 O   0  0  0  0  0  0  0  0  0  0  0  0
  2  1  1  6  0  0  0
  2  3  1  0  0  0  0
  2  5  1  0  0  0  0
  3  4  1  0  0  0  0
  3 10  1  0  0  0  0
  5  6  1  0  0  0  0
  6  7  1  0  0  0  0
  7  8  1  0  0  0  0
  8  9  1  0  0  0  0
M  END
>  <CHROM.1>
-16.01225097,-172.09404872,-179.01444998,170.91244380,63.24378104,26.20108357
14.06876786,11.35675468,0.06711040,-0.19532890,-1.39533049

>  <Name>
ligand

>  <RI>
0

>  <Rbt.Current_Directory>
/home/itssahil/PROJECTS/Mol_Feturizer/New_Systems/rnas/3DIG

>  <Rbt.Executable>
rbdock ($Id: //depot/dev/client3/rdock/2013.1/src/exe/rbdock.cxx#4 $)

>  <Rbt.Library>
libRbt.so (2013.1, Build901 2013/11/27)

>  <Rbt.Parameter_File>
/export/apps/rDock/src/rDock_2013.1_src/data/scripts/dock_solv.prm

>  <Rbt.Receptor>
prm/blind_docking_40.prm

>  <SCORE>
-8.00676

>  <SCORE.INTER>
-7.13739

>  <SCORE.INTER.CONST>
1

>  <SCORE.INTER.POLAR>
0

>  <SCORE.INTER.ROT>
5

>  <SCORE.INTER.SOLV>
10.2433

>  <SCORE.INTER.VDW>
-15.106

>  <SCORE.INTER.norm>
-0.713739

>  <SCORE.INTRA>
-0.869372

>  <SCORE.INTRA.DIHEDRAL>
-0.657977

>  <SCORE.INTRA.DIHEDRAL.0>
2.60093

>  <SCORE.INTRA.POLAR>
0

>  <SCORE.INTRA.POLAR.0>
0

>  <SCORE.INTRA.REPUL>
0

>  <SCORE.INTRA.REPUL.0>
0

>  <SCORE.INTRA.SOLV>
-0.689283

>  <SCORE.INTRA.SOLV.lig_0>
-33.7882

>  <SCORE.INTRA.VDW>
-0.195742

>  <SCORE.INTRA.VDW.0>
-0.593976

>  <SCORE.INTRA.norm>
-0.0869372

>  <SCORE.RESTR>
0

>  <SCORE.RESTR.CAVITY>
0

>  <SCORE.RESTR.norm>
0

>  <SCORE.SYSTEM>
0

>  <SCORE.SYSTEM.CONST>
0

>  <SCORE.SYSTEM.DIHEDRAL>
0

>  <SCORE.SYSTEM.SOLV>
0

>  <SCORE.SYSTEM.norm>
0

>  <SCORE.heavy>
10

>  <SCORE.norm>
-0.800676

>  <RMSD>
11.237

$$$$
ligand
 OpenBabel11021811473D
libRbt.so/2013.1/901 2013/11/27
 10  9  0  0  0  0  0  0  0  0999 V2000
   29.5767   14.1608   12.3032 N   0  0  0  0  0  0  0  0  0  0  0  0
   28.4871   14.2171   11.2854 C   0  0  2  0  0  0  0  0  0  0  0  0
   28.7472   15.2692   10.2468 C   0  0  0  0  0  0  0  0  0  0  0  0
   29.2630   14.9808    9.1709 O   0  0  0  0  0  0  0  0  0  0  0  0
   27.1405   14.4133   11.9758 C   0  0  0  0  0  0  0  0  0  0  0  0
   25.8679   14.0163   10.8172 S   0  0  0  0  0  0  0  0  0  0  0  0
   24.4490   14.0330   11.8632 C   0  0  0  0  0  0  0  0  0  0  0  0
   23.2468   13.5308   11.0697 C   0  0  0  0  0  0  0  0  0  0  0  0
   22.0657   13.5396   11.9091 N   0  0  0  0  0  0  0  0  0  0  0  0
   28.4443   16.4502   10.4024 O   0  0  0  0  0  0  0  0  0  0  0  0
  2  1  1  1  0  0  0
  2  3  1  0  0  0  0
  2  5  1  0  0  0  0
  3  4  1  0  0  0  0
  3 10  1  0  0  0  0
  5  6  1  0  0  0  0
  6  7  1  0  0  0  0
  7  8  1  0  0  0  0
  8  9  1  0  0  0  0
M  END
>  <CHROM.1>
96.55523179,-164.06978033,170.74519951,-172.79291069,-179.82440551,26.64750321
14.43328220,11.04864510,-0.25285755,0.14239505,2.04599141

>  <Name>
ligand

>  <RI>
0

>  <Rbt.Current_Directory>
/home/itssahil/PROJECTS/Mol_Feturizer/New_Systems/rnas/3DIG

>  <Rbt.Executable>
rbdock ($Id: //depot/dev/client3/rdock/2013.1/src/exe/rbdock.cxx#4 $)

>  <Rbt.Library>
libRbt.so (2013.1, Build901 2013/11/27)

>  <Rbt.Parameter_File>
/export/apps/rDock/src/rDock_2013.1_src/data/scripts/dock_solv.prm

>  <Rbt.Receptor>
prm/blind_docking_40.prm

>  <SCORE>
-8.13594

>  <SCORE.INTER>
-7.0222

>  <SCORE.INTER.CONST>
1

>  <SCORE.INTER.POLAR>
0

>  <SCORE.INTER.ROT>
5

>  <SCORE.INTER.SOLV>
13.6968

>  <SCORE.INTER.VDW>
-16.1804

>  <SCORE.INTER.norm>
-0.70222

>  <SCORE.INTRA>
-1.11374

>  <SCORE.INTRA.DIHEDRAL>
0.0371405

>  <SCORE.INTRA.DIHEDRAL.0>
2.60093

>  <SCORE.INTRA.POLAR>
0

>  <SCORE.INTRA.POLAR.0>
0

>  <SCORE.INTRA.REPUL>
0

>  <SCORE.INTRA.REPUL.0>
0

>  <SCORE.INTRA.SOLV>
-1.59241

>  <SCORE.INTRA.SOLV.lig_0>
-33.7882

>  <SCORE.INTRA.VDW>
-0.336108

>  <SCORE.INTRA.VDW.0>
-0.593976

>  <SCORE.INTRA.norm>
-0.111374

>  <SCORE.RESTR>
0

>  <SCORE.RESTR.CAVITY>
0

>  <SCORE.RESTR.norm>
0

>  <SCORE.SYSTEM>
0

>  <SCORE.SYSTEM.CONST>
0

>  <SCORE.SYSTEM.DIHEDRAL>
0

>  <SCORE.SYSTEM.SOLV>
0

>  <SCORE.SYSTEM.norm>
0

>  <SCORE.heavy>
10

>  <SCORE.norm>
-0.813594

>  <RMSD>
11.268

$$$$
ligand
 OpenBabel11021811473D
libRbt.so/2013.1/901 2013/11/27
 10  9  0  0  0  0  0  0  0  0999 V2000
   24.8381    6.1695   25.7532 N   0  0  0  0  0  0  0  0  0  0  0  0
   25.5834    7.4589   25.6607 C   0  0  2  0  0  0  0  0  0  0  0  0
   25.5321    8.0352   24.2756 C   0  0  0  0  0  0  0  0  0  0  0  0
   25.1517    9.1864   24.0841 O   0  0  0  0  0  0  0  0  0  0  0  0
   27.0162    7.2673   26.1495 C   0  0  0  0  0  0  0  0  0  0  0  0
   27.8139    8.8431   26.1386 S   0  0  0  0  0  0  0  0  0  0  0  0
   29.3512    8.4427   26.9030 C   0  0  0  0  0  0  0  0  0  0  0  0
   29.1305    8.2975   28.4054 C   0  0  0  0  0  0  0  0  0  0  0  0
   28.6962    9.5627   28.9627 N   0  0  0  0  0  0  0  0  0  0  0  0
   25.8820    7.4079   23.2782 O   0  0  0  0  0  0  0  0  0  0  0  0
  2  1  1  6  0  0  0
  2  3  1  0  0  0  0
  2  5  1  0  0  0  0
  3  4  1  0  0  0  0
  3 10  1  0  0  0  0
  5  6  1  0  0  0  0
  6  7  1  0  0  0  0
  7  8  1  0  0  0  0
  8  9  1  0  0  0  0
M  END
>  <CHROM.1>
126.55185470,-175.65207391,173.53018934,-76.48947104,-63.15381647,26.99452524
8.16502968,25.94757803,2.73643002,-0.74187221,-0.87405532

>  <Name>
ligand

>  <RI>
0

>  <Rbt.Current_Directory>
/home/itssahil/PROJECTS/Mol_Feturizer/New_Systems/rnas/3DIG

>  <Rbt.Executable>
rbdock ($Id: //depot/dev/client3/rdock/2013.1/src/exe/rbdock.cxx#4 $)

>  <Rbt.Library>
libRbt.so (2013.1, Build901 2013/11/27)

>  <Rbt.Parameter_File>
/export/apps/rDock/src/rDock_2013.1_src/data/scripts/dock_solv.prm

>  <Rbt.Receptor>
prm/blind_docking_100.prm

>  <SCORE>
-4.45646

>  <SCORE.INTER>
-3.81227

>  <SCORE.INTER.CONST>
1

>  <SCORE.INTER.POLAR>
0

>  <SCORE.INTER.ROT>
5

>  <SCORE.INTER.SOLV>
4.90277

>  <SCORE.INTER.VDW>
-11.1091

>  <SCORE.INTER.norm>
-0.381227

>  <SCORE.INTRA>
-0.644189

>  <SCORE.INTRA.DIHEDRAL>
-0.512576

>  <SCORE.INTRA.DIHEDRAL.0>
2.60093

>  <SCORE.INTRA.POLAR>
0

>  <SCORE.INTRA.POLAR.0>
0

>  <SCORE.INTRA.REPUL>
0

>  <SCORE.INTRA.REPUL.0>
0

>  <SCORE.INTRA.SOLV>
-0.226721

>  <SCORE.INTRA.SOLV.lig_0>
-33.7882

>  <SCORE.INTRA.VDW>
-0.27454

>  <SCORE.INTRA.VDW.0>
-0.593976

>  <SCORE.INTRA.norm>
-0.0644189

>  <SCORE.RESTR>
0

>  <SCORE.RESTR.CAVITY>
0

>  <SCORE.RESTR.norm>
0

>  <SCORE.SYSTEM>
0

>  <SCORE.SYSTEM.CONST>
0

>  <SCORE.SYSTEM.DIHEDRAL>
0

>  <SCORE.SYSTEM.SOLV>
0

>  <SCORE.SYSTEM.norm>
0

>  <SCORE.heavy>
10

>  <SCORE.norm>
-0.445646

>  <RMSD>
11.297

$$$$
ligand
 OpenBabel11021811473D
libRbt.so/2013.1/901 2013/11/27
 10  9  0  0  0  0  0  0  0  0999 V2000
   29.5757   14.1097   12.3708 N   0  0  0  0  0  0  0  0  0  0  0  0
   28.4972   14.1889   11.3427 C   0  0  2  0  0  0  0  0  0  0  0  0
   28.7683   15.2645   10.3311 C   0  0  0  0  0  0  0  0  0  0  0  0
   29.2767   14.9976    9.2463 O   0  0  0  0  0  0  0  0  0  0  0  0
   27.1431   14.3693   12.0226 C   0  0  0  0  0  0  0  0  0  0  0  0
   25.8830   14.0391   10.8299 S   0  0  0  0  0  0  0  0  0  0  0  0
   24.4485   14.0341   11.8545 C   0  0  0  0  0  0  0  0  0  0  0  0
   23.2447   13.6206   11.0137 C   0  0  0  0  0  0  0  0  0  0  0  0
   23.0192   14.5957    9.9657 N   0  0  0  0  0  0  0  0  0  0  0  0
   28.4818   16.4449   10.5187 O   0  0  0  0  0  0  0  0  0  0  0  0
  2  1  1  1  0  0  0
  2  3  1  0  0  0  0
  2  5  1  0  0  0  0
  3  4  1  0  0  0  0
  3 10  1  0  0  0  0
  5  6  1  0  0  0  0
  6  7  1  0  0  0  0
  7  8  1  0  0  0  0
  8  9  1  0  0  0  0
M  END
>  <CHROM.1>
97.70572027,-165.51373267,171.05276581,-174.35824410,-62.94934221,26.74191440
14.52893312,10.91487799,-0.10558076,0.14725138,2.10875151

>  <Name>
ligand

>  <RI>
0

>  <Rbt.Current_Directory>
/home/itssahil/PROJECTS/Mol_Feturizer/New_Systems/rnas/3DIG

>  <Rbt.Executable>
rbdock ($Id: //depot/dev/client3/rdock/2013.1/src/exe/rbdock.cxx#4 $)

>  <Rbt.Library>
libRbt.so (2013.1, Build901 2013/11/27)

>  <Rbt.Parameter_File>
/export/apps/rDock/src/rDock_2013.1_src/data/scripts/dock_solv.prm

>  <Rbt.Receptor>
prm/blind_docking_40.prm

>  <SCORE>
-6.29981

>  <SCORE.INTER>
-5.56463

>  <SCORE.INTER.CONST>
1

>  <SCORE.INTER.POLAR>
0

>  <SCORE.INTER.ROT>
5

>  <SCORE.INTER.SOLV>
17.3495

>  <SCORE.INTER.VDW>
-16.4262

>  <SCORE.INTER.norm>
-0.556463

>  <SCORE.INTRA>
-0.735186

>  <SCORE.INTRA.DIHEDRAL>
-0.113246

>  <SCORE.INTRA.DIHEDRAL.0>
2.60093

>  <SCORE.INTRA.POLAR>
0

>  <SCORE.INTRA.POLAR.0>
0

>  <SCORE.INTRA.REPUL>
0

>  <SCORE.INTRA.REPUL.0>
0

>  <SCORE.INTRA.SOLV>
-0.713218

>  <SCORE.INTRA.SOLV.lig_0>
-33.7882

>  <SCORE.INTRA.VDW>
-0.321954

>  <SCORE.INTRA.VDW.0>
-0.593976

>  <SCORE.INTRA.norm>
-0.0735186

>  <SCORE.RESTR>
0

>  <SCORE.RESTR.CAVITY>
0

>  <SCORE.RESTR.norm>
0

>  <SCORE.SYSTEM>
0

>  <SCORE.SYSTEM.CONST>
0

>  <SCORE.SYSTEM.DIHEDRAL>
0

>  <SCORE.SYSTEM.SOLV>
0

>  <SCORE.SYSTEM.norm>
0

>  <SCORE.heavy>
10

>  <SCORE.norm>
-0.629981

>  <RMSD>
11.326

$$$$
ligand
 OpenBabel11021811473D
libRbt.so/2013.1/901 2013/11/27
 10  9  0  0  0  0  0  0  0  0999 V2000
   28.5725   14.9779    9.6891 N   0  0  0  0  0  0  0  0  0  0  0  0
   27.6919   14.7431   10.8706 C   0  0  2  0  0  0  0  0  0  0  0  0
   28.4833   14.3771   12.0926 C   0  0  0  0  0  0  0  0  0  0  0  0
   27.9962   14.4793   13.2146 O   0  0  0  0  0  0  0  0  0  0  0  0
   26.6386   13.6918   10.5333 C   0  0  0  0  0  0  0  0  0  0  0  0
   25.4462   14.4349    9.4631 S   0  0  0  0  0  0  0  0  0  0  0  0
   23.9728   13.6258    9.9944 C   0  0  0  0  0  0  0  0  0  0  0  0
   23.5872   14.1594   11.3704 C   0  0  0  0  0  0  0  0  0  0  0  0
   22.3623   13.5271   11.8170 N   0  0  0  0  0  0  0  0  0  0  0  0
   29.6315   13.9419   12.0387 O   0  0  0  0  0  0  0  0  0  0  0  0
  2  1  1  6  0  0  0
  2  3  1  0  0  0  0
  2  5  1  0  0  0  0
  3  4  1  0  0  0  0
  3 10  1  0  0  0  0
  5  6  1  0  0  0  0
  6  7  1  0  0  0  0
  7  8  1  0  0  0  0
  8  9  1  0  0  0  0
M  END
>  <CHROM.1>
161.21140552,-73.54736735,-145.34510912,71.85107544,178.87476322,26.35116517
14.21749133,10.94876840,-0.17256608,-0.12229853,-1.43770641

>  <Name>
ligand

>  <RI>
0

>  <Rbt.Current_Directory>
/home/itssahil/PROJECTS/Mol_Feturizer/New_Systems/rnas/3DIG

>  <Rbt.Executable>
rbdock ($Id: //depot/dev/client3/rdock/2013.1/src/exe/rbdock.cxx#4 $)

>  <Rbt.Library>
libRbt.so (2013.1, Build901 2013/11/27)

>  <Rbt.Parameter_File>
/export/apps/rDock/src/rDock_2013.1_src/data/scripts/dock_solv.prm

>  <Rbt.Receptor>
prm/blind_docking_40.prm

>  <SCORE>
-7.59876

>  <SCORE.INTER>
-7.61433

>  <SCORE.INTER.CONST>
1

>  <SCORE.INTER.POLAR>
0

>  <SCORE.INTER.ROT>
5

>  <SCORE.INTER.SOLV>
8.94738

>  <SCORE.INTER.VDW>
-14.992

>  <SCORE.INTER.norm>
-0.761433

>  <SCORE.INTRA>
0.0155657

>  <SCORE.INTRA.DIHEDRAL>
1.18009

>  <SCORE.INTRA.DIHEDRAL.0>
2.60093

>  <SCORE.INTRA.POLAR>
0

>  <SCORE.INTRA.POLAR.0>
0

>  <SCORE.INTRA.REPUL>
0

>  <SCORE.INTRA.REPUL.0>
0

>  <SCORE.INTRA.SOLV>
-0.755266

>  <SCORE.INTRA.SOLV.lig_0>
-33.7882

>  <SCORE.INTRA.VDW>
-0.196847

>  <SCORE.INTRA.VDW.0>
-0.593976

>  <SCORE.INTRA.norm>
0.00155657

>  <SCORE.RESTR>
0

>  <SCORE.RESTR.CAVITY>
0

>  <SCORE.RESTR.norm>
0

>  <SCORE.SYSTEM>
0

>  <SCORE.SYSTEM.CONST>
0

>  <SCORE.SYSTEM.DIHEDRAL>
0

>  <SCORE.SYSTEM.SOLV>
0

>  <SCORE.SYSTEM.norm>
0

>  <SCORE.heavy>
10

>  <SCORE.norm>
-0.759876

>  <RMSD>
11.346

$$$$
ligand
 OpenBabel11021811473D
libRbt.so/2013.1/901 2013/11/27
 10  9  0  0  0  0  0  0  0  0999 V2000
   28.2279   14.8664    9.5242 N   0  0  0  0  0  0  0  0  0  0  0  0
   27.3088   14.7254   10.6913 C   0  0  2  0  0  0  0  0  0  0  0  0
   28.0256   14.2152   11.9076 C   0  0  0  0  0  0  0  0  0  0  0  0
   27.5375   14.3397   13.0269 O   0  0  0  0  0  0  0  0  0  0  0  0
   26.1210   13.8449   10.3141 C   0  0  0  0  0  0  0  0  0  0  0  0
   24.8887   14.0216   11.5669 S   0  0  0  0  0  0  0  0  0  0  0  0
   23.6509   12.9151   10.9741 C   0  0  0  0  0  0  0  0  0  0  0  0
   22.5675   12.7729   12.0385 C   0  0  0  0  0  0  0  0  0  0  0  0
   21.8778   14.0359   12.2093 N   0  0  0  0  0  0  0  0  0  0  0  0
   29.1081   13.6359   11.8507 O   0  0  0  0  0  0  0  0  0  0  0  0
  2  1  1  6  0  0  0
  2  3  1  0  0  0  0
  2  5  1  0  0  0  0
  3  4  1  0  0  0  0
  3 10  1  0  0  0  0
  5  6  1  0  0  0  0
  6  7  1  0  0  0  0
  7  8  1  0  0  0  0
  8  9  1  0  0  0  0
M  END
>  <CHROM.1>
162.05213254,-166.58045048,-178.57096082,171.92629511,66.02249645,25.83751985
13.93947110,11.45198228,0.11257626,-0.14087827,-1.43604424

>  <Name>
ligand

>  <RI>
0

>  <Rbt.Current_Directory>
/home/itssahil/PROJECTS/Mol_Feturizer/New_Systems/rnas/3DIG

>  <Rbt.Executable>
rbdock ($Id: //depot/dev/client3/rdock/2013.1/src/exe/rbdock.cxx#4 $)

>  <Rbt.Library>
libRbt.so (2013.1, Build901 2013/11/27)

>  <Rbt.Parameter_File>
/export/apps/rDock/src/rDock_2013.1_src/data/scripts/dock_solv.prm

>  <Rbt.Receptor>
prm/blind_docking_80.prm

>  <SCORE>
-7.44238

>  <SCORE.INTER>
-6.55458

>  <SCORE.INTER.CONST>
1

>  <SCORE.INTER.POLAR>
0

>  <SCORE.INTER.ROT>
5

>  <SCORE.INTER.SOLV>
9.09159

>  <SCORE.INTER.VDW>
-14.3336

>  <SCORE.INTER.norm>
-0.655458

>  <SCORE.INTRA>
-0.887803

>  <SCORE.INTRA.DIHEDRAL>
-0.262691

>  <SCORE.INTRA.DIHEDRAL.0>
2.60093

>  <SCORE.INTRA.POLAR>
0

>  <SCORE.INTRA.POLAR.0>
0

>  <SCORE.INTRA.REPUL>
0

>  <SCORE.INTRA.REPUL.0>
0

>  <SCORE.INTRA.SOLV>
-0.743269

>  <SCORE.INTRA.SOLV.lig_0>
-33.7882

>  <SCORE.INTRA.VDW>
-0.384823

>  <SCORE.INTRA.VDW.0>
-0.593976

>  <SCORE.INTRA.norm>
-0.0887803

>  <SCORE.RESTR>
0

>  <SCORE.RESTR.CAVITY>
0

>  <SCORE.RESTR.norm>
0

>  <SCORE.SYSTEM>
0

>  <SCORE.SYSTEM.CONST>
0

>  <SCORE.SYSTEM.DIHEDRAL>
0

>  <SCORE.SYSTEM.SOLV>
0

>  <SCORE.SYSTEM.norm>
0

>  <SCORE.heavy>
10

>  <SCORE.norm>
-0.744238

>  <RMSD>
11.346

$$$$
ligand
 OpenBabel11021811473D
libRbt.so/2013.1/901 2013/11/27
 10  9  0  0  0  0  0  0  0  0999 V2000
   26.6850    8.3353   26.2862 N   0  0  0  0  0  0  0  0  0  0  0  0
   27.5591    9.1288   27.1988 C   0  0  2  0  0  0  0  0  0  0  0  0
   28.9946    9.1009   26.7607 C   0  0  0  0  0  0  0  0  0  0  0  0
   29.8060    9.9084   27.2037 O   0  0  0  0  0  0  0  0  0  0  0  0
   27.3882    8.6427   28.6351 C   0  0  0  0  0  0  0  0  0  0  0  0
   27.9951    6.9868   28.7287 S   0  0  0  0  0  0  0  0  0  0  0  0
   26.5798    6.0832   28.1919 C   0  0  0  0  0  0  0  0  0  0  0  0
   26.9310    4.5993   28.1481 C   0  0  0  0  0  0  0  0  0  0  0  0
   25.8089    3.8441   27.6279 N   0  0  0  0  0  0  0  0  0  0  0  0
   29.4346    8.2713   25.9676 O   0  0  0  0  0  0  0  0  0  0  0  0
  2  1  1  6  0  0  0
  2  3  1  0  0  0  0
  2  5  1  0  0  0  0
  3  4  1  0  0  0  0
  3 10  1  0  0  0  0
  5  6  1  0  0  0  0
  6  7  1  0  0  0  0
  7  8  1  0  0  0  0
  8  9  1  0  0  0  0
M  END
>  <CHROM.1>
164.35898946,65.50488578,-84.34604752,177.64207010,-176.38455704,27.78196231
7.44230358,27.60578774,0.32015840,-1.04027384,-1.45989182

>  <Name>
ligand

>  <RI>
0

>  <Rbt.Current_Directory>
/home/itssahil/PROJECTS/Mol_Feturizer/New_Systems/rnas/3DIG

>  <Rbt.Executable>
rbdock ($Id: //depot/dev/client3/rdock/2013.1/src/exe/rbdock.cxx#4 $)

>  <Rbt.Library>
libRbt.so (2013.1, Build901 2013/11/27)

>  <Rbt.Parameter_File>
/export/apps/rDock/src/rDock_2013.1_src/data/scripts/dock_solv.prm

>  <Rbt.Receptor>
prm/blind_docking_80.prm

>  <SCORE>
-3.63046

>  <SCORE.INTER>
-3.66541

>  <SCORE.INTER.CONST>
1

>  <SCORE.INTER.POLAR>
0

>  <SCORE.INTER.ROT>
5

>  <SCORE.INTER.SOLV>
10.276

>  <SCORE.INTER.VDW>
-12.8023

>  <SCORE.INTER.norm>
-0.366541

>  <SCORE.INTRA>
0.0349563

>  <SCORE.INTRA.DIHEDRAL>
-0.111786

>  <SCORE.INTRA.DIHEDRAL.0>
2.60093

>  <SCORE.INTRA.POLAR>
0

>  <SCORE.INTRA.POLAR.0>
0

>  <SCORE.INTRA.REPUL>
0

>  <SCORE.INTRA.REPUL.0>
0

>  <SCORE.INTRA.SOLV>
0.896559

>  <SCORE.INTRA.SOLV.lig_0>
-33.7882

>  <SCORE.INTRA.VDW>
-0.357431

>  <SCORE.INTRA.VDW.0>
-0.593976

>  <SCORE.INTRA.norm>
0.00349563

>  <SCORE.RESTR>
0

>  <SCORE.RESTR.CAVITY>
0

>  <SCORE.RESTR.norm>
0

>  <SCORE.SYSTEM>
0

>  <SCORE.SYSTEM.CONST>
0

>  <SCORE.SYSTEM.DIHEDRAL>
0

>  <SCORE.SYSTEM.SOLV>
0

>  <SCORE.SYSTEM.norm>
0

>  <SCORE.heavy>
10

>  <SCORE.norm>
-0.363046

>  <RMSD>
11.347

$$$$
ligand
 OpenBabel11021811473D
libRbt.so/2013.1/901 2013/11/27
 10  9  0  0  0  0  0  0  0  0999 V2000
   27.1943   13.9601    9.1517 N   0  0  0  0  0  0  0  0  0  0  0  0
   27.1109   14.8841   10.3204 C   0  0  2  0  0  0  0  0  0  0  0  0
   28.4703   15.3136   10.7904 C   0  0  0  0  0  0  0  0  0  0  0  0
   28.6535   16.4360   11.2522 O   0  0  0  0  0  0  0  0  0  0  0  0
   26.2957   14.2380   11.4368 C   0  0  0  0  0  0  0  0  0  0  0  0
   24.6484   14.0013   10.8456 S   0  0  0  0  0  0  0  0  0  0  0  0
   23.8072   13.6225   12.3478 C   0  0  0  0  0  0  0  0  0  0  0  0
   22.3793   13.1986   12.0187 C   0  0  0  0  0  0  0  0  0  0  0  0
   21.6611   12.9007   13.2415 N   0  0  0  0  0  0  0  0  0  0  0  0
   29.4514   14.5737   10.7613 O   0  0  0  0  0  0  0  0  0  0  0  0
  2  1  1  6  0  0  0
  2  3  1  0  0  0  0
  2  5  1  0  0  0  0
  3  4  1  0  0  0  0
  3 10  1  0  0  0  0
  5  6  1  0  0  0  0
  6  7  1  0  0  0  0
  7  8  1  0  0  0  0
  8  9  1  0  0  0  0
M  END
>  <CHROM.1>
146.17583345,-63.50913495,-167.32336935,-172.55727588,-179.16047137,25.85572725
14.29106190,11.18049304,0.12339546,-0.39165555,-1.97954031

>  <Name>
ligand

>  <RI>
0

>  <Rbt.Current_Directory>
/home/itssahil/PROJECTS/Mol_Feturizer/New_Systems/rnas/3DIG

>  <Rbt.Executable>
rbdock ($Id: //depot/dev/client3/rdock/2013.1/src/exe/rbdock.cxx#4 $)

>  <Rbt.Library>
libRbt.so (2013.1, Build901 2013/11/27)

>  <Rbt.Parameter_File>
/export/apps/rDock/src/rDock_2013.1_src/data/scripts/dock_solv.prm

>  <Rbt.Receptor>
prm/blind_docking_40.prm

>  <SCORE>
-8.12728

>  <SCORE.INTER>
-6.93362

>  <SCORE.INTER.CONST>
1

>  <SCORE.INTER.POLAR>
0

>  <SCORE.INTER.ROT>
5

>  <SCORE.INTER.SOLV>
6.36453

>  <SCORE.INTER.VDW>
-13.6773

>  <SCORE.INTER.norm>
-0.693362

>  <SCORE.INTRA>
-1.19365

>  <SCORE.INTRA.DIHEDRAL>
-0.759023

>  <SCORE.INTRA.DIHEDRAL.0>
2.60093

>  <SCORE.INTRA.POLAR>
0

>  <SCORE.INTRA.POLAR.0>
0

>  <SCORE.INTRA.REPUL>
0

>  <SCORE.INTRA.REPUL.0>
0

>  <SCORE.INTRA.SOLV>
-0.850762

>  <SCORE.INTRA.SOLV.lig_0>
-33.7882

>  <SCORE.INTRA.VDW>
-0.388761

>  <SCORE.INTRA.VDW.0>
-0.593976

>  <SCORE.INTRA.norm>
-0.119365

>  <SCORE.RESTR>
0

>  <SCORE.RESTR.CAVITY>
0

>  <SCORE.RESTR.norm>
0

>  <SCORE.SYSTEM>
0

>  <SCORE.SYSTEM.CONST>
0

>  <SCORE.SYSTEM.DIHEDRAL>
0

>  <SCORE.SYSTEM.SOLV>
0

>  <SCORE.SYSTEM.norm>
0

>  <SCORE.heavy>
10

>  <SCORE.norm>
-0.812728

>  <RMSD>
11.462

$$$$
ligand
 OpenBabel11021811473D
libRbt.so/2013.1/901 2013/11/27
 10  9  0  0  0  0  0  0  0  0999 V2000
   27.2153   13.9834    9.1268 N   0  0  0  0  0  0  0  0  0  0  0  0
   27.1099   14.9073   10.2937 C   0  0  2  0  0  0  0  0  0  0  0  0
   28.4593   15.3583   10.7722 C   0  0  0  0  0  0  0  0  0  0  0  0
   28.6127   16.4670   11.2763 O   0  0  0  0  0  0  0  0  0  0  0  0
   26.2973   14.2500   11.4055 C   0  0  0  0  0  0  0  0  0  0  0  0
   24.6644   13.9655   10.7956 S   0  0  0  0  0  0  0  0  0  0  0  0
   23.8186   13.5578   12.2876 C   0  0  0  0  0  0  0  0  0  0  0  0
   22.4436   12.9981   11.9365 C   0  0  0  0  0  0  0  0  0  0  0  0
   21.7411   12.6252   13.1478 N   0  0  0  0  0  0  0  0  0  0  0  0
   29.4614   14.6495   10.7086 O   0  0  0  0  0  0  0  0  0  0  0  0
  2  1  1  6  0  0  0
  2  3  1  0  0  0  0
  2  5  1  0  0  0  0
  3  4  1  0  0  0  0
  3 10  1  0  0  0  0
  5  6  1  0  0  0  0
  6  7  1  0  0  0  0
  7  8  1  0  0  0  0
  8  9  1  0  0  0  0
M  END
>  <CHROM.1>
148.72017067,-62.69156508,-168.01824670,-168.55436662,178.63222303,25.87064484
14.25533208,11.13821308,0.10499771,-0.42073049,-1.96761496

>  <Name>
ligand

>  <RI>
0

>  <Rbt.Current_Directory>
/home/itssahil/PROJECTS/Mol_Feturizer/New_Systems/rnas/3DIG

>  <Rbt.Executable>
rbdock ($Id: //depot/dev/client3/rdock/2013.1/src/exe/rbdock.cxx#4 $)

>  <Rbt.Library>
libRbt.so (2013.1, Build901 2013/11/27)

>  <Rbt.Parameter_File>
/export/apps/rDock/src/rDock_2013.1_src/data/scripts/dock_solv.prm

>  <Rbt.Receptor>
prm/blind_docking_40.prm

>  <SCORE>
-8.15199

>  <SCORE.INTER>
-7.02246

>  <SCORE.INTER.CONST>
1

>  <SCORE.INTER.POLAR>
0

>  <SCORE.INTER.ROT>
5

>  <SCORE.INTER.SOLV>
6.43249

>  <SCORE.INTER.VDW>
-13.7591

>  <SCORE.INTER.norm>
-0.702246

>  <SCORE.INTRA>
-1.12953

>  <SCORE.INTRA.DIHEDRAL>
-0.679493

>  <SCORE.INTRA.DIHEDRAL.0>
2.60093

>  <SCORE.INTRA.POLAR>
0

>  <SCORE.INTRA.POLAR.0>
0

>  <SCORE.INTRA.REPUL>
0

>  <SCORE.INTRA.REPUL.0>
0

>  <SCORE.INTRA.SOLV>
-0.834131

>  <SCORE.INTRA.SOLV.lig_0>
-33.7882

>  <SCORE.INTRA.VDW>
-0.372716

>  <SCORE.INTRA.VDW.0>
-0.593976

>  <SCORE.INTRA.norm>
-0.112953

>  <SCORE.RESTR>
0

>  <SCORE.RESTR.CAVITY>
0

>  <SCORE.RESTR.norm>
0

>  <SCORE.SYSTEM>
0

>  <SCORE.SYSTEM.CONST>
0

>  <SCORE.SYSTEM.DIHEDRAL>
0

>  <SCORE.SYSTEM.SOLV>
0

>  <SCORE.SYSTEM.norm>
0

>  <SCORE.heavy>
10

>  <SCORE.norm>
-0.815199

>  <RMSD>
11.492

$$$$
ligand
 OpenBabel11021811473D
libRbt.so/2013.1/901 2013/11/27
 10  9  0  0  0  0  0  0  0  0999 V2000
   26.6905   15.5272    9.6881 N   0  0  0  0  0  0  0  0  0  0  0  0
   26.9552   14.6126   10.8370 C   0  0  2  0  0  0  0  0  0  0  0  0
   28.4168   14.5472   11.1730 C   0  0  0  0  0  0  0  0  0  0  0  0
   28.7955   14.1469   12.2699 O   0  0  0  0  0  0  0  0  0  0  0  0
   26.3708   13.2329   10.5486 C   0  0  0  0  0  0  0  0  0  0  0  0
   24.6171   13.3972   10.4189 S   0  0  0  0  0  0  0  0  0  0  0  0
   24.2008   13.8350   12.0751 C   0  0  0  0  0  0  0  0  0  0  0  0
   22.8719   13.1798   12.4380 C   0  0  0  0  0  0  0  0  0  0  0  0
   21.8072   13.7530   11.6394 N   0  0  0  0  0  0  0  0  0  0  0  0
   29.2994   14.8626   10.3779 O   0  0  0  0  0  0  0  0  0  0  0  0
  2  1  1  6  0  0  0
  2  3  1  0  0  0  0
  2  5  1  0  0  0  0
  3  4  1  0  0  0  0
  3 10  1  0  0  0  0
  5  6  1  0  0  0  0
  6  7  1  0  0  0  0
  7  8  1  0  0  0  0
  8  9  1  0  0  0  0
M  END
>  <CHROM.1>
160.72149352,-63.74900757,-66.64152602,-143.45257422,-66.48159487,25.88487484
14.02968220,11.07029674,0.17305860,-0.15904928,-1.26594631

>  <Name>
ligand

>  <RI>
0

>  <Rbt.Current_Directory>
/home/itssahil/PROJECTS/Mol_Feturizer/New_Systems/rnas/3DIG

>  <Rbt.Executable>
rbdock ($Id: //depot/dev/client3/rdock/2013.1/src/exe/rbdock.cxx#4 $)

>  <Rbt.Library>
libRbt.so (2013.1, Build901 2013/11/27)

>  <Rbt.Parameter_File>
/export/apps/rDock/src/rDock_2013.1_src/data/scripts/dock_solv.prm

>  <Rbt.Receptor>
prm/blind_docking_40.prm

>  <SCORE>
-4.8422

>  <SCORE.INTER>
-5.33217

>  <SCORE.INTER.CONST>
1

>  <SCORE.INTER.POLAR>
0

>  <SCORE.INTER.ROT>
5

>  <SCORE.INTER.SOLV>
9.94522

>  <SCORE.INTER.VDW>
-13.8032

>  <SCORE.INTER.norm>
-0.533217

>  <SCORE.INTRA>
0.489963

>  <SCORE.INTRA.DIHEDRAL>
0.735821

>  <SCORE.INTRA.DIHEDRAL.0>
2.60093

>  <SCORE.INTRA.POLAR>
0

>  <SCORE.INTRA.POLAR.0>
0

>  <SCORE.INTRA.REPUL>
0

>  <SCORE.INTRA.REPUL.0>
0

>  <SCORE.INTRA.SOLV>
0.570427

>  <SCORE.INTRA.SOLV.lig_0>
-33.7882

>  <SCORE.INTRA.VDW>
-0.163161

>  <SCORE.INTRA.VDW.0>
-0.593976

>  <SCORE.INTRA.norm>
0.0489963

>  <SCORE.RESTR>
0

>  <SCORE.RESTR.CAVITY>
0

>  <SCORE.RESTR.norm>
0

>  <SCORE.SYSTEM>
0

>  <SCORE.SYSTEM.CONST>
0

>  <SCORE.SYSTEM.DIHEDRAL>
0

>  <SCORE.SYSTEM.SOLV>
0

>  <SCORE.SYSTEM.norm>
0

>  <SCORE.heavy>
10

>  <SCORE.norm>
-0.48422

>  <RMSD>
11.532

$$$$
ligand
 OpenBabel11021811473D
libRbt.so/2013.1/901 2013/11/27
 10  9  0  0  0  0  0  0  0  0999 V2000
   27.2774   13.9736    9.1284 N   0  0  0  0  0  0  0  0  0  0  0  0
   27.1262   14.8848   10.3002 C   0  0  2  0  0  0  0  0  0  0  0  0
   28.4559   15.3253   10.8399 C   0  0  0  0  0  0  0  0  0  0  0  0
   28.5965   16.4355   11.3443 O   0  0  0  0  0  0  0  0  0  0  0  0
   26.2656   14.2182   11.3695 C   0  0  0  0  0  0  0  0  0  0  0  0
   24.6701   13.9127   10.6765 S   0  0  0  0  0  0  0  0  0  0  0  0
   23.7139   13.6703   12.1375 C   0  0  0  0  0  0  0  0  0  0  0  0
   22.2901   13.2965   11.7374 C   0  0  0  0  0  0  0  0  0  0  0  0
   21.4740   13.1307   12.9232 N   0  0  0  0  0  0  0  0  0  0  0  0
   29.4526   14.6061   10.8281 O   0  0  0  0  0  0  0  0  0  0  0  0
  2  1  1  6  0  0  0
  2  3  1  0  0  0  0
  2  5  1  0  0  0  0
  3  4  1  0  0  0  0
  3 10  1  0  0  0  0
  5  6  1  0  0  0  0
  6  7  1  0  0  0  0
  7  8  1  0  0  0  0
  8  9  1  0  0  0  0
M  END
>  <CHROM.1>
147.61305998,-61.39456119,-162.06555884,-176.33538591,-178.31867522,25.82676165
14.30986053,11.08516785,0.06015866,-0.35852537,-2.04874729

>  <Name>
ligand

>  <RI>
0

>  <Rbt.Current_Directory>
/home/itssahil/PROJECTS/Mol_Feturizer/New_Systems/rnas/3DIG

>  <Rbt.Executable>
rbdock ($Id: //depot/dev/client3/rdock/2013.1/src/exe/rbdock.cxx#4 $)

>  <Rbt.Library>
libRbt.so (2013.1, Build901 2013/11/27)

>  <Rbt.Parameter_File>
/export/apps/rDock/src/rDock_2013.1_src/data/scripts/dock_solv.prm

>  <Rbt.Receptor>
prm/blind_docking_40.prm

>  <SCORE>
-8.16485

>  <SCORE.INTER>
-7.07954

>  <SCORE.INTER.CONST>
1

>  <SCORE.INTER.POLAR>
0

>  <SCORE.INTER.ROT>
5

>  <SCORE.INTER.SOLV>
6.16969

>  <SCORE.INTER.VDW>
-13.7096

>  <SCORE.INTER.norm>
-0.707954

>  <SCORE.INTRA>
-1.0853

>  <SCORE.INTRA.DIHEDRAL>
-0.616307

>  <SCORE.INTRA.DIHEDRAL.0>
2.60093

>  <SCORE.INTRA.POLAR>
0

>  <SCORE.INTRA.POLAR.0>
0

>  <SCORE.INTRA.REPUL>
0

>  <SCORE.INTRA.REPUL.0>
0

>  <SCORE.INTRA.SOLV>
-0.831408

>  <SCORE.INTRA.SOLV.lig_0>
-33.7882

>  <SCORE.INTRA.VDW>
-0.361446

>  <SCORE.INTRA.VDW.0>
-0.593976

>  <SCORE.INTRA.norm>
-0.10853

>  <SCORE.RESTR>
0

>  <SCORE.RESTR.CAVITY>
0

>  <SCORE.RESTR.norm>
0

>  <SCORE.SYSTEM>
0

>  <SCORE.SYSTEM.CONST>
0

>  <SCORE.SYSTEM.DIHEDRAL>
0

>  <SCORE.SYSTEM.SOLV>
0

>  <SCORE.SYSTEM.norm>
0

>  <SCORE.heavy>
10

>  <SCORE.norm>
-0.816485

>  <RMSD>
11.534

$$$$
ligand
 OpenBabel11021811473D
libRbt.so/2013.1/901 2013/11/27
 10  9  0  0  0  0  0  0  0  0999 V2000
   27.2617   13.9926    9.1168 N   0  0  0  0  0  0  0  0  0  0  0  0
   27.1073   14.9011   10.2903 C   0  0  2  0  0  0  0  0  0  0  0  0
   28.4351   15.3598   10.8196 C   0  0  0  0  0  0  0  0  0  0  0  0
   29.4336   14.6532   10.7183 O   0  0  0  0  0  0  0  0  0  0  0  0
   26.2647   14.2221   11.3661 C   0  0  0  0  0  0  0  0  0  0  0  0
   24.6639   13.9065   10.6899 S   0  0  0  0  0  0  0  0  0  0  0  0
   23.7409   13.5843   12.1570 C   0  0  0  0  0  0  0  0  0  0  0  0
   22.3329   13.1466   11.7662 C   0  0  0  0  0  0  0  0  0  0  0  0
   21.5587   12.8613   12.9575 N   0  0  0  0  0  0  0  0  0  0  0  0
   28.5991   16.4551   11.3527 O   0  0  0  0  0  0  0  0  0  0  0  0
  2  1  1  6  0  0  0
  2  3  1  0  0  0  0
  2  5  1  0  0  0  0
  3  4  1  0  0  0  0
  3 10  1  0  0  0  0
  5  6  1  0  0  0  0
  6  7  1  0  0  0  0
  7  8  1  0  0  0  0
  8  9  1  0  0  0  0
M  END
>  <CHROM.1>
-29.77461770,-61.84491854,-164.26218171,-174.40930980,179.36327554,25.83291167
14.27679001,11.08129907,0.06383193,-0.39023405,-2.02426709

>  <Name>
ligand

>  <RI>
0

>  <Rbt.Current_Directory>
/home/itssahil/PROJECTS/Mol_Feturizer/New_Systems/rnas/3DIG

>  <Rbt.Executable>
rbdock ($Id: //depot/dev/client3/rdock/2013.1/src/exe/rbdock.cxx#4 $)

>  <Rbt.Library>
libRbt.so (2013.1, Build901 2013/11/27)

>  <Rbt.Parameter_File>
/export/apps/rDock/src/rDock_2013.1_src/data/scripts/dock_solv.prm

>  <Rbt.Receptor>
prm/blind_docking_80.prm

>  <SCORE>
-8.03455

>  <SCORE.INTER>
-6.98547

>  <SCORE.INTER.CONST>
1

>  <SCORE.INTER.POLAR>
0

>  <SCORE.INTER.ROT>
5

>  <SCORE.INTER.SOLV>
6.23146

>  <SCORE.INTER.VDW>
-13.6675

>  <SCORE.INTER.norm>
-0.698547

>  <SCORE.INTRA>
-1.04908

>  <SCORE.INTRA.DIHEDRAL>
-0.606591

>  <SCORE.INTRA.DIHEDRAL.0>
2.60093

>  <SCORE.INTRA.POLAR>
0

>  <SCORE.INTRA.POLAR.0>
0

>  <SCORE.INTRA.REPUL>
0

>  <SCORE.INTRA.REPUL.0>
0

>  <SCORE.INTRA.SOLV>
-0.814559

>  <SCORE.INTRA.SOLV.lig_0>
-33.7882

>  <SCORE.INTRA.VDW>
-0.338505

>  <SCORE.INTRA.VDW.0>
-0.593976

>  <SCORE.INTRA.norm>
-0.104908

>  <SCORE.RESTR>
0

>  <SCORE.RESTR.CAVITY>
0

>  <SCORE.RESTR.norm>
0

>  <SCORE.SYSTEM>
0

>  <SCORE.SYSTEM.CONST>
0

>  <SCORE.SYSTEM.DIHEDRAL>
0

>  <SCORE.SYSTEM.SOLV>
0

>  <SCORE.SYSTEM.norm>
0

>  <SCORE.heavy>
10

>  <SCORE.norm>
-0.803455

>  <RMSD>
11.541

$$$$
ligand
 OpenBabel11021811473D
libRbt.so/2013.1/901 2013/11/27
 10  9  0  0  0  0  0  0  0  0999 V2000
   28.3283   15.0424    9.6795 N   0  0  0  0  0  0  0  0  0  0  0  0
   27.4292   14.5979   10.7843 C   0  0  2  0  0  0  0  0  0  0  0  0
   28.1937   14.3057   12.0427 C   0  0  0  0  0  0  0  0  0  0  0  0
   29.3848   14.0117   12.0042 O   0  0  0  0  0  0  0  0  0  0  0  0
   26.5968   13.4031   10.3284 C   0  0  0  0  0  0  0  0  0  0  0  0
   25.4504   13.9675    9.1092 S   0  0  0  0  0  0  0  0  0  0  0  0
   24.1012   14.4676   10.1277 C   0  0  0  0  0  0  0  0  0  0  0  0
   23.4695   13.2271   10.7515 C   0  0  0  0  0  0  0  0  0  0  0  0
   22.4120   13.6191   11.6614 N   0  0  0  0  0  0  0  0  0  0  0  0
   27.6868   14.3652   13.1609 O   0  0  0  0  0  0  0  0  0  0  0  0
  2  1  1  6  0  0  0
  2  3  1  0  0  0  0
  2  5  1  0  0  0  0
  3  4  1  0  0  0  0
  3 10  1  0  0  0  0
  5  6  1  0  0  0  0
  6  7  1  0  0  0  0
  7  8  1  0  0  0  0
  8  9  1  0  0  0  0
M  END
>  <CHROM.1>
-23.87438903,-68.96428912,-87.80356885,-68.93084810,176.33392777,26.23291027
14.08199376,10.78240610,-0.23709756,-0.14489378,-1.48877860

>  <Name>
ligand

>  <RI>
0

>  <Rbt.Current_Directory>
/home/itssahil/PROJECTS/Mol_Feturizer/New_Systems/rnas/3DIG

>  <Rbt.Executable>
rbdock ($Id: //depot/dev/client3/rdock/2013.1/src/exe/rbdock.cxx#4 $)

>  <Rbt.Library>
libRbt.so (2013.1, Build901 2013/11/27)

>  <Rbt.Parameter_File>
/export/apps/rDock/src/rDock_2013.1_src/data/scripts/dock_solv.prm

>  <Rbt.Receptor>
prm/blind_docking_40.prm

>  <SCORE>
-7.69019

>  <SCORE.INTER>
-7.6253

>  <SCORE.INTER.CONST>
1

>  <SCORE.INTER.POLAR>
0

>  <SCORE.INTER.ROT>
5

>  <SCORE.INTER.SOLV>
9.20499

>  <SCORE.INTER.VDW>
-15.0852

>  <SCORE.INTER.norm>
-0.76253

>  <SCORE.INTRA>
-0.0648848

>  <SCORE.INTRA.DIHEDRAL>
0.45212

>  <SCORE.INTRA.DIHEDRAL.0>
2.60093

>  <SCORE.INTRA.POLAR>
0

>  <SCORE.INTRA.POLAR.0>
0

>  <SCORE.INTRA.REPUL>
0

>  <SCORE.INTRA.REPUL.0>
0

>  <SCORE.INTRA.SOLV>
-0.325663

>  <SCORE.INTRA.SOLV.lig_0>
-33.7882

>  <SCORE.INTRA.VDW>
-0.128113

>  <SCORE.INTRA.VDW.0>
-0.593976

>  <SCORE.INTRA.norm>
-0.00648848

>  <SCORE.RESTR>
0

>  <SCORE.RESTR.CAVITY>
0

>  <SCORE.RESTR.norm>
0

>  <SCORE.SYSTEM>
0

>  <SCORE.SYSTEM.CONST>
0

>  <SCORE.SYSTEM.DIHEDRAL>
0

>  <SCORE.SYSTEM.SOLV>
0

>  <SCORE.SYSTEM.norm>
0

>  <SCORE.heavy>
10

>  <SCORE.norm>
-0.769019

>  <RMSD>
11.548

$$$$
ligand
 OpenBabel11021811473D
libRbt.so/2013.1/901 2013/11/27
 10  9  0  0  0  0  0  0  0  0999 V2000
   28.1267   27.4928   22.4306 N   0  0  0  0  0  0  0  0  0  0  0  0
   26.7762   27.2495   21.8445 C   0  0  2  0  0  0  0  0  0  0  0  0
   25.6966   27.9433   22.6233 C   0  0  0  0  0  0  0  0  0  0  0  0
   24.8508   28.6293   22.0570 O   0  0  0  0  0  0  0  0  0  0  0  0
   26.5237   25.7493   21.7255 C   0  0  0  0  0  0  0  0  0  0  0  0
   25.1251   25.5110   20.6738 S   0  0  0  0  0  0  0  0  0  0  0  0
   24.9607   23.7567   20.7316 C   0  0  0  0  0  0  0  0  0  0  0  0
   26.0599   23.1312   19.8785 C   0  0  0  0  0  0  0  0  0  0  0  0
   25.8958   23.5310   18.4954 N   0  0  0  0  0  0  0  0  0  0  0  0
   25.5870   27.8474   23.8437 O   0  0  0  0  0  0  0  0  0  0  0  0
  2  1  1  1  0  0  0
  2  3  1  0  0  0  0
  2  5  1  0  0  0  0
  3  4  1  0  0  0  0
  3 10  1  0  0  0  0
  5  6  1  0  0  0  0
  6  7  1  0  0  0  0
  7  8  1  0  0  0  0
  8  9  1  0  0  0  0
M  END
>  <CHROM.1>
131.01528643,-165.92854144,-177.43577524,-74.83894257,-62.97467010,25.84516504
26.04182347,21.36488053,-1.49337205,0.11640454,-2.52209903

>  <Name>
ligand

>  <RI>
0

>  <Rbt.Current_Directory>
/home/itssahil/PROJECTS/Mol_Feturizer/New_Systems/rnas/3DIG

>  <Rbt.Executable>
rbdock ($Id: //depot/dev/client3/rdock/2013.1/src/exe/rbdock.cxx#4 $)

>  <Rbt.Library>
libRbt.so (2013.1, Build901 2013/11/27)

>  <Rbt.Parameter_File>
/export/apps/rDock/src/rDock_2013.1_src/data/scripts/dock_solv.prm

>  <Rbt.Receptor>
prm/blind_docking_60.prm

>  <SCORE>
-3.86381

>  <SCORE.INTER>
-3.38789

>  <SCORE.INTER.CONST>
1

>  <SCORE.INTER.POLAR>
0

>  <SCORE.INTER.ROT>
5

>  <SCORE.INTER.SOLV>
8.98655

>  <SCORE.INTER.VDW>
-12.1874

>  <SCORE.INTER.norm>
-0.338789

>  <SCORE.INTRA>
-0.475915

>  <SCORE.INTRA.DIHEDRAL>
-0.0438076

>  <SCORE.INTRA.DIHEDRAL.0>
2.60093

>  <SCORE.INTRA.POLAR>
0

>  <SCORE.INTRA.POLAR.0>
0

>  <SCORE.INTRA.REPUL>
0

>  <SCORE.INTRA.REPUL.0>
0

>  <SCORE.INTRA.SOLV>
-0.205038

>  <SCORE.INTRA.SOLV.lig_0>
-33.7882

>  <SCORE.INTRA.VDW>
-0.351492

>  <SCORE.INTRA.VDW.0>
-0.593976

>  <SCORE.INTRA.norm>
-0.0475915

>  <SCORE.RESTR>
0

>  <SCORE.RESTR.CAVITY>
0

>  <SCORE.RESTR.norm>
0

>  <SCORE.SYSTEM>
0

>  <SCORE.SYSTEM.CONST>
0

>  <SCORE.SYSTEM.DIHEDRAL>
0

>  <SCORE.SYSTEM.SOLV>
0

>  <SCORE.SYSTEM.norm>
0

>  <SCORE.heavy>
10

>  <SCORE.norm>
-0.386381

>  <RMSD>
11.567

$$$$
ligand
 OpenBabel11021811473D
libRbt.so/2013.1/901 2013/11/27
 10  9  0  0  0  0  0  0  0  0999 V2000
   27.4874   14.2264    9.0224 N   0  0  0  0  0  0  0  0  0  0  0  0
   27.1228   14.8877   10.3094 C   0  0  2  0  0  0  0  0  0  0  0  0
   28.3360   15.2286   11.1250 C   0  0  0  0  0  0  0  0  0  0  0  0
   28.5502   16.3818   11.4870 O   0  0  0  0  0  0  0  0  0  0  0  0
   26.1390   14.0141   11.0823 C   0  0  0  0  0  0  0  0  0  0  0  0
   24.6274   13.9534   10.1709 S   0  0  0  0  0  0  0  0  0  0  0  0
   23.7908   12.6427   11.0016 C   0  0  0  0  0  0  0  0  0  0  0  0
   23.2670   13.1616   12.3370 C   0  0  0  0  0  0  0  0  0  0  0  0
   22.1652   14.0752   12.1110 N   0  0  0  0  0  0  0  0  0  0  0  0
   29.1545   14.3866   11.4882 O   0  0  0  0  0  0  0  0  0  0  0  0
  2  1  1  6  0  0  0
  2  3  1  0  0  0  0
  2  5  1  0  0  0  0
  3  4  1  0  0  0  0
  3 10  1  0  0  0  0
  5  6  1  0  0  0  0
  6  7  1  0  0  0  0
  7  8  1  0  0  0  0
  8  9  1  0  0  0  0
M  END
>  <CHROM.1>
123.27955177,-66.47081679,167.58109927,75.64947778,70.94110020,25.93522690
14.26847529,10.93294746,-0.01447628,-0.32631934,-1.92266533

>  <Name>
ligand

>  <RI>
0

>  <Rbt.Current_Directory>
/home/itssahil/PROJECTS/Mol_Feturizer/New_Systems/rnas/3DIG

>  <Rbt.Executable>
rbdock ($Id: //depot/dev/client3/rdock/2013.1/src/exe/rbdock.cxx#4 $)

>  <Rbt.Library>
libRbt.so (2013.1, Build901 2013/11/27)

>  <Rbt.Parameter_File>
/export/apps/rDock/src/rDock_2013.1_src/data/scripts/dock_solv.prm

>  <Rbt.Receptor>
prm/blind_docking_40.prm

>  <SCORE>
-7.06919

>  <SCORE.INTER>
-7.08299

>  <SCORE.INTER.CONST>
1

>  <SCORE.INTER.POLAR>
0

>  <SCORE.INTER.ROT>
5

>  <SCORE.INTER.SOLV>
8.28405

>  <SCORE.INTER.VDW>
-14.4167

>  <SCORE.INTER.norm>
-0.708299

>  <SCORE.INTRA>
0.013795

>  <SCORE.INTRA.DIHEDRAL>
0.098354

>  <SCORE.INTRA.DIHEDRAL.0>
2.60093

>  <SCORE.INTRA.POLAR>
0

>  <SCORE.INTRA.POLAR.0>
0

>  <SCORE.INTRA.REPUL>
0

>  <SCORE.INTRA.REPUL.0>
0

>  <SCORE.INTRA.SOLV>
0.435

>  <SCORE.INTRA.SOLV.lig_0>
-33.7882

>  <SCORE.INTRA.VDW>
-0.252882

>  <SCORE.INTRA.VDW.0>
-0.593976

>  <SCORE.INTRA.norm>
0.0013795

>  <SCORE.RESTR>
0

>  <SCORE.RESTR.CAVITY>
0

>  <SCORE.RESTR.norm>
0

>  <SCORE.SYSTEM>
0

>  <SCORE.SYSTEM.CONST>
0

>  <SCORE.SYSTEM.DIHEDRAL>
0

>  <SCORE.SYSTEM.SOLV>
0

>  <SCORE.SYSTEM.norm>
0

>  <SCORE.heavy>
10

>  <SCORE.norm>
-0.706919

>  <RMSD>
11.574

$$$$
ligand
 OpenBabel11021811473D
libRbt.so/2013.1/901 2013/11/27
 10  9  0  0  0  0  0  0  0  0999 V2000
   27.1083   14.0128    8.9116 N   0  0  0  0  0  0  0  0  0  0  0  0
   27.0345   14.9219   10.0925 C   0  0  2  0  0  0  0  0  0  0  0  0
   28.3943   15.3921   10.5206 C   0  0  0  0  0  0  0  0  0  0  0  0
   29.4115   14.9291   10.0131 O   0  0  0  0  0  0  0  0  0  0  0  0
   26.2801   14.2378   11.2289 C   0  0  0  0  0  0  0  0  0  0  0  0
   24.6139   13.9800   10.7030 S   0  0  0  0  0  0  0  0  0  0  0  0
   23.8302   13.6281   12.2424 C   0  0  0  0  0  0  0  0  0  0  0  0
   22.3694   13.2744   11.9813 C   0  0  0  0  0  0  0  0  0  0  0  0
   21.6992   12.9975   13.2359 N   0  0  0  0  0  0  0  0  0  0  0  0
   28.5622   16.2651   11.3694 O   0  0  0  0  0  0  0  0  0  0  0  0
  2  1  1  6  0  0  0
  2  3  1  0  0  0  0
  2  5  1  0  0  0  0
  3  4  1  0  0  0  0
  3 10  1  0  0  0  0
  5  6  1  0  0  0  0
  6  7  1  0  0  0  0
  7  8  1  0  0  0  0
  8  9  1  0  0  0  0
M  END
>  <CHROM.1>
-7.40362364,-64.58873405,-164.82614169,-176.05850714,-179.26687698,25.81917941
14.33461887,10.99682115,0.17185927,-0.40902286,-1.95992272

>  <Name>
ligand

>  <RI>
0

>  <Rbt.Current_Directory>
/home/itssahil/PROJECTS/Mol_Feturizer/New_Systems/rnas/3DIG

>  <Rbt.Executable>
rbdock ($Id: //depot/dev/client3/rdock/2013.1/src/exe/rbdock.cxx#4 $)

>  <Rbt.Library>
libRbt.so (2013.1, Build901 2013/11/27)

>  <Rbt.Parameter_File>
/export/apps/rDock/src/rDock_2013.1_src/data/scripts/dock_solv.prm

>  <Rbt.Receptor>
prm/blind_docking_40.prm

>  <SCORE>
-7.92943

>  <SCORE.INTER>
-6.95619

>  <SCORE.INTER.CONST>
1

>  <SCORE.INTER.POLAR>
0

>  <SCORE.INTER.ROT>
5

>  <SCORE.INTER.SOLV>
6.16602

>  <SCORE.INTER.VDW>
-13.6261

>  <SCORE.INTER.norm>
-0.695619

>  <SCORE.INTRA>
-0.973245

>  <SCORE.INTRA.DIHEDRAL>
-0.625612

>  <SCORE.INTRA.DIHEDRAL.0>
2.60093

>  <SCORE.INTRA.POLAR>
0

>  <SCORE.INTRA.POLAR.0>
0

>  <SCORE.INTRA.REPUL>
0

>  <SCORE.INTRA.REPUL.0>
0

>  <SCORE.INTRA.SOLV>
-0.851341

>  <SCORE.INTRA.SOLV.lig_0>
-33.7882

>  <SCORE.INTRA.VDW>
-0.234768

>  <SCORE.INTRA.VDW.0>
-0.593976

>  <SCORE.INTRA.norm>
-0.0973245

>  <SCORE.RESTR>
0

>  <SCORE.RESTR.CAVITY>
0

>  <SCORE.RESTR.norm>
0

>  <SCORE.SYSTEM>
0

>  <SCORE.SYSTEM.CONST>
0

>  <SCORE.SYSTEM.DIHEDRAL>
0

>  <SCORE.SYSTEM.SOLV>
0

>  <SCORE.SYSTEM.norm>
0

>  <SCORE.heavy>
10

>  <SCORE.norm>
-0.792943

>  <RMSD>
11.644

$$$$
ligand
 OpenBabel11021811473D
libRbt.so/2013.1/901 2013/11/27
 10  9  0  0  0  0  0  0  0  0999 V2000
   26.9150   13.9986    9.0236 N   0  0  0  0  0  0  0  0  0  0  0  0
   26.2597   14.2993   10.3300 C   0  0  2  0  0  0  0  0  0  0  0  0
   27.1775   14.0362   11.4884 C   0  0  0  0  0  0  0  0  0  0  0  0
   27.9274   13.0645   11.4920 O   0  0  0  0  0  0  0  0  0  0  0  0
   24.9517   13.5220   10.4466 C   0  0  0  0  0  0  0  0  0  0  0  0
   24.1597   14.0049   11.9495 S   0  0  0  0  0  0  0  0  0  0  0  0
   22.8016   12.8816   11.9854 C   0  0  0  0  0  0  0  0  0  0  0  0
   22.0308   13.0829   13.2863 C   0  0  0  0  0  0  0  0  0  0  0  0
   20.9069   12.1697   13.3379 N   0  0  0  0  0  0  0  0  0  0  0  0
   27.2451   14.7757   12.4679 O   0  0  0  0  0  0  0  0  0  0  0  0
  2  1  1  6  0  0  0
  2  3  1  0  0  0  0
  2  5  1  0  0  0  0
  3  4  1  0  0  0  0
  3 10  1  0  0  0  0
  5  6  1  0  0  0  0
  6  7  1  0  0  0  0
  7  8  1  0  0  0  0
  8  9  1  0  0  0  0
M  END
>  <CHROM.1>
-39.23650076,-175.79165238,-173.70782518,176.22511877,179.94197468,24.96672516
13.62947400,11.64162377,0.35511575,-0.22469645,-1.59281078

>  <Name>
ligand

>  <RI>
0

>  <Rbt.Current_Directory>
/home/itssahil/PROJECTS/Mol_Feturizer/New_Systems/rnas/3DIG

>  <Rbt.Executable>
rbdock ($Id: //depot/dev/client3/rdock/2013.1/src/exe/rbdock.cxx#4 $)

>  <Rbt.Library>
libRbt.so (2013.1, Build901 2013/11/27)

>  <Rbt.Parameter_File>
/export/apps/rDock/src/rDock_2013.1_src/data/scripts/dock_solv.prm

>  <Rbt.Receptor>
prm/blind_docking_40.prm

>  <SCORE>
-7.43804

>  <SCORE.INTER>
-5.81092

>  <SCORE.INTER.CONST>
1

>  <SCORE.INTER.POLAR>
0

>  <SCORE.INTER.ROT>
5

>  <SCORE.INTER.SOLV>
6.13415

>  <SCORE.INTER.VDW>
-12.852

>  <SCORE.INTER.norm>
-0.581092

>  <SCORE.INTRA>
-1.62712

>  <SCORE.INTRA.DIHEDRAL>
-0.902811

>  <SCORE.INTRA.DIHEDRAL.0>
2.60093

>  <SCORE.INTRA.POLAR>
0

>  <SCORE.INTRA.POLAR.0>
0

>  <SCORE.INTRA.REPUL>
0

>  <SCORE.INTRA.REPUL.0>
0

>  <SCORE.INTRA.SOLV>
-1.55525

>  <SCORE.INTRA.SOLV.lig_0>
-33.7882

>  <SCORE.INTRA.VDW>
-0.398085

>  <SCORE.INTRA.VDW.0>
-0.593976

>  <SCORE.INTRA.norm>
-0.162712

>  <SCORE.RESTR>
0

>  <SCORE.RESTR.CAVITY>
0

>  <SCORE.RESTR.norm>
0

>  <SCORE.SYSTEM>
0

>  <SCORE.SYSTEM.CONST>
0

>  <SCORE.SYSTEM.DIHEDRAL>
0

>  <SCORE.SYSTEM.SOLV>
0

>  <SCORE.SYSTEM.norm>
0

>  <SCORE.heavy>
10

>  <SCORE.norm>
-0.743804

>  <RMSD>
11.741

$$$$
ligand
 OpenBabel11021811473D
libRbt.so/2013.1/901 2013/11/27
 10  9  0  0  0  0  0  0  0  0999 V2000
   26.7366   13.9774    8.9762 N   0  0  0  0  0  0  0  0  0  0  0  0
   26.1072   14.2823   10.2943 C   0  0  2  0  0  0  0  0  0  0  0  0
   27.0658   14.0778   11.4312 C   0  0  0  0  0  0  0  0  0  0  0  0
   27.0759   14.8395   12.3937 O   0  0  0  0  0  0  0  0  0  0  0  0
   24.8324   13.4610   10.4641 C   0  0  0  0  0  0  0  0  0  0  0  0
   24.0787   13.9289   11.9912 S   0  0  0  0  0  0  0  0  0  0  0  0
   22.8211   12.7014   12.1311 C   0  0  0  0  0  0  0  0  0  0  0  0
   22.0857   12.8990   13.4529 C   0  0  0  0  0  0  0  0  0  0  0  0
   21.0454   11.8996   13.5904 N   0  0  0  0  0  0  0  0  0  0  0  0
   27.8624   13.1427   11.4728 O   0  0  0  0  0  0  0  0  0  0  0  0
  2  1  1  6  0  0  0
  2  3  1  0  0  0  0
  2  5  1  0  0  0  0
  3  4  1  0  0  0  0
  3 10  1  0  0  0  0
  5  6  1  0  0  0  0
  6  7  1  0  0  0  0
  7  8  1  0  0  0  0
  8  9  1  0  0  0  0
M  END
>  <CHROM.1>
141.69972608,-176.68470510,-170.59263602,177.20430712,-179.99848244,24.89850777
13.56710392,11.68049636,0.40706737,-0.27374576,-1.58129003

>  <Name>
ligand

>  <RI>
0

>  <Rbt.Current_Directory>
/home/itssahil/PROJECTS/Mol_Feturizer/New_Systems/rnas/3DIG

>  <Rbt.Executable>
rbdock ($Id: //depot/dev/client3/rdock/2013.1/src/exe/rbdock.cxx#4 $)

>  <Rbt.Library>
libRbt.so (2013.1, Build901 2013/11/27)

>  <Rbt.Parameter_File>
/export/apps/rDock/src/rDock_2013.1_src/data/scripts/dock_solv.prm

>  <Rbt.Receptor>
prm/blind_docking_40.prm

>  <SCORE>
-7.49252

>  <SCORE.INTER>
-5.8349

>  <SCORE.INTER.CONST>
1

>  <SCORE.INTER.POLAR>
0

>  <SCORE.INTER.ROT>
5

>  <SCORE.INTER.SOLV>
6.01381

>  <SCORE.INTER.VDW>
-12.8279

>  <SCORE.INTER.norm>
-0.58349

>  <SCORE.INTRA>
-1.65762

>  <SCORE.INTRA.DIHEDRAL>
-0.940467

>  <SCORE.INTRA.DIHEDRAL.0>
2.60093

>  <SCORE.INTRA.POLAR>
0

>  <SCORE.INTRA.POLAR.0>
0

>  <SCORE.INTRA.REPUL>
0

>  <SCORE.INTRA.REPUL.0>
0

>  <SCORE.INTRA.SOLV>
-1.56997

>  <SCORE.INTRA.SOLV.lig_0>
-33.7882

>  <SCORE.INTRA.VDW>
-0.402408

>  <SCORE.INTRA.VDW.0>
-0.593976

>  <SCORE.INTRA.norm>
-0.165762

>  <SCORE.RESTR>
0

>  <SCORE.RESTR.CAVITY>
0

>  <SCORE.RESTR.norm>
0

>  <SCORE.SYSTEM>
0

>  <SCORE.SYSTEM.CONST>
0

>  <SCORE.SYSTEM.DIHEDRAL>
0

>  <SCORE.SYSTEM.SOLV>
0

>  <SCORE.SYSTEM.norm>
0

>  <SCORE.heavy>
10

>  <SCORE.norm>
-0.749252

>  <RMSD>
11.767

$$$$
ligand
 OpenBabel11021811473D
libRbt.so/2013.1/901 2013/11/27
 10  9  0  0  0  0  0  0  0  0999 V2000
   26.5375   13.9047    9.0054 N   0  0  0  0  0  0  0  0  0  0  0  0
   25.9234   14.2063   10.3314 C   0  0  2  0  0  0  0  0  0  0  0  0
   26.9184   14.0817   11.4485 C   0  0  0  0  0  0  0  0  0  0  0  0
   27.7629   13.1910   11.4457 O   0  0  0  0  0  0  0  0  0  0  0  0
   24.7003   13.3209   10.5513 C   0  0  0  0  0  0  0  0  0  0  0  0
   23.8858   13.8670   12.0203 S   0  0  0  0  0  0  0  0  0  0  0  0
   23.0399   12.3959   12.4979 C   0  0  0  0  0  0  0  0  0  0  0  0
   22.1183   12.7169   13.6703 C   0  0  0  0  0  0  0  0  0  0  0  0
   21.0000   13.5162   13.2116 N   0  0  0  0  0  0  0  0  0  0  0  0
   26.9575   14.8615   12.3978 O   0  0  0  0  0  0  0  0  0  0  0  0
  2  1  1  6  0  0  0
  2  3  1  0  0  0  0
  2  5  1  0  0  0  0
  3  4  1  0  0  0  0
  3 10  1  0  0  0  0
  5  6  1  0  0  0  0
  6  7  1  0  0  0  0
  7  8  1  0  0  0  0
  8  9  1  0  0  0  0
M  END
>  <CHROM.1>
-38.46514214,-172.30102860,-155.47613927,-172.71760700,71.32803412,24.80059403
13.63631303,11.71678669,0.41462632,-0.19175594,-1.62254104

>  <Name>
ligand

>  <RI>
0

>  <Rbt.Current_Directory>
/home/itssahil/PROJECTS/Mol_Feturizer/New_Systems/rnas/3DIG

>  <Rbt.Executable>
rbdock ($Id: //depot/dev/client3/rdock/2013.1/src/exe/rbdock.cxx#4 $)

>  <Rbt.Library>
libRbt.so (2013.1, Build901 2013/11/27)

>  <Rbt.Parameter_File>
/export/apps/rDock/src/rDock_2013.1_src/data/scripts/dock_solv.prm

>  <Rbt.Receptor>
prm/blind_docking_40.prm

>  <SCORE>
-6.75485

>  <SCORE.INTER>
-6.09785

>  <SCORE.INTER.CONST>
1

>  <SCORE.INTER.POLAR>
0

>  <SCORE.INTER.ROT>
5

>  <SCORE.INTER.SOLV>
6.11658

>  <SCORE.INTER.VDW>
-13.0374

>  <SCORE.INTER.norm>
-0.609785

>  <SCORE.INTRA>
-0.657

>  <SCORE.INTRA.DIHEDRAL>
0.578198

>  <SCORE.INTRA.DIHEDRAL.0>
2.60093

>  <SCORE.INTRA.POLAR>
0

>  <SCORE.INTRA.POLAR.0>
0

>  <SCORE.INTRA.REPUL>
0

>  <SCORE.INTRA.REPUL.0>
0

>  <SCORE.INTRA.SOLV>
-0.725352

>  <SCORE.INTRA.SOLV.lig_0>
-33.7882

>  <SCORE.INTRA.VDW>
-0.583424

>  <SCORE.INTRA.VDW.0>
-0.593976

>  <SCORE.INTRA.norm>
-0.0657

>  <SCORE.RESTR>
0

>  <SCORE.RESTR.CAVITY>
0

>  <SCORE.RESTR.norm>
0

>  <SCORE.SYSTEM>
0

>  <SCORE.SYSTEM.CONST>
0

>  <SCORE.SYSTEM.DIHEDRAL>
0

>  <SCORE.SYSTEM.SOLV>
0

>  <SCORE.SYSTEM.norm>
0

>  <SCORE.heavy>
10

>  <SCORE.norm>
-0.675485

>  <RMSD>
11.767

$$$$
ligand
 OpenBabel11021811473D
libRbt.so/2013.1/901 2013/11/27
 10  9  0  0  0  0  0  0  0  0999 V2000
   25.8837   24.9162   18.5576 N   0  0  0  0  0  0  0  0  0  0  0  0
   26.0387   24.8169   20.0383 C   0  0  2  0  0  0  0  0  0  0  0  0
   24.9513   23.9887   20.6590 C   0  0  0  0  0  0  0  0  0  0  0  0
   23.8039   24.4159   20.7464 O   0  0  0  0  0  0  0  0  0  0  0  0
   26.1145   26.2137   20.6480 C   0  0  0  0  0  0  0  0  0  0  0  0
   26.5905   26.0474   22.3406 S   0  0  0  0  0  0  0  0  0  0  0  0
   26.2260   27.6615   22.9486 C   0  0  0  0  0  0  0  0  0  0  0  0
   27.4071   28.5789   22.6477 C   0  0  0  0  0  0  0  0  0  0  0  0
   27.4831   28.8305   21.2227 N   0  0  0  0  0  0  0  0  0  0  0  0
   25.1391   22.8513   21.0851 O   0  0  0  0  0  0  0  0  0  0  0  0
  2  1  1  6  0  0  0
  2  3  1  0  0  0  0
  2  5  1  0  0  0  0
  3  4  1  0  0  0  0
  3 10  1  0  0  0  0
  5  6  1  0  0  0  0
  6  7  1  0  0  0  0
  7  8  1  0  0  0  0
  8  9  1  0  0  0  0
M  END
>  <CHROM.1>
-72.38451604,-169.79185446,-166.31469981,-83.95901101,70.29268629,26.00996236
25.83150700,21.23924953,-2.61147911,1.06721116,1.41336995

>  <Name>
ligand

>  <RI>
0

>  <Rbt.Current_Directory>
/home/itssahil/PROJECTS/Mol_Feturizer/New_Systems/rnas/3DIG

>  <Rbt.Executable>
rbdock ($Id: //depot/dev/client3/rdock/2013.1/src/exe/rbdock.cxx#4 $)

>  <Rbt.Library>
libRbt.so (2013.1, Build901 2013/11/27)

>  <Rbt.Parameter_File>
/export/apps/rDock/src/rDock_2013.1_src/data/scripts/dock_solv.prm

>  <Rbt.Receptor>
prm/blind_docking_100.prm

>  <SCORE>
-3.73878

>  <SCORE.INTER>
-4.16234

>  <SCORE.INTER.CONST>
1

>  <SCORE.INTER.POLAR>
0

>  <SCORE.INTER.ROT>
5

>  <SCORE.INTER.SOLV>
5.66312

>  <SCORE.INTER.VDW>
-11.5959

>  <SCORE.INTER.norm>
-0.416234

>  <SCORE.INTRA>
0.423567

>  <SCORE.INTRA.DIHEDRAL>
0.758669

>  <SCORE.INTRA.DIHEDRAL.0>
2.60093

>  <SCORE.INTRA.POLAR>
0

>  <SCORE.INTRA.POLAR.0>
0

>  <SCORE.INTRA.REPUL>
0

>  <SCORE.INTRA.REPUL.0>
0

>  <SCORE.INTRA.SOLV>
0.591847

>  <SCORE.INTRA.SOLV.lig_0>
-33.7882

>  <SCORE.INTRA.VDW>
-0.251691

>  <SCORE.INTRA.VDW.0>
-0.593976

>  <SCORE.INTRA.norm>
0.0423567

>  <SCORE.RESTR>
0

>  <SCORE.RESTR.CAVITY>
0

>  <SCORE.RESTR.norm>
0

>  <SCORE.SYSTEM>
0

>  <SCORE.SYSTEM.CONST>
0

>  <SCORE.SYSTEM.DIHEDRAL>
0

>  <SCORE.SYSTEM.SOLV>
0

>  <SCORE.SYSTEM.norm>
0

>  <SCORE.heavy>
10

>  <SCORE.norm>
-0.373878

>  <RMSD>
11.949

$$$$
ligand
 OpenBabel11021811473D
libRbt.so/2013.1/901 2013/11/27
 10  9  0  0  0  0  0  0  0  0999 V2000
   25.6999   25.6678   19.1604 N   0  0  0  0  0  0  0  0  0  0  0  0
   25.9359   24.8666   20.3968 C   0  0  2  0  0  0  0  0  0  0  0  0
   24.7868   23.9476   20.6941 C   0  0  0  0  0  0  0  0  0  0  0  0
   23.6261   24.3253   20.5645 O   0  0  0  0  0  0  0  0  0  0  0  0
   26.2449   25.7956   21.5673 C   0  0  0  0  0  0  0  0  0  0  0  0
   27.7278   26.6776   21.1898 S   0  0  0  0  0  0  0  0  0  0  0  0
   27.9770   27.5670   22.6913 C   0  0  0  0  0  0  0  0  0  0  0  0
   26.9664   28.7075   22.7611 C   0  0  0  0  0  0  0  0  0  0  0  0
   27.1742   29.4746   23.9729 N   0  0  0  0  0  0  0  0  0  0  0  0
   24.9397   22.7825   21.0545 O   0  0  0  0  0  0  0  0  0  0  0  0
  2  1  1  6  0  0  0
  2  3  1  0  0  0  0
  2  5  1  0  0  0  0
  3  4  1  0  0  0  0
  3 10  1  0  0  0  0
  5  6  1  0  0  0  0
  6  7  1  0  0  0  0
  7  8  1  0  0  0  0
  8  9  1  0  0  0  0
M  END
>  <CHROM.1>
-41.78181256,-62.10650266,-175.38862071,-74.18100520,-178.56882706,26.26386743
26.03232866,21.38144321,-2.16070979,0.53801772,0.81700602

>  <Name>
ligand

>  <RI>
0

>  <Rbt.Current_Directory>
/home/itssahil/PROJECTS/Mol_Feturizer/New_Systems/rnas/3DIG

>  <Rbt.Executable>
rbdock ($Id: //depot/dev/client3/rdock/2013.1/src/exe/rbdock.cxx#4 $)

>  <Rbt.Library>
libRbt.so (2013.1, Build901 2013/11/27)

>  <Rbt.Parameter_File>
/export/apps/rDock/src/rDock_2013.1_src/data/scripts/dock_solv.prm

>  <Rbt.Receptor>
prm/blind_docking_100.prm

>  <SCORE>
-4.0289

>  <SCORE.INTER>
-3.22341

>  <SCORE.INTER.CONST>
1

>  <SCORE.INTER.POLAR>
0

>  <SCORE.INTER.ROT>
5

>  <SCORE.INTER.SOLV>
6.3442

>  <SCORE.INTER.VDW>
-11.197

>  <SCORE.INTER.norm>
-0.322341

>  <SCORE.INTRA>
-0.805495

>  <SCORE.INTRA.DIHEDRAL>
-0.692772

>  <SCORE.INTRA.DIHEDRAL.0>
2.60093

>  <SCORE.INTRA.POLAR>
0

>  <SCORE.INTRA.POLAR.0>
0

>  <SCORE.INTRA.REPUL>
0

>  <SCORE.INTRA.REPUL.0>
0

>  <SCORE.INTRA.SOLV>
-0.605124

>  <SCORE.INTRA.SOLV.lig_0>
-33.7882

>  <SCORE.INTRA.VDW>
-0.156547

>  <SCORE.INTRA.VDW.0>
-0.593976

>  <SCORE.INTRA.norm>
-0.0805495

>  <SCORE.RESTR>
0

>  <SCORE.RESTR.CAVITY>
0

>  <SCORE.RESTR.norm>
0

>  <SCORE.SYSTEM>
0

>  <SCORE.SYSTEM.CONST>
0

>  <SCORE.SYSTEM.DIHEDRAL>
0

>  <SCORE.SYSTEM.SOLV>
0

>  <SCORE.SYSTEM.norm>
0

>  <SCORE.heavy>
10

>  <SCORE.norm>
-0.40289

>  <RMSD>
12.163

$$$$
ligand
 OpenBabel11021811473D
libRbt.so/2013.1/901 2013/11/27
 10  9  0  0  0  0  0  0  0  0999 V2000
   28.9759   14.4850   12.5960 N   0  0  0  0  0  0  0  0  0  0  0  0
   28.2468   14.2910   11.3086 C   0  0  2  0  0  0  0  0  0  0  0  0
   28.6898   15.2728   10.2629 C   0  0  0  0  0  0  0  0  0  0  0  0
   28.5028   16.4772   10.4078 O   0  0  0  0  0  0  0  0  0  0  0  0
   26.7413   14.3502   11.5498 C   0  0  0  0  0  0  0  0  0  0  0  0
   25.9561   13.2923   10.3735 S   0  0  0  0  0  0  0  0  0  0  0  0
   26.1399   14.2406    8.8988 C   0  0  0  0  0  0  0  0  0  0  0  0
   26.3436   13.2889    7.7241 C   0  0  0  0  0  0  0  0  0  0  0  0
   26.5074   14.0473    6.5002 N   0  0  0  0  0  0  0  0  0  0  0  0
   29.2728   14.9355    9.2348 O   0  0  0  0  0  0  0  0  0  0  0  0
  2  1  1  1  0  0  0
  2  3  1  0  0  0  0
  2  5  1  0  0  0  0
  3  4  1  0  0  0  0
  3 10  1  0  0  0  0
  5  6  1  0  0  0  0
  6  7  1  0  0  0  0
  7  8  1  0  0  0  0
  8  9  1  0  0  0  0
M  END
>  <CHROM.1>
-64.21380248,-148.73624798,-73.01970682,145.53107322,-179.57188486,27.37281161
14.35656491,9.92560734,0.86653513,0.61773086,1.66958883

>  <Name>
ligand

>  <RI>
0

>  <Rbt.Current_Directory>
/home/itssahil/PROJECTS/Mol_Feturizer/New_Systems/rnas/3DIG

>  <Rbt.Executable>
rbdock ($Id: //depot/dev/client3/rdock/2013.1/src/exe/rbdock.cxx#4 $)

>  <Rbt.Library>
libRbt.so (2013.1, Build901 2013/11/27)

>  <Rbt.Parameter_File>
/export/apps/rDock/src/rDock_2013.1_src/data/scripts/dock_solv.prm

>  <Rbt.Receptor>
prm/blind_docking_80.prm

>  <SCORE>
-5.93961

>  <SCORE.INTER>
-6.23633

>  <SCORE.INTER.CONST>
1

>  <SCORE.INTER.POLAR>
0

>  <SCORE.INTER.ROT>
5

>  <SCORE.INTER.SOLV>
15.346

>  <SCORE.INTER.VDW>
-16.2062

>  <SCORE.INTER.norm>
-0.623633

>  <SCORE.INTRA>
0.296729

>  <SCORE.INTRA.DIHEDRAL>
3.41455

>  <SCORE.INTRA.DIHEDRAL.0>
2.60093

>  <SCORE.INTRA.POLAR>
0

>  <SCORE.INTRA.POLAR.0>
0

>  <SCORE.INTRA.REPUL>
0

>  <SCORE.INTRA.REPUL.0>
0

>  <SCORE.INTRA.SOLV>
-1.47319

>  <SCORE.INTRA.SOLV.lig_0>
-33.7882

>  <SCORE.INTRA.VDW>
-0.673953

>  <SCORE.INTRA.VDW.0>
-0.593976

>  <SCORE.INTRA.norm>
0.0296729

>  <SCORE.RESTR>
0

>  <SCORE.RESTR.CAVITY>
0

>  <SCORE.RESTR.norm>
0

>  <SCORE.SYSTEM>
0

>  <SCORE.SYSTEM.CONST>
0

>  <SCORE.SYSTEM.DIHEDRAL>
0

>  <SCORE.SYSTEM.SOLV>
0

>  <SCORE.SYSTEM.norm>
0

>  <SCORE.heavy>
10

>  <SCORE.norm>
-0.593961

>  <RMSD>
12.199

$$$$
ligand
 OpenBabel11021811473D
libRbt.so/2013.1/901 2013/11/27
 10  9  0  0  0  0  0  0  0  0999 V2000
   26.9093   13.9928    8.5244 N   0  0  0  0  0  0  0  0  0  0  0  0
   26.0117   14.3332    9.6667 C   0  0  2  0  0  0  0  0  0  0  0  0
   26.5871   13.8890   10.9801 C   0  0  0  0  0  0  0  0  0  0  0  0
   26.3080   14.4745   12.0222 O   0  0  0  0  0  0  0  0  0  0  0  0
   24.6206   13.7545    9.4250 C   0  0  0  0  0  0  0  0  0  0  0  0
   23.5414   14.3831   10.6739 S   0  0  0  0  0  0  0  0  0  0  0  0
   23.4328   12.9914   11.7505 C   0  0  0  0  0  0  0  0  0  0  0  0
   22.6219   13.3838   12.9816 C   0  0  0  0  0  0  0  0  0  0  0  0
   21.2649   13.7106   12.5923 N   0  0  0  0  0  0  0  0  0  0  0  0
   27.3364   12.9207   11.0875 O   0  0  0  0  0  0  0  0  0  0  0  0
  2  1  1  6  0  0  0
  2  3  1  0  0  0  0
  2  5  1  0  0  0  0
  3  4  1  0  0  0  0
  3 10  1  0  0  0  0
  5  6  1  0  0  0  0
  6  7  1  0  0  0  0
  7  8  1  0  0  0  0
  8  9  1  0  0  0  0
M  END
>  <CHROM.1>
152.22024876,-171.68512172,-102.38742029,175.09414431,63.76025754,24.73330776
13.84433493,10.95954666,0.45413112,0.06641792,-1.36317674

>  <Name>
ligand

>  <RI>
0

>  <Rbt.Current_Directory>
/home/itssahil/PROJECTS/Mol_Feturizer/New_Systems/rnas/3DIG

>  <Rbt.Executable>
rbdock ($Id: //depot/dev/client3/rdock/2013.1/src/exe/rbdock.cxx#4 $)

>  <Rbt.Library>
libRbt.so (2013.1, Build901 2013/11/27)

>  <Rbt.Parameter_File>
/export/apps/rDock/src/rDock_2013.1_src/data/scripts/dock_solv.prm

>  <Rbt.Receptor>
prm/blind_docking_80.prm

>  <SCORE>
-5.58414

>  <SCORE.INTER>
-5.04094

>  <SCORE.INTER.CONST>
1

>  <SCORE.INTER.POLAR>
0

>  <SCORE.INTER.ROT>
5

>  <SCORE.INTER.SOLV>
6.86575

>  <SCORE.INTER.VDW>
-12.5825

>  <SCORE.INTER.norm>
-0.504094

>  <SCORE.INTRA>
-0.543207

>  <SCORE.INTRA.DIHEDRAL>
1.12548

>  <SCORE.INTRA.DIHEDRAL.0>
2.60093

>  <SCORE.INTRA.POLAR>
0

>  <SCORE.INTRA.POLAR.0>
0

>  <SCORE.INTRA.REPUL>
0

>  <SCORE.INTRA.REPUL.0>
0

>  <SCORE.INTRA.SOLV>
-0.688842

>  <SCORE.INTRA.SOLV.lig_0>
-33.7882

>  <SCORE.INTRA.VDW>
-0.761528

>  <SCORE.INTRA.VDW.0>
-0.593976

>  <SCORE.INTRA.norm>
-0.0543207

>  <SCORE.RESTR>
0

>  <SCORE.RESTR.CAVITY>
0

>  <SCORE.RESTR.norm>
0

>  <SCORE.SYSTEM>
0

>  <SCORE.SYSTEM.CONST>
0

>  <SCORE.SYSTEM.DIHEDRAL>
0

>  <SCORE.SYSTEM.SOLV>
0

>  <SCORE.SYSTEM.norm>
0

>  <SCORE.heavy>
10

>  <SCORE.norm>
-0.558414

>  <RMSD>
12.332

$$$$
ligand
 OpenBabel11021811473D
libRbt.so/2013.1/901 2013/11/27
 10  9  0  0  0  0  0  0  0  0999 V2000
   21.7188   13.8145   11.3169 N   0  0  0  0  0  0  0  0  0  0  0  0
   22.7730   13.2727   12.2234 C   0  0  2  0  0  0  0  0  0  0  0  0
   22.3897   13.4078   13.6685 C   0  0  0  0  0  0  0  0  0  0  0  0
   22.4481   12.4468   14.4299 O   0  0  0  0  0  0  0  0  0  0  0  0
   24.1119   13.9390   11.9204 C   0  0  0  0  0  0  0  0  0  0  0  0
   24.6322   13.4179   10.3151 S   0  0  0  0  0  0  0  0  0  0  0  0
   26.0380   14.4528   10.0690 C   0  0  0  0  0  0  0  0  0  0  0  0
   27.1649   13.9767   10.9803 C   0  0  0  0  0  0  0  0  0  0  0  0
   28.3417   14.7972   10.7760 N   0  0  0  0  0  0  0  0  0  0  0  0
   22.0253   14.4710   14.1659 O   0  0  0  0  0  0  0  0  0  0  0  0
  2  1  1  6  0  0  0
  2  3  1  0  0  0  0
  2  5  1  0  0  0  0
  3  4  1  0  0  0  0
  3 10  1  0  0  0  0
  5  6  1  0  0  0  0
  6  7  1  0  0  0  0
  7  8  1  0  0  0  0
  8  9  1  0  0  0  0
M  END
>  <CHROM.1>
129.22932418,-67.46422089,172.32660887,71.55619037,178.87610407,24.20062437
13.75612876,11.83192455,2.57629079,0.17296589,1.55985350

>  <Name>
ligand

>  <RI>
0

>  <Rbt.Current_Directory>
/home/itssahil/PROJECTS/Mol_Feturizer/New_Systems/rnas/3DIG

>  <Rbt.Executable>
rbdock ($Id: //depot/dev/client3/rdock/2013.1/src/exe/rbdock.cxx#4 $)

>  <Rbt.Library>
libRbt.so (2013.1, Build901 2013/11/27)

>  <Rbt.Parameter_File>
/export/apps/rDock/src/rDock_2013.1_src/data/scripts/dock_solv.prm

>  <Rbt.Receptor>
prm/blind_docking_40.prm

>  <SCORE>
-5.12782

>  <SCORE.INTER>
-4.37889

>  <SCORE.INTER.CONST>
1

>  <SCORE.INTER.POLAR>
0

>  <SCORE.INTER.ROT>
5

>  <SCORE.INTER.SOLV>
9.73105

>  <SCORE.INTER.VDW>
-13.0963

>  <SCORE.INTER.norm>
-0.437889

>  <SCORE.INTRA>
-0.748928

>  <SCORE.INTRA.DIHEDRAL>
-0.622176

>  <SCORE.INTRA.DIHEDRAL.0>
2.60093

>  <SCORE.INTRA.POLAR>
0

>  <SCORE.INTRA.POLAR.0>
0

>  <SCORE.INTRA.REPUL>
0

>  <SCORE.INTRA.REPUL.0>
0

>  <SCORE.INTRA.SOLV>
-0.609479

>  <SCORE.INTRA.SOLV.lig_0>
-33.7882

>  <SCORE.INTRA.VDW>
-0.1331

>  <SCORE.INTRA.VDW.0>
-0.593976

>  <SCORE.INTRA.norm>
-0.0748928

>  <SCORE.RESTR>
0

>  <SCORE.RESTR.CAVITY>
0

>  <SCORE.RESTR.norm>
0

>  <SCORE.SYSTEM>
0

>  <SCORE.SYSTEM.CONST>
0

>  <SCORE.SYSTEM.DIHEDRAL>
0

>  <SCORE.SYSTEM.SOLV>
0

>  <SCORE.SYSTEM.norm>
0

>  <SCORE.heavy>
10

>  <SCORE.norm>
-0.512782

>  <RMSD>
12.704

$$$$
ligand
 OpenBabel11021811473D
libRbt.so/2013.1/901 2013/11/27
 10  9  0  0  0  0  0  0  0  0999 V2000
   25.3820    6.0842   29.2779 N   0  0  0  0  0  0  0  0  0  0  0  0
   26.4270    6.2573   28.2269 C   0  0  2  0  0  0  0  0  0  0  0  0
   27.1050    4.9597   27.8950 C   0  0  0  0  0  0  0  0  0  0  0  0
   27.1067    4.5234   26.7477 O   0  0  0  0  0  0  0  0  0  0  0  0
   27.4226    7.3313   28.6557 C   0  0  0  0  0  0  0  0  0  0  0  0
   28.3310    7.8373   27.2281 S   0  0  0  0  0  0  0  0  0  0  0  0
   29.4656    8.9808   27.9441 C   0  0  0  0  0  0  0  0  0  0  0  0
   28.7297   10.2837   28.2410 C   0  0  0  0  0  0  0  0  0  0  0  0
   29.6093   11.1954   28.9445 N   0  0  0  0  0  0  0  0  0  0  0  0
   27.7037    4.2863   28.7310 O   0  0  0  0  0  0  0  0  0  0  0  0
  2  1  1  1  0  0  0
  2  3  1  0  0  0  0
  2  5  1  0  0  0  0
  3  4  1  0  0  0  0
  3 10  1  0  0  0  0
  5  6  1  0  0  0  0
  6  7  1  0  0  0  0
  7  8  1  0  0  0  0
  8  9  1  0  0  0  0
M  END
>  <CHROM.1>
122.42032615,-163.51785151,-176.72874863,-76.21252498,174.66731272,27.80473049
7.21391906,28.07240470,2.13556073,-0.69559750,-2.71115560

>  <Name>
ligand

>  <RI>
0

>  <Rbt.Current_Directory>
/home/itssahil/PROJECTS/Mol_Feturizer/New_Systems/rnas/3DIG

>  <Rbt.Executable>
rbdock ($Id: //depot/dev/client3/rdock/2013.1/src/exe/rbdock.cxx#4 $)

>  <Rbt.Library>
libRbt.so (2013.1, Build901 2013/11/27)

>  <Rbt.Parameter_File>
/export/apps/rDock/src/rDock_2013.1_src/data/scripts/dock_solv.prm

>  <Rbt.Receptor>
prm/blind_docking_100.prm

>  <SCORE>
-5.83587

>  <SCORE.INTER>
-4.95496

>  <SCORE.INTER.CONST>
1

>  <SCORE.INTER.POLAR>
0

>  <SCORE.INTER.ROT>
5

>  <SCORE.INTER.SOLV>
7.68866

>  <SCORE.INTER.VDW>
-12.7995

>  <SCORE.INTER.norm>
-0.495496

>  <SCORE.INTRA>
-0.88091

>  <SCORE.INTRA.DIHEDRAL>
0.355008

>  <SCORE.INTRA.DIHEDRAL.0>
2.60093

>  <SCORE.INTRA.POLAR>
0

>  <SCORE.INTRA.POLAR.0>
0

>  <SCORE.INTRA.REPUL>
0

>  <SCORE.INTRA.REPUL.0>
0

>  <SCORE.INTRA.SOLV>
-1.3751

>  <SCORE.INTRA.SOLV.lig_0>
-33.7882

>  <SCORE.INTRA.VDW>
-0.370866

>  <SCORE.INTRA.VDW.0>
-0.593976

>  <SCORE.INTRA.norm>
-0.088091

>  <SCORE.RESTR>
0

>  <SCORE.RESTR.CAVITY>
0

>  <SCORE.RESTR.norm>
0

>  <SCORE.SYSTEM>
0

>  <SCORE.SYSTEM.CONST>
0

>  <SCORE.SYSTEM.DIHEDRAL>
0

>  <SCORE.SYSTEM.SOLV>
0

>  <SCORE.SYSTEM.norm>
0

>  <SCORE.heavy>
10

>  <SCORE.norm>
-0.583587

>  <RMSD>
12.748

$$$$
ligand
 OpenBabel11021811473D
libRbt.so/2013.1/901 2013/11/27
 10  9  0  0  0  0  0  0  0  0999 V2000
   25.7746    6.3349   27.0579 N   0  0  0  0  0  0  0  0  0  0  0  0
   27.0776    5.8898   27.6328 C   0  0  2  0  0  0  0  0  0  0  0  0
   26.9432    4.5984   28.3863 C   0  0  0  0  0  0  0  0  0  0  0  0
   25.8413    4.1762   28.7242 O   0  0  0  0  0  0  0  0  0  0  0  0
   27.6707    6.9989   28.4968 C   0  0  0  0  0  0  0  0  0  0  0  0
   28.3932    8.2017   27.4242 S   0  0  0  0  0  0  0  0  0  0  0  0
   28.9546    9.3955   28.5936 C   0  0  0  0  0  0  0  0  0  0  0  0
   29.6525   10.5269   27.8454 C   0  0  0  0  0  0  0  0  0  0  0  0
   30.1006   11.5345   28.7854 N   0  0  0  0  0  0  0  0  0  0  0  0
   27.9064    3.8943   28.6814 O   0  0  0  0  0  0  0  0  0  0  0  0
  2  1  1  1  0  0  0
  2  3  1  0  0  0  0
  2  5  1  0  0  0  0
  3  4  1  0  0  0  0
  3 10  1  0  0  0  0
  5  6  1  0  0  0  0
  6  7  1  0  0  0  0
  7  8  1  0  0  0  0
  8  9  1  0  0  0  0
M  END
>  <CHROM.1>
-15.63768661,-78.02128269,178.05872977,178.73246467,178.90499567,27.88736474
7.23628718,28.09311052,2.12997135,0.58938832,2.79228321

>  <Name>
ligand

>  <RI>
0

>  <Rbt.Current_Directory>
/home/itssahil/PROJECTS/Mol_Feturizer/New_Systems/rnas/3DIG

>  <Rbt.Executable>
rbdock ($Id: //depot/dev/client3/rdock/2013.1/src/exe/rbdock.cxx#4 $)

>  <Rbt.Library>
libRbt.so (2013.1, Build901 2013/11/27)

>  <Rbt.Parameter_File>
/export/apps/rDock/src/rDock_2013.1_src/data/scripts/dock_solv.prm

>  <Rbt.Receptor>
prm/blind_docking_100.prm

>  <SCORE>
-6.44593

>  <SCORE.INTER>
-5.57587

>  <SCORE.INTER.CONST>
1

>  <SCORE.INTER.POLAR>
0

>  <SCORE.INTER.ROT>
5

>  <SCORE.INTER.SOLV>
9.13049

>  <SCORE.INTER.VDW>
-13.6941

>  <SCORE.INTER.norm>
-0.557587

>  <SCORE.INTRA>
-0.870055

>  <SCORE.INTRA.DIHEDRAL>
-0.0100575

>  <SCORE.INTRA.DIHEDRAL.0>
2.60093

>  <SCORE.INTRA.POLAR>
0

>  <SCORE.INTRA.POLAR.0>
0

>  <SCORE.INTRA.REPUL>
0

>  <SCORE.INTRA.REPUL.0>
0

>  <SCORE.INTRA.SOLV>
-0.980366

>  <SCORE.INTRA.SOLV.lig_0>
-33.7882

>  <SCORE.INTRA.VDW>
-0.374843

>  <SCORE.INTRA.VDW.0>
-0.593976

>  <SCORE.INTRA.norm>
-0.0870055

>  <SCORE.RESTR>
0

>  <SCORE.RESTR.CAVITY>
0

>  <SCORE.RESTR.norm>
0

>  <SCORE.SYSTEM>
0

>  <SCORE.SYSTEM.CONST>
0

>  <SCORE.SYSTEM.DIHEDRAL>
0

>  <SCORE.SYSTEM.SOLV>
0

>  <SCORE.SYSTEM.norm>
0

>  <SCORE.heavy>
10

>  <SCORE.norm>
-0.644593

>  <RMSD>
12.796

$$$$
ligand
 OpenBabel11021811473D
libRbt.so/2013.1/901 2013/11/27
 10  9  0  0  0  0  0  0  0  0999 V2000
   28.6912   16.0201   11.1698 N   0  0  0  0  0  0  0  0  0  0  0  0
   27.4688   15.3123   10.6889 C   0  0  2  0  0  0  0  0  0  0  0  0
   26.8442   14.4796   11.7705 C   0  0  0  0  0  0  0  0  0  0  0  0
   25.6252   14.3615   11.8522 O   0  0  0  0  0  0  0  0  0  0  0  0
   27.8000   14.4871    9.4489 C   0  0  0  0  0  0  0  0  0  0  0  0
   26.2805   13.9474    8.7283 S   0  0  0  0  0  0  0  0  0  0  0  0
   26.8719   12.8090    7.5191 C   0  0  0  0  0  0  0  0  0  0  0  0
   27.5598   13.5894    6.4034 C   0  0  0  0  0  0  0  0  0  0  0  0
   28.1210   12.6697    5.4345 N   0  0  0  0  0  0  0  0  0  0  0  0
   27.5046   13.8635   12.6042 O   0  0  0  0  0  0  0  0  0  0  0  0
  2  1  1  1  0  0  0
  2  3  1  0  0  0  0
  2  5  1  0  0  0  0
  3  4  1  0  0  0  0
  3 10  1  0  0  0  0
  5  6  1  0  0  0  0
  6  7  1  0  0  0  0
  7  8  1  0  0  0  0
  8  9  1  0  0  0  0
M  END
>  <CHROM.1>
144.30705437,-168.40482861,-170.54656393,-70.73418092,176.78502240,27.15020496
14.11803404,9.49884017,-1.63482458,-0.51308581,-1.88505391

>  <Name>
ligand

>  <RI>
0

>  <Rbt.Current_Directory>
/home/itssahil/PROJECTS/Mol_Feturizer/New_Systems/rnas/3DIG

>  <Rbt.Executable>
rbdock ($Id: //depot/dev/client3/rdock/2013.1/src/exe/rbdock.cxx#4 $)

>  <Rbt.Library>
libRbt.so (2013.1, Build901 2013/11/27)

>  <Rbt.Parameter_File>
/export/apps/rDock/src/rDock_2013.1_src/data/scripts/dock_solv.prm

>  <Rbt.Receptor>
prm/blind_docking_60.prm

>  <SCORE>
-3.94902

>  <SCORE.INTER>
-2.92058

>  <SCORE.INTER.CONST>
1

>  <SCORE.INTER.POLAR>
0

>  <SCORE.INTER.ROT>
5

>  <SCORE.INTER.SOLV>
11.145

>  <SCORE.INTER.VDW>
-12.5954

>  <SCORE.INTER.norm>
-0.292058

>  <SCORE.INTRA>
-1.03263

>  <SCORE.INTRA.DIHEDRAL>
-0.296567

>  <SCORE.INTRA.DIHEDRAL.0>
2.60093

>  <SCORE.INTRA.POLAR>
0

>  <SCORE.INTRA.POLAR.0>
0

>  <SCORE.INTRA.REPUL>
0

>  <SCORE.INTRA.REPUL.0>
0

>  <SCORE.INTRA.SOLV>
-1.33959

>  <SCORE.INTRA.SOLV.lig_0>
-33.7882

>  <SCORE.INTRA.VDW>
-0.214551

>  <SCORE.INTRA.VDW.0>
-0.593976

>  <SCORE.INTRA.norm>
-0.103263

>  <SCORE.RESTR>
0.00419141

>  <SCORE.RESTR.CAVITY>
0.00419141

>  <SCORE.RESTR.norm>
0.000419141

>  <SCORE.SYSTEM>
0

>  <SCORE.SYSTEM.CONST>
0

>  <SCORE.SYSTEM.DIHEDRAL>
0

>  <SCORE.SYSTEM.SOLV>
0

>  <SCORE.SYSTEM.norm>
0

>  <SCORE.heavy>
10

>  <SCORE.norm>
-0.394902

>  <RMSD>
12.856

$$$$
ligand
 OpenBabel11021811473D
libRbt.so/2013.1/901 2013/11/27
 10  9  0  0  0  0  0  0  0  0999 V2000
   21.1717   13.4362   11.7398 N   0  0  0  0  0  0  0  0  0  0  0  0
   22.3702   12.9605   12.4906 C   0  0  2  0  0  0  0  0  0  0  0  0
   22.1935   13.1064   13.9742 C   0  0  0  0  0  0  0  0  0  0  0  0
   22.4040   12.1634   14.7311 O   0  0  0  0  0  0  0  0  0  0  0  0
   23.6181   13.6806   11.9880 C   0  0  0  0  0  0  0  0  0  0  0  0
   23.9352   13.1393   10.3370 S   0  0  0  0  0  0  0  0  0  0  0  0
   25.3174   14.1492    9.9157 C   0  0  0  0  0  0  0  0  0  0  0  0
   26.5479   13.6321   10.6543 C   0  0  0  0  0  0  0  0  0  0  0  0
   27.6929   14.4641   10.3438 N   0  0  0  0  0  0  0  0  0  0  0  0
   21.8573   14.1624   14.5057 O   0  0  0  0  0  0  0  0  0  0  0  0
  2  1  1  6  0  0  0
  2  3  1  0  0  0  0
  2  5  1  0  0  0  0
  3  4  1  0  0  0  0
  3 10  1  0  0  0  0
  5  6  1  0  0  0  0
  6  7  1  0  0  0  0
  7  8  1  0  0  0  0
  8  9  1  0  0  0  0
M  END
>  <CHROM.1>
129.06973851,-68.05302527,176.36462710,73.45995829,-178.87517418,23.72459552
13.44974357,11.90858021,2.43900031,0.16436503,1.58952628

>  <Name>
ligand

>  <RI>
0

>  <Rbt.Current_Directory>
/home/itssahil/PROJECTS/Mol_Feturizer/New_Systems/rnas/3DIG

>  <Rbt.Executable>
rbdock ($Id: //depot/dev/client3/rdock/2013.1/src/exe/rbdock.cxx#4 $)

>  <Rbt.Library>
libRbt.so (2013.1, Build901 2013/11/27)

>  <Rbt.Parameter_File>
/export/apps/rDock/src/rDock_2013.1_src/data/scripts/dock_solv.prm

>  <Rbt.Receptor>
prm/blind_docking_40.prm

>  <SCORE>
-5.13757

>  <SCORE.INTER>
-4.33425

>  <SCORE.INTER.CONST>
1

>  <SCORE.INTER.POLAR>
0

>  <SCORE.INTER.ROT>
5

>  <SCORE.INTER.SOLV>
8.03623

>  <SCORE.INTER.VDW>
-12.5016

>  <SCORE.INTER.norm>
-0.433425

>  <SCORE.INTRA>
-0.803322

>  <SCORE.INTRA.DIHEDRAL>
-0.592339

>  <SCORE.INTRA.DIHEDRAL.0>
2.60093

>  <SCORE.INTRA.POLAR>
0

>  <SCORE.INTRA.POLAR.0>
0

>  <SCORE.INTRA.REPUL>
0

>  <SCORE.INTRA.REPUL.0>
0

>  <SCORE.INTRA.SOLV>
-0.646083

>  <SCORE.INTRA.SOLV.lig_0>
-33.7882

>  <SCORE.INTRA.VDW>
-0.18411

>  <SCORE.INTRA.VDW.0>
-0.593976

>  <SCORE.INTRA.norm>
-0.0803322

>  <SCORE.RESTR>
0

>  <SCORE.RESTR.CAVITY>
0

>  <SCORE.RESTR.norm>
0

>  <SCORE.SYSTEM>
0

>  <SCORE.SYSTEM.CONST>
0

>  <SCORE.SYSTEM.DIHEDRAL>
0

>  <SCORE.SYSTEM.SOLV>
0

>  <SCORE.SYSTEM.norm>
0

>  <SCORE.heavy>
10

>  <SCORE.norm>
-0.513757

>  <RMSD>
12.901

$$$$
ligand
 OpenBabel11021811473D
libRbt.so/2013.1/901 2013/11/27
 10  9  0  0  0  0  0  0  0  0999 V2000
   27.2729   15.0371   10.5491 N   0  0  0  0  0  0  0  0  0  0  0  0
   26.1378   14.2209   10.0277 C   0  0  2  0  0  0  0  0  0  0  0  0
   25.5304   14.8308    8.7979 C   0  0  0  0  0  0  0  0  0  0  0  0
   25.3549   14.1636    7.7827 O   0  0  0  0  0  0  0  0  0  0  0  0
   25.1050   14.0029   11.1297 C   0  0  0  0  0  0  0  0  0  0  0  0
   23.9132   12.8400   10.5411 S   0  0  0  0  0  0  0  0  0  0  0  0
   22.9119   12.6343   11.9774 C   0  0  0  0  0  0  0  0  0  0  0  0
   21.9052   13.7784   12.0432 C   0  0  0  0  0  0  0  0  0  0  0  0
   21.0050   13.5770   13.1608 N   0  0  0  0  0  0  0  0  0  0  0  0
   25.1613   16.0021    8.7462 O   0  0  0  0  0  0  0  0  0  0  0  0
  2  1  1  1  0  0  0
  2  3  1  0  0  0  0
  2  5  1  0  0  0  0
  3  4  1  0  0  0  0
  3 10  1  0  0  0  0
  5  6  1  0  0  0  0
  6  7  1  0  0  0  0
  7  8  1  0  0  0  0
  8  9  1  0  0  0  0
M  END
>  <CHROM.1>
129.26861804,-171.63629093,175.66328916,82.35191291,175.74147444,24.36710765
13.97922788,10.45191955,-0.71379139,0.24313384,1.76684869

>  <Name>
ligand

>  <RI>
0

>  <Rbt.Current_Directory>
/home/itssahil/PROJECTS/Mol_Feturizer/New_Systems/rnas/3DIG

>  <Rbt.Executable>
rbdock ($Id: //depot/dev/client3/rdock/2013.1/src/exe/rbdock.cxx#4 $)

>  <Rbt.Library>
libRbt.so (2013.1, Build901 2013/11/27)

>  <Rbt.Parameter_File>
/export/apps/rDock/src/rDock_2013.1_src/data/scripts/dock_solv.prm

>  <Rbt.Receptor>
prm/blind_docking_60.prm

>  <SCORE>
-7.02624

>  <SCORE.INTER>
-5.83918

>  <SCORE.INTER.CONST>
1

>  <SCORE.INTER.POLAR>
0

>  <SCORE.INTER.ROT>
5

>  <SCORE.INTER.SOLV>
6.62194

>  <SCORE.INTER.VDW>
-13.0334

>  <SCORE.INTER.norm>
-0.583918

>  <SCORE.INTRA>
-1.18706

>  <SCORE.INTRA.DIHEDRAL>
-0.0303945

>  <SCORE.INTRA.DIHEDRAL.0>
2.60093

>  <SCORE.INTRA.POLAR>
0

>  <SCORE.INTRA.POLAR.0>
0

>  <SCORE.INTRA.REPUL>
0

>  <SCORE.INTRA.REPUL.0>
0

>  <SCORE.INTRA.SOLV>
-1.48836

>  <SCORE.INTRA.SOLV.lig_0>
-33.7882

>  <SCORE.INTRA.VDW>
-0.427686

>  <SCORE.INTRA.VDW.0>
-0.593976

>  <SCORE.INTRA.norm>
-0.118706

>  <SCORE.RESTR>
0

>  <SCORE.RESTR.CAVITY>
0

>  <SCORE.RESTR.norm>
0

>  <SCORE.SYSTEM>
0

>  <SCORE.SYSTEM.CONST>
0

>  <SCORE.SYSTEM.DIHEDRAL>
0

>  <SCORE.SYSTEM.SOLV>
0

>  <SCORE.SYSTEM.norm>
0

>  <SCORE.heavy>
10

>  <SCORE.norm>
-0.702624

>  <RMSD>
13.056

$$$$
ligand
 OpenBabel11021811473D
libRbt.so/2013.1/901 2013/11/27
 10  9  0  0  0  0  0  0  0  0999 V2000
   27.4892   14.4683   10.0789 N   0  0  0  0  0  0  0  0  0  0  0  0
   26.1351   13.9019    9.8102 C   0  0  2  0  0  0  0  0  0  0  0  0
   25.4482   14.6103    8.6789 C   0  0  0  0  0  0  0  0  0  0  0  0
   25.1760   15.8048    8.7541 O   0  0  0  0  0  0  0  0  0  0  0  0
   25.3015   13.9192   11.0882 C   0  0  0  0  0  0  0  0  0  0  0  0
   23.7962   13.0512   10.7721 S   0  0  0  0  0  0  0  0  0  0  0  0
   22.9717   13.2411   12.3186 C   0  0  0  0  0  0  0  0  0  0  0  0
   21.6359   12.5072   12.2575 C   0  0  0  0  0  0  0  0  0  0  0  0
   20.9273   12.6714   13.5108 N   0  0  0  0  0  0  0  0  0  0  0  0
   25.1463   14.0516    7.6266 O   0  0  0  0  0  0  0  0  0  0  0  0
  2  1  1  1  0  0  0
  2  3  1  0  0  0  0
  2  5  1  0  0  0  0
  3  4  1  0  0  0  0
  3 10  1  0  0  0  0
  5  6  1  0  0  0  0
  6  7  1  0  0  0  0
  7  8  1  0  0  0  0
  8  9  1  0  0  0  0
M  END
>  <CHROM.1>
-62.26206327,-172.69166303,-177.85222552,-178.37061323,-178.89465319,24.32867600
13.75227139,10.49150311,-0.77418431,0.18816702,1.85367083

>  <Name>
ligand

>  <RI>
0

>  <Rbt.Current_Directory>
/home/itssahil/PROJECTS/Mol_Feturizer/New_Systems/rnas/3DIG

>  <Rbt.Executable>
rbdock ($Id: //depot/dev/client3/rdock/2013.1/src/exe/rbdock.cxx#4 $)

>  <Rbt.Library>
libRbt.so (2013.1, Build901 2013/11/27)

>  <Rbt.Parameter_File>
/export/apps/rDock/src/rDock_2013.1_src/data/scripts/dock_solv.prm

>  <Rbt.Receptor>
prm/blind_docking_80.prm

>  <SCORE>
-7.3299

>  <SCORE.INTER>
-5.6875

>  <SCORE.INTER.CONST>
1

>  <SCORE.INTER.POLAR>
0

>  <SCORE.INTER.ROT>
5

>  <SCORE.INTER.SOLV>
5.49615

>  <SCORE.INTER.VDW>
-12.5571

>  <SCORE.INTER.norm>
-0.56875

>  <SCORE.INTRA>
-1.6424

>  <SCORE.INTRA.DIHEDRAL>
-0.893306

>  <SCORE.INTRA.DIHEDRAL.0>
2.60093

>  <SCORE.INTRA.POLAR>
0

>  <SCORE.INTRA.POLAR.0>
0

>  <SCORE.INTRA.REPUL>
0

>  <SCORE.INTRA.REPUL.0>
0

>  <SCORE.INTRA.SOLV>
-1.57103

>  <SCORE.INTRA.SOLV.lig_0>
-33.7882

>  <SCORE.INTRA.VDW>
-0.41023

>  <SCORE.INTRA.VDW.0>
-0.593976

>  <SCORE.INTRA.norm>
-0.16424

>  <SCORE.RESTR>
0

>  <SCORE.RESTR.CAVITY>
0

>  <SCORE.RESTR.norm>
0

>  <SCORE.SYSTEM>
0

>  <SCORE.SYSTEM.CONST>
0

>  <SCORE.SYSTEM.DIHEDRAL>
0

>  <SCORE.SYSTEM.SOLV>
0

>  <SCORE.SYSTEM.norm>
0

>  <SCORE.heavy>
10

>  <SCORE.norm>
-0.73299

>  <RMSD>
13.120

$$$$
ligand
 OpenBabel11021811473D
libRbt.so/2013.1/901 2013/11/27
 10  9  0  0  0  0  0  0  0  0999 V2000
   27.3143   14.6631   10.2850 N   0  0  0  0  0  0  0  0  0  0  0  0
   26.0294   13.9978    9.9206 C   0  0  2  0  0  0  0  0  0  0  0  0
   25.4005   14.6239    8.7098 C   0  0  0  0  0  0  0  0  0  0  0  0
   25.2213   13.9743    7.6839 O   0  0  0  0  0  0  0  0  0  0  0  0
   25.0865   13.9957   11.1203 C   0  0  0  0  0  0  0  0  0  0  0  0
   23.6913   12.9901   10.7186 S   0  0  0  0  0  0  0  0  0  0  0  0
   23.0598   12.6399   12.3268 C   0  0  0  0  0  0  0  0  0  0  0  0
   22.1774   13.8015   12.7727 C   0  0  0  0  0  0  0  0  0  0  0  0
   20.9882   13.8603   11.9468 N   0  0  0  0  0  0  0  0  0  0  0  0
   25.0168   15.7913    8.6851 O   0  0  0  0  0  0  0  0  0  0  0  0
  2  1  1  1  0  0  0
  2  3  1  0  0  0  0
  2  5  1  0  0  0  0
  3  4  1  0  0  0  0
  3 10  1  0  0  0  0
  5  6  1  0  0  0  0
  6  7  1  0  0  0  0
  7  8  1  0  0  0  0
  8  9  1  0  0  0  0
M  END
>  <CHROM.1>
118.07241498,-171.52236667,160.55224081,83.58429302,67.31848161,24.31334478
13.92929060,10.42037314,-0.75249936,0.04037662,1.90901445

>  <Name>
ligand

>  <RI>
0

>  <Rbt.Current_Directory>
/home/itssahil/PROJECTS/Mol_Feturizer/New_Systems/rnas/3DIG

>  <Rbt.Executable>
rbdock ($Id: //depot/dev/client3/rdock/2013.1/src/exe/rbdock.cxx#4 $)

>  <Rbt.Library>
libRbt.so (2013.1, Build901 2013/11/27)

>  <Rbt.Parameter_File>
/export/apps/rDock/src/rDock_2013.1_src/data/scripts/dock_solv.prm

>  <Rbt.Receptor>
prm/blind_docking_80.prm

>  <SCORE>
-6.24341

>  <SCORE.INTER>
-5.9926

>  <SCORE.INTER.CONST>
1

>  <SCORE.INTER.POLAR>
0

>  <SCORE.INTER.ROT>
5

>  <SCORE.INTER.SOLV>
7.17552

>  <SCORE.INTER.VDW>
-13.3202

>  <SCORE.INTER.norm>
-0.59926

>  <SCORE.INTRA>
-0.250817

>  <SCORE.INTRA.DIHEDRAL>
0.746418

>  <SCORE.INTRA.DIHEDRAL.0>
2.60093

>  <SCORE.INTRA.POLAR>
0

>  <SCORE.INTRA.POLAR.0>
0

>  <SCORE.INTRA.REPUL>
0

>  <SCORE.INTRA.REPUL.0>
0

>  <SCORE.INTRA.SOLV>
-0.42231

>  <SCORE.INTRA.SOLV.lig_0>
-33.7882

>  <SCORE.INTRA.VDW>
-0.412871

>  <SCORE.INTRA.VDW.0>
-0.593976

>  <SCORE.INTRA.norm>
-0.0250817

>  <SCORE.RESTR>
0

>  <SCORE.RESTR.CAVITY>
0

>  <SCORE.RESTR.norm>
0

>  <SCORE.SYSTEM>
0

>  <SCORE.SYSTEM.CONST>
0

>  <SCORE.SYSTEM.DIHEDRAL>
0

>  <SCORE.SYSTEM.SOLV>
0

>  <SCORE.SYSTEM.norm>
0

>  <SCORE.heavy>
10

>  <SCORE.norm>
-0.624341

>  <RMSD>
13.127

$$$$
ligand
 OpenBabel11021811473D
libRbt.so/2013.1/901 2013/11/27
 10  9  0  0  0  0  0  0  0  0999 V2000
   27.3548   14.5611   10.2368 N   0  0  0  0  0  0  0  0  0  0  0  0
   26.0232   13.9737    9.9077 C   0  0  2  0  0  0  0  0  0  0  0  0
   25.3926   14.6484    8.7242 C   0  0  0  0  0  0  0  0  0  0  0  0
   25.1139   15.8434    8.7529 O   0  0  0  0  0  0  0  0  0  0  0  0
   25.1204   14.0108   11.1374 C   0  0  0  0  0  0  0  0  0  0  0  0
   23.6626   13.0821   10.7747 S   0  0  0  0  0  0  0  0  0  0  0  0
   22.7804   13.2420   12.2926 C   0  0  0  0  0  0  0  0  0  0  0  0
   21.4648   12.4782   12.1799 C   0  0  0  0  0  0  0  0  0  0  0  0
   20.7245   12.5890   13.4207 N   0  0  0  0  0  0  0  0  0  0  0  0
   25.1458   14.0602    7.6736 O   0  0  0  0  0  0  0  0  0  0  0  0
  2  1  1  1  0  0  0
  2  3  1  0  0  0  0
  2  5  1  0  0  0  0
  3  4  1  0  0  0  0
  3 10  1  0  0  0  0
  5  6  1  0  0  0  0
  6  7  1  0  0  0  0
  7  8  1  0  0  0  0
  8  9  1  0  0  0  0
M  END
>  <CHROM.1>
-61.72019392,-171.18315619,179.73759683,-179.51172008,179.67176451,24.20456428
13.77850956,10.50921005,-0.74138267,0.23729621,1.82636363

>  <Name>
ligand

>  <RI>
0

>  <Rbt.Current_Directory>
/home/itssahil/PROJECTS/Mol_Feturizer/New_Systems/rnas/3DIG

>  <Rbt.Executable>
rbdock ($Id: //depot/dev/client3/rdock/2013.1/src/exe/rbdock.cxx#4 $)

>  <Rbt.Library>
libRbt.so (2013.1, Build901 2013/11/27)

>  <Rbt.Parameter_File>
/export/apps/rDock/src/rDock_2013.1_src/data/scripts/dock_solv.prm

>  <Rbt.Receptor>
prm/blind_docking_80.prm

>  <SCORE>
-7.34361

>  <SCORE.INTER>
-5.71357

>  <SCORE.INTER.CONST>
1

>  <SCORE.INTER.POLAR>
0

>  <SCORE.INTER.ROT>
5

>  <SCORE.INTER.SOLV>
5.25458

>  <SCORE.INTER.VDW>
-12.4939

>  <SCORE.INTER.norm>
-0.571357

>  <SCORE.INTRA>
-1.63004

>  <SCORE.INTRA.DIHEDRAL>
-0.821996

>  <SCORE.INTRA.DIHEDRAL.0>
2.60093

>  <SCORE.INTRA.POLAR>
0

>  <SCORE.INTRA.POLAR.0>
0

>  <SCORE.INTRA.REPUL>
0

>  <SCORE.INTRA.REPUL.0>
0

>  <SCORE.INTRA.SOLV>
-1.57193

>  <SCORE.INTRA.SOLV.lig_0>
-33.7882

>  <SCORE.INTRA.VDW>
-0.433078

>  <SCORE.INTRA.VDW.0>
-0.593976

>  <SCORE.INTRA.norm>
-0.163004

>  <SCORE.RESTR>
0

>  <SCORE.RESTR.CAVITY>
0

>  <SCORE.RESTR.norm>
0

>  <SCORE.SYSTEM>
0

>  <SCORE.SYSTEM.CONST>
0

>  <SCORE.SYSTEM.DIHEDRAL>
0

>  <SCORE.SYSTEM.SOLV>
0

>  <SCORE.SYSTEM.norm>
0

>  <SCORE.heavy>
10

>  <SCORE.norm>
-0.734361

>  <RMSD>
13.150

$$$$
ligand
 OpenBabel11021811473D
libRbt.so/2013.1/901 2013/11/27
 10  9  0  0  0  0  0  0  0  0999 V2000
   27.2476   14.5361   10.1761 N   0  0  0  0  0  0  0  0  0  0  0  0
   25.9237   13.8927    9.9314 C   0  0  2  0  0  0  0  0  0  0  0  0
   25.2231   14.4908    8.7460 C   0  0  0  0  0  0  0  0  0  0  0  0
   25.0705   15.7048    8.6489 O   0  0  0  0  0  0  0  0  0  0  0  0
   25.0715   13.9600   11.1954 C   0  0  0  0  0  0  0  0  0  0  0  0
   23.5915   13.0401   10.9077 S   0  0  0  0  0  0  0  0  0  0  0  0
   22.7943   13.1950   12.4724 C   0  0  0  0  0  0  0  0  0  0  0  0
   21.4665   12.4456   12.4244 C   0  0  0  0  0  0  0  0  0  0  0  0
   20.7722   12.5950   13.6875 N   0  0  0  0  0  0  0  0  0  0  0  0
   24.7919   13.8148    7.8144 O   0  0  0  0  0  0  0  0  0  0  0  0
  2  1  1  1  0  0  0
  2  3  1  0  0  0  0
  2  5  1  0  0  0  0
  3  4  1  0  0  0  0
  3 10  1  0  0  0  0
  5  6  1  0  0  0  0
  6  7  1  0  0  0  0
  7  8  1  0  0  0  0
  8  9  1  0  0  0  0
M  END
>  <CHROM.1>
-51.59559661,-174.11429430,178.14597917,-179.88501402,-178.17271676,24.12120296
13.69979314,10.60388890,-0.77508591,0.26076579,1.77880218

>  <Name>
ligand

>  <RI>
0

>  <Rbt.Current_Directory>
/home/itssahil/PROJECTS/Mol_Feturizer/New_Systems/rnas/3DIG

>  <Rbt.Executable>
rbdock ($Id: //depot/dev/client3/rdock/2013.1/src/exe/rbdock.cxx#4 $)

>  <Rbt.Library>
libRbt.so (2013.1, Build901 2013/11/27)

>  <Rbt.Parameter_File>
/export/apps/rDock/src/rDock_2013.1_src/data/scripts/dock_solv.prm

>  <Rbt.Receptor>
prm/blind_docking_40.prm

>  <SCORE>
-7.30845

>  <SCORE.INTER>
-5.60635

>  <SCORE.INTER.CONST>
1

>  <SCORE.INTER.POLAR>
0

>  <SCORE.INTER.ROT>
5

>  <SCORE.INTER.SOLV>
5.46038

>  <SCORE.INTER.VDW>
-12.491

>  <SCORE.INTER.norm>
-0.560635

>  <SCORE.INTRA>
-1.7021

>  <SCORE.INTRA.DIHEDRAL>
-0.933305

>  <SCORE.INTRA.DIHEDRAL.0>
2.60093

>  <SCORE.INTRA.POLAR>
0

>  <SCORE.INTRA.POLAR.0>
0

>  <SCORE.INTRA.REPUL>
0

>  <SCORE.INTRA.REPUL.0>
0

>  <SCORE.INTRA.SOLV>
-1.56398

>  <SCORE.INTRA.SOLV.lig_0>
-33.7882

>  <SCORE.INTRA.VDW>
-0.453459

>  <SCORE.INTRA.VDW.0>
-0.593976

>  <SCORE.INTRA.norm>
-0.17021

>  <SCORE.RESTR>
0

>  <SCORE.RESTR.CAVITY>
0

>  <SCORE.RESTR.norm>
0

>  <SCORE.SYSTEM>
0

>  <SCORE.SYSTEM.CONST>
0

>  <SCORE.SYSTEM.DIHEDRAL>
0

>  <SCORE.SYSTEM.SOLV>
0

>  <SCORE.SYSTEM.norm>
0

>  <SCORE.heavy>
10

>  <SCORE.norm>
-0.730845

>  <RMSD>
13.158

$$$$
ligand
 OpenBabel11021811473D
libRbt.so/2013.1/901 2013/11/27
 10  9  0  0  0  0  0  0  0  0999 V2000
   27.2758   14.5365   10.1730 N   0  0  0  0  0  0  0  0  0  0  0  0
   25.9475   13.9157    9.8960 C   0  0  2  0  0  0  0  0  0  0  0  0
   25.2806   14.5341    8.7018 C   0  0  0  0  0  0  0  0  0  0  0  0
   25.0803   15.7438    8.6461 O   0  0  0  0  0  0  0  0  0  0  0  0
   25.0708   13.9859   11.1429 C   0  0  0  0  0  0  0  0  0  0  0  0
   23.5948   13.0688   10.8270 S   0  0  0  0  0  0  0  0  0  0  0  0
   22.7678   13.2260   12.3759 C   0  0  0  0  0  0  0  0  0  0  0  0
   21.4393   12.4799   12.3023 C   0  0  0  0  0  0  0  0  0  0  0  0
   20.7339   12.6072   13.5617 N   0  0  0  0  0  0  0  0  0  0  0  0
   24.9253   13.8811    7.7229 O   0  0  0  0  0  0  0  0  0  0  0  0
  2  1  1  1  0  0  0
  2  3  1  0  0  0  0
  2  5  1  0  0  0  0
  3  4  1  0  0  0  0
  3 10  1  0  0  0  0
  5  6  1  0  0  0  0
  6  7  1  0  0  0  0
  7  8  1  0  0  0  0
  8  9  1  0  0  0  0
M  END
>  <CHROM.1>
-55.77545997,-173.18707572,178.11334880,-179.91652287,-179.39194052,24.13687741
13.73044236,10.53670376,-0.75917012,0.25288093,1.78580063

>  <Name>
ligand

>  <RI>
0

>  <Rbt.Current_Directory>
/home/itssahil/PROJECTS/Mol_Feturizer/New_Systems/rnas/3DIG

>  <Rbt.Executable>
rbdock ($Id: //depot/dev/client3/rdock/2013.1/src/exe/rbdock.cxx#4 $)

>  <Rbt.Library>
libRbt.so (2013.1, Build901 2013/11/27)

>  <Rbt.Parameter_File>
/export/apps/rDock/src/rDock_2013.1_src/data/scripts/dock_solv.prm

>  <Rbt.Receptor>
prm/blind_docking_40.prm

>  <SCORE>
-7.25037

>  <SCORE.INTER>
-5.57443

>  <SCORE.INTER.CONST>
1

>  <SCORE.INTER.POLAR>
0

>  <SCORE.INTER.ROT>
5

>  <SCORE.INTER.SOLV>
5.29446

>  <SCORE.INTER.VDW>
-12.4144

>  <SCORE.INTER.norm>
-0.557443

>  <SCORE.INTRA>
-1.67594

>  <SCORE.INTRA.DIHEDRAL>
-0.911847

>  <SCORE.INTRA.DIHEDRAL.0>
2.60093

>  <SCORE.INTRA.POLAR>
0

>  <SCORE.INTRA.POLAR.0>
0

>  <SCORE.INTRA.REPUL>
0

>  <SCORE.INTRA.REPUL.0>
0

>  <SCORE.INTRA.SOLV>
-1.56736

>  <SCORE.INTRA.SOLV.lig_0>
-33.7882

>  <SCORE.INTRA.VDW>
-0.436334

>  <SCORE.INTRA.VDW.0>
-0.593976

>  <SCORE.INTRA.norm>
-0.167594

>  <SCORE.RESTR>
0

>  <SCORE.RESTR.CAVITY>
0

>  <SCORE.RESTR.norm>
0

>  <SCORE.SYSTEM>
0

>  <SCORE.SYSTEM.CONST>
0

>  <SCORE.SYSTEM.DIHEDRAL>
0

>  <SCORE.SYSTEM.SOLV>
0

>  <SCORE.SYSTEM.norm>
0

>  <SCORE.heavy>
10

>  <SCORE.norm>
-0.725037

>  <RMSD>
13.188

$$$$
ligand
 OpenBabel11021811473D
libRbt.so/2013.1/901 2013/11/27
 10  9  0  0  0  0  0  0  0  0999 V2000
   27.2403   15.0322   10.4366 N   0  0  0  0  0  0  0  0  0  0  0  0
   26.1292   14.1617    9.9527 C   0  0  2  0  0  0  0  0  0  0  0  0
   25.5150   14.6912    8.6894 C   0  0  0  0  0  0  0  0  0  0  0  0
   25.0377   15.8212    8.6446 O   0  0  0  0  0  0  0  0  0  0  0  0
   25.0950   13.9758   11.0592 C   0  0  0  0  0  0  0  0  0  0  0  0
   23.8944   12.8092   10.4962 S   0  0  0  0  0  0  0  0  0  0  0  0
   22.7569   12.8265   11.8429 C   0  0  0  0  0  0  0  0  0  0  0  0
   21.7662   13.9678   11.6355 C   0  0  0  0  0  0  0  0  0  0  0  0
   20.8268   14.0094   12.7380 N   0  0  0  0  0  0  0  0  0  0  0  0
   25.4764   14.0455    7.6443 O   0  0  0  0  0  0  0  0  0  0  0  0
  2  1  1  1  0  0  0
  2  3  1  0  0  0  0
  2  5  1  0  0  0  0
  3  4  1  0  0  0  0
  3 10  1  0  0  0  0
  5  6  1  0  0  0  0
  6  7  1  0  0  0  0
  7  8  1  0  0  0  0
  8  9  1  0  0  0  0
M  END
>  <CHROM.1>
-57.56150594,-174.20212629,-176.17221446,85.67284919,-179.49741299,24.31590477
13.99644197,10.30334247,-0.67208329,0.06516843,1.87692404

>  <Name>
ligand

>  <RI>
0

>  <Rbt.Current_Directory>
/home/itssahil/PROJECTS/Mol_Feturizer/New_Systems/rnas/3DIG

>  <Rbt.Executable>
rbdock ($Id: //depot/dev/client3/rdock/2013.1/src/exe/rbdock.cxx#4 $)

>  <Rbt.Library>
libRbt.so (2013.1, Build901 2013/11/27)

>  <Rbt.Parameter_File>
/export/apps/rDock/src/rDock_2013.1_src/data/scripts/dock_solv.prm

>  <Rbt.Receptor>
prm/blind_docking_40.prm

>  <SCORE>
-6.93195

>  <SCORE.INTER>
-5.77414

>  <SCORE.INTER.CONST>
1

>  <SCORE.INTER.POLAR>
0

>  <SCORE.INTER.ROT>
5

>  <SCORE.INTER.SOLV>
7.01195

>  <SCORE.INTER.VDW>
-13.1201

>  <SCORE.INTER.norm>
-0.577414

>  <SCORE.INTRA>
-1.15781

>  <SCORE.INTRA.DIHEDRAL>
-0.0139923

>  <SCORE.INTRA.DIHEDRAL.0>
2.60093

>  <SCORE.INTRA.POLAR>
0

>  <SCORE.INTRA.POLAR.0>
0

>  <SCORE.INTRA.REPUL>
0

>  <SCORE.INTRA.REPUL.0>
0

>  <SCORE.INTRA.SOLV>
-1.46732

>  <SCORE.INTRA.SOLV.lig_0>
-33.7882

>  <SCORE.INTRA.VDW>
-0.417154

>  <SCORE.INTRA.VDW.0>
-0.593976

>  <SCORE.INTRA.norm>
-0.115781

>  <SCORE.RESTR>
0

>  <SCORE.RESTR.CAVITY>
0

>  <SCORE.RESTR.norm>
0

>  <SCORE.SYSTEM>
0

>  <SCORE.SYSTEM.CONST>
0

>  <SCORE.SYSTEM.DIHEDRAL>
0

>  <SCORE.SYSTEM.SOLV>
0

>  <SCORE.SYSTEM.norm>
0

>  <SCORE.heavy>
10

>  <SCORE.norm>
-0.693195

>  <RMSD>
13.203

$$$$
ligand
 OpenBabel11021811473D
libRbt.so/2013.1/901 2013/11/27
 10  9  0  0  0  0  0  0  0  0999 V2000
   24.4358   15.0752    7.9940 N   0  0  0  0  0  0  0  0  0  0  0  0
   24.9550   14.1330    9.0279 C   0  0  2  0  0  0  0  0  0  0  0  0
   23.8784   13.7023    9.9814 C   0  0  0  0  0  0  0  0  0  0  0  0
   23.7779   12.5306   10.3331 O   0  0  0  0  0  0  0  0  0  0  0  0
   26.1446   14.7582    9.7506 C   0  0  0  0  0  0  0  0  0  0  0  0
   26.8137   13.5497   10.8512 S   0  0  0  0  0  0  0  0  0  0  0  0
   27.5349   14.5847   12.0826 C   0  0  0  0  0  0  0  0  0  0  0  0
   28.5449   15.5129   11.4153 C   0  0  0  0  0  0  0  0  0  0  0  0
   29.5293   14.7310   10.6945 N   0  0  0  0  0  0  0  0  0  0  0  0
   23.0680   14.4858   10.4713 O   0  0  0  0  0  0  0  0  0  0  0  0
  2  1  1  6  0  0  0
  2  3  1  0  0  0  0
  2  5  1  0  0  0  0
  3  4  1  0  0  0  0
  3 10  1  0  0  0  0
  5  6  1  0  0  0  0
  6  7  1  0  0  0  0
  7  8  1  0  0  0  0
  8  9  1  0  0  0  0
M  END
>  <CHROM.1>
136.93861710,-174.73068692,-152.99629463,-57.53368735,-56.18164164,25.94543664
14.20942830,10.34221858,-2.97714583,0.31434541,2.16946046

>  <Name>
ligand

>  <RI>
0

>  <Rbt.Current_Directory>
/home/itssahil/PROJECTS/Mol_Feturizer/New_Systems/rnas/3DIG

>  <Rbt.Executable>
rbdock ($Id: //depot/dev/client3/rdock/2013.1/src/exe/rbdock.cxx#4 $)

>  <Rbt.Library>
libRbt.so (2013.1, Build901 2013/11/27)

>  <Rbt.Parameter_File>
/export/apps/rDock/src/rDock_2013.1_src/data/scripts/dock_solv.prm

>  <Rbt.Receptor>
prm/blind_docking_40.prm

>  <SCORE>
-6.07497

>  <SCORE.INTER>
-6.60494

>  <SCORE.INTER.CONST>
1

>  <SCORE.INTER.POLAR>
0

>  <SCORE.INTER.ROT>
5

>  <SCORE.INTER.SOLV>
14.717

>  <SCORE.INTER.VDW>
-16.2423

>  <SCORE.INTER.norm>
-0.660494

>  <SCORE.INTRA>
0.529964

>  <SCORE.INTRA.DIHEDRAL>
0.0501558

>  <SCORE.INTRA.DIHEDRAL.0>
2.60093

>  <SCORE.INTRA.POLAR>
0

>  <SCORE.INTRA.POLAR.0>
0

>  <SCORE.INTRA.REPUL>
0

>  <SCORE.INTRA.REPUL.0>
0

>  <SCORE.INTRA.SOLV>
0.221151

>  <SCORE.INTRA.SOLV.lig_0>
-33.7882

>  <SCORE.INTRA.VDW>
0.394311

>  <SCORE.INTRA.VDW.0>
-0.593976

>  <SCORE.INTRA.norm>
0.0529964

>  <SCORE.RESTR>
0

>  <SCORE.RESTR.CAVITY>
0

>  <SCORE.RESTR.norm>
0

>  <SCORE.SYSTEM>
0

>  <SCORE.SYSTEM.CONST>
0

>  <SCORE.SYSTEM.DIHEDRAL>
0

>  <SCORE.SYSTEM.SOLV>
0

>  <SCORE.SYSTEM.norm>
0

>  <SCORE.heavy>
10

>  <SCORE.norm>
-0.607497

>  <RMSD>
13.213

$$$$
ligand
 OpenBabel11021811473D
libRbt.so/2013.1/901 2013/11/27
 10  9  0  0  0  0  0  0  0  0999 V2000
   27.4008   14.4083   10.0517 N   0  0  0  0  0  0  0  0  0  0  0  0
   26.0363   13.8771    9.7646 C   0  0  2  0  0  0  0  0  0  0  0  0
   25.3994   14.5756    8.5984 C   0  0  0  0  0  0  0  0  0  0  0  0
   25.0456   15.7480    8.6808 O   0  0  0  0  0  0  0  0  0  0  0  0
   25.1733   13.9549   11.0207 C   0  0  0  0  0  0  0  0  0  0  0  0
   23.6953   13.0335   10.7276 S   0  0  0  0  0  0  0  0  0  0  0  0
   22.8652   13.2375   12.2694 C   0  0  0  0  0  0  0  0  0  0  0  0
   21.5094   12.5424   12.1939 C   0  0  0  0  0  0  0  0  0  0  0  0
   20.8156   12.6802   13.4587 N   0  0  0  0  0  0  0  0  0  0  0  0
   25.2206   14.0315    7.5109 O   0  0  0  0  0  0  0  0  0  0  0  0
  2  1  1  1  0  0  0
  2  3  1  0  0  0  0
  2  5  1  0  0  0  0
  3  4  1  0  0  0  0
  3 10  1  0  0  0  0
  5  6  1  0  0  0  0
  6  7  1  0  0  0  0
  7  8  1  0  0  0  0
  8  9  1  0  0  0  0
M  END
>  <CHROM.1>
-69.35124522,-168.95142707,179.59773565,177.76051911,179.17618298,24.24151150
13.73779004,10.43087334,-0.77163872,0.17691676,1.84561805

>  <Name>
ligand

>  <RI>
0

>  <Rbt.Current_Directory>
/home/itssahil/PROJECTS/Mol_Feturizer/New_Systems/rnas/3DIG

>  <Rbt.Executable>
rbdock ($Id: //depot/dev/client3/rdock/2013.1/src/exe/rbdock.cxx#4 $)

>  <Rbt.Library>
libRbt.so (2013.1, Build901 2013/11/27)

>  <Rbt.Parameter_File>
/export/apps/rDock/src/rDock_2013.1_src/data/scripts/dock_solv.prm

>  <Rbt.Receptor>
prm/blind_docking_40.prm

>  <SCORE>
-7.27363

>  <SCORE.INTER>
-5.7537

>  <SCORE.INTER.CONST>
1

>  <SCORE.INTER.POLAR>
0

>  <SCORE.INTER.ROT>
5

>  <SCORE.INTER.SOLV>
5.27511

>  <SCORE.INTER.VDW>
-12.5275

>  <SCORE.INTER.norm>
-0.57537

>  <SCORE.INTRA>
-1.51993

>  <SCORE.INTRA.DIHEDRAL>
-0.676292

>  <SCORE.INTRA.DIHEDRAL.0>
2.60093

>  <SCORE.INTRA.POLAR>
0

>  <SCORE.INTRA.POLAR.0>
0

>  <SCORE.INTRA.REPUL>
0

>  <SCORE.INTRA.REPUL.0>
0

>  <SCORE.INTRA.SOLV>
-1.57629

>  <SCORE.INTRA.SOLV.lig_0>
-33.7882

>  <SCORE.INTRA.VDW>
-0.393642

>  <SCORE.INTRA.VDW.0>
-0.593976

>  <SCORE.INTRA.norm>
-0.151993

>  <SCORE.RESTR>
0

>  <SCORE.RESTR.CAVITY>
0

>  <SCORE.RESTR.norm>
0

>  <SCORE.SYSTEM>
0

>  <SCORE.SYSTEM.CONST>
0

>  <SCORE.SYSTEM.DIHEDRAL>
0

>  <SCORE.SYSTEM.SOLV>
0

>  <SCORE.SYSTEM.norm>
0

>  <SCORE.heavy>
10

>  <SCORE.norm>
-0.727363

>  <RMSD>
13.215

$$$$
ligand
 OpenBabel11021811473D
libRbt.so/2013.1/901 2013/11/27
 10  9  0  0  0  0  0  0  0  0999 V2000
   27.4177   14.4284   10.0213 N   0  0  0  0  0  0  0  0  0  0  0  0
   26.0506   13.9018    9.7378 C   0  0  2  0  0  0  0  0  0  0  0  0
   25.4122   14.6040    8.5747 C   0  0  0  0  0  0  0  0  0  0  0  0
   25.2087   14.0164    7.5164 O   0  0  0  0  0  0  0  0  0  0  0  0
   25.1919   13.9802   10.9967 C   0  0  0  0  0  0  0  0  0  0  0  0
   23.6898   13.1030   10.6906 S   0  0  0  0  0  0  0  0  0  0  0  0
   22.9014   13.2356   12.2618 C   0  0  0  0  0  0  0  0  0  0  0  0
   21.5330   12.5659   12.1836 C   0  0  0  0  0  0  0  0  0  0  0  0
   20.8537   12.6861   13.4579 N   0  0  0  0  0  0  0  0  0  0  0  0
   25.0442   15.7757    8.6225 O   0  0  0  0  0  0  0  0  0  0  0  0
  2  1  1  1  0  0  0
  2  3  1  0  0  0  0
  2  5  1  0  0  0  0
  3  4  1  0  0  0  0
  3 10  1  0  0  0  0
  5  6  1  0  0  0  0
  6  7  1  0  0  0  0
  7  8  1  0  0  0  0
  8  9  1  0  0  0  0
M  END
>  <CHROM.1>
111.62667149,-170.55816012,177.00904758,177.94729963,-178.85356961,24.25296195
13.76363295,10.40770153,-0.77572907,0.17677112,1.84577987

>  <Name>
ligand

>  <RI>
0

>  <Rbt.Current_Directory>
/home/itssahil/PROJECTS/Mol_Feturizer/New_Systems/rnas/3DIG

>  <Rbt.Executable>
rbdock ($Id: //depot/dev/client3/rdock/2013.1/src/exe/rbdock.cxx#4 $)

>  <Rbt.Library>
libRbt.so (2013.1, Build901 2013/11/27)

>  <Rbt.Parameter_File>
/export/apps/rDock/src/rDock_2013.1_src/data/scripts/dock_solv.prm

>  <Rbt.Receptor>
prm/blind_docking_40.prm

>  <SCORE>
-7.37564

>  <SCORE.INTER>
-5.79439

>  <SCORE.INTER.CONST>
1

>  <SCORE.INTER.POLAR>
0

>  <SCORE.INTER.ROT>
5

>  <SCORE.INTER.SOLV>
5.30453

>  <SCORE.INTER.VDW>
-12.5644

>  <SCORE.INTER.norm>
-0.579439

>  <SCORE.INTRA>
-1.58125

>  <SCORE.INTRA.DIHEDRAL>
-0.726846

>  <SCORE.INTRA.DIHEDRAL.0>
2.60093

>  <SCORE.INTRA.POLAR>
0

>  <SCORE.INTRA.POLAR.0>
0

>  <SCORE.INTRA.REPUL>
0

>  <SCORE.INTRA.REPUL.0>
0

>  <SCORE.INTRA.SOLV>
-1.58994

>  <SCORE.INTRA.SOLV.lig_0>
-33.7882

>  <SCORE.INTRA.VDW>
-0.422857

>  <SCORE.INTRA.VDW.0>
-0.593976

>  <SCORE.INTRA.norm>
-0.158125

>  <SCORE.RESTR>
0

>  <SCORE.RESTR.CAVITY>
0

>  <SCORE.RESTR.norm>
0

>  <SCORE.SYSTEM>
0

>  <SCORE.SYSTEM.CONST>
0

>  <SCORE.SYSTEM.DIHEDRAL>
0

>  <SCORE.SYSTEM.SOLV>
0

>  <SCORE.SYSTEM.norm>
0

>  <SCORE.heavy>
10

>  <SCORE.norm>
-0.737564

>  <RMSD>
13.224

$$$$
ligand
 OpenBabel11021811473D
libRbt.so/2013.1/901 2013/11/27
 10  9  0  0  0  0  0  0  0  0999 V2000
   27.4394   14.4198    9.9906 N   0  0  0  0  0  0  0  0  0  0  0  0
   26.0721   13.8872    9.7195 C   0  0  2  0  0  0  0  0  0  0  0  0
   25.4195   14.5873    8.5631 C   0  0  0  0  0  0  0  0  0  0  0  0
   25.2290   14.0061    7.4989 O   0  0  0  0  0  0  0  0  0  0  0  0
   25.2250   13.9607   10.9866 C   0  0  0  0  0  0  0  0  0  0  0  0
   23.7122   13.1007   10.6846 S   0  0  0  0  0  0  0  0  0  0  0  0
   22.9185   13.2643   12.2502 C   0  0  0  0  0  0  0  0  0  0  0  0
   21.5296   12.6393   12.1654 C   0  0  0  0  0  0  0  0  0  0  0  0
   20.8557   12.7645   13.4422 N   0  0  0  0  0  0  0  0  0  0  0  0
   25.0267   15.7504    8.6224 O   0  0  0  0  0  0  0  0  0  0  0  0
  2  1  1  1  0  0  0
  2  3  1  0  0  0  0
  2  5  1  0  0  0  0
  3  4  1  0  0  0  0
  3 10  1  0  0  0  0
  5  6  1  0  0  0  0
  6  7  1  0  0  0  0
  7  8  1  0  0  0  0
  8  9  1  0  0  0  0
M  END
>  <CHROM.1>
110.39784316,-171.52748735,178.55280931,176.75534700,-179.88001933,24.26625141
13.77055809,10.39474132,-0.77285464,0.15806876,1.84539114

>  <Name>
ligand

>  <RI>
0

>  <Rbt.Current_Directory>
/home/itssahil/PROJECTS/Mol_Feturizer/New_Systems/rnas/3DIG

>  <Rbt.Executable>
rbdock ($Id: //depot/dev/client3/rdock/2013.1/src/exe/rbdock.cxx#4 $)

>  <Rbt.Library>
libRbt.so (2013.1, Build901 2013/11/27)

>  <Rbt.Parameter_File>
/export/apps/rDock/src/rDock_2013.1_src/data/scripts/dock_solv.prm

>  <Rbt.Receptor>
prm/blind_docking_40.prm

>  <SCORE>
-7.39242

>  <SCORE.INTER>
-5.80106

>  <SCORE.INTER.CONST>
1

>  <SCORE.INTER.POLAR>
0

>  <SCORE.INTER.ROT>
5

>  <SCORE.INTER.SOLV>
5.29113

>  <SCORE.INTER.VDW>
-12.5644

>  <SCORE.INTER.norm>
-0.580106

>  <SCORE.INTRA>
-1.59135

>  <SCORE.INTRA.DIHEDRAL>
-0.790642

>  <SCORE.INTRA.DIHEDRAL.0>
2.60093

>  <SCORE.INTRA.POLAR>
0

>  <SCORE.INTRA.POLAR.0>
0

>  <SCORE.INTRA.REPUL>
0

>  <SCORE.INTRA.REPUL.0>
0

>  <SCORE.INTRA.SOLV>
-1.58981

>  <SCORE.INTRA.SOLV.lig_0>
-33.7882

>  <SCORE.INTRA.VDW>
-0.401127

>  <SCORE.INTRA.VDW.0>
-0.593976

>  <SCORE.INTRA.norm>
-0.159135

>  <SCORE.RESTR>
0

>  <SCORE.RESTR.CAVITY>
0

>  <SCORE.RESTR.norm>
0

>  <SCORE.SYSTEM>
0

>  <SCORE.SYSTEM.CONST>
0

>  <SCORE.SYSTEM.DIHEDRAL>
0

>  <SCORE.SYSTEM.SOLV>
0

>  <SCORE.SYSTEM.norm>
0

>  <SCORE.heavy>
10

>  <SCORE.norm>
-0.739242

>  <RMSD>
13.229

$$$$
ligand
 OpenBabel11021811473D
libRbt.so/2013.1/901 2013/11/27
 10  9  0  0  0  0  0  0  0  0999 V2000
   27.1484   14.6657   10.1141 N   0  0  0  0  0  0  0  0  0  0  0  0
   25.8581   13.9536    9.8808 C   0  0  2  0  0  0  0  0  0  0  0  0
   25.1277   14.4983    8.6878 C   0  0  0  0  0  0  0  0  0  0  0  0
   25.0602   15.7072    8.4864 O   0  0  0  0  0  0  0  0  0  0  0  0
   25.0045   13.9970   11.1449 C   0  0  0  0  0  0  0  0  0  0  0  0
   23.5801   12.9872   10.8790 S   0  0  0  0  0  0  0  0  0  0  0  0
   22.7336   13.1962   12.4111 C   0  0  0  0  0  0  0  0  0  0  0  0
   21.4619   12.3540   12.3895 C   0  0  0  0  0  0  0  0  0  0  0  0
   20.7404   12.5217   13.6349 N   0  0  0  0  0  0  0  0  0  0  0  0
   24.5868   13.7791    7.8506 O   0  0  0  0  0  0  0  0  0  0  0  0
  2  1  1  1  0  0  0
  2  3  1  0  0  0  0
  2  5  1  0  0  0  0
  3  4  1  0  0  0  0
  3 10  1  0  0  0  0
  5  6  1  0  0  0  0
  6  7  1  0  0  0  0
  7  8  1  0  0  0  0
  8  9  1  0  0  0  0
M  END
>  <CHROM.1>
-42.36101503,-173.54918806,-178.97832676,-178.62548824,-179.35947574,24.06152601
13.69157892,10.55388776,-0.77700761,0.30714994,1.76415327

>  <Name>
ligand

>  <RI>
0

>  <Rbt.Current_Directory>
/home/itssahil/PROJECTS/Mol_Feturizer/New_Systems/rnas/3DIG

>  <Rbt.Executable>
rbdock ($Id: //depot/dev/client3/rdock/2013.1/src/exe/rbdock.cxx#4 $)

>  <Rbt.Library>
libRbt.so (2013.1, Build901 2013/11/27)

>  <Rbt.Parameter_File>
/export/apps/rDock/src/rDock_2013.1_src/data/scripts/dock_solv.prm

>  <Rbt.Receptor>
prm/blind_docking_40.prm

>  <SCORE>
-7.27445

>  <SCORE.INTER>
-5.5935

>  <SCORE.INTER.CONST>
1

>  <SCORE.INTER.POLAR>
0

>  <SCORE.INTER.ROT>
5

>  <SCORE.INTER.SOLV>
5.58379

>  <SCORE.INTER.VDW>
-12.5236

>  <SCORE.INTER.norm>
-0.55935

>  <SCORE.INTRA>
-1.68096

>  <SCORE.INTRA.DIHEDRAL>
-0.901982

>  <SCORE.INTRA.DIHEDRAL.0>
2.60093

>  <SCORE.INTRA.POLAR>
0

>  <SCORE.INTRA.POLAR.0>
0

>  <SCORE.INTRA.REPUL>
0

>  <SCORE.INTRA.REPUL.0>
0

>  <SCORE.INTRA.SOLV>
-1.55945

>  <SCORE.INTRA.SOLV.lig_0>
-33.7882

>  <SCORE.INTRA.VDW>
-0.450243

>  <SCORE.INTRA.VDW.0>
-0.593976

>  <SCORE.INTRA.norm>
-0.168096

>  <SCORE.RESTR>
0

>  <SCORE.RESTR.CAVITY>
0

>  <SCORE.RESTR.norm>
0

>  <SCORE.SYSTEM>
0

>  <SCORE.SYSTEM.CONST>
0

>  <SCORE.SYSTEM.DIHEDRAL>
0

>  <SCORE.SYSTEM.SOLV>
0

>  <SCORE.SYSTEM.norm>
0

>  <SCORE.heavy>
10

>  <SCORE.norm>
-0.727445

>  <RMSD>
13.240

$$$$
ligand
 OpenBabel11021811473D
libRbt.so/2013.1/901 2013/11/27
 10  9  0  0  0  0  0  0  0  0999 V2000
   27.1979   14.6180   10.0327 N   0  0  0  0  0  0  0  0  0  0  0  0
   25.8766   13.9607    9.8125 C   0  0  2  0  0  0  0  0  0  0  0  0
   25.1424   14.5597    8.6482 C   0  0  0  0  0  0  0  0  0  0  0  0
   24.5725   13.8475    7.8268 O   0  0  0  0  0  0  0  0  0  0  0  0
   25.0524   14.0076   11.0958 C   0  0  0  0  0  0  0  0  0  0  0  0
   23.5896   13.0508   10.8426 S   0  0  0  0  0  0  0  0  0  0  0  0
   22.8119   13.2095   12.4167 C   0  0  0  0  0  0  0  0  0  0  0  0
   21.5095   12.4153   12.4043 C   0  0  0  0  0  0  0  0  0  0  0  0
   20.8422   12.5460   13.6840 N   0  0  0  0  0  0  0  0  0  0  0  0
   25.0528   15.7721    8.4677 O   0  0  0  0  0  0  0  0  0  0  0  0
  2  1  1  1  0  0  0
  2  3  1  0  0  0  0
  2  5  1  0  0  0  0
  3  4  1  0  0  0  0
  3 10  1  0  0  0  0
  5  6  1  0  0  0  0
  6  7  1  0  0  0  0
  7  8  1  0  0  0  0
  8  9  1  0  0  0  0
M  END
>  <CHROM.1>
136.16124592,-173.21895469,179.05995254,-179.17367451,-179.21927813,24.09249738
13.72844003,10.52834578,-0.80236254,0.27237013,1.79855107

>  <Name>
ligand

>  <RI>
0

>  <Rbt.Current_Directory>
/home/itssahil/PROJECTS/Mol_Feturizer/New_Systems/rnas/3DIG

>  <Rbt.Executable>
rbdock ($Id: //depot/dev/client3/rdock/2013.1/src/exe/rbdock.cxx#4 $)

>  <Rbt.Library>
libRbt.so (2013.1, Build901 2013/11/27)

>  <Rbt.Parameter_File>
/export/apps/rDock/src/rDock_2013.1_src/data/scripts/dock_solv.prm

>  <Rbt.Receptor>
prm/blind_docking_40.prm

>  <SCORE>
-7.46812

>  <SCORE.INTER>
-5.72678

>  <SCORE.INTER.CONST>
1

>  <SCORE.INTER.POLAR>
0

>  <SCORE.INTER.ROT>
5

>  <SCORE.INTER.SOLV>
5.62867

>  <SCORE.INTER.VDW>
-12.6274

>  <SCORE.INTER.norm>
-0.572678

>  <SCORE.INTRA>
-1.74134

>  <SCORE.INTRA.DIHEDRAL>
-0.955474

>  <SCORE.INTRA.DIHEDRAL.0>
2.60093

>  <SCORE.INTRA.POLAR>
0

>  <SCORE.INTRA.POLAR.0>
0

>  <SCORE.INTRA.REPUL>
0

>  <SCORE.INTRA.REPUL.0>
0

>  <SCORE.INTRA.SOLV>
-1.57706

>  <SCORE.INTRA.SOLV.lig_0>
-33.7882

>  <SCORE.INTRA.VDW>
-0.475075

>  <SCORE.INTRA.VDW.0>
-0.593976

>  <SCORE.INTRA.norm>
-0.174134

>  <SCORE.RESTR>
0

>  <SCORE.RESTR.CAVITY>
0

>  <SCORE.RESTR.norm>
0

>  <SCORE.SYSTEM>
0

>  <SCORE.SYSTEM.CONST>
0

>  <SCORE.SYSTEM.DIHEDRAL>
0

>  <SCORE.SYSTEM.SOLV>
0

>  <SCORE.SYSTEM.norm>
0

>  <SCORE.heavy>
10

>  <SCORE.norm>
-0.746812

>  <RMSD>
13.242

$$$$
ligand
 OpenBabel11021811473D
libRbt.so/2013.1/901 2013/11/27
 10  9  0  0  0  0  0  0  0  0999 V2000
   27.1936   14.6302   10.0306 N   0  0  0  0  0  0  0  0  0  0  0  0
   25.8866   13.9441    9.8128 C   0  0  2  0  0  0  0  0  0  0  0  0
   25.1432   14.5182    8.6418 C   0  0  0  0  0  0  0  0  0  0  0  0
   24.5799   13.7880    7.8317 O   0  0  0  0  0  0  0  0  0  0  0  0
   25.0583   13.9849   11.0938 C   0  0  0  0  0  0  0  0  0  0  0  0
   23.6086   13.0086   10.8399 S   0  0  0  0  0  0  0  0  0  0  0  0
   22.8076   13.1911   12.3996 C   0  0  0  0  0  0  0  0  0  0  0  0
   21.5435   12.3372   12.4064 C   0  0  0  0  0  0  0  0  0  0  0  0
   20.8475   12.4999   13.6669 N   0  0  0  0  0  0  0  0  0  0  0  0
   25.0395   15.7269    8.4444 O   0  0  0  0  0  0  0  0  0  0  0  0
  2  1  1  1  0  0  0
  2  3  1  0  0  0  0
  2  5  1  0  0  0  0
  3  4  1  0  0  0  0
  3 10  1  0  0  0  0
  5  6  1  0  0  0  0
  6  7  1  0  0  0  0
  7  8  1  0  0  0  0
  8  9  1  0  0  0  0
M  END
>  <CHROM.1>
136.82660606,-173.74191946,-179.77947800,-176.81651579,-178.43142897,24.09982873
13.69145445,10.52230602,-0.79983050,0.28952546,1.78739502

>  <Name>
ligand

>  <RI>
0

>  <Rbt.Current_Directory>
/home/itssahil/PROJECTS/Mol_Feturizer/New_Systems/rnas/3DIG

>  <Rbt.Executable>
rbdock ($Id: //depot/dev/client3/rdock/2013.1/src/exe/rbdock.cxx#4 $)

>  <Rbt.Library>
libRbt.so (2013.1, Build901 2013/11/27)

>  <Rbt.Parameter_File>
/export/apps/rDock/src/rDock_2013.1_src/data/scripts/dock_solv.prm

>  <Rbt.Receptor>
prm/blind_docking_60.prm

>  <SCORE>
-7.42657

>  <SCORE.INTER>
-5.69407

>  <SCORE.INTER.CONST>
1

>  <SCORE.INTER.POLAR>
0

>  <SCORE.INTER.ROT>
5

>  <SCORE.INTER.SOLV>
5.6899

>  <SCORE.INTER.VDW>
-12.626

>  <SCORE.INTER.norm>
-0.569407

>  <SCORE.INTRA>
-1.7325

>  <SCORE.INTRA.DIHEDRAL>
-0.959909

>  <SCORE.INTRA.DIHEDRAL.0>
2.60093

>  <SCORE.INTRA.POLAR>
0

>  <SCORE.INTRA.POLAR.0>
0

>  <SCORE.INTRA.REPUL>
0

>  <SCORE.INTRA.REPUL.0>
0

>  <SCORE.INTRA.SOLV>
-1.57607

>  <SCORE.INTRA.SOLV.lig_0>
-33.7882

>  <SCORE.INTRA.VDW>
-0.464513

>  <SCORE.INTRA.VDW.0>
-0.593976

>  <SCORE.INTRA.norm>
-0.17325

>  <SCORE.RESTR>
0

>  <SCORE.RESTR.CAVITY>
0

>  <SCORE.RESTR.norm>
0

>  <SCORE.SYSTEM>
0

>  <SCORE.SYSTEM.CONST>
0

>  <SCORE.SYSTEM.DIHEDRAL>
0

>  <SCORE.SYSTEM.SOLV>
0

>  <SCORE.SYSTEM.norm>
0

>  <SCORE.heavy>
10

>  <SCORE.norm>
-0.742657

>  <RMSD>
13.251

$$$$
ligand
 OpenBabel11021811473D
libRbt.so/2013.1/901 2013/11/27
 10  9  0  0  0  0  0  0  0  0999 V2000
   24.4606   15.1858    8.0168 N   0  0  0  0  0  0  0  0  0  0  0  0
   24.9391   14.1777    9.0074 C   0  0  2  0  0  0  0  0  0  0  0  0
   23.8540   13.7766    9.9641 C   0  0  0  0  0  0  0  0  0  0  0  0
   23.6939   12.6017   10.2809 O   0  0  0  0  0  0  0  0  0  0  0  0
   26.1750   14.7053    9.7303 C   0  0  0  0  0  0  0  0  0  0  0  0
   26.7857   13.4219   10.7788 S   0  0  0  0  0  0  0  0  0  0  0  0
   27.7084   14.3613   11.9510 C   0  0  0  0  0  0  0  0  0  0  0  0
   29.1248   14.5569   11.4194 C   0  0  0  0  0  0  0  0  0  0  0  0
   29.0842   15.2954   10.1733 N   0  0  0  0  0  0  0  0  0  0  0  0
   23.0951   14.5874   10.4908 O   0  0  0  0  0  0  0  0  0  0  0  0
  2  1  1  6  0  0  0
  2  3  1  0  0  0  0
  2  5  1  0  0  0  0
  3  4  1  0  0  0  0
  3 10  1  0  0  0  0
  5  6  1  0  0  0  0
  6  7  1  0  0  0  0
  7  8  1  0  0  0  0
  8  9  1  0  0  0  0
M  END
>  <CHROM.1>
137.29595115,-174.88356613,-157.84299227,-87.54635190,61.54546839,25.96302131
14.16112235,10.26448953,-2.98777642,0.25856355,2.22357760

>  <Name>
ligand

>  <RI>
0

>  <Rbt.Current_Directory>
/home/itssahil/PROJECTS/Mol_Feturizer/New_Systems/rnas/3DIG

>  <Rbt.Executable>
rbdock ($Id: //depot/dev/client3/rdock/2013.1/src/exe/rbdock.cxx#4 $)

>  <Rbt.Library>
libRbt.so (2013.1, Build901 2013/11/27)

>  <Rbt.Parameter_File>
/export/apps/rDock/src/rDock_2013.1_src/data/scripts/dock_solv.prm

>  <Rbt.Receptor>
prm/blind_docking_40.prm

>  <SCORE>
-6.321

>  <SCORE.INTER>
-6.68827

>  <SCORE.INTER.CONST>
1

>  <SCORE.INTER.POLAR>
0

>  <SCORE.INTER.ROT>
5

>  <SCORE.INTER.SOLV>
14.7142

>  <SCORE.INTER.VDW>
-16.2969

>  <SCORE.INTER.norm>
-0.668827

>  <SCORE.INTRA>
0.367272

>  <SCORE.INTRA.DIHEDRAL>
0.742541

>  <SCORE.INTRA.DIHEDRAL.0>
2.60093

>  <SCORE.INTRA.POLAR>
0

>  <SCORE.INTRA.POLAR.0>
0

>  <SCORE.INTRA.REPUL>
0

>  <SCORE.INTRA.REPUL.0>
0

>  <SCORE.INTRA.SOLV>
0.665445

>  <SCORE.INTRA.SOLV.lig_0>
-33.7882

>  <SCORE.INTRA.VDW>
-0.336721

>  <SCORE.INTRA.VDW.0>
-0.593976

>  <SCORE.INTRA.norm>
0.0367272

>  <SCORE.RESTR>
0

>  <SCORE.RESTR.CAVITY>
0

>  <SCORE.RESTR.norm>
0

>  <SCORE.SYSTEM>
0

>  <SCORE.SYSTEM.CONST>
0

>  <SCORE.SYSTEM.DIHEDRAL>
0

>  <SCORE.SYSTEM.SOLV>
0

>  <SCORE.SYSTEM.norm>
0

>  <SCORE.heavy>
10

>  <SCORE.norm>
-0.6321

>  <RMSD>
13.272

$$$$
ligand
 OpenBabel11021811473D
libRbt.so/2013.1/901 2013/11/27
 10  9  0  0  0  0  0  0  0  0999 V2000
   24.0521   12.6622    9.2350 N   0  0  0  0  0  0  0  0  0  0  0  0
   24.2393   14.0934    9.6132 C   0  0  2  0  0  0  0  0  0  0  0  0
   24.9324   14.8704    8.5318 C   0  0  0  0  0  0  0  0  0  0  0  0
   25.4602   14.2986    7.5826 O   0  0  0  0  0  0  0  0  0  0  0  0
   24.9741   14.1867   10.9473 C   0  0  0  0  0  0  0  0  0  0  0  0
   26.6256   13.6097   10.7046 S   0  0  0  0  0  0  0  0  0  0  0  0
   27.4534   14.3965   12.0475 C   0  0  0  0  0  0  0  0  0  0  0  0
   28.9589   14.2429   11.8553 C   0  0  0  0  0  0  0  0  0  0  0  0
   29.3593   14.8539   10.6038 N   0  0  0  0  0  0  0  0  0  0  0  0
   24.9898   16.0981    8.5240 O   0  0  0  0  0  0  0  0  0  0  0  0
  2  1  1  6  0  0  0
  2  3  1  0  0  0  0
  2  5  1  0  0  0  0
  3  4  1  0  0  0  0
  3 10  1  0  0  0  0
  5  6  1  0  0  0  0
  6  7  1  0  0  0  0
  7  8  1  0  0  0  0
  8  9  1  0  0  0  0
M  END
>  <CHROM.1>
-11.43888142,67.88396432,157.23739148,-168.91590395,59.69860968,26.16827029
14.26580587,10.02135068,2.63168346,-0.38577595,-0.96477205

>  <Name>
ligand

>  <RI>
0

>  <Rbt.Current_Directory>
/home/itssahil/PROJECTS/Mol_Feturizer/New_Systems/rnas/3DIG

>  <Rbt.Executable>
rbdock ($Id: //depot/dev/client3/rdock/2013.1/src/exe/rbdock.cxx#4 $)

>  <Rbt.Library>
libRbt.so (2013.1, Build901 2013/11/27)

>  <Rbt.Parameter_File>
/export/apps/rDock/src/rDock_2013.1_src/data/scripts/dock_solv.prm

>  <Rbt.Receptor>
prm/blind_docking_40.prm

>  <SCORE>
-6.37079

>  <SCORE.INTER>
-6.22947

>  <SCORE.INTER.CONST>
1

>  <SCORE.INTER.POLAR>
0

>  <SCORE.INTER.ROT>
5

>  <SCORE.INTER.SOLV>
15.7979

>  <SCORE.INTER.VDW>
-16.3523

>  <SCORE.INTER.norm>
-0.622947

>  <SCORE.INTRA>
-0.141324

>  <SCORE.INTRA.DIHEDRAL>
0.111247

>  <SCORE.INTRA.DIHEDRAL.0>
2.60093

>  <SCORE.INTRA.POLAR>
0

>  <SCORE.INTRA.POLAR.0>
0

>  <SCORE.INTRA.REPUL>
0

>  <SCORE.INTRA.REPUL.0>
0

>  <SCORE.INTRA.SOLV>
0.250416

>  <SCORE.INTRA.SOLV.lig_0>
-33.7882

>  <SCORE.INTRA.VDW>
-0.322156

>  <SCORE.INTRA.VDW.0>
-0.593976

>  <SCORE.INTRA.norm>
-0.0141324

>  <SCORE.RESTR>
0

>  <SCORE.RESTR.CAVITY>
0

>  <SCORE.RESTR.norm>
0

>  <SCORE.SYSTEM>
0

>  <SCORE.SYSTEM.CONST>
0

>  <SCORE.SYSTEM.DIHEDRAL>
0

>  <SCORE.SYSTEM.SOLV>
0

>  <SCORE.SYSTEM.norm>
0

>  <SCORE.heavy>
10

>  <SCORE.norm>
-0.637079

>  <RMSD>
13.287

$$$$
ligand
 OpenBabel11021811473D
libRbt.so/2013.1/901 2013/11/27
 10  9  0  0  0  0  0  0  0  0999 V2000
   24.5213   15.1869    7.9623 N   0  0  0  0  0  0  0  0  0  0  0  0
   24.9895   14.1969    8.9758 C   0  0  2  0  0  0  0  0  0  0  0  0
   23.8827   13.7779    9.8994 C   0  0  0  0  0  0  0  0  0  0  0  0
   23.0805   14.5976   10.3366 O   0  0  0  0  0  0  0  0  0  0  0  0
   26.1885   14.7577    9.7350 C   0  0  0  0  0  0  0  0  0  0  0  0
   26.7549   13.5173   10.8575 S   0  0  0  0  0  0  0  0  0  0  0  0
   27.7353   14.4861   11.9565 C   0  0  0  0  0  0  0  0  0  0  0  0
   29.1413   14.6141   11.3787 C   0  0  0  0  0  0  0  0  0  0  0  0
   29.0895   15.3133   10.1105 N   0  0  0  0  0  0  0  0  0  0  0  0
   23.7070   12.6115   10.2447 O   0  0  0  0  0  0  0  0  0  0  0  0
  2  1  1  6  0  0  0
  2  3  1  0  0  0  0
  2  5  1  0  0  0  0
  3  4  1  0  0  0  0
  3 10  1  0  0  0  0
  5  6  1  0  0  0  0
  6  7  1  0  0  0  0
  7  8  1  0  0  0  0
  8  9  1  0  0  0  0
M  END
>  <CHROM.1>
-41.35559506,-177.01456930,-162.54269610,-85.99836179,62.61444557,25.97377387
14.20634600,10.24072064,-2.98062376,0.27276794,2.20076425

>  <Name>
ligand

>  <RI>
0

>  <Rbt.Current_Directory>
/home/itssahil/PROJECTS/Mol_Feturizer/New_Systems/rnas/3DIG

>  <Rbt.Executable>
rbdock ($Id: //depot/dev/client3/rdock/2013.1/src/exe/rbdock.cxx#4 $)

>  <Rbt.Library>
libRbt.so (2013.1, Build901 2013/11/27)

>  <Rbt.Parameter_File>
/export/apps/rDock/src/rDock_2013.1_src/data/scripts/dock_solv.prm

>  <Rbt.Receptor>
prm/blind_docking_40.prm

>  <SCORE>
-6.29679

>  <SCORE.INTER>
-6.63988

>  <SCORE.INTER.CONST>
1

>  <SCORE.INTER.POLAR>
0

>  <SCORE.INTER.ROT>
5

>  <SCORE.INTER.SOLV>
14.6301

>  <SCORE.INTER.VDW>
-16.2366

>  <SCORE.INTER.norm>
-0.663988

>  <SCORE.INTRA>
0.343092

>  <SCORE.INTRA.DIHEDRAL>
0.417064

>  <SCORE.INTRA.DIHEDRAL.0>
2.60093

>  <SCORE.INTRA.POLAR>
0

>  <SCORE.INTRA.POLAR.0>
0

>  <SCORE.INTRA.REPUL>
0

>  <SCORE.INTRA.REPUL.0>
0

>  <SCORE.INTRA.SOLV>
0.730313

>  <SCORE.INTRA.SOLV.lig_0>
-33.7882

>  <SCORE.INTRA.VDW>
-0.230596

>  <SCORE.INTRA.VDW.0>
-0.593976

>  <SCORE.INTRA.norm>
0.0343092

>  <SCORE.RESTR>
0

>  <SCORE.RESTR.CAVITY>
0

>  <SCORE.RESTR.norm>
0

>  <SCORE.SYSTEM>
0

>  <SCORE.SYSTEM.CONST>
0

>  <SCORE.SYSTEM.DIHEDRAL>
0

>  <SCORE.SYSTEM.SOLV>
0

>  <SCORE.SYSTEM.norm>
0

>  <SCORE.heavy>
10

>  <SCORE.norm>
-0.629679

>  <RMSD>
13.292

$$$$
ligand
 OpenBabel11021811473D
libRbt.so/2013.1/901 2013/11/27
 10  9  0  0  0  0  0  0  0  0999 V2000
   26.3224   14.6472   10.3392 N   0  0  0  0  0  0  0  0  0  0  0  0
   25.2077   14.1467    9.4827 C   0  0  2  0  0  0  0  0  0  0  0  0
   25.2764   14.7087    8.0925 C   0  0  0  0  0  0  0  0  0  0  0  0
   24.9596   15.8726    7.8654 O   0  0  0  0  0  0  0  0  0  0  0  0
   23.8675   14.4355   10.1526 C   0  0  0  0  0  0  0  0  0  0  0  0
   23.7745   13.4717   11.6297 S   0  0  0  0  0  0  0  0  0  0  0  0
   22.2002   13.9659   12.2505 C   0  0  0  0  0  0  0  0  0  0  0  0
   21.9573   13.2697   13.5859 C   0  0  0  0  0  0  0  0  0  0  0  0
   21.7714   11.8485   13.3723 N   0  0  0  0  0  0  0  0  0  0  0  0
   25.6670   14.0560    7.1270 O   0  0  0  0  0  0  0  0  0  0  0  0
  2  1  1  1  0  0  0
  2  3  1  0  0  0  0
  2  5  1  0  0  0  0
  3  4  1  0  0  0  0
  3 10  1  0  0  0  0
  5  6  1  0  0  0  0
  6  7  1  0  0  0  0
  7  8  1  0  0  0  0
  8  9  1  0  0  0  0
M  END
>  <CHROM.1>
-74.67138640,-66.02082042,178.99009428,-177.58663395,-68.82813272,24.07165156
13.99159229,10.49297821,-1.02035151,-0.06225312,1.96917818

>  <Name>
ligand

>  <RI>
0

>  <Rbt.Current_Directory>
/home/itssahil/PROJECTS/Mol_Feturizer/New_Systems/rnas/3DIG

>  <Rbt.Executable>
rbdock ($Id: //depot/dev/client3/rdock/2013.1/src/exe/rbdock.cxx#4 $)

>  <Rbt.Library>
libRbt.so (2013.1, Build901 2013/11/27)

>  <Rbt.Parameter_File>
/export/apps/rDock/src/rDock_2013.1_src/data/scripts/dock_solv.prm

>  <Rbt.Receptor>
prm/blind_docking_40.prm

>  <SCORE>
-6.25351

>  <SCORE.INTER>
-5.64179

>  <SCORE.INTER.CONST>
1

>  <SCORE.INTER.POLAR>
0

>  <SCORE.INTER.ROT>
5

>  <SCORE.INTER.SOLV>
6.88999

>  <SCORE.INTER.VDW>
-12.9912

>  <SCORE.INTER.norm>
-0.564179

>  <SCORE.INTRA>
-0.611718

>  <SCORE.INTRA.DIHEDRAL>
-0.715504

>  <SCORE.INTRA.DIHEDRAL.0>
2.60093

>  <SCORE.INTRA.POLAR>
0

>  <SCORE.INTRA.POLAR.0>
0

>  <SCORE.INTRA.REPUL>
0

>  <SCORE.INTRA.REPUL.0>
0

>  <SCORE.INTRA.SOLV>
-0.0176742

>  <SCORE.INTRA.SOLV.lig_0>
-33.7882

>  <SCORE.INTRA.VDW>
-0.245128

>  <SCORE.INTRA.VDW.0>
-0.593976

>  <SCORE.INTRA.norm>
-0.0611718

>  <SCORE.RESTR>
0

>  <SCORE.RESTR.CAVITY>
0

>  <SCORE.RESTR.norm>
0

>  <SCORE.SYSTEM>
0

>  <SCORE.SYSTEM.CONST>
0

>  <SCORE.SYSTEM.DIHEDRAL>
0

>  <SCORE.SYSTEM.SOLV>
0

>  <SCORE.SYSTEM.norm>
0

>  <SCORE.heavy>
10

>  <SCORE.norm>
-0.625351

>  <RMSD>
13.401

$$$$
ligand
 OpenBabel11021811473D
libRbt.so/2013.1/901 2013/11/27
 10  9  0  0  0  0  0  0  0  0999 V2000
   26.4680   14.2409   10.6310 N   0  0  0  0  0  0  0  0  0  0  0  0
   25.6403   13.7814    9.4777 C   0  0  2  0  0  0  0  0  0  0  0  0
   25.3716   14.8932    8.5055 C   0  0  0  0  0  0  0  0  0  0  0  0
   25.4987   14.7199    7.2970 O   0  0  0  0  0  0  0  0  0  0  0  0
   24.3523   13.1395    9.9852 C   0  0  0  0  0  0  0  0  0  0  0  0
   23.4841   14.3400   10.9467 S   0  0  0  0  0  0  0  0  0  0  0  0
   22.1897   13.3520   11.6221 C   0  0  0  0  0  0  0  0  0  0  0  0
   21.3455   14.2166   12.5532 C   0  0  0  0  0  0  0  0  0  0  0  0
   20.2609   13.4299   13.1051 N   0  0  0  0  0  0  0  0  0  0  0  0
   24.9952   16.0096    8.8555 O   0  0  0  0  0  0  0  0  0  0  0  0
  2  1  1  1  0  0  0
  2  3  1  0  0  0  0
  2  5  1  0  0  0  0
  3  4  1  0  0  0  0
  3 10  1  0  0  0  0
  5  6  1  0  0  0  0
  6  7  1  0  0  0  0
  7  8  1  0  0  0  0
  8  9  1  0  0  0  0
M  END
>  <CHROM.1>
134.28316667,58.79864398,-171.94883365,177.52838495,179.11556809,23.91018729
14.24953323,10.34381480,-0.70396064,-0.27770470,2.14845750

>  <Name>
ligand

>  <RI>
0

>  <Rbt.Current_Directory>
/home/itssahil/PROJECTS/Mol_Feturizer/New_Systems/rnas/3DIG

>  <Rbt.Executable>
rbdock ($Id: //depot/dev/client3/rdock/2013.1/src/exe/rbdock.cxx#4 $)

>  <Rbt.Library>
libRbt.so (2013.1, Build901 2013/11/27)

>  <Rbt.Parameter_File>
/export/apps/rDock/src/rDock_2013.1_src/data/scripts/dock_solv.prm

>  <Rbt.Receptor>
prm/blind_docking_40.prm

>  <SCORE>
-6.50725

>  <SCORE.INTER>
-5.29529

>  <SCORE.INTER.CONST>
1

>  <SCORE.INTER.POLAR>
0

>  <SCORE.INTER.ROT>
5

>  <SCORE.INTER.SOLV>
5.30926

>  <SCORE.INTER.VDW>
-12.2333

>  <SCORE.INTER.norm>
-0.529529

>  <SCORE.INTRA>
-1.21196

>  <SCORE.INTRA.DIHEDRAL>
-1.0074

>  <SCORE.INTRA.DIHEDRAL.0>
2.60093

>  <SCORE.INTRA.POLAR>
0

>  <SCORE.INTRA.POLAR.0>
0

>  <SCORE.INTRA.REPUL>
0

>  <SCORE.INTRA.REPUL.0>
0

>  <SCORE.INTRA.SOLV>
-0.576405

>  <SCORE.INTRA.SOLV.lig_0>
-33.7882

>  <SCORE.INTRA.VDW>
-0.420055

>  <SCORE.INTRA.VDW.0>
-0.593976

>  <SCORE.INTRA.norm>
-0.121196

>  <SCORE.RESTR>
0

>  <SCORE.RESTR.CAVITY>
0

>  <SCORE.RESTR.norm>
0

>  <SCORE.SYSTEM>
0

>  <SCORE.SYSTEM.CONST>
0

>  <SCORE.SYSTEM.DIHEDRAL>
0

>  <SCORE.SYSTEM.SOLV>
0

>  <SCORE.SYSTEM.norm>
0

>  <SCORE.heavy>
10

>  <SCORE.norm>
-0.650725

>  <RMSD>
13.428

$$$$
ligand
 OpenBabel11021811473D
libRbt.so/2013.1/901 2013/11/27
 10  9  0  0  0  0  0  0  0  0999 V2000
   26.4399   14.6654   10.2958 N   0  0  0  0  0  0  0  0  0  0  0  0
   25.2587   14.1694    9.5307 C   0  0  2  0  0  0  0  0  0  0  0  0
   25.2604   14.6696    8.1154 C   0  0  0  0  0  0  0  0  0  0  0  0
   25.5880   13.9367    7.1868 O   0  0  0  0  0  0  0  0  0  0  0  0
   23.9725   14.5340   10.2664 C   0  0  0  0  0  0  0  0  0  0  0  0
   24.1273   13.9939   11.9408 S   0  0  0  0  0  0  0  0  0  0  0  0
   23.1857   12.5041   11.8980 C   0  0  0  0  0  0  0  0  0  0  0  0
   21.7034   12.8567   11.9720 C   0  0  0  0  0  0  0  0  0  0  0  0
   21.3989   13.4300   13.2676 N   0  0  0  0  0  0  0  0  0  0  0  0
   24.9193   15.8103    7.8101 O   0  0  0  0  0  0  0  0  0  0  0  0
  2  1  1  1  0  0  0
  2  3  1  0  0  0  0
  2  5  1  0  0  0  0
  3  4  1  0  0  0  0
  3 10  1  0  0  0  0
  5  6  1  0  0  0  0
  6  7  1  0  0  0  0
  7  8  1  0  0  0  0
  8  9  1  0  0  0  0
M  END
>  <CHROM.1>
103.34700266,-51.24916461,-101.00108631,-79.42201541,-66.63631767,24.18496536
14.06163743,10.38545655,-0.95547690,0.29977621,1.69613109

>  <Name>
ligand

>  <RI>
0

>  <Rbt.Current_Directory>
/home/itssahil/PROJECTS/Mol_Feturizer/New_Systems/rnas/3DIG

>  <Rbt.Executable>
rbdock ($Id: //depot/dev/client3/rdock/2013.1/src/exe/rbdock.cxx#4 $)

>  <Rbt.Library>
libRbt.so (2013.1, Build901 2013/11/27)

>  <Rbt.Parameter_File>
/export/apps/rDock/src/rDock_2013.1_src/data/scripts/dock_solv.prm

>  <Rbt.Receptor>
prm/blind_docking_40.prm

>  <SCORE>
-4.32776

>  <SCORE.INTER>
-5.69166

>  <SCORE.INTER.CONST>
1

>  <SCORE.INTER.POLAR>
0

>  <SCORE.INTER.ROT>
5

>  <SCORE.INTER.SOLV>
6.6969

>  <SCORE.INTER.VDW>
-12.9601

>  <SCORE.INTER.norm>
-0.569166

>  <SCORE.INTRA>
1.3639

>  <SCORE.INTRA.DIHEDRAL>
1.80518

>  <SCORE.INTRA.DIHEDRAL.0>
2.60093

>  <SCORE.INTRA.POLAR>
0

>  <SCORE.INTRA.POLAR.0>
0

>  <SCORE.INTRA.REPUL>
0

>  <SCORE.INTRA.REPUL.0>
0

>  <SCORE.INTRA.SOLV>
0.831275

>  <SCORE.INTRA.SOLV.lig_0>
-33.7882

>  <SCORE.INTRA.VDW>
0.0456747

>  <SCORE.INTRA.VDW.0>
-0.593976

>  <SCORE.INTRA.norm>
0.13639

>  <SCORE.RESTR>
0

>  <SCORE.RESTR.CAVITY>
0

>  <SCORE.RESTR.norm>
0

>  <SCORE.SYSTEM>
0

>  <SCORE.SYSTEM.CONST>
0

>  <SCORE.SYSTEM.DIHEDRAL>
0

>  <SCORE.SYSTEM.SOLV>
0

>  <SCORE.SYSTEM.norm>
0

>  <SCORE.heavy>
10

>  <SCORE.norm>
-0.432776

>  <RMSD>
13.453

$$$$
ligand
 OpenBabel11021811473D
libRbt.so/2013.1/901 2013/11/27
 10  9  0  0  0  0  0  0  0  0999 V2000
   22.6823   14.2400   10.3076 N   0  0  0  0  0  0  0  0  0  0  0  0
   24.1204   14.6377   10.2988 C   0  0  2  0  0  0  0  0  0  0  0  0
   24.6098   14.9314    8.9104 C   0  0  0  0  0  0  0  0  0  0  0  0
   25.0531   16.0381    8.6179 O   0  0  0  0  0  0  0  0  0  0  0  0
   24.9602   13.5663   10.9882 C   0  0  0  0  0  0  0  0  0  0  0  0
   26.4275   14.3327   11.6041 S   0  0  0  0  0  0  0  0  0  0  0  0
   27.3976   14.4221   10.1349 C   0  0  0  0  0  0  0  0  0  0  0  0
   28.7243   15.1003   10.4618 C   0  0  0  0  0  0  0  0  0  0  0  0
   29.5606   15.1395    9.2791 N   0  0  0  0  0  0  0  0  0  0  0  0
   24.6154   14.0917    8.0129 O   0  0  0  0  0  0  0  0  0  0  0  0
  2  1  1  6  0  0  0
  2  3  1  0  0  0  0
  2  5  1  0  0  0  0
  3  4  1  0  0  0  0
  3 10  1  0  0  0  0
  5  6  1  0  0  0  0
  6  7  1  0  0  0  0
  7  8  1  0  0  0  0
  8  9  1  0  0  0  0
M  END
>  <CHROM.1>
120.03810493,-154.78124359,-79.64973866,178.70114713,177.83889377,25.88608035
14.62081379,10.02992937,3.05054783,-0.12264605,-1.24667263

>  <Name>
ligand

>  <RI>
0

>  <Rbt.Current_Directory>
/home/itssahil/PROJECTS/Mol_Feturizer/New_Systems/rnas/3DIG

>  <Rbt.Executable>
rbdock ($Id: //depot/dev/client3/rdock/2013.1/src/exe/rbdock.cxx#4 $)

>  <Rbt.Library>
libRbt.so (2013.1, Build901 2013/11/27)

>  <Rbt.Parameter_File>
/export/apps/rDock/src/rDock_2013.1_src/data/scripts/dock_solv.prm

>  <Rbt.Receptor>
prm/blind_docking_40.prm

>  <SCORE>
-6.07748

>  <SCORE.INTER>
-5.36071

>  <SCORE.INTER.CONST>
1

>  <SCORE.INTER.POLAR>
0

>  <SCORE.INTER.ROT>
5

>  <SCORE.INTER.SOLV>
15.1718

>  <SCORE.INTER.VDW>
-15.5644

>  <SCORE.INTER.norm>
-0.536071

>  <SCORE.INTRA>
-0.716772

>  <SCORE.INTRA.DIHEDRAL>
1.47492

>  <SCORE.INTRA.DIHEDRAL.0>
2.60093

>  <SCORE.INTRA.POLAR>
0

>  <SCORE.INTRA.POLAR.0>
0

>  <SCORE.INTRA.REPUL>
0

>  <SCORE.INTRA.REPUL.0>
0

>  <SCORE.INTRA.SOLV>
-1.55721

>  <SCORE.INTRA.SOLV.lig_0>
-33.7882

>  <SCORE.INTRA.VDW>
-0.675631

>  <SCORE.INTRA.VDW.0>
-0.593976

>  <SCORE.INTRA.norm>
-0.0716772

>  <SCORE.RESTR>
0

>  <SCORE.RESTR.CAVITY>
0

>  <SCORE.RESTR.norm>
0

>  <SCORE.SYSTEM>
0

>  <SCORE.SYSTEM.CONST>
0

>  <SCORE.SYSTEM.DIHEDRAL>
0

>  <SCORE.SYSTEM.SOLV>
0

>  <SCORE.SYSTEM.norm>
0

>  <SCORE.heavy>
10

>  <SCORE.norm>
-0.607748

>  <RMSD>
13.477

$$$$
ligand
 OpenBabel11021811473D
libRbt.so/2013.1/901 2013/11/27
 10  9  0  0  0  0  0  0  0  0999 V2000
   22.6679   14.1896   10.2649 N   0  0  0  0  0  0  0  0  0  0  0  0
   24.0978   14.6150   10.2924 C   0  0  2  0  0  0  0  0  0  0  0  0
   24.6092   14.9422    8.9195 C   0  0  0  0  0  0  0  0  0  0  0  0
   25.0322   16.0634    8.6537 O   0  0  0  0  0  0  0  0  0  0  0  0
   24.9444   13.5481   10.9805 C   0  0  0  0  0  0  0  0  0  0  0  0
   26.4063   14.3231   11.5981 S   0  0  0  0  0  0  0  0  0  0  0  0
   27.3861   14.3988   10.1345 C   0  0  0  0  0  0  0  0  0  0  0  0
   28.7106   15.0801   10.4638 C   0  0  0  0  0  0  0  0  0  0  0  0
   29.5489   15.1214    9.2825 N   0  0  0  0  0  0  0  0  0  0  0  0
   24.6535   14.1173    8.0094 O   0  0  0  0  0  0  0  0  0  0  0  0
  2  1  1  6  0  0  0
  2  3  1  0  0  0  0
  2  5  1  0  0  0  0
  3  4  1  0  0  0  0
  3 10  1  0  0  0  0
  5  6  1  0  0  0  0
  6  7  1  0  0  0  0
  7  8  1  0  0  0  0
  8  9  1  0  0  0  0
M  END
>  <CHROM.1>
119.78285472,-156.40797681,-80.47386063,178.80447282,178.45708608,25.87576205
14.61149842,10.02811957,3.05293316,-0.12229592,-1.23472861

>  <Name>
ligand

>  <RI>
0

>  <Rbt.Current_Directory>
/home/itssahil/PROJECTS/Mol_Feturizer/New_Systems/rnas/3DIG

>  <Rbt.Executable>
rbdock ($Id: //depot/dev/client3/rdock/2013.1/src/exe/rbdock.cxx#4 $)

>  <Rbt.Library>
libRbt.so (2013.1, Build901 2013/11/27)

>  <Rbt.Parameter_File>
/export/apps/rDock/src/rDock_2013.1_src/data/scripts/dock_solv.prm

>  <Rbt.Receptor>
prm/blind_docking_40.prm

>  <SCORE>
-6.07883

>  <SCORE.INTER>
-5.27443

>  <SCORE.INTER.CONST>
1

>  <SCORE.INTER.POLAR>
0

>  <SCORE.INTER.ROT>
5

>  <SCORE.INTER.SOLV>
15.069

>  <SCORE.INTER.VDW>
-15.4726

>  <SCORE.INTER.norm>
-0.527443

>  <SCORE.INTRA>
-0.804399

>  <SCORE.INTRA.DIHEDRAL>
1.30043

>  <SCORE.INTRA.DIHEDRAL.0>
2.60093

>  <SCORE.INTRA.POLAR>
0

>  <SCORE.INTRA.POLAR.0>
0

>  <SCORE.INTRA.REPUL>
0

>  <SCORE.INTRA.REPUL.0>
0

>  <SCORE.INTRA.SOLV>
-1.56071

>  <SCORE.INTRA.SOLV.lig_0>
-33.7882

>  <SCORE.INTRA.VDW>
-0.674255

>  <SCORE.INTRA.VDW.0>
-0.593976

>  <SCORE.INTRA.norm>
-0.0804399

>  <SCORE.RESTR>
0

>  <SCORE.RESTR.CAVITY>
0

>  <SCORE.RESTR.norm>
0

>  <SCORE.SYSTEM>
0

>  <SCORE.SYSTEM.CONST>
0

>  <SCORE.SYSTEM.DIHEDRAL>
0

>  <SCORE.SYSTEM.SOLV>
0

>  <SCORE.SYSTEM.norm>
0

>  <SCORE.heavy>
10

>  <SCORE.norm>
-0.607883

>  <RMSD>
13.479

$$$$
ligand
 OpenBabel11021811473D
libRbt.so/2013.1/901 2013/11/27
 10  9  0  0  0  0  0  0  0  0999 V2000
   20.4728   14.3763   11.9287 N   0  0  0  0  0  0  0  0  0  0  0  0
   21.6714   13.4916   12.0113 C   0  0  2  0  0  0  0  0  0  0  0  0
   22.2126   13.4140   13.4093 C   0  0  0  0  0  0  0  0  0  0  0  0
   22.7300   12.3835   13.8300 O   0  0  0  0  0  0  0  0  0  0  0  0
   22.7282   13.9533   11.0120 C   0  0  0  0  0  0  0  0  0  0  0  0
   23.9855   12.7154   10.9334 S   0  0  0  0  0  0  0  0  0  0  0  0
   25.2578   13.5876   10.0800 C   0  0  0  0  0  0  0  0  0  0  0  0
   24.8685   13.7119    8.6103 C   0  0  0  0  0  0  0  0  0  0  0  0
   25.9496   14.3261    7.8660 N   0  0  0  0  0  0  0  0  0  0  0  0
   22.1893   14.3648   14.1879 O   0  0  0  0  0  0  0  0  0  0  0  0
  2  1  1  1  0  0  0
  2  3  1  0  0  0  0
  2  5  1  0  0  0  0
  3  4  1  0  0  0  0
  3 10  1  0  0  0  0
  5  6  1  0  0  0  0
  6  7  1  0  0  0  0
  7  8  1  0  0  0  0
  8  9  1  0  0  0  0
M  END
>  <CHROM.1>
146.54650203,-169.67657854,-166.55369224,-73.96800611,-175.22357801,23.29861435
13.52563630,11.37131691,2.30355066,-0.44032267,1.96880377

>  <Name>
ligand

>  <RI>
0

>  <Rbt.Current_Directory>
/home/itssahil/PROJECTS/Mol_Feturizer/New_Systems/rnas/3DIG

>  <Rbt.Executable>
rbdock ($Id: //depot/dev/client3/rdock/2013.1/src/exe/rbdock.cxx#4 $)

>  <Rbt.Library>
libRbt.so (2013.1, Build901 2013/11/27)

>  <Rbt.Parameter_File>
/export/apps/rDock/src/rDock_2013.1_src/data/scripts/dock_solv.prm

>  <Rbt.Receptor>
prm/blind_docking_80.prm

>  <SCORE>
-5.29063

>  <SCORE.INTER>
-4.27964

>  <SCORE.INTER.CONST>
1

>  <SCORE.INTER.POLAR>
0

>  <SCORE.INTER.ROT>
5

>  <SCORE.INTER.SOLV>
8.96449

>  <SCORE.INTER.VDW>
-12.7746

>  <SCORE.INTER.norm>
-0.427964

>  <SCORE.INTRA>
-1.01098

>  <SCORE.INTRA.DIHEDRAL>
-0.0827012

>  <SCORE.INTRA.DIHEDRAL.0>
2.60093

>  <SCORE.INTRA.POLAR>
0

>  <SCORE.INTRA.POLAR.0>
0

>  <SCORE.INTRA.REPUL>
0

>  <SCORE.INTRA.REPUL.0>
0

>  <SCORE.INTRA.SOLV>
-1.41688

>  <SCORE.INTRA.SOLV.lig_0>
-33.7882

>  <SCORE.INTRA.VDW>
-0.261194

>  <SCORE.INTRA.VDW.0>
-0.593976

>  <SCORE.INTRA.norm>
-0.101098

>  <SCORE.RESTR>
0

>  <SCORE.RESTR.CAVITY>
0

>  <SCORE.RESTR.norm>
0

>  <SCORE.SYSTEM>
0

>  <SCORE.SYSTEM.CONST>
0

>  <SCORE.SYSTEM.DIHEDRAL>
0

>  <SCORE.SYSTEM.SOLV>
0

>  <SCORE.SYSTEM.norm>
0

>  <SCORE.heavy>
10

>  <SCORE.norm>
-0.529063

>  <RMSD>
13.508

$$$$
ligand
 OpenBabel11021811473D
libRbt.so/2013.1/901 2013/11/27
 10  9  0  0  0  0  0  0  0  0999 V2000
   20.5070   13.5526   12.9903 N   0  0  0  0  0  0  0  0  0  0  0  0
   21.6416   12.8405   12.3329 C   0  0  2  0  0  0  0  0  0  0  0  0
   22.4663   12.0707   13.3233 C   0  0  0  0  0  0  0  0  0  0  0  0
   22.5465   12.4311   14.4939 O   0  0  0  0  0  0  0  0  0  0  0  0
   22.4828   13.8306   11.5326 C   0  0  0  0  0  0  0  0  0  0  0  0
   23.7195   12.9193   10.6610 S   0  0  0  0  0  0  0  0  0  0  0  0
   24.3091   14.1464    9.5410 C   0  0  0  0  0  0  0  0  0  0  0  0
   25.3578   13.5171    8.6293 C   0  0  0  0  0  0  0  0  0  0  0  0
   25.8247   14.4963    7.6686 N   0  0  0  0  0  0  0  0  0  0  0  0
   23.0766   11.0451   13.0297 O   0  0  0  0  0  0  0  0  0  0  0  0
  2  1  1  1  0  0  0
  2  3  1  0  0  0  0
  2  5  1  0  0  0  0
  3  4  1  0  0  0  0
  3 10  1  0  0  0  0
  5  6  1  0  0  0  0
  6  7  1  0  0  0  0
  7  8  1  0  0  0  0
  8  9  1  0  0  0  0
M  END
>  <CHROM.1>
-28.14477013,-174.97160301,167.28520547,-177.01870425,178.06000416,23.26238215
13.04696433,11.36268734,2.24390836,-0.55659045,2.27715805

>  <Name>
ligand

>  <RI>
0

>  <Rbt.Current_Directory>
/home/itssahil/PROJECTS/Mol_Feturizer/New_Systems/rnas/3DIG

>  <Rbt.Executable>
rbdock ($Id: //depot/dev/client3/rdock/2013.1/src/exe/rbdock.cxx#4 $)

>  <Rbt.Library>
libRbt.so (2013.1, Build901 2013/11/27)

>  <Rbt.Parameter_File>
/export/apps/rDock/src/rDock_2013.1_src/data/scripts/dock_solv.prm

>  <Rbt.Receptor>
prm/blind_docking_40.prm

>  <SCORE>
-5.56283

>  <SCORE.INTER>
-4.12073

>  <SCORE.INTER.CONST>
1

>  <SCORE.INTER.POLAR>
0

>  <SCORE.INTER.ROT>
5

>  <SCORE.INTER.SOLV>
7.42131

>  <SCORE.INTER.VDW>
-12.1543

>  <SCORE.INTER.norm>
-0.412073

>  <SCORE.INTRA>
-1.44335

>  <SCORE.INTRA.DIHEDRAL>
-0.671001

>  <SCORE.INTRA.DIHEDRAL.0>
2.60093

>  <SCORE.INTRA.POLAR>
0

>  <SCORE.INTRA.POLAR.0>
0

>  <SCORE.INTRA.REPUL>
0

>  <SCORE.INTRA.REPUL.0>
0

>  <SCORE.INTRA.SOLV>
-1.54979

>  <SCORE.INTRA.SOLV.lig_0>
-33.7882

>  <SCORE.INTRA.VDW>
-0.332956

>  <SCORE.INTRA.VDW.0>
-0.593976

>  <SCORE.INTRA.norm>
-0.144335

>  <SCORE.RESTR>
0.00124949

>  <SCORE.RESTR.CAVITY>
0.00124949

>  <SCORE.RESTR.norm>
0.000124949

>  <SCORE.SYSTEM>
0

>  <SCORE.SYSTEM.CONST>
0

>  <SCORE.SYSTEM.DIHEDRAL>
0

>  <SCORE.SYSTEM.SOLV>
0

>  <SCORE.SYSTEM.norm>
0

>  <SCORE.heavy>
10

>  <SCORE.norm>
-0.556283

>  <RMSD>
13.648

$$$$
ligand
 OpenBabel11021811473D
libRbt.so/2013.1/901 2013/11/27
 10  9  0  0  0  0  0  0  0  0999 V2000
   26.0864   13.8769   10.3101 N   0  0  0  0  0  0  0  0  0  0  0  0
   24.9454   13.9530    9.3516 C   0  0  2  0  0  0  0  0  0  0  0  0
   25.2419   14.8729    8.2029 C   0  0  0  0  0  0  0  0  0  0  0  0
   25.0245   16.0780    8.2865 O   0  0  0  0  0  0  0  0  0  0  0  0
   23.6712   14.3508   10.0908 C   0  0  0  0  0  0  0  0  0  0  0  0
   23.1931   13.0005   11.1239 S   0  0  0  0  0  0  0  0  0  0  0  0
   21.6358   13.5729   11.7197 C   0  0  0  0  0  0  0  0  0  0  0  0
   20.9060   12.4102   12.3849 C   0  0  0  0  0  0  0  0  0  0  0  0
   21.6744   11.9305   13.5160 N   0  0  0  0  0  0  0  0  0  0  0  0
   25.7300   14.4832    7.1444 O   0  0  0  0  0  0  0  0  0  0  0  0
  2  1  1  1  0  0  0
  2  3  1  0  0  0  0
  2  5  1  0  0  0  0
  3  4  1  0  0  0  0
  3 10  1  0  0  0  0
  5  6  1  0  0  0  0
  6  7  1  0  0  0  0
  7  8  1  0  0  0  0
  8  9  1  0  0  0  0
M  END
>  <CHROM.1>
-86.43521744,-69.47000016,-173.46571063,167.21201766,61.75032382,23.75439031
13.77839722,10.28483496,-0.89294702,-0.23185408,2.25990254

>  <Name>
ligand

>  <RI>
0

>  <Rbt.Current_Directory>
/home/itssahil/PROJECTS/Mol_Feturizer/New_Systems/rnas/3DIG

>  <Rbt.Executable>
rbdock ($Id: //depot/dev/client3/rdock/2013.1/src/exe/rbdock.cxx#4 $)

>  <Rbt.Library>
libRbt.so (2013.1, Build901 2013/11/27)

>  <Rbt.Parameter_File>
/export/apps/rDock/src/rDock_2013.1_src/data/scripts/dock_solv.prm

>  <Rbt.Receptor>
prm/blind_docking_80.prm

>  <SCORE>
-5.69969

>  <SCORE.INTER>
-5.38693

>  <SCORE.INTER.CONST>
1

>  <SCORE.INTER.POLAR>
0

>  <SCORE.INTER.ROT>
5

>  <SCORE.INTER.SOLV>
6.32206

>  <SCORE.INTER.VDW>
-12.632

>  <SCORE.INTER.norm>
-0.538693

>  <SCORE.INTRA>
-0.313032

>  <SCORE.INTRA.DIHEDRAL>
-0.509505

>  <SCORE.INTRA.DIHEDRAL.0>
2.60093

>  <SCORE.INTRA.POLAR>
0

>  <SCORE.INTRA.POLAR.0>
0

>  <SCORE.INTRA.REPUL>
0

>  <SCORE.INTRA.REPUL.0>
0

>  <SCORE.INTRA.SOLV>
-0.0531674

>  <SCORE.INTRA.SOLV.lig_0>
-33.7882

>  <SCORE.INTRA.VDW>
-0.0316956

>  <SCORE.INTRA.VDW.0>
-0.593976

>  <SCORE.INTRA.norm>
-0.0313032

>  <SCORE.RESTR>
0.000274227

>  <SCORE.RESTR.CAVITY>
0.000274227

>  <SCORE.RESTR.norm>
2.74227e-05

>  <SCORE.SYSTEM>
0

>  <SCORE.SYSTEM.CONST>
0

>  <SCORE.SYSTEM.DIHEDRAL>
0

>  <SCORE.SYSTEM.SOLV>
0

>  <SCORE.SYSTEM.norm>
0

>  <SCORE.heavy>
10

>  <SCORE.norm>
-0.569969

>  <RMSD>
13.651

$$$$
ligand
 OpenBabel11021811473D
libRbt.so/2013.1/901 2013/11/27
 10  9  0  0  0  0  0  0  0  0999 V2000
   25.4145   15.5080    8.8905 N   0  0  0  0  0  0  0  0  0  0  0  0
   25.7768   14.0708    9.0635 C   0  0  2  0  0  0  0  0  0  0  0  0
   26.3093   13.4727    7.7938 C   0  0  0  0  0  0  0  0  0  0  0  0
   26.9948   12.4548    7.8141 O   0  0  0  0  0  0  0  0  0  0  0  0
   24.5799   13.2946    9.6053 C   0  0  0  0  0  0  0  0  0  0  0  0
   24.2111   13.9124   11.2182 S   0  0  0  0  0  0  0  0  0  0  0  0
   22.7773   12.9671   11.6164 C   0  0  0  0  0  0  0  0  0  0  0  0
   22.2577   13.4120   12.9799 C   0  0  0  0  0  0  0  0  0  0  0  0
   21.0553   12.6745   13.3119 N   0  0  0  0  0  0  0  0  0  0  0  0
   26.0751   13.9454    6.6836 O   0  0  0  0  0  0  0  0  0  0  0  0
  2  1  1  6  0  0  0
  2  3  1  0  0  0  0
  2  5  1  0  0  0  0
  3  4  1  0  0  0  0
  3 10  1  0  0  0  0
  5  6  1  0  0  0  0
  6  7  1  0  0  0  0
  7  8  1  0  0  0  0
  8  9  1  0  0  0  0
M  END
>  <CHROM.1>
159.37079368,-64.31991377,177.02088939,-177.39551276,178.36983891,24.52686076
13.59862423,10.01328516,0.00905970,0.88212301,0.08824100

>  <Name>
ligand

>  <RI>
0

>  <Rbt.Current_Directory>
/home/itssahil/PROJECTS/Mol_Feturizer/New_Systems/rnas/3DIG

>  <Rbt.Executable>
rbdock ($Id: //depot/dev/client3/rdock/2013.1/src/exe/rbdock.cxx#4 $)

>  <Rbt.Library>
libRbt.so (2013.1, Build901 2013/11/27)

>  <Rbt.Parameter_File>
/export/apps/rDock/src/rDock_2013.1_src/data/scripts/dock_solv.prm

>  <Rbt.Receptor>
prm/blind_docking_60.prm

>  <SCORE>
-5.86928

>  <SCORE.INTER>
-4.61653

>  <SCORE.INTER.CONST>
1

>  <SCORE.INTER.POLAR>
0

>  <SCORE.INTER.ROT>
5

>  <SCORE.INTER.SOLV>
8.5046

>  <SCORE.INTER.VDW>
-12.8459

>  <SCORE.INTER.norm>
-0.461653

>  <SCORE.INTRA>
-1.25275

>  <SCORE.INTRA.DIHEDRAL>
-1.04725

>  <SCORE.INTRA.DIHEDRAL.0>
2.60093

>  <SCORE.INTRA.POLAR>
0

>  <SCORE.INTRA.POLAR.0>
0

>  <SCORE.INTRA.REPUL>
0

>  <SCORE.INTRA.REPUL.0>
0

>  <SCORE.INTRA.SOLV>
-0.779065

>  <SCORE.INTRA.SOLV.lig_0>
-33.7882

>  <SCORE.INTRA.VDW>
-0.339589

>  <SCORE.INTRA.VDW.0>
-0.593976

>  <SCORE.INTRA.norm>
-0.125275

>  <SCORE.RESTR>
0

>  <SCORE.RESTR.CAVITY>
0

>  <SCORE.RESTR.norm>
0

>  <SCORE.SYSTEM>
0

>  <SCORE.SYSTEM.CONST>
0

>  <SCORE.SYSTEM.DIHEDRAL>
0

>  <SCORE.SYSTEM.SOLV>
0

>  <SCORE.SYSTEM.norm>
0

>  <SCORE.heavy>
10

>  <SCORE.norm>
-0.586928

>  <RMSD>
13.680

$$$$
ligand
 OpenBabel11021811473D
libRbt.so/2013.1/901 2013/11/27
 10  9  0  0  0  0  0  0  0  0999 V2000
   26.2448   14.2559   10.7904 N   0  0  0  0  0  0  0  0  0  0  0  0
   25.4684   13.6480    9.6705 C   0  0  2  0  0  0  0  0  0  0  0  0
   25.3678   14.5745    8.4936 C   0  0  0  0  0  0  0  0  0  0  0  0
   25.5829   14.1733    7.3537 O   0  0  0  0  0  0  0  0  0  0  0  0
   24.0966   13.2040   10.1698 C   0  0  0  0  0  0  0  0  0  0  0  0
   23.2485   14.6282   10.7797 S   0  0  0  0  0  0  0  0  0  0  0  0
   21.8165   13.8839   11.4892 C   0  0  0  0  0  0  0  0  0  0  0  0
   20.5958   14.2822   10.6657 C   0  0  0  0  0  0  0  0  0  0  0  0
   19.3991   13.7180   11.2568 N   0  0  0  0  0  0  0  0  0  0  0  0
   25.0488   15.7567    8.6001 O   0  0  0  0  0  0  0  0  0  0  0  0
  2  1  1  1  0  0  0
  2  3  1  0  0  0  0
  2  5  1  0  0  0  0
  3  4  1  0  0  0  0
  3 10  1  0  0  0  0
  5  6  1  0  0  0  0
  6  7  1  0  0  0  0
  7  8  1  0  0  0  0
  8  9  1  0  0  0  0
M  END
>  <CHROM.1>
133.47535344,60.25240960,-172.81669155,-111.96005031,-178.09413122,23.64526334
14.27727093,9.99471448,-0.45449020,-0.02396230,1.81491264

>  <Name>
ligand

>  <RI>
0

>  <Rbt.Current_Directory>
/home/itssahil/PROJECTS/Mol_Feturizer/New_Systems/rnas/3DIG

>  <Rbt.Executable>
rbdock ($Id: //depot/dev/client3/rdock/2013.1/src/exe/rbdock.cxx#4 $)

>  <Rbt.Library>
libRbt.so (2013.1, Build901 2013/11/27)

>  <Rbt.Parameter_File>
/export/apps/rDock/src/rDock_2013.1_src/data/scripts/dock_solv.prm

>  <Rbt.Receptor>
prm/blind_docking_40.prm

>  <SCORE>
-5.61023

>  <SCORE.INTER>
-5.48183

>  <SCORE.INTER.CONST>
1

>  <SCORE.INTER.POLAR>
0

>  <SCORE.INTER.ROT>
5

>  <SCORE.INTER.SOLV>
8.38799

>  <SCORE.INTER.VDW>
-13.3839

>  <SCORE.INTER.norm>
-0.548183

>  <SCORE.INTRA>
-0.128407

>  <SCORE.INTRA.DIHEDRAL>
1.26644

>  <SCORE.INTRA.DIHEDRAL.0>
2.60093

>  <SCORE.INTRA.POLAR>
0

>  <SCORE.INTRA.POLAR.0>
0

>  <SCORE.INTRA.REPUL>
0

>  <SCORE.INTRA.REPUL.0>
0

>  <SCORE.INTRA.SOLV>
-0.599166

>  <SCORE.INTRA.SOLV.lig_0>
-33.7882

>  <SCORE.INTRA.VDW>
-0.462042

>  <SCORE.INTRA.VDW.0>
-0.593976

>  <SCORE.INTRA.norm>
-0.0128407

>  <SCORE.RESTR>
0

>  <SCORE.RESTR.CAVITY>
0

>  <SCORE.RESTR.norm>
0

>  <SCORE.SYSTEM>
0

>  <SCORE.SYSTEM.CONST>
0

>  <SCORE.SYSTEM.DIHEDRAL>
0

>  <SCORE.SYSTEM.SOLV>
0

>  <SCORE.SYSTEM.norm>
0

>  <SCORE.heavy>
10

>  <SCORE.norm>
-0.561023

>  <RMSD>
13.797

$$$$
ligand
 OpenBabel11021811473D
libRbt.so/2013.1/901 2013/11/27
 10  9  0  0  0  0  0  0  0  0999 V2000
   21.7323   12.0564   13.5626 N   0  0  0  0  0  0  0  0  0  0  0  0
   22.2098   13.2837   12.8610 C   0  0  2  0  0  0  0  0  0  0  0  0
   21.0838   14.2315   12.5657 C   0  0  0  0  0  0  0  0  0  0  0  0
   20.9608   15.2806   13.1910 O   0  0  0  0  0  0  0  0  0  0  0  0
   22.9787   12.8964   11.6012 C   0  0  0  0  0  0  0  0  0  0  0  0
   23.5067   14.3811   10.8036 S   0  0  0  0  0  0  0  0  0  0  0  0
   24.4815   13.7241    9.4898 C   0  0  0  0  0  0  0  0  0  0  0  0
   24.9826   14.8766    8.6252 C   0  0  0  0  0  0  0  0  0  0  0  0
   25.8040   14.3617    7.5481 N   0  0  0  0  0  0  0  0  0  0  0  0
   20.2519   14.0261   11.6845 O   0  0  0  0  0  0  0  0  0  0  0  0
  2  1  1  6  0  0  0
  2  3  1  0  0  0  0
  2  5  1  0  0  0  0
  3  4  1  0  0  0  0
  3 10  1  0  0  0  0
  5  6  1  0  0  0  0
  6  7  1  0  0  0  0
  7  8  1  0  0  0  0
  8  9  1  0  0  0  0
M  END
>  <CHROM.1>
107.55566282,179.48008157,174.95447912,177.21557345,179.16409908,22.85019746
13.98347055,11.15219703,-2.59977288,0.66998846,-0.62516402

>  <Name>
ligand

>  <RI>
0

>  <Rbt.Current_Directory>
/home/itssahil/PROJECTS/Mol_Feturizer/New_Systems/rnas/3DIG

>  <Rbt.Executable>
rbdock ($Id: //depot/dev/client3/rdock/2013.1/src/exe/rbdock.cxx#4 $)

>  <Rbt.Library>
libRbt.so (2013.1, Build901 2013/11/27)

>  <Rbt.Parameter_File>
/export/apps/rDock/src/rDock_2013.1_src/data/scripts/dock_solv.prm

>  <Rbt.Receptor>
prm/blind_docking_40.prm

>  <SCORE>
-5.01576

>  <SCORE.INTER>
-3.52864

>  <SCORE.INTER.CONST>
1

>  <SCORE.INTER.POLAR>
0

>  <SCORE.INTER.ROT>
5

>  <SCORE.INTER.SOLV>
8.90023

>  <SCORE.INTER.VDW>
-12.2525

>  <SCORE.INTER.norm>
-0.352864

>  <SCORE.INTRA>
-1.48712

>  <SCORE.INTRA.DIHEDRAL>
-1.01172

>  <SCORE.INTRA.DIHEDRAL.0>
2.60093

>  <SCORE.INTRA.POLAR>
0

>  <SCORE.INTRA.POLAR.0>
0

>  <SCORE.INTRA.REPUL>
0

>  <SCORE.INTRA.REPUL.0>
0

>  <SCORE.INTRA.SOLV>
-1.57916

>  <SCORE.INTRA.SOLV.lig_0>
-33.7882

>  <SCORE.INTRA.VDW>
-0.191677

>  <SCORE.INTRA.VDW.0>
-0.593976

>  <SCORE.INTRA.norm>
-0.148712

>  <SCORE.RESTR>
0

>  <SCORE.RESTR.CAVITY>
0

>  <SCORE.RESTR.norm>
0

>  <SCORE.SYSTEM>
0

>  <SCORE.SYSTEM.CONST>
0

>  <SCORE.SYSTEM.DIHEDRAL>
0

>  <SCORE.SYSTEM.SOLV>
0

>  <SCORE.SYSTEM.norm>
0

>  <SCORE.heavy>
10

>  <SCORE.norm>
-0.501576

>  <RMSD>
13.933

$$$$
ligand
 OpenBabel11021811473D
libRbt.so/2013.1/901 2013/11/27
 10  9  0  0  0  0  0  0  0  0999 V2000
   20.4021   13.3248   12.9718 N   0  0  0  0  0  0  0  0  0  0  0  0
   21.0008   14.0945   11.8424 C   0  0  2  0  0  0  0  0  0  0  0  0
   20.0846   14.1461   10.6545 C   0  0  0  0  0  0  0  0  0  0  0  0
   19.0993   13.4174   10.5846 O   0  0  0  0  0  0  0  0  0  0  0  0
   22.3682   13.5177   11.4874 C   0  0  0  0  0  0  0  0  0  0  0  0
   23.1653   14.6397   10.3806 S   0  0  0  0  0  0  0  0  0  0  0  0
   24.6614   13.7695   10.0454 C   0  0  0  0  0  0  0  0  0  0  0  0
   25.4851   14.5742    9.0449 C   0  0  0  0  0  0  0  0  0  0  0  0
   26.7327   13.8894    8.7722 N   0  0  0  0  0  0  0  0  0  0  0  0
   20.2526   14.9205    9.7149 O   0  0  0  0  0  0  0  0  0  0  0  0
  2  1  1  1  0  0  0
  2  3  1  0  0  0  0
  2  5  1  0  0  0  0
  3  4  1  0  0  0  0
  3 10  1  0  0  0  0
  5  6  1  0  0  0  0
  6  7  1  0  0  0  0
  7  8  1  0  0  0  0
  8  9  1  0  0  0  0
M  END
>  <CHROM.1>
-12.67848992,-169.02796864,-177.56875430,178.01731741,178.95626101,22.39116231
14.10017139,10.51117870,-2.81142517,0.06894044,-1.19727167

>  <Name>
ligand

>  <RI>
0

>  <Rbt.Current_Directory>
/home/itssahil/PROJECTS/Mol_Feturizer/New_Systems/rnas/3DIG

>  <Rbt.Executable>
rbdock ($Id: //depot/dev/client3/rdock/2013.1/src/exe/rbdock.cxx#4 $)

>  <Rbt.Library>
libRbt.so (2013.1, Build901 2013/11/27)

>  <Rbt.Parameter_File>
/export/apps/rDock/src/rDock_2013.1_src/data/scripts/dock_solv.prm

>  <Rbt.Receptor>
prm/blind_docking_40.prm

>  <SCORE>
-6.22677

>  <SCORE.INTER>
-4.89346

>  <SCORE.INTER.CONST>
1

>  <SCORE.INTER.POLAR>
0

>  <SCORE.INTER.ROT>
5

>  <SCORE.INTER.SOLV>
5.57662

>  <SCORE.INTER.VDW>
-12.0545

>  <SCORE.INTER.norm>
-0.489346

>  <SCORE.INTRA>
-1.33332

>  <SCORE.INTRA.DIHEDRAL>
-0.617289

>  <SCORE.INTRA.DIHEDRAL.0>
2.60093

>  <SCORE.INTRA.POLAR>
0

>  <SCORE.INTRA.POLAR.0>
0

>  <SCORE.INTRA.REPUL>
0

>  <SCORE.INTRA.REPUL.0>
0

>  <SCORE.INTRA.SOLV>
-1.54632

>  <SCORE.INTRA.SOLV.lig_0>
-33.7882

>  <SCORE.INTRA.VDW>
-0.251511

>  <SCORE.INTRA.VDW.0>
-0.593976

>  <SCORE.INTRA.norm>
-0.133332

>  <SCORE.RESTR>
0

>  <SCORE.RESTR.CAVITY>
0

>  <SCORE.RESTR.norm>
0

>  <SCORE.SYSTEM>
0

>  <SCORE.SYSTEM.CONST>
0

>  <SCORE.SYSTEM.DIHEDRAL>
0

>  <SCORE.SYSTEM.SOLV>
0

>  <SCORE.SYSTEM.norm>
0

>  <SCORE.heavy>
10

>  <SCORE.norm>
-0.622677

>  <RMSD>
14.835

$$$$
ligand
 OpenBabel11021811473D
libRbt.so/2013.1/901 2013/11/27
 10  9  0  0  0  0  0  0  0  0999 V2000
   20.4559   13.2975   12.9785 N   0  0  0  0  0  0  0  0  0  0  0  0
   21.0442   14.0691   11.8450 C   0  0  2  0  0  0  0  0  0  0  0  0
   20.1008   14.1571   10.6806 C   0  0  0  0  0  0  0  0  0  0  0  0
   20.2907   14.9617    9.7733 O   0  0  0  0  0  0  0  0  0  0  0  0
   22.3893   13.4671   11.4490 C   0  0  0  0  0  0  0  0  0  0  0  0
   23.2089   14.6118   10.3826 S   0  0  0  0  0  0  0  0  0  0  0  0
   24.6533   13.6947    9.9578 C   0  0  0  0  0  0  0  0  0  0  0  0
   25.4904   14.5183    8.9841 C   0  0  0  0  0  0  0  0  0  0  0  0
   26.6902   13.7878    8.6280 N   0  0  0  0  0  0  0  0  0  0  0  0
   19.1182   13.4285   10.5610 O   0  0  0  0  0  0  0  0  0  0  0  0
  2  1  1  1  0  0  0
  2  3  1  0  0  0  0
  2  5  1  0  0  0  0
  3  4  1  0  0  0  0
  3 10  1  0  0  0  0
  5  6  1  0  0  0  0
  6  7  1  0  0  0  0
  7  8  1  0  0  0  0
  8  9  1  0  0  0  0
M  END
>  <CHROM.1>
165.37978030,-167.07631124,-176.12641969,178.25513363,179.56106326,22.41303420
14.07126621,10.48871326,-2.79906741,0.09111817,-1.19070934

>  <Name>
ligand

>  <RI>
0

>  <Rbt.Current_Directory>
/home/itssahil/PROJECTS/Mol_Feturizer/New_Systems/rnas/3DIG

>  <Rbt.Executable>
rbdock ($Id: //depot/dev/client3/rdock/2013.1/src/exe/rbdock.cxx#4 $)

>  <Rbt.Library>
libRbt.so (2013.1, Build901 2013/11/27)

>  <Rbt.Parameter_File>
/export/apps/rDock/src/rDock_2013.1_src/data/scripts/dock_solv.prm

>  <Rbt.Receptor>
prm/blind_docking_40.prm

>  <SCORE>
-6.15887

>  <SCORE.INTER>
-4.81492

>  <SCORE.INTER.CONST>
1

>  <SCORE.INTER.POLAR>
0

>  <SCORE.INTER.ROT>
5

>  <SCORE.INTER.SOLV>
5.87166

>  <SCORE.INTER.VDW>
-12.1005

>  <SCORE.INTER.norm>
-0.481492

>  <SCORE.INTRA>
-1.34395

>  <SCORE.INTRA.DIHEDRAL>
-0.515772

>  <SCORE.INTRA.DIHEDRAL.0>
2.60093

>  <SCORE.INTRA.POLAR>
0

>  <SCORE.INTRA.POLAR.0>
0

>  <SCORE.INTRA.REPUL>
0

>  <SCORE.INTRA.REPUL.0>
0

>  <SCORE.INTRA.SOLV>
-1.56121

>  <SCORE.INTRA.SOLV.lig_0>
-33.7882

>  <SCORE.INTRA.VDW>
-0.30546

>  <SCORE.INTRA.VDW.0>
-0.593976

>  <SCORE.INTRA.norm>
-0.134395

>  <SCORE.RESTR>
0

>  <SCORE.RESTR.CAVITY>
0

>  <SCORE.RESTR.norm>
0

>  <SCORE.SYSTEM>
0

>  <SCORE.SYSTEM.CONST>
0

>  <SCORE.SYSTEM.DIHEDRAL>
0

>  <SCORE.SYSTEM.SOLV>
0

>  <SCORE.SYSTEM.norm>
0

>  <SCORE.heavy>
10

>  <SCORE.norm>
-0.615887

>  <RMSD>
14.839

$$$$
ligand
 OpenBabel11021811473D
libRbt.so/2013.1/901 2013/11/27
 10  9  0  0  0  0  0  0  0  0999 V2000
   19.6945   13.6316   12.8066 N   0  0  0  0  0  0  0  0  0  0  0  0
   20.5592   14.2299   11.7479 C   0  0  2  0  0  0  0  0  0  0  0  0
   19.8607   14.2816   10.4201 C   0  0  0  0  0  0  0  0  0  0  0  0
   18.8291   13.6460   10.2240 O   0  0  0  0  0  0  0  0  0  0  0  0
   21.8833   13.4755   11.6703 C   0  0  0  0  0  0  0  0  0  0  0  0
   22.9725   14.3873   10.6207 S   0  0  0  0  0  0  0  0  0  0  0  0
   24.1426   13.1403   10.1923 C   0  0  0  0  0  0  0  0  0  0  0  0
   24.9798   13.6343    9.0167 C   0  0  0  0  0  0  0  0  0  0  0  0
   25.8039   14.7504    9.4351 N   0  0  0  0  0  0  0  0  0  0  0  0
   20.2611   14.9666    9.4814 O   0  0  0  0  0  0  0  0  0  0  0  0
  2  1  1  1  0  0  0
  2  3  1  0  0  0  0
  2  5  1  0  0  0  0
  3  4  1  0  0  0  0
  3 10  1  0  0  0  0
  5  6  1  0  0  0  0
  6  7  1  0  0  0  0
  7  8  1  0  0  0  0
  8  9  1  0  0  0  0
M  END
>  <CHROM.1>
-13.94658577,-170.04549729,-160.40069887,166.22074904,67.07335613,21.99605873
14.05905358,10.54478536,-2.88157553,0.06504138,-1.27814963

>  <Name>
ligand

>  <RI>
0

>  <Rbt.Current_Directory>
/home/itssahil/PROJECTS/Mol_Feturizer/New_Systems/rnas/3DIG

>  <Rbt.Executable>
rbdock ($Id: //depot/dev/client3/rdock/2013.1/src/exe/rbdock.cxx#4 $)

>  <Rbt.Library>
libRbt.so (2013.1, Build901 2013/11/27)

>  <Rbt.Parameter_File>
/export/apps/rDock/src/rDock_2013.1_src/data/scripts/dock_solv.prm

>  <Rbt.Receptor>
prm/blind_docking_40.prm

>  <SCORE>
-5.67975

>  <SCORE.INTER>
-5.14543

>  <SCORE.INTER.CONST>
1

>  <SCORE.INTER.POLAR>
0

>  <SCORE.INTER.ROT>
5

>  <SCORE.INTER.SOLV>
5.72167

>  <SCORE.INTER.VDW>
-12.2708

>  <SCORE.INTER.norm>
-0.514543

>  <SCORE.INTRA>
-0.534318

>  <SCORE.INTRA.DIHEDRAL>
0.356155

>  <SCORE.INTRA.DIHEDRAL.0>
2.60093

>  <SCORE.INTRA.POLAR>
0

>  <SCORE.INTRA.POLAR.0>
0

>  <SCORE.INTRA.REPUL>
0

>  <SCORE.INTRA.REPUL.0>
0

>  <SCORE.INTRA.SOLV>
-0.765929

>  <SCORE.INTRA.SOLV.lig_0>
-33.7882

>  <SCORE.INTRA.VDW>
-0.329431

>  <SCORE.INTRA.VDW.0>
-0.593976

>  <SCORE.INTRA.norm>
-0.0534318

>  <SCORE.RESTR>
0

>  <SCORE.RESTR.CAVITY>
0

>  <SCORE.RESTR.norm>
0

>  <SCORE.SYSTEM>
0

>  <SCORE.SYSTEM.CONST>
0

>  <SCORE.SYSTEM.DIHEDRAL>
0

>  <SCORE.SYSTEM.SOLV>
0

>  <SCORE.SYSTEM.norm>
0

>  <SCORE.heavy>
10

>  <SCORE.norm>
-0.567975

>  <RMSD>
15.036

$$$$
ligand
 OpenBabel11021811473D
libRbt.so/2013.1/901 2013/11/27
 10  9  0  0  0  0  0  0  0  0999 V2000
   14.3270   27.2163   13.8960 N   0  0  0  0  0  0  0  0  0  0  0  0
   15.1504   26.1447   14.5287 C   0  0  2  0  0  0  0  0  0  0  0  0
   15.5057   25.0630   13.5503 C   0  0  0  0  0  0  0  0  0  0  0  0
   16.6667   24.6875   13.4180 O   0  0  0  0  0  0  0  0  0  0  0  0
   14.4318   25.5938   15.7569 C   0  0  0  0  0  0  0  0  0  0  0  0
   14.4644   26.8348   17.0131 S   0  0  0  0  0  0  0  0  0  0  0  0
   13.6767   25.9842   18.3412 C   0  0  0  0  0  0  0  0  0  0  0  0
   13.6151   26.9110   19.5513 C   0  0  0  0  0  0  0  0  0  0  0  0
   14.9557   27.1883   20.0265 N   0  0  0  0  0  0  0  0  0  0  0  0
   14.6688   24.4883   12.8574 O   0  0  0  0  0  0  0  0  0  0  0  0
  2  1  1  6  0  0  0
  2  3  1  0  0  0  0
  2  5  1  0  0  0  0
  3  4  1  0  0  0  0
  3 10  1  0  0  0  0
  5  6  1  0  0  0  0
  6  7  1  0  0  0  0
  7  8  1  0  0  0  0
  8  9  1  0  0  0  0
M  END
>  <CHROM.1>
129.34573552,-70.49122413,-177.19997304,179.68040734,-65.59039755,14.72498319
26.08005092,15.99046017,1.27374997,0.82066083,-1.64410693

>  <Name>
ligand

>  <RI>
0

>  <Rbt.Current_Directory>
/home/itssahil/PROJECTS/Mol_Feturizer/New_Systems/rnas/3DIG

>  <Rbt.Executable>
rbdock ($Id: //depot/dev/client3/rdock/2013.1/src/exe/rbdock.cxx#4 $)

>  <Rbt.Library>
libRbt.so (2013.1, Build901 2013/11/27)

>  <Rbt.Parameter_File>
/export/apps/rDock/src/rDock_2013.1_src/data/scripts/dock_solv.prm

>  <Rbt.Receptor>
prm/blind_docking_40.prm

>  <SCORE>
-0.3123

>  <SCORE.INTER>
0.482589

>  <SCORE.INTER.CONST>
1

>  <SCORE.INTER.POLAR>
0

>  <SCORE.INTER.ROT>
5

>  <SCORE.INTER.SOLV>
3.68902

>  <SCORE.INTER.VDW>
-7.84128

>  <SCORE.INTER.norm>
0.0482589

>  <SCORE.INTRA>
-0.794889

>  <SCORE.INTRA.DIHEDRAL>
-0.624861

>  <SCORE.INTRA.DIHEDRAL.0>
2.60093

>  <SCORE.INTRA.POLAR>
0

>  <SCORE.INTRA.POLAR.0>
0

>  <SCORE.INTRA.REPUL>
0

>  <SCORE.INTRA.REPUL.0>
0

>  <SCORE.INTRA.SOLV>
-0.0502378

>  <SCORE.INTRA.SOLV.lig_0>
-33.7882

>  <SCORE.INTRA.VDW>
-0.45734

>  <SCORE.INTRA.VDW.0>
-0.593976

>  <SCORE.INTRA.norm>
-0.0794889

>  <SCORE.RESTR>
0

>  <SCORE.RESTR.CAVITY>
0

>  <SCORE.RESTR.norm>
0

>  <SCORE.SYSTEM>
0

>  <SCORE.SYSTEM.CONST>
0

>  <SCORE.SYSTEM.DIHEDRAL>
0

>  <SCORE.SYSTEM.SOLV>
0

>  <SCORE.SYSTEM.norm>
0

>  <SCORE.heavy>
10

>  <SCORE.norm>
-0.03123

>  <RMSD>
20.212

$$$$
ligand
 OpenBabel11021811473D
libRbt.so/2013.1/901 2013/11/27
 10  9  0  0  0  0  0  0  0  0999 V2000
   13.2952   28.5593   13.2068 N   0  0  0  0  0  0  0  0  0  0  0  0
   14.2716   29.2355   14.1100 C   0  0  2  0  0  0  0  0  0  0  0  0
   15.6237   28.5856   14.0570 C   0  0  0  0  0  0  0  0  0  0  0  0
   16.6297   29.2406   13.8011 O   0  0  0  0  0  0  0  0  0  0  0  0
   13.7158   29.2881   15.5302 C   0  0  0  0  0  0  0  0  0  0  0  0
   14.8119   30.2653   16.5115 S   0  0  0  0  0  0  0  0  0  0  0  0
   14.2084   29.9171   18.1308 C   0  0  0  0  0  0  0  0  0  0  0  0
   15.1257   30.5830   19.1516 C   0  0  0  0  0  0  0  0  0  0  0  0
   14.6867   30.2564   20.4933 N   0  0  0  0  0  0  0  0  0  0  0  0
   15.7994   27.3905   14.2844 O   0  0  0  0  0  0  0  0  0  0  0  0
  2  1  1  6  0  0  0
  2  3  1  0  0  0  0
  2  5  1  0  0  0  0
  3  4  1  0  0  0  0
  3 10  1  0  0  0  0
  5  6  1  0  0  0  0
  6  7  1  0  0  0  0
  7  8  1  0  0  0  0
  8  9  1  0  0  0  0
M  END
>  <CHROM.1>
125.35735055,-173.19650535,-168.31589019,174.78952158,-177.23011551,14.84435518
29.42270526,15.98204247,1.50880506,0.12765989,-1.88316058

>  <Name>
ligand

>  <RI>
0

>  <Rbt.Current_Directory>
/home/itssahil/PROJECTS/Mol_Feturizer/New_Systems/rnas/3DIG

>  <Rbt.Executable>
rbdock ($Id: //depot/dev/client3/rdock/2013.1/src/exe/rbdock.cxx#4 $)

>  <Rbt.Library>
libRbt.so (2013.1, Build901 2013/11/27)

>  <Rbt.Parameter_File>
/export/apps/rDock/src/rDock_2013.1_src/data/scripts/dock_solv.prm

>  <Rbt.Receptor>
prm/blind_docking_40.prm

>  <SCORE>
-0.857274

>  <SCORE.INTER>
0.757151

>  <SCORE.INTER.CONST>
1

>  <SCORE.INTER.POLAR>
0

>  <SCORE.INTER.ROT>
5

>  <SCORE.INTER.SOLV>
4.16671

>  <SCORE.INTER.VDW>
-7.81747

>  <SCORE.INTER.norm>
0.0757151

>  <SCORE.INTRA>
-1.61442

>  <SCORE.INTRA.DIHEDRAL>
-0.645481

>  <SCORE.INTRA.DIHEDRAL.0>
2.60093

>  <SCORE.INTRA.POLAR>
0

>  <SCORE.INTRA.POLAR.0>
0

>  <SCORE.INTRA.REPUL>
0

>  <SCORE.INTRA.REPUL.0>
0

>  <SCORE.INTRA.SOLV>
-1.58197

>  <SCORE.INTRA.SOLV.lig_0>
-33.7882

>  <SCORE.INTRA.VDW>
-0.5007

>  <SCORE.INTRA.VDW.0>
-0.593976

>  <SCORE.INTRA.norm>
-0.161442

>  <SCORE.RESTR>
0

>  <SCORE.RESTR.CAVITY>
0

>  <SCORE.RESTR.norm>
0

>  <SCORE.SYSTEM>
0

>  <SCORE.SYSTEM.CONST>
0

>  <SCORE.SYSTEM.DIHEDRAL>
0

>  <SCORE.SYSTEM.SOLV>
0

>  <SCORE.SYSTEM.norm>
0

>  <SCORE.heavy>
10

>  <SCORE.norm>
-0.0857274

>  <RMSD>
21.978

$$$$
ligand
 OpenBabel11021811473D
libRbt.so/2013.1/901 2013/11/27
 10  9  0  0  0  0  0  0  0  0999 V2000
   18.4392   32.4857   12.0398 N   0  0  0  0  0  0  0  0  0  0  0  0
   18.6758   32.2277   13.4903 C   0  0  2  0  0  0  0  0  0  0  0  0
   18.2610   30.8401   13.8852 C   0  0  0  0  0  0  0  0  0  0  0  0
   18.6808   30.3250   14.9172 O   0  0  0  0  0  0  0  0  0  0  0  0
   17.9787   33.2952   14.3287 C   0  0  0  0  0  0  0  0  0  0  0  0
   18.5106   33.1106   16.0027 S   0  0  0  0  0  0  0  0  0  0  0  0
   17.3223   34.1071   16.8409 C   0  0  0  0  0  0  0  0  0  0  0  0
   17.4886   33.9112   18.3445 C   0  0  0  0  0  0  0  0  0  0  0  0
   16.4591   34.6452   19.0525 N   0  0  0  0  0  0  0  0  0  0  0  0
   17.4764   30.1640   13.2233 O   0  0  0  0  0  0  0  0  0  0  0  0
  2  1  1  6  0  0  0
  2  3  1  0  0  0  0
  2  5  1  0  0  0  0
  3  4  1  0  0  0  0
  3 10  1  0  0  0  0
  5  6  1  0  0  0  0
  6  7  1  0  0  0  0
  7  8  1  0  0  0  0
  8  9  1  0  0  0  0
M  END
>  <CHROM.1>
161.04696020,-170.49370660,-166.06701568,171.64967732,-175.86192104,17.99000693
32.54558042,15.30134987,-0.43217404,1.37396607,-0.11602026

>  <Name>
ligand

>  <RI>
0

>  <Rbt.Current_Directory>
/home/itssahil/PROJECTS/Mol_Feturizer/New_Systems/rnas/3DIG

>  <Rbt.Executable>
rbdock ($Id: //depot/dev/client3/rdock/2013.1/src/exe/rbdock.cxx#4 $)

>  <Rbt.Library>
libRbt.so (2013.1, Build901 2013/11/27)

>  <Rbt.Parameter_File>
/export/apps/rDock/src/rDock_2013.1_src/data/scripts/dock_solv.prm

>  <Rbt.Receptor>
prm/blind_docking_100.prm

>  <SCORE>
-3.41882

>  <SCORE.INTER>
-2.15591

>  <SCORE.INTER.CONST>
1

>  <SCORE.INTER.POLAR>
0

>  <SCORE.INTER.ROT>
5

>  <SCORE.INTER.SOLV>
4.64965

>  <SCORE.INTER.VDW>
-9.92049

>  <SCORE.INTER.norm>
-0.215591

>  <SCORE.INTRA>
-1.26291

>  <SCORE.INTRA.DIHEDRAL>
-0.329326

>  <SCORE.INTRA.DIHEDRAL.0>
2.60093

>  <SCORE.INTRA.POLAR>
0

>  <SCORE.INTRA.POLAR.0>
0

>  <SCORE.INTRA.REPUL>
0

>  <SCORE.INTRA.REPUL.0>
0

>  <SCORE.INTRA.SOLV>
-1.56354

>  <SCORE.INTRA.SOLV.lig_0>
-33.7882

>  <SCORE.INTRA.VDW>
-0.316478

>  <SCORE.INTRA.VDW.0>
-0.593976

>  <SCORE.INTRA.norm>
-0.126291

>  <SCORE.RESTR>
0

>  <SCORE.RESTR.CAVITY>
0

>  <SCORE.RESTR.norm>
0

>  <SCORE.SYSTEM>
0

>  <SCORE.SYSTEM.CONST>
0

>  <SCORE.SYSTEM.DIHEDRAL>
0

>  <SCORE.SYSTEM.SOLV>
0

>  <SCORE.SYSTEM.norm>
0

>  <SCORE.heavy>
10

>  <SCORE.norm>
-0.341882

>  <RMSD>
22.249

$$$$
ligand
 OpenBabel11021811473D
libRbt.so/2013.1/901 2013/11/27
 10  9  0  0  0  0  0  0  0  0999 V2000
   16.0806   32.8766   22.5510 N   0  0  0  0  0  0  0  0  0  0  0  0
   17.0702   33.5216   23.4626 C   0  0  2  0  0  0  0  0  0  0  0  0
   18.3491   33.8561   22.7511 C   0  0  0  0  0  0  0  0  0  0  0  0
   18.8038   33.1130   21.8864 O   0  0  0  0  0  0  0  0  0  0  0  0
   17.3074   32.6362   24.6825 C   0  0  0  0  0  0  0  0  0  0  0  0
   15.8137   32.5892   25.6238 S   0  0  0  0  0  0  0  0  0  0  0  0
   16.3905   31.8715   27.1271 C   0  0  0  0  0  0  0  0  0  0  0  0
   15.2796   31.9531   28.1693 C   0  0  0  0  0  0  0  0  0  0  0  0
   15.7388   31.3880   29.4221 N   0  0  0  0  0  0  0  0  0  0  0  0
   18.9878   34.8825   22.9731 O   0  0  0  0  0  0  0  0  0  0  0  0
  2  1  1  6  0  0  0
  2  3  1  0  0  0  0
  2  5  1  0  0  0  0
  3  4  1  0  0  0  0
  3 10  1  0  0  0  0
  5  6  1  0  0  0  0
  6  7  1  0  0  0  0
  7  8  1  0  0  0  0
  8  9  1  0  0  0  0
M  END
>  <CHROM.1>
-36.76470134,-66.77306607,-167.17627190,170.86248928,-179.07240381,16.87960620
32.84862233,24.92586646,1.11882746,-0.40800083,-1.42305645

>  <Name>
ligand

>  <RI>
0

>  <Rbt.Current_Directory>
/home/itssahil/PROJECTS/Mol_Feturizer/New_Systems/rnas/3DIG

>  <Rbt.Executable>
rbdock ($Id: //depot/dev/client3/rdock/2013.1/src/exe/rbdock.cxx#4 $)

>  <Rbt.Library>
libRbt.so (2013.1, Build901 2013/11/27)

>  <Rbt.Parameter_File>
/export/apps/rDock/src/rDock_2013.1_src/data/scripts/dock_solv.prm

>  <Rbt.Receptor>
prm/blind_docking_100.prm

>  <SCORE>
-3.18387

>  <SCORE.INTER>
-2.07783

>  <SCORE.INTER.CONST>
1

>  <SCORE.INTER.POLAR>
0

>  <SCORE.INTER.ROT>
5

>  <SCORE.INTER.SOLV>
5.89685

>  <SCORE.INTER.VDW>
-10.2842

>  <SCORE.INTER.norm>
-0.207783

>  <SCORE.INTRA>
-1.10604

>  <SCORE.INTRA.DIHEDRAL>
-0.508921

>  <SCORE.INTRA.DIHEDRAL.0>
2.60093

>  <SCORE.INTRA.POLAR>
0

>  <SCORE.INTRA.POLAR.0>
0

>  <SCORE.INTRA.REPUL>
0

>  <SCORE.INTRA.REPUL.0>
0

>  <SCORE.INTRA.SOLV>
-0.886725

>  <SCORE.INTRA.SOLV.lig_0>
-33.7882

>  <SCORE.INTRA.VDW>
-0.408216

>  <SCORE.INTRA.VDW.0>
-0.593976

>  <SCORE.INTRA.norm>
-0.110604

>  <SCORE.RESTR>
0

>  <SCORE.RESTR.CAVITY>
0

>  <SCORE.RESTR.norm>
0

>  <SCORE.SYSTEM>
0

>  <SCORE.SYSTEM.CONST>
0

>  <SCORE.SYSTEM.DIHEDRAL>
0

>  <SCORE.SYSTEM.SOLV>
0

>  <SCORE.SYSTEM.norm>
0

>  <SCORE.heavy>
10

>  <SCORE.norm>
-0.318387

>  <RMSD>
22.441

$$$$
ligand
 OpenBabel11021811473D
libRbt.so/2013.1/901 2013/11/27
 10  9  0  0  0  0  0  0  0  0999 V2000
   10.9239   27.7922   16.2787 N   0  0  0  0  0  0  0  0  0  0  0  0
   11.4145   29.1227   15.8145 C   0  0  2  0  0  0  0  0  0  0  0  0
   10.6266   29.6301   14.6418 C   0  0  0  0  0  0  0  0  0  0  0  0
    9.7027   28.9738   14.1701 O   0  0  0  0  0  0  0  0  0  0  0  0
   12.9086   29.0496   15.5131 C   0  0  0  0  0  0  0  0  0  0  0  0
   13.7481   28.6193   17.0062 S   0  0  0  0  0  0  0  0  0  0  0  0
   13.6626   30.1440   17.8870 C   0  0  0  0  0  0  0  0  0  0  0  0
   14.2449   29.9396   19.2820 C   0  0  0  0  0  0  0  0  0  0  0  0
   15.6576   29.6323   19.1845 N   0  0  0  0  0  0  0  0  0  0  0  0
   10.8424   30.7184   14.1130 O   0  0  0  0  0  0  0  0  0  0  0  0
  2  1  1  6  0  0  0
  2  3  1  0  0  0  0
  2  5  1  0  0  0  0
  3  4  1  0  0  0  0
  3 10  1  0  0  0  0
  5  6  1  0  0  0  0
  6  7  1  0  0  0  0
  7  8  1  0  0  0  0
  8  9  1  0  0  0  0
M  END
>  <CHROM.1>
-0.14603952,-61.27210345,-74.71878934,175.25417376,65.18978667,12.50484213
29.28832896,16.42870798,2.94189237,-0.74669452,-0.31861108

>  <Name>
ligand

>  <RI>
0

>  <Rbt.Current_Directory>
/home/itssahil/PROJECTS/Mol_Feturizer/New_Systems/rnas/3DIG

>  <Rbt.Executable>
rbdock ($Id: //depot/dev/client3/rdock/2013.1/src/exe/rbdock.cxx#4 $)

>  <Rbt.Library>
libRbt.so (2013.1, Build901 2013/11/27)

>  <Rbt.Parameter_File>
/export/apps/rDock/src/rDock_2013.1_src/data/scripts/dock_solv.prm

>  <Rbt.Receptor>
prm/blind_docking_40.prm

>  <SCORE>
0.430828

>  <SCORE.INTER>
0.572391

>  <SCORE.INTER.CONST>
1

>  <SCORE.INTER.POLAR>
0

>  <SCORE.INTER.ROT>
5

>  <SCORE.INTER.SOLV>
5.02978

>  <SCORE.INTER.VDW>
-8.22833

>  <SCORE.INTER.norm>
0.0572391

>  <SCORE.INTRA>
-0.141563

>  <SCORE.INTRA.DIHEDRAL>
-0.61507

>  <SCORE.INTRA.DIHEDRAL.0>
2.60093

>  <SCORE.INTRA.POLAR>
0

>  <SCORE.INTRA.POLAR.0>
0

>  <SCORE.INTRA.REPUL>
0

>  <SCORE.INTRA.REPUL.0>
0

>  <SCORE.INTRA.SOLV>
0.600744

>  <SCORE.INTRA.SOLV.lig_0>
-33.7882

>  <SCORE.INTRA.VDW>
-0.1344

>  <SCORE.INTRA.VDW.0>
-0.593976

>  <SCORE.INTRA.norm>
-0.0141563

>  <SCORE.RESTR>
0

>  <SCORE.RESTR.CAVITY>
0

>  <SCORE.RESTR.norm>
0

>  <SCORE.SYSTEM>
0

>  <SCORE.SYSTEM.CONST>
0

>  <SCORE.SYSTEM.DIHEDRAL>
0

>  <SCORE.SYSTEM.SOLV>
0

>  <SCORE.SYSTEM.norm>
0

>  <SCORE.heavy>
10

>  <SCORE.norm>
0.0430828

>  <RMSD>
23.926

$$$$
ligand
 OpenBabel11021811473D
libRbt.so/2013.1/901 2013/11/27
 10  9  0  0  0  0  0  0  0  0999 V2000
   16.7923   33.7982   17.3209 N   0  0  0  0  0  0  0  0  0  0  0  0
   16.6420   34.2197   15.8975 C   0  0  2  0  0  0  0  0  0  0  0  0
   15.3193   33.7973   15.3270 C   0  0  0  0  0  0  0  0  0  0  0  0
   15.0422   32.6098   15.1869 O   0  0  0  0  0  0  0  0  0  0  0  0
   17.8152   33.6967   15.0738 C   0  0  0  0  0  0  0  0  0  0  0  0
   17.6856   34.3708   13.4465 S   0  0  0  0  0  0  0  0  0  0  0  0
   18.9633   33.4841   12.6165 C   0  0  0  0  0  0  0  0  0  0  0  0
   19.0077   33.9336   11.1595 C   0  0  0  0  0  0  0  0  0  0  0  0
   20.0141   33.1769   10.4424 N   0  0  0  0  0  0  0  0  0  0  0  0
   14.4483   34.5989   14.9961 O   0  0  0  0  0  0  0  0  0  0  0  0
  2  1  1  1  0  0  0
  2  3  1  0  0  0  0
  2  5  1  0  0  0  0
  3  4  1  0  0  0  0
  3 10  1  0  0  0  0
  5  6  1  0  0  0  0
  6  7  1  0  0  0  0
  7  8  1  0  0  0  0
  8  9  1  0  0  0  0
M  END
>  <CHROM.1>
-65.27085204,-173.75396436,-172.34904919,179.79228683,-177.60217140,17.19740968
33.82960125,14.06483126,-2.26456670,0.02876196,-1.58696176

>  <Name>
ligand

>  <RI>
0

>  <Rbt.Current_Directory>
/home/itssahil/PROJECTS/Mol_Feturizer/New_Systems/rnas/3DIG

>  <Rbt.Executable>
rbdock ($Id: //depot/dev/client3/rdock/2013.1/src/exe/rbdock.cxx#4 $)

>  <Rbt.Library>
libRbt.so (2013.1, Build901 2013/11/27)

>  <Rbt.Parameter_File>
/export/apps/rDock/src/rDock_2013.1_src/data/scripts/dock_solv.prm

>  <Rbt.Receptor>
prm/blind_docking_60.prm

>  <SCORE>
-5.03254

>  <SCORE.INTER>
-3.44493

>  <SCORE.INTER.CONST>
1

>  <SCORE.INTER.POLAR>
0

>  <SCORE.INTER.ROT>
5

>  <SCORE.INTER.SOLV>
7.56807

>  <SCORE.INTER.VDW>
-11.7526

>  <SCORE.INTER.norm>
-0.344493

>  <SCORE.INTRA>
-1.58761

>  <SCORE.INTRA.DIHEDRAL>
-0.851563

>  <SCORE.INTRA.DIHEDRAL.0>
2.60093

>  <SCORE.INTRA.POLAR>
0

>  <SCORE.INTRA.POLAR.0>
0

>  <SCORE.INTRA.REPUL>
0

>  <SCORE.INTRA.REPUL.0>
0

>  <SCORE.INTRA.SOLV>
-1.57102

>  <SCORE.INTRA.SOLV.lig_0>
-33.7882

>  <SCORE.INTRA.VDW>
-0.376318

>  <SCORE.INTRA.VDW.0>
-0.593976

>  <SCORE.INTRA.norm>
-0.158761

>  <SCORE.RESTR>
0

>  <SCORE.RESTR.CAVITY>
0

>  <SCORE.RESTR.norm>
0

>  <SCORE.SYSTEM>
0

>  <SCORE.SYSTEM.CONST>
0

>  <SCORE.SYSTEM.DIHEDRAL>
0

>  <SCORE.SYSTEM.SOLV>
0

>  <SCORE.SYSTEM.norm>
0

>  <SCORE.heavy>
10

>  <SCORE.norm>
-0.503254

>  <RMSD>
23.995

$$$$
ligand
 OpenBabel11021811473D
libRbt.so/2013.1/901 2013/11/27
 10  9  0  0  0  0  0  0  0  0999 V2000
   14.8236   37.8546   20.4288 N   0  0  0  0  0  0  0  0  0  0  0  0
   15.9871   37.7267   21.3542 C   0  0  2  0  0  0  0  0  0  0  0  0
   16.8056   38.9843   21.3988 C   0  0  0  0  0  0  0  0  0  0  0  0
   17.5755   39.2695   20.4864 O   0  0  0  0  0  0  0  0  0  0  0  0
   16.8250   36.5104   20.9708 C   0  0  0  0  0  0  0  0  0  0  0  0
   18.1683   36.3893   22.1110 S   0  0  0  0  0  0  0  0  0  0  0  0
   18.5021   34.6594   22.0490 C   0  0  0  0  0  0  0  0  0  0  0  0
   17.5262   33.9366   22.9722 C   0  0  0  0  0  0  0  0  0  0  0  0
   17.7419   32.5059   22.8919 N   0  0  0  0  0  0  0  0  0  0  0  0
   16.7359   39.7938   22.3210 O   0  0  0  0  0  0  0  0  0  0  0  0
  2  1  1  6  0  0  0
  2  3  1  0  0  0  0
  2  5  1  0  0  0  0
  3  4  1  0  0  0  0
  3 10  1  0  0  0  0
  5  6  1  0  0  0  0
  6  7  1  0  0  0  0
  7  8  1  0  0  0  0
  8  9  1  0  0  0  0
M  END
>  <CHROM.1>
-76.69930756,-179.01970093,153.63192230,-82.32486781,177.43642908,17.20614786
36.75549336,21.74382848,1.84160866,-0.39079881,-0.16046995

>  <Name>
ligand

>  <RI>
0

>  <Rbt.Current_Directory>
/home/itssahil/PROJECTS/Mol_Feturizer/New_Systems/rnas/3DIG

>  <Rbt.Executable>
rbdock ($Id: //depot/dev/client3/rdock/2013.1/src/exe/rbdock.cxx#4 $)

>  <Rbt.Library>
libRbt.so (2013.1, Build901 2013/11/27)

>  <Rbt.Parameter_File>
/export/apps/rDock/src/rDock_2013.1_src/data/scripts/dock_solv.prm

>  <Rbt.Receptor>
prm/blind_docking_100.prm

>  <SCORE>
-5.55505

>  <SCORE.INTER>
-5.06472

>  <SCORE.INTER.CONST>
1

>  <SCORE.INTER.POLAR>
0

>  <SCORE.INTER.ROT>
5

>  <SCORE.INTER.SOLV>
6.70147

>  <SCORE.INTER.VDW>
-12.5436

>  <SCORE.INTER.norm>
-0.506472

>  <SCORE.INTRA>
-0.490336

>  <SCORE.INTRA.DIHEDRAL>
0.596699

>  <SCORE.INTRA.DIHEDRAL.0>
2.60093

>  <SCORE.INTRA.POLAR>
0

>  <SCORE.INTRA.POLAR.0>
0

>  <SCORE.INTRA.REPUL>
0

>  <SCORE.INTRA.REPUL.0>
0

>  <SCORE.INTRA.SOLV>
-1.41557

>  <SCORE.INTRA.SOLV.lig_0>
-33.7882

>  <SCORE.INTRA.VDW>
-0.0809023

>  <SCORE.INTRA.VDW.0>
-0.593976

>  <SCORE.INTRA.norm>
-0.0490336

>  <SCORE.RESTR>
0

>  <SCORE.RESTR.CAVITY>
0

>  <SCORE.RESTR.norm>
0

>  <SCORE.SYSTEM>
0

>  <SCORE.SYSTEM.CONST>
0

>  <SCORE.SYSTEM.DIHEDRAL>
0

>  <SCORE.SYSTEM.SOLV>
0

>  <SCORE.SYSTEM.norm>
0

>  <SCORE.heavy>
10

>  <SCORE.norm>
-0.555505

>  <RMSD>
25.208

$$$$
ligand
 OpenBabel11021811473D
libRbt.so/2013.1/901 2013/11/27
 10  9  0  0  0  0  0  0  0  0999 V2000
   13.2576   38.6150   20.3173 N   0  0  0  0  0  0  0  0  0  0  0  0
   14.2013   38.2366   21.4094 C   0  0  2  0  0  0  0  0  0  0  0  0
   15.3370   39.2110   21.5282 C   0  0  0  0  0  0  0  0  0  0  0  0
   15.3314   40.0855   22.3895 O   0  0  0  0  0  0  0  0  0  0  0  0
   14.6918   36.8068   21.2004 C   0  0  0  0  0  0  0  0  0  0  0  0
   13.2978   35.7280   21.3100 S   0  0  0  0  0  0  0  0  0  0  0  0
   14.0983   34.1676   21.4897 C   0  0  0  0  0  0  0  0  0  0  0  0
   13.0516   33.1153   21.8418 C   0  0  0  0  0  0  0  0  0  0  0  0
   13.6894   31.8250   22.0097 N   0  0  0  0  0  0  0  0  0  0  0  0
   16.3265   39.1751   20.8000 O   0  0  0  0  0  0  0  0  0  0  0  0
  2  1  1  6  0  0  0
  2  3  1  0  0  0  0
  2  5  1  0  0  0  0
  3  4  1  0  0  0  0
  3 10  1  0  0  0  0
  5  6  1  0  0  0  0
  6  7  1  0  0  0  0
  7  8  1  0  0  0  0
  8  9  1  0  0  0  0
M  END
>  <CHROM.1>
100.03494746,-63.09325549,-165.24155121,170.38171705,-179.35420917,14.23696997
36.61835076,21.41910412,1.27934024,-0.30937235,-0.14389743

>  <Name>
ligand

>  <RI>
0

>  <Rbt.Current_Directory>
/home/itssahil/PROJECTS/Mol_Feturizer/New_Systems/rnas/3DIG

>  <Rbt.Executable>
rbdock ($Id: //depot/dev/client3/rdock/2013.1/src/exe/rbdock.cxx#4 $)

>  <Rbt.Library>
libRbt.so (2013.1, Build901 2013/11/27)

>  <Rbt.Parameter_File>
/export/apps/rDock/src/rDock_2013.1_src/data/scripts/dock_solv.prm

>  <Rbt.Receptor>
prm/blind_docking_80.prm

>  <SCORE>
-4.00119

>  <SCORE.INTER>
-3.12877

>  <SCORE.INTER.CONST>
1

>  <SCORE.INTER.POLAR>
0

>  <SCORE.INTER.ROT>
5

>  <SCORE.INTER.SOLV>
5.75961

>  <SCORE.INTER.VDW>
-10.939

>  <SCORE.INTER.norm>
-0.312877

>  <SCORE.INTRA>
-0.87242

>  <SCORE.INTRA.DIHEDRAL>
-0.53768

>  <SCORE.INTRA.DIHEDRAL.0>
2.60093

>  <SCORE.INTRA.POLAR>
0

>  <SCORE.INTRA.POLAR.0>
0

>  <SCORE.INTRA.REPUL>
0

>  <SCORE.INTRA.REPUL.0>
0

>  <SCORE.INTRA.SOLV>
-0.867104

>  <SCORE.INTRA.SOLV.lig_0>
-33.7882

>  <SCORE.INTRA.VDW>
-0.170028

>  <SCORE.INTRA.VDW.0>
-0.593976

>  <SCORE.INTRA.norm>
-0.087242

>  <SCORE.RESTR>
0

>  <SCORE.RESTR.CAVITY>
0

>  <SCORE.RESTR.norm>
0

>  <SCORE.SYSTEM>
0

>  <SCORE.SYSTEM.CONST>
0

>  <SCORE.SYSTEM.DIHEDRAL>
0

>  <SCORE.SYSTEM.SOLV>
0

>  <SCORE.SYSTEM.norm>
0

>  <SCORE.heavy>
10

>  <SCORE.norm>
-0.400119

>  <RMSD>
26.645

$$$$
ligand
 OpenBabel11021811473D
libRbt.so/2013.1/901 2013/11/27
 10  9  0  0  0  0  0  0  0  0999 V2000
   -2.8502   36.8201    8.1518 N   0  0  0  0  0  0  0  0  0  0  0  0
   -3.9241   37.1610    7.1735 C   0  0  2  0  0  0  0  0  0  0  0  0
   -3.6754   36.5358    5.8316 C   0  0  0  0  0  0  0  0  0  0  0  0
   -2.5855   36.0428    5.5567 O   0  0  0  0  0  0  0  0  0  0  0  0
   -4.0805   38.6760    7.0803 C   0  0  0  0  0  0  0  0  0  0  0  0
   -2.6380   39.3285    6.2976 S   0  0  0  0  0  0  0  0  0  0  0  0
   -1.5968   39.6011    7.6938 C   0  0  0  0  0  0  0  0  0  0  0  0
   -0.3395   40.3327    7.2346 C   0  0  0  0  0  0  0  0  0  0  0  0
    0.5158   40.6018    8.3730 N   0  0  0  0  0  0  0  0  0  0  0  0
   -4.5377   36.4634    4.9587 O   0  0  0  0  0  0  0  0  0  0  0  0
  2  1  1  1  0  0  0
  2  3  1  0  0  0  0
  2  5  1  0  0  0  0
  3  4  1  0  0  0  0
  3 10  1  0  0  0  0
  5  6  1  0  0  0  0
  6  7  1  0  0  0  0
  7  8  1  0  0  0  0
  8  9  1  0  0  0  0
M  END
>  <CHROM.1>
-13.09834975,69.12379311,-89.14700471,-173.17280374,178.39487520,-2.58109663
38.26861732,6.74537349,-2.53146234,-0.69584999,-0.27590431

>  <Name>
ligand

>  <RI>
0

>  <Rbt.Current_Directory>
/home/itssahil/PROJECTS/Mol_Feturizer/New_Systems/rnas/3DIG

>  <Rbt.Executable>
rbdock ($Id: //depot/dev/client3/rdock/2013.1/src/exe/rbdock.cxx#4 $)

>  <Rbt.Library>
libRbt.so (2013.1, Build901 2013/11/27)

>  <Rbt.Parameter_File>
/export/apps/rDock/src/rDock_2013.1_src/data/scripts/dock_solv.prm

>  <Rbt.Receptor>
prm/blind_docking_60.prm

>  <SCORE>
-3.93443

>  <SCORE.INTER>
-4.05528

>  <SCORE.INTER.CONST>
1

>  <SCORE.INTER.POLAR>
0

>  <SCORE.INTER.ROT>
5

>  <SCORE.INTER.SOLV>
8.03377

>  <SCORE.INTER.VDW>
-12.3148

>  <SCORE.INTER.norm>
-0.405528

>  <SCORE.INTRA>
0.12085

>  <SCORE.INTRA.DIHEDRAL>
0.467335

>  <SCORE.INTRA.DIHEDRAL.0>
2.60093

>  <SCORE.INTRA.POLAR>
0

>  <SCORE.INTRA.POLAR.0>
0

>  <SCORE.INTRA.REPUL>
0

>  <SCORE.INTRA.REPUL.0>
0

>  <SCORE.INTRA.SOLV>
0.616491

>  <SCORE.INTRA.SOLV.lig_0>
-33.7882

>  <SCORE.INTRA.VDW>
-0.421063

>  <SCORE.INTRA.VDW.0>
-0.593976

>  <SCORE.INTRA.norm>
0.012085

>  <SCORE.RESTR>
0

>  <SCORE.RESTR.CAVITY>
0

>  <SCORE.RESTR.norm>
0

>  <SCORE.SYSTEM>
0

>  <SCORE.SYSTEM.CONST>
0

>  <SCORE.SYSTEM.DIHEDRAL>
0

>  <SCORE.SYSTEM.SOLV>
0

>  <SCORE.SYSTEM.norm>
0

>  <SCORE.heavy>
10

>  <SCORE.norm>
-0.393443

>  <RMSD>
42.952

$$$$
ligand
 OpenBabel11021811473D
libRbt.so/2013.1/901 2013/11/27
 10  9  0  0  0  0  0  0  0  0999 V2000
   -4.7833   39.7892   11.2921 N   0  0  0  0  0  0  0  0  0  0  0  0
   -3.7438   40.8314   11.5366 C   0  0  2  0  0  0  0  0  0  0  0  0
   -4.2535   42.2102   11.2324 C   0  0  0  0  0  0  0  0  0  0  0  0
   -5.0200   42.4075   10.2942 O   0  0  0  0  0  0  0  0  0  0  0  0
   -2.4800   40.5002   10.7482 C   0  0  0  0  0  0  0  0  0  0  0  0
   -1.2174   41.6349   11.2355 S   0  0  0  0  0  0  0  0  0  0  0  0
   -0.0316   41.3824    9.9556 C   0  0  0  0  0  0  0  0  0  0  0  0
    0.7640   42.6693    9.7612 C   0  0  0  0  0  0  0  0  0  0  0  0
    1.8183   42.4533    8.7908 N   0  0  0  0  0  0  0  0  0  0  0  0
   -3.9566   43.1952   11.9049 O   0  0  0  0  0  0  0  0  0  0  0  0
  2  1  1  6  0  0  0
  2  3  1  0  0  0  0
  2  5  1  0  0  0  0
  3  4  1  0  0  0  0
  3 10  1  0  0  0  0
  5  6  1  0  0  0  0
  6  7  1  0  0  0  0
  7  8  1  0  0  0  0
  8  9  1  0  0  0  0
M  END
>  <CHROM.1>
-36.56442656,-172.58024081,-165.71761448,151.75822395,175.33035898,-2.18946778
41.72560958,10.73679106,-3.00671052,0.27908635,-0.08299738

>  <Name>
ligand

>  <RI>
0

>  <Rbt.Current_Directory>
/home/itssahil/PROJECTS/Mol_Feturizer/New_Systems/rnas/3DIG

>  <Rbt.Executable>
rbdock ($Id: //depot/dev/client3/rdock/2013.1/src/exe/rbdock.cxx#4 $)

>  <Rbt.Library>
libRbt.so (2013.1, Build901 2013/11/27)

>  <Rbt.Parameter_File>
/export/apps/rDock/src/rDock_2013.1_src/data/scripts/dock_solv.prm

>  <Rbt.Receptor>
prm/blind_docking_100.prm

>  <SCORE>
-7.37387

>  <SCORE.INTER>
-6.40544

>  <SCORE.INTER.CONST>
1

>  <SCORE.INTER.POLAR>
0

>  <SCORE.INTER.ROT>
5

>  <SCORE.INTER.SOLV>
8.7069

>  <SCORE.INTER.VDW>
-14.1059

>  <SCORE.INTER.norm>
-0.640544

>  <SCORE.INTRA>
-0.968426

>  <SCORE.INTRA.DIHEDRAL>
0.639033

>  <SCORE.INTRA.DIHEDRAL.0>
2.60093

>  <SCORE.INTRA.POLAR>
0

>  <SCORE.INTRA.POLAR.0>
0

>  <SCORE.INTRA.REPUL>
0

>  <SCORE.INTRA.REPUL.0>
0

>  <SCORE.INTRA.SOLV>
-1.55455

>  <SCORE.INTRA.SOLV.lig_0>
-33.7882

>  <SCORE.INTRA.VDW>
-0.510669

>  <SCORE.INTRA.VDW.0>
-0.593976

>  <SCORE.INTRA.norm>
-0.0968426

>  <SCORE.RESTR>
0

>  <SCORE.RESTR.CAVITY>
0

>  <SCORE.RESTR.norm>
0

>  <SCORE.SYSTEM>
0

>  <SCORE.SYSTEM.CONST>
0

>  <SCORE.SYSTEM.DIHEDRAL>
0

>  <SCORE.SYSTEM.SOLV>
0

>  <SCORE.SYSTEM.norm>
0

>  <SCORE.heavy>
10

>  <SCORE.norm>
-0.737387

>  <RMSD>
43.587

$$$$
ligand
 OpenBabel11021811473D
libRbt.so/2013.1/901 2013/11/27
 10  9  0  0  0  0  0  0  0  0999 V2000
   -5.1186   40.6678   12.9353 N   0  0  0  0  0  0  0  0  0  0  0  0
   -4.0341   41.4135   12.2321 C   0  0  2  0  0  0  0  0  0  0  0  0
   -4.5492   42.1395   11.0234 C   0  0  0  0  0  0  0  0  0  0  0  0
   -4.9768   41.5238   10.0514 O   0  0  0  0  0  0  0  0  0  0  0  0
   -2.8901   40.4645   11.8869 C   0  0  0  0  0  0  0  0  0  0  0  0
   -1.5425   41.4300   11.2779 S   0  0  0  0  0  0  0  0  0  0  0  0
   -1.0733   40.4903    9.8621 C   0  0  0  0  0  0  0  0  0  0  0  0
    0.1917   41.0986    9.2648 C   0  0  0  0  0  0  0  0  0  0  0  0
    0.4976   40.4554    8.0029 N   0  0  0  0  0  0  0  0  0  0  0  0
   -4.5923   43.3656   10.9490 O   0  0  0  0  0  0  0  0  0  0  0  0
  2  1  1  6  0  0  0
  2  3  1  0  0  0  0
  2  5  1  0  0  0  0
  3  4  1  0  0  0  0
  3 10  1  0  0  0  0
  5  6  1  0  0  0  0
  6  7  1  0  0  0  0
  7  8  1  0  0  0  0
  8  9  1  0  0  0  0
M  END
>  <CHROM.1>
-66.14432850,-171.75826688,-134.48584982,-174.28863823,-172.49500838,-2.68461872
41.33626824,10.78959186,-2.78939966,0.39151566,-1.13249127

>  <Name>
ligand

>  <RI>
0

>  <Rbt.Current_Directory>
/home/itssahil/PROJECTS/Mol_Feturizer/New_Systems/rnas/3DIG

>  <Rbt.Executable>
rbdock ($Id: //depot/dev/client3/rdock/2013.1/src/exe/rbdock.cxx#4 $)

>  <Rbt.Library>
libRbt.so (2013.1, Build901 2013/11/27)

>  <Rbt.Parameter_File>
/export/apps/rDock/src/rDock_2013.1_src/data/scripts/dock_solv.prm

>  <Rbt.Receptor>
prm/blind_docking_80.prm

>  <SCORE>
-7.34918

>  <SCORE.INTER>
-6.73415

>  <SCORE.INTER.CONST>
1

>  <SCORE.INTER.POLAR>
0

>  <SCORE.INTER.ROT>
5

>  <SCORE.INTER.SOLV>
6.38472

>  <SCORE.INTER.VDW>
-13.551

>  <SCORE.INTER.norm>
-0.673415

>  <SCORE.INTRA>
-0.61503

>  <SCORE.INTRA.DIHEDRAL>
1.46707

>  <SCORE.INTRA.DIHEDRAL.0>
2.60093

>  <SCORE.INTRA.POLAR>
0

>  <SCORE.INTRA.POLAR.0>
0

>  <SCORE.INTRA.REPUL>
0

>  <SCORE.INTRA.REPUL.0>
0

>  <SCORE.INTRA.SOLV>
-1.56663

>  <SCORE.INTRA.SOLV.lig_0>
-33.7882

>  <SCORE.INTRA.VDW>
-0.565249

>  <SCORE.INTRA.VDW.0>
-0.593976

>  <SCORE.INTRA.norm>
-0.061503

>  <SCORE.RESTR>
0

>  <SCORE.RESTR.CAVITY>
0

>  <SCORE.RESTR.norm>
0

>  <SCORE.SYSTEM>
0

>  <SCORE.SYSTEM.CONST>
0

>  <SCORE.SYSTEM.DIHEDRAL>
0

>  <SCORE.SYSTEM.SOLV>
0

>  <SCORE.SYSTEM.norm>
0

>  <SCORE.heavy>
10

>  <SCORE.norm>
-0.734918

>  <RMSD>
43.703

$$$$
ligand
 OpenBabel11021811473D
libRbt.so/2013.1/901 2013/11/27
 10  9  0  0  0  0  0  0  0  0999 V2000
   -3.9496   43.0840   11.4978 N   0  0  0  0  0  0  0  0  0  0  0  0
   -4.6579   41.8116   11.8231 C   0  0  2  0  0  0  0  0  0  0  0  0
   -4.1522   41.2017   13.0982 C   0  0  0  0  0  0  0  0  0  0  0  0
   -2.9973   40.7962   13.1898 O   0  0  0  0  0  0  0  0  0  0  0  0
   -4.5580   40.8455   10.6462 C   0  0  0  0  0  0  0  0  0  0  0  0
   -5.3719   41.5819    9.2625 S   0  0  0  0  0  0  0  0  0  0  0  0
   -5.6896   40.1609    8.2688 C   0  0  0  0  0  0  0  0  0  0  0  0
   -4.3619   39.6126    7.7554 C   0  0  0  0  0  0  0  0  0  0  0  0
   -4.5884   38.3825    7.0237 N   0  0  0  0  0  0  0  0  0  0  0  0
   -4.8444   41.0967   14.1084 O   0  0  0  0  0  0  0  0  0  0  0  0
  2  1  1  6  0  0  0
  2  3  1  0  0  0  0
  2  5  1  0  0  0  0
  3  4  1  0  0  0  0
  3 10  1  0  0  0  0
  5  6  1  0  0  0  0
  6  7  1  0  0  0  0
  7  8  1  0  0  0  0
  8  9  1  0  0  0  0
M  END
>  <CHROM.1>
-64.71930149,-62.45567125,-159.55669802,-68.00833443,175.47419458,-4.60295913
40.93126885,10.54439353,1.18826705,-1.15807066,0.90538301

>  <Name>
ligand

>  <RI>
0

>  <Rbt.Current_Directory>
/home/itssahil/PROJECTS/Mol_Feturizer/New_Systems/rnas/3DIG

>  <Rbt.Executable>
rbdock ($Id: //depot/dev/client3/rdock/2013.1/src/exe/rbdock.cxx#4 $)

>  <Rbt.Library>
libRbt.so (2013.1, Build901 2013/11/27)

>  <Rbt.Parameter_File>
/export/apps/rDock/src/rDock_2013.1_src/data/scripts/dock_solv.prm

>  <Rbt.Receptor>
prm/blind_docking_60.prm

>  <SCORE>
-2.96848

>  <SCORE.INTER>
-2.63053

>  <SCORE.INTER.CONST>
1

>  <SCORE.INTER.POLAR>
0

>  <SCORE.INTER.ROT>
5

>  <SCORE.INTER.SOLV>
10.552

>  <SCORE.INTER.VDW>
-12.2044

>  <SCORE.INTER.norm>
-0.263053

>  <SCORE.INTRA>
-0.337954

>  <SCORE.INTRA.DIHEDRAL>
-0.291091

>  <SCORE.INTRA.DIHEDRAL.0>
2.60093

>  <SCORE.INTRA.POLAR>
0

>  <SCORE.INTRA.POLAR.0>
0

>  <SCORE.INTRA.REPUL>
0

>  <SCORE.INTRA.REPUL.0>
0

>  <SCORE.INTRA.SOLV>
-0.586731

>  <SCORE.INTRA.SOLV.lig_0>
-33.7882

>  <SCORE.INTRA.VDW>
0.100956

>  <SCORE.INTRA.VDW.0>
-0.593976

>  <SCORE.INTRA.norm>
-0.0337954

>  <SCORE.RESTR>
0

>  <SCORE.RESTR.CAVITY>
0

>  <SCORE.RESTR.norm>
0

>  <SCORE.SYSTEM>
0

>  <SCORE.SYSTEM.CONST>
0

>  <SCORE.SYSTEM.DIHEDRAL>
0

>  <SCORE.SYSTEM.SOLV>
0

>  <SCORE.SYSTEM.norm>
0

>  <SCORE.heavy>
10

>  <SCORE.norm>
-0.296848

>  <RMSD>
44.645

$$$$
ligand
 OpenBabel11021811473D
libRbt.so/2013.1/901 2013/11/27
 10  9  0  0  0  0  0  0  0  0999 V2000
   -4.6111   40.5827   10.4102 N   0  0  0  0  0  0  0  0  0  0  0  0
   -5.0468   41.3477    9.2055 C   0  0  2  0  0  0  0  0  0  0  0  0
   -5.7139   42.6404    9.5764 C   0  0  0  0  0  0  0  0  0  0  0  0
   -5.1370   43.4724   10.2704 O   0  0  0  0  0  0  0  0  0  0  0  0
   -5.9383   40.4732    8.3286 C   0  0  0  0  0  0  0  0  0  0  0  0
   -4.8969   39.5184    7.2689 S   0  0  0  0  0  0  0  0  0  0  0  0
   -4.4932   38.1682    8.3281 C   0  0  0  0  0  0  0  0  0  0  0  0
   -3.7317   37.1209    7.5217 C   0  0  0  0  0  0  0  0  0  0  0  0
   -3.4228   35.9822    8.3630 N   0  0  0  0  0  0  0  0  0  0  0  0
   -6.8428   42.9424    9.1955 O   0  0  0  0  0  0  0  0  0  0  0  0
  2  1  1  1  0  0  0
  2  3  1  0  0  0  0
  2  5  1  0  0  0  0
  3  4  1  0  0  0  0
  3 10  1  0  0  0  0
  5  6  1  0  0  0  0
  6  7  1  0  0  0  0
  7  8  1  0  0  0  0
  8  9  1  0  0  0  0
M  END
>  <CHROM.1>
56.66616058,-85.47045582,83.93978211,172.62637352,-178.33706938,-4.98919500
40.18154988,8.67840128,-2.12793850,0.96632234,-2.34894044

>  <Name>
ligand

>  <RI>
0

>  <Rbt.Current_Directory>
/home/itssahil/PROJECTS/Mol_Feturizer/New_Systems/rnas/3DIG

>  <Rbt.Executable>
rbdock ($Id: //depot/dev/client3/rdock/2013.1/src/exe/rbdock.cxx#4 $)

>  <Rbt.Library>
libRbt.so (2013.1, Build901 2013/11/27)

>  <Rbt.Parameter_File>
/export/apps/rDock/src/rDock_2013.1_src/data/scripts/dock_solv.prm

>  <Rbt.Receptor>
prm/blind_docking_100.prm

>  <SCORE>
-5.316

>  <SCORE.INTER>
-6.37118

>  <SCORE.INTER.CONST>
1

>  <SCORE.INTER.POLAR>
0

>  <SCORE.INTER.ROT>
5

>  <SCORE.INTER.SOLV>
3.42415

>  <SCORE.INTER.VDW>
-12.3222

>  <SCORE.INTER.norm>
-0.637118

>  <SCORE.INTRA>
1.05518

>  <SCORE.INTRA.DIHEDRAL>
1.75628

>  <SCORE.INTRA.DIHEDRAL.0>
2.60093

>  <SCORE.INTRA.POLAR>
0

>  <SCORE.INTRA.POLAR.0>
0

>  <SCORE.INTRA.REPUL>
0

>  <SCORE.INTRA.REPUL.0>
0

>  <SCORE.INTRA.SOLV>
0.123706

>  <SCORE.INTRA.SOLV.lig_0>
-33.7882

>  <SCORE.INTRA.VDW>
0.115186

>  <SCORE.INTRA.VDW.0>
-0.593976

>  <SCORE.INTRA.norm>
0.105518

>  <SCORE.RESTR>
0

>  <SCORE.RESTR.CAVITY>
0

>  <SCORE.RESTR.norm>
0

>  <SCORE.SYSTEM>
0

>  <SCORE.SYSTEM.CONST>
0

>  <SCORE.SYSTEM.DIHEDRAL>
0

>  <SCORE.SYSTEM.SOLV>
0

>  <SCORE.SYSTEM.norm>
0

>  <SCORE.heavy>
10

>  <SCORE.norm>
-0.5316

>  <RMSD>
45.197

$$$$
ligand
 OpenBabel11021811473D
libRbt.so/2013.1/901 2013/11/27
 10  9  0  0  0  0  0  0  0  0999 V2000
   -5.2653   41.6038   11.0688 N   0  0  0  0  0  0  0  0  0  0  0  0
   -5.2794   42.2272    9.7132 C   0  0  2  0  0  0  0  0  0  0  0  0
   -6.2426   43.3760    9.6372 C   0  0  0  0  0  0  0  0  0  0  0  0
   -5.8418   44.5360    9.6165 O   0  0  0  0  0  0  0  0  0  0  0  0
   -5.5683   41.1656    8.6558 C   0  0  0  0  0  0  0  0  0  0  0  0
   -4.1991   40.0509    8.6103 S   0  0  0  0  0  0  0  0  0  0  0  0
   -4.6229   39.0605    7.2149 C   0  0  0  0  0  0  0  0  0  0  0  0
   -3.4899   38.0744    6.9492 C   0  0  0  0  0  0  0  0  0  0  0  0
   -3.8505   37.1948    5.8555 N   0  0  0  0  0  0  0  0  0  0  0  0
   -7.4603   43.2230    9.5699 O   0  0  0  0  0  0  0  0  0  0  0  0
  2  1  1  1  0  0  0
  2  3  1  0  0  0  0
  2  5  1  0  0  0  0
  3  4  1  0  0  0  0
  3 10  1  0  0  0  0
  5  6  1  0  0  0  0
  6  7  1  0  0  0  0
  7  8  1  0  0  0  0
  8  9  1  0  0  0  0
M  END
>  <CHROM.1>
105.72873053,-66.72005936,-172.85503796,176.18068613,176.58663258,-5.09319394
40.97154874,8.68417551,-2.15097665,0.84498268,-2.16504155

>  <Name>
ligand

>  <RI>
0

>  <Rbt.Current_Directory>
/home/itssahil/PROJECTS/Mol_Feturizer/New_Systems/rnas/3DIG

>  <Rbt.Executable>
rbdock ($Id: //depot/dev/client3/rdock/2013.1/src/exe/rbdock.cxx#4 $)

>  <Rbt.Library>
libRbt.so (2013.1, Build901 2013/11/27)

>  <Rbt.Parameter_File>
/export/apps/rDock/src/rDock_2013.1_src/data/scripts/dock_solv.prm

>  <Rbt.Receptor>
prm/blind_docking_60.prm

>  <SCORE>
-8.48532

>  <SCORE.INTER>
-7.38808

>  <SCORE.INTER.CONST>
1

>  <SCORE.INTER.POLAR>
0

>  <SCORE.INTER.ROT>
5

>  <SCORE.INTER.SOLV>
8.89908

>  <SCORE.INTER.VDW>
-14.8251

>  <SCORE.INTER.norm>
-0.738808

>  <SCORE.INTRA>
-1.09724

>  <SCORE.INTRA.DIHEDRAL>
-0.76751

>  <SCORE.INTRA.DIHEDRAL.0>
2.60093

>  <SCORE.INTRA.POLAR>
0

>  <SCORE.INTRA.POLAR.0>
0

>  <SCORE.INTRA.REPUL>
0

>  <SCORE.INTRA.REPUL.0>
0

>  <SCORE.INTRA.SOLV>
-0.893616

>  <SCORE.INTRA.SOLV.lig_0>
-33.7882

>  <SCORE.INTRA.VDW>
-0.266674

>  <SCORE.INTRA.VDW.0>
-0.593976

>  <SCORE.INTRA.norm>
-0.109724

>  <SCORE.RESTR>
0

>  <SCORE.RESTR.CAVITY>
0

>  <SCORE.RESTR.norm>
0

>  <SCORE.SYSTEM>
0

>  <SCORE.SYSTEM.CONST>
0

>  <SCORE.SYSTEM.DIHEDRAL>
0

>  <SCORE.SYSTEM.SOLV>
0

>  <SCORE.SYSTEM.norm>
0

>  <SCORE.heavy>
10

>  <SCORE.norm>
-0.848532

>  <RMSD>
45.865

$$$$
ligand
 OpenBabel11021811473D
libRbt.so/2013.1/901 2013/11/27
 10  9  0  0  0  0  0  0  0  0999 V2000
    2.5737   48.8969    2.2369 N   0  0  0  0  0  0  0  0  0  0  0  0
    1.7619   47.9670    3.0752 C   0  0  2  0  0  0  0  0  0  0  0  0
    2.2651   46.5553    2.9898 C   0  0  0  0  0  0  0  0  0  0  0  0
    2.0634   45.7568    3.9000 O   0  0  0  0  0  0  0  0  0  0  0  0
    0.2885   48.0747    2.6931 C   0  0  0  0  0  0  0  0  0  0  0  0
    0.0841   47.3579    1.0919 S   0  0  0  0  0  0  0  0  0  0  0  0
   -1.6123   47.7217    0.7790 C   0  0  0  0  0  0  0  0  0  0  0  0
   -2.0184   47.0757   -0.5419 C   0  0  0  0  0  0  0  0  0  0  0  0
   -3.3830   47.4388   -0.8673 N   0  0  0  0  0  0  0  0  0  0  0  0
    2.8750   46.1217    2.0148 O   0  0  0  0  0  0  0  0  0  0  0  0
  2  1  1  6  0  0  0
  2  3  1  0  0  0  0
  2  5  1  0  0  0  0
  3  4  1  0  0  0  0
  3 10  1  0  0  0  0
  5  6  1  0  0  0  0
  6  7  1  0  0  0  0
  7  8  1  0  0  0  0
  8  9  1  0  0  0  0
M  END
>  <CHROM.1>
154.77636599,70.45465854,-174.69715093,-175.62732031,-176.02207465,0.46258143
47.27487272,1.67022251,-0.11476076,-0.60231088,-0.04040520

>  <Name>
ligand

>  <RI>
0

>  <Rbt.Current_Directory>
/home/itssahil/PROJECTS/Mol_Feturizer/New_Systems/rnas/3DIG

>  <Rbt.Executable>
rbdock ($Id: //depot/dev/client3/rdock/2013.1/src/exe/rbdock.cxx#4 $)

>  <Rbt.Library>
libRbt.so (2013.1, Build901 2013/11/27)

>  <Rbt.Parameter_File>
/export/apps/rDock/src/rDock_2013.1_src/data/scripts/dock_solv.prm

>  <Rbt.Receptor>
prm/blind_docking_80.prm

>  <SCORE>
-7.10178

>  <SCORE.INTER>
-6.10247

>  <SCORE.INTER.CONST>
1

>  <SCORE.INTER.POLAR>
0

>  <SCORE.INTER.ROT>
5

>  <SCORE.INTER.SOLV>
8.88521

>  <SCORE.INTER.VDW>
-13.9634

>  <SCORE.INTER.norm>
-0.610247

>  <SCORE.INTRA>
-0.999308

>  <SCORE.INTRA.DIHEDRAL>
-0.615147

>  <SCORE.INTRA.DIHEDRAL.0>
2.60093

>  <SCORE.INTRA.POLAR>
0

>  <SCORE.INTRA.POLAR.0>
0

>  <SCORE.INTRA.REPUL>
0

>  <SCORE.INTRA.REPUL.0>
0

>  <SCORE.INTRA.SOLV>
-0.741222

>  <SCORE.INTRA.SOLV.lig_0>
-33.7882

>  <SCORE.INTRA.VDW>
-0.321124

>  <SCORE.INTRA.VDW.0>
-0.593976

>  <SCORE.INTRA.norm>
-0.0999308

>  <SCORE.RESTR>
0

>  <SCORE.RESTR.CAVITY>
0

>  <SCORE.RESTR.norm>
0

>  <SCORE.SYSTEM>
0

>  <SCORE.SYSTEM.CONST>
0

>  <SCORE.SYSTEM.DIHEDRAL>
0

>  <SCORE.SYSTEM.SOLV>
0

>  <SCORE.SYSTEM.norm>
0

>  <SCORE.heavy>
10

>  <SCORE.norm>
-0.710178

>  <RMSD>
47.838

$$$$
ligand
 OpenBabel11021811473D
libRbt.so/2013.1/901 2013/11/27
 10  9  0  0  0  0  0  0  0  0999 V2000
    1.4913   48.8702    2.5005 N   0  0  0  0  0  0  0  0  0  0  0  0
    1.1191   47.4321    2.6410 C   0  0  2  0  0  0  0  0  0  0  0  0
    2.3048   46.5803    2.9905 C   0  0  0  0  0  0  0  0  0  0  0  0
    2.3585   45.9809    4.0603 O   0  0  0  0  0  0  0  0  0  0  0  0
    0.4201   46.9497    1.3733 C   0  0  0  0  0  0  0  0  0  0  0  0
   -1.1507   47.7513    1.2752 S   0  0  0  0  0  0  0  0  0  0  0  0
   -1.9151   46.8276   -0.0172 C   0  0  0  0  0  0  0  0  0  0  0  0
   -3.4295   46.9324    0.1325 C   0  0  0  0  0  0  0  0  0  0  0  0
   -3.8485   48.3060   -0.0617 N   0  0  0  0  0  0  0  0  0  0  0  0
    3.2584   46.4200    2.2318 O   0  0  0  0  0  0  0  0  0  0  0  0
  2  1  1  6  0  0  0
  2  3  1  0  0  0  0
  2  5  1  0  0  0  0
  3  4  1  0  0  0  0
  3 10  1  0  0  0  0
  5  6  1  0  0  0  0
  6  7  1  0  0  0  0
  7  8  1  0  0  0  0
  8  9  1  0  0  0  0
M  END
>  <CHROM.1>
116.12828081,-68.58066558,-168.48625343,155.79617379,64.57254514,-0.04308588
47.24815190,1.67664906,-0.08719690,-0.49126851,0.11568126

>  <Name>
ligand

>  <RI>
0

>  <Rbt.Current_Directory>
/home/itssahil/PROJECTS/Mol_Feturizer/New_Systems/rnas/3DIG

>  <Rbt.Executable>
rbdock ($Id: //depot/dev/client3/rdock/2013.1/src/exe/rbdock.cxx#4 $)

>  <Rbt.Library>
libRbt.so (2013.1, Build901 2013/11/27)

>  <Rbt.Parameter_File>
/export/apps/rDock/src/rDock_2013.1_src/data/scripts/dock_solv.prm

>  <Rbt.Receptor>
prm/blind_docking_80.prm

>  <SCORE>
-7.81284

>  <SCORE.INTER>
-7.51383

>  <SCORE.INTER.CONST>
1

>  <SCORE.INTER.POLAR>
0

>  <SCORE.INTER.ROT>
5

>  <SCORE.INTER.SOLV>
5.21121

>  <SCORE.INTER.VDW>
-13.6796

>  <SCORE.INTER.norm>
-0.751383

>  <SCORE.INTRA>
-0.299011

>  <SCORE.INTRA.DIHEDRAL>
0.287008

>  <SCORE.INTRA.DIHEDRAL.0>
2.60093

>  <SCORE.INTRA.POLAR>
0

>  <SCORE.INTRA.POLAR.0>
0

>  <SCORE.INTRA.REPUL>
0

>  <SCORE.INTRA.REPUL.0>
0

>  <SCORE.INTRA.SOLV>
-0.137758

>  <SCORE.INTRA.SOLV.lig_0>
-33.7882

>  <SCORE.INTRA.VDW>
-0.373636

>  <SCORE.INTRA.VDW.0>
-0.593976

>  <SCORE.INTRA.norm>
-0.0299011

>  <SCORE.RESTR>
0

>  <SCORE.RESTR.CAVITY>
0

>  <SCORE.RESTR.norm>
0

>  <SCORE.SYSTEM>
0

>  <SCORE.SYSTEM.CONST>
0

>  <SCORE.SYSTEM.DIHEDRAL>
0

>  <SCORE.SYSTEM.SOLV>
0

>  <SCORE.SYSTEM.norm>
0

>  <SCORE.heavy>
10

>  <SCORE.norm>
-0.781284

>  <RMSD>
48.059

$$$$
