@<TRIPOS>MOLECULE
3DIG_rdock.pdb
 3728 4173 0 0 0
SMALL
GASTEIGER

@<TRIPOS>ATOM
      1  P         38.9370   -8.8740   15.8550 P.3     1  G1          0.1280
      2  C5'       39.3050   -8.4670   13.2700 C.3     1  G1          0.1795
      3  O5'       38.6280   -9.1890   14.3060 O.3     1  G1         -0.3259
      4  C4'       38.8050   -8.8430   11.8870 C.3     1  G1          0.1772
      5  O4'       38.7720  -10.2850   11.7240 O.3     1  G1         -0.3307
      6  C3'       37.3840   -8.4150   11.5720 C.3     1  G1          0.1860
      7  O3'       37.3480   -7.0540   11.2050 O.3     1  G1         -0.3112
      8  C2'       37.0690   -9.3310   10.3970 C.3     1  G1          0.2309
      9  O2'       37.6710   -8.9060    9.1890 O.3     1  G1         -0.2156
     10  C1'       37.6790  -10.6430   10.8940 C.3     1  G1          0.2408
     11  N1        33.2950  -13.3030   11.0490 N.ar    1  G1         -0.1709
     12  C2        33.8730  -12.6480    9.9850 C.ar    1  G1          0.2606
     13  N2        33.2030  -12.7060    8.8310 N.pl3   1  G1         -0.0859
     14  N3        35.0240  -11.9840   10.0480 N.ar    1  G1         -0.1918
     15  C4        35.5690  -12.0220   11.2960 C.ar    1  G1          0.1723
     16  C5        35.0690  -12.6490   12.4230 C.ar    1  G1          0.1748
     17  C6        33.8420  -13.3530   12.3330 C.ar    1  G1          0.3023
     18  O6        33.2540  -13.9680   13.2320 O.2     1  G1         -0.2633
     19  N7        35.9120  -12.4700   13.5130 N.ar    1  G1         -0.2173
     20  C8        36.8870  -11.7490   13.0340 C.ar    1  G1          0.1817
     21  N9        36.7530  -11.4380   11.6990 N.ar    1  G1         -0.2693
     22  OP1       38.8730   -7.3960   16.0940 O.3     1  G1         -0.1955
     23  OP2       38.0640   -9.8040   16.6210 O.co2   1  G1         -0.7863
     24  P         36.0770   -6.1500   11.5830 P.3     2  G2          0.2141
     25  C5'       35.2850   -6.0690    9.0720 C.3     2  G2          0.1812
     26  O5'       35.0480   -6.4950   10.4140 O.3     2  G2         -0.3114
     27  C4'       34.2390   -6.6680    8.1520 C.3     2  G2          0.1773
     28  O4'       34.2290   -8.1150    8.2740 O.3     2  G2         -0.3307
     29  C3'       32.8170   -6.2550    8.4900 C.3     2  G2          0.1860
     30  O3'       32.5420   -4.9940    7.9450 O.3     2  G2         -0.3112
     31  C2'       32.0170   -7.3680    7.8340 C.3     2  G2          0.2309
     32  O2'       31.8850   -7.2190    6.4310 O.3     2  G2         -0.2156
     33  C1'       32.8930   -8.5760    8.1770 C.3     2  G2          0.2408
     34  N1        29.3490  -11.3370   10.6080 N.ar    2  G2         -0.1709
     35  C2        29.3520  -10.8410    9.3210 C.ar    2  G2          0.2606
     36  N2        28.2840  -11.1160    8.5630 N.pl3   2  G2         -0.0859
     37  N3        30.3430  -10.1330    8.7980 N.ar    2  G2         -0.1918
     38  C4        31.3570   -9.9390    9.6780 C.ar    2  G2          0.1723
     39  C5        31.4520  -10.3850   10.9800 C.ar    2  G2          0.1748
     40  C6        30.3850  -11.1510   11.5280 C.ar    2  G2          0.3023
     41  O6        30.2890  -11.6320   12.6700 O.2     2  G2         -0.2633
     42  N7        32.6520   -9.9740   11.5470 N.ar    2  G2         -0.2173
     43  C8        33.2460   -9.3040   10.5960 C.ar    2  G2          0.1817
     44  N9        32.5200   -9.2420    9.4300 N.ar    2  G2         -0.2693
     45  OP1       36.4660   -4.7260   11.4580 O.2     2  G2         -0.5172
     46  OP2       35.4930   -6.6650   12.8440 O.co2   2  G2         -0.4373
     47  P         31.8180   -3.9160    8.8710 P.3     3  C3          0.2141
     48  C5'       29.4690   -4.4570    7.8950 C.3     3  C3          0.1812
     49  O5'       30.3340   -4.4810    9.0260 O.3     3  C3         -0.3114
     50  C4'       28.2800   -5.3750    8.0730 C.3     3  C3          0.1773
     51  O4'       28.7420   -6.6900    8.4400 O.3     3  C3         -0.3307
     52  C3'       27.3650   -5.0160    9.2270 C.3     3  C3          0.1860
     53  O3'       26.5100   -3.9430    8.9080 O.3     3  C3         -0.3112
     54  C2'       26.6080   -6.3200    9.3980 C.3     3  C3          0.2309
     55  O2'       25.6050   -6.5320    8.4200 O.3     3  C3         -0.2156
     56  C1'       27.7510   -7.3180    9.2340 C.3     3  C3          0.2420
     57  N1        28.3190   -7.6970   10.5550 N.ar    3  C3         -0.2535
     58  C2        27.5860   -8.5490   11.3930 C.ar    3  C3          0.3532
     59  O2        26.4870   -8.9810   11.0240 O.2     3  C3         -0.2443
     60  N3        28.1110   -8.8800   12.5990 N.ar    3  C3         -0.1739
     61  C4        29.3010   -8.3990   12.9740 C.ar    3  C3          0.1759
     62  N4        29.7720   -8.7610   14.1730 N.pl3   3  C3         -0.1070
     63  C5        30.0610   -7.5270   12.1360 C.ar    3  C3          0.0566
     64  C6        29.5340   -7.2070   10.9490 C.ar    3  C3          0.0850
     65  OP1       31.7700   -2.6510    8.1150 O.2     3  C3         -0.5172
     66  OP2       32.4360   -3.9590   10.2060 O.co2   3  C3         -0.4373
     67  P         26.2660   -2.8140   10.0170 P.3     4  C4          0.2141
     68  C5'       23.8990   -3.9080   10.1740 C.3     4  C4          0.1812
     69  O5'       25.0490   -3.4290   10.8540 O.3     4  C4         -0.3114
     70  C4'       23.0920   -4.8130   11.0770 C.3     4  C4          0.1773
     71  O4'       23.8100   -6.0490   11.3250 O.3     4  C4         -0.3307
     72  C3'       22.8700   -4.2690   12.4780 C.3     4  C4          0.1860
     73  O3'       21.8730   -3.2460   12.5120 O.3     4  C4         -0.3112
     74  C2'       22.4630   -5.5460   13.2040 C.3     4  C4          0.2309
     75  O2'       21.1390   -5.9690   12.9310 O.3     4  C4         -0.2156
     76  C1'       23.4860   -6.5220   12.6250 C.3     4  C4          0.2420
     77  N1        24.7140   -6.6230   13.4980 N.ar    4  C4         -0.2535
     78  C2        24.6680   -7.3850   14.6830 C.ar    4  C4          0.3532
     79  O2        23.6340   -7.9870   14.9990 O.2     4  C4         -0.2443
     80  N3        25.7760   -7.4650   15.4630 N.ar    4  C4         -0.1739
     81  C4        26.8890   -6.8200   15.1110 C.ar    4  C4          0.1759
     82  N4        27.9410   -6.9380   15.9190 N.pl3   4  C4         -0.1070
     83  C5        26.9670   -6.0300   13.9240 C.ar    4  C4          0.0566
     84  C6        25.8680   -5.9630   13.1580 C.ar    4  C4          0.0850
     85  OP1       25.8090   -1.5970    9.3070 O.2     4  C4         -0.5172
     86  OP2       27.4440   -2.7500   10.9250 O.co2   4  C4         -0.4373
     87  P         22.0270   -2.0200   13.5400 P.3     5  G5          0.2141
     88  C5'       20.4720   -3.2850   15.2180 C.3     5  G5          0.1812
     89  O5'       21.7490   -2.7000   14.9600 O.3     5  G5         -0.3114
     90  C4'       20.4800   -3.9760   16.5640 C.3     5  G5          0.1773
     91  O4'       21.3600   -5.1280   16.5300 O.3     5  G5         -0.3307
     92  C3'       21.0290   -3.1570   17.7220 C.3     5  G5          0.1860
     93  O3'       20.0690   -2.2090   18.1370 O.3     5  G5         -0.3112
     94  C2'       21.2000   -4.2930   18.7200 C.3     5  G5          0.2309
     95  O2'       19.9570   -4.7580   19.2150 O.3     5  G5         -0.2156
     96  C1'       21.8700   -5.3400   17.8340 C.3     5  G5          0.2408
     97  N1        26.1370   -6.3060   20.4030 N.ar    5  G5         -0.1709
     98  C2        24.8440   -6.6360   20.7110 C.ar    5  G5          0.2606
     99  N2        24.6600   -7.3100   21.8530 N.pl3   5  G5         -0.0859
    100  N3        23.8040   -6.3300   19.9490 N.ar    5  G5         -0.1918
    101  C4        24.1740   -5.6480   18.8350 C.ar    5  G5          0.1723
    102  C5        25.4380   -5.2730   18.4410 C.ar    5  G5          0.1748
    103  C6        26.5350   -5.6120   19.2650 C.ar    5  G5          0.3023
    104  O6        27.7360   -5.3690   19.0900 O.2     5  G5         -0.2633
    105  N7        25.3960   -4.5870   17.2340 N.ar    5  G5         -0.2173
    106  C8        24.1280   -4.5620   16.9260 C.ar    5  G5          0.1817
    107  N9        23.3270   -5.1920   17.8520 N.ar    5  G5         -0.2693
    108  OP1       20.9320   -1.0660   13.2510 O.2     5  G5         -0.5172
    109  OP2       23.4340   -1.5570   13.5520 O.co2   5  G5         -0.4373
    110  P         20.3800   -1.1010   19.2500 P.3     6  A6          0.2141
    111  C5'       19.5730   -2.3180   21.4530 C.3     6  A6          0.1812
    112  O5'       20.6210   -1.9760   20.5650 O.3     6  A6         -0.3114
    113  C4'       20.1810   -3.0580   22.6270 C.3     6  A6          0.1773
    114  O4'       21.1350   -4.0560   22.1700 O.3     6  A6         -0.3307
    115  C3'       20.9830   -2.2030   23.5960 C.3     6  A6          0.1860
    116  O3'       20.0940   -1.4860   24.4480 O.3     6  A6         -0.3112
    117  C2'       21.7550   -3.3090   24.3100 C.3     6  A6          0.2309
    118  O2'       20.9580   -4.0630   25.2080 O.3     6  A6         -0.2156
    119  C1'       22.1630   -4.1900   23.1320 C.3     6  A6          0.2408
    120  N1        27.2840   -4.3720   23.5550 N.ar    6  A6         -0.2040
    121  C2        26.3010   -4.8910   24.3110 C.ar    6  A6          0.2016
    122  N3        24.9820   -4.8050   24.1390 N.ar    6  A6         -0.2048
    123  C4        24.6930   -4.0890   23.0430 C.ar    6  A6          0.1692
    124  C5        25.5890   -3.4960   22.1710 C.ar    6  A6          0.1518
    125  C6        26.9590   -3.6570   22.4580 C.ar    6  A6          0.1919
    126  N6        27.9350   -3.1430   21.7070 N.pl3   6  A6         -0.1054
    127  N7        24.9280   -2.8340   21.1540 N.ar    6  A6         -0.2193
    128  C8        23.6640   -3.0440   21.4320 C.ar    6  A6          0.1816
    129  N9        23.4470   -3.7930   22.5560 N.ar    6  A6         -0.2693
    130  OP1       19.1460   -0.2930   19.4040 O.3     6  A6         -0.4373
    131  OP2       21.6720   -0.4340   18.9600 O.co2   6  A6         -0.5172
    132  P         20.5300   -0.1320   25.1800 P.3     7  C7          0.2141
    133  C5'       21.3690   -1.2790   27.3900 C.3     7  C7          0.1812
    134  O5'       21.6840   -0.6430   26.1610 O.3     7  C7         -0.3114
    135  C4'       22.6350   -1.7520   28.0730 C.3     7  C7          0.1773
    136  O4'       23.3810   -2.6220   27.1850 O.3     7  C7         -0.3307
    137  C3'       23.6350   -0.6470   28.3780 C.3     7  C7          0.1860
    138  O3'       23.2800    0.0680   29.5420 O.3     7  C7         -0.3112
    139  C2'       24.9270   -1.4470   28.5270 C.3     7  C7          0.2309
    140  O2'       24.9950   -2.2250   29.7060 O.3     7  C7         -0.2156
    141  C1'       24.7730   -2.3580   27.3230 C.3     7  C7          0.2420
    142  N1        25.3920   -1.7670   26.0780 N.ar    7  C7         -0.2535
    143  C2        26.7760   -1.9150   25.8880 C.ar    7  C7          0.3532
    144  O2        27.4530   -2.5160   26.7290 O.2     7  C7         -0.2443
    145  N3        27.3540   -1.4040   24.7750 N.ar    7  C7         -0.1739
    146  C4        26.6120   -0.7610   23.8800 C.ar    7  C7          0.1759
    147  N4        27.2410   -0.2740   22.8090 N.pl3   7  C7         -0.1070
    148  C5        25.2040   -0.6000   24.0440 C.ar    7  C7          0.0566
    149  C6        24.6410   -1.1140   25.1440 C.ar    7  C7          0.0850
    150  OP1       19.3740    0.3230   25.9830 O.3     7  C7         -0.4373
    151  OP2       21.1450    0.8020   24.2050 O.co2   7  C7         -0.5172
    152  P         23.7880    1.5760   29.6940 P.3     8  G8          0.2141
    153  C5'       25.8630    0.7350   31.1160 C.3     8  G8          0.1812
    154  O5'       25.3610    1.4370   29.9790 O.3     8  G8         -0.3114
    155  C4'       27.3730    0.8490   31.1450 C.3     8  G8          0.1773
    156  O4'       27.9420    0.1400   30.0180 O.3     8  G8         -0.3307
    157  C3'       27.8780    2.2650   30.9740 C.3     8  G8          0.1860
    158  O3'       27.8470    2.9510   32.2190 O.3     8  G8         -0.3112
    159  C2'       29.2940    2.0110   30.4770 C.3     8  G8          0.2309
    160  O2'       30.1820    1.7080   31.5310 O.3     8  G8         -0.2156
    161  C1'       29.1090    0.8000   29.5730 C.3     8  G8          0.2408
    162  N1        31.5930    2.2800   25.3680 N.ar    8  G8         -0.1709
    163  C2        32.0880    1.9670   26.6110 C.ar    8  G8          0.2606
    164  N2        33.4150    2.0580   26.7700 N.pl3   8  G8         -0.0859
    165  N3        31.3300    1.5910   27.6330 N.ar    8  G8         -0.1918
    166  C4        30.0100    1.5510   27.3190 C.ar    8  G8          0.1723
    167  C5        29.4230    1.8440   26.1070 C.ar    8  G8          0.1748
    168  C6        30.2490    2.2430   25.0260 C.ar    8  G8          0.3023
    169  O6        29.9310    2.5470   23.8760 O.2     8  G8         -0.2633
    170  N7        28.0470    1.6780   26.1870 N.ar    8  G8         -0.2173
    171  C8        27.8370    1.2980   27.4190 C.ar    8  G8          0.1817
    172  N9        28.9840    1.1900   28.1680 N.ar    8  G8         -0.2693
    173  OP1       23.1080    2.1070   30.8950 O.3     8  G8         -0.4373
    174  OP2       23.6610    2.2870   28.3970 O.co2   8  G8         -0.5172
    175  P         28.0860    4.5390   32.2680 P.3     9  G9          0.2141
    176  C5'       30.0810    5.7740   31.1800 C.3     9  G9          0.1812
    177  O5'       29.6310    4.6380   31.8760 O.3     9  G9         -0.3114
    178  C4'       31.4960    5.5460   30.7090 C.3     9  G9          0.1773
    179  O4'       31.5440    4.5280   29.6840 O.3     9  G9         -0.3307
    180  C3'       32.0780    6.7840   30.0760 C.3     9  G9          0.1860
    181  O3'       32.6500    7.5130   31.1320 O.3     9  G9         -0.3112
    182  C2'       33.1110    6.1970   29.1160 C.3     9  G9          0.2309
    183  O2'       34.3300    5.8360   29.7370 O.3     9  G9         -0.2156
    184  C1'       32.3960    4.9410   28.6280 C.3     9  G9          0.2408
    185  N1        32.3230    6.1240   23.6130 N.ar    9  G9         -0.1709
    186  C2        33.4040    6.0080   24.4560 C.ar    9  G9          0.2606
    187  N2        34.5980    6.2340   23.8960 N.pl3   9  G9         -0.0859
    188  N3        33.3240    5.6890   25.7480 N.ar    9  G9         -0.1918
    189  C4        32.0360    5.4940   26.1470 C.ar    9  G9          0.1723
    190  C5        30.8910    5.5930   25.3760 C.ar    9  G9          0.1748
    191  C6        30.9970    5.9290   24.0020 C.ar    9  G9          0.3023
    192  O6        30.0820    6.0540   23.1760 O.2     9  G9         -0.2633
    193  N7        29.7630    5.3280   26.1320 N.ar    9  G9         -0.2173
    194  C8        30.2280    5.0790   27.3220 C.ar    9  G9          0.1817
    195  N9        31.5960    5.1610   27.4180 N.ar    9  G9         -0.2693
    196  OP1       27.9320    4.9740   33.6710 O.3     9  G9         -0.4373
    197  OP2       27.2790    5.2020   31.2050 O.co2   9  G9         -0.5172
    198  P         32.5040    9.1060   31.2200 P.3    10  A10         0.2141
    199  C5'       34.9810    9.1930   30.4380 C.3    10  A10         0.1812
    200  O5'       33.6620    9.6720   30.2700 O.3    10  A10        -0.3114
    201  C4'       35.8410    9.6990   29.3090 C.3    10  A10         0.1773
    202  O4'       35.5500    8.9000   28.1370 O.3    10  A10        -0.3307
    203  C3'       35.5230   11.1230   28.9420 C.3    10  A10         0.1860
    204  O3'       36.3140   11.9160   29.7940 O.3    10  A10        -0.3112
    205  C2'       35.9470   11.1290   27.4810 C.3    10  A10         0.2309
    206  O2'       37.3410   11.3300   27.3560 O.3    10  A10        -0.2156
    207  C1'       35.5940    9.7250   26.9960 C.3    10  A10         0.2408
    208  N1        33.1240    9.7080   22.4230 N.ar   10  A10        -0.2040
    209  C2        34.4120    9.9230   22.7350 C.ar   10  A10         0.2016
    210  N3        34.9900    9.9160   23.9430 N.ar   10  A10        -0.2048
    211  C4        34.0960    9.6500   24.9200 C.ar   10  A10         0.1692
    212  C5        32.7430    9.4110   24.7470 C.ar   10  A10         0.1518
    213  C6        32.2570    9.4440   23.4230 C.ar   10  A10         0.1919
    214  N6        30.9740    9.2380   23.1230 N.pl3  10  A10        -0.1054
    215  N7        32.1190    9.1800   25.9600 N.ar   10  A10        -0.2193
    216  C8        33.0970    9.2740   26.8310 C.ar   10  A10         0.1816
    217  N9        34.3180    9.5650   26.2820 N.ar   10  A10        -0.2693
    218  OP1       32.8330    9.4590   32.6150 O.3    10  A10        -0.4373
    219  OP2       31.2250    9.5530   30.6100 O.co2  10  A10        -0.5172
    220  P         36.1920   13.5220   29.8070 P.3    11  G11         0.2141
    221  C5'       36.8170   15.2160   27.9530 C.3    11  G11         0.1812
    222  O5'       36.8890   13.9110   28.4210 O.3    11  G11        -0.3114
    223  C4'       37.5180   15.2490   26.6170 C.3    11  G11         0.1773
    224  O4'       36.9490   14.2500   25.7380 O.3    11  G11        -0.3307
    225  C3'       37.3780   16.5860   25.9150 C.3    11  G11         0.1860
    226  O3'       38.6030   16.9310   25.2570 O.3    11  G11        -0.3112
    227  C2'       36.2280   16.3320   24.9500 C.3    11  G11         0.2309
    228  O2'       36.2900   17.1800   23.8210 O.3    11  G11        -0.2156
    229  C1'       36.4630   14.8770   24.5680 C.3    11  G11         0.2408
    230  N1        31.8790   12.7820   25.6710 N.ar   11  G11        -0.1709
    231  C2        32.8090   13.3000   26.5390 C.ar   11  G11         0.2606
    232  N2        32.4910   13.2700   27.8410 N.pl3  11  G11        -0.0859
    233  N3        33.9730   13.8170   26.1560 N.ar   11  G11        -0.1918
    234  C4        34.1470   13.7830   24.8090 C.ar   11  G11         0.1723
    235  C5        33.2750   13.2870   23.8680 C.ar   11  G11         0.1748
    236  C6        32.0460   12.7430   24.2870 C.ar   11  G11         0.3023
    237  O6        31.1680   12.2660   23.5630 O.2    11  G11        -0.2633
    238  N7        33.7820   13.4180   22.5870 N.ar   11  G11        -0.2173
    239  C8        34.9400   13.9860   22.7700 C.ar   11  G11         0.1817
    240  N9        35.2380   14.2370   24.0880 N.ar   11  G11        -0.2693
    241  OP1       37.0480   14.0100   30.9180 O.3    11  G11        -0.4373
    242  OP2       34.7660   13.9720   29.7250 O.co2  11  G11        -0.5172
    243  P         39.7480   17.7420   26.0300 P.3    12  G12         0.2141
    244  C5'       38.5380   19.9520   25.5020 C.3    12  G12         0.1812
    245  O5'       38.9930   19.0610   26.4870 O.3    12  G12        -0.3114
    246  C4'       37.3550   20.6800   26.0760 C.3    12  G12         0.1773
    247  O4'       36.4130   19.6950   26.5760 O.3    12  G12        -0.3307
    248  C3'       37.7030   21.5930   27.2390 C.3    12  G12         0.1860
    249  O3'       37.1300   22.8690   27.0010 O.3    12  G12        -0.3112
    250  C2'       37.0890   20.9030   28.4500 C.3    12  G12         0.2309
    251  O2'       36.6330   21.8510   29.3910 O.3    12  G12        -0.2156
    252  C1'       35.9060   20.2020   27.7920 C.3    12  G12         0.2408
    253  N1        32.2470   16.6110   27.7840 N.ar   12  G12        -0.1709
    254  C2        32.7020   17.3940   26.7570 C.ar   12  G12         0.2606
    255  N2        32.0950   17.2010   25.5800 N.pl3  12  G12        -0.0859
    256  N3        33.6740   18.3050   26.8730 N.ar   12  G12        -0.1918
    257  C4        34.1750   18.3610   28.1340 C.ar   12  G12         0.1723
    258  C5        33.7860   17.6150   29.2250 C.ar   12  G12         0.1748
    259  C6        32.7460   16.6590   29.0770 C.ar   12  G12         0.3023
    260  O6        32.2670   15.8900   29.9210 O.2    12  G12        -0.2633
    261  N7        34.5290   17.9560   30.3410 N.ar   12  G12        -0.2173
    262  C8        35.3310   18.8900   29.9080 C.ar   12  G12         0.1817
    263  N9        35.1840   19.1870   28.5740 N.ar   12  G12        -0.2693
    264  OP1       40.8170   18.0810   25.0680 O.2    12  G12        -0.5172
    265  OP2       40.0910   17.0150   27.2670 O.co2  12  G12        -0.4373
    266  P         38.0310   24.0760   26.4310 P.3    13  C13         0.2141
    267  C5'       37.4600   25.2720   28.6780 C.3    13  C13         0.1812
    268  O5'       37.5240   25.3430   27.2590 O.3    13  C13        -0.3114
    269  C4'       36.1210   25.7710   29.1900 C.3    13  C13         0.1773
    270  O4'       36.0490   27.2230   29.1440 O.3    13  C13        -0.3307
    271  C3'       34.9140   25.2720   28.4140 C.3    13  C13         0.1860
    272  O3'       33.9130   24.9620   29.3460 O.3    13  C13        -0.3112
    273  C2'       34.4910   26.4700   27.5680 C.3    13  C13         0.2309
    274  O2'       33.1010   26.5060   27.3150 O.3    13  C13        -0.2156
    275  C1'       34.8720   27.6290   28.4790 C.3    13  C13         0.2420
    276  N1        35.0930   28.8980   27.7220 N.ar   13  C13        -0.2535
    277  C2        34.1970   29.9580   27.9140 C.ar   13  C13         0.3532
    278  O2        33.2620   29.7960   28.7160 O.2    13  C13        -0.2443
    279  N3        34.3860   31.1220   27.2210 N.ar   13  C13        -0.1739
    280  C4        35.4120   31.2260   26.3690 C.ar   13  C13         0.1759
    281  N4        35.5650   32.3670   25.7030 N.pl3  13  C13        -0.1070
    282  C5        36.3340   30.1610   26.1550 C.ar   13  C13         0.0566
    283  C6        36.1380   29.0270   26.8440 C.ar   13  C13         0.0850
    284  OP1       37.6390   24.2360   25.0150 O.2    13  C13        -0.5172
    285  OP2       39.4580   23.8480   26.7710 O.co2  13  C13        -0.4373
    286  P         33.1580   23.5760   29.2920 P.3    14  G14         0.2141
    287  C5'       33.1500   23.0800   26.6950 C.3    14  G14         0.1812
    288  O5'       32.4920   23.5700   27.8390 O.3    14  G14        -0.3114
    289  C4'       32.1870   22.3750   25.7690 C.3    14  G14         0.1773
    290  O4'       32.3770   20.9430   25.9090 O.3    14  G14        -0.3307
    291  C3'       30.7090   22.5860   26.0280 C.3    14  G14         0.1860
    292  O3'       30.2970   23.7680   25.3640 O.3    14  G14        -0.3112
    293  C2'       30.1860   21.3180   25.3750 C.3    14  G14         0.2309
    294  O2'       30.3580   21.3190   23.9740 O.3    14  G14        -0.2156
    295  C1'       31.1270   20.2920   25.9830 C.3    14  G14         0.2408
    296  N1        27.9340   17.9680   29.2540 N.ar   14  G14        -0.1709
    297  C2        27.8720   18.0620   27.8820 C.ar   14  G14         0.2606
    298  N2        26.8370   17.4670   27.2850 N.pl3  14  G14        -0.0859
    299  N3        28.7690   18.6930   27.1320 N.ar   14  G14        -0.1918
    300  C4        29.7660   19.2390   27.8650 C.ar   14  G14         0.1723
    301  C5        29.9170   19.2060   29.2320 C.ar   14  G14         0.1748
    302  C6        28.9540   18.5340   30.0210 C.ar   14  G14         0.3023
    303  O6        28.9440   18.4020   31.2510 O.2    14  G14        -0.2633
    304  N7        31.0600   19.8800   29.6140 N.ar   14  G14        -0.2173
    305  C8        31.5670   20.3060   28.4910 C.ar   14  G14         0.1817
    306  N9        30.8400   19.9520   27.3790 N.ar   14  G14        -0.2693
    307  OP1       32.0460   23.7310   30.2570 O.3    14  G14        -0.4373
    308  OP2       34.1330   22.4730   29.4550 O.co2  14  G14        -0.5172
    309  P         28.9560   24.5760   25.7380 P.3    15  C15         0.2141
    310  C5'       27.6000   23.2420   23.8860 C.3    15  C15         0.1812
    311  O5'       27.8640   23.5160   25.2460 O.3    15  C15        -0.3114
    312  C4'       26.3590   22.3820   23.8270 C.3    15  C15         0.1773
    313  O4'       26.5950   21.1100   24.5040 O.3    15  C15        -0.3307
    314  C3'       25.1470   22.9570   24.5400 C.3    15  C15         0.1860
    315  O3'       24.4730   23.8590   23.6890 O.3    15  C15        -0.3112
    316  C2'       24.3510   21.6790   24.7590 C.3    15  C15         0.2309
    317  O2'       23.7630   21.2200   23.5600 O.3    15  C15        -0.2156
    318  C1'       25.4250   20.6830   25.1760 C.3    15  C15         0.2420
    319  N1        25.6350   20.6340   26.6640 N.ar   15  C15        -0.2535
    320  C2        24.7620   19.9160   27.5080 C.ar   15  C15         0.3532
    321  O2        23.8120   19.2990   27.0240 O.2    15  C15        -0.2443
    322  N3        24.9820   19.9090   28.8520 N.ar   15  C15        -0.1739
    323  C4        26.0240   20.5870   29.3600 C.ar   15  C15         0.1759
    324  N4        26.2430   20.5770   30.6810 N.pl3  15  C15        -0.1070
    325  C5        26.9190   21.3180   28.5250 C.ar   15  C15         0.0566
    326  C6        26.6890   21.3080   27.2080 C.ar   15  C15         0.0850
    327  OP1       28.9350   25.8020   24.8980 O.2    15  C15        -0.5172
    328  OP2       28.7930   24.7150   27.2050 O.co2  15  C15        -0.4373
    329  P         23.7580   25.1730   24.2640 P.3    16  G16         0.2141
    330  C5'       21.3800   24.2530   24.0180 C.3    16  G16         0.1812
    331  O5'       22.4200   24.5940   24.8980 O.3    16  G16        -0.3114
    332  C4'       20.3950   23.3170   24.6780 C.3    16  G16         0.1773
    333  O4'       21.0850   22.1900   25.2710 O.3    16  G16        -0.3307
    334  C3'       19.5600   23.9180   25.8000 C.3    16  G16         0.1860
    335  O3'       18.4600   24.6020   25.2310 O.3    16  G16        -0.3112
    336  C2'       19.1080   22.6300   26.4700 C.3    16  G16         0.2309
    337  O2'       18.0660   21.9830   25.7650 O.3    16  G16        -0.2156
    338  C1'       20.4000   21.8060   26.4440 C.3    16  G16         0.2408
    339  N1        20.7460   21.1700   31.4470 N.ar   16  G16        -0.1709
    340  C2        19.7750   20.7530   30.5690 C.ar   16  G16         0.2606
    341  N2        18.7580   20.0710   31.0920 N.pl3  16  G16        -0.0859
    342  N3        19.8110   20.9770   29.2660 N.ar   16  G16        -0.1918
    343  C4        20.9150   21.6880   28.9060 C.ar   16  G16         0.1723
    344  C5        21.9430   22.1630   29.7000 C.ar   16  G16         0.1748
    345  C6        21.8930   21.8960   31.0980 C.ar   16  G16         0.3023
    346  O6        22.6990   22.2310   31.9880 O.2    16  G16        -0.2633
    347  N7        22.8870   22.8470   28.9350 N.ar   16  G16        -0.2173
    348  C8        22.4130   22.7690   27.7190 C.ar   16  G16         0.1817
    349  N9        21.2230   22.0780   27.6250 N.ar   16  G16        -0.2693
    350  OP1       23.3910   26.0350   23.1190 O.2    16  G16        -0.5172
    351  OP2       24.5850   25.7310   25.3550 O.co2  16  G16        -0.4373
    352  P         17.6580   25.7740   25.9490 P.3    17  C17         0.2141
    353  C5'       15.6920   24.4220   26.9580 C.3    17  C17         0.1812
    354  O5'       16.9330   25.0520   27.1660 O.3    17  C17        -0.3114
    355  C4'       15.2080   23.8020   28.2500 C.3    17  C17         0.1773
    356  O4'       16.2250   22.9100   28.7690 O.3    17  C17        -0.3307
    357  C3'       14.9750   24.7740   29.3920 C.3    17  C17         0.1860
    358  O3'       13.7280   25.4340   29.2450 O.3    17  C17        -0.3112
    359  C2'       15.0340   23.8180   30.5810 C.3    17  C17         0.2309
    360  O2'       13.8990   22.9860   30.7340 O.3    17  C17        -0.2156
    361  C1'       16.2220   22.9470   30.1850 C.3    17  C17         0.2420
    362  N1        17.5330   23.4570   30.7220 N.ar   17  C17        -0.2535
    363  C2        17.8350   23.3190   32.0870 C.ar   17  C17         0.3532
    364  O2        17.0270   22.7770   32.8530 O.2    17  C17        -0.2443
    365  N3        19.0210   23.7960   32.5450 N.ar   17  C17        -0.1739
    366  C4        19.8830   24.3860   31.7180 C.ar   17  C17         0.1759
    367  N4        21.0340   24.8270   32.2250 N.pl3  17  C17        -0.1070
    368  C5        19.5980   24.5370   30.3310 C.ar   17  C17         0.0566
    369  C6        18.4290   24.0650   29.8870 C.ar   17  C17         0.0850
    370  OP1       16.6280   26.2060   24.9810 O.2    17  C17        -0.5172
    371  OP2       18.6340   26.7380   26.5040 O.co2  17  C17        -0.4373
    372  P         13.5900   27.0070   29.5360 P.3    18  C18         0.2141
    373  C5'       12.5690   26.3290   31.8270 C.3    18  C18         0.1812
    374  O5'       13.5940   27.0390   31.1350 O.3    18  C18        -0.3114
    375  C4'       12.9050   26.0810   33.2880 C.3    18  C18         0.1773
    376  O4'       14.0820   25.2340   33.4440 O.3    18  C18        -0.3307
    377  C3'       13.2360   27.3220   34.1000 C.3    18  C18         0.1860
    378  O3'       12.0580   28.0220   34.3900 O.3    18  C18        -0.3112
    379  C2'       13.9010   26.6780   35.3190 C.3    18  C18         0.2309
    380  O2'       13.0200   26.0070   36.2050 O.3    18  C18        -0.2156
    381  C1'       14.7870   25.6580   34.6080 C.3    18  C18         0.2420
    382  N1        16.1470   26.1770   34.2090 N.ar   18  C18        -0.2535
    383  C2        17.1460   26.3910   35.1810 C.ar   18  C18         0.3532
    384  O2        16.8940   26.1560   36.3720 O.2    18  C18        -0.2443
    385  N3        18.3670   26.8430   34.7820 N.ar   18  C18        -0.1739
    386  C4        18.5890   27.0800   33.4850 C.ar   18  C18         0.1759
    387  N4        19.7860   27.5290   33.1100 N.pl3  18  C18        -0.1070
    388  C5        17.5930   26.8830   32.4870 C.ar   18  C18         0.0566
    389  C6        16.4040   26.4310   32.8880 C.ar   18  C18         0.0850
    390  OP1       12.2360   27.4160   29.0910 O.3    18  C18        -0.4373
    391  OP2       14.7770   27.7370   29.0260 O.co2  18  C18        -0.5172
    392  P         12.0980   29.6000   34.6220 P.3    19  C19         0.2141
    393  C5'       12.0680   29.2090   37.2520 C.3    19  C19         0.1812
    394  O5'       12.7150   29.7250   36.0950 O.3    19  C19        -0.3114
    395  C4'       12.9590   29.3890   38.4670 C.3    19  C19         0.1773
    396  O4'       14.2290   28.7400   38.2460 O.3    19  C19        -0.3307
    397  C3'       13.3070   30.8350   38.7320 C.3    19  C19         0.1860
    398  O3'       12.3490   31.3580   39.5990 O.3    19  C19        -0.3112
    399  C2'       14.6880   30.7840   39.3740 C.3    19  C19         0.2309
    400  O2'       14.6660   30.7540   40.7910 O.3    19  C19        -0.2156
    401  C1'       15.2850   29.5050   38.7900 C.3    19  C19         0.2420
    402  N1        16.3210   29.7630   37.7230 N.ar   19  C19        -0.2535
    403  C2        17.6400   30.0900   38.0950 C.ar   19  C19         0.3532
    404  O2        17.9290   30.1590   39.2970 O.2    19  C19        -0.2443
    405  N3        18.5710   30.3220   37.1270 N.ar   19  C19        -0.1739
    406  C4        18.2240   30.2300   35.8390 C.ar   19  C19         0.1759
    407  N4        19.1610   30.4600   34.9170 N.pl3  19  C19        -0.1070
    408  C5        16.8900   29.9040   35.4390 C.ar   19  C19         0.0566
    409  C6        15.9830   29.6840   36.4000 C.ar   19  C19         0.0850
    410  OP1       10.7010   30.0990   34.6200 O.3    19  C19        -0.4373
    411  OP2       13.0950   30.1940   33.6980 O.co2  19  C19        -0.5172
    412  P         11.7500   32.8040   39.2970 P.3    20  G20         0.2141
    413  C5'       13.3740   34.0400   40.9410 C.3    20  G20         0.1812
    414  O5'       12.9790   33.7830   39.5940 O.3    20  G20        -0.3114
    415  C4'       14.7760   34.6070   40.9880 C.3    20  G20         0.1773
    416  O4'       15.6920   33.7190   40.3010 O.3    20  G20        -0.3307
    417  C3'       14.9180   35.9380   40.2840 C.3    20  G20         0.1860
    418  O3'       14.6150   36.9390   41.2150 O.3    20  G20        -0.3112
    419  C2'       16.3910   35.9390   39.9060 C.3    20  G20         0.2309
    420  O2'       17.2210   36.3130   40.9850 O.3    20  G20        -0.2156
    421  C1'       16.6580   34.4740   39.5960 C.3    20  G20         0.2408
    422  N1        19.2470   33.7290   35.2350 N.ar   20  G20        -0.1709
    423  C2        19.7250   34.1100   36.4680 C.ar   20  G20         0.2606
    424  N2        21.0430   34.3110   36.5610 N.pl3  20  G20        -0.0859
    425  N3        18.9580   34.2820   37.5420 N.ar   20  G20        -0.1918
    426  C4        17.6400   34.0300   37.2880 C.ar   20  G20         0.1723
    427  C5        17.0720   33.6460   36.0920 C.ar   20  G20         0.1748
    428  C6        17.9010   33.4730   34.9610 C.ar   20  G20         0.3023
    429  O6        17.5500   33.1410   33.8210 O.2    20  G20        -0.2633
    430  N7        15.7030   33.4920   36.2150 N.ar   20  G20        -0.2173
    431  C8        15.4690   33.7750   37.4660 C.ar   20  G20         0.1817
    432  N9        16.5910   34.1160   38.1820 N.ar   20  G20        -0.2693
    433  OP1       10.6900   33.0240   40.3070 O.3    20  G20        -0.4373
    434  OP2       11.4390   32.9080   37.8520 O.co2  20  G20        -0.5172
    435  P         13.3240   37.8510   41.0010 P.3    21  A21         0.2141
    436  C5'       13.6170   39.7210   42.8920 C.3    21  A21         0.1812
    437  O5'       13.8020   39.2870   41.5380 O.3    21  A21        -0.3114
    438  C4'       14.8310   40.4600   43.4350 C.3    21  A21         0.1773
    439  O4'       16.0240   39.6540   43.2570 O.3    21  A21        -0.3307
    440  C3'       15.1990   41.7440   42.7120 C.3    21  A21         0.1860
    441  O3'       14.4000   42.8300   43.1390 O.3    21  A21        -0.3112
    442  C2'       16.6730   41.9110   43.0790 C.3    21  A21         0.2309
    443  O2'       16.8970   42.3750   44.3910 O.3    21  A21        -0.2156
    444  C1'       17.1480   40.4730   42.9610 C.3    21  A21         0.2408
    445  N1        21.1310   40.5330   39.6590 N.ar   21  A21        -0.2040
    446  C2        21.0250   40.9540   40.9260 C.ar   21  A21         0.2016
    447  N3        19.9670   40.9070   41.7360 N.ar   21  A21        -0.2048
    448  C4        18.9090   40.3630   41.1180 C.ar   21  A21         0.1692
    449  C5        18.8710   39.8890   39.8190 C.ar   21  A21         0.1518
    450  C6        20.0510   39.9830   39.0650 C.ar   21  A21         0.1919
    451  N6        20.1380   39.5610   37.8020 N.pl3  21  A21        -0.1054
    452  N7        17.6220   39.3930   39.5090 N.ar   21  A21        -0.2193
    453  C8        16.9370   39.5720   40.6110 C.ar   21  A21         0.1816
    454  N9        17.6470   40.1510   41.6260 N.ar   21  A21        -0.2693
    455  OP1       12.2560   37.3250   41.8860 O.3    21  A21        -0.4373
    456  OP2       13.1060   37.9770   39.5410 O.co2  21  A21        -0.5172
    457  P         13.6590   43.7350   42.0470 P.3    22  G22         0.2141
    458  C5'       15.8360   45.2060   41.5420 C.3    22  G22         0.1812
    459  O5'       14.8430   44.2740   41.1050 O.3    22  G22        -0.3114
    460  C4'       17.0910   45.0570   40.6940 C.3    22  G22         0.1773
    461  O4'       17.4010   43.6580   40.4330 O.3    22  G22        -0.3307
    462  C3'       17.0170   45.6210   39.2920 C.3    22  G22         0.1860
    463  O3'       17.1210   47.0120   39.3470 O.3    22  G22        -0.3112
    464  C2'       18.2420   44.9530   38.6800 C.3    22  G22         0.2309
    465  O2'       19.4650   45.4670   39.1690 O.3    22  G22        -0.2156
    466  C1'       18.0480   43.5130   39.1660 C.3    22  G22         0.2408
    467  N1        17.6070   41.0180   34.6330 N.ar   22  G22        -0.1709
    468  C2        18.7070   41.6740   35.1180 C.ar   22  G22         0.2606
    469  N2        19.8100   41.6930   34.3570 N.pl3  22  G22        -0.0859
    470  N3        18.7300   42.2640   36.2920 N.ar   22  G22        -0.1918
    471  C4        17.5540   42.1840   36.9790 C.ar   22  G22         0.1723
    472  C5        16.4080   41.5550   36.5630 C.ar   22  G22         0.1748
    473  C6        16.3950   40.9190   35.3100 C.ar   22  G22         0.3023
    474  O6        15.4380   40.3100   34.8160 O.2    22  G22        -0.2633
    475  N7        15.3880   41.6600   37.5030 N.ar   22  G22        -0.2173
    476  C8        15.9100   42.3510   38.4740 C.ar   22  G22         0.1817
    477  N9        17.2230   42.7070   38.2410 N.ar   22  G22        -0.2693
    478  OP1       13.0070   44.8570   42.7610 O.3    22  G22        -0.4373
    479  OP2       12.8560   42.8120   41.2130 O.co2  22  G22        -0.5172
    480  P         16.2990   47.9820   38.3690 P.3    23  A23         0.2141
    481  C5'       18.6850   48.4220   37.2920 C.3    23  A23         0.1812
    482  O5'       17.3020   48.0800   37.1140 O.3    23  A23        -0.3114
    483  C4'       19.5590   48.1160   36.0890 C.3    23  A23         0.1773
    484  O4'       19.6930   46.6850   35.9670 O.3    23  A23        -0.3307
    485  C3'       18.9900   48.5220   34.7430 C.3    23  A23         0.1860
    486  O3'       19.2650   49.8650   34.4250 O.3    23  A23        -0.3112
    487  C2'       19.6700   47.5530   33.7860 C.3    23  A23         0.2309
    488  O2'       20.9910   47.9090   33.4360 O.3    23  A23        -0.2156
    489  C1'       19.6150   46.2790   34.6130 C.3    23  A23         0.2408
    490  N1        16.9690   42.9650   31.6660 N.ar   23  A23        -0.2040
    491  C2        18.2040   43.4860   31.5420 C.ar   23  A23         0.2016
    492  N3        18.8310   44.3560   32.3470 N.ar   23  A23        -0.2048
    493  C4        18.0540   44.6990   33.3950 C.ar   23  A23         0.1692
    494  C5        16.7700   44.2540   33.6550 C.ar   23  A23         0.1518
    495  C6        16.2140   43.3400   32.7300 C.ar   23  A23         0.1919
    496  N6        14.9800   42.8400   32.8620 N.pl3  23  A23        -0.1054
    497  N7        16.2760   44.8130   34.8180 N.ar   23  A23        -0.2193
    498  C8        17.2590   45.5690   35.2310 C.ar   23  A23         0.1816
    499  N9        18.3650   45.5460   34.4270 N.ar   23  A23        -0.2693
    500  OP1       16.1780   49.2810   39.0630 O.3    23  A23        -0.4373
    501  OP2       15.0610   47.3250   37.9050 O.co2  23  A23        -0.5172
    502  P         18.1700   50.6930   33.6060 P.3    24  U24         0.2141
    503  C5'       19.2670   50.0960   31.3290 C.3    24  U24         0.1812
    504  O5'       18.1630   49.9150   32.2110 O.3    24  U24        -0.3114
    505  C4'       19.2540   49.0900   30.1990 C.3    24  U24         0.1773
    506  O4'       19.0430   47.7550   30.7140 O.3    24  U24        -0.3307
    507  C3'       18.1320   49.2950   29.2010 C.3    24  U24         0.1860
    508  O3'       18.4790   50.3120   28.2650 O.3    24  U24        -0.3112
    509  C2'       18.0520   47.9050   28.5820 C.3    24  U24         0.2309
    510  O2'       19.0550   47.6490   27.6230 O.3    24  U24        -0.2156
    511  C1'       18.2460   47.0120   29.8050 C.3    24  U24         0.2420
    512  N1        16.9330   46.5860   30.4370 N.ar   24  U24        -0.2534
    513  C2        16.2000   45.5540   29.8690 C.ar   24  U24         0.3546
    514  O2        16.5570   44.9380   28.8800 O.2    24  U24        -0.2443
    515  N3        15.0210   45.2510   30.5130 N.ar   24  U24        -0.1530
    516  C4        14.5070   45.8750   31.6380 C.ar   24  U24         0.2846
    517  O4        13.4410   45.5000   32.1090 O.2    24  U24        -0.2650
    518  C5        15.3110   46.9420   32.1720 C.ar   24  U24         0.0814
    519  C6        16.4620   47.2480   31.5640 C.ar   24  U24         0.0870
    520  OP1       18.6610   52.0800   33.4110 O.2    24  U24        -0.5172
    521  OP2       16.8580   50.4740   34.2430 O.co2  24  U24        -0.4373
    522  P         17.4250   51.4580   27.9020 P.3    25  G25         0.2141
    523  C5'       16.2390   49.9660   26.1350 C.3    25  G25         0.1812
    524  O5'       16.1610   50.6270   27.3860 O.3    25  G25        -0.3114
    525  C4'       15.1850   48.8900   25.9750 C.3    25  G25         0.1773
    526  O4'       15.0160   48.0860   27.1670 O.3    25  G25        -0.3307
    527  C3'       13.8030   49.4300   25.6800 C.3    25  G25         0.1860
    528  O3'       13.7680   49.7570   24.3000 O.3    25  G25        -0.3112
    529  C2'       12.9250   48.2380   26.0710 C.3    25  G25         0.2309
    530  O2'       12.8740   47.2360   25.0730 O.3    25  G25        -0.2156
    531  C1'       13.6580   47.6940   27.2970 C.3    25  G25         0.2408
    532  N1        10.5640   46.9050   31.3460 N.ar   25  G25        -0.1709
    533  C2        10.6540   46.1760   30.1870 C.ar   25  G25         0.2606
    534  N2         9.8310   45.1210   30.1100 N.pl3  25  G25        -0.0859
    535  N3        11.4890   46.4660   29.1890 N.ar   25  G25        -0.1918
    536  C4        12.2460   47.5700   29.4450 C.ar   25  G25         0.1723
    537  C5        12.2210   48.3600   30.5770 C.ar   25  G25         0.1748
    538  C6        11.3280   48.0330   31.6310 C.ar   25  G25         0.3023
    539  O6        11.1630   48.6180   32.7110 O.2    25  G25        -0.2633
    540  N7        13.1350   49.4010   30.4790 N.ar   25  G25        -0.2173
    541  C8        13.6890   49.2260   29.3160 C.ar   25  G25         0.1817
    542  N9        13.2020   48.1410   28.6210 N.ar   25  G25        -0.2693
    543  OP1       18.0020   52.2300   26.7840 O.2    25  G25        -0.5172
    544  OP2       17.0070   52.1650   29.1310 O.co2  25  G25        -0.4373
    545  P         13.4460   51.2460   23.8380 P.3    26  A26         0.2141
    546  C5'       14.0660   53.6180   24.6390 C.3    26  A26         0.1812
    547  O5'       14.1140   52.2210   24.8960 O.3    26  A26        -0.3114
    548  C4'       13.6640   54.3620   25.8960 C.3    26  A26         0.1773
    549  O4'       12.4280   53.8130   26.4150 O.3    26  A26        -0.3307
    550  C3'       14.6710   54.2980   27.0390 C.3    26  A26         0.1860
    551  O3'       14.7400   55.5530   27.6560 O.3    26  A26        -0.3112
    552  C2'       14.0340   53.3230   28.0220 C.3    26  A26         0.2309
    553  O2'       14.4190   53.5870   29.3600 O.3    26  A26        -0.2156
    554  C1'       12.5540   53.6240   27.8100 C.3    26  A26         0.2408
    555  N1         9.7370   51.6360   31.6630 N.ar   26  A26        -0.2040
    556  C2        10.4920   52.7360   31.5830 C.ar   26  A26         0.2016
    557  N3        11.1970   53.1960   30.5480 N.ar   26  A26        -0.2048
    558  C4        11.0820   52.3920   29.4800 C.ar   26  A26         0.1692
    559  C5        10.3410   51.2290   29.4060 C.ar   26  A26         0.1518
    560  C6         9.6360   50.8500   30.5690 C.ar   26  A26         0.1919
    561  N6         8.8790   49.7520   30.6350 N.pl3  26  A26        -0.1054
    562  N7        10.4500   50.6530   28.1520 N.ar   26  A26        -0.2193
    563  C8        11.2460   51.4720   27.5060 C.ar   26  A26         0.1816
    564  N9        11.6650   52.5450   28.2440 N.ar   26  A26        -0.2693
    565  OP1       11.9830   51.3600   23.9910 O.3    26  A26        -0.4373
    566  OP2       14.1370   51.5250   22.5600 O.co2  26  A26        -0.5172
    567  P         15.8980   56.5960   27.3500 P.3    27  G27         0.2141
    568  C5'       14.5460   58.8200   27.6870 C.3    27  G27         0.1812
    569  O5'       15.3760   57.8110   28.2410 O.3    27  G27        -0.3114
    570  C4'       13.0950   58.3800   27.5670 C.3    27  G27         0.1773
    571  O4'       12.4780   58.2540   28.8800 O.3    27  G27        -0.3307
    572  C3'       12.2070   59.3520   26.7930 C.3    27  G27         0.1860
    573  O3'       11.3030   58.5820   25.9800 O.3    27  G27        -0.3112
    574  C2'       11.5450   60.1320   27.9320 C.3    27  G27         0.2309
    575  O2'       10.3690   60.8060   27.5470 O.3    27  G27        -0.2156
    576  C1'       11.2540   58.9730   28.8770 C.3    27  G27         0.2408
    577  N1         8.5600   57.5340   32.9760 N.ar   27  G27        -0.1709
    578  C2         8.6590   56.9410   31.7380 C.ar   27  G27         0.2606
    579  N2         7.9560   55.8170   31.5550 N.pl3  27  G27        -0.0859
    580  N3         9.3990   57.4170   30.7410 N.ar   27  G27        -0.1918
    581  C4        10.0530   58.5620   31.0740 C.ar   27  G27         0.1723
    582  C5        10.0200   59.2300   32.2790 C.ar   27  G27         0.1748
    583  C6         9.2240   58.7080   33.3360 C.ar   27  G27         0.3023
    584  O6         9.0740   59.1680   34.4760 O.2    27  G27        -0.2633
    585  N7        10.8290   60.3600   32.2320 N.ar   27  G27        -0.2173
    586  C8        11.3240   60.3540   31.0240 C.ar   27  G27         0.1817
    587  N9        10.8930   59.2950   30.2590 N.ar   27  G27        -0.2693
    588  OP1       15.8480   56.9770   25.9210 O.2    27  G27        -0.5172
    589  OP2       17.1410   56.0870   27.9590 O.co2  27  G27        -0.4373
    590  P         10.3460   59.2500   24.8850 P.3    28  U28         0.2141
    591  C5'       10.9740   57.5180   23.0090 C.3    28  U28         0.1812
    592  O5'       10.0040   58.0450   23.8890 O.3    28  U28        -0.3114
    593  C4'       10.6820   56.0580   22.7190 C.3    28  U28         0.1773
    594  O4'       11.0380   55.2440   23.8650 O.3    28  U28        -0.3307
    595  C3'        9.2270   55.6890   22.4750 C.3    28  U28         0.1860
    596  O3'        8.8460   55.9950   21.1460 O.3    28  U28        -0.3112
    597  C2'        9.2660   54.1860   22.7240 C.3    28  U28         0.2309
    598  O2'        9.8650   53.4640   21.6650 O.3    28  U28        -0.2156
    599  C1'       10.1690   54.1270   23.9530 C.3    28  U28         0.2420
    600  N1         9.4930   54.1390   25.3090 N.ar   28  U28        -0.2534
    601  C2         8.6530   53.1010   25.6980 C.ar   28  U28         0.3546
    602  O2         8.3830   52.1430   25.0000 O.2    28  U28        -0.2443
    603  N3         8.1180   53.2270   26.9570 N.ar   28  U28        -0.1530
    604  C4         8.3380   54.2630   27.8500 C.ar   28  U28         0.2846
    605  O4         7.7960   54.2470   28.9450 O.2    28  U28        -0.2650
    606  C5         9.2210   55.3020   27.3870 C.ar   28  U28         0.0814
    607  C6         9.7490   55.2010   26.1630 C.ar   28  U28         0.0870
    608  OP1       11.1090   60.3080   24.1860 O.2    28  U28        -0.5172
    609  OP2        9.0840   59.5910   25.5750 O.co2  28  U28        -0.4373
    610  P          7.3490   56.4630   20.8270 P.3    29  A29         0.2141
    611  C5'        6.3650   54.1210   20.1030 C.3    29  A29         0.1812
    612  O5'        6.4950   55.1310   21.1130 O.3    29  A29        -0.3114
    613  C4'        5.5430   52.9190   20.5530 C.3    29  A29         0.1773
    614  O4'        6.0360   52.4120   21.8180 O.3    29  A29        -0.3307
    615  C3'        4.0680   53.1830   20.8220 C.3    29  A29         0.1860
    616  O3'        3.3010   53.0910   19.6370 O.3    29  A29        -0.3112
    617  C2'        3.6930   52.0790   21.8040 C.3    29  A29         0.2309
    618  O2'        3.4660   50.8260   21.1900 O.3    29  A29        -0.2156
    619  C1'        4.9510   52.0350   22.6560 C.3    29  A29         0.2408
    620  N1         3.0140   52.7670   27.4020 N.ar   29  A29        -0.2040
    621  C2         2.8110   51.7990   26.4970 C.ar   29  A29         0.2016
    622  N3         3.3470   51.6640   25.2800 N.ar   29  A29        -0.2048
    623  C4         4.1810   52.6870   24.9990 C.ar   29  A29         0.1692
    624  C5         4.4840   53.7540   25.8280 C.ar   29  A29         0.1518
    625  C6         3.8590   53.7750   27.0900 C.ar   29  A29         0.1919
    626  N6         4.0630   54.7460   27.9820 N.pl3  29  A29        -0.1054
    627  N7         5.3780   54.6130   25.2180 N.ar   29  A29        -0.2193
    628  C8         5.5970   54.0610   24.0490 C.ar   29  A29         0.1816
    629  N9         4.9080   52.8970   23.8440 N.ar   29  A29        -0.2693
    630  OP1        7.2860   56.7690   19.3810 O.2    29  A29        -0.5172
    631  OP2        6.9770   57.5360   21.7850 O.co2  29  A29        -0.4373
    632  P          2.1570   54.1770   19.3580 P.3    30  G30         0.2141
    633  C5'        0.3310   52.9820   20.8780 C.3    30  G30         0.1812
    634  O5'        1.2220   54.1080   20.6680 O.3    30  G30        -0.3114
    635  C4'       -0.2320   52.9240   22.2950 C.3    30  G30         0.1773
    636  O4'        0.8180   52.9240   23.3040 O.3    30  G30        -0.3307
    637  C3'       -1.1010   54.0970   22.7240 C.3    30  G30         0.1860
    638  O3'       -2.3710   54.0390   22.1000 O.3    30  G30        -0.3112
    639  C2'       -1.1430   53.8570   24.2330 C.3    30  G30         0.2309
    640  O2'       -1.9520   52.7540   24.6180 O.3    30  G30        -0.2156
    641  C1'        0.3360   53.5470   24.4860 C.3    30  G30         0.2408
    642  N1         1.5060   57.1930   27.8870 N.ar   30  G30        -0.1709
    643  C2         0.6260   56.1380   28.0130 C.ar   30  G30         0.2606
    644  N2        -0.0260   56.0320   29.1810 N.pl3  30  G30        -0.0859
    645  N3         0.4020   55.2420   27.0530 N.ar   30  G30        -0.1918
    646  C4         1.1370   55.4880   25.9320 C.ar   30  G30         0.1723
    647  C5         2.0360   56.5150   25.7140 C.ar   30  G30         0.1748
    648  C6         2.2670   57.4630   26.7440 C.ar   30  G30         0.3023
    649  O6         3.0290   58.4420   26.7210 O.2    30  G30        -0.2633
    650  N7         2.5850   56.4270   24.4430 N.ar   30  G30        -0.2173
    651  C8         2.0210   55.3700   23.9240 C.ar   30  G30         0.1817
    652  N9         1.1340   54.7430   24.7690 N.ar   30  G30        -0.2693
    653  OP1        1.4160   53.6340   18.1920 O.2    30  G30        -0.5172
    654  OP2        2.7590   55.5360   19.3000 O.co2  30  G30        -0.4373
    655  P         -3.0690   55.3900   21.5960 P.3    31  G31         0.2141
    656  C5'       -4.6690   55.2410   23.6550 C.3    31  G31         0.1812
    657  O5'       -3.6820   55.9830   22.9480 O.3    31  G31        -0.3114
    658  C4'       -4.9780   55.9310   24.9630 C.3    31  G31         0.1773
    659  O4'       -3.8090   55.8880   25.8170 O.3    31  G31        -0.3307
    660  C3'       -5.2770   57.4050   24.7990 C.3    31  G31         0.1860
    661  O3'       -6.6410   57.6070   24.4180 O.3    31  G31        -0.3112
    662  C2'       -4.9030   57.9510   26.1770 C.3    31  G31         0.2309
    663  O2'       -5.9150   57.7930   27.1550 O.3    31  G31        -0.2156
    664  C1'       -3.6540   57.1190   26.4930 C.3    31  G31         0.2408
    665  N1        -0.2860   60.8880   27.2620 N.ar   31  G31        -0.1709
    666  C2        -1.3980   60.5500   28.0000 C.ar   31  G31         0.2606
    667  N2        -1.6570   61.3080   29.0750 N.pl3  31  G31        -0.0859
    668  N3        -2.2010   59.5360   27.7000 N.ar   31  G31        -0.1918
    669  C4        -1.8050   58.8680   26.5820 C.ar   31  G31         0.1723
    670  C5        -0.7160   59.1280   25.7800 C.ar   31  G31         0.1748
    671  C6         0.1330   60.2150   26.1140 C.ar   31  G31         0.3023
    672  O6         1.1500   60.5970   25.5230 O.2    31  G31        -0.2633
    673  N7        -0.6470   58.2200   24.7280 N.ar   31  G31        -0.2173
    674  C8        -1.6780   57.4430   24.9080 C.ar   31  G31         0.1817
    675  N9        -2.4290   57.7710   26.0180 N.ar   31  G31        -0.2693
    676  OP1       -4.1830   55.0170   20.6890 O.2    31  G31        -0.5172
    677  OP2       -2.0160   56.3240   21.1350 O.co2  31  G31        -0.4373
    678  P         -6.9700   58.6860   23.2750 P.3    32  C32         0.2141
    679  C5'       -7.7980   60.3430   25.1470 C.3    32  C32         0.1812
    680  O5'       -6.8920   60.0780   24.0760 O.3    32  C32        -0.3114
    681  C4'       -7.3200   61.5000   26.0030 C.3    32  C32         0.1773
    682  O4'       -6.0220   61.1980   26.5760 O.3    32  C32        -0.3307
    683  C3'       -7.0640   62.7980   25.2580 C.3    32  C32         0.1860
    684  O3'       -8.2720   63.5040   24.9560 O.3    32  C32        -0.3112
    685  C2'       -6.1690   63.5290   26.2570 C.3    32  C32         0.2309
    686  O2'       -6.8330   64.0370   27.4000 O.3    32  C32        -0.2156
    687  C1'       -5.2400   62.3840   26.6400 C.3    32  C32         0.2420
    688  N1        -4.0340   62.3080   25.7260 N.ar   32  C32        -0.2535
    689  C2        -2.9740   63.2380   25.8640 C.ar   32  C32         0.3532
    690  O2        -3.0100   64.1240   26.7360 O.2    32  C32        -0.2443
    691  N3        -1.9080   63.1450   25.0250 N.ar   32  C32        -0.1739
    692  C4        -1.8660   62.1880   24.0860 C.ar   32  C32         0.1759
    693  N4        -0.7930   62.1440   23.2910 N.pl3  32  C32        -0.1070
    694  C5        -2.9230   61.2350   23.9210 C.ar   32  C32         0.0566
    695  C6        -3.9700   61.3340   24.7520 C.ar   32  C32         0.0850
    696  OP1       -8.3610   58.4870   22.8030 O.3    32  C32        -0.4373
    697  OP2       -5.8660   58.6210   22.2870 O.co2  32  C32        -0.5172
    698  P         -8.5440   64.0450   23.4630 P.3    33  U33         0.2141
    699  C5'       -7.6610   66.4190   24.2430 C.3    33  U33         0.1812
    700  O5'       -7.5750   65.3210   23.3360 O.3    33  U33        -0.3114
    701  C4'       -6.3570   67.2020   24.2790 C.3    33  U33         0.1773
    702  O4'       -5.2280   66.3240   24.5170 O.3    33  U33        -0.3307
    703  C3'       -5.9640   67.9320   23.0000 C.3    33  U33         0.1860
    704  O3'       -6.7080   69.1480   22.8220 O.3    33  U33        -0.3112
    705  C2'       -4.4810   68.1850   23.2700 C.3    33  U33         0.2309
    706  O2'       -4.2310   69.2270   24.1980 O.3    33  U33        -0.2156
    707  C1'       -4.0750   66.8500   23.8740 C.3    33  U33         0.2420
    708  N1        -3.5230   65.8860   22.8490 N.ar   33  U33        -0.2534
    709  C2        -2.2130   66.0440   22.4120 C.ar   33  U33         0.3546
    710  O2        -1.4710   66.9340   22.8080 O.2    33  U33        -0.2443
    711  N3        -1.7980   65.1110   21.4810 N.ar   33  U33        -0.1530
    712  C4        -2.5420   64.0650   20.9530 C.ar   33  U33         0.2846
    713  O4        -2.0380   63.3190   20.1260 O.2    33  U33        -0.2650
    714  C5        -3.8910   63.9560   21.4500 C.ar   33  U33         0.0814
    715  C6        -4.3150   64.8520   22.3570 C.ar   33  U33         0.0870
    716  OP1       -9.9450   64.5310   23.4070 O.3    33  U33        -0.4373
    717  OP2       -8.0690   62.9940   22.5190 O.co2  33  U33        -0.5172
    718  P         -6.7920   69.8590   21.3810 P.3    34  G34         0.2141
    719  C5'       -5.3050   72.0170   21.9440 C.3    34  G34         0.1812
    720  O5'       -5.4390   70.7260   21.3280 O.3    34  G34        -0.3114
    721  C4'       -4.0190   72.6940   21.4920 C.3    34  G34         0.1773
    722  O4'       -2.8760   71.8790   21.8760 O.3    34  G34        -0.3307
    723  C3'       -3.8750   72.8590   19.9820 C.3    34  G34         0.1860
    724  O3'       -4.4670   74.0710   19.5310 O.3    34  G34        -0.3112
    725  C2'       -2.3620   72.8610   19.7800 C.3    34  G34         0.2309
    726  O2'       -1.7910   74.1400   19.9830 O.3    34  G34        -0.2156
    727  C1'       -1.8990   71.8710   20.8450 C.3    34  G34         0.2408
    728  N1         0.9840   68.6300   18.0920 N.ar   34  G34        -0.1709
    729  C2         1.2070   69.9590   18.3840 C.ar   34  G34         0.2606
    730  N2         2.3340   70.4870   17.8830 N.pl3  34  G34        -0.0859
    731  N3         0.3810   70.7140   19.1140 N.ar   34  G34        -0.1918
    732  C4        -0.7120   70.0240   19.5460 C.ar   34  G34         0.1723
    733  C5        -1.0210   68.6980   19.3050 C.ar   34  G34         0.1748
    734  C6        -0.1300   67.9090   18.5240 C.ar   34  G34         0.3023
    735  O6        -0.2390   66.7190   18.2040 O.2    34  G34        -0.2633
    736  N7        -2.2230   68.3560   19.9110 N.ar   34  G34        -0.2173
    737  C8        -2.6080   69.4570   20.4930 C.ar   34  G34         0.1817
    738  N9        -1.7450   70.5130   20.3210 N.ar   34  G34        -0.2693
    739  OP1       -7.9540   70.7870   21.4000 O.3    34  G34        -0.4373
    740  OP2       -6.6980   68.7970   20.3410 O.co2  34  G34        -0.5172
    741  P         -5.1470   74.1350   18.0790 P.3    35  U35         0.2141
    742  C5'       -3.2810   75.5710   16.8860 C.3    35  U35         0.1812
    743  O5'       -3.8910   74.2950   17.1010 O.3    35  U35        -0.3114
    744  C4'       -1.9340   75.4240   16.2010 C.3    35  U35         0.1773
    745  O4'       -1.1760   74.3670   16.8530 O.3    35  U35        -0.3307
    746  C3'       -1.9710   74.9810   14.7430 C.3    35  U35         0.1860
    747  O3'       -2.2640   76.0580   13.8370 O.3    35  U35        -0.3112
    748  C2'       -0.5540   74.4340   14.5750 C.3    35  U35         0.2309
    749  O2'        0.4190   75.4410   14.3460 O.3    35  U35        -0.2156
    750  C1'       -0.3180   73.7320   15.9160 C.3    35  U35         0.2420
    751  N1        -0.5730   72.2420   15.8470 N.ar   35  U35        -0.2534
    752  C2         0.3900   71.4180   15.2800 C.ar   35  U35         0.3546
    753  O2         1.4540   71.8170   14.8360 O.2    35  U35        -0.2443
    754  N3         0.0620   70.0810   15.2500 N.ar   35  U35        -0.1530
    755  C4        -1.1050   69.4960   15.7140 C.ar   35  U35         0.2846
    756  O4        -1.2490   68.2830   15.6140 O.2    35  U35        -0.2650
    757  C5        -2.0640   70.4080   16.2870 C.ar   35  U35         0.0814
    758  C6        -1.7640   71.7150   16.3260 C.ar   35  U35         0.0870
    759  OP1       -5.9770   75.3670   18.0330 O.3    35  U35        -0.4373
    760  OP2       -5.7630   72.8210   17.7850 O.co2  35  U35        -0.5172
    761  P         -3.0520   75.7670   12.4640 P.3    36  C36         0.2141
    762  C5'       -0.8270   75.5360   11.0590 C.3    36  C36         0.1812
    763  O5'       -1.9950   74.9220   11.6000 O.3    36  C36        -0.3114
    764  C4'        0.1700   74.4870   10.6140 C.3    36  C36         0.1773
    765  O4'        0.4100   73.5560   11.6940 O.3    36  C36        -0.3307
    766  C3'       -0.3130   73.5820    9.4970 C.3    36  C36         0.1860
    767  O3'       -0.1740   74.2140    8.2440 O.3    36  C36        -0.3112
    768  C2'        0.6390   72.4060    9.6500 C.3    36  C36         0.2309
    769  O2'        1.9380   72.6630    9.1530 O.3    36  C36        -0.2156
    770  C1'        0.6630   72.2620   11.1660 C.3    36  C36         0.2420
    771  N1        -0.3460   71.2520   11.6600 N.ar   36  C36        -0.2535
    772  C2        -0.0800   69.8770   11.5230 C.ar   36  C36         0.3532
    773  O2         0.9790   69.5120   11.0020 O.2    36  C36        -0.2443
    774  N3        -0.9980   68.9740   11.9680 N.ar   36  C36        -0.1739
    775  C4        -2.1400   69.3980   12.5250 C.ar   36  C36         0.1759
    776  N4        -3.0180   68.4840   12.9530 N.pl3  36  C36        -0.1070
    777  C5        -2.4330   70.7880   12.6750 C.ar   36  C36         0.0566
    778  C6        -1.5230   71.6680   12.2320 C.ar   36  C36         0.0850
    779  OP1       -3.3430   77.0740   11.8180 O.2    36  C36        -0.5172
    780  OP2       -4.1530   74.8160   12.7510 O.co2  36  C36        -0.4373
    781  P         -1.1090   73.7540    7.0310 P.3    37  C37         0.2141
    782  C5'        0.7820   72.2190    6.1060 C.3    37  C37         0.1812
    783  O5'       -0.5250   72.2980    6.6790 O.3    37  C37        -0.3114
    784  C4'        1.2510   70.8020    5.8570 C.3    37  C37         0.1773
    785  O4'        1.2550   70.0290    7.0840 O.3    37  C37        -0.3307
    786  C3'        0.3640   69.9860    4.9410 C.3    37  C37         0.1860
    787  O3'        0.5890   70.3360    3.5970 O.3    37  C37        -0.3112
    788  C2'        0.8450   68.5790    5.2630 C.3    37  C37         0.2309
    789  O2'        2.0970   68.2600    4.6790 O.3    37  C37        -0.2156
    790  C1'        0.9610   68.6690    6.7840 C.3    37  C37         0.2420
    791  N1        -0.2870   68.2140    7.5200 N.ar   37  C37        -0.2535
    792  C2        -0.6170   66.8470    7.5740 C.ar   37  C37         0.3532
    793  O2         0.1110   66.0090    7.0290 O.2    37  C37        -0.2443
    794  N3        -1.7360   66.4680    8.2420 N.ar   37  C37        -0.1739
    795  C4        -2.5120   67.3830    8.8300 C.ar   37  C37         0.1759
    796  N4        -3.6010   66.9560    9.4710 N.pl3  37  C37        -0.1070
    797  C5        -2.2120   68.7780    8.7850 C.ar   37  C37         0.0566
    798  C6        -1.1020   69.1380    8.1280 C.ar   37  C37         0.0850
    799  OP1       -0.8700   74.6890    5.9020 O.2    37  C37        -0.5172
    800  OP2       -2.4840   73.5900    7.5560 O.co2  37  C37        -0.4373
    801  P         -0.6580   70.3090    2.5970 P.3    38  C38         0.2141
    802  C5'        0.3810   68.0060    1.7850 C.3    38  C38         0.1812
    803  O5'       -0.7590   68.7550    2.2220 O.3    38  C38        -0.3114
    804  C4'        0.0860   66.5150    1.8160 C.3    38  C38         0.1773
    805  O4'       -0.1900   66.0810    3.1730 O.3    38  C38        -0.3307
    806  C3'       -1.1380   66.1120    1.0070 C.3    38  C38         0.1860
    807  O3'       -0.7670   65.8150   -0.3420 O.3    38  C38        -0.3112
    808  C2'       -1.6770   64.8860    1.7350 C.3    38  C38         0.2309
    809  O2'       -1.2630   63.6890    1.1060 O.3    38  C38        -0.2156
    810  C1'       -1.1190   65.0100    3.1590 C.3    38  C38         0.2420
    811  N1        -2.2110   65.2390    4.1790 N.ar   38  C38        -0.2535
    812  C2        -2.7930   64.1430    4.8380 C.ar   38  C38         0.3532
    813  O2        -2.3980   63.0040    4.5870 O.2    38  C38        -0.2443
    814  N3        -3.7810   64.3540    5.7440 N.ar   38  C38        -0.1739
    815  C4        -4.2000   65.5980    5.9970 C.ar   38  C38         0.1759
    816  N4        -5.1780   65.7560    6.8940 N.pl3  38  C38        -0.1070
    817  C5        -3.6330   66.7360    5.3390 C.ar   38  C38         0.0566
    818  C6        -2.6570   66.5110    4.4460 C.ar   38  C38         0.0850
    819  OP1       -0.3060   71.0960    1.3950 O.2    38  C38        -0.5172
    820  OP2       -1.8790   70.6720    3.3520 O.co2  38  C38        -0.4373
    821  P         -1.7100   66.2540   -1.5680 P.3    39  A39         0.2141
    822  C5'       -3.5020   64.2920   -1.2950 C.3    39  A39         0.1812
    823  O5'       -3.1240   65.6560   -1.1210 O.3    39  A39        -0.3114
    824  C4'       -4.9980   64.2280   -1.0540 C.3    39  A39         0.1773
    825  O4'       -5.2660   64.5960    0.3240 O.3    39  A39        -0.3307
    826  C3'       -5.8220   65.1640   -1.9540 C.3    39  A39         0.1860
    827  O3'       -6.8660   64.4640   -2.6590 O.3    39  A39        -0.3112
    828  C2'       -6.3770   66.2240   -0.9970 C.3    39  A39         0.2309
    829  O2'       -7.6900   66.6570   -1.3150 O.3    39  A39        -0.2156
    830  C1'       -6.3390   65.5160    0.3630 C.3    39  A39         0.2408
    831  N1        -7.9500   67.1500    5.0240 N.ar   39  A39        -0.2040
    832  C2        -8.4030   66.1720    4.2170 C.ar   39  A39         0.2016
    833  N3        -7.9410   65.7920    3.0180 N.ar   39  A39        -0.2048
    834  C4        -6.8790   66.5390    2.6420 C.ar   39  A39         0.1692
    835  C5        -6.3030   67.5800    3.3680 C.ar   39  A39         0.1518
    836  C6        -6.8820   67.8870    4.6260 C.ar   39  A39         0.1919
    837  N6        -6.4270   68.8600    5.4310 N.pl3  39  A39        -0.1054
    838  N7        -5.2270   68.1210    2.6780 N.ar   39  A39        -0.2193
    839  C8        -5.1750   67.4160    1.5710 C.ar   39  A39         0.1816
    840  N9        -6.1380   66.4430    1.4780 N.ar   39  A39        -0.2693
    841  OP1       -1.2350   65.5200   -2.7670 O.2    39  A39        -0.5172
    842  OP2       -1.8420   67.7340   -1.6080 O.co2  39  A39        -0.4373
    843  P         -6.5910   63.1700   -3.5740 P.3    40  U40         0.2141
    844  C5'       -5.9400   60.6920   -2.8950 C.3    40  U40         0.1812
    845  O5'       -6.2950   62.0120   -2.5060 O.3    40  U40        -0.3114
    846  C4'       -6.5380   59.6830   -1.9240 C.3    40  U40         0.1773
    847  O4'       -7.0210   60.3410   -0.7160 O.3    40  U40        -0.3307
    848  C3'       -7.7230   58.8870   -2.4700 C.3    40  U40         0.1860
    849  O3'       -7.6750   57.5140   -2.0300 O.3    40  U40        -0.3112
    850  C2'       -8.9170   59.6480   -1.8880 C.3    40  U40         0.2309
    851  O2'      -10.0940   58.8660   -1.8100 O.3    40  U40        -0.2156
    852  C1'       -8.3820   59.9990   -0.4980 C.3    40  U40         0.2420
    853  N1        -9.1180   61.1170    0.2300 N.ar   40  U40        -0.2534
    854  C2        -9.9430   60.8300    1.3140 C.ar   40  U40         0.3546
    855  O2       -10.1310   59.7070    1.7500 O.2    40  U40        -0.2443
    856  N3       -10.5540   61.9190    1.8960 N.ar   40  U40        -0.1530
    857  C4       -10.4390   63.2470    1.5120 C.ar   40  U40         0.2846
    858  O4       -11.0490   64.1270    2.1190 O.2    40  U40        -0.2650
    859  C5        -9.5710   63.4700    0.3800 C.ar   40  U40         0.0814
    860  C6        -8.9590   62.4250   -0.2000 C.ar   40  U40         0.0870
    861  OP1       -5.3660   63.4100   -4.3710 O.2    40  U40        -0.5172
    862  OP2       -7.8660   62.8480   -4.2530 O.co2  40  U40        -0.4373
    863  P         -6.6030   56.4650   -2.6070 P.3    41  C41         0.2141
    864  C5'       -5.5020   56.2380   -0.2170 C.3    41  C41         0.1812
    865  O5'       -5.3660   56.5800   -1.5930 O.3    41  C41        -0.3114
    866  C4'       -4.5030   57.0090    0.6250 C.3    41  C41         0.1773
    867  O4'       -4.9380   58.3720    0.7520 O.3    41  C41        -0.3307
    868  C3'       -4.3640   56.5270    2.0570 C.3    41  C41         0.1860
    869  O3'       -3.2400   55.6580    2.1070 O.3    41  C41        -0.3112
    870  C2'       -4.1880   57.7880    2.9140 C.3    41  C41         0.2309
    871  O2'       -2.9120   57.9210    3.5080 O.3    41  C41        -0.2156
    872  C1'       -4.3920   58.9270    1.9250 C.3    41  C41         0.2420
    873  N1        -5.3450   59.9850    2.3700 N.ar   41  C41        -0.2535
    874  C2        -6.6390   59.6660    2.8340 C.ar   41  C41         0.3532
    875  O2        -7.0180   58.4830    2.9000 O.2    41  C41        -0.2443
    876  N3        -7.4550   60.6920    3.2120 N.ar   41  C41        -0.1739
    877  C4        -7.0480   61.9660    3.1370 C.ar   41  C41         0.1759
    878  N4        -7.8990   62.9240    3.5210 N.pl3  41  C41        -0.1070
    879  C5        -5.7430   62.3020    2.6620 C.ar   41  C41         0.0566
    880  C6        -4.9420   61.2920    2.2910 C.ar   41  C41         0.0850
    881  OP1       -6.1570   56.9550   -3.9320 O.2    41  C41        -0.5172
    882  OP2       -7.1820   55.1100   -2.4790 O.co2  41  C41        -0.4373
    883  P         -3.4040   54.1440    2.5940 P.3    42  A42         0.2141
    884  C5'       -2.3920   54.6860    4.9640 C.3    42  A42         0.1812
    885  O5'       -3.5290   54.3570    4.1720 O.3    42  A42        -0.3114
    886  C4'       -2.4130   53.8150    6.2020 C.3    42  A42         0.1773
    887  O4'       -3.6690   53.9770    6.9070 O.3    42  A42        -0.3307
    888  C3'       -2.2830   52.3230    5.9080 C.3    42  A42         0.1860
    889  O3'       -1.2010   51.7860    6.6680 O.3    42  A42        -0.3112
    890  C2'       -3.6330   51.7340    6.3140 C.3    42  A42         0.2309
    891  O2'       -3.5160   50.4300    6.8440 O.3    42  A42        -0.2156
    892  C1'       -4.0750   52.7190    7.3920 C.3    42  A42         0.2408
    893  N1        -7.7810   52.6780   10.9900 N.ar   42  A42        -0.2040
    894  C2        -6.4440   52.6520   11.0850 C.ar   42  A42         0.2016
    895  N3        -5.5370   52.6640   10.1050 N.ar   42  A42        -0.2048
    896  C4        -6.1260   52.7150    8.8950 C.ar   42  A42         0.1692
    897  C5        -7.4870   52.7470    8.6390 C.ar   42  A42         0.1518
    898  C6        -8.3410   52.7240    9.7610 C.ar   42  A42         0.1919
    899  N6        -9.6720   52.7500    9.6590 N.pl3  42  A42        -0.1054
    900  N7        -7.7340   52.7950    7.2770 N.ar   42  A42        -0.2193
    901  C8        -6.5350   52.7910    6.7430 C.ar   42  A42         0.1816
    902  N9        -5.5160   52.7400    7.6590 N.ar   42  A42        -0.2693
    903  OP1       -2.1410   53.4280    2.2910 O.3    42  A42        -0.4373
    904  OP2       -4.6960   53.6050    2.1050 O.co2  42  A42        -0.5172
    905  P          0.2990   51.9680    6.1420 P.3    43  G43         0.2141
    906  C5'        1.3290   51.1490    8.3990 C.3    43  G43         0.1812
    907  O5'        1.1050   50.9070    7.0170 O.3    43  G43        -0.3114
    908  C4'        1.4740   49.8280    9.1260 C.3    43  G43         0.1773
    909  O4'        0.2990   49.0260    8.8410 O.3    43  G43        -0.3307
    910  C3'        2.6810   49.0000    8.7060 C.3    43  G43         0.1860
    911  O3'        3.2140   48.3240    9.8350 O.3    43  G43        -0.3112
    912  C2'        2.0970   48.0260    7.6810 C.3    43  G43         0.2309
    913  O2'        2.7270   46.7590    7.6560 O.3    43  G43        -0.2156
    914  C1'        0.6480   47.8560    8.1250 C.3    43  G43         0.2408
    915  N1        -0.9920   44.6510    4.5240 N.ar   43  G43        -0.1709
    916  C2        -0.1190   44.4370    5.5630 C.ar   43  G43         0.2606
    917  N2         0.4000   43.2080    5.6640 N.pl3  43  G43        -0.0859
    918  N3         0.2340   45.3580    6.4450 N.ar   43  G43        -0.1918
    919  C4        -0.3720   46.5440    6.2120 C.ar   43  G43         0.1723
    920  C5        -1.2600   46.8640    5.2080 C.ar   43  G43         0.1748
    921  C6        -1.6230   45.8640    4.2660 C.ar   43  G43         0.3023
    922  O6        -2.3990   45.9580    3.3020 O.2    43  G43        -0.2633
    923  N7        -1.6590   48.1930    5.3140 N.ar   43  G43        -0.2173
    924  C8        -1.0130   48.6340    6.3580 C.ar   43  G43         0.1817
    925  N9        -0.2180   47.6890    6.9600 N.ar   43  G43        -0.2693
    926  OP1        0.7830   53.3230    6.4990 O.3    43  G43        -0.4373
    927  OP2        0.3090   51.5340    4.7270 O.co2  43  G43        -0.5172
    928  P          4.7900   48.1020   10.0200 P.3    44  G44         0.2141
    929  C5'        6.3740   48.2980    7.9500 C.3    44  G44         0.1812
    930  O5'        5.3180   47.5940    8.5960 O.3    44  G44        -0.3114
    931  C4'        7.2640   47.3720    7.1430 C.3    44  G44         0.1773
    932  O4'        7.4440   46.0780    7.7930 O.3    44  G44        -0.3307
    933  C3'        6.6840   47.0210    5.7850 C.3    44  G44         0.1860
    934  O3'        6.8730   48.0650    4.8300 O.3    44  G44        -0.3112
    935  C2'        7.4660   45.7560    5.4610 C.3    44  G44         0.2309
    936  O2'        8.7910   46.0480    5.0650 O.3    44  G44        -0.2156
    937  C1'        7.4220   45.0500    6.8160 C.3    44  G44         0.2408
    938  N1         4.6590   40.9860    5.3290 N.ar   44  G44        -0.1709
    939  C2         5.8700   41.4300    4.8540 C.ar   44  G44         0.2606
    940  N2         6.4120   40.7120    3.8630 N.pl3  44  G44        -0.0859
    941  N3         6.5080   42.5030    5.3150 N.ar   44  G44        -0.1918
    942  C4         5.8250   43.1200    6.3140 C.ar   44  G44         0.1723
    943  C5         4.6130   42.7500    6.8540 C.ar   44  G44         0.1748
    944  C6         3.9530   41.6080    6.3520 C.ar   44  G44         0.3023
    945  O6         2.8750   41.1430    6.7220 O.2    44  G44        -0.2633
    946  N7         4.2300   43.6210    7.8580 N.ar   44  G44        -0.2173
    947  C8         5.2010   44.4900    7.9070 C.ar   44  G44         0.1817
    948  N9         6.2090   44.2540    7.0030 N.ar   44  G44        -0.2693
    949  OP1        4.9540   46.9960   10.9820 O.3    44  G44        -0.4373
    950  OP2        5.3890   49.4290   10.2950 O.co2  44  G44        -0.5172
    951  P          5.6780   48.3200    3.7870 P.3    45  G45         0.2141
    952  C5'        7.0880   47.0170    1.9480 C.3    45  G45         0.1812
    953  O5'        5.8900   47.1230    2.7370 O.3    45  G45        -0.3114
    954  C4'        6.9560   45.9400    0.8810 C.3    45  G45         0.1773
    955  O4'        6.9780   44.6250    1.5020 O.3    45  G45        -0.3307
    956  C3'        5.6470   45.9630    0.0940 C.3    45  G45         0.1860
    957  O3'        5.6510   46.8960   -0.9890 O.3    45  G45        -0.3112
    958  C2'        5.5280   44.5180   -0.3840 C.3    45  G45         0.2309
    959  O2'        6.2780   44.2400   -1.5520 O.3    45  G45        -0.2156
    960  C1'        6.0690   43.7650    0.8300 C.3    45  G45         0.2408
    961  N1         2.1650   40.5780    1.5780 N.ar   45  G45        -0.1709
    962  C2         3.0470   40.6550    0.5260 C.ar   45  G45         0.2606
    963  N2         2.8730   39.7720   -0.4610 N.pl3  45  G45        -0.0859
    964  N3         4.0350   41.5370    0.4410 N.ar   45  G45        -0.1918
    965  C4         4.0770   42.3610    1.5170 C.ar   45  G45         0.1723
    966  C5         3.2470   42.3680    2.6150 C.ar   45  G45         0.1748
    967  C6         2.2000   41.4180    2.6890 C.ar   45  G45         0.3023
    968  O6         1.3650   41.2780    3.5860 O.2    45  G45        -0.2633
    969  N7         3.6160   43.3650    3.5030 N.ar   45  G45        -0.2173
    970  C8         4.6420   43.9350    2.9340 C.ar   45  G45         0.1817
    971  N9         4.9830   43.3740    1.7270 N.ar   45  G45        -0.2693
    972  OP1        5.8900   49.6080    3.0800 O.2    45  G45        -0.5172
    973  OP2        4.4030   48.0790    4.5120 O.co2  45  G45        -0.4373
    974  P          4.2610   47.5950   -1.3740 P.3    46  G46         0.2141
    975  C5'        3.1940   46.2140   -3.3360 C.3    46  G46         0.1812
    976  O5'        3.3670   46.4020   -1.9450 O.3    46  G46        -0.3114
    977  C4'        2.5040   44.8880   -3.5650 C.3    46  G46         0.1773
    978  O4'        2.8050   43.9530   -2.4900 O.3    46  G46        -0.3307
    979  C3'        0.9890   44.9430   -3.5330 C.3    46  G46         0.1860
    980  O3'        0.4430   45.5190   -4.7120 O.3    46  G46        -0.3112
    981  C2'        0.7030   43.4530   -3.4200 C.3    46  G46         0.2309
    982  O2'        0.9430   42.7490   -4.6220 O.3    46  G46        -0.2156
    983  C1'        1.7170   43.0520   -2.3470 C.3    46  G46         0.2408
    984  N1        -1.8240   41.1930    0.8410 N.ar   46  G46        -0.1709
    985  C2        -1.5400   40.8340   -0.4510 C.ar   46  G46         0.2606
    986  N2        -2.2840   39.8560   -0.9770 N.pl3  46  G46        -0.0859
    987  N3        -0.5830   41.3920   -1.1770 N.ar   46  G46        -0.1918
    988  C4         0.0870   42.3680   -0.5110 C.ar   46  G46         0.1723
    989  C5        -0.1240   42.8010    0.7760 C.ar   46  G46         0.1748
    990  C6        -1.1500   42.1880    1.5460 C.ar   46  G46         0.3023
    991  O6        -1.4920   42.4310    2.7120 O.2    46  G46        -0.2633
    992  N7         0.7660   43.8160    1.0950 N.ar   46  G46        -0.2173
    993  C8         1.4830   43.9770    0.0180 C.ar   46  G46         0.1817
    994  N9         1.1330   43.1290   -1.0030 N.ar   46  G46        -0.2693
    995  OP1        4.5220   48.5790   -2.4490 O.2    46  G46        -0.5172
    996  OP2        3.5940   48.0140   -0.1190 O.co2  46  G46        -0.4373
    997  P         -0.9830   46.2470   -4.6350 P.3    47  A47         0.2141
    998  C5'       -2.2210   44.1610   -5.6330 C.3    47  A47         0.1812
    999  O5'       -2.0140   45.0290   -4.5140 O.3    47  A47        -0.3114
   1000  C4'       -3.4370   43.2600   -5.4810 C.3    47  A47         0.1773
   1001  O4'       -3.1590   42.2240   -4.5000 O.3    47  A47        -0.3307
   1002  C3'       -4.7090   43.9300   -4.9800 C.3    47  A47         0.1860
   1003  O3'       -5.4510   44.5120   -6.0350 O.3    47  A47        -0.3112
   1004  C2'       -5.4330   42.7590   -4.3320 C.3    47  A47         0.2309
   1005  O2'       -6.0130   41.8900   -5.2800 O.3    47  A47        -0.2156
   1006  C1'       -4.2610   42.0940   -3.6210 C.3    47  A47         0.2408
   1007  N1        -5.6870   42.8180    1.2570 N.ar   47  A47        -0.2040
   1008  C2        -6.2250   42.0950    0.2620 C.ar   47  A47         0.2016
   1009  N3        -5.7990   41.9520   -0.9920 N.ar   47  A47        -0.2048
   1010  C4        -4.6740   42.6600   -1.1900 C.ar   47  A47         0.1692
   1011  C5        -4.0030   43.4460   -0.2690 C.ar   47  A47         0.1518
   1012  C6        -4.5570   43.5170    1.0210 C.ar   47  A47         0.1919
   1013  N6        -4.0210   44.2350    2.0090 N.pl3  47  A47        -0.1054
   1014  N7        -2.8790   44.0200   -0.8270 N.ar   47  A47        -0.2193
   1015  C8        -2.8940   43.5750   -2.0570 C.ar   47  A47         0.1816
   1016  N9        -3.9470   42.7470   -2.3480 N.ar   47  A47        -0.2693
   1017  OP1       -1.2320   46.9460   -5.9150 O.2    47  A47        -0.5172
   1018  OP2       -1.0210   47.0090   -3.3700 O.co2  47  A47        -0.4373
   1019  P         -6.1770   45.9080   -5.7520 P.3    48  G48         0.2141
   1020  C5'       -8.4500   44.6400   -5.5520 C.3    48  G48         0.1812
   1021  O5'       -7.4700   45.4670   -4.9230 O.3    48  G48        -0.3114
   1022  C4'       -9.4140   44.0410   -4.5480 C.3    48  G48         0.1773
   1023  O4'       -8.6800   43.3680   -3.4910 O.3    48  G48        -0.3307
   1024  C3'      -10.2640   45.0540   -3.8000 C.3    48  G48         0.1860
   1025  O3'      -11.3640   45.5150   -4.5670 O.3    48  G48        -0.3112
   1026  C2'      -10.6710   44.2530   -2.5670 C.3    48  G48         0.2309
   1027  O2'      -11.6970   43.3070   -2.8130 O.3    48  G48        -0.2156
   1028  C1'       -9.3330   43.5850   -2.2480 C.3    48  G48         0.2408
   1029  N1        -8.5010   45.2110    2.5380 N.ar   48  G48        -0.1709
   1030  C2        -9.4560   44.3380    2.0700 C.ar   48  G48         0.2606
   1031  N2       -10.2960   43.8300    2.9810 N.pl3  48  G48        -0.0859
   1032  N3        -9.5790   43.9870    0.7940 N.ar   48  G48        -0.1918
   1033  C4        -8.6520   44.5870    0.0000 C.ar   48  G48         0.1723
   1034  C5        -7.6590   45.4710    0.3750 C.ar   48  G48         0.1748
   1035  C6        -7.5420   45.8370    1.7390 C.ar   48  G48         0.3023
   1036  O6        -6.7250   46.6120    2.2480 O.2    48  G48        -0.2633
   1037  N7        -6.9060   45.8710   -0.7220 N.ar   48  G48        -0.2173
   1038  C8        -7.4460   45.2290   -1.7230 C.ar   48  G48         0.1817
   1039  N9        -8.5080   44.4230   -1.3660 N.ar   48  G48        -0.2693
   1040  OP1       -6.6110   46.4670   -7.0530 O.2    48  G48        -0.5172
   1041  OP2       -5.3020   46.7050   -4.8600 O.co2  48  G48        -0.4373
   1042  P        -12.0220   46.9360   -4.2060 P.3    49  G49         0.2141
   1043  C5'      -13.3820   47.4680   -2.0460 C.3    49  G49         0.1812
   1044  O5'      -13.0510   46.5340   -3.0500 O.3    49  G49        -0.3114
   1045  C4'      -13.7260   46.7340   -0.7750 C.3    49  G49         0.1773
   1046  O4'      -12.5620   46.0440   -0.2630 O.3    49  G49        -0.3307
   1047  C3'      -14.1090   47.6570    0.3550 C.3    49  G49         0.1860
   1048  O3'      -15.4650   48.0210    0.2080 O.3    49  G49        -0.3112
   1049  C2'      -13.8250   46.7660    1.5550 C.3    49  G49         0.2309
   1050  O2'      -14.7110   45.6690    1.6670 O.3    49  G49        -0.2156
   1051  C1'      -12.4590   46.2440    1.1380 C.3    49  G49         0.2408
   1052  N1        -9.5600   48.5310    4.7140 N.ar   49  G49        -0.1709
   1053  C2       -10.6740   47.7310    4.8850 C.ar   49  G49         0.2606
   1054  N2       -11.0660   47.5030    6.1480 N.pl3  49  G49        -0.0859
   1055  N3       -11.3580   47.1850    3.8830 N.ar   49  G49        -0.1918
   1056  C4       -10.8350   47.5130    2.6690 C.ar   49  G49         0.1723
   1057  C5        -9.7300   48.3050    2.4050 C.ar   49  G49         0.1748
   1058  C6        -9.0090   48.8750    3.4770 C.ar   49  G49         0.3023
   1059  O6        -8.0070   49.5960    3.4070 O.2    49  G49        -0.2633
   1060  N7        -9.4990   48.4050    1.0430 N.ar   49  G49        -0.2173
   1061  C8       -10.4530   47.6880    0.5150 C.ar   49  G49         0.1817
   1062  N9       -11.3080   47.1150    1.4320 N.ar   49  G49        -0.2693
   1063  OP1      -12.8150   47.3870   -5.3760 O.2    49  G49        -0.5172
   1064  OP2      -10.9810   47.8280   -3.6270 O.co2  49  G49        -0.4373
   1065  P        -15.8720   49.5730    0.1220 P.3    50  A50         0.2141
   1066  C5'      -17.1080   48.9490    2.3800 C.3    50  A50         0.1812
   1067  O5'      -16.2870   49.8750    1.6450 O.3    50  A50        -0.3114
   1068  C4'      -16.9150   49.0520    3.8840 C.3    50  A50         0.1773
   1069  O4'      -15.5680   48.6690    4.2550 O.3    50  A50        -0.3307
   1070  C3'      -17.0470   50.4500    4.4590 C.3    50  A50         0.1860
   1071  O3'      -18.4000   50.8120    4.6320 O.3    50  A50        -0.3112
   1072  C2'      -16.2920   50.3430    5.7800 C.3    50  A50         0.2309
   1073  O2'      -17.0490   49.7570    6.8230 O.3    50  A50        -0.2156
   1074  C1'      -15.1360   49.4350    5.3740 C.3    50  A50         0.2408
   1075  N1       -10.9640   51.8870    7.2030 N.ar   50  A50        -0.2040
   1076  C2       -12.0040   51.3070    7.8190 C.ar   50  A50         0.2016
   1077  N3       -13.0600   50.6880    7.2800 N.ar   50  A50        -0.2048
   1078  C4       -12.9920   50.6930    5.9350 C.ar   50  A50         0.1692
   1079  C5       -11.9860   51.2490    5.1620 C.ar   50  A50         0.1518
   1080  C6       -10.9230   51.8730    5.8530 C.ar   50  A50         0.1919
   1081  N6        -9.8870   52.4500    5.2420 N.pl3  50  A50        -0.1054
   1082  N7       -12.2490   51.0660    3.8160 N.ar   50  A50        -0.2193
   1083  C8       -13.3860   50.4130    3.8040 C.ar   50  A50         0.1816
   1084  N9       -13.8970   50.1510    5.0470 N.ar   50  A50        -0.2693
   1085  OP1      -17.0760   49.6830   -0.7340 O.2    50  A50        -0.5172
   1086  OP2      -14.6630   50.3670   -0.2150 O.co2  50  A50        -0.4373
   1087  P        -18.8090   52.2900    4.1910 P.3    51  A51         0.2141
   1088  C5'      -18.4180   53.3470    6.5900 C.3    51  A51         0.1812
   1089  O5'      -17.9980   53.2110    5.2250 O.3    51  A51        -0.3114
   1090  C4'      -17.3320   53.9170    7.4990 C.3    51  A51         0.1773
   1091  O4'      -16.0790   53.1850    7.3640 O.3    51  A51        -0.3307
   1092  C3'      -16.9310   55.3680    7.2530 C.3    51  A51         0.1860
   1093  O3'      -17.8780   56.2910    7.7840 O.3    51  A51        -0.3112
   1094  C2'      -15.5830   55.4130    7.9670 C.3    51  A51         0.2309
   1095  O2'      -15.6860   55.4770    9.3750 O.3    51  A51        -0.2156
   1096  C1'      -14.9890   54.0710    7.5490 C.3    51  A51         0.2408
   1097  N1       -10.4480   55.3070    5.4160 N.ar   51  A51        -0.2040
   1098  C2       -10.8560   55.2940    6.6940 C.ar   51  A51         0.2016
   1099  N3       -12.0550   54.9560    7.1780 N.ar   51  A51        -0.2048
   1100  C4       -12.9050   54.5980    6.1930 C.ar   51  A51         0.1692
   1101  C5       -12.6260   54.5620    4.8350 C.ar   51  A51         0.1518
   1102  C6       -11.3210   54.9430    4.4470 C.ar   51  A51         0.1919
   1103  N6       -10.9120   54.9520    3.1760 N.pl3  51  A51        -0.1054
   1104  N7       -13.7340   54.1470    4.1130 N.ar   51  A51        -0.2193
   1105  C8       -14.6470   53.9440    5.0350 C.ar   51  A51         0.1816
   1106  N9       -14.2170   54.1900    6.3130 N.ar   51  A51        -0.2693
   1107  OP1      -20.2650   52.4460    4.4100 O.3    51  A51        -0.4373
   1108  OP2      -18.2460   52.5430    2.8470 O.co2  51  A51        -0.5172
   1109  P        -18.5680   57.3310    6.7800 P.3    52  U52         0.2141
   1110  C5'      -16.9470   59.3180    7.4550 C.3    52  U52         0.1812
   1111  O5'      -17.3700   58.3570    6.4770 O.3    52  U52        -0.3114
   1112  C4'      -16.4980   60.6460    6.8490 C.3    52  U52         0.1773
   1113  O4'      -15.1800   60.4910    6.2580 O.3    52  U52        -0.3307
   1114  C3'      -17.4050   61.2740    5.7730 C.3    52  U52         0.1860
   1115  O3'      -17.8560   62.6630    6.0040 O.3    52  U52        -0.3112
   1116  C2'      -16.6350   61.0510    4.4590 C.3    52  U52         0.2309
   1117  O2'      -16.7620   62.1130    3.5290 O.3    52  U52        -0.2156
   1118  C1'      -15.1760   60.8580    4.8910 C.3    52  U52         0.2420
   1119  N1       -14.4340   59.7740    4.1290 N.ar   52  U52        -0.2534
   1120  C2       -13.0830   59.9100    3.8040 C.ar   52  U52         0.3546
   1121  O2       -12.3970   60.8800    4.0830 O.2    52  U52        -0.2443
   1122  N3       -12.5410   58.8460    3.1140 N.ar   52  U52        -0.1530
   1123  C4       -13.1900   57.6840    2.7210 C.ar   52  U52         0.2846
   1124  O4       -12.5800   56.8200    2.1030 O.2    52  U52        -0.2650
   1125  C5       -14.5790   57.6040    3.0930 C.ar   52  U52         0.0814
   1126  C6       -15.1290   58.6260    3.7660 C.ar   52  U52         0.0870
   1127  OP1      -19.6770   58.0340    7.4750 O.3    52  U52        -0.4373
   1128  OP2      -18.8760   56.6060    5.5280 O.co2  52  U52        -0.5172
   1129  P        -17.1670   63.8090    6.9070 P.3    53  C53         0.2141
   1130  C5'      -16.8580   64.0160    9.5120 C.3    53  C53         0.1812
   1131  O5'      -17.6280   63.4950    8.4120 O.3    53  C53        -0.3114
   1132  C4'      -17.2480   63.4080   10.8520 C.3    53  C53         0.1773
   1133  O4'      -18.6890   63.4060   11.0090 O.3    53  C53        -0.3307
   1134  C3'      -16.7820   61.9720   11.0640 C.3    53  C53         0.1860
   1135  O3'      -16.1620   61.8330   12.3330 O.3    53  C53        -0.3112
   1136  C2'      -18.0590   61.1390   11.0150 C.3    53  C53         0.2309
   1137  O2'      -18.0220   60.0470   11.9160 O.3    53  C53        -0.2156
   1138  C1'      -19.1370   62.1350   11.4240 C.3    53  C53         0.2420
   1139  N1       -20.4320   61.8320   10.7560 N.ar   53  C53        -0.2535
   1140  C2       -21.4820   61.2480   11.4880 C.ar   53  C53         0.3532
   1141  O2       -21.3310   60.9960   12.6920 O.2    53  C53        -0.2443
   1142  N3       -22.6460   60.9740   10.8420 N.ar   53  C53        -0.1739
   1143  C4       -22.7750   61.2550    9.5370 C.ar   53  C53         0.1759
   1144  N4       -23.9350   60.9710    8.9420 N.pl3  53  C53        -0.1070
   1145  C5       -21.7210   61.8460    8.7740 C.ar   53  C53         0.0566
   1146  C6       -20.5800   62.1110    9.4200 C.ar   53  C53         0.0850
   1147  OP1      -17.7970   65.0840    6.5080 O.2    53  C53        -0.5172
   1148  OP2      -15.6940   63.6900    6.8190 O.co2  53  C53        -0.4373
   1149  P        -14.5810   61.9640   12.5090 P.3    54  G54         0.2141
   1150  C5'      -14.2980   59.4020   12.0310 C.3    54  G54         0.1812
   1151  O5'      -13.9990   60.7420   11.6630 O.3    54  G54        -0.3114
   1152  C4'      -13.8280   58.4370   10.9590 C.3    54  G54         0.1773
   1153  O4'      -14.2230   58.8880    9.6320 O.3    54  G54        -0.3307
   1154  C3'      -12.3230   58.2870   10.8490 C.3    54  G54         0.1860
   1155  O3'      -11.8420   57.4370   11.8690 O.3    54  G54        -0.3112
   1156  C2'      -12.2440   57.6490    9.4710 C.3    54  G54         0.2309
   1157  O2'      -12.7160   56.3160    9.4580 O.3    54  G54        -0.2156
   1158  C1'      -13.2020   58.5550    8.7010 C.3    54  G54         0.2408
   1159  N1        -9.6550   60.5420    5.5740 N.ar   54  G54        -0.1709
   1160  C2        -9.9830   59.2210    5.7870 C.ar   54  G54         0.2606
   1161  N2        -9.2950   58.2990    5.0970 N.pl3  54  G54        -0.0859
   1162  N3       -10.9290   58.8270    6.6290 N.ar   54  G54        -0.1918
   1163  C4       -11.5410   59.8650    7.2560 C.ar   54  G54         0.1723
   1164  C5       -11.2800   61.2130    7.1090 C.ar   54  G54         0.1748
   1165  C6       -10.2650   61.6280    6.2060 C.ar   54  G54         0.3023
   1166  O6        -9.8990   62.7850    5.9410 O.2    54  G54        -0.2633
   1167  N7       -12.1180   61.9660    7.9240 N.ar   54  G54        -0.2173
   1168  C8       -12.8510   61.0760    8.5360 C.ar   54  G54         0.1817
   1169  N9       -12.5640   59.7750    8.1840 N.ar   54  G54        -0.2693
   1170  OP1      -14.2890   61.7220   13.9390 O.3    54  G54        -0.4373
   1171  OP2      -14.1430   63.2240   11.8600 O.co2  54  G54        -0.5172
   1172  P        -10.4990   57.7770   12.6750 P.3    55  G55         0.2141
   1173  C5'       -9.1590   56.2430   11.0130 C.3    55  G55         0.1812
   1174  O5'       -9.3290   57.5300   11.6120 O.3    55  G55        -0.3114
   1175  C4'       -8.2170   56.2980    9.8260 C.3    55  G55         0.1773
   1176  O4'       -8.7380   57.1430    8.7700 O.3    55  G55        -0.3307
   1177  C3'       -6.8710   56.9180   10.1270 C.3    55  G55         0.1860
   1178  O3'       -6.0650   56.0080   10.8430 O.3    55  G55        -0.3112
   1179  C2'       -6.3820   57.2420    8.7200 C.3    55  G55         0.2309
   1180  O2'       -5.9700   56.1260    7.9590 O.3    55  G55        -0.2156
   1181  C1'       -7.6640   57.8200    8.1310 C.3    55  G55         0.2408
   1182  N1        -5.9570   62.4960    6.8770 N.ar   55  G55        -0.1709
   1183  C2        -5.5140   61.2590    6.4510 C.ar   55  G55         0.2606
   1184  N2        -4.4950   61.2580    5.5830 N.pl3  55  G55        -0.0859
   1185  N3        -6.0330   60.0990    6.8460 N.ar   55  G55        -0.1918
   1186  C4        -7.0600   60.2690    7.7230 C.ar   55  G55         0.1723
   1187  C5        -7.5700   61.4590    8.2110 C.ar   55  G55         0.1748
   1188  C6        -7.0040   62.6870    7.7800 C.ar   55  G55         0.3023
   1189  O6        -7.3350   63.8340    8.1120 O.2    55  G55        -0.2633
   1190  N7        -8.6180   61.2220    9.0900 N.ar   55  G55        -0.2173
   1191  C8        -8.7150   59.9210    9.1180 C.ar   55  G55         0.1817
   1192  N9        -7.8060   59.2700    8.3160 N.ar   55  G55        -0.2693
   1193  OP1      -10.3740   56.7760   13.7580 O.3    55  G55        -0.4373
   1194  OP2      -10.5170   59.2180   13.0030 O.co2  55  G55        -0.5172
   1195  P         -5.1760   56.5420   12.0650 P.3    56  G56         0.2141
   1196  C5'       -3.1670   56.1010   10.4510 C.3    56  G56         0.1812
   1197  O5'       -3.8470   57.0150   11.3110 O.3    56  G56        -0.3114
   1198  C4'       -2.3720   56.8130    9.3730 C.3    56  G56         0.1773
   1199  O4'       -3.2370   57.5910    8.5090 O.3    56  G56        -0.3307
   1200  C3'       -1.3540   57.8250    9.8710 C.3    56  G56         0.1860
   1201  O3'       -0.1800   57.1570   10.3090 O.3    56  G56        -0.3112
   1202  C2'       -1.1290   58.6190    8.5950 C.3    56  G56         0.2309
   1203  O2'       -0.3830   57.9150    7.6240 O.3    56  G56        -0.2156
   1204  C1'       -2.5660   58.7750    8.1220 C.3    56  G56         0.2408
   1205  N1        -2.5500   63.8370    8.7240 N.ar   56  G56        -0.1709
   1206  C2        -1.6740   63.0300    8.0160 C.ar   56  G56         0.2606
   1207  N2        -0.6600   63.6320    7.3810 N.pl3  56  G56        -0.0859
   1208  N3        -1.7810   61.7110    7.9330 N.ar   56  G56        -0.1918
   1209  C4        -2.8520   61.2450    8.6230 C.ar   56  G56         0.1723
   1210  C5        -3.7800   61.9600    9.3570 C.ar   56  G56         0.1748
   1211  C6        -3.6590   63.3730    9.4430 C.ar   56  G56         0.3023
   1212  O6        -4.3930   64.1690   10.0510 O.2    56  G56        -0.2633
   1213  N7        -4.7250   61.1090    9.9120 N.ar   56  G56        -0.2173
   1214  C8        -4.3540   59.9250    9.5150 C.ar   56  G56         0.1817
   1215  N9        -3.2320   59.9280    8.7240 N.ar   56  G56        -0.2693
   1216  OP1       -4.8540   55.3930   12.9320 O.3    56  G56        -0.4373
   1217  OP2       -5.8320   57.7270   12.6610 O.co2  56  G56        -0.5172
   1218  P          0.6510   57.6600   11.5850 P.3    57  G57         0.2141
   1219  C5'        2.3320   58.6500    9.8490 C.3    57  G57         0.1812
   1220  O5'        1.4760   58.8800   10.9600 O.3    57  G57        -0.3114
   1221  C4'        2.7750   59.9630    9.2450 C.3    57  G57         0.1773
   1222  O4'        1.6330   60.6970    8.7440 O.3    57  G57        -0.3307
   1223  C3'        3.4070   60.9140   10.2430 C.3    57  G57         0.1860
   1224  O3'        4.7530   60.5690   10.4550 O.3    57  G57        -0.3112
   1225  C2'        3.2450   62.2400    9.5210 C.3    57  G57         0.2309
   1226  O2'        4.1580   62.3960    8.4520 O.3    57  G57        -0.2156
   1227  C1'        1.8110   62.0780    9.0160 C.3    57  G57         0.2408
   1228  N1        -0.3530   66.0330   11.4000 N.ar   57  G57        -0.1709
   1229  C2         0.6420   66.0160   10.4450 C.ar   57  G57         0.2606
   1230  N2         1.1290   67.2040   10.0660 N.pl3  57  G57        -0.0859
   1231  N3         1.1290   64.9150    9.8890 N.ar   57  G57        -0.1918
   1232  C4         0.5330   63.8010   10.3760 C.ar   57  G57         0.1723
   1233  C5        -0.4610   63.7070   11.3270 C.ar   57  G57         0.1748
   1234  C6        -0.9720   64.8900   11.9110 C.ar   57  G57         0.3023
   1235  O6        -1.8580   64.9920   12.7700 O.2    57  G57        -0.2633
   1236  N7        -0.8040   62.3830   11.5560 N.ar   57  G57        -0.2173
   1237  C8        -0.0240   61.7150   10.7520 C.ar   57  G57         0.1817
   1238  N9         0.8130   62.5080    9.9990 N.ar   57  G57        -0.2693
   1239  OP1        1.5740   56.5670   11.9840 O.2    57  G57        -0.5172
   1240  OP2       -0.2800   58.2130   12.5970 O.co2  57  G57        -0.4373
   1241  P          5.3280   60.6760   11.9400 P.3    58  A58         0.2141
   1242  C5'        6.8050   62.6040   10.8980 C.3    58  A58         0.1812
   1243  O5'        5.8900   62.1790   11.9190 O.3    58  A58        -0.3114
   1244  C4'        6.9710   64.1160   10.8500 C.3    58  A58         0.1773
   1245  O4'        5.7480   64.7500   10.3860 O.3    58  A58        -0.3307
   1246  C3'        7.2630   64.8090   12.1770 C.3    58  A58         0.1860
   1247  O3'        8.6410   64.7040   12.5220 O.3    58  A58        -0.3112
   1248  C2'        6.8100   66.2430   11.8930 C.3    58  A58         0.2309
   1249  O2'        7.7600   67.0240   11.1830 O.3    58  A58        -0.2156
   1250  C1'        5.5420   65.9840   11.0660 C.3    58  A58         0.2408
   1251  N1         1.9690   68.5300   13.8480 N.ar   58  A58        -0.2040
   1252  C2         3.0490   68.9640   13.1730 C.ar   58  A58         0.2016
   1253  N3         3.9350   68.2530   12.4660 N.ar   58  A58        -0.2048
   1254  C4         3.6350   66.9370   12.4900 C.ar   58  A58         0.1692
   1255  C5         2.5630   66.3470   13.1460 C.ar   58  A58         0.1518
   1256  C6         1.6940   67.2040   13.8540 C.ar   58  A58         0.1919
   1257  N6         0.6290   66.7590   14.5240 N.pl3  58  A58        -0.1054
   1258  N7         2.5590   64.9800   12.9600 N.ar   58  A58        -0.2193
   1259  C8         3.6150   64.7680   12.2110 C.ar   58  A58         0.1816
   1260  N9         4.3160   65.9010   11.8810 N.ar   58  A58        -0.2693
   1261  OP1        6.4320   59.7010   12.0860 O.2    58  A58        -0.5172
   1262  OP2        4.1970   60.6140   12.8960 O.co2  58  A58        -0.4373
   1263  P          9.0670   64.2050   13.9890 P.3    59  C59         0.2141
   1264  C5'        9.9040   66.6850   14.2470 C.3    59  C59         0.1812
   1265  O5'        9.1680   65.5900   14.7890 O.3    59  C59        -0.3114
   1266  C4'        9.4810   68.0230   14.8400 C.3    59  C59         0.1773
   1267  O4'        8.2170   68.4570   14.2630 O.3    59  C59        -0.3307
   1268  C3'        9.2050   68.0420   16.3430 C.3    59  C59         0.1860
   1269  O3'       10.3850   68.0780   17.1490 O.3    59  C59        -0.3112
   1270  C2'        8.3410   69.2950   16.4660 C.3    59  C59         0.2309
   1271  O2'        9.0770   70.4970   16.3320 O.3    59  C59        -0.2156
   1272  C1'        7.4160   69.0630   15.2720 C.3    59  C59         0.2420
   1273  N1         6.1960   68.2070   15.6120 N.ar   59  C59        -0.2535
   1274  C2         5.0300   68.8190   16.1230 C.ar   59  C59         0.3532
   1275  O2         4.9940   70.0480   16.2850 O.2    59  C59        -0.2443
   1276  N3         3.9520   68.0410   16.4260 N.ar   59  C59        -0.1739
   1277  C4         3.9980   66.7190   16.2440 C.ar   59  C59         0.1759
   1278  N4         2.9110   66.0110   16.5560 N.pl3  59  C59        -0.1070
   1279  C5         5.1620   66.0700   15.7310 C.ar   59  C59         0.0566
   1280  C6         6.2170   66.8420   15.4370 C.ar   59  C59         0.0850
   1281  OP1       10.4080   63.5920   13.8660 O.2    59  C59        -0.5172
   1282  OP2        7.9790   63.3910   14.5840 O.co2  59  C59        -0.4373
   1283  P         10.3750   67.2920   18.5520 P.3    60  G60         0.2141
   1284  C5'        9.2240   68.4680   20.6460 C.3    60  G60         0.1812
   1285  O5'        9.1500   68.0220   19.2940 O.3    60  G60        -0.3114
   1286  C4'        8.3030   69.6510   20.9110 C.3    60  G60         0.1773
   1287  O4'        7.3360   69.8320   19.8370 O.3    60  G60        -0.3307
   1288  C3'        7.4420   69.5260   22.1650 C.3    60  G60         0.1860
   1289  O3'        8.1630   69.8910   23.3450 O.3    60  G60        -0.3112
   1290  C2'        6.3090   70.4960   21.8440 C.3    60  G60         0.2309
   1291  O2'        6.6990   71.8500   21.9460 O.3    60  G60        -0.2156
   1292  C1'        6.0540   70.1050   20.3880 C.3    60  G60         0.2408
   1293  N1         1.5670   67.7950   21.4150 N.ar   60  G60        -0.1709
   1294  C2         1.9910   69.0490   21.7940 C.ar   60  G60         0.2606
   1295  N2         1.1280   69.7740   22.5280 N.pl3  60  G60        -0.0859
   1296  N3         3.1810   69.5470   21.4670 N.ar   60  G60        -0.1918
   1297  C4         3.9350   68.6900   20.7200 C.ar   60  G60         0.1723
   1298  C5         3.5930   67.4190   20.2970 C.ar   60  G60         0.1748
   1299  C6         2.3210   66.8970   20.6510 C.ar   60  G60         0.3023
   1300  O6         1.8490   65.7880   20.3630 O.2    60  G60        -0.2633
   1301  N7         4.6200   66.8440   19.5570 N.ar   60  G60        -0.2173
   1302  C8         5.5460   67.7610   19.5440 C.ar   60  G60         0.1817
   1303  N9         5.2110   68.9110   20.2270 N.ar   60  G60        -0.2693
   1304  OP1       11.6400   67.5940   19.2620 O.3    60  G60        -0.4373
   1305  OP2       10.0160   65.8670   18.3110 O.co2  60  G60        -0.5172
   1306  P          7.9880   69.0440   24.6980 P.3    61  G61         0.2141
   1307  C5'        6.3450   70.7280   25.9160 C.3    61  G61         0.1812
   1308  O5'        6.5380   69.5060   25.2060 O.3    61  G61        -0.3114
   1309  C4'        4.9090   70.8210   26.3950 C.3    61  G61         0.1773
   1310  O4'        4.0020   70.5440   25.2930 O.3    61  G61        -0.3307
   1311  C3'        4.4830   69.7910   27.4350 C.3    61  G61         0.1860
   1312  O3'        4.9750   70.0710   28.7470 O.3    61  G61        -0.3112
   1313  C2'        2.9620   69.8670   27.3060 C.3    61  G61         0.2309
   1314  O2'        2.3860   71.0450   27.8470 O.3    61  G61        -0.2156
   1315  C1'        2.8510   69.8610   25.7800 C.3    61  G61         0.2408
   1316  N1         0.0420   65.6130   25.1020 N.ar   61  G61        -0.1709
   1317  C2        -0.2920   66.7820   25.7550 C.ar   61  G61         0.2606
   1318  N2        -1.5200   66.8380   26.2940 N.pl3  61  G61        -0.0859
   1319  N3         0.5240   67.8310   25.8670 N.ar   61  G61        -0.1918
   1320  C4         1.7290   67.6190   25.2680 C.ar   61  G61         0.1723
   1321  C5         2.1510   66.4880   24.5950 C.ar   61  G61         0.1748
   1322  C6         1.2700   65.3820   24.4760 C.ar   61  G61         0.3023
   1323  O6         1.4820   64.2990   23.9110 O.2    61  G61        -0.2633
   1324  N7         3.4440   66.6520   24.1200 N.ar   61  G61        -0.2173
   1325  C8         3.7740   67.8530   24.5070 C.ar   61  G61         0.1817
   1326  N9         2.7880   68.5080   25.2090 N.ar   61  G61        -0.2693
   1327  OP1        9.0140   69.5290   25.6540 O.3    61  G61        -0.4373
   1328  OP2        7.9050   67.6050   24.3500 O.co2  61  G61        -0.5172
   1329  P          5.5450   68.8450   29.6180 P.3    62  C62         0.2141
   1330  C5'        3.2410   68.8530   30.9110 C.3    62  C62         0.1812
   1331  O5'        4.2400   68.1250   30.1950 O.3    62  C62        -0.3114
   1332  C4'        1.9800   68.0170   31.0230 C.3    62  C62         0.1773
   1333  O4'        1.4740   67.7000   29.6990 O.3    62  C62        -0.3307
   1334  C3'        2.1810   66.6540   31.6690 C.3    62  C62         0.1860
   1335  O3'        2.1770   66.7670   33.0740 O.3    62  C62        -0.3112
   1336  C2'        0.9640   65.8920   31.1650 C.3    62  C62         0.2309
   1337  O2'       -0.2080   66.1650   31.9100 O.3    62  C62        -0.2156
   1338  C1'        0.8440   66.4270   29.7370 C.3    62  C62         0.2420
   1339  N1         1.4590   65.4730   28.7560 N.ar   62  C62        -0.2535
   1340  C2         0.6610   64.4520   28.2040 C.ar   62  C62         0.3532
   1341  O2        -0.5350   64.3700   28.5180 O.2    62  C62        -0.2443
   1342  N3         1.2280   63.5740   27.3280 N.ar   62  C62        -0.1739
   1343  C4         2.5220   63.6880   27.0030 C.ar   62  C62         0.1759
   1344  N4         3.0230   62.8090   26.1330 N.pl3  62  C62        -0.1070
   1345  C5         3.3520   64.7170   27.5510 C.ar   62  C62         0.0566
   1346  C6         2.7870   65.5720   28.4180 C.ar   62  C62         0.0850
   1347  OP1        6.3170   69.4130   30.7420 O.3    62  C62        -0.4373
   1348  OP2        6.1800   67.8610   28.7110 O.co2  62  C62        -0.5172
   1349  P          3.2320   65.9390   33.9510 P.3    63  U63         0.2141
   1350  C5'        2.4960   63.4040   34.3500 C.3    63  U63         0.1812
   1351  O5'        3.1060   64.3910   33.5020 O.3    63  U63        -0.3114
   1352  C4'        1.7040   62.3400   33.5890 C.3    63  U63         0.1773
   1353  O4'        1.5190   62.6410   32.1730 O.3    63  U63        -0.3307
   1354  C3'        2.3590   60.9650   33.5590 C.3    63  U63         0.1860
   1355  O3'        2.2030   60.2650   34.7810 O.3    63  U63        -0.3112
   1356  C2'        1.6170   60.2780   32.4170 C.3    63  U63         0.2309
   1357  O2'        0.3540   59.7550   32.7880 O.3    63  U63        -0.2156
   1358  C1'        1.4940   61.4280   31.4180 C.3    63  U63         0.2420
   1359  N1         2.5890   61.3890   30.3590 N.ar   63  U63        -0.2534
   1360  C2         2.6120   60.3630   29.4090 C.ar   63  U63         0.3546
   1361  O2         1.7960   59.4570   29.3460 O.2    63  U63        -0.2443
   1362  N3         3.6440   60.4130   28.5020 N.ar   63  U63        -0.1530
   1363  C4         4.6440   61.3660   28.4440 C.ar   63  U63         0.2846
   1364  O4         5.4980   61.2770   27.5680 O.2    63  U63        -0.2650
   1365  C5         4.5720   62.3960   29.4590 C.ar   63  U63         0.0814
   1366  C6         3.5720   62.3690   30.3540 C.ar   63  U63         0.0870
   1367  OP1        2.7760   66.1190   35.3510 O.3    63  U63        -0.4373
   1368  OP2        4.5870   66.3980   33.5610 O.co2  63  U63        -0.5172
   1369  P          3.4200   59.3460   35.2660 P.3    64  G64         0.2141
   1370  C5'        2.5770   57.1860   34.0680 C.3    64  G64         0.1812
   1371  O5'        3.5370   58.2310   34.1290 O.3    64  G64        -0.3114
   1372  C4'        2.8610   56.3030   32.8730 C.3    64  G64         0.1773
   1373  O4'        2.8170   57.1150   31.6690 O.3    64  G64        -0.3307
   1374  C3'        4.2560   55.6880   32.8520 C.3    64  G64         0.1860
   1375  O3'        4.3640   54.5210   33.6550 O.3    64  G64        -0.3112
   1376  C2'        4.4390   55.4240   31.3630 C.3    64  G64         0.2309
   1377  O2'        3.7070   54.3090   30.9030 O.3    64  G64        -0.2156
   1378  C1'        3.8630   56.7170   30.7990 C.3    64  G64         0.2408
   1379  N1         7.4500   58.9860   27.9550 N.ar   64  G64        -0.1709
   1380  C2         6.6530   57.9060   27.6380 C.ar   64  G64         0.2606
   1381  N2         6.8330   57.3680   26.4240 N.pl3  64  G64        -0.0859
   1382  N3         5.7460   57.3910   28.4660 N.ar   64  G64        -0.1918
   1383  C4         5.6890   58.0580   29.6530 C.ar   64  G64         0.1723
   1384  C5         6.4390   59.1420   30.0550 C.ar   64  G64         0.1748
   1385  C6         7.4070   59.6760   29.1730 C.ar   64  G64         0.3023
   1386  O6         8.1550   60.6430   29.3770 O.2    64  G64        -0.2633
   1387  N7         6.0960   59.5440   31.3360 N.ar   64  G64        -0.2173
   1388  C8         5.1620   58.7090   31.6830 C.ar   64  G64         0.1817
   1389  N9         4.8590   57.7820   30.7170 N.ar   64  G64        -0.2693
   1390  OP1        3.0020   58.6500   36.5040 O.3    64  G64        -0.4373
   1391  OP2        4.6500   60.1830   35.2420 O.co2  64  G64        -0.5172
   1392  P          5.8250   54.0870   34.1640 P.3    65  A65         0.2141
   1393  C5'        6.5170   51.8720   32.9160 C.3    65  A65         0.1812
   1394  O5'        6.3960   53.2840   32.9000 O.3    65  A65        -0.3114
   1395  C4'        5.1790   51.1840   32.7350 C.3    65  A65         0.1773
   1396  O4'        4.4450   51.7600   31.6260 O.3    65  A65        -0.3307
   1397  C3'        5.3390   49.7160   32.3780 C.3    65  A65         0.1860
   1398  O3'        5.3830   48.9270   33.5410 O.3    65  A65        -0.3112
   1399  C2'        4.1370   49.4090   31.4980 C.3    65  A65         0.2309
   1400  O2'        2.9590   49.1260   32.2250 O.3    65  A65        -0.2156
   1401  C1'        4.0490   50.7280   30.7330 C.3    65  A65         0.2408
   1402  N1         4.8940   48.7730   26.0310 N.ar   65  A65        -0.2040
   1403  C2         3.9580   48.5060   26.9540 C.ar   65  A65         0.2016
   1404  N3         3.8000   49.0520   28.1600 N.ar   65  A65        -0.2048
   1405  C4         4.7480   49.9800   28.3990 C.ar   65  A65         0.1692
   1406  C5         5.7680   50.3610   27.5460 C.ar   65  A65         0.1518
   1407  C6         5.8240   49.7130   26.2980 C.ar   65  A65         0.1919
   1408  N6         6.7460   49.9700   25.3710 N.pl3  65  A65        -0.1054
   1409  N7         6.5460   51.3480   28.1210 N.ar   65  A65        -0.2193
   1410  C8         5.9910   51.5420   29.2930 C.ar   65  A65         0.1816
   1411  N9         4.8970   50.7530   29.5310 N.ar   65  A65        -0.2693
   1412  OP1        5.6510   53.1440   35.2960 O.3    65  A65        -0.4373
   1413  OP2        6.6680   55.2950   34.3420 O.co2  65  A65        -0.5172
   1414  P          6.6240   47.9300   33.6630 P.3    66  A66         0.2141
   1415  C5'        5.0620   45.9770   32.8340 C.3    66  A66         0.1812
   1416  O5'        6.2160   46.7990   32.5980 O.3    66  A66        -0.3114
   1417  C4'        4.5810   45.3070   31.5630 C.3    66  A66         0.1773
   1418  O4'        4.4730   46.2790   30.5000 O.3    66  A66        -0.3307
   1419  C3'        5.5320   44.2750   30.9960 C.3    66  A66         0.1860
   1420  O3'        5.3470   43.0470   31.6790 O.3    66  A66        -0.3112
   1421  C2'        5.0900   44.2270   29.5370 C.3    66  A66         0.2309
   1422  O2'        3.8790   43.5250   29.3450 O.3    66  A66        -0.2156
   1423  C1'        4.8490   45.7020   29.2610 C.3    66  A66         0.2408
   1424  N1         7.9530   46.6080   25.2090 N.ar   66  A66        -0.2040
   1425  C2         6.9240   45.7680   25.3680 C.ar   66  A66         0.2016
   1426  N3         6.1580   45.5730   26.4430 N.ar   66  A66        -0.2048
   1427  C4         6.5360   46.3660   27.4560 C.ar   66  A66         0.1692
   1428  C5         7.5720   47.2800   27.4400 C.ar   66  A66         0.1518
   1429  C6         8.3090   47.3970   26.2460 C.ar   66  A66         0.1919
   1430  N6         9.3300   48.2530   26.1030 N.pl3  66  A66        -0.1054
   1431  N7         7.6740   47.9320   28.6520 N.ar   66  A66        -0.2193
   1432  C8         6.7150   47.4030   29.3700 C.ar   66  A66         0.1816
   1433  N9         5.9860   46.4480   28.7170 N.ar   66  A66        -0.2693
   1434  OP1        6.5800   47.3270   35.0150 O.3    66  A66        -0.4373
   1435  OP2        7.8600   48.6160   33.2150 O.co2  66  A66        -0.5172
   1436  P          6.5590   42.0130   31.8270 P.3    67  A67         0.2141
   1437  C5'        5.4930   40.6330   29.8500 C.3    67  A67         0.1812
   1438  O5'        6.6290   41.3020   30.3940 O.3    67  A67        -0.3114
   1439  C4'        5.7320   40.2630   28.3980 C.3    67  A67         0.1773
   1440  O4'        5.7970   41.4500   27.5700 O.3    67  A67        -0.3307
   1441  C3'        7.0720   39.6100   28.1220 C.3    67  A67         0.1860
   1442  O3'        7.0830   38.2700   28.5290 O.3    67  A67        -0.3112
   1443  C2'        7.1990   39.8130   26.6160 C.3    67  A67         0.2309
   1444  O2'        6.3360   39.0120   25.8330 O.3    67  A67        -0.2156
   1445  C1'        6.7580   41.2630   26.5390 C.3    67  A67         0.2408
   1446  N1        10.4120   44.0960   24.2300 N.ar   67  A67        -0.2040
   1447  C2         9.5640   43.1770   23.7410 C.ar   67  A67         0.2016
   1448  N3         8.6420   42.4710   24.4020 N.ar   67  A67        -0.2048
   1449  C4         8.6280   42.7780   25.7140 C.ar   67  A67         0.1692
   1450  C5         9.4400   43.6980   26.3540 C.ar   67  A67         0.1518
   1451  C6        10.3700   44.3810   25.5540 C.ar   67  A67         0.1919
   1452  N6        11.2090   45.2850   26.0580 N.pl3  67  A67        -0.1054
   1453  N7         9.1600   43.7650   27.7010 N.ar   67  A67        -0.2193
   1454  C8         8.1920   42.8940   27.8520 C.ar   67  A67         0.1816
   1455  N9         7.8180   42.2600   26.6980 N.ar   67  A67        -0.2693
   1456  OP1        6.1520   41.0000   32.8180 O.3    67  A67        -0.4373
   1457  OP2        7.8060   42.7910   32.0180 O.co2  67  A67        -0.5172
   1458  P          8.4360   37.6310   29.0920 P.3    68  G68         0.2141
   1459  C5'        8.9900   36.5800   26.7660 C.3    68  G68         0.1812
   1460  O5'        9.3260   37.5220   27.7760 O.3    68  G68        -0.3114
   1461  C4'        9.6520   36.9750   25.4630 C.3    68  G68         0.1773
   1462  O4'        9.4540   38.3860   25.2150 O.3    68  G68        -0.3307
   1463  C3'       11.1620   36.8540   25.4790 C.3    68  G68         0.1860
   1464  O3'       11.5690   35.5170   25.3000 O.3    68  G68        -0.3112
   1465  C2'       11.5380   37.7590   24.3160 C.3    68  G68         0.2309
   1466  O2'       11.3200   37.1430   23.0680 O.3    68  G68        -0.2156
   1467  C1'       10.5770   38.9220   24.5430 C.3    68  G68         0.2408
   1468  N1        13.6840   42.9450   24.6020 N.ar   68  G68        -0.1709
   1469  C2        13.2820   42.1430   23.5420 C.ar   68  G68         0.2606
   1470  N2        13.7720   42.4510   22.3330 N.pl3  68  G68        -0.0859
   1471  N3        12.4570   41.1090   23.6480 N.ar   68  G68        -0.1918
   1472  C4        12.0540   40.9370   24.9290 C.ar   68  G68         0.1723
   1473  C5        12.3910   41.6680   26.0550 C.ar   68  G68         0.1748
   1474  C6        13.2780   42.7690   25.9300 C.ar   68  G68         0.3023
   1475  O6        13.6860   43.5270   26.8250 O.2    68  G68        -0.2633
   1476  N7        11.7580   41.1640   27.1840 N.ar   68  G68        -0.2173
   1477  C8        11.0660   40.1570   26.7250 C.ar   68  G68         0.1817
   1478  N9        11.1930   39.9630   25.3650 N.ar   68  G68        -0.2693
   1479  OP1        8.1140   36.2660   29.5650 O.2    68  G68        -0.5172
   1480  OP2        9.0920   38.5930   29.9980 O.co2  68  G68        -0.4373
   1481  P         12.6270   34.8880   26.3170 P.3    69  G69         0.2141
   1482  C5'       14.5540   35.5970   24.6430 C.3    69  G69         0.1812
   1483  O5'       13.9560   35.6950   25.9410 O.3    69  G69        -0.3114
   1484  C4'       15.7130   36.5720   24.4800 C.3    69  G69         0.1773
   1485  O4'       15.2060   37.9220   24.3070 O.3    69  G69        -0.3307
   1486  C3'       16.6600   36.6950   25.6660 C.3    69  G69         0.1860
   1487  O3'       17.6370   35.6500   25.7000 O.3    69  G69        -0.3112
   1488  C2'       17.2520   38.0780   25.4130 C.3    69  G69         0.2309
   1489  O2'       18.2180   38.1130   24.3870 O.3    69  G69        -0.2156
   1490  C1'       15.9940   38.8540   25.0290 C.3    69  G69         0.2408
   1491  N1        16.1530   41.8650   29.1410 N.ar   69  G69        -0.1709
   1492  C2        17.0050   41.8160   28.0640 C.ar   69  G69         0.2606
   1493  N2        18.0300   42.6660   28.0820 N.pl3  69  G69        -0.0859
   1494  N3        16.8630   40.9940   27.0380 N.ar   69  G69        -0.1918
   1495  C4        15.7740   40.1990   27.1700 C.ar   69  G69         0.1723
   1496  C5        14.8700   40.1700   28.2020 C.ar   69  G69         0.1748
   1497  C6        15.0350   41.0470   29.2910 C.ar   69  G69         0.3023
   1498  O6        14.3100   41.1470   30.2870 O.2    69  G69        -0.2633
   1499  N7        13.8920   39.2190   27.9790 N.ar   69  G69        -0.2173
   1500  C8        14.2110   38.6940   26.8330 C.ar   69  G69         0.1817
   1501  N9        15.3370   39.2480   26.2730 N.ar   69  G69        -0.2693
   1502  OP1       12.7730   33.4590   25.9720 O.2    69  G69        -0.5172
   1503  OP2       12.2600   35.2610   27.6990 O.co2  69  G69        -0.4373
   1504  P         18.1880   35.1160   27.1090 P.3    70  C70         0.2141
   1505  C5'       20.3050   36.6610   27.2470 C.3    70  C70         0.1812
   1506  O5'       18.9780   36.3900   27.6750 O.3    70  C70        -0.3114
   1507  C4'       20.9090   37.7960   28.0400 C.3    70  C70         0.1773
   1508  O4'       19.9140   38.8400   28.1870 O.3    70  C70        -0.3307
   1509  C3'       21.3100   37.4790   29.4700 C.3    70  C70         0.1860
   1510  O3'       22.5940   36.8770   29.5230 O.3    70  C70        -0.3112
   1511  C2'       21.3470   38.8850   30.0440 C.3    70  C70         0.2309
   1512  O2'       22.4960   39.5990   29.6260 O.3    70  C70        -0.2156
   1513  C1'       20.1010   39.5040   29.4210 C.3    70  C70         0.2420
   1514  N1        18.8730   39.3390   30.2550 N.ar   70  C70        -0.2535
   1515  C2        18.7300   40.0570   31.4600 C.ar   70  C70         0.3532
   1516  O2        19.6240   40.8380   31.8400 O.2    70  C70        -0.2443
   1517  N3        17.5880   39.8860   32.1880 N.ar   70  C70        -0.1739
   1518  C4        16.6440   39.0480   31.7620 C.ar   70  C70         0.1759
   1519  N4        15.5600   38.9100   32.5160 N.pl3  70  C70        -0.1070
   1520  C5        16.7700   38.3150   30.5490 C.ar   70  C70         0.0566
   1521  C6        17.8840   38.4930   29.8360 C.ar   70  C70         0.0850
   1522  OP1       19.1280   34.0070   26.8350 O.2    70  C70        -0.5172
   1523  OP2       17.0610   34.8890   28.0330 O.co2  70  C70        -0.4373
   1524  P         22.8900   35.6990   30.5740 P.3    71  G71         0.2141
   1525  C5'       23.6410   37.4490   32.4090 C.3    71  G71         0.1812
   1526  O5'       22.6760   36.5030   31.9460 O.3    71  G71        -0.3114
   1527  C4'       23.1610   38.0630   33.7040 C.3    71  G71         0.1773
   1528  O4'       21.8180   38.5390   33.4680 O.3    71  G71        -0.3307
   1529  C3'       23.0180   37.0940   34.8690 C.3    71  G71         0.1860
   1530  O3'       24.2210   36.9970   35.6470 O.3    71  G71        -0.3112
   1531  C2'       21.9010   37.7460   35.6750 C.3    71  G71         0.2309
   1532  O2'       22.3850   38.8080   36.4730 O.3    71  G71        -0.2156
   1533  C1'       20.9920   38.3110   34.5900 C.3    71  G71         0.2408
   1534  N1        16.0730   36.9420   35.3450 N.ar   71  G71        -0.1709
   1535  C2        16.8560   37.7660   36.0970 C.ar   71  G71         0.2606
   1536  N2        16.2570   38.2950   37.1670 N.pl3  71  G71        -0.0859
   1537  N3        18.1200   38.0540   35.8190 N.ar   71  G71        -0.1918
   1538  C4        18.5700   37.4340   34.6990 C.ar   71  G71         0.1723
   1539  C5        17.8560   36.5850   33.8850 C.ar   71  G71         0.1748
   1540  C6        16.5070   36.2950   34.1950 C.ar   71  G71         0.3023
   1541  O6        15.7250   35.5570   33.5850 O.2    71  G71        -0.2633
   1542  N7        18.6340   36.1310   32.8360 N.ar   71  G71        -0.2173
   1543  C8        19.7860   36.7160   33.0270 C.ar   71  G71         0.1817
   1544  N9        19.8370   37.5170   34.1430 N.ar   71  G71        -0.2693
   1545  OP1       24.3060   35.2820   30.4170 O.2    71  G71        -0.5172
   1546  OP2       21.8260   34.6760   30.4800 O.co2  71  G71        -0.4373
   1547  P         25.4020   35.9480   35.3060 P.3    72  A72         0.2141
   1548  C5'       27.1580   36.6170   37.1330 C.3    72  A72         0.1812
   1549  O5'       26.0950   35.7430   36.7350 O.3    72  A72        -0.3114
   1550  C4'       27.3260   36.5630   38.6320 C.3    72  A72         0.1773
   1551  O4'       26.2000   37.2650   39.1930 O.3    72  A72        -0.3307
   1552  C3'       27.2810   35.1570   39.2160 C.3    72  A72         0.1860
   1553  O3'       28.5900   34.6650   39.4650 O.3    72  A72        -0.3112
   1554  C2'       26.5350   35.3310   40.5330 C.3    72  A72         0.2309
   1555  O2'       27.4000   35.5930   41.6230 O.3    72  A72        -0.2156
   1556  C1'       25.6520   36.5460   40.2790 C.3    72  A72         0.2408
   1557  N1        20.7100   37.3990   41.5060 N.ar   72  A72        -0.2040
   1558  C2        21.8460   37.8700   42.0250 C.ar   72  A72         0.2016
   1559  N3        23.1000   37.6060   41.6550 N.ar   72  A72        -0.2048
   1560  C4        23.1430   36.7390   40.6280 C.ar   72  A72         0.1692
   1561  C5        22.0600   36.1710   39.9980 C.ar   72  A72         0.1518
   1562  C6        20.7870   36.5300   40.4770 C.ar   72  A72         0.1919
   1563  N6        19.6600   36.0430   39.9550 N.pl3  72  A72        -0.1054
   1564  N7        22.4670   35.3310   38.9830 N.ar   72  A72        -0.2193
   1565  C8        23.7750   35.4070   39.0130 C.ar   72  A72         0.1816
   1566  N9        24.2540   36.2370   39.9860 N.ar   72  A72        -0.2693
   1567  OP1       26.3720   36.7210   34.4710 O.2    72  A72        -0.5172
   1568  OP2       24.8270   34.6420   34.8730 O.co2  72  A72        -0.4373
   1569  P         29.4250   33.7630   38.4310 P.3    73  G73         0.2141
   1570  C5'       29.0040   31.2990   39.2360 C.3    73  G73         0.1812
   1571  O5'       29.8000   32.4800   39.3090 O.3    73  G73        -0.3114
   1572  C4'       28.0940   31.1940   40.4430 C.3    73  G73         0.1773
   1573  O4'       27.0600   32.2130   40.3890 O.3    73  G73        -0.3307
   1574  C3'       27.3320   29.8890   40.5300 C.3    73  G73         0.1860
   1575  O3'       28.0450   29.0230   41.3370 O.3    73  G73        -0.3112
   1576  C2'       26.0260   30.2890   41.2060 C.3    73  G73         0.2309
   1577  O2'       26.1510   30.4970   42.6010 O.3    73  G73        -0.2156
   1578  C1'       25.7740   31.6170   40.5170 C.3    73  G73         0.2408
   1579  N1        21.3520   30.8160   38.0070 N.ar   73  G73        -0.1709
   1580  C2        21.5910   30.8310   39.3560 C.ar   73  G73         0.2606
   1581  N2        20.5330   30.6130   40.1460 N.pl3  73  G73        -0.0859
   1582  N3        22.7870   31.0480   39.8950 N.ar   73  G73        -0.1918
   1583  C4        23.7570   31.2580   38.9740 C.ar   73  G73         0.1723
   1584  C5        23.6150   31.2640   37.6090 C.ar   73  G73         0.1748
   1585  C6        22.3400   31.0300   37.0490 C.ar   73  G73         0.3023
   1586  O6        22.0480   31.0030   35.8490 O.2    73  G73        -0.2633
   1587  N7        24.8250   31.5090   36.9810 N.ar   73  G73        -0.2173
   1588  C8        25.6650   31.6500   37.9660 C.ar   73  G73         0.1817
   1589  N9        25.0950   31.5100   39.2130 N.ar   73  G73        -0.2693
   1590  OP1       30.6360   34.5600   38.1280 O.3    73  G73        -0.4373
   1591  OP2       28.5580   33.2960   37.3150 O.co2  73  G73        -0.5172
   1592  P         28.0090   27.4630   41.0280 P.3    74  G74         0.2141
   1593  C5'       26.1030   26.4700   42.5270 C.3    74  G74         0.1812
   1594  O5'       26.4970   26.9850   41.2660 O.3    74  G74        -0.3114
   1595  C4'       24.5950   26.4260   42.6950 C.3    74  G74         0.1773
   1596  O4'       23.9560   27.5900   42.1140 O.3    74  G74        -0.3307
   1597  C3'       23.9140   25.2550   42.0100 C.3    74  G74         0.1860
   1598  O3'       24.0490   24.0570   42.7710 O.3    74  G74        -0.3112
   1599  C2'       22.4790   25.7700   41.9010 C.3    74  G74         0.2309
   1600  O2'       21.7610   25.7300   43.1130 O.3    74  G74        -0.2156
   1601  C1'       22.7420   27.2140   41.4950 C.3    74  G74         0.2408
   1602  N1        20.2400   27.1690   37.0750 N.ar   74  G74        -0.1709
   1603  C2        19.7750   26.9750   38.3570 C.ar   74  G74         0.2606
   1604  N2        18.4710   26.7300   38.4970 N.pl3  74  G74        -0.0859
   1605  N3        20.5350   27.0130   39.4390 N.ar   74  G74        -0.1918
   1606  C4        21.8320   27.2740   39.1400 C.ar   74  G74         0.1723
   1607  C5        22.4050   27.4870   37.9010 C.ar   74  G74         0.1748
   1608  C6        21.5730   27.4430   36.7510 C.ar   74  G74         0.3023
   1609  O6        21.9040   27.6140   35.5670 O.2    74  G74        -0.2633
   1610  N7        23.7730   27.7150   38.0170 N.ar   74  G74        -0.2173
   1611  C8        23.9880   27.6370   39.3030 C.ar   74  G74         0.1817
   1612  N9        22.8590   27.3730   40.0470 N.ar   74  G74        -0.2693
   1613  OP1       28.8550   26.8620   42.0790 O.3    74  G74        -0.4373
   1614  OP2       28.3530   27.2660   39.5970 O.co2  74  G74        -0.5172
   1615  P         24.2500   22.6770   41.9820 P.3    75  G75         0.2141
   1616  C5'       21.7900   22.1450   42.6520 C.3    75  G75         0.1812
   1617  O5'       22.7560   22.2570   41.6000 O.3    75  G75        -0.3114
   1618  C4'       20.3710   22.1230   42.1230 C.3    75  G75         0.1773
   1619  O4'       20.0550   23.3640   41.4390 O.3    75  G75        -0.3307
   1620  C3'       20.1060   21.0570   41.0820 C.3    75  G75         0.1860
   1621  O3'       19.8980   19.8090   41.7130 O.3    75  G75        -0.3112
   1622  C2'       18.8670   21.6260   40.3960 C.3    75  G75         0.2309
   1623  O2'       17.6830   21.4990   41.1560 O.3    75  G75        -0.2156
   1624  C1'       19.2760   23.0920   40.2870 C.3    75  G75         0.2408
   1625  N1        19.2380   23.5310   35.2140 N.ar   75  G75        -0.1709
   1626  C2        18.2060   23.2100   36.0640 C.ar   75  G75         0.2606
   1627  N2        17.0160   22.9750   35.4950 N.pl3  75  G75        -0.0859
   1628  N3        18.3450   23.1280   37.3800 N.ar   75  G75        -0.1918
   1629  C4        19.6120   23.3980   37.7880 C.ar   75  G75         0.1723
   1630  C5        20.7080   23.7310   37.0180 C.ar   75  G75         0.1748
   1631  C6        20.5470   23.8160   35.6110 C.ar   75  G75         0.3023
   1632  O6        21.4020   24.0960   34.7560 O.2    75  G75        -0.2633
   1633  N7        21.8350   23.9340   37.8090 N.ar   75  G75        -0.2173
   1634  C8        21.4010   23.7220   39.0210 C.ar   75  G75         0.1817
   1635  N9        20.0640   23.3920   39.0880 N.ar   75  G75        -0.2693
   1636  OP1       24.7380   21.6640   42.9400 O.3    75  G75        -0.4373
   1637  OP2       25.0100   22.9570   40.7430 O.co2  75  G75        -0.5172
   1638  P         20.7220   18.5450   41.1790 P.3    76  C76         0.2141
   1639  C5'       18.4580   17.9170   39.9830 C.3    76  C76         0.1812
   1640  O5'       19.8780   18.1220   39.8840 O.3    76  C76        -0.3114
   1641  C4'       17.7690   18.0120   38.6300 C.3    76  C76         0.1773
   1642  O4'       17.9390   19.3400   38.0870 O.3    76  C76        -0.3307
   1643  C3'       18.3510   17.1310   37.5400 C.3    76  C76         0.1860
   1644  O3'       17.9000   15.8120   37.6620 O.3    76  C76        -0.3112
   1645  C2'       17.8380   17.8190   36.2830 C.3    76  C76         0.2309
   1646  O2'       16.4780   17.5960   35.9980 O.3    76  C76        -0.2156
   1647  C1'       18.0110   19.2720   36.6760 C.3    76  C76         0.2420
   1648  N1        19.3030   19.8080   36.1880 N.ar   76  C76        -0.2535
   1649  C2        19.4170   20.1320   34.8280 C.ar   76  C76         0.3532
   1650  O2        18.4450   19.9710   34.0830 O.2    76  C76        -0.2443
   1651  N3        20.5980   20.6210   34.3590 N.ar   76  C76        -0.1739
   1652  C4        21.6380   20.7920   35.1860 C.ar   76  C76         0.1759
   1653  N4        22.7670   21.2820   34.6610 N.pl3  76  C76        -0.1070
   1654  C5        21.5470   20.4660   36.5780 C.ar   76  C76         0.0566
   1655  C6        20.3740   19.9800   37.0290 C.ar   76  C76         0.0850
   1656  OP1       20.6020   17.4590   42.1760 O.3    76  C76        -0.4373
   1657  OP2       22.0530   19.0200   40.7310 O.co2  76  C76        -0.5172
   1658  P         18.8790   14.6290   37.2130 P.3    77  G77         0.2141
   1659  C5'       17.5310   14.3410   34.9540 C.3    77  G77         0.1812
   1660  O5'       18.7720   14.6260   35.6110 O.3    77  G77        -0.3114
   1661  C4'       17.5700   14.7830   33.5050 C.3    77  G77         0.1773
   1662  O4'       17.9900   16.1720   33.3970 O.3    77  G77        -0.3307
   1663  C3'       18.5960   14.0500   32.6670 C.3    77  G77         0.1860
   1664  O3'       18.1400   12.7780   32.3050 O.3    77  G77        -0.3112
   1665  C2'       18.7160   14.9930   31.4730 C.3    77  G77         0.2309
   1666  O2'       17.6450   14.9070   30.5490 O.3    77  G77        -0.2156
   1667  C1'       18.7030   16.3440   32.1840 C.3    77  G77         0.2408
   1668  N1        22.8330   18.6690   30.2350 N.ar   77  G77        -0.1709
   1669  C2        21.6710   18.2680   29.6110 C.ar   77  G77         0.2606
   1670  N2        21.5660   18.5160   28.2970 N.pl3  77  G77        -0.0859
   1671  N3        20.6660   17.6620   30.2400 N.ar   77  G77        -0.1918
   1672  C4        20.8980   17.4720   31.5670 C.ar   77  G77         0.1723
   1673  C5        22.0220   17.8350   32.2820 C.ar   77  G77         0.1748
   1674  C6        23.0960   18.4870   31.5990 C.ar   77  G77         0.3023
   1675  O6        24.1760   18.8930   32.0590 O.2    77  G77        -0.2633
   1676  N7        21.8760   17.4730   33.6160 N.ar   77  G77        -0.2173
   1677  C8        20.6930   16.9130   33.6720 C.ar   77  G77         0.1817
   1678  N9        20.0360   16.8800   32.4670 N.ar   77  G77        -0.2693
   1679  OP1       18.2990   13.3630   37.7310 O.3    77  G77        -0.4373
   1680  OP2       20.2740   15.0270   37.5430 O.co2  77  G77        -0.5172
   1681  P         19.2110   11.6140   32.0220 P.3    78  C78         0.2141
   1682  C5'       21.1350   11.7550   30.2340 C.3    78  C78         0.1812
   1683  O5'       19.8340   12.1190   30.6440 O.3    78  C78        -0.3114
   1684  C4'       21.5690   12.8230   29.2600 C.3    78  C78         0.1773
   1685  O4'       21.8080   14.0430   29.9880 O.3    78  C78        -0.3307
   1686  C3'       22.8760   12.5680   28.5510 C.3    78  C78         0.1860
   1687  O3'       22.6660   11.6920   27.4640 O.3    78  C78        -0.3112
   1688  C2'       23.2180   13.9740   28.0840 C.3    78  C78         0.2309
   1689  O2'       22.5620   14.3330   26.8800 O.3    78  C78        -0.2156
   1690  C1'       22.7220   14.8300   29.2520 C.3    78  C78         0.2420
   1691  N1        23.8140   15.3470   30.1610 N.ar   78  C78        -0.2535
   1692  C2        24.8240   16.1530   29.6280 C.ar   78  C78         0.3532
   1693  O2        24.7990   16.4140   28.4260 O.2    78  C78        -0.2443
   1694  N3        25.8010   16.6340   30.4350 N.ar   78  C78        -0.1739
   1695  C4        25.7980   16.3290   31.7290 C.ar   78  C78         0.1759
   1696  N4        26.7890   16.8200   32.4690 N.pl3  78  C78        -0.1070
   1697  C5        24.7860   15.5120   32.3140 C.ar   78  C78         0.0566
   1698  C6        23.8290   15.0490   31.4970 C.ar   78  C78         0.0850
   1699  OP1       18.4880   10.3410   31.7660 O.2    78  C78        -0.5172
   1700  OP2       20.2860   11.6660   33.0430 O.co2  78  C78        -0.4373
   1701  P         23.8760   10.7520   27.0190 P.3    79  C79         0.2141
   1702  C5'       24.5710   12.2550   24.9960 C.3    79  C79         0.1812
   1703  O5'       24.8750   11.7670   26.2920 O.3    79  C79        -0.3114
   1704  C4'       25.8130   12.7610   24.2790 C.3    79  C79         0.1773
   1705  O4'       26.4160   13.8410   25.0300 O.3    79  C79        -0.3307
   1706  C3'       26.9060   11.7190   24.0790 C.3    79  C79         0.1860
   1707  O3'       27.5080   11.8380   22.7850 O.3    79  C79        -0.3112
   1708  C2'       27.8670   12.0370   25.2230 C.3    79  C79         0.2309
   1709  O2'       29.2040   11.7000   24.9580 O.3    79  C79        -0.2156
   1710  C1'       27.7760   13.5430   25.2870 C.3    79  C79         0.2420
   1711  N1        28.2220   14.0740   26.6190 N.ar   79  C79        -0.2535
   1712  C2        29.4060   14.8170   26.7180 C.ar   79  C79         0.3532
   1713  O2        30.0710   15.0280   25.6960 O.2    79  C79        -0.2443
   1714  N3        29.7860   15.2890   27.9410 N.ar   79  C79        -0.1739
   1715  C4        29.0420   15.0340   29.0260 C.ar   79  C79         0.1759
   1716  N4        29.4410   15.5030   30.2100 N.pl3  79  C79        -0.1070
   1717  C5        27.8390   14.2820   28.9460 C.ar   79  C79         0.0566
   1718  C6        27.4760   13.8330   27.7390 C.ar   79  C79         0.0850
   1719  OP1       23.3520    9.7400   26.0680 O.2    79  C79        -0.5172
   1720  OP2       24.5710   10.3020   28.2470 O.co2  79  C79        -0.4373
   1721  P         26.8720   11.1560   21.4860 P.3    80  G80         0.2141
   1722  C5'       24.5520   11.6020   20.3450 C.3    80  G80         0.1812
   1723  O5'       25.5530   12.0170   21.2480 O.3    80  G80        -0.3114
   1724  C4'       23.7800   12.8310   19.9260 C.3    80  G80         0.1773
   1725  O4'       24.6230   13.6080   19.0400 O.3    80  G80        -0.3307
   1726  C3'       22.4750   12.5830   19.1790 C.3    80  G80         0.1860
   1727  O3'       21.4280   13.3520   19.7780 O.3    80  G80        -0.3112
   1728  C2'       22.7780   13.0850   17.7650 C.3    80  G80         0.2309
   1729  O2'       21.6680   13.6870   17.1310 O.3    80  G80        -0.2156
   1730  C1'       23.8110   14.1670   18.0410 C.3    80  G80         0.2408
   1731  N1        27.0420   17.6530   16.2130 N.ar   80  G80        -0.1709
   1732  C2        26.4260   17.5870   17.4360 C.ar   80  G80         0.2606
   1733  N2        26.7040   18.5790   18.2850 N.pl3  80  G80        -0.0859
   1734  N3        25.5980   16.6150   17.8030 N.ar   80  G80        -0.1918
   1735  C4        25.4260   15.6880   16.8280 C.ar   80  G80         0.1723
   1736  C5        25.9990   15.6580   15.5750 C.ar   80  G80         0.1748
   1737  C6        26.8800   16.7060   15.2070 C.ar   80  G80         0.3023
   1738  O6        27.4810   16.8520   14.1400 O.2    80  G80        -0.2633
   1739  N7        25.5760   14.5400   14.8620 N.ar   80  G80        -0.2173
   1740  C8        24.7700   13.9280   15.6870 C.ar   80  G80         0.1817
   1741  N9        24.6310   14.5670   16.9000 N.ar   80  G80        -0.2693
   1742  OP1       26.5080    9.7520   21.8010 O.3    80  G80        -0.4373
   1743  OP2       27.7640   11.4630   20.3580 O.co2  80  G80        -0.5172
   1744  P         20.6340   12.9030   21.0950 P.3    81  A81         0.2141
   1745  C5'       21.3500   14.9470   22.5350 C.3    81  A81         0.1812
   1746  O5'       21.5180   13.5780   22.2380 O.3    81  A81        -0.3114
   1747  C4'       22.3870   15.3810   23.5450 C.3    81  A81         0.1773
   1748  O4'       23.6950   15.3960   22.9270 O.3    81  A81        -0.3307
   1749  C3'       22.2280   16.8010   24.0350 C.3    81  A81         0.1860
   1750  O3'       21.2740   16.8220   25.0950 O.3    81  A81        -0.3112
   1751  C2'       23.6370   17.0680   24.5560 C.3    81  A81         0.2309
   1752  O2'       23.7870   16.6470   25.8940 O.3    81  A81        -0.2156
   1753  C1'       24.5490   16.2610   23.6350 C.3    81  A81         0.2408
   1754  N1        28.5290   19.4480   22.9110 N.ar   81  A81        -0.2040
   1755  C2        28.2410   18.5980   23.9050 C.ar   81  A81         0.2016
   1756  N3        27.1880   17.7800   24.0340 N.ar   81  A81        -0.2048
   1757  C4        26.3600   17.8880   22.9750 C.ar   81  A81         0.1692
   1758  C5        26.5320   18.7200   21.8800 C.ar   81  A81         0.1518
   1759  C6        27.6810   19.5360   21.8670 C.ar   81  A81         0.1919
   1760  N6        27.9700   20.3820   20.8770 N.pl3  81  A81        -0.1054
   1761  N7        25.4900   18.5650   20.9910 N.ar   81  A81        -0.2193
   1762  C8        24.7230   17.6650   21.5580 C.ar   81  A81         0.1816
   1763  N9        25.1890   17.2070   22.7490 N.ar   81  A81        -0.2693
   1764  OP1       20.6900   11.4310   21.2720 O.3    81  A81        -0.4373
   1765  OP2       19.3290   13.6040   21.0590 O.co2  81  A81        -0.5172
   1766  P         19.8090   17.4660   25.0210 P.3    82  A82         0.2141
   1767  C5'       19.6920   19.1630   23.0320 C.3    82  A82         0.1812
   1768  O5'       20.0520   18.8990   24.3760 O.3    82  A82        -0.3114
   1769  C4'       20.7110   20.1090   22.4390 C.3    82  A82         0.1773
   1770  O4'       21.7920   19.3100   21.9280 O.3    82  A82        -0.3307
   1771  C3'       20.2740   20.8920   21.2180 C.3    82  A82         0.1860
   1772  O3'       19.5100   22.0290   21.5760 O.3    82  A82        -0.3112
   1773  C2'       21.6230   21.2590   20.6300 C.3    82  A82         0.2309
   1774  O2'       22.2710   22.2710   21.3710 O.3    82  A82        -0.2156
   1775  C1'       22.3440   19.9290   20.7870 C.3    82  A82         0.2408
   1776  N1        23.6040   18.8370   15.9300 N.ar   82  A82        -0.2040
   1777  C2        23.9650   19.8370   16.7430 C.ar   82  A82         0.2016
   1778  N3        23.6090   20.0670   18.0040 N.ar   82  A82        -0.2048
   1779  C4        22.7600   19.1140   18.4280 C.ar   82  A82         0.1692
   1780  C5        22.3010   18.0230   17.7150 C.ar   82  A82         0.1518
   1781  C6        22.7610   17.8970   16.3920 C.ar   82  A82         0.1919
   1782  N6        22.4000   16.8960   15.5880 N.pl3  82  A82        -0.1054
   1783  N7        21.4510   17.2470   18.4820 N.ar   82  A82        -0.2193
   1784  C8        21.4080   17.8800   19.6270 C.ar   82  A82         0.1816
   1785  N9        22.1730   19.0110   19.6640 N.ar   82  A82        -0.2693
   1786  OP1       19.4300   17.7100   26.4240 O.3    82  A82        -0.4373
   1787  OP2       18.9400   16.6410   24.1460 O.co2  82  A82        -0.5172
   1788  P         18.3800   22.5650   20.5850 P.3    83  G83         0.2141
   1789  C5'       19.9520   24.4390   19.7020 C.3    83  G83         0.1812
   1790  O5'       19.2540   23.2410   19.4370 O.3    83  G83        -0.3114
   1791  C4'       20.8680   24.8050   18.5470 C.3    83  G83         0.1773
   1792  O4'       21.8070   23.7370   18.2900 O.3    83  G83        -0.3307
   1793  C3'       20.2000   25.0150   17.1940 C.3    83  G83         0.1860
   1794  O3'       19.5650   26.2810   17.0860 O.3    83  G83        -0.3112
   1795  C2'       21.4070   24.8770   16.2760 C.3    83  G83         0.2309
   1796  O2'       22.3190   25.9550   16.3500 O.3    83  G83        -0.2156
   1797  C1'       22.0330   23.6410   16.8940 C.3    83  G83         0.2408
   1798  N1        22.1940   20.4350   12.9630 N.ar   83  G83        -0.1709
   1799  C2        22.8830   21.5990   13.1900 C.ar   83  G83         0.2606
   1800  N2        23.7390   21.9710   12.2390 N.pl3  83  G83        -0.0859
   1801  N3        22.7490   22.3520   14.2700 N.ar   83  G83        -0.1918
   1802  C4        21.8410   21.8430   15.1350 C.ar   83  G83         0.1723
   1803  C5        21.1000   20.6890   15.0120 C.ar   83  G83         0.1748
   1804  C6        21.2620   19.8950   13.8460 C.ar   83  G83         0.3023
   1805  O6        20.6940   18.8380   13.5420 O.2    83  G83        -0.2633
   1806  N7        20.2900   20.5140   16.1210 N.ar   83  G83        -0.2173
   1807  C8        20.5560   21.5460   16.8750 C.ar   83  G83         0.1817
   1808  N9        21.4890   22.3990   16.3380 N.ar   83  G83        -0.2693
   1809  OP1       17.6410   23.6080   21.3140 O.3    83  G83        -0.4373
   1810  OP2       17.6340   21.4370   19.9890 O.co2  83  G83        -0.5172
   1811  P         18.1280   26.4040   16.3880 P.3    84  G84         0.2141
   1812  C5'       19.2290   27.3660   14.2210 C.3    84  G84         0.1812
   1813  O5'       18.4890   26.3260   14.8370 O.3    84  G84        -0.3114
   1814  C4'       19.8900   26.8540   12.9610 C.3    84  G84         0.1773
   1815  O4'       20.4620   25.5450   13.2090 O.3    84  G84        -0.3307
   1816  C3'       18.9570   26.5540   11.8070 C.3    84  G84         0.1860
   1817  O3'       18.4550   27.7270   11.1850 O.3    84  G84        -0.3112
   1818  C2'       19.8910   25.7220   10.9280 C.3    84  G84         0.2309
   1819  O2'       20.8260   26.4780   10.1800 O.3    84  G84        -0.2156
   1820  C1'       20.5810   24.8470   11.9810 C.3    84  G84         0.2408
   1821  N1        19.5370   20.4010    9.7460 N.ar   84  G84        -0.1709
   1822  C2        20.2930   21.4560    9.2830 C.ar   84  G84         0.2606
   1823  N2        20.8440   21.3310    8.0670 N.pl3  84  G84        -0.0859
   1824  N3        20.4920   22.5760    9.9720 N.ar   84  G84        -0.1918
   1825  C4        19.8770   22.5610   11.1790 C.ar   84  G84         0.1723
   1826  C5        19.1030   21.5660   11.7260 C.ar   84  G84         0.1748
   1827  C6        18.8930   20.3740   10.9890 C.ar   84  G84         0.3023
   1828  O6        18.2340   19.3770   11.3290 O.2    84  G84        -0.2633
   1829  N7        18.6530   21.9340   12.9810 N.ar   84  G84        -0.2173
   1830  C8        19.1550   23.1220   13.1630 C.ar   84  G84         0.1817
   1831  N9        19.9120   23.5620   12.1110 N.ar   84  G84        -0.2693
   1832  OP1       17.6300   27.7660   16.7090 O.3    84  G84        -0.4373
   1833  OP2       17.3140   25.1980   16.6800 O.co2  84  G84        -0.5172
   1834  P         16.9720   27.7020   10.5680 P.3    85  G85         0.2141
   1835  C5'       18.0140   27.2990    8.1730 C.3    85  G85         0.1812
   1836  O5'       17.2180   26.8140    9.2560 O.3    85  G85        -0.3114
   1837  C4'       18.2100   26.2260    7.1220 C.3    85  G85         0.1773
   1838  O4'       18.7260   25.0280    7.7430 O.3    85  G85        -0.3307
   1839  C3'       16.9360   25.7340    6.4660 C.3    85  G85         0.1860
   1840  O3'       16.5390   26.6100    5.4440 O.3    85  G85        -0.3112
   1841  C2'       17.3540   24.3680    5.9340 C.3    85  G85         0.2309
   1842  O2'       18.1680   24.4110    4.7800 O.3    85  G85        -0.2156
   1843  C1'       18.1890   23.8840    7.1020 C.3    85  G85         0.2408
   1844  N1        15.7790   19.4930    8.1230 N.ar   85  G85        -0.1709
   1845  C2        16.3630   19.8950    6.9530 C.ar   85  G85         0.2606
   1846  N2        16.3210   19.0380    5.9310 N.pl3  85  G85        -0.0859
   1847  N3        16.9620   21.0640    6.7930 N.ar   85  G85        -0.1918
   1848  C4        16.9340   21.8250    7.9210 C.ar   85  G85         0.1723
   1849  C5        16.3750   21.5010    9.1330 C.ar   85  G85         0.1748
   1850  C6        15.7410   20.2530    9.2820 C.ar   85  G85         0.3023
   1851  O6        15.1920   19.8120   10.2880 O.2    85  G85        -0.2633
   1852  N7        16.5440   22.5330   10.0410 N.ar   85  G85        -0.2173
   1853  C8        17.1890   23.4540    9.3790 C.ar   85  G85         0.1817
   1854  N9        17.4600   23.0950    8.0850 N.ar   85  G85        -0.2693
   1855  OP1       16.5540   29.0640   10.1560 O.2    85  G85        -0.5172
   1856  OP2       16.0990   26.9550   11.4990 O.co2  85  G85        -0.4373
   1857  P         14.9870   26.8940    5.2220 P.3    86  U86         0.2141
   1858  C5'       14.6290   25.0050    3.4250 C.3    86  U86         0.1812
   1859  O5'       14.4220   25.4720    4.7520 O.3    86  U86        -0.3114
   1860  C4'       14.0580   23.6170    3.2530 C.3    86  U86         0.1773
   1861  O4'       14.6810   22.7430    4.2200 O.3    86  U86        -0.3307
   1862  C3'       12.5870   23.4920    3.5940 C.3    86  U86         0.1860
   1863  O3'       11.7660   23.8960    2.5190 O.3    86  U86        -0.3112
   1864  C2'       12.4760   22.0040    3.8900 C.3    86  U86         0.2309
   1865  O2'       12.5120   21.2090    2.7240 O.3    86  U86        -0.2156
   1866  C1'       13.7400   21.8100    4.7180 C.3    86  U86         0.2420
   1867  N1        13.5340   22.0060    6.1960 N.ar   86  U86        -0.2534
   1868  C2        13.0010   20.9720    6.9420 C.ar   86  U86         0.3546
   1869  O2        12.6830   19.9010    6.4670 O.2    86  U86        -0.2443
   1870  N3        12.8430   21.2370    8.2820 N.ar   86  U86        -0.1530
   1871  C4        13.1570   22.4130    8.9400 C.ar   86  U86         0.2846
   1872  O4        12.9660   22.5080   10.1470 O.2    86  U86        -0.2650
   1873  C5        13.7080   23.4480    8.1020 C.ar   86  U86         0.0814
   1874  C6        13.8720   23.2100    6.7950 C.ar   86  U86         0.0870
   1875  OP1       14.8930   27.8620    4.1090 O.2    86  U86        -0.5172
   1876  OP2       14.3840   27.2080    6.5340 O.co2  86  U86        -0.4373
   1877  P         10.3310   24.5190    2.8490 P.3    87  G87         0.2141
   1878  C5'        9.0980   22.2860    2.2660 C.3    87  G87         0.1812
   1879  O5'        9.4620   23.2400    3.2500 O.3    87  G87        -0.3114
   1880  C4'        8.4440   21.0780    2.9070 C.3    87  G87         0.1773
   1881  O4'        9.3120   20.5010    3.9160 O.3    87  G87        -0.3307
   1882  C3'        7.1710   21.3540    3.6870 C.3    87  G87         0.1860
   1883  O3'        6.0910   21.4800    2.8130 O.3    87  G87        -0.3112
   1884  C2'        7.0770   20.1060    4.5520 C.3    87  G87         0.2309
   1885  O2'        6.7420   18.9450    3.8190 O.3    87  G87        -0.2156
   1886  C1'        8.5280   19.9870    4.9910 C.3    87  G87         0.2408
   1887  N1         8.2640   19.9730   10.0960 N.ar   87  G87        -0.1709
   1888  C2         7.7540   19.0700    9.2010 C.ar   87  G87         0.2606
   1889  N2         7.1040   18.0280    9.7180 N.pl3  87  G87        -0.0859
   1890  N3         7.8830   19.1720    7.8870 N.ar   87  G87        -0.1918
   1891  C4         8.5720   20.2840    7.5260 C.ar   87  G87         0.1723
   1892  C5         9.1150   21.2440    8.3440 C.ar   87  G87         0.1748
   1893  C6         8.9770   21.1170    9.7410 C.ar   87  G87         0.3023
   1894  O6         9.3970   21.8840   10.6160 O.2    87  G87        -0.2633
   1895  N7         9.7420   22.2270    7.6050 N.ar   87  G87        -0.2173
   1896  C8         9.5740   21.8530    6.3730 C.ar   87  G87         0.1817
   1897  N9         8.8690   20.6810    6.2420 N.ar   87  G87        -0.2693
   1898  OP1        9.8010   25.1040    1.6020 O.2    87  G87        -0.5172
   1899  OP2       10.4530   25.3700    4.0440 O.co2  87  G87        -0.4373
   1900  P          4.9970   22.6010    3.1200 P.3    88  C88         0.2141
   1901  C5'        3.3610   20.7770    4.0680 C.3    88  C88         0.1812
   1902  O5'        4.1820   21.9220    4.3180 O.3    88  C88        -0.3114
   1903  C4'        2.8470   20.1760    5.3540 C.3    88  C88         0.1773
   1904  O4'        3.9650   19.7560    6.1630 O.3    88  C88        -0.3307
   1905  C3'        2.1360   21.1360    6.2830 C.3    88  C88         0.1860
   1906  O3'        0.8370   21.3380    5.8690 O.3    88  C88        -0.3112
   1907  C2'        2.1570   20.3140    7.5490 C.3    88  C88         0.2309
   1908  O2'        1.3280   19.1710    7.4370 O.3    88  C88        -0.2156
   1909  C1'        3.6280   19.9180    7.5280 C.3    88  C88         0.2420
   1910  N1         4.5220   20.9370    8.1980 N.ar   88  C88        -0.2535
   1911  C2         4.6860   20.8750    9.5920 C.ar   88  C88         0.3532
   1912  O2         4.1040   19.9920   10.2390 O.2    88  C88        -0.2443
   1913  N3         5.4860   21.7900   10.2010 N.ar   88  C88        -0.1739
   1914  C4         6.1050   22.7330    9.4900 C.ar   88  C88         0.1759
   1915  N4         6.8780   23.5950   10.1550 N.pl3  88  C88        -0.1070
   1916  C5         5.9560   22.8220    8.0750 C.ar   88  C88         0.0566
   1917  C6         5.1650   21.9160    7.4820 C.ar   88  C88         0.0850
   1918  OP1        4.1480   22.6880    1.9100 O.2    88  C88        -0.5172
   1919  OP2        5.6250   23.8310    3.6580 O.co2  88  C88        -0.4373
   1920  P          0.1970   22.7860    6.0180 P.3    89  A89         0.2141
   1921  C5'       -1.1200   22.1030    8.1970 C.3    89  A89         0.1812
   1922  O5'       -0.1110   22.9010    7.5820 O.3    89  A89        -0.3114
   1923  C4'       -1.0200   22.1430    9.7120 C.3    89  A89         0.1773
   1924  O4'        0.3090   21.7360   10.1420 O.3    89  A89        -0.3307
   1925  C3'       -1.1550   23.5110   10.3550 C.3    89  A89         0.1860
   1926  O3'       -2.4840   23.9460   10.4190 O.3    89  A89        -0.3112
   1927  C2'       -0.6060   23.2020   11.7380 C.3    89  A89         0.2309
   1928  O2'       -1.5150   22.4530   12.5180 O.3    89  A89        -0.2156
   1929  C1'        0.6360   22.4010   11.3500 C.3    89  A89         0.2408
   1930  N1         4.1670   25.3490   13.6240 N.ar   89  A89        -0.2040
   1931  C2         3.1910   24.5700   14.1120 C.ar   89  A89         0.2016
   1932  N3         2.3030   23.8250   13.4470 N.ar   89  A89        -0.2048
   1933  C4         2.4880   23.9210   12.1190 C.ar   89  A89         0.1692
   1934  C5         3.4480   24.6740   11.4650 C.ar   89  A89         0.1518
   1935  C6         4.3250   25.4190   12.2860 C.ar   89  A89         0.1919
   1936  N6         5.3010   26.1920   11.8130 N.pl3  89  A89        -0.1054
   1937  N7         3.3360   24.5240   10.0930 N.ar   89  A89        -0.2193
   1938  C8         2.3250   23.6940    9.9540 C.ar   89  A89         0.1816
   1939  N9         1.7720   23.2880   11.1360 N.ar   89  A89        -0.2693
   1940  OP1       -1.0630   22.7520    5.2440 O.2    89  A89        -0.5172
   1941  OP2        1.2200   23.8090    5.7040 O.co2  89  A89        -0.4373
   1942  P         -2.7740   25.5140   10.4050 P.3    90  G90         0.2141
   1943  C5'       -3.4610   25.6420   12.9010 C.3    90  G90         0.1812
   1944  O5'       -2.4940   25.9460   11.9090 O.3    90  G90        -0.3114
   1945  C4'       -2.9050   25.9280   14.2770 C.3    90  G90         0.1773
   1946  O4'       -1.5880   25.3220   14.3980 O.3    90  G90        -0.3307
   1947  C3'       -2.6750   27.4020   14.5750 C.3    90  G90         0.1860
   1948  O3'       -3.8690   28.0130   15.0190 O.3    90  G90        -0.3112
   1949  C2'       -1.6310   27.3050   15.6810 C.3    90  G90         0.2309
   1950  O2'       -2.1750   26.9930   16.9520 O.3    90  G90        -0.2156
   1951  C1'       -0.7410   26.1780   15.1420 C.3    90  G90         0.2408
   1952  N1         3.4430   29.0090   15.0760 N.ar   90  G90        -0.1709
   1953  C2         2.6630   28.6060   16.1400 C.ar   90  G90         0.2606
   1954  N2         3.0210   29.0000   17.3670 N.pl3  90  G90        -0.0859
   1955  N3         1.5880   27.8480   16.0080 N.ar   90  G90        -0.1918
   1956  C4         1.3380   27.5190   14.7140 C.ar   90  G90         0.1723
   1957  C5         2.0450   27.8620   13.5860 C.ar   90  G90         0.1748
   1958  C6         3.2020   28.6720   13.7380 C.ar   90  G90         0.3023
   1959  O6         3.9650   29.0850   12.8520 O.2    90  G90        -0.2633
   1960  N7         1.4490   27.3140   12.4520 N.ar   90  G90        -0.2173
   1961  C8         0.4130   26.6660   12.9100 C.ar   90  G90         0.1817
   1962  N9         0.2910   26.7430   14.2780 N.ar   90  G90        -0.2693
   1963  OP1       -4.2140   25.6820   10.1240 O.3    90  G90        -0.4373
   1964  OP2       -1.7860   26.1870    9.5390 O.co2  90  G90        -0.5172
   1965  P         -4.3550   29.4200   14.4250 P.3    91  A91         0.2141
   1966  C5'       -3.7430   30.1990   16.8610 C.3    91  A91         0.1812
   1967  O5'       -3.7910   30.4870   15.4680 O.3    91  A91        -0.3114
   1968  C4'       -2.6150   30.9690   17.5240 C.3    91  A91         0.1773
   1969  O4'       -1.3410   30.2990   17.2980 O.3    91  A91        -0.3307
   1970  C3'       -2.3830   32.3750   16.9860 C.3    91  A91         0.1860
   1971  O3'       -3.3120   33.3160   17.4930 O.3    91  A91        -0.3112
   1972  C2'       -0.9650   32.6390   17.4800 C.3    91  A91         0.2309
   1973  O2'       -0.9060   33.0110   18.8440 O.3    91  A91        -0.2156
   1974  C1'       -0.3160   31.2810   17.2020 C.3    91  A91         0.2408
   1975  N1         3.7050   32.7750   14.3860 N.ar   91  A91        -0.2040
   1976  C2         3.4220   32.9210   15.6880 C.ar   91  A91         0.2016
   1977  N3         2.3510   32.4990   16.3540 N.ar   91  A91        -0.2048
   1978  C4         1.4960   31.8600   15.5310 C.ar   91  A91         0.1692
   1979  C5         1.6470   31.6440   14.1720 C.ar   91  A91         0.1518
   1980  C6         2.8300   32.1370   13.5880 C.ar   91  A91         0.1919
   1981  N6         3.1330   32.0110   12.2980 N.pl3  91  A91        -0.1054
   1982  N7         0.5620   30.9590   13.6570 N.ar   91  A91        -0.2193
   1983  C8        -0.2110   30.7770   14.7030 C.ar   91  A91         0.1816
   1984  N9         0.2920   31.2860   15.8700 N.ar   91  A91        -0.2693
   1985  OP1       -5.8290   29.4270   14.5020 O.3    91  A91        -0.4373
   1986  OP2       -3.6920   29.6830   13.1300 O.co2  91  A91        -0.5172
   1987  P         -3.5970   34.6770   16.6860 P.3    92  G92         0.2141
   1988  C5'       -1.9080   36.1870   18.0210 C.3    92  G92         0.1812
   1989  O5'       -2.2240   35.4910   16.8140 O.3    92  G92        -0.3114
   1990  C4'       -0.5130   36.7890   17.9620 C.3    92  G92         0.1773
   1991  O4'        0.4360   35.7980   17.4880 O.3    92  G92        -0.3307
   1992  C3'       -0.3310   37.9360   16.9770 C.3    92  G92         0.1860
   1993  O3'       -0.8410   39.1530   17.4790 O.3    92  G92        -0.3112
   1994  C2'        1.1820   37.9330   16.7860 C.3    92  G92         0.2309
   1995  O2'        1.9110   38.4810   17.8560 O.3    92  G92        -0.2156
   1996  C1'        1.4490   36.4360   16.7280 C.3    92  G92         0.2408
   1997  N1         4.0210   36.2870   12.3660 N.ar   92  G92        -0.1709
   1998  C2         4.3460   36.8830   13.5650 C.ar   92  G92         0.2606
   1999  N2         5.5170   37.5350   13.6300 N.pl3  92  G92        -0.0859
   2000  N3         3.5730   36.8460   14.6410 N.ar   92  G92        -0.1918
   2001  C4         2.4290   36.1530   14.4240 C.ar   92  G92         0.1723
   2002  C5         2.0090   35.5260   13.2730 C.ar   92  G92         0.1748
   2003  C6         2.8460   35.5740   12.1320 C.ar   92  G92         0.3023
   2004  O6         2.6420   35.0770   11.0170 O.2    92  G92        -0.2633
   2005  N7         0.7710   34.9260   13.4640 N.ar   92  G92        -0.2173
   2006  C8         0.4720   35.2030   14.7060 C.ar   92  G92         0.1817
   2007  N9         1.4390   35.9420   15.3510 N.ar   92  G92        -0.2693
   2008  OP1       -4.6810   35.3720   17.4100 O.3    92  G92        -0.4373
   2009  OP2       -3.7880   34.3750   15.2500 O.co2  92  G92        -0.5172
   2010  P         -1.7280   40.0230   16.4710 P.3    93  U93         0.2141
   2011  C5'        0.3370   41.6090   16.0170 C.3    93  U93         0.1812
   2012  O5'       -0.6240   40.6800   15.5190 O.3    93  U93        -0.3114
   2013  C4'        1.4000   41.8730   14.9690 C.3    93  U93         0.1773
   2014  O4'        2.0220   40.6290   14.5610 O.3    93  U93        -0.3307
   2015  C3'        0.8740   42.4470   13.6640 C.3    93  U93         0.1860
   2016  O3'        0.6530   43.8290   13.7950 O.3    93  U93        -0.3112
   2017  C2'        1.9920   42.0780   12.6890 C.3    93  U93         0.2309
   2018  O2'        3.1620   42.8620   12.8060 O.3    93  U93        -0.2156
   2019  C1'        2.3250   40.6780   13.1730 C.3    93  U93         0.2420
   2020  N1         1.6250   39.5850   12.4080 N.ar   93  U93        -0.2534
   2021  C2         2.2810   39.0220   11.3280 C.ar   93  U93         0.3546
   2022  O2         3.3920   39.3750   10.9660 O.2    93  U93        -0.2443
   2023  N3         1.5960   38.0200   10.6760 N.ar   93  U93        -0.1530
   2024  C4         0.3380   37.5370   10.9890 C.ar   93  U93         0.2846
   2025  O4        -0.1560   36.6350   10.3140 O.2    93  U93        -0.2650
   2026  C5        -0.2860   38.1710   12.1260 C.ar   93  U93         0.0814
   2027  C6         0.3660   39.1430   12.7790 C.ar   93  U93         0.0870
   2028  OP1       -2.4050   41.1130   17.2090 O.3    93  U93        -0.4373
   2029  OP2       -2.5320   39.0880   15.6520 O.co2  93  U93        -0.5172
   2030  P         -0.8470   44.3900   13.7550 P.3    94  U94         0.2141
   2031  C5'       -0.3730   46.5640   12.2900 C.3    94  U94         0.1812
   2032  O5'       -0.8570   45.2230   12.3870 O.3    94  U94        -0.3114
   2033  C4'       -1.4010   47.4140   11.5630 C.3    94  U94         0.1773
   2034  O4'       -1.5800   46.9450   10.1990 O.3    94  U94        -0.3307
   2035  C3'       -2.7810   47.3850   12.2010 C.3    94  U94         0.1860
   2036  O3'       -3.3000   48.6940   12.2120 O.3    94  U94        -0.3112
   2037  C2'       -3.5690   46.4340   11.3030 C.3    94  U94         0.2309
   2038  O2'       -4.9540   46.6950   11.3000 O.3    94  U94        -0.2156
   2039  C1'       -2.9420   46.6870    9.9350 C.3    94  U94         0.2420
   2040  N1        -3.0460   45.5060    9.0220 N.ar   94  U94        -0.2534
   2041  C2        -3.8360   45.5550    7.8830 C.ar   94  U94         0.3546
   2042  O2        -4.4800   46.5250    7.5330 O.2    94  U94        -0.2443
   2043  N3        -3.8560   44.4030    7.1350 N.ar   94  U94        -0.1530
   2044  C4        -3.1810   43.2240    7.4060 C.ar   94  U94         0.2846
   2045  O4        -3.2930   42.2660    6.6480 O.2    94  U94        -0.2650
   2046  C5        -2.3810   43.2420    8.6030 C.ar   94  U94         0.0814
   2047  C6        -2.3480   44.3580    9.3440 C.ar   94  U94         0.0870
   2048  OP1       -1.0250   45.3190   14.8960 O.3    94  U94        -0.4373
   2049  OP2       -1.7760   43.2530   13.5660 O.co2  94  U94        -0.5172
   2050  P         -4.1590   49.2200   13.4530 P.3    95  C95         0.2141
   2051  C5'       -6.7070   48.8090   13.9260 C.3    95  C95         0.1812
   2052  O5'       -5.6430   48.8490   12.9860 O.3    95  C95        -0.3114
   2053  C4'       -8.0240   48.5180   13.2380 C.3    95  C95         0.1773
   2054  O4'       -8.2400   49.5030   12.2010 O.3    95  C95        -0.3307
   2055  C3'       -8.1040   47.2070   12.4780 C.3    95  C95         0.1860
   2056  O3'       -8.3660   46.1150   13.3370 O.3    95  C95        -0.3112
   2057  C2'       -9.2750   47.4810   11.5490 C.3    95  C95         0.2309
   2058  O2'      -10.5180   47.3530   12.2050 O.3    95  C95        -0.2156
   2059  C1'       -9.0350   48.9380   11.1750 C.3    95  C95         0.2420
   2060  N1        -8.3590   49.1210    9.8460 N.ar   95  C95        -0.2535
   2061  C2        -9.1170   49.0500    8.6560 C.ar   95  C95         0.3532
   2062  O2       -10.3400   48.8260    8.7050 O.2    95  C95        -0.2443
   2063  N3        -8.4730   49.2240    7.4630 N.ar   95  C95        -0.1739
   2064  C4        -7.1510   49.4620    7.4260 C.ar   95  C95         0.1759
   2065  N4        -6.5690   49.6270    6.2290 N.pl3  95  C95        -0.1070
   2066  C5        -6.3700   49.5360    8.6220 C.ar   95  C95         0.0566
   2067  C6        -7.0080   49.3650    9.7900 C.ar   95  C95         0.0850
   2068  OP1       -4.0470   50.6980   13.4870 O.2    95  C95        -0.5172
   2069  OP2       -3.8180   48.4040   14.6440 O.co2  95  C95        -0.4373
   2070  P         -7.8630   44.6600   12.8880 P.3    96  C96         0.2141
   2071  C5'      -10.2580   44.0240   11.9790 C.3    96  C96         0.1812
   2072  O5'       -8.8810   44.2960   11.7080 O.3    96  C96        -0.3114
   2073  C4'      -10.9650   43.5010   10.7400 C.3    96  C96         0.1773
   2074  O4'      -11.1200   44.5710    9.7740 O.3    96  C96        -0.3307
   2075  C3'      -10.2130   42.4210    9.9730 C.3    96  C96         0.1860
   2076  O3'      -10.4140   41.1420   10.5350 O.3    96  C96        -0.3112
   2077  C2'      -10.8380   42.5440    8.5880 C.3    96  C96         0.2309
   2078  O2'      -12.0880   41.8940    8.4810 O.3    96  C96        -0.2156
   2079  C1'      -11.0100   44.0550    8.4590 C.3    96  C96         0.2420
   2080  N1        -9.8790   44.7340    7.7240 N.ar   96  C96        -0.2535
   2081  C2        -9.8140   44.6760    6.3180 C.ar   96  C96         0.3532
   2082  O2       -10.6810   44.0650    5.6800 O.2    96  C96        -0.2443
   2083  N3        -8.7910   45.2980    5.6780 N.ar   96  C96        -0.1739
   2084  C4        -7.8670   45.9530    6.3780 C.ar   96  C96         0.1759
   2085  N4        -6.8870   46.5480    5.7010 N.pl3  96  C96        -0.1070
   2086  C5        -7.9020   46.0250    7.8010 C.ar   96  C96         0.0566
   2087  C6        -8.9160   45.4110    8.4230 C.ar   96  C96         0.0850
   2088  OP1       -8.0830   43.7050   14.0010 O.3    96  C96        -0.4373
   2089  OP2       -6.5090   44.8050   12.3020 O.co2  96  C96        -0.5172
   2090  P         -9.2930   40.0330   10.2620 P.3    97  U97         0.2141
   2091  C5'      -10.6650   38.8860    8.3010 C.3    97  U97         0.1812
   2092  O5'       -9.5370   39.6690    8.7180 O.3    97  U97        -0.3114
   2093  C4'      -10.6970   38.7230    6.7890 C.3    97  U97         0.1773
   2094  O4'      -10.7460   40.0190    6.1310 O.3    97  U97        -0.3307
   2095  C3'       -9.4580   38.0760    6.1890 C.3    97  U97         0.1860
   2096  O3'       -9.4220   36.6620    6.3330 O.3    97  U97        -0.3112
   2097  C2'       -9.5580   38.5240    4.7380 C.3    97  U97         0.2309
   2098  O2'      -10.5240   37.7890    4.0160 O.3    97  U97        -0.2156
   2099  C1'      -10.0020   39.9710    4.9200 C.3    97  U97         0.2420
   2100  N1        -8.8510   40.9510    4.9430 N.ar   97  U97        -0.2534
   2101  C2        -8.2630   41.3370    3.7490 C.ar   97  U97         0.3546
   2102  O2        -8.6160   40.9300    2.6590 O.2    97  U97        -0.2443
   2103  N3        -7.2270   42.2340    3.8730 N.ar   97  U97        -0.1530
   2104  C4        -6.7230   42.7770    5.0430 C.ar   97  U97         0.2846
   2105  O4        -5.7870   43.5700    4.9980 O.2    97  U97        -0.2650
   2106  C5        -7.3810   42.3330    6.2470 C.ar   97  U97         0.0814
   2107  C6        -8.3940   41.4600    6.1490 C.ar   97  U97         0.0870
   2108  OP1       -9.5520   38.8290   11.0970 O.3    97  U97        -0.4373
   2109  OP2       -7.9840   40.7240   10.3620 O.co2  97  U97        -0.5172
   2110  P         -7.9540   36.0200    6.4610 P.3    98  C98         0.2141
   2111  C5'       -8.1360   35.2670    3.8810 C.3    98  C98         0.1812
   2112  O5'       -7.4270   35.9400    4.9430 O.3    98  C98        -0.3114
   2113  C4'       -7.3800   35.3430    2.5560 C.3    98  C98         0.1773
   2114  O4'       -7.4380   36.6970    2.0140 O.3    98  C98        -0.3307
   2115  C3'       -5.8890   35.0210    2.6460 C.3    98  C98         0.1860
   2116  O3'       -5.6060   33.6260    2.5810 O.3    98  C98        -0.3112
   2117  C2'       -5.3120   35.7980    1.4620 C.3    98  C98         0.2309
   2118  O2'       -5.3800   35.0960    0.2380 O.3    98  C98        -0.2156
   2119  C1'       -6.1940   37.0460    1.4230 C.3    98  C98         0.2420
   2120  N1        -5.5220   38.1980    2.1340 N.ar   98  C98        -0.2535
   2121  C2        -4.4610   38.8770    1.5000 C.ar   98  C98         0.3532
   2122  O2        -4.0960   38.5360    0.3670 O.2    98  C98        -0.2443
   2123  N3        -3.8490   39.9040    2.1450 N.ar   98  C98        -0.1739
   2124  C4        -4.2460   40.2600    3.3680 C.ar   98  C98         0.1759
   2125  N4        -3.6060   41.2770    3.9510 N.pl3  98  C98        -0.1070
   2126  C5        -5.3150   39.5840    4.0370 C.ar   98  C98         0.0566
   2127  C6        -5.9160   38.5730    3.3930 C.ar   98  C98         0.0850
   2128  OP1       -8.0810   34.6500    7.0180 O.2    98  C98        -0.5172
   2129  OP2       -7.0920   37.0310    7.1370 O.co2  98  C98        -0.4373
   2130  P         -4.2310   33.1100    3.2300 P.3    99  C99         0.2141
   2131  C5'       -2.9480   33.0720    0.9120 C.3    99  C99         0.1812
   2132  O5'       -3.1180   33.6640    2.2120 O.3    99  C99        -0.3114
   2133  C4'       -1.9190   33.8020    0.0640 C.3    99  C99         0.1773
   2134  O4'       -2.2360   35.2110   -0.0350 O.3    99  C99        -0.3307
   2135  C3'       -0.5140   33.7880    0.6410 C.3    99  C99         0.1860
   2136  O3'        0.1610   32.5680    0.3900 O.3    99  C99        -0.3112
   2137  C2'        0.1360   34.9830   -0.0550 C.3    99  C99         0.2309
   2138  O2'        0.6670   34.7090   -1.3370 O.3    99  C99        -0.2156
   2139  C1'       -1.0340   35.9590   -0.1290 C.3    99  C99         0.2420
   2140  N1        -0.9610   36.9450    0.9870 N.ar   99  C99        -0.2535
   2141  C2        -0.1000   38.0520    0.8900 C.ar   99  C99         0.3532
   2142  O2         0.5830   38.2100   -0.1260 O.2    99  C99        -0.2443
   2143  N3        -0.0420   38.9380    1.9180 N.ar   99  C99        -0.1739
   2144  C4        -0.7950   38.7440    3.0060 C.ar   99  C99         0.1759
   2145  N4        -0.7140   39.6340    3.9960 N.pl3  99  C99        -0.1070
   2146  C5        -1.6690   37.6220    3.1330 C.ar   99  C99         0.0566
   2147  C6        -1.7200   36.7570    2.1110 C.ar   99  C99         0.0850
   2148  OP1       -4.2240   31.6280    3.2130 O.2    99  C99        -0.5172
   2149  OP2       -4.0260   33.8130    4.5140 O.co2  99  C99        -0.4373
   2150  P          1.2660   32.0750    1.4420 P.3   100  C100        0.2141
   2151  C5'        3.4140   33.1050    0.3110 C.3   100  C100        0.1812
   2152  O5'        2.4250   33.1880    1.3330 O.3   100  C100       -0.3114
   2153  C4'        4.3220   34.3220    0.2980 C.3   100  C100        0.1773
   2154  O4'        3.5500   35.5620    0.2970 O.3   100  C100       -0.3307
   2155  C3'        5.2340   34.4650    1.5090 C.3   100  C100        0.1860
   2156  O3'        6.3630   33.6090    1.4550 O.3   100  C100       -0.3112
   2157  C2'        5.6080   35.9420    1.3920 C.3   100  C100        0.2309
   2158  O2'        6.5840   36.1990    0.4010 O.3   100  C100       -0.2156
   2159  C1'        4.2580   36.5600    1.0290 C.3   100  C100        0.2420
   2160  N1         3.4920   36.9740    2.2670 N.ar  100  C100       -0.2535
   2161  C2         3.8400   38.1420    2.9770 C.ar  100  C100        0.3532
   2162  O2         4.7680   38.8600    2.5940 O.2   100  C100       -0.2443
   2163  N3         3.1330   38.4740    4.0870 N.ar  100  C100       -0.1739
   2164  C4         2.1260   37.6990    4.5000 C.ar  100  C100        0.1759
   2165  N4         1.4590   38.0610    5.5990 N.pl3 100  C100       -0.1070
   2166  C5         1.7570   36.5070    3.8040 C.ar  100  C100        0.0566
   2167  C6         2.4580   36.1900    2.7100 C.ar  100  C100        0.0850
   2168  OP1        1.8090   30.7830    0.9530 O.2   100  C100       -0.5172
   2169  OP2        0.6580   32.1580    2.7960 O.co2 100  C100       -0.4373
   2170  P          7.0600   33.1410    2.8290 P.3   101  G101        0.2141
   2171  C5'        8.8970   35.0170    2.6880 C.3   101  G101        0.1812
   2172  O5'        7.7570   34.4840    3.3310 O.3   101  G101       -0.3114
   2173  C4'        9.1900   36.3280    3.3780 C.3   101  G101        0.1773
   2174  O4'        7.9960   37.1620    3.3820 O.3   101  G101       -0.3307
   2175  C3'        9.5350   36.1700    4.8510 C.3   101  G101        0.1860
   2176  O3'       10.8930   35.8350    5.0220 O.3   101  G101       -0.3112
   2177  C2'        9.2150   37.5570    5.3860 C.3   101  G101        0.2309
   2178  O2'       10.2460   38.4890    5.1120 O.3   101  G101       -0.2156
   2179  C1'        7.9250   37.8590    4.6140 C.3   101  G101        0.2408
   2180  N1         4.7890   38.9100    8.4780 N.ar  101  G101       -0.1709
   2181  C2         5.9110   39.5830    8.0540 C.ar  101  G101        0.2606
   2182  N2         6.2550   40.6880    8.7340 N.pl3 101  G101       -0.0859
   2183  N3         6.6440   39.1980    7.0180 N.ar  101  G101       -0.1918
   2184  C4         6.1720   38.0700    6.4290 C.ar  101  G101        0.1723
   2185  C5         5.0680   37.3280    6.7760 C.ar  101  G101        0.1748
   2186  C6         4.2830   37.7530    7.8830 C.ar  101  G101        0.3023
   2187  O6         3.2610   37.2280    8.3500 O.2   101  G101       -0.2633
   2188  N7         4.9210   36.2400    5.9250 N.ar  101  G101       -0.2173
   2189  C8         5.9210   36.3540    5.0960 C.ar  101  G101        0.1817
   2190  N9         6.7230   37.4410    5.3390 N.ar  101  G101       -0.2693
   2191  OP1        8.1320   32.1470    2.5440 O.2   101  G101       -0.5172
   2192  OP2        5.9770   32.8260    3.7890 O.co2 101  G101       -0.4373
   2193  P         11.2810   34.6710    6.0560 P.3   102  C102        0.2141
   2194  C5'       12.0120   36.6220    7.6930 C.3   102  C102        0.1812
   2195  O5'       11.2660   35.4140    7.4770 O.3   102  C102       -0.3114
   2196  C4'       11.4800   37.3960    8.8870 C.3   102  C102        0.1773
   2197  O4'       10.1730   37.9670    8.5810 O.3   102  C102       -0.3307
   2198  C3'       11.2550   36.5590   10.1420 C.3   102  C102        0.1860
   2199  O3'       12.4810   36.3590   10.8350 O.3   102  C102       -0.3112
   2200  C2'       10.2370   37.4300   10.8850 C.3   102  C102        0.2309
   2201  O2'       10.7730   38.5660   11.5430 O.3   102  C102       -0.2156
   2202  C1'        9.3430   37.8790    9.7290 C.3   102  C102        0.2420
   2203  N1         8.1710   36.9490    9.5360 N.ar  102  C102       -0.2535
   2204  C2         7.0360   37.1340   10.3430 C.ar  102  C102        0.3532
   2205  O2         7.0200   38.0520   11.1670 O.2   102  C102       -0.2443
   2206  N3         5.9670   36.3070   10.2060 N.ar  102  C102       -0.1739
   2207  C4         5.9980   35.3260    9.3110 C.ar  102  C102        0.1759
   2208  N4         4.9090   34.5660    9.2310 N.pl3 102  C102       -0.1070
   2209  C5         7.1380   35.1020    8.4740 C.ar  102  C102        0.0566
   2210  C6         8.1890   35.9250    8.6210 C.ar  102  C102        0.0850
   2211  OP1       12.6730   34.2500    5.7690 O.2   102  C102       -0.5172
   2212  OP2       10.1880   33.6640    6.0560 O.co2 102  C102       -0.4373
   2213  P         12.7280   35.0900   11.7850 P.3   103  U103        0.2141
   2214  C5'       12.0810   36.3900   13.9820 C.3   103  U103        0.1812
   2215  O5'       11.7610   35.3700   13.0320 O.3   103  U103       -0.3114
   2216  C4'       11.1010   36.4080   15.1350 C.3   103  U103        0.1773
   2217  O4'        9.7950   36.8180   14.6550 O.3   103  U103       -0.3307
   2218  C3'       10.8470   35.0480   15.7560 C.3   103  U103        0.1860
   2219  O3'       11.8340   34.7290   16.7050 O.3   103  U103       -0.3112
   2220  C2'        9.4860   35.2530   16.4010 C.3   103  U103        0.2309
   2221  O2'        9.5560   35.9610   17.6280 O.3   103  U103       -0.2156
   2222  C1'        8.7860   36.0520   15.3020 C.3   103  U103        0.2420
   2223  N1         8.0120   35.1780   14.3140 N.ar  103  U103       -0.2534
   2224  C2         6.7650   34.6910   14.6690 C.ar  103  U103        0.3546
   2225  O2         6.2280   34.9230   15.7400 O.2   103  U103       -0.2443
   2226  N3         6.1520   33.9160   13.7110 N.ar  103  U103       -0.1530
   2227  C4         6.6330   33.5740   12.4570 C.ar  103  U103        0.2846
   2228  O4         5.9600   32.8690   11.7110 O.2   103  U103       -0.2650
   2229  C5         7.9320   34.1080   12.1520 C.ar  103  U103        0.0814
   2230  C6         8.5510   34.8670   13.0710 C.ar  103  U103        0.0870
   2231  OP1       14.1430   35.1330   12.2210 O.3   103  U103       -0.4373
   2232  OP2       12.2390   33.8650   11.1230 O.co2 103  U103       -0.5172
   2233  P         12.1970   33.1860   16.9730 P.3   104  C104        0.2141
   2234  C5'       10.6560   33.1710   19.1090 C.3   104  C104        0.1812
   2235  O5'       10.9440   32.6320   17.8130 O.3   104  C104       -0.3114
   2236  C4'        9.3400   32.6510   19.6430 C.3   104  C104        0.1773
   2237  O4'        8.2490   33.1510   18.8230 O.3   104  C104       -0.3307
   2238  C3'        9.2010   31.1420   19.5640 C.3   104  C104        0.1860
   2239  O3'        9.8390   30.4970   20.6440 O.3   104  C104       -0.3112
   2240  C2'        7.6830   30.9840   19.5860 C.3   104  C104        0.2309
   2241  O2'        7.1110   31.0700   20.8820 O.3   104  C104       -0.2156
   2242  C1'        7.2560   32.1460   18.6850 C.3   104  C104        0.2420
   2243  N1         7.0950   31.6830   17.2490 N.ar  104  C104       -0.2535
   2244  C2         5.8900   31.0760   16.8580 C.ar  104  C104        0.3532
   2245  O2         4.9830   30.9620   17.6910 O.2   104  C104       -0.2443
   2246  N3         5.7380   30.6370   15.5760 N.ar  104  C104       -0.1739
   2247  C4         6.7370   30.7800   14.7000 C.ar  104  C104        0.1759
   2248  N4         6.5500   30.3430   13.4530 N.pl3 104  C104       -0.1070
   2249  C5         7.9780   31.3800   15.0720 C.ar  104  C104        0.0566
   2250  C6         8.1110   31.8090   16.3370 C.ar  104  C104        0.0850
   2251  OP1       13.3950   33.2050   17.8400 O.3   104  C104       -0.4373
   2252  OP2       12.2380   32.4490   15.6820 O.co2 104  C104       -0.5172
   2253  P         10.4610   29.0370   20.4010 P.3   105  U105        0.2141
   2254  C5'        8.3530   27.8900   21.4540 C.3   105  U105        0.1812
   2255  O5'        9.1910   28.0640   20.3240 O.3   105  U105       -0.3114
   2256  C4'        7.0560   27.2030   21.0760 C.3   105  U105        0.1773
   2257  O4'        6.3160   27.9820   20.0980 O.3   105  U105       -0.3307
   2258  C3'        7.2150   25.8550   20.4020 C.3   105  U105        0.1860
   2259  O3'        7.5510   24.8610   21.3550 O.3   105  U105       -0.3112
   2260  C2'        5.8130   25.7010   19.8190 C.3   105  U105        0.2309
   2261  O2'        4.8180   25.4090   20.7710 O.3   105  U105       -0.2156
   2262  C1'        5.5650   27.1030   19.2730 C.3   105  U105        0.2420
   2263  N1         5.9990   27.1720   17.8360 N.ar  105  U105       -0.2534
   2264  C2         5.2750   26.4590   16.8920 C.ar  105  U105        0.3546
   2265  O2         4.2880   25.7930   17.1600 O.2   105  U105       -0.2443
   2266  N3         5.7460   26.5550   15.6030 N.ar  105  U105       -0.1530
   2267  C4         6.8480   27.2670   15.1750 C.ar  105  U105        0.2846
   2268  O4         7.1420   27.2480   13.9890 O.2   105  U105       -0.2650
   2269  C5         7.5580   27.9790   16.2080 C.ar  105  U105        0.0814
   2270  C6         7.1170   27.9100   17.4710 C.ar  105  U105        0.0870
   2271  OP1       11.2450   28.7130   21.6110 O.3   105  U105       -0.4373
   2272  OP2       11.1070   28.9960   19.0700 O.co2 105  U105       -0.5172
   2273  P          8.4310   23.5930   20.9350 P.3   106  G106        0.2141
   2274  C5'        6.3550   22.0600   21.2130 C.3   106  G106        0.1812
   2275  O5'        7.3320   22.6040   20.3550 O.3   106  G106       -0.3114
   2276  C4'        5.3730   21.2790   20.3690 C.3   106  G106        0.1773
   2277  O4'        4.7040   22.1860   19.4590 O.3   106  G106       -0.3307
   2278  C3'        5.9940   20.2690   19.4230 C.3   106  G106        0.1860
   2279  O3'        6.3210   19.0920   20.1330 O.3   106  G106       -0.3112
   2280  C2'        4.8350   20.0950   18.4500 C.3   106  G106        0.2309
   2281  O2'        3.7020   19.4880   19.0280 O.3   106  G106       -0.2156
   2282  C1'        4.4980   21.5490   18.2090 C.3   106  G106        0.2408
   2283  N1         5.2920   21.8610   13.2060 N.ar  106  G106       -0.1709
   2284  C2         4.3640   21.1220   13.9060 C.ar  106  G106        0.2606
   2285  N2         3.5290   20.3570   13.1960 N.pl3 106  G106       -0.0859
   2286  N3         4.2610   21.1330   15.2250 N.ar  106  G106       -0.1918
   2287  C4         5.1740   21.9510   15.8090 C.ar  106  G106        0.1723
   2288  C5         6.1390   22.7280   15.2060 C.ar  106  G106        0.1748
   2289  C6         6.2390   22.7120   13.7880 C.ar  106  G106        0.3023
   2290  O6         7.0350   23.3340   13.0650 O.2   106  G106       -0.2633
   2291  N7         6.8760   23.4240   16.1620 N.ar  106  G106       -0.2173
   2292  C8         6.3510   23.0570   17.2990 C.ar  106  G106        0.1817
   2293  N9         5.3130   22.1620   17.1600 N.ar  106  G106       -0.2693
   2294  OP1        9.0020   23.0000   22.1600 O.3   106  G106       -0.4373
   2295  OP2        9.3390   23.9650   19.8300 O.co2 106  G106       -0.5172
   2296  P          7.3650   18.0040   19.5940 P.3   107  C107        0.2141
   2297  C5'        5.7030   16.5580   18.1870 C.3   107  C107        0.1812
   2298  O5'        6.7320   17.5080   18.2280 O.3   107  C107       -0.3114
   2299  C4'        5.4840   16.2480   16.7250 C.3   107  C107        0.1773
   2300  O4'        5.2020   17.4860   16.0290 O.3   107  C107       -0.3307
   2301  C3'        6.7020   15.7380   15.9690 C.3   107  C107        0.1860
   2302  O3'        6.9650   14.3910   16.2580 O.3   107  C107       -0.3112
   2303  C2'        6.2200   15.9680   14.5430 C.3   107  C107        0.2309
   2304  O2'        5.2250   15.0470   14.1360 O.3   107  C107       -0.2156
   2305  C1'        5.6350   17.3700   14.6890 C.3   107  C107        0.2420
   2306  N1         6.6310   18.4360   14.3880 N.ar  107  C107       -0.2535
   2307  C2         6.8910   18.7600   13.0510 C.ar  107  C107        0.3532
   2308  O2         6.2900   18.1690   12.1500 O.2   107  C107       -0.2443
   2309  N3         7.8000   19.7240   12.7750 N.ar  107  C107       -0.1739
   2310  C4         8.4320   20.3420   13.7660 C.ar  107  C107        0.1759
   2311  N4         9.3060   21.2790   13.4250 N.pl3 107  C107       -0.1070
   2312  C5         8.1980   20.0360   15.1360 C.ar  107  C107        0.0566
   2313  C6         7.2950   19.0850   15.3950 C.ar  107  C107        0.0850
   2314  OP1        7.3100   16.8720   20.5430 O.3   107  C107       -0.4373
   2315  OP2        8.6300   18.6790   19.2410 O.co2 107  C107       -0.5172
   2316  P          8.4300   13.7650   16.0770 P.3   108  A108        0.2141
   2317  C5'        7.9670   12.9010   13.6410 C.3   108  A108        0.1812
   2318  O5'        8.6630   13.8140   14.4940 O.3   108  A108       -0.3114
   2319  C4'        8.2090   13.2270   12.1830 C.3   108  A108        0.1773
   2320  O4'        7.9910   14.6350   11.9380 O.3   108  A108       -0.3307
   2321  C3'        9.6410   13.0280   11.7380 C.3   108  A108        0.1860
   2322  O3'        9.8720   11.6760   11.4630 O.3   108  A108       -0.3112
   2323  C2'        9.6830   13.8780   10.4750 C.3   108  A108        0.2309
   2324  O2'        9.1290   13.2260    9.3500 O.3   108  A108       -0.2156
   2325  C1'        8.8320   15.0660   10.8840 C.3   108  A108        0.2408
   2326  N1        11.6270   19.1760    9.5640 N.ar  108  A108       -0.2040
   2327  C2        11.0180   18.2380    8.8250 C.ar  108  A108        0.2016
   2328  N3        10.3030   17.1880    9.2320 N.ar  108  A108       -0.2048
   2329  C4        10.2440   17.1410   10.5720 C.ar  108  A108        0.1692
   2330  C5        10.8220   18.0310   11.4590 C.ar  108  A108        0.1518
   2331  C6        11.5460   19.0980   10.9050 C.ar  108  A108        0.1919
   2332  N6        12.1500   20.0230   11.6410 N.pl3 108  A108       -0.1054
   2333  N7        10.5570   17.6730   12.7650 N.ar  108  A108       -0.2193
   2334  C8         9.8300   16.5860   12.6390 C.ar  108  A108        0.1816
   2335  N9         9.6060   16.2090   11.3460 N.ar  108  A108       -0.2693
   2336  OP1        8.2750   12.3560   16.5170 O.2   108  A108       -0.5172
   2337  OP2        9.4610   14.6210   16.7080 O.co2 108  A108       -0.4373
   2338  P         11.3280   11.0620   11.6610 P.3   109  U109        0.2141
   2339  C5'       11.9820   11.5080    9.1430 C.3   109  U109        0.1812
   2340  O5'       12.1810   11.8150   10.5330 O.3   109  U109       -0.3114
   2341  C4'       12.7720   12.4340    8.2320 C.3   109  U109        0.1773
   2342  O4'       12.3510   13.8080    8.4180 O.3   109  U109       -0.3307
   2343  C3'       14.2690   12.4580    8.4800 C.3   109  U109        0.1860
   2344  O3'       14.8600   11.4360    7.7160 O.3   109  U109       -0.3112
   2345  C2'       14.6670   13.8330    7.9600 C.3   109  U109        0.2309
   2346  O2'       14.8360   13.8550    6.5570 O.3   109  U109       -0.2156
   2347  C1'       13.4620   14.6810    8.3480 C.3   109  U109        0.2420
   2348  N1        13.6150   15.4110    9.6510 N.ar  109  U109       -0.2534
   2349  C2        14.2500   16.6370    9.6720 C.ar  109  U109        0.3546
   2350  O2        14.7060   17.1730    8.6830 O.2   109  U109       -0.2443
   2351  N3        14.3360   17.2230   10.9120 N.ar  109  U109       -0.1530
   2352  C4        13.8600   16.7220   12.1140 C.ar  109  U109        0.2846
   2353  O4        14.0050   17.3580   13.1560 O.2   109  U109       -0.2650
   2354  C5        13.2100   15.4430   12.0130 C.ar  109  U109        0.0814
   2355  C6        13.1180   14.8550   10.8160 C.ar  109  U109        0.0870
   2356  OP1       11.2150    9.6260   11.3060 O.2   109  U109       -0.5172
   2357  OP2       11.8460   11.4670   12.9880 O.co2 109  U109       -0.4373
   2358  P         15.5220   10.1410    8.4000 P.3   110  G110        0.2141
   2359  C5'       17.9940   10.5560    7.6170 C.3   110  G110        0.1812
   2360  O5'       17.0370   10.5950    8.6690 O.3   110  G110       -0.3114
   2361  C4'       19.1050   11.5410    7.9130 C.3   110  G110        0.1773
   2362  O4'       19.7040   11.1620    9.1820 O.3   110  G110       -0.3307
   2363  C3'       20.2270   11.6190    6.8750 C.3   110  G110        0.1860
   2364  O3'       19.9860   12.7120    5.9470 O.3   110  G110       -0.3112
   2365  C2'       21.4740   11.8610    7.7500 C.3   110  G110        0.2309
   2366  O2'       21.8000   13.2360    7.9520 O.3   110  G110       -0.2156
   2367  C1'       21.1170   11.2530    9.1150 C.3   110  G110        0.2408
   2368  N1        21.6300    6.3130    7.8050 N.ar  110  G110       -0.1709
   2369  C2        20.9070    7.3110    7.1750 C.ar  110  G110        0.2606
   2370  N2        20.2360    6.9600    6.0640 N.pl3 110  G110       -0.0859
   2371  N3        20.8460    8.5690    7.6030 N.ar  110  G110       -0.1918
   2372  C4        21.5710    8.7550    8.7360 C.ar  110  G110        0.1723
   2373  C5        22.3210    7.8240    9.4370 C.ar  110  G110        0.1748
   2374  C6        22.3830    6.4900    8.9710 C.ar  110  G110        0.3023
   2375  O6        23.0020    5.5360    9.4680 O.2   110  G110       -0.2633
   2376  N7        22.9250    8.4000   10.5470 N.ar  110  G110       -0.2173
   2377  C8        22.5350    9.6520   10.4980 C.ar  110  G110        0.1817
   2378  N9        21.7110    9.9440    9.4260 N.ar  110  G110       -0.2693
   2379  OP1       15.4520    9.0610    7.3750 O.2   110  G110       -0.5172
   2380  OP2       14.9180    9.9360    9.7380 O.co2 110  G110       -0.4373
   2381  P         19.0630   12.6300    4.6240 P.3   111  C111        0.2141
   2382  C5'       20.3470   14.3270    2.9970 C.3   111  C111        0.1812
   2383  O5'       19.3200   14.0530    3.9380 O.3   111  C111       -0.3114
   2384  C4'       20.6580   15.8150    3.0180 C.3   111  C111        0.1773
   2385  O4'       19.5030   16.5850    3.4580 O.3   111  C111       -0.3307
   2386  C3'       21.7300   16.2110    4.0110 C.3   111  C111        0.1860
   2387  O3'       22.9980   15.9920    3.4630 O.3   111  C111       -0.3112
   2388  C2'       21.4370   17.6950    4.2100 C.3   111  C111        0.2309
   2389  O2'       21.8960   18.5330    3.1640 O.3   111  C111       -0.2156
   2390  C1'       19.9130   17.6810    4.2600 C.3   111  C111        0.2420
   2391  N1        19.3930   17.5570    5.6670 N.ar  111  C111       -0.2535
   2392  C2        19.4970   18.6620    6.5260 C.ar  111  C111        0.3532
   2393  O2        19.9980   19.7100    6.1040 O.2   111  C111       -0.2443
   2394  N3        19.0370   18.5620    7.7970 N.ar  111  C111       -0.1739
   2395  C4        18.4960   17.4200    8.2180 C.ar  111  C111        0.1759
   2396  N4        18.0580   17.3750    9.4730 N.pl3 111  C111       -0.1070
   2397  C5        18.3830   16.2720    7.3730 C.ar  111  C111        0.0566
   2398  C6        18.8400   16.3850    6.1170 C.ar  111  C111        0.0850
   2399  OP1       17.6340   12.6700    5.0230 O.3   111  C111       -0.4373
   2400  OP2       19.5880   11.5280    3.7760 O.co2 111  C111       -0.5172
   2401  P         24.1710   15.5080    4.4290 P.3   112  C112        0.2141
   2402  C5'       25.0600   17.9630    4.4860 C.3   112  C112        0.1812
   2403  O5'       24.5180   16.8590    5.1950 O.3   112  C112       -0.3114
   2404  C4'       25.2920   19.1020    5.4530 C.3   112  C112        0.1773
   2405  O4'       24.0350   19.4920    6.0520 O.3   112  C112       -0.3307
   2406  C3'       26.1260   18.7320    6.6650 C.3   112  C112        0.1860
   2407  O3'       27.4960   18.7010    6.3500 O.3   112  C112       -0.3112
   2408  C2'       25.7730   19.8630    7.6150 C.3   112  C112        0.2309
   2409  O2'       26.4010   21.0870    7.2890 O.3   112  C112       -0.2156
   2410  C1'       24.2760   19.9620    7.3690 C.3   112  C112        0.2420
   2411  N1        23.4500   19.2090    8.3730 N.ar  112  C112       -0.2535
   2412  C2        23.2690   19.7540    9.6590 C.ar  112  C112        0.3532
   2413  O2        23.7980   20.8330    9.9510 O.2   112  C112       -0.2443
   2414  N3        22.5130   19.0800   10.5630 N.ar  112  C112       -0.1739
   2415  C4        21.9550   17.9120   10.2250 C.ar  112  C112        0.1759
   2416  N4        21.2240   17.2880   11.1540 N.pl3 112  C112       -0.1070
   2417  C5        22.1230   17.3370    8.9250 C.ar  112  C112        0.0566
   2418  C6        22.8670   18.0140    8.0400 C.ar  112  C112        0.0850
   2419  OP1       25.3200   15.1210    3.5810 O.2   112  C112       -0.5172
   2420  OP2       23.6360   14.5650    5.4350 O.co2 112  C112       -0.4373
   2421  P         28.4350   17.7080    7.1720 P.3   113  U113        0.2141
   2422  C5'       29.3620   19.5880    8.7610 C.3   113  U113        0.1812
   2423  O5'       28.5480   18.4450    8.5840 O.3   113  U113       -0.3114
   2424  C4'       29.1320   20.1380   10.1520 C.3   113  U113        0.1773
   2425  O4'       27.7180   20.2760   10.3970 O.3   113  U113       -0.3307
   2426  C3'       29.5630   19.2360   11.2920 C.3   113  U113        0.1860
   2427  O3'       30.9600   19.3000   11.4420 O.3   113  U113       -0.3112
   2428  C2'       28.8260   19.8900   12.4520 C.3   113  U113        0.2309
   2429  O2'       29.4360   21.0780   12.9150 O.3   113  U113       -0.2156
   2430  C1'       27.4970   20.2370   11.7920 C.3   113  U113        0.2420
   2431  N1        26.3960   19.2760   12.1130 N.ar  113  U113       -0.2534
   2432  C2        25.6510   19.4890   13.2510 C.ar  113  U113        0.3546
   2433  O2        25.8510   20.4170   14.0020 O.2   113  U113       -0.2443
   2434  N3        24.6540   18.5770   13.4860 N.ar  113  U113       -0.1530
   2435  C4        24.3340   17.4850   12.7030 C.ar  113  U113        0.2846
   2436  O4        23.4160   16.7550   13.0410 O.2   113  U113       -0.2650
   2437  C5        25.1480   17.3140   11.5270 C.ar  113  U113        0.0814
   2438  C6        26.1270   18.2000   11.2820 C.ar  113  U113        0.0870
   2439  OP1       29.7680   17.6940    6.5110 O.2   113  U113       -0.5172
   2440  OP2       27.6860   16.4610    7.4620 O.co2 113  U113       -0.4373
   2441  P         31.8550   17.9800   11.5420 P.3   114  G114        0.2141
   2442  C5'       31.1300   16.4080   13.5200 C.3   114  G114        0.1812
   2443  O5'       31.6870   17.6340   13.0920 O.3   114  G114       -0.3114
   2444  C4'       31.2440   16.3160   15.0260 C.3   114  G114        0.1773
   2445  O4'       32.4160   15.5320   15.3420 O.3   114  G114       -0.3307
   2446  C3'       31.4470   17.6370   15.7520 C.3   114  G114        0.1860
   2447  O3'       30.2100   18.2130   16.0870 O.3   114  G114       -0.3112
   2448  C2'       32.1710   17.1830   17.0050 C.3   114  G114        0.2309
   2449  O2'       31.2980   16.6540   17.9810 O.3   114  G114       -0.2156
   2450  C1'       33.0950   16.1140   16.4320 C.3   114  G114        0.2408
   2451  N1        37.3970   18.3290   17.9220 N.ar  114  G114       -0.1709
   2452  C2        36.3700   17.8200   18.6930 C.ar  114  G114        0.2606
   2453  N2        36.4820   17.9090   20.0290 N.pl3 114  G114       -0.0859
   2454  N3        35.2930   17.2630   18.1710 N.ar  114  G114       -0.1918
   2455  C4        35.3230   17.2430   16.8090 C.ar  114  G114        0.1723
   2456  C5        36.2970   17.7130   15.9630 C.ar  114  G114        0.1748
   2457  C6        37.4410   18.3140   16.5210 C.ar  114  G114        0.3023
   2458  O6        38.4080   18.7870   15.9070 O.2   114  G114       -0.2633
   2459  N7        35.9570   17.5040   14.6360 N.ar  114  G114       -0.2173
   2460  C8        34.7930   16.9190   14.6970 C.ar  114  G114        0.1817
   2461  N9        34.3490   16.7230   15.9840 N.ar  114  G114       -0.2693
   2462  OP1       33.2500   18.4450   11.3610 O.3   114  G114       -0.4373
   2463  OP2       31.3120   16.8690   10.7000 O.co2 114  G114       -0.5172
   2464  P         30.0280   19.7930   16.2380 P.3   115  G115        0.2141
   2465  C5'       30.3660   19.6100   18.8060 C.3   115  G115        0.1812
   2466  O5'       30.7930   20.1540   17.5810 O.3   115  G115       -0.3114
   2467  C4'       31.3290   20.0050   19.9020 C.3   115  G115        0.1773
   2468  O4'       32.6230   19.4010   19.6660 O.3   115  G115       -0.3307
   2469  C3'       31.6050   21.4910   19.9470 C.3   115  G115        0.1860
   2470  O3'       30.5660   22.1390   20.6590 O.3   115  G115       -0.3112
   2471  C2'       32.9440   21.5180   20.6610 C.3   115  G115        0.2309
   2472  O2'       32.8150   21.2720   22.0470 O.3   115  G115       -0.2156
   2473  C1'       33.6390   20.3230   20.0190 C.3   115  G115        0.2408
   2474  N1        37.9870   22.4230   18.3080 N.ar  115  G115       -0.1709
   2475  C2        37.5420   22.2940   19.6050 C.ar  115  G115        0.2606
   2476  N2        38.3540   22.7860   20.5570 N.pl3 115  G115       -0.0859
   2477  N3        36.3820   21.7180   19.9360 N.ar  115  G115       -0.1918
   2478  C4        35.6930   21.2820   18.8490 C.ar  115  G115        0.1723
   2479  C5        36.0620   21.3640   17.5230 C.ar  115  G115        0.1748
   2480  C6        37.2940   21.9730   17.1850 C.ar  115  G115        0.3023
   2481  O6        37.7790   22.1340   16.0590 O.2   115  G115       -0.2633
   2482  N7        35.0930   20.8010   16.7020 N.ar  115  G115       -0.2173
   2483  C8        34.1730   20.3950   17.5320 C.ar  115  G115        0.1817
   2484  N9        34.4620   20.6570   18.8530 N.ar  115  G115       -0.2693
   2485  OP1       28.5830   20.0420   16.4150 O.3   115  G115       -0.4373
   2486  OP2       30.7560   20.4470   15.1340 O.co2 115  G115       -0.5172
   2487  P         30.1570   23.6100   20.2210 P.3   116  G116        0.2141
   2488  C5'       31.2220   24.7490   22.3100 C.3   116  G116        0.1812
   2489  O5'       31.2580   24.5160   20.9120 O.3   116  G116       -0.3114
   2490  C4'       32.5410   25.3610   22.7470 C.3   116  G116        0.1773
   2491  O4'       33.6320   24.4650   22.3930 O.3   116  G116       -0.3307
   2492  C3'       32.9220   26.6750   22.0730 C.3   116  G116        0.1860
   2493  O3'       32.2380   27.8090   22.6180 O.3   116  G116       -0.3112
   2494  C2'       34.4220   26.6790   22.3500 C.3   116  G116        0.2309
   2495  O2'       34.7670   27.0620   23.6670 O.3   116  G116       -0.2156
   2496  C1'       34.7790   25.2200   22.0600 C.3   116  G116        0.2408
   2497  N1        38.2520   26.0860   18.4230 N.ar  116  G116       -0.1709
   2498  C2        38.3170   26.3390   19.7790 C.ar  116  G116        0.2606
   2499  N2        39.4330   26.8950   20.2510 N.pl3 116  G116       -0.0859
   2500  N3        37.3400   26.0600   20.6330 N.ar  116  G116       -0.1918
   2501  C4        36.2610   25.4910   20.0240 C.ar  116  G116        0.1723
   2502  C5        36.0950   25.2010   18.6880 C.ar  116  G116        0.1748
   2503  C6        37.1430   25.5030   17.7820 C.ar  116  G116        0.3023
   2504  O6        37.1460   25.3060   16.5550 O.2   116  G116       -0.2633
   2505  N7        34.8550   24.6290   18.4580 N.ar  116  G116       -0.2173
   2506  C8        34.3020   24.5910   19.6360 C.ar  116  G116        0.1817
   2507  N9        35.0960   25.0860   20.6400 N.ar  116  G116       -0.2693
   2508  OP1       28.8740   23.9370   20.8590 O.3   116  G116       -0.4373
   2509  OP2       30.3240   23.7130   18.7600 O.co2 116  G116       -0.5172
   2510  P         32.0480   29.1330   21.7330 P.3   117  G117        0.2141
   2511  C5'       34.2430   30.2380   22.6290 C.3   117  G117        0.1812
   2512  O5'       33.5550   29.6320   21.5250 O.3   117  G117       -0.3114
   2513  C4'       35.6890   30.5450   22.2960 C.3   117  G117        0.1773
   2514  O4'       36.2490   29.4020   21.6210 O.3   117  G117       -0.3307
   2515  C3'       35.8870   31.6570   21.2940 C.3   117  G117        0.1860
   2516  O3'       35.8700   32.8890   21.9470 O.3   117  G117       -0.3112
   2517  C2'       37.2680   31.3440   20.7580 C.3   117  G117        0.2309
   2518  O2'       38.2690   31.6980   21.6740 O.3   117  G117       -0.2156
   2519  C1'       37.1890   29.8350   20.6600 C.3   117  G117        0.2408
   2520  N1        38.4290   29.4320   15.7450 N.ar  117  G117       -0.1709
   2521  C2        39.1320   30.0150   16.7710 C.ar  117  G117        0.2606
   2522  N2        40.3130   30.5590   16.4490 N.pl3 117  G117       -0.0859
   2523  N3        38.7000   30.0590   18.0240 N.ar  117  G117       -0.1918
   2524  C4        37.4860   29.4660   18.1710 C.ar  117  G117        0.1723
   2525  C5        36.7060   28.8600   17.2110 C.ar  117  G117        0.1748
   2526  C6        37.1780   28.8220   15.8750 C.ar  117  G117        0.3023
   2527  O6        36.6320   28.3260   14.8780 O.2   117  G117       -0.2633
   2528  N7        35.5320   28.3660   17.7660 N.ar  117  G117       -0.2173
   2529  C8        35.6160   28.6840   19.0280 C.ar  117  G117        0.1817
   2530  N9        36.7750   29.3510   19.3450 N.ar  117  G117       -0.2693
   2531  OP1       31.3450   30.1710   22.5280 O.3   117  G117       -0.4373
   2532  OP2       31.5060   28.7270   20.4230 O.co2 117  G117       -0.5172
   2533  P         35.3940   34.1770   21.1250 P.3   118  G118        0.2141
   2534  C5'       37.8700   34.9420   20.7270 C.3   118  G118        0.1812
   2535  O5'       36.6410   34.4800   20.1720 O.3   118  G118       -0.3114
   2536  C4'       38.8800   35.2000   19.6230 C.3   118  G118        0.1773
   2537  O4'       39.2370   33.9660   18.9420 O.3   118  G118       -0.3307
   2538  C3'       38.3620   36.0830   18.5080 C.3   118  G118        0.1860
   2539  O3'       38.4650   37.4260   18.9000 O.3   118  G118       -0.3112
   2540  C2'       39.2860   35.7040   17.3540 C.3   118  G118        0.2309
   2541  O2'       40.5700   36.2850   17.4460 O.3   118  G118       -0.2156
   2542  C1'       39.3770   34.2020   17.5500 C.3   118  G118        0.2408
   2543  N1        37.7940   32.3070   13.0760 N.ar  118  G118       -0.1709
   2544  C2        38.9440   33.0230   13.3590 C.ar  118  G118        0.2606
   2545  N2        39.7780   33.2670   12.3310 N.pl3 118  G118       -0.0859
   2546  N3        39.2510   33.4700   14.5780 N.ar  118  G118       -0.1918
   2547  C4        38.3100   33.1410   15.5040 C.ar  118  G118        0.1723
   2548  C5        37.1430   32.4380   15.3130 C.ar  118  G118        0.1748
   2549  C6        36.8230   31.9630   14.0200 C.ar  118  G118        0.3023
   2550  O6        35.8230   31.3180   13.6770 O.2   118  G118       -0.2633
   2551  N7        36.4450   32.3110   16.5020 N.ar  118  G118       -0.2173
   2552  C8        37.1880   32.9270   17.3750 C.ar  118  G118        0.1817
   2553  N9        38.3370   33.4590   16.8420 N.ar  118  G118       -0.2693
   2554  OP1       35.2670   35.3130   22.0720 O.3   118  G118       -0.4373
   2555  OP2       34.2450   33.7600   20.2860 O.co2 118  G118       -0.5172
   2556  P         37.4290   38.4920   18.3030 P.3   119  U119        0.2141
   2557  C5'       38.8340   39.0950   16.1290 C.3   119  U119        0.1812
   2558  O5'       37.7120   38.4200   16.7210 O.3   119  U119       -0.3114
   2559  C4'       38.9050   38.8550   14.6310 C.3   119  U119        0.1773
   2560  O4'       38.9810   37.4380   14.3460 O.3   119  U119       -0.3307
   2561  C3'       37.6920   39.2900   13.8270 C.3   119  U119        0.1860
   2562  O3'       37.6760   40.6860   13.6370 O.3   119  U119       -0.3112
   2563  C2'       37.9500   38.5320   12.5340 C.3   119  U119        0.2309
   2564  O2'       39.0300   39.0260   11.7690 O.3   119  U119       -0.2156
   2565  C1'       38.3430   37.1830   13.1080 C.3   119  U119        0.2420
   2566  N1        37.1680   36.2700   13.2750 N.ar  119  U119       -0.2534
   2567  C2        36.7150   35.5910   12.1620 C.ar  119  U119        0.3546
   2568  O2        37.2280   35.6990   11.0570 O.2   119  U119       -0.2443
   2569  N3        35.6340   34.7710   12.3930 N.ar  119  U119       -0.1530
   2570  C4        34.9760   34.5690   13.5960 C.ar  119  U119        0.2846
   2571  O4        34.0260   33.7930   13.6460 O.2   119  U119       -0.2650
   2572  C5        35.5010   35.3180   14.7090 C.ar  119  U119        0.0814
   2573  C6        36.5530   36.1200   14.5080 C.ar  119  U119        0.0870
   2574  OP1       37.8360   39.8410   18.7850 O.3   119  U119       -0.4373
   2575  OP2       36.0460   38.0040   18.5410 O.co2 119  U119       -0.5172
   2576  P         36.2840   41.4490   13.4570 P.3   120  A120        0.2141
   2577  C5'       36.4370   41.5060   10.8270 C.3   120  A120        0.1812
   2578  O5'       35.7850   41.0130   11.9960 O.3   120  A120       -0.3114
   2579  C4'       35.9150   40.8230    9.5760 C.3   120  A120        0.1773
   2580  O4'       36.0890   39.3860    9.6820 O.3   120  A120       -0.3307
   2581  C3'       34.4230   40.9890    9.3210 C.3   120  A120        0.1860
   2582  O3'       34.0940   42.2270    8.7090 O.3   120  A120       -0.3112
   2583  C2'       34.1510   39.8100    8.3950 C.3   120  A120        0.2309
   2584  O2'       34.5460   40.0610    7.0580 O.3   120  A120       -0.2156
   2585  C1'       35.0050   38.7290    9.0480 C.3   120  A120        0.2408
   2586  N1        31.6820   34.8670    9.9470 N.ar  120  A120       -0.2040
   2587  C2        32.2280   35.3220    8.8080 C.ar  120  A120        0.2016
   2588  N3        33.0850   36.3400    8.6430 N.ar  120  A120       -0.2048
   2589  C4        33.3940   36.9270    9.8180 C.ar  120  A120        0.1692
   2590  C5        32.9110   36.5680   11.0640 C.ar  120  A120        0.1518
   2591  C6        32.0100   35.4820   11.1060 C.ar  120  A120        0.1919
   2592  N6        31.4740   35.0440   12.2420 N.pl3 120  A120       -0.1054
   2593  N7        33.4380   37.3810   12.0510 N.ar  120  A120       -0.2193
   2594  C8        34.2200   38.2050   11.3950 C.ar  120  A120        0.1816
   2595  N9        34.2450   37.9850   10.0450 N.ar  120  A120       -0.2693
   2596  OP1       36.5520   42.9110   13.4960 O.2   120  A120       -0.5172
   2597  OP2       35.3460   40.8290   14.4130 O.co2 120  A120       -0.4373
   2598  P         32.6830   42.9000    9.0660 P.3   121  U121        0.2141
   2599  C5'       31.8120   42.2050    6.6890 C.3   121  U121        0.1812
   2600  O5'       31.6430   42.1690    8.1000 O.3   121  U121       -0.3114
   2601  C4'       31.0390   41.0700    6.0530 C.3   121  U121        0.1773
   2602  O4'       31.4970   39.8010    6.5900 O.3   121  U121       -0.3307
   2603  C3'       29.5550   41.0750    6.3770 C.3   121  U121        0.1860
   2604  O3'       28.8410   41.9990    5.5760 O.3   121  U121       -0.3112
   2605  C2'       29.1990   39.6260    6.0780 C.3   121  U121        0.2309
   2606  O2'       29.1150   39.3570    4.6910 O.3   121  U121       -0.2156
   2607  C1'       30.3960   38.9180    6.7160 C.3   121  U121        0.2420
   2608  N1        30.1640   38.5570    8.1630 N.ar  121  U121       -0.2534
   2609  C2        29.4730   37.3900    8.4640 C.ar  121  U121        0.3546
   2610  O2        29.0420   36.6190    7.6180 O.2   121  U121       -0.2443
   2611  N3        29.3090   37.1460    9.8130 N.ar  121  U121       -0.1530
   2612  C4        29.7410   37.9320   10.8690 C.ar  121  U121        0.2846
   2613  O4        29.5120   37.5860   12.0230 O.2   121  U121       -0.2650
   2614  C5        30.4460   39.1290   10.4810 C.ar  121  U121        0.0814
   2615  C6        30.6240   39.3860    9.1760 C.ar  121  U121        0.0870
   2616  OP1       32.7740   44.3310    8.6910 O.2   121  U121       -0.5172
   2617  OP2       32.3120   42.5090   10.4440 O.co2 121  U121       -0.4373
   2618  P         27.6740   42.8660    6.2660 P.3   122  G122        0.2141
   2619  C5'       25.7760   41.3310    5.1950 C.3   122  G122        0.1812
   2620  O5'       26.4580   41.8240    6.3510 O.3   122  G122       -0.3114
   2621  C4'       25.0210   40.0640    5.5590 C.3   122  G122        0.1773
   2622  O4'       25.9380   39.1120    6.1630 O.3   122  G122       -0.3307
   2623  C3'       23.9340   40.2120    6.6200 C.3   122  G122        0.1860
   2624  O3'       22.7230   40.7120    6.0960 O.3   122  G122       -0.3112
   2625  C2'       23.7650   38.7590    7.0220 C.3   122  G122        0.2309
   2626  O2'       23.0230   38.0030    6.0830 O.3   122  G122       -0.2156
   2627  C1'       25.2210   38.2990    7.0770 C.3   122  G122        0.2408
   2628  N1        24.8300   36.2440   11.6680 N.ar  122  G122       -0.1709
   2629  C2        24.2240   35.9010   10.4760 C.ar  122  G122        0.2606
   2630  N2        23.3870   34.8540   10.4910 N.pl3 122  G122       -0.0859
   2631  N3        24.4310   36.5420    9.3330 N.ar  122  G122       -0.1918
   2632  C4        25.3040   37.5740    9.4730 C.ar  122  G122        0.1723
   2633  C5        25.9570   38.0060   10.6070 C.ar  122  G122        0.1748
   2634  C6        25.7260   37.3020   11.8260 C.ar  122  G122        0.3023
   2635  O6        26.1990   37.5080   12.9500 O.2   122  G122       -0.2633
   2636  N7        26.7590   39.1040   10.3100 N.ar  122  G122       -0.2173
   2637  C8        26.5740   39.3020    9.0310 C.ar  122  G122        0.1817
   2638  N9        25.7060   38.4040    8.4560 N.ar  122  G122       -0.2693
   2639  OP1       27.3120   43.9820    5.3510 O.2   122  G122       -0.5172
   2640  OP2       28.0750   43.1530    7.6670 O.co2 122  G122       -0.4373
   2641  P         21.6570   41.4240    7.0610 P.3   123  G123        0.2141
   2642  C5'       19.9220   39.4490    7.1720 C.3   123  G123        0.1812
   2643  O5'       20.9710   40.1830    7.7960 O.3   123  G123       -0.3114
   2644  C4'       19.3390   38.4210    8.1270 C.3   123  G123        0.1773
   2645  O4'       20.3730   37.4990    8.5700 O.3   123  G123       -0.3307
   2646  C3'       18.7650   38.9680    9.4270 C.3   123  G123        0.1860
   2647  O3'       17.4780   39.5220    9.2100 O.3   123  G123       -0.3112
   2648  C2'       18.7280   37.6730   10.2300 C.3   123  G123        0.2309
   2649  O2'       17.7100   36.7800    9.8220 O.3   123  G123       -0.2156
   2650  C1'       20.1080   37.1130    9.9030 C.3   123  G123        0.2408
   2651  N1        22.0070   37.0090   14.6120 N.ar  123  G123       -0.1709
   2652  C2        20.9780   36.2770   14.0640 C.ar  123  G123        0.2606
   2653  N2        20.3680   35.3940   14.8610 N.pl3 123  G123       -0.0859
   2654  N3        20.5750   36.3900   12.8070 N.ar  123  G123       -0.1918
   2655  C4        21.2910   37.3200   12.1230 C.ar  123  G123        0.1723
   2656  C5        22.3250   38.1000   12.5750 C.ar  123  G123        0.1748
   2657  C6        22.7500   37.9640   13.9170 C.ar  123  G123        0.3023
   2658  O6        23.6610   38.5840   14.4830 O.2   123  G123       -0.2633
   2659  N7        22.7910   38.9330   11.5710 N.ar  123  G123       -0.2173
   2660  C8        22.0460   38.6410   10.5440 C.ar  123  G123        0.1817
   2661  N9        21.1160   37.6670   10.8040 N.ar  123  G123       -0.2693
   2662  OP1       20.6730   42.1030    6.1850 O.2   123  G123       -0.5172
   2663  OP2       22.3610   42.1990    8.1110 O.co2 123  G123       -0.4373
   2664  P         16.7910   40.5150   10.2600 P.3   124  G124        0.2141
   2665  C5'       15.5320   38.7210   11.6710 C.3   124  G124        0.1812
   2666  O5'       16.6160   39.6420   11.5820 O.3   124  G124       -0.3114
   2667  C4'       15.5230   38.0520   13.0250 C.3   124  G124        0.1773
   2668  O4'       16.8360   37.5050   13.2880 O.3   124  G124       -0.3307
   2669  C3'       15.2930   38.9970   14.1880 C.3   124  G124        0.1860
   2670  O3'       13.9230   39.2240   14.3680 O.3   124  G124       -0.3112
   2671  C2'       15.8740   38.1840   15.3300 C.3   124  G124        0.2309
   2672  O2'       14.9880   37.1710   15.7510 O.3   124  G124       -0.2156
   2673  C1'       17.1150   37.5860   14.6700 C.3   124  G124        0.2408
   2674  N1        20.5880   39.0980   18.0560 N.ar  124  G124       -0.1709
   2675  C2        19.5430   38.2190   18.1940 C.ar  124  G124        0.2606
   2676  N2        19.3940   37.6480   19.3950 N.pl3 124  G124       -0.0859
   2677  N3        18.7030   37.9010   17.2190 N.ar  124  G124       -0.1918
   2678  C4        18.9840   38.5500   16.0640 C.ar  124  G124        0.1723
   2679  C5        19.9960   39.4460   15.8200 C.ar  124  G124        0.1748
   2680  C6        20.8890   39.7670   16.8740 C.ar  124  G124        0.3023
   2681  O6        21.8550   40.5400   16.8590 O.2   124  G124       -0.2633
   2682  N7        19.9460   39.8850   14.5050 N.ar  124  G124       -0.2173
   2683  C8        18.9200   39.2590   13.9940 C.ar  124  G124        0.1817
   2684  N9        18.2920   38.4230   14.8850 N.ar  124  G124       -0.2693
   2685  OP1       15.4640   40.8350    9.7050 O.2   124  G124       -0.5172
   2686  OP2       17.7120   41.6180   10.5870 O.co2 124  G124       -0.4373
   2687  P         13.4300   40.6930   14.7760 P.3   125  G125        0.2141
   2688  C5'       13.7640   40.5380   17.3830 C.3   125  G125        0.1812
   2689  O5'       14.2540   40.9770   16.1200 O.3   125  G125       -0.3114
   2690  C4'       14.6930   40.9650   18.4970 C.3   125  G125        0.1773
   2691  O4'       16.0320   40.4920   18.2150 O.3   125  G125       -0.3307
   2692  C3'       14.8590   42.4620   18.6150 C.3   125  G125        0.1860
   2693  O3'       13.7720   43.0140   19.3260 O.3   125  G125       -0.3112
   2694  C2'       16.1980   42.5590   19.3440 C.3   125  G125        0.2309
   2695  O2'       16.1380   42.3460   20.7390 O.3   125  G125       -0.2156
   2696  C1'       16.9790   41.4290   18.6870 C.3   125  G125        0.2408
   2697  N1        21.4190   43.4740   17.3600 N.ar  125  G125       -0.1709
   2698  C2        20.9830   43.0470   18.5930 C.ar  125  G125        0.2606
   2699  N2        21.8400   43.1870   19.6120 N.pl3 125  G125       -0.0859
   2700  N3        19.7860   42.5180   18.8140 N.ar  125  G125       -0.1918
   2701  C4        19.0460   42.4500   17.6820 C.ar  125  G125        0.1723
   2702  C5        19.3910   42.8400   16.4100 C.ar  125  G125        0.1748
   2703  C6        20.6680   43.4040   16.1890 C.ar  125  G125        0.3023
   2704  O6        21.1540   43.8030   15.1210 O.2   125  G125       -0.2633
   2705  N7        18.3560   42.6000   15.5240 N.ar  125  G125       -0.2173
   2706  C8        17.4260   42.0740   16.2690 C.ar  125  G125        0.1817
   2707  N9        17.7780   41.9480   17.5870 N.ar  125  G125       -0.2693
   2708  OP1       11.9870   40.6100   15.1260 O.3   125  G125       -0.4373
   2709  OP2       13.8630   41.6560   13.7300 O.co2 125  G125       -0.5172
   2710  P         12.9220   44.2090   18.6760 P.3   126  A126        0.2141
   2711  C5'       13.6390   46.6720   18.2060 C.3   126  A126        0.1812
   2712  O5'       14.0260   45.3260   18.3640 O.3   126  A126       -0.3114
   2713  C4'       14.5630   47.6220   18.9450 C.3   126  A126        0.1773
   2714  O4'       14.2140   47.6480   20.3460 O.3   126  A126       -0.3307
   2715  C3'       16.0430   47.2700   18.9790 C.3   126  A126        0.1860
   2716  O3'       16.6960   47.5910   17.7510 O.3   126  A126       -0.3112
   2717  C2'       16.5220   48.1530   20.1250 C.3   126  A126        0.2309
   2718  O2'       16.6110   49.5120   19.7660 O.3   126  A126       -0.2156
   2719  C1'       15.3690   47.9810   21.1010 C.3   126  A126        0.2408
   2720  N1        17.9190   46.5770   25.3880 N.ar  126  A126       -0.2040
   2721  C2        18.1130   47.6050   24.5580 C.ar  126  A126        0.2016
   2722  N3        17.4230   47.9130   23.4620 N.ar  126  A126       -0.2048
   2723  C4        16.4380   47.0220   23.2280 C.ar  126  A126        0.1692
   2724  C5        16.1300   45.9180   23.9970 C.ar  126  A126        0.1518
   2725  C6        16.9200   45.7040   25.1300 C.ar  126  A126        0.1919
   2726  N6        16.7100   44.6630   25.9380 N.pl3 126  A126       -0.1054
   2727  N7        15.0650   45.2140   23.4810 N.ar  126  A126       -0.2193
   2728  C8        14.7430   45.9040   22.4160 C.ar  126  A126        0.1816
   2729  N9        15.5260   47.0040   22.1910 N.ar  126  A126       -0.2693
   2730  OP1       12.0310   44.7480   19.7260 O.3   126  A126       -0.4373
   2731  OP2       12.3540   43.7280   17.4000 O.co2 126  A126       -0.5172
   2732  P         17.7650   46.5650   17.1300 P.3   127  A127        0.2141
   2733  C5'       19.5400   47.9880   18.4340 C.3   127  A127        0.1812
   2734  O5'       18.9720   46.6990   18.1700 O.3   127  A127       -0.3114
   2735  C4'       20.5410   47.9170   19.5700 C.3   127  A127        0.1773
   2736  O4'       19.8810   47.6500   20.8330 O.3   127  A127       -0.3307
   2737  C3'       21.5700   46.8150   19.4010 C.3   127  A127        0.1860
   2738  O3'       22.6190   47.3520   18.5860 O.3   127  A127       -0.3112
   2739  C2'       21.9480   46.5170   20.8510 C.3   127  A127        0.2309
   2740  O2'       22.8600   47.4550   21.3770 O.3   127  A127       -0.2156
   2741  C1'       20.6400   46.7290   21.5980 C.3   127  A127        0.2408
   2742  N1        19.0860   43.2440   25.0940 N.ar  127  A127       -0.2040
   2743  C2        20.0000   44.2220   25.1630 C.ar  127  A127        0.2016
   2744  N3        20.3580   45.0840   24.2170 N.ar  127  A127       -0.2048
   2745  C4        19.6760   44.8780   23.0800 C.ar  127  A127        0.1692
   2746  C5        18.7130   43.9090   22.8640 C.ar  127  A127        0.1518
   2747  C6        18.4130   43.0570   23.9410 C.ar  127  A127        0.1919
   2748  N6        17.5070   42.0760   23.8710 N.pl3 127  A127       -0.1054
   2749  N7        18.2150   43.9780   21.5800 N.ar  127  A127       -0.2193
   2750  C8        18.8790   44.9800   21.0530 C.ar  127  A127        0.1816
   2751  N9        19.7860   45.5700   21.8920 N.ar  127  A127       -0.2693
   2752  OP1       18.2590   47.0820   15.8340 O.2   127  A127       -0.5172
   2753  OP2       17.1740   45.2120   17.1790 O.co2 127  A127       -0.4373
   2754  P         23.9140   46.5210   18.1350 P.3   128  U128        0.2141
   2755  C5'       26.2030   46.3700   19.4400 C.3   128  U128        0.1812
   2756  O5'       24.8260   46.6840   19.4340 O.3   128  U128       -0.3114
   2757  C4'       26.7260   46.3820   20.8650 C.3   128  U128        0.1773
   2758  O4'       26.0670   47.3920   21.6670 O.3   128  U128       -0.3307
   2759  C3'       26.4650   45.1170   21.6570 C.3   128  U128        0.1860
   2760  O3'       27.3960   44.1450   21.2480 O.3   128  U128       -0.3112
   2761  C2'       26.7220   45.6120   23.0830 C.3   128  U128        0.2309
   2762  O2'       28.0900   45.5990   23.4490 O.3   128  U128       -0.2156
   2763  C1'       26.2360   47.0630   23.0380 C.3   128  U128        0.2420
   2764  N1        24.9620   47.4110   23.7950 N.ar  128  U128       -0.2534
   2765  C2        23.8840   46.5380   23.8860 C.ar  128  U128        0.3546
   2766  O2        23.8520   45.4300   23.3880 O.2   128  U128       -0.2443
   2767  N3        22.8030   47.0080   24.5940 N.ar  128  U128       -0.1530
   2768  C4        22.6770   48.2360   25.2140 C.ar  128  U128        0.2846
   2769  O4        21.6400   48.5040   25.8120 O.2   128  U128       -0.2650
   2770  C5        23.8290   49.1010   25.0800 C.ar  128  U128        0.0814
   2771  C6        24.9010   48.6640   24.3940 C.ar  128  U128        0.0870
   2772  OP1       24.5470   47.2730   17.0240 O.2   128  U128       -0.5172
   2773  OP2       23.5600   45.0910   17.9980 O.co2 128  U128       -0.4373
   2774  P         26.9650   42.6370   20.9410 P.3   129  A129        0.2141
   2775  C5'       27.3730   42.2970   23.5470 C.3   129  A129        0.1812
   2776  O5'       26.5400   42.0750   22.3850 O.3   129  A129       -0.3114
   2777  C4'       26.6130   42.1490   24.8560 C.3   129  A129        0.1773
   2778  O4'       25.4570   43.0380   24.9220 O.3   129  A129       -0.3307
   2779  C3'       26.0600   40.7470   25.0480 C.3   129  A129        0.1860
   2780  O3'       27.0240   39.8420   25.6070 O.3   129  A129       -0.3112
   2781  C2'       24.8560   40.9930   25.9510 C.3   129  A129        0.2309
   2782  O2'       25.1930   40.9800   27.3250 O.3   129  A129       -0.2156
   2783  C1'       24.3290   42.3510   25.4470 C.3   129  A129        0.2408
   2784  N1        19.7830   40.1830   24.2250 N.ar  129  A129       -0.2040
   2785  C2        20.4630   40.2530   25.3760 C.ar  129  A129        0.2016
   2786  N3        21.6340   40.8410   25.6300 N.ar  129  A129       -0.2048
   2787  C4        22.1390   41.4180   24.5200 C.ar  129  A129        0.1692
   2788  C5        21.5510   41.4290   23.2620 C.ar  129  A129        0.1518
   2789  C6        20.3030   40.7640   23.1270 C.ar  129  A129        0.1919
   2790  N6        19.5960   40.6820   21.9930 N.pl3 129  A129       -0.1054
   2791  N7        22.3520   42.1190   22.3700 N.ar  129  A129       -0.2193
   2792  C8        23.3820   42.4940   23.0890 C.ar  129  A129        0.1816
   2793  N9        23.3250   42.1180   24.4000 N.ar  129  A129       -0.2693
   2794  OP1       28.1940   41.9350   20.4940 O.3   129  A129       -0.4373
   2795  OP2       25.7650   42.6510   20.0690 O.co2 129  A129       -0.5172
   2796  P         27.3320   38.4560   24.8490 P.3   130  C130        0.2141
   2797  C5'       25.3100   37.2250   25.8580 C.3   130  C130        0.1812
   2798  O5'       25.9320   37.7310   24.6840 O.3   130  C130       -0.3114
   2799  C4'       24.0130   36.5510   25.4910 C.3   130  C130        0.1773
   2800  O4'       23.0920   37.6100   25.1360 O.3   130  C130       -0.3307
   2801  C3'       24.1260   35.6980   24.2400 C.3   130  C130        0.1860
   2802  O3'       24.5390   34.3820   24.5480 O.3   130  C130       -0.3112
   2803  C2'       22.7060   35.7870   23.7050 C.3   130  C130        0.2309
   2804  O2'       21.8110   34.9310   24.3850 O.3   130  C130       -0.2156
   2805  C1'       22.3940   37.2620   23.9560 C.3   130  C130        0.2420
   2806  N1        22.7730   38.1240   22.7630 N.ar  130  C130       -0.2535
   2807  C2        21.9140   38.1320   21.6510 C.ar  130  C130        0.3532
   2808  O2        20.8760   37.4520   21.6840 O.2   130  C130       -0.2443
   2809  N3        22.2330   38.8770   20.5610 N.ar  130  C130       -0.1739
   2810  C4        23.3550   39.5870   20.5490 C.ar  130  C130        0.1759
   2811  N4        23.6100   40.3030   19.4550 N.pl3 130  C130       -0.1070
   2812  C5        24.2490   39.5960   21.6590 C.ar  130  C130        0.0566
   2813  C6        23.9220   38.8610   22.7300 C.ar  130  C130        0.0850
   2814  OP1       28.0960   37.5710   25.7550 O.3   130  C130       -0.4373
   2815  OP2       27.8550   38.7780   23.5020 O.co2 130  C130       -0.5172
   2816  P         25.1200   33.4110   23.4040 P.3   131  C131        0.2141
   2817  C5'       22.7980   32.4370   22.6880 C.3   131  C131        0.1812
   2818  O5'       23.8930   33.2720   22.3860 O.3   131  C131       -0.3114
   2819  C4'       21.7730   32.5100   21.5820 C.3   131  C131        0.1773
   2820  O4'       21.5090   33.8920   21.2510 O.3   131  C131       -0.3307
   2821  C3'       22.2380   31.9580   20.2560 C.3   131  C131        0.1860
   2822  O3'       22.2000   30.5560   20.2570 O.3   131  C131       -0.3112
   2823  C2'       21.2260   32.5820   19.3060 C.3   131  C131        0.2309
   2824  O2'       19.9570   31.9660   19.3440 O.3   131  C131       -0.2156
   2825  C1'       21.0950   33.9720   19.9020 C.3   131  C131        0.2420
   2826  N1        21.8970   34.9980   19.1980 N.ar  131  C131       -0.2535
   2827  C2        21.4370   35.4860   17.9660 C.ar  131  C131        0.3532
   2828  O2        20.3800   35.0470   17.4960 O.2   131  C131       -0.2443
   2829  N3        22.1640   36.4360   17.3210 N.ar  131  C131       -0.1739
   2830  C4        23.2980   36.8870   17.8680 C.ar  131  C131        0.1759
   2831  N4        23.9700   37.8280   17.2000 N.pl3 131  C131       -0.1070
   2832  C5        23.7910   36.4020   19.1220 C.ar  131  C131        0.0566
   2833  C6        23.0620   35.4700   19.7460 C.ar  131  C131        0.0850
   2834  OP1       25.3450   32.0660   24.0000 O.3   131  C131       -0.4373
   2835  OP2       26.2220   34.1060   22.7050 O.co2 131  C131       -0.5172
   2836  P         23.3540   29.8240   19.4270 P.3   132  C132        0.2141
   2837  C5'       21.6870   29.4930   17.4050 C.3   132  C132        0.1812
   2838  O5'       22.8330   30.1360   17.9460 O.3   132  C132       -0.3114
   2839  C4'       21.4710   29.9990   15.9990 C.3   132  C132        0.1773
   2840  O4'       21.3750   31.4400   16.0290 O.3   132  C132       -0.3307
   2841  C3'       22.6360   29.8010   15.0520 C.3   132  C132        0.1860
   2842  O3'       22.7260   28.4760   14.5860 O.3   132  C132       -0.3112
   2843  C2'       22.2540   30.7730   13.9500 C.3   132  C132        0.2309
   2844  O2'       21.1660   30.3350   13.1660 O.3   132  C132       -0.2156
   2845  C1'       21.8150   31.9600   14.7850 C.3   132  C132        0.2420
   2846  N1        22.9210   32.9490   14.9520 N.ar  132  C132       -0.2535
   2847  C2        23.1990   33.8310   13.8990 C.ar  132  C132        0.3532
   2848  O2        22.5130   33.7700   12.8690 O.2   132  C132       -0.2443
   2849  N3        24.2060   34.7330   14.0430 N.ar  132  C132       -0.1739
   2850  C4        24.9160   34.7660   15.1720 C.ar  132  C132        0.1759
   2851  N4        25.8960   35.6650   15.2790 N.pl3 132  C132       -0.1070
   2852  C5        24.6530   33.8730   16.2510 C.ar  132  C132        0.0566
   2853  C6        23.6580   32.9900   16.1010 C.ar  132  C132        0.0850
   2854  OP1       23.3400   28.3480   19.6630 O.3   132  C132       -0.4373
   2855  OP2       24.6060   30.6060   19.6140 O.co2 132  C132       -0.5172
   2856  P         24.1490   27.9750   14.0880 P.3   133  A133        0.2141
   2857  C5'       23.3090   28.0830   11.6610 C.3   133  A133        0.1812
   2858  O5'       24.2240   28.5570   12.6100 O.3   133  A133       -0.3114
   2859  C4'       23.5200   28.7950   10.3490 C.3   133  A133        0.1773
   2860  O4'       23.3660   30.2220   10.5300 O.3   133  A133       -0.3307
   2861  C3'       24.9090   28.6230    9.7690 C.3   133  A133        0.1860
   2862  O3'       24.9370   27.4220    9.0380 O.3   133  A133       -0.3112
   2863  C2'       25.0060   29.8560    8.8810 C.3   133  A133        0.2309
   2864  O2'       24.2520   29.7410    7.6940 O.3   133  A133       -0.2156
   2865  C1'       24.3400   30.8960    9.7640 C.3   133  A133        0.2408
   2866  N1        27.6350   34.7860   10.2730 N.ar  133  A133       -0.2040
   2867  C2        26.9240   34.3470    9.2230 C.ar  133  A133        0.2016
   2868  N3        26.0810   33.3190    9.1610 N.ar  133  A133       -0.2048
   2869  C4        26.0020   32.6990   10.3550 C.ar  133  A133        0.1692
   2870  C5        26.6720   33.0290   11.5210 C.ar  133  A133        0.1518
   2871  C6        27.5320   34.1400   11.4550 C.ar  133  A133        0.1919
   2872  N6        28.2420   34.5750   12.4960 N.pl3 133  A133       -0.1054
   2873  N7        26.3410   32.1660   12.5490 N.ar  133  A133       -0.2193
   2874  C8        25.4880   31.3410   11.9910 C.ar  133  A133        0.1816
   2875  N9        25.2400   31.6020   10.6710 N.ar  133  A133       -0.2693
   2876  OP1       24.1160   26.4980   14.0390 O.2   133  A133       -0.5172
   2877  OP2       25.1880   28.6610   14.8840 O.co2 133  A133       -0.4373
   2878  P         26.3030   26.6320    8.8330 P.3   134  U134        0.2141
   2879  C5'       27.0580   27.5710    6.5220 C.3   134  U134        0.1812
   2880  O5'       27.1920   27.6130    7.9360 O.3   134  U134       -0.3114
   2881  C4'       27.8140   28.7050    5.8590 C.3   134  U134        0.1773
   2882  O4'       27.5070   29.9770    6.4970 O.3   134  U134       -0.3307
   2883  C3'       29.3250   28.6070    5.9720 C.3   134  U134        0.1860
   2884  O3'       29.8410   27.7330    5.0040 O.3   134  U134       -0.3112
   2885  C2'       29.7460   30.0530    5.7210 C.3   134  U134        0.2309
   2886  O2'       29.7900   30.3930    4.3450 O.3   134  U134       -0.2156
   2887  C1'       28.6520   30.8280    6.4630 C.3   134  U134        0.2420
   2888  N1        29.0660   31.2200    7.8670 N.ar  134  U134       -0.2534
   2889  C2        29.8450   32.3480    8.0830 C.ar  134  U134        0.3546
   2890  O2        30.2390   33.0880    7.1930 O.2   134  U134       -0.2443
   2891  N3        30.1570   32.5850    9.4060 N.ar  134  U134       -0.1530
   2892  C4        29.7820   31.8250   10.5020 C.ar  134  U134        0.2846
   2893  O4        30.1300   32.1480   11.6240 O.2   134  U134       -0.2650
   2894  C5        28.9820   30.6720   10.2050 C.ar  134  U134        0.0814
   2895  C6        28.6650   30.4250    8.9300 C.ar  134  U134        0.0870
   2896  OP1       25.9720   25.4200    8.0430 O.2   134  U134       -0.5172
   2897  OP2       26.9820   26.5170   10.1400 O.co2 134  U134       -0.4373
   2898  P         31.1530   26.9120    5.3990 P.3   135  A135        0.2141
   2899  C5'       32.5710   28.5440    3.8780 C.3   135  A135        0.1812
   2900  O5'       32.3200   27.9860    5.1710 O.3   135  A135       -0.3114
   2901  C4'       33.4820   29.7590    3.9510 C.3   135  A135        0.1773
   2902  O4'       32.8570   30.8220    4.7110 O.3   135  A135       -0.3307
   2903  C3'       34.8020   29.5340    4.6720 C.3   135  A135        0.1860
   2904  O3'       35.7400   28.8700    3.8310 O.3   135  A135       -0.3112
   2905  C2'       35.1920   30.9650    5.0270 C.3   135  A135        0.2309
   2906  O2'       35.6880   31.7140    3.9370 O.3   135  A135       -0.2156
   2907  C1'       33.8400   31.5080    5.4640 C.3   135  A135        0.2408
   2908  N1        34.8300   33.2940   10.1980 N.ar  135  A135       -0.2040
   2909  C2        35.2290   33.6950    8.9860 C.ar  135  A135        0.2016
   2910  N3        34.9280   33.1780    7.7950 N.ar  135  A135       -0.2048
   2911  C4        34.1130   32.1130    7.9150 C.ar  135  A135        0.1692
   2912  C5        33.6160   31.5780    9.0970 C.ar  135  A135        0.1518
   2913  C6        34.0110   32.2240   10.2940 C.ar  135  A135        0.1919
   2914  N6        33.6210   31.8310   11.5080 N.pl3 135  A135       -0.1054
   2915  N7        32.8040   30.4800    8.8360 N.ar  135  A135       -0.2193
   2916  C8        32.8300   30.3820    7.5220 C.ar  135  A135        0.1816
   2917  N9        33.5980   31.3330    6.8980 N.ar  135  A135       -0.2693
   2918  OP1       31.3140   25.8070    4.4260 O.2   135  A135       -0.5172
   2919  OP2       31.0800   26.6210    6.8530 O.co2 135  A135       -0.4373
   2920  P         36.7550   27.7860    4.4430 P.3   136  C136        0.2141
   2921  C5'       38.6360   29.6080    4.3280 C.3   136  C136        0.1812
   2922  O5'       37.8310   28.7460    5.1400 O.3   136  C136       -0.3114
   2923  C4'       39.3630   30.6380    5.1710 C.3   136  C136        0.1773
   2924  O4'       38.4040   31.4510    5.8960 O.3   136  C136       -0.3307
   2925  C3'       40.2520   30.0690    6.2670 C.3   136  C136        0.1860
   2926  O3'       41.4990   29.6330    5.7370 O.3   136  C136       -0.3112
   2927  C2'       40.3490   31.2680    7.2060 C.3   136  C136        0.2309
   2928  O2'       41.2040   32.2860    6.7240 O.3   136  C136       -0.2156
   2929  C1'       38.9000   31.7500    7.1910 C.3   136  C136        0.2420
   2930  N1        38.0320   31.1270    8.2660 N.ar  136  C136       -0.2535
   2931  C2        38.0370   31.6590    9.5700 C.ar  136  C136        0.3532
   2932  O2        38.7430   32.6370    9.8400 O.2   136  C136       -0.2443
   2933  N3        37.2550   31.0840   10.5230 N.ar  136  C136       -0.1739
   2934  C4        36.4970   30.0300   10.2250 C.ar  136  C136        0.1759
   2935  N4        35.7540   29.5120   11.2000 N.pl3 136  C136       -0.1070
   2936  C5        36.4650   29.4660    8.9150 C.ar  136  C136        0.0566
   2937  C6        37.2390   30.0420    7.9840 C.ar  136  C136        0.0850
   2938  OP1       37.4060   27.0880    3.3100 O.2   136  C136       -0.5172
   2939  OP2       36.0630   26.9770    5.4760 O.co2 136  C136       -0.4373
   2940  P         42.2430   28.3460    6.3330 P.3   137  C137        0.2141
   2941  C5'       43.7010   29.8560    7.9470 C.3   137  C137        0.1812
   2942  O5'       42.6810   28.8540    7.7870 O.3   137  C137       -0.3114
   2943  C4'       43.7750   30.3810    9.3740 C.3   137  C137        0.1773
   2944  O4'       42.4810   30.8910    9.7790 O.3   137  C137       -0.3307
   2945  C3'       44.0500   29.3590   10.4610 C.3   137  C137        0.1860
   2946  O3'       45.4100   29.0020   10.5080 O.3   137  C137       -0.3112
   2947  C2'       43.6080   30.1360   11.6890 C.3   137  C137        0.2309
   2948  O2'       44.4810   31.1920   12.0200 O.3   137  C137       -0.2156
   2949  C1'       42.2970   30.7060   11.1750 C.3   137  C137        0.2420
   2950  N1        41.1090   29.8210   11.4610 N.ar  137  C137       -0.2535
   2951  C2        40.5490   29.8020   12.7550 C.ar  137  C137        0.3532
   2952  O2        41.0270   30.5130   13.6500 O.2   137  C137       -0.2443
   2953  N3        39.4810   28.9990   13.0030 N.ar  137  C137       -0.1739
   2954  C4        38.9700   28.2450   12.0300 C.ar  137  C137        0.1759
   2955  N4        37.9220   27.4780   12.3310 N.pl3 137  C137       -0.1070
   2956  C5        39.5180   28.2410   10.7110 C.ar  137  C137        0.0566
   2957  C6        40.5720   29.0350   10.4730 C.ar  137  C137        0.0850
   2958  OP1       43.4430   28.1510    5.4970 O.2   137  C137       -0.5172
   2959  OP2       41.2910   27.2240    6.5110 O.co2 137  C137       -0.4373
   2960  P         45.8400   27.5840    9.9210 P.3   138  A138        0.2141
   2961  C5'       46.6350   26.2590   12.0300 C.3   138  A138        0.1812
   2962  O5'       46.9620   27.1180   10.9490 O.3   138  A138       -0.3114
   2963  C4'       46.7010   27.0440   13.3210 C.3   138  A138        0.1773
   2964  O4'       45.7040   28.1000   13.2860 O.3   138  A138       -0.3307
   2965  C3'       46.3740   26.2350   14.5630 C.3   138  A138        0.1860
   2966  O3'       47.5500   25.7110   15.1170 O.3   138  A138       -0.3112
   2967  C2'       45.7810   27.2900   15.4820 C.3   138  A138        0.2309
   2968  O2'       46.7800   28.0690   16.1090 O.3   138  A138       -0.2156
   2969  C1'       44.9500   28.0970   14.4880 C.3   138  A138        0.2408
   2970  N1        40.3810   26.9040   16.5780 N.ar  138  A138       -0.2040
   2971  C2        41.4680   27.5180   17.0720 C.ar  138  A138        0.2016
   2972  N3        42.6290   27.8000   16.4660 N.ar  138  A138       -0.2048
   2973  C4        42.6240   27.3720   15.1890 C.ar  138  A138        0.1692
   2974  C5        41.5890   26.7240   14.5360 C.ar  138  A138        0.1518
   2975  C6        40.4160   26.4860   15.2920 C.ar  138  A138        0.1919
   2976  N6        39.3400   25.8720   14.7950 N.pl3 138  A138       -0.1054
   2977  N7        41.9350   26.4370   13.2240 N.ar  138  A138       -0.2193
   2978  C8        43.1530   26.9100   13.1180 C.ar  138  A138        0.1816
   2979  N9        43.6330   27.4910   14.2640 N.ar  138  A138       -0.2693
   2980  OP1       46.4460   27.8100    8.5940 O.2   138  A138       -0.5172
   2981  OP2       44.7000   26.6520   10.0530 O.co2 138  A138       -0.4373
   2982  P         47.5400   24.2540   15.7620 P.3   139  C139        0.2141
   2983  C5'       46.8270   25.1130   18.1310 C.3   139  C139        0.1812
   2984  O5'       46.5040   24.3630   16.9700 O.3   139  C139       -0.3114
   2985  C4'       45.6840   25.0550   19.1250 C.3   139  C139        0.1773
   2986  O4'       44.4870   25.6270   18.5410 O.3   139  C139       -0.3307
   2987  C3'       45.2580   23.6560   19.5220 C.3   139  C139        0.1860
   2988  O3'       46.1380   23.1300   20.4970 O.3   139  C139       -0.3112
   2989  C2'       43.8630   23.9400   20.0650 C.3   139  C139        0.2309
   2990  O2'       43.8670   24.4580   21.3770 O.3   139  C139       -0.2156
   2991  C1'       43.3440   24.9800   19.0710 C.3   139  C139        0.2420
   2992  N1        42.5250   24.3250   17.9810 N.ar  139  C139       -0.2535
   2993  C2        41.1920   23.9600   18.2410 C.ar  139  C139        0.3532
   2994  O2        40.7100   24.2080   19.3560 O.2   139  C139       -0.2443
   2995  N3        40.4680   23.3500   17.2560 N.ar  139  C139       -0.1739
   2996  C4        41.0250   23.0970   16.0620 C.ar  139  C139        0.1759
   2997  N4        40.2870   22.4960   15.1270 N.pl3 139  C139       -0.1070
   2998  C5        42.3770   23.4510   15.7720 C.ar  139  C139        0.0566
   2999  C6        43.0760   24.0520   16.7500 C.ar  139  C139        0.0850
   3000  OP1       48.8860   24.0660   16.3300 O.3   139  C139       -0.4373
   3001  OP2       46.9910   23.2950   14.7760 O.co2 139  C139       -0.5172
   3002  P         46.5270   21.5800   20.4380 P.3   140  U140        0.2141
   3003  C5'       44.7060   20.9690   22.1970 C.3   140  U140        0.1812
   3004  O5'       45.1520   20.8680   20.8450 O.3   140  U140       -0.3114
   3005  C4'       43.2510   20.5950   22.3490 C.3   140  U140        0.1773
   3006  O4'       42.4780   21.3260   21.3770 O.3   140  U140       -0.3307
   3007  C3'       42.9540   19.1690   21.9800 C.3   140  U140        0.1860
   3008  O3'       43.3410   18.2990   23.0360 O.3   140  U140       -0.3112
   3009  C2'       41.4530   19.2610   21.7430 C.3   140  U140        0.2309
   3010  O2'       40.7180   19.3470   22.9410 O.3   140  U140       -0.2156
   3011  C1'       41.3690   20.5670   20.9540 C.3   140  U140        0.2420
   3012  N1        41.4640   20.3400   19.4710 N.ar  140  U140       -0.2534
   3013  C2        40.4190   19.7130   18.8040 C.ar  140  U140        0.3546
   3014  O2        39.3900   19.3400   19.3370 O.2   140  U140       -0.2443
   3015  N3        40.6210   19.5340   17.4580 N.ar  140  U140       -0.1530
   3016  C4        41.7360   19.9020   16.7240 C.ar  140  U140        0.2846
   3017  O4        41.7670   19.6650   15.5220 O.2   140  U140       -0.2650
   3018  C5        42.7830   20.5430   17.4790 C.ar  140  U140        0.0814
   3019  C6        42.6090   20.7330   18.7930 C.ar  140  U140        0.0870
   3020  OP1       47.5300   21.3000   21.4850 O.3   140  U140       -0.4373
   3021  OP2       46.8080   21.2100   19.0330 O.co2 140  U140       -0.5172
   3022  P         44.1010   16.9290   22.7120 P.3   141  G141        0.2141
   3023  C5'       42.0640   15.6040   23.5700 C.3   141  G141        0.1812
   3024  O5'       42.8890   15.9330   22.4680 O.3   141  G141       -0.3114
   3025  C4'       40.7750   14.9920   23.0860 C.3   141  G141        0.1773
   3026  O4'       40.0670   15.9610   22.2700 O.3   141  G141       -0.3307
   3027  C3'       40.9400   13.7900   22.1720 C.3   141  G141        0.1860
   3028  O3'       41.2470   12.6090   22.9110 O.3   141  G141       -0.3112
   3029  C2'       39.5570   13.7790   21.5370 C.3   141  G141        0.2309
   3030  O2'       38.5610   13.3480   22.4330 O.3   141  G141       -0.2156
   3031  C1'       39.3650   15.2680   21.2480 C.3   141  G141        0.2408
   3032  N1        38.4370   15.1980   16.2200 N.ar  141  G141       -0.1709
   3033  C2        37.6770   14.7170   17.2550 C.ar  141  G141        0.2606
   3034  N2        36.5190   14.1310   16.9210 N.pl3 141  G141       -0.0859
   3035  N3        38.0270   14.7980   18.5320 N.ar  141  G141       -0.1918
   3036  C4        39.2230   15.4090   18.7040 C.ar  141  G141        0.1723
   3037  C5        40.0490   15.9230   17.7350 C.ar  141  G141        0.1748
   3038  C6        39.6610   15.8210   16.3770 C.ar  141  G141        0.3023
   3039  O6        40.2590   16.2070   15.3710 O.2   141  G141       -0.2633
   3040  N7        41.1860   16.4720   18.3110 N.ar  141  G141       -0.2173
   3041  C8        41.0270   16.2860   19.5920 C.ar  141  G141        0.1817
   3042  N9        39.8520   15.6450   19.9120 N.ar  141  G141       -0.2693
   3043  OP1       44.8180   16.5380   23.9370 O.3   141  G141       -0.4373
   3044  OP2       44.8300   17.0550   21.4390 O.co2 141  G141       -0.5172
   3045  P         42.2380   11.4940   22.3080 P.3   142  U142        0.2141
   3046  C5'       40.2370   10.0410   21.3970 C.3   142  U142        0.1812
   3047  O5'       41.3870   10.8260   21.1390 O.3   142  U142       -0.3114
   3048  C4'       39.5540    9.7470   20.0820 C.3   142  U142        0.1773
   3049  O4'       39.2920   11.0000   19.4290 O.3   142  U142       -0.3307
   3050  C3'       40.4120    9.0440   19.0550 C.3   142  U142        0.1860
   3051  O3'       40.4350    7.6510   19.2930 O.3   142  U142       -0.3112
   3052  C2'       39.6870    9.3960   17.7640 C.3   142  U142        0.2309
   3053  O2'       38.4950    8.6640   17.5500 O.3   142  U142       -0.2156
   3054  C1'       39.3510   10.8450   18.0240 C.3   142  U142        0.2420
   3055  N1        40.3180   11.8200   17.4140 N.ar  142  U142       -0.2534
   3056  C2        40.2650   12.0440   16.0480 C.ar  142  U142        0.3546
   3057  O2        39.4860   11.4770   15.3070 O.2   142  U142       -0.2443
   3058  N3        41.1700   12.9660   15.5680 N.ar  142  U142       -0.1530
   3059  C4        42.1130   13.6700   16.2940 C.ar  142  U142        0.2846
   3060  O4        42.8610   14.4550   15.7130 O.2   142  U142       -0.2650
   3061  C5        42.1090   13.3890   17.7100 C.ar  142  U142        0.0814
   3062  C6        41.2300   12.5040   18.2060 C.ar  142  U142        0.0870
   3063  OP1       42.4850   10.4770   23.3510 O.3   142  U142       -0.4373
   3064  OP2       43.3760   12.1680   21.6560 O.co2 142  U142       -0.5172
   3065  P         41.8140    6.8630   19.4410 P.3   143  C143        0.2141
   3066  C5'       41.1140    5.1550   17.5770 C.3   143  C143        0.1812
   3067  O5'       41.9840    6.1750   18.0150 O.3   143  C143       -0.3114
   3068  C4'       40.7510    5.3570   16.1180 C.3   143  C143        0.1773
   3069  O4'       40.3850    6.7340   15.9380 O.3   143  C143       -0.3307
   3070  C3'       41.8710    5.1830   15.1120 C.3   143  C143        0.1860
   3071  O3'       42.0390    3.8340   14.7780 O.3   143  C143       -0.3112
   3072  C2'       41.3780    5.9980   13.9250 C.3   143  C143        0.2309
   3073  O2'       40.4060    5.3640   13.1280 O.3   143  C143       -0.2156
   3074  C1'       40.7240    7.1630   14.6360 C.3   143  C143        0.2420
   3075  N1        41.6040    8.3590   14.7000 N.ar  143  C143       -0.2535
   3076  C2        41.6740    9.2030   13.5850 C.ar  143  C143        0.3532
   3077  O2        41.0150    8.9420   12.5700 O.2   143  C143       -0.2443
   3078  N3        42.4740   10.2960   13.6450 N.ar  143  C143       -0.1739
   3079  C4        43.1830   10.5570   14.7430 C.ar  143  C143        0.1759
   3080  N4        43.9550   11.6510   14.7390 N.pl3 143  C143       -0.1070
   3081  C5        43.1220    9.7090   15.8900 C.ar  143  C143        0.0566
   3082  C6        42.3310    8.6320   15.8230 C.ar  143  C143        0.0850
   3083  OP1       41.5790    5.8580   20.4930 O.3   143  C143       -0.4373
   3084  OP2       42.9320    7.8170   19.5660 O.co2 143  C143       -0.5172
   3085  P         43.5020    3.3330   14.3810 P.3   144  A144        0.2141
   3086  C5'       42.7950    3.3010   11.8390 C.3   144  A144        0.1812
   3087  O5'       43.6360    3.8290   12.8630 O.3   144  A144       -0.3114
   3088  C4'       43.0050    4.0150   10.5230 C.3   144  A144        0.1773
   3089  O4'       42.6010    5.3890   10.6760 O.3   144  A144       -0.3307
   3090  C3'       44.4480    4.1390   10.0890 C.3   144  A144        0.1860
   3091  O3'       44.8810    2.9670    9.4600 O.3   144  A144       -0.3112
   3092  C2'       44.3840    5.3200    9.1320 C.3   144  A144        0.2309
   3093  O2'       43.8590    4.9940    7.8650 O.3   144  A144       -0.2156
   3094  C1'       43.4180    6.2240    9.8780 C.3   144  A144        0.2408
   3095  N1        45.9690   10.6740   10.2250 N.ar  144  A144       -0.2040
   3096  C2        45.4840   10.0120    9.1670 C.ar  144  A144        0.2016
   3097  N3        44.8300    8.8550    9.1410 N.ar  144  A144       -0.2048
   3098  C4        44.6920    8.3610   10.3830 C.ar  144  A144        0.1692
   3099  C5        45.1430    8.9280   11.5630 C.ar  144  A144        0.1518
   3100  C6        45.8160   10.1530   11.4610 C.ar  144  A144        0.1919
   3101  N6        46.3050   10.8000   12.5240 N.pl3 144  A144       -0.1054
   3102  N7        44.8250    8.1410   12.6520 N.ar  144  A144       -0.2193
   3103  C8        44.1900    7.1270   12.1150 C.ar  144  A144        0.1816
   3104  N9        44.0720    7.1920   10.7530 N.ar  144  A144       -0.2693
   3105  OP1       43.4860    1.8560   14.4350 O.2   144  A144       -0.5172
   3106  OP2       44.4960    4.0700   15.1900 O.co2 144  A144       -0.4373
   3107  P         46.3790    2.4860    9.7230 P.3   145  C145        0.2141
   3108  C5'       46.9810    3.3700    7.2860 C.3   145  C145        0.1812
   3109  O5'       47.2010    3.4120    8.7040 O.3   145  C145       -0.3114
   3110  C4'       47.6010    4.5770    6.6010 C.3   145  C145        0.1773
   3111  O4'       46.9610    5.7950    7.0580 O.3   145  C145       -0.3307
   3112  C3'       49.0620    4.8420    6.9330 C.3   145  C145        0.1860
   3113  O3'       49.9310    3.9600    6.2500 O.3   145  C145       -0.3112
   3114  C2'       49.1880    6.2940    6.4860 C.3   145  C145        0.2309
   3115  O2'       49.1640    6.4550    5.0840 O.3   145  C145       -0.2156
   3116  C1'       47.9100    6.8530    7.1050 C.3   145  C145        0.2420
   3117  N1        48.1190    7.3280    8.5180 N.ar  145  C145       -0.2535
   3118  C2        48.7090    8.5820    8.7530 C.ar  145  C145        0.3532
   3119  O2        49.0420    9.2930    7.7990 O.2   145  C145       -0.2443
   3120  N3        48.9030    8.9890   10.0350 N.ar  145  C145       -0.1739
   3121  C4        48.5350    8.2020   11.0540 C.ar  145  C145        0.1759
   3122  N4        48.7430    8.6390   12.2980 N.pl3 145  C145       -0.1070
   3123  C5        47.9360    6.9250   10.8430 C.ar  145  C145        0.0566
   3124  C6        47.7540    6.5370    9.5760 C.ar  145  C145        0.0850
   3125  OP1       46.4930    1.0690    9.3170 O.2   145  C145       -0.5172
   3126  OP2       46.7450    2.9020   11.0970 O.co2 145  C145       -0.4373
   3127  P         51.1890    3.3490    7.0330 P.3   146  G146        0.2141
   3128  C5'       52.9000    4.9110    5.7650 C.3   146  G146        0.1812
   3129  O5'       52.2470    4.5460    6.9810 O.3   146  G146       -0.3114
   3130  C4'       53.6620    6.2120    5.9380 C.3   146  G146        0.1773
   3131  O4'       52.7730    7.2690    6.3880 O.3   146  G146       -0.3307
   3132  C3'       54.7310    6.2050    7.0190 C.3   146  G146        0.1860
   3133  O3'       55.9060    5.5620    6.5990 O.3   146  G146       -0.3112
   3134  C2'       54.9590    7.6940    7.2000 C.3   146  G146        0.2309
   3135  O2'       55.7450    8.2520    6.1670 O.3   146  G146       -0.2156
   3136  C1'       53.5160    8.1950    7.1740 C.3   146  G146        0.2408
   3137  N1        53.6820   10.6510   11.6460 N.ar  146  G146       -0.1709
   3138  C2        54.3520   10.9250   10.4730 C.ar  146  G146        0.2606
   3139  N2        55.1690   11.9850   10.4840 N.pl3 146  G146       -0.0859
   3140  N3        54.2240   10.2070    9.3620 N.ar  146  G146       -0.1918
   3141  C4        53.3560    9.1710    9.5140 C.ar  146  G146        0.1723
   3142  C5        52.6420    8.8120   10.6410 C.ar  146  G146        0.1748
   3143  C6        52.7880    9.5880   11.8210 C.ar  146  G146        0.3023
   3144  O6        52.2300    9.4160   12.9160 O.2   146  G146       -0.2633
   3145  N7        51.8570    7.6860   10.4010 N.ar  146  G146       -0.2173
   3146  C8        52.1080    7.3930    9.1530 C.ar  146  G146        0.1817
   3147  N9        53.0020    8.2540    8.5460 N.ar  146  G146       -0.2693
   3148  OP1       51.6930    2.1980    6.2570 O.2   146  G146       -0.5172
   3149  OP2       50.8170    3.1780    8.4550 O.co2 146  G146       -0.4373
   3150  P         56.7420    4.7110    7.6650 P.3   147  G147        0.2141
   3151  C5'       58.4400    6.5740    8.1400 C.3   147  G147        0.1812
   3152  O5'       57.3220    5.8590    8.6130 O.3   147  G147       -0.3114
   3153  C4'       58.7510    7.7660    9.0140 C.3   147  G147        0.1773
   3154  O4'       57.5310    8.4680    9.3550 O.3   147  G147       -0.3307
   3155  C3'       59.3630    7.4730   10.3720 C.3   147  G147        0.1860
   3156  O3'       60.7230    7.1290   10.2420 O.3   147  G147       -0.3112
   3157  C2'       59.1690    8.8420   11.0090 C.3   147  G147        0.2309
   3158  O2'       60.0220    9.8350   10.4670 O.3   147  G147       -0.2156
   3159  C1'       57.7150    9.0970   10.6100 C.3   147  G147        0.2408
   3160  N1        55.6390    9.5990   15.2090 N.ar  147  G147       -0.1709
   3161  C2        56.6240   10.3390   14.5940 C.ar  147  G147        0.2606
   3162  N2        57.1390   11.3590   15.2920 N.pl3 147  G147       -0.0859
   3163  N3        57.0830   10.1010   13.3730 N.ar  147  G147       -0.1918
   3164  C4        56.4650    9.0400   12.8020 C.ar  147  G147        0.1723
   3165  C5        55.4750    8.2320   13.3210 C.ar  147  G147        0.1748
   3166  C6        54.9970    8.5060   14.6270 C.ar  147  G147        0.3023
   3167  O6        54.1210    7.9120   15.2640 O.2   147  G147       -0.2633
   3168  N7        55.1150    7.2450   12.4090 N.ar  147  G147       -0.2173
   3169  C8        55.8820    7.4740   11.3780 C.ar  147  G147        0.1817
   3170  N9        56.7300    8.5510   11.5470 N.ar  147  G147       -0.2693
   3171  OP1       57.8580    4.0490    6.9390 O.2   147  G147       -0.5172
   3172  OP2       55.7990    3.8750    8.4510 O.co2 147  G147       -0.4373
   3173  P         61.4150    6.1450   11.2970 P.3   148  A148        0.2141
   3174  C5'       62.7810    8.1160   12.3930 C.3   148  A148        0.1812
   3175  O5'       61.7470    7.1390   12.5040 O.3   148  A148       -0.3114
   3176  C4'       62.8500    8.9150   13.6740 C.3   148  A148        0.1773
   3177  O4'       61.5910    9.6040   13.8880 O.3   148  A148       -0.3307
   3178  C3'       62.9740    8.0710   14.9260 C.3   148  A148        0.1860
   3179  O3'       64.2910    7.6570   15.1460 O.3   148  A148       -0.3112
   3180  C2'       62.4870    9.0470   15.9850 C.3   148  A148        0.2309
   3181  O2'       63.4330   10.0520   16.2650 O.3   148  A148       -0.2156
   3182  C1'       61.2630    9.6120   15.2710 C.3   148  A148        0.2408
   3183  N1        57.5060    8.4880   18.6640 N.ar  148  A148       -0.2040
   3184  C2        58.5340    9.3490   18.7190 C.ar  148  A148        0.2016
   3185  N3        59.4710    9.5850   17.7950 N.ar  148  A148       -0.2048
   3186  C4        59.2920    8.8240   16.6950 C.ar  148  A148        0.1692
   3187  C5        58.2810    7.8970   16.4950 C.ar  148  A148        0.1518
   3188  C6        57.3490    7.7380   17.5500 C.ar  148  A148        0.1919
   3189  N6        56.3260    6.8860   17.5110 N.pl3 148  A148       -0.1054
   3190  N7        58.4060    7.3040   15.2510 N.ar  148  A148       -0.2193
   3191  C8        59.4700    7.8700   14.7330 C.ar  148  A148        0.1816
   3192  N9        60.0580    8.8090   15.5430 N.ar  148  A148       -0.2693
   3193  OP1       62.6760    5.6670   10.6800 O.2   148  A148       -0.5172
   3194  OP2       60.4270    5.1710   11.8060 O.co2 148  A148       -0.4373
   3195  P         64.5270    6.2680   15.9050 P.3   149  G149        0.2141
   3196  C5'       64.9940    7.3180   18.2580 C.3   149  G149        0.1812
   3197  O5'       64.0970    6.6050   17.4090 O.3   149  G149       -0.3114
   3198  C4'       64.3050    7.7460   19.5360 C.3   149  G149        0.1773
   3199  O4'       62.9790    8.2360   19.2250 O.3   149  G149       -0.3307
   3200  C3'       64.0450    6.6360   20.5390 C.3   149  G149        0.1860
   3201  O3'       65.1990    6.3700   21.3080 O.3   149  G149       -0.3112
   3202  C2'       62.9410    7.2670   21.3770 C.3   149  G149        0.2309
   3203  O2'       63.4070    8.2500   22.2790 O.3   149  G149       -0.2156
   3204  C1'       62.0980    7.9190   20.2890 C.3   149  G149        0.2408
   3205  N1        57.6290    5.7220   21.4140 N.ar  149  G149       -0.1709
   3206  C2        58.4110    6.5500   22.1870 C.ar  149  G149        0.2606
   3207  N2        57.9520    6.8390   23.4110 N.pl3 149  G149       -0.0859
   3208  N3        59.5680    7.0620   21.7800 N.ar  149  G149       -0.1918
   3209  C4        59.8970    6.6800   20.5140 C.ar  149  G149        0.1723
   3210  C5        59.1890    5.8580   19.6630 C.ar  149  G149        0.1748
   3211  C6        57.9520    5.3170   20.1140 C.ar  149  G149        0.3023
   3212  O6        57.1880    4.5620   19.4950 O.2   149  G149       -0.2633
   3213  N7        59.8560    5.7030   18.4500 N.ar  149  G149       -0.2173
   3214  C8        60.9330    6.4230   18.5880 C.ar  149  G149        0.1817
   3215  N9        61.0260    7.0470   19.8120 N.ar  149  G149       -0.2693
   3216  OP1       65.9860    5.9830   15.8760 O.3   149  G149       -0.4373
   3217  OP2       63.5480    5.2910   15.3700 O.co2 149  G149       -0.5172
   3218  P         65.5210    4.8730   21.7630 P.3   150  G150        0.2141
   3219  C5'       64.2870    5.0380   24.1070 C.3   150  G150        0.1812
   3220  O5'       64.3070    4.5650   22.7560 O.3   150  G150       -0.3114
   3221  C4'       63.0200    4.5920   24.8190 C.3   150  G150        0.1773
   3222  O4'       61.8680    5.0930   24.0940 O.3   150  G150       -0.3307
   3223  C3'       62.8060    3.0860   24.8880 C.3   150  G150        0.1860
   3224  O3'       63.3620    2.5460   26.0710 O.3   150  G150       -0.3112
   3225  C2'       61.2890    2.9670   24.9020 C.3   150  G150        0.2309
   3226  O2'       60.7480    3.2140   26.1830 O.3   150  G150       -0.2156
   3227  C1'       60.8820    4.0820   23.9570 C.3   150  G150        0.2408
   3228  N1        58.1470    1.6360   20.3430 N.ar  150  G150       -0.1709
   3229  C2        57.8790    1.7810   21.6900 C.ar  150  G150        0.2606
   3230  N2        56.7500    1.2090   22.1230 N.pl3 150  G150       -0.0859
   3231  N3        58.6570    2.4380   22.5520 N.ar  150  G150       -0.1918
   3232  C4        59.7620    2.9530   21.9490 C.ar  150  G150        0.1723
   3233  C5        60.1180    2.8540   20.6140 C.ar  150  G150        0.1748
   3234  C6        59.2750    2.1590   19.7030 C.ar  150  G150        0.3023
   3235  O6        59.4420    1.9800   18.4830 O.2   150  G150       -0.2633
   3236  N7        61.3150    3.5110   20.3790 N.ar  150  G150       -0.2173
   3237  C8        61.6550    3.9770   21.5450 C.ar  150  G150        0.1817
   3238  N9        60.7690    3.6810   22.5520 N.ar  150  G150       -0.2693
   3239  OP1       66.7850    4.8710   22.5310 O.3   150  G150       -0.4373
   3240  OP2       65.3900    3.9990   20.5760 O.co2 150  G150       -0.5172
   3241  P         63.9300    1.0490   26.0620 P.3   151  U151        0.2141
   3242  C5'       61.5060    0.1420   26.7600 C.3   151  U151        0.1812
   3243  O5'       62.6350    0.1200   25.8650 O.3   151  U151       -0.3114
   3244  C4'       60.3040   -0.6130   26.1910 C.3   151  U151        0.1773
   3245  O4'       59.9980   -0.2290   24.8210 O.3   151  U151       -0.3307
   3246  C3'       60.4760   -2.1330   26.1630 C.3   151  U151        0.1860
   3247  O3'       59.2520   -2.7990   26.5020 O.3   151  U151       -0.3112
   3248  C2'       60.9120   -2.4060   24.7210 C.3   151  U151        0.2309
   3249  O2'       60.6320   -3.7200   24.2720 O.3   151  U151       -0.2156
   3250  C1'       60.1070   -1.3530   23.9580 C.3   151  U151        0.2420
   3251  N1        60.7400   -0.9260   22.6570 N.ar  151  U151       -0.2534
   3252  C2        59.9840   -0.9290   21.4910 C.ar  151  U151        0.3546
   3253  O2        58.8070   -1.2650   21.4410 O.2   151  U151       -0.2443
   3254  N3        60.6710   -0.5180   20.3650 N.ar  151  U151       -0.1530
   3255  C4        61.9970   -0.1110   20.2810 C.ar  151  U151        0.2846
   3256  O4        62.4670    0.2310   19.1980 O.2   151  U151       -0.2650
   3257  C5        62.7170   -0.1340   21.5320 C.ar  151  U151        0.0814
   3258  C6        62.0740   -0.5300   22.6410 C.ar  151  U151        0.0870
   3259  OP1       64.5110    0.7860   27.3970 O.3   151  U151       -0.4373
   3260  OP2       64.7690    0.9000   24.8500 O.co2 151  U151       -0.5172
   3261  P         58.6950   -2.8290   28.0060 P.3   152  C152        0.2141
   3262  C5'       56.3640   -1.6620   28.5410 C.3   152  C152        0.1812
   3263  O5'       57.6520   -1.6040   27.9280 O.3   152  C152       -0.3114
   3264  C4'       55.2170   -1.9740   27.5760 C.3   152  C152        0.1773
   3265  O4'       55.6570   -2.5150   26.2890 O.3   152  C152       -0.3307
   3266  C3'       54.2090   -2.9990   28.1000 C.3   152  C152        0.1860
   3267  O3'       52.9230   -2.6330   27.6160 O.3   152  C152       -0.3112
   3268  C2'       54.6950   -4.2870   27.4410 C.3   152  C152        0.2309
   3269  O2'       53.7180   -5.3120   27.4730 O.3   152  C152       -0.2156
   3270  C1'       54.9470   -3.7280   26.0330 C.3   152  C152        0.2420
   3271  N1        55.6900   -4.6080   25.0120 N.ar  152  C152       -0.2535
   3272  C2        55.2070   -5.8840   24.5990 C.ar  152  C152        0.3532
   3273  O2        54.1560   -6.3590   25.0550 O.2   152  C152       -0.2443
   3274  N3        55.9170   -6.6000   23.6840 N.ar  152  C152       -0.1739
   3275  C4        57.0530   -6.1060   23.1790 C.ar  152  C152        0.1759
   3276  N4        57.7120   -6.8480   22.2860 N.pl3 152  C152       -0.1070
   3277  C5        57.5660   -4.8260   23.5700 C.ar  152  C152        0.0566
   3278  C6        56.8600   -4.1240   24.4710 C.ar  152  C152        0.0850
   3279  OP1       59.8020   -2.4830   28.9380 O.3   152  C152       -0.4373
   3280  OP2       57.9950   -4.1240   28.2090 O.co2 152  C152       -0.5172
   3281  P         51.5870   -2.7390   28.4920 P.3   153  U153        0.2141
   3282  C5'       50.7890   -0.3530   27.5780 C.3   153  U153        0.1812
   3283  O5'       50.5760   -1.7700   27.6870 O.3   153  U153       -0.3114
   3284  C4'       51.3980    0.0490   26.2390 C.3   153  U153        0.1773
   3285  O4'       52.3840   -0.9020   25.7500 O.3   153  U153       -0.3307
   3286  C3'       50.4230    0.2480   25.0720 C.3   153  U153        0.1860
   3287  O3'       50.3600    1.6310   24.7600 O.3   153  U153       -0.3112
   3288  C2'       51.0770   -0.4780   23.8990 C.3   153  U153        0.2309
   3289  O2'       51.0630    0.2570   22.6880 O.3   153  U153       -0.2156
   3290  C1'       52.5140   -0.5550   24.3900 C.3   153  U153        0.2420
   3291  N1        53.3810   -1.4720   23.5840 N.ar  153  U153       -0.2534
   3292  C2        54.6000   -0.9900   23.1500 C.ar  153  U153        0.3546
   3293  O2        55.0000    0.1270   23.4150 O.2   153  U153       -0.2443
   3294  N3        55.3500   -1.8670   22.4000 N.ar  153  U153       -0.1530
   3295  C4        54.9920   -3.1560   22.0380 C.ar  153  U153        0.2846
   3296  O4        55.7640   -3.8280   21.3600 O.2   153  U153       -0.2650
   3297  C5        53.7010   -3.5900   22.5210 C.ar  153  U153        0.0814
   3298  C6        52.9550   -2.7490   23.2540 C.ar  153  U153        0.0870
   3299  OP1       51.8530   -2.1840   29.8420 O.3   153  U153       -0.4373
   3300  OP2       51.1120   -4.1380   28.3670 O.co2 153  U153       -0.5172
   3301  P         49.0290    2.4960   24.9670 P.3   154  C154        0.2141
   3302  C5'       50.2060    3.9680   26.8210 C.3   154  C154        0.1812
   3303  O5'       49.6400    3.8850   25.5040 O.3   154  C154       -0.3114
   3304  C4'       51.4940    4.7760   26.8570 C.3   154  C154        0.1773
   3305  O4'       52.6390    3.9690   26.4700 O.3   154  C154       -0.3307
   3306  C3'       51.5810    5.9750   25.9210 C.3   154  C154        0.1860
   3307  O3'       50.8200    7.0400   26.4360 O.3   154  C154       -0.3112
   3308  C2'       53.0730    6.2430   26.0370 C.3   154  C154        0.2309
   3309  O2'       53.4430    6.8160   27.2800 O.3   154  C154       -0.2156
   3310  C1'       53.6250    4.8260   25.9150 C.3   154  C154        0.2420
   3311  N1        53.9330    4.4720   24.4810 N.ar  154  C154       -0.2535
   3312  C2        55.1360    4.9100   23.8950 C.ar  154  C154        0.3532
   3313  O2        55.9430    5.5740   24.5560 O.2   154  C154       -0.2443
   3314  N3        55.3940    4.5900   22.6020 N.ar  154  C154       -0.1739
   3315  C4        54.5120    3.8740   21.9000 C.ar  154  C154        0.1759
   3316  N4        54.8130    3.5830   20.6330 N.pl3 154  C154       -0.1070
   3317  C5        53.2820    3.4190   22.4640 C.ar  154  C154        0.0566
   3318  C6        53.0380    3.7410   23.7410 C.ar  154  C154        0.0850
   3319  OP1       48.2280    1.8260   26.0310 O.3   154  C154       -0.4373
   3320  OP2       48.4300    2.7710   23.6350 O.co2 154  C154       -0.5172
   3321  P         50.4150    8.3230   25.5690 P.3   155  U155        0.2141
   3322  C5'       52.3840    9.9320   26.2640 C.3   155  U155        0.1812
   3323  O5'       51.8040    9.0710   25.2800 O.3   155  U155       -0.3114
   3324  C4'       53.7700   10.4130   25.8730 C.3   155  U155        0.1773
   3325  O4'       54.6230    9.3020   25.4910 O.3   155  U155       -0.3307
   3326  C3'       53.8170   11.3310   24.6620 C.3   155  U155        0.1860
   3327  O3'       53.4640   12.6490   25.0120 O.3   155  U155       -0.3112
   3328  C2'       55.2810   11.2030   24.2560 C.3   155  U155        0.2309
   3329  O2'       56.1900   11.8770   25.1040 O.3   155  U155       -0.2156
   3330  C1'       55.4740    9.7030   24.4240 C.3   155  U155        0.2420
   3331  N1        55.1990    8.9200   23.1620 N.ar  155  U155       -0.2534
   3332  C2        56.1230    8.9610   22.1300 C.ar  155  U155        0.3546
   3333  O2        57.1610    9.5990   22.1770 O.2   155  U155       -0.2443
   3334  N3        55.7980    8.2080   21.0240 N.ar  155  U155       -0.1530
   3335  C4        54.6580    7.4390   20.8470 C.ar  155  U155        0.2846
   3336  O4        54.4970    6.8210   19.8010 O.2   155  U155       -0.2650
   3337  C5        53.7360    7.4480   21.9570 C.ar  155  U155        0.0814
   3338  C6        54.0380    8.1700   23.0460 C.ar  155  U155        0.0870
   3339  OP1       49.6140    9.1670   26.4810 O.3   155  U155       -0.4373
   3340  OP2       49.8430    7.8840   24.2720 O.co2 155  U155       -0.5172
   3341  P         52.4240   13.4560   24.1040 P.3   156  C156        0.2141
   3342  C5'       54.2970   14.7810   22.8870 C.3   156  C156        0.1812
   3343  O5'       53.2670   13.8110   22.7990 O.3   156  C156       -0.3114
   3344  C4'       55.3090   14.5660   21.7830 C.3   156  C156        0.1773
   3345  O4'       55.5830   13.1540   21.6280 O.3   156  C156       -0.3307
   3346  C3'       54.8640   14.9620   20.3860 C.3   156  C156        0.1860
   3347  O3'       54.9240   16.3620   20.2540 O.3   156  C156       -0.3112
   3348  C2'       55.9480   14.2650   19.5780 C.3   156  C156        0.2309
   3349  O2'       57.2210   14.8660   19.6990 O.3   156  C156       -0.2156
   3350  C1'       56.0020   12.9250   20.2960 C.3   156  C156        0.2420
   3351  N1        55.1580   11.8730   19.6600 N.ar  156  C156       -0.2535
   3352  C2        55.5570   11.3380   18.4230 C.ar  156  C156        0.3532
   3353  O2        56.5860   11.7520   17.8800 O.2   156  C156       -0.2443
   3354  N3        54.7990   10.3770   17.8440 N.ar  156  C156       -0.1739
   3355  C4        53.6940    9.9510   18.4600 C.ar  156  C156        0.1759
   3356  N4        52.9820    9.0010   17.8490 N.pl3 156  C156       -0.1070
   3357  C5        53.2690   10.4750   19.7220 C.ar  156  C156        0.0566
   3358  C6        54.0240   11.4270   20.2830 C.ar  156  C156        0.0850
   3359  OP1       52.0990   14.6950   24.8410 O.3   156  C156       -0.4373
   3360  OP2       51.3370   12.5480   23.6740 O.co2 156  C156       -0.5172
   3361  P         53.9660   17.1560   19.2500 P.3   157  C157        0.2141
   3362  C5'       55.7650   17.5230   17.3960 C.3   157  C157        0.1812
   3363  O5'       54.5950   16.8220   17.8130 O.3   157  C157       -0.3114
   3364  C4'       56.2350   17.1240   16.0070 C.3   157  C157        0.1773
   3365  O4'       56.6460   15.7350   15.9590 O.3   157  C157       -0.3307
   3366  C3'       55.2120   17.2120   14.8940 C.3   157  C157        0.1860
   3367  O3'       55.0850   18.5430   14.4970 O.3   157  C157       -0.3112
   3368  C2'       55.8900   16.3720   13.8220 C.3   157  C157        0.2309
   3369  O2'       56.9560   17.0430   13.1600 O.3   157  C157       -0.2156
   3370  C1'       56.3670   15.1970   14.6780 C.3   157  C157        0.2420
   3371  N1        55.3210   14.1370   14.8410 N.ar  157  C157       -0.2535
   3372  C2        55.0130   13.2650   13.7830 C.ar  157  C157        0.3532
   3373  O2        55.6070   13.3580   12.7050 O.2   157  C157       -0.2443
   3374  N3        54.0560   12.3220   13.9710 N.ar  157  C157       -0.1739
   3375  C4        53.4200   12.2380   15.1440 C.ar  157  C157        0.1759
   3376  N4        52.4810   11.3030   15.2810 N.pl3 157  C157       -0.1070
   3377  C5        53.7110   13.1100   16.2330 C.ar  157  C157        0.0566
   3378  C6        54.6580   14.0300   16.0360 C.ar  157  C157        0.0850
   3379  OP1       54.1640   18.5900   19.5820 O.3   157  C157       -0.4373
   3380  OP2       52.6100   16.5690   19.2860 O.co2 157  C157       -0.5172
   3381  P         53.6460   19.1400   14.1600 P.3   158  G158        0.2141
   3382  C5'       54.0080   18.7760   11.6290 C.3   158  G158        0.1812
   3383  O5'       53.3130   18.3890   12.7980 O.3   158  G158       -0.3114
   3384  C4'       53.8740   17.7150   10.5590 C.3   158  G158        0.1773
   3385  O4'       54.1170   16.4010   11.1060 O.3   158  G158       -0.3307
   3386  C3'       52.4890   17.5580    9.9580 C.3   158  G158        0.1860
   3387  O3'       52.1930   18.6560    9.0980 O.3   158  G158       -0.3112
   3388  C2'       52.7170   16.2460    9.2230 C.3   158  G158        0.2309
   3389  O2'       53.5690   16.3770    8.1050 O.3   158  G158       -0.2156
   3390  C1'       53.4420   15.4560   10.3040 C.3   158  G158        0.2408
   3391  N1        50.4020   11.3890   10.4730 N.ar  158  G158       -0.1709
   3392  C2        51.1340   11.8950    9.4250 C.ar  158  G158        0.2606
   3393  N2        51.0530   11.2290    8.2670 N.pl3 158  G158       -0.0859
   3394  N3        51.8960   12.9750    9.5050 N.ar  158  G158       -0.1918
   3395  C4        51.8690   13.5260   10.7450 C.ar  158  G158        0.1723
   3396  C5        51.1720   13.1050   11.8560 C.ar  158  G158        0.1748
   3397  C6        50.3660   11.9480   11.7510 C.ar  158  G158        0.3023
   3398  O6        49.6720   11.4200   12.6290 O.2   158  G158       -0.2633
   3399  N7        51.4040   13.9470   12.9380 N.ar  158  G158       -0.2173
   3400  C8        52.2290   14.8470   12.4680 C.ar  158  G158        0.1817
   3401  N9        52.5560   14.6520   11.1430 N.ar  158  G158       -0.2693
   3402  OP1       53.8870   20.5760   13.8910 O.2   158  G158       -0.5172
   3403  OP2       52.6540   18.7280   15.1830 O.co2 158  G158       -0.4373
   3404  P         50.6810   19.1010    8.8200 P.3   159  U159        0.2141
   3405  C5'       50.4010   17.6550    6.6360 C.3   159  U159        0.1812
   3406  O5'       50.1200   17.8330    8.0200 O.3   159  U159       -0.3114
   3407  C4'       49.6920   16.4160    6.1430 C.3   159  U159        0.1773
   3408  O4'       50.0630   15.3030    6.9910 O.3   159  U159       -0.3307
   3409  C3'       48.1820   16.4230    6.2870 C.3   159  U159        0.1860
   3410  O3'       47.5420   17.2290    5.3020 O.3   159  U159       -0.3112
   3411  C2'       47.9210   14.9350    6.1140 C.3   159  U159        0.2309
   3412  O2'       48.1090   14.4960    4.7880 O.3   159  U159       -0.2156
   3413  C1'       49.0050   14.3590    7.0200 C.3   159  U159        0.2420
   3414  N1        48.4860   14.1770    8.4140 N.ar  159  U159       -0.2534
   3415  C2        47.6630   13.0980    8.6860 C.ar  159  U159        0.3546
   3416  O2        47.3520   12.2630    7.8570 O.2   159  U159       -0.2443
   3417  N3        47.2150   13.0230    9.9820 N.ar  159  U159       -0.1530
   3418  C4        47.4960   13.9060   11.0140 C.ar  159  U159        0.2846
   3419  O4        47.0220   13.7120   12.1310 O.2   159  U159       -0.2650
   3420  C5        48.3540   15.0100   10.6580 C.ar  159  U159        0.0814
   3421  C6        48.8060   15.0980    9.4000 C.ar  159  U159        0.0870
   3422  OP1       50.7340   20.2760    7.9180 O.2   159  U159       -0.5172
   3423  OP2       49.9260   19.1670   10.0940 O.co2 159  U159       -0.4373
   3424  P         46.1510   17.9610    5.6400 P.3   160  G160        0.2141
   3425  C5'       44.7160   16.1470    4.4420 C.3   160  G160        0.1812
   3426  O5'       45.0660   16.7910    5.6470 O.3   160  G160       -0.3114
   3427  C4'       44.0260   14.8400    4.7530 C.3   160  G160        0.1773
   3428  O4'       44.7810   14.1010    5.7420 O.3   160  G160       -0.3307
   3429  C3'       42.6550   14.9490    5.4010 C.3   160  G160        0.1860
   3430  O3'       41.6780   15.3410    4.4480 O.3   160  G160       -0.3112
   3431  C2'       42.5010   13.5030    5.8630 C.3   160  G160        0.2309
   3432  O2'       42.3130   12.5850    4.8060 O.3   160  G160       -0.2156
   3433  C1'       43.8810   13.2730    6.4590 C.3   160  G160        0.2408
   3434  N1        42.6760   11.7100   11.1520 N.ar  160  G160       -0.1709
   3435  C2        42.3890   11.1240    9.9380 C.ar  160  G160        0.2606
   3436  N2        41.6940    9.9760    9.9700 N.pl3 160  G160       -0.0859
   3437  N3        42.7630   11.6380    8.7700 N.ar  160  G160       -0.1918
   3438  C4        43.4540   12.8030    8.9140 C.ar  160  G160        0.1723
   3439  C5        43.7860   13.4650   10.0820 C.ar  160  G160        0.1748
   3440  C6        43.3830   12.9020   11.3230 C.ar  160  G160        0.3023
   3441  O6        43.5790   13.3310   12.4690 O.2   160  G160       -0.2633
   3442  N7        44.4990   14.6290    9.8010 N.ar  160  G160       -0.2173
   3443  C8        44.5820   14.6430    8.4970 C.ar  160  G160        0.1817
   3444  N9        43.9690   13.5690    7.8900 N.ar  160  G160       -0.2693
   3445  OP1       45.8600   18.8930    4.5280 O.2   160  G160       -0.5172
   3446  OP2       46.2180   18.4420    7.0360 O.co2 160  G160       -0.4373
   3447  P         40.3340   16.0990    4.8880 P.3   161  G161        0.2141
   3448  C5'       39.0970   13.8040    4.5200 C.3   161  G161        0.1812
   3449  O5'       39.4060   14.9000    5.3920 O.3   161  G161       -0.3114
   3450  C4'       38.4270   12.6760    5.2820 C.3   161  G161        0.1773
   3451  O4'       39.3420   12.1300    6.2560 O.3   161  G161       -0.3307
   3452  C3'       37.2490   13.1130    6.1280 C.3   161  G161        0.1860
   3453  O3'       36.1080   13.1730    5.3170 O.3   161  G161       -0.3112
   3454  C2'       37.1670   12.0170    7.1820 C.3   161  G161        0.2309
   3455  O2'       36.5640   10.8290    6.7260 O.3   161  G161       -0.2156
   3456  C1'       38.6390   11.7530    7.4310 C.3   161  G161        0.2408
   3457  N1        39.1600   11.6940   12.5080 N.ar  161  G161       -0.1709
   3458  C2        38.5270   10.7810   11.6910 C.ar  161  G161        0.2606
   3459  N2        37.9700    9.7250   12.2980 N.pl3 161  G161       -0.0859
   3460  N3        38.4550   10.9010   10.3690 N.ar  161  G161       -0.1918
   3461  C4        39.0720   12.0370    9.9190 C.ar  161  G161        0.1723
   3462  C5        39.7220   13.0070   10.6580 C.ar  161  G161        0.1748
   3463  C6        39.7980   12.8580   12.0680 C.ar  161  G161        0.3023
   3464  O6        40.3350   13.6200   12.8900 O.2   161  G161       -0.2633
   3465  N7        40.2230   14.0020    9.8330 N.ar  161  G161       -0.2173
   3466  C8        39.8710   13.6340    8.6330 C.ar  161  G161        0.1817
   3467  N9        39.1700   12.4550    8.6040 N.ar  161  G161       -0.2693
   3468  OP1       39.7140   16.6750    3.6740 O.2   161  G161       -0.5172
   3469  OP2       40.6320   16.9700    6.0420 O.co2 161  G161       -0.4373
   3470  P         34.9550   14.2260    5.6610 P.3   162  A162        0.2141
   3471  C5'       33.6270   12.2180    6.7560 C.3   162  A162        0.1812
   3472  O5'       34.1800   13.5400    6.8810 O.3   162  A162       -0.3114
   3473  C4'       33.3650   11.6140    8.1290 C.3   162  A162        0.1773
   3474  O4'       34.4850   11.8500    9.0350 O.3   162  A162       -0.3307
   3475  C3'       32.1290   12.1550    8.8380 C.3   162  A162        0.1860
   3476  O3'       31.5750   11.1000    9.6120 O.3   162  A162       -0.3112
   3477  C2'       32.7310   13.2500    9.7060 C.3   162  A162        0.2309
   3478  O2'       31.9340   13.5530   10.8230 O.3   162  A162       -0.2156
   3479  C1'       34.0410   12.6010   10.1460 C.3   162  A162        0.2408
   3480  N1        37.3770   14.2360   13.7190 N.ar  162  A162       -0.2040
   3481  C2        36.5490   13.1840   13.6980 C.ar  162  A162        0.2016
   3482  N3        35.7100   12.8100   12.7330 N.ar  162  A162       -0.2048
   3483  C4        35.7660   13.6520   11.6880 C.ar  162  A162        0.1692
   3484  C5        36.5710   14.7680   11.5720 C.ar  162  A162        0.1518
   3485  C6        37.4140   15.0640   12.6560 C.ar  162  A162        0.1919
   3486  N6        38.2410   16.1160   12.6790 N.pl3 162  A162       -0.1054
   3487  N7        36.3650   15.4010   10.3630 N.ar  162  A162       -0.2193
   3488  C8        35.4540   14.6600    9.7790 C.ar  162  A162        0.1816
   3489  N9        35.0460   13.5880   10.5190 N.ar  162  A162       -0.2693
   3490  OP1       34.0130   14.2540    4.5120 O.2   162  A162       -0.5172
   3491  OP2       35.5930   15.4650    6.1670 O.co2 162  A162       -0.4373
   3492  P         30.0050   10.8020    9.6790 P.3   163  G163        0.2141
   3493  C5'       30.4740   10.9300   12.2830 C.3   163  G163        0.1812
   3494  O5'       29.8070   10.3130   11.1900 O.3   163  G163       -0.3114
   3495  C4'       29.7200   10.6100   13.5580 C.3   163  G163        0.1773
   3496  O4'       30.6170   10.4900   14.6860 O.3   163  G163       -0.3307
   3497  C3'       28.7050   11.6560   13.9760 C.3   163  G163        0.1860
   3498  O3'       27.6950   11.0140   14.7180 O.3   163  G163       -0.3112
   3499  C2'       29.5350   12.5480   14.8810 C.3   163  G163        0.2309
   3500  O2'       28.7390   13.3400   15.7380 O.3   163  G163       -0.2156
   3501  C1'       30.2950   11.4740   15.6490 C.3   163  G163        0.2408
   3502  N1        32.7630   12.6180   19.9550 N.ar  163  G163       -0.1709
   3503  C2        31.4730   12.1730   19.7840 C.ar  163  G163        0.2606
   3504  N2        30.7460   12.0060   20.8950 N.pl3 163  G163       -0.0859
   3505  N3        30.9360   11.9030   18.6000 N.ar  163  G163       -0.1918
   3506  C4        31.7970   12.1230   17.5780 C.ar  163  G163        0.1723
   3507  C5        33.0960   12.5700   17.6420 C.ar  163  G163        0.1748
   3508  C6        33.6600   12.8510   18.9110 C.ar  163  G163        0.3023
   3509  O6        34.8020   13.2500   19.1610 O.2   163  G163       -0.2633
   3510  N7        33.6530   12.6610   16.3740 N.ar  163  G163       -0.2173
   3511  C8        32.6930   12.2840   15.5810 C.ar  163  G163        0.1817
   3512  N9        31.5380   11.9420   16.2430 N.ar  163  G163       -0.2693
   3513  OP1       29.7070    9.5990    8.8600 O.2   163  G163       -0.5172
   3514  OP2       29.3020   12.0930    9.4690 O.co2 163  G163       -0.4373
   3515  P         26.2850   10.7090   14.0510 P.3   164  A164        0.2141
   3516  C5'       26.2810    8.0520   14.0330 C.3   164  A164        0.1812
   3517  O5'       26.5860    9.2900   13.3850 O.3   164  A164       -0.3114
   3518  C4'       26.4740    6.9100   13.0480 C.3   164  A164        0.1773
   3519  O4'       25.6480    7.1310   11.8720 O.3   164  A164       -0.3307
   3520  C3'       27.9000    6.7570   12.5310 C.3   164  A164        0.1860
   3521  O3'       28.2460    5.3900   12.3420 O.3   164  A164       -0.3112
   3522  C2'       27.8570    7.5180   11.2110 C.3   164  A164        0.2309
   3523  O2'       28.8320    7.1220   10.2690 O.3   164  A164       -0.2156
   3524  C1'       26.4470    7.2230   10.7100 C.3   164  A164        0.2408
   3525  N1        24.5420    8.8210    6.1230 N.ar  164  A164       -0.2040
   3526  C2        24.8020    7.5860    6.5860 C.ar  164  A164        0.2016
   3527  N3        25.2920    7.2210    7.7810 N.ar  164  A164       -0.2048
   3528  C4        25.5230    8.2960    8.5640 C.ar  164  A164        0.1692
   3529  C5        25.2970    9.6280    8.2180 C.ar  164  A164        0.1518
   3530  C6        24.7850    9.8860    6.9310 C.ar  164  A164        0.1919
   3531  N6        24.5370   11.1320    6.5030 N.pl3 164  A164       -0.1054
   3532  N7        25.6380   10.4850    9.2520 N.ar  164  A164       -0.2193
   3533  C8        26.0590    9.6630   10.1900 C.ar  164  A164        0.1816
   3534  N9        26.0110    8.3280    9.8590 N.ar  164  A164       -0.2693
   3535  OP1       26.0190   11.7190   12.9940 O.2   164  A164       -0.5172
   3536  OP2       25.3130   10.5250   15.1550 O.co2 164  A164       -0.4373
   3537  P         29.1970    4.6460   13.3920 P.3   165  G165        0.2141
   3538  C5'       31.3220    5.8860   12.3870 C.3   165  G165        0.1812
   3539  O5'       30.4460    5.6390   13.4900 O.3   165  G165       -0.3114
   3540  C4'       32.4900    6.7410   12.8440 C.3   165  G165        0.1773
   3541  O4'       32.0250    7.9900   13.4310 O.3   165  G165       -0.3307
   3542  C3'       33.3280    6.1000   13.9330 C.3   165  G165        0.1860
   3543  O3'       34.2880    5.2500   13.3550 O.3   165  G165       -0.3112
   3544  C2'       33.9620    7.3080   14.6110 C.3   165  G165        0.2309
   3545  O2'       35.0850    7.8250   13.9210 O.3   165  G165       -0.2156
   3546  C1'       32.8060    8.3000   14.5730 C.3   165  G165        0.2408
   3547  N1        32.5980    9.2110   19.5910 N.ar  165  G165       -0.1709
   3548  C2        33.6300    9.4040   18.7070 C.ar  165  G165        0.2606
   3549  N2        34.7630    9.9080   19.2160 N.pl3 165  G165       -0.0859
   3550  N3        33.5600    9.1230   17.4120 N.ar  165  G165       -0.1918
   3551  C4        32.3530    8.6230   17.0520 C.ar  165  G165        0.1723
   3552  C5        31.2610    8.3900   17.8570 C.ar  165  G165        0.1748
   3553  C6        31.3590    8.6990   19.2400 C.ar  165  G165        0.3023
   3554  O6        30.5100    8.5650   20.1230 O.2   165  G165       -0.2633
   3555  N7        30.2080    7.8640   17.1100 N.ar  165  G165       -0.2173
   3556  C8        30.6780    7.7940   15.8930 C.ar  165  G165        0.1817
   3557  N9        31.9760    8.2400   15.7800 N.ar  165  G165       -0.2693
   3558  OP1       29.6360    3.3570   12.8130 O.2   165  G165       -0.5172
   3559  OP2       28.5300    4.6720   14.7110 O.co2 165  G165       -0.4373
   3560  P         34.6620    3.8950   14.1060 P.3   166  C166        0.2141
   3561  C5'       36.6680    5.0250   15.3870 C.3   166  C166        0.1812
   3562  O5'       35.4030    4.3680   15.4420 O.3   166  C166       -0.3114
   3563  C4'       37.0580    5.5810   16.7450 C.3   166  C166        0.1773
   3564  O4'       36.1270    6.6080   17.1670 O.3   166  C166       -0.3307
   3565  C3'       37.0480    4.5710   17.8840 C.3   166  C166        0.1860
   3566  O3'       38.2530    3.8440   17.9050 O.3   166  C166       -0.3112
   3567  C2'       36.9650    5.4960   19.0820 C.3   166  C166        0.2309
   3568  O2'       38.2120    6.0680   19.4110 O.3   166  C166       -0.2156
   3569  C1'       35.9950    6.5630   18.5760 C.3   166  C166        0.2420
   3570  N1        34.5990    6.2210   18.9830 N.ar  166  C166       -0.2535
   3571  C2        34.1940    6.4720   20.3060 C.ar  166  C166        0.3532
   3572  O2        34.9840    6.9960   21.1050 O.2   166  C166       -0.2443
   3573  N3        32.9300    6.1440   20.6810 N.ar  166  C166       -0.1739
   3574  C4        32.0930    5.5870   19.8040 C.ar  166  C166        0.1759
   3575  N4        30.8630    5.2870   20.2270 N.pl3 166  C166       -0.1070
   3576  C5        32.4870    5.3170   18.4590 C.ar  166  C166        0.0566
   3577  C6        33.7350    5.6410   18.0970 C.ar  166  C166        0.0850
   3578  OP1       35.6290    3.1940   13.2370 O.2   166  C166       -0.5172
   3579  OP2       33.4200    3.2190   14.5430 O.co2 166  C166       -0.4373
   3580  P         38.2650    2.2760   18.1970 P.3   167  C167        0.2141
   3581  C5'       39.4360    2.9020   20.4640 C.3   167  C167        0.1812
   3582  O5'       38.3700    2.2590   19.7910 O.3   167  C167       -0.3114
   3583  C4'       39.0970    2.9930   21.9310 C.3   167  C167        0.1773
   3584  O4'       37.9690    3.8760   22.1160 O.3   167  C167       -0.3307
   3585  C3'       38.5590    1.7040   22.4810 C.3   167  C167        0.1860
   3586  O3'       39.5900    0.8380   22.7960 O.3   167  C167       -0.3112
   3587  C2'       37.8370    2.1610   23.7290 C.3   167  C167        0.2309
   3588  O2'       38.7110    2.4500   24.7970 O.3   167  C167       -0.2156
   3589  C1'       37.1680    3.4100   23.1890 C.3   167  C167        0.2420
   3590  N1        35.7620    3.1100   22.7500 N.ar  167  C167       -0.2535
   3591  C2        34.7420    3.0860   23.7130 C.ar  167  C167        0.3532
   3592  O2        35.0090    3.3200   24.8980 O.2   167  C167       -0.2443
   3593  N3        33.4690    2.8210   23.3240 N.ar  167  C167       -0.1739
   3594  C4        33.1940    2.5750   22.0420 C.ar  167  C167        0.1759
   3595  N4        31.9240    2.3100   21.7270 N.pl3 167  C167       -0.1070
   3596  C5        34.2150    2.5840   21.0420 C.ar  167  C167        0.0566
   3597  C6        35.4680    2.8490   21.4370 C.ar  167  C167        0.0850
   3598  OP1       39.5160    1.7480   17.6100 O.2   167  C167       -0.5172
   3599  OP2       36.9500    1.6820   17.8430 O.co2 167  C167       -0.4373
   3600  P         39.2890   -0.7150   22.5900 P.3   168  G168        0.2141
   3601  C5'       38.4930   -1.3210   24.9990 C.3   168  G168        0.1812
   3602  O5'       38.1470   -1.0380   23.6660 O.3   168  G168       -0.3114
   3603  C4'       37.2560   -1.4100   25.8640 C.3   168  G168        0.1773
   3604  O4'       36.2700   -0.4170   25.4990 O.3   168  G168       -0.3307
   3605  C3'       36.4710   -2.6990   25.7880 C.3   168  G168        0.1860
   3606  O3'       37.1730   -3.7070   26.4660 O.3   168  G168       -0.3112
   3607  C2'       35.2420   -2.2440   26.5590 C.3   168  G168        0.2309
   3608  O2'       35.5050   -2.1130   27.9400 O.3   168  G168       -0.2156
   3609  C1'       35.0130   -0.8560   25.9680 C.3   168  G168        0.2408
   3610  N1        30.0650   -1.2190   24.6880 N.ar  168  G168       -0.1709
   3611  C2        30.6720   -1.3850   25.9140 C.ar  168  G168        0.2606
   3612  N2        29.8760   -1.6850   26.9460 N.pl3 168  G168       -0.0859
   3613  N3        31.9760   -1.2630   26.1240 N.ar  168  G168       -0.1918
   3614  C4        32.6550   -0.9620   24.9910 C.ar  168  G168        0.1723
   3615  C5        32.1420   -0.7790   23.7220 C.ar  168  G168        0.1748
   3616  C6        30.7420   -0.9030   23.5080 C.ar  168  G168        0.3023
   3617  O6        30.1010   -0.7750   22.4520 O.2   168  G168       -0.2633
   3618  N7        33.1620   -0.4840   22.8320 N.ar  168  G168       -0.2173
   3619  C8        34.2450   -0.4910   23.5640 C.ar  168  G168        0.1817
   3620  N9        34.0200   -0.7790   24.8880 N.ar  168  G168       -0.2693
   3621  OP1       40.5440   -1.4400   22.9220 O.3   168  G168       -0.4373
   3622  OP2       38.6500   -0.8880   21.2610 O.co2 168  G168       -0.5172
   3623  P         36.9850   -5.2420   26.0560 P.3   169  U169        0.2141
   3624  C5'       35.4200   -5.5230   28.1420 C.3   169  U169        0.1812
   3625  O5'       35.5790   -5.5930   26.7230 O.3   169  U169       -0.3114
   3626  C4'       33.9900   -5.8430   28.5100 C.3   169  U169        0.1773
   3627  O4'       33.1340   -4.7540   28.0940 O.3   169  U169       -0.3307
   3628  C3'       33.4310   -7.0280   27.7580 C.3   169  U169        0.1860
   3629  O3'       33.8260   -8.2280   28.3720 O.3   169  U169       -0.3112
   3630  C2'       31.9380   -6.7690   27.8680 C.3   169  U169        0.2309
   3631  O2'       31.4240   -7.0850   29.1360 O.3   169  U169       -0.2156
   3632  C1'       31.8770   -5.2650   27.6900 C.3   169  U169        0.2420
   3633  N1        31.5450   -4.8760   26.2770 N.ar  169  U169       -0.2534
   3634  C2        30.2100   -4.8260   25.8780 C.ar  169  U169        0.3546
   3635  O2        29.2640   -5.0860   26.6160 O.2   169  U169       -0.2443
   3636  N3        30.0220   -4.4600   24.5590 N.ar  169  U169       -0.1530
   3637  C4        31.0020   -4.1550   23.6250 C.ar  169  U169        0.2846
   3638  O4        30.6890   -3.8480   22.4830 O.2   169  U169       -0.2650
   3639  C5        32.3540   -4.2360   24.1120 C.ar  169  U169        0.0814
   3640  C6        32.5690   -4.5820   25.3880 C.ar  169  U169        0.0870
   3641  OP1       38.0210   -6.0480   26.7490 O.3   169  U169       -0.4373
   3642  OP2       36.8420   -5.3100   24.5840 O.co2 169  U169       -0.5172
   3643  P         33.8700   -9.5320   27.4580 P.3   170  C170        0.2141
   3644  C5'       31.6860  -10.3200   26.1500 C.3   170  C170        0.1812
   3645  O5'       32.3400  -10.0030   27.3860 O.3   170  C170       -0.3114
   3646  C4'       30.1860  -10.1170   26.3030 C.3   170  C170        0.1773
   3647  O4'       29.8490   -8.7100   26.1630 O.3   170  C170       -0.3307
   3648  C3'       29.2990  -10.7990   25.2750 C.3   170  C170        0.1860
   3649  O3'       29.0480  -12.1510   25.6300 O.3   170  C170       -0.3112
   3650  C2'       28.0540   -9.9180   25.3320 C.3   170  C170        0.2309
   3651  O2'       27.3280  -10.0420   26.5330 O.3   170  C170       -0.2156
   3652  C1'       28.6980   -8.5490   25.3560 C.3   170  C170        0.2420
   3653  N1        29.0580   -7.9610   24.0080 N.ar  170  C170       -0.2535
   3654  C2        28.0510   -7.6320   23.0800 C.ar  170  C170        0.3532
   3655  O2        26.8570   -7.8390   23.3540 O.2   170  C170       -0.2443
   3656  N3        28.4110   -7.0920   21.8820 N.ar  170  C170       -0.1739
   3657  C4        29.6930   -6.8730   21.5870 C.ar  170  C170        0.1759
   3658  N4        29.9800   -6.3440   20.3970 N.pl3 170  C170       -0.1070
   3659  C5        30.7300   -7.1970   22.5080 C.ar  170  C170        0.0566
   3660  C6        30.3690   -7.7250   23.6870 C.ar  170  C170        0.0850
   3661  OP1       34.6490  -10.5610   28.1760 O.3   170  C170       -0.4373
   3662  OP2       34.2870   -9.0970   26.1090 O.co2 170  C170       -0.5172
   3663  P         28.9150  -13.2440   24.4710 P.3   171  G171        0.2141
   3664  C5'       26.2700  -13.4360   24.4890 C.3   171  G171        0.1812
   3665  O5'       27.4620  -12.9100   23.8840 O.3   171  G171       -0.3114
   3666  C4'       25.0230  -12.9930   23.7410 C.3   171  G171        0.1773
   3667  O4'       25.0430  -11.5440   23.6040 O.3   171  G171       -0.3307
   3668  C3'       24.9030  -13.4890   22.3020 C.3   171  G171        0.1860
   3669  O3'       24.3250  -14.7710   22.1990 O.3   171  G171       -0.3112
   3670  C2'       24.0050  -12.4280   21.6800 C.3   171  G171        0.2309
   3671  O2'       22.6440  -12.5930   22.0020 O.3   171  G171       -0.2156
   3672  C1'       24.5760  -11.1690   22.3180 C.3   171  G171        0.2408
   3673  N1        25.9070   -8.8090   18.0120 N.ar  171  G171       -0.1709
   3674  C2        24.6520   -9.1460   18.4680 C.ar  171  G171        0.2606
   3675  N2        23.6190   -8.8130   17.6840 N.pl3 171  G171       -0.0859
   3676  N3        24.4290   -9.7650   19.6170 N.ar  171  G171       -0.1918
   3677  C4        25.5790  -10.0260   20.2890 C.ar  171  G171        0.1723
   3678  C5        26.8680   -9.7320   19.9170 C.ar  171  G171        0.1748
   3679  C6        27.0970   -9.0730   18.6890 C.ar  171  G171        0.3023
   3680  O6        28.1810   -8.7310   18.1950 O.2   171  G171       -0.2633
   3681  N7        27.7680  -10.1620   20.8770 N.ar  171  G171       -0.2173
   3682  C8        27.0220  -10.7010   21.7970 C.ar  171  G171        0.1817
   3683  N9        25.6800  -10.6490   21.5130 N.ar  171  G171       -0.2693
   3684  OP1       28.9080  -14.5980   25.0800 O.3   171  G171       -0.4373
   3685  OP2       29.9190  -12.9360   23.4310 O.co2 171  G171       -0.5172
   3686  P         24.8610  -15.8010   21.0930 P.3   172  G172        0.2141
   3687  C5'       22.6380  -15.2260   19.7990 C.3   172  G172        0.1812
   3688  O5'       24.0540  -15.4160   19.7730 O.3   172  G172       -0.3114
   3689  C4'       22.1740  -14.4700   18.5680 C.3   172  G172        0.1773
   3690  O4'       22.6410  -13.0970   18.6170 O.3   172  G172       -0.3307
   3691  C3'       22.7560  -14.9920   17.2650 C.3   172  G172        0.1860
   3692  O3'       22.0730  -16.1410   16.7980 O.3   172  G172       -0.3112
   3693  C2'       22.5990  -13.7820   16.3530 C.3   172  G172        0.2309
   3694  O2'       21.2850  -13.6020   15.8700 O.3   172  G172       -0.2156
   3695  C1'       22.9990  -12.6660   17.3110 C.3   172  G172        0.2408
   3696  N1        26.8310  -10.5360   14.6720 N.ar  172  G172       -0.1709
   3697  C2        25.4850  -10.5690   14.3770 C.ar  172  G172        0.2606
   3698  N2        25.1250   -9.9550   13.2440 N.pl3 172  G172       -0.0859
   3699  N3        24.5650  -11.1510   15.1390 N.ar  172  G172       -0.1918
   3700  C4        25.1110  -11.7180   16.2450 C.ar  172  G172        0.1723
   3701  C5        26.4400  -11.7420   16.6220 C.ar  172  G172        0.1748
   3702  C6        27.4120  -11.1120   15.8040 C.ar  172  G172        0.3023
   3703  O6        28.6400  -11.0490   15.9820 O.2   172  G172       -0.2633
   3704  N7        26.6060  -12.4280   17.8140 N.ar  172  G172       -0.2173
   3705  C8        25.3980  -12.7970   18.1340 C.ar  172  G172        0.1817
   3706  N9        24.4360  -12.4000   17.2360 N.ar  172  G172       -0.2693
   3707  OP1       24.4590  -17.1490   21.5420 O.3   172  G172       -0.4373
   3708  OP2       26.2810  -15.5270   20.7950 O.co2 172  G172       -0.5172
   3709  P         22.9020  -17.2440   15.9840 P.3   173  U173        0.2141
   3710  C5'       22.2860  -16.2040   13.6350 C.3   173  U173        0.1813
   3711  O5'       23.2680  -16.4600   14.6330 O.3   173  U173       -0.3114
   3712  C4'       22.8440  -15.2990   12.5590 C.3   173  U173        0.1801
   3713  O4'       23.4720  -14.1580   13.1960 O.3   173  U173       -0.3306
   3714  C3'       23.9470  -15.9010   11.7020 C.3   173  U173        0.2161
   3715  O3'       23.4080  -16.6130   10.6120 O.3   173  U173       -0.2175
   3716  C2'       24.6700  -14.6520   11.2180 C.3   173  U173        0.2338
   3717  O2'       23.9990  -14.0240   10.1390 O.3   173  U173       -0.2155
   3718  C1'       24.6230  -13.7670   12.4630 C.3   173  U173        0.2421
   3719  N1        25.8570  -13.8420   13.3390 N.ar  173  U173       -0.2534
   3720  C2        27.0070  -13.1500   12.9740 C.ar  173  U173        0.3546
   3721  O2        27.1030  -12.4640   11.9700 O.2   173  U173       -0.2443
   3722  N3        28.0650  -13.2870   13.8480 N.ar  173  U173       -0.1530
   3723  C4        28.0960  -14.0280   15.0220 C.ar  173  U173        0.2846
   3724  O4        29.1150  -14.0440   15.7050 O.2   173  U173       -0.2650
   3725  C5        26.8680  -14.7190   15.3400 C.ar  173  U173        0.0814
   3726  C6        25.8260  -14.6010   14.5040 C.ar  173  U173        0.0870
   3727  OP1       21.9770  -18.3680   15.6960 O.2   173  U173       -0.5172
   3728  OP2       24.1730  -17.5320   16.6870 O.co2 173  U173       -0.4373
@<TRIPOS>BOND
     1  1040  1019    2
     2  1003  1019    1
     3  1003  1002    1
     4  1017   997    2
     5  1019  1021    1
     6  1019  1041    1
     7   998  1000    1
     8   998   999    1
     9  1020  1021    1
    10  1020  1022    1
    11  1000  1002    1
    12  1000  1001    1
    13  1063  1042    2
    14  1005  1004    1
    15  1002  1004    1
    16   980   997    1
    17   980   979    1
    18   997   999    1
    19   997  1018    1
    20   982   981    1
    21  1025  1042    1
    22  1025  1024    1
    23  1022  1024    1
    24  1022  1023    1
    25  1001  1006    1
    26   861   843    2
    27  1004  1006    1
    28   862   843    1
    29  1042  1064    1
    30  1042  1044    1
    31   881   863    2
    32  1024  1026    1
    33  1006  1016    1
    34   843   827    1
    35   843   845    1
    36   977   979    1
    37   977   975    1
    38   977   978    1
    39   979   981    1
    40  1023  1028    1
    41   981   983    1
    42   975   976    1
    43  1044  1043    1
    44   844   845    1
    45   844   846    1
    46  1027  1026    1
    47   841   821    2
    48   827   826    1
    49   863   882    1
    50   863   849    1
    51   863   865    1
    52  1026  1028    1
    53   978   983    1
    54   848   849    1
    55   848   846    1
    56   848   850    1
    57   995   974    2
    58  1016  1015   ar
    59  1016  1010   ar
    60   983   994    1
    61  1028  1039    1
    62  1015  1014   ar
    63  1043  1045    1
    64   826   824    1
    65   826   828    1
    66   976   974    1
    67   846   847    1
    68   850   851    1
    69   850   852    1
    70  1038  1039   ar
    71  1038  1037   ar
    72   842   821    1
    73   865   864    1
    74   821   823    1
    75   821   807    1
    76   959   958    1
    77   974   957    1
    78   974   996    1
    79  1039  1033   ar
    80  2138  2137    1
    81   829   828    1
    82   822   823    1
    83   822   824    1
    84  1010  1009   ar
    85  1010  1011   ar
    86   987   988   ar
    87   987   985   ar
    88   824   825    1
    89   994   988   ar
    90   994   993   ar
    91   828   830    1
    92  1009  1008   ar
    93   957   956    1
    94   986   985    1
    95  1014  1011   ar
    96  1045  1046    1
    97  1045  1047    1
    98  1085  1065    2
    99  1037  1034   ar
   100   847   852    1
   101   988   989   ar
   102   852   853    1
   103   963   962    1
   104   985   984   ar
   105   958   956    1
   106   958   960    1
   107   807   806    1
   108  1011  1012   ar
   109  1046  1051    1
   110   864   866    1
   111  1086  1065    1
   112   860   853   ar
   113   860   859   ar
   114  2139  2137    1
   115  2139  2134    1
   116  2139  2140    1
   117  2142  2141    2
   118  2137  2135    1
   119  2134  2133    1
   120  1033  1034   ar
   121  1033  1032   ar
   122   993   992   ar
   123  2133  2135    1
   124  2133  2131    1
   125   956   954    1
   126  1065  1048    1
   127  1065  1067    1
   128  1048  1047    1
   129   853   854   ar
   130  2118  2117    1
   131  1008  1007   ar
   132  2154  2153    1
   133  2154  2159    1
   134  2153  2151    1
   135  2153  2155    1
   136  2151  2152    1
   137   825   830    1
   138  1047  1049    1
   139   830   840    1
   140  2122  2121    2
   141  1034  1035   ar
   142   859   857   ar
   143  2136  2135    1
   144  2136  2150    1
   145  2158  2157    1
   146   964   962   ar
   147   964   965   ar
   148  1061  1060   ar
   149  1061  1062   ar
   150   962   961   ar
   151   866   867    1
   152   866   868    1
   153   867   872    1
   154   989   992   ar
   155   989   990   ar
   156  1032  1030   ar
   157   960   955    1
   158   960   971    1
   159   984   990   ar
   160   954   955    1
   161   954   952    1
   162  2141  2140   ar
   163  2141  2143   ar
   164  2131  2132    1
   165  2168  2150    2
   166  2140  2147   ar
   167   806   808    1
   168   806   804    1
   169  1012  1007   ar
   170  1012  1013    1
   171  2159  2157    1
   172  2159  2160    1
   173  1060  1057   ar
   174   809   808    1
   175  1051  1062    1
   176  1051  1049    1
   177   854   855    2
   178   854   856   ar
   179  2152  2150    1
   180  2157  2155    1
   181   819   801    2
   182  2119  2117    1
   183  2119  2114    1
   184  2119  2120    1
   185  1062  1056   ar
   186  2150  2169    1
   187  2156  2155    1
   188  2156  2170    1
   189  2117  2115    1
   190   840   839   ar
   191   840   834   ar
   192  2121  2120   ar
   193  2121  2123   ar
   194   857   856   ar
   195   857   858    2
   196   965   971   ar
   197   965   966   ar
   198   990   991    2
   199  1049  1050    1
   200   839   838   ar
   201   961   967   ar
   202  1898  1877    2
   203  1067  1066    1
   204   971   970   ar
   205   808   810    1
   206  1035  1036    2
   207  1035  1029   ar
   208   802   804    1
   209   802   803    1
   210   804   805    1
   211  1918  1900    2
   212  2143  2144   ar
   213   872   873    1
   214   872   870    1
   215   952   953    1
   216  2114  2113    1
   217   868   869    1
   218   868   870    1
   219  1030  1029   ar
   220  1030  1031    1
   221  1124  1123    2
   222   904   883    2
   223   869   883    1
   224  2147  2146   ar
   225  2120  2127   ar
   226  2123  2124   ar
   227  2132  2130    1
   228   803   801    1
   229  1878  1880    1
   230  1878  1879    1
   231  2160  2167   ar
   232  2160  2161   ar
   233   880   873   ar
   234   880   879   ar
   235   903   883    1
   236   873   874   ar
   237  1066  1068    1
   238  1057  1056   ar
   239  1057  1058   ar
   240  1863  1877    1
   241  1863  1862    1
   242  2191  2170    2
   243  2113  2115    1
   244  2113  2111    1
   245  2116  2115    1
   246  2116  2130    1
   247   883   885    1
   248  2162  2161    2
   249   801   820    1
   250   801   787    1
   251   966   967   ar
   252   966   969   ar
   253   834   833   ar
   254   834   835   ar
   255  2102  2101    2
   256   879   877   ar
   257  1056  1055   ar
   258   838   835   ar
   259  2171  2172    1
   260  2171  2173    1
   261   967   968    2
   262  2167  2166   ar
   263  1123  1125   ar
   264  1123  1122   ar
   265  1865  1864    1
   266   953   951    1
   267  1883  1900    1
   268  1883  1882    1
   269  2170  2172    1
   270  2170  2192    1
   271   874   875    2
   272   874   876   ar
   273  1108  1087    2
   274  1877  1879    1
   275  1877  1899    1
   276  1880  1882    1
   277  1880  1881    1
   278   870   871    1
   279   970   969   ar
   280  2161  2163   ar
   281  2382  2384    1
   282  2382  2383    1
   283  2144  2146   ar
   284  2144  2145    1
   285   833   832   ar
   286  2384  2385    1
   287  2384  2386    1
   288   972   951    2
   289  1125  1126   ar
   290  1122  1120   ar
   291  1900  1919    1
   292  1900  1902    1
   293   877   876   ar
   294   877   878    1
   295   810   805    1
   296   810   811    1
   297  2389  2388    1
   298  1103  1102    1
   299  2148  2130    2
   300  2130  2149    1
   301  1860  1858    1
   302  1860  1862    1
   303  1860  1861    1
   304   922   921    2
   305  2938  2920    2
   306  2124  2125    1
   307  2124  2126   ar
   308   835   836   ar
   309  2173  2174    1
   310  2173  2175    1
   311  2174  2179    1
   312  2127  2126   ar
   313  1059  1058    2
   314  1858  1859    1
   315  2385  2390    1
   316  2387  2386    1
   317  2387  2401    1
   318  1058  1052   ar
   319  1117  1116    1
   320  2419  2401    2
   321  1862  1864    1
   322   787   786    1
   323  3468  3447    2
   324  1882  1884    1
   325  2101  2103   ar
   326  2101  2100   ar
   327  1126  1119   ar
   328  2400  2381    2
   329   951   973    1
   330   951   934    1
   331  1120  1121    2
   332  1120  1119   ar
   333  1083  1082   ar
   334  1083  1084   ar
   335  2166  2164   ar
   336  1082  1079   ar
   337  1885  1884    1
   338  2904  2920    1
   339  2904  2903    1
   340   940   939    1
   341  2103  2104   ar
   342  2899  2901    1
   343  2899  2900    1
   344  2111  2112    1
   345  1055  1053   ar
   346  1068  1069    1
   347  1068  1070    1
   348  1864  1866    1
   349  1881  1886    1
   350  2906  2905    1
   351  2383  2381    1
   352  2901  2903    1
   353  2901  2902    1
   354  2386  2388    1
   355  2098  2097    1
   356  1901  1902    1
   357  1901  1903    1
   358  2163  2164   ar
   359  1875  1857    2
   360  1104  1101   ar
   361  1104  1105   ar
   362  1119  1118    1
   363   885   884    1
   364   811   818   ar
   365   811   812   ar
   366  1087  1107    1
   367  1087  1071    1
   368  1087  1089    1
   369  2388  2390    1
   370   832   831   ar
   371  1861  1866    1
   372  1069  1074    1
   373  2390  2391    1
   374   921   915   ar
   375   921   920   ar
   376  2921  2922    1
   377  2921  2923    1
   378  2886  2885    1
   379  2918  2898    2
   380  2401  2403    1
   381  2401  2420    1
   382  3425  3427    1
   383  3425  3426    1
   384  2920  2922    1
   385  2920  2939    1
   386   818   817   ar
   387  1102  1101   ar
   388  1102  1097   ar
   389  3430  3447    1
   390  3430  3429    1
   391  1116  1118    1
   392  1116  1114    1
   393  1070  1071    1
   394  1070  1072    1
   395  2402  2403    1
   396  2402  2404    1
   397  2164  2165    1
   398  3490  3470    2
   399  3448  3450    1
   400  3448  3449    1
   401   915   916   ar
   402  3445  3424    2
   403  1884  1886    1
   404   813   812    2
   405  2179  2190    1
   406  2179  2177    1
   407  2381  2399    1
   408  2381  2364    1
   409   836   831   ar
   410   836   837    1
   411  2903  2905    1
   412   789   788    1
   413  2606  2605    1
   414  2902  2907    1
   415  1052  1053   ar
   416  1866  1867    1
   417   927   905    2
   418  2097  2099    1
   419  2097  2095    1
   420  1859  1857    1
   421  3427  3429    1
   422  3427  3428    1
   423  1842  1841    1
   424  3412  3411    1
   425  3432  3431    1
   426   934   933    1
   427  1101  1100   ar
   428   812   814   ar
   429  2175  2176    1
   430  2175  2177    1
   431   939   941   ar
   432   939   938   ar
   433  1053  1054    1
   434  3447  3449    1
   435  3447  3469    1
   436  1118  1113    1
   437  2099  2100    1
   438  2099  2094    1
   439   786   788    1
   440   786   784    1
   441  2100  2107   ar
   442  2112  2110    1
   443   884   886    1
   444  1886  1897    1
   445  2105  2104    2
   446  2884  2898    1
   447  2884  2883    1
   448  2176  2193    1
   449  2905  2907    1
   450  1105  1106   ar
   451  2104  2106   ar
   452  1084  1074    1
   453  1084  1078   ar
   454   936   935    1
   455  3115  3114    1
   456  2189  2190   ar
   457  2189  2188   ar
   458  1161  1160    1
   459  2178  2177    1
   460  1079  1080   ar
   461  1079  1078   ar
   462  2923  2924    1
   463  2923  2925    1
   464  2900  2898    1
   465  2619  2621    1
   466  2619  2620    1
   467   920   923   ar
   468   920   919   ar
   469  1857  1840    1
   470  1857  1876    1
   471  1089  1088    1
   472  1081  1080    1
   473  1940  1920    2
   474   788   790    1
   475  3450  3452    1
   476  3450  3451    1
   477  3410  3424    1
   478  3410  3409    1
   479   923   924   ar
   480   941   942   ar
   481  3453  3470    1
   482  3453  3452    1
   483   938   944   ar
   484   817   815   ar
   485  2190  2184   ar
   486  2639  2618    2
   487  1903  1904    1
   488  1903  1905    1
   489  1074  1072    1
   490  2898  2919    1
   491  3429  3431    1
   492  1097  1098   ar
   493  1840  1839    1
   494  2404  2405    1
   495  2404  2406    1
   496   935   933    1
   497   935   937    1
   498  2907  2917    1
   499  2958  2940    2
   500  1128  1109    2
   501  2621  2622    1
   502  2621  2623    1
   503   916   917    1
   504   916   918   ar
   505  1159  1160   ar
   506  1159  1165   ar
   507  2604  2618    1
   508  2604  2603    1
   509  1184  1183    1
   510  3424  3426    1
   511  3424  3446    1
   512  3470  3491    1
   513  3470  3472    1
   514  2391  2398   ar
   515  2391  2392   ar
   516  2083  2081   ar
   517  2083  2084   ar
   518  2082  2081    2
   519  2085  2084    1
   520  1941  1920    1
   521  2885  2883    1
   522  2885  2887    1
   523  2926  2925    1
   524  2926  2940    1
   525  3428  3433    1
   526   814   815   ar
   527  3128  3130    1
   528  3128  3129    1
   529  2211  2193    2
   530  1114  1115    1
   531  1114  1112    1
   532  1072  1073    1
   533   933   931    1
   534  1160  1162   ar
   535  1080  1075   ar
   536   784   782    1
   537   784   785    1
   538  2881  2883    1
   539  2881  2882    1
   540  2881  2879    1
   541  3431  3433    1
   542  1906  1920    1
   543  1906  1905    1
   544  2924  2929    1
   545   799   781    2
   546   888   886    1
   547   888   890    1
   548   888   889    1
   549  2188  2185   ar
   550  1846  1845    1
   551  1841  1839    1
   552  1841  1843    1
   553  1078  1077   ar
   554  3130  3131    1
   555  3130  3132    1
   556  1166  1165    2
   557  2364  2363    1
   558   815   816    1
   559  1115  1129    1
   560  1920  1922    1
   561  2405  2410    1
   562  2601  2603    1
   563  2601  2602    1
   564  2601  2599    1
   565  2193  2212    1
   566  2193  2195    1
   567  2370  2369    1
   568  2605  2603    1
   569  2605  2607    1
   570  2626  2625    1
   571  2624  2623    1
   572  2624  2641    1
   573  2393  2392    2
   574   782   783    1
   575  3411  3409    1
   576  3411  3413    1
   577  2398  2397   ar
   578  3525  3526   ar
   579  3525  3530   ar
   580  3452  3454    1
   581  2094  2093    1
   582   905   926    1
   583   905   889    1
   584   905   907    1
   585  3407  3409    1
   586  3407  3405    1
   587  3407  3408    1
   588  2107  2106   ar
   589  1904  1909    1
   590  2622  2627    1
   591  3135  3134    1
   592  2662  2641    2
   593  2095  2096    1
   594  2095  2093    1
   595  1100  1106   ar
   596  1100  1099   ar
   597  1867  1874   ar
   598  1867  1868   ar
   599   886   887    1
   600  1165  1164   ar
   601   919   918   ar
   602   919   925   ar
   603  2065  2064    1
   604  1897  1896   ar
   605  1897  1891   ar
   606  3113  3112    1
   607  3113  3127    1
   608  3451  3456    1
   609  3148  3127    2
   610  1113  1112    1
   611  2618  2620    1
   612  2618  2640    1
   613  2925  2927    1
   614  1905  1907    1
   615  1106  1096    1
   616   942   943   ar
   617   942   948   ar
   618   890   891    1
   619   890   892    1
   620  2081  2080   ar
   621  2940  2959    1
   622  2940  2942    1
   623  2096  2110    1
   624  2407  2406    1
   625  2407  2421    1
   626   944   945    2
   627   944   943   ar
   628   924   925   ar
   629  1896  1895   ar
   630  2084  2086   ar
   631  3131  3136    1
   632  2184  2185   ar
   633  2184  2183   ar
   634    32    31    1
   635  1183  1185   ar
   636  1183  1182   ar
   637  3433  3444    1
   638  2110  2128    2
   639  2110  2129    1
   640  2887  2882    1
   641  2887  2888    1
   642  1839  1837    1
   643  1869  1868    2
   644  1111  1109    1
   645  1111  1110    1
   646  3114  3112    1
   647  3114  3116    1
   648  3531  3530    1
   649  1147  1129    2
   650  2439  2421    2
   651  2879  2880    1
   652  2392  2394   ar
   653  2346  2345    1
   654  3526  3527   ar
   655  1088  1090    1
   656  2602  2607    1
   657  3133  3132    1
   658  3133  3150    1
   659  3110  3112    1
   660  3110  3111    1
   661  3110  3108    1
   662  2623  2625    1
   663  1162  1163   ar
   664  3405  3406    1
   665  2045  2044    2
   666  2406  2408    1
   667   783   781    1
   668  2599  2600    1
   669  1098  1099   ar
   670  2607  2608    1
   671  2928  2927    1
   672  3455  3454    1
   673   901   900   ar
   674   901   902   ar
   675  3471  3472    1
   676  3471  3473    1
   677  2185  2186   ar
   678  1109  1127    1
   679  1109  1093    1
   680   790   785    1
   681   790   791    1
   682  2093  2091    1
   683  1847  1845   ar
   684  1847  1848   ar
   685  1874  1873   ar
   686   937   948    1
   687   937   932    1
   688  1148  1129    1
   689  1185  1186   ar
   690  1112  1110    1
   691   943   946   ar
   692  2363  2365    1
   693  2363  2361    1
   694  1182  1188   ar
   695  2917  2916   ar
   696  2917  2911   ar
   697   887   892    1
   698  1129  1131    1
   699  3530  3529   ar
   700  3171  3150    2
   701  1868  1870   ar
   702  1845  1844   ar
   703   925   914    1
   704  3129  3127    1
   705  3408  3413    1
   706   948   947   ar
   707   907   906    1
   708  2183  2181   ar
   709  3132  3134    1
   710  3413  3414    1
   711  2625  2627    1
   712   793   792    2
   713   781   800    1
   714   781   767    1
   715  3127  3149    1
   716  2584  2583    1
   717  3111  3116    1
   718  2641  2643    1
   719  2641  2663    1
   720  2627  2638    1
   721  1843  1838    1
   722  1843  1854    1
   723  3116  3117    1
   724  1164  1163   ar
   725  1164  1167   ar
   726  1837  1838    1
   727  1837  1835    1
   728  2043  2044   ar
   729  2043  2041   ar
   730   931   932    1
   731   931   929    1
   732  2642  2643    1
   733  2642  2644    1
   734  2421  2440    1
   735  2421  2423    1
   736  3136  3134    1
   737  3136  3147    1
   738  2369  2371   ar
   739  2369  2368   ar
   740  3454  3456    1
   741  2929  2927    1
   742  2929  2930    1
   743  2890  2889    2
   744  1075  1076   ar
   745  1092  1090    1
   746  1092  1093    1
   747  1092  1094    1
   748  1163  1169   ar
   749   900   897   ar
   750  1077  1076   ar
   751  3108  3109    1
   752  2409  2408    1
   753  1091  1090    1
   754  1091  1096    1
   755  2410  2408    1
   756  2410  2411    1
   757  2397  2395   ar
   758  2379  2358    2
   759  1207  1206    1
   760   892   902    1
   761  2044  2046   ar
   762  2064  2063   ar
   763  2064  2066   ar
   764  3456  3467    1
   765  1908  1907    1
   766  2063  2061   ar
   767  2195  2194    1
   768  1917  1916   ar
   769  1917  1910   ar
   770   791   792   ar
   771   791   798   ar
   772  2916  2915   ar
   773  1891  1890   ar
   774  1891  1892   ar
   775  1909  1907    1
   776  1909  1910    1
   777  2042  2041    2
   778  1096  1094    1
   779   792   794   ar
   780  1922  1921    1
   781  2371  2372   ar
   782  1895  1892   ar
   783  2359  2361    1
   784  2359  2360    1
   785  2610  2609    2
   786  1203  1202    1
   787   913   912    1
   788   902   896   ar
   789  3150  3172    1
   790  3150  3152    1
   791   912   914    1
   792   912   910    1
   793  2194  2196    1
   794  2864  2863    1
   795  2344  2358    1
   796  2344  2343    1
   797  1186  1187   ar
   798  1186  1192   ar
   799  2080  2087   ar
   800  2080  2079    1
   801  2365  2366    1
   802  2365  2367    1
   803  1188  1189    2
   804  1188  1187   ar
   805  3527  3528   ar
   806  2942  2941    1
   807  2910  2911   ar
   808  2910  2909   ar
   809  2394  2395   ar
   810  3119  3118    2
   811  2086  2087   ar
   812  2368  2374   ar
   813    31    33    1
   814    31    29    1
   815  3416  3415    2
   816   946   947   ar
   817  3093  3092    1
   818  2888  2889   ar
   819  2888  2895   ar
   820  2186  2187    2
   821  2186  2180   ar
   822  2041  2040   ar
   823  1890  1888   ar
   824  3444  3443   ar
   825  3444  3438   ar
   826    48    50    1
   827    48    49    1
   828  2361  2362    1
   829  2911  2912   ar
   830  3422  3404    2
   831  1848  1854   ar
   832  1848  1849   ar
   833  1167  1168   ar
   834  1208  1206   ar
   835  1208  1209   ar
   836  2880  2878    1
   837    30    29    1
   838    30    47    1
   839  2941  2943    1
   840   929   930    1
   841  1180  1179    1
   842  2345  2347    1
   843  2345  2343    1
   844  1094  1095    1
   845  2937  2930   ar
   846  2937  2936   ar
   847  1206  1205   ar
   848  3406  3404    1
   849  2418  2411   ar
   850  2418  2417   ar
   851  2896  2878    2
   852  2181  2180   ar
   853  2181  2182    1
   854  1823  1822    1
   855    50    51    1
   856    50    52    1
   857  1916  1914   ar
   858  2889  2891   ar
   859  1854  1853   ar
   860  2600  2598    1
   861  1873  1871   ar
   862  3389  3388    1
   863    65    47    2
   864  1204  1199    1
   865  1204  1202    1
   866  1204  1215    1
   867  1844  1850   ar
   868   914   909    1
   869  2644  2645    1
   870  2644  2646    1
   871   798   797   ar
   872  3473  3475    1
   873  3473  3474    1
   874  1181  1192    1
   875  1181  1179    1
   876  1181  1176    1
   877  3151  3152    1
   878  3151  3153    1
   879    27    28    1
   880    27    29    1
   881    27    25    1
   882  2608  2609   ar
   883  2608  2615   ar
   884  1835  1836    1
   885    33    28    1
   886    33    44    1
   887  1169  1168   ar
   888  1169  1158    1
   889  1921  1923    1
   890  1910  1911   ar
   891  1187  1190   ar
   892  2395  2396    1
   893  3529  3528   ar
   894  3529  3532   ar
   895  2341  2342    1
   896  2341  2343    1
   897  2341  2339    1
   898   794   795   ar
   899   767   766    1
   900  2930  2931   ar
   901  3393  3392    1
   902  1870  1871   ar
   903  2091  2092    1
   904  1192  1191   ar
   905  1892  1893   ar
   906  2347  2342    1
   907  2347  2348    1
   908  2411  2412   ar
   909  2583  2585    1
   910  2583  2581    1
   911   906   908    1
   912  2358  2360    1
   913  2358  2380    1
   914  1131  1130    1
   915  3414  3415   ar
   916  3414  3421   ar
   917    55    54    1
   918    51    56    1
   919  1226  1225    1
   920  2638  2637   ar
   921  2638  2632   ar
   922  2079  2077    1
   923  2079  2074    1
   924  2609  2611   ar
   925  2209  2210   ar
   926  2209  2207   ar
   927  2078  2077    1
   928  3443  3442   ar
   929  1199  1198    1
   930  3117  3118   ar
   931  3117  3124   ar
   932  3147  3146   ar
   933  3147  3141   ar
   934    36    35    1
   935  3528  3534   ar
   936  2645  2650    1
   937  2197  2196    1
   938  2197  2202    1
   939  2423  2422    1
   940  2077  2075    1
   941  2980  2960    2
   942  1202  1200    1
   943   930   928    1
   944  2046  2047   ar
   945  3467  3466   ar
   946  3467  3461   ar
   947  2210  2203   ar
   948  2066  2067   ar
   949  1209  1215   ar
   950  1209  1210   ar
   951  3466  3465   ar
   952   897   896   ar
   953   897   898   ar
   954  2588  2587   ar
   955  2588  2589   ar
   956  2061  2062    2
   957  2061  2060   ar
   958  2350  2349    2
   959  3415  3417   ar
   960  2616  2598    2
   961  1158  1156    1
   962  1158  1153    1
   963  3109  3107    1
   964   910   908    1
   965   910   911    1
   966  2582  2598    1
   967  2582  2581    1
   968  2092  2090    1
   969  1179  1177    1
   970  1205  1211   ar
   971  1215  1214   ar
   972  2372  2378   ar
   973  2372  2373   ar
   974  1222  1227    1
   975  1222  1221    1
   976  3118  3120   ar
   977  2422  2424    1
   978  1176  1175    1
   979  3437  3438   ar
   980  3437  3435   ar
   981  1145  1146   ar
   982  1145  1143   ar
   983   797   795   ar
   984    37    35   ar
   985    37    38   ar
   986  2587  2586   ar
   987  3404  3387    1
   988  3404  3423    1
   989  2327  2328   ar
   990  2327  2326   ar
   991   795   796    1
   992    13    12    1
   993  2878  2862    1
   994  2878  2897    1
   995  2915  2912   ar
   996  3475  3476    1
   997  3475  3477    1
   998   909   908    1
   999  3513  3492    2
  1000    47    49    1
  1001    47    66    1
  1002  2863  2865    1
  1003  2863  2861    1
  1004  2196  2198    1
  1005   896   895   ar
  1006    53    52    1
  1007    53    67    1
  1008  3438  3439   ar
  1009  2936  2934   ar
  1010  2417  2415   ar
  1011  2895  2894   ar
  1012  1871  1872    2
  1013  1144  1143    1
  1014  2374  2373   ar
  1015  2374  2375    2
  1016  2909  2908   ar
  1017  3153  3154    1
  1018  3153  3155    1
  1019  1227  1225    1
  1020  1227  1238    1
  1021  2040  2047   ar
  1022  2040  2039    1
  1023  2637  2636   ar
  1024  3474  3479    1
  1025  2862  2861    1
  1026  2585  2580    1
  1027  2585  2595    1
  1028  2598  2617    1
  1029    25    26    1
  1030  1190  1191   ar
  1031  2912  2913   ar
  1032  3387  3386    1
  1033  2367  2362    1
  1034  2367  2378    1
  1035  3092  3094    1
  1036  3092  3090    1
  1037  1849  1850   ar
  1038  1849  1852   ar
  1039  3097  3096   ar
  1040  3097  3098   ar
  1041  2339  2340    1
  1042  3146  3145   ar
  1043   769   768    1
  1044  2868  2867   ar
  1045  2868  2869   ar
  1046  3096  3095   ar
  1047  2615  2614   ar
  1048     9     8    1
  1049  1888  1889    1
  1050  1888  1887   ar
  1051  2647  2646    1
  1052  2647  2664    1
  1053  3388  3386    1
  1054  3388  3390    1
  1055  2867  2866   ar
  1056    52    54    1
  1057  2208  2207    1
  1058  2328  2329   ar
  1059    56    54    1
  1060    56    57    1
  1061  1221  1219    1
  1062  1221  1223    1
  1063  3532  3533   ar
  1064  1836  1834    1
  1065  1850  1851    2
  1066  1822  1821   ar
  1067  1822  1824   ar
  1068    85    67    2
  1069  2207  2206   ar
  1070  3125  3107    2
  1071  2581  2579    1
  1072    35    34   ar
  1073  2631  2632   ar
  1074  2631  2629   ar
  1075  2324  2323    1
  1076  3154  3159    1
  1077  1210  1211   ar
  1078  1210  1213   ar
  1079  3140  3141   ar
  1080  3140  3138   ar
  1081  1198  1200    1
  1082  1198  1196    1
  1083  2943  2944    1
  1084  2943  2945    1
  1085  1853  1852   ar
  1086  3421  3420   ar
  1087  2891  2892   ar
  1088  1146  1139   ar
  1089  3392  3394   ar
  1090  3392  3391   ar
  1091  2378  2377   ar
  1092  2646  2648    1
  1093    44    38   ar
  1094    44    43   ar
  1095  2373  2376   ar
  1096  1211  1212    2
  1097  1157  1156    1
  1098  3091  3107    1
  1099  3091  3090    1
  1100  3514  3492    1
  1101  1156  1154    1
  1102  2632  2633   ar
  1103  1914  1915    1
  1104  1914  1913   ar
  1105   766   768    1
  1106   766   764    1
  1107  3394  3395   ar
  1108  1130  1132    1
  1109  3141  3142   ar
  1110  1214  1213   ar
  1111  1225  1223    1
  1112  2203  2202    1
  1113  2203  2204   ar
  1114  1143  1142   ar
  1115  1964  1942    2
  1116  2326  2331   ar
  1117  2931  2932    2
  1118  2931  2933   ar
  1119  2579  2580    1
  1120  2579  2577    1
  1121  3124  3123   ar
  1122  1911  1913   ar
  1123  1911  1912    2
  1124  3476  3492    1
  1125  1153  1152    1
  1126   768   770    1
  1127  2348  2349   ar
  1128  2348  2355   ar
  1129   899   898    1
  1130  2412  2413    2
  1131  2412  2414   ar
  1132  2349  2351   ar
  1133    38    39   ar
  1134  3492  3494    1
  1135  2685  2664    2
  1136  3477  3479    1
  1137  3477  3478    1
  1138  1923  1924    1
  1139  1923  1925    1
  1140  3107  3126    1
  1141  2202  2200    1
  1142  1893  1887   ar
  1143  1893  1894    2
  1144  1821  1827   ar
  1145   898   893   ar
  1146  2865  2860    1
  1147  2865  2875    1
  1148  2861  2859    1
  1149  2074  2073    1
  1150  2944  2949    1
  1151  3488  3487   ar
  1152  3488  3489   ar
  1153  2067  2060   ar
  1154  3442  3439   ar
  1155  2611  2612   ar
  1156  2589  2595   ar
  1157  2589  2590   ar
  1158  2649  2648    1
  1159  1175  1177    1
  1160  1175  1173    1
  1161  3465  3462   ar
  1162   911   928    1
  1163  2060  2059    1
  1164  1219  1220    1
  1165  3534  3533   ar
  1166  3534  3524    1
  1167  1200  1201    1
  1168  3094  3089    1
  1169  3094  3104    1
  1170  1231  1232   ar
  1171  1231  1229   ar
  1172  2650  2648    1
  1173  2650  2661    1
  1174  3461  3460   ar
  1175  3461  3462   ar
  1176  2960  2981    1
  1177  2960  2946    1
  1178  2960  2962    1
  1179  2039  2034    1
  1180  2039  2037    1
  1181  3435  3436    1
  1182  3435  3434   ar
  1183  2586  2591   ar
  1184  1938  1937   ar
  1185  1938  1939   ar
  1186  3386  3384    1
  1187  1824  1825   ar
  1188  2075  2076    1
  1189  2075  2073    1
  1190  3417  3418   ar
  1191    12    14   ar
  1192    12    11   ar
  1193  1238  1232   ar
  1194  1238  1237   ar
  1195    67    69    1
  1196    67    86    1
  1197   928   950    2
  1198   928   949    1
  1199  3120  3121   ar
  1200  2595  2594   ar
  1201    14    15   ar
  1202  1230  1229    1
  1203  3439  3440   ar
  1204  3090  3088    1
  1205  1937  1934   ar
  1206   895   894   ar
  1207  1963  1942    1
  1208  1177  1178    1
  1209  3717  3716    1
  1210  2198  2199    1
  1211  2198  2200    1
  1212  1924  1929    1
  1213  3479  3489    1
  1214  2424  2425    1
  1215  2424  2426    1
  1216  1855  1834    2
  1217    68    69    1
  1218    68    70    1
  1219  1819  1818    1
  1220  2908  2913   ar
  1221  2034  2033    1
  1222  2894  2892   ar
  1223  2206  2204   ar
  1224  2934  2933   ar
  1225  2934  2935    1
  1226  3095  3100   ar
  1227  2415  2414   ar
  1228  2415  2416    1
  1229  3156  3155    1
  1230  3156  3173    1
  1231  1223  1224    1
  1232  2664  2686    1
  1233  2664  2666    1
  1234  2090  2109    2
  1235  2090  2076    1
  1236  2090  2108    1
  1237  3523  3522    1
  1238  2866  2871   ar
  1239  2913  2914    1
  1240  3390  3385    1
  1241  3390  3401    1
  1242  1201  1218    1
  1243  2636  2633   ar
  1244  2025  2024    2
  1245  2204  2205    2
  1246  2859  2860    1
  1247  2859  2857    1
  1248  1925  1926    1
  1249  1925  1927    1
  1250  2869  2875   ar
  1251  2869  2870   ar
  1252  3487  3484   ar
  1253  3460  3458   ar
  1254  3155  3157    1
  1255  1232  1233   ar
  1256  3098  3104   ar
  1257  3098  3099   ar
  1258  1245  1244    1
  1259  1245  1250    1
  1260     8    10    1
  1261     8     6    1
  1262  2425  2430    1
  1263  3145  3142   ar
  1264  1942  1926    1
  1265  1942  1944    1
  1266    26    24    1
  1267  1229  1228   ar
  1268  1196  1197    1
  1269  1224  1241    1
  1270  2945  2946    1
  1271  2945  2947    1
  1272  3158  3157    1
  1273  3391  3397   ar
  1274  2957  2956   ar
  1275  2957  2950   ar
  1276  3138  3139    1
  1277  3138  3137   ar
  1278  2323  2325    1
  1279  2323  2321    1
  1280  2629  2630    1
  1281  2629  2628   ar
  1282  2614  2612   ar
  1283  2377  2376   ar
  1284  2892  2893    2
  1285  3489  3483   ar
  1286  3088  3089    1
  1287  3088  3086    1
  1288  2340  2338    1
  1289  2660  2661   ar
  1290  2660  2659   ar
  1291    57    64   ar
  1292    57    58   ar
  1293  3384  3385    1
  1294  3384  3382    1
  1295  1834  1817    1
  1296  1834  1856    1
  1297  2329  2335   ar
  1298  2329  2330   ar
  1299    43    42   ar
  1300  2633  2634   ar
  1301    34    40   ar
  1302  3159  3157    1
  1303  3159  3170    1
  1304  3715  3714    1
  1305   764   762    1
  1306   764   765    1
  1307  3142  3143   ar
  1308  3420  3418   ar
  1309  3462  3463   ar
  1310  2875  2874   ar
  1311  2023  2024   ar
  1312  2023  2021   ar
  1313  3193  3173    2
  1314  2463  2441    2
  1315  3524  3522    1
  1316  3524  3519    1
  1317  2956  2954   ar
  1318  2073  2071    1
  1319  3395  3401   ar
  1320  3395  3396   ar
  1321  1237  1236   ar
  1322  3104  3103   ar
  1323  1139  1138    1
  1324  1139  1140   ar
  1325  2661  2655   ar
  1326  2355  2354   ar
  1327  2577  2578    1
  1328  2199  2213    1
  1329  1142  1140   ar
  1330  3123  3121   ar
  1331  1178  1195    1
  1332  1154  1152    1
  1333  1154  1155    1
  1334  1244  1242    1
  1335  1244  1246    1
  1336  1132  1133    1
  1337  1132  1134    1
  1338  2612  2613    2
  1339  2325  2335    1
  1340  2325  2320    1
  1341  2200  2201    1
  1342    10    21    1
  1343    10     5    1
  1344  1242  1243    1
  1345  2331  2330   ar
  1346  2331  2332    1
  1347  2351  2352   ar
  1348  1818  1816    1
  1349  1818  1820    1
  1350    64    63   ar
  1351  2962  2961    1
  1352  1152  1150    1
  1353  1220  1218    1
  1354  2022  2021    2
  1355    39    40   ar
  1356    39    42   ar
  1357  2024  2026   ar
  1358  1827  1828    2
  1359  1827  1826   ar
  1360   893   894   ar
  1361   773   772    2
  1362  1133  1138    1
  1363  1173  1174    1
  1364  3418  3419    2
  1365  1136  1134    1
  1366  1136  1138    1
  1367  1136  1137    1
  1368  2004  2003    2
  1369    59    58    2
  1370    11    17   ar
  1371  3121  3122    1
  1372  2568  2567    2
  1373   762   763    1
  1374  2590  2591   ar
  1375  2590  2593   ar
  1376  1134  1135    1
  1377  1250  1260    1
  1378  1250  1248    1
  1379    70    71    1
  1380    70    72    1
  1381  2591  2592    1
  1382  2232  2213    2
  1383  1939  1929    1
  1384  1939  1933   ar
  1385  3401  3400   ar
  1386  3434  3440   ar
  1387   770   771    1
  1388   770   765    1
  1389  2059  2057    1
  1390  2059  2054    1
  1391  2949  2950    1
  1392  2949  2947    1
  1393  1825  1826   ar
  1394  1825  1831   ar
  1395  1249  1248    1
  1396  1817  1816    1
  1397  3494  3493    1
  1398     7     6    1
  1399     7    24    1
  1400  3522  3520    1
  1401  3716  3714    1
  1402  3716  3718    1
  1403  2438  2437   ar
  1404  2438  2431   ar
  1405  2426  2427    1
  1406  2426  2428    1
  1407    15    21   ar
  1408    15    16   ar
  1409  3173  3194    1
  1410  3173  3175    1
  1411  2038  2037    1
  1412  2037  2035    1
  1413  2356  2338    2
  1414  1197  1195    1
  1415  3440  3441    2
  1416    71    76    1
  1417  1233  1236   ar
  1418  1233  1234   ar
  1419  2021  2020   ar
  1420  2335  2334   ar
  1421  1929  1927    1
  1422  2462  2441    1
  1423  3169  3170   ar
  1424  3169  3168   ar
  1425    58    60   ar
  1426  2594  2593   ar
  1427  1228  1234   ar
  1428  2427  2441    1
  1429  2871  2870   ar
  1430  2871  2872    1
  1431    45    24    2
  1432  2330  2333   ar
  1433  3100  3099   ar
  1434  3100  3101    1
  1435  2950  2951   ar
  1436  2322  2338    1
  1437  2322  2321    1
  1438  1934  1933   ar
  1439  1934  1935   ar
  1440  1140  1141    2
  1441  2870  2873   ar
  1442   772   771   ar
  1443   772   774   ar
  1444  2437  2435   ar
  1445    40    41    2
  1446  2441  2443    1
  1447  3170  3164   ar
  1448  2057  2058    1
  1449  2057  2055    1
  1450  3099  3102   ar
  1451  2033  2035    1
  1452  2033  2031    1
  1453  2659  2656   ar
  1454     6     4    1
  1455  3484  3483   ar
  1456  3484  3485   ar
  1457  2666  2665    1
  1458    24    46    1
  1459  1218  1239    2
  1460  1218  1240    1
  1461   763   761    1
  1462  1174  1172    1
  1463  3382  3383    1
  1464  3137  3143   ar
  1465   771   778   ar
  1466  2338  2357    1
  1467  2857  2858    1
  1468  1151  1150    1
  1469  1151  1149    1
  1470  2628  2634   ar
  1471  2665  2667    1
  1472  3483  3482   ar
  1473  2947  2948    1
  1474  3458  3459    1
  1475  3458  3457   ar
  1476    21    20   ar
  1477  3714  3712    1
  1478  2072  2071    1
  1479  2072  2070    1
  1480  2228  2227    2
  1481     5     4    1
  1482  1826  1829   ar
  1483  2321  2319    1
  1484  1927  1928    1
  1485  3397  3396   ar
  1486  3397  3398    2
  1487  2564  2563    1
  1488  2213  2231    1
  1489  2213  2215    1
  1490  2430  2431    1
  1491  2430  2428    1
  1492  1816  1814    1
  1493  1936  1935    1
  1494   779   761    2
  1495  3143  3144    2
  1496  2634  2635    2
  1497  3086  3087    1
  1498  3396  3399   ar
  1499  1171  1149    2
  1500  1155  1172    1
  1501  3519  3518    1
  1502  1260  1259   ar
  1503  1260  1254   ar
  1504     4     2    1
  1505  1248  1246    1
  1506  1944  1943    1
  1507  1234  1235    2
  1508  1243  1241    1
  1509  2320  2319    1
  1510  1241  1261    2
  1511  1241  1262    1
  1512   774   775   ar
  1513  3721  3720    2
  1514  1820  1831    1
  1515  1820  1815    1
  1516  2874  2873   ar
  1517  2578  2576    1
  1518  2354  2352   ar
  1519  2961  2963    1
  1520  2954  2955    1
  1521  2954  2953   ar
  1522  1195  1217    2
  1523  1195  1216    1
  1524  3463  3457   ar
  1525  3463  3464    2
  1526  1831  1830   ar
  1527  2431  2432   ar
  1528  2352  2353    2
  1529  3103  3102   ar
  1530  1933  1932   ar
  1531  2655  2656   ar
  1532  2655  2654   ar
  1533  2026  2027   ar
  1534  2003  1997   ar
  1535  2003  2002   ar
  1536    63    61   ar
  1537  2308  2307    2
  1538  2229  2227   ar
  1539  2229  2230   ar
  1540  2567  2569   ar
  1541  2567  2566   ar
  1542  1246  1247    1
  1543  2319  2317    1
  1544  2054  2053    1
  1545  2035  2036    1
  1546  1259  1258   ar
  1547  2036  2050    1
  1548   778   777   ar
  1549  1800  1799    1
  1550  3493  3495    1
  1551  1935  1930   ar
  1552  2031  2032    1
  1553  1981  1980    1
  1554  2089  2070    2
  1555  2545  2544    1
  1556  1135  1149    1
  1557    17    16   ar
  1558    17    18    2
  1559  3521  3520    1
  1560  3521  3537    1
  1561  1997  1998   ar
  1562  3538  3540    1
  1563  3538  3539    1
  1564  2032  2030    1
  1565  3174  3175    1
  1566  3174  3176    1
  1567  2569  2570   ar
  1568  2020  2027   ar
  1569  2020  2019    1
  1570  3168  3165   ar
  1571    16    19   ar
  1572  1960  1961   ar
  1573  1960  1957   ar
  1574  2428  2429    1
  1575  2227  2226   ar
  1576  3718  3713    1
  1577  3718  3719    1
  1578   761   780    1
  1579   761   747    1
  1580  1253  1254   ar
  1581  1253  1252   ar
  1582  3400  3399   ar
  1583  2055  2053    1
  1584  2055  2056    1
  1585    72    73    1
  1586    72    74    1
  1587  1254  1255   ar
  1588  1149  1170    1
  1589    73    87    1
  1590  1247  1263    1
  1591   775   777   ar
  1592   775   776    1
  1593  3520  3518    1
  1594  2563  2565    1
  1595  2563  2561    1
  1596  3712  3713    1
  1597  3712  3710    1
  1598  3077  3076    2
  1599  2656  2657   ar
  1600    60    61   ar
  1601  2858  2856    1
  1602    76    74    1
  1603    76    77    1
  1604  2334  2333   ar
  1605  3485  3486    1
  1606  3485  3480   ar
  1607  1172  1194    2
  1608  1172  1193    1
  1609  2017  2018    1
  1610  2017  2019    1
  1611  2017  2015    1
  1612  2435  2436    2
  1613  2435  2434   ar
  1614  3373  3372    2
  1615  3482  3481   ar
  1616  2951  2953   ar
  1617  2951  2952    2
  1618  2309  2307   ar
  1619  2309  2310   ar
  1620  3383  3381    1
  1621  3164  3165   ar
  1622  3164  3163   ar
  1623  2654  2652   ar
  1624  3558  3537    2
  1625  3540  3541    1
  1626  3540  3542    1
  1627  1959  1958    2
  1628  3087  3085    1
  1629  2848  2847    2
  1630  2070  2056    1
  1631  2070  2088    1
  1632  1943  1945    1
  1633  1961  1962   ar
  1634    75    74    1
  1635  1258  1255   ar
  1636  1814  1815    1
  1637  1814  1812    1
  1638  1798  1799   ar
  1639  1798  1804   ar
  1640  3720  3719   ar
  1641  3720  3722   ar
  1642    61    62    1
  1643  1829  1830   ar
  1644  2052  2050    1
  1645  2052  2051    1
  1646  3535  3515    2
  1647  2667  2668    1
  1648  2667  2669    1
  1649  2215  2214    1
  1650    20    19   ar
  1651  3518  3516    1
  1652  2307  2306   ar
  1653  2290  2289    2
  1654  2230  2223   ar
  1655  2543  2544   ar
  1656  2543  2549   ar
  1657  2443  2442    1
  1658  2565  2566    1
  1659  2565  2560    1
  1660  2978  2977   ar
  1661  2978  2979   ar
  1662  3073  3072    1
  1663  1986  1965    2
  1664  1255  1256   ar
  1665    84    77   ar
  1666    84    83   ar
  1667  3369  3368    1
  1668  2844  2843    1
  1669  1252  1251   ar
  1670  2019  2014    1
  1671  1799  1801   ar
  1672  2285  2284    1
  1673  2283  2289   ar
  1674  2283  2284   ar
  1675  2977  2974   ar
  1676  3578  3560    2
  1677  2053  2051    1
  1678  3698  3697    1
  1679   108    87    2
  1680  2432  2434   ar
  1681  2432  2433    2
  1682     2     3    1
  1683  2002  2005   ar
  1684  2002  2001   ar
  1685  2566  2573   ar
  1686  2964  2963    1
  1687  2964  2969    1
  1688  2668  2673    1
  1689  2963  2965    1
  1690  3165  3166   ar
  1691  3719  3726   ar
  1692  3543  3542    1
  1693  3543  3560    1
  1694  2544  2546   ar
  1695  3163  3161   ar
  1696  3517  3516    1
  1697  3517  3515    1
  1698  3537  3539    1
  1699  3537  3559    1
  1700  2311  2310    1
  1701  3541  3546    1
  1702  1932  1931   ar
  1703  2248  2247    1
  1704  2050  2068    2
  1705  2050  2069    1
  1706  2576  2596    2
  1707  2576  2562    1
  1708  2576  2597    1
  1709  2005  2006   ar
  1710    77    78   ar
  1711  2442  2444    1
  1712    87   109    1
  1713    87    89    1
  1714  1805  1804    2
  1715  3495  3497    1
  1716  3495  3496    1
  1717  1998  1999    1
  1718  1998  2000   ar
  1719  2049  2030    2
  1720  3076  3078   ar
  1721  3076  3075   ar
  1722  1957  1958   ar
  1723  1957  1956   ar
  1724  1980  1979   ar
  1725  1980  1975   ar
  1726  2570  2571    2
  1727  2570  2572   ar
  1728  1930  1931   ar
  1729  3710  3711    1
  1730  2562  2561    1
  1731  2317  2318    1
  1732  3078  3079   ar
  1733  1982  1979   ar
  1734  1982  1983   ar
  1735  2015  2016    1
  1736  2015  2013    1
  1737  3176  3177    1
  1738  3176  3178    1
  1739  2550  2549    2
  1740  3481  3480   ar
  1741  2226  2224   ar
  1742  2709  2687    2
  1743  1958  1952   ar
  1744  2030  2016    1
  1745  2030  2048    1
  1746  2310  2312   ar
  1747  3372  3374   ar
  1748  3372  3371   ar
  1749  2289  2288   ar
  1750  3368  3370    1
  1751  3368  3366    1
  1752  2561  2559    1
  1753   747   746    1
  1754  1804  1803   ar
  1755  3722  3723   ar
  1756  1251  1256   ar
  1757  1256  1257    1
  1758  1281  1263    2
  1759  3177  3182    1
  1760  3402  3381    2
  1761  2847  2849   ar
  1762  2847  2846   ar
  1763  2284  2286   ar
  1764  2657  2658    2
  1765  2657  2651   ar
  1766  3545  3544    1
  1767    83    81   ar
  1768  3072  3074    1
  1769  3072  3070    1
  1770  3542  3544    1
  1771  2843  2845    1
  1772  2843  2841    1
  1773  3374  3375   ar
  1774  3497  3498    1
  1775  3497  3499    1
  1776  2214  2216    1
  1777  1263  1282    1
  1778  1263  1265    1
  1779  2268  2267    2
  1780  2683  2682   ar
  1781  2683  2684   ar
  1782  2549  2548   ar
  1783  2876  2856    2
  1784  2849  2850   ar
  1785  3515  3498    1
  1786  3515  3536    1
  1787  2652  2651   ar
  1788  2652  2653    1
  1789  2856  2842    1
  1790  2856  2877    1
  1791  3560  3579    1
  1792  3560  3562    1
  1793  2304  2303    1
  1794  1738  1737    2
  1795  3381  3367    1
  1796  3381  3403    1
  1797  1979  1978   ar
  1798  2669  2670    1
  1799  2669  2671    1
  1800  1812  1813    1
  1801  1264  1265    1
  1802  1264  1266    1
  1803  1267  1266    1
  1804  1267  1272    1
  1805  2979  2969    1
  1806  2979  2973   ar
  1807  1801  1802   ar
  1808  1945  1946    1
  1809  1945  1947    1
  1810  1962  1956   ar
  1811  1962  1951    1
  1812     3     1    1
  1813  2223  2224   ar
  1814  2223  2222    1
  1815   749   748    1
  1816  2560  2559    1
  1817  2670  2687    1
  1818  3697  3696   ar
  1819  3697  3699   ar
  1820  3085  3105    2
  1821  3085  3071    1
  1822  3085  3106    1
  1823  1975  1976   ar
  1824  2306  2305    1
  1825  2306  2313   ar
  1826  1946  1951    1
  1827  2001  2000   ar
  1828  2001  2007   ar
  1829  1965  1985    1
  1830  1965  1948    1
  1831  1965  1967    1
  1832  2969  2967    1
  1833  2318  2316    1
  1834  3367  3366    1
  1835  3726  3725   ar
  1836  2682  2679   ar
  1837  2573  2572   ar
  1838  2974  2973   ar
  1839  2974  2975   ar
  1840  2303  2305    1
  1841  2303  2301    1
  1842  2014  2013    1
  1843  2965  2966    1
  1844  2965  2967    1
  1845  3546  3544    1
  1846  3546  3557    1
  1847  1947  1948    1
  1848  1947  1949    1
  1849   748   746    1
  1850   748   750    1
  1851  2546  2547   ar
  1852  2842  2841    1
  1853  3161  3160   ar
  1854  3161  3162    1
  1855  3166  3160   ar
  1856  3166  3167    2
  1857  2559  2557    1
  1858  3711  3709    1
  1859  3074  3075    1
  1860  3074  3069    1
  1861  2459  2460   ar
  1862  2459  2456   ar
  1863  2217  2216    1
  1864  2217  2222    1
  1865  2224  2225    2
  1866  2673  2684    1
  1867  2673  2671    1
  1868  3696  3702   ar
  1869  3370  3371    1
  1870  3370  3365    1
  1871    78    79    2
  1872    78    80   ar
  1873  3496  3501    1
  1874  2305  2300    1
  1875  2460  2461   ar
  1876  3075  3082   ar
  1877  2247  2249   ar
  1878  2247  2246   ar
  1879  1983  1984   ar
  1880  2006  2007   ar
  1881  1956  1955   ar
  1882  3191  3190   ar
  1883  3191  3192   ar
  1884  3080  3079    1
  1885   746   744    1
  1886  3079  3081   ar
  1887  2687  2708    1
  1888  2687  2689    1
  1889  3001  2982    2
  1890  3071  3070    1
  1891  2845  2846    1
  1892  2845  2840    1
  1893  2976  2975    1
  1894   753   752    2
  1895  1813  1811    1
  1896  1266  1268    1
  1897  3371  3378   ar
  1898  1739  1736   ar
  1899  1739  1740   ar
  1900  2527  2526    2
  1901  3499  3501    1
  1902  3499  3500    1
  1903  2684  2678   ar
  1904  3366  3364    1
  1905  3178  3179    1
  1906  3178  3180    1
  1907  2846  2853   ar
  1908    89    88    1
  1909  2013  2011    1
  1910  1803  1802   ar
  1911  1803  1806   ar
  1912  3723  3725   ar
  1913  3723  3724    2
  1914  2444  2445    1
  1915  2444  2446    1
  1916  2841  2839    1
  1917  2249  2250   ar
  1918  1952  1953   ar
  1919    81    80   ar
  1920    81    82    1
  1921  3070  3068    1
  1922  2966  2982    1
  1923  2704  2703    2
  1924  2997  2996    1
  1925  2486  2464    2
  1926  2216  2218    1
  1927  1802  1808   ar
  1928  2312  2313   ar
  1929  3699  3700   ar
  1930  1951  1949    1
  1931  3375  3376    1
  1932  3375  3377   ar
  1933  3179  3195    1
  1934  2850  2851    1
  1935  2850  2852   ar
  1936  2267  2266   ar
  1937  2267  2269   ar
  1938  2973  2972   ar
  1939  2288  2287   ar
  1940  2288  2291   ar
  1941  1737  1736   ar
  1942  1737  1731   ar
  1943    88    90    1
  1944  2286  2287   ar
  1945   754   752   ar
  1946   754   755   ar
  1947  2009  1987    2
  1948  3190  3187   ar
  1949  3182  3192    1
  1950  3182  3180    1
  1951  1272  1273    1
  1952  1272  1270    1
  1953   752   751   ar
  1954  2975  2970   ar
  1955  2222  2220    1
  1956  3057  3056    2
  1957  2548  2547   ar
  1958  2548  2551   ar
  1959  2671  2672    1
  1960  2445  2450    1
  1961  2007  1996    1
  1962  3217  3195    2
  1963  3039  3038    2
  1964  3561  3562    1
  1965  3561  3563    1
  1966  1280  1273   ar
  1967  1280  1279   ar
  1968  1967  1966    1
  1969  2967  2968    1
  1970  2547  2553   ar
  1971  2012  2011    1
  1972  2012  2010    1
  1973  3017  3016    2
  1974  2705  2706   ar
  1975  2705  2702   ar
  1976  1978  1984   ar
  1977  1978  1977   ar
  1978  3192  3186   ar
  1979  3058  3056   ar
  1980  3058  3059   ar
  1981  1736  1735   ar
  1982  2246  2244   ar
  1983  3511  3512   ar
  1984  3511  3510   ar
  1985  1782  1781    1
  1986  2266  2264   ar
  1987  1273  1274   ar
  1988   756   755    2
  1989  3501  3512    1
  1990  2029  2010    2
  1991  1949  1950    1
  1992  2252  2233    2
  1993  1740  1741   ar
  1994  1976  1977   ar
  1995  3727  3709    2
  1996  3060  3059    2
  1997   755   757   ar
  1998  1279  1277   ar
  1999  2520  2526   ar
  2000  2520  2521   ar
  2001  2446  2447    1
  2002  2446  2448    1
  2003  2218  2220    1
  2004  2218  2219    1
  2005  2982  3000    1
  2006  2982  2984    1
  2007  2998  2996   ar
  2008  2998  2999   ar
  2009  3557  3556   ar
  2010  3557  3551   ar
  2011  3702  3703    2
  2012  3702  3701   ar
  2013  2287  2293   ar
  2014  2679  2678   ar
  2015  2679  2680   ar
  2016  3082  3081   ar
  2017  2752  2732    2
  2018   751   750    1
  2019   751   758   ar
  2020     1    22    1
  2021     1    23    1
  2022  3694  3693    1
  2023  1984  1974    1
  2024  2526  2525   ar
  2025  3216  3195    1
  2026  3556  3555   ar
  2027  3195  3197    1
  2028  2458  2457    2
  2029   750   745    1
  2030  1776  1781   ar
  2031  1776  1777   ar
  2032  3069  3068    1
  2033  3365  3364    1
  2034  2456  2457   ar
  2035  2456  2455   ar
  2036  2301  2302    1
  2037  2301  2299    1
  2038  2461  2450    1
  2039  2461  2455   ar
  2040  3709  3728    1
  2041  3709  3692    1
  2042  3180  3181    1
  2043  2839  2840    1
  2044  2839  2837    1
  2045  3364  3362    1
  2046  1955  1953   ar
  2047  2300  2299    1
  2048  3378  3377   ar
  2049  3056  3055   ar
  2050  2481  2480    2
  2051  2996  2995   ar
  2052  2678  2677   ar
  2053  2316  2302    1
  2054  2316  2336    2
  2055  2316  2337    1
  2056  2447  2464    1
  2057  2853  2852   ar
  2058  3068  3066    1
  2059  2689  2688    1
  2060  1806  1807   ar
  2061  1274  1275    2
  2062  1274  1276   ar
  2063  2557  2558    1
  2064  1953  1954    1
  2065  2291  2292   ar
  2066  2703  2702   ar
  2067  2703  2697   ar
  2068   744   745    1
  2069   744   742    1
  2070  2269  2270   ar
  2071  1731  1732   ar
  2072  3032  3038   ar
  2073  3032  3033   ar
  2074  2464  2485    1
  2075  2464  2466    1
  2076  3512  3506   ar
  2077  1277  1276   ar
  2078  1277  1278    1
  2079  3700  3701   ar
  2080  3700  3706   ar
  2081  2706  2707   ar
  2082  1795  1796    1
  2083  1795  1797    1
  2084  1795  1793    1
  2085   757   758   ar
  2086  3059  3061   ar
  2087  1271  1270    1
  2088  2250  2243   ar
  2089  1808  1807   ar
  2090  1808  1797    1
  2091  1268  1270    1
  2092  1268  1269    1
  2093  3693  3691    1
  2094  3693  3695    1
  2095  3510  3507   ar
  2096  3038  3037   ar
  2097  1811  1833    2
  2098  1811  1832    1
  2099  1811  1794    1
  2100  1781  1780   ar
  2101  2220  2221    1
  2102  2702  2701   ar
  2103  2450  2448    1
  2104  2522  2521    1
  2105  2972  2971   ar
  2106  2010  2028    1
  2107  2010  1993    1
  2108  3187  3186   ar
  2109  3187  3188   ar
  2110  2551  2552   ar
  2111  2457  2451   ar
  2112    91    90    1
  2113    91    96    1
  2114  2504  2503    2
  2115    90    92    1
  2116  2970  2971   ar
  2117  3701  3704   ar
  2118  1987  1989    1
  2119  1987  2008    1
  2120  1987  1971    1
  2121  3186  3185   ar
  2122  2482  2479   ar
  2123  2482  2483   ar
  2124  2219  2233    1
  2125  2558  2556    1
  2126  3016  3015   ar
  2127  3016  3018   ar
  2128  2299  2297    1
  2129  1996  1994    1
  2130  1996  1991    1
  2131  1777  1778   ar
  2132  3563  3564    1
  2133  3563  3565    1
  2134  2999  2992   ar
  2135  2521  2523   ar
  2136  1994  1992    1
  2137  1994  1995    1
  2138  3692  3691    1
  2139  2455  2454   ar
  2140  1989  1988    1
  2141  1735  1741   ar
  2142  1735  1734   ar
  2143  2553  2552   ar
  2144  2553  2542    1
  2145  2244  2243   ar
  2146  2244  2245    2
  2147  2681  2680    2
  2148  1966  1968    1
  2149  2680  2674   ar
  2150   742   743    1
  2151  2264  2265    2
  2152  2264  2263   ar
  2153  1797  1792    1
  2154  1741  1730    1
  2155  3034  3033    1
  2156   106   105   ar
  2157   106   107   ar
  2158  2984  2983    1
  2159  2233  2235    1
  2160  2233  2251    1
  2161  1992  1993    1
  2162  1992  1990    1
  2163  1970  1972    1
  2164  1970  1971    1
  2165  1970  1968    1
  2166  2448  2449    1
  2167  2772  2754    2
  2168  3551  3550   ar
  2169  3551  3552   ar
  2170  1794  1793    1
  2171   743   741    1
  2172  3555  3552   ar
  2173  2732  2753    1
  2174  2732  2716    1
  2175  2732  2734    1
  2176  1729  1728    1
  2177  1269  1283    1
  2178  2293  2292   ar
  2179  2293  2282    1
  2180  3564  3569    1
  2181  2480  2479   ar
  2182  2480  2474   ar
  2183  1793  1791    1
  2184  2831  2830    1
  2185  1974  1969    1
  2186  1974  1972    1
  2187  2525  2528   ar
  2188  2525  2524   ar
  2189  2677  2675   ar
  2190   105   102   ar
  2191  3706  3695    1
  2192  3706  3705   ar
  2193  2243  2242    1
  2194  3033  3035   ar
  2195  2995  2993   ar
  2196  3691  3689    1
  2197  1969  1968    1
  2198  3695  3690    1
  2199  2829  2830   ar
  2200  2829  2827   ar
  2201  2540  2541    1
  2202  2540  2542    1
  2203  2540  2538    1
  2204  2697  2698   ar
  2205  2688  2690    1
  2206  3362  3363    1
  2207  2731  2710    2
  2208  2837  2838    1
  2209  3197  3196    1
  2210  3550  3548   ar
  2211  3055  3054    1
  2212  3055  3062   ar
  2213  1732  1734   ar
  2214  1732  1733    1
  2215  3015  3013   ar
  2216  2270  2263   ar
  2217  3018  3019   ar
  2218  1972  1973    1
  2219  1991  1990    1
  2220  2828  2827    2
  2221  3189  3188    1
  2222  2479  2478   ar
  2223  2483  2484   ar
  2224  3188  3183   ar
  2225  2542  2537    1
  2226  3053  3052    1
  2227  3066  3067    1
  2228  3506  3507   ar
  2229  3506  3505   ar
  2230  2466  2465    1
  2231  2707  2701   ar
  2232  2707  2696    1
  2233  3598  3580    2
  2234  3507  3508   ar
  2235  2701  2700   ar
  2236  3675  3674    1
  2237  3061  3062   ar
  2238  1780  1779   ar
  2239  1780  1783   ar
  2240    92    93    1
  2241    92    94    1
  2242  3037  3040   ar
  2243  3037  3036   ar
  2244  2716  2715    1
  2245  3052  3054    1
  2246  3052  3050    1
  2247  1728  1730    1
  2248  1728  1726    1
  2249  2528  2529   ar
  2250  2503  2497   ar
  2251  2503  2502   ar
  2252   760   741    2
  2253  3185  3184   ar
  2254  2235  2234    1
  2255  3363  3361    1
  2256  3704  3705   ar
  2257    96   107    1
  2258    96    94    1
  2259  2263  2262    1
  2260  3599  3580    1
  2261  3354  3352   ar
  2262  3354  3355   ar
  2263  3356  3355    1
  2264   107   101   ar
  2265  3552  3553   ar
  2266  2830  2832   ar
  2267  3353  3352    2
  2268   730   729    1
  2269  3565  3566    1
  2270  3565  3567    1
  2271  3566  3580    1
  2272  2451  2452   ar
  2273  2838  2836    1
  2274  1990  1988    1
  2275  2827  2826   ar
  2276  2992  2993   ar
  2277  2992  2991    1
  2278  2773  2754    1
  2279  1778  1779   ar
  2280  3673  3674   ar
  2281  3673  3679   ar
  2282  3067  3065    1
  2283  3054  3049    1
  2284  2523  2524   ar
  2285   759   741    1
  2286  1730  1725    1
  2287  2674  2675   ar
  2288   741   724    1
  2289   728   729   ar
  2290   728   734   ar
  2291  3577  3576   ar
  2292  3577  3570   ar
  2293  2983  2985    1
  2294  2754  2738    1
  2295  2754  2756    1
  2296    93   110    1
  2297  2734  2733    1
  2298  2524  2530   ar
  2299  2454  2452   ar
  2300  2297  2298    1
  2301   653   632    2
  2302  2675  2676    1
  2303  3680  3679    2
  2304  3580  3582    1
  2305   735   734    2
  2306  2711  2712    1
  2307  2711  2713    1
  2308  2282  2280    1
  2309  2282  2277    1
  2310  2691  2690    1
  2311  2691  2696    1
  2312  2298  2296    1
  2313  2993  2994    2
  2314  3196  3198    1
  2315  1792  1791    1
  2316  2556  2575    2
  2317  2556  2574    1
  2318  2556  2539    1
  2319  2474  2475   ar
  2320  1305  1283    2
  2321  3040  3041   ar
  2322  2712  2710    1
  2323   729   731   ar
  2324  2497  2498   ar
  2325  3352  3351   ar
  2326  1779  1785   ar
  2327  2733  2735    1
  2328   102   101   ar
  2329   102   103   ar
  2330  2280  2281    1
  2331  2280  2278    1
  2332  3213  3214   ar
  2333  3213  3210   ar
  2334  2505  2502   ar
  2335  2505  2506   ar
  2336  3576  3574   ar
  2337  3355  3357   ar
  2338  3674  3676   ar
  2339  1783  1784   ar
  2340  3235  3234    2
  2341  2690  2692    1
  2342  2538  2539    1
  2343  2538  2536    1
  2344   734   733   ar
  2345  3035  3036   ar
  2346  2986  2991    1
  2347  2986  2985    1
  2348  1791  1789    1
  2349  1283  1304    1
  2350  1283  1285    1
  2351  3689  3690    1
  2352  3689  3687    1
  2353  3569  3570    1
  2354  3569  3567    1
  2355  2738  2737    1
  2356  3214  3215   ar
  2357  2698  2700   ar
  2358  2698  2699    1
  2359  3505  3503   ar
  2360  2692  2693    1
  2361  2692  2694    1
  2362  3183  3184   ar
  2363  2710  2693    1
  2364  2710  2730    1
  2365  2242  2237    1
  2366  2242  2240    1
  2367  2696  2694    1
  2368  2502  2501   ar
  2369  3679  3678   ar
  2370  2452  2453    1
  2371  3036  3042   ar
  2372  3548  3549    1
  2373  3548  3547   ar
  2374    94    95    1
  2375  2509  2487    2
  2376  3019  3012   ar
  2377  3013  3014    2
  2378  3013  3012   ar
  2379  2465  2467    1
  2380  2237  2236    1
  2381   101   100   ar
  2382  2478  2484   ar
  2383  2478  2477   ar
  2384  2484  2473    1
  2385  3508  3509    2
  2386  3508  3502   ar
  2387  2537  2536    1
  2388  2713  2715    1
  2389  2713  2714    1
  2390   131   110    2
  2391  2715  2717    1
  2392  3570  3571   ar
  2393  2529  2530   ar
  2394  3021  3002    2
  2395  1725  1724    1
  2396  3050  3051    1
  2397  3050  3048    1
  2398  2272  2253    2
  2399  2991  2989    1
  2400  3567  3568    1
  2401   104   103    2
  2402  2234  2236    1
  2403   731   732   ar
  2404  2832  2833   ar
  2405  2985  2987    1
  2406  1726  1727    1
  2407  1726  1724    1
  2408  2826  2833   ar
  2409  2826  2825    1
  2410  3256  3255    2
  2411  3199  3198    1
  2412  3199  3204    1
  2413  3553  3547   ar
  2414  3553  3554    2
  2415  2315  2296    2
  2416  3361  3380    2
  2417  3361  3379    1
  2418  3361  3347    1
  2419   110   130    1
  2420   110   112    1
  2421   103    97   ar
  2422  2262  2260    1
  2423  2262  2257    1
  2424  3051  3065    1
  2425  1285  1284    1
  2426   654   632    1
  2427   733   732   ar
  2428   733   736   ar
  2429  2823  2824    1
  2430  2823  2825    1
  2431  2823  2821    1
  2432  2694  2695    1
  2433  2530  2519    1
  2434   632   616    1
  2435   632   634    1
  2436   630   610    2
  2437  2737  2735    1
  2438  2737  2739    1
  2439  2278  2279    1
  2440  2278  2276    1
  2441  2836  2855    2
  2442  2836  2854    1
  2443  2836  2822    1
  2444  3049  3048    1
  2445  2756  2755    1
  2446  1790  1789    1
  2447  1790  1788    1
  2448  2755  2757    1
  2449  3065  3084    2
  2450  3065  3083    1
  2451  2811  2810    1
  2452  2277  2276    1
  2453  3012  3011    1
  2454  3212  3211    2
  2455  2987  2989    1
  2456  2987  2988    1
  2457   724   723    1
  2458  3198  3200    1
  2459  1302  1301   ar
  2460  1302  1303   ar
  2461   732   738   ar
  2462  1301  1298   ar
  2463  2238  2240    1
  2464  2238  2236    1
  2465  2238  2239    1
  2466  2735  2736    1
  2467  3348  3349    1
  2468  3348  3350    1
  2469  3348  3346    1
  2470  2240  2241    1
  2471  3041  3042   ar
  2472  2296  2279    1
  2473  2296  2314    1
  2474  2475  2477   ar
  2475  2475  2476    1
  2476  3676  3677   ar
  2477  2536  2534    1
  2478  1784  1785   ar
  2479  2506  2507   ar
  2480   616   615    1
  2481  3351  3358   ar
  2482  3351  3350    1
  2483  3210  3211   ar
  2484  3210  3209   ar
  2485  1785  1775    1
  2486  2468  2467    1
  2487  2468  2473    1
  2488  3234  3228   ar
  2489  3234  3233   ar
  2490  3357  3358   ar
  2491  2718  2717    1
  2492  3688  3687    1
  2493  3688  3686    1
  2494  1727  1744    1
  2495  2498  2499    1
  2496  2498  2500   ar
  2497   725   723    1
  2498   725   726    1
  2499   725   727    1
  2500  3503  3502   ar
  2501  3503  3504    1
  2502  3582  3581    1
  2503  3336  3335    2
  2504  3574  3575    1
  2505  3574  3573   ar
  2506  3215  3204    1
  2507  3215  3209   ar
  2508  2260  2258    1
  2509  2260  2261    1
  2510  2295  2273    2
  2511  1287  1292    1
  2512  1287  1286    1
  2513  2467  2469    1
  2514  2825  2820    1
  2515   736   737   ar
  2516  3042  3031    1
  2517  3678  3677   ar
  2518  3678  3681   ar
  2519  1724  1722    1
  2520  2469  2470    1
  2521  2469  2471    1
  2522   100    98   ar
  2523   723   721    1
  2524  1810  1788    2
  2525  2473  2471    1
  2526  2501  2500   ar
  2527  2501  2507   ar
  2528  2989  2990    1
  2529  2795  2774    2
  2530  3048  3046    1
  2531  2257  2256    1
  2532   611   613    1
  2533   611   612    1
  2534  3211  3205   ar
  2535  2717  2719    1
  2536   713   712    2
  2537  2535  2534    1
  2538  2535  2533    1
  2539  2487  2470    1
  2540  2487  2508    1
  2541  2487  2489    1
  2542  1303  1292    1
  2543  1303  1297   ar
  2544  3347  3346    1
  2545  2821  2822    1
  2546  2821  2819    1
  2547  3255  3254   ar
  2548  3255  3257   ar
  2549  2555  2533    2
  2550  3677  3683   ar
  2551  3204  3202    1
  2552  3350  3345    1
  2553  1298  1299   ar
  2554  1298  1297   ar
  2555  3571  3573   ar
  2556  3571  3572    2
  2557   738   737   ar
  2558   738   727    1
  2559  2255  2253    1
  2560  2255  2254    1
  2561   740   718    2
  2562  3228  3229   ar
  2563  1722  1723    1
  2564  2714  2719    1
  2565  2275  2273    1
  2566  2275  2274    1
  2567  1743  1721    2
  2568  1300  1299    2
  2569  3254  3252   ar
  2570  2276  2274    1
  2571  3236  3233   ar
  2572  3236  3237   ar
  2573  3346  3344    1
  2574  1292  1290    1
  2575  3658  3657    1
  2576  2253  2239    1
  2577  2253  2271    1
  2578  2258  2256    1
  2579  2258  2259    1
  2580    97    98   ar
  2581  2532  2510    2
  2582  3002  2988    1
  2583  3002  3004    1
  2584  3002  3020    1
  2585  3581  3583    1
  2586  2794  2774    1
  2587  3209  3208   ar
  2588  3200  3201    1
  2589  3200  3202    1
  2590  2810  2809   ar
  2591  2810  2812   ar
  2592   613   615    1
  2593   613   614    1
  2594  2809  2807   ar
  2595   112   111    1
  2596  3240  3218    2
  2597  1788  1809    1
  2598  1788  1772    1
  2599  3233  3232   ar
  2600  1773  1775    1
  2601  1773  1771    1
  2602  1773  1774    1
  2603  3316  3315    1
  2604  2507  2496    1
  2605  1284  1286    1
  2606  1299  1293   ar
  2607  2519  2517    1
  2608  2519  2514    1
  2609  2471  2472    1
  2610   634   633    1
  2611   676   655    2
  2612    98    99    1
  2613  1297  1296   ar
  2614  2517  2515    1
  2615  2517  2518    1
  2616  1775  1770    1
  2617  3708  3686    2
  2618   615   617    1
  2619   610   612    1
  2620   610   596    1
  2621   610   631    1
  2622  2736  2741    1
  2623   727   722    1
  2624  3004  3003    1
  2625  3335  3334   ar
  2626  3335  3337   ar
  2627  2739  2740    1
  2628  2739  2741    1
  2629  2757  2759    1
  2630  2757  2758    1
  2631  3681  3682   ar
  2632  1760  1759    1
  2633   633   635    1
  2634  1286  1288    1
  2635  2489  2488    1
  2636  2273  2259    1
  2637  2273  2294    1
  2638  2774  2760    1
  2639  2774  2776    1
  2640   712   714   ar
  2641   712   711   ar
  2642  3011  3006    1
  2643  3011  3009    1
  2644  1761  1762   ar
  2645  1761  1758   ar
  2646  3334  3332   ar
  2647  3596  3597   ar
  2648  3596  3594   ar
  2649  2750  2749   ar
  2650  2750  2751   ar
  2651  1765  1744    2
  2652  2256  2254    1
  2653  3686  3707    1
  2654  3686  3669    1
  2655  1744  1764    1
  2656  1744  1746    1
  2657  2719  2729    1
  2658  2533  2516    1
  2659  2533  2554    1
  2660   677   655    1
  2661  3047  3046    1
  2662  3047  3045    1
  2663   596   595    1
  2664   127   128   ar
  2665   127   124   ar
  2666   618   617    1
  2667  1771  1772    1
  2668  1771  1769    1
  2669  1723  1721    1
  2670  3031  3029    1
  2671  3031  3026    1
  2672  2760  2759    1
  2673  2820  2819    1
  2674  3622  3600    2
  2675  2515  2516    1
  2676  2515  2513    1
  2677  3201  3218    1
  2678   720   718    1
  2679   720   719    1
  2680  3296  3295    2
  2681  3006  3005    1
  2682  3202  3203    1
  2683   718   739    1
  2684   718   704    1
  2685  3205  3206   ar
  2686  1293  1294   ar
  2687   128   129   ar
  2688  3597  3590   ar
  2689  3044  3022    2
  2690  3253  3252    2
  2691   714   715   ar
  2692   111   113    1
  2693  1296  1294   ar
  2694   711   709   ar
  2695  1721  1742    1
  2696  1721  1707    1
  2697  3252  3251   ar
  2698   721   722    1
  2699   721   719    1
  2700  3683  3682   ar
  2701  3683  3672    1
  2702  2512  2510    1
  2703  2512  2511    1
  2704  3257  3258   ar
  2705  3029  3027    1
  2706  3029  3030    1
  2707  3237  3238   ar
  2708  1762  1763   ar
  2709  2749  2746   ar
  2710  2819  2817    1
  2711  3657  3656   ar
  2712  3657  3659   ar
  2713   655   638    1
  2714   655   657    1
  2715  2741  2751    1
  2716  2514  2513    1
  2717  3345  3344    1
  2718  2807  2808    2
  2719  2807  2806   ar
  2720  3064  3045    2
  2721  2759  2761    1
  2722  2812  2813   ar
  2723   598   597    1
  2724  2758  2763    1
  2725  3670  3671    1
  2726  3670  3668    1
  2727  3670  3672    1
  2728  3229  3230    1
  2729  3229  3231   ar
  2730   126   125    1
  2731  3595  3594    1
  2732  2510  2531    1
  2733  2510  2493    1
  2734  3009  3007    1
  2735  3009  3010    1
  2736  3218  3239    1
  2737  3218  3220    1
  2738  3208  3206   ar
  2739  3344  3342    1
  2740  1294  1295    1
  2741   617   619    1
  2742   614   619    1
  2743  1290  1291    1
  2744  1290  1288    1
  2745  1759  1758   ar
  2746  1759  1754   ar
  2747  1758  1757   ar
  2748  3656  3654   ar
  2749  2751  2745   ar
  2750  3315  3317   ar
  2751  3315  3314   ar
  2752  1770  1769    1
  2753  3583  3584    1
  2754  3583  3585    1
  2755  3232  3231   ar
  2756  3232  3238   ar
  2757  3337  3338   ar
  2758  3007  3005    1
  2759  3007  3008    1
  2760  2790  2789    1
  2761  3295  3294   ar
  2762  3295  3297   ar
  2763  3594  3593   ar
  2764  2496  2494    1
  2765  2496  2491    1
  2766  2492  2494    1
  2767  2492  2493    1
  2768  2492  2490    1
  2769   638   637    1
  2770  3584  3589    1
  2771  3332  3333    2
  2772  3332  3331   ar
  2773  1288  1289    1
  2774   114   113    1
  2775   114   119    1
  2776   124   125   ar
  2777   124   123   ar
  2778  3027  3028    1
  2779  3027  3025    1
  2780  3206  3207    1
  2781  2729  2728   ar
  2782  2729  2723   ar
  2783  3003  3005    1
  2784  3669  3668    1
  2785  1746  1745    1
  2786  3026  3025    1
  2787  3276  3275    1
  2788   697   678    2
  2789   635   637    1
  2790   635   636    1
  2791  2513  2511    1
  2792  3668  3666    1
  2793  3045  3028    1
  2794  3045  3063    1
  2795  2488  2490    1
  2796  3672  3667    1
  2797  1470  1469    1
  2798  2494  2495    1
  2799   715   708   ar
  2800  2791  2792   ar
  2801  2791  2788   ar
  2802  2776  2775    1
  2803  2818  2817    1
  2804  2818  2816    1
  2805  2491  2490    1
  2806  3294  3292   ar
  2807   709   710    2
  2808   709   708   ar
  2809  2728  2727   ar
  2810   208   209   ar
  2811   208   213   ar
  2812  1769  1767    1
  2813  3617  3616    2
  2814   125   120   ar
  2815  3317  3318   ar
  2816  3024  3022    1
  2817  3024  3023    1
  2818   595   593    1
  2819   595   597    1
  2820  3585  3586    1
  2821  3585  3587    1
  2822  3638  3637    2
  2823  3659  3660   ar
  2824   717   698    2
  2825  3297  3298   ar
  2826  1745  1747    1
  2827  3238  3227    1
  2828   129   123   ar
  2829   129   119    1
  2830   566   545    2
  2831   238   239   ar
  2832   238   235   ar
  2833  3600  3586    1
  2834  3600  3621    1
  2835  3600  3602    1
  2836  3314  3312   ar
  2837   113   115    1
  2838  3258  3251   ar
  2839   619   629    1
  2840  3251  3250    1
  2841  3289  3288    1
  2842  2835  2816    2
  2843  3022  3008    1
  2844  3022  3043    1
  2845   593   591    1
  2846   593   594    1
  2847   597   599    1
  2848   637   639    1
  2849  2813  2806   ar
  2850   209   210   ar
  2851  1763  1757   ar
  2852  1763  1753    1
  2853  3590  3589    1
  2854  3590  3591   ar
  2855  3220  3219    1
  2856  2806  2805    1
  2857   239   240   ar
  2858  1707  1706    1
  2859  3343  3342    1
  2860  3343  3341    1
  2861   696   678    1
  2862   147   146    1
  2863   704   703    1
  2864  3618  3619   ar
  2865  3618  3615   ar
  2866   708   707    1
  2867  2746  2745   ar
  2868  2746  2747   ar
  2869  1754  1755   ar
  2870  1748  1747    1
  2871  1748  1753    1
  2872   657   656    1
  2873  1757  1756   ar
  2874   703   705    1
  2875   703   701    1
  2876   591   592    1
  2877  1767  1768    1
  2878  2763  2761    1
  2879  2763  2764    1
  2880   123   122   ar
  2881  3338  3331   ar
  2882  1466  1465    1
  2883  3654  3655    2
  2884  3654  3653   ar
  2885  2745  2744   ar
  2886  2761  2762    1
  2887  3025  3023    1
  2888  2792  2793   ar
  2889   350   329    2
  2890   214   213    1
  2891  2789  2788   ar
  2892  2789  2784   ar
  2893   119   117    1
  2894  3292  3293    2
  2895  3292  3291   ar
  2896  3331  3330    1
  2897   192   191    2
  2898  3275  3277   ar
  2899  3275  3274   ar
  2900  3589  3587    1
  2901  2723  2722   ar
  2902  2723  2724   ar
  2903  3298  3291   ar
  2904  2788  2787   ar
  2905   705   707    1
  2906   705   706    1
  2907   678   680    1
  2908   678   661    1
  2909   693   692    1
  2910   636   641    1
  2911  3593  3591   ar
  2912   700   698    1
  2913   700   699    1
  2914  1289  1306    1
  2915  2766  2765    2
  2916  2816  2834    1
  2917  2816  2802    1
  2918   716   698    1
  2919   213   212   ar
  2920  3685  3663    2
  2921  2722  2721   ar
  2922   698   684    1
  2923  2727  2724   ar
  2924  2815  2796    2
  2925  3616  3615   ar
  2926  3616  3610   ar
  2927  1469  1471   ar
  2928  1469  1468   ar
  2929  1747  1749    1
  2930  2775  2777    1
  2931   120   121   ar
  2932   317   316    1
  2933   237   236    2
  2934  3619  3620   ar
  2935  3277  3278   ar
  2936  3291  3290    1
  2937   115   117    1
  2938   115   116    1
  2939  3667  3666    1
  2940   185   191   ar
  2941   185   186   ar
  2942  3637  3639   ar
  2943  3637  3636   ar
  2944  1753  1751    1
  2945  3320  3301    2
  2946  1471  1472   ar
  2947   656   658    1
  2948  3602  3601    1
  2949  3360  3341    2
  2950  3274  3272   ar
  2951  3660  3653   ar
  2952   315   329    1
  2953   315   314    1
  2954  2803  2805    1
  2955  2803  2801    1
  2956  2803  2804    1
  2957  3591  3592    2
  2958  3615  3614   ar
  2959  3587  3588    1
  2960  3666  3664    1
  2961  3318  3311   ar
  2962  1447  1446   ar
  2963  1447  1448   ar
  2964  2764  2765   ar
  2965  2764  2771   ar
  2966   228   227    1
  2967   312   310    1
  2968   312   313    1
  2969   312   314    1
  2970   545   565    1
  2971   545   528    1
  2972   545   547    1
  2973   629   628   ar
  2974   629   623   ar
  2975   594   599    1
  2976   235   236   ar
  2977   235   234   ar
  2978  2748  2747    1
  2979   707   702    1
  2980   169   168    2
  2981   146   148   ar
  2982   146   145   ar
  2983  3665  3663    1
  2984  3665  3664    1
  2985   310   311    1
  2986  2765  2767   ar
  2987   592   590    1
  2988  3312  3311   ar
  2989  3312  3313    2
  2990   187   186    1
  2991  3288  3290    1
  2992  3288  3286    1
  2993  1755  1756   ar
  2994  1323  1322    2
  2995   694   692   ar
  2996   694   695   ar
  2997   651   650   ar
  2998   651   652   ar
  2999  2747  2742   ar
  3000   210   211   ar
  3001   599   600    1
  3002  2805  2800    1
  3003  3227  3222    1
  3004  3227  3225    1
  3005  3250  3248    1
  3006  3250  3245    1
  3007   294   293    1
  3008  2724  2725   ar
  3009   191   190   ar
  3010  3653  3652    1
  3011   330   332    1
  3012   330   331    1
  3013  1749  1751    1
  3014  1749  1750    1
  3015   148   149   ar
  3016   628   627   ar
  3017   680   679    1
  3018  1706  1704    1
  3019  1706  1708    1
  3020   692   691   ar
  3021   240   229    1
  3022   240   234   ar
  3023  3222  3221    1
  3024  3341  3359    1
  3025  3341  3327    1
  3026  3219  3221    1
  3027  3639  3640   ar
  3028  1324  1325   ar
  3029  1324  1321   ar
  3030   122   121   ar
  3031  1787  1766    2
  3032   608   590    2
  3033   151   132    2
  3034  2744  2743   ar
  3035  2784  2785   ar
  3036  1446  1451   ar
  3037   639   641    1
  3038   639   640    1
  3039  2801  2802    1
  3040  2801  2799    1
  3041   699   701    1
  3042  3328  3330    1
  3043  3328  3326    1
  3044  3328  3329    1
  3045   329   331    1
  3046   329   351    1
  3047  3249  3248    1
  3048  3340  3321    2
  3049   701   702    1
  3050  1704  1702    1
  3051  1704  1705    1
  3052   236   230   ar
  3053   528   527    1
  3054  1485  1484    1
  3055  1485  1490    1
  3056   117   118    1
  3057  1465  1467    1
  3058  1465  1463    1
  3059  1328  1306    2
  3060  1768  1766    1
  3061  1489  1488    1
  3062  3290  3285    1
  3063  2771  2770   ar
  3064  2793  2787   ar
  3065  2793  2783    1
  3066  1448  1449   ar
  3067   661   660    1
  3068  3330  3325    1
  3069   650   647   ar
  3070   116   132    1
  3071   186   188   ar
  3072  3278  3271   ar
  3073  3663  3684    1
  3074  3663  3649    1
  3075  1322  1321   ar
  3076  1322  1316   ar
  3077  1484  1482    1
  3078  1484  1486    1
  3079  3311  3310    1
  3080   641   652    1
  3081   313   318    1
  3082  1325  1326   ar
  3083  2787  2786   ar
  3084   314   316    1
  3085  1467  1462    1
  3086  1467  1478    1
  3087  1751  1752    1
  3088  2721  2720   ar
  3089  3636  3634   ar
  3090   229   227    1
  3091   229   224    1
  3092  3642  3623    2
  3093  2767  2768   ar
  3094  1321  1320   ar
  3095  3272  3271   ar
  3096  3272  3273    2
  3097  1468  1474   ar
  3098   546   547    1
  3099   546   548    1
  3100  1482  1483    1
  3101  3326  3327    1
  3102  3326  3324    1
  3103   332   333    1
  3104   332   334    1
  3105  2798  2796    1
  3106  2798  2797    1
  3107  3610  3611   ar
  3108  1306  1308    1
  3109  1306  1327    1
  3110  3248  3246    1
  3111   673   674   ar
  3112   673   670   ar
  3113   212   211   ar
  3114   212   215   ar
  3115   695   688   ar
  3116   316   318    1
  3117  3287  3301    1
  3118  3287  3286    1
  3119   652   646   ar
  3120   145   143   ar
  3121   660   658    1
  3122   660   662    1
  3123   234   233   ar
  3124  3221  3223    1
  3125  3245  3244    1
  3126  2796  2780    1
  3127  2796  2814    1
  3128  3260  3241    2
  3129  2777  2778    1
  3130  2777  2779    1
  3131   590   609    1
  3132   590   573    1
  3133  3223  3225    1
  3134  3223  3224    1
  3135  3620  3614   ar
  3136  3620  3609    1
  3137   327   309    2
  3138  3225  3226    1
  3139   674   675   ar
  3140   211   217   ar
  3141  2778  2783    1
  3142  1472  1478   ar
  3143  1472  1473   ar
  3144   227   225    1
  3145   684   683    1
  3146  1709  1708    1
  3147   658   659    1
  3148  3301  3303    1
  3149  3301  3319    1
  3150   370   352    2
  3151  3614  3613   ar
  3152  1702  1703    1
  3153   623   622   ar
  3154   623   624   ar
  3155  3601  3603    1
  3156   602   601    2
  3157  3271  3270    1
  3158   284   266    2
  3159  1766  1750    1
  3160  1766  1786    1
  3161   691   689   ar
  3162   168   162   ar
  3163   168   167   ar
  3164  1490  1488    1
  3165  1490  1501    1
  3166  1705  1710    1
  3167  2779  2780    1
  3168  2779  2781    1
  3169   264   243    2
  3170  3286  3284    1
  3171   530   529    1
  3172  2770  2768   ar
  3173  2742  2743   ar
  3174  1316  1317   ar
  3175  2725  2720   ar
  3176  2725  2726    1
  3177  2800  2799    1
  3178   149   142   ar
  3179   679   681    1
  3180   318   319    1
  3181   132   150    1
  3182   132   134    1
  3183  1308  1307    1
  3184  1326  1320   ar
  3185  1326  1315    1
  3186  1424  1425   ar
  3187  1424  1429   ar
  3188  2768  2769    2
  3189  1462  1461    1
  3190   627   624   ar
  3191  1708  1710    1
  3192   335   334    1
  3193   335   352    1
  3194   311   309    1
  3195   226   225    1
  3196   226   243    1
  3197   683   681    1
  3198   683   685    1
  3199  1320  1319   ar
  3200   333   338    1
  3201  3648  3650    1
  3202  3648  3649    1
  3203  3648  3646    1
  3204  3323  3321    1
  3205  3323  3322    1
  3206   622   621   ar
  3207  1710  1711    1
  3208  1310  1315    1
  3209  1310  1309    1
  3210  1464  1463    1
  3211  1464  1481    1
  3212   600   601   ar
  3213   600   607   ar
  3214  3650  3652    1
  3215  3650  3651    1
  3216  3652  3647    1
  3217   292   309    1
  3218   292   291    1
  3219  1478  1477   ar
  3220   162   163   ar
  3221  1425  1426   ar
  3222  1408  1407    1
  3223   293   295    1
  3224   293   291    1
  3225   190   193   ar
  3226   190   189   ar
  3227  2785  2786   ar
  3228  3640  3633   ar
  3229  1488  1486    1
  3230  2783  2781    1
  3231  1461  1463    1
  3232  1461  1459    1
  3233  2799  2797    1
  3234  3325  3324    1
  3235  3604  3603    1
  3236  3604  3609    1
  3237   244   246    1
  3238   244   245    1
  3239  3303  3302    1
  3240   672   671    2
  3241  1451  1452    1
  3242  1451  1450   ar
  3243  3321  3307    1
  3244  3321  3339    1
  3245   255   254    1
  3246  1486  1487    1
  3247   230   231   ar
  3248   527   525    1
  3249   527   529    1
  3250  1713  1712    2
  3251   601   603   ar
  3252  1487  1504    1
  3253   281   280    1
  3254   647   646   ar
  3255   647   648   ar
  3256  1449  1450   ar
  3257  1449  1455   ar
  3258   688   689   ar
  3259   688   687    1
  3260   224   223    1
  3261   309   328    1
  3262   188   189   ar
  3263  3285  3284    1
  3264  1317  1319   ar
  3265  1317  1318    1
  3266   337   336    1
  3267   289   290    1
  3268   289   291    1
  3269   289   287    1
  3270   670   671   ar
  3271   670   669   ar
  3272  1315  1313    1
  3273  3605  3603    1
  3274  3605  3606    1
  3275  3605  3607    1
  3276   334   336    1
  3277   659   664    1
  3278   624   625   ar
  3279  1444  1443    1
  3280   689   690    2
  3281  3243  3241    1
  3282  3243  3242    1
  3283  3324  3322    1
  3284  3634  3633   ar
  3285  3634  3635    2
  3286   143   142   ar
  3287   143   144    2
  3288   548   549    1
  3289   548   550    1
  3290   290   295    1
  3291  3611  3613   ar
  3292  3611  3612    1
  3293  3310  3308    1
  3294  3310  3305    1
  3295   225   223    1
  3296  1307  1309    1
  3297   588   567    2
  3298  3306  3308    1
  3299  3306  3307    1
  3300  3306  3304    1
  3301  1474  1473   ar
  3302  1474  1475    2
  3303   646   645   ar
  3304  1483  1481    1
  3305   352   371    1
  3306   352   354    1
  3307  2781  2782    1
  3308   215   216   ar
  3309  3609  3607    1
  3310  1502  1481    2
  3311   525   523    1
  3312   525   526    1
  3313   573   572    1
  3314   295   306    1
  3315   681   682    1
  3316   675   664    1
  3317   675   669   ar
  3318   243   245    1
  3319   243   265    1
  3320  1402  1407   ar
  3321  1402  1403   ar
  3322  3270  3265    1
  3323  3270  3268    1
  3324  3308  3309    1
  3325  1473  1476   ar
  3326  3623  3606    1
  3327  3623  3625    1
  3328  3623  3641    1
  3329  3241  3224    1
  3330  3241  3259    1
  3331  1719  1701    2
  3332   529   531    1
  3333   246   247    1
  3334   246   248    1
  3335   142   141    1
  3336  1430  1429    1
  3337   167   170   ar
  3338   167   166   ar
  3339  3662  3643    2
  3340   671   665   ar
  3341   193   194   ar
  3342  1344  1343    1
  3343   523   524    1
  3344   189   195   ar
  3345  3644  3646    1
  3346  3644  3645    1
  3347   282   280   ar
  3348   282   283   ar
  3349   233   231   ar
  3350   134   133    1
  3351  3647  3646    1
  3352   607   606   ar
  3353  3246  3244    1
  3354  3246  3247    1
  3355   662   664    1
  3356   662   663    1
  3357   170   171   ar
  3358  3244  3242    1
  3359  3284  3282    1
  3360  1429  1428   ar
  3361   685   687    1
  3362   685   686    1
  3363  1501  1500   ar
  3364  1501  1495   ar
  3365  3633  3632    1
  3366   217   216   ar
  3367   217   207    1
  3368  3265  3264    1
  3369  1703  1701    1
  3370  1407  1406   ar
  3371  1481  1503    1
  3372  1450  1453   ar
  3373   280   279   ar
  3374  1309  1311    1
  3375   549   554    1
  3376  1381  1380    1
  3377   266   285    1
  3378   266   249    1
  3379   266   268    1
  3380  1426  1427   ar
  3381   338   336    1
  3382   338   349    1
  3383  3305  3304    1
  3384   621   620   ar
  3385  3247  3261    1
  3386   231   232    1
  3387  1445  1443    1
  3388  1445  1455    1
  3389  1445  1440    1
  3390  3607  3608    1
  3391   682   687    1
  3392   247   252    1
  3393   669   668   ar
  3394   163   164    1
  3395   163   165   ar
  3396  1443  1441    1
  3397   223   221    1
  3398  1711  1712   ar
  3399  1711  1718   ar
  3400   319   326   ar
  3401   319   320   ar
  3402   287   288    1
  3403  1455  1454   ar
  3404  1712  1714   ar
  3405   649   648    2
  3406  3625  3624    1
  3407  1477  1476   ar
  3408   648   642   ar
  3409   254   256   ar
  3410   254   253   ar
  3411  1459  1460    1
  3412   543   522    2
  3413   572   570    1
  3414   572   574    1
  3415  3302  3304    1
  3416  1500  1499   ar
  3417  1522  1504    2
  3418   283   276   ar
  3419   256   257   ar
  3420  1689  1688    1
  3421  1403  1404   ar
  3422   603   604   ar
  3423   353   354    1
  3424   353   355    1
  3425   207   205    1
  3426   207   202    1
  3427   249   248    1
  3428  1343  1342   ar
  3429  1343  1345   ar
  3430  1701  1687    1
  3431  1701  1720    1
  3432   321   320    2
  3433  1494  1495   ar
  3434  1494  1492   ar
  3435   550   551    1
  3436   550   552    1
  3437   645   643   ar
  3438   625   620   ar
  3439   625   626    1
  3440  1504  1506    1
  3441  1504  1523    1
  3442   299   300   ar
  3443   299   297   ar
  3444   526   531    1
  3445  1495  1496   ar
  3446   136   141    1
  3447   136   135    1
  3448   326   325   ar
  3449   279   277   ar
  3450   248   250    1
  3451  1505  1506    1
  3452  1505  1507    1
  3453   268   267    1
  3454   665   666   ar
  3455   298   297    1
  3456   531   542    1
  3457  1313  1311    1
  3458  1313  1314    1
  3459   274   273    1
  3460   166   165   ar
  3461   166   172   ar
  3462   194   195   ar
  3463   141   139    1
  3464  1342  1340   ar
  3465   567   551    1
  3466   567   589    1
  3467   567   569    1
  3468   206   205    1
  3469   306   300   ar
  3470   306   305   ar
  3471   524   522    1
  3472  3645  3643    1
  3473   606   604   ar
  3474   133   135    1
  3475   195   184    1
  3476   171   172   ar
  3477  1311  1312    1
  3478  1428  1427   ar
  3479  1428  1431   ar
  3480  3268  3269    1
  3481  3268  3266    1
  3482  1427  1433   ar
  3483  3643  3661    1
  3484  3643  3629    1
  3485  1687  1686    1
  3486   205   203    1
  3487   563   562   ar
  3488   563   564   ar
  3489   320   322   ar
  3490  1406  1409   ar
  3491  1406  1405   ar
  3492   575   574    1
  3493  1345  1346   ar
  3494   570   568    1
  3495   570   571    1
  3496  1364  1363    2
  3497   273   271    1
  3498   273   275    1
  3499  1440  1439    1
  3500  3264  3266    1
  3501  3264  3262    1
  3502  3282  3283    1
  3503  3267  3266    1
  3504  3267  3281    1
  3505   510   509    1
  3506   349   348   ar
  3507   349   343   ar
  3508  1380  1379   ar
  3509  1380  1382   ar
  3510  3283  3281    1
  3511   568   569    1
  3512  3632  3630    1
  3513  3632  3627    1
  3514   668   666   ar
  3515  1453  1454   ar
  3516   348   347   ar
  3517   276   277   ar
  3518   276   275    1
  3519  1718  1717   ar
  3520  3628  3630    1
  3521  3628  3629    1
  3522  3628  3626    1
  3523  1460  1458    1
  3524   253   259   ar
  3525   252   250    1
  3526   252   263    1
  3527   554   552    1
  3528   554   564    1
  3529   288   286    1
  3530   604   605    2
  3531   300   301   ar
  3532  3630  3631    1
  3533   297   296   ar
  3534   642   643   ar
  3535   522   508    1
  3536   522   544    1
  3537   277   278    2
  3538  3263  3261    1
  3539  3263  3262    1
  3540   574   576    1
  3541  1714  1715   ar
  3542   221   222    1
  3543  1379  1385   ar
  3544  1499  1496   ar
  3545   666   667    1
  3546  3261  3280    2
  3547  3261  3279    1
  3548   643   644    1
  3549   552   553    1
  3550  1507  1508    1
  3551  1507  1509    1
  3552  1492  1493    1
  3553  1492  1491   ar
  3554   135   137    1
  3555  1688  1686    1
  3556  1688  1690    1
  3557  3627  3626    1
  3558  1409  1410   ar
  3559  1441  1439    1
  3560  1441  1442    1
  3561   257   263   ar
  3562   257   258   ar
  3563   202   201    1
  3564  3624  3626    1
  3565   562   559   ar
  3566  1404  1405   ar
  3567   172   161    1
  3568  1508  1513    1
  3569  1496  1497   ar
  3570  1340  1341    2
  3571  1340  1339   ar
  3572   564   558   ar
  3573   355   356    1
  3574   355   357    1
  3575   508   507    1
  3576  1670  1669    1
  3577  3300  3281    2
  3578   137   139    1
  3579   137   138    1
  3580   174   152    2
  3581  1439  1437    1
  3582  1405  1411   ar
  3583   271   269    1
  3584   271   272    1
  3585  1346  1339   ar
  3586   222   220    1
  3587  1693  1692    2
  3588  1363  1362   ar
  3589  1363  1365   ar
  3590   250   251    1
  3591  1382  1383   ar
  3592   275   270    1
  3593   305   304   ar
  3594  3281  3299    1
  3595  1362  1360   ar
  3596   325   323   ar
  3597   139   140    1
  3598  1442  1458    1
  3599  1686  1684    1
  3600   263   262   ar
  3601   509   507    1
  3602   509   511    1
  3603   542   541   ar
  3604   542   536   ar
  3605   184   182    1
  3606   184   179    1
  3607  1431  1432   ar
  3608   267   269    1
  3609  1348  1329    2
  3610  1433  1423    1
  3611  1433  1432   ar
  3612  1312  1329    1
  3613  1339  1338    1
  3614   356   361    1
  3615   322   323   ar
  3616   576   571    1
  3617   576   587    1
  3618   514   513    2
  3619   343   342   ar
  3620   343   344   ar
  3621   347   344   ar
  3622   203   201    1
  3623   203   204    1
  3624  1717  1715   ar
  3625  1715  1716    1
  3626   391   372    2
  3627   259   258   ar
  3628   259   260    2
  3629   390   372    1
  3630  1458  1479    2
  3631  1458  1480    1
  3632   182   183    1
  3633   182   180    1
  3634  1491  1497   ar
  3635   270   269    1
  3636  1385  1386    2
  3637  1385  1384   ar
  3638   535   536   ar
  3639   535   533   ar
  3640   507   505    1
  3641   258   261   ar
  3642   301   304   ar
  3643   301   302   ar
  3644   358   357    1
  3645   358   372    1
  3646  1690  1685    1
  3647  1690  1691    1
  3648   296   302   ar
  3649  1684  1685    1
  3650  1684  1682    1
  3651  1423  1421    1
  3652  1423  1418    1
  3653   342   340   ar
  3654  1497  1498    2
  3655   286   272    1
  3656   286   308    2
  3657   286   307    1
  3658  1410  1411   ar
  3659   201   199    1
  3660   541   540   ar
  3661  1422  1421    1
  3662  1361  1360    2
  3663   323   324    1
  3664   357   359    1
  3665   559   558   ar
  3666   559   560   ar
  3667  1360  1359   ar
  3668  1513  1511    1
  3669  1513  1514    1
  3670   536   537   ar
  3671  1365  1366   ar
  3672  1509  1510    1
  3673  1509  1511    1
  3674   558   557   ar
  3675  1510  1524    1
  3676  1411  1401    1
  3677   372   374    1
  3678  1421  1419    1
  3679   138   152    1
  3680   161   156    1
  3681   161   159    1
  3682  1669  1668   ar
  3683  1669  1671   ar
  3684  1329  1331    1
  3685  1329  1347    1
  3686  1512  1511    1
  3687  1692  1691   ar
  3688  1692  1694   ar
  3689  1383  1384   ar
  3690  1383  1389   ar
  3691   179   178    1
  3692   152   154    1
  3693   152   173    1
  3694  1333  1338    1
  3695  1333  1332    1
  3696   344   345   ar
  3697   242   220    2
  3698  1338  1336    1
  3699   204   220    1
  3700   511   512    1
  3701   511   506    1
  3702   220   241    1
  3703  1521  1514   ar
  3704  1521  1520   ar
  3705  1437  1438    1
  3706   513   512   ar
  3707   513   515   ar
  3708   369   368   ar
  3709   369   362   ar
  3710   262   261   ar
  3711   154   153    1
  3712   156   155    1
  3713   302   303    2
  3714  1384  1387   ar
  3715   180   178    1
  3716   180   181    1
  3717   534   533    1
  3718  1691  1698   ar
  3719   361   359    1
  3720   361   362    1
  3721   533   532   ar
  3722  1331  1330    1
  3723   505   506    1
  3724   505   503    1
  3725  1682  1683    1
  3726  1668  1674   ar
  3727  1671  1672   ar
  3728  1514  1515   ar
  3729   587   586   ar
  3730   587   581   ar
  3731   200   199    1
  3732   200   198    1
  3733   368   366   ar
  3734  1366  1359   ar
  3735  1359  1358    1
  3736  1438  1436    1
  3737  1545  1524    2
  3738  1694  1695   ar
  3739   512   519   ar
  3740   159   157    1
  3741   159   160    1
  3742   540   537   ar
  3743  1546  1524    1
  3744  1418  1417    1
  3745   515   516   ar
  3746   557   556   ar
  3747  1666  1665    1
  3748  1520  1518   ar
  3749   340   341    1
  3750   340   339   ar
  3751   560   561    1
  3752   560   555   ar
  3753  1524  1526    1
  3754   537   538   ar
  3755   359   360    1
  3756   219   198    2
  3757  1683  1681    1
  3758   178   176    1
  3759  1389  1378    1
  3760  1389  1388   ar
  3761   362   363   ar
  3762  1401  1399    1
  3763  1401  1396    1
  3764   580   581   ar
  3765   580   578   ar
  3766  1378  1376    1
  3767  1378  1373    1
  3768  1377  1376    1
  3769  1330  1332    1
  3770   157   155    1
  3771   157   158    1
  3772  1419  1417    1
  3773  1419  1420    1
  3774  1332  1334    1
  3775   586   585   ar
  3776   581   582   ar
  3777   345   339   ar
  3778   345   346    2
  3779   153   155    1
  3780   181   198    1
  3781   374   373    1
  3782  1336  1334    1
  3783  1336  1337    1
  3784   176   177    1
  3785   197   175    2
  3786   198   218    1
  3787   503   504    1
  3788  1387  1388   ar
  3789   532   538   ar
  3790  1376  1374    1
  3791  1358  1353    1
  3792  1358  1356    1
  3793  1515  1516    2
  3794  1515  1517   ar
  3795  1665  1667    1
  3796  1665  1663    1
  3797  1698  1697   ar
  3798  1399  1400    1
  3799  1399  1397    1
  3800   491   490   ar
  3801   491   492   ar
  3802   579   578    1
  3803  1417  1415    1
  3804   519   518   ar
  3805  1672  1673   ar
  3806  1672  1678   ar
  3807   556   555   ar
  3808  1674  1675    2
  3809  1674  1673   ar
  3810  1396  1395    1
  3811   538   539    2
  3812   516   517    2
  3813   516   518   ar
  3814   490   495   ar
  3815  1373  1372    1
  3816  1334  1335    1
  3817  1420  1436    1
  3818   366   367    1
  3819   366   365   ar
  3820  1695  1697   ar
  3821  1695  1696    1
  3822   578   577   ar
  3823  1518  1517   ar
  3824  1518  1519    1
  3825  1699  1681    2
  3826   373   375    1
  3827  1436  1457    2
  3828  1436  1456    1
  3829   177   175    1
  3830  1526  1525    1
  3831  1681  1664    1
  3832  1681  1700    1
  3833   363   365   ar
  3834   363   364    2
  3835  1353  1352    1
  3836  1667  1678    1
  3837  1667  1662    1
  3838   504   502    1
  3839   158   175    1
  3840   585   582   ar
  3841   175   196    1
  3842   582   583   ar
  3843  1673  1676   ar
  3844  1664  1663    1
  3845   492   493   ar
  3846  1397  1395    1
  3847  1397  1398    1
  3848  1525  1527    1
  3849  1356  1357    1
  3850  1356  1354    1
  3851  1678  1677   ar
  3852   388   389   ar
  3853   388   386   ar
  3854  1416  1415    1
  3855  1416  1414    1
  3856  1663  1661    1
  3857   495   496    1
  3858   495   494   ar
  3859  1395  1393    1
  3860  1542  1543   ar
  3861  1542  1539   ar
  3862  1374  1372    1
  3863  1374  1375    1
  3864  1372  1370    1
  3865   389   382   ar
  3866  1394  1393    1
  3867  1394  1392    1
  3868   577   583   ar
  3869  1543  1544   ar
  3870  1335  1349    1
  3871   387   386    1
  3872  1435  1414    2
  3873   375   376    1
  3874   375   377    1
  3875   583   584    2
  3876   493   494   ar
  3877   493   499   ar
  3878  1662  1661    1
  3879   520   502    2
  3880   488   487    1
  3881   376   381    1
  3882  1528  1527    1
  3883  1528  1533    1
  3884   386   385   ar
  3885  1351  1349    1
  3886  1351  1350    1
  3887  1661  1659    1
  3888  1398  1414    1
  3889  1354  1352    1
  3890  1354  1355    1
  3891  1368  1349    2
  3892  1541  1540    2
  3893  1352  1350    1
  3894   502   521    1
  3895   502   486    1
  3896  1676  1677   ar
  3897  1375  1392    1
  3898   494   497   ar
  3899  1414  1434    1
  3900   411   392    2
  3901  1527  1529    1
  3902   487   489    1
  3903   487   485    1
  3904   429   428    2
  3905  1539  1540   ar
  3906  1539  1538   ar
  3907  1349  1367    1
  3908  1370  1371    1
  3909  1650  1649    2
  3910   377   378    1
  3911   377   379    1
  3912  1371  1369    1
  3913  1544  1533    1
  3914  1544  1538   ar
  3915  1392  1413    2
  3916  1392  1412    1
  3917  1540  1534   ar
  3918   382   381    1
  3919   382   383   ar
  3920   469   468    1
  3921  1651  1649   ar
  3922  1651  1652   ar
  3923   378   392    1
  3924   486   485    1
  3925   499   489    1
  3926   499   498   ar
  3927  1567  1547    2
  3928  1533  1531    1
  3929   381   379    1
  3930   489   484    1
  3931   410   392    1
  3932   392   394    1
  3933   467   468   ar
  3934   467   473   ar
  3935  1653  1652    1
  3936  1538  1537   ar
  3937   485   483    1
  3938  1632  1631    2
  3939  1355  1369    1
  3940   385   383   ar
  3941   474   473    2
  3942   497   498   ar
  3943  1649  1648   ar
  3944  1529  1530    1
  3945  1529  1531    1
  3946  1568  1547    1
  3947   407   406    1
  3948  1659  1660    1
  3949   428   422   ar
  3950   428   427   ar
  3951   468   470   ar
  3952   383   384    2
  3953  1652  1654   ar
  3954  1625  1631   ar
  3955  1625  1626   ar
  3956   422   423   ar
  3957  1391  1369    2
  3958  1369  1390    1
  3959  1547  1530    1
  3960  1547  1549    1
  3961   473   472   ar
  3962   379   380    1
  3963  1534  1535   ar
  3964   408   406   ar
  3965   408   409   ar
  3966  1627  1626    1
  3967  1609  1608    2
  3968  1631  1630   ar
  3969  1660  1658    1
  3970  1531  1532    1
  3971  1537  1535   ar
  3972   406   405   ar
  3973  1586  1585    2
  3974   484   483    1
  3975  1646  1645    1
  3976  1626  1628   ar
  3977   483   481    1
  3978   427   430   ar
  3979   427   426   ar
  3980   394   393    1
  3981  1535  1536    1
  3982  1648  1647    1
  3983  1648  1655   ar
  3984   430   431   ar
  3985  1645  1647    1
  3986  1645  1643    1
  3987   470   471   ar
  3988   409   402   ar
  3989   423   424    1
  3990   423   425   ar
  3991   472   471   ar
  3992   472   475   ar
  3993  1654  1655   ar
  3994  1647  1642    1
  3995  1549  1548    1
  3996  1608  1602   ar
  3997  1608  1607   ar
  3998   471   477   ar
  3999  1587  1584   ar
  4000  1587  1588   ar
  4001  1630  1629   ar
  4002  1630  1633   ar
  4003  1585  1584   ar
  4004  1585  1579   ar
  4005  1602  1603   ar
  4006   482   481    1
  4007   482   480    1
  4008   405   403   ar
  4009  1548  1550    1
  4010  1658  1680    2
  4011  1658  1644    1
  4012  1658  1679    1
  4013   393   395    1
  4014   426   425   ar
  4015   426   432   ar
  4016  1591  1569    2
  4017  1628  1629   ar
  4018   431   432   ar
  4019   475   476   ar
  4020  1643  1644    1
  4021  1643  1641    1
  4022  1584  1583   ar
  4023   402   403   ar
  4024   402   401    1
  4025  1629  1635   ar
  4026   451   450    1
  4027  1633  1634   ar
  4028   434   412    2
  4029  1607  1610   ar
  4030  1607  1606   ar
  4031   501   480    2
  4032  1588  1589   ar
  4033  1579  1580   ar
  4034  1610  1611   ar
  4035  1642  1641    1
  4036   403   404    2
  4037  1590  1569    1
  4038   432   421    1
  4039   477   476   ar
  4040   477   466    1
  4041   396   395    1
  4042   396   401    1
  4043  1603  1604    1
  4044  1603  1605   ar
  4045   480   500    1
  4046   480   463    1
  4047  1569  1571    1
  4048  1569  1553    1
  4049   395   397    1
  4050  1641  1639    1
  4051  1550  1551    1
  4052  1550  1552    1
  4053   464   466    1
  4054   464   465    1
  4055   464   462    1
  4056   397   399    1
  4057   397   398    1
  4058   401   399    1
  4059  1583  1589   ar
  4060  1583  1582   ar
  4061  1564  1565   ar
  4062  1564  1561   ar
  4063  1565  1566   ar
  4064  1634  1635   ar
  4065   450   445   ar
  4066   450   449   ar
  4067  1635  1624    1
  4068  1606  1605   ar
  4069  1606  1612   ar
  4070   466   461    1
  4071  1551  1556    1
  4072  1589  1578    1
  4073  1552  1553    1
  4074  1552  1554    1
  4075  1570  1571    1
  4076  1570  1572    1
  4077   462   463    1
  4078   462   460    1
  4079   412   414    1
  4080   412   398    1
  4081   412   433    1
  4082  1611  1612   ar
  4083  1580  1582   ar
  4084  1580  1581    1
  4085   399   400    1
  4086   452   449   ar
  4087   452   453   ar
  4088   456   435    2
  4089   414   413    1
  4090   421   419    1
  4091   421   416    1
  4092  1614  1592    2
  4093   445   446   ar
  4094   449   448   ar
  4095  1640  1639    1
  4096  1640  1638    1
  4097   419   417    1
  4098   419   420    1
  4099  1563  1562    1
  4100  1566  1556    1
  4101  1566  1560   ar
  4102  1561  1562   ar
  4103  1561  1560   ar
  4104  1612  1601    1
  4105  1556  1554    1
  4106   417   415    1
  4107   417   418    1
  4108  1624  1622    1
  4109  1624  1619    1
  4110   416   415    1
  4111  1573  1572    1
  4112  1573  1578    1
  4113  1622  1620    1
  4114  1622  1623    1
  4115   461   460    1
  4116  1572  1574    1
  4117  1562  1557   ar
  4118  1578  1576    1
  4119  1574  1576    1
  4120  1574  1575    1
  4121  1554  1555    1
  4122   453   454   ar
  4123  1560  1559   ar
  4124   460   458    1
  4125  1657  1638    2
  4126  1637  1615    2
  4127   446   447   ar
  4128   413   415    1
  4129   435   418    1
  4130   435   437    1
  4131   435   455    1
  4132  1592  1594    1
  4133  1592  1575    1
  4134  1592  1613    1
  4135  1620  1621    1
  4136  1620  1618    1
  4137   459   458    1
  4138   459   457    1
  4139   448   454   ar
  4140   448   447   ar
  4141  1638  1621    1
  4142  1638  1656    1
  4143  1576  1577    1
  4144   479   457    2
  4145  1594  1593    1
  4146  1619  1618    1
  4147  1601  1599    1
  4148  1601  1596    1
  4149  1557  1558   ar
  4150   437   436    1
  4151  1617  1615    1
  4152  1617  1616    1
  4153   454   444    1
  4154  1559  1558   ar
  4155  1599  1597    1
  4156  1599  1600    1
  4157  1615  1598    1
  4158  1615  1636    1
  4159  1597  1595    1
  4160  1597  1598    1
  4161   457   478    1
  4162   457   441    1
  4163  1596  1595    1
  4164  1618  1616    1
  4165  1593  1595    1
  4166   440   442    1
  4167   440   441    1
  4168   440   438    1
  4169   436   438    1
  4170   444   442    1
  4171   444   439    1
  4172   442   443    1
  4173   439   438    1
