ligand
 OpenBabel02271912133D
libRbt.so/2013.1/901 2013/11/27
 37 40  0  0  0  0  0  0  0  0999 V2000
   -0.8320   26.3801   67.4825 C   0  0  1  0  0  0  0  0  0  0  0  0
   -1.8605   25.7349   68.4544 C   0  0  1  0  0  0  0  0  0  0  0  0
   -3.2685   25.6548   67.8343 C   0  0  0  0  0  0  0  0  0  0  0  0
   -3.7193   27.0893   67.4167 C   0  0  1  0  0  0  0  0  0  0  0  0
   -2.7077   27.7105   66.3997 C   0  0  1  0  0  0  0  0  0  0  0  0
   -3.1865   29.1756   65.9886 C   0  0  1  0  0  0  0  0  0  0  0  0
   -4.6052   29.0840   65.3540 C   0  0  1  0  0  0  0  0  0  0  0  0
   -5.5610   28.4279   66.3954 C   0  0  2  0  0  0  0  0  0  0  0  0
   -4.3727   31.2104   63.8929 C   0  0  0  0  0  0  0  0  0  0  0  0
   -1.4059   24.3937   68.8784 N   0  0  0  0  0  0  0  0  0  0  0  0
   -5.1000   30.4573   64.9639 N   0  0  0  0  0  0  0  0  0  0  0  0
   -0.5487   25.5446   66.3432 O   0  0  0  0  0  0  0  0  0  0  0  0
   -1.3616   27.6986   67.0462 O   0  0  0  0  0  0  0  0  0  0  0  0
   -5.0867   27.0981   66.8005 O   0  0  0  0  0  0  0  0  0  0  0  0
   -3.2685   29.9962   67.1467 O   0  0  0  0  0  0  0  0  0  0  0  0
   -6.8691   28.3063   65.8485 O   0  0  0  0  0  0  0  0  0  0  0  0
   -7.8832   27.9520   66.8209 C   0  0  2  0  0  0  0  0  0  0  0  0
   -9.1526   27.3500   66.1732 C   0  0  1  0  0  0  0  0  0  0  0  0
   -9.8963   28.4183   65.3083 C   0  0  2  0  0  0  0  0  0  0  0  0
  -10.2982   29.5780   66.1967 C   0  0  1  0  0  0  0  0  0  0  0  0
   -9.0156   30.2004   66.8253 C   0  0  1  0  0  0  0  0  0  0  0  0
   -9.3382   31.3674   67.7567 C   0  0  0  0  0  0  0  0  0  0  0  0
  -11.0244   30.5863   65.3875 N   0  0  0  0  0  0  0  0  0  0  0  0
   -8.2860   29.1556   67.6078 O   0  0  0  0  0  0  0  0  0  0  0  0
   -8.7390   26.2036   65.3969 O   0  0  0  0  0  0  0  0  0  0  0  0
  -11.0726   27.8445   64.7335 O   0  0  0  0  0  0  0  0  0  0  0  0
   -8.1433   32.0121   68.1256 O   0  0  0  0  0  0  0  0  0  0  0  0
    0.7039   25.6821   65.5053 C   0  0  1  0  0  0  0  0  0  0  0  0
    1.7451   24.6455   66.0094 C   0  0  1  0  0  0  0  0  0  0  0  0
    3.0541   24.7555   65.1750 C   0  0  2  0  0  0  0  0  0  0  0  0
    2.7321   24.4772   63.6860 C   0  0  1  0  0  0  0  0  0  0  0  0
    1.6865   25.5179   63.1466 C   0  0  0  0  0  0  0  0  0  0  0  0
    0.4048   25.4015   63.9988 C   0  0  2  0  0  0  0  0  0  0  0  0
    3.9741   24.5723   62.8816 N   0  0  0  0  0  0  0  0  0  0  0  0
   -0.5655   26.3769   63.4899 N   0  0  0  0  0  0  0  0  0  0  0  0
    2.0450   24.9022   67.3992 O   0  0  0  0  0  0  0  0  0  0  0  0
    4.0062   23.7866   65.6675 O   0  0  0  0  0  0  0  0  0  0  0  0
  1  2  1  0  0  0  0
  1 12  1  6  0  0  0
  1 13  1  0  0  0  0
  2  3  1  0  0  0  0
  2 10  1  6  0  0  0
  4  3  1  6  0  0  0
  4  5  1  0  0  0  0
  4 14  1  0  0  0  0
  5  6  1  0  0  0  0
  5 13  1  1  0  0  0
  6  7  1  0  0  0  0
  6 15  1  1  0  0  0
  7  8  1  0  0  0  0
  7 11  1  1  0  0  0
  8 14  1  0  0  0  0
  8 16  1  6  0  0  0
  9 11  1  0  0  0  0
 17 16  1  6  0  0  0
 17 18  1  0  0  0  0
 17 24  1  0  0  0  0
 18 19  1  0  0  0  0
 18 25  1  6  0  0  0
 19 20  1  0  0  0  0
 19 26  1  1  0  0  0
 20 21  1  0  0  0  0
 20 23  1  6  0  0  0
 21 22  1  1  0  0  0
 21 24  1  0  0  0  0
 22 27  1  0  0  0  0
 28 12  1  1  0  0  0
 28 29  1  0  0  0  0
 28 33  1  0  0  0  0
 29 30  1  0  0  0  0
 29 36  1  1  0  0  0
 30 31  1  0  0  0  0
 30 37  1  1  0  0  0
 31 32  1  0  0  0  0
 31 34  1  6  0  0  0
 32 33  1  0  0  0  0
 33 35  1  6  0  0  0
M  END
>  <CHROM.1>
-158.93882990,64.76871848,-168.58428190,96.49505410,-159.88187786,-170.98637023
-3.72958400,27.44420558,66.05795702,0.15028399,-0.36895474,2.18081358

>  <Name>
ligand

>  <RI>
0

>  <Rbt.Current_Directory>
/home/itssahil/PROJECTS/Mol_Feturizer/Test_systems_manuscript/rnas/2g5k

>  <Rbt.Executable>
rbdock ($Id: //depot/dev/client3/rdock/2013.1/src/exe/rbdock.cxx#4 $)

>  <Rbt.Library>
libRbt.so (2013.1, Build901 2013/11/27)

>  <Rbt.Parameter_File>
/export/apps/rDock/src/rDock_2013.1_src/data/scripts/dock_solv.prm

>  <Rbt.Receptor>
prm/pocket_docking_2.prm

>  <SCORE>
-5.26106

>  <SCORE.INTER>
-4.14723

>  <SCORE.INTER.CONST>
1

>  <SCORE.INTER.POLAR>
0

>  <SCORE.INTER.ROT>
6

>  <SCORE.INTER.SOLV>
17.5956

>  <SCORE.INTER.VDW>
-16.23

>  <SCORE.INTER.norm>
-0.112087

>  <SCORE.INTRA>
-1.11383

>  <SCORE.INTRA.DIHEDRAL>
-1.84032

>  <SCORE.INTRA.DIHEDRAL.0>
11.3972

>  <SCORE.INTRA.POLAR>
0

>  <SCORE.INTRA.POLAR.0>
0

>  <SCORE.INTRA.REPUL>
0

>  <SCORE.INTRA.REPUL.0>
0

>  <SCORE.INTRA.SOLV>
-0.521318

>  <SCORE.INTRA.SOLV.lig_0>
-92.3891

>  <SCORE.INTRA.VDW>
0.0669859

>  <SCORE.INTRA.VDW.0>
-2.90606

>  <SCORE.INTRA.norm>
-0.0301036

>  <SCORE.RESTR>
0

>  <SCORE.RESTR.CAVITY>
0

>  <SCORE.RESTR.norm>
0

>  <SCORE.SYSTEM>
0

>  <SCORE.SYSTEM.CONST>
0

>  <SCORE.SYSTEM.DIHEDRAL>
0

>  <SCORE.SYSTEM.SOLV>
0

>  <SCORE.SYSTEM.norm>
0

>  <SCORE.heavy>
37

>  <SCORE.norm>
-0.142191

>  <RMSD>
0.538

$$$$
ligand
 OpenBabel02271912133D
libRbt.so/2013.1/901 2013/11/27
 37 40  0  0  0  0  0  0  0  0999 V2000
   -1.0218   26.5014   67.2687 C   0  0  1  0  0  0  0  0  0  0  0  0
   -2.0057   25.8201   68.2617 C   0  0  1  0  0  0  0  0  0  0  0  0
   -3.4387   25.7539   67.7000 C   0  0  0  0  0  0  0  0  0  0  0  0
   -3.9114   27.1993   67.3496 C   0  0  1  0  0  0  0  0  0  0  0  0
   -2.9462   27.8583   66.3115 C   0  0  1  0  0  0  0  0  0  0  0  0
   -3.4467   29.3339   65.9698 C   0  0  1  0  0  0  0  0  0  0  0  0
   -4.8910   29.2568   65.3936 C   0  0  1  0  0  0  0  0  0  0  0  0
   -5.7994   28.5624   66.4526 C   0  0  2  0  0  0  0  0  0  0  0  0
   -4.5518   31.5562   64.2500 C   0  0  0  0  0  0  0  0  0  0  0  0
   -1.5293   24.4677   68.6214 N   0  0  0  0  0  0  0  0  0  0  0  0
   -5.4063   30.6398   65.0704 N   0  0  0  0  0  0  0  0  0  0  0  0
   -0.7849   25.7052   66.0914 O   0  0  0  0  0  0  0  0  0  0  0  0
   -1.5737   27.8312   66.8992 O   0  0  0  0  0  0  0  0  0  0  0  0
   -5.3040   27.2222   66.7929 O   0  0  0  0  0  0  0  0  0  0  0  0
   -3.4817   30.1156   67.1568 O   0  0  0  0  0  0  0  0  0  0  0  0
   -7.1293   28.4529   65.9583 O   0  0  0  0  0  0  0  0  0  0  0  0
   -8.0854   27.9826   66.9400 C   0  0  2  0  0  0  0  0  0  0  0  0
   -9.3672   27.3995   66.2993 C   0  0  1  0  0  0  0  0  0  0  0  0
  -10.1808   28.5153   65.5674 C   0  0  2  0  0  0  0  0  0  0  0  0
  -10.5718   29.5792   66.5729 C   0  0  1  0  0  0  0  0  0  0  0  0
   -9.2783   30.1847   67.1959 C   0  0  1  0  0  0  0  0  0  0  0  0
   -9.5882   31.2546   68.2411 C   0  0  0  0  0  0  0  0  0  0  0  0
  -11.3636   30.6310   65.8904 N   0  0  0  0  0  0  0  0  0  0  0  0
   -8.4834   29.0991   67.8484 O   0  0  0  0  0  0  0  0  0  0  0  0
   -8.9595   26.3393   65.4060 O   0  0  0  0  0  0  0  0  0  0  0  0
  -11.3668   27.9569   64.9976 O   0  0  0  0  0  0  0  0  0  0  0  0
   -8.3828   31.7527   68.7685 O   0  0  0  0  0  0  0  0  0  0  0  0
    0.5325   25.6978   65.3468 C   0  0  1  0  0  0  0  0  0  0  0  0
    1.4820   24.6853   66.0441 C   0  0  1  0  0  0  0  0  0  0  0  0
    2.8540   24.6489   65.3105 C   0  0  2  0  0  0  0  0  0  0  0  0
    2.6325   24.2161   63.8402 C   0  0  1  0  0  0  0  0  0  0  0  0
    1.6814   25.2287   63.1072 C   0  0  0  0  0  0  0  0  0  0  0  0
    0.3350   25.2598   63.8613 C   0  0  2  0  0  0  0  0  0  0  0  0
    3.9347   24.1708   63.1326 N   0  0  0  0  0  0  0  0  0  0  0  0
   -0.5466   26.2081   63.1717 N   0  0  0  0  0  0  0  0  0  0  0  0
    1.6881   25.0863   67.4167 O   0  0  0  0  0  0  0  0  0  0  0  0
    3.7190   23.7059   65.9816 O   0  0  0  0  0  0  0  0  0  0  0  0
  1  2  1  0  0  0  0
  1 12  1  6  0  0  0
  1 13  1  0  0  0  0
  2  3  1  0  0  0  0
  2 10  1  6  0  0  0
  4  3  1  6  0  0  0
  4  5  1  0  0  0  0
  4 14  1  0  0  0  0
  5  6  1  0  0  0  0
  5 13  1  1  0  0  0
  6  7  1  0  0  0  0
  6 15  1  1  0  0  0
  7  8  1  0  0  0  0
  7 11  1  1  0  0  0
  8 14  1  0  0  0  0
  8 16  1  6  0  0  0
  9 11  1  0  0  0  0
 17 16  1  6  0  0  0
 17 18  1  0  0  0  0
 17 24  1  0  0  0  0
 18 19  1  0  0  0  0
 18 25  1  6  0  0  0
 19 20  1  0  0  0  0
 19 26  1  1  0  0  0
 20 21  1  0  0  0  0
 20 23  1  6  0  0  0
 21 22  1  1  0  0  0
 21 24  1  0  0  0  0
 22 27  1  0  0  0  0
 28 12  1  1  0  0  0
 28 29  1  0  0  0  0
 28 33  1  0  0  0  0
 29 30  1  0  0  0  0
 29 36  1  1  0  0  0
 30 31  1  0  0  0  0
 30 37  1  1  0  0  0
 31 32  1  0  0  0  0
 31 34  1  6  0  0  0
 32 33  1  0  0  0  0
 33 35  1  6  0  0  0
M  END
>  <CHROM.1>
-147.65056965,50.12821011,-172.20168508,84.33764818,-159.63272203,179.63149376
-3.93974652,27.47661320,66.14053421,-0.40967035,0.01629463,0.23926486

>  <Name>
ligand

>  <RI>
0

>  <Rbt.Current_Directory>
/home/itssahil/PROJECTS/Mol_Feturizer/Test_systems_manuscript/rnas/2g5k

>  <Rbt.Executable>
rbdock ($Id: //depot/dev/client3/rdock/2013.1/src/exe/rbdock.cxx#4 $)

>  <Rbt.Library>
libRbt.so (2013.1, Build901 2013/11/27)

>  <Rbt.Parameter_File>
/export/apps/rDock/src/rDock_2013.1_src/data/scripts/dock_solv.prm

>  <Rbt.Receptor>
prm/pocket_docking_2.prm

>  <SCORE>
-3.98217

>  <SCORE.INTER>
-3.2344

>  <SCORE.INTER.CONST>
1

>  <SCORE.INTER.POLAR>
0

>  <SCORE.INTER.ROT>
6

>  <SCORE.INTER.SOLV>
19.0461

>  <SCORE.INTER.VDW>
-16.105

>  <SCORE.INTER.norm>
-0.0874163

>  <SCORE.INTRA>
-0.789112

>  <SCORE.INTRA.DIHEDRAL>
-2.54676

>  <SCORE.INTRA.DIHEDRAL.0>
11.3972

>  <SCORE.INTRA.POLAR>
0

>  <SCORE.INTRA.POLAR.0>
0

>  <SCORE.INTRA.REPUL>
0

>  <SCORE.INTRA.REPUL.0>
0

>  <SCORE.INTRA.SOLV>
-0.605021

>  <SCORE.INTRA.SOLV.lig_0>
-92.3891

>  <SCORE.INTRA.VDW>
0.78678

>  <SCORE.INTRA.VDW.0>
-2.90606

>  <SCORE.INTRA.norm>
-0.0213274

>  <SCORE.RESTR>
0.041343

>  <SCORE.RESTR.CAVITY>
0.041343

>  <SCORE.RESTR.norm>
0.00111738

>  <SCORE.SYSTEM>
0

>  <SCORE.SYSTEM.CONST>
0

>  <SCORE.SYSTEM.DIHEDRAL>
0

>  <SCORE.SYSTEM.SOLV>
0

>  <SCORE.SYSTEM.norm>
0

>  <SCORE.heavy>
37

>  <SCORE.norm>
-0.107626

>  <RMSD>
0.550

$$$$
ligand
 OpenBabel02271912133D
libRbt.so/2013.1/901 2013/11/27
 37 40  0  0  0  0  0  0  0  0999 V2000
   -0.7920   26.3200   67.5111 C   0  0  1  0  0  0  0  0  0  0  0  0
   -1.8268   25.6806   68.4800 C   0  0  1  0  0  0  0  0  0  0  0  0
   -3.2433   25.6528   67.8748 C   0  0  0  0  0  0  0  0  0  0  0  0
   -3.6594   27.1081   67.4953 C   0  0  1  0  0  0  0  0  0  0  0  0
   -2.6426   27.7252   66.4809 C   0  0  1  0  0  0  0  0  0  0  0  0
   -3.0858   29.2118   66.1089 C   0  0  1  0  0  0  0  0  0  0  0  0
   -4.5135   29.1732   65.4891 C   0  0  1  0  0  0  0  0  0  0  0  0
   -5.4752   28.5192   66.5264 C   0  0  2  0  0  0  0  0  0  0  0  0
   -4.3759   31.2474   63.9434 C   0  0  0  0  0  0  0  0  0  0  0  0
   -1.4043   24.3182   68.8680 N   0  0  0  0  0  0  0  0  0  0  0  0
   -4.9749   30.5679   65.1361 N   0  0  0  0  0  0  0  0  0  0  0  0
   -0.5442   25.5037   66.3498 O   0  0  0  0  0  0  0  0  0  0  0  0
   -1.2903   27.6620   67.1111 O   0  0  0  0  0  0  0  0  0  0  0  0
   -5.0328   27.1681   66.8955 O   0  0  0  0  0  0  0  0  0  0  0  0
   -3.1327   30.0073   67.2863 O   0  0  0  0  0  0  0  0  0  0  0  0
   -6.7921   28.4456   65.9922 O   0  0  0  0  0  0  0  0  0  0  0  0
   -7.7740   27.9168   66.9172 C   0  0  2  0  0  0  0  0  0  0  0  0
   -9.1754   27.7593   66.2811 C   0  0  1  0  0  0  0  0  0  0  0  0
   -9.7859   29.1536   65.9270 C   0  0  2  0  0  0  0  0  0  0  0  0
   -9.9091   29.9736   67.1953 C   0  0  1  0  0  0  0  0  0  0  0  0
   -8.4926   30.1549   67.8186 C   0  0  1  0  0  0  0  0  0  0  0  0
   -8.5333   30.9557   69.1187 C   0  0  0  0  0  0  0  0  0  0  0  0
  -10.5086   31.2905   66.8709 N   0  0  0  0  0  0  0  0  0  0  0  0
   -7.8982   28.8131   68.1054 O   0  0  0  0  0  0  0  0  0  0  0  0
   -9.0297   26.9109   65.1205 O   0  0  0  0  0  0  0  0  0  0  0  0
  -11.0853   28.9839   65.3560 O   0  0  0  0  0  0  0  0  0  0  0  0
   -9.3008   30.2592   70.0702 O   0  0  0  0  0  0  0  0  0  0  0  0
    0.7006   25.6291   65.4985 C   0  0  1  0  0  0  0  0  0  0  0  0
    1.7484   24.6035   66.0113 C   0  0  1  0  0  0  0  0  0  0  0  0
    3.0497   24.7016   65.1634 C   0  0  2  0  0  0  0  0  0  0  0  0
    2.7152   24.3969   63.6824 C   0  0  1  0  0  0  0  0  0  0  0  0
    1.6626   25.4259   63.1344 C   0  0  0  0  0  0  0  0  0  0  0  0
    0.3888   25.3218   63.9998 C   0  0  2  0  0  0  0  0  0  0  0  0
    3.9497   24.4805   62.8655 N   0  0  0  0  0  0  0  0  0  0  0  0
   -0.5882   26.2862   63.4828 N   0  0  0  0  0  0  0  0  0  0  0  0
    2.0601   24.8849   67.3937 O   0  0  0  0  0  0  0  0  0  0  0  0
    4.0083   23.7434   65.6642 O   0  0  0  0  0  0  0  0  0  0  0  0
  1  2  1  0  0  0  0
  1 12  1  6  0  0  0
  1 13  1  0  0  0  0
  2  3  1  0  0  0  0
  2 10  1  6  0  0  0
  4  3  1  6  0  0  0
  4  5  1  0  0  0  0
  4 14  1  0  0  0  0
  5  6  1  0  0  0  0
  5 13  1  1  0  0  0
  6  7  1  0  0  0  0
  6 15  1  1  0  0  0
  7  8  1  0  0  0  0
  7 11  1  1  0  0  0
  8 14  1  0  0  0  0
  8 16  1  6  0  0  0
  9 11  1  0  0  0  0
 17 16  1  6  0  0  0
 17 18  1  0  0  0  0
 17 24  1  0  0  0  0
 18 19  1  0  0  0  0
 18 25  1  6  0  0  0
 19 20  1  0  0  0  0
 19 26  1  1  0  0  0
 20 21  1  0  0  0  0
 20 23  1  6  0  0  0
 21 22  1  1  0  0  0
 21 24  1  0  0  0  0
 22 27  1  0  0  0  0
 28 12  1  1  0  0  0
 28 29  1  0  0  0  0
 28 33  1  0  0  0  0
 29 30  1  0  0  0  0
 29 36  1  1  0  0  0
 30 31  1  0  0  0  0
 30 37  1  1  0  0  0
 31 32  1  0  0  0  0
 31 34  1  6  0  0  0
 32 33  1  0  0  0  0
 33 35  1  6  0  0  0
M  END
>  <CHROM.1>
-159.10748563,73.71677656,-176.77641674,93.73569964,-176.15045884,62.19099329
-3.67553567,27.47347597,66.32272608,-0.03574601,-0.42861320,1.85037187

>  <Name>
ligand

>  <RI>
0

>  <Rbt.Current_Directory>
/home/itssahil/PROJECTS/Mol_Feturizer/Test_systems_manuscript/rnas/2g5k

>  <Rbt.Executable>
rbdock ($Id: //depot/dev/client3/rdock/2013.1/src/exe/rbdock.cxx#4 $)

>  <Rbt.Library>
libRbt.so (2013.1, Build901 2013/11/27)

>  <Rbt.Parameter_File>
/export/apps/rDock/src/rDock_2013.1_src/data/scripts/dock_solv.prm

>  <Rbt.Receptor>
prm/pocket_docking_2.prm

>  <SCORE>
-8.21739

>  <SCORE.INTER>
-5.96212

>  <SCORE.INTER.CONST>
1

>  <SCORE.INTER.POLAR>
0

>  <SCORE.INTER.ROT>
6

>  <SCORE.INTER.SOLV>
20.7238

>  <SCORE.INTER.VDW>
-18.4827

>  <SCORE.INTER.norm>
-0.161138

>  <SCORE.INTRA>
-2.25526

>  <SCORE.INTRA.DIHEDRAL>
-4.82704

>  <SCORE.INTRA.DIHEDRAL.0>
11.3972

>  <SCORE.INTRA.POLAR>
0

>  <SCORE.INTRA.POLAR.0>
0

>  <SCORE.INTRA.REPUL>
0

>  <SCORE.INTRA.REPUL.0>
0

>  <SCORE.INTRA.SOLV>
-0.0278395

>  <SCORE.INTRA.SOLV.lig_0>
-92.3891

>  <SCORE.INTRA.VDW>
0.172176

>  <SCORE.INTRA.VDW.0>
-2.90606

>  <SCORE.INTRA.norm>
-0.060953

>  <SCORE.RESTR>
0

>  <SCORE.RESTR.CAVITY>
0

>  <SCORE.RESTR.norm>
0

>  <SCORE.SYSTEM>
0

>  <SCORE.SYSTEM.CONST>
0

>  <SCORE.SYSTEM.DIHEDRAL>
0

>  <SCORE.SYSTEM.SOLV>
0

>  <SCORE.SYSTEM.norm>
0

>  <SCORE.heavy>
37

>  <SCORE.norm>
-0.222091

>  <RMSD>
0.630

$$$$
ligand
 OpenBabel02271912133D
libRbt.so/2013.1/901 2013/11/27
 37 40  0  0  0  0  0  0  0  0999 V2000
   -0.8037   26.3918   67.6132 C   0  0  1  0  0  0  0  0  0  0  0  0
   -1.8393   25.7510   68.5804 C   0  0  1  0  0  0  0  0  0  0  0  0
   -3.2611   25.7534   67.9872 C   0  0  0  0  0  0  0  0  0  0  0  0
   -3.6596   27.2206   67.6355 C   0  0  1  0  0  0  0  0  0  0  0  0
   -2.6427   27.8401   66.6227 C   0  0  1  0  0  0  0  0  0  0  0  0
   -3.0677   29.3388   66.2792 C   0  0  1  0  0  0  0  0  0  0  0  0
   -4.5009   29.3308   65.6713 C   0  0  1  0  0  0  0  0  0  0  0  0
   -5.4631   28.6733   66.7059 C   0  0  2  0  0  0  0  0  0  0  0  0
   -4.4982   31.3570   64.0573 C   0  0  0  0  0  0  0  0  0  0  0  0
   -1.4330   24.3765   68.9421 N   0  0  0  0  0  0  0  0  0  0  0  0
   -4.9454   30.7376   65.3455 N   0  0  0  0  0  0  0  0  0  0  0  0
   -0.5774   25.5916   66.4365 O   0  0  0  0  0  0  0  0  0  0  0  0
   -1.2861   27.7473   67.2400 O   0  0  0  0  0  0  0  0  0  0  0  0
   -5.0370   27.3101   67.0487 O   0  0  0  0  0  0  0  0  0  0  0  0
   -3.0932   30.1152   67.4699 O   0  0  0  0  0  0  0  0  0  0  0  0
   -6.7854   28.6272   66.1821 O   0  0  0  0  0  0  0  0  0  0  0  0
   -7.7649   28.0868   67.1028 C   0  0  2  0  0  0  0  0  0  0  0  0
   -9.1496   27.8695   66.4479 C   0  0  1  0  0  0  0  0  0  0  0  0
   -9.7991   29.2350   66.0530 C   0  0  2  0  0  0  0  0  0  0  0  0
   -9.9701   30.0779   67.3005 C   0  0  1  0  0  0  0  0  0  0  0  0
   -8.5709   30.3192   67.9423 C   0  0  1  0  0  0  0  0  0  0  0  0
   -8.6594   31.1463   69.2234 C   0  0  0  0  0  0  0  0  0  0  0  0
  -10.6065   31.3671   66.9373 N   0  0  0  0  0  0  0  0  0  0  0  0
   -7.9381   29.0041   68.2685 O   0  0  0  0  0  0  0  0  0  0  0  0
   -8.9571   27.0013   65.3090 O   0  0  0  0  0  0  0  0  0  0  0  0
  -11.0825   29.0103   65.4652 O   0  0  0  0  0  0  0  0  0  0  0  0
   -9.4091   30.4404   70.1821 O   0  0  0  0  0  0  0  0  0  0  0  0
    0.6701   25.7009   65.5869 C   0  0  1  0  0  0  0  0  0  0  0  0
    1.7154   24.6835   66.1209 C   0  0  1  0  0  0  0  0  0  0  0  0
    3.0193   24.7655   65.2754 C   0  0  2  0  0  0  0  0  0  0  0  0
    2.6890   24.4349   63.7989 C   0  0  1  0  0  0  0  0  0  0  0  0
    1.6390   25.4550   63.2296 C   0  0  0  0  0  0  0  0  0  0  0  0
    0.3625   25.3673   64.0930 C   0  0  2  0  0  0  0  0  0  0  0  0
    3.9260   24.5029   62.9844 N   0  0  0  0  0  0  0  0  0  0  0  0
   -0.6120   26.3233   63.5559 N   0  0  0  0  0  0  0  0  0  0  0  0
    2.0232   24.9891   67.4990 O   0  0  0  0  0  0  0  0  0  0  0  0
    3.9755   23.8154   65.7959 O   0  0  0  0  0  0  0  0  0  0  0  0
  1  2  1  0  0  0  0
  1 12  1  6  0  0  0
  1 13  1  0  0  0  0
  2  3  1  0  0  0  0
  2 10  1  6  0  0  0
  4  3  1  6  0  0  0
  4  5  1  0  0  0  0
  4 14  1  0  0  0  0
  5  6  1  0  0  0  0
  5 13  1  1  0  0  0
  6  7  1  0  0  0  0
  6 15  1  1  0  0  0
  7  8  1  0  0  0  0
  7 11  1  1  0  0  0
  8 14  1  0  0  0  0
  8 16  1  6  0  0  0
  9 11  1  0  0  0  0
 17 16  1  6  0  0  0
 17 18  1  0  0  0  0
 17 24  1  0  0  0  0
 18 19  1  0  0  0  0
 18 25  1  6  0  0  0
 19 20  1  0  0  0  0
 19 26  1  1  0  0  0
 20 21  1  0  0  0  0
 20 23  1  6  0  0  0
 21 22  1  1  0  0  0
 21 24  1  0  0  0  0
 22 27  1  0  0  0  0
 28 12  1  1  0  0  0
 28 29  1  0  0  0  0
 28 33  1  0  0  0  0
 29 30  1  0  0  0  0
 29 36  1  1  0  0  0
 30 31  1  0  0  0  0
 30 37  1  1  0  0  0
 31 32  1  0  0  0  0
 31 34  1  6  0  0  0
 32 33  1  0  0  0  0
 33 35  1  6  0  0  0
M  END
>  <CHROM.1>
-158.27632782,82.28021158,-177.25813566,91.18006464,-172.21482557,62.73816292
-3.69743443,27.57678220,66.45185035,-0.04191153,-0.43487994,1.83873709

>  <Name>
ligand

>  <RI>
0

>  <Rbt.Current_Directory>
/home/itssahil/PROJECTS/Mol_Feturizer/Test_systems_manuscript/rnas/2g5k

>  <Rbt.Executable>
rbdock ($Id: //depot/dev/client3/rdock/2013.1/src/exe/rbdock.cxx#4 $)

>  <Rbt.Library>
libRbt.so (2013.1, Build901 2013/11/27)

>  <Rbt.Parameter_File>
/export/apps/rDock/src/rDock_2013.1_src/data/scripts/dock_solv.prm

>  <Rbt.Receptor>
prm/pocket_docking_2.prm

>  <SCORE>
-8.13662

>  <SCORE.INTER>
-5.79122

>  <SCORE.INTER.CONST>
1

>  <SCORE.INTER.POLAR>
0

>  <SCORE.INTER.ROT>
6

>  <SCORE.INTER.SOLV>
21.0291

>  <SCORE.INTER.VDW>
-18.4705

>  <SCORE.INTER.norm>
-0.156519

>  <SCORE.INTRA>
-2.34929

>  <SCORE.INTRA.DIHEDRAL>
-4.73028

>  <SCORE.INTRA.DIHEDRAL.0>
11.3972

>  <SCORE.INTRA.POLAR>
0

>  <SCORE.INTRA.POLAR.0>
0

>  <SCORE.INTRA.REPUL>
0

>  <SCORE.INTRA.REPUL.0>
0

>  <SCORE.INTRA.SOLV>
-0.135019

>  <SCORE.INTRA.SOLV.lig_0>
-92.3891

>  <SCORE.INTRA.VDW>
0.0833609

>  <SCORE.INTRA.VDW.0>
-2.90606

>  <SCORE.INTRA.norm>
-0.0634943

>  <SCORE.RESTR>
0.00389198

>  <SCORE.RESTR.CAVITY>
0.00389198

>  <SCORE.RESTR.norm>
0.000105189

>  <SCORE.SYSTEM>
0

>  <SCORE.SYSTEM.CONST>
0

>  <SCORE.SYSTEM.DIHEDRAL>
0

>  <SCORE.SYSTEM.SOLV>
0

>  <SCORE.SYSTEM.norm>
0

>  <SCORE.heavy>
37

>  <SCORE.norm>
-0.219909

>  <RMSD>
0.641

$$$$
ligand
 OpenBabel02271912133D
libRbt.so/2013.1/901 2013/11/27
 37 40  0  0  0  0  0  0  0  0999 V2000
   -0.8197   26.3487   67.5190 C   0  0  1  0  0  0  0  0  0  0  0  0
   -1.7894   25.6741   68.5306 C   0  0  1  0  0  0  0  0  0  0  0  0
   -3.2270   25.5898   67.9831 C   0  0  0  0  0  0  0  0  0  0  0  0
   -3.7136   27.0266   67.6172 C   0  0  1  0  0  0  0  0  0  0  0  0
   -2.7629   27.6780   66.5610 C   0  0  1  0  0  0  0  0  0  0  0  0
   -3.2774   29.1450   66.2035 C   0  0  1  0  0  0  0  0  0  0  0  0
   -4.7263   29.0494   65.6420 C   0  0  1  0  0  0  0  0  0  0  0  0
   -5.6197   28.3633   66.7189 C   0  0  2  0  0  0  0  0  0  0  0  0
   -4.5658   31.2224   64.2410 C   0  0  0  0  0  0  0  0  0  0  0  0
   -1.2996   24.3305   68.9046 N   0  0  0  0  0  0  0  0  0  0  0  0
   -5.2548   30.4240   65.3045 N   0  0  0  0  0  0  0  0  0  0  0  0
   -0.5878   25.5378   66.3507 O   0  0  0  0  0  0  0  0  0  0  0  0
   -1.3848   27.6691   67.1362 O   0  0  0  0  0  0  0  0  0  0  0  0
   -5.1113   27.0316   67.0732 O   0  0  0  0  0  0  0  0  0  0  0  0
   -3.3073   29.9429   67.3798 O   0  0  0  0  0  0  0  0  0  0  0  0
   -6.9533   28.2373   66.2386 O   0  0  0  0  0  0  0  0  0  0  0  0
   -7.9098   27.8441   67.2533 C   0  0  2  0  0  0  0  0  0  0  0  0
   -9.1650   27.1589   66.6629 C   0  0  1  0  0  0  0  0  0  0  0  0
   -9.9993   28.1668   65.8082 C   0  0  2  0  0  0  0  0  0  0  0  0
  -10.4352   29.3183   66.6914 C   0  0  1  0  0  0  0  0  0  0  0  0
   -9.1688   30.0243   67.2619 C   0  0  1  0  0  0  0  0  0  0  0  0
   -9.5244   31.1882   68.1849 C   0  0  0  0  0  0  0  0  0  0  0  0
  -11.2466   30.2683   65.8927 N   0  0  0  0  0  0  0  0  0  0  0  0
   -8.3528   29.0375   68.0344 O   0  0  0  0  0  0  0  0  0  0  0  0
   -8.7141   26.0235   65.8911 O   0  0  0  0  0  0  0  0  0  0  0  0
  -11.1604   27.5164   65.2867 O   0  0  0  0  0  0  0  0  0  0  0  0
   -8.3726   31.9593   68.4262 O   0  0  0  0  0  0  0  0  0  0  0  0
    0.6572   25.6497   65.4978 C   0  0  1  0  0  0  0  0  0  0  0  0
    1.7056   24.6336   66.0282 C   0  0  1  0  0  0  0  0  0  0  0  0
    3.0070   24.7182   65.1791 C   0  0  2  0  0  0  0  0  0  0  0  0
    2.6731   24.3881   63.7034 C   0  0  1  0  0  0  0  0  0  0  0  0
    1.6200   25.4070   63.1377 C   0  0  0  0  0  0  0  0  0  0  0  0
    0.3460   25.3167   64.0044 C   0  0  2  0  0  0  0  0  0  0  0  0
    3.9078   24.4587   62.8855 N   0  0  0  0  0  0  0  0  0  0  0  0
   -0.6314   26.2716   63.4708 N   0  0  0  0  0  0  0  0  0  0  0  0
    2.0167   24.9386   67.4057 O   0  0  0  0  0  0  0  0  0  0  0  0
    3.9661   23.7692   65.6963 O   0  0  0  0  0  0  0  0  0  0  0  0
  1  2  1  0  0  0  0
  1 12  1  6  0  0  0
  1 13  1  0  0  0  0
  2  3  1  0  0  0  0
  2 10  1  6  0  0  0
  4  3  1  6  0  0  0
  4  5  1  0  0  0  0
  4 14  1  0  0  0  0
  5  6  1  0  0  0  0
  5 13  1  1  0  0  0
  6  7  1  0  0  0  0
  6 15  1  1  0  0  0
  7  8  1  0  0  0  0
  7 11  1  1  0  0  0
  8 14  1  0  0  0  0
  8 16  1  6  0  0  0
  9 11  1  0  0  0  0
 17 16  1  6  0  0  0
 17 18  1  0  0  0  0
 17 24  1  0  0  0  0
 18 19  1  0  0  0  0
 18 25  1  6  0  0  0
 19 20  1  0  0  0  0
 19 26  1  1  0  0  0
 20 21  1  0  0  0  0
 20 23  1  6  0  0  0
 21 22  1  1  0  0  0
 21 24  1  0  0  0  0
 22 27  1  0  0  0  0
 28 12  1  1  0  0  0
 28 29  1  0  0  0  0
 28 33  1  0  0  0  0
 29 30  1  0  0  0  0
 29 36  1  1  0  0  0
 30 31  1  0  0  0  0
 30 37  1  1  0  0  0
 31 32  1  0  0  0  0
 31 34  1  6  0  0  0
 32 33  1  0  0  0  0
 33 35  1  6  0  0  0
M  END
>  <CHROM.1>
-155.22512120,62.88739693,-169.00771395,91.99394393,-156.22059084,-167.04796304
-3.79380685,27.35243757,66.28319194,0.23016943,-0.32478776,2.52138786

>  <Name>
ligand

>  <RI>
0

>  <Rbt.Current_Directory>
/home/itssahil/PROJECTS/Mol_Feturizer/Test_systems_manuscript/rnas/2g5k

>  <Rbt.Executable>
rbdock ($Id: //depot/dev/client3/rdock/2013.1/src/exe/rbdock.cxx#4 $)

>  <Rbt.Library>
libRbt.so (2013.1, Build901 2013/11/27)

>  <Rbt.Parameter_File>
/export/apps/rDock/src/rDock_2013.1_src/data/scripts/dock_solv.prm

>  <Rbt.Receptor>
prm/pocket_docking_2.prm

>  <SCORE>
-5.18013

>  <SCORE.INTER>
-4.50832

>  <SCORE.INTER.CONST>
1

>  <SCORE.INTER.POLAR>
0

>  <SCORE.INTER.ROT>
6

>  <SCORE.INTER.SOLV>
19.2073

>  <SCORE.INTER.VDW>
-17.008

>  <SCORE.INTER.norm>
-0.121846

>  <SCORE.INTRA>
-0.680394

>  <SCORE.INTRA.DIHEDRAL>
-1.14674

>  <SCORE.INTRA.DIHEDRAL.0>
11.3972

>  <SCORE.INTRA.POLAR>
0

>  <SCORE.INTRA.POLAR.0>
0

>  <SCORE.INTRA.REPUL>
0

>  <SCORE.INTRA.REPUL.0>
0

>  <SCORE.INTRA.SOLV>
-0.560868

>  <SCORE.INTRA.SOLV.lig_0>
-92.3891

>  <SCORE.INTRA.VDW>
0.173412

>  <SCORE.INTRA.VDW.0>
-2.90606

>  <SCORE.INTRA.norm>
-0.018389

>  <SCORE.RESTR>
0.00857886

>  <SCORE.RESTR.CAVITY>
0.00857886

>  <SCORE.RESTR.norm>
0.000231861

>  <SCORE.SYSTEM>
0

>  <SCORE.SYSTEM.CONST>
0

>  <SCORE.SYSTEM.DIHEDRAL>
0

>  <SCORE.SYSTEM.SOLV>
0

>  <SCORE.SYSTEM.norm>
0

>  <SCORE.heavy>
37

>  <SCORE.norm>
-0.140004

>  <RMSD>
0.653

$$$$
ligand
 OpenBabel02271912133D
libRbt.so/2013.1/901 2013/11/27
 37 40  0  0  0  0  0  0  0  0999 V2000
   -0.7348   26.3465   67.5930 C   0  0  1  0  0  0  0  0  0  0  0  0
   -1.7761   25.7320   68.5711 C   0  0  1  0  0  0  0  0  0  0  0  0
   -3.1978   25.7368   67.9778 C   0  0  0  0  0  0  0  0  0  0  0  0
   -3.5831   27.2012   67.6005 C   0  0  1  0  0  0  0  0  0  0  0  0
   -2.5607   27.7938   66.5772 C   0  0  1  0  0  0  0  0  0  0  0  0
   -2.9723   29.2900   66.2076 C   0  0  1  0  0  0  0  0  0  0  0  0
   -4.4056   29.2843   65.5998 C   0  0  1  0  0  0  0  0  0  0  0  0
   -5.3736   28.6536   66.6456 C   0  0  2  0  0  0  0  0  0  0  0  0
   -4.4094   31.2711   63.9375 C   0  0  0  0  0  0  0  0  0  0  0  0
   -1.3822   24.3604   68.9567 N   0  0  0  0  0  0  0  0  0  0  0  0
   -4.8374   30.6892   65.2495 N   0  0  0  0  0  0  0  0  0  0  0  0
   -0.5158   25.5239   66.4304 O   0  0  0  0  0  0  0  0  0  0  0  0
   -1.2050   27.6995   67.1961 O   0  0  0  0  0  0  0  0  0  0  0  0
   -4.9597   27.2928   67.0121 O   0  0  0  0  0  0  0  0  0  0  0  0
   -2.9907   30.0872   67.3847 O   0  0  0  0  0  0  0  0  0  0  0  0
   -6.6963   28.6104   66.1225 O   0  0  0  0  0  0  0  0  0  0  0  0
   -7.6852   28.1217   67.0619 C   0  0  2  0  0  0  0  0  0  0  0  0
   -9.0841   27.9463   66.4250 C   0  0  1  0  0  0  0  0  0  0  0  0
   -9.6864   29.3288   66.0147 C   0  0  2  0  0  0  0  0  0  0  0  0
   -9.8121   30.1972   67.2501 C   0  0  1  0  0  0  0  0  0  0  0  0
   -8.3979   30.3958   67.8734 C   0  0  1  0  0  0  0  0  0  0  0  0
   -8.4414   31.2459   69.1417 C   0  0  0  0  0  0  0  0  0  0  0  0
  -10.4038   31.5034   66.8725 N   0  0  0  0  0  0  0  0  0  0  0  0
   -7.8113   29.0633   68.2143 O   0  0  0  0  0  0  0  0  0  0  0  0
   -8.9366   27.0535   65.2984 O   0  0  0  0  0  0  0  0  0  0  0  0
  -10.9836   29.1432   65.4438 O   0  0  0  0  0  0  0  0  0  0  0  0
   -9.2018   30.5813   70.1213 O   0  0  0  0  0  0  0  0  0  0  0  0
    0.7082   25.6438   65.5487 C   0  0  1  0  0  0  0  0  0  0  0  0
    1.7680   24.6211   66.0424 C   0  0  1  0  0  0  0  0  0  0  0  0
    3.0485   24.7137   65.1629 C   0  0  2  0  0  0  0  0  0  0  0  0
    2.6784   24.3997   63.6922 C   0  0  1  0  0  0  0  0  0  0  0  0
    1.6129   25.4256   63.1633 C   0  0  0  0  0  0  0  0  0  0  0  0
    0.3603   25.3271   64.0599 C   0  0  2  0  0  0  0  0  0  0  0  0
    3.8929   24.4780   62.8453 N   0  0  0  0  0  0  0  0  0  0  0  0
   -0.6287   26.2886   63.5604 N   0  0  0  0  0  0  0  0  0  0  0  0
    2.1129   24.9111   67.4151 O   0  0  0  0  0  0  0  0  0  0  0  0
    4.0188   23.7583   65.6464 O   0  0  0  0  0  0  0  0  0  0  0  0
  1  2  1  0  0  0  0
  1 12  1  6  0  0  0
  1 13  1  0  0  0  0
  2  3  1  0  0  0  0
  2 10  1  6  0  0  0
  4  3  1  6  0  0  0
  4  5  1  0  0  0  0
  4 14  1  0  0  0  0
  5  6  1  0  0  0  0
  5 13  1  1  0  0  0
  6  7  1  0  0  0  0
  6 15  1  1  0  0  0
  7  8  1  0  0  0  0
  7 11  1  1  0  0  0
  8 14  1  0  0  0  0
  8 16  1  6  0  0  0
  9 11  1  0  0  0  0
 17 16  1  6  0  0  0
 17 18  1  0  0  0  0
 17 24  1  0  0  0  0
 18 19  1  0  0  0  0
 18 25  1  6  0  0  0
 19 20  1  0  0  0  0
 19 26  1  1  0  0  0
 20 21  1  0  0  0  0
 20 23  1  6  0  0  0
 21 22  1  1  0  0  0
 21 24  1  0  0  0  0
 22 27  1  0  0  0  0
 28 12  1  1  0  0  0
 28 29  1  0  0  0  0
 28 33  1  0  0  0  0
 29 30  1  0  0  0  0
 29 36  1  1  0  0  0
 30 31  1  0  0  0  0
 30 37  1  1  0  0  0
 31 32  1  0  0  0  0
 31 34  1  6  0  0  0
 32 33  1  0  0  0  0
 33 35  1  6  0  0  0
M  END
>  <CHROM.1>
-160.70157330,83.59158753,-176.00794846,93.66573330,-174.04107610,62.98665454
-3.61783983,27.57604490,66.39562114,-0.04584575,-0.44747055,1.82567414

>  <Name>
ligand

>  <RI>
0

>  <Rbt.Current_Directory>
/home/itssahil/PROJECTS/Mol_Feturizer/Test_systems_manuscript/rnas/2g5k

>  <Rbt.Executable>
rbdock ($Id: //depot/dev/client3/rdock/2013.1/src/exe/rbdock.cxx#4 $)

>  <Rbt.Library>
libRbt.so (2013.1, Build901 2013/11/27)

>  <Rbt.Parameter_File>
/export/apps/rDock/src/rDock_2013.1_src/data/scripts/dock_solv.prm

>  <Rbt.Receptor>
prm/pocket_docking_2.prm

>  <SCORE>
-8.23431

>  <SCORE.INTER>
-5.81308

>  <SCORE.INTER.CONST>
1

>  <SCORE.INTER.POLAR>
0

>  <SCORE.INTER.ROT>
6

>  <SCORE.INTER.SOLV>
21.1593

>  <SCORE.INTER.VDW>
-18.5285

>  <SCORE.INTER.norm>
-0.15711

>  <SCORE.INTRA>
-2.42123

>  <SCORE.INTRA.DIHEDRAL>
-4.70318

>  <SCORE.INTRA.DIHEDRAL.0>
11.3972

>  <SCORE.INTRA.POLAR>
0

>  <SCORE.INTRA.POLAR.0>
0

>  <SCORE.INTRA.REPUL>
0

>  <SCORE.INTRA.REPUL.0>
0

>  <SCORE.INTRA.SOLV>
-0.108398

>  <SCORE.INTRA.SOLV.lig_0>
-92.3891

>  <SCORE.INTRA.VDW>
-0.0154437

>  <SCORE.INTRA.VDW.0>
-2.90606

>  <SCORE.INTRA.norm>
-0.0654388

>  <SCORE.RESTR>
0

>  <SCORE.RESTR.CAVITY>
0

>  <SCORE.RESTR.norm>
0

>  <SCORE.SYSTEM>
0

>  <SCORE.SYSTEM.CONST>
0

>  <SCORE.SYSTEM.DIHEDRAL>
0

>  <SCORE.SYSTEM.SOLV>
0

>  <SCORE.SYSTEM.norm>
0

>  <SCORE.heavy>
37

>  <SCORE.norm>
-0.222549

>  <RMSD>
0.667

$$$$
ligand
 OpenBabel02271912133D
libRbt.so/2013.1/901 2013/11/27
 37 40  0  0  0  0  0  0  0  0999 V2000
   -0.8181   26.4156   67.4768 C   0  0  1  0  0  0  0  0  0  0  0  0
   -1.8634   25.7775   68.4353 C   0  0  1  0  0  0  0  0  0  0  0  0
   -3.2858   25.8144   67.8449 C   0  0  0  0  0  0  0  0  0  0  0  0
   -3.6590   27.2940   67.5177 C   0  0  1  0  0  0  0  0  0  0  0  0
   -2.6329   27.9118   66.5132 C   0  0  1  0  0  0  0  0  0  0  0  0
   -3.0321   29.4232   66.1949 C   0  0  1  0  0  0  0  0  0  0  0  0
   -4.4662   29.4501   65.5895 C   0  0  1  0  0  0  0  0  0  0  0  0
   -5.4382   28.7929   66.6152 C   0  0  2  0  0  0  0  0  0  0  0  0
   -4.5841   31.4410   63.9364 C   0  0  0  0  0  0  0  0  0  0  0  0
   -1.4808   24.3903   68.7740 N   0  0  0  0  0  0  0  0  0  0  0  0
   -4.8863   30.8696   65.2874 N   0  0  0  0  0  0  0  0  0  0  0  0
   -0.6078   25.6307   66.2868 O   0  0  0  0  0  0  0  0  0  0  0  0
   -1.2772   27.7852   67.1264 O   0  0  0  0  0  0  0  0  0  0  0  0
   -5.0355   27.4171   66.9350 O   0  0  0  0  0  0  0  0  0  0  0  0
   -3.0420   30.1804   67.3981 O   0  0  0  0  0  0  0  0  0  0  0  0
   -6.7619   28.7786   66.0931 O   0  0  0  0  0  0  0  0  0  0  0  0
   -7.7472   28.2287   67.0018 C   0  0  2  0  0  0  0  0  0  0  0  0
   -9.1448   28.0804   66.3550 C   0  0  1  0  0  0  0  0  0  0  0  0
   -9.7572   29.4801   66.0260 C   0  0  2  0  0  0  0  0  0  0  0  0
   -9.8894   30.2738   67.3100 C   0  0  1  0  0  0  0  0  0  0  0  0
   -8.4768   30.4461   67.9445 C   0  0  1  0  0  0  0  0  0  0  0  0
   -8.5266   31.2202   69.2604 C   0  0  0  0  0  0  0  0  0  0  0  0
  -10.4907   31.5955   67.0092 N   0  0  0  0  0  0  0  0  0  0  0  0
   -7.8803   29.1003   68.2073 O   0  0  0  0  0  0  0  0  0  0  0  0
   -8.9906   27.2562   65.1782 O   0  0  0  0  0  0  0  0  0  0  0  0
  -11.0530   29.3187   65.4446 O   0  0  0  0  0  0  0  0  0  0  0  0
   -9.2792   30.4922   70.2002 O   0  0  0  0  0  0  0  0  0  0  0  0
    0.6575   25.7015   65.4598 C   0  0  1  0  0  0  0  0  0  0  0  0
    1.6747   24.6781   66.0348 C   0  0  1  0  0  0  0  0  0  0  0  0
    2.9960   24.7207   65.2136 C   0  0  2  0  0  0  0  0  0  0  0  0
    2.6886   24.3653   63.7380 C   0  0  1  0  0  0  0  0  0  0  0  0
    1.6674   25.3909   63.1275 C   0  0  0  0  0  0  0  0  0  0  0  0
    0.3731   25.3424   63.9672 C   0  0  2  0  0  0  0  0  0  0  0  0
    3.9421   24.3958   62.9467 N   0  0  0  0  0  0  0  0  0  0  0  0
   -0.5743   26.3033   63.3918 N   0  0  0  0  0  0  0  0  0  0  0  0
    1.9611   25.0068   67.4122 O   0  0  0  0  0  0  0  0  0  0  0  0
    3.9255   23.7657   65.7720 O   0  0  0  0  0  0  0  0  0  0  0  0
  1  2  1  0  0  0  0
  1 12  1  6  0  0  0
  1 13  1  0  0  0  0
  2  3  1  0  0  0  0
  2 10  1  6  0  0  0
  4  3  1  6  0  0  0
  4  5  1  0  0  0  0
  4 14  1  0  0  0  0
  5  6  1  0  0  0  0
  5 13  1  1  0  0  0
  6  7  1  0  0  0  0
  6 15  1  1  0  0  0
  7  8  1  0  0  0  0
  7 11  1  1  0  0  0
  8 14  1  0  0  0  0
  8 16  1  6  0  0  0
  9 11  1  0  0  0  0
 17 16  1  6  0  0  0
 17 18  1  0  0  0  0
 17 24  1  0  0  0  0
 18 19  1  0  0  0  0
 18 25  1  6  0  0  0
 19 20  1  0  0  0  0
 19 26  1  1  0  0  0
 20 21  1  0  0  0  0
 20 23  1  6  0  0  0
 21 22  1  1  0  0  0
 21 24  1  0  0  0  0
 22 27  1  0  0  0  0
 28 12  1  1  0  0  0
 28 29  1  0  0  0  0
 28 33  1  0  0  0  0
 29 30  1  0  0  0  0
 29 36  1  1  0  0  0
 30 31  1  0  0  0  0
 30 37  1  1  0  0  0
 31 32  1  0  0  0  0
 31 34  1  6  0  0  0
 32 33  1  0  0  0  0
 33 35  1  6  0  0  0
M  END
>  <CHROM.1>
-156.38038523,90.16778366,-177.82493289,88.30297371,-173.65282186,63.14056842
-3.68160442,27.65278548,66.37195462,-0.04538591,-0.45368230,1.83117336

>  <Name>
ligand

>  <RI>
0

>  <Rbt.Current_Directory>
/home/itssahil/PROJECTS/Mol_Feturizer/Test_systems_manuscript/rnas/2g5k

>  <Rbt.Executable>
rbdock ($Id: //depot/dev/client3/rdock/2013.1/src/exe/rbdock.cxx#4 $)

>  <Rbt.Library>
libRbt.so (2013.1, Build901 2013/11/27)

>  <Rbt.Parameter_File>
/export/apps/rDock/src/rDock_2013.1_src/data/scripts/dock_solv.prm

>  <Rbt.Receptor>
prm/pocket_docking_2.prm

>  <SCORE>
-8.1845

>  <SCORE.INTER>
-5.73953

>  <SCORE.INTER.CONST>
1

>  <SCORE.INTER.POLAR>
0

>  <SCORE.INTER.ROT>
6

>  <SCORE.INTER.SOLV>
21.1904

>  <SCORE.INTER.VDW>
-18.4898

>  <SCORE.INTER.norm>
-0.155122

>  <SCORE.INTRA>
-2.45343

>  <SCORE.INTRA.DIHEDRAL>
-4.80284

>  <SCORE.INTRA.DIHEDRAL.0>
11.3972

>  <SCORE.INTRA.POLAR>
0

>  <SCORE.INTRA.POLAR.0>
0

>  <SCORE.INTRA.REPUL>
0

>  <SCORE.INTRA.REPUL.0>
0

>  <SCORE.INTRA.SOLV>
-0.18767

>  <SCORE.INTRA.SOLV.lig_0>
-92.3891

>  <SCORE.INTRA.VDW>
0.0418283

>  <SCORE.INTRA.VDW.0>
-2.90606

>  <SCORE.INTRA.norm>
-0.0663088

>  <SCORE.RESTR>
0.00845168

>  <SCORE.RESTR.CAVITY>
0.00845168

>  <SCORE.RESTR.norm>
0.000228424

>  <SCORE.SYSTEM>
0

>  <SCORE.SYSTEM.CONST>
0

>  <SCORE.SYSTEM.DIHEDRAL>
0

>  <SCORE.SYSTEM.SOLV>
0

>  <SCORE.SYSTEM.norm>
0

>  <SCORE.heavy>
37

>  <SCORE.norm>
-0.221203

>  <RMSD>
0.668

$$$$
ligand
 OpenBabel02271912133D
libRbt.so/2013.1/901 2013/11/27
 37 40  0  0  0  0  0  0  0  0999 V2000
   -1.0880   26.5452   67.1872 C   0  0  1  0  0  0  0  0  0  0  0  0
   -2.2386   25.8763   67.9917 C   0  0  1  0  0  0  0  0  0  0  0  0
   -3.6001   26.0304   67.2877 C   0  0  0  0  0  0  0  0  0  0  0  0
   -3.8847   27.5484   67.0642 C   0  0  1  0  0  0  0  0  0  0  0  0
   -2.7499   28.2019   66.2106 C   0  0  1  0  0  0  0  0  0  0  0  0
   -3.0599   29.7520   65.9965 C   0  0  1  0  0  0  0  0  0  0  0  0
   -4.4322   29.8980   65.2758 C   0  0  1  0  0  0  0  0  0  0  0  0
   -5.5166   29.2009   66.1515 C   0  0  2  0  0  0  0  0  0  0  0  0
   -5.4872   31.7613   63.8180 C   0  0  0  0  0  0  0  0  0  0  0  0
   -1.9420   24.4488   68.2357 N   0  0  0  0  0  0  0  0  0  0  0  0
   -4.7681   31.3563   65.0677 N   0  0  0  0  0  0  0  0  0  0  0  0
   -0.8031   25.8568   65.9538 O   0  0  0  0  0  0  0  0  0  0  0  0
   -1.4602   27.9598   66.9235 O   0  0  0  0  0  0  0  0  0  0  0  0
   -5.1980   27.7854   66.3795 O   0  0  0  0  0  0  0  0  0  0  0  0
   -3.1476   30.4024   67.2576 O   0  0  0  0  0  0  0  0  0  0  0  0
   -6.7881   29.2935   65.5191 O   0  0  0  0  0  0  0  0  0  0  0  0
   -7.8147   28.4810   66.1396 C   0  0  2  0  0  0  0  0  0  0  0  0
   -9.0113   28.2029   65.1992 C   0  0  1  0  0  0  0  0  0  0  0  0
   -9.7905   29.5207   64.8852 C   0  0  2  0  0  0  0  0  0  0  0  0
  -10.3087   30.1073   66.1827 C   0  0  1  0  0  0  0  0  0  0  0  0
   -9.0996   30.4130   67.1167 C   0  0  1  0  0  0  0  0  0  0  0  0
   -9.5409   30.9890   68.4608 C   0  0  0  0  0  0  0  0  0  0  0  0
  -11.0686   31.3467   65.8909 N   0  0  0  0  0  0  0  0  0  0  0  0
   -8.3326   29.1542   67.3681 O   0  0  0  0  0  0  0  0  0  0  0  0
   -8.4871   27.5757   64.0076 O   0  0  0  0  0  0  0  0  0  0  0  0
  -10.8992   29.2369   64.0287 O   0  0  0  0  0  0  0  0  0  0  0  0
   -8.4043   31.3008   69.2291 O   0  0  0  0  0  0  0  0  0  0  0  0
    0.5692   25.8313   65.3165 C   0  0  1  0  0  0  0  0  0  0  0  0
    1.4056   24.7164   66.0023 C   0  0  1  0  0  0  0  0  0  0  0  0
    2.8298   24.6580   65.3778 C   0  0  2  0  0  0  0  0  0  0  0  0
    2.7088   24.3515   63.8646 C   0  0  1  0  0  0  0  0  0  0  0  0
    1.8737   25.4693   63.1432 C   0  0  0  0  0  0  0  0  0  0  0  0
    0.4729   25.5194   63.7896 C   0  0  2  0  0  0  0  0  0  0  0  0
    4.0609   24.2863   63.2598 N   0  0  0  0  0  0  0  0  0  0  0  0
   -0.2997   26.5659   63.1116 N   0  0  0  0  0  0  0  0  0  0  0  0
    1.5178   24.9996   67.4146 O   0  0  0  0  0  0  0  0  0  0  0  0
    3.5878   23.6191   66.0366 O   0  0  0  0  0  0  0  0  0  0  0  0
  1  2  1  0  0  0  0
  1 12  1  6  0  0  0
  1 13  1  0  0  0  0
  2  3  1  0  0  0  0
  2 10  1  6  0  0  0
  4  3  1  6  0  0  0
  4  5  1  0  0  0  0
  4 14  1  0  0  0  0
  5  6  1  0  0  0  0
  5 13  1  1  0  0  0
  6  7  1  0  0  0  0
  6 15  1  1  0  0  0
  7  8  1  0  0  0  0
  7 11  1  1  0  0  0
  8 14  1  0  0  0  0
  8 16  1  6  0  0  0
  9 11  1  0  0  0  0
 17 16  1  6  0  0  0
 17 18  1  0  0  0  0
 17 24  1  0  0  0  0
 18 19  1  0  0  0  0
 18 25  1  6  0  0  0
 19 20  1  0  0  0  0
 19 26  1  6  0  0  0
 20 21  1  0  0  0  0
 20 23  1  6  0  0  0
 21 22  1  1  0  0  0
 21 24  1  0  0  0  0
 22 27  1  0  0  0  0
 28 12  1  1  0  0  0
 28 29  1  0  0  0  0
 28 33  1  0  0  0  0
 29 30  1  0  0  0  0
 29 36  1  1  0  0  0
 30 31  1  0  0  0  0
 30 37  1  1  0  0  0
 31 32  1  0  0  0  0
 31 34  1  6  0  0  0
 32 33  1  0  0  0  0
 33 35  1  6  0  0  0
M  END
>  <CHROM.1>
-150.34480866,144.25774973,169.97571246,82.70074936,-160.08520051,-177.23708960
-3.82438842,27.81108747,65.91269706,-0.05565021,-0.44466623,1.61479273

>  <Name>
ligand

>  <RI>
0

>  <Rbt.Current_Directory>
/home/itssahil/PROJECTS/Mol_Feturizer/Test_systems_manuscript/rnas/2g5k

>  <Rbt.Executable>
rbdock ($Id: //depot/dev/client3/rdock/2013.1/src/exe/rbdock.cxx#4 $)

>  <Rbt.Library>
libRbt.so (2013.1, Build901 2013/11/27)

>  <Rbt.Parameter_File>
/export/apps/rDock/src/rDock_2013.1_src/data/scripts/dock_solv.prm

>  <Rbt.Receptor>
prm/pocket_docking_2.prm

>  <SCORE>
-5.71257

>  <SCORE.INTER>
-4.14424

>  <SCORE.INTER.CONST>
1

>  <SCORE.INTER.POLAR>
0

>  <SCORE.INTER.ROT>
6

>  <SCORE.INTER.SOLV>
18.1675

>  <SCORE.INTER.VDW>
-16.4187

>  <SCORE.INTER.norm>
-0.112007

>  <SCORE.INTRA>
-1.56895

>  <SCORE.INTRA.DIHEDRAL>
-2.50246

>  <SCORE.INTRA.DIHEDRAL.0>
11.3972

>  <SCORE.INTRA.POLAR>
0

>  <SCORE.INTRA.POLAR.0>
0

>  <SCORE.INTRA.REPUL>
0

>  <SCORE.INTRA.REPUL.0>
0

>  <SCORE.INTRA.SOLV>
-0.872515

>  <SCORE.INTRA.SOLV.lig_0>
-92.3891

>  <SCORE.INTRA.VDW>
0.118537

>  <SCORE.INTRA.VDW.0>
-2.90606

>  <SCORE.INTRA.norm>
-0.042404

>  <SCORE.RESTR>
0.000621256

>  <SCORE.RESTR.CAVITY>
0.000621256

>  <SCORE.RESTR.norm>
1.67907e-05

>  <SCORE.SYSTEM>
0

>  <SCORE.SYSTEM.CONST>
0

>  <SCORE.SYSTEM.DIHEDRAL>
0

>  <SCORE.SYSTEM.SOLV>
0

>  <SCORE.SYSTEM.norm>
0

>  <SCORE.heavy>
37

>  <SCORE.norm>
-0.154394

>  <RMSD>
0.670

$$$$
ligand
 OpenBabel02271912133D
libRbt.so/2013.1/901 2013/11/27
 37 40  0  0  0  0  0  0  0  0999 V2000
   -0.7089   26.3540   67.5824 C   0  0  1  0  0  0  0  0  0  0  0  0
   -1.7273   25.7422   68.5859 C   0  0  1  0  0  0  0  0  0  0  0  0
   -3.1506   25.6828   67.9994 C   0  0  0  0  0  0  0  0  0  0  0  0
   -3.5822   27.1208   67.5737 C   0  0  1  0  0  0  0  0  0  0  0  0
   -2.5823   27.7086   66.5257 C   0  0  1  0  0  0  0  0  0  0  0  0
   -3.0411   29.1778   66.1066 C   0  0  1  0  0  0  0  0  0  0  0  0
   -4.4757   29.1070   65.5060 C   0  0  1  0  0  0  0  0  0  0  0  0
   -5.4200   28.4835   66.5776 C   0  0  2  0  0  0  0  0  0  0  0  0
   -4.3232   31.1544   63.9263 C   0  0  0  0  0  0  0  0  0  0  0  0
   -1.2899   24.3975   69.0168 N   0  0  0  0  0  0  0  0  0  0  0  0
   -4.9518   30.4850   65.1094 N   0  0  0  0  0  0  0  0  0  0  0  0
   -0.4689   25.4987   66.4478 O   0  0  0  0  0  0  0  0  0  0  0  0
   -1.2220   27.6774   67.1412 O   0  0  0  0  0  0  0  0  0  0  0  0
   -4.9631   27.1496   66.9889 O   0  0  0  0  0  0  0  0  0  0  0  0
   -3.0798   30.0143   67.2555 O   0  0  0  0  0  0  0  0  0  0  0  0
   -6.7426   28.3816   66.0625 O   0  0  0  0  0  0  0  0  0  0  0  0
   -7.7001   27.8351   67.0026 C   0  0  2  0  0  0  0  0  0  0  0  0
   -9.0992   27.6195   66.3786 C   0  0  1  0  0  0  0  0  0  0  0  0
   -9.7592   28.9863   66.0061 C   0  0  2  0  0  0  0  0  0  0  0  0
   -9.9023   29.8223   67.2617 C   0  0  1  0  0  0  0  0  0  0  0  0
   -8.4890   30.0619   67.8724 C   0  0  1  0  0  0  0  0  0  0  0  0
   -8.5489   30.8820   69.1597 C   0  0  0  0  0  0  0  0  0  0  0  0
  -10.5484   31.1126   66.9202 N   0  0  0  0  0  0  0  0  0  0  0  0
   -7.8474   28.7459   68.1769 O   0  0  0  0  0  0  0  0  0  0  0  0
   -8.9320   26.7577   65.2309 O   0  0  0  0  0  0  0  0  0  0  0  0
  -11.0555   28.7632   65.4468 O   0  0  0  0  0  0  0  0  0  0  0  0
   -9.3221   30.1951   70.1134 O   0  0  0  0  0  0  0  0  0  0  0  0
    0.7458   25.6277   65.5547 C   0  0  1  0  0  0  0  0  0  0  0  0
    1.8082   24.5957   66.0228 C   0  0  1  0  0  0  0  0  0  0  0  0
    3.0794   24.6972   65.1309 C   0  0  2  0  0  0  0  0  0  0  0  0
    2.6927   24.4045   63.6602 C   0  0  1  0  0  0  0  0  0  0  0  0
    1.6243   25.4402   63.1569 C   0  0  0  0  0  0  0  0  0  0  0  0
    0.3812   25.3325   64.0655 C   0  0  2  0  0  0  0  0  0  0  0  0
    3.8982   24.4914   62.8014 N   0  0  0  0  0  0  0  0  0  0  0  0
   -0.6107   26.3031   63.5900 N   0  0  0  0  0  0  0  0  0  0  0  0
    2.1686   24.8659   67.3956 O   0  0  0  0  0  0  0  0  0  0  0  0
    4.0523   23.7329   65.5907 O   0  0  0  0  0  0  0  0  0  0  0  0
  1  2  1  0  0  0  0
  1 12  1  6  0  0  0
  1 13  1  0  0  0  0
  2  3  1  0  0  0  0
  2 10  1  6  0  0  0
  4  3  1  6  0  0  0
  4  5  1  0  0  0  0
  4 14  1  0  0  0  0
  5  6  1  0  0  0  0
  5 13  1  1  0  0  0
  6  7  1  0  0  0  0
  6 15  1  1  0  0  0
  7  8  1  0  0  0  0
  7 11  1  1  0  0  0
  8 14  1  0  0  0  0
  8 16  1  6  0  0  0
  9 11  1  0  0  0  0
 17 16  1  6  0  0  0
 17 18  1  0  0  0  0
 17 24  1  0  0  0  0
 18 19  1  0  0  0  0
 18 25  1  6  0  0  0
 19 20  1  0  0  0  0
 19 26  1  1  0  0  0
 20 21  1  0  0  0  0
 20 23  1  6  0  0  0
 21 22  1  1  0  0  0
 21 24  1  0  0  0  0
 22 27  1  0  0  0  0
 28 12  1  1  0  0  0
 28 29  1  0  0  0  0
 28 33  1  0  0  0  0
 29 30  1  0  0  0  0
 29 36  1  1  0  0  0
 30 31  1  0  0  0  0
 30 37  1  1  0  0  0
 31 32  1  0  0  0  0
 31 34  1  6  0  0  0
 32 33  1  0  0  0  0
 33 35  1  6  0  0  0
M  END
>  <CHROM.1>
-160.86208783,70.67784736,-178.83204226,97.13824731,-174.94803789,60.32795962
-3.63466819,27.43092229,66.36893385,-0.05165300,-0.41893700,1.83041868

>  <Name>
ligand

>  <RI>
0

>  <Rbt.Current_Directory>
/home/itssahil/PROJECTS/Mol_Feturizer/Test_systems_manuscript/rnas/2g5k

>  <Rbt.Executable>
rbdock ($Id: //depot/dev/client3/rdock/2013.1/src/exe/rbdock.cxx#4 $)

>  <Rbt.Library>
libRbt.so (2013.1, Build901 2013/11/27)

>  <Rbt.Parameter_File>
/export/apps/rDock/src/rDock_2013.1_src/data/scripts/dock_solv.prm

>  <Rbt.Receptor>
prm/pocket_docking_2.prm

>  <SCORE>
-8.21196

>  <SCORE.INTER>
-6.20429

>  <SCORE.INTER.CONST>
1

>  <SCORE.INTER.POLAR>
0

>  <SCORE.INTER.ROT>
6

>  <SCORE.INTER.SOLV>
20.6454

>  <SCORE.INTER.VDW>
-18.618

>  <SCORE.INTER.norm>
-0.167684

>  <SCORE.INTRA>
-2.00766

>  <SCORE.INTRA.DIHEDRAL>
-4.56476

>  <SCORE.INTRA.DIHEDRAL.0>
11.3972

>  <SCORE.INTRA.POLAR>
0

>  <SCORE.INTRA.POLAR.0>
0

>  <SCORE.INTRA.REPUL>
0

>  <SCORE.INTRA.REPUL.0>
0

>  <SCORE.INTRA.SOLV>
0.0817422

>  <SCORE.INTRA.SOLV.lig_0>
-92.3891

>  <SCORE.INTRA.VDW>
0.233848

>  <SCORE.INTRA.VDW.0>
-2.90606

>  <SCORE.INTRA.norm>
-0.0542611

>  <SCORE.RESTR>
0

>  <SCORE.RESTR.CAVITY>
0

>  <SCORE.RESTR.norm>
0

>  <SCORE.SYSTEM>
0

>  <SCORE.SYSTEM.CONST>
0

>  <SCORE.SYSTEM.DIHEDRAL>
0

>  <SCORE.SYSTEM.SOLV>
0

>  <SCORE.SYSTEM.norm>
0

>  <SCORE.heavy>
37

>  <SCORE.norm>
-0.221945

>  <RMSD>
0.677

$$$$
ligand
 OpenBabel02271912133D
libRbt.so/2013.1/901 2013/11/27
 37 40  0  0  0  0  0  0  0  0999 V2000
   -0.8272   26.4306   67.2735 C   0  0  1  0  0  0  0  0  0  0  0  0
   -1.8348   25.8327   68.2961 C   0  0  1  0  0  0  0  0  0  0  0  0
   -3.2521   25.7094   67.7048 C   0  0  0  0  0  0  0  0  0  0  0  0
   -3.7204   27.1159   67.2172 C   0  0  1  0  0  0  0  0  0  0  0  0
   -2.7302   27.6874   66.1512 C   0  0  1  0  0  0  0  0  0  0  0  0
   -3.2266   29.1246   65.6688 C   0  0  1  0  0  0  0  0  0  0  0  0
   -4.6547   28.9890   65.0638 C   0  0  1  0  0  0  0  0  0  0  0  0
   -5.5886   28.3844   66.1552 C   0  0  2  0  0  0  0  0  0  0  0  0
   -5.3122   31.4330   65.6163 C   0  0  0  0  0  0  0  0  0  0  0  0
   -1.3633   24.5197   68.7850 N   0  0  0  0  0  0  0  0  0  0  0  0
   -5.1661   30.3355   64.6076 N   0  0  0  0  0  0  0  0  0  0  0  0
   -0.5561   25.5360   66.1769 O   0  0  0  0  0  0  0  0  0  0  0  0
   -1.3737   27.7197   66.7748 O   0  0  0  0  0  0  0  0  0  0  0  0
   -5.0976   27.0820   66.6242 O   0  0  0  0  0  0  0  0  0  0  0  0
   -3.2961   30.0066   66.7816 O   0  0  0  0  0  0  0  0  0  0  0  0
   -6.9044   28.2244   65.6376 O   0  0  0  0  0  0  0  0  0  0  0  0
   -7.8953   27.8915   66.6409 C   0  0  2  0  0  0  0  0  0  0  0  0
   -9.2385   27.4286   66.0287 C   0  0  1  0  0  0  0  0  0  0  0  0
   -9.9356   28.6006   65.2652 C   0  0  2  0  0  0  0  0  0  0  0  0
  -10.2004   29.7326   66.2370 C   0  0  1  0  0  0  0  0  0  0  0  0
   -8.8433   30.2160   66.8306 C   0  0  1  0  0  0  0  0  0  0  0  0
   -9.0264   31.3466   67.8413 C   0  0  0  0  0  0  0  0  0  0  0  0
  -10.8821   30.8403   65.5248 N   0  0  0  0  0  0  0  0  0  0  0  0
   -8.1624   29.0734   67.5140 O   0  0  0  0  0  0  0  0  0  0  0  0
   -8.9556   26.3022   65.1689 O   0  0  0  0  0  0  0  0  0  0  0  0
  -11.1802   28.1542   64.7224 O   0  0  0  0  0  0  0  0  0  0  0  0
   -9.4948   32.4942   67.1758 O   0  0  0  0  0  0  0  0  0  0  0  0
    0.7160   25.5887   65.3590 C   0  0  1  0  0  0  0  0  0  0  0  0
    1.6992   24.5227   65.9156 C   0  0  1  0  0  0  0  0  0  0  0  0
    3.0262   24.5455   65.1031 C   0  0  2  0  0  0  0  0  0  0  0  0
    2.7179   24.2336   63.6179 C   0  0  1  0  0  0  0  0  0  0  0  0
    1.7310   25.3026   63.0258 C   0  0  0  0  0  0  0  0  0  0  0  0
    0.4306   25.2728   63.8568 C   0  0  2  0  0  0  0  0  0  0  0  0
    3.9767   24.2456   62.8346 N   0  0  0  0  0  0  0  0  0  0  0  0
   -0.4846   26.2742   63.2987 N   0  0  0  0  0  0  0  0  0  0  0  0
    1.9863   24.8109   67.3019 O   0  0  0  0  0  0  0  0  0  0  0  0
    3.9239   23.5509   65.6443 O   0  0  0  0  0  0  0  0  0  0  0  0
  1  2  1  0  0  0  0
  1 12  1  6  0  0  0
  1 13  1  0  0  0  0
  2  3  1  0  0  0  0
  2 10  1  6  0  0  0
  4  3  1  6  0  0  0
  4  5  1  0  0  0  0
  4 14  1  0  0  0  0
  5  6  1  0  0  0  0
  5 13  1  1  0  0  0
  6  7  1  0  0  0  0
  6 15  1  1  0  0  0
  7  8  1  0  0  0  0
  7 11  1  1  0  0  0
  8 14  1  0  0  0  0
  8 16  1  6  0  0  0
  9 11  1  0  0  0  0
 17 16  1  6  0  0  0
 17 18  1  0  0  0  0
 17 24  1  0  0  0  0
 18 19  1  0  0  0  0
 18 25  1  6  0  0  0
 19 20  1  0  0  0  0
 19 26  1  1  0  0  0
 20 21  1  0  0  0  0
 20 23  1  6  0  0  0
 21 22  1  1  0  0  0
 21 24  1  0  0  0  0
 22 27  1  0  0  0  0
 28 12  1  1  0  0  0
 28 29  1  0  0  0  0
 28 33  1  0  0  0  0
 29 30  1  0  0  0  0
 29 36  1  1  0  0  0
 30 31  1  0  0  0  0
 30 37  1  1  0  0  0
 31 32  1  0  0  0  0
 31 34  1  6  0  0  0
 32 33  1  0  0  0  0
 33 35  1  6  0  0  0
M  END
>  <CHROM.1>
-155.55226761,-60.41072684,-169.71471712,97.24256135,-167.68875535,-66.97254798
-3.79632933,27.44199316,65.94682476,-0.41099067,0.09843086,-0.02207605

>  <Name>
ligand

>  <RI>
0

>  <Rbt.Current_Directory>
/home/itssahil/PROJECTS/Mol_Feturizer/Test_systems_manuscript/rnas/2g5k

>  <Rbt.Executable>
rbdock ($Id: //depot/dev/client3/rdock/2013.1/src/exe/rbdock.cxx#4 $)

>  <Rbt.Library>
libRbt.so (2013.1, Build901 2013/11/27)

>  <Rbt.Parameter_File>
/export/apps/rDock/src/rDock_2013.1_src/data/scripts/dock_solv.prm

>  <Rbt.Receptor>
prm/pocket_docking_2.prm

>  <SCORE>
-2.40113

>  <SCORE.INTER>
-3.52484

>  <SCORE.INTER.CONST>
1

>  <SCORE.INTER.POLAR>
0

>  <SCORE.INTER.ROT>
6

>  <SCORE.INTER.SOLV>
17.0223

>  <SCORE.INTER.VDW>
-15.624

>  <SCORE.INTER.norm>
-0.095266

>  <SCORE.INTRA>
1.11319

>  <SCORE.INTRA.DIHEDRAL>
-2.46554

>  <SCORE.INTRA.DIHEDRAL.0>
11.3972

>  <SCORE.INTRA.POLAR>
0

>  <SCORE.INTRA.POLAR.0>
0

>  <SCORE.INTRA.REPUL>
0

>  <SCORE.INTRA.REPUL.0>
0

>  <SCORE.INTRA.SOLV>
0.892797

>  <SCORE.INTRA.SOLV.lig_0>
-92.3891

>  <SCORE.INTRA.VDW>
1.89956

>  <SCORE.INTRA.VDW.0>
-2.90606

>  <SCORE.INTRA.norm>
0.0300862

>  <SCORE.RESTR>
0.0105203

>  <SCORE.RESTR.CAVITY>
0.0105203

>  <SCORE.RESTR.norm>
0.000284332

>  <SCORE.SYSTEM>
0

>  <SCORE.SYSTEM.CONST>
0

>  <SCORE.SYSTEM.DIHEDRAL>
0

>  <SCORE.SYSTEM.SOLV>
0

>  <SCORE.SYSTEM.norm>
0

>  <SCORE.heavy>
37

>  <SCORE.norm>
-0.0648954

>  <RMSD>
0.697

$$$$
ligand
 OpenBabel02271912133D
libRbt.so/2013.1/901 2013/11/27
 37 40  0  0  0  0  0  0  0  0999 V2000
   -0.8004   26.3275   67.5462 C   0  0  1  0  0  0  0  0  0  0  0  0
   -1.8223   25.6573   68.5079 C   0  0  1  0  0  0  0  0  0  0  0  0
   -3.2467   25.6485   67.9211 C   0  0  0  0  0  0  0  0  0  0  0  0
   -3.6676   27.1151   67.5937 C   0  0  1  0  0  0  0  0  0  0  0  0
   -2.6642   27.7644   66.5861 C   0  0  1  0  0  0  0  0  0  0  0  0
   -3.1121   29.2620   66.2675 C   0  0  1  0  0  0  0  0  0  0  0  0
   -4.5479   29.2428   65.6659 C   0  0  1  0  0  0  0  0  0  0  0  0
   -5.4958   28.5559   66.6946 C   0  0  2  0  0  0  0  0  0  0  0  0
   -4.4736   31.3439   64.1525 C   0  0  0  0  0  0  0  0  0  0  0  0
   -1.3949   24.2833   68.8467 N   0  0  0  0  0  0  0  0  0  0  0  0
   -5.0137   30.6480   65.3637 N   0  0  0  0  0  0  0  0  0  0  0  0
   -0.5682   25.5487   66.3563 O   0  0  0  0  0  0  0  0  0  0  0  0
   -1.3036   27.6815   67.1959 O   0  0  0  0  0  0  0  0  0  0  0  0
   -5.0488   27.1939   67.0144 O   0  0  0  0  0  0  0  0  0  0  0  0
   -3.1431   30.0196   67.4702 O   0  0  0  0  0  0  0  0  0  0  0  0
   -6.8198   28.4991   66.1759 O   0  0  0  0  0  0  0  0  0  0  0  0
   -7.8090   28.0506   67.1348 C   0  0  2  0  0  0  0  0  0  0  0  0
   -9.2208   27.9060   66.5189 C   0  0  1  0  0  0  0  0  0  0  0  0
   -9.7899   29.2993   66.0982 C   0  0  2  0  0  0  0  0  0  0  0  0
   -9.8746   30.1869   67.3233 C   0  0  1  0  0  0  0  0  0  0  0  0
   -8.4471   30.3541   67.9251 C   0  0  1  0  0  0  0  0  0  0  0  0
   -8.4497   31.2215   69.1824 C   0  0  0  0  0  0  0  0  0  0  0  0
  -10.4349   31.5041   66.9362 N   0  0  0  0  0  0  0  0  0  0  0  0
   -7.8931   29.0102   68.2760 O   0  0  0  0  0  0  0  0  0  0  0  0
   -9.1135   26.9948   65.4025 O   0  0  0  0  0  0  0  0  0  0  0  0
  -11.0995   29.1427   65.5471 O   0  0  0  0  0  0  0  0  0  0  0  0
   -8.7283   32.5541   68.8277 O   0  0  0  0  0  0  0  0  0  0  0  0
    0.6807   25.6778   65.5115 C   0  0  1  0  0  0  0  0  0  0  0  0
    1.7187   24.6362   66.0119 C   0  0  1  0  0  0  0  0  0  0  0  0
    3.0238   24.7375   65.1703 C   0  0  2  0  0  0  0  0  0  0  0  0
    2.6924   24.4584   63.6835 C   0  0  1  0  0  0  0  0  0  0  0  0
    1.6497   25.5040   63.1479 C   0  0  0  0  0  0  0  0  0  0  0  0
    0.3720   25.3963   64.0071 C   0  0  2  0  0  0  0  0  0  0  0  0
    3.9305   24.5453   62.8724 N   0  0  0  0  0  0  0  0  0  0  0  0
   -0.5956   26.3762   63.5017 N   0  0  0  0  0  0  0  0  0  0  0  0
    2.0275   24.8936   67.3996 O   0  0  0  0  0  0  0  0  0  0  0  0
    3.9732   23.7641   65.6594 O   0  0  0  0  0  0  0  0  0  0  0  0
  1  2  1  0  0  0  0
  1 12  1  6  0  0  0
  1 13  1  0  0  0  0
  2  3  1  0  0  0  0
  2 10  1  6  0  0  0
  4  3  1  6  0  0  0
  4  5  1  0  0  0  0
  4 14  1  0  0  0  0
  5  6  1  0  0  0  0
  5 13  1  1  0  0  0
  6  7  1  0  0  0  0
  6 15  1  1  0  0  0
  7  8  1  0  0  0  0
  7 11  1  1  0  0  0
  8 14  1  0  0  0  0
  8 16  1  6  0  0  0
  9 11  1  0  0  0  0
 17 16  1  6  0  0  0
 17 18  1  0  0  0  0
 17 24  1  0  0  0  0
 18 19  1  0  0  0  0
 18 25  1  6  0  0  0
 19 20  1  0  0  0  0
 19 26  1  1  0  0  0
 20 21  1  0  0  0  0
 20 23  1  6  0  0  0
 21 22  1  1  0  0  0
 21 24  1  0  0  0  0
 22 27  1  0  0  0  0
 28 12  1  1  0  0  0
 28 29  1  0  0  0  0
 28 33  1  0  0  0  0
 29 30  1  0  0  0  0
 29 36  1  1  0  0  0
 30 31  1  0  0  0  0
 30 37  1  1  0  0  0
 31 32  1  0  0  0  0
 31 34  1  6  0  0  0
 32 33  1  0  0  0  0
 33 35  1  6  0  0  0
M  END
>  <CHROM.1>
-157.57446211,76.26232166,-171.67552657,92.29473261,-176.08309232,-69.78969479
-3.67211222,27.61720767,66.38056135,0.02077706,-0.45919383,1.95772771

>  <Name>
ligand

>  <RI>
0

>  <Rbt.Current_Directory>
/home/itssahil/PROJECTS/Mol_Feturizer/Test_systems_manuscript/rnas/2g5k

>  <Rbt.Executable>
rbdock ($Id: //depot/dev/client3/rdock/2013.1/src/exe/rbdock.cxx#4 $)

>  <Rbt.Library>
libRbt.so (2013.1, Build901 2013/11/27)

>  <Rbt.Parameter_File>
/export/apps/rDock/src/rDock_2013.1_src/data/scripts/dock_solv.prm

>  <Rbt.Receptor>
prm/pocket_docking_2.prm

>  <SCORE>
-7.3776

>  <SCORE.INTER>
-5.56658

>  <SCORE.INTER.CONST>
1

>  <SCORE.INTER.POLAR>
0

>  <SCORE.INTER.ROT>
6

>  <SCORE.INTER.SOLV>
20.5841

>  <SCORE.INTER.VDW>
-18.1724

>  <SCORE.INTER.norm>
-0.150448

>  <SCORE.INTRA>
-1.81102

>  <SCORE.INTRA.DIHEDRAL>
-4.17378

>  <SCORE.INTRA.DIHEDRAL.0>
11.3972

>  <SCORE.INTRA.POLAR>
0

>  <SCORE.INTRA.POLAR.0>
0

>  <SCORE.INTRA.REPUL>
0

>  <SCORE.INTRA.REPUL.0>
0

>  <SCORE.INTRA.SOLV>
0.364316

>  <SCORE.INTRA.SOLV.lig_0>
-92.3891

>  <SCORE.INTRA.VDW>
0.0937182

>  <SCORE.INTRA.VDW.0>
-2.90606

>  <SCORE.INTRA.norm>
-0.0489464

>  <SCORE.RESTR>
0

>  <SCORE.RESTR.CAVITY>
0

>  <SCORE.RESTR.norm>
0

>  <SCORE.SYSTEM>
0

>  <SCORE.SYSTEM.CONST>
0

>  <SCORE.SYSTEM.DIHEDRAL>
0

>  <SCORE.SYSTEM.SOLV>
0

>  <SCORE.SYSTEM.norm>
0

>  <SCORE.heavy>
37

>  <SCORE.norm>
-0.199395

>  <RMSD>
0.697

$$$$
ligand
 OpenBabel02271912133D
libRbt.so/2013.1/901 2013/11/27
 37 40  0  0  0  0  0  0  0  0999 V2000
   -1.1746   26.6003   67.1971 C   0  0  1  0  0  0  0  0  0  0  0  0
   -2.3054   25.9079   68.0097 C   0  0  1  0  0  0  0  0  0  0  0  0
   -3.6768   26.0434   67.3209 C   0  0  0  0  0  0  0  0  0  0  0  0
   -3.9887   27.5577   67.1094 C   0  0  1  0  0  0  0  0  0  0  0  0
   -2.8740   28.2348   66.2477 C   0  0  1  0  0  0  0  0  0  0  0  0
   -3.2118   29.7807   66.0459 C   0  0  1  0  0  0  0  0  0  0  0  0
   -4.5938   29.9080   65.3405 C   0  0  1  0  0  0  0  0  0  0  0  0
   -5.6573   29.1881   66.2235 C   0  0  2  0  0  0  0  0  0  0  0  0
   -5.8823   31.7317   64.0273 C   0  0  0  0  0  0  0  0  0  0  0  0
   -1.9828   24.4842   68.2422 N   0  0  0  0  0  0  0  0  0  0  0  0
   -4.9560   31.3617   65.1445 N   0  0  0  0  0  0  0  0  0  0  0  0
   -0.8916   25.9237   65.9567 O   0  0  0  0  0  0  0  0  0  0  0  0
   -1.5730   28.0100   66.9455 O   0  0  0  0  0  0  0  0  0  0  0  0
   -5.3129   27.7768   66.4399 O   0  0  0  0  0  0  0  0  0  0  0  0
   -3.2968   30.4224   67.3117 O   0  0  0  0  0  0  0  0  0  0  0  0
   -6.9367   29.2632   65.6051 O   0  0  0  0  0  0  0  0  0  0  0  0
   -7.9365   28.4105   66.2154 C   0  0  2  0  0  0  0  0  0  0  0  0
   -9.1827   28.2100   65.3208 C   0  0  1  0  0  0  0  0  0  0  0  0
   -9.9661   29.5513   65.1488 C   0  0  2  0  0  0  0  0  0  0  0  0
  -10.4110   30.0399   66.5123 C   0  0  1  0  0  0  0  0  0  0  0  0
   -9.1525   30.2682   67.4021 C   0  0  1  0  0  0  0  0  0  0  0  0
   -9.5184   30.7424   68.8072 C   0  0  0  0  0  0  0  0  0  0  0  0
  -11.1747   31.3013   66.3555 N   0  0  0  0  0  0  0  0  0  0  0  0
   -8.3841   28.9905   67.5168 O   0  0  0  0  0  0  0  0  0  0  0  0
   -8.7265   27.6728   64.0593 O   0  0  0  0  0  0  0  0  0  0  0  0
  -11.1201   29.3384   64.3327 O   0  0  0  0  0  0  0  0  0  0  0  0
   -8.3413   31.0256   69.5239 O   0  0  0  0  0  0  0  0  0  0  0  0
    0.4903   25.8611   65.3431 C   0  0  1  0  0  0  0  0  0  0  0  0
    1.2812   24.7179   66.0363 C   0  0  1  0  0  0  0  0  0  0  0  0
    2.7138   24.6207   65.4362 C   0  0  2  0  0  0  0  0  0  0  0  0
    2.6102   24.3268   63.9192 C   0  0  1  0  0  0  0  0  0  0  0  0
    1.8214   25.4731   63.1906 C   0  0  0  0  0  0  0  0  0  0  0  0
    0.4117   25.5611   63.8129 C   0  0  2  0  0  0  0  0  0  0  0  0
    3.9703   24.2250   63.3376 N   0  0  0  0  0  0  0  0  0  0  0  0
   -0.3176   26.6341   63.1283 N   0  0  0  0  0  0  0  0  0  0  0  0
    1.3769   24.9893   67.4521 O   0  0  0  0  0  0  0  0  0  0  0  0
    3.4290   23.5559   66.1015 O   0  0  0  0  0  0  0  0  0  0  0  0
  1  2  1  0  0  0  0
  1 12  1  6  0  0  0
  1 13  1  0  0  0  0
  2  3  1  0  0  0  0
  2 10  1  6  0  0  0
  4  3  1  6  0  0  0
  4  5  1  0  0  0  0
  4 14  1  0  0  0  0
  5  6  1  0  0  0  0
  5 13  1  1  0  0  0
  6  7  1  0  0  0  0
  6 15  1  1  0  0  0
  7  8  1  0  0  0  0
  7 11  1  1  0  0  0
  8 14  1  0  0  0  0
  8 16  1  6  0  0  0
  9 11  1  0  0  0  0
 17 16  1  6  0  0  0
 17 18  1  0  0  0  0
 17 24  1  0  0  0  0
 18 19  1  0  0  0  0
 18 25  1  6  0  0  0
 19 20  1  0  0  0  0
 19 26  1  6  0  0  0
 20 21  1  0  0  0  0
 20 23  1  6  0  0  0
 21 22  1  1  0  0  0
 21 24  1  0  0  0  0
 22 27  1  0  0  0  0
 28 12  1  1  0  0  0
 28 29  1  0  0  0  0
 28 33  1  0  0  0  0
 29 30  1  0  0  0  0
 29 36  1  1  0  0  0
 30 31  1  0  0  0  0
 30 37  1  1  0  0  0
 31 32  1  0  0  0  0
 31 34  1  6  0  0  0
 32 33  1  0  0  0  0
 33 35  1  6  0  0  0
M  END
>  <CHROM.1>
-146.91122328,154.13856197,168.82852079,81.97912242,-164.36834840,-175.60400014
-3.94009188,27.79561023,66.02060680,-0.05825320,-0.44146432,1.64528754

>  <Name>
ligand

>  <RI>
0

>  <Rbt.Current_Directory>
/home/itssahil/PROJECTS/Mol_Feturizer/Test_systems_manuscript/rnas/2g5k

>  <Rbt.Executable>
rbdock ($Id: //depot/dev/client3/rdock/2013.1/src/exe/rbdock.cxx#4 $)

>  <Rbt.Library>
libRbt.so (2013.1, Build901 2013/11/27)

>  <Rbt.Parameter_File>
/export/apps/rDock/src/rDock_2013.1_src/data/scripts/dock_solv.prm

>  <Rbt.Receptor>
prm/pocket_docking_2.prm

>  <SCORE>
-5.52372

>  <SCORE.INTER>
-4.09207

>  <SCORE.INTER.CONST>
1

>  <SCORE.INTER.POLAR>
0

>  <SCORE.INTER.ROT>
6

>  <SCORE.INTER.SOLV>
18.1699

>  <SCORE.INTER.VDW>
-16.3847

>  <SCORE.INTER.norm>
-0.110596

>  <SCORE.INTRA>
-1.49137

>  <SCORE.INTRA.DIHEDRAL>
-2.78049

>  <SCORE.INTRA.DIHEDRAL.0>
11.3972

>  <SCORE.INTRA.POLAR>
0

>  <SCORE.INTRA.POLAR.0>
0

>  <SCORE.INTRA.REPUL>
0

>  <SCORE.INTRA.REPUL.0>
0

>  <SCORE.INTRA.SOLV>
-0.761789

>  <SCORE.INTRA.SOLV.lig_0>
-92.3891

>  <SCORE.INTRA.VDW>
0.279771

>  <SCORE.INTRA.VDW.0>
-2.90606

>  <SCORE.INTRA.norm>
-0.0403072

>  <SCORE.RESTR>
0.0597153

>  <SCORE.RESTR.CAVITY>
0.0597153

>  <SCORE.RESTR.norm>
0.00161393

>  <SCORE.SYSTEM>
0

>  <SCORE.SYSTEM.CONST>
0

>  <SCORE.SYSTEM.DIHEDRAL>
0

>  <SCORE.SYSTEM.SOLV>
0

>  <SCORE.SYSTEM.norm>
0

>  <SCORE.heavy>
37

>  <SCORE.norm>
-0.14929

>  <RMSD>
0.717

$$$$
ligand
 OpenBabel02271912133D
libRbt.so/2013.1/901 2013/11/27
 37 40  0  0  0  0  0  0  0  0999 V2000
   -1.0575   26.5370   67.3393 C   0  0  1  0  0  0  0  0  0  0  0  0
   -2.0812   25.8458   68.2842 C   0  0  1  0  0  0  0  0  0  0  0  0
   -3.5065   25.8601   67.6998 C   0  0  0  0  0  0  0  0  0  0  0  0
   -3.9206   27.3371   67.4135 C   0  0  1  0  0  0  0  0  0  0  0  0
   -2.9157   28.0088   66.4222 C   0  0  1  0  0  0  0  0  0  0  0  0
   -3.3566   29.5168   66.1456 C   0  0  1  0  0  0  0  0  0  0  0  0
   -4.7934   29.5212   65.5461 C   0  0  1  0  0  0  0  0  0  0  0  0
   -5.7432   28.8110   66.5573 C   0  0  2  0  0  0  0  0  0  0  0  0
   -4.8219   31.6132   64.0187 C   0  0  0  0  0  0  0  0  0  0  0  0
   -1.6601   24.4609   68.5845 N   0  0  0  0  0  0  0  0  0  0  0  0
   -5.2528   30.9363   65.2833 N   0  0  0  0  0  0  0  0  0  0  0  0
   -0.8311   25.7899   66.1282 O   0  0  0  0  0  0  0  0  0  0  0  0
   -1.5545   27.9025   67.0271 O   0  0  0  0  0  0  0  0  0  0  0  0
   -5.3024   27.4386   66.8390 O   0  0  0  0  0  0  0  0  0  0  0  0
   -3.3819   30.2413   67.3685 O   0  0  0  0  0  0  0  0  0  0  0  0
   -7.0682   28.7750   66.0396 O   0  0  0  0  0  0  0  0  0  0  0  0
   -8.0509   28.2616   66.9723 C   0  0  2  0  0  0  0  0  0  0  0  0
   -9.4763   28.2060   66.3735 C   0  0  1  0  0  0  0  0  0  0  0  0
  -10.0193   29.6446   66.0942 C   0  0  2  0  0  0  0  0  0  0  0  0
  -10.0613   30.4166   67.3974 C   0  0  1  0  0  0  0  0  0  0  0  0
   -8.6200   30.4956   67.9839 C   0  0  1  0  0  0  0  0  0  0  0  0
   -8.5798   31.2427   69.3156 C   0  0  0  0  0  0  0  0  0  0  0  0
  -10.5967   31.7761   67.1444 N   0  0  0  0  0  0  0  0  0  0  0  0
   -8.0921   29.1131   68.1986 O   0  0  0  0  0  0  0  0  0  0  0  0
   -9.4103   27.4000   65.1760 O   0  0  0  0  0  0  0  0  0  0  0  0
  -11.3417   29.5686   65.5569 O   0  0  0  0  0  0  0  0  0  0  0  0
   -9.3569   30.5494   70.2616 O   0  0  0  0  0  0  0  0  0  0  0  0
    0.5057   25.7429   65.4207 C   0  0  1  0  0  0  0  0  0  0  0  0
    1.3709   24.6365   66.0841 C   0  0  1  0  0  0  0  0  0  0  0  0
    2.7601   24.5565   65.3874 C   0  0  2  0  0  0  0  0  0  0  0  0
    2.5584   24.2209   63.8890 C   0  0  1  0  0  0  0  0  0  0  0  0
    1.6927   25.3296   63.1899 C   0  0  0  0  0  0  0  0  0  0  0  0
    0.3280   25.4015   63.9075 C   0  0  2  0  0  0  0  0  0  0  0  0
    3.8767   24.1351   63.2159 N   0  0  0  0  0  0  0  0  0  0  0  0
   -0.4734   26.4394   63.2499 N   0  0  0  0  0  0  0  0  0  0  0  0
    1.5583   24.9468   67.4827 O   0  0  0  0  0  0  0  0  0  0  0  0
    3.5459   23.5260   66.0264 O   0  0  0  0  0  0  0  0  0  0  0  0
  1  2  1  0  0  0  0
  1 12  1  6  0  0  0
  1 13  1  0  0  0  0
  2  3  1  0  0  0  0
  2 10  1  6  0  0  0
  4  3  1  6  0  0  0
  4  5  1  0  0  0  0
  4 14  1  0  0  0  0
  5  6  1  0  0  0  0
  5 13  1  1  0  0  0
  6  7  1  0  0  0  0
  6 15  1  1  0  0  0
  7  8  1  0  0  0  0
  7 11  1  1  0  0  0
  8 14  1  0  0  0  0
  8 16  1  6  0  0  0
  9 11  1  0  0  0  0
 17 16  1  6  0  0  0
 17 18  1  0  0  0  0
 17 24  1  0  0  0  0
 18 19  1  0  0  0  0
 18 25  1  6  0  0  0
 19 20  1  0  0  0  0
 19 26  1  1  0  0  0
 20 21  1  0  0  0  0
 20 23  1  6  0  0  0
 21 22  1  1  0  0  0
 21 24  1  0  0  0  0
 22 27  1  0  0  0  0
 28 12  1  1  0  0  0
 28 29  1  0  0  0  0
 28 33  1  0  0  0  0
 29 30  1  0  0  0  0
 29 36  1  1  0  0  0
 30 31  1  0  0  0  0
 30 37  1  1  0  0  0
 31 32  1  0  0  0  0
 31 34  1  6  0  0  0
 32 33  1  0  0  0  0
 33 35  1  6  0  0  0
M  END
>  <CHROM.1>
-146.14974682,82.42493814,-173.70068576,84.61571005,-178.79834160,62.20063736
-3.90919077,27.69821476,66.37260879,-0.01622832,-0.46664415,1.88267671

>  <Name>
ligand

>  <RI>
0

>  <Rbt.Current_Directory>
/home/itssahil/PROJECTS/Mol_Feturizer/Test_systems_manuscript/rnas/2g5k

>  <Rbt.Executable>
rbdock ($Id: //depot/dev/client3/rdock/2013.1/src/exe/rbdock.cxx#4 $)

>  <Rbt.Library>
libRbt.so (2013.1, Build901 2013/11/27)

>  <Rbt.Parameter_File>
/export/apps/rDock/src/rDock_2013.1_src/data/scripts/dock_solv.prm

>  <Rbt.Receptor>
prm/pocket_docking_2.prm

>  <SCORE>
-7.98087

>  <SCORE.INTER>
-6.21345

>  <SCORE.INTER.CONST>
1

>  <SCORE.INTER.POLAR>
0

>  <SCORE.INTER.ROT>
6

>  <SCORE.INTER.SOLV>
21.2162

>  <SCORE.INTER.VDW>
-18.8144

>  <SCORE.INTER.norm>
-0.167931

>  <SCORE.INTRA>
-1.76742

>  <SCORE.INTRA.DIHEDRAL>
-3.86251

>  <SCORE.INTRA.DIHEDRAL.0>
11.3972

>  <SCORE.INTRA.POLAR>
0

>  <SCORE.INTRA.POLAR.0>
0

>  <SCORE.INTRA.REPUL>
0

>  <SCORE.INTRA.REPUL.0>
0

>  <SCORE.INTRA.SOLV>
0.130789

>  <SCORE.INTRA.SOLV.lig_0>
-92.3891

>  <SCORE.INTRA.VDW>
0.0984387

>  <SCORE.INTRA.VDW.0>
-2.90606

>  <SCORE.INTRA.norm>
-0.0477681

>  <SCORE.RESTR>
0

>  <SCORE.RESTR.CAVITY>
0

>  <SCORE.RESTR.norm>
0

>  <SCORE.SYSTEM>
0

>  <SCORE.SYSTEM.CONST>
0

>  <SCORE.SYSTEM.DIHEDRAL>
0

>  <SCORE.SYSTEM.SOLV>
0

>  <SCORE.SYSTEM.norm>
0

>  <SCORE.heavy>
37

>  <SCORE.norm>
-0.215699

>  <RMSD>
0.737

$$$$
ligand
 OpenBabel02271912133D
libRbt.so/2013.1/901 2013/11/27
 37 40  0  0  0  0  0  0  0  0999 V2000
   -0.6435   26.3397   67.6802 C   0  0  1  0  0  0  0  0  0  0  0  0
   -1.6176   25.7058   68.7136 C   0  0  1  0  0  0  0  0  0  0  0  0
   -3.0678   25.6731   68.1947 C   0  0  0  0  0  0  0  0  0  0  0  0
   -3.5075   27.1257   67.8316 C   0  0  1  0  0  0  0  0  0  0  0  0
   -2.5541   27.7369   66.7541 C   0  0  1  0  0  0  0  0  0  0  0  0
   -3.0205   29.2207   66.3998 C   0  0  1  0  0  0  0  0  0  0  0  0
   -4.4827   29.1771   65.8670 C   0  0  1  0  0  0  0  0  0  0  0  0
   -5.3798   28.5292   66.9644 C   0  0  2  0  0  0  0  0  0  0  0  0
   -4.4892   31.2166   64.2699 C   0  0  0  0  0  0  0  0  0  0  0  0
   -1.1711   24.3463   69.0843 N   0  0  0  0  0  0  0  0  0  0  0  0
   -4.9661   30.5692   65.5334 N   0  0  0  0  0  0  0  0  0  0  0  0
   -0.4650   25.5160   66.5114 O   0  0  0  0  0  0  0  0  0  0  0  0
   -1.1663   27.6787   67.3023 O   0  0  0  0  0  0  0  0  0  0  0  0
   -4.9145   27.1809   67.3149 O   0  0  0  0  0  0  0  0  0  0  0  0
   -2.9974   30.0238   67.5727 O   0  0  0  0  0  0  0  0  0  0  0  0
   -6.7263   28.4512   66.5108 O   0  0  0  0  0  0  0  0  0  0  0  0
   -7.7100   28.5180   67.5724 C   0  0  2  0  0  0  0  0  0  0  0  0
   -9.1248   28.0983   67.1081 C   0  0  1  0  0  0  0  0  0  0  0  0
   -9.6977   29.1211   66.0746 C   0  0  2  0  0  0  0  0  0  0  0  0
   -9.7770   30.4870   66.7258 C   0  0  1  0  0  0  0  0  0  0  0  0
   -8.3466   30.9197   67.1668 C   0  0  1  0  0  0  0  0  0  0  0  0
   -8.3436   32.2831   67.8554 C   0  0  0  0  0  0  0  0  0  0  0  0
  -10.3408   31.4590   65.7582 N   0  0  0  0  0  0  0  0  0  0  0  0
   -7.7893   29.9070   68.1154 O   0  0  0  0  0  0  0  0  0  0  0  0
   -9.0223   26.7638   66.5636 O   0  0  0  0  0  0  0  0  0  0  0  0
  -11.0099   28.7217   65.6725 O   0  0  0  0  0  0  0  0  0  0  0  0
   -9.0148   32.1832   69.0879 O   0  0  0  0  0  0  0  0  0  0  0  0
    0.7412   25.6161   65.6031 C   0  0  1  0  0  0  0  0  0  0  0  0
    1.7926   24.5727   66.0706 C   0  0  1  0  0  0  0  0  0  0  0  0
    3.0549   24.6443   65.1631 C   0  0  2  0  0  0  0  0  0  0  0  0
    2.6466   24.3417   63.7002 C   0  0  1  0  0  0  0  0  0  0  0  0
    1.5888   25.3885   63.1977 C   0  0  0  0  0  0  0  0  0  0  0  0
    0.3548   25.3104   64.1215 C   0  0  2  0  0  0  0  0  0  0  0  0
    3.8433   24.4002   62.8268 N   0  0  0  0  0  0  0  0  0  0  0  0
   -0.6272   26.2913   63.6467 N   0  0  0  0  0  0  0  0  0  0  0  0
    2.1731   24.8521   67.4360 O   0  0  0  0  0  0  0  0  0  0  0  0
    4.0179   23.6699   65.6225 O   0  0  0  0  0  0  0  0  0  0  0  0
  1  2  1  0  0  0  0
  1 12  1  6  0  0  0
  1 13  1  0  0  0  0
  2  3  1  0  0  0  0
  2 10  1  6  0  0  0
  4  3  1  6  0  0  0
  4  5  1  0  0  0  0
  4 14  1  0  0  0  0
  5  6  1  0  0  0  0
  5 13  1  1  0  0  0
  6  7  1  0  0  0  0
  6 15  1  1  0  0  0
  7  8  1  0  0  0  0
  7 11  1  1  0  0  0
  8 14  1  0  0  0  0
  8 16  1  6  0  0  0
  9 11  1  0  0  0  0
 17 16  1  6  0  0  0
 17 18  1  0  0  0  0
 17 24  1  0  0  0  0
 18 19  1  0  0  0  0
 18 25  1  6  0  0  0
 19 20  1  0  0  0  0
 19 26  1  1  0  0  0
 20 21  1  0  0  0  0
 20 23  1  6  0  0  0
 21 22  1  1  0  0  0
 21 24  1  0  0  0  0
 22 27  1  0  0  0  0
 28 12  1  1  0  0  0
 28 29  1  0  0  0  0
 28 33  1  0  0  0  0
 29 30  1  0  0  0  0
 29 36  1  1  0  0  0
 30 31  1  0  0  0  0
 30 37  1  1  0  0  0
 31 32  1  0  0  0  0
 31 34  1  6  0  0  0
 32 33  1  0  0  0  0
 33 35  1  6  0  0  0
M  END
>  <CHROM.1>
-157.72040568,76.49598119,-150.66730560,93.71199652,-166.31060567,67.50112864
-3.59844050,27.64170741,66.44346284,0.11315771,-0.45903696,2.11283203

>  <Name>
ligand

>  <RI>
0

>  <Rbt.Current_Directory>
/home/itssahil/PROJECTS/Mol_Feturizer/Test_systems_manuscript/rnas/2g5k

>  <Rbt.Executable>
rbdock ($Id: //depot/dev/client3/rdock/2013.1/src/exe/rbdock.cxx#4 $)

>  <Rbt.Library>
libRbt.so (2013.1, Build901 2013/11/27)

>  <Rbt.Parameter_File>
/export/apps/rDock/src/rDock_2013.1_src/data/scripts/dock_solv.prm

>  <Rbt.Receptor>
prm/pocket_docking_2.prm

>  <SCORE>
-5.3059

>  <SCORE.INTER>
-5.06735

>  <SCORE.INTER.CONST>
1

>  <SCORE.INTER.POLAR>
0

>  <SCORE.INTER.ROT>
6

>  <SCORE.INTER.SOLV>
20.2792

>  <SCORE.INTER.VDW>
-17.7379

>  <SCORE.INTER.norm>
-0.136955

>  <SCORE.INTRA>
-0.246713

>  <SCORE.INTRA.DIHEDRAL>
-0.134654

>  <SCORE.INTRA.DIHEDRAL.0>
11.3972

>  <SCORE.INTRA.POLAR>
0

>  <SCORE.INTRA.POLAR.0>
0

>  <SCORE.INTRA.REPUL>
0

>  <SCORE.INTRA.REPUL.0>
0

>  <SCORE.INTRA.SOLV>
0.420837

>  <SCORE.INTRA.SOLV.lig_0>
-92.3891

>  <SCORE.INTRA.VDW>
-0.389804

>  <SCORE.INTRA.VDW.0>
-2.90606

>  <SCORE.INTRA.norm>
-0.00666791

>  <SCORE.RESTR>
0.00815683

>  <SCORE.RESTR.CAVITY>
0.00815683

>  <SCORE.RESTR.norm>
0.000220455

>  <SCORE.SYSTEM>
0

>  <SCORE.SYSTEM.CONST>
0

>  <SCORE.SYSTEM.DIHEDRAL>
0

>  <SCORE.SYSTEM.SOLV>
0

>  <SCORE.SYSTEM.norm>
0

>  <SCORE.heavy>
37

>  <SCORE.norm>
-0.143403

>  <RMSD>
0.738

$$$$
ligand
 OpenBabel02271912133D
libRbt.so/2013.1/901 2013/11/27
 37 40  0  0  0  0  0  0  0  0999 V2000
   -0.8300   26.4343   67.8146 C   0  0  1  0  0  0  0  0  0  0  0  0
   -1.8089   25.6909   68.7672 C   0  0  1  0  0  0  0  0  0  0  0  0
   -3.2315   25.6072   68.1818 C   0  0  0  0  0  0  0  0  0  0  0  0
   -3.7384   27.0513   67.8770 C   0  0  1  0  0  0  0  0  0  0  0  0
   -2.7769   27.7735   66.8783 C   0  0  1  0  0  0  0  0  0  0  0  0
   -3.3125   29.2468   66.5828 C   0  0  1  0  0  0  0  0  0  0  0  0
   -4.7458   29.1524   65.9825 C   0  0  1  0  0  0  0  0  0  0  0  0
   -5.6498   28.3956   67.0017 C   0  0  2  0  0  0  0  0  0  0  0  0
   -6.4345   30.6755   64.7420 C   0  0  0  0  0  0  0  0  0  0  0  0
   -1.3010   24.3394   69.0847 N   0  0  0  0  0  0  0  0  0  0  0  0
   -5.2940   30.5321   65.7020 N   0  0  0  0  0  0  0  0  0  0  0  0
   -0.5548   25.6884   66.6128 O   0  0  0  0  0  0  0  0  0  0  0  0
   -1.4125   27.7615   67.4853 O   0  0  0  0  0  0  0  0  0  0  0  0
   -5.1230   27.0575   67.3005 O   0  0  0  0  0  0  0  0  0  0  0  0
   -3.3856   29.9831   67.7968 O   0  0  0  0  0  0  0  0  0  0  0  0
   -6.9692   28.2689   66.4836 O   0  0  0  0  0  0  0  0  0  0  0  0
   -7.9573   27.8938   67.4747 C   0  0  2  0  0  0  0  0  0  0  0  0
   -9.2033   27.2178   66.8551 C   0  0  1  0  0  0  0  0  0  0  0  0
  -10.0029   28.2281   65.9706 C   0  0  2  0  0  0  0  0  0  0  0  0
  -10.4500   29.3909   66.8332 C   0  0  1  0  0  0  0  0  0  0  0  0
   -9.1919   30.0874   67.4329 C   0  0  1  0  0  0  0  0  0  0  0  0
   -9.5597   31.2622   68.3373 C   0  0  0  0  0  0  0  0  0  0  0  0
  -11.2288   30.3435   66.0057 N   0  0  0  0  0  0  0  0  0  0  0  0
   -8.4082   29.0978   68.2346 O   0  0  0  0  0  0  0  0  0  0  0  0
   -8.7441   26.0717   66.1043 O   0  0  0  0  0  0  0  0  0  0  0  0
  -11.1564   27.5863   65.4224 O   0  0  0  0  0  0  0  0  0  0  0  0
   -8.3856   31.9241   68.7408 O   0  0  0  0  0  0  0  0  0  0  0  0
    0.6633   25.9297   65.7479 C   0  0  1  0  0  0  0  0  0  0  0  0
    1.7674   24.9206   66.1667 C   0  0  1  0  0  0  0  0  0  0  0  0
    3.0432   25.1370   65.3022 C   0  0  2  0  0  0  0  0  0  0  0  0
    2.6886   24.9201   63.8104 C   0  0  1  0  0  0  0  0  0  0  0  0
    1.5788   25.9348   63.3567 C   0  0  0  0  0  0  0  0  0  0  0  0
    0.3311   25.7124   64.2378 C   0  0  2  0  0  0  0  0  0  0  0  0
    3.8991   25.1169   62.9770 N   0  0  0  0  0  0  0  0  0  0  0  0
   -0.6996   26.6641   63.8090 N   0  0  0  0  0  0  0  0  0  0  0  0
    2.0979   25.1200   67.5590 O   0  0  0  0  0  0  0  0  0  0  0  0
    4.0549   24.1918   65.7155 O   0  0  0  0  0  0  0  0  0  0  0  0
  1  2  1  0  0  0  0
  1 12  1  6  0  0  0
  1 13  1  0  0  0  0
  2  3  1  0  0  0  0
  2 10  1  6  0  0  0
  4  3  1  6  0  0  0
  4  5  1  0  0  0  0
  4 14  1  0  0  0  0
  5  6  1  0  0  0  0
  5 13  1  1  0  0  0
  6  7  1  0  0  0  0
  6 15  1  1  0  0  0
  7  8  1  0  0  0  0
  7 11  1  1  0  0  0
  8 14  1  0  0  0  0
  8 16  1  6  0  0  0
  9 11  1  0  0  0  0
 17 16  1  6  0  0  0
 17 18  1  0  0  0  0
 17 24  1  0  0  0  0
 18 19  1  0  0  0  0
 18 25  1  6  0  0  0
 19 20  1  0  0  0  0
 19 26  1  1  0  0  0
 20 21  1  0  0  0  0
 20 23  1  6  0  0  0
 21 22  1  1  0  0  0
 21 24  1  0  0  0  0
 22 27  1  0  0  0  0
 28 12  1  1  0  0  0
 28 29  1  0  0  0  0
 28 33  1  0  0  0  0
 29 30  1  0  0  0  0
 29 36  1  1  0  0  0
 30 31  1  0  0  0  0
 30 37  1  1  0  0  0
 31 32  1  0  0  0  0
 31 34  1  6  0  0  0
 32 33  1  0  0  0  0
 33 35  1  6  0  0  0
M  END
>  <CHROM.1>
-159.33207646,160.53626062,-165.06049840,95.40830838,-156.74245018,-174.36788429
-3.85733840,27.48619511,66.51574398,-0.02146274,-0.36980331,1.84264643

>  <Name>
ligand

>  <RI>
0

>  <Rbt.Current_Directory>
/home/itssahil/PROJECTS/Mol_Feturizer/Test_systems_manuscript/rnas/2g5k

>  <Rbt.Executable>
rbdock ($Id: //depot/dev/client3/rdock/2013.1/src/exe/rbdock.cxx#4 $)

>  <Rbt.Library>
libRbt.so (2013.1, Build901 2013/11/27)

>  <Rbt.Parameter_File>
/export/apps/rDock/src/rDock_2013.1_src/data/scripts/dock_solv.prm

>  <Rbt.Receptor>
prm/pocket_docking_2.prm

>  <SCORE>
-4.10304

>  <SCORE.INTER>
-2.87269

>  <SCORE.INTER.CONST>
1

>  <SCORE.INTER.POLAR>
0

>  <SCORE.INTER.ROT>
6

>  <SCORE.INTER.SOLV>
17.6921

>  <SCORE.INTER.VDW>
-15.4125

>  <SCORE.INTER.norm>
-0.0776401

>  <SCORE.INTRA>
-1.2455

>  <SCORE.INTRA.DIHEDRAL>
-1.05465

>  <SCORE.INTRA.DIHEDRAL.0>
11.3972

>  <SCORE.INTRA.POLAR>
0

>  <SCORE.INTRA.POLAR.0>
0

>  <SCORE.INTRA.REPUL>
0

>  <SCORE.INTRA.REPUL.0>
0

>  <SCORE.INTRA.SOLV>
-0.486124

>  <SCORE.INTRA.SOLV.lig_0>
-92.3891

>  <SCORE.INTRA.VDW>
-0.475116

>  <SCORE.INTRA.VDW.0>
-2.90606

>  <SCORE.INTRA.norm>
-0.0336622

>  <SCORE.RESTR>
0.0151526

>  <SCORE.RESTR.CAVITY>
0.0151526

>  <SCORE.RESTR.norm>
0.00040953

>  <SCORE.SYSTEM>
0

>  <SCORE.SYSTEM.CONST>
0

>  <SCORE.SYSTEM.DIHEDRAL>
0

>  <SCORE.SYSTEM.SOLV>
0

>  <SCORE.SYSTEM.norm>
0

>  <SCORE.heavy>
37

>  <SCORE.norm>
-0.110893

>  <RMSD>
0.746

$$$$
ligand
 OpenBabel02271912133D
libRbt.so/2013.1/901 2013/11/27
 37 40  0  0  0  0  0  0  0  0999 V2000
   -0.7483   26.4447   67.6226 C   0  0  1  0  0  0  0  0  0  0  0  0
   -1.8111   25.8245   68.5734 C   0  0  1  0  0  0  0  0  0  0  0  0
   -3.2253   25.8668   67.9638 C   0  0  0  0  0  0  0  0  0  0  0  0
   -3.5822   27.3459   67.6172 C   0  0  1  0  0  0  0  0  0  0  0  0
   -2.5381   27.9456   66.6203 C   0  0  1  0  0  0  0  0  0  0  0  0
   -2.9209   29.4568   66.2819 C   0  0  1  0  0  0  0  0  0  0  0  0
   -4.3466   29.4891   65.6573 C   0  0  1  0  0  0  0  0  0  0  0  0
   -5.3373   28.8499   66.6765 C   0  0  2  0  0  0  0  0  0  0  0  0
   -4.5998   31.4029   63.9300 C   0  0  0  0  0  0  0  0  0  0  0  0
   -1.4442   24.4378   68.9307 N   0  0  0  0  0  0  0  0  0  0  0  0
   -4.7513   30.9088   65.3357 N   0  0  0  0  0  0  0  0  0  0  0  0
   -0.5286   25.6464   66.4432 O   0  0  0  0  0  0  0  0  0  0  0  0
   -1.1916   27.8143   67.2526 O   0  0  0  0  0  0  0  0  0  0  0  0
   -4.9500   27.4741   67.0151 O   0  0  0  0  0  0  0  0  0  0  0  0
   -2.9406   30.2260   67.4773 O   0  0  0  0  0  0  0  0  0  0  0  0
   -6.6541   28.8408   66.1371 O   0  0  0  0  0  0  0  0  0  0  0  0
   -7.6574   28.3176   67.0419 C   0  0  2  0  0  0  0  0  0  0  0  0
   -9.0515   28.1882   66.3838 C   0  0  1  0  0  0  0  0  0  0  0  0
   -9.6355   29.5954   66.0356 C   0  0  2  0  0  0  0  0  0  0  0  0
   -9.7649   30.4038   67.3106 C   0  0  1  0  0  0  0  0  0  0  0  0
   -8.3552   30.5569   67.9565 C   0  0  1  0  0  0  0  0  0  0  0  0
   -8.4030   31.3446   69.2643 C   0  0  0  0  0  0  0  0  0  0  0  0
  -10.3395   31.7331   66.9916 N   0  0  0  0  0  0  0  0  0  0  0  0
   -7.7856   29.2032   68.2376 O   0  0  0  0  0  0  0  0  0  0  0  0
   -8.9016   27.3498   65.2164 O   0  0  0  0  0  0  0  0  0  0  0  0
  -10.9287   29.4516   65.4439 O   0  0  0  0  0  0  0  0  0  0  0  0
   -8.7208   32.6869   68.9876 O   0  0  0  0  0  0  0  0  0  0  0  0
    0.7163   25.7535   65.5897 C   0  0  1  0  0  0  0  0  0  0  0  0
    1.7598   24.7310   66.1173 C   0  0  1  0  0  0  0  0  0  0  0  0
    3.0611   24.8106   65.2675 C   0  0  2  0  0  0  0  0  0  0  0  0
    2.7245   24.4851   63.7913 C   0  0  1  0  0  0  0  0  0  0  0  0
    1.6762   25.5105   63.2284 C   0  0  0  0  0  0  0  0  0  0  0  0
    0.4024   25.4251   64.0959 C   0  0  2  0  0  0  0  0  0  0  0  0
    3.9590   24.5510   62.9727 N   0  0  0  0  0  0  0  0  0  0  0  0
   -0.5705   26.3860   63.5648 N   0  0  0  0  0  0  0  0  0  0  0  0
    2.0734   25.0318   67.4952 O   0  0  0  0  0  0  0  0  0  0  0  0
    4.0157   23.8557   65.7822 O   0  0  0  0  0  0  0  0  0  0  0  0
  1  2  1  0  0  0  0
  1 12  1  6  0  0  0
  1 13  1  0  0  0  0
  2  3  1  0  0  0  0
  2 10  1  6  0  0  0
  4  3  1  6  0  0  0
  4  5  1  0  0  0  0
  4 14  1  0  0  0  0
  5  6  1  0  0  0  0
  5 13  1  1  0  0  0
  6  7  1  0  0  0  0
  6 15  1  1  0  0  0
  7  8  1  0  0  0  0
  7 11  1  1  0  0  0
  8 14  1  0  0  0  0
  8 16  1  6  0  0  0
  9 11  1  0  0  0  0
 17 16  1  6  0  0  0
 17 18  1  0  0  0  0
 17 24  1  0  0  0  0
 18 19  1  0  0  0  0
 18 25  1  6  0  0  0
 19 20  1  0  0  0  0
 19 26  1  1  0  0  0
 20 21  1  0  0  0  0
 20 23  1  6  0  0  0
 21 22  1  1  0  0  0
 21 24  1  0  0  0  0
 22 27  1  0  0  0  0
 28 12  1  1  0  0  0
 28 29  1  0  0  0  0
 28 33  1  0  0  0  0
 29 30  1  0  0  0  0
 29 36  1  1  0  0  0
 30 31  1  0  0  0  0
 30 37  1  1  0  0  0
 31 32  1  0  0  0  0
 31 34  1  6  0  0  0
 32 33  1  0  0  0  0
 33 35  1  6  0  0  0
M  END
>  <CHROM.1>
-159.83131956,98.52912915,-177.36078289,91.21119890,-174.29572869,-68.73790969
-3.58508864,27.78968312,66.40174782,-0.03636510,-0.47161811,1.79979280

>  <Name>
ligand

>  <RI>
0

>  <Rbt.Current_Directory>
/home/itssahil/PROJECTS/Mol_Feturizer/Test_systems_manuscript/rnas/2g5k

>  <Rbt.Executable>
rbdock ($Id: //depot/dev/client3/rdock/2013.1/src/exe/rbdock.cxx#4 $)

>  <Rbt.Library>
libRbt.so (2013.1, Build901 2013/11/27)

>  <Rbt.Parameter_File>
/export/apps/rDock/src/rDock_2013.1_src/data/scripts/dock_solv.prm

>  <Rbt.Receptor>
prm/pocket_docking_2.prm

>  <SCORE>
-7.51802

>  <SCORE.INTER>
-5.43106

>  <SCORE.INTER.CONST>
1

>  <SCORE.INTER.POLAR>
0

>  <SCORE.INTER.ROT>
6

>  <SCORE.INTER.SOLV>
20.3736

>  <SCORE.INTER.VDW>
-18.0119

>  <SCORE.INTER.norm>
-0.146786

>  <SCORE.INTRA>
-2.08875

>  <SCORE.INTRA.DIHEDRAL>
-4.38756

>  <SCORE.INTRA.DIHEDRAL.0>
11.3972

>  <SCORE.INTRA.POLAR>
0

>  <SCORE.INTRA.POLAR.0>
0

>  <SCORE.INTRA.REPUL>
0

>  <SCORE.INTRA.REPUL.0>
0

>  <SCORE.INTRA.SOLV>
0.171387

>  <SCORE.INTRA.SOLV.lig_0>
-92.3891

>  <SCORE.INTRA.VDW>
0.0193401

>  <SCORE.INTRA.VDW.0>
-2.90606

>  <SCORE.INTRA.norm>
-0.0564527

>  <SCORE.RESTR>
0.00179625

>  <SCORE.RESTR.CAVITY>
0.00179625

>  <SCORE.RESTR.norm>
4.85473e-05

>  <SCORE.SYSTEM>
0

>  <SCORE.SYSTEM.CONST>
0

>  <SCORE.SYSTEM.DIHEDRAL>
0

>  <SCORE.SYSTEM.SOLV>
0

>  <SCORE.SYSTEM.norm>
0

>  <SCORE.heavy>
37

>  <SCORE.norm>
-0.20319

>  <RMSD>
0.748

$$$$
ligand
 OpenBabel02271912133D
libRbt.so/2013.1/901 2013/11/27
 37 40  0  0  0  0  0  0  0  0999 V2000
   -0.7940   26.3304   67.7353 C   0  0  1  0  0  0  0  0  0  0  0  0
   -1.8316   25.5821   68.6196 C   0  0  1  0  0  0  0  0  0  0  0  0
   -3.2397   25.5973   67.9948 C   0  0  0  0  0  0  0  0  0  0  0  0
   -3.6722   27.0780   67.7592 C   0  0  1  0  0  0  0  0  0  0  0  0
   -2.6517   27.8085   66.8272 C   0  0  1  0  0  0  0  0  0  0  0  0
   -3.1119   29.3192   66.6018 C   0  0  1  0  0  0  0  0  0  0  0  0
   -4.5308   29.3250   65.9612 C   0  0  1  0  0  0  0  0  0  0  0  0
   -5.4960   28.5562   66.9131 C   0  0  2  0  0  0  0  0  0  0  0  0
   -6.0446   31.0039   64.6963 C   0  0  0  0  0  0  0  0  0  0  0  0
   -1.3942   24.1930   68.8732 N   0  0  0  0  0  0  0  0  0  0  0  0
   -5.0081   30.7421   65.7452 N   0  0  0  0  0  0  0  0  0  0  0  0
   -0.5196   25.6398   66.5008 O   0  0  0  0  0  0  0  0  0  0  0  0
   -1.3067   27.6994   67.4667 O   0  0  0  0  0  0  0  0  0  0  0  0
   -5.0386   27.1806   67.1493 O   0  0  0  0  0  0  0  0  0  0  0  0
   -3.1852   29.9902   67.8531 O   0  0  0  0  0  0  0  0  0  0  0  0
   -6.8048   28.5199   66.3557 O   0  0  0  0  0  0  0  0  0  0  0  0
   -7.7389   27.6992   67.0994 C   0  0  2  0  0  0  0  0  0  0  0  0
   -8.9530   27.2516   66.2515 C   0  0  1  0  0  0  0  0  0  0  0  0
   -9.8416   28.4766   65.8615 C   0  0  2  0  0  0  0  0  0  0  0  0
  -10.3423   29.1441   67.1263 C   0  0  1  0  0  0  0  0  0  0  0  0
   -9.1180   29.6193   67.9648 C   0  0  1  0  0  0  0  0  0  0  0  0
   -9.5393   30.2861   69.2730 C   0  0  0  0  0  0  0  0  0  0  0  0
  -11.2048   30.2948   66.7645 N   0  0  0  0  0  0  0  0  0  0  0  0
   -8.2488   28.4462   68.2878 O   0  0  0  0  0  0  0  0  0  0  0  0
   -8.4385   26.5540   65.0953 O   0  0  0  0  0  0  0  0  0  0  0  0
  -10.9639   28.0373   65.0930 O   0  0  0  0  0  0  0  0  0  0  0  0
   -8.4064   30.8355   69.9009 O   0  0  0  0  0  0  0  0  0  0  0  0
    0.7176   25.8924   65.6669 C   0  0  1  0  0  0  0  0  0  0  0  0
    1.8077   24.8690   66.0876 C   0  0  1  0  0  0  0  0  0  0  0  0
    3.1024   25.0964   65.2547 C   0  0  2  0  0  0  0  0  0  0  0  0
    2.7784   24.9123   63.7516 C   0  0  1  0  0  0  0  0  0  0  0  0
    1.6834   25.9422   63.2960 C   0  0  0  0  0  0  0  0  0  0  0  0
    0.4163   25.7083   64.1460 C   0  0  2  0  0  0  0  0  0  0  0  0
    4.0071   25.1198   62.9481 N   0  0  0  0  0  0  0  0  0  0  0  0
   -0.6004   26.6742   63.7155 N   0  0  0  0  0  0  0  0  0  0  0  0
    2.1097   25.0377   67.4904 O   0  0  0  0  0  0  0  0  0  0  0  0
    4.1005   24.1374   65.6694 O   0  0  0  0  0  0  0  0  0  0  0  0
  1  2  1  0  0  0  0
  1 12  1  6  0  0  0
  1 13  1  0  0  0  0
  2  3  1  0  0  0  0
  2 10  1  6  0  0  0
  4  3  1  6  0  0  0
  4  5  1  0  0  0  0
  4 14  1  0  0  0  0
  5  6  1  0  0  0  0
  5 13  1  1  0  0  0
  6  7  1  0  0  0  0
  6 15  1  1  0  0  0
  7  8  1  0  0  0  0
  7 11  1  1  0  0  0
  8 14  1  0  0  0  0
  8 16  1  6  0  0  0
  9 11  1  0  0  0  0
 17 16  1  6  0  0  0
 17 18  1  0  0  0  0
 17 24  1  0  0  0  0
 18 19  1  0  0  0  0
 18 25  1  6  0  0  0
 19 20  1  0  0  0  0
 19 26  1  6  0  0  0
 20 21  1  0  0  0  0
 20 23  1  6  0  0  0
 21 22  1  1  0  0  0
 21 24  1  0  0  0  0
 22 27  1  0  0  0  0
 28 12  1  1  0  0  0
 28 29  1  0  0  0  0
 28 33  1  0  0  0  0
 29 30  1  0  0  0  0
 29 36  1  1  0  0  0
 30 31  1  0  0  0  0
 30 37  1  1  0  0  0
 31 32  1  0  0  0  0
 31 34  1  6  0  0  0
 32 33  1  0  0  0  0
 33 35  1  6  0  0  0
M  END
>  <CHROM.1>
-160.66323426,156.19978249,173.56211726,93.25126292,-158.99653908,-172.84118652
-3.74501353,27.43689199,66.49975342,-0.13003301,-0.34745107,1.60747630

>  <Name>
ligand

>  <RI>
0

>  <Rbt.Current_Directory>
/home/itssahil/PROJECTS/Mol_Feturizer/Test_systems_manuscript/rnas/2g5k

>  <Rbt.Executable>
rbdock ($Id: //depot/dev/client3/rdock/2013.1/src/exe/rbdock.cxx#4 $)

>  <Rbt.Library>
libRbt.so (2013.1, Build901 2013/11/27)

>  <Rbt.Parameter_File>
/export/apps/rDock/src/rDock_2013.1_src/data/scripts/dock_solv.prm

>  <Rbt.Receptor>
prm/pocket_docking_2.prm

>  <SCORE>
-5.30684

>  <SCORE.INTER>
-3.54109

>  <SCORE.INTER.CONST>
1

>  <SCORE.INTER.POLAR>
0

>  <SCORE.INTER.ROT>
6

>  <SCORE.INTER.SOLV>
18.7395

>  <SCORE.INTER.VDW>
-16.2072

>  <SCORE.INTER.norm>
-0.0957051

>  <SCORE.INTRA>
-1.77465

>  <SCORE.INTRA.DIHEDRAL>
-2.70154

>  <SCORE.INTRA.DIHEDRAL.0>
11.3972

>  <SCORE.INTRA.POLAR>
0

>  <SCORE.INTRA.POLAR.0>
0

>  <SCORE.INTRA.REPUL>
0

>  <SCORE.INTRA.REPUL.0>
0

>  <SCORE.INTRA.SOLV>
-0.809391

>  <SCORE.INTRA.SOLV.lig_0>
-92.3891

>  <SCORE.INTRA.VDW>
-0.0191828

>  <SCORE.INTRA.VDW.0>
-2.90606

>  <SCORE.INTRA.norm>
-0.0479634

>  <SCORE.RESTR>
0.00889324

>  <SCORE.RESTR.CAVITY>
0.00889324

>  <SCORE.RESTR.norm>
0.000240358

>  <SCORE.SYSTEM>
0

>  <SCORE.SYSTEM.CONST>
0

>  <SCORE.SYSTEM.DIHEDRAL>
0

>  <SCORE.SYSTEM.SOLV>
0

>  <SCORE.SYSTEM.norm>
0

>  <SCORE.heavy>
37

>  <SCORE.norm>
-0.143428

>  <RMSD>
0.753

$$$$
ligand
 OpenBabel02271912133D
libRbt.so/2013.1/901 2013/11/27
 37 40  0  0  0  0  0  0  0  0999 V2000
   -0.7421   26.3460   67.6870 C   0  0  1  0  0  0  0  0  0  0  0  0
   -1.7516   25.6702   68.6580 C   0  0  1  0  0  0  0  0  0  0  0  0
   -3.1762   25.6304   68.0731 C   0  0  0  0  0  0  0  0  0  0  0  0
   -3.6222   27.0857   67.7290 C   0  0  1  0  0  0  0  0  0  0  0  0
   -2.6311   27.7399   66.7124 C   0  0  1  0  0  0  0  0  0  0  0  0
   -3.1045   29.2258   66.3768 C   0  0  1  0  0  0  0  0  0  0  0  0
   -4.5404   29.1753   65.7772 C   0  0  1  0  0  0  0  0  0  0  0  0
   -5.4755   28.4847   66.8152 C   0  0  2  0  0  0  0  0  0  0  0  0
   -4.4974   31.2623   64.2433 C   0  0  0  0  0  0  0  0  0  0  0  0
   -1.3007   24.3077   69.0124 N   0  0  0  0  0  0  0  0  0  0  0  0
   -5.0302   30.5687   65.4590 N   0  0  0  0  0  0  0  0  0  0  0  0
   -0.4982   25.5572   66.5061 O   0  0  0  0  0  0  0  0  0  0  0  0
   -1.2686   27.6871   67.3214 O   0  0  0  0  0  0  0  0  0  0  0  0
   -5.0052   27.1343   67.1506 O   0  0  0  0  0  0  0  0  0  0  0  0
   -3.1469   29.9969   67.5704 O   0  0  0  0  0  0  0  0  0  0  0  0
   -6.7988   28.3994   66.2990 O   0  0  0  0  0  0  0  0  0  0  0  0
   -7.6949   27.5963   67.1060 C   0  0  2  0  0  0  0  0  0  0  0  0
   -8.9129   27.0709   66.3098 C   0  0  1  0  0  0  0  0  0  0  0  0
   -9.8425   28.2488   65.8729 C   0  0  2  0  0  0  0  0  0  0  0  0
  -10.3361   28.9712   67.1100 C   0  0  1  0  0  0  0  0  0  0  0  0
   -9.1090   29.5240   67.8951 C   0  0  1  0  0  0  0  0  0  0  0  0
   -9.5223   30.2501   69.1738 C   0  0  0  0  0  0  0  0  0  0  0  0
  -11.2371   30.0771   66.7048 N   0  0  0  0  0  0  0  0  0  0  0  0
   -8.2016   28.3937   68.2627 O   0  0  0  0  0  0  0  0  0  0  0  0
   -8.4024   26.3249   65.1824 O   0  0  0  0  0  0  0  0  0  0  0  0
  -10.9674   27.7385   65.1536 O   0  0  0  0  0  0  0  0  0  0  0  0
   -8.3987   30.8881   69.7304 O   0  0  0  0  0  0  0  0  0  0  0  0
    0.7184   25.7387   65.6246 C   0  0  1  0  0  0  0  0  0  0  0  0
    1.8059   24.7267   66.0785 C   0  0  1  0  0  0  0  0  0  0  0  0
    3.0796   24.8823   65.1980 C   0  0  2  0  0  0  0  0  0  0  0  0
    2.7108   24.6104   63.7187 C   0  0  1  0  0  0  0  0  0  0  0  0
    1.6174   25.6266   63.2298 C   0  0  0  0  0  0  0  0  0  0  0  0
    0.3718   25.4653   64.1269 C   0  0  2  0  0  0  0  0  0  0  0  0
    3.9191   24.7489   62.8706 N   0  0  0  0  0  0  0  0  0  0  0  0
   -0.6434   26.4181   63.6650 N   0  0  0  0  0  0  0  0  0  0  0  0
    2.1496   24.9774   67.4592 O   0  0  0  0  0  0  0  0  0  0  0  0
    4.0759   23.9357   65.6443 O   0  0  0  0  0  0  0  0  0  0  0  0
  1  2  1  0  0  0  0
  1 12  1  6  0  0  0
  1 13  1  0  0  0  0
  2  3  1  0  0  0  0
  2 10  1  6  0  0  0
  4  3  1  6  0  0  0
  4  5  1  0  0  0  0
  4 14  1  0  0  0  0
  5  6  1  0  0  0  0
  5 13  1  1  0  0  0
  6  7  1  0  0  0  0
  6 15  1  1  0  0  0
  7  8  1  0  0  0  0
  7 11  1  1  0  0  0
  8 14  1  0  0  0  0
  8 16  1  6  0  0  0
  9 11  1  0  0  0  0
 17 16  1  6  0  0  0
 17 18  1  0  0  0  0
 17 24  1  0  0  0  0
 18 19  1  0  0  0  0
 18 25  1  6  0  0  0
 19 20  1  0  0  0  0
 19 26  1  1  0  0  0
 20 21  1  0  0  0  0
 20 23  1  6  0  0  0
 21 22  1  1  0  0  0
 21 24  1  0  0  0  0
 22 27  1  0  0  0  0
 28 12  1  1  0  0  0
 28 29  1  0  0  0  0
 28 33  1  0  0  0  0
 29 30  1  0  0  0  0
 29 36  1  1  0  0  0
 30 31  1  0  0  0  0
 30 37  1  1  0  0  0
 31 32  1  0  0  0  0
 31 34  1  6  0  0  0
 32 33  1  0  0  0  0
 33 35  1  6  0  0  0
M  END
>  <CHROM.1>
-160.32410860,75.91782660,171.26280389,94.58129197,-158.12311944,-171.52213530
-3.69085263,27.32748624,66.43708192,-0.11326277,-0.35673112,1.66596202

>  <Name>
ligand

>  <RI>
0

>  <Rbt.Current_Directory>
/home/itssahil/PROJECTS/Mol_Feturizer/Test_systems_manuscript/rnas/2g5k

>  <Rbt.Executable>
rbdock ($Id: //depot/dev/client3/rdock/2013.1/src/exe/rbdock.cxx#4 $)

>  <Rbt.Library>
libRbt.so (2013.1, Build901 2013/11/27)

>  <Rbt.Parameter_File>
/export/apps/rDock/src/rDock_2013.1_src/data/scripts/dock_solv.prm

>  <Rbt.Receptor>
prm/pocket_docking_2.prm

>  <SCORE>
-6.47758

>  <SCORE.INTER>
-5.26272

>  <SCORE.INTER.CONST>
1

>  <SCORE.INTER.POLAR>
0

>  <SCORE.INTER.ROT>
6

>  <SCORE.INTER.SOLV>
20.0192

>  <SCORE.INTER.VDW>
-17.7815

>  <SCORE.INTER.norm>
-0.142236

>  <SCORE.INTRA>
-1.21616

>  <SCORE.INTRA.DIHEDRAL>
-2.22619

>  <SCORE.INTRA.DIHEDRAL.0>
11.3972

>  <SCORE.INTRA.POLAR>
0

>  <SCORE.INTRA.POLAR.0>
0

>  <SCORE.INTRA.REPUL>
0

>  <SCORE.INTRA.REPUL.0>
0

>  <SCORE.INTRA.SOLV>
-0.750083

>  <SCORE.INTRA.SOLV.lig_0>
-92.3891

>  <SCORE.INTRA.VDW>
0.271983

>  <SCORE.INTRA.VDW.0>
-2.90606

>  <SCORE.INTRA.norm>
-0.0328691

>  <SCORE.RESTR>
0.00129285

>  <SCORE.RESTR.CAVITY>
0.00129285

>  <SCORE.RESTR.norm>
3.49418e-05

>  <SCORE.SYSTEM>
0

>  <SCORE.SYSTEM.CONST>
0

>  <SCORE.SYSTEM.DIHEDRAL>
0

>  <SCORE.SYSTEM.SOLV>
0

>  <SCORE.SYSTEM.norm>
0

>  <SCORE.heavy>
37

>  <SCORE.norm>
-0.17507

>  <RMSD>
0.753

$$$$
ligand
 OpenBabel02271912133D
libRbt.so/2013.1/901 2013/11/27
 37 40  0  0  0  0  0  0  0  0999 V2000
   -0.7061   26.3651   67.6684 C   0  0  1  0  0  0  0  0  0  0  0  0
   -1.7384   25.7411   68.6500 C   0  0  1  0  0  0  0  0  0  0  0  0
   -3.1676   25.7637   68.0753 C   0  0  0  0  0  0  0  0  0  0  0  0
   -3.5489   27.2362   67.7265 C   0  0  1  0  0  0  0  0  0  0  0  0
   -2.5362   27.8391   66.6996 C   0  0  1  0  0  0  0  0  0  0  0  0
   -2.9435   29.3435   66.3593 C   0  0  1  0  0  0  0  0  0  0  0  0
   -4.3845   29.3558   65.7701 C   0  0  1  0  0  0  0  0  0  0  0  0
   -5.3427   28.7141   66.8183 C   0  0  2  0  0  0  0  0  0  0  0  0
   -4.3959   31.3697   64.1408 C   0  0  0  0  0  0  0  0  0  0  0  0
   -1.3478   24.3612   69.0086 N   0  0  0  0  0  0  0  0  0  0  0  0
   -4.8123   30.7686   65.4479 N   0  0  0  0  0  0  0  0  0  0  0  0
   -0.5071   25.5600   66.4901 O   0  0  0  0  0  0  0  0  0  0  0  0
   -1.1732   27.7270   67.2993 O   0  0  0  0  0  0  0  0  0  0  0  0
   -4.9323   27.3452   67.1576 O   0  0  0  0  0  0  0  0  0  0  0  0
   -2.9420   30.1218   67.5490 O   0  0  0  0  0  0  0  0  0  0  0  0
   -6.6723   28.6869   66.3118 O   0  0  0  0  0  0  0  0  0  0  0  0
   -7.6674   28.2988   67.2907 C   0  0  2  0  0  0  0  0  0  0  0  0
   -9.0610   28.0519   66.6658 C   0  0  1  0  0  0  0  0  0  0  0  0
   -9.6630   29.3806   66.1052 C   0  0  2  0  0  0  0  0  0  0  0  0
   -9.8002   30.3760   67.2394 C   0  0  1  0  0  0  0  0  0  0  0  0
   -8.3914   30.6446   67.8484 C   0  0  1  0  0  0  0  0  0  0  0  0
   -8.4465   31.6255   69.0180 C   0  0  0  0  0  0  0  0  0  0  0  0
  -10.3918   31.6325   66.7196 N   0  0  0  0  0  0  0  0  0  0  0  0
   -7.8044   29.3580   68.3346 O   0  0  0  0  0  0  0  0  0  0  0  0
   -8.9027   27.0440   65.6425 O   0  0  0  0  0  0  0  0  0  0  0  0
  -10.9554   29.1310   65.5478 O   0  0  0  0  0  0  0  0  0  0  0  0
   -8.8060   32.8991   68.5404 O   0  0  0  0  0  0  0  0  0  0  0  0
    0.7137   25.6758   65.6033 C   0  0  1  0  0  0  0  0  0  0  0  0
    1.7636   24.6345   66.0790 C   0  0  1  0  0  0  0  0  0  0  0  0
    3.0405   24.7223   65.1938 C   0  0  2  0  0  0  0  0  0  0  0  0
    2.6590   24.4309   63.7215 C   0  0  1  0  0  0  0  0  0  0  0  0
    1.6034   25.4759   63.2107 C   0  0  0  0  0  0  0  0  0  0  0  0
    0.3543   25.3816   64.1127 C   0  0  2  0  0  0  0  0  0  0  0  0
    3.8699   24.5048   62.8691 N   0  0  0  0  0  0  0  0  0  0  0  0
   -0.6256   26.3609   63.6302 N   0  0  0  0  0  0  0  0  0  0  0  0
    2.1191   24.9035   67.4532 O   0  0  0  0  0  0  0  0  0  0  0  0
    4.0016   23.7495   65.6605 O   0  0  0  0  0  0  0  0  0  0  0  0
  1  2  1  0  0  0  0
  1 12  1  6  0  0  0
  1 13  1  0  0  0  0
  2  3  1  0  0  0  0
  2 10  1  6  0  0  0
  4  3  1  6  0  0  0
  4  5  1  0  0  0  0
  4 14  1  0  0  0  0
  5  6  1  0  0  0  0
  5 13  1  1  0  0  0
  6  7  1  0  0  0  0
  6 15  1  1  0  0  0
  7  8  1  0  0  0  0
  7 11  1  1  0  0  0
  8 14  1  0  0  0  0
  8 16  1  6  0  0  0
  9 11  1  0  0  0  0
 17 16  1  6  0  0  0
 17 18  1  0  0  0  0
 17 24  1  0  0  0  0
 18 19  1  0  0  0  0
 18 25  1  6  0  0  0
 19 20  1  0  0  0  0
 19 26  1  1  0  0  0
 20 21  1  0  0  0  0
 20 23  1  6  0  0  0
 21 22  1  1  0  0  0
 21 24  1  0  0  0  0
 22 27  1  0  0  0  0
 28 12  1  1  0  0  0
 28 29  1  0  0  0  0
 28 33  1  0  0  0  0
 29 30  1  0  0  0  0
 29 36  1  1  0  0  0
 30 31  1  0  0  0  0
 30 37  1  1  0  0  0
 31 32  1  0  0  0  0
 31 34  1  6  0  0  0
 32 33  1  0  0  0  0
 33 35  1  6  0  0  0
M  END
>  <CHROM.1>
-159.97742794,83.49420862,-170.98133806,93.26537039,-170.56217882,-67.64846670
-3.59116425,27.71446916,66.43836557,0.05477122,-0.47323250,2.00185781

>  <Name>
ligand

>  <RI>
0

>  <Rbt.Current_Directory>
/home/itssahil/PROJECTS/Mol_Feturizer/Test_systems_manuscript/rnas/2g5k

>  <Rbt.Executable>
rbdock ($Id: //depot/dev/client3/rdock/2013.1/src/exe/rbdock.cxx#4 $)

>  <Rbt.Library>
libRbt.so (2013.1, Build901 2013/11/27)

>  <Rbt.Parameter_File>
/export/apps/rDock/src/rDock_2013.1_src/data/scripts/dock_solv.prm

>  <Rbt.Receptor>
prm/pocket_docking_2.prm

>  <SCORE>
-7.21182

>  <SCORE.INTER>
-5.38758

>  <SCORE.INTER.CONST>
1

>  <SCORE.INTER.POLAR>
0

>  <SCORE.INTER.ROT>
6

>  <SCORE.INTER.SOLV>
20.3451

>  <SCORE.INTER.VDW>
-17.9734

>  <SCORE.INTER.norm>
-0.14561

>  <SCORE.INTRA>
-1.82424

>  <SCORE.INTRA.DIHEDRAL>
-3.92062

>  <SCORE.INTRA.DIHEDRAL.0>
11.3972

>  <SCORE.INTRA.POLAR>
0

>  <SCORE.INTRA.POLAR.0>
0

>  <SCORE.INTRA.REPUL>
0

>  <SCORE.INTRA.REPUL.0>
0

>  <SCORE.INTRA.SOLV>
0.31361

>  <SCORE.INTRA.SOLV.lig_0>
-92.3891

>  <SCORE.INTRA.VDW>
-0.020733

>  <SCORE.INTRA.VDW.0>
-2.90606

>  <SCORE.INTRA.norm>
-0.0493038

>  <SCORE.RESTR>
0

>  <SCORE.RESTR.CAVITY>
0

>  <SCORE.RESTR.norm>
0

>  <SCORE.SYSTEM>
0

>  <SCORE.SYSTEM.CONST>
0

>  <SCORE.SYSTEM.DIHEDRAL>
0

>  <SCORE.SYSTEM.SOLV>
0

>  <SCORE.SYSTEM.norm>
0

>  <SCORE.heavy>
37

>  <SCORE.norm>
-0.194914

>  <RMSD>
0.757

$$$$
ligand
 OpenBabel02271912133D
libRbt.so/2013.1/901 2013/11/27
 37 40  0  0  0  0  0  0  0  0999 V2000
   -0.8500   26.5081   67.4307 C   0  0  1  0  0  0  0  0  0  0  0  0
   -1.9400   25.9032   68.3605 C   0  0  1  0  0  0  0  0  0  0  0  0
   -3.3473   26.0057   67.7422 C   0  0  0  0  0  0  0  0  0  0  0  0
   -3.6524   27.5030   67.4256 C   0  0  1  0  0  0  0  0  0  0  0  0
   -2.5814   28.0891   66.4492 C   0  0  1  0  0  0  0  0  0  0  0  0
   -2.9113   29.6191   66.1412 C   0  0  1  0  0  0  0  0  0  0  0  0
   -4.3304   29.7123   65.5078 C   0  0  1  0  0  0  0  0  0  0  0  0
   -5.3494   29.0845   66.5059 C   0  0  2  0  0  0  0  0  0  0  0  0
   -5.7795   31.4405   64.2334 C   0  0  0  0  0  0  0  0  0  0  0  0
   -1.6219   24.4976   68.6899 N   0  0  0  0  0  0  0  0  0  0  0  0
   -4.6854   31.1514   65.2145 N   0  0  0  0  0  0  0  0  0  0  0  0
   -0.6480   25.7286   66.2358 O   0  0  0  0  0  0  0  0  0  0  0  0
   -1.2449   27.8994   67.0878 O   0  0  0  0  0  0  0  0  0  0  0  0
   -5.0105   27.6897   66.8171 O   0  0  0  0  0  0  0  0  0  0  0  0
   -2.9146   30.3626   67.3531 O   0  0  0  0  0  0  0  0  0  0  0  0
   -6.6617   29.1310   65.9574 O   0  0  0  0  0  0  0  0  0  0  0  0
   -7.6774   28.5485   66.8107 C   0  0  2  0  0  0  0  0  0  0  0  0
   -9.0673   28.4858   66.1341 C   0  0  1  0  0  0  0  0  0  0  0  0
   -9.6347   29.9220   65.8938 C   0  0  2  0  0  0  0  0  0  0  0  0
   -9.7667   30.6287   67.2276 C   0  0  1  0  0  0  0  0  0  0  0  0
   -8.3609   30.7158   67.8939 C   0  0  1  0  0  0  0  0  0  0  0  0
   -8.4117   31.3984   69.2595 C   0  0  0  0  0  0  0  0  0  0  0  0
  -10.3257   31.9849   67.0102 N   0  0  0  0  0  0  0  0  0  0  0  0
   -7.8068   29.3383   68.0716 O   0  0  0  0  0  0  0  0  0  0  0  0
   -8.9160   27.7406   64.9053 O   0  0  0  0  0  0  0  0  0  0  0  0
  -10.9243   29.8387   65.2830 O   0  0  0  0  0  0  0  0  0  0  0  0
   -9.1882   30.6220   70.1391 O   0  0  0  0  0  0  0  0  0  0  0  0
    0.6302   25.7678   65.4265 C   0  0  1  0  0  0  0  0  0  0  0  0
    1.6227   24.7370   66.0307 C   0  0  1  0  0  0  0  0  0  0  0  0
    2.9561   24.7473   65.2284 C   0  0  2  0  0  0  0  0  0  0  0  0
    2.6645   24.3756   63.7536 C   0  0  1  0  0  0  0  0  0  0  0  0
    1.6686   25.4081   63.1139 C   0  0  0  0  0  0  0  0  0  0  0  0
    0.3617   25.3919   63.9351 C   0  0  2  0  0  0  0  0  0  0  0  0
    3.9296   24.3752   62.9804 N   0  0  0  0  0  0  0  0  0  0  0  0
   -0.5620   26.3591   63.3324 N   0  0  0  0  0  0  0  0  0  0  0  0
    1.8943   25.0809   67.4074 O   0  0  0  0  0  0  0  0  0  0  0  0
    3.8623   23.7860   65.8137 O   0  0  0  0  0  0  0  0  0  0  0  0
  1  2  1  0  0  0  0
  1 12  1  6  0  0  0
  1 13  1  0  0  0  0
  2  3  1  0  0  0  0
  2 10  1  6  0  0  0
  4  3  1  6  0  0  0
  4  5  1  0  0  0  0
  4 14  1  0  0  0  0
  5  6  1  0  0  0  0
  5 13  1  1  0  0  0
  6  7  1  0  0  0  0
  6 15  1  1  0  0  0
  7  8  1  0  0  0  0
  7 11  1  1  0  0  0
  8 14  1  0  0  0  0
  8 16  1  6  0  0  0
  9 11  1  0  0  0  0
 17 16  1  6  0  0  0
 17 18  1  0  0  0  0
 17 24  1  0  0  0  0
 18 19  1  0  0  0  0
 18 25  1  6  0  0  0
 19 20  1  0  0  0  0
 19 26  1  1  0  0  0
 20 21  1  0  0  0  0
 20 23  1  6  0  0  0
 21 22  1  1  0  0  0
 21 24  1  0  0  0  0
 22 27  1  0  0  0  0
 28 12  1  1  0  0  0
 28 29  1  0  0  0  0
 28 33  1  0  0  0  0
 29 30  1  0  0  0  0
 29 36  1  1  0  0  0
 30 31  1  0  0  0  0
 30 37  1  1  0  0  0
 31 32  1  0  0  0  0
 31 34  1  6  0  0  0
 32 33  1  0  0  0  0
 33 35  1  6  0  0  0
M  END
>  <CHROM.1>
-157.08620455,160.84465241,179.11525085,86.66217052,-174.32974066,63.77778346
-3.67758619,27.84402202,66.31176861,-0.07131686,-0.47473116,1.73514720

>  <Name>
ligand

>  <RI>
0

>  <Rbt.Current_Directory>
/home/itssahil/PROJECTS/Mol_Feturizer/Test_systems_manuscript/rnas/2g5k

>  <Rbt.Executable>
rbdock ($Id: //depot/dev/client3/rdock/2013.1/src/exe/rbdock.cxx#4 $)

>  <Rbt.Library>
libRbt.so (2013.1, Build901 2013/11/27)

>  <Rbt.Parameter_File>
/export/apps/rDock/src/rDock_2013.1_src/data/scripts/dock_solv.prm

>  <Rbt.Receptor>
prm/pocket_docking_2.prm

>  <SCORE>
-7.99902

>  <SCORE.INTER>
-5.1935

>  <SCORE.INTER.CONST>
1

>  <SCORE.INTER.POLAR>
0

>  <SCORE.INTER.ROT>
6

>  <SCORE.INTER.SOLV>
20.1432

>  <SCORE.INTER.VDW>
-17.7767

>  <SCORE.INTER.norm>
-0.140365

>  <SCORE.INTRA>
-2.80551

>  <SCORE.INTRA.DIHEDRAL>
-5.60449

>  <SCORE.INTRA.DIHEDRAL.0>
11.3972

>  <SCORE.INTRA.POLAR>
0

>  <SCORE.INTRA.POLAR.0>
0

>  <SCORE.INTRA.REPUL>
0

>  <SCORE.INTRA.REPUL.0>
0

>  <SCORE.INTRA.SOLV>
-0.264393

>  <SCORE.INTRA.SOLV.lig_0>
-92.3891

>  <SCORE.INTRA.VDW>
0.128928

>  <SCORE.INTRA.VDW.0>
-2.90606

>  <SCORE.INTRA.norm>
-0.0758247

>  <SCORE.RESTR>
0

>  <SCORE.RESTR.CAVITY>
0

>  <SCORE.RESTR.norm>
0

>  <SCORE.SYSTEM>
0

>  <SCORE.SYSTEM.CONST>
0

>  <SCORE.SYSTEM.DIHEDRAL>
0

>  <SCORE.SYSTEM.SOLV>
0

>  <SCORE.SYSTEM.norm>
0

>  <SCORE.heavy>
37

>  <SCORE.norm>
-0.21619

>  <RMSD>
0.779

$$$$
ligand
 OpenBabel02271912133D
libRbt.so/2013.1/901 2013/11/27
 37 40  0  0  0  0  0  0  0  0999 V2000
   -1.2037   26.9006   66.9457 C   0  0  1  0  0  0  0  0  0  0  0  0
   -2.1761   26.0575   67.8188 C   0  0  1  0  0  0  0  0  0  0  0  0
   -3.5990   26.0238   67.2292 C   0  0  0  0  0  0  0  0  0  0  0  0
   -4.1162   27.4878   67.0730 C   0  0  1  0  0  0  0  0  0  0  0  0
   -3.1612   28.3143   66.1519 C   0  0  1  0  0  0  0  0  0  0  0  0
   -3.7073   29.8062   66.0080 C   0  0  1  0  0  0  0  0  0  0  0  0
   -5.1410   29.7632   65.4024 C   0  0  1  0  0  0  0  0  0  0  0  0
   -6.0382   28.9007   66.3403 C   0  0  2  0  0  0  0  0  0  0  0  0
   -4.7949   32.2563   64.7896 C   0  0  0  0  0  0  0  0  0  0  0  0
   -1.6584   24.6844   67.9971 N   0  0  0  0  0  0  0  0  0  0  0  0
   -5.6989   31.1605   65.2639 N   0  0  0  0  0  0  0  0  0  0  0  0
   -0.9254   26.2824   65.6742 O   0  0  0  0  0  0  0  0  0  0  0  0
   -1.7959   28.2502   66.7533 O   0  0  0  0  0  0  0  0  0  0  0  0
   -5.5017   27.5429   66.5013 O   0  0  0  0  0  0  0  0  0  0  0  0
   -3.7835   30.4150   67.2905 O   0  0  0  0  0  0  0  0  0  0  0  0
   -7.3574   28.8181   65.8132 O   0  0  0  0  0  0  0  0  0  0  0  0
   -8.2600   28.0114   66.6094 C   0  0  2  0  0  0  0  0  0  0  0  0
   -9.6030   27.7295   65.8950 C   0  0  1  0  0  0  0  0  0  0  0  0
  -10.4244   29.0466   65.7138 C   0  0  2  0  0  0  0  0  0  0  0  0
  -10.7067   29.6423   67.0781 C   0  0  1  0  0  0  0  0  0  0  0  0
   -9.3525   29.9517   67.7839 C   0  0  1  0  0  0  0  0  0  0  0  0
   -9.5511   30.5371   69.1807 C   0  0  0  0  0  0  0  0  0  0  0  0
  -11.5053   30.8813   66.9159 N   0  0  0  0  0  0  0  0  0  0  0  0
   -8.5541   28.6932   67.9052 O   0  0  0  0  0  0  0  0  0  0  0  0
   -9.2961   27.0938   64.6341 O   0  0  0  0  0  0  0  0  0  0  0  0
  -11.6661   28.7594   65.0667 O   0  0  0  0  0  0  0  0  0  0  0  0
   -8.4192   31.2948   69.5328 O   0  0  0  0  0  0  0  0  0  0  0  0
    0.4754   26.0892   65.1353 C   0  0  1  0  0  0  0  0  0  0  0  0
    1.1355   24.9105   65.9019 C   0  0  1  0  0  0  0  0  0  0  0  0
    2.5833   24.6793   65.3801 C   0  0  2  0  0  0  0  0  0  0  0  0
    2.5311   24.3438   63.8691 C   0  0  1  0  0  0  0  0  0  0  0  0
    1.8751   25.5243   63.0670 C   0  0  0  0  0  0  0  0  0  0  0  0
    0.4482   25.7452   63.6125 C   0  0  2  0  0  0  0  0  0  0  0  0
    3.9054   24.1144   63.3621 N   0  0  0  0  0  0  0  0  0  0  0  0
   -0.1568   26.8494   62.8596 N   0  0  0  0  0  0  0  0  0  0  0  0
    1.1830   25.2208   67.3122 O   0  0  0  0  0  0  0  0  0  0  0  0
    3.1758   23.5838   66.1127 O   0  0  0  0  0  0  0  0  0  0  0  0
  1  2  1  0  0  0  0
  1 12  1  6  0  0  0
  1 13  1  0  0  0  0
  2  3  1  0  0  0  0
  2 10  1  6  0  0  0
  4  3  1  6  0  0  0
  4  5  1  0  0  0  0
  4 14  1  0  0  0  0
  5  6  1  0  0  0  0
  5 13  1  1  0  0  0
  6  7  1  0  0  0  0
  6 15  1  1  0  0  0
  7  8  1  0  0  0  0
  7 11  1  1  0  0  0
  8 14  1  0  0  0  0
  8 16  1  6  0  0  0
  9 11  1  0  0  0  0
 17 16  1  6  0  0  0
 17 18  1  0  0  0  0
 17 24  1  0  0  0  0
 18 19  1  0  0  0  0
 18 25  1  6  0  0  0
 19 20  1  0  0  0  0
 19 26  1  1  0  0  0
 20 21  1  0  0  0  0
 20 23  1  6  0  0  0
 21 22  1  1  0  0  0
 21 24  1  0  0  0  0
 22 27  1  0  0  0  0
 28 12  1  1  0  0  0
 28 29  1  0  0  0  0
 28 33  1  0  0  0  0
 29 30  1  0  0  0  0
 29 36  1  1  0  0  0
 30 31  1  0  0  0  0
 30 37  1  1  0  0  0
 31 32  1  0  0  0  0
 31 34  1  6  0  0  0
 32 33  1  0  0  0  0
 33 35  1  6  0  0  0
M  END
>  <CHROM.1>
-130.26601252,40.70064264,178.91116227,75.39944638,-169.75233513,-155.42233424
-4.11380685,27.73272663,66.12769736,-0.35142288,-0.22553286,0.90515683

>  <Name>
ligand

>  <RI>
0

>  <Rbt.Current_Directory>
/home/itssahil/PROJECTS/Mol_Feturizer/Test_systems_manuscript/rnas/2g5k

>  <Rbt.Executable>
rbdock ($Id: //depot/dev/client3/rdock/2013.1/src/exe/rbdock.cxx#4 $)

>  <Rbt.Library>
libRbt.so (2013.1, Build901 2013/11/27)

>  <Rbt.Parameter_File>
/export/apps/rDock/src/rDock_2013.1_src/data/scripts/dock_solv.prm

>  <Rbt.Receptor>
prm/pocket_docking_2.prm

>  <SCORE>
-2.2599

>  <SCORE.INTER>
-3.23189

>  <SCORE.INTER.CONST>
1

>  <SCORE.INTER.POLAR>
0

>  <SCORE.INTER.ROT>
6

>  <SCORE.INTER.SOLV>
17.0995

>  <SCORE.INTER.VDW>
-15.4544

>  <SCORE.INTER.norm>
-0.0873484

>  <SCORE.INTRA>
0.968797

>  <SCORE.INTRA.DIHEDRAL>
-0.874511

>  <SCORE.INTRA.DIHEDRAL.0>
11.3972

>  <SCORE.INTRA.POLAR>
0

>  <SCORE.INTRA.POLAR.0>
0

>  <SCORE.INTRA.REPUL>
0

>  <SCORE.INTRA.REPUL.0>
0

>  <SCORE.INTRA.SOLV>
-0.0631613

>  <SCORE.INTRA.SOLV.lig_0>
-92.3891

>  <SCORE.INTRA.VDW>
1.43763

>  <SCORE.INTRA.VDW.0>
-2.90606

>  <SCORE.INTRA.norm>
0.0261837

>  <SCORE.RESTR>
0.00319366

>  <SCORE.RESTR.CAVITY>
0.00319366

>  <SCORE.RESTR.norm>
8.63153e-05

>  <SCORE.SYSTEM>
0

>  <SCORE.SYSTEM.CONST>
0

>  <SCORE.SYSTEM.DIHEDRAL>
0

>  <SCORE.SYSTEM.SOLV>
0

>  <SCORE.SYSTEM.norm>
0

>  <SCORE.heavy>
37

>  <SCORE.norm>
-0.0610784

>  <RMSD>
0.784

$$$$
ligand
 OpenBabel02271912133D
libRbt.so/2013.1/901 2013/11/27
 37 40  0  0  0  0  0  0  0  0999 V2000
   -0.7656   26.3371   67.5006 C   0  0  1  0  0  0  0  0  0  0  0  0
   -1.7363   25.6541   68.5056 C   0  0  1  0  0  0  0  0  0  0  0  0
   -3.1771   25.5912   67.9639 C   0  0  0  0  0  0  0  0  0  0  0  0
   -3.6530   27.0380   67.6241 C   0  0  1  0  0  0  0  0  0  0  0  0
   -2.7018   27.6987   66.5742 C   0  0  1  0  0  0  0  0  0  0  0  0
   -3.2053   29.1758   66.2436 C   0  0  1  0  0  0  0  0  0  0  0  0
   -4.6576   29.1019   65.6877 C   0  0  1  0  0  0  0  0  0  0  0  0
   -5.5518   28.4057   66.7575 C   0  0  2  0  0  0  0  0  0  0  0  0
   -6.5306   30.6279   64.7531 C   0  0  0  0  0  0  0  0  0  0  0  0
   -1.2564   24.3003   68.8549 N   0  0  0  0  0  0  0  0  0  0  0  0
   -5.1758   30.4864   65.3755 N   0  0  0  0  0  0  0  0  0  0  0  0
   -0.5463   25.5437   66.3179 O   0  0  0  0  0  0  0  0  0  0  0  0
   -1.3211   27.6684   67.1425 O   0  0  0  0  0  0  0  0  0  0  0  0
   -5.0532   27.0640   67.0871 O   0  0  0  0  0  0  0  0  0  0  0  0
   -3.2226   29.9543   67.4331 O   0  0  0  0  0  0  0  0  0  0  0  0
   -6.8887   28.2991   66.2817 O   0  0  0  0  0  0  0  0  0  0  0  0
   -7.7992   27.6738   67.2194 C   0  0  2  0  0  0  0  0  0  0  0  0
   -9.0331   27.0446   66.5303 C   0  0  1  0  0  0  0  0  0  0  0  0
   -9.9372   28.1480   65.8918 C   0  0  2  0  0  0  0  0  0  0  0  0
  -10.4075   29.0903   66.9812 C   0  0  1  0  0  0  0  0  0  0  0  0
   -9.1638   29.7442   67.6545 C   0  0  1  0  0  0  0  0  0  0  0  0
   -9.5535   30.6957   68.7841 C   0  0  0  0  0  0  0  0  0  0  0  0
  -11.2844   30.1278   66.3866 N   0  0  0  0  0  0  0  0  0  0  0  0
   -8.2811   28.6759   68.2164 O   0  0  0  0  0  0  0  0  0  0  0  0
   -8.5460   26.0981   65.5531 O   0  0  0  0  0  0  0  0  0  0  0  0
  -11.0773   27.5450   65.2756 O   0  0  0  0  0  0  0  0  0  0  0  0
   -8.3968   31.3186   69.2875 O   0  0  0  0  0  0  0  0  0  0  0  0
    0.6990   25.6536   65.4651 C   0  0  1  0  0  0  0  0  0  0  0  0
    1.7619   24.6681   66.0234 C   0  0  1  0  0  0  0  0  0  0  0  0
    3.0641   24.7518   65.1753 C   0  0  2  0  0  0  0  0  0  0  0  0
    2.7392   24.3790   63.7077 C   0  0  1  0  0  0  0  0  0  0  0  0
    1.6715   25.3663   63.1140 C   0  0  0  0  0  0  0  0  0  0  0  0
    0.3969   25.2779   63.9800 C   0  0  2  0  0  0  0  0  0  0  0  0
    3.9747   24.4485   62.8909 N   0  0  0  0  0  0  0  0  0  0  0  0
   -0.5942   26.2032   63.4201 N   0  0  0  0  0  0  0  0  0  0  0  0
    2.0647   25.0130   67.3933 O   0  0  0  0  0  0  0  0  0  0  0  0
    4.0367   23.8316   65.7185 O   0  0  0  0  0  0  0  0  0  0  0  0
  1  2  1  0  0  0  0
  1 12  1  6  0  0  0
  1 13  1  0  0  0  0
  2  3  1  0  0  0  0
  2 10  1  6  0  0  0
  4  3  1  6  0  0  0
  4  5  1  0  0  0  0
  4 14  1  0  0  0  0
  5  6  1  0  0  0  0
  5 13  1  1  0  0  0
  6  7  1  0  0  0  0
  6 15  1  1  0  0  0
  7  8  1  0  0  0  0
  7 11  1  1  0  0  0
  8 14  1  0  0  0  0
  8 16  1  6  0  0  0
  9 11  1  0  0  0  0
 17 16  1  6  0  0  0
 17 18  1  0  0  0  0
 17 24  1  0  0  0  0
 18 19  1  0  0  0  0
 18 25  1  6  0  0  0
 19 20  1  0  0  0  0
 19 26  1  1  0  0  0
 20 21  1  0  0  0  0
 20 23  1  6  0  0  0
 21 22  1  1  0  0  0
 21 24  1  0  0  0  0
 22 27  1  0  0  0  0
 28 12  1  1  0  0  0
 28 29  1  0  0  0  0
 28 33  1  0  0  0  0
 29 30  1  0  0  0  0
 29 36  1  1  0  0  0
 30 31  1  0  0  0  0
 30 37  1  1  0  0  0
 31 32  1  0  0  0  0
 31 34  1  6  0  0  0
 32 33  1  0  0  0  0
 33 35  1  6  0  0  0
M  END
>  <CHROM.1>
-154.87851884,176.46797906,-179.40903739,89.00343886,-156.28686631,-176.05931592
-3.79490479,27.27988820,66.36519785,-0.22530097,-0.31866181,1.31559028

>  <Name>
ligand

>  <RI>
0

>  <Rbt.Current_Directory>
/home/itssahil/PROJECTS/Mol_Feturizer/Test_systems_manuscript/rnas/2g5k

>  <Rbt.Executable>
rbdock ($Id: //depot/dev/client3/rdock/2013.1/src/exe/rbdock.cxx#4 $)

>  <Rbt.Library>
libRbt.so (2013.1, Build901 2013/11/27)

>  <Rbt.Parameter_File>
/export/apps/rDock/src/rDock_2013.1_src/data/scripts/dock_solv.prm

>  <Rbt.Receptor>
prm/pocket_docking_2.prm

>  <SCORE>
-4.57756

>  <SCORE.INTER>
-3.62397

>  <SCORE.INTER.CONST>
1

>  <SCORE.INTER.POLAR>
0

>  <SCORE.INTER.ROT>
6

>  <SCORE.INTER.SOLV>
20.1385

>  <SCORE.INTER.VDW>
-16.7288

>  <SCORE.INTER.norm>
-0.0979452

>  <SCORE.INTRA>
-1.007

>  <SCORE.INTRA.DIHEDRAL>
-2.76006

>  <SCORE.INTRA.DIHEDRAL.0>
11.3972

>  <SCORE.INTRA.POLAR>
0

>  <SCORE.INTRA.POLAR.0>
0

>  <SCORE.INTRA.REPUL>
0

>  <SCORE.INTRA.REPUL.0>
0

>  <SCORE.INTRA.SOLV>
-0.684894

>  <SCORE.INTRA.SOLV.lig_0>
-92.3891

>  <SCORE.INTRA.VDW>
0.715476

>  <SCORE.INTRA.VDW.0>
-2.90606

>  <SCORE.INTRA.norm>
-0.0272163

>  <SCORE.RESTR>
0.0534205

>  <SCORE.RESTR.CAVITY>
0.0534205

>  <SCORE.RESTR.norm>
0.0014438

>  <SCORE.SYSTEM>
0

>  <SCORE.SYSTEM.CONST>
0

>  <SCORE.SYSTEM.DIHEDRAL>
0

>  <SCORE.SYSTEM.SOLV>
0

>  <SCORE.SYSTEM.norm>
0

>  <SCORE.heavy>
37

>  <SCORE.norm>
-0.123718

>  <RMSD>
0.788

$$$$
ligand
 OpenBabel02271912133D
libRbt.so/2013.1/901 2013/11/27
 37 40  0  0  0  0  0  0  0  0999 V2000
   -0.9095   26.5935   67.5512 C   0  0  1  0  0  0  0  0  0  0  0  0
   -1.9297   25.9513   68.5337 C   0  0  1  0  0  0  0  0  0  0  0  0
   -3.3572   25.9364   67.9548 C   0  0  0  0  0  0  0  0  0  0  0  0
   -3.7723   27.3972   67.5955 C   0  0  1  0  0  0  0  0  0  0  0  0
   -2.7711   28.0175   66.5677 C   0  0  1  0  0  0  0  0  0  0  0  0
   -3.2129   29.5096   66.2166 C   0  0  1  0  0  0  0  0  0  0  0  0
   -4.6520   29.4840   65.6232 C   0  0  1  0  0  0  0  0  0  0  0  0
   -5.5979   28.8263   66.6726 C   0  0  2  0  0  0  0  0  0  0  0  0
   -4.7209   31.4801   63.9736 C   0  0  0  0  0  0  0  0  0  0  0  0
   -1.5076   24.5834   68.9022 N   0  0  0  0  0  0  0  0  0  0  0  0
   -5.1122   30.8842   65.2907 N   0  0  0  0  0  0  0  0  0  0  0  0
   -0.6878   25.7859   66.3786 O   0  0  0  0  0  0  0  0  0  0  0  0
   -1.4076   27.9416   67.1720 O   0  0  0  0  0  0  0  0  0  0  0  0
   -5.1562   27.4697   67.0219 O   0  0  0  0  0  0  0  0  0  0  0  0
   -3.2334   30.2952   67.4014 O   0  0  0  0  0  0  0  0  0  0  0  0
   -6.9249   28.7644   66.1625 O   0  0  0  0  0  0  0  0  0  0  0  0
   -7.8917   28.2299   67.0999 C   0  0  2  0  0  0  0  0  0  0  0  0
   -9.3067   28.0905   66.4901 C   0  0  1  0  0  0  0  0  0  0  0  0
   -9.9143   29.4937   66.1672 C   0  0  2  0  0  0  0  0  0  0  0  0
  -10.0061   30.2972   67.4486 C   0  0  1  0  0  0  0  0  0  0  0  0
   -8.5762   30.4604   68.0456 C   0  0  1  0  0  0  0  0  0  0  0  0
   -8.5851   31.2436   69.3569 C   0  0  0  0  0  0  0  0  0  0  0  0
  -10.6026   31.6225   67.1541 N   0  0  0  0  0  0  0  0  0  0  0  0
   -7.9857   29.1107   68.3023 O   0  0  0  0  0  0  0  0  0  0  0  0
   -9.1904   27.2570   65.3155 O   0  0  0  0  0  0  0  0  0  0  0  0
  -11.2260   29.3407   65.6203 O   0  0  0  0  0  0  0  0  0  0  0  0
   -9.2784   30.5065   70.3344 O   0  0  0  0  0  0  0  0  0  0  0  0
    0.6586   25.6633   65.6987 C   0  0  1  0  0  0  0  0  0  0  0  0
    1.5010   24.6104   66.4696 C   0  0  1  0  0  0  0  0  0  0  0  0
    2.8992   24.4554   65.8041 C   0  0  2  0  0  0  0  0  0  0  0  0
    2.7154   23.9921   64.3379 C   0  0  1  0  0  0  0  0  0  0  0  0
    1.8730   25.0441   63.5313 C   0  0  0  0  0  0  0  0  0  0  0  0
    0.4989   25.1927   64.2186 C   0  0  2  0  0  0  0  0  0  0  0  0
    4.0423   23.8340   63.6954 N   0  0  0  0  0  0  0  0  0  0  0  0
   -0.2807   26.1772   63.4604 N   0  0  0  0  0  0  0  0  0  0  0  0
    1.6717   25.0400   67.8385 O   0  0  0  0  0  0  0  0  0  0  0  0
    3.6636   23.4767   66.5429 O   0  0  0  0  0  0  0  0  0  0  0  0
  1  2  1  0  0  0  0
  1 12  1  6  0  0  0
  1 13  1  0  0  0  0
  2  3  1  0  0  0  0
  2 10  1  6  0  0  0
  4  3  1  6  0  0  0
  4  5  1  0  0  0  0
  4 14  1  0  0  0  0
  5  6  1  0  0  0  0
  5 13  1  1  0  0  0
  6  7  1  0  0  0  0
  6 15  1  1  0  0  0
  7  8  1  0  0  0  0
  7 11  1  1  0  0  0
  8 14  1  0  0  0  0
  8 16  1  6  0  0  0
  9 11  1  0  0  0  0
 17 16  1  6  0  0  0
 17 18  1  0  0  0  0
 17 24  1  0  0  0  0
 18 19  1  0  0  0  0
 18 25  1  6  0  0  0
 19 20  1  0  0  0  0
 19 26  1  1  0  0  0
 20 21  1  0  0  0  0
 20 23  1  6  0  0  0
 21 22  1  1  0  0  0
 21 24  1  0  0  0  0
 22 27  1  0  0  0  0
 28 12  1  1  0  0  0
 28 29  1  0  0  0  0
 28 33  1  0  0  0  0
 29 30  1  0  0  0  0
 29 36  1  1  0  0  0
 30 31  1  0  0  0  0
 30 37  1  1  0  0  0
 31 32  1  0  0  0  0
 31 34  1  6  0  0  0
 32 33  1  0  0  0  0
 33 35  1  6  0  0  0
M  END
>  <CHROM.1>
-143.85792490,84.27343791,-176.92348957,81.83176715,-176.36896212,65.26867553
-3.77800480,27.64132615,66.55880002,-0.01817347,-0.45942681,1.82432230

>  <Name>
ligand

>  <RI>
0

>  <Rbt.Current_Directory>
/home/itssahil/PROJECTS/Mol_Feturizer/Test_systems_manuscript/rnas/2g5k

>  <Rbt.Executable>
rbdock ($Id: //depot/dev/client3/rdock/2013.1/src/exe/rbdock.cxx#4 $)

>  <Rbt.Library>
libRbt.so (2013.1, Build901 2013/11/27)

>  <Rbt.Parameter_File>
/export/apps/rDock/src/rDock_2013.1_src/data/scripts/dock_solv.prm

>  <Rbt.Receptor>
prm/pocket_docking_3.prm

>  <SCORE>
-8.97398

>  <SCORE.INTER>
-7.17829

>  <SCORE.INTER.CONST>
1

>  <SCORE.INTER.POLAR>
0

>  <SCORE.INTER.ROT>
6

>  <SCORE.INTER.SOLV>
21.9991

>  <SCORE.INTER.VDW>
-19.7185

>  <SCORE.INTER.norm>
-0.194008

>  <SCORE.INTRA>
-1.79569

>  <SCORE.INTRA.DIHEDRAL>
-3.88869

>  <SCORE.INTRA.DIHEDRAL.0>
11.3972

>  <SCORE.INTRA.POLAR>
0

>  <SCORE.INTRA.POLAR.0>
0

>  <SCORE.INTRA.REPUL>
0

>  <SCORE.INTRA.REPUL.0>
0

>  <SCORE.INTRA.SOLV>
0.0380448

>  <SCORE.INTRA.SOLV.lig_0>
-92.3891

>  <SCORE.INTRA.VDW>
0.129637

>  <SCORE.INTRA.VDW.0>
-2.90606

>  <SCORE.INTRA.norm>
-0.0485321

>  <SCORE.RESTR>
0

>  <SCORE.RESTR.CAVITY>
0

>  <SCORE.RESTR.norm>
0

>  <SCORE.SYSTEM>
0

>  <SCORE.SYSTEM.CONST>
0

>  <SCORE.SYSTEM.DIHEDRAL>
0

>  <SCORE.SYSTEM.SOLV>
0

>  <SCORE.SYSTEM.norm>
0

>  <SCORE.heavy>
37

>  <SCORE.norm>
-0.24254

>  <RMSD>
0.818

$$$$
ligand
 OpenBabel02271912133D
libRbt.so/2013.1/901 2013/11/27
 37 40  0  0  0  0  0  0  0  0999 V2000
   -0.9498   26.4924   67.4920 C   0  0  1  0  0  0  0  0  0  0  0  0
   -1.9055   25.7978   68.5032 C   0  0  1  0  0  0  0  0  0  0  0  0
   -3.3629   25.7847   68.0042 C   0  0  0  0  0  0  0  0  0  0  0  0
   -3.8153   27.2522   67.7267 C   0  0  1  0  0  0  0  0  0  0  0  0
   -2.8809   27.9265   66.6704 C   0  0  1  0  0  0  0  0  0  0  0  0
   -3.3599   29.4246   66.4040 C   0  0  1  0  0  0  0  0  0  0  0  0
   -4.8295   29.4013   65.8906 C   0  0  1  0  0  0  0  0  0  0  0  0
   -5.7071   28.6896   66.9639 C   0  0  2  0  0  0  0  0  0  0  0  0
   -4.5795   31.6741   64.6731 C   0  0  0  0  0  0  0  0  0  0  0  0
   -1.4467   24.4227   68.7932 N   0  0  0  0  0  0  0  0  0  0  0  0
   -5.3248   30.8066   65.6400 N   0  0  0  0  0  0  0  0  0  0  0  0
   -0.7842   25.7344   66.2777 O   0  0  0  0  0  0  0  0  0  0  0  0
   -1.4849   27.8469   67.1948 O   0  0  0  0  0  0  0  0  0  0  0  0
   -5.2299   27.3270   67.2340 O   0  0  0  0  0  0  0  0  0  0  0  0
   -3.3238   30.1631   67.6183 O   0  0  0  0  0  0  0  0  0  0  0  0
   -7.0597   28.6285   66.5260 O   0  0  0  0  0  0  0  0  0  0  0  0
   -8.0076   28.3350   67.5818 C   0  0  2  0  0  0  0  0  0  0  0  0
   -9.4199   28.0008   67.0457 C   0  0  1  0  0  0  0  0  0  0  0  0
  -10.0690   29.2514   66.3697 C   0  0  2  0  0  0  0  0  0  0  0  0
  -10.1801   30.3626   67.3938 C   0  0  1  0  0  0  0  0  0  0  0  0
   -8.7537   30.7168   67.9111 C   0  0  1  0  0  0  0  0  0  0  0  0
   -8.7812   31.8187   68.9686 C   0  0  0  0  0  0  0  0  0  0  0  0
  -10.8158   31.5459   66.7658 N   0  0  0  0  0  0  0  0  0  0  0  0
   -8.1234   29.4998   68.5093 O   0  0  0  0  0  0  0  0  0  0  0  0
   -9.2831   26.8896   66.1322 O   0  0  0  0  0  0  0  0  0  0  0  0
  -11.3774   28.9235   65.8968 O   0  0  0  0  0  0  0  0  0  0  0  0
   -9.0971   33.0446   68.3549 O   0  0  0  0  0  0  0  0  0  0  0  0
    0.5081   25.7010   65.4910 C   0  0  1  0  0  0  0  0  0  0  0  0
    1.4449   24.6426   66.1352 C   0  0  1  0  0  0  0  0  0  0  0  0
    2.7911   24.5781   65.3570 C   0  0  2  0  0  0  0  0  0  0  0  0
    2.5089   24.1862   63.8855 C   0  0  1  0  0  0  0  0  0  0  0  0
    1.5694   25.2456   63.2058 C   0  0  0  0  0  0  0  0  0  0  0  0
    0.2492   25.3035   64.0035 C   0  0  2  0  0  0  0  0  0  0  0  0
    3.7859   24.1146   63.1355 N   0  0  0  0  0  0  0  0  0  0  0  0
   -0.6216   26.2955   63.3634 N   0  0  0  0  0  0  0  0  0  0  0  0
    1.7075   25.0054   67.5088 O   0  0  0  0  0  0  0  0  0  0  0  0
    3.6449   23.5924   65.9793 O   0  0  0  0  0  0  0  0  0  0  0  0
  1  2  1  0  0  0  0
  1 12  1  6  0  0  0
  1 13  1  0  0  0  0
  2  3  1  0  0  0  0
  2 10  1  6  0  0  0
  4  3  1  6  0  0  0
  4  5  1  0  0  0  0
  4 14  1  0  0  0  0
  5  6  1  0  0  0  0
  5 13  1  1  0  0  0
  6  7  1  0  0  0  0
  6 15  1  1  0  0  0
  7  8  1  0  0  0  0
  7 11  1  1  0  0  0
  8 14  1  0  0  0  0
  8 16  1  6  0  0  0
  9 11  1  0  0  0  0
 17 16  1  6  0  0  0
 17 18  1  0  0  0  0
 17 24  1  0  0  0  0
 18 19  1  0  0  0  0
 18 25  1  6  0  0  0
 19 20  1  0  0  0  0
 19 26  1  1  0  0  0
 20 21  1  0  0  0  0
 20 23  1  6  0  0  0
 21 22  1  1  0  0  0
 21 24  1  0  0  0  0
 22 27  1  0  0  0  0
 28 12  1  1  0  0  0
 28 29  1  0  0  0  0
 28 33  1  0  0  0  0
 29 30  1  0  0  0  0
 29 36  1  1  0  0  0
 30 31  1  0  0  0  0
 30 37  1  1  0  0  0
 31 32  1  0  0  0  0
 31 34  1  6  0  0  0
 32 33  1  0  0  0  0
 33 35  1  6  0  0  0
M  END
>  <CHROM.1>
-146.30762915,58.01286921,-163.60406241,83.20395445,-168.72998116,-71.51754747
-3.88553500,27.71167224,66.52046455,0.31747971,-0.36883102,2.64234400

>  <Name>
ligand

>  <RI>
0

>  <Rbt.Current_Directory>
/home/itssahil/PROJECTS/Mol_Feturizer/Test_systems_manuscript/rnas/2g5k

>  <Rbt.Executable>
rbdock ($Id: //depot/dev/client3/rdock/2013.1/src/exe/rbdock.cxx#4 $)

>  <Rbt.Library>
libRbt.so (2013.1, Build901 2013/11/27)

>  <Rbt.Parameter_File>
/export/apps/rDock/src/rDock_2013.1_src/data/scripts/dock_solv.prm

>  <Rbt.Receptor>
prm/pocket_docking_2.prm

>  <SCORE>
-5.92019

>  <SCORE.INTER>
-5.41425

>  <SCORE.INTER.CONST>
1

>  <SCORE.INTER.POLAR>
0

>  <SCORE.INTER.ROT>
6

>  <SCORE.INTER.SOLV>
21.152

>  <SCORE.INTER.VDW>
-18.2602

>  <SCORE.INTER.norm>
-0.146331

>  <SCORE.INTRA>
-0.519178

>  <SCORE.INTRA.DIHEDRAL>
-2.4188

>  <SCORE.INTRA.DIHEDRAL.0>
11.3972

>  <SCORE.INTRA.POLAR>
0

>  <SCORE.INTRA.POLAR.0>
0

>  <SCORE.INTRA.REPUL>
0

>  <SCORE.INTRA.REPUL.0>
0

>  <SCORE.INTRA.SOLV>
0.529272

>  <SCORE.INTRA.SOLV.lig_0>
-92.3891

>  <SCORE.INTRA.VDW>
0.425586

>  <SCORE.INTRA.VDW.0>
-2.90606

>  <SCORE.INTRA.norm>
-0.0140318

>  <SCORE.RESTR>
0.0132374

>  <SCORE.RESTR.CAVITY>
0.0132374

>  <SCORE.RESTR.norm>
0.000357768

>  <SCORE.SYSTEM>
0

>  <SCORE.SYSTEM.CONST>
0

>  <SCORE.SYSTEM.DIHEDRAL>
0

>  <SCORE.SYSTEM.SOLV>
0

>  <SCORE.SYSTEM.norm>
0

>  <SCORE.heavy>
37

>  <SCORE.norm>
-0.160005

>  <RMSD>
0.828

$$$$
ligand
 OpenBabel02271912133D
libRbt.so/2013.1/901 2013/11/27
 37 40  0  0  0  0  0  0  0  0999 V2000
   -1.0364   26.5545   67.4839 C   0  0  1  0  0  0  0  0  0  0  0  0
   -2.0044   25.8322   68.4637 C   0  0  1  0  0  0  0  0  0  0  0  0
   -3.4520   25.8154   67.9368 C   0  0  0  0  0  0  0  0  0  0  0  0
   -3.9128   27.2838   67.6784 C   0  0  1  0  0  0  0  0  0  0  0  0
   -2.9651   27.9864   66.6529 C   0  0  1  0  0  0  0  0  0  0  0  0
   -3.4531   29.4849   66.4055 C   0  0  1  0  0  0  0  0  0  0  0  0
   -4.9125   29.4580   65.8640 C   0  0  1  0  0  0  0  0  0  0  0  0
   -5.8034   28.7182   66.9069 C   0  0  2  0  0  0  0  0  0  0  0  0
   -4.8312   31.6636   64.5077 C   0  0  0  0  0  0  0  0  0  0  0  0
   -1.5382   24.4562   68.7364 N   0  0  0  0  0  0  0  0  0  0  0  0
   -5.4161   30.8632   65.6304 N   0  0  0  0  0  0  0  0  0  0  0  0
   -0.8409   25.8212   66.2591 O   0  0  0  0  0  0  0  0  0  0  0  0
   -1.5785   27.9095   67.2021 O   0  0  0  0  0  0  0  0  0  0  0  0
   -5.3186   27.3551   67.1604 O   0  0  0  0  0  0  0  0  0  0  0  0
   -3.4468   30.2005   67.6339 O   0  0  0  0  0  0  0  0  0  0  0  0
   -7.1469   28.6531   66.4423 O   0  0  0  0  0  0  0  0  0  0  0  0
   -8.1141   28.3523   67.4782 C   0  0  2  0  0  0  0  0  0  0  0  0
   -9.5443   28.1490   66.9244 C   0  0  1  0  0  0  0  0  0  0  0  0
  -10.1082   29.4823   66.3359 C   0  0  2  0  0  0  0  0  0  0  0  0
  -10.1477   30.5269   67.4328 C   0  0  1  0  0  0  0  0  0  0  0  0
   -8.7020   30.7505   67.9692 C   0  0  1  0  0  0  0  0  0  0  0  0
   -8.6589   31.7780   69.0986 C   0  0  0  0  0  0  0  0  0  0  0  0
  -10.7028   31.7892   66.8875 N   0  0  0  0  0  0  0  0  0  0  0  0
   -8.1546   29.4570   68.4824 O   0  0  0  0  0  0  0  0  0  0  0  0
   -9.4793   27.0952   65.9378 O   0  0  0  0  0  0  0  0  0  0  0  0
  -11.4345   29.2740   65.8452 O   0  0  0  0  0  0  0  0  0  0  0  0
   -8.8829   33.0618   68.5684 O   0  0  0  0  0  0  0  0  0  0  0  0
    0.4778   25.7821   65.5177 C   0  0  1  0  0  0  0  0  0  0  0  0
    1.3689   24.6859   66.1635 C   0  0  1  0  0  0  0  0  0  0  0  0
    2.7405   24.6142   65.4317 C   0  0  2  0  0  0  0  0  0  0  0  0
    2.5032   24.2703   63.9405 C   0  0  1  0  0  0  0  0  0  0  0  0
    1.6107   25.3686   63.2591 C   0  0  0  0  0  0  0  0  0  0  0  0
    0.2643   25.4324   64.0111 C   0  0  2  0  0  0  0  0  0  0  0  0
    3.8045   24.1924   63.2341 N   0  0  0  0  0  0  0  0  0  0  0  0
   -0.5624   26.4607   63.3698 N   0  0  0  0  0  0  0  0  0  0  0  0
    1.5895   25.0039   67.5555 O   0  0  0  0  0  0  0  0  0  0  0  0
    3.5510   23.5931   66.0548 O   0  0  0  0  0  0  0  0  0  0  0  0
  1  2  1  0  0  0  0
  1 12  1  6  0  0  0
  1 13  1  0  0  0  0
  2  3  1  0  0  0  0
  2 10  1  6  0  0  0
  4  3  1  6  0  0  0
  4  5  1  0  0  0  0
  4 14  1  0  0  0  0
  5  6  1  0  0  0  0
  5 13  1  1  0  0  0
  6  7  1  0  0  0  0
  6 15  1  1  0  0  0
  7  8  1  0  0  0  0
  7 11  1  1  0  0  0
  8 14  1  0  0  0  0
  8 16  1  6  0  0  0
  9 11  1  0  0  0  0
 17 16  1  6  0  0  0
 17 18  1  0  0  0  0
 17 24  1  0  0  0  0
 18 19  1  0  0  0  0
 18 25  1  6  0  0  0
 19 20  1  0  0  0  0
 19 26  1  1  0  0  0
 20 21  1  0  0  0  0
 20 23  1  6  0  0  0
 21 22  1  1  0  0  0
 21 24  1  0  0  0  0
 22 27  1  0  0  0  0
 28 12  1  1  0  0  0
 28 29  1  0  0  0  0
 28 33  1  0  0  0  0
 29 30  1  0  0  0  0
 29 36  1  1  0  0  0
 30 31  1  0  0  0  0
 30 37  1  1  0  0  0
 31 32  1  0  0  0  0
 31 34  1  6  0  0  0
 32 33  1  0  0  0  0
 33 35  1  6  0  0  0
M  END
>  <CHROM.1>
-144.48404768,69.77479479,-162.66546908,83.59090118,-174.29340799,-71.91700173
-3.93700760,27.78555905,66.51626982,0.24951517,-0.41979210,2.45188448

>  <Name>
ligand

>  <RI>
0

>  <Rbt.Current_Directory>
/home/itssahil/PROJECTS/Mol_Feturizer/Test_systems_manuscript/rnas/2g5k

>  <Rbt.Executable>
rbdock ($Id: //depot/dev/client3/rdock/2013.1/src/exe/rbdock.cxx#4 $)

>  <Rbt.Library>
libRbt.so (2013.1, Build901 2013/11/27)

>  <Rbt.Parameter_File>
/export/apps/rDock/src/rDock_2013.1_src/data/scripts/dock_solv.prm

>  <Rbt.Receptor>
prm/pocket_docking_2.prm

>  <SCORE>
-6.69313

>  <SCORE.INTER>
-5.96332

>  <SCORE.INTER.CONST>
1

>  <SCORE.INTER.POLAR>
0

>  <SCORE.INTER.ROT>
6

>  <SCORE.INTER.SOLV>
20.6994

>  <SCORE.INTER.VDW>
-18.4754

>  <SCORE.INTER.norm>
-0.161171

>  <SCORE.INTRA>
-0.729804

>  <SCORE.INTRA.DIHEDRAL>
-2.22485

>  <SCORE.INTRA.DIHEDRAL.0>
11.3972

>  <SCORE.INTRA.POLAR>
0

>  <SCORE.INTRA.POLAR.0>
0

>  <SCORE.INTRA.REPUL>
0

>  <SCORE.INTRA.REPUL.0>
0

>  <SCORE.INTRA.SOLV>
0.631867

>  <SCORE.INTRA.SOLV.lig_0>
-92.3891

>  <SCORE.INTRA.VDW>
0.0666887

>  <SCORE.INTRA.VDW.0>
-2.90606

>  <SCORE.INTRA.norm>
-0.0197244

>  <SCORE.RESTR>
0

>  <SCORE.RESTR.CAVITY>
0

>  <SCORE.RESTR.norm>
0

>  <SCORE.SYSTEM>
0

>  <SCORE.SYSTEM.CONST>
0

>  <SCORE.SYSTEM.DIHEDRAL>
0

>  <SCORE.SYSTEM.SOLV>
0

>  <SCORE.SYSTEM.norm>
0

>  <SCORE.heavy>
37

>  <SCORE.norm>
-0.180895

>  <RMSD>
0.837

$$$$
ligand
 OpenBabel02271912133D
libRbt.so/2013.1/901 2013/11/27
 37 40  0  0  0  0  0  0  0  0999 V2000
   -1.1111   26.6407   67.0038 C   0  0  1  0  0  0  0  0  0  0  0  0
   -2.1734   25.8556   67.8245 C   0  0  1  0  0  0  0  0  0  0  0  0
   -3.5621   25.8958   67.1586 C   0  0  0  0  0  0  0  0  0  0  0  0
   -3.9901   27.3848   66.9718 C   0  0  1  0  0  0  0  0  0  0  0  0
   -2.9434   28.1541   66.1022 C   0  0  1  0  0  0  0  0  0  0  0  0
   -3.3995   29.6725   65.9260 C   0  0  1  0  0  0  0  0  0  0  0  0
   -4.7985   29.7040   65.2437 C   0  0  1  0  0  0  0  0  0  0  0  0
   -5.7904   28.8956   66.1332 C   0  0  2  0  0  0  0  0  0  0  0  0
   -5.0713   31.8030   63.7503 C   0  0  0  0  0  0  0  0  0  0  0  0
   -1.7411   24.4574   68.0332 N   0  0  0  0  0  0  0  0  0  0  0  0
   -5.2718   31.1286   65.0724 N   0  0  0  0  0  0  0  0  0  0  0  0
   -0.7983   26.0023   65.7505 O   0  0  0  0  0  0  0  0  0  0  0  0
   -1.6181   28.0194   66.7770 O   0  0  0  0  0  0  0  0  0  0  0  0
   -5.3377   27.5117   66.3257 O   0  0  0  0  0  0  0  0  0  0  0  0
   -3.5119   30.2908   67.2013 O   0  0  0  0  0  0  0  0  0  0  0  0
   -7.0818   28.8816   65.5355 O   0  0  0  0  0  0  0  0  0  0  0  0
   -8.0790   28.1656   66.3050 C   0  0  2  0  0  0  0  0  0  0  0  0
   -9.1187   27.4425   65.4164 C   0  0  1  0  0  0  0  0  0  0  0  0
   -9.9955   28.4731   64.6344 C   0  0  2  0  0  0  0  0  0  0  0  0
  -10.7239   29.3544   65.6287 C   0  0  1  0  0  0  0  0  0  0  0  0
   -9.6741   30.1031   66.5034 C   0  0  1  0  0  0  0  0  0  0  0  0
  -10.3311   30.9999   67.5510 C   0  0  0  0  0  0  0  0  0  0  0  0
  -11.5757   30.3210   64.8945 N   0  0  0  0  0  0  0  0  0  0  0  0
   -8.8085   29.1068   67.2063 O   0  0  0  0  0  0  0  0  0  0  0  0
   -8.3922   26.5568   64.5356 O   0  0  0  0  0  0  0  0  0  0  0  0
  -10.9577   27.7832   63.8336 O   0  0  0  0  0  0  0  0  0  0  0  0
  -11.0045   32.0531   66.9054 O   0  0  0  0  0  0  0  0  0  0  0  0
    0.6080   25.8982   65.2014 C   0  0  1  0  0  0  0  0  0  0  0  0
    1.3357   24.7406   65.9385 C   0  0  1  0  0  0  0  0  0  0  0  0
    2.7911   24.6007   65.4055 C   0  0  2  0  0  0  0  0  0  0  0  0
    2.7492   24.2967   63.8875 C   0  0  1  0  0  0  0  0  0  0  0  0
    2.0253   25.4570   63.1151 C   0  0  0  0  0  0  0  0  0  0  0  0
    0.5914   25.5873   63.6714 C   0  0  2  0  0  0  0  0  0  0  0  0
    4.1312   24.1542   63.3697 N   0  0  0  0  0  0  0  0  0  0  0  0
   -0.0770   26.6732   62.9462 N   0  0  0  0  0  0  0  0  0  0  0  0
    1.3739   25.0215   67.3551 O   0  0  0  0  0  0  0  0  0  0  0  0
    3.4466   23.5232   66.1106 O   0  0  0  0  0  0  0  0  0  0  0  0
  1  2  1  0  0  0  0
  1 12  1  6  0  0  0
  1 13  1  0  0  0  0
  2  3  1  0  0  0  0
  2 10  1  6  0  0  0
  4  3  1  6  0  0  0
  4  5  1  0  0  0  0
  4 14  1  0  0  0  0
  5  6  1  0  0  0  0
  5 13  1  1  0  0  0
  6  7  1  0  0  0  0
  6 15  1  1  0  0  0
  7  8  1  0  0  0  0
  7 11  1  1  0  0  0
  8 14  1  0  0  0  0
  8 16  1  6  0  0  0
  9 11  1  0  0  0  0
 17 16  1  6  0  0  0
 17 18  1  0  0  0  0
 17 24  1  0  0  0  0
 18 19  1  0  0  0  0
 18 25  1  6  0  0  0
 19 20  1  0  0  0  0
 19 26  1  1  0  0  0
 20 21  1  0  0  0  0
 20 23  1  6  0  0  0
 21 22  1  1  0  0  0
 21 24  1  0  0  0  0
 22 27  1  0  0  0  0
 28 12  1  1  0  0  0
 28 29  1  0  0  0  0
 28 33  1  0  0  0  0
 29 30  1  0  0  0  0
 29 36  1  1  0  0  0
 30 31  1  0  0  0  0
 30 37  1  1  0  0  0
 31 32  1  0  0  0  0
 31 34  1  6  0  0  0
 32 33  1  0  0  0  0
 33 35  1  6  0  0  0
M  END
>  <CHROM.1>
-138.80784243,97.47438925,-179.17413335,78.88325480,-145.97916508,-66.74547810
-4.04012896,27.60479982,65.72157843,-0.38286807,0.09888937,-0.12534507

>  <Name>
ligand

>  <RI>
0

>  <Rbt.Current_Directory>
/home/itssahil/PROJECTS/Mol_Feturizer/Test_systems_manuscript/rnas/2g5k

>  <Rbt.Executable>
rbdock ($Id: //depot/dev/client3/rdock/2013.1/src/exe/rbdock.cxx#4 $)

>  <Rbt.Library>
libRbt.so (2013.1, Build901 2013/11/27)

>  <Rbt.Parameter_File>
/export/apps/rDock/src/rDock_2013.1_src/data/scripts/dock_solv.prm

>  <Rbt.Receptor>
prm/pocket_docking_2.prm

>  <SCORE>
-2.03179

>  <SCORE.INTER>
-3.02547

>  <SCORE.INTER.CONST>
1

>  <SCORE.INTER.POLAR>
0

>  <SCORE.INTER.ROT>
6

>  <SCORE.INTER.SOLV>
16.0579

>  <SCORE.INTER.VDW>
-14.9696

>  <SCORE.INTER.norm>
-0.0817695

>  <SCORE.INTRA>
0.983602

>  <SCORE.INTRA.DIHEDRAL>
1.18136

>  <SCORE.INTRA.DIHEDRAL.0>
11.3972

>  <SCORE.INTRA.POLAR>
0

>  <SCORE.INTRA.POLAR.0>
0

>  <SCORE.INTRA.REPUL>
0

>  <SCORE.INTRA.REPUL.0>
0

>  <SCORE.INTRA.SOLV>
0.551397

>  <SCORE.INTRA.SOLV.lig_0>
-92.3891

>  <SCORE.INTRA.VDW>
0.117221

>  <SCORE.INTRA.VDW.0>
-2.90606

>  <SCORE.INTRA.norm>
0.0265838

>  <SCORE.RESTR>
0.0100818

>  <SCORE.RESTR.CAVITY>
0.0100818

>  <SCORE.RESTR.norm>
0.000272481

>  <SCORE.SYSTEM>
0

>  <SCORE.SYSTEM.CONST>
0

>  <SCORE.SYSTEM.DIHEDRAL>
0

>  <SCORE.SYSTEM.SOLV>
0

>  <SCORE.SYSTEM.norm>
0

>  <SCORE.heavy>
37

>  <SCORE.norm>
-0.0549132

>  <RMSD>
0.842

$$$$
ligand
 OpenBabel02271912133D
libRbt.so/2013.1/901 2013/11/27
 37 40  0  0  0  0  0  0  0  0999 V2000
   -0.9127   26.6827   67.3874 C   0  0  1  0  0  0  0  0  0  0  0  0
   -2.0725   26.2460   68.3269 C   0  0  1  0  0  0  0  0  0  0  0  0
   -3.4324   26.2463   67.6032 C   0  0  0  0  0  0  0  0  0  0  0  0
   -3.6936   27.6695   67.0188 C   0  0  1  0  0  0  0  0  0  0  0  0
   -2.5499   28.0797   66.0353 C   0  0  1  0  0  0  0  0  0  0  0  0
   -2.8360   29.5367   65.4521 C   0  0  1  0  0  0  0  0  0  0  0  0
   -4.2068   29.5253   64.7141 C   0  0  1  0  0  0  0  0  0  0  0  0
   -5.3008   29.0774   65.7297 C   0  0  2  0  0  0  0  0  0  0  0  0
   -5.0130   31.9580   65.0920 C   0  0  0  0  0  0  0  0  0  0  0  0
   -1.7979   24.9154   68.9094 N   0  0  0  0  0  0  0  0  0  0  0  0
   -4.5202   30.8951   64.1590 N   0  0  0  0  0  0  0  0  0  0  0  0
   -0.6403   25.7123   66.3577 O   0  0  0  0  0  0  0  0  0  0  0  0
   -1.2632   27.9971   66.7887 O   0  0  0  0  0  0  0  0  0  0  0  0
   -5.0040   27.7542   66.2939 O   0  0  0  0  0  0  0  0  0  0  0  0
   -2.9119   30.4739   66.5184 O   0  0  0  0  0  0  0  0  0  0  0  0
   -6.5715   29.0340   65.0906 O   0  0  0  0  0  0  0  0  0  0  0  0
   -7.6408   28.5480   65.9388 C   0  0  2  0  0  0  0  0  0  0  0  0
   -9.0127   28.5272   65.2241 C   0  0  1  0  0  0  0  0  0  0  0  0
   -9.4939   29.9784   64.9004 C   0  0  2  0  0  0  0  0  0  0  0  0
   -9.6239   30.7543   66.1954 C   0  0  1  0  0  0  0  0  0  0  0  0
   -8.2345   30.7981   66.8992 C   0  0  1  0  0  0  0  0  0  0  0  0
   -8.2857   31.5471   68.2295 C   0  0  0  0  0  0  0  0  0  0  0  0
  -10.1017   32.1264   65.8986 N   0  0  0  0  0  0  0  0  0  0  0  0
   -7.7617   29.4032   67.1572 O   0  0  0  0  0  0  0  0  0  0  0  0
   -8.8684   27.7169   64.0363 O   0  0  0  0  0  0  0  0  0  0  0  0
  -10.7687   29.9348   64.2554 O   0  0  0  0  0  0  0  0  0  0  0  0
   -9.1225   30.8528   69.1224 O   0  0  0  0  0  0  0  0  0  0  0  0
    0.6001   25.7485   65.4916 C   0  0  1  0  0  0  0  0  0  0  0  0
    1.5986   24.6841   66.0236 C   0  0  1  0  0  0  0  0  0  0  0  0
    2.8940   24.6901   65.1611 C   0  0  2  0  0  0  0  0  0  0  0  0
    2.5281   24.3620   63.6926 C   0  0  1  0  0  0  0  0  0  0  0  0
    1.5246   25.4291   63.1253 C   0  0  0  0  0  0  0  0  0  0  0  0
    0.2565   25.4161   64.0052 C   0  0  2  0  0  0  0  0  0  0  0  0
    3.7564   24.3580   62.8621 N   0  0  0  0  0  0  0  0  0  0  0  0
   -0.6743   26.4156   63.4700 N   0  0  0  0  0  0  0  0  0  0  0  0
    1.9394   24.9873   67.3944 O   0  0  0  0  0  0  0  0  0  0  0  0
    3.8067   23.6974   65.6800 O   0  0  0  0  0  0  0  0  0  0  0  0
  1  2  1  0  0  0  0
  1 12  1  6  0  0  0
  1 13  1  0  0  0  0
  2  3  1  0  0  0  0
  2 10  1  6  0  0  0
  4  3  1  6  0  0  0
  4  5  1  0  0  0  0
  4 14  1  0  0  0  0
  5  6  1  0  0  0  0
  5 13  1  1  0  0  0
  6  7  1  0  0  0  0
  6 15  1  1  0  0  0
  7  8  1  0  0  0  0
  7 11  1  1  0  0  0
  8 14  1  0  0  0  0
  8 16  1  6  0  0  0
  9 11  1  0  0  0  0
 17 16  1  6  0  0  0
 17 18  1  0  0  0  0
 17 24  1  0  0  0  0
 18 19  1  0  0  0  0
 18 25  1  6  0  0  0
 19 20  1  0  0  0  0
 19 26  1  1  0  0  0
 20 21  1  0  0  0  0
 20 23  1  6  0  0  0
 21 22  1  1  0  0  0
 21 24  1  0  0  0  0
 22 27  1  0  0  0  0
 28 12  1  1  0  0  0
 28 29  1  0  0  0  0
 28 33  1  0  0  0  0
 29 30  1  0  0  0  0
 29 36  1  1  0  0  0
 30 31  1  0  0  0  0
 30 37  1  1  0  0  0
 31 32  1  0  0  0  0
 31 34  1  6  0  0  0
 32 33  1  0  0  0  0
 33 35  1  6  0  0  0
M  END
>  <CHROM.1>
-167.27713921,-77.33707596,176.43929121,102.06324736,179.32324581,64.05678510
-3.64373480,27.90403480,65.86184758,-0.02944276,-0.47530903,1.65284180

>  <Name>
ligand

>  <RI>
0

>  <Rbt.Current_Directory>
/home/itssahil/PROJECTS/Mol_Feturizer/Test_systems_manuscript/rnas/2g5k

>  <Rbt.Executable>
rbdock ($Id: //depot/dev/client3/rdock/2013.1/src/exe/rbdock.cxx#4 $)

>  <Rbt.Library>
libRbt.so (2013.1, Build901 2013/11/27)

>  <Rbt.Parameter_File>
/export/apps/rDock/src/rDock_2013.1_src/data/scripts/dock_solv.prm

>  <Rbt.Receptor>
prm/pocket_docking_2.prm

>  <SCORE>
-5.63615

>  <SCORE.INTER>
-4.91166

>  <SCORE.INTER.CONST>
1

>  <SCORE.INTER.POLAR>
0

>  <SCORE.INTER.ROT>
6

>  <SCORE.INTER.SOLV>
17.7037

>  <SCORE.INTER.VDW>
-16.7757

>  <SCORE.INTER.norm>
-0.132748

>  <SCORE.INTRA>
-0.72449

>  <SCORE.INTRA.DIHEDRAL>
-4.51151

>  <SCORE.INTRA.DIHEDRAL.0>
11.3972

>  <SCORE.INTRA.POLAR>
0

>  <SCORE.INTRA.POLAR.0>
0

>  <SCORE.INTRA.REPUL>
0

>  <SCORE.INTRA.REPUL.0>
0

>  <SCORE.INTRA.SOLV>
0.39832

>  <SCORE.INTRA.SOLV.lig_0>
-92.3891

>  <SCORE.INTRA.VDW>
1.3321

>  <SCORE.INTRA.VDW.0>
-2.90606

>  <SCORE.INTRA.norm>
-0.0195808

>  <SCORE.RESTR>
0

>  <SCORE.RESTR.CAVITY>
0

>  <SCORE.RESTR.norm>
0

>  <SCORE.SYSTEM>
0

>  <SCORE.SYSTEM.CONST>
0

>  <SCORE.SYSTEM.DIHEDRAL>
0

>  <SCORE.SYSTEM.SOLV>
0

>  <SCORE.SYSTEM.norm>
0

>  <SCORE.heavy>
37

>  <SCORE.norm>
-0.152328

>  <RMSD>
0.848

$$$$
ligand
 OpenBabel02271912133D
libRbt.so/2013.1/901 2013/11/27
 37 40  0  0  0  0  0  0  0  0999 V2000
   -0.6156   26.3373   67.9415 C   0  0  1  0  0  0  0  0  0  0  0  0
   -1.6261   25.6394   68.8956 C   0  0  1  0  0  0  0  0  0  0  0  0
   -3.0485   25.6058   68.3048 C   0  0  0  0  0  0  0  0  0  0  0  0
   -3.4984   27.0658   67.9868 C   0  0  1  0  0  0  0  0  0  0  0  0
   -2.5059   27.7428   66.9867 C   0  0  1  0  0  0  0  0  0  0  0  0
   -2.9835   29.2332   66.6777 C   0  0  1  0  0  0  0  0  0  0  0  0
   -4.4170   29.1891   66.0720 C   0  0  1  0  0  0  0  0  0  0  0  0
   -5.3534   28.4755   67.0931 C   0  0  2  0  0  0  0  0  0  0  0  0
   -6.0696   30.7631   64.8466 C   0  0  0  0  0  0  0  0  0  0  0  0
   -1.1716   24.2720   69.2256 N   0  0  0  0  0  0  0  0  0  0  0  0
   -4.9107   30.5866   65.7786 N   0  0  0  0  0  0  0  0  0  0  0  0
   -0.3645   25.5721   66.7467 O   0  0  0  0  0  0  0  0  0  0  0  0
   -1.1455   27.6832   67.5996 O   0  0  0  0  0  0  0  0  0  0  0  0
   -4.8795   27.1206   67.4043 O   0  0  0  0  0  0  0  0  0  0  0  0
   -3.0331   29.9812   67.8857 O   0  0  0  0  0  0  0  0  0  0  0  0
   -6.6745   28.3954   66.5703 O   0  0  0  0  0  0  0  0  0  0  0  0
   -7.6577   27.9244   67.5247 C   0  0  2  0  0  0  0  0  0  0  0  0
   -8.8310   27.1697   66.8560 C   0  0  1  0  0  0  0  0  0  0  0  0
   -9.6811   28.1358   65.9693 C   0  0  2  0  0  0  0  0  0  0  0  0
  -10.2393   29.2418   66.8418 C   0  0  1  0  0  0  0  0  0  0  0  0
   -9.0550   30.0183   67.4916 C   0  0  1  0  0  0  0  0  0  0  0  0
   -9.5361   31.1413   68.4084 C   0  0  0  0  0  0  0  0  0  0  0  0
  -11.0659   30.1508   66.0115 N   0  0  0  0  0  0  0  0  0  0  0  0
   -8.2200   29.0734   68.2954 O   0  0  0  0  0  0  0  0  0  0  0  0
   -8.2652   26.0788   66.0958 O   0  0  0  0  0  0  0  0  0  0  0  0
  -10.7668   27.4207   65.3752 O   0  0  0  0  0  0  0  0  0  0  0  0
   -8.4224   31.8083   68.9509 O   0  0  0  0  0  0  0  0  0  0  0  0
    0.7412   25.9024   65.7677 C   0  0  1  0  0  0  0  0  0  0  0  0
    1.8107   24.7784   65.8412 C   0  0  1  0  0  0  0  0  0  0  0  0
    2.9715   25.0813   64.8498 C   0  0  2  0  0  0  0  0  0  0  0  0
    2.4039   25.1566   63.4109 C   0  0  1  0  0  0  0  0  0  0  0  0
    1.3245   26.2927   63.3053 C   0  0  0  0  0  0  0  0  0  0  0  0
    0.1933   25.9795   64.3077 C   0  0  2  0  0  0  0  0  0  0  0  0
    3.5028   25.4379   62.4561 N   0  0  0  0  0  0  0  0  0  0  0  0
   -0.8095   27.0452   64.2038 N   0  0  0  0  0  0  0  0  0  0  0  0
    2.3398   24.7052   67.1836 O   0  0  0  0  0  0  0  0  0  0  0  0
    3.9539   24.0257   64.9424 O   0  0  0  0  0  0  0  0  0  0  0  0
  1  2  1  0  0  0  0
  1 12  1  6  0  0  0
  1 13  1  0  0  0  0
  2  3  1  0  0  0  0
  2 10  1  6  0  0  0
  4  3  1  6  0  0  0
  4  5  1  0  0  0  0
  4 14  1  0  0  0  0
  5  6  1  0  0  0  0
  5 13  1  1  0  0  0
  6  7  1  0  0  0  0
  6 15  1  1  0  0  0
  7  8  1  0  0  0  0
  7 11  1  1  0  0  0
  8 14  1  0  0  0  0
  8 16  1  6  0  0  0
  9 11  1  0  0  0  0
 17 16  1  6  0  0  0
 17 18  1  0  0  0  0
 17 24  1  0  0  0  0
 18 19  1  0  0  0  0
 18 25  1  6  0  0  0
 19 20  1  0  0  0  0
 19 26  1  1  0  0  0
 20 21  1  0  0  0  0
 20 23  1  6  0  0  0
 21 22  1  1  0  0  0
 21 24  1  0  0  0  0
 22 27  1  0  0  0  0
 28 12  1  1  0  0  0
 28 29  1  0  0  0  0
 28 33  1  0  0  0  0
 29 30  1  0  0  0  0
 29 36  1  1  0  0  0
 30 31  1  0  0  0  0
 30 37  1  6  0  0  0
 31 32  1  0  0  0  0
 31 34  1  6  0  0  0
 32 33  1  0  0  0  0
 33 35  1  1  0  0  0
M  END
>  <CHROM.1>
-169.42509558,162.47886531,-171.46361564,111.63523983,-150.45328187,-179.44425635
-3.69682659,27.47846610,66.50728020,-0.04008497,-0.38105915,1.85814967

>  <Name>
ligand

>  <RI>
0

>  <Rbt.Current_Directory>
/home/itssahil/PROJECTS/Mol_Feturizer/Test_systems_manuscript/rnas/2g5k

>  <Rbt.Executable>
rbdock ($Id: //depot/dev/client3/rdock/2013.1/src/exe/rbdock.cxx#4 $)

>  <Rbt.Library>
libRbt.so (2013.1, Build901 2013/11/27)

>  <Rbt.Parameter_File>
/export/apps/rDock/src/rDock_2013.1_src/data/scripts/dock_solv.prm

>  <Rbt.Receptor>
prm/pocket_docking_2.prm

>  <SCORE>
-3.33967

>  <SCORE.INTER>
-2.93085

>  <SCORE.INTER.CONST>
1

>  <SCORE.INTER.POLAR>
0

>  <SCORE.INTER.ROT>
6

>  <SCORE.INTER.SOLV>
17.6393

>  <SCORE.INTER.VDW>
-15.4337

>  <SCORE.INTER.norm>
-0.0792122

>  <SCORE.INTRA>
-0.408817

>  <SCORE.INTRA.DIHEDRAL>
0.134114

>  <SCORE.INTRA.DIHEDRAL.0>
11.3972

>  <SCORE.INTRA.POLAR>
0

>  <SCORE.INTRA.POLAR.0>
0

>  <SCORE.INTRA.REPUL>
0

>  <SCORE.INTRA.REPUL.0>
0

>  <SCORE.INTRA.SOLV>
0.0537344

>  <SCORE.INTRA.SOLV.lig_0>
-92.3891

>  <SCORE.INTRA.VDW>
-0.502741

>  <SCORE.INTRA.VDW.0>
-2.90606

>  <SCORE.INTRA.norm>
-0.0110491

>  <SCORE.RESTR>
0

>  <SCORE.RESTR.CAVITY>
0

>  <SCORE.RESTR.norm>
0

>  <SCORE.SYSTEM>
0

>  <SCORE.SYSTEM.CONST>
0

>  <SCORE.SYSTEM.DIHEDRAL>
0

>  <SCORE.SYSTEM.SOLV>
0

>  <SCORE.SYSTEM.norm>
0

>  <SCORE.heavy>
37

>  <SCORE.norm>
-0.0902613

>  <RMSD>
0.854

$$$$
ligand
 OpenBabel02271912133D
libRbt.so/2013.1/901 2013/11/27
 37 40  0  0  0  0  0  0  0  0999 V2000
   -0.6265   26.4382   67.4308 C   0  0  1  0  0  0  0  0  0  0  0  0
   -1.7689   26.0012   68.3913 C   0  0  1  0  0  0  0  0  0  0  0  0
   -3.1356   25.9607   67.6815 C   0  0  0  0  0  0  0  0  0  0  0  0
   -3.4287   27.3657   67.0687 C   0  0  1  0  0  0  0  0  0  0  0  0
   -2.3024   27.7750   66.0651 C   0  0  1  0  0  0  0  0  0  0  0  0
   -2.6210   29.2133   65.4531 C   0  0  1  0  0  0  0  0  0  0  0  0
   -3.9984   29.1606   64.7294 C   0  0  1  0  0  0  0  0  0  0  0  0
   -5.0741   28.7152   65.7655 C   0  0  2  0  0  0  0  0  0  0  0  0
   -4.8345   31.5894   65.0640 C   0  0  0  0  0  0  0  0  0  0  0  0
   -1.4641   24.6890   68.9999 N   0  0  0  0  0  0  0  0  0  0  0  0
   -4.3425   30.5118   64.1476 N   0  0  0  0  0  0  0  0  0  0  0  0
   -0.3462   25.4505   66.4198 O   0  0  0  0  0  0  0  0  0  0  0  0
   -1.0071   27.7326   66.8071 O   0  0  0  0  0  0  0  0  0  0  0  0
   -4.7473   27.4104   66.3554 O   0  0  0  0  0  0  0  0  0  0  0  0
   -2.7038   30.1722   66.4994 O   0  0  0  0  0  0  0  0  0  0  0  0
   -6.3499   28.6345   65.1403 O   0  0  0  0  0  0  0  0  0  0  0  0
   -7.4276   28.2878   66.0445 C   0  0  2  0  0  0  0  0  0  0  0  0
   -8.8071   28.2419   65.3456 C   0  0  1  0  0  0  0  0  0  0  0  0
   -9.2358   29.6661   64.8660 C   0  0  2  0  0  0  0  0  0  0  0  0
   -9.3218   30.5851   66.0677 C   0  0  1  0  0  0  0  0  0  0  0  0
   -7.9241   30.6520   66.7530 C   0  0  1  0  0  0  0  0  0  0  0  0
   -7.9319   31.5451   67.9922 C   0  0  0  0  0  0  0  0  0  0  0  0
   -9.7499   31.9336   65.6235 N   0  0  0  0  0  0  0  0  0  0  0  0
   -7.5022   29.2767   67.1611 O   0  0  0  0  0  0  0  0  0  0  0  0
   -8.7070   27.3001   64.2543 O   0  0  0  0  0  0  0  0  0  0  0  0
  -10.5184   29.6015   64.2384 O   0  0  0  0  0  0  0  0  0  0  0  0
   -8.8231   31.0142   68.9426 O   0  0  0  0  0  0  0  0  0  0  0  0
    0.8535   25.5228   65.5002 C   0  0  1  0  0  0  0  0  0  0  0  0
    1.8887   24.4614   65.9634 C   0  0  1  0  0  0  0  0  0  0  0  0
    3.1438   24.5042   65.0443 C   0  0  2  0  0  0  0  0  0  0  0  0
    2.7165   24.2027   63.5866 C   0  0  1  0  0  0  0  0  0  0  0  0
    1.6747   25.2675   63.0885 C   0  0  0  0  0  0  0  0  0  0  0  0
    0.4478   25.2177   64.0237 C   0  0  2  0  0  0  0  0  0  0  0  0
    3.9062   24.2339   62.7023 N   0  0  0  0  0  0  0  0  0  0  0  0
   -0.5192   26.2153   63.5529 N   0  0  0  0  0  0  0  0  0  0  0  0
    2.2868   24.7398   67.3240 O   0  0  0  0  0  0  0  0  0  0  0  0
    4.0918   23.5135   65.4998 O   0  0  0  0  0  0  0  0  0  0  0  0
  1  2  1  0  0  0  0
  1 12  1  6  0  0  0
  1 13  1  0  0  0  0
  2  3  1  0  0  0  0
  2 10  1  6  0  0  0
  4  3  1  6  0  0  0
  4  5  1  0  0  0  0
  4 14  1  0  0  0  0
  5  6  1  0  0  0  0
  5 13  1  1  0  0  0
  6  7  1  0  0  0  0
  6 15  1  1  0  0  0
  7  8  1  0  0  0  0
  7 11  1  1  0  0  0
  8 14  1  0  0  0  0
  8 16  1  6  0  0  0
  9 11  1  0  0  0  0
 17 16  1  6  0  0  0
 17 18  1  0  0  0  0
 17 24  1  0  0  0  0
 18 19  1  0  0  0  0
 18 25  1  6  0  0  0
 19 20  1  0  0  0  0
 19 26  1  1  0  0  0
 20 21  1  0  0  0  0
 20 23  1  6  0  0  0
 21 22  1  1  0  0  0
 21 24  1  0  0  0  0
 22 27  1  0  0  0  0
 28 12  1  1  0  0  0
 28 29  1  0  0  0  0
 28 33  1  0  0  0  0
 29 30  1  0  0  0  0
 29 36  1  1  0  0  0
 30 31  1  0  0  0  0
 30 37  1  1  0  0  0
 31 32  1  0  0  0  0
 31 34  1  6  0  0  0
 32 33  1  0  0  0  0
 33 35  1  6  0  0  0
M  END
>  <CHROM.1>
-170.02441265,-76.81111390,-177.21631969,105.82643550,178.56055066,61.86538788
-3.39474362,27.66137339,65.84448858,-0.04505408,-0.47406773,1.61540534

>  <Name>
ligand

>  <RI>
0

>  <Rbt.Current_Directory>
/home/itssahil/PROJECTS/Mol_Feturizer/Test_systems_manuscript/rnas/2g5k

>  <Rbt.Executable>
rbdock ($Id: //depot/dev/client3/rdock/2013.1/src/exe/rbdock.cxx#4 $)

>  <Rbt.Library>
libRbt.so (2013.1, Build901 2013/11/27)

>  <Rbt.Parameter_File>
/export/apps/rDock/src/rDock_2013.1_src/data/scripts/dock_solv.prm

>  <Rbt.Receptor>
prm/pocket_docking_2.prm

>  <SCORE>
-6.03197

>  <SCORE.INTER>
-5.22825

>  <SCORE.INTER.CONST>
1

>  <SCORE.INTER.POLAR>
0

>  <SCORE.INTER.ROT>
6

>  <SCORE.INTER.SOLV>
18.2241

>  <SCORE.INTER.VDW>
-17.1602

>  <SCORE.INTER.norm>
-0.141304

>  <SCORE.INTRA>
-0.805608

>  <SCORE.INTRA.DIHEDRAL>
-4.34963

>  <SCORE.INTRA.DIHEDRAL.0>
11.3972

>  <SCORE.INTRA.POLAR>
0

>  <SCORE.INTRA.POLAR.0>
0

>  <SCORE.INTRA.REPUL>
0

>  <SCORE.INTRA.REPUL.0>
0

>  <SCORE.INTRA.SOLV>
0.637802

>  <SCORE.INTRA.SOLV.lig_0>
-92.3891

>  <SCORE.INTRA.VDW>
1.05031

>  <SCORE.INTRA.VDW.0>
-2.90606

>  <SCORE.INTRA.norm>
-0.0217732

>  <SCORE.RESTR>
0.00189159

>  <SCORE.RESTR.CAVITY>
0.00189159

>  <SCORE.RESTR.norm>
5.1124e-05

>  <SCORE.SYSTEM>
0

>  <SCORE.SYSTEM.CONST>
0

>  <SCORE.SYSTEM.DIHEDRAL>
0

>  <SCORE.SYSTEM.SOLV>
0

>  <SCORE.SYSTEM.norm>
0

>  <SCORE.heavy>
37

>  <SCORE.norm>
-0.163026

>  <RMSD>
0.891

$$$$
ligand
 OpenBabel02271912133D
libRbt.so/2013.1/901 2013/11/27
 37 40  0  0  0  0  0  0  0  0999 V2000
   -0.7876   26.3040   67.5216 C   0  0  1  0  0  0  0  0  0  0  0  0
   -1.7803   25.6230   68.5063 C   0  0  1  0  0  0  0  0  0  0  0  0
   -3.2059   25.5468   67.9274 C   0  0  0  0  0  0  0  0  0  0  0  0
   -3.6814   26.9879   67.5635 C   0  0  1  0  0  0  0  0  0  0  0  0
   -2.7068   27.6460   66.5336 C   0  0  1  0  0  0  0  0  0  0  0  0
   -3.2103   29.1173   66.1778 C   0  0  1  0  0  0  0  0  0  0  0  0
   -4.6470   29.0299   65.5845 C   0  0  1  0  0  0  0  0  0  0  0  0
   -5.5649   28.3368   66.6360 C   0  0  2  0  0  0  0  0  0  0  0  0
   -4.4724   31.2007   64.1818 C   0  0  0  0  0  0  0  0  0  0  0  0
   -1.3016   24.2750   68.8791 N   0  0  0  0  0  0  0  0  0  0  0  0
   -5.1651   30.4086   65.2475 N   0  0  0  0  0  0  0  0  0  0  0  0
   -0.5324   25.5026   66.3516 O   0  0  0  0  0  0  0  0  0  0  0  0
   -1.3414   27.6289   67.1382 O   0  0  0  0  0  0  0  0  0  0  0  0
   -5.0671   27.0009   66.9896 O   0  0  0  0  0  0  0  0  0  0  0  0
   -3.2637   29.9051   67.3600 O   0  0  0  0  0  0  0  0  0  0  0  0
   -6.8881   28.2180   66.1261 O   0  0  0  0  0  0  0  0  0  0  0  0
   -7.8504   27.7309   67.0936 C   0  0  2  0  0  0  0  0  0  0  0  0
   -9.2641   27.5444   66.4936 C   0  0  1  0  0  0  0  0  0  0  0  0
   -9.8835   28.9212   66.0897 C   0  0  2  0  0  0  0  0  0  0  0  0
   -9.9821   29.7973   67.3220 C   0  0  1  0  0  0  0  0  0  0  0  0
   -8.5536   30.0070   67.9078 C   0  0  1  0  0  0  0  0  0  0  0  0
   -8.5691   30.8653   69.1712 C   0  0  0  0  0  0  0  0  0  0  0  0
  -10.5898   31.0980   66.9510 N   0  0  0  0  0  0  0  0  0  0  0  0
   -7.9518   28.6796   68.2426 O   0  0  0  0  0  0  0  0  0  0  0  0
   -9.1408   26.6448   65.3696 O   0  0  0  0  0  0  0  0  0  0  0  0
  -11.1939   28.7255   65.5532 O   0  0  0  0  0  0  0  0  0  0  0  0
   -8.8536   32.1988   68.8243 O   0  0  0  0  0  0  0  0  0  0  0  0
    0.6141   25.7665   65.3999 C   0  0  1  0  0  0  0  0  0  0  0  0
    1.3748   24.4320   65.1694 C   0  0  1  0  0  0  0  0  0  0  0  0
    2.5679   24.6596   64.1965 C   0  0  2  0  0  0  0  0  0  0  0  0
    2.0270   25.1825   62.8429 C   0  0  1  0  0  0  0  0  0  0  0  0
    1.2594   26.5379   63.0452 C   0  0  0  0  0  0  0  0  0  0  0  0
    0.0925   26.2911   64.0249 C   0  0  2  0  0  0  0  0  0  0  0  0
    3.1551   25.3964   61.9048 N   0  0  0  0  0  0  0  0  0  0  0  0
   -0.6180   27.5612   64.2095 N   0  0  0  0  0  0  0  0  0  0  0  0
    1.8784   23.9414   66.4316 O   0  0  0  0  0  0  0  0  0  0  0  0
    3.2611   23.4064   64.0044 O   0  0  0  0  0  0  0  0  0  0  0  0
  1  2  1  0  0  0  0
  1 12  1  6  0  0  0
  1 13  1  0  0  0  0
  2  3  1  0  0  0  0
  2 10  1  6  0  0  0
  4  3  1  6  0  0  0
  4  5  1  0  0  0  0
  4 14  1  0  0  0  0
  5  6  1  0  0  0  0
  5 13  1  1  0  0  0
  6  7  1  0  0  0  0
  6 15  1  1  0  0  0
  7  8  1  0  0  0  0
  7 11  1  1  0  0  0
  8 14  1  0  0  0  0
  8 16  1  6  0  0  0
  9 11  1  0  0  0  0
 17 16  1  6  0  0  0
 17 18  1  0  0  0  0
 17 24  1  0  0  0  0
 18 19  1  0  0  0  0
 18 25  1  6  0  0  0
 19 20  1  0  0  0  0
 19 26  1  1  0  0  0
 20 21  1  0  0  0  0
 20 23  1  6  0  0  0
 21 22  1  1  0  0  0
 21 24  1  0  0  0  0
 22 27  1  0  0  0  0
 28 12  1  1  0  0  0
 28 29  1  0  0  0  0
 28 33  1  0  0  0  0
 29 30  1  0  0  0  0
 29 36  1  1  0  0  0
 30 31  1  0  0  0  0
 30 37  1  6  0  0  0
 31 32  1  0  0  0  0
 31 34  1  6  0  0  0
 32 33  1  0  0  0  0
 33 35  1  1  0  0  0
M  END
>  <CHROM.1>
-165.51445485,64.40451533,-172.99195917,130.21906505,-177.12139426,-71.63985140
-3.81494507,27.52912138,66.20124199,0.06305500,-0.44461618,2.19665755

>  <Name>
ligand

>  <RI>
0

>  <Rbt.Current_Directory>
/home/itssahil/PROJECTS/Mol_Feturizer/Test_systems_manuscript/rnas/2g5k

>  <Rbt.Executable>
rbdock ($Id: //depot/dev/client3/rdock/2013.1/src/exe/rbdock.cxx#4 $)

>  <Rbt.Library>
libRbt.so (2013.1, Build901 2013/11/27)

>  <Rbt.Parameter_File>
/export/apps/rDock/src/rDock_2013.1_src/data/scripts/dock_solv.prm

>  <Rbt.Receptor>
prm/pocket_docking_2.prm

>  <SCORE>
-5.74806

>  <SCORE.INTER>
-5.13894

>  <SCORE.INTER.CONST>
1

>  <SCORE.INTER.POLAR>
0

>  <SCORE.INTER.ROT>
6

>  <SCORE.INTER.SOLV>
19.4909

>  <SCORE.INTER.VDW>
-17.5229

>  <SCORE.INTER.norm>
-0.13889

>  <SCORE.INTRA>
-0.609119

>  <SCORE.INTRA.DIHEDRAL>
-2.91404

>  <SCORE.INTRA.DIHEDRAL.0>
11.3972

>  <SCORE.INTRA.POLAR>
0

>  <SCORE.INTRA.POLAR.0>
0

>  <SCORE.INTRA.REPUL>
0

>  <SCORE.INTRA.REPUL.0>
0

>  <SCORE.INTRA.SOLV>
1.86893

>  <SCORE.INTRA.SOLV.lig_0>
-92.3891

>  <SCORE.INTRA.VDW>
-0.0865636

>  <SCORE.INTRA.VDW.0>
-2.90606

>  <SCORE.INTRA.norm>
-0.0164627

>  <SCORE.RESTR>
0

>  <SCORE.RESTR.CAVITY>
0

>  <SCORE.RESTR.norm>
0

>  <SCORE.SYSTEM>
0

>  <SCORE.SYSTEM.CONST>
0

>  <SCORE.SYSTEM.DIHEDRAL>
0

>  <SCORE.SYSTEM.SOLV>
0

>  <SCORE.SYSTEM.norm>
0

>  <SCORE.heavy>
37

>  <SCORE.norm>
-0.155353

>  <RMSD>
0.893

$$$$
ligand
 OpenBabel02271912133D
libRbt.so/2013.1/901 2013/11/27
 37 40  0  0  0  0  0  0  0  0999 V2000
   -0.9471   26.6426   67.6233 C   0  0  1  0  0  0  0  0  0  0  0  0
   -1.9585   26.0241   68.6297 C   0  0  1  0  0  0  0  0  0  0  0  0
   -3.3898   25.9888   68.0611 C   0  0  0  0  0  0  0  0  0  0  0  0
   -3.8122   27.4380   67.6652 C   0  0  1  0  0  0  0  0  0  0  0  0
   -2.8201   28.0334   66.6142 C   0  0  1  0  0  0  0  0  0  0  0  0
   -3.2693   29.5140   66.2259 C   0  0  1  0  0  0  0  0  0  0  0  0
   -4.7122   29.4677   65.6432 C   0  0  1  0  0  0  0  0  0  0  0  0
   -5.6489   28.8357   66.7164 C   0  0  2  0  0  0  0  0  0  0  0  0
   -4.6467   31.4928   64.0291 C   0  0  0  0  0  0  0  0  0  0  0  0
   -1.5293   24.6680   69.0322 N   0  0  0  0  0  0  0  0  0  0  0  0
   -5.1794   30.8569   65.2760 N   0  0  0  0  0  0  0  0  0  0  0  0
   -0.7305   25.8043   66.4715 O   0  0  0  0  0  0  0  0  0  0  0  0
   -1.4523   27.9783   67.2111 O   0  0  0  0  0  0  0  0  0  0  0  0
   -5.2002   27.4905   67.0993 O   0  0  0  0  0  0  0  0  0  0  0  0
   -3.2845   30.3314   67.3891 O   0  0  0  0  0  0  0  0  0  0  0  0
   -6.9790   28.7557   66.2172 O   0  0  0  0  0  0  0  0  0  0  0  0
   -7.9272   28.1909   67.1558 C   0  0  2  0  0  0  0  0  0  0  0  0
   -9.3327   27.9880   66.5418 C   0  0  1  0  0  0  0  0  0  0  0  0
   -9.9957   29.3620   66.2030 C   0  0  2  0  0  0  0  0  0  0  0  0
  -10.1259   30.1731   67.4762 C   0  0  1  0  0  0  0  0  0  0  0  0
   -8.7065   30.4003   68.0773 C   0  0  1  0  0  0  0  0  0  0  0  0
   -8.7531   31.1949   69.3810 C   0  0  0  0  0  0  0  0  0  0  0  0
  -10.7749   31.4701   67.1666 N   0  0  0  0  0  0  0  0  0  0  0  0
   -8.0624   29.0785   68.3493 O   0  0  0  0  0  0  0  0  0  0  0  0
   -9.1772   27.1489   65.3757 O   0  0  0  0  0  0  0  0  0  0  0  0
  -11.2977   29.1503   65.6523 O   0  0  0  0  0  0  0  0  0  0  0  0
   -7.4405   31.4321   69.8285 O   0  0  0  0  0  0  0  0  0  0  0  0
    0.6164   25.6511   65.7990 C   0  0  1  0  0  0  0  0  0  0  0  0
    1.4438   24.6050   66.5952 C   0  0  1  0  0  0  0  0  0  0  0  0
    2.8421   24.4190   65.9380 C   0  0  2  0  0  0  0  0  0  0  0  0
    2.6574   23.9266   64.4815 C   0  0  1  0  0  0  0  0  0  0  0  0
    1.8302   24.9710   63.6496 C   0  0  0  0  0  0  0  0  0  0  0  0
    0.4559   25.1507   64.3288 C   0  0  2  0  0  0  0  0  0  0  0  0
    3.9843   23.7389   63.8470 N   0  0  0  0  0  0  0  0  0  0  0  0
   -0.3095   26.1280   63.5471 N   0  0  0  0  0  0  0  0  0  0  0  0
    1.6152   25.0617   67.9551 O   0  0  0  0  0  0  0  0  0  0  0  0
    3.5923   23.4474   66.7003 O   0  0  0  0  0  0  0  0  0  0  0  0
  1  2  1  0  0  0  0
  1 12  1  6  0  0  0
  1 13  1  0  0  0  0
  2  3  1  0  0  0  0
  2 10  1  6  0  0  0
  4  3  1  6  0  0  0
  4  5  1  0  0  0  0
  4 14  1  0  0  0  0
  5  6  1  0  0  0  0
  5 13  1  1  0  0  0
  6  7  1  0  0  0  0
  6 15  1  1  0  0  0
  7  8  1  0  0  0  0
  7 11  1  1  0  0  0
  8 14  1  0  0  0  0
  8 16  1  6  0  0  0
  9 11  1  0  0  0  0
 17 16  1  6  0  0  0
 17 18  1  0  0  0  0
 17 24  1  0  0  0  0
 18 19  1  0  0  0  0
 18 25  1  6  0  0  0
 19 20  1  0  0  0  0
 19 26  1  1  0  0  0
 20 21  1  0  0  0  0
 20 23  1  6  0  0  0
 21 22  1  1  0  0  0
 21 24  1  0  0  0  0
 22 27  1  0  0  0  0
 28 12  1  1  0  0  0
 28 29  1  0  0  0  0
 28 33  1  0  0  0  0
 29 30  1  0  0  0  0
 29 36  1  1  0  0  0
 30 31  1  0  0  0  0
 30 37  1  1  0  0  0
 31 32  1  0  0  0  0
 31 34  1  6  0  0  0
 32 33  1  0  0  0  0
 33 35  1  6  0  0  0
M  END
>  <CHROM.1>
-142.88071505,75.91242432,-179.39853520,82.02851554,-174.39573417,-176.58710595
-3.77502390,27.64353085,66.61081174,-0.08741014,-0.45403914,1.63245144

>  <Name>
ligand

>  <RI>
0

>  <Rbt.Current_Directory>
/home/itssahil/PROJECTS/Mol_Feturizer/Test_systems_manuscript/rnas/2g5k

>  <Rbt.Executable>
rbdock ($Id: //depot/dev/client3/rdock/2013.1/src/exe/rbdock.cxx#4 $)

>  <Rbt.Library>
libRbt.so (2013.1, Build901 2013/11/27)

>  <Rbt.Parameter_File>
/export/apps/rDock/src/rDock_2013.1_src/data/scripts/dock_solv.prm

>  <Rbt.Receptor>
prm/pocket_docking_3.prm

>  <SCORE>
-9.10995

>  <SCORE.INTER>
-7.07663

>  <SCORE.INTER.CONST>
1

>  <SCORE.INTER.POLAR>
0

>  <SCORE.INTER.ROT>
6

>  <SCORE.INTER.SOLV>
22.4768

>  <SCORE.INTER.VDW>
-19.81

>  <SCORE.INTER.norm>
-0.19126

>  <SCORE.INTRA>
-2.03332

>  <SCORE.INTRA.DIHEDRAL>
-3.9223

>  <SCORE.INTRA.DIHEDRAL.0>
11.3972

>  <SCORE.INTRA.POLAR>
0

>  <SCORE.INTRA.POLAR.0>
0

>  <SCORE.INTRA.REPUL>
0

>  <SCORE.INTRA.REPUL.0>
0

>  <SCORE.INTRA.SOLV>
-0.571836

>  <SCORE.INTRA.SOLV.lig_0>
-92.3891

>  <SCORE.INTRA.VDW>
0.213752

>  <SCORE.INTRA.VDW.0>
-2.90606

>  <SCORE.INTRA.norm>
-0.0549545

>  <SCORE.RESTR>
0

>  <SCORE.RESTR.CAVITY>
0

>  <SCORE.RESTR.norm>
0

>  <SCORE.SYSTEM>
0

>  <SCORE.SYSTEM.CONST>
0

>  <SCORE.SYSTEM.DIHEDRAL>
0

>  <SCORE.SYSTEM.SOLV>
0

>  <SCORE.SYSTEM.norm>
0

>  <SCORE.heavy>
37

>  <SCORE.norm>
-0.246215

>  <RMSD>
0.912

$$$$
ligand
 OpenBabel02271912133D
libRbt.so/2013.1/901 2013/11/27
 37 40  0  0  0  0  0  0  0  0999 V2000
   -1.0035   26.5528   67.3428 C   0  0  1  0  0  0  0  0  0  0  0  0
   -2.1492   25.9769   68.2228 C   0  0  1  0  0  0  0  0  0  0  0  0
   -3.5286   26.1486   67.5587 C   0  0  0  0  0  0  0  0  0  0  0  0
   -3.7612   27.6627   67.2607 C   0  0  1  0  0  0  0  0  0  0  0  0
   -2.6337   28.2213   66.3332 C   0  0  1  0  0  0  0  0  0  0  0  0
   -2.8901   29.7689   66.0437 C   0  0  1  0  0  0  0  0  0  0  0  0
   -4.2811   29.9321   65.3639 C   0  0  1  0  0  0  0  0  0  0  0  0
   -5.3592   29.3292   66.3141 C   0  0  2  0  0  0  0  0  0  0  0  0
   -5.5048   31.7433   63.9737 C   0  0  0  0  0  0  0  0  0  0  0  0
   -1.9004   24.5538   68.5357 N   0  0  0  0  0  0  0  0  0  0  0  0
   -4.5668   31.3896   65.0864 N   0  0  0  0  0  0  0  0  0  0  0  0
   -0.7916   25.7871   66.1407 O   0  0  0  0  0  0  0  0  0  0  0  0
   -1.3292   27.9651   67.0135 O   0  0  0  0  0  0  0  0  0  0  0  0
   -5.0884   27.9162   66.6097 O   0  0  0  0  0  0  0  0  0  0  0  0
   -2.9056   30.4901   67.2688 O   0  0  0  0  0  0  0  0  0  0  0  0
   -6.6485   29.4397   65.7218 O   0  0  0  0  0  0  0  0  0  0  0  0
   -7.7050   28.8133   66.4904 C   0  0  2  0  0  0  0  0  0  0  0  0
   -9.0770   28.8624   65.7772 C   0  0  1  0  0  0  0  0  0  0  0  0
   -9.5923   30.3334   65.6621 C   0  0  2  0  0  0  0  0  0  0  0  0
   -9.7385   30.9141   67.0540 C   0  0  1  0  0  0  0  0  0  0  0  0
   -8.3496   30.8897   67.7596 C   0  0  1  0  0  0  0  0  0  0  0  0
   -8.4163   31.4407   69.1827 C   0  0  0  0  0  0  0  0  0  0  0  0
  -10.2485   32.3029   66.9542 N   0  0  0  0  0  0  0  0  0  0  0  0
   -7.8440   29.4836   67.8177 O   0  0  0  0  0  0  0  0  0  0  0  0
   -8.9155   28.2327   64.4867 O   0  0  0  0  0  0  0  0  0  0  0  0
  -10.8666   30.3523   65.0150 O   0  0  0  0  0  0  0  0  0  0  0  0
   -9.2139   30.5927   69.9729 O   0  0  0  0  0  0  0  0  0  0  0  0
    0.5351   25.7339   65.4147 C   0  0  1  0  0  0  0  0  0  0  0  0
    1.4145   24.6420   66.0836 C   0  0  1  0  0  0  0  0  0  0  0  0
    2.7938   24.5562   65.3681 C   0  0  2  0  0  0  0  0  0  0  0  0
    2.5719   24.1954   63.8786 C   0  0  1  0  0  0  0  0  0  0  0  0
    1.6916   25.2889   63.1741 C   0  0  0  0  0  0  0  0  0  0  0  0
    0.3371   25.3671   63.9101 C   0  0  2  0  0  0  0  0  0  0  0  0
    3.8807   24.1038   63.1879 N   0  0  0  0  0  0  0  0  0  0  0  0
   -0.4782   26.3908   63.2473 N   0  0  0  0  0  0  0  0  0  0  0  0
    1.6208   24.9759   67.4740 O   0  0  0  0  0  0  0  0  0  0  0  0
    3.5932   23.5395   66.0125 O   0  0  0  0  0  0  0  0  0  0  0  0
  1  2  1  0  0  0  0
  1 12  1  6  0  0  0
  1 13  1  0  0  0  0
  2  3  1  0  0  0  0
  2 10  1  6  0  0  0
  4  3  1  6  0  0  0
  4  5  1  0  0  0  0
  4 14  1  0  0  0  0
  5  6  1  0  0  0  0
  5 13  1  1  0  0  0
  6  7  1  0  0  0  0
  6 15  1  1  0  0  0
  7  8  1  0  0  0  0
  7 11  1  1  0  0  0
  8 14  1  0  0  0  0
  8 16  1  6  0  0  0
  9 11  1  0  0  0  0
 17 16  1  6  0  0  0
 17 18  1  0  0  0  0
 17 24  1  0  0  0  0
 18 19  1  0  0  0  0
 18 25  1  6  0  0  0
 19 20  1  0  0  0  0
 19 26  1  1  0  0  0
 20 21  1  0  0  0  0
 20 23  1  6  0  0  0
 21 22  1  1  0  0  0
 21 24  1  0  0  0  0
 22 27  1  0  0  0  0
 28 12  1  1  0  0  0
 28 29  1  0  0  0  0
 28 33  1  0  0  0  0
 29 30  1  0  0  0  0
 29 36  1  1  0  0  0
 30 31  1  0  0  0  0
 30 37  1  1  0  0  0
 31 32  1  0  0  0  0
 31 34  1  6  0  0  0
 32 33  1  0  0  0  0
 33 35  1  6  0  0  0
M  END
>  <CHROM.1>
-153.95481381,154.39102585,175.59186378,84.60118575,-176.00014299,65.21897211
-3.72556847,27.96185856,66.19973220,-0.00749116,-0.50783740,1.80913440

>  <Name>
ligand

>  <RI>
0

>  <Rbt.Current_Directory>
/home/itssahil/PROJECTS/Mol_Feturizer/Test_systems_manuscript/rnas/2g5k

>  <Rbt.Executable>
rbdock ($Id: //depot/dev/client3/rdock/2013.1/src/exe/rbdock.cxx#4 $)

>  <Rbt.Library>
libRbt.so (2013.1, Build901 2013/11/27)

>  <Rbt.Parameter_File>
/export/apps/rDock/src/rDock_2013.1_src/data/scripts/dock_solv.prm

>  <Rbt.Receptor>
prm/pocket_docking_2.prm

>  <SCORE>
-8.47082

>  <SCORE.INTER>
-5.90857

>  <SCORE.INTER.CONST>
1

>  <SCORE.INTER.POLAR>
0

>  <SCORE.INTER.ROT>
6

>  <SCORE.INTER.SOLV>
20.4201

>  <SCORE.INTER.VDW>
-18.3458

>  <SCORE.INTER.norm>
-0.159691

>  <SCORE.INTRA>
-2.56225

>  <SCORE.INTRA.DIHEDRAL>
-5.17335

>  <SCORE.INTRA.DIHEDRAL.0>
11.3972

>  <SCORE.INTRA.POLAR>
0

>  <SCORE.INTRA.POLAR.0>
0

>  <SCORE.INTRA.REPUL>
0

>  <SCORE.INTRA.REPUL.0>
0

>  <SCORE.INTRA.SOLV>
-0.2657

>  <SCORE.INTRA.SOLV.lig_0>
-92.3891

>  <SCORE.INTRA.VDW>
0.157276

>  <SCORE.INTRA.VDW.0>
-2.90606

>  <SCORE.INTRA.norm>
-0.06925

>  <SCORE.RESTR>
0

>  <SCORE.RESTR.CAVITY>
0

>  <SCORE.RESTR.norm>
0

>  <SCORE.SYSTEM>
0

>  <SCORE.SYSTEM.CONST>
0

>  <SCORE.SYSTEM.DIHEDRAL>
0

>  <SCORE.SYSTEM.SOLV>
0

>  <SCORE.SYSTEM.norm>
0

>  <SCORE.heavy>
37

>  <SCORE.norm>
-0.228941

>  <RMSD>
0.920

$$$$
ligand
 OpenBabel02271912133D
libRbt.so/2013.1/901 2013/11/27
 37 40  0  0  0  0  0  0  0  0999 V2000
   -0.9903   26.6123   67.2920 C   0  0  1  0  0  0  0  0  0  0  0  0
   -2.1199   26.0185   68.1808 C   0  0  1  0  0  0  0  0  0  0  0  0
   -3.5083   26.1788   67.5328 C   0  0  0  0  0  0  0  0  0  0  0  0
   -3.7608   27.6919   67.2465 C   0  0  1  0  0  0  0  0  0  0  0  0
   -2.6497   28.2685   66.3102 C   0  0  1  0  0  0  0  0  0  0  0  0
   -2.9263   29.8148   66.0327 C   0  0  1  0  0  0  0  0  0  0  0  0
   -4.3264   29.9665   65.3690 C   0  0  1  0  0  0  0  0  0  0  0  0
   -5.3873   29.3461   66.3272 C   0  0  2  0  0  0  0  0  0  0  0  0
   -5.4743   31.7799   63.9184 C   0  0  0  0  0  0  0  0  0  0  0  0
   -1.8519   24.5964   68.4825 N   0  0  0  0  0  0  0  0  0  0  0  0
   -4.6311   31.4223   65.1034 N   0  0  0  0  0  0  0  0  0  0  0  0
   -0.7831   25.8560   66.0831 O   0  0  0  0  0  0  0  0  0  0  0  0
   -1.3351   28.0228   66.9747 O   0  0  0  0  0  0  0  0  0  0  0  0
   -5.0978   27.9345   66.6114 O   0  0  0  0  0  0  0  0  0  0  0  0
   -2.9364   30.5285   67.2623 O   0  0  0  0  0  0  0  0  0  0  0  0
   -6.6841   29.4458   65.7497 O   0  0  0  0  0  0  0  0  0  0  0  0
   -7.7295   28.8276   66.5397 C   0  0  2  0  0  0  0  0  0  0  0  0
   -9.1111   28.8673   65.8448 C   0  0  1  0  0  0  0  0  0  0  0  0
   -9.6293   30.3364   65.7197 C   0  0  2  0  0  0  0  0  0  0  0  0
   -9.7572   30.9331   67.1066 C   0  0  1  0  0  0  0  0  0  0  0  0
   -8.3587   30.9181   67.7935 C   0  0  1  0  0  0  0  0  0  0  0  0
   -8.4067   31.4854   69.2109 C   0  0  0  0  0  0  0  0  0  0  0  0
  -10.2698   32.3203   66.9977 N   0  0  0  0  0  0  0  0  0  0  0  0
   -7.8511   29.5131   67.8610 O   0  0  0  0  0  0  0  0  0  0  0  0
   -8.9666   28.2228   64.5596 O   0  0  0  0  0  0  0  0  0  0  0  0
  -10.9123   30.3468   65.0898 O   0  0  0  0  0  0  0  0  0  0  0  0
   -9.2152   30.6611   70.0148 O   0  0  0  0  0  0  0  0  0  0  0  0
    0.5506   25.7781   65.3723 C   0  0  1  0  0  0  0  0  0  0  0  0
    1.4044   24.6747   66.0554 C   0  0  1  0  0  0  0  0  0  0  0  0
    2.7901   24.5633   65.3559 C   0  0  2  0  0  0  0  0  0  0  0  0
    2.5789   24.1999   63.8654 C   0  0  1  0  0  0  0  0  0  0  0  0
    1.7246   25.3047   63.1466 C   0  0  0  0  0  0  0  0  0  0  0  0
    0.3634   25.4082   63.8670 C   0  0  2  0  0  0  0  0  0  0  0  0
    3.8937   24.0840   63.1898 N   0  0  0  0  0  0  0  0  0  0  0  0
   -0.4275   26.4423   63.1910 N   0  0  0  0  0  0  0  0  0  0  0  0
    1.6006   25.0111   67.4467 O   0  0  0  0  0  0  0  0  0  0  0  0
    3.5653   23.5364   66.0133 O   0  0  0  0  0  0  0  0  0  0  0  0
  1  2  1  0  0  0  0
  1 12  1  6  0  0  0
  1 13  1  0  0  0  0
  2  3  1  0  0  0  0
  2 10  1  6  0  0  0
  4  3  1  6  0  0  0
  4  5  1  0  0  0  0
  4 14  1  0  0  0  0
  5  6  1  0  0  0  0
  5 13  1  1  0  0  0
  6  7  1  0  0  0  0
  6 15  1  1  0  0  0
  7  8  1  0  0  0  0
  7 11  1  1  0  0  0
  8 14  1  0  0  0  0
  8 16  1  6  0  0  0
  9 11  1  0  0  0  0
 17 16  1  6  0  0  0
 17 18  1  0  0  0  0
 17 24  1  0  0  0  0
 18 19  1  0  0  0  0
 18 25  1  6  0  0  0
 19 20  1  0  0  0  0
 19 26  1  1  0  0  0
 20 21  1  0  0  0  0
 20 23  1  6  0  0  0
 21 22  1  1  0  0  0
 21 24  1  0  0  0  0
 22 27  1  0  0  0  0
 28 12  1  1  0  0  0
 28 29  1  0  0  0  0
 28 33  1  0  0  0  0
 29 30  1  0  0  0  0
 29 36  1  1  0  0  0
 30 31  1  0  0  0  0
 30 37  1  1  0  0  0
 31 32  1  0  0  0  0
 31 34  1  6  0  0  0
 32 33  1  0  0  0  0
 33 35  1  6  0  0  0
M  END
>  <CHROM.1>
-151.46891914,148.28848426,176.81675129,83.53513265,-176.15013542,64.00880192
-3.73344899,27.98970076,66.20024853,-0.01298294,-0.50797294,1.81085505

>  <Name>
ligand

>  <RI>
0

>  <Rbt.Current_Directory>
/home/itssahil/PROJECTS/Mol_Feturizer/Test_systems_manuscript/rnas/2g5k

>  <Rbt.Executable>
rbdock ($Id: //depot/dev/client3/rdock/2013.1/src/exe/rbdock.cxx#4 $)

>  <Rbt.Library>
libRbt.so (2013.1, Build901 2013/11/27)

>  <Rbt.Parameter_File>
/export/apps/rDock/src/rDock_2013.1_src/data/scripts/dock_solv.prm

>  <Rbt.Receptor>
prm/pocket_docking_2.prm

>  <SCORE>
-8.52185

>  <SCORE.INTER>
-6.08176

>  <SCORE.INTER.CONST>
1

>  <SCORE.INTER.POLAR>
0

>  <SCORE.INTER.ROT>
6

>  <SCORE.INTER.SOLV>
20.3137

>  <SCORE.INTER.VDW>
-18.4257

>  <SCORE.INTER.norm>
-0.164372

>  <SCORE.INTRA>
-2.44009

>  <SCORE.INTRA.DIHEDRAL>
-4.80296

>  <SCORE.INTRA.DIHEDRAL.0>
11.3972

>  <SCORE.INTRA.POLAR>
0

>  <SCORE.INTRA.POLAR.0>
0

>  <SCORE.INTRA.REPUL>
0

>  <SCORE.INTRA.REPUL.0>
0

>  <SCORE.INTRA.SOLV>
-0.217151

>  <SCORE.INTRA.SOLV.lig_0>
-92.3891

>  <SCORE.INTRA.VDW>
0.0699649

>  <SCORE.INTRA.VDW.0>
-2.90606

>  <SCORE.INTRA.norm>
-0.0659484

>  <SCORE.RESTR>
0

>  <SCORE.RESTR.CAVITY>
0

>  <SCORE.RESTR.norm>
0

>  <SCORE.SYSTEM>
0

>  <SCORE.SYSTEM.CONST>
0

>  <SCORE.SYSTEM.DIHEDRAL>
0

>  <SCORE.SYSTEM.SOLV>
0

>  <SCORE.SYSTEM.norm>
0

>  <SCORE.heavy>
37

>  <SCORE.norm>
-0.23032

>  <RMSD>
0.922

$$$$
ligand
 OpenBabel02271912133D
libRbt.so/2013.1/901 2013/11/27
 37 40  0  0  0  0  0  0  0  0999 V2000
   -1.0536   26.6153   67.3067 C   0  0  1  0  0  0  0  0  0  0  0  0
   -2.1902   26.0179   68.1841 C   0  0  1  0  0  0  0  0  0  0  0  0
   -3.5724   26.1730   67.5217 C   0  0  0  0  0  0  0  0  0  0  0  0
   -3.8272   27.6851   67.2322 C   0  0  1  0  0  0  0  0  0  0  0  0
   -2.7086   28.2653   66.3072 C   0  0  1  0  0  0  0  0  0  0  0  0
   -2.9877   29.8105   66.0263 C   0  0  1  0  0  0  0  0  0  0  0  0
   -4.3814   29.9571   65.3481 C   0  0  1  0  0  0  0  0  0  0  0  0
   -5.4500   29.3333   66.2955 C   0  0  2  0  0  0  0  0  0  0  0  0
   -5.6719   31.7558   64.0029 C   0  0  0  0  0  0  0  0  0  0  0  0
   -1.9204   24.5968   68.4891 N   0  0  0  0  0  0  0  0  0  0  0  0
   -4.6884   31.4117   65.0788 N   0  0  0  0  0  0  0  0  0  0  0  0
   -0.8312   25.8593   66.1003 O   0  0  0  0  0  0  0  0  0  0  0  0
   -1.4001   28.0245   66.9853 O   0  0  0  0  0  0  0  0  0  0  0  0
   -5.1584   27.9228   66.5832 O   0  0  0  0  0  0  0  0  0  0  0  0
   -3.0130   30.5247   67.2554 O   0  0  0  0  0  0  0  0  0  0  0  0
   -6.7410   29.4282   65.7046 O   0  0  0  0  0  0  0  0  0  0  0  0
   -7.7971   28.8340   66.4988 C   0  0  2  0  0  0  0  0  0  0  0  0
   -9.1815   28.9117   65.8126 C   0  0  1  0  0  0  0  0  0  0  0  0
   -9.6626   30.3940   65.6959 C   0  0  2  0  0  0  0  0  0  0  0  0
   -9.7667   30.9887   67.0857 C   0  0  1  0  0  0  0  0  0  0  0  0
   -8.3650   30.9352   67.7639 C   0  0  1  0  0  0  0  0  0  0  0  0
   -8.3898   31.4983   69.1836 C   0  0  0  0  0  0  0  0  0  0  0  0
  -10.2443   32.3889   66.9849 N   0  0  0  0  0  0  0  0  0  0  0  0
   -7.8931   29.5175   67.8232 O   0  0  0  0  0  0  0  0  0  0  0  0
   -9.0613   28.2685   64.5242 O   0  0  0  0  0  0  0  0  0  0  0  0
  -10.9487   30.4396   65.0739 O   0  0  0  0  0  0  0  0  0  0  0  0
   -9.1649   30.6582   70.0038 O   0  0  0  0  0  0  0  0  0  0  0  0
    0.5124   25.7777   65.4090 C   0  0  1  0  0  0  0  0  0  0  0  0
    1.3474   24.6614   66.0943 C   0  0  1  0  0  0  0  0  0  0  0  0
    2.7425   24.5458   65.4146 C   0  0  2  0  0  0  0  0  0  0  0  0
    2.5511   24.1979   63.9177 C   0  0  1  0  0  0  0  0  0  0  0  0
    1.7162   25.3161   63.1967 C   0  0  0  0  0  0  0  0  0  0  0  0
    0.3451   25.4233   63.8976 C   0  0  2  0  0  0  0  0  0  0  0  0
    3.8750   24.0782   63.2609 N   0  0  0  0  0  0  0  0  0  0  0  0
   -0.4275   26.4699   63.2196 N   0  0  0  0  0  0  0  0  0  0  0  0
    1.5251   24.9831   67.4915 O   0  0  0  0  0  0  0  0  0  0  0  0
    3.4999   23.5067   66.0738 O   0  0  0  0  0  0  0  0  0  0  0  0
  1  2  1  0  0  0  0
  1 12  1  6  0  0  0
  1 13  1  0  0  0  0
  2  3  1  0  0  0  0
  2 10  1  6  0  0  0
  4  3  1  6  0  0  0
  4  5  1  0  0  0  0
  4 14  1  0  0  0  0
  5  6  1  0  0  0  0
  5 13  1  1  0  0  0
  6  7  1  0  0  0  0
  6 15  1  1  0  0  0
  7  8  1  0  0  0  0
  7 11  1  1  0  0  0
  8 14  1  0  0  0  0
  8 16  1  6  0  0  0
  9 11  1  0  0  0  0
 17 16  1  6  0  0  0
 17 18  1  0  0  0  0
 17 24  1  0  0  0  0
 18 19  1  0  0  0  0
 18 25  1  6  0  0  0
 19 20  1  0  0  0  0
 19 26  1  1  0  0  0
 20 21  1  0  0  0  0
 20 23  1  6  0  0  0
 21 22  1  1  0  0  0
 21 24  1  0  0  0  0
 22 27  1  0  0  0  0
 28 12  1  1  0  0  0
 28 29  1  0  0  0  0
 28 33  1  0  0  0  0
 29 30  1  0  0  0  0
 29 36  1  1  0  0  0
 30 31  1  0  0  0  0
 30 37  1  1  0  0  0
 31 32  1  0  0  0  0
 31 34  1  6  0  0  0
 32 33  1  0  0  0  0
 33 35  1  6  0  0  0
M  END
>  <CHROM.1>
-151.00983400,156.68729857,178.18157304,84.09189646,-178.17794408,66.66728614
-3.78139268,27.99648705,66.20367483,-0.00704710,-0.50991543,1.80756538

>  <Name>
ligand

>  <RI>
0

>  <Rbt.Current_Directory>
/home/itssahil/PROJECTS/Mol_Feturizer/Test_systems_manuscript/rnas/2g5k

>  <Rbt.Executable>
rbdock ($Id: //depot/dev/client3/rdock/2013.1/src/exe/rbdock.cxx#4 $)

>  <Rbt.Library>
libRbt.so (2013.1, Build901 2013/11/27)

>  <Rbt.Parameter_File>
/export/apps/rDock/src/rDock_2013.1_src/data/scripts/dock_solv.prm

>  <Rbt.Receptor>
prm/pocket_docking_2.prm

>  <SCORE>
-8.28251

>  <SCORE.INTER>
-5.93472

>  <SCORE.INTER.CONST>
1

>  <SCORE.INTER.POLAR>
0

>  <SCORE.INTER.ROT>
6

>  <SCORE.INTER.SOLV>
20.1442

>  <SCORE.INTER.VDW>
-18.2712

>  <SCORE.INTER.norm>
-0.160398

>  <SCORE.INTRA>
-2.358

>  <SCORE.INTRA.DIHEDRAL>
-4.86456

>  <SCORE.INTRA.DIHEDRAL.0>
11.3972

>  <SCORE.INTRA.POLAR>
0

>  <SCORE.INTRA.POLAR.0>
0

>  <SCORE.INTRA.REPUL>
0

>  <SCORE.INTRA.REPUL.0>
0

>  <SCORE.INTRA.SOLV>
-0.174314

>  <SCORE.INTRA.SOLV.lig_0>
-92.3891

>  <SCORE.INTRA.VDW>
0.161434

>  <SCORE.INTRA.VDW.0>
-2.90606

>  <SCORE.INTRA.norm>
-0.0637298

>  <SCORE.RESTR>
0.0102131

>  <SCORE.RESTR.CAVITY>
0.0102131

>  <SCORE.RESTR.norm>
0.000276031

>  <SCORE.SYSTEM>
0

>  <SCORE.SYSTEM.CONST>
0

>  <SCORE.SYSTEM.DIHEDRAL>
0

>  <SCORE.SYSTEM.SOLV>
0

>  <SCORE.SYSTEM.norm>
0

>  <SCORE.heavy>
37

>  <SCORE.norm>
-0.223852

>  <RMSD>
0.942

$$$$
ligand
 OpenBabel02271912133D
libRbt.so/2013.1/901 2013/11/27
 37 40  0  0  0  0  0  0  0  0999 V2000
   -1.4898   27.0429   66.8942 C   0  0  1  0  0  0  0  0  0  0  0  0
   -2.5222   26.2399   67.7356 C   0  0  1  0  0  0  0  0  0  0  0  0
   -3.9042   26.1884   67.0568 C   0  0  0  0  0  0  0  0  0  0  0  0
   -4.4003   27.6470   66.8090 C   0  0  1  0  0  0  0  0  0  0  0  0
   -3.3822   28.4316   65.9192 C   0  0  1  0  0  0  0  0  0  0  0  0
   -3.9078   29.9187   65.6805 C   0  0  1  0  0  0  0  0  0  0  0  0
   -5.2995   29.8573   64.9856 C   0  0  1  0  0  0  0  0  0  0  0  0
   -6.2613   29.0372   65.8972 C   0  0  2  0  0  0  0  0  0  0  0  0
   -5.3426   32.0310   63.5772 C   0  0  0  0  0  0  0  0  0  0  0  0
   -2.0264   24.8730   68.0019 N   0  0  0  0  0  0  0  0  0  0  0  0
   -5.8379   31.2501   64.7553 N   0  0  0  0  0  0  0  0  0  0  0  0
   -1.1341   26.3726   65.6692 O   0  0  0  0  0  0  0  0  0  0  0  0
   -2.0590   28.3861   66.6100 O   0  0  0  0  0  0  0  0  0  0  0  0
   -5.7456   27.6847   66.1469 O   0  0  0  0  0  0  0  0  0  0  0  0
   -4.0624   30.5792   66.9300 O   0  0  0  0  0  0  0  0  0  0  0  0
   -7.5443   28.9388   65.2895 O   0  0  0  0  0  0  0  0  0  0  0  0
   -8.5876   28.4857   66.1869 C   0  0  2  0  0  0  0  0  0  0  0  0
   -9.8983   28.1220   65.4499 C   0  0  1  0  0  0  0  0  0  0  0  0
  -10.5504   29.3921   64.8143 C   0  0  2  0  0  0  0  0  0  0  0  0
  -10.8623   30.3877   65.9132 C   0  0  1  0  0  0  0  0  0  0  0  0
   -9.5367   30.7740   66.6353 C   0  0  1  0  0  0  0  0  0  0  0  0
   -9.7690   31.7621   67.7768 C   0  0  0  0  0  0  0  0  0  0  0  0
  -11.5020   31.5870   65.3206 N   0  0  0  0  0  0  0  0  0  0  0  0
   -8.8964   29.5438   67.1947 O   0  0  0  0  0  0  0  0  0  0  0  0
   -9.5742   27.1170   64.4635 O   0  0  0  0  0  0  0  0  0  0  0  0
  -11.7663   29.0345   64.1533 O   0  0  0  0  0  0  0  0  0  0  0  0
   -8.5315   32.1162   68.3446 O   0  0  0  0  0  0  0  0  0  0  0  0
    0.2973   26.1426   65.2354 C   0  0  1  0  0  0  0  0  0  0  0  0
    0.9314   25.0878   66.1830 C   0  0  1  0  0  0  0  0  0  0  0  0
    2.4093   24.8234   65.7736 C   0  0  2  0  0  0  0  0  0  0  0  0
    2.4466   24.2946   64.3186 C   0  0  1  0  0  0  0  0  0  0  0  0
    1.8185   25.3467   63.3359 C   0  0  0  0  0  0  0  0  0  0  0  0
    0.3602   25.6045   63.7711 C   0  0  2  0  0  0  0  0  0  0  0  0
    3.8503   24.0322   63.9197 N   0  0  0  0  0  0  0  0  0  0  0  0
   -0.2184   26.5885   62.8498 N   0  0  0  0  0  0  0  0  0  0  0  0
    0.8955   25.5785   67.5414 O   0  0  0  0  0  0  0  0  0  0  0  0
    2.9766   23.8450   66.6731 O   0  0  0  0  0  0  0  0  0  0  0  0
  1  2  1  0  0  0  0
  1 12  1  6  0  0  0
  1 13  1  0  0  0  0
  2  3  1  0  0  0  0
  2 10  1  6  0  0  0
  4  3  1  6  0  0  0
  4  5  1  0  0  0  0
  4 14  1  0  0  0  0
  5  6  1  0  0  0  0
  5 13  1  1  0  0  0
  6  7  1  0  0  0  0
  6 15  1  1  0  0  0
  7  8  1  0  0  0  0
  7 11  1  1  0  0  0
  8 14  1  0  0  0  0
  8 16  1  6  0  0  0
  9 11  1  0  0  0  0
 17 16  1  6  0  0  0
 17 18  1  0  0  0  0
 17 24  1  0  0  0  0
 18 19  1  0  0  0  0
 18 25  1  6  0  0  0
 19 20  1  0  0  0  0
 19 26  1  1  0  0  0
 20 21  1  0  0  0  0
 20 23  1  6  0  0  0
 21 22  1  1  0  0  0
 21 24  1  0  0  0  0
 22 27  1  0  0  0  0
 28 12  1  1  0  0  0
 28 29  1  0  0  0  0
 28 33  1  0  0  0  0
 29 30  1  0  0  0  0
 29 36  1  1  0  0  0
 30 31  1  0  0  0  0
 30 37  1  1  0  0  0
 31 32  1  0  0  0  0
 31 34  1  6  0  0  0
 32 33  1  0  0  0  0
 33 35  1  6  0  0  0
M  END
>  <CHROM.1>
-129.78717497,80.59318100,-165.76251879,69.79569776,-168.71265492,-177.29973661
-4.32567519,27.97173714,65.79521837,-0.33534744,-0.27492021,0.74896101

>  <Name>
ligand

>  <RI>
0

>  <Rbt.Current_Directory>
/home/itssahil/PROJECTS/Mol_Feturizer/Test_systems_manuscript/rnas/2g5k

>  <Rbt.Executable>
rbdock ($Id: //depot/dev/client3/rdock/2013.1/src/exe/rbdock.cxx#4 $)

>  <Rbt.Library>
libRbt.so (2013.1, Build901 2013/11/27)

>  <Rbt.Parameter_File>
/export/apps/rDock/src/rDock_2013.1_src/data/scripts/dock_solv.prm

>  <Rbt.Receptor>
prm/pocket_docking_2.prm

>  <SCORE>
-3.83774

>  <SCORE.INTER>
-2.69464

>  <SCORE.INTER.CONST>
1

>  <SCORE.INTER.POLAR>
0

>  <SCORE.INTER.ROT>
6

>  <SCORE.INTER.SOLV>
16.3554

>  <SCORE.INTER.VDW>
-14.8482

>  <SCORE.INTER.norm>
-0.0728281

>  <SCORE.INTRA>
-1.19806

>  <SCORE.INTRA.DIHEDRAL>
-2.2691

>  <SCORE.INTRA.DIHEDRAL.0>
11.3972

>  <SCORE.INTRA.POLAR>
0

>  <SCORE.INTRA.POLAR.0>
0

>  <SCORE.INTRA.REPUL>
0

>  <SCORE.INTRA.REPUL.0>
0

>  <SCORE.INTRA.SOLV>
-0.0805107

>  <SCORE.INTRA.SOLV.lig_0>
-92.3891

>  <SCORE.INTRA.VDW>
-0.0232611

>  <SCORE.INTRA.VDW.0>
-2.90606

>  <SCORE.INTRA.norm>
-0.0323801

>  <SCORE.RESTR>
0.0549673

>  <SCORE.RESTR.CAVITY>
0.0549673

>  <SCORE.RESTR.norm>
0.0014856

>  <SCORE.SYSTEM>
0

>  <SCORE.SYSTEM.CONST>
0

>  <SCORE.SYSTEM.DIHEDRAL>
0

>  <SCORE.SYSTEM.SOLV>
0

>  <SCORE.SYSTEM.norm>
0

>  <SCORE.heavy>
37

>  <SCORE.norm>
-0.103723

>  <RMSD>
0.956

$$$$
ligand
 OpenBabel02271912133D
libRbt.so/2013.1/901 2013/11/27
 37 40  0  0  0  0  0  0  0  0999 V2000
   -1.0462   26.6214   67.2708 C   0  0  1  0  0  0  0  0  0  0  0  0
   -2.2069   26.0452   68.1306 C   0  0  1  0  0  0  0  0  0  0  0  0
   -3.5743   26.2143   67.4416 C   0  0  0  0  0  0  0  0  0  0  0  0
   -3.8034   27.7278   67.1376 C   0  0  1  0  0  0  0  0  0  0  0  0
   -2.6600   28.2867   66.2300 C   0  0  1  0  0  0  0  0  0  0  0  0
   -2.9130   29.8337   65.9340 C   0  0  1  0  0  0  0  0  0  0  0  0
   -4.2917   29.9942   65.2289 C   0  0  1  0  0  0  0  0  0  0  0  0
   -5.3861   29.3911   66.1603 C   0  0  2  0  0  0  0  0  0  0  0  0
   -5.4661   31.8034   63.7943 C   0  0  0  0  0  0  0  0  0  0  0  0
   -1.9620   24.6227   68.4498 N   0  0  0  0  0  0  0  0  0  0  0  0
   -4.5741   31.4510   64.9446 N   0  0  0  0  0  0  0  0  0  0  0  0
   -0.8117   25.8546   66.0736 O   0  0  0  0  0  0  0  0  0  0  0  0
   -1.3677   28.0330   66.9339 O   0  0  0  0  0  0  0  0  0  0  0  0
   -5.1189   27.9788   66.4624 O   0  0  0  0  0  0  0  0  0  0  0  0
   -2.9515   30.5562   67.1577 O   0  0  0  0  0  0  0  0  0  0  0  0
   -6.6645   29.4993   65.5447 O   0  0  0  0  0  0  0  0  0  0  0  0
   -7.7317   28.8606   66.2880 C   0  0  2  0  0  0  0  0  0  0  0  0
   -9.0954   28.9292   65.5605 C   0  0  1  0  0  0  0  0  0  0  0  0
   -9.6047   30.4039   65.4704 C   0  0  2  0  0  0  0  0  0  0  0  0
   -9.7650   30.9559   66.8723 C   0  0  1  0  0  0  0  0  0  0  0  0
   -8.3843   30.9122   67.5930 C   0  0  1  0  0  0  0  0  0  0  0  0
   -8.4655   31.4335   69.0265 C   0  0  0  0  0  0  0  0  0  0  0  0
  -10.2695   32.3483   66.7959 N   0  0  0  0  0  0  0  0  0  0  0  0
   -7.8838   29.5035   67.6274 O   0  0  0  0  0  0  0  0  0  0  0  0
   -8.9211   28.3260   64.2590 O   0  0  0  0  0  0  0  0  0  0  0  0
  -10.8715   30.4406   64.8094 O   0  0  0  0  0  0  0  0  0  0  0  0
   -8.8433   32.7887   69.0079 O   0  0  0  0  0  0  0  0  0  0  0  0
    0.5332   25.7857   65.3834 C   0  0  1  0  0  0  0  0  0  0  0  0
    1.3761   24.6736   66.0657 C   0  0  1  0  0  0  0  0  0  0  0  0
    2.7728   24.5711   65.3871 C   0  0  2  0  0  0  0  0  0  0  0  0
    2.5856   24.2270   63.8888 C   0  0  1  0  0  0  0  0  0  0  0  0
    1.7427   25.3412   63.1708 C   0  0  0  0  0  0  0  0  0  0  0  0
    0.3702   25.4354   63.8706 C   0  0  2  0  0  0  0  0  0  0  0  0
    3.9110   24.1198   63.2329 N   0  0  0  0  0  0  0  0  0  0  0  0
   -0.4099   26.4783   63.1955 N   0  0  0  0  0  0  0  0  0  0  0  0
    1.5499   24.9918   67.4642 O   0  0  0  0  0  0  0  0  0  0  0  0
    3.5375   23.5356   66.0434 O   0  0  0  0  0  0  0  0  0  0  0  0
  1  2  1  0  0  0  0
  1 12  1  6  0  0  0
  1 13  1  0  0  0  0
  2  3  1  0  0  0  0
  2 10  1  6  0  0  0
  4  3  1  6  0  0  0
  4  5  1  0  0  0  0
  4 14  1  0  0  0  0
  5  6  1  0  0  0  0
  5 13  1  1  0  0  0
  6  7  1  0  0  0  0
  6 15  1  1  0  0  0
  7  8  1  0  0  0  0
  7 11  1  1  0  0  0
  8 14  1  0  0  0  0
  8 16  1  6  0  0  0
  9 11  1  0  0  0  0
 17 16  1  6  0  0  0
 17 18  1  0  0  0  0
 17 24  1  0  0  0  0
 18 19  1  0  0  0  0
 18 25  1  6  0  0  0
 19 20  1  0  0  0  0
 19 26  1  1  0  0  0
 20 21  1  0  0  0  0
 20 23  1  6  0  0  0
 21 22  1  1  0  0  0
 21 24  1  0  0  0  0
 22 27  1  0  0  0  0
 28 12  1  1  0  0  0
 28 29  1  0  0  0  0
 28 33  1  0  0  0  0
 29 30  1  0  0  0  0
 29 36  1  1  0  0  0
 30 31  1  0  0  0  0
 30 37  1  1  0  0  0
 31 32  1  0  0  0  0
 31 34  1  6  0  0  0
 32 33  1  0  0  0  0
 33 35  1  6  0  0  0
M  END
>  <CHROM.1>
-153.01376309,152.93855666,174.98648730,85.09743212,-176.98263316,-63.07270320
-3.73308238,28.07980618,66.06625030,-0.04074590,-0.52154755,1.69352732

>  <Name>
ligand

>  <RI>
0

>  <Rbt.Current_Directory>
/home/itssahil/PROJECTS/Mol_Feturizer/Test_systems_manuscript/rnas/2g5k

>  <Rbt.Executable>
rbdock ($Id: //depot/dev/client3/rdock/2013.1/src/exe/rbdock.cxx#4 $)

>  <Rbt.Library>
libRbt.so (2013.1, Build901 2013/11/27)

>  <Rbt.Parameter_File>
/export/apps/rDock/src/rDock_2013.1_src/data/scripts/dock_solv.prm

>  <Rbt.Receptor>
prm/pocket_docking_2.prm

>  <SCORE>
-7.70991

>  <SCORE.INTER>
-5.73162

>  <SCORE.INTER.CONST>
1

>  <SCORE.INTER.POLAR>
0

>  <SCORE.INTER.ROT>
6

>  <SCORE.INTER.SOLV>
19.664

>  <SCORE.INTER.VDW>
-17.9757

>  <SCORE.INTER.norm>
-0.154909

>  <SCORE.INTRA>
-1.97981

>  <SCORE.INTRA.DIHEDRAL>
-4.93722

>  <SCORE.INTRA.DIHEDRAL.0>
11.3972

>  <SCORE.INTRA.POLAR>
0

>  <SCORE.INTRA.POLAR.0>
0

>  <SCORE.INTRA.REPUL>
0

>  <SCORE.INTRA.REPUL.0>
0

>  <SCORE.INTRA.SOLV>
0.245235

>  <SCORE.INTRA.SOLV.lig_0>
-92.3891

>  <SCORE.INTRA.VDW>
0.366179

>  <SCORE.INTRA.VDW.0>
-2.90606

>  <SCORE.INTRA.norm>
-0.0535085

>  <SCORE.RESTR>
0.00152578

>  <SCORE.RESTR.CAVITY>
0.00152578

>  <SCORE.RESTR.norm>
4.12373e-05

>  <SCORE.SYSTEM>
0

>  <SCORE.SYSTEM.CONST>
0

>  <SCORE.SYSTEM.DIHEDRAL>
0

>  <SCORE.SYSTEM.SOLV>
0

>  <SCORE.SYSTEM.norm>
0

>  <SCORE.heavy>
37

>  <SCORE.norm>
-0.208376

>  <RMSD>
0.978

$$$$
ligand
 OpenBabel02271912133D
libRbt.so/2013.1/901 2013/11/27
 37 40  0  0  0  0  0  0  0  0999 V2000
   -0.7728   26.6619   67.5913 C   0  0  1  0  0  0  0  0  0  0  0  0
   -1.9018   26.1326   68.5208 C   0  0  1  0  0  0  0  0  0  0  0  0
   -3.2956   26.2936   67.8847 C   0  0  0  0  0  0  0  0  0  0  0  0
   -3.5206   27.7975   67.5343 C   0  0  1  0  0  0  0  0  0  0  0  0
   -2.4112   28.3079   66.5584 C   0  0  1  0  0  0  0  0  0  0  0  0
   -2.6595   29.8459   66.2156 C   0  0  1  0  0  0  0  0  0  0  0  0
   -4.0654   29.9979   65.5644 C   0  0  1  0  0  0  0  0  0  0  0  0
   -5.1253   29.4437   66.5635 C   0  0  2  0  0  0  0  0  0  0  0  0
   -5.1779   31.7698   64.0369 C   0  0  0  0  0  0  0  0  0  0  0  0
   -1.6592   24.7199   68.8823 N   0  0  0  0  0  0  0  0  0  0  0  0
   -4.3435   31.4467   65.2379 N   0  0  0  0  0  0  0  0  0  0  0  0
   -0.5986   25.8483   66.4148 O   0  0  0  0  0  0  0  0  0  0  0  0
   -1.0927   28.0639   67.2157 O   0  0  0  0  0  0  0  0  0  0  0  0
   -4.8611   28.0402   66.9068 O   0  0  0  0  0  0  0  0  0  0  0  0
   -2.6372   30.6137   67.4119 O   0  0  0  0  0  0  0  0  0  0  0  0
   -6.4278   29.5453   65.9994 O   0  0  0  0  0  0  0  0  0  0  0  0
   -7.4552   28.8687   66.7647 C   0  0  2  0  0  0  0  0  0  0  0  0
   -8.7700   28.6806   65.9712 C   0  0  1  0  0  0  0  0  0  0  0  0
   -9.4444   30.0593   65.6765 C   0  0  2  0  0  0  0  0  0  0  0  0
   -9.7552   30.7463   66.9908 C   0  0  1  0  0  0  0  0  0  0  0  0
   -8.4261   30.9602   67.7752 C   0  0  1  0  0  0  0  0  0  0  0  0
   -8.6569   31.6305   69.1282 C   0  0  0  0  0  0  0  0  0  0  0  0
  -10.4159   32.0459   66.7199 N   0  0  0  0  0  0  0  0  0  0  0  0
   -7.7649   29.6390   68.0062 O   0  0  0  0  0  0  0  0  0  0  0  0
   -8.4454   27.9567   64.7635 O   0  0  0  0  0  0  0  0  0  0  0  0
  -10.6634   29.8597   64.9573 O   0  0  0  0  0  0  0  0  0  0  0  0
   -7.4202   31.8140   69.7735 O   0  0  0  0  0  0  0  0  0  0  0  0
    0.7321   25.6769   65.7150 C   0  0  1  0  0  0  0  0  0  0  0  0
    1.5661   24.6286   66.5014 C   0  0  1  0  0  0  0  0  0  0  0  0
    2.9482   24.4240   65.8160 C   0  0  2  0  0  0  0  0  0  0  0  0
    2.7277   23.9225   64.3675 C   0  0  1  0  0  0  0  0  0  0  0  0
    1.8931   24.9689   63.5455 C   0  0  0  0  0  0  0  0  0  0  0  0
    0.5354   25.1672   64.2524 C   0  0  2  0  0  0  0  0  0  0  0  0
    4.0388   23.7171   63.7064 N   0  0  0  0  0  0  0  0  0  0  0  0
   -0.2370   26.1461   63.4797 N   0  0  0  0  0  0  0  0  0  0  0  0
    1.7710   25.0937   67.8538 O   0  0  0  0  0  0  0  0  0  0  0  0
    3.7051   23.4506   66.5695 O   0  0  0  0  0  0  0  0  0  0  0  0
  1  2  1  0  0  0  0
  1 12  1  6  0  0  0
  1 13  1  0  0  0  0
  2  3  1  0  0  0  0
  2 10  1  6  0  0  0
  4  3  1  6  0  0  0
  4  5  1  0  0  0  0
  4 14  1  0  0  0  0
  5  6  1  0  0  0  0
  5 13  1  1  0  0  0
  6  7  1  0  0  0  0
  6 15  1  1  0  0  0
  7  8  1  0  0  0  0
  7 11  1  1  0  0  0
  8 14  1  0  0  0  0
  8 16  1  6  0  0  0
  9 11  1  0  0  0  0
 17 16  1  6  0  0  0
 17 18  1  0  0  0  0
 17 24  1  0  0  0  0
 18 19  1  0  0  0  0
 18 25  1  6  0  0  0
 19 20  1  0  0  0  0
 19 26  1  1  0  0  0
 20 21  1  0  0  0  0
 20 23  1  6  0  0  0
 21 22  1  1  0  0  0
 21 24  1  0  0  0  0
 22 27  1  0  0  0  0
 28 12  1  1  0  0  0
 28 29  1  0  0  0  0
 28 33  1  0  0  0  0
 29 30  1  0  0  0  0
 29 36  1  1  0  0  0
 30 31  1  0  0  0  0
 30 37  1  1  0  0  0
 31 32  1  0  0  0  0
 31 34  1  6  0  0  0
 32 33  1  0  0  0  0
 33 35  1  6  0  0  0
M  END
>  <CHROM.1>
-149.55285629,147.33040464,170.96615859,79.86940269,-165.35338109,-179.04549509
-3.49507604,27.96967314,66.41895457,-0.12403763,-0.50298148,1.50129797

>  <Name>
ligand

>  <RI>
0

>  <Rbt.Current_Directory>
/home/itssahil/PROJECTS/Mol_Feturizer/Test_systems_manuscript/rnas/2g5k

>  <Rbt.Executable>
rbdock ($Id: //depot/dev/client3/rdock/2013.1/src/exe/rbdock.cxx#4 $)

>  <Rbt.Library>
libRbt.so (2013.1, Build901 2013/11/27)

>  <Rbt.Parameter_File>
/export/apps/rDock/src/rDock_2013.1_src/data/scripts/dock_solv.prm

>  <Rbt.Receptor>
prm/pocket_docking_3.prm

>  <SCORE>
-9.41376

>  <SCORE.INTER>
-7.19168

>  <SCORE.INTER.CONST>
1

>  <SCORE.INTER.POLAR>
0

>  <SCORE.INTER.ROT>
6

>  <SCORE.INTER.SOLV>
21.3275

>  <SCORE.INTER.VDW>
-19.5036

>  <SCORE.INTER.norm>
-0.19437

>  <SCORE.INTRA>
-2.22208

>  <SCORE.INTRA.DIHEDRAL>
-3.81717

>  <SCORE.INTRA.DIHEDRAL.0>
11.3972

>  <SCORE.INTRA.POLAR>
0

>  <SCORE.INTRA.POLAR.0>
0

>  <SCORE.INTRA.REPUL>
0

>  <SCORE.INTRA.REPUL.0>
0

>  <SCORE.INTRA.SOLV>
-0.952746

>  <SCORE.INTRA.SOLV.lig_0>
-92.3891

>  <SCORE.INTRA.VDW>
0.162876

>  <SCORE.INTRA.VDW.0>
-2.90606

>  <SCORE.INTRA.norm>
-0.0600563

>  <SCORE.RESTR>
0

>  <SCORE.RESTR.CAVITY>
0

>  <SCORE.RESTR.norm>
0

>  <SCORE.SYSTEM>
0

>  <SCORE.SYSTEM.CONST>
0

>  <SCORE.SYSTEM.DIHEDRAL>
0

>  <SCORE.SYSTEM.SOLV>
0

>  <SCORE.SYSTEM.norm>
0

>  <SCORE.heavy>
37

>  <SCORE.norm>
-0.254426

>  <RMSD>
1.029

$$$$
ligand
 OpenBabel02271912133D
libRbt.so/2013.1/901 2013/11/27
 37 40  0  0  0  0  0  0  0  0999 V2000
   -0.6810   26.6751   67.6494 C   0  0  1  0  0  0  0  0  0  0  0  0
   -1.8122   26.1566   68.5822 C   0  0  1  0  0  0  0  0  0  0  0  0
   -3.2037   26.3021   67.9373 C   0  0  0  0  0  0  0  0  0  0  0  0
   -3.4328   27.7993   67.5617 C   0  0  1  0  0  0  0  0  0  0  0  0
   -2.3208   28.2981   66.5827 C   0  0  1  0  0  0  0  0  0  0  0  0
   -2.5732   29.8295   66.2141 C   0  0  1  0  0  0  0  0  0  0  0  0
   -3.9767   29.9656   65.5542 C   0  0  1  0  0  0  0  0  0  0  0  0
   -5.0391   29.4235   66.5573 C   0  0  2  0  0  0  0  0  0  0  0  0
   -5.1309   31.7074   64.0231 C   0  0  0  0  0  0  0  0  0  0  0  0
   -1.5661   24.7509   68.9675 N   0  0  0  0  0  0  0  0  0  0  0  0
   -4.2587   31.4078   65.2032 N   0  0  0  0  0  0  0  0  0  0  0  0
   -0.4984   25.8435   66.4870 O   0  0  0  0  0  0  0  0  0  0  0  0
   -1.0044   28.0698   67.2498 O   0  0  0  0  0  0  0  0  0  0  0  0
   -4.7713   28.0267   66.9243 O   0  0  0  0  0  0  0  0  0  0  0  0
   -2.5593   30.6165   67.3980 O   0  0  0  0  0  0  0  0  0  0  0  0
   -6.3394   29.5110   65.9857 O   0  0  0  0  0  0  0  0  0  0  0  0
   -7.3714   28.8616   66.7683 C   0  0  2  0  0  0  0  0  0  0  0  0
   -8.6738   28.6254   65.9674 C   0  0  1  0  0  0  0  0  0  0  0  0
   -9.3555   29.9829   65.6002 C   0  0  2  0  0  0  0  0  0  0  0  0
   -9.6895   30.7273   66.8770 C   0  0  1  0  0  0  0  0  0  0  0  0
   -8.3728   30.9890   67.6679 C   0  0  1  0  0  0  0  0  0  0  0  0
   -8.6272   31.7192   68.9852 C   0  0  0  0  0  0  0  0  0  0  0  0
  -10.3572   32.0071   66.5376 N   0  0  0  0  0  0  0  0  0  0  0  0
   -7.7039   29.6858   67.9685 O   0  0  0  0  0  0  0  0  0  0  0  0
   -8.3272   27.8492   64.7988 O   0  0  0  0  0  0  0  0  0  0  0  0
  -10.5631   29.7394   64.8753 O   0  0  0  0  0  0  0  0  0  0  0  0
   -7.4067   31.8961   69.6623 O   0  0  0  0  0  0  0  0  0  0  0  0
    0.8358   25.6673   65.7949 C   0  0  1  0  0  0  0  0  0  0  0  0
    1.6539   24.6020   66.5751 C   0  0  1  0  0  0  0  0  0  0  0  0
    3.0390   24.3921   65.8975 C   0  0  2  0  0  0  0  0  0  0  0  0
    2.8244   23.9096   64.4416 C   0  0  1  0  0  0  0  0  0  0  0  0
    2.0059   24.9734   63.6258 C   0  0  0  0  0  0  0  0  0  0  0  0
    0.6450   25.1765   64.3251 C   0  0  2  0  0  0  0  0  0  0  0  0
    4.1384   23.6993   63.7878 N   0  0  0  0  0  0  0  0  0  0  0  0
   -0.1123   26.1717   63.5582 N   0  0  0  0  0  0  0  0  0  0  0  0
    1.8532   25.0495   67.9343 O   0  0  0  0  0  0  0  0  0  0  0  0
    3.7810   23.4029   66.6450 O   0  0  0  0  0  0  0  0  0  0  0  0
  1  2  1  0  0  0  0
  1 12  1  6  0  0  0
  1 13  1  0  0  0  0
  2  3  1  0  0  0  0
  2 10  1  6  0  0  0
  4  3  1  6  0  0  0
  4  5  1  0  0  0  0
  4 14  1  0  0  0  0
  5  6  1  0  0  0  0
  5 13  1  1  0  0  0
  6  7  1  0  0  0  0
  6 15  1  1  0  0  0
  7  8  1  0  0  0  0
  7 11  1  1  0  0  0
  8 14  1  0  0  0  0
  8 16  1  6  0  0  0
  9 11  1  0  0  0  0
 17 16  1  6  0  0  0
 17 18  1  0  0  0  0
 17 24  1  0  0  0  0
 18 19  1  0  0  0  0
 18 25  1  6  0  0  0
 19 20  1  0  0  0  0
 19 26  1  1  0  0  0
 20 21  1  0  0  0  0
 20 23  1  6  0  0  0
 21 22  1  1  0  0  0
 21 24  1  0  0  0  0
 22 27  1  0  0  0  0
 28 12  1  1  0  0  0
 28 29  1  0  0  0  0
 28 33  1  0  0  0  0
 29 30  1  0  0  0  0
 29 36  1  1  0  0  0
 30 31  1  0  0  0  0
 30 37  1  1  0  0  0
 31 32  1  0  0  0  0
 31 34  1  6  0  0  0
 32 33  1  0  0  0  0
 33 35  1  6  0  0  0
M  END
>  <CHROM.1>
-149.63895417,149.58341969,171.91672396,81.68398254,-164.13379121,178.63756731
-3.41065415,27.95643524,66.42667332,-0.11846359,-0.50116829,1.48608747

>  <Name>
ligand

>  <RI>
0

>  <Rbt.Current_Directory>
/home/itssahil/PROJECTS/Mol_Feturizer/Test_systems_manuscript/rnas/2g5k

>  <Rbt.Executable>
rbdock ($Id: //depot/dev/client3/rdock/2013.1/src/exe/rbdock.cxx#4 $)

>  <Rbt.Library>
libRbt.so (2013.1, Build901 2013/11/27)

>  <Rbt.Parameter_File>
/export/apps/rDock/src/rDock_2013.1_src/data/scripts/dock_solv.prm

>  <Rbt.Receptor>
prm/pocket_docking_3.prm

>  <SCORE>
-9.45737

>  <SCORE.INTER>
-7.39297

>  <SCORE.INTER.CONST>
1

>  <SCORE.INTER.POLAR>
0

>  <SCORE.INTER.ROT>
6

>  <SCORE.INTER.SOLV>
20.6585

>  <SCORE.INTER.VDW>
-19.4148

>  <SCORE.INTER.norm>
-0.19981

>  <SCORE.INTRA>
-2.06439

>  <SCORE.INTRA.DIHEDRAL>
-3.51122

>  <SCORE.INTRA.DIHEDRAL.0>
11.3972

>  <SCORE.INTRA.POLAR>
0

>  <SCORE.INTRA.POLAR.0>
0

>  <SCORE.INTRA.REPUL>
0

>  <SCORE.INTRA.REPUL.0>
0

>  <SCORE.INTRA.SOLV>
-0.890389

>  <SCORE.INTRA.SOLV.lig_0>
-92.3891

>  <SCORE.INTRA.VDW>
0.136409

>  <SCORE.INTRA.VDW.0>
-2.90606

>  <SCORE.INTRA.norm>
-0.0557945

>  <SCORE.RESTR>
0

>  <SCORE.RESTR.CAVITY>
0

>  <SCORE.RESTR.norm>
0

>  <SCORE.SYSTEM>
0

>  <SCORE.SYSTEM.CONST>
0

>  <SCORE.SYSTEM.DIHEDRAL>
0

>  <SCORE.SYSTEM.SOLV>
0

>  <SCORE.SYSTEM.norm>
0

>  <SCORE.heavy>
37

>  <SCORE.norm>
-0.255605

>  <RMSD>
1.039

$$$$
ligand
 OpenBabel02271912133D
libRbt.so/2013.1/901 2013/11/27
 37 40  0  0  0  0  0  0  0  0999 V2000
   -0.8506   26.4074   67.6623 C   0  0  1  0  0  0  0  0  0  0  0  0
   -1.8184   25.7602   68.6934 C   0  0  1  0  0  0  0  0  0  0  0  0
   -3.2522   25.6404   68.1425 C   0  0  0  0  0  0  0  0  0  0  0  0
   -3.7519   27.0575   67.7214 C   0  0  1  0  0  0  0  0  0  0  0  0
   -2.8025   27.6796   66.6465 C   0  0  1  0  0  0  0  0  0  0  0  0
   -3.3305   29.1269   66.2325 C   0  0  1  0  0  0  0  0  0  0  0  0
   -4.7754   28.9952   65.6679 C   0  0  1  0  0  0  0  0  0  0  0  0
   -5.6672   28.3398   66.7651 C   0  0  2  0  0  0  0  0  0  0  0  0
   -4.6072   31.1337   64.2158 C   0  0  0  0  0  0  0  0  0  0  0  0
   -1.3166   24.4366   69.1191 N   0  0  0  0  0  0  0  0  0  0  0  0
   -5.3165   30.3507   65.2773 N   0  0  0  0  0  0  0  0  0  0  0  0
   -0.6041   25.5564   66.5259 O   0  0  0  0  0  0  0  0  0  0  0  0
   -1.4275   27.7066   67.2283 O   0  0  0  0  0  0  0  0  0  0  0  0
   -5.1467   27.0276   67.1708 O   0  0  0  0  0  0  0  0  0  0  0  0
   -3.3749   29.9673   67.3784 O   0  0  0  0  0  0  0  0  0  0  0  0
   -6.9968   28.1819   66.2833 O   0  0  0  0  0  0  0  0  0  0  0  0
   -7.9259   27.6769   67.2738 C   0  0  2  0  0  0  0  0  0  0  0  0
   -9.3315   27.3963   66.6916 C   0  0  1  0  0  0  0  0  0  0  0  0
  -10.0255   28.7244   66.2479 C   0  0  2  0  0  0  0  0  0  0  0  0
  -10.1627   29.6343   67.4518 C   0  0  1  0  0  0  0  0  0  0  0  0
   -8.7437   29.9383   68.0190 C   0  0  1  0  0  0  0  0  0  0  0  0
   -8.7968   30.8359   69.2538 C   0  0  0  0  0  0  0  0  0  0  0  0
  -10.8408   30.8882   67.0434 N   0  0  0  0  0  0  0  0  0  0  0  0
   -8.0703   28.6563   68.3920 O   0  0  0  0  0  0  0  0  0  0  0  0
   -9.1676   26.4679   65.5965 O   0  0  0  0  0  0  0  0  0  0  0  0
  -11.3270   28.4422   65.7286 O   0  0  0  0  0  0  0  0  0  0  0  0
   -9.5389   30.1954   70.2630 O   0  0  0  0  0  0  0  0  0  0  0  0
    0.5050   25.8074   65.5274 C   0  0  1  0  0  0  0  0  0  0  0  0
    1.0631   24.4346   65.0619 C   0  0  1  0  0  0  0  0  0  0  0  0
    2.2120   24.6470   64.0339 C   0  0  2  0  0  0  0  0  0  0  0  0
    1.6617   25.4193   62.8095 C   0  0  1  0  0  0  0  0  0  0  0  0
    1.0978   26.8174   63.2505 C   0  0  0  0  0  0  0  0  0  0  0  0
   -0.0273   26.5819   64.2805 C   0  0  2  0  0  0  0  0  0  0  0  0
    2.7467   25.6214   61.8194 N   0  0  0  0  0  0  0  0  0  0  0  0
   -0.5474   27.8917   64.6880 N   0  0  0  0  0  0  0  0  0  0  0  0
    1.5750   23.7118   66.2034 O   0  0  0  0  0  0  0  0  0  0  0  0
    2.7168   23.3571   63.6226 O   0  0  0  0  0  0  0  0  0  0  0  0
  1  2  1  0  0  0  0
  1 12  1  6  0  0  0
  1 13  1  0  0  0  0
  2  3  1  0  0  0  0
  2 10  1  6  0  0  0
  4  3  1  6  0  0  0
  4  5  1  0  0  0  0
  4 14  1  0  0  0  0
  5  6  1  0  0  0  0
  5 13  1  1  0  0  0
  6  7  1  0  0  0  0
  6 15  1  1  0  0  0
  7  8  1  0  0  0  0
  7 11  1  1  0  0  0
  8 14  1  0  0  0  0
  8 16  1  6  0  0  0
  9 11  1  0  0  0  0
 17 16  1  6  0  0  0
 17 18  1  0  0  0  0
 17 24  1  0  0  0  0
 18 19  1  0  0  0  0
 18 25  1  6  0  0  0
 19 20  1  0  0  0  0
 19 26  1  1  0  0  0
 20 21  1  0  0  0  0
 20 23  1  6  0  0  0
 21 22  1  1  0  0  0
 21 24  1  0  0  0  0
 22 27  1  0  0  0  0
 28 12  1  1  0  0  0
 28 29  1  0  0  0  0
 28 33  1  0  0  0  0
 29 30  1  0  0  0  0
 29 36  1  1  0  0  0
 30 31  1  0  0  0  0
 30 37  1  6  0  0  0
 31 32  1  0  0  0  0
 31 34  1  6  0  0  0
 32 33  1  0  0  0  0
 33 35  1  1  0  0  0
M  END
>  <CHROM.1>
-166.87879119,61.15246713,-175.33606058,144.61294576,-174.89702248,60.31069781
-3.98277443,27.47583337,66.33967305,-0.04213964,-0.43125115,2.05168245

>  <Name>
ligand

>  <RI>
0

>  <Rbt.Current_Directory>
/home/itssahil/PROJECTS/Mol_Feturizer/Test_systems_manuscript/rnas/2g5k

>  <Rbt.Executable>
rbdock ($Id: //depot/dev/client3/rdock/2013.1/src/exe/rbdock.cxx#4 $)

>  <Rbt.Library>
libRbt.so (2013.1, Build901 2013/11/27)

>  <Rbt.Parameter_File>
/export/apps/rDock/src/rDock_2013.1_src/data/scripts/dock_solv.prm

>  <Rbt.Receptor>
prm/pocket_docking_3.prm

>  <SCORE>
-7.04683

>  <SCORE.INTER>
-5.33635

>  <SCORE.INTER.CONST>
1

>  <SCORE.INTER.POLAR>
0

>  <SCORE.INTER.ROT>
6

>  <SCORE.INTER.SOLV>
21.3576

>  <SCORE.INTER.VDW>
-18.2768

>  <SCORE.INTER.norm>
-0.144226

>  <SCORE.INTRA>
-1.71048

>  <SCORE.INTRA.DIHEDRAL>
-5.7082

>  <SCORE.INTRA.DIHEDRAL.0>
11.3972

>  <SCORE.INTRA.POLAR>
0

>  <SCORE.INTRA.POLAR.0>
0

>  <SCORE.INTRA.REPUL>
0

>  <SCORE.INTRA.REPUL.0>
0

>  <SCORE.INTRA.SOLV>
1.95769

>  <SCORE.INTRA.SOLV.lig_0>
-92.3891

>  <SCORE.INTRA.VDW>
0.164773

>  <SCORE.INTRA.VDW.0>
-2.90606

>  <SCORE.INTRA.norm>
-0.0462292

>  <SCORE.RESTR>
0

>  <SCORE.RESTR.CAVITY>
0

>  <SCORE.RESTR.norm>
0

>  <SCORE.SYSTEM>
0

>  <SCORE.SYSTEM.CONST>
0

>  <SCORE.SYSTEM.DIHEDRAL>
0

>  <SCORE.SYSTEM.SOLV>
0

>  <SCORE.SYSTEM.norm>
0

>  <SCORE.heavy>
37

>  <SCORE.norm>
-0.190455

>  <RMSD>
1.070

$$$$
ligand
 OpenBabel02271912133D
libRbt.so/2013.1/901 2013/11/27
 37 40  0  0  0  0  0  0  0  0999 V2000
   -0.6599   26.6454   67.6024 C   0  0  1  0  0  0  0  0  0  0  0  0
   -1.7862   26.1637   68.5604 C   0  0  1  0  0  0  0  0  0  0  0  0
   -3.1842   26.3212   67.9325 C   0  0  0  0  0  0  0  0  0  0  0  0
   -3.3931   27.8151   67.5324 C   0  0  1  0  0  0  0  0  0  0  0  0
   -2.2869   28.2766   66.5288 C   0  0  1  0  0  0  0  0  0  0  0  0
   -2.5185   29.8051   66.1354 C   0  0  1  0  0  0  0  0  0  0  0  0
   -3.9288   29.9533   65.4928 C   0  0  1  0  0  0  0  0  0  0  0  0
   -4.9858   29.4480   66.5205 C   0  0  2  0  0  0  0  0  0  0  0  0
   -5.1625   31.6891   64.0179 C   0  0  0  0  0  0  0  0  0  0  0  0
   -1.5585   24.7612   68.9683 N   0  0  0  0  0  0  0  0  0  0  0  0
   -4.1912   31.3935   65.1190 N   0  0  0  0  0  0  0  0  0  0  0  0
   -0.5080   25.7895   66.4532 O   0  0  0  0  0  0  0  0  0  0  0  0
   -0.9652   28.0378   67.1816 O   0  0  0  0  0  0  0  0  0  0  0  0
   -4.7365   28.0538   66.9096 O   0  0  0  0  0  0  0  0  0  0  0  0
   -2.4743   30.6133   67.3042 O   0  0  0  0  0  0  0  0  0  0  0  0
   -6.2924   29.5475   65.9657 O   0  0  0  0  0  0  0  0  0  0  0  0
   -7.3283   28.9582   66.7895 C   0  0  2  0  0  0  0  0  0  0  0  0
   -8.6899   28.8568   66.0620 C   0  0  1  0  0  0  0  0  0  0  0  0
   -9.2757   30.2773   65.7767 C   0  0  2  0  0  0  0  0  0  0  0  0
   -9.4721   31.0023   67.0927 C   0  0  1  0  0  0  0  0  0  0  0  0
   -8.0948   31.1282   67.8101 C   0  0  1  0  0  0  0  0  0  0  0  0
   -8.2108   31.8311   69.1613 C   0  0  0  0  0  0  0  0  0  0  0  0
  -10.0488   32.3433   66.8319 N   0  0  0  0  0  0  0  0  0  0  0  0
   -7.5210   29.7651   68.0314 O   0  0  0  0  0  0  0  0  0  0  0  0
   -8.4774   28.0955   64.8524 O   0  0  0  0  0  0  0  0  0  0  0  0
  -10.5392   30.1584   65.1192 O   0  0  0  0  0  0  0  0  0  0  0  0
   -8.6452   33.1543   68.9615 O   0  0  0  0  0  0  0  0  0  0  0  0
    0.7963   25.6341   65.7018 C   0  0  1  0  0  0  0  0  0  0  0  0
    1.6707   24.5918   66.4514 C   0  0  1  0  0  0  0  0  0  0  0  0
    3.0272   24.4037   65.7122 C   0  0  2  0  0  0  0  0  0  0  0  0
    2.7558   23.9049   64.2715 C   0  0  1  0  0  0  0  0  0  0  0  0
    1.8794   24.9454   63.4863 C   0  0  0  0  0  0  0  0  0  0  0  0
    0.5481   25.1273   64.2460 C   0  0  2  0  0  0  0  0  0  0  0  0
    4.0423   23.7152   63.5594 N   0  0  0  0  0  0  0  0  0  0  0  0
   -0.2635   26.1009   63.5074 N   0  0  0  0  0  0  0  0  0  0  0  0
    1.9231   25.0545   67.7966 O   0  0  0  0  0  0  0  0  0  0  0  0
    3.8225   23.4357   66.4322 O   0  0  0  0  0  0  0  0  0  0  0  0
  1  2  1  0  0  0  0
  1 12  1  6  0  0  0
  1 13  1  0  0  0  0
  2  3  1  0  0  0  0
  2 10  1  6  0  0  0
  4  3  1  6  0  0  0
  4  5  1  0  0  0  0
  4 14  1  0  0  0  0
  5  6  1  0  0  0  0
  5 13  1  1  0  0  0
  6  7  1  0  0  0  0
  6 15  1  1  0  0  0
  7  8  1  0  0  0  0
  7 11  1  1  0  0  0
  8 14  1  0  0  0  0
  8 16  1  6  0  0  0
  9 11  1  0  0  0  0
 17 16  1  6  0  0  0
 17 18  1  0  0  0  0
 17 24  1  0  0  0  0
 18 19  1  0  0  0  0
 18 25  1  6  0  0  0
 19 20  1  0  0  0  0
 19 26  1  1  0  0  0
 20 21  1  0  0  0  0
 20 23  1  6  0  0  0
 21 22  1  1  0  0  0
 21 24  1  0  0  0  0
 22 27  1  0  0  0  0
 28 12  1  1  0  0  0
 28 29  1  0  0  0  0
 28 33  1  0  0  0  0
 29 30  1  0  0  0  0
 29 36  1  1  0  0  0
 30 31  1  0  0  0  0
 30 37  1  1  0  0  0
 31 32  1  0  0  0  0
 31 34  1  6  0  0  0
 32 33  1  0  0  0  0
 33 35  1  6  0  0  0
M  END
>  <CHROM.1>
-152.96701316,154.53832214,173.29498825,82.81987743,-169.94389719,-63.71094845
-3.40946389,28.05013701,66.38924307,-0.11091798,-0.53227190,1.53998734

>  <Name>
ligand

>  <RI>
0

>  <Rbt.Current_Directory>
/home/itssahil/PROJECTS/Mol_Feturizer/Test_systems_manuscript/rnas/2g5k

>  <Rbt.Executable>
rbdock ($Id: //depot/dev/client3/rdock/2013.1/src/exe/rbdock.cxx#4 $)

>  <Rbt.Library>
libRbt.so (2013.1, Build901 2013/11/27)

>  <Rbt.Parameter_File>
/export/apps/rDock/src/rDock_2013.1_src/data/scripts/dock_solv.prm

>  <Rbt.Receptor>
prm/pocket_docking_3.prm

>  <SCORE>
-9.59144

>  <SCORE.INTER>
-7.65738

>  <SCORE.INTER.CONST>
1

>  <SCORE.INTER.POLAR>
0

>  <SCORE.INTER.ROT>
6

>  <SCORE.INTER.SOLV>
21.1423

>  <SCORE.INTER.VDW>
-19.7523

>  <SCORE.INTER.norm>
-0.206956

>  <SCORE.INTRA>
-1.93511

>  <SCORE.INTRA.DIHEDRAL>
-4.83219

>  <SCORE.INTRA.DIHEDRAL.0>
11.3972

>  <SCORE.INTRA.POLAR>
0

>  <SCORE.INTRA.POLAR.0>
0

>  <SCORE.INTRA.REPUL>
0

>  <SCORE.INTRA.REPUL.0>
0

>  <SCORE.INTRA.SOLV>
0.141562

>  <SCORE.INTRA.SOLV.lig_0>
-92.3891

>  <SCORE.INTRA.VDW>
0.410204

>  <SCORE.INTRA.VDW.0>
-2.90606

>  <SCORE.INTRA.norm>
-0.0523003

>  <SCORE.RESTR>
0.00104871

>  <SCORE.RESTR.CAVITY>
0.00104871

>  <SCORE.RESTR.norm>
2.83435e-05

>  <SCORE.SYSTEM>
0

>  <SCORE.SYSTEM.CONST>
0

>  <SCORE.SYSTEM.DIHEDRAL>
0

>  <SCORE.SYSTEM.SOLV>
0

>  <SCORE.SYSTEM.norm>
0

>  <SCORE.heavy>
37

>  <SCORE.norm>
-0.259228

>  <RMSD>
1.134

$$$$
ligand
 OpenBabel02271912133D
libRbt.so/2013.1/901 2013/11/27
 37 40  0  0  0  0  0  0  0  0999 V2000
   -0.6337   26.5916   67.6577 C   0  0  1  0  0  0  0  0  0  0  0  0
   -1.7758   26.1188   68.6014 C   0  0  1  0  0  0  0  0  0  0  0  0
   -3.1641   26.2821   67.9538 C   0  0  0  0  0  0  0  0  0  0  0  0
   -3.3593   27.7758   67.5465 C   0  0  1  0  0  0  0  0  0  0  0  0
   -2.2369   28.2284   66.5571 C   0  0  1  0  0  0  0  0  0  0  0  0
   -2.4547   29.7570   66.1562 C   0  0  1  0  0  0  0  0  0  0  0  0
   -3.8551   29.9110   65.4937 C   0  0  1  0  0  0  0  0  0  0  0  0
   -4.9289   29.4144   66.5081 C   0  0  2  0  0  0  0  0  0  0  0  0
   -5.0445   31.6484   63.9848 C   0  0  0  0  0  0  0  0  0  0  0  0
   -1.5614   24.7163   69.0164 N   0  0  0  0  0  0  0  0  0  0  0  0
   -4.1045   31.3515   65.1122 N   0  0  0  0  0  0  0  0  0  0  0  0
   -0.4707   25.7316   66.5132 O   0  0  0  0  0  0  0  0  0  0  0  0
   -0.9256   27.9845   67.2288 O   0  0  0  0  0  0  0  0  0  0  0  0
   -4.6927   28.0200   66.9046 O   0  0  0  0  0  0  0  0  0  0  0  0
   -2.4223   30.5684   67.3232 O   0  0  0  0  0  0  0  0  0  0  0  0
   -6.2272   29.5194   65.9350 O   0  0  0  0  0  0  0  0  0  0  0  0
   -7.2776   28.9382   66.7462 C   0  0  2  0  0  0  0  0  0  0  0  0
   -8.6412   28.8867   66.0171 C   0  0  1  0  0  0  0  0  0  0  0  0
   -9.1914   30.3272   65.7631 C   0  0  2  0  0  0  0  0  0  0  0  0
   -9.3699   31.0280   67.0946 C   0  0  1  0  0  0  0  0  0  0  0  0
   -7.9900   31.1039   67.8141 C   0  0  1  0  0  0  0  0  0  0  0  0
   -8.0887   31.7798   69.1803 C   0  0  0  0  0  0  0  0  0  0  0  0
   -9.9130   32.3883   66.8633 N   0  0  0  0  0  0  0  0  0  0  0  0
   -7.4504   29.7224   68.0054 O   0  0  0  0  0  0  0  0  0  0  0  0
   -8.4475   28.1468   64.7911 O   0  0  0  0  0  0  0  0  0  0  0  0
  -10.4574   30.2542   65.1035 O   0  0  0  0  0  0  0  0  0  0  0  0
   -8.5440   33.1006   69.0140 O   0  0  0  0  0  0  0  0  0  0  0  0
    0.8319   25.5995   65.7543 C   0  0  1  0  0  0  0  0  0  0  0  0
    1.7247   24.5650   66.4928 C   0  0  1  0  0  0  0  0  0  0  0  0
    3.0800   24.4008   65.7457 C   0  0  2  0  0  0  0  0  0  0  0  0
    2.8084   23.9074   64.3032 C   0  0  1  0  0  0  0  0  0  0  0  0
    1.9134   24.9403   63.5290 C   0  0  0  0  0  0  0  0  0  0  0  0
    0.5836   25.0985   64.2965 C   0  0  2  0  0  0  0  0  0  0  0  0
    4.0939   23.7405   63.5835 N   0  0  0  0  0  0  0  0  0  0  0  0
   -0.2455   26.0651   63.5683 N   0  0  0  0  0  0  0  0  0  0  0  0
    1.9774   25.0226   67.8397 O   0  0  0  0  0  0  0  0  0  0  0  0
    3.8926   23.4397   66.4555 O   0  0  0  0  0  0  0  0  0  0  0  0
  1  2  1  0  0  0  0
  1 12  1  6  0  0  0
  1 13  1  0  0  0  0
  2  3  1  0  0  0  0
  2 10  1  6  0  0  0
  4  3  1  6  0  0  0
  4  5  1  0  0  0  0
  4 14  1  0  0  0  0
  5  6  1  0  0  0  0
  5 13  1  1  0  0  0
  6  7  1  0  0  0  0
  6 15  1  1  0  0  0
  7  8  1  0  0  0  0
  7 11  1  1  0  0  0
  8 14  1  0  0  0  0
  8 16  1  6  0  0  0
  9 11  1  0  0  0  0
 17 16  1  6  0  0  0
 17 18  1  0  0  0  0
 17 24  1  0  0  0  0
 18 19  1  0  0  0  0
 18 25  1  6  0  0  0
 19 20  1  0  0  0  0
 19 26  1  1  0  0  0
 20 21  1  0  0  0  0
 20 23  1  6  0  0  0
 21 22  1  1  0  0  0
 21 24  1  0  0  0  0
 22 27  1  0  0  0  0
 28 12  1  1  0  0  0
 28 29  1  0  0  0  0
 28 33  1  0  0  0  0
 29 30  1  0  0  0  0
 29 36  1  1  0  0  0
 30 31  1  0  0  0  0
 30 37  1  1  0  0  0
 31 32  1  0  0  0  0
 31 34  1  6  0  0  0
 32 33  1  0  0  0  0
 33 35  1  6  0  0  0
M  END
>  <CHROM.1>
-154.91914874,153.71527611,173.30266047,83.68197906,-171.91675775,-61.26304414
-3.35069964,28.03063461,66.40446196,-0.09343692,-0.53722265,1.56588345

>  <Name>
ligand

>  <RI>
0

>  <Rbt.Current_Directory>
/home/itssahil/PROJECTS/Mol_Feturizer/Test_systems_manuscript/rnas/2g5k

>  <Rbt.Executable>
rbdock ($Id: //depot/dev/client3/rdock/2013.1/src/exe/rbdock.cxx#4 $)

>  <Rbt.Library>
libRbt.so (2013.1, Build901 2013/11/27)

>  <Rbt.Parameter_File>
/export/apps/rDock/src/rDock_2013.1_src/data/scripts/dock_solv.prm

>  <Rbt.Receptor>
prm/pocket_docking_3.prm

>  <SCORE>
-9.61564

>  <SCORE.INTER>
-7.50464

>  <SCORE.INTER.CONST>
1

>  <SCORE.INTER.POLAR>
0

>  <SCORE.INTER.ROT>
6

>  <SCORE.INTER.SOLV>
21.4928

>  <SCORE.INTER.VDW>
-19.7674

>  <SCORE.INTER.norm>
-0.202828

>  <SCORE.INTRA>
-2.11526

>  <SCORE.INTRA.DIHEDRAL>
-5.22709

>  <SCORE.INTRA.DIHEDRAL.0>
11.3972

>  <SCORE.INTRA.POLAR>
0

>  <SCORE.INTRA.POLAR.0>
0

>  <SCORE.INTRA.REPUL>
0

>  <SCORE.INTRA.REPUL.0>
0

>  <SCORE.INTRA.SOLV>
0.133994

>  <SCORE.INTRA.SOLV.lig_0>
-92.3891

>  <SCORE.INTRA.VDW>
0.431284

>  <SCORE.INTRA.VDW.0>
-2.90606

>  <SCORE.INTRA.norm>
-0.0571692

>  <SCORE.RESTR>
0.00426831

>  <SCORE.RESTR.CAVITY>
0.00426831

>  <SCORE.RESTR.norm>
0.00011536

>  <SCORE.SYSTEM>
0

>  <SCORE.SYSTEM.CONST>
0

>  <SCORE.SYSTEM.DIHEDRAL>
0

>  <SCORE.SYSTEM.SOLV>
0

>  <SCORE.SYSTEM.norm>
0

>  <SCORE.heavy>
37

>  <SCORE.norm>
-0.259882

>  <RMSD>
1.168

$$$$
ligand
 OpenBabel02271912133D
libRbt.so/2013.1/901 2013/11/27
 37 40  0  0  0  0  0  0  0  0999 V2000
   -0.5501   26.6329   67.6206 C   0  0  1  0  0  0  0  0  0  0  0  0
   -1.5817   25.9786   68.5830 C   0  0  1  0  0  0  0  0  0  0  0  0
   -3.0216   26.0877   68.0460 C   0  0  0  0  0  0  0  0  0  0  0  0
   -3.3589   27.5923   67.8058 C   0  0  1  0  0  0  0  0  0  0  0  0
   -2.3486   28.2292   66.7972 C   0  0  1  0  0  0  0  0  0  0  0  0
   -2.7106   29.7659   66.5682 C   0  0  1  0  0  0  0  0  0  0  0  0
   -4.1629   29.8660   66.0163 C   0  0  1  0  0  0  0  0  0  0  0  0
   -5.1196   29.1871   67.0422 C   0  0  2  0  0  0  0  0  0  0  0  0
   -5.3641   31.6688   64.5960 C   0  0  0  0  0  0  0  0  0  0  0  0
   -1.2317   24.5654   68.8389 N   0  0  0  0  0  0  0  0  0  0  0  0
   -4.5481   31.3108   65.7998 N   0  0  0  0  0  0  0  0  0  0  0  0
   -0.4053   25.9032   66.3866 O   0  0  0  0  0  0  0  0  0  0  0  0
   -0.9775   28.0315   67.3548 O   0  0  0  0  0  0  0  0  0  0  0  0
   -4.7499   27.7855   67.2791 O   0  0  0  0  0  0  0  0  0  0  0  0
   -2.6557   30.4614   67.8070 O   0  0  0  0  0  0  0  0  0  0  0  0
   -6.4601   29.2386   66.5674 O   0  0  0  0  0  0  0  0  0  0  0  0
   -7.4547   28.9447   67.5791 C   0  0  2  0  0  0  0  0  0  0  0  0
   -8.8324   28.5771   66.9788 C   0  0  1  0  0  0  0  0  0  0  0  0
   -9.4680   29.8052   66.2508 C   0  0  2  0  0  0  0  0  0  0  0  0
   -9.6493   30.9300   67.2497 C   0  0  1  0  0  0  0  0  0  0  0  0
   -8.2569   31.3176   67.8317 C   0  0  1  0  0  0  0  0  0  0  0  0
   -8.3562   32.4352   68.8682 C   0  0  0  0  0  0  0  0  0  0  0  0
  -10.2727   32.0919   66.5713 N   0  0  0  0  0  0  0  0  0  0  0  0
   -7.6368   30.1215   68.4805 O   0  0  0  0  0  0  0  0  0  0  0  0
   -8.6309   27.4544   66.0916 O   0  0  0  0  0  0  0  0  0  0  0  0
  -10.7452   29.4467   65.7186 O   0  0  0  0  0  0  0  0  0  0  0  0
   -8.8364   33.6033   68.2483 O   0  0  0  0  0  0  0  0  0  0  0  0
    0.9334   25.6371   65.7331 C   0  0  1  0  0  0  0  0  0  0  0  0
    1.6764   24.5554   66.5641 C   0  0  1  0  0  0  0  0  0  0  0  0
    3.0638   24.2534   65.9272 C   0  0  2  0  0  0  0  0  0  0  0  0
    2.8578   23.7382   64.4814 C   0  0  1  0  0  0  0  0  0  0  0  0
    2.1152   24.8174   63.6147 C   0  0  0  0  0  0  0  0  0  0  0  0
    0.7510   25.1120   64.2740 C   0  0  2  0  0  0  0  0  0  0  0  0
    4.1736   23.4402   63.8665 N   0  0  0  0  0  0  0  0  0  0  0  0
    0.0648   26.1210   63.4598 N   0  0  0  0  0  0  0  0  0  0  0  0
    1.8676   25.0334   67.9140 O   0  0  0  0  0  0  0  0  0  0  0  0
    3.7355   23.2505   66.7216 O   0  0  0  0  0  0  0  0  0  0  0  0
  1  2  1  0  0  0  0
  1 12  1  6  0  0  0
  1 13  1  0  0  0  0
  2  3  1  0  0  0  0
  2 10  1  6  0  0  0
  4  3  1  6  0  0  0
  4  5  1  0  0  0  0
  4 14  1  0  0  0  0
  5  6  1  0  0  0  0
  5 13  1  1  0  0  0
  6  7  1  0  0  0  0
  6 15  1  1  0  0  0
  7  8  1  0  0  0  0
  7 11  1  1  0  0  0
  8 14  1  0  0  0  0
  8 16  1  6  0  0  0
  9 11  1  0  0  0  0
 17 16  1  6  0  0  0
 17 18  1  0  0  0  0
 17 24  1  0  0  0  0
 18 19  1  0  0  0  0
 18 25  1  6  0  0  0
 19 20  1  0  0  0  0
 19 26  1  1  0  0  0
 20 21  1  0  0  0  0
 20 23  1  6  0  0  0
 21 22  1  1  0  0  0
 21 24  1  0  0  0  0
 22 27  1  0  0  0  0
 28 12  1  1  0  0  0
 28 29  1  0  0  0  0
 28 33  1  0  0  0  0
 29 30  1  0  0  0  0
 29 36  1  1  0  0  0
 30 31  1  0  0  0  0
 30 37  1  1  0  0  0
 31 32  1  0  0  0  0
 31 34  1  6  0  0  0
 32 33  1  0  0  0  0
 33 35  1  6  0  0  0
M  END
>  <CHROM.1>
-137.53812369,141.22314216,-165.27393077,73.18762678,-162.24636217,-63.66023860
-3.45059874,27.94673945,66.65233198,-0.51623823,0.16322399,-0.06911806

>  <Name>
ligand

>  <RI>
0

>  <Rbt.Current_Directory>
/home/itssahil/PROJECTS/Mol_Feturizer/Test_systems_manuscript/rnas/2g5k

>  <Rbt.Executable>
rbdock ($Id: //depot/dev/client3/rdock/2013.1/src/exe/rbdock.cxx#4 $)

>  <Rbt.Library>
libRbt.so (2013.1, Build901 2013/11/27)

>  <Rbt.Parameter_File>
/export/apps/rDock/src/rDock_2013.1_src/data/scripts/dock_solv.prm

>  <Rbt.Receptor>
prm/pocket_docking_3.prm

>  <SCORE>
-7.14437

>  <SCORE.INTER>
-6.62464

>  <SCORE.INTER.CONST>
1

>  <SCORE.INTER.POLAR>
0

>  <SCORE.INTER.ROT>
6

>  <SCORE.INTER.SOLV>
20.3958

>  <SCORE.INTER.VDW>
-18.815

>  <SCORE.INTER.norm>
-0.179044

>  <SCORE.INTRA>
-0.523048

>  <SCORE.INTRA.DIHEDRAL>
-1.39025

>  <SCORE.INTRA.DIHEDRAL.0>
11.3972

>  <SCORE.INTRA.POLAR>
0

>  <SCORE.INTRA.POLAR.0>
0

>  <SCORE.INTRA.REPUL>
0

>  <SCORE.INTRA.REPUL.0>
0

>  <SCORE.INTRA.SOLV>
0.651015

>  <SCORE.INTRA.SOLV.lig_0>
-92.3891

>  <SCORE.INTRA.VDW>
-0.15343

>  <SCORE.INTRA.VDW.0>
-2.90606

>  <SCORE.INTRA.norm>
-0.0141364

>  <SCORE.RESTR>
0.00331148

>  <SCORE.RESTR.CAVITY>
0.00331148

>  <SCORE.RESTR.norm>
8.94995e-05

>  <SCORE.SYSTEM>
0

>  <SCORE.SYSTEM.CONST>
0

>  <SCORE.SYSTEM.DIHEDRAL>
0

>  <SCORE.SYSTEM.SOLV>
0

>  <SCORE.SYSTEM.norm>
0

>  <SCORE.heavy>
37

>  <SCORE.norm>
-0.193091

>  <RMSD>
1.174

$$$$
ligand
 OpenBabel02271912133D
libRbt.so/2013.1/901 2013/11/27
 37 40  0  0  0  0  0  0  0  0999 V2000
   -0.6680   26.4080   67.4226 C   0  0  1  0  0  0  0  0  0  0  0  0
   -1.8014   25.8672   68.3398 C   0  0  1  0  0  0  0  0  0  0  0  0
   -3.1937   26.0536   67.7073 C   0  0  0  0  0  0  0  0  0  0  0  0
   -3.4065   27.5668   67.3905 C   0  0  1  0  0  0  0  0  0  0  0  0
   -2.2927   28.0898   66.4265 C   0  0  1  0  0  0  0  0  0  0  0  0
   -2.5285   29.6371   66.1181 C   0  0  1  0  0  0  0  0  0  0  0  0
   -3.9329   29.8149   65.4703 C   0  0  1  0  0  0  0  0  0  0  0  0
   -4.9976   29.2470   66.4565 C   0  0  2  0  0  0  0  0  0  0  0  0
   -5.1283   31.6263   64.0559 C   0  0  0  0  0  0  0  0  0  0  0  0
   -1.5704   24.4449   68.6697 N   0  0  0  0  0  0  0  0  0  0  0  0
   -4.1992   31.2728   65.1762 N   0  0  0  0  0  0  0  0  0  0  0  0
   -0.4999   25.6196   66.2283 O   0  0  0  0  0  0  0  0  0  0  0  0
   -0.9764   27.8207   67.0784 O   0  0  0  0  0  0  0  0  0  0  0  0
   -4.7448   27.8342   66.7684 O   0  0  0  0  0  0  0  0  0  0  0  0
   -2.5005   30.3778   67.3313 O   0  0  0  0  0  0  0  0  0  0  0  0
   -6.2990   29.3717   65.8946 O   0  0  0  0  0  0  0  0  0  0  0  0
   -7.3500   28.7982   66.7105 C   0  0  2  0  0  0  0  0  0  0  0  0
   -8.7219   28.7768   65.9957 C   0  0  1  0  0  0  0  0  0  0  0  0
   -9.2514   30.2288   65.7638 C   0  0  2  0  0  0  0  0  0  0  0  0
   -9.4045   30.9170   67.1050 C   0  0  1  0  0  0  0  0  0  0  0  0
   -8.0159   30.9626   67.8104 C   0  0  1  0  0  0  0  0  0  0  0  0
   -8.0892   31.6245   69.1851 C   0  0  0  0  0  0  0  0  0  0  0  0
   -9.9280   32.2884   66.8949 N   0  0  0  0  0  0  0  0  0  0  0  0
   -7.4967   29.5707   67.9803 O   0  0  0  0  0  0  0  0  0  0  0  0
   -8.5531   28.0480   64.7595 O   0  0  0  0  0  0  0  0  0  0  0  0
  -10.5254   30.1835   65.1172 O   0  0  0  0  0  0  0  0  0  0  0  0
   -8.4345   32.9797   69.0311 O   0  0  0  0  0  0  0  0  0  0  0  0
    0.6497   25.8116   65.2631 C   0  0  1  0  0  0  0  0  0  0  0  0
    1.2334   24.4149   64.9147 C   0  0  1  0  0  0  0  0  0  0  0  0
    2.4243   24.5667   63.9244 C   0  0  2  0  0  0  0  0  0  0  0  0
    1.9235   25.2515   62.6288 C   0  0  1  0  0  0  0  0  0  0  0  0
    1.3349   26.6718   62.9508 C   0  0  0  0  0  0  0  0  0  0  0  0
    0.1678   26.4972   63.9457 C   0  0  2  0  0  0  0  0  0  0  0  0
    3.0489   25.3951   61.6742 N   0  0  0  0  0  0  0  0  0  0  0  0
   -0.3751   27.8274   64.2422 N   0  0  0  0  0  0  0  0  0  0  0  0
    1.6992   23.7736   66.1226 O   0  0  0  0  0  0  0  0  0  0  0  0
    2.9520   23.2560   63.6221 O   0  0  0  0  0  0  0  0  0  0  0  0
  1  2  1  0  0  0  0
  1 12  1  6  0  0  0
  1 13  1  0  0  0  0
  2  3  1  0  0  0  0
  2 10  1  6  0  0  0
  4  3  1  6  0  0  0
  4  5  1  0  0  0  0
  4 14  1  0  0  0  0
  5  6  1  0  0  0  0
  5 13  1  1  0  0  0
  6  7  1  0  0  0  0
  6 15  1  1  0  0  0
  7  8  1  0  0  0  0
  7 11  1  1  0  0  0
  8 14  1  0  0  0  0
  8 16  1  6  0  0  0
  9 11  1  0  0  0  0
 17 16  1  6  0  0  0
 17 18  1  0  0  0  0
 17 24  1  0  0  0  0
 18 19  1  0  0  0  0
 18 25  1  6  0  0  0
 19 20  1  0  0  0  0
 19 26  1  1  0  0  0
 20 21  1  0  0  0  0
 20 23  1  6  0  0  0
 21 22  1  1  0  0  0
 21 24  1  0  0  0  0
 22 27  1  0  0  0  0
 28 12  1  1  0  0  0
 28 29  1  0  0  0  0
 28 33  1  0  0  0  0
 29 30  1  0  0  0  0
 29 36  1  1  0  0  0
 30 31  1  0  0  0  0
 30 37  1  6  0  0  0
 31 32  1  0  0  0  0
 31 34  1  6  0  0  0
 32 33  1  0  0  0  0
 33 35  1  1  0  0  0
M  END
>  <CHROM.1>
-171.36385814,152.67278733,176.63793515,133.77888685,-172.29728628,-65.32860796
-3.53466839,28.09357094,66.01651837,0.00247863,-0.55288921,1.96527852

>  <Name>
ligand

>  <RI>
0

>  <Rbt.Current_Directory>
/home/itssahil/PROJECTS/Mol_Feturizer/Test_systems_manuscript/rnas/2g5k

>  <Rbt.Executable>
rbdock ($Id: //depot/dev/client3/rdock/2013.1/src/exe/rbdock.cxx#4 $)

>  <Rbt.Library>
libRbt.so (2013.1, Build901 2013/11/27)

>  <Rbt.Parameter_File>
/export/apps/rDock/src/rDock_2013.1_src/data/scripts/dock_solv.prm

>  <Rbt.Receptor>
prm/pocket_docking_3.prm

>  <SCORE>
-6.05682

>  <SCORE.INTER>
-5.15097

>  <SCORE.INTER.CONST>
1

>  <SCORE.INTER.POLAR>
0

>  <SCORE.INTER.ROT>
6

>  <SCORE.INTER.SOLV>
19.9681

>  <SCORE.INTER.VDW>
-17.69

>  <SCORE.INTER.norm>
-0.139215

>  <SCORE.INTRA>
-0.905845

>  <SCORE.INTRA.DIHEDRAL>
-3.73693

>  <SCORE.INTRA.DIHEDRAL.0>
11.3972

>  <SCORE.INTRA.POLAR>
0

>  <SCORE.INTRA.POLAR.0>
0

>  <SCORE.INTRA.REPUL>
0

>  <SCORE.INTRA.REPUL.0>
0

>  <SCORE.INTRA.SOLV>
2.24749

>  <SCORE.INTRA.SOLV.lig_0>
-92.3891

>  <SCORE.INTRA.VDW>
-0.161127

>  <SCORE.INTRA.VDW.0>
-2.90606

>  <SCORE.INTRA.norm>
-0.0244823

>  <SCORE.RESTR>
0

>  <SCORE.RESTR.CAVITY>
0

>  <SCORE.RESTR.norm>
0

>  <SCORE.SYSTEM>
0

>  <SCORE.SYSTEM.CONST>
0

>  <SCORE.SYSTEM.DIHEDRAL>
0

>  <SCORE.SYSTEM.SOLV>
0

>  <SCORE.SYSTEM.norm>
0

>  <SCORE.heavy>
37

>  <SCORE.norm>
-0.163698

>  <RMSD>
1.231

$$$$
ligand
 OpenBabel02271912133D
libRbt.so/2013.1/901 2013/11/27
 37 40  0  0  0  0  0  0  0  0999 V2000
   -0.7023   26.6567   67.5676 C   0  0  1  0  0  0  0  0  0  0  0  0
   -1.8836   26.2048   68.4725 C   0  0  1  0  0  0  0  0  0  0  0  0
   -3.2461   26.3897   67.7777 C   0  0  0  0  0  0  0  0  0  0  0  0
   -3.4024   27.8857   67.3618 C   0  0  1  0  0  0  0  0  0  0  0  0
   -2.2396   28.3175   66.4105 C   0  0  1  0  0  0  0  0  0  0  0  0
   -2.4181   29.8487   66.0001 C   0  0  1  0  0  0  0  0  0  0  0  0
   -3.7924   30.0244   65.2901 C   0  0  1  0  0  0  0  0  0  0  0  0
   -4.9083   29.5479   66.2680 C   0  0  2  0  0  0  0  0  0  0  0  0
   -5.0608   31.7951   63.8878 C   0  0  0  0  0  0  0  0  0  0  0  0
   -1.7068   24.7998   68.8967 N   0  0  0  0  0  0  0  0  0  0  0  0
   -4.0047   31.4681   64.8981 N   0  0  0  0  0  0  0  0  0  0  0  0
   -0.5147   25.7917   66.4306 O   0  0  0  0  0  0  0  0  0  0  0  0
   -0.9562   28.0533   67.1268 O   0  0  0  0  0  0  0  0  0  0  0  0
   -4.7089   28.1506   66.6745 O   0  0  0  0  0  0  0  0  0  0  0  0
   -2.4120   30.6618   67.1663 O   0  0  0  0  0  0  0  0  0  0  0  0
   -6.1844   29.6732   65.6508 O   0  0  0  0  0  0  0  0  0  0  0  0
   -7.2607   29.0471   66.3916 C   0  0  2  0  0  0  0  0  0  0  0  0
   -8.6133   29.0947   65.6422 C   0  0  1  0  0  0  0  0  0  0  0  0
   -9.1260   30.5652   65.5118 C   0  0  2  0  0  0  0  0  0  0  0  0
   -9.3096   31.1474   66.8986 C   0  0  1  0  0  0  0  0  0  0  0  0
   -7.9399   31.1246   67.6409 C   0  0  1  0  0  0  0  0  0  0  0  0
   -8.0448   31.6771   69.0611 C   0  0  0  0  0  0  0  0  0  0  0  0
   -9.8174   32.5359   66.7837 N   0  0  0  0  0  0  0  0  0  0  0  0
   -7.4353   29.7188   67.7140 O   0  0  0  0  0  0  0  0  0  0  0  0
   -8.4172   28.4637   64.3571 O   0  0  0  0  0  0  0  0  0  0  0  0
  -10.3827   30.5827   64.8309 O   0  0  0  0  0  0  0  0  0  0  0  0
   -8.4727   33.0163   69.0089 O   0  0  0  0  0  0  0  0  0  0  0  0
    0.8097   25.6390   65.7146 C   0  0  1  0  0  0  0  0  0  0  0  0
    1.6618   24.5911   66.4817 C   0  0  1  0  0  0  0  0  0  0  0  0
    3.0380   24.4056   65.7792 C   0  0  2  0  0  0  0  0  0  0  0  0
    2.8060   23.9158   64.3285 C   0  0  1  0  0  0  0  0  0  0  0  0
    1.9529   24.9622   63.5257 C   0  0  0  0  0  0  0  0  0  0  0  0
    0.6013   25.1413   64.2494 C   0  0  2  0  0  0  0  0  0  0  0  0
    4.1115   23.7287   63.6511 N   0  0  0  0  0  0  0  0  0  0  0  0
   -0.1884   26.1203   63.4946 N   0  0  0  0  0  0  0  0  0  0  0  0
    1.8775   25.0453   67.8361 O   0  0  0  0  0  0  0  0  0  0  0  0
    3.8120   23.4323   66.5150 O   0  0  0  0  0  0  0  0  0  0  0  0
  1  2  1  0  0  0  0
  1 12  1  6  0  0  0
  1 13  1  0  0  0  0
  2  3  1  0  0  0  0
  2 10  1  6  0  0  0
  4  3  1  6  0  0  0
  4  5  1  0  0  0  0
  4 14  1  0  0  0  0
  5  6  1  0  0  0  0
  5 13  1  1  0  0  0
  6  7  1  0  0  0  0
  6 15  1  1  0  0  0
  7  8  1  0  0  0  0
  7 11  1  1  0  0  0
  8 14  1  0  0  0  0
  8 16  1  6  0  0  0
  9 11  1  0  0  0  0
 17 16  1  6  0  0  0
 17 18  1  0  0  0  0
 17 24  1  0  0  0  0
 18 19  1  0  0  0  0
 18 25  1  6  0  0  0
 19 20  1  0  0  0  0
 19 26  1  1  0  0  0
 20 21  1  0  0  0  0
 20 23  1  6  0  0  0
 21 22  1  1  0  0  0
 21 24  1  0  0  0  0
 22 27  1  0  0  0  0
 28 12  1  1  0  0  0
 28 29  1  0  0  0  0
 28 33  1  0  0  0  0
 29 30  1  0  0  0  0
 29 36  1  1  0  0  0
 30 31  1  0  0  0  0
 30 37  1  1  0  0  0
 31 32  1  0  0  0  0
 31 34  1  6  0  0  0
 32 33  1  0  0  0  0
 33 35  1  6  0  0  0
M  END
>  <CHROM.1>
-155.07781069,163.30498406,170.10969753,83.81176477,-175.17042046,-60.99649931
-3.34845979,28.11630141,66.26446483,-0.05749567,-0.54922559,1.60007120

>  <Name>
ligand

>  <RI>
0

>  <Rbt.Current_Directory>
/home/itssahil/PROJECTS/Mol_Feturizer/Test_systems_manuscript/rnas/2g5k

>  <Rbt.Executable>
rbdock ($Id: //depot/dev/client3/rdock/2013.1/src/exe/rbdock.cxx#4 $)

>  <Rbt.Library>
libRbt.so (2013.1, Build901 2013/11/27)

>  <Rbt.Parameter_File>
/export/apps/rDock/src/rDock_2013.1_src/data/scripts/dock_solv.prm

>  <Rbt.Receptor>
prm/pocket_docking_3.prm

>  <SCORE>
-9.24165

>  <SCORE.INTER>
-7.40877

>  <SCORE.INTER.CONST>
1

>  <SCORE.INTER.POLAR>
0

>  <SCORE.INTER.ROT>
6

>  <SCORE.INTER.SOLV>
20.9493

>  <SCORE.INTER.VDW>
-19.5223

>  <SCORE.INTER.norm>
-0.200237

>  <SCORE.INTRA>
-1.83288

>  <SCORE.INTRA.DIHEDRAL>
-5.45543

>  <SCORE.INTRA.DIHEDRAL.0>
11.3972

>  <SCORE.INTRA.POLAR>
0

>  <SCORE.INTRA.POLAR.0>
0

>  <SCORE.INTRA.REPUL>
0

>  <SCORE.INTRA.REPUL.0>
0

>  <SCORE.INTRA.SOLV>
0.178994

>  <SCORE.INTRA.SOLV.lig_0>
-92.3891

>  <SCORE.INTRA.VDW>
0.805335

>  <SCORE.INTRA.VDW.0>
-2.90606

>  <SCORE.INTRA.norm>
-0.0495374

>  <SCORE.RESTR>
0

>  <SCORE.RESTR.CAVITY>
0

>  <SCORE.RESTR.norm>
0

>  <SCORE.SYSTEM>
0

>  <SCORE.SYSTEM.CONST>
0

>  <SCORE.SYSTEM.DIHEDRAL>
0

>  <SCORE.SYSTEM.SOLV>
0

>  <SCORE.SYSTEM.norm>
0

>  <SCORE.heavy>
37

>  <SCORE.norm>
-0.249774

>  <RMSD>
1.238

$$$$
ligand
 OpenBabel02271912133D
libRbt.so/2013.1/901 2013/11/27
 37 40  0  0  0  0  0  0  0  0999 V2000
   -1.0256   26.8422   67.3232 C   0  0  1  0  0  0  0  0  0  0  0  0
   -2.1345   26.4002   68.3199 C   0  0  1  0  0  0  0  0  0  0  0  0
   -3.5228   26.3516   67.6539 C   0  0  0  0  0  0  0  0  0  0  0  0
   -3.8428   27.7543   67.0494 C   0  0  1  0  0  0  0  0  0  0  0  0
   -2.7511   28.1685   66.0101 C   0  0  1  0  0  0  0  0  0  0  0  0
   -3.0967   29.6044   65.4072 C   0  0  1  0  0  0  0  0  0  0  0  0
   -4.4961   29.5435   64.7276 C   0  0  1  0  0  0  0  0  0  0  0  0
   -5.5359   29.0936   65.7977 C   0  0  2  0  0  0  0  0  0  0  0  0
   -5.2953   31.9807   65.0905 C   0  0  0  0  0  0  0  0  0  0  0  0
   -1.8035   25.0903   68.9198 N   0  0  0  0  0  0  0  0  0  0  0  0
   -4.8658   30.8922   64.1558 N   0  0  0  0  0  0  0  0  0  0  0  0
   -0.7722   25.8549   66.3048 O   0  0  0  0  0  0  0  0  0  0  0  0
   -1.4327   28.1338   66.7106 O   0  0  0  0  0  0  0  0  0  0  0  0
   -5.1836   27.7912   66.3783 O   0  0  0  0  0  0  0  0  0  0  0  0
   -3.1514   30.5640   66.4547 O   0  0  0  0  0  0  0  0  0  0  0  0
   -6.8305   29.0053   65.2135 O   0  0  0  0  0  0  0  0  0  0  0  0
   -7.8814   28.6819   66.1570 C   0  0  2  0  0  0  0  0  0  0  0  0
   -8.7961   27.5342   65.6677 C   0  0  1  0  0  0  0  0  0  0  0  0
   -9.6160   27.9729   64.4116 C   0  0  2  0  0  0  0  0  0  0  0  0
  -10.4747   29.1668   64.7764 C   0  0  1  0  0  0  0  0  0  0  0  0
   -9.5492   30.3307   65.2418 C   0  0  1  0  0  0  0  0  0  0  0  0
  -10.3431   31.5701   65.6505 C   0  0  0  0  0  0  0  0  0  0  0  0
  -11.2728   29.5755   63.5954 N   0  0  0  0  0  0  0  0  0  0  0  0
   -8.7331   29.8820   66.4116 O   0  0  0  0  0  0  0  0  0  0  0  0
   -7.9515   26.3920   65.4029 O   0  0  0  0  0  0  0  0  0  0  0  0
  -10.4642   26.9033   63.9876 O   0  0  0  0  0  0  0  0  0  0  0  0
   -9.4505   32.6010   65.9968 O   0  0  0  0  0  0  0  0  0  0  0  0
    0.5223   25.7822   65.5243 C   0  0  1  0  0  0  0  0  0  0  0  0
    1.4231   24.6953   66.1724 C   0  0  1  0  0  0  0  0  0  0  0  0
    2.7704   24.5899   65.4007 C   0  0  2  0  0  0  0  0  0  0  0  0
    2.4836   24.2075   63.9277 C   0  0  1  0  0  0  0  0  0  0  0  0
    1.5802   25.2956   63.2440 C   0  0  0  0  0  0  0  0  0  0  0  0
    0.2586   25.3935   64.0353 C   0  0  2  0  0  0  0  0  0  0  0  0
    3.7614   24.0972   63.1838 N   0  0  0  0  0  0  0  0  0  0  0  0
   -0.5783   26.4119   63.3917 N   0  0  0  0  0  0  0  0  0  0  0  0
    1.6899   25.0493   67.5475 O   0  0  0  0  0  0  0  0  0  0  0  0
    3.5906   23.5783   66.0266 O   0  0  0  0  0  0  0  0  0  0  0  0
  1  2  1  0  0  0  0
  1 12  1  6  0  0  0
  1 13  1  0  0  0  0
  2  3  1  0  0  0  0
  2 10  1  6  0  0  0
  4  3  1  6  0  0  0
  4  5  1  0  0  0  0
  4 14  1  0  0  0  0
  5  6  1  0  0  0  0
  5 13  1  1  0  0  0
  6  7  1  0  0  0  0
  6 15  1  1  0  0  0
  7  8  1  0  0  0  0
  7 11  1  1  0  0  0
  8 14  1  0  0  0  0
  8 16  1  6  0  0  0
  9 11  1  0  0  0  0
 17 16  1  6  0  0  0
 17 18  1  0  0  0  0
 17 24  1  0  0  0  0
 18 19  1  0  0  0  0
 18 25  1  6  0  0  0
 19 20  1  0  0  0  0
 19 26  1  1  0  0  0
 20 21  1  0  0  0  0
 20 23  1  6  0  0  0
 21 22  1  1  0  0  0
 21 24  1  0  0  0  0
 22 27  1  0  0  0  0
 28 12  1  1  0  0  0
 28 29  1  0  0  0  0
 28 33  1  0  0  0  0
 29 30  1  0  0  0  0
 29 36  1  1  0  0  0
 30 31  1  0  0  0  0
 30 37  1  1  0  0  0
 31 32  1  0  0  0  0
 31 34  1  6  0  0  0
 32 33  1  0  0  0  0
 33 35  1  6  0  0  0
M  END
>  <CHROM.1>
-158.07278960,-75.01685527,-175.96845197,98.27434518,-131.31916474,-177.18517315
-3.89251544,27.66552015,65.61782672,-0.40003407,-0.10878596,0.18918980

>  <Name>
ligand

>  <RI>
0

>  <Rbt.Current_Directory>
/home/itssahil/PROJECTS/Mol_Feturizer/Test_systems_manuscript/rnas/2g5k

>  <Rbt.Executable>
rbdock ($Id: //depot/dev/client3/rdock/2013.1/src/exe/rbdock.cxx#4 $)

>  <Rbt.Library>
libRbt.so (2013.1, Build901 2013/11/27)

>  <Rbt.Parameter_File>
/export/apps/rDock/src/rDock_2013.1_src/data/scripts/dock_solv.prm

>  <Rbt.Receptor>
prm/pocket_docking_2.prm

>  <SCORE>
-1.16699

>  <SCORE.INTER>
-3.66214

>  <SCORE.INTER.CONST>
1

>  <SCORE.INTER.POLAR>
0

>  <SCORE.INTER.ROT>
6

>  <SCORE.INTER.SOLV>
16.3205

>  <SCORE.INTER.VDW>
-15.4816

>  <SCORE.INTER.norm>
-0.0989766

>  <SCORE.INTRA>
2.44902

>  <SCORE.INTRA.DIHEDRAL>
2.73317

>  <SCORE.INTRA.DIHEDRAL.0>
11.3972

>  <SCORE.INTRA.POLAR>
0

>  <SCORE.INTRA.POLAR.0>
0

>  <SCORE.INTRA.REPUL>
0

>  <SCORE.INTRA.REPUL.0>
0

>  <SCORE.INTRA.SOLV>
-0.0942441

>  <SCORE.INTRA.SOLV.lig_0>
-92.3891

>  <SCORE.INTRA.VDW>
1.12956

>  <SCORE.INTRA.VDW.0>
-2.90606

>  <SCORE.INTRA.norm>
0.0661898

>  <SCORE.RESTR>
0.0461207

>  <SCORE.RESTR.CAVITY>
0.0461207

>  <SCORE.RESTR.norm>
0.00124651

>  <SCORE.SYSTEM>
0

>  <SCORE.SYSTEM.CONST>
0

>  <SCORE.SYSTEM.DIHEDRAL>
0

>  <SCORE.SYSTEM.SOLV>
0

>  <SCORE.SYSTEM.norm>
0

>  <SCORE.heavy>
37

>  <SCORE.norm>
-0.0315404

>  <RMSD>
1.241

$$$$
ligand
 OpenBabel02271912133D
libRbt.so/2013.1/901 2013/11/27
 37 40  0  0  0  0  0  0  0  0999 V2000
   -0.6539   26.9410   67.9676 C   0  0  1  0  0  0  0  0  0  0  0  0
   -1.6965   26.4736   69.0226 C   0  0  1  0  0  0  0  0  0  0  0  0
   -3.1414   26.6114   68.5061 C   0  0  0  0  0  0  0  0  0  0  0  0
   -3.3915   28.0956   68.0941 C   0  0  1  0  0  0  0  0  0  0  0  0
   -2.3726   28.5417   66.9957 C   0  0  1  0  0  0  0  0  0  0  0  0
   -2.6450   30.0606   66.5914 C   0  0  1  0  0  0  0  0  0  0  0  0
   -4.1032   30.1887   66.0615 C   0  0  1  0  0  0  0  0  0  0  0  0
   -5.0709   29.6996   67.1809 C   0  0  2  0  0  0  0  0  0  0  0  0
   -5.1240   31.8898   64.3958 C   0  0  0  0  0  0  0  0  0  0  0  0
   -1.4276   25.0810   69.4390 N   0  0  0  0  0  0  0  0  0  0  0  0
   -4.4042   31.6196   65.6811 N   0  0  0  0  0  0  0  0  0  0  0  0
   -0.5893   26.0623   66.8274 O   0  0  0  0  0  0  0  0  0  0  0  0
   -1.0011   28.3229   67.5447 O   0  0  0  0  0  0  0  0  0  0  0  0
   -4.7821   28.3149   67.5768 O   0  0  0  0  0  0  0  0  0  0  0  0
   -2.5123   30.8930   67.7363 O   0  0  0  0  0  0  0  0  0  0  0  0
   -6.4185   29.7813   66.7311 O   0  0  0  0  0  0  0  0  0  0  0  0
   -7.4011   29.5459   67.7696 C   0  0  2  0  0  0  0  0  0  0  0  0
   -8.5284   28.5847   67.3237 C   0  0  1  0  0  0  0  0  0  0  0  0
   -9.3989   29.2316   66.1985 C   0  0  2  0  0  0  0  0  0  0  0  0
  -10.0198   30.5080   66.7289 C   0  0  1  0  0  0  0  0  0  0  0  0
   -8.8820   31.4854   67.1506 C   0  0  1  0  0  0  0  0  0  0  0  0
   -9.4277   32.7937   67.7197 C   0  0  0  0  0  0  0  0  0  0  0  0
  -10.8656   31.1165   65.6738 N   0  0  0  0  0  0  0  0  0  0  0  0
   -8.0258   30.8356   68.1902 O   0  0  0  0  0  0  0  0  0  0  0  0
   -7.9027   27.3540   66.8972 O   0  0  0  0  0  0  0  0  0  0  0  0
  -10.4418   28.3329   65.8142 O   0  0  0  0  0  0  0  0  0  0  0  0
   -8.3841   33.4997   68.3458 O   0  0  0  0  0  0  0  0  0  0  0  0
    0.6676   25.8550   66.0106 C   0  0  1  0  0  0  0  0  0  0  0  0
    1.5015   24.7257   66.6755 C   0  0  1  0  0  0  0  0  0  0  0  0
    2.8089   24.4818   65.8673 C   0  0  2  0  0  0  0  0  0  0  0  0
    2.4420   24.0658   64.4214 C   0  0  1  0  0  0  0  0  0  0  0  0
    1.6045   25.1950   63.7209 C   0  0  0  0  0  0  0  0  0  0  0  0
    0.3228   25.4301   64.5483 C   0  0  2  0  0  0  0  0  0  0  0  0
    3.6807   23.8237   63.6432 N   0  0  0  0  0  0  0  0  0  0  0  0
   -0.4526   26.4863   63.8887 N   0  0  0  0  0  0  0  0  0  0  0  0
    1.8428   25.1112   68.0254 O   0  0  0  0  0  0  0  0  0  0  0  0
    3.5676   23.4331   66.5093 O   0  0  0  0  0  0  0  0  0  0  0  0
  1  2  1  0  0  0  0
  1 12  1  6  0  0  0
  1 13  1  0  0  0  0
  2  3  1  0  0  0  0
  2 10  1  6  0  0  0
  4  3  1  6  0  0  0
  4  5  1  0  0  0  0
  4 14  1  0  0  0  0
  5  6  1  0  0  0  0
  5 13  1  1  0  0  0
  6  7  1  0  0  0  0
  6 15  1  1  0  0  0
  7  8  1  0  0  0  0
  7 11  1  1  0  0  0
  8 14  1  0  0  0  0
  8 16  1  6  0  0  0
  9 11  1  0  0  0  0
 17 16  1  6  0  0  0
 17 18  1  0  0  0  0
 17 24  1  0  0  0  0
 18 19  1  0  0  0  0
 18 25  1  6  0  0  0
 19 20  1  0  0  0  0
 19 26  1  1  0  0  0
 20 21  1  0  0  0  0
 20 23  1  6  0  0  0
 21 22  1  1  0  0  0
 21 24  1  0  0  0  0
 22 27  1  0  0  0  0
 28 12  1  1  0  0  0
 28 29  1  0  0  0  0
 28 33  1  0  0  0  0
 29 30  1  0  0  0  0
 29 36  1  1  0  0  0
 30 31  1  0  0  0  0
 30 37  1  1  0  0  0
 31 32  1  0  0  0  0
 31 34  1  6  0  0  0
 32 33  1  0  0  0  0
 33 35  1  6  0  0  0
M  END
>  <CHROM.1>
-150.38941131,135.79436580,-170.91718406,86.85281059,-134.25895760,167.14846832
-3.56243391,28.14600307,66.70748467,-0.49729757,0.15624265,-0.10860144

>  <Name>
ligand

>  <RI>
0

>  <Rbt.Current_Directory>
/home/itssahil/PROJECTS/Mol_Feturizer/Test_systems_manuscript/rnas/2g5k

>  <Rbt.Executable>
rbdock ($Id: //depot/dev/client3/rdock/2013.1/src/exe/rbdock.cxx#4 $)

>  <Rbt.Library>
libRbt.so (2013.1, Build901 2013/11/27)

>  <Rbt.Parameter_File>
/export/apps/rDock/src/rDock_2013.1_src/data/scripts/dock_solv.prm

>  <Rbt.Receptor>
prm/pocket_docking_3.prm

>  <SCORE>
-4.71975

>  <SCORE.INTER>
-5.69458

>  <SCORE.INTER.CONST>
1

>  <SCORE.INTER.POLAR>
0

>  <SCORE.INTER.ROT>
6

>  <SCORE.INTER.SOLV>
18.7594

>  <SCORE.INTER.VDW>
-17.6495

>  <SCORE.INTER.norm>
-0.153908

>  <SCORE.INTRA>
0.958953

>  <SCORE.INTRA.DIHEDRAL>
3.37809

>  <SCORE.INTRA.DIHEDRAL.0>
11.3972

>  <SCORE.INTRA.POLAR>
0

>  <SCORE.INTRA.POLAR.0>
0

>  <SCORE.INTRA.REPUL>
0

>  <SCORE.INTRA.REPUL.0>
0

>  <SCORE.INTRA.SOLV>
-0.591801

>  <SCORE.INTRA.SOLV.lig_0>
-92.3891

>  <SCORE.INTRA.VDW>
-0.434193

>  <SCORE.INTRA.VDW.0>
-2.90606

>  <SCORE.INTRA.norm>
0.0259176

>  <SCORE.RESTR>
0.0158772

>  <SCORE.RESTR.CAVITY>
0.0158772

>  <SCORE.RESTR.norm>
0.000429114

>  <SCORE.SYSTEM>
0

>  <SCORE.SYSTEM.CONST>
0

>  <SCORE.SYSTEM.DIHEDRAL>
0

>  <SCORE.SYSTEM.SOLV>
0

>  <SCORE.SYSTEM.norm>
0

>  <SCORE.heavy>
37

>  <SCORE.norm>
-0.127561

>  <RMSD>
1.253

$$$$
ligand
 OpenBabel02271912133D
libRbt.so/2013.1/901 2013/11/27
 37 40  0  0  0  0  0  0  0  0999 V2000
   -1.0840   26.6348   67.2945 C   0  0  1  0  0  0  0  0  0  0  0  0
   -2.2531   26.0748   68.1536 C   0  0  1  0  0  0  0  0  0  0  0  0
   -3.6180   26.2663   67.4654 C   0  0  0  0  0  0  0  0  0  0  0  0
   -3.8238   27.7836   67.1644 C   0  0  1  0  0  0  0  0  0  0  0  0
   -2.6723   28.3267   66.2574 C   0  0  1  0  0  0  0  0  0  0  0  0
   -2.9016   29.8779   65.9645 C   0  0  1  0  0  0  0  0  0  0  0  0
   -4.2779   30.0610   65.2603 C   0  0  1  0  0  0  0  0  0  0  0  0
   -5.3811   29.4730   66.1908 C   0  0  2  0  0  0  0  0  0  0  0  0
   -5.4675   31.8897   63.8634 C   0  0  0  0  0  0  0  0  0  0  0  0
   -2.0299   24.6481   68.4699 N   0  0  0  0  0  0  0  0  0  0  0  0
   -4.5379   31.5225   64.9788 N   0  0  0  0  0  0  0  0  0  0  0  0
   -0.8616   25.8668   66.0958 O   0  0  0  0  0  0  0  0  0  0  0  0
   -1.3838   28.0518   66.9605 O   0  0  0  0  0  0  0  0  0  0  0  0
   -5.1356   28.0562   66.4902 O   0  0  0  0  0  0  0  0  0  0  0  0
   -2.9286   30.5986   67.1897 O   0  0  0  0  0  0  0  0  0  0  0  0
   -6.6579   29.6020   65.5759 O   0  0  0  0  0  0  0  0  0  0  0  0
   -7.7635   29.2132   66.4278 C   0  0  2  0  0  0  0  0  0  0  0  0
   -8.4770   27.9306   65.9387 C   0  0  1  0  0  0  0  0  0  0  0  0
   -9.1955   28.1794   64.5734 C   0  0  2  0  0  0  0  0  0  0  0  0
  -10.2233   29.2785   64.7511 C   0  0  1  0  0  0  0  0  0  0  0  0
   -9.4985   30.5769   65.2162 C   0  0  1  0  0  0  0  0  0  0  0  0
  -10.4727   31.7319   65.4406 C   0  0  0  0  0  0  0  0  0  0  0  0
  -10.9254   29.5053   63.4648 N   0  0  0  0  0  0  0  0  0  0  0  0
   -8.7728   30.3120   66.4965 O   0  0  0  0  0  0  0  0  0  0  0  0
   -7.4803   26.8876   65.8547 O   0  0  0  0  0  0  0  0  0  0  0  0
   -9.8598   26.9867   64.1498 O   0  0  0  0  0  0  0  0  0  0  0  0
  -11.3623   31.3954   66.4772 O   0  0  0  0  0  0  0  0  0  0  0  0
    0.4798   25.7857   65.4000 C   0  0  1  0  0  0  0  0  0  0  0  0
    1.3317   24.6961   66.1070 C   0  0  1  0  0  0  0  0  0  0  0  0
    2.7251   24.5820   65.4234 C   0  0  2  0  0  0  0  0  0  0  0  0
    2.5312   24.1971   63.9360 C   0  0  1  0  0  0  0  0  0  0  0  0
    1.6791   25.2877   63.1933 C   0  0  0  0  0  0  0  0  0  0  0  0
    0.3100   25.3942   63.8981 C   0  0  2  0  0  0  0  0  0  0  0  0
    3.8535   24.0785   63.2757 N   0  0  0  0  0  0  0  0  0  0  0  0
   -0.4788   26.4151   63.1997 N   0  0  0  0  0  0  0  0  0  0  0  0
    1.5118   25.0525   67.4955 O   0  0  0  0  0  0  0  0  0  0  0  0
    3.4984   23.5680   66.1029 O   0  0  0  0  0  0  0  0  0  0  0  0
  1  2  1  0  0  0  0
  1 12  1  6  0  0  0
  1 13  1  0  0  0  0
  2  3  1  0  0  0  0
  2 10  1  6  0  0  0
  4  3  1  6  0  0  0
  4  5  1  0  0  0  0
  4 14  1  0  0  0  0
  5  6  1  0  0  0  0
  5 13  1  1  0  0  0
  6  7  1  0  0  0  0
  6 15  1  1  0  0  0
  7  8  1  0  0  0  0
  7 11  1  1  0  0  0
  8 14  1  0  0  0  0
  8 16  1  6  0  0  0
  9 11  1  0  0  0  0
 17 16  1  6  0  0  0
 17 18  1  0  0  0  0
 17 24  1  0  0  0  0
 18 19  1  0  0  0  0
 18 25  1  6  0  0  0
 19 20  1  0  0  0  0
 19 26  1  1  0  0  0
 20 21  1  0  0  0  0
 20 23  1  6  0  0  0
 21 22  1  1  0  0  0
 21 24  1  0  0  0  0
 22 27  1  0  0  0  0
 28 12  1  1  0  0  0
 28 29  1  0  0  0  0
 28 33  1  0  0  0  0
 29 30  1  0  0  0  0
 29 36  1  1  0  0  0
 30 31  1  0  0  0  0
 30 37  1  1  0  0  0
 31 32  1  0  0  0  0
 31 34  1  6  0  0  0
 32 33  1  0  0  0  0
 33 35  1  6  0  0  0
M  END
>  <CHROM.1>
-153.41714737,155.32133596,-173.70880326,83.31753452,-112.14276262,62.88766887
-3.86746055,27.74365274,65.69911375,-0.42975969,-0.02140480,0.03283153

>  <Name>
ligand

>  <RI>
0

>  <Rbt.Current_Directory>
/home/itssahil/PROJECTS/Mol_Feturizer/Test_systems_manuscript/rnas/2g5k

>  <Rbt.Executable>
rbdock ($Id: //depot/dev/client3/rdock/2013.1/src/exe/rbdock.cxx#4 $)

>  <Rbt.Library>
libRbt.so (2013.1, Build901 2013/11/27)

>  <Rbt.Parameter_File>
/export/apps/rDock/src/rDock_2013.1_src/data/scripts/dock_solv.prm

>  <Rbt.Receptor>
prm/pocket_docking_2.prm

>  <SCORE>
-2.58827

>  <SCORE.INTER>
-3.30151

>  <SCORE.INTER.CONST>
1

>  <SCORE.INTER.POLAR>
0

>  <SCORE.INTER.ROT>
6

>  <SCORE.INTER.SOLV>
17.4784

>  <SCORE.INTER.VDW>
-15.6271

>  <SCORE.INTER.norm>
-0.0892301

>  <SCORE.INTRA>
0.624813

>  <SCORE.INTRA.DIHEDRAL>
1.50974

>  <SCORE.INTRA.DIHEDRAL.0>
11.3972

>  <SCORE.INTRA.POLAR>
0

>  <SCORE.INTRA.POLAR.0>
0

>  <SCORE.INTRA.REPUL>
0

>  <SCORE.INTRA.REPUL.0>
0

>  <SCORE.INTRA.SOLV>
0.14906

>  <SCORE.INTRA.SOLV.lig_0>
-92.3891

>  <SCORE.INTRA.VDW>
-0.204589

>  <SCORE.INTRA.VDW.0>
-2.90606

>  <SCORE.INTRA.norm>
0.0168868

>  <SCORE.RESTR>
0.0884266

>  <SCORE.RESTR.CAVITY>
0.0884266

>  <SCORE.RESTR.norm>
0.00238991

>  <SCORE.SYSTEM>
0

>  <SCORE.SYSTEM.CONST>
0

>  <SCORE.SYSTEM.DIHEDRAL>
0

>  <SCORE.SYSTEM.SOLV>
0

>  <SCORE.SYSTEM.norm>
0

>  <SCORE.heavy>
37

>  <SCORE.norm>
-0.0699533

>  <RMSD>
1.263

$$$$
ligand
 OpenBabel02271912133D
libRbt.so/2013.1/901 2013/11/27
 37 40  0  0  0  0  0  0  0  0999 V2000
   -0.5859   26.6165   67.6454 C   0  0  1  0  0  0  0  0  0  0  0  0
   -1.7321   26.1677   68.5959 C   0  0  1  0  0  0  0  0  0  0  0  0
   -3.1191   26.3369   67.9471 C   0  0  0  0  0  0  0  0  0  0  0  0
   -3.2992   27.8272   67.5207 C   0  0  1  0  0  0  0  0  0  0  0  0
   -2.1730   28.2554   66.5248 C   0  0  1  0  0  0  0  0  0  0  0  0
   -2.3753   29.7808   66.1042 C   0  0  1  0  0  0  0  0  0  0  0  0
   -3.7746   29.9406   65.4407 C   0  0  1  0  0  0  0  0  0  0  0  0
   -4.8527   29.4684   66.4622 C   0  0  2  0  0  0  0  0  0  0  0  0
   -5.0555   31.6814   64.0127 C   0  0  0  0  0  0  0  0  0  0  0  0
   -1.5318   24.7685   69.0288 N   0  0  0  0  0  0  0  0  0  0  0  0
   -4.0094   31.3786   65.0408 N   0  0  0  0  0  0  0  0  0  0  0  0
   -0.4327   25.7400   66.5120 O   0  0  0  0  0  0  0  0  0  0  0  0
   -0.8638   28.0066   67.1986 O   0  0  0  0  0  0  0  0  0  0  0  0
   -4.6305   28.0769   66.8765 O   0  0  0  0  0  0  0  0  0  0  0  0
   -2.3336   30.6068   67.2606 O   0  0  0  0  0  0  0  0  0  0  0  0
   -6.1503   29.5793   65.8886 O   0  0  0  0  0  0  0  0  0  0  0  0
   -7.2158   29.1008   66.7458 C   0  0  2  0  0  0  0  0  0  0  0  0
   -8.6036   29.1495   66.0639 C   0  0  1  0  0  0  0  0  0  0  0  0
   -9.0425   30.6260   65.7997 C   0  0  2  0  0  0  0  0  0  0  0  0
   -9.1165   31.3617   67.1222 C   0  0  1  0  0  0  0  0  0  0  0  0
   -7.7106   31.3358   67.7936 C   0  0  1  0  0  0  0  0  0  0  0  0
   -7.7059   32.0408   69.1486 C   0  0  0  0  0  0  0  0  0  0  0  0
   -9.5540   32.7581   66.8822 N   0  0  0  0  0  0  0  0  0  0  0  0
   -7.2796   29.9180   67.9942 O   0  0  0  0  0  0  0  0  0  0  0  0
   -8.5141   28.3753   64.8471 O   0  0  0  0  0  0  0  0  0  0  0  0
  -10.3325   30.6464   65.1844 O   0  0  0  0  0  0  0  0  0  0  0  0
   -8.5028   31.3155   70.0532 O   0  0  0  0  0  0  0  0  0  0  0  0
    0.8665   25.5884   65.7509 C   0  0  1  0  0  0  0  0  0  0  0  0
    1.7525   24.5543   66.4981 C   0  0  1  0  0  0  0  0  0  0  0  0
    3.1042   24.3704   65.7491 C   0  0  2  0  0  0  0  0  0  0  0  0
    2.8241   23.8636   64.3127 C   0  0  1  0  0  0  0  0  0  0  0  0
    1.9358   24.8958   63.5299 C   0  0  0  0  0  0  0  0  0  0  0  0
    0.6096   25.0738   64.2994 C   0  0  2  0  0  0  0  0  0  0  0  0
    4.1060   23.6778   63.5912 N   0  0  0  0  0  0  0  0  0  0  0  0
   -0.2132   26.0396   63.5630 N   0  0  0  0  0  0  0  0  0  0  0  0
    2.0130   25.0243   67.8392 O   0  0  0  0  0  0  0  0  0  0  0  0
    3.9105   23.4099   66.4669 O   0  0  0  0  0  0  0  0  0  0  0  0
  1  2  1  0  0  0  0
  1 12  1  6  0  0  0
  1 13  1  0  0  0  0
  2  3  1  0  0  0  0
  2 10  1  6  0  0  0
  4  3  1  6  0  0  0
  4  5  1  0  0  0  0
  4 14  1  0  0  0  0
  5  6  1  0  0  0  0
  5 13  1  1  0  0  0
  6  7  1  0  0  0  0
  6 15  1  1  0  0  0
  7  8  1  0  0  0  0
  7 11  1  1  0  0  0
  8 14  1  0  0  0  0
  8 16  1  6  0  0  0
  9 11  1  0  0  0  0
 17 16  1  6  0  0  0
 17 18  1  0  0  0  0
 17 24  1  0  0  0  0
 18 19  1  0  0  0  0
 18 25  1  6  0  0  0
 19 20  1  0  0  0  0
 19 26  1  1  0  0  0
 20 21  1  0  0  0  0
 20 23  1  6  0  0  0
 21 22  1  1  0  0  0
 21 24  1  0  0  0  0
 22 27  1  0  0  0  0
 28 12  1  1  0  0  0
 28 29  1  0  0  0  0
 28 33  1  0  0  0  0
 29 30  1  0  0  0  0
 29 36  1  1  0  0  0
 30 31  1  0  0  0  0
 30 37  1  1  0  0  0
 31 32  1  0  0  0  0
 31 34  1  6  0  0  0
 32 33  1  0  0  0  0
 33 35  1  6  0  0  0
M  END
>  <CHROM.1>
-155.14787973,160.24818472,177.20473458,83.85041125,-176.34740852,66.38100303
-3.27121264,28.05919903,66.43103451,-0.03946190,-0.55198732,1.68275901

>  <Name>
ligand

>  <RI>
0

>  <Rbt.Current_Directory>
/home/itssahil/PROJECTS/Mol_Feturizer/Test_systems_manuscript/rnas/2g5k

>  <Rbt.Executable>
rbdock ($Id: //depot/dev/client3/rdock/2013.1/src/exe/rbdock.cxx#4 $)

>  <Rbt.Library>
libRbt.so (2013.1, Build901 2013/11/27)

>  <Rbt.Parameter_File>
/export/apps/rDock/src/rDock_2013.1_src/data/scripts/dock_solv.prm

>  <Rbt.Receptor>
prm/pocket_docking_4.prm

>  <SCORE>
-10.758

>  <SCORE.INTER>
-7.95666

>  <SCORE.INTER.CONST>
1

>  <SCORE.INTER.POLAR>
0

>  <SCORE.INTER.ROT>
6

>  <SCORE.INTER.SOLV>
21.8475

>  <SCORE.INTER.VDW>
-20.1869

>  <SCORE.INTER.norm>
-0.215045

>  <SCORE.INTRA>
-2.80132

>  <SCORE.INTRA.DIHEDRAL>
-5.71771

>  <SCORE.INTRA.DIHEDRAL.0>
11.3972

>  <SCORE.INTRA.POLAR>
0

>  <SCORE.INTRA.POLAR.0>
0

>  <SCORE.INTRA.REPUL>
0

>  <SCORE.INTRA.REPUL.0>
0

>  <SCORE.INTRA.SOLV>
-0.330917

>  <SCORE.INTRA.SOLV.lig_0>
-92.3891

>  <SCORE.INTRA.VDW>
0.222994

>  <SCORE.INTRA.VDW.0>
-2.90606

>  <SCORE.INTRA.norm>
-0.0757113

>  <SCORE.RESTR>
0

>  <SCORE.RESTR.CAVITY>
0

>  <SCORE.RESTR.norm>
0

>  <SCORE.SYSTEM>
0

>  <SCORE.SYSTEM.CONST>
0

>  <SCORE.SYSTEM.DIHEDRAL>
0

>  <SCORE.SYSTEM.SOLV>
0

>  <SCORE.SYSTEM.norm>
0

>  <SCORE.heavy>
37

>  <SCORE.norm>
-0.290756

>  <RMSD>
1.273

$$$$
ligand
 OpenBabel02271912133D
libRbt.so/2013.1/901 2013/11/27
 37 40  0  0  0  0  0  0  0  0999 V2000
   -0.6042   26.6117   67.6115 C   0  0  1  0  0  0  0  0  0  0  0  0
   -1.7687   26.1413   68.5287 C   0  0  1  0  0  0  0  0  0  0  0  0
   -3.1426   26.3235   67.8560 C   0  0  0  0  0  0  0  0  0  0  0  0
   -3.3160   27.8226   67.4586 C   0  0  1  0  0  0  0  0  0  0  0  0
   -2.1706   28.2733   66.4951 C   0  0  1  0  0  0  0  0  0  0  0  0
   -2.3664   29.8074   66.1039 C   0  0  1  0  0  0  0  0  0  0  0  0
   -3.7523   29.9804   65.4160 C   0  0  1  0  0  0  0  0  0  0  0  0
   -4.8500   29.4851   66.4051 C   0  0  2  0  0  0  0  0  0  0  0  0
   -5.0080   31.7510   64.0023 C   0  0  0  0  0  0  0  0  0  0  0  0
   -1.5754   24.7332   68.9350 N   0  0  0  0  0  0  0  0  0  0  0  0
   -3.9808   31.4266   65.0429 N   0  0  0  0  0  0  0  0  0  0  0  0
   -0.4271   25.7603   66.4625 O   0  0  0  0  0  0  0  0  0  0  0  0
   -0.8748   28.0110   67.1896 O   0  0  0  0  0  0  0  0  0  0  0  0
   -4.6344   28.0851   66.7934 O   0  0  0  0  0  0  0  0  0  0  0  0
   -2.3489   30.6080   67.2786 O   0  0  0  0  0  0  0  0  0  0  0  0
   -6.1360   29.6074   65.8081 O   0  0  0  0  0  0  0  0  0  0  0  0
   -7.2181   29.1114   66.6340 C   0  0  2  0  0  0  0  0  0  0  0  0
   -8.5997   29.2265   65.9474 C   0  0  1  0  0  0  0  0  0  0  0  0
   -9.0027   30.7242   65.7553 C   0  0  2  0  0  0  0  0  0  0  0  0
   -9.0690   31.3942   67.1127 C   0  0  1  0  0  0  0  0  0  0  0  0
   -7.6688   31.3019   67.7900 C   0  0  1  0  0  0  0  0  0  0  0  0
   -7.6573   31.9378   69.1788 C   0  0  0  0  0  0  0  0  0  0  0  0
   -9.4727   32.8106   66.9407 N   0  0  0  0  0  0  0  0  0  0  0  0
   -7.2718   29.8662   67.9215 O   0  0  0  0  0  0  0  0  0  0  0  0
   -8.5195   28.5125   64.6936 O   0  0  0  0  0  0  0  0  0  0  0  0
  -10.2876   30.8055   65.1343 O   0  0  0  0  0  0  0  0  0  0  0  0
   -8.5324   31.2290   70.0222 O   0  0  0  0  0  0  0  0  0  0  0  0
    0.8965   25.5978   65.7473 C   0  0  1  0  0  0  0  0  0  0  0  0
    1.7492   24.5601   66.5276 C   0  0  1  0  0  0  0  0  0  0  0  0
    3.1247   24.3649   65.8263 C   0  0  2  0  0  0  0  0  0  0  0  0
    2.8910   23.8557   64.3826 C   0  0  1  0  0  0  0  0  0  0  0  0
    2.0373   24.8913   63.5666 C   0  0  0  0  0  0  0  0  0  0  0  0
    0.6865   25.0804   64.2892 C   0  0  2  0  0  0  0  0  0  0  0  0
    4.1959   23.6591   63.7064 N   0  0  0  0  0  0  0  0  0  0  0  0
   -0.1038   26.0494   63.5221 N   0  0  0  0  0  0  0  0  0  0  0  0
    1.9664   25.0325   67.8756 O   0  0  0  0  0  0  0  0  0  0  0  0
    3.8992   23.4014   66.5743 O   0  0  0  0  0  0  0  0  0  0  0  0
  1  2  1  0  0  0  0
  1 12  1  6  0  0  0
  1 13  1  0  0  0  0
  2  3  1  0  0  0  0
  2 10  1  6  0  0  0
  4  3  1  6  0  0  0
  4  5  1  0  0  0  0
  4 14  1  0  0  0  0
  5  6  1  0  0  0  0
  5 13  1  1  0  0  0
  6  7  1  0  0  0  0
  6 15  1  1  0  0  0
  7  8  1  0  0  0  0
  7 11  1  1  0  0  0
  8 14  1  0  0  0  0
  8 16  1  6  0  0  0
  9 11  1  0  0  0  0
 17 16  1  6  0  0  0
 17 18  1  0  0  0  0
 17 24  1  0  0  0  0
 18 19  1  0  0  0  0
 18 25  1  6  0  0  0
 19 20  1  0  0  0  0
 19 26  1  1  0  0  0
 20 21  1  0  0  0  0
 20 23  1  6  0  0  0
 21 22  1  1  0  0  0
 21 24  1  0  0  0  0
 22 27  1  0  0  0  0
 28 12  1  1  0  0  0
 28 29  1  0  0  0  0
 28 33  1  0  0  0  0
 29 30  1  0  0  0  0
 29 36  1  1  0  0  0
 30 31  1  0  0  0  0
 30 37  1  1  0  0  0
 31 32  1  0  0  0  0
 31 34  1  6  0  0  0
 32 33  1  0  0  0  0
 33 35  1  6  0  0  0
M  END
>  <CHROM.1>
-153.44179662,160.34417496,177.29901388,81.98938495,-178.66495616,63.25922855
-3.25381408,28.07256745,66.41009270,-0.01473801,-0.55426549,1.71681670

>  <Name>
ligand

>  <RI>
0

>  <Rbt.Current_Directory>
/home/itssahil/PROJECTS/Mol_Feturizer/Test_systems_manuscript/rnas/2g5k

>  <Rbt.Executable>
rbdock ($Id: //depot/dev/client3/rdock/2013.1/src/exe/rbdock.cxx#4 $)

>  <Rbt.Library>
libRbt.so (2013.1, Build901 2013/11/27)

>  <Rbt.Parameter_File>
/export/apps/rDock/src/rDock_2013.1_src/data/scripts/dock_solv.prm

>  <Rbt.Receptor>
prm/pocket_docking_3.prm

>  <SCORE>
-10.7159

>  <SCORE.INTER>
-7.902

>  <SCORE.INTER.CONST>
1

>  <SCORE.INTER.POLAR>
0

>  <SCORE.INTER.ROT>
6

>  <SCORE.INTER.SOLV>
21.5575

>  <SCORE.INTER.VDW>
-20.0538

>  <SCORE.INTER.norm>
-0.213568

>  <SCORE.INTRA>
-2.81389

>  <SCORE.INTRA.DIHEDRAL>
-5.90215

>  <SCORE.INTRA.DIHEDRAL.0>
11.3972

>  <SCORE.INTRA.POLAR>
0

>  <SCORE.INTRA.POLAR.0>
0

>  <SCORE.INTRA.REPUL>
0

>  <SCORE.INTRA.REPUL.0>
0

>  <SCORE.INTRA.SOLV>
-0.290417

>  <SCORE.INTRA.SOLV.lig_0>
-92.3891

>  <SCORE.INTRA.VDW>
0.28239

>  <SCORE.INTRA.VDW.0>
-2.90606

>  <SCORE.INTRA.norm>
-0.0760512

>  <SCORE.RESTR>
0

>  <SCORE.RESTR.CAVITY>
0

>  <SCORE.RESTR.norm>
0

>  <SCORE.SYSTEM>
0

>  <SCORE.SYSTEM.CONST>
0

>  <SCORE.SYSTEM.DIHEDRAL>
0

>  <SCORE.SYSTEM.SOLV>
0

>  <SCORE.SYSTEM.norm>
0

>  <SCORE.heavy>
37

>  <SCORE.norm>
-0.289619

>  <RMSD>
1.308

$$$$
ligand
 OpenBabel02271912133D
libRbt.so/2013.1/901 2013/11/27
 37 40  0  0  0  0  0  0  0  0999 V2000
   -0.7916   26.6177   67.2168 C   0  0  1  0  0  0  0  0  0  0  0  0
   -1.9857   26.0535   68.0380 C   0  0  1  0  0  0  0  0  0  0  0  0
   -3.3277   26.2344   67.3033 C   0  0  0  0  0  0  0  0  0  0  0  0
   -3.5322   27.7494   66.9900 C   0  0  1  0  0  0  0  0  0  0  0  0
   -2.3539   28.2962   66.1204 C   0  0  1  0  0  0  0  0  0  0  0  0
   -2.5824   29.8450   65.8142 C   0  0  1  0  0  0  0  0  0  0  0  0
   -3.9352   30.0174   65.0632 C   0  0  1  0  0  0  0  0  0  0  0  0
   -5.0657   29.4259   65.9581 C   0  0  2  0  0  0  0  0  0  0  0  0
   -5.1820   31.8334   63.7000 C   0  0  0  0  0  0  0  0  0  0  0  0
   -1.7649   24.6294   68.3669 N   0  0  0  0  0  0  0  0  0  0  0  0
   -4.1943   31.4763   64.7677 N   0  0  0  0  0  0  0  0  0  0  0  0
   -0.5243   25.8468   66.0291 O   0  0  0  0  0  0  0  0  0  0  0  0
   -1.0883   28.0316   66.8676 O   0  0  0  0  0  0  0  0  0  0  0  0
   -4.8220   28.0116   66.2708 O   0  0  0  0  0  0  0  0  0  0  0  0
   -2.6551   30.5698   67.0351 O   0  0  0  0  0  0  0  0  0  0  0  0
   -6.3218   29.5451   65.3000 O   0  0  0  0  0  0  0  0  0  0  0  0
   -7.4544   29.1665   66.1203 C   0  0  2  0  0  0  0  0  0  0  0  0
   -8.3347   28.0769   65.4635 C   0  0  1  0  0  0  0  0  0  0  0  0
   -9.0370   28.6272   64.1805 C   0  0  2  0  0  0  0  0  0  0  0  0
   -9.9119   29.8033   64.5642 C   0  0  1  0  0  0  0  0  0  0  0  0
   -9.0187   30.9108   65.1993 C   0  0  1  0  0  0  0  0  0  0  0  0
   -9.8324   32.1276   65.6359 C   0  0  0  0  0  0  0  0  0  0  0  0
  -10.5994   30.3175   63.3551 N   0  0  0  0  0  0  0  0  0  0  0  0
   -8.3127   30.3573   66.3957 O   0  0  0  0  0  0  0  0  0  0  0  0
   -7.4820   26.9447   65.1821 O   0  0  0  0  0  0  0  0  0  0  0  0
   -9.8559   27.6092   63.6006 O   0  0  0  0  0  0  0  0  0  0  0  0
  -10.7371   31.7451   66.6432 O   0  0  0  0  0  0  0  0  0  0  0  0
    0.8691   25.6203   65.4838 C   0  0  1  0  0  0  0  0  0  0  0  0
    1.5647   24.5387   66.3551 C   0  0  1  0  0  0  0  0  0  0  0  0
    3.0060   24.2769   65.8299 C   0  0  2  0  0  0  0  0  0  0  0  0
    2.9307   23.7845   64.3636 C   0  0  1  0  0  0  0  0  0  0  0  0
    2.2385   24.8642   63.4568 C   0  0  0  0  0  0  0  0  0  0  0  0
    0.8186   25.1186   64.0061 C   0  0  2  0  0  0  0  0  0  0  0  0
    4.2988   23.5248   63.8544 N   0  0  0  0  0  0  0  0  0  0  0  0
    0.1797   26.1283   63.1551 N   0  0  0  0  0  0  0  0  0  0  0  0
    1.6338   24.9955   67.7240 O   0  0  0  0  0  0  0  0  0  0  0  0
    3.6319   23.2734   66.6601 O   0  0  0  0  0  0  0  0  0  0  0  0
  1  2  1  0  0  0  0
  1 12  1  6  0  0  0
  1 13  1  0  0  0  0
  2  3  1  0  0  0  0
  2 10  1  6  0  0  0
  4  3  1  6  0  0  0
  4  5  1  0  0  0  0
  4 14  1  0  0  0  0
  5  6  1  0  0  0  0
  5 13  1  1  0  0  0
  6  7  1  0  0  0  0
  6 15  1  1  0  0  0
  7  8  1  0  0  0  0
  7 11  1  1  0  0  0
  8 14  1  0  0  0  0
  8 16  1  6  0  0  0
  9 11  1  0  0  0  0
 17 16  1  6  0  0  0
 17 18  1  0  0  0  0
 17 24  1  0  0  0  0
 18 19  1  0  0  0  0
 18 25  1  6  0  0  0
 19 20  1  0  0  0  0
 19 26  1  1  0  0  0
 20 21  1  0  0  0  0
 20 23  1  6  0  0  0
 21 22  1  1  0  0  0
 21 24  1  0  0  0  0
 22 27  1  0  0  0  0
 28 12  1  1  0  0  0
 28 29  1  0  0  0  0
 28 33  1  0  0  0  0
 29 30  1  0  0  0  0
 29 36  1  1  0  0  0
 30 31  1  0  0  0  0
 30 37  1  1  0  0  0
 31 32  1  0  0  0  0
 31 34  1  6  0  0  0
 32 33  1  0  0  0  0
 33 35  1  6  0  0  0
M  END
>  <CHROM.1>
-144.99007968,160.71683022,-173.06932050,76.96911688,-124.90153402,63.14978982
-3.54351631,27.75141763,65.63976216,-0.44247066,-0.17496282,0.25893809

>  <Name>
ligand

>  <RI>
0

>  <Rbt.Current_Directory>
/home/itssahil/PROJECTS/Mol_Feturizer/Test_systems_manuscript/rnas/2g5k

>  <Rbt.Executable>
rbdock ($Id: //depot/dev/client3/rdock/2013.1/src/exe/rbdock.cxx#4 $)

>  <Rbt.Library>
libRbt.so (2013.1, Build901 2013/11/27)

>  <Rbt.Parameter_File>
/export/apps/rDock/src/rDock_2013.1_src/data/scripts/dock_solv.prm

>  <Rbt.Receptor>
prm/pocket_docking_3.prm

>  <SCORE>
-4.67952

>  <SCORE.INTER>
-5.66049

>  <SCORE.INTER.CONST>
1

>  <SCORE.INTER.POLAR>
0

>  <SCORE.INTER.ROT>
6

>  <SCORE.INTER.SOLV>
19.0682

>  <SCORE.INTER.VDW>
-17.7297

>  <SCORE.INTER.norm>
-0.152986

>  <SCORE.INTRA>
0.980975

>  <SCORE.INTRA.DIHEDRAL>
2.11974

>  <SCORE.INTRA.DIHEDRAL.0>
11.3972

>  <SCORE.INTRA.POLAR>
0

>  <SCORE.INTRA.POLAR.0>
0

>  <SCORE.INTRA.REPUL>
0

>  <SCORE.INTRA.REPUL.0>
0

>  <SCORE.INTRA.SOLV>
0.076754

>  <SCORE.INTRA.SOLV.lig_0>
-92.3891

>  <SCORE.INTRA.VDW>
-0.117273

>  <SCORE.INTRA.VDW.0>
-2.90606

>  <SCORE.INTRA.norm>
0.0265128

>  <SCORE.RESTR>
0

>  <SCORE.RESTR.CAVITY>
0

>  <SCORE.RESTR.norm>
0

>  <SCORE.SYSTEM>
0

>  <SCORE.SYSTEM.CONST>
0

>  <SCORE.SYSTEM.DIHEDRAL>
0

>  <SCORE.SYSTEM.SOLV>
0

>  <SCORE.SYSTEM.norm>
0

>  <SCORE.heavy>
37

>  <SCORE.norm>
-0.126473

>  <RMSD>
1.315

$$$$
ligand
 OpenBabel02271912133D
libRbt.so/2013.1/901 2013/11/27
 37 40  0  0  0  0  0  0  0  0999 V2000
   -0.5960   26.5947   67.6008 C   0  0  1  0  0  0  0  0  0  0  0  0
   -1.7671   26.1480   68.5214 C   0  0  1  0  0  0  0  0  0  0  0  0
   -3.1380   26.3416   67.8458 C   0  0  0  0  0  0  0  0  0  0  0  0
   -3.2918   27.8390   67.4342 C   0  0  1  0  0  0  0  0  0  0  0  0
   -2.1398   28.2658   66.4675 C   0  0  1  0  0  0  0  0  0  0  0  0
   -2.3155   29.7985   66.0617 C   0  0  1  0  0  0  0  0  0  0  0  0
   -3.6985   29.9829   65.3710 C   0  0  1  0  0  0  0  0  0  0  0  0
   -4.8034   29.5112   66.3637 C   0  0  2  0  0  0  0  0  0  0  0  0
   -4.9555   31.7596   63.9661 C   0  0  0  0  0  0  0  0  0  0  0  0
   -1.5923   24.7414   68.9411 N   0  0  0  0  0  0  0  0  0  0  0  0
   -3.9081   31.4283   64.9840 N   0  0  0  0  0  0  0  0  0  0  0  0
   -0.4290   25.7303   66.4601 O   0  0  0  0  0  0  0  0  0  0  0  0
   -0.8481   27.9933   67.1656 O   0  0  0  0  0  0  0  0  0  0  0  0
   -4.6062   28.1122   66.7654 O   0  0  0  0  0  0  0  0  0  0  0  0
   -2.2886   30.6099   67.2288 O   0  0  0  0  0  0  0  0  0  0  0  0
   -6.0871   29.6444   65.7644 O   0  0  0  0  0  0  0  0  0  0  0  0
   -7.1746   29.1548   66.5871 C   0  0  2  0  0  0  0  0  0  0  0  0
   -8.5530   29.2745   65.8948 C   0  0  1  0  0  0  0  0  0  0  0  0
   -8.9488   30.7734   65.6980 C   0  0  2  0  0  0  0  0  0  0  0  0
   -9.0175   31.4466   67.0538 C   0  0  1  0  0  0  0  0  0  0  0  0
   -7.6204   31.3497   67.7367 C   0  0  1  0  0  0  0  0  0  0  0  0
   -7.6116   31.9885   69.1242 C   0  0  0  0  0  0  0  0  0  0  0  0
   -9.4144   32.8644   66.8772 N   0  0  0  0  0  0  0  0  0  0  0  0
   -7.2301   29.9126   67.8728 O   0  0  0  0  0  0  0  0  0  0  0  0
   -8.4710   28.5574   64.6430 O   0  0  0  0  0  0  0  0  0  0  0  0
  -10.2309   30.8589   65.0719 O   0  0  0  0  0  0  0  0  0  0  0  0
   -8.4695   31.2667   69.9741 O   0  0  0  0  0  0  0  0  0  0  0  0
    0.8793   25.5868   65.7131 C   0  0  1  0  0  0  0  0  0  0  0  0
    1.7563   24.5447   66.4599 C   0  0  1  0  0  0  0  0  0  0  0  0
    3.1169   24.3687   65.7252 C   0  0  2  0  0  0  0  0  0  0  0  0
    2.8542   23.8774   64.2803 C   0  0  1  0  0  0  0  0  0  0  0  0
    1.9753   24.9179   63.4979 C   0  0  0  0  0  0  0  0  0  0  0  0
    0.6399   25.0877   64.2532 C   0  0  2  0  0  0  0  0  0  0  0  0
    4.1447   23.6992   63.5723 N   0  0  0  0  0  0  0  0  0  0  0  0
   -0.1740   26.0613   63.5173 N   0  0  0  0  0  0  0  0  0  0  0  0
    2.0007   25.0004   67.8089 O   0  0  0  0  0  0  0  0  0  0  0  0
    3.9146   23.4007   66.4425 O   0  0  0  0  0  0  0  0  0  0  0  0
  1  2  1  0  0  0  0
  1 12  1  6  0  0  0
  1 13  1  0  0  0  0
  2  3  1  0  0  0  0
  2 10  1  6  0  0  0
  4  3  1  6  0  0  0
  4  5  1  0  0  0  0
  4 14  1  0  0  0  0
  5  6  1  0  0  0  0
  5 13  1  1  0  0  0
  6  7  1  0  0  0  0
  6 15  1  1  0  0  0
  7  8  1  0  0  0  0
  7 11  1  1  0  0  0
  8 14  1  0  0  0  0
  8 16  1  6  0  0  0
  9 11  1  0  0  0  0
 17 16  1  6  0  0  0
 17 18  1  0  0  0  0
 17 24  1  0  0  0  0
 18 19  1  0  0  0  0
 18 25  1  6  0  0  0
 19 20  1  0  0  0  0
 19 26  1  1  0  0  0
 20 21  1  0  0  0  0
 20 23  1  6  0  0  0
 21 22  1  1  0  0  0
 21 24  1  0  0  0  0
 22 27  1  0  0  0  0
 28 12  1  1  0  0  0
 28 29  1  0  0  0  0
 28 33  1  0  0  0  0
 29 30  1  0  0  0  0
 29 36  1  1  0  0  0
 30 31  1  0  0  0  0
 30 37  1  1  0  0  0
 31 32  1  0  0  0  0
 31 34  1  6  0  0  0
 32 33  1  0  0  0  0
 33 35  1  6  0  0  0
M  END
>  <CHROM.1>
-156.00598780,161.95371744,176.56713867,83.85558684,-178.33984394,64.60393120
-3.23105784,28.09017329,66.36162040,-0.01524365,-0.56013660,1.71715997

>  <Name>
ligand

>  <RI>
0

>  <Rbt.Current_Directory>
/home/itssahil/PROJECTS/Mol_Feturizer/Test_systems_manuscript/rnas/2g5k

>  <Rbt.Executable>
rbdock ($Id: //depot/dev/client3/rdock/2013.1/src/exe/rbdock.cxx#4 $)

>  <Rbt.Library>
libRbt.so (2013.1, Build901 2013/11/27)

>  <Rbt.Parameter_File>
/export/apps/rDock/src/rDock_2013.1_src/data/scripts/dock_solv.prm

>  <Rbt.Receptor>
prm/pocket_docking_3.prm

>  <SCORE>
-10.6623

>  <SCORE.INTER>
-7.80124

>  <SCORE.INTER.CONST>
1

>  <SCORE.INTER.POLAR>
0

>  <SCORE.INTER.ROT>
6

>  <SCORE.INTER.SOLV>
21.5223

>  <SCORE.INTER.VDW>
-19.9749

>  <SCORE.INTER.norm>
-0.210844

>  <SCORE.INTRA>
-2.86104

>  <SCORE.INTRA.DIHEDRAL>
-6.01893

>  <SCORE.INTRA.DIHEDRAL.0>
11.3972

>  <SCORE.INTRA.POLAR>
0

>  <SCORE.INTRA.POLAR.0>
0

>  <SCORE.INTRA.REPUL>
0

>  <SCORE.INTRA.REPUL.0>
0

>  <SCORE.INTRA.SOLV>
-0.326248

>  <SCORE.INTRA.SOLV.lig_0>
-92.3891

>  <SCORE.INTRA.VDW>
0.311547

>  <SCORE.INTRA.VDW.0>
-2.90606

>  <SCORE.INTRA.norm>
-0.0773254

>  <SCORE.RESTR>
0

>  <SCORE.RESTR.CAVITY>
0

>  <SCORE.RESTR.norm>
0

>  <SCORE.SYSTEM>
0

>  <SCORE.SYSTEM.CONST>
0

>  <SCORE.SYSTEM.DIHEDRAL>
0

>  <SCORE.SYSTEM.SOLV>
0

>  <SCORE.SYSTEM.norm>
0

>  <SCORE.heavy>
37

>  <SCORE.norm>
-0.28817

>  <RMSD>
1.326

$$$$
ligand
 OpenBabel02271912133D
libRbt.so/2013.1/901 2013/11/27
 37 40  0  0  0  0  0  0  0  0999 V2000
   -0.6083   26.6090   67.6871 C   0  0  1  0  0  0  0  0  0  0  0  0
   -1.7666   26.1608   68.6231 C   0  0  1  0  0  0  0  0  0  0  0  0
   -3.1454   26.3325   67.9576 C   0  0  0  0  0  0  0  0  0  0  0  0
   -3.3183   27.8234   67.5305 C   0  0  1  0  0  0  0  0  0  0  0  0
   -2.1795   28.2511   66.5488 C   0  0  1  0  0  0  0  0  0  0  0  0
   -2.3747   29.7772   66.1274 C   0  0  1  0  0  0  0  0  0  0  0  0
   -3.7656   29.9395   65.4470 C   0  0  1  0  0  0  0  0  0  0  0  0
   -4.8567   29.4676   66.4548 C   0  0  2  0  0  0  0  0  0  0  0  0
   -5.0300   31.6837   64.0086 C   0  0  0  0  0  0  0  0  0  0  0  0
   -1.5734   24.7609   69.0570 N   0  0  0  0  0  0  0  0  0  0  0  0
   -3.9937   31.3781   65.0457 N   0  0  0  0  0  0  0  0  0  0  0  0
   -0.4424   25.7335   66.5548 O   0  0  0  0  0  0  0  0  0  0  0  0
   -0.8789   27.9999   67.2384 O   0  0  0  0  0  0  0  0  0  0  0  0
   -4.6414   28.0754   66.8704 O   0  0  0  0  0  0  0  0  0  0  0  0
   -2.3461   30.6020   67.2850 O   0  0  0  0  0  0  0  0  0  0  0  0
   -6.1470   29.5808   65.8655 O   0  0  0  0  0  0  0  0  0  0  0  0
   -7.2261   29.1281   66.7198 C   0  0  2  0  0  0  0  0  0  0  0  0
   -8.6141   29.2415   66.0459 C   0  0  1  0  0  0  0  0  0  0  0  0
   -8.9976   30.7380   65.8097 C   0  0  2  0  0  0  0  0  0  0  0  0
   -9.0376   31.4527   67.1451 C   0  0  1  0  0  0  0  0  0  0  0  0
   -7.6308   31.3616   67.8087 C   0  0  1  0  0  0  0  0  0  0  0  0
   -7.5932   32.0421   69.1757 C   0  0  0  0  0  0  0  0  0  0  0  0
   -9.4227   32.8687   66.9316 N   0  0  0  0  0  0  0  0  0  0  0  0
   -7.2532   29.9251   67.9825 O   0  0  0  0  0  0  0  0  0  0  0  0
   -8.5596   28.4859   64.8154 O   0  0  0  0  0  0  0  0  0  0  0  0
  -10.2887   30.8182   65.2014 O   0  0  0  0  0  0  0  0  0  0  0  0
   -8.4372   31.3498   70.0634 O   0  0  0  0  0  0  0  0  0  0  0  0
    0.8684   25.5735   65.8157 C   0  0  1  0  0  0  0  0  0  0  0  0
    1.7431   24.5487   66.5887 C   0  0  1  0  0  0  0  0  0  0  0  0
    3.1062   24.3564   65.8629 C   0  0  2  0  0  0  0  0  0  0  0  0
    2.8484   23.8325   64.4285 C   0  0  1  0  0  0  0  0  0  0  0  0
    1.9721   24.8549   63.6199 C   0  0  0  0  0  0  0  0  0  0  0  0
    0.6341   25.0415   64.3666 C   0  0  2  0  0  0  0  0  0  0  0  0
    4.1414   23.6387   63.7292 N   0  0  0  0  0  0  0  0  0  0  0  0
   -0.1775   25.9980   63.6062 N   0  0  0  0  0  0  0  0  0  0  0  0
    1.9828   25.0348   67.9280 O   0  0  0  0  0  0  0  0  0  0  0  0
    3.9016   23.4050   66.6045 O   0  0  0  0  0  0  0  0  0  0  0  0
  1  2  1  0  0  0  0
  1 12  1  6  0  0  0
  1 13  1  0  0  0  0
  2  3  1  0  0  0  0
  2 10  1  6  0  0  0
  4  3  1  6  0  0  0
  4  5  1  0  0  0  0
  4 14  1  0  0  0  0
  5  6  1  0  0  0  0
  5 13  1  1  0  0  0
  6  7  1  0  0  0  0
  6 15  1  1  0  0  0
  7  8  1  0  0  0  0
  7 11  1  1  0  0  0
  8 14  1  0  0  0  0
  8 16  1  6  0  0  0
  9 11  1  0  0  0  0
 17 16  1  6  0  0  0
 17 18  1  0  0  0  0
 17 24  1  0  0  0  0
 18 19  1  0  0  0  0
 18 25  1  6  0  0  0
 19 20  1  0  0  0  0
 19 26  1  1  0  0  0
 20 21  1  0  0  0  0
 20 23  1  6  0  0  0
 21 22  1  1  0  0  0
 21 24  1  0  0  0  0
 22 27  1  0  0  0  0
 28 12  1  1  0  0  0
 28 29  1  0  0  0  0
 28 33  1  0  0  0  0
 29 30  1  0  0  0  0
 29 36  1  1  0  0  0
 30 31  1  0  0  0  0
 30 37  1  1  0  0  0
 31 32  1  0  0  0  0
 31 34  1  6  0  0  0
 32 33  1  0  0  0  0
 33 35  1  6  0  0  0
M  END
>  <CHROM.1>
-154.68933826,160.45443009,178.39927315,82.93427770,-179.08911307,65.03325050
-3.25860530,28.07368473,66.46457560,-0.02774130,-0.55889317,1.68852820

>  <Name>
ligand

>  <RI>
0

>  <Rbt.Current_Directory>
/home/itssahil/PROJECTS/Mol_Feturizer/Test_systems_manuscript/rnas/2g5k

>  <Rbt.Executable>
rbdock ($Id: //depot/dev/client3/rdock/2013.1/src/exe/rbdock.cxx#4 $)

>  <Rbt.Library>
libRbt.so (2013.1, Build901 2013/11/27)

>  <Rbt.Parameter_File>
/export/apps/rDock/src/rDock_2013.1_src/data/scripts/dock_solv.prm

>  <Rbt.Receptor>
prm/pocket_docking_3.prm

>  <SCORE>
-10.6969

>  <SCORE.INTER>
-7.81717

>  <SCORE.INTER.CONST>
1

>  <SCORE.INTER.POLAR>
0

>  <SCORE.INTER.ROT>
6

>  <SCORE.INTER.SOLV>
22.1203

>  <SCORE.INTER.VDW>
-20.1849

>  <SCORE.INTER.norm>
-0.211275

>  <SCORE.INTRA>
-2.87978

>  <SCORE.INTRA.DIHEDRAL>
-5.94462

>  <SCORE.INTRA.DIHEDRAL.0>
11.3972

>  <SCORE.INTRA.POLAR>
0

>  <SCORE.INTRA.POLAR.0>
0

>  <SCORE.INTRA.REPUL>
0

>  <SCORE.INTRA.REPUL.0>
0

>  <SCORE.INTRA.SOLV>
-0.308756

>  <SCORE.INTRA.SOLV.lig_0>
-92.3891

>  <SCORE.INTRA.VDW>
0.246912

>  <SCORE.INTRA.VDW.0>
-2.90606

>  <SCORE.INTRA.norm>
-0.0778318

>  <SCORE.RESTR>
0

>  <SCORE.RESTR.CAVITY>
0

>  <SCORE.RESTR.norm>
0

>  <SCORE.SYSTEM>
0

>  <SCORE.SYSTEM.CONST>
0

>  <SCORE.SYSTEM.DIHEDRAL>
0

>  <SCORE.SYSTEM.SOLV>
0

>  <SCORE.SYSTEM.norm>
0

>  <SCORE.heavy>
37

>  <SCORE.norm>
-0.289107

>  <RMSD>
1.333

$$$$
ligand
 OpenBabel02271912133D
libRbt.so/2013.1/901 2013/11/27
 37 40  0  0  0  0  0  0  0  0999 V2000
   -1.2177   26.6478   67.1293 C   0  0  1  0  0  0  0  0  0  0  0  0
   -2.2989   25.9055   67.9651 C   0  0  1  0  0  0  0  0  0  0  0  0
   -3.6865   25.9677   67.2987 C   0  0  0  0  0  0  0  0  0  0  0  0
   -4.0772   27.4631   67.0833 C   0  0  1  0  0  0  0  0  0  0  0  0
   -3.0120   28.1890   66.1989 C   0  0  1  0  0  0  0  0  0  0  0  0
   -3.4299   29.7147   65.9935 C   0  0  1  0  0  0  0  0  0  0  0  0
   -4.8281   29.7681   65.3108 C   0  0  1  0  0  0  0  0  0  0  0  0
   -5.8395   29.0022   66.2158 C   0  0  2  0  0  0  0  0  0  0  0  0
   -5.1824   31.7984   63.7415 C   0  0  0  0  0  0  0  0  0  0  0  0
   -1.9017   24.5013   68.2007 N   0  0  0  0  0  0  0  0  0  0  0  0
   -5.2656   31.2005   65.1121 N   0  0  0  0  0  0  0  0  0  0  0  0
   -0.9217   25.9777   65.8885 O   0  0  0  0  0  0  0  0  0  0  0  0
   -1.6901   28.0341   66.8760 O   0  0  0  0  0  0  0  0  0  0  0  0
   -5.4215   27.6113   66.4349 O   0  0  0  0  0  0  0  0  0  0  0  0
   -3.5260   30.3601   67.2566 O   0  0  0  0  0  0  0  0  0  0  0  0
   -7.1311   29.0091   65.6187 O   0  0  0  0  0  0  0  0  0  0  0  0
   -8.1889   28.5545   66.4983 C   0  0  2  0  0  0  0  0  0  0  0  0
   -8.7943   27.1999   66.0602 C   0  0  1  0  0  0  0  0  0  0  0  0
   -9.5477   27.3413   64.6983 C   0  0  2  0  0  0  0  0  0  0  0  0
  -10.6646   28.3529   64.8562 C   0  0  1  0  0  0  0  0  0  0  0  0
  -10.0495   29.7235   65.2697 C   0  0  1  0  0  0  0  0  0  0  0  0
  -11.1173   30.7969   65.4718 C   0  0  0  0  0  0  0  0  0  0  0  0
  -11.3987   28.4764   63.5737 N   0  0  0  0  0  0  0  0  0  0  0  0
   -9.2885   29.5638   66.5470 O   0  0  0  0  0  0  0  0  0  0  0  0
   -7.7122   26.2445   65.9945 O   0  0  0  0  0  0  0  0  0  0  0  0
  -10.1111   26.0827   64.3221 O   0  0  0  0  0  0  0  0  0  0  0  0
  -11.9600   30.4207   66.5337 O   0  0  0  0  0  0  0  0  0  0  0  0
    0.4673   25.9144   65.2912 C   0  0  1  0  0  0  0  0  0  0  0  0
    1.2547   24.7815   66.0047 C   0  0  1  0  0  0  0  0  0  0  0  0
    2.6944   24.6841   65.4219 C   0  0  2  0  0  0  0  0  0  0  0  0
    2.6092   24.3745   63.9069 C   0  0  1  0  0  0  0  0  0  0  0  0
    1.8242   25.5103   63.1578 C   0  0  0  0  0  0  0  0  0  0  0  0
    0.4071   25.5988   63.7633 C   0  0  2  0  0  0  0  0  0  0  0  0
    3.9761   24.2723   63.3417 N   0  0  0  0  0  0  0  0  0  0  0  0
   -0.3186   26.6619   63.0597 N   0  0  0  0  0  0  0  0  0  0  0  0
    1.3333   25.0675   67.4187 O   0  0  0  0  0  0  0  0  0  0  0  0
    3.4061   23.6289   66.1059 O   0  0  0  0  0  0  0  0  0  0  0  0
  1  2  1  0  0  0  0
  1 12  1  6  0  0  0
  1 13  1  0  0  0  0
  2  3  1  0  0  0  0
  2 10  1  6  0  0  0
  4  3  1  6  0  0  0
  4  5  1  0  0  0  0
  4 14  1  0  0  0  0
  5  6  1  0  0  0  0
  5 13  1  1  0  0  0
  6  7  1  0  0  0  0
  6 15  1  1  0  0  0
  7  8  1  0  0  0  0
  7 11  1  1  0  0  0
  8 14  1  0  0  0  0
  8 16  1  6  0  0  0
  9 11  1  0  0  0  0
 17 16  1  6  0  0  0
 17 18  1  0  0  0  0
 17 24  1  0  0  0  0
 18 19  1  0  0  0  0
 18 25  1  6  0  0  0
 19 20  1  0  0  0  0
 19 26  1  1  0  0  0
 20 21  1  0  0  0  0
 20 23  1  6  0  0  0
 21 22  1  1  0  0  0
 21 24  1  0  0  0  0
 22 27  1  0  0  0  0
 28 12  1  1  0  0  0
 28 29  1  0  0  0  0
 28 33  1  0  0  0  0
 29 30  1  0  0  0  0
 29 36  1  1  0  0  0
 30 31  1  0  0  0  0
 30 37  1  1  0  0  0
 31 32  1  0  0  0  0
 31 34  1  6  0  0  0
 32 33  1  0  0  0  0
 33 35  1  6  0  0  0
M  END
>  <CHROM.1>
-143.38863255,103.83054998,-168.54952112,80.97948983,-111.74497088,63.04826687
-4.11288688,27.43184903,65.68445942,-0.33967905,0.04692358,-0.09933888

>  <Name>
ligand

>  <RI>
0

>  <Rbt.Current_Directory>
/home/itssahil/PROJECTS/Mol_Feturizer/Test_systems_manuscript/rnas/2g5k

>  <Rbt.Executable>
rbdock ($Id: //depot/dev/client3/rdock/2013.1/src/exe/rbdock.cxx#4 $)

>  <Rbt.Library>
libRbt.so (2013.1, Build901 2013/11/27)

>  <Rbt.Parameter_File>
/export/apps/rDock/src/rDock_2013.1_src/data/scripts/dock_solv.prm

>  <Rbt.Receptor>
prm/pocket_docking_2.prm

>  <SCORE>
-0.553373

>  <SCORE.INTER>
-2.58903

>  <SCORE.INTER.CONST>
1

>  <SCORE.INTER.POLAR>
0

>  <SCORE.INTER.ROT>
6

>  <SCORE.INTER.SOLV>
16.0833

>  <SCORE.INTER.VDW>
-14.6871

>  <SCORE.INTER.norm>
-0.0699738

>  <SCORE.INTRA>
1.83594

>  <SCORE.INTRA.DIHEDRAL>
3.93162

>  <SCORE.INTRA.DIHEDRAL.0>
11.3972

>  <SCORE.INTRA.POLAR>
0

>  <SCORE.INTRA.POLAR.0>
0

>  <SCORE.INTRA.REPUL>
0

>  <SCORE.INTRA.REPUL.0>
0

>  <SCORE.INTRA.SOLV>
0.391528

>  <SCORE.INTRA.SOLV.lig_0>
-92.3891

>  <SCORE.INTRA.VDW>
-0.325632

>  <SCORE.INTRA.VDW.0>
-2.90606

>  <SCORE.INTRA.norm>
0.0496201

>  <SCORE.RESTR>
0.199715

>  <SCORE.RESTR.CAVITY>
0.199715

>  <SCORE.RESTR.norm>
0.0053977

>  <SCORE.SYSTEM>
0

>  <SCORE.SYSTEM.CONST>
0

>  <SCORE.SYSTEM.DIHEDRAL>
0

>  <SCORE.SYSTEM.SOLV>
0

>  <SCORE.SYSTEM.norm>
0

>  <SCORE.heavy>
37

>  <SCORE.norm>
-0.014956

>  <RMSD>
1.362

$$$$
ligand
 OpenBabel02271912133D
libRbt.so/2013.1/901 2013/11/27
 37 40  0  0  0  0  0  0  0  0999 V2000
   -1.0552   26.6086   67.3322 C   0  0  1  0  0  0  0  0  0  0  0  0
   -2.2220   26.0525   68.1969 C   0  0  1  0  0  0  0  0  0  0  0  0
   -3.5873   26.2284   67.5052 C   0  0  0  0  0  0  0  0  0  0  0  0
   -3.8011   27.7408   67.1859 C   0  0  1  0  0  0  0  0  0  0  0  0
   -2.6516   28.2792   66.2735 C   0  0  1  0  0  0  0  0  0  0  0  0
   -2.8891   29.8256   65.9618 C   0  0  1  0  0  0  0  0  0  0  0  0
   -4.2657   29.9928   65.2541 C   0  0  1  0  0  0  0  0  0  0  0  0
   -5.3666   29.4099   66.1906 C   0  0  2  0  0  0  0  0  0  0  0  0
   -5.4283   31.7988   63.8060 C   0  0  0  0  0  0  0  0  0  0  0  0
   -1.9915   24.6310   68.5305 N   0  0  0  0  0  0  0  0  0  0  0  0
   -4.5334   31.4493   64.9549 N   0  0  0  0  0  0  0  0  0  0  0  0
   -0.8275   25.8275   66.1430 O   0  0  0  0  0  0  0  0  0  0  0  0
   -1.3624   28.0198   66.9809 O   0  0  0  0  0  0  0  0  0  0  0  0
   -5.1136   27.9981   66.5072 O   0  0  0  0  0  0  0  0  0  0  0  0
   -2.9212   30.5608   67.1782 O   0  0  0  0  0  0  0  0  0  0  0  0
   -6.6435   29.5246   65.5731 O   0  0  0  0  0  0  0  0  0  0  0  0
   -7.7555   29.2991   66.4740 C   0  0  2  0  0  0  0  0  0  0  0  0
   -8.4349   27.9260   66.2584 C   0  0  1  0  0  0  0  0  0  0  0  0
   -9.1348   27.8644   64.8624 C   0  0  2  0  0  0  0  0  0  0  0  0
  -10.1872   28.9522   64.7909 C   0  0  1  0  0  0  0  0  0  0  0  0
   -9.4963   30.3360   64.9799 C   0  0  1  0  0  0  0  0  0  0  0  0
  -10.4969   31.4895   64.9429 C   0  0  0  0  0  0  0  0  0  0  0  0
  -10.8715   28.8861   63.4771 N   0  0  0  0  0  0  0  0  0  0  0  0
   -8.7874   30.3640   66.2963 O   0  0  0  0  0  0  0  0  0  0  0  0
   -7.4164   26.9120   66.4092 O   0  0  0  0  0  0  0  0  0  0  0  0
   -9.7680   26.5942   64.6923 O   0  0  0  0  0  0  0  0  0  0  0  0
  -11.3947   31.3613   66.0185 O   0  0  0  0  0  0  0  0  0  0  0  0
    0.5060   25.7728   65.4297 C   0  0  1  0  0  0  0  0  0  0  0  0
    1.3792   24.6826   66.1092 C   0  0  1  0  0  0  0  0  0  0  0  0
    2.7652   24.5953   65.4070 C   0  0  2  0  0  0  0  0  0  0  0  0
    2.5574   24.2311   63.9163 C   0  0  1  0  0  0  0  0  0  0  0  0
    1.6835   25.3229   63.2010 C   0  0  0  0  0  0  0  0  0  0  0  0
    0.3222   25.4025   63.9241 C   0  0  2  0  0  0  0  0  0  0  0  0
    3.8726   24.1381   63.2381 N   0  0  0  0  0  0  0  0  0  0  0  0
   -0.4869   26.4246   63.2513 N   0  0  0  0  0  0  0  0  0  0  0  0
    1.5723   25.0196   67.5008 O   0  0  0  0  0  0  0  0  0  0  0  0
    3.5586   23.5802   66.0612 O   0  0  0  0  0  0  0  0  0  0  0  0
  1  2  1  0  0  0  0
  1 12  1  6  0  0  0
  1 13  1  0  0  0  0
  2  3  1  0  0  0  0
  2 10  1  6  0  0  0
  4  3  1  6  0  0  0
  4  5  1  0  0  0  0
  4 14  1  0  0  0  0
  5  6  1  0  0  0  0
  5 13  1  1  0  0  0
  6  7  1  0  0  0  0
  6 15  1  1  0  0  0
  7  8  1  0  0  0  0
  7 11  1  1  0  0  0
  8 14  1  0  0  0  0
  8 16  1  6  0  0  0
  9 11  1  0  0  0  0
 17 16  1  6  0  0  0
 17 18  1  0  0  0  0
 17 24  1  0  0  0  0
 18 19  1  0  0  0  0
 18 25  1  6  0  0  0
 19 20  1  0  0  0  0
 19 26  1  1  0  0  0
 20 21  1  0  0  0  0
 20 23  1  6  0  0  0
 21 22  1  1  0  0  0
 21 24  1  0  0  0  0
 22 27  1  0  0  0  0
 28 12  1  1  0  0  0
 28 29  1  0  0  0  0
 28 33  1  0  0  0  0
 29 30  1  0  0  0  0
 29 36  1  1  0  0  0
 30 31  1  0  0  0  0
 30 37  1  1  0  0  0
 31 32  1  0  0  0  0
 31 34  1  6  0  0  0
 32 33  1  0  0  0  0
 33 35  1  6  0  0  0
M  END
>  <CHROM.1>
-155.00129286,153.33567565,-166.53726276,85.37451415,-105.51072983,63.06689217
-3.84212408,27.67145707,65.71615970,0.40426649,-0.09943009,2.89215948

>  <Name>
ligand

>  <RI>
0

>  <Rbt.Current_Directory>
/home/itssahil/PROJECTS/Mol_Feturizer/Test_systems_manuscript/rnas/2g5k

>  <Rbt.Executable>
rbdock ($Id: //depot/dev/client3/rdock/2013.1/src/exe/rbdock.cxx#4 $)

>  <Rbt.Library>
libRbt.so (2013.1, Build901 2013/11/27)

>  <Rbt.Parameter_File>
/export/apps/rDock/src/rDock_2013.1_src/data/scripts/dock_solv.prm

>  <Rbt.Receptor>
prm/pocket_docking_2.prm

>  <SCORE>
-2.35977

>  <SCORE.INTER>
-3.2023

>  <SCORE.INTER.CONST>
1

>  <SCORE.INTER.POLAR>
0

>  <SCORE.INTER.ROT>
6

>  <SCORE.INTER.SOLV>
17.0786

>  <SCORE.INTER.VDW>
-15.4277

>  <SCORE.INTER.norm>
-0.0865486

>  <SCORE.INTRA>
0.801723

>  <SCORE.INTRA.DIHEDRAL>
1.62836

>  <SCORE.INTRA.DIHEDRAL.0>
11.3972

>  <SCORE.INTRA.POLAR>
0

>  <SCORE.INTRA.POLAR.0>
0

>  <SCORE.INTRA.REPUL>
0

>  <SCORE.INTRA.REPUL.0>
0

>  <SCORE.INTRA.SOLV>
0.282299

>  <SCORE.INTRA.SOLV.lig_0>
-92.3891

>  <SCORE.INTRA.VDW>
-0.153607

>  <SCORE.INTRA.VDW.0>
-2.90606

>  <SCORE.INTRA.norm>
0.0216682

>  <SCORE.RESTR>
0.0408018

>  <SCORE.RESTR.CAVITY>
0.0408018

>  <SCORE.RESTR.norm>
0.00110275

>  <SCORE.SYSTEM>
0

>  <SCORE.SYSTEM.CONST>
0

>  <SCORE.SYSTEM.DIHEDRAL>
0

>  <SCORE.SYSTEM.SOLV>
0

>  <SCORE.SYSTEM.norm>
0

>  <SCORE.heavy>
37

>  <SCORE.norm>
-0.0637777

>  <RMSD>
1.383

$$$$
ligand
 OpenBabel02271912133D
libRbt.so/2013.1/901 2013/11/27
 37 40  0  0  0  0  0  0  0  0999 V2000
   -0.4706   26.6014   67.8714 C   0  0  1  0  0  0  0  0  0  0  0  0
   -1.6444   26.0557   68.7333 C   0  0  1  0  0  0  0  0  0  0  0  0
   -2.9994   26.1875   68.0123 C   0  0  0  0  0  0  0  0  0  0  0  0
   -3.2301   27.6853   67.6397 C   0  0  1  0  0  0  0  0  0  0  0  0
   -2.0725   28.2115   66.7304 C   0  0  1  0  0  0  0  0  0  0  0  0
   -2.3275   29.7430   66.3639 C   0  0  1  0  0  0  0  0  0  0  0  0
   -3.6934   29.8655   65.6271 C   0  0  1  0  0  0  0  0  0  0  0  0
   -4.8022   29.2964   66.5628 C   0  0  2  0  0  0  0  0  0  0  0  0
   -4.8226   31.6056   64.0756 C   0  0  0  0  0  0  0  0  0  0  0  0
   -1.3986   24.6496   69.1175 N   0  0  0  0  0  0  0  0  0  0  0  0
   -3.9775   31.3072   65.2755 N   0  0  0  0  0  0  0  0  0  0  0  0
   -0.2097   25.7855   66.7127 O   0  0  0  0  0  0  0  0  0  0  0  0
   -0.7925   27.9954   67.4686 O   0  0  0  0  0  0  0  0  0  0  0  0
   -4.5339   27.8998   66.9300 O   0  0  0  0  0  0  0  0  0  0  0  0
   -2.3926   30.5169   67.5547 O   0  0  0  0  0  0  0  0  0  0  0  0
   -6.0693   29.3710   65.9195 O   0  0  0  0  0  0  0  0  0  0  0  0
   -7.1740   28.9189   66.7408 C   0  0  2  0  0  0  0  0  0  0  0  0
   -8.5381   29.0103   66.0166 C   0  0  1  0  0  0  0  0  0  0  0  0
   -8.9266   30.4999   65.7473 C   0  0  2  0  0  0  0  0  0  0  0  0
   -9.0207   31.2312   67.0710 C   0  0  1  0  0  0  0  0  0  0  0  0
   -7.6377   31.1621   67.7853 C   0  0  1  0  0  0  0  0  0  0  0  0
   -7.6550   31.8604   69.1437 C   0  0  0  0  0  0  0  0  0  0  0  0
   -9.4109   32.6406   66.8254 N   0  0  0  0  0  0  0  0  0  0  0  0
   -7.2534   29.7317   67.9912 O   0  0  0  0  0  0  0  0  0  0  0  0
   -8.4328   28.2396   64.7988 O   0  0  0  0  0  0  0  0  0  0  0  0
  -10.1958   30.5599   65.0926 O   0  0  0  0  0  0  0  0  0  0  0  0
   -8.5778   31.2147   69.9869 O   0  0  0  0  0  0  0  0  0  0  0  0
    1.0701   25.8708   65.9098 C   0  0  1  0  0  0  0  0  0  0  0  0
    1.2679   24.5242   65.1613 C   0  0  1  0  0  0  0  0  0  0  0  0
    2.5787   24.5674   64.3236 C   0  0  2  0  0  0  0  0  0  0  0  0
    2.4848   25.7189   63.2923 C   0  0  1  0  0  0  0  0  0  0  0  0
    2.2930   27.0960   64.0231 C   0  0  0  0  0  0  0  0  0  0  0  0
    0.9974   27.0234   64.8590 C   0  0  2  0  0  0  0  0  0  0  0  0
    3.7262   25.7652   62.4830 N   0  0  0  0  0  0  0  0  0  0  0  0
    0.8263   28.3120   65.5389 N   0  0  0  0  0  0  0  0  0  0  0  0
    1.3535   23.4483   66.1218 O   0  0  0  0  0  0  0  0  0  0  0  0
    2.7418   23.3028   63.6437 O   0  0  0  0  0  0  0  0  0  0  0  0
  1  2  1  0  0  0  0
  1 12  1  6  0  0  0
  1 13  1  0  0  0  0
  2  3  1  0  0  0  0
  2 10  1  6  0  0  0
  4  3  1  6  0  0  0
  4  5  1  0  0  0  0
  4 14  1  0  0  0  0
  5  6  1  0  0  0  0
  5 13  1  1  0  0  0
  6  7  1  0  0  0  0
  6 15  1  1  0  0  0
  7  8  1  0  0  0  0
  7 11  1  1  0  0  0
  8 14  1  0  0  0  0
  8 16  1  6  0  0  0
  9 11  1  0  0  0  0
 17 16  1  6  0  0  0
 17 18  1  0  0  0  0
 17 24  1  0  0  0  0
 18 19  1  0  0  0  0
 18 25  1  6  0  0  0
 19 20  1  0  0  0  0
 19 26  1  1  0  0  0
 20 21  1  0  0  0  0
 20 23  1  6  0  0  0
 21 22  1  1  0  0  0
 21 24  1  0  0  0  0
 22 27  1  0  0  0  0
 28 12  1  6  0  0  0
 28 29  1  0  0  0  0
 28 33  1  0  0  0  0
 29 30  1  0  0  0  0
 29 36  1  1  0  0  0
 30 31  1  0  0  0  0
 30 37  1  6  0  0  0
 31 32  1  0  0  0  0
 31 34  1  1  0  0  0
 32 33  1  0  0  0  0
 33 35  1  1  0  0  0
M  END
>  <CHROM.1>
-163.84130249,151.49922396,-177.31861581,156.65431382,-179.97529001,61.88565997
-3.25798241,28.20703523,66.30944037,0.08064867,-0.51533721,2.06749872

>  <Name>
ligand

>  <RI>
0

>  <Rbt.Current_Directory>
/home/itssahil/PROJECTS/Mol_Feturizer/Test_systems_manuscript/rnas/2g5k

>  <Rbt.Executable>
rbdock ($Id: //depot/dev/client3/rdock/2013.1/src/exe/rbdock.cxx#4 $)

>  <Rbt.Library>
libRbt.so (2013.1, Build901 2013/11/27)

>  <Rbt.Parameter_File>
/export/apps/rDock/src/rDock_2013.1_src/data/scripts/dock_solv.prm

>  <Rbt.Receptor>
prm/pocket_docking_3.prm

>  <SCORE>
-6.86968

>  <SCORE.INTER>
-4.10109

>  <SCORE.INTER.CONST>
1

>  <SCORE.INTER.POLAR>
0

>  <SCORE.INTER.ROT>
6

>  <SCORE.INTER.SOLV>
17.1268

>  <SCORE.INTER.VDW>
-16.043

>  <SCORE.INTER.norm>
-0.11084

>  <SCORE.INTRA>
-2.76859

>  <SCORE.INTRA.DIHEDRAL>
-7.17618

>  <SCORE.INTRA.DIHEDRAL.0>
11.3972

>  <SCORE.INTRA.POLAR>
0

>  <SCORE.INTRA.POLAR.0>
0

>  <SCORE.INTRA.REPUL>
0

>  <SCORE.INTRA.REPUL.0>
0

>  <SCORE.INTRA.SOLV>
1.78425

>  <SCORE.INTRA.SOLV.lig_0>
-92.3891

>  <SCORE.INTRA.VDW>
-0.072619

>  <SCORE.INTRA.VDW.0>
-2.90606

>  <SCORE.INTRA.norm>
-0.0748266

>  <SCORE.RESTR>
0

>  <SCORE.RESTR.CAVITY>
0

>  <SCORE.RESTR.norm>
0

>  <SCORE.SYSTEM>
0

>  <SCORE.SYSTEM.CONST>
0

>  <SCORE.SYSTEM.DIHEDRAL>
0

>  <SCORE.SYSTEM.SOLV>
0

>  <SCORE.SYSTEM.norm>
0

>  <SCORE.heavy>
37

>  <SCORE.norm>
-0.185667

>  <RMSD>
1.421

$$$$
ligand
 OpenBabel02271912133D
libRbt.so/2013.1/901 2013/11/27
 37 40  0  0  0  0  0  0  0  0999 V2000
   -0.6108   26.6862   67.6360 C   0  0  1  0  0  0  0  0  0  0  0  0
   -1.7806   26.2831   68.5781 C   0  0  1  0  0  0  0  0  0  0  0  0
   -3.1539   26.4711   67.9056 C   0  0  0  0  0  0  0  0  0  0  0  0
   -3.2931   27.9563   67.4472 C   0  0  1  0  0  0  0  0  0  0  0  0
   -2.1430   28.3384   66.4598 C   0  0  1  0  0  0  0  0  0  0  0  0
   -2.3037   29.8593   66.0063 C   0  0  1  0  0  0  0  0  0  0  0  0
   -3.6892   30.0379   65.3192 C   0  0  1  0  0  0  0  0  0  0  0  0
   -4.7925   29.6112   66.3337 C   0  0  2  0  0  0  0  0  0  0  0  0
   -4.2118   32.5016   65.9253 C   0  0  0  0  0  0  0  0  0  0  0  0
   -1.6192   24.8886   69.0414 N   0  0  0  0  0  0  0  0  0  0  0  0
   -3.8847   31.4726   64.8875 N   0  0  0  0  0  0  0  0  0  0  0  0
   -0.4617   25.7839   66.5225 O   0  0  0  0  0  0  0  0  0  0  0  0
   -0.8497   28.0731   67.1578 O   0  0  0  0  0  0  0  0  0  0  0  0
   -4.6088   28.2235   66.7786 O   0  0  0  0  0  0  0  0  0  0  0  0
   -2.2593   30.7072   67.1467 O   0  0  0  0  0  0  0  0  0  0  0  0
   -6.0788   29.7404   65.7388 O   0  0  0  0  0  0  0  0  0  0  0  0
   -7.1621   29.2493   66.5662 C   0  0  2  0  0  0  0  0  0  0  0  0
   -8.5440   29.3704   65.8813 C   0  0  1  0  0  0  0  0  0  0  0  0
   -8.9407   30.8698   65.6893 C   0  0  2  0  0  0  0  0  0  0  0  0
   -9.0023   31.5404   67.0467 C   0  0  1  0  0  0  0  0  0  0  0  0
   -7.6017   31.4420   67.7223 C   0  0  1  0  0  0  0  0  0  0  0  0
   -7.5857   32.0782   69.1109 C   0  0  0  0  0  0  0  0  0  0  0  0
   -9.4000   32.9586   66.8749 N   0  0  0  0  0  0  0  0  0  0  0  0
   -7.2109   30.0046   67.8536 O   0  0  0  0  0  0  0  0  0  0  0  0
   -8.4685   28.6558   64.6276 O   0  0  0  0  0  0  0  0  0  0  0  0
  -10.2260   30.9566   65.0700 O   0  0  0  0  0  0  0  0  0  0  0  0
   -8.4209   31.3409   69.9701 O   0  0  0  0  0  0  0  0  0  0  0  0
    0.8357   25.6118   65.7628 C   0  0  1  0  0  0  0  0  0  0  0  0
    1.7096   24.5729   66.5176 C   0  0  1  0  0  0  0  0  0  0  0  0
    3.0591   24.3679   65.7702 C   0  0  2  0  0  0  0  0  0  0  0  0
    2.7734   23.8542   64.3374 C   0  0  1  0  0  0  0  0  0  0  0  0
    1.8972   24.8909   63.5470 C   0  0  0  0  0  0  0  0  0  0  0  0
    0.5731   25.0898   64.3149 C   0  0  2  0  0  0  0  0  0  0  0  0
    4.0532   23.6484   63.6176 N   0  0  0  0  0  0  0  0  0  0  0  0
   -0.2384   26.0597   63.5715 N   0  0  0  0  0  0  0  0  0  0  0  0
    1.9753   25.0495   67.8553 O   0  0  0  0  0  0  0  0  0  0  0  0
    3.8542   23.4034   66.4951 O   0  0  0  0  0  0  0  0  0  0  0  0
  1  2  1  0  0  0  0
  1 12  1  6  0  0  0
  1 13  1  0  0  0  0
  2  3  1  0  0  0  0
  2 10  1  6  0  0  0
  4  3  1  6  0  0  0
  4  5  1  0  0  0  0
  4 14  1  0  0  0  0
  5  6  1  0  0  0  0
  5 13  1  1  0  0  0
  6  7  1  0  0  0  0
  6 15  1  1  0  0  0
  7  8  1  0  0  0  0
  7 11  1  1  0  0  0
  8 14  1  0  0  0  0
  8 16  1  6  0  0  0
  9 11  1  0  0  0  0
 17 16  1  6  0  0  0
 17 18  1  0  0  0  0
 17 24  1  0  0  0  0
 18 19  1  0  0  0  0
 18 25  1  6  0  0  0
 19 20  1  0  0  0  0
 19 26  1  1  0  0  0
 20 21  1  0  0  0  0
 20 23  1  6  0  0  0
 21 22  1  1  0  0  0
 21 24  1  0  0  0  0
 22 27  1  0  0  0  0
 28 12  1  1  0  0  0
 28 29  1  0  0  0  0
 28 33  1  0  0  0  0
 29 30  1  0  0  0  0
 29 36  1  1  0  0  0
 30 31  1  0  0  0  0
 30 37  1  1  0  0  0
 31 32  1  0  0  0  0
 31 34  1  6  0  0  0
 32 33  1  0  0  0  0
 33 35  1  6  0  0  0
M  END
>  <CHROM.1>
-156.66545232,-75.76465527,174.63099868,84.88609311,-178.59953388,65.63397694
-3.22150700,28.17701808,66.42773904,-0.08061466,-0.56750524,1.59775355

>  <Name>
ligand

>  <RI>
0

>  <Rbt.Current_Directory>
/home/itssahil/PROJECTS/Mol_Feturizer/Test_systems_manuscript/rnas/2g5k

>  <Rbt.Executable>
rbdock ($Id: //depot/dev/client3/rdock/2013.1/src/exe/rbdock.cxx#4 $)

>  <Rbt.Library>
libRbt.so (2013.1, Build901 2013/11/27)

>  <Rbt.Parameter_File>
/export/apps/rDock/src/rDock_2013.1_src/data/scripts/dock_solv.prm

>  <Rbt.Receptor>
prm/pocket_docking_3.prm

>  <SCORE>
-8.43816

>  <SCORE.INTER>
-7.06008

>  <SCORE.INTER.CONST>
1

>  <SCORE.INTER.POLAR>
0

>  <SCORE.INTER.ROT>
6

>  <SCORE.INTER.SOLV>
20.8718

>  <SCORE.INTER.VDW>
-19.264

>  <SCORE.INTER.norm>
-0.190813

>  <SCORE.INTRA>
-1.37808

>  <SCORE.INTRA.DIHEDRAL>
-5.88899

>  <SCORE.INTRA.DIHEDRAL.0>
11.3972

>  <SCORE.INTRA.POLAR>
0

>  <SCORE.INTRA.POLAR.0>
0

>  <SCORE.INTRA.REPUL>
0

>  <SCORE.INTRA.REPUL.0>
0

>  <SCORE.INTRA.SOLV>
-0.111394

>  <SCORE.INTRA.SOLV.lig_0>
-92.3891

>  <SCORE.INTRA.VDW>
1.62211

>  <SCORE.INTRA.VDW.0>
-2.90606

>  <SCORE.INTRA.norm>
-0.0372455

>  <SCORE.RESTR>
0

>  <SCORE.RESTR.CAVITY>
0

>  <SCORE.RESTR.norm>
0

>  <SCORE.SYSTEM>
0

>  <SCORE.SYSTEM.CONST>
0

>  <SCORE.SYSTEM.DIHEDRAL>
0

>  <SCORE.SYSTEM.SOLV>
0

>  <SCORE.SYSTEM.norm>
0

>  <SCORE.heavy>
37

>  <SCORE.norm>
-0.228058

>  <RMSD>
1.424

$$$$
ligand
 OpenBabel02271912133D
libRbt.so/2013.1/901 2013/11/27
 37 40  0  0  0  0  0  0  0  0999 V2000
   -0.6334   26.6980   67.6089 C   0  0  1  0  0  0  0  0  0  0  0  0
   -1.8324   26.2935   68.5129 C   0  0  1  0  0  0  0  0  0  0  0  0
   -3.1855   26.5204   67.8122 C   0  0  0  0  0  0  0  0  0  0  0  0
   -3.2889   28.0179   67.3853 C   0  0  1  0  0  0  0  0  0  0  0  0
   -2.1088   28.4026   66.4350 C   0  0  1  0  0  0  0  0  0  0  0  0
   -2.2331   29.9360   66.0133 C   0  0  1  0  0  0  0  0  0  0  0  0
   -3.5983   30.1540   65.2973 C   0  0  1  0  0  0  0  0  0  0  0  0
   -4.7330   29.7232   66.2748 C   0  0  2  0  0  0  0  0  0  0  0  0
   -4.0595   32.6172   65.9533 C   0  0  0  0  0  0  0  0  0  0  0  0
   -1.7056   24.8863   68.9475 N   0  0  0  0  0  0  0  0  0  0  0  0
   -3.7594   31.6013   64.8946 N   0  0  0  0  0  0  0  0  0  0  0  0
   -0.4722   25.8190   66.4786 O   0  0  0  0  0  0  0  0  0  0  0  0
   -0.8376   28.0993   67.1575 O   0  0  0  0  0  0  0  0  0  0  0  0
   -4.5833   28.3228   66.6917 O   0  0  0  0  0  0  0  0  0  0  0  0
   -2.2026   30.7568   67.1737 O   0  0  0  0  0  0  0  0  0  0  0  0
   -6.0021   29.8880   65.6524 O   0  0  0  0  0  0  0  0  0  0  0  0
   -7.1065   29.3392   66.4128 C   0  0  2  0  0  0  0  0  0  0  0  0
   -8.4696   29.5095   65.7012 C   0  0  1  0  0  0  0  0  0  0  0  0
   -8.8634   31.0188   65.6064 C   0  0  2  0  0  0  0  0  0  0  0  0
   -8.9628   31.5905   67.0062 C   0  0  1  0  0  0  0  0  0  0  0  0
   -7.5808   31.4437   67.7106 C   0  0  1  0  0  0  0  0  0  0  0  0
   -7.6034   31.9788   69.1412 C   0  0  0  0  0  0  0  0  0  0  0  0
   -9.3581   33.0175   66.9256 N   0  0  0  0  0  0  0  0  0  0  0  0
   -7.1913   30.0004   67.7493 O   0  0  0  0  0  0  0  0  0  0  0  0
   -8.3591   28.8864   64.4021 O   0  0  0  0  0  0  0  0  0  0  0  0
  -10.1316   31.1502   64.9603 O   0  0  0  0  0  0  0  0  0  0  0  0
   -8.5033   31.2169   69.9087 O   0  0  0  0  0  0  0  0  0  0  0  0
    0.8410   25.6401   65.7482 C   0  0  1  0  0  0  0  0  0  0  0  0
    1.6920   24.5960   66.5218 C   0  0  1  0  0  0  0  0  0  0  0  0
    3.0569   24.3840   65.8047 C   0  0  2  0  0  0  0  0  0  0  0  0
    2.8006   23.8725   64.3657 C   0  0  1  0  0  0  0  0  0  0  0  0
    1.9481   24.9144   63.5564 C   0  0  0  0  0  0  0  0  0  0  0  0
    0.6081   25.1202   64.2945 C   0  0  2  0  0  0  0  0  0  0  0  0
    4.0950   23.6600   63.6746 N   0  0  0  0  0  0  0  0  0  0  0  0
   -0.1811   26.0949   63.5335 N   0  0  0  0  0  0  0  0  0  0  0  0
    1.9303   25.0705   67.8654 O   0  0  0  0  0  0  0  0  0  0  0  0
    3.8301   23.4148   66.5468 O   0  0  0  0  0  0  0  0  0  0  0  0
  1  2  1  0  0  0  0
  1 12  1  6  0  0  0
  1 13  1  0  0  0  0
  2  3  1  0  0  0  0
  2 10  1  6  0  0  0
  4  3  1  6  0  0  0
  4  5  1  0  0  0  0
  4 14  1  0  0  0  0
  5  6  1  0  0  0  0
  5 13  1  1  0  0  0
  6  7  1  0  0  0  0
  6 15  1  1  0  0  0
  7  8  1  0  0  0  0
  7 11  1  1  0  0  0
  8 14  1  0  0  0  0
  8 16  1  6  0  0  0
  9 11  1  0  0  0  0
 17 16  1  6  0  0  0
 17 18  1  0  0  0  0
 17 24  1  0  0  0  0
 18 19  1  0  0  0  0
 18 25  1  6  0  0  0
 19 20  1  0  0  0  0
 19 26  1  1  0  0  0
 20 21  1  0  0  0  0
 20 23  1  6  0  0  0
 21 22  1  1  0  0  0
 21 24  1  0  0  0  0
 22 27  1  0  0  0  0
 28 12  1  1  0  0  0
 28 29  1  0  0  0  0
 28 33  1  0  0  0  0
 29 30  1  0  0  0  0
 29 36  1  1  0  0  0
 30 31  1  0  0  0  0
 30 37  1  1  0  0  0
 31 32  1  0  0  0  0
 31 34  1  6  0  0  0
 32 33  1  0  0  0  0
 33 35  1  6  0  0  0
M  END
>  <CHROM.1>
-156.54677590,-74.19330687,171.82712255,83.37443931,-178.95310769,63.17296887
-3.19278347,28.23155051,66.39032691,-0.04189092,-0.57573712,1.65796265

>  <Name>
ligand

>  <RI>
0

>  <Rbt.Current_Directory>
/home/itssahil/PROJECTS/Mol_Feturizer/Test_systems_manuscript/rnas/2g5k

>  <Rbt.Executable>
rbdock ($Id: //depot/dev/client3/rdock/2013.1/src/exe/rbdock.cxx#4 $)

>  <Rbt.Library>
libRbt.so (2013.1, Build901 2013/11/27)

>  <Rbt.Parameter_File>
/export/apps/rDock/src/rDock_2013.1_src/data/scripts/dock_solv.prm

>  <Rbt.Receptor>
prm/pocket_docking_3.prm

>  <SCORE>
-8.49541

>  <SCORE.INTER>
-7.17899

>  <SCORE.INTER.CONST>
1

>  <SCORE.INTER.POLAR>
0

>  <SCORE.INTER.ROT>
6

>  <SCORE.INTER.SOLV>
20.5459

>  <SCORE.INTER.VDW>
-19.2346

>  <SCORE.INTER.norm>
-0.194027

>  <SCORE.INTRA>
-1.31642

>  <SCORE.INTRA.DIHEDRAL>
-6.07485

>  <SCORE.INTRA.DIHEDRAL.0>
11.3972

>  <SCORE.INTRA.POLAR>
0

>  <SCORE.INTRA.POLAR.0>
0

>  <SCORE.INTRA.REPUL>
0

>  <SCORE.INTRA.REPUL.0>
0

>  <SCORE.INTRA.SOLV>
-0.129924

>  <SCORE.INTRA.SOLV.lig_0>
-92.3891

>  <SCORE.INTRA.VDW>
1.78596

>  <SCORE.INTRA.VDW.0>
-2.90606

>  <SCORE.INTRA.norm>
-0.0355789

>  <SCORE.RESTR>
0

>  <SCORE.RESTR.CAVITY>
0

>  <SCORE.RESTR.norm>
0

>  <SCORE.SYSTEM>
0

>  <SCORE.SYSTEM.CONST>
0

>  <SCORE.SYSTEM.DIHEDRAL>
0

>  <SCORE.SYSTEM.SOLV>
0

>  <SCORE.SYSTEM.norm>
0

>  <SCORE.heavy>
37

>  <SCORE.norm>
-0.229606

>  <RMSD>
1.492

$$$$
ligand
 OpenBabel02271912133D
libRbt.so/2013.1/901 2013/11/27
 37 40  0  0  0  0  0  0  0  0999 V2000
   -1.0617   26.5117   67.5457 C   0  0  1  0  0  0  0  0  0  0  0  0
   -1.8455   25.7821   68.6735 C   0  0  1  0  0  0  0  0  0  0  0  0
   -3.2873   25.4444   68.2486 C   0  0  0  0  0  0  0  0  0  0  0  0
   -4.0116   26.7610   67.8276 C   0  0  1  0  0  0  0  0  0  0  0  0
   -3.2460   27.4615   66.6584 C   0  0  1  0  0  0  0  0  0  0  0  0
   -4.0019   28.8044   66.2461 C   0  0  1  0  0  0  0  0  0  0  0  0
   -5.4542   28.4528   65.8088 C   0  0  1  0  0  0  0  0  0  0  0  0
   -6.1565   27.7283   66.9964 C   0  0  2  0  0  0  0  0  0  0  0  0
   -7.5232   29.5678   64.7197 C   0  0  0  0  0  0  0  0  0  0  0  0
   -1.1317   24.5584   69.0960 N   0  0  0  0  0  0  0  0  0  0  0  0
   -6.2083   29.7041   65.4236 N   0  0  0  0  0  0  0  0  0  0  0  0
   -0.7890   25.6556   66.4191 O   0  0  0  0  0  0  0  0  0  0  0  0
   -1.8467   27.7005   67.1219 O   0  0  0  0  0  0  0  0  0  0  0  0
   -5.4276   26.5177   67.3969 O   0  0  0  0  0  0  0  0  0  0  0  0
   -4.0729   29.6781   67.3654 O   0  0  0  0  0  0  0  0  0  0  0  0
   -7.4848   27.3701   66.6327 O   0  0  0  0  0  0  0  0  0  0  0  0
   -8.3294   27.0214   67.7572 C   0  0  2  0  0  0  0  0  0  0  0  0
   -9.7905   26.7268   67.3428 C   0  0  1  0  0  0  0  0  0  0  0  0
  -10.4879   28.0180   66.8055 C   0  0  2  0  0  0  0  0  0  0  0  0
  -10.4870   29.0687   67.8973 C   0  0  1  0  0  0  0  0  0  0  0  0
   -9.0133   29.3843   68.2927 C   0  0  1  0  0  0  0  0  0  0  0  0
   -8.9260   30.4234   69.4089 C   0  0  0  0  0  0  0  0  0  0  0  0
  -11.1671   30.2899   67.4024 N   0  0  0  0  0  0  0  0  0  0  0  0
   -8.3418   28.1313   68.7564 O   0  0  0  0  0  0  0  0  0  0  0  0
   -9.7552   25.6695   66.3585 O   0  0  0  0  0  0  0  0  0  0  0  0
  -11.8396   27.7253   66.4442 O   0  0  0  0  0  0  0  0  0  0  0  0
   -9.3005   31.6818   68.9034 O   0  0  0  0  0  0  0  0  0  0  0  0
    0.3442   25.9009   65.4466 C   0  0  1  0  0  0  0  0  0  0  0  0
    0.9105   24.5254   64.9994 C   0  0  1  0  0  0  0  0  0  0  0  0
    2.0841   24.7319   63.9985 C   0  0  2  0  0  0  0  0  0  0  0  0
    1.5649   25.5009   62.7586 C   0  0  1  0  0  0  0  0  0  0  0  0
    0.9935   26.9017   63.1811 C   0  0  0  0  0  0  0  0  0  0  0  0
   -0.1565   26.6721   64.1847 C   0  0  2  0  0  0  0  0  0  0  0  0
    2.6736   25.6975   61.7940 N   0  0  0  0  0  0  0  0  0  0  0  0
   -0.6835   27.9842   64.5751 N   0  0  0  0  0  0  0  0  0  0  0  0
    1.3934   23.8055   66.1552 O   0  0  0  0  0  0  0  0  0  0  0  0
    2.5959   23.4396   63.6038 O   0  0  0  0  0  0  0  0  0  0  0  0
  1  2  1  0  0  0  0
  1 12  1  6  0  0  0
  1 13  1  0  0  0  0
  2  3  1  0  0  0  0
  2 10  1  6  0  0  0
  4  3  1  6  0  0  0
  4  5  1  0  0  0  0
  4 14  1  0  0  0  0
  5  6  1  0  0  0  0
  5 13  1  1  0  0  0
  6  7  1  0  0  0  0
  6 15  1  1  0  0  0
  7  8  1  0  0  0  0
  7 11  1  1  0  0  0
  8 14  1  0  0  0  0
  8 16  1  6  0  0  0
  9 11  1  0  0  0  0
 17 16  1  6  0  0  0
 17 18  1  0  0  0  0
 17 24  1  0  0  0  0
 18 19  1  0  0  0  0
 18 25  1  6  0  0  0
 19 20  1  0  0  0  0
 19 26  1  1  0  0  0
 20 21  1  0  0  0  0
 20 23  1  6  0  0  0
 21 22  1  1  0  0  0
 21 24  1  0  0  0  0
 22 27  1  0  0  0  0
 28 12  1  1  0  0  0
 28 29  1  0  0  0  0
 28 33  1  0  0  0  0
 29 30  1  0  0  0  0
 29 36  1  1  0  0  0
 30 31  1  0  0  0  0
 30 37  1  6  0  0  0
 31 32  1  0  0  0  0
 31 34  1  6  0  0  0
 32 33  1  0  0  0  0
 33 35  1  1  0  0  0
M  END
>  <CHROM.1>
-156.65361493,168.03133010,-164.39031207,144.67498185,176.22823860,-70.86357025
-4.34694372,27.22003969,66.45265508,-0.04024256,-0.39868475,2.15286139

>  <Name>
ligand

>  <RI>
0

>  <Rbt.Current_Directory>
/home/itssahil/PROJECTS/Mol_Feturizer/Test_systems_manuscript/rnas/2g5k

>  <Rbt.Executable>
rbdock ($Id: //depot/dev/client3/rdock/2013.1/src/exe/rbdock.cxx#4 $)

>  <Rbt.Library>
libRbt.so (2013.1, Build901 2013/11/27)

>  <Rbt.Parameter_File>
/export/apps/rDock/src/rDock_2013.1_src/data/scripts/dock_solv.prm

>  <Rbt.Receptor>
prm/pocket_docking_3.prm

>  <SCORE>
-5.13226

>  <SCORE.INTER>
-4.52904

>  <SCORE.INTER.CONST>
1

>  <SCORE.INTER.POLAR>
0

>  <SCORE.INTER.ROT>
6

>  <SCORE.INTER.SOLV>
21.4355

>  <SCORE.INTER.VDW>
-17.7645

>  <SCORE.INTER.norm>
-0.122406

>  <SCORE.INTRA>
-0.603219

>  <SCORE.INTRA.DIHEDRAL>
-2.6782

>  <SCORE.INTRA.DIHEDRAL.0>
11.3972

>  <SCORE.INTRA.POLAR>
0

>  <SCORE.INTRA.POLAR.0>
0

>  <SCORE.INTRA.REPUL>
0

>  <SCORE.INTRA.REPUL.0>
0

>  <SCORE.INTRA.SOLV>
2.25164

>  <SCORE.INTRA.SOLV.lig_0>
-92.3891

>  <SCORE.INTRA.VDW>
-0.389939

>  <SCORE.INTRA.VDW.0>
-2.90606

>  <SCORE.INTRA.norm>
-0.0163032

>  <SCORE.RESTR>
0

>  <SCORE.RESTR.CAVITY>
0

>  <SCORE.RESTR.norm>
0

>  <SCORE.SYSTEM>
0

>  <SCORE.SYSTEM.CONST>
0

>  <SCORE.SYSTEM.DIHEDRAL>
0

>  <SCORE.SYSTEM.SOLV>
0

>  <SCORE.SYSTEM.norm>
0

>  <SCORE.heavy>
37

>  <SCORE.norm>
-0.13871

>  <RMSD>
1.533

$$$$
ligand
 OpenBabel02271912133D
libRbt.so/2013.1/901 2013/11/27
 37 40  0  0  0  0  0  0  0  0999 V2000
   -1.0928   26.6192   67.6332 C   0  0  1  0  0  0  0  0  0  0  0  0
   -1.8929   25.8980   68.7548 C   0  0  1  0  0  0  0  0  0  0  0  0
   -3.3456   25.6077   68.3317 C   0  0  0  0  0  0  0  0  0  0  0  0
   -4.0331   26.9500   67.9308 C   0  0  1  0  0  0  0  0  0  0  0  0
   -3.2521   27.6432   66.7676 C   0  0  1  0  0  0  0  0  0  0  0  0
   -3.9704   29.0126   66.3758 C   0  0  1  0  0  0  0  0  0  0  0  0
   -5.4339   28.7089   65.9402 C   0  0  1  0  0  0  0  0  0  0  0  0
   -6.1523   27.9896   67.1213 C   0  0  2  0  0  0  0  0  0  0  0  0
   -7.4512   29.8983   64.8329 C   0  0  0  0  0  0  0  0  0  0  0  0
   -1.2133   24.6488   69.1585 N   0  0  0  0  0  0  0  0  0  0  0  0
   -6.1529   29.9864   65.5743 N   0  0  0  0  0  0  0  0  0  0  0  0
   -0.8493   25.7704   66.4946 O   0  0  0  0  0  0  0  0  0  0  0  0
   -1.8447   27.8357   67.2282 O   0  0  0  0  0  0  0  0  0  0  0  0
   -5.4571   26.7533   67.5031 O   0  0  0  0  0  0  0  0  0  0  0  0
   -4.0117   29.8734   67.5066 O   0  0  0  0  0  0  0  0  0  0  0  0
   -7.4918   27.6746   66.7587 O   0  0  0  0  0  0  0  0  0  0  0  0
   -8.2705   27.0906   67.8319 C   0  0  2  0  0  0  0  0  0  0  0  0
   -9.6526   26.5784   67.3618 C   0  0  1  0  0  0  0  0  0  0  0  0
  -10.5636   27.7665   66.9138 C   0  0  2  0  0  0  0  0  0  0  0  0
  -10.7584   28.7068   68.0859 C   0  0  1  0  0  0  0  0  0  0  0  0
   -9.3675   29.2433   68.5391 C   0  0  1  0  0  0  0  0  0  0  0  0
   -9.4755   30.1853   69.7367 C   0  0  0  0  0  0  0  0  0  0  0  0
  -11.6404   29.8258   67.6750 N   0  0  0  0  0  0  0  0  0  0  0  0
   -8.4882   28.0941   68.9163 O   0  0  0  0  0  0  0  0  0  0  0  0
   -9.4218   25.6292   66.2970 O   0  0  0  0  0  0  0  0  0  0  0  0
  -11.8387   27.2712   66.4992 O   0  0  0  0  0  0  0  0  0  0  0  0
   -8.2591   30.8735   69.8984 O   0  0  0  0  0  0  0  0  0  0  0  0
    0.2823   25.9997   65.5164 C   0  0  1  0  0  0  0  0  0  0  0  0
    0.8353   24.6166   65.0761 C   0  0  1  0  0  0  0  0  0  0  0  0
    2.0069   24.8067   64.0696 C   0  0  2  0  0  0  0  0  0  0  0  0
    1.4897   25.5721   62.8266 C   0  0  1  0  0  0  0  0  0  0  0  0
    0.9317   26.9804   63.2421 C   0  0  0  0  0  0  0  0  0  0  0  0
   -0.2165   26.7670   64.2514 C   0  0  2  0  0  0  0  0  0  0  0  0
    2.5965   25.7530   61.8568 N   0  0  0  0  0  0  0  0  0  0  0  0
   -0.7309   28.0861   64.6351 N   0  0  0  0  0  0  0  0  0  0  0  0
    1.3163   23.9001   66.2348 O   0  0  0  0  0  0  0  0  0  0  0  0
    2.5064   23.5075   63.6815 O   0  0  0  0  0  0  0  0  0  0  0  0
  1  2  1  0  0  0  0
  1 12  1  6  0  0  0
  1 13  1  0  0  0  0
  2  3  1  0  0  0  0
  2 10  1  6  0  0  0
  4  3  1  6  0  0  0
  4  5  1  0  0  0  0
  4 14  1  0  0  0  0
  5  6  1  0  0  0  0
  5 13  1  1  0  0  0
  6  7  1  0  0  0  0
  6 15  1  1  0  0  0
  7  8  1  0  0  0  0
  7 11  1  1  0  0  0
  8 14  1  0  0  0  0
  8 16  1  6  0  0  0
  9 11  1  0  0  0  0
 17 16  1  6  0  0  0
 17 18  1  0  0  0  0
 17 24  1  0  0  0  0
 18 19  1  0  0  0  0
 18 25  1  6  0  0  0
 19 20  1  0  0  0  0
 19 26  1  1  0  0  0
 20 21  1  0  0  0  0
 20 23  1  6  0  0  0
 21 22  1  1  0  0  0
 21 24  1  0  0  0  0
 22 27  1  0  0  0  0
 28 12  1  1  0  0  0
 28 29  1  0  0  0  0
 28 33  1  0  0  0  0
 29 30  1  0  0  0  0
 29 36  1  1  0  0  0
 30 31  1  0  0  0  0
 30 37  1  6  0  0  0
 31 32  1  0  0  0  0
 31 34  1  6  0  0  0
 32 33  1  0  0  0  0
 33 35  1  1  0  0  0
M  END
>  <CHROM.1>
-156.98894646,165.96532993,-175.67763783,143.26659141,-172.00363811,-166.23004732
-4.37049001,27.24829169,66.58514347,-0.16412477,-0.35781070,1.89295490

>  <Name>
ligand

>  <RI>
0

>  <Rbt.Current_Directory>
/home/itssahil/PROJECTS/Mol_Feturizer/Test_systems_manuscript/rnas/2g5k

>  <Rbt.Executable>
rbdock ($Id: //depot/dev/client3/rdock/2013.1/src/exe/rbdock.cxx#4 $)

>  <Rbt.Library>
libRbt.so (2013.1, Build901 2013/11/27)

>  <Rbt.Parameter_File>
/export/apps/rDock/src/rDock_2013.1_src/data/scripts/dock_solv.prm

>  <Rbt.Receptor>
prm/pocket_docking_3.prm

>  <SCORE>
-6.46563

>  <SCORE.INTER>
-5.08748

>  <SCORE.INTER.CONST>
1

>  <SCORE.INTER.POLAR>
0

>  <SCORE.INTER.ROT>
6

>  <SCORE.INTER.SOLV>
21.4963

>  <SCORE.INTER.VDW>
-18.1571

>  <SCORE.INTER.norm>
-0.137499

>  <SCORE.INTRA>
-1.37815

>  <SCORE.INTRA.DIHEDRAL>
-2.99284

>  <SCORE.INTRA.DIHEDRAL.0>
11.3972

>  <SCORE.INTRA.POLAR>
0

>  <SCORE.INTRA.POLAR.0>
0

>  <SCORE.INTRA.REPUL>
0

>  <SCORE.INTRA.REPUL.0>
0

>  <SCORE.INTRA.SOLV>
0.903879

>  <SCORE.INTRA.SOLV.lig_0>
-92.3891

>  <SCORE.INTRA.VDW>
-0.333669

>  <SCORE.INTRA.VDW.0>
-2.90606

>  <SCORE.INTRA.norm>
-0.0372472

>  <SCORE.RESTR>
0

>  <SCORE.RESTR.CAVITY>
0

>  <SCORE.RESTR.norm>
0

>  <SCORE.SYSTEM>
0

>  <SCORE.SYSTEM.CONST>
0

>  <SCORE.SYSTEM.DIHEDRAL>
0

>  <SCORE.SYSTEM.SOLV>
0

>  <SCORE.SYSTEM.norm>
0

>  <SCORE.heavy>
37

>  <SCORE.norm>
-0.174747

>  <RMSD>
1.602

$$$$
ligand
 OpenBabel02271912133D
libRbt.so/2013.1/901 2013/11/27
 37 40  0  0  0  0  0  0  0  0999 V2000
   -0.7054   26.6685   68.5053 C   0  0  1  0  0  0  0  0  0  0  0  0
   -1.7748   25.7687   69.1874 C   0  0  1  0  0  0  0  0  0  0  0  0
   -3.0813   25.7073   68.3734 C   0  0  0  0  0  0  0  0  0  0  0  0
   -3.6195   27.1581   68.1713 C   0  0  1  0  0  0  0  0  0  0  0  0
   -2.5588   28.0422   67.4385 C   0  0  1  0  0  0  0  0  0  0  0  0
   -3.1285   29.5196   67.2445 C   0  0  1  0  0  0  0  0  0  0  0  0
   -4.4427   29.4491   66.4127 C   0  0  1  0  0  0  0  0  0  0  0  0
   -5.4478   28.5303   67.1705 C   0  0  2  0  0  0  0  0  0  0  0  0
   -5.8673   31.0988   65.0130 C   0  0  0  0  0  0  0  0  0  0  0  0
   -1.2430   24.4081   69.4137 N   0  0  0  0  0  0  0  0  0  0  0  0
   -5.0215   30.8313   66.2197 N   0  0  0  0  0  0  0  0  0  0  0  0
   -0.2025   26.0983   67.2812 O   0  0  0  0  0  0  0  0  0  0  0  0
   -1.3074   28.0037   68.2525 O   0  0  0  0  0  0  0  0  0  0  0  0
   -4.8953   27.1861   67.3831 O   0  0  0  0  0  0  0  0  0  0  0  0
   -3.4334   30.0865   68.5120 O   0  0  0  0  0  0  0  0  0  0  0  0
   -6.6604   28.4214   66.4338 O   0  0  0  0  0  0  0  0  0  0  0  0
   -7.7295   27.7600   67.1541 C   0  0  2  0  0  0  0  0  0  0  0  0
   -9.0016   27.5647   66.2956 C   0  0  1  0  0  0  0  0  0  0  0  0
   -9.6537   28.9411   65.9455 C   0  0  2  0  0  0  0  0  0  0  0  0
  -10.0301   29.6488   67.2313 C   0  0  1  0  0  0  0  0  0  0  0  0
   -8.7430   29.8698   68.0812 C   0  0  1  0  0  0  0  0  0  0  0  0
   -9.0416   30.5612   69.4102 C   0  0  0  0  0  0  0  0  0  0  0  0
  -10.6701   30.9466   66.9070 N   0  0  0  0  0  0  0  0  0  0  0  0
   -8.1005   28.5499   68.3661 O   0  0  0  0  0  0  0  0  0  0  0  0
   -8.6173   26.8216   65.1174 O   0  0  0  0  0  0  0  0  0  0  0  0
  -10.8342   28.7350   65.1664 O   0  0  0  0  0  0  0  0  0  0  0  0
   -9.8854   29.7413   70.1818 O   0  0  0  0  0  0  0  0  0  0  0  0
    1.2688   26.0545   66.9301 C   0  0  1  0  0  0  0  0  0  0  0  0
    1.4538   25.0992   65.7193 C   0  0  1  0  0  0  0  0  0  0  0  0
    2.9576   25.0217   65.3263 C   0  0  2  0  0  0  0  0  0  0  0  0
    3.4565   26.4371   64.9444 C   0  0  1  0  0  0  0  0  0  0  0  0
    3.2890   27.4235   66.1553 C   0  0  0  0  0  0  0  0  0  0  0  0
    1.7942   27.4712   66.5368 C   0  0  2  0  0  0  0  0  0  0  0  0
    4.8874   26.3744   64.5610 N   0  0  0  0  0  0  0  0  0  0  0  0
    1.6465   28.3929   67.6685 N   0  0  0  0  0  0  0  0  0  0  0  0
    0.9868   23.7786   66.0731 O   0  0  0  0  0  0  0  0  0  0  0  0
    3.1026   24.1235   64.2038 O   0  0  0  0  0  0  0  0  0  0  0  0
  1  2  1  0  0  0  0
  1 12  1  6  0  0  0
  1 13  1  0  0  0  0
  2  3  1  0  0  0  0
  2 10  1  6  0  0  0
  4  3  1  6  0  0  0
  4  5  1  0  0  0  0
  4 14  1  0  0  0  0
  5  6  1  0  0  0  0
  5 13  1  1  0  0  0
  6  7  1  0  0  0  0
  6 15  1  1  0  0  0
  7  8  1  0  0  0  0
  7 11  1  1  0  0  0
  8 14  1  0  0  0  0
  8 16  1  6  0  0  0
  9 11  1  0  0  0  0
 17 16  1  6  0  0  0
 17 18  1  0  0  0  0
 17 24  1  0  0  0  0
 18 19  1  0  0  0  0
 18 25  1  6  0  0  0
 19 20  1  0  0  0  0
 19 26  1  6  0  0  0
 20 21  1  0  0  0  0
 20 23  1  6  0  0  0
 21 22  1  1  0  0  0
 21 24  1  0  0  0  0
 22 27  1  0  0  0  0
 28 12  1  6  0  0  0
 28 29  1  0  0  0  0
 28 33  1  0  0  0  0
 29 30  1  0  0  0  0
 29 36  1  1  0  0  0
 30 31  1  0  0  0  0
 30 37  1  6  0  0  0
 31 32  1  0  0  0  0
 31 34  1  1  0  0  0
 32 33  1  0  0  0  0
 33 35  1  1  0  0  0
M  END
>  <CHROM.1>
-134.70435610,152.86481389,-170.86157756,167.33359942,-175.86562735,62.49382805
-3.59061547,27.73550870,66.99711207,-0.29360035,-0.10385759,0.62421860

>  <Name>
ligand

>  <RI>
0

>  <Rbt.Current_Directory>
/home/itssahil/PROJECTS/Mol_Feturizer/Test_systems_manuscript/rnas/2g5k

>  <Rbt.Executable>
rbdock ($Id: //depot/dev/client3/rdock/2013.1/src/exe/rbdock.cxx#4 $)

>  <Rbt.Library>
libRbt.so (2013.1, Build901 2013/11/27)

>  <Rbt.Parameter_File>
/export/apps/rDock/src/rDock_2013.1_src/data/scripts/dock_solv.prm

>  <Rbt.Receptor>
prm/pocket_docking_4.prm

>  <SCORE>
-6.4613

>  <SCORE.INTER>
-4.77192

>  <SCORE.INTER.CONST>
1

>  <SCORE.INTER.POLAR>
0

>  <SCORE.INTER.ROT>
6

>  <SCORE.INTER.SOLV>
16.9471

>  <SCORE.INTER.VDW>
-16.4303

>  <SCORE.INTER.norm>
-0.128971

>  <SCORE.INTRA>
-1.68938

>  <SCORE.INTRA.DIHEDRAL>
-3.40404

>  <SCORE.INTRA.DIHEDRAL.0>
11.3972

>  <SCORE.INTRA.POLAR>
0

>  <SCORE.INTRA.POLAR.0>
0

>  <SCORE.INTRA.REPUL>
0

>  <SCORE.INTRA.REPUL.0>
0

>  <SCORE.INTRA.SOLV>
0.68659

>  <SCORE.INTRA.SOLV.lig_0>
-92.3891

>  <SCORE.INTRA.VDW>
-0.330658

>  <SCORE.INTRA.VDW.0>
-2.90606

>  <SCORE.INTRA.norm>
-0.045659

>  <SCORE.RESTR>
0

>  <SCORE.RESTR.CAVITY>
0

>  <SCORE.RESTR.norm>
0

>  <SCORE.SYSTEM>
0

>  <SCORE.SYSTEM.CONST>
0

>  <SCORE.SYSTEM.DIHEDRAL>
0

>  <SCORE.SYSTEM.SOLV>
0

>  <SCORE.SYSTEM.norm>
0

>  <SCORE.heavy>
37

>  <SCORE.norm>
-0.17463

>  <RMSD>
1.605

$$$$
ligand
 OpenBabel02271912133D
libRbt.so/2013.1/901 2013/11/27
 37 40  0  0  0  0  0  0  0  0999 V2000
   -0.7735   26.7632   68.5682 C   0  0  1  0  0  0  0  0  0  0  0  0
   -1.8258   25.8724   69.2876 C   0  0  1  0  0  0  0  0  0  0  0  0
   -3.1373   25.7674   68.4862 C   0  0  0  0  0  0  0  0  0  0  0  0
   -3.6962   27.2036   68.2410 C   0  0  1  0  0  0  0  0  0  0  0  0
   -2.6528   28.0770   67.4715 C   0  0  1  0  0  0  0  0  0  0  0  0
   -3.2435   29.5396   67.2337 C   0  0  1  0  0  0  0  0  0  0  0  0
   -4.5627   29.4247   66.4149 C   0  0  1  0  0  0  0  0  0  0  0  0
   -5.5499   28.5183   67.2101 C   0  0  2  0  0  0  0  0  0  0  0  0
   -4.8686   31.4992   64.8939 C   0  0  0  0  0  0  0  0  0  0  0  0
   -1.2744   24.5270   69.5541 N   0  0  0  0  0  0  0  0  0  0  0  0
   -5.1613   30.7922   66.1813 N   0  0  0  0  0  0  0  0  0  0  0  0
   -0.2722   26.1598   67.3595 O   0  0  0  0  0  0  0  0  0  0  0  0
   -1.3951   28.0815   68.2765 O   0  0  0  0  0  0  0  0  0  0  0  0
   -4.9781   27.1891   67.4623 O   0  0  0  0  0  0  0  0  0  0  0  0
   -3.5466   30.1438   68.4844 O   0  0  0  0  0  0  0  0  0  0  0  0
   -6.7664   28.3695   66.4868 O   0  0  0  0  0  0  0  0  0  0  0  0
   -7.8028   27.6673   67.2161 C   0  0  2  0  0  0  0  0  0  0  0  0
   -9.0773   27.4311   66.3715 C   0  0  1  0  0  0  0  0  0  0  0  0
   -9.7817   28.7852   66.0361 C   0  0  2  0  0  0  0  0  0  0  0  0
  -10.1677   29.4730   67.3299 C   0  0  1  0  0  0  0  0  0  0  0  0
   -8.8792   29.7354   68.1659 C   0  0  1  0  0  0  0  0  0  0  0  0
   -9.1863   30.4094   69.5018 C   0  0  0  0  0  0  0  0  0  0  0  0
  -10.8569   30.7488   67.0198 N   0  0  0  0  0  0  0  0  0  0  0  0
   -8.1871   28.4377   68.4364 O   0  0  0  0  0  0  0  0  0  0  0  0
   -8.6809   26.7077   65.1851 O   0  0  0  0  0  0  0  0  0  0  0  0
  -10.9634   28.5411   65.2698 O   0  0  0  0  0  0  0  0  0  0  0  0
  -10.0160   29.5694   70.2668 O   0  0  0  0  0  0  0  0  0  0  0  0
    1.2015   26.0690   67.0277 C   0  0  1  0  0  0  0  0  0  0  0  0
    1.3581   25.2439   65.7211 C   0  0  1  0  0  0  0  0  0  0  0  0
    2.8632   25.1223   65.3444 C   0  0  2  0  0  0  0  0  0  0  0  0
    3.4492   26.5396   65.1299 C   0  0  1  0  0  0  0  0  0  0  0  0
    3.3119   27.3946   66.4403 C   0  0  0  0  0  0  0  0  0  0  0  0
    1.8143   27.4873   66.8024 C   0  0  2  0  0  0  0  0  0  0  0  0
    4.8821   26.4360   64.7633 N   0  0  0  0  0  0  0  0  0  0  0  0
    1.6948   28.2857   68.0273 N   0  0  0  0  0  0  0  0  0  0  0  0
    0.8099   23.9218   65.9187 O   0  0  0  0  0  0  0  0  0  0  0  0
    2.9812   24.3464   64.1312 O   0  0  0  0  0  0  0  0  0  0  0  0
  1  2  1  0  0  0  0
  1 12  1  6  0  0  0
  1 13  1  0  0  0  0
  2  3  1  0  0  0  0
  2 10  1  6  0  0  0
  4  3  1  6  0  0  0
  4  5  1  0  0  0  0
  4 14  1  0  0  0  0
  5  6  1  0  0  0  0
  5 13  1  1  0  0  0
  6  7  1  0  0  0  0
  6 15  1  1  0  0  0
  7  8  1  0  0  0  0
  7 11  1  1  0  0  0
  8 14  1  0  0  0  0
  8 16  1  6  0  0  0
  9 11  1  0  0  0  0
 17 16  1  6  0  0  0
 17 18  1  0  0  0  0
 17 24  1  0  0  0  0
 18 19  1  0  0  0  0
 18 25  1  6  0  0  0
 19 20  1  0  0  0  0
 19 26  1  6  0  0  0
 20 21  1  0  0  0  0
 20 23  1  6  0  0  0
 21 22  1  1  0  0  0
 21 24  1  0  0  0  0
 22 27  1  0  0  0  0
 28 12  1  6  0  0  0
 28 29  1  0  0  0  0
 28 33  1  0  0  0  0
 29 30  1  0  0  0  0
 29 36  1  1  0  0  0
 30 31  1  0  0  0  0
 30 37  1  6  0  0  0
 31 32  1  0  0  0  0
 31 34  1  1  0  0  0
 32 33  1  0  0  0  0
 33 35  1  1  0  0  0
M  END
>  <CHROM.1>
-131.89109580,95.78382661,-173.36920429,174.78964411,-175.89285399,61.18613391
-3.64608069,27.73573232,67.06855155,-0.28320913,-0.05551521,0.50428464

>  <Name>
ligand

>  <RI>
0

>  <Rbt.Current_Directory>
/home/itssahil/PROJECTS/Mol_Feturizer/Test_systems_manuscript/rnas/2g5k

>  <Rbt.Executable>
rbdock ($Id: //depot/dev/client3/rdock/2013.1/src/exe/rbdock.cxx#4 $)

>  <Rbt.Library>
libRbt.so (2013.1, Build901 2013/11/27)

>  <Rbt.Parameter_File>
/export/apps/rDock/src/rDock_2013.1_src/data/scripts/dock_solv.prm

>  <Rbt.Receptor>
prm/pocket_docking_4.prm

>  <SCORE>
-6.42466

>  <SCORE.INTER>
-4.97044

>  <SCORE.INTER.CONST>
1

>  <SCORE.INTER.POLAR>
0

>  <SCORE.INTER.ROT>
6

>  <SCORE.INTER.SOLV>
17.7419

>  <SCORE.INTER.VDW>
-16.8276

>  <SCORE.INTER.norm>
-0.134336

>  <SCORE.INTRA>
-1.45422

>  <SCORE.INTRA.DIHEDRAL>
-3.63331

>  <SCORE.INTRA.DIHEDRAL.0>
11.3972

>  <SCORE.INTRA.POLAR>
0

>  <SCORE.INTRA.POLAR.0>
0

>  <SCORE.INTRA.REPUL>
0

>  <SCORE.INTRA.REPUL.0>
0

>  <SCORE.INTRA.SOLV>
0.524975

>  <SCORE.INTRA.SOLV.lig_0>
-92.3891

>  <SCORE.INTRA.VDW>
0.0999518

>  <SCORE.INTRA.VDW.0>
-2.90606

>  <SCORE.INTRA.norm>
-0.0393032

>  <SCORE.RESTR>
0

>  <SCORE.RESTR.CAVITY>
0

>  <SCORE.RESTR.norm>
0

>  <SCORE.SYSTEM>
0

>  <SCORE.SYSTEM.CONST>
0

>  <SCORE.SYSTEM.DIHEDRAL>
0

>  <SCORE.SYSTEM.SOLV>
0

>  <SCORE.SYSTEM.norm>
0

>  <SCORE.heavy>
37

>  <SCORE.norm>
-0.173639

>  <RMSD>
1.697

$$$$
ligand
 OpenBabel02271912133D
libRbt.so/2013.1/901 2013/11/27
 37 40  0  0  0  0  0  0  0  0999 V2000
   -0.4799   26.5543   68.1938 C   0  0  1  0  0  0  0  0  0  0  0  0
   -1.3971   25.5571   68.9574 C   0  0  1  0  0  0  0  0  0  0  0  0
   -2.7925   25.4482   68.3138 C   0  0  0  0  0  0  0  0  0  0  0  0
   -3.4363   26.8687   68.2592 C   0  0  1  0  0  0  0  0  0  0  0  0
   -2.5335   27.8520   67.4458 C   0  0  1  0  0  0  0  0  0  0  0  0
   -3.2090   29.2965   67.4047 C   0  0  1  0  0  0  0  0  0  0  0  0
   -4.6138   29.1787   66.7441 C   0  0  1  0  0  0  0  0  0  0  0  0
   -5.4563   28.1633   67.5734 C   0  0  2  0  0  0  0  0  0  0  0  0
   -5.8046   31.1215   67.9762 C   0  0  0  0  0  0  0  0  0  0  0  0
   -0.7618   24.2250   69.0414 N   0  0  0  0  0  0  0  0  0  0  0  0
   -5.2926   30.5279   66.7001 N   0  0  0  0  0  0  0  0  0  0  0  0
   -0.1081   26.0740   66.8872 O   0  0  0  0  0  0  0  0  0  0  0  0
   -1.1867   27.8578   68.0910 O   0  0  0  0  0  0  0  0  0  0  0  0
   -4.8032   26.8495   67.6422 O   0  0  0  0  0  0  0  0  0  0  0  0
   -3.3790   29.7845   68.7292 O   0  0  0  0  0  0  0  0  0  0  0  0
   -6.7460   28.0096   66.9919 O   0  0  0  0  0  0  0  0  0  0  0  0
   -7.7381   27.4639   67.8959 C   0  0  2  0  0  0  0  0  0  0  0  0
   -8.6850   26.4516   67.2089 C   0  0  1  0  0  0  0  0  0  0  0  0
   -9.5790   27.1615   66.1415 C   0  0  2  0  0  0  0  0  0  0  0  0
  -10.4096   28.2281   66.8259 C   0  0  1  0  0  0  0  0  0  0  0  0
   -9.4534   29.2619   67.4927 C   0  0  1  0  0  0  0  0  0  0  0  0
  -10.2165   30.3632   68.2263 C   0  0  0  0  0  0  0  0  0  0  0  0
  -11.2774   28.8917   65.8230 N   0  0  0  0  0  0  0  0  0  0  0  0
   -8.5685   28.5622   68.4742 O   0  0  0  0  0  0  0  0  0  0  0  0
   -7.8621   25.4118   66.6346 O   0  0  0  0  0  0  0  0  0  0  0  0
  -10.4553   26.2107   65.5321 O   0  0  0  0  0  0  0  0  0  0  0  0
   -9.3066   31.3332   68.6852 O   0  0  0  0  0  0  0  0  0  0  0  0
    0.8155   26.8308   65.9575 C   0  0  1  0  0  0  0  0  0  0  0  0
    2.2716   26.6611   66.4709 C   0  0  1  0  0  0  0  0  0  0  0  0
    3.2570   27.4292   65.5430 C   0  0  2  0  0  0  0  0  0  0  0  0
    3.1496   26.8607   64.1065 C   0  0  1  0  0  0  0  0  0  0  0  0
    1.6872   27.0273   63.5581 C   0  0  0  0  0  0  0  0  0  0  0  0
    0.7278   26.2720   64.5023 C   0  0  2  0  0  0  0  0  0  0  0  0
    4.0898   27.5807   63.2143 N   0  0  0  0  0  0  0  0  0  0  0  0
   -0.6351   26.4334   63.9842 N   0  0  0  0  0  0  0  0  0  0  0  0
    2.3732   27.1890   67.8120 O   0  0  0  0  0  0  0  0  0  0  0  0
    4.6012   27.2606   66.0455 O   0  0  0  0  0  0  0  0  0  0  0  0
  1  2  1  0  0  0  0
  1 12  1  6  0  0  0
  1 13  1  0  0  0  0
  2  3  1  0  0  0  0
  2 10  1  6  0  0  0
  4  3  1  6  0  0  0
  4  5  1  0  0  0  0
  4 14  1  0  0  0  0
  5  6  1  0  0  0  0
  5 13  1  1  0  0  0
  6  7  1  0  0  0  0
  6 15  1  1  0  0  0
  7  8  1  0  0  0  0
  7 11  1  1  0  0  0
  8 14  1  0  0  0  0
  8 16  1  6  0  0  0
  9 11  1  0  0  0  0
 17 16  1  6  0  0  0
 17 18  1  0  0  0  0
 17 24  1  0  0  0  0
 18 19  1  0  0  0  0
 18 25  1  6  0  0  0
 19 20  1  0  0  0  0
 19 26  1  1  0  0  0
 20 21  1  0  0  0  0
 20 23  1  6  0  0  0
 21 22  1  1  0  0  0
 21 24  1  0  0  0  0
 22 27  1  0  0  0  0
 28 12  1  1  0  0  0
 28 29  1  0  0  0  0
 28 33  1  0  0  0  0
 29 30  1  0  0  0  0
 29 36  1  1  0  0  0
 30 31  1  0  0  0  0
 30 37  1  1  0  0  0
 31 32  1  0  0  0  0
 31 34  1  6  0  0  0
 32 33  1  0  0  0  0
 33 35  1  6  0  0  0
M  END
>  <CHROM.1>
-177.90531386,-72.10069809,-160.33954109,75.88084582,-140.42950001,-173.98020515
-3.63526418,27.64447260,66.91883600,0.18423186,-0.06738693,-2.78432946

>  <Name>
ligand

>  <RI>
0

>  <Rbt.Current_Directory>
/home/itssahil/PROJECTS/Mol_Feturizer/Test_systems_manuscript/rnas/2g5k

>  <Rbt.Executable>
rbdock ($Id: //depot/dev/client3/rdock/2013.1/src/exe/rbdock.cxx#4 $)

>  <Rbt.Library>
libRbt.so (2013.1, Build901 2013/11/27)

>  <Rbt.Parameter_File>
/export/apps/rDock/src/rDock_2013.1_src/data/scripts/dock_solv.prm

>  <Rbt.Receptor>
prm/pocket_docking_3.prm

>  <SCORE>
-1.34731

>  <SCORE.INTER>
-0.377703

>  <SCORE.INTER.CONST>
1

>  <SCORE.INTER.POLAR>
0

>  <SCORE.INTER.ROT>
6

>  <SCORE.INTER.SOLV>
17.9759

>  <SCORE.INTER.VDW>
-13.8438

>  <SCORE.INTER.norm>
-0.0102082

>  <SCORE.INTRA>
-0.969607

>  <SCORE.INTRA.DIHEDRAL>
-2.85778

>  <SCORE.INTRA.DIHEDRAL.0>
11.3972

>  <SCORE.INTRA.POLAR>
0

>  <SCORE.INTRA.POLAR.0>
0

>  <SCORE.INTRA.REPUL>
0

>  <SCORE.INTRA.REPUL.0>
0

>  <SCORE.INTRA.SOLV>
-1.20208

>  <SCORE.INTRA.SOLV.lig_0>
-92.3891

>  <SCORE.INTRA.VDW>
1.06033

>  <SCORE.INTRA.VDW.0>
-2.90606

>  <SCORE.INTRA.norm>
-0.0262056

>  <SCORE.RESTR>
0

>  <SCORE.RESTR.CAVITY>
0

>  <SCORE.RESTR.norm>
0

>  <SCORE.SYSTEM>
0

>  <SCORE.SYSTEM.CONST>
0

>  <SCORE.SYSTEM.DIHEDRAL>
0

>  <SCORE.SYSTEM.SOLV>
0

>  <SCORE.SYSTEM.norm>
0

>  <SCORE.heavy>
37

>  <SCORE.norm>
-0.0364138

>  <RMSD>
1.698

$$$$
ligand
 OpenBabel02271912133D
libRbt.so/2013.1/901 2013/11/27
 37 40  0  0  0  0  0  0  0  0999 V2000
   -0.9183   27.1108   67.3961 C   0  0  1  0  0  0  0  0  0  0  0  0
   -1.8567   25.9807   67.9067 C   0  0  1  0  0  0  0  0  0  0  0  0
   -3.1754   25.9229   67.1123 C   0  0  0  0  0  0  0  0  0  0  0  0
   -3.8786   27.3133   67.1982 C   0  0  1  0  0  0  0  0  0  0  0  0
   -2.9489   28.4367   66.6350 C   0  0  1  0  0  0  0  0  0  0  0  0
   -3.6860   29.8479   66.7343 C   0  0  1  0  0  0  0  0  0  0  0  0
   -5.0119   29.7836   65.9208 C   0  0  1  0  0  0  0  0  0  0  0  0
   -5.8817   28.6281   66.5012 C   0  0  2  0  0  0  0  0  0  0  0  0
   -5.9875   31.8747   64.7435 C   0  0  0  0  0  0  0  0  0  0  0  0
   -1.1691   24.6728   67.8618 N   0  0  0  0  0  0  0  0  0  0  0  0
   -5.7475   31.1008   66.0030 N   0  0  0  0  0  0  0  0  0  0  0  0
   -0.3973   26.8440   66.0794 O   0  0  0  0  0  0  0  0  0  0  0  0
   -1.6738   28.3907   67.4109 O   0  0  0  0  0  0  0  0  0  0  0  0
   -5.1758   27.3413   66.4459 O   0  0  0  0  0  0  0  0  0  0  0  0
   -4.0086   30.1263   68.0906 O   0  0  0  0  0  0  0  0  0  0  0  0
   -7.0992   28.5203   65.7725 O   0  0  0  0  0  0  0  0  0  0  0  0
   -8.1545   27.8319   66.4878 C   0  0  2  0  0  0  0  0  0  0  0  0
   -9.5016   27.8416   65.7271 C   0  0  1  0  0  0  0  0  0  0  0  0
  -10.0743   29.2923   65.6277 C   0  0  2  0  0  0  0  0  0  0  0  0
  -10.2936   29.8320   67.0265 C   0  0  1  0  0  0  0  0  0  0  0  0
   -8.9304   29.8478   67.7808 C   0  0  1  0  0  0  0  0  0  0  0  0
   -9.0701   30.3602   69.2130 C   0  0  0  0  0  0  0  0  0  0  0  0
  -10.8581   31.2005   66.9407 N   0  0  0  0  0  0  0  0  0  0  0  0
   -8.3681   28.4629   67.8244 O   0  0  0  0  0  0  0  0  0  0  0  0
   -9.2686   27.2512   64.4289 O   0  0  0  0  0  0  0  0  0  0  0  0
  -11.3249   29.2743   64.9357 O   0  0  0  0  0  0  0  0  0  0  0  0
   -9.8542   29.4582   69.9554 O   0  0  0  0  0  0  0  0  0  0  0  0
    0.4835   25.6553   65.7615 C   0  0  1  0  0  0  0  0  0  0  0  0
    0.9594   25.7800   64.2882 C   0  0  1  0  0  0  0  0  0  0  0  0
    1.8678   24.5721   63.9172 C   0  0  2  0  0  0  0  0  0  0  0  0
    3.1000   24.5564   64.8550 C   0  0  1  0  0  0  0  0  0  0  0  0
    2.6480   24.4220   66.3533 C   0  0  0  0  0  0  0  0  0  0  0  0
    1.7364   25.6205   66.6926 C   0  0  2  0  0  0  0  0  0  0  0  0
    3.9771   23.4129   64.5060 N   0  0  0  0  0  0  0  0  0  0  0  0
    1.3177   25.4869   68.0922 N   0  0  0  0  0  0  0  0  0  0  0  0
   -0.1891   25.7972   63.4118 O   0  0  0  0  0  0  0  0  0  0  0  0
    2.2908   24.7091   62.5424 O   0  0  0  0  0  0  0  0  0  0  0  0
  1  2  1  0  0  0  0
  1 12  1  6  0  0  0
  1 13  1  0  0  0  0
  2  3  1  0  0  0  0
  2 10  1  6  0  0  0
  4  3  1  6  0  0  0
  4  5  1  0  0  0  0
  4 14  1  0  0  0  0
  5  6  1  0  0  0  0
  5 13  1  1  0  0  0
  6  7  1  0  0  0  0
  6 15  1  1  0  0  0
  7  8  1  0  0  0  0
  7 11  1  1  0  0  0
  8 14  1  0  0  0  0
  8 16  1  6  0  0  0
  9 11  1  0  0  0  0
 17 16  1  6  0  0  0
 17 18  1  0  0  0  0
 17 24  1  0  0  0  0
 18 19  1  0  0  0  0
 18 25  1  6  0  0  0
 19 20  1  0  0  0  0
 19 26  1  6  0  0  0
 20 21  1  0  0  0  0
 20 23  1  6  0  0  0
 21 22  1  1  0  0  0
 21 24  1  0  0  0  0
 22 27  1  0  0  0  0
 28 12  1  1  0  0  0
 28 29  1  0  0  0  0
 28 33  1  0  0  0  0
 29 30  1  0  0  0  0
 29 36  1  6  0  0  0
 30 31  1  0  0  0  0
 30 37  1  6  0  0  0
 31 32  1  0  0  0  0
 31 34  1  6  0  0  0
 32 33  1  0  0  0  0
 33 35  1  1  0  0  0
M  END
>  <CHROM.1>
-62.16105582,118.03024473,-159.38276565,-174.40277791,174.77242889,65.42990637
-4.00518422,27.65680636,66.31803141,-0.23983665,-0.33340559,1.24223330

>  <Name>
ligand

>  <RI>
0

>  <Rbt.Current_Directory>
/home/itssahil/PROJECTS/Mol_Feturizer/Test_systems_manuscript/rnas/2g5k

>  <Rbt.Executable>
rbdock ($Id: //depot/dev/client3/rdock/2013.1/src/exe/rbdock.cxx#4 $)

>  <Rbt.Library>
libRbt.so (2013.1, Build901 2013/11/27)

>  <Rbt.Parameter_File>
/export/apps/rDock/src/rDock_2013.1_src/data/scripts/dock_solv.prm

>  <Rbt.Receptor>
prm/pocket_docking_2.prm

>  <SCORE>
-4.12875

>  <SCORE.INTER>
-3.22502

>  <SCORE.INTER.CONST>
1

>  <SCORE.INTER.POLAR>
0

>  <SCORE.INTER.ROT>
6

>  <SCORE.INTER.SOLV>
16.5393

>  <SCORE.INTER.VDW>
-15.2631

>  <SCORE.INTER.norm>
-0.0871626

>  <SCORE.INTRA>
-1.36085

>  <SCORE.INTRA.DIHEDRAL>
-7.85454

>  <SCORE.INTRA.DIHEDRAL.0>
11.3972

>  <SCORE.INTRA.POLAR>
0

>  <SCORE.INTRA.POLAR.0>
0

>  <SCORE.INTRA.REPUL>
0

>  <SCORE.INTRA.REPUL.0>
0

>  <SCORE.INTRA.SOLV>
4.69729

>  <SCORE.INTRA.SOLV.lig_0>
-92.3891

>  <SCORE.INTRA.VDW>
0.217779

>  <SCORE.INTRA.VDW.0>
-2.90606

>  <SCORE.INTRA.norm>
-0.0367796

>  <SCORE.RESTR>
0.457114

>  <SCORE.RESTR.CAVITY>
0.457114

>  <SCORE.RESTR.norm>
0.0123544

>  <SCORE.SYSTEM>
0

>  <SCORE.SYSTEM.CONST>
0

>  <SCORE.SYSTEM.DIHEDRAL>
0

>  <SCORE.SYSTEM.SOLV>
0

>  <SCORE.SYSTEM.norm>
0

>  <SCORE.heavy>
37

>  <SCORE.norm>
-0.111588

>  <RMSD>
1.798

$$$$
ligand
 OpenBabel02271912133D
libRbt.so/2013.1/901 2013/11/27
 37 40  0  0  0  0  0  0  0  0999 V2000
   -0.8489   27.3444   67.0879 C   0  0  1  0  0  0  0  0  0  0  0  0
   -1.8658   26.3005   67.6309 C   0  0  1  0  0  0  0  0  0  0  0  0
   -3.1797   26.3025   66.8265 C   0  0  0  0  0  0  0  0  0  0  0  0
   -3.7871   27.7397   66.8541 C   0  0  1  0  0  0  0  0  0  0  0  0
   -2.7790   28.7755   66.2588 C   0  0  1  0  0  0  0  0  0  0  0  0
   -3.4190   30.2362   66.2987 C   0  0  1  0  0  0  0  0  0  0  0  0
   -4.7403   30.2316   65.4754 C   0  0  1  0  0  0  0  0  0  0  0  0
   -5.6910   29.1603   66.0898 C   0  0  2  0  0  0  0  0  0  0  0  0
   -6.0097   32.1267   64.2477 C   0  0  0  0  0  0  0  0  0  0  0  0
   -1.2686   24.9483   67.6410 N   0  0  0  0  0  0  0  0  0  0  0  0
   -5.3850   31.5977   65.5019 N   0  0  0  0  0  0  0  0  0  0  0  0
   -0.3381   26.9937   65.7870 O   0  0  0  0  0  0  0  0  0  0  0  0
   -1.5155   28.6723   67.0481 O   0  0  0  0  0  0  0  0  0  0  0  0
   -5.0740   27.8274   66.0889 O   0  0  0  0  0  0  0  0  0  0  0  0
   -3.7314   30.5866   67.6407 O   0  0  0  0  0  0  0  0  0  0  0  0
   -6.9078   29.1081   65.3538 O   0  0  0  0  0  0  0  0  0  0  0  0
   -7.9648   28.3706   66.0156 C   0  0  2  0  0  0  0  0  0  0  0  0
   -9.3057   28.4207   65.2455 C   0  0  1  0  0  0  0  0  0  0  0  0
   -9.8861   29.8716   65.2321 C   0  0  2  0  0  0  0  0  0  0  0  0
  -10.1201   30.3214   66.6600 C   0  0  1  0  0  0  0  0  0  0  0  0
   -8.7632   30.2974   67.4255 C   0  0  1  0  0  0  0  0  0  0  0  0
   -8.9177   30.7183   68.8857 C   0  0  0  0  0  0  0  0  0  0  0  0
  -10.6919   31.6896   66.6551 N   0  0  0  0  0  0  0  0  0  0  0  0
   -8.1931   28.9155   67.3872 O   0  0  0  0  0  0  0  0  0  0  0  0
   -9.0585   27.9139   63.9150 O   0  0  0  0  0  0  0  0  0  0  0  0
  -11.1309   29.8903   64.5297 O   0  0  0  0  0  0  0  0  0  0  0  0
   -9.7728   29.8145   69.5424 O   0  0  0  0  0  0  0  0  0  0  0  0
    0.5284   25.7785   65.5367 C   0  0  1  0  0  0  0  0  0  0  0  0
    1.0617   25.8507   64.0796 C   0  0  1  0  0  0  0  0  0  0  0  0
    1.9572   24.6142   63.7778 C   0  0  2  0  0  0  0  0  0  0  0  0
    3.1528   24.6005   64.7619 C   0  0  1  0  0  0  0  0  0  0  0  0
    2.6421   24.5189   66.2451 C   0  0  0  0  0  0  0  0  0  0  0  0
    1.7444   25.7452   66.5154 C   0  0  2  0  0  0  0  0  0  0  0  0
    4.0175   23.4298   64.4790 N   0  0  0  0  0  0  0  0  0  0  0  0
    1.2707   25.6609   67.9012 N   0  0  0  0  0  0  0  0  0  0  0  0
   -0.0525   25.8658   63.1600 O   0  0  0  0  0  0  0  0  0  0  0  0
    2.4343   24.7025   62.4167 O   0  0  0  0  0  0  0  0  0  0  0  0
  1  2  1  0  0  0  0
  1 12  1  6  0  0  0
  1 13  1  0  0  0  0
  2  3  1  0  0  0  0
  2 10  1  6  0  0  0
  4  3  1  6  0  0  0
  4  5  1  0  0  0  0
  4 14  1  0  0  0  0
  5  6  1  0  0  0  0
  5 13  1  1  0  0  0
  6  7  1  0  0  0  0
  6 15  1  1  0  0  0
  7  8  1  0  0  0  0
  7 11  1  1  0  0  0
  8 14  1  0  0  0  0
  8 16  1  6  0  0  0
  9 11  1  0  0  0  0
 17 16  1  6  0  0  0
 17 18  1  0  0  0  0
 17 24  1  0  0  0  0
 18 19  1  0  0  0  0
 18 25  1  6  0  0  0
 19 20  1  0  0  0  0
 19 26  1  6  0  0  0
 20 21  1  0  0  0  0
 20 23  1  6  0  0  0
 21 22  1  1  0  0  0
 21 24  1  0  0  0  0
 22 27  1  0  0  0  0
 28 12  1  1  0  0  0
 28 29  1  0  0  0  0
 28 33  1  0  0  0  0
 29 30  1  0  0  0  0
 29 36  1  6  0  0  0
 30 31  1  0  0  0  0
 30 37  1  6  0  0  0
 31 32  1  0  0  0  0
 31 34  1  6  0  0  0
 32 33  1  0  0  0  0
 33 35  1  1  0  0  0
M  END
>  <CHROM.1>
-65.77145287,139.81942891,-166.80013093,-171.30474453,175.62391797,61.66880377
-3.88182010,27.99286088,65.99210645,-0.20648826,-0.38860715,1.30709749

>  <Name>
ligand

>  <RI>
0

>  <Rbt.Current_Directory>
/home/itssahil/PROJECTS/Mol_Feturizer/Test_systems_manuscript/rnas/2g5k

>  <Rbt.Executable>
rbdock ($Id: //depot/dev/client3/rdock/2013.1/src/exe/rbdock.cxx#4 $)

>  <Rbt.Library>
libRbt.so (2013.1, Build901 2013/11/27)

>  <Rbt.Parameter_File>
/export/apps/rDock/src/rDock_2013.1_src/data/scripts/dock_solv.prm

>  <Rbt.Receptor>
prm/pocket_docking_2.prm

>  <SCORE>
-4.51956

>  <SCORE.INTER>
-2.88151

>  <SCORE.INTER.CONST>
1

>  <SCORE.INTER.POLAR>
0

>  <SCORE.INTER.ROT>
6

>  <SCORE.INTER.SOLV>
14.4389

>  <SCORE.INTER.VDW>
-14.334

>  <SCORE.INTER.norm>
-0.0778788

>  <SCORE.INTRA>
-1.94417

>  <SCORE.INTRA.DIHEDRAL>
-8.99922

>  <SCORE.INTRA.DIHEDRAL.0>
11.3972

>  <SCORE.INTRA.POLAR>
0

>  <SCORE.INTRA.POLAR.0>
0

>  <SCORE.INTRA.REPUL>
0

>  <SCORE.INTRA.REPUL.0>
0

>  <SCORE.INTRA.SOLV>
4.4956

>  <SCORE.INTRA.SOLV.lig_0>
-92.3891

>  <SCORE.INTRA.VDW>
0.307635

>  <SCORE.INTRA.VDW.0>
-2.90606

>  <SCORE.INTRA.norm>
-0.0525452

>  <SCORE.RESTR>
0.306126

>  <SCORE.RESTR.CAVITY>
0.306126

>  <SCORE.RESTR.norm>
0.00827368

>  <SCORE.SYSTEM>
0

>  <SCORE.SYSTEM.CONST>
0

>  <SCORE.SYSTEM.DIHEDRAL>
0

>  <SCORE.SYSTEM.SOLV>
0

>  <SCORE.SYSTEM.norm>
0

>  <SCORE.heavy>
37

>  <SCORE.norm>
-0.12215

>  <RMSD>
1.817

$$$$
ligand
 OpenBabel02271912133D
libRbt.so/2013.1/901 2013/11/27
 37 40  0  0  0  0  0  0  0  0999 V2000
   -2.2830   27.3510   67.2016 C   0  0  1  0  0  0  0  0  0  0  0  0
   -3.4241   26.5594   67.9014 C   0  0  1  0  0  0  0  0  0  0  0  0
   -4.7181   26.5522   67.0653 C   0  0  0  0  0  0  0  0  0  0  0  0
   -5.1496   28.0263   66.7893 C   0  0  1  0  0  0  0  0  0  0  0  0
   -4.0176   28.8006   66.0394 C   0  0  1  0  0  0  0  0  0  0  0  0
   -4.4788   30.3037   65.7696 C   0  0  1  0  0  0  0  0  0  0  0  0
   -5.7808   30.2872   64.9161 C   0  0  1  0  0  0  0  0  0  0  0  0
   -6.8603   29.4755   65.6936 C   0  0  2  0  0  0  0  0  0  0  0  0
   -5.7824   32.4006   63.4183 C   0  0  0  0  0  0  0  0  0  0  0  0
   -2.9930   25.1767   68.1975 N   0  0  0  0  0  0  0  0  0  0  0  0
   -6.2578   31.6961   64.6514 N   0  0  0  0  0  0  0  0  0  0  0  0
   -1.8014   26.6927   66.0138 O   0  0  0  0  0  0  0  0  0  0  0  0
   -2.7856   28.7121   66.8787 O   0  0  0  0  0  0  0  0  0  0  0  0
   -6.4072   28.1071   65.9758 O   0  0  0  0  0  0  0  0  0  0  0  0
   -4.7640   30.9471   67.0049 O   0  0  0  0  0  0  0  0  0  0  0  0
   -8.0653   29.4180   64.9388 O   0  0  0  0  0  0  0  0  0  0  0  0
   -9.2214   29.0016   65.7063 C   0  0  2  0  0  0  0  0  0  0  0  0
  -10.4655   28.7397   64.8247 C   0  0  1  0  0  0  0  0  0  0  0  0
  -10.9740   30.0653   64.1716 C   0  0  2  0  0  0  0  0  0  0  0  0
  -11.3431   31.0442   65.2677 C   0  0  1  0  0  0  0  0  0  0  0  0
  -10.0815   31.3282   66.1368 C   0  0  1  0  0  0  0  0  0  0  0  0
  -10.3766   32.2935   67.2832 C   0  0  0  0  0  0  0  0  0  0  0  0
  -11.8478   32.2972   64.6560 N   0  0  0  0  0  0  0  0  0  0  0  0
   -9.5744   30.0454   66.7143 O   0  0  0  0  0  0  0  0  0  0  0  0
  -10.0966   27.7473   63.8413 O   0  0  0  0  0  0  0  0  0  0  0  0
  -12.1315   29.8016   63.3756 O   0  0  0  0  0  0  0  0  0  0  0  0
  -10.6870   33.5605   66.7562 O   0  0  0  0  0  0  0  0  0  0  0  0
   -0.5650   27.1374   65.2629 C   0  0  1  0  0  0  0  0  0  0  0  0
    0.6843   26.6542   66.0493 C   0  0  1  0  0  0  0  0  0  0  0  0
    1.9819   27.0949   65.3118 C   0  0  2  0  0  0  0  0  0  0  0  0
    1.9960   26.4734   63.8934 C   0  0  1  0  0  0  0  0  0  0  0  0
    0.7462   26.9529   63.0715 C   0  0  0  0  0  0  0  0  0  0  0  0
   -0.5264   26.5192   63.8297 C   0  0  2  0  0  0  0  0  0  0  0  0
    3.2321   26.8810   63.1832 N   0  0  0  0  0  0  0  0  0  0  0  0
   -1.6883   26.9716   63.0568 N   0  0  0  0  0  0  0  0  0  0  0  0
    0.6717   27.2312   67.3737 O   0  0  0  0  0  0  0  0  0  0  0  0
    3.1270   26.6392   66.0659 O   0  0  0  0  0  0  0  0  0  0  0  0
  1  2  1  0  0  0  0
  1 12  1  6  0  0  0
  1 13  1  0  0  0  0
  2  3  1  0  0  0  0
  2 10  1  6  0  0  0
  4  3  1  6  0  0  0
  4  5  1  0  0  0  0
  4 14  1  0  0  0  0
  5  6  1  0  0  0  0
  5 13  1  1  0  0  0
  6  7  1  0  0  0  0
  6 15  1  1  0  0  0
  7  8  1  0  0  0  0
  7 11  1  1  0  0  0
  8 14  1  0  0  0  0
  8 16  1  6  0  0  0
  9 11  1  0  0  0  0
 17 16  1  6  0  0  0
 17 18  1  0  0  0  0
 17 24  1  0  0  0  0
 18 19  1  0  0  0  0
 18 25  1  6  0  0  0
 19 20  1  0  0  0  0
 19 26  1  1  0  0  0
 20 21  1  0  0  0  0
 20 23  1  6  0  0  0
 21 22  1  1  0  0  0
 21 24  1  0  0  0  0
 22 27  1  0  0  0  0
 28 12  1  1  0  0  0
 28 29  1  0  0  0  0
 28 33  1  0  0  0  0
 29 30  1  0  0  0  0
 29 36  1  1  0  0  0
 30 31  1  0  0  0  0
 30 37  1  1  0  0  0
 31 32  1  0  0  0  0
 31 34  1  6  0  0  0
 32 33  1  0  0  0  0
 33 35  1  6  0  0  0
M  END
>  <CHROM.1>
-170.57887572,90.83053006,-164.57219490,77.00434222,-171.25261448,-66.52208540
-4.97733880,28.80754622,65.53146225,0.20104080,-0.28675687,2.18772037

>  <Name>
ligand

>  <RI>
0

>  <Rbt.Current_Directory>
/home/itssahil/PROJECTS/Mol_Feturizer/Test_systems_manuscript/rnas/2g5k

>  <Rbt.Executable>
rbdock ($Id: //depot/dev/client3/rdock/2013.1/src/exe/rbdock.cxx#4 $)

>  <Rbt.Library>
libRbt.so (2013.1, Build901 2013/11/27)

>  <Rbt.Parameter_File>
/export/apps/rDock/src/rDock_2013.1_src/data/scripts/dock_solv.prm

>  <Rbt.Receptor>
prm/pocket_docking_3.prm

>  <SCORE>
-2.74352

>  <SCORE.INTER>
1.15496

>  <SCORE.INTER.CONST>
1

>  <SCORE.INTER.POLAR>
0

>  <SCORE.INTER.ROT>
6

>  <SCORE.INTER.SOLV>
14.4546

>  <SCORE.INTER.VDW>
-11.6482

>  <SCORE.INTER.norm>
0.0312152

>  <SCORE.INTRA>
-3.89848

>  <SCORE.INTRA.DIHEDRAL>
-7.34438

>  <SCORE.INTRA.DIHEDRAL.0>
11.3972

>  <SCORE.INTRA.POLAR>
0

>  <SCORE.INTRA.POLAR.0>
0

>  <SCORE.INTRA.REPUL>
0

>  <SCORE.INTRA.REPUL.0>
0

>  <SCORE.INTRA.SOLV>
-0.530089

>  <SCORE.INTRA.SOLV.lig_0>
-92.3891

>  <SCORE.INTRA.VDW>
0.0387525

>  <SCORE.INTRA.VDW.0>
-2.90606

>  <SCORE.INTRA.norm>
-0.105364

>  <SCORE.RESTR>
0

>  <SCORE.RESTR.CAVITY>
0

>  <SCORE.RESTR.norm>
0

>  <SCORE.SYSTEM>
0

>  <SCORE.SYSTEM.CONST>
0

>  <SCORE.SYSTEM.DIHEDRAL>
0

>  <SCORE.SYSTEM.SOLV>
0

>  <SCORE.SYSTEM.norm>
0

>  <SCORE.heavy>
37

>  <SCORE.norm>
-0.0741491

>  <RMSD>
1.839

$$$$
ligand
 OpenBabel02271912133D
libRbt.so/2013.1/901 2013/11/27
 37 40  0  0  0  0  0  0  0  0999 V2000
   -0.5806   26.0271   67.1650 C   0  0  1  0  0  0  0  0  0  0  0  0
   -1.6354   25.7311   68.2689 C   0  0  1  0  0  0  0  0  0  0  0  0
   -3.0748   25.7978   67.7240 C   0  0  0  0  0  0  0  0  0  0  0  0
   -3.3106   27.2040   67.0898 C   0  0  1  0  0  0  0  0  0  0  0  0
   -2.2793   27.4726   65.9461 C   0  0  1  0  0  0  0  0  0  0  0  0
   -2.5371   28.9144   65.3142 C   0  0  1  0  0  0  0  0  0  0  0  0
   -3.9900   28.9695   64.7574 C   0  0  1  0  0  0  0  0  0  0  0  0
   -4.9705   28.6614   65.9288 C   0  0  2  0  0  0  0  0  0  0  0  0
   -4.5086   31.4866   65.0826 C   0  0  0  0  0  0  0  0  0  0  0  0
   -1.3802   24.4160   68.8937 N   0  0  0  0  0  0  0  0  0  0  0  0
   -4.2773   30.3281   64.1620 N   0  0  0  0  0  0  0  0  0  0  0  0
   -0.5130   24.9856   66.1716 O   0  0  0  0  0  0  0  0  0  0  0  0
   -0.9141   27.3312   66.5347 O   0  0  0  0  0  0  0  0  0  0  0  0
   -4.6952   27.3509   66.5323 O   0  0  0  0  0  0  0  0  0  0  0  0
   -2.4079   29.9097   66.3211 O   0  0  0  0  0  0  0  0  0  0  0  0
   -6.3137   28.6821   65.4593 O   0  0  0  0  0  0  0  0  0  0  0  0
   -7.2962   28.3495   66.4709 C   0  0  2  0  0  0  0  0  0  0  0  0
   -8.7059   28.1054   65.8823 C   0  0  1  0  0  0  0  0  0  0  0  0
   -9.2950   29.4232   65.2834 C   0  0  2  0  0  0  0  0  0  0  0  0
   -9.3920   30.4627   66.3816 C   0  0  1  0  0  0  0  0  0  0  0  0
   -7.9670   30.7276   66.9532 C   0  0  1  0  0  0  0  0  0  0  0  0
   -7.9816   31.7524   68.0858 C   0  0  0  0  0  0  0  0  0  0  0  0
   -9.9711   31.7097   65.8261 N   0  0  0  0  0  0  0  0  0  0  0  0
   -7.3937   29.4494   67.4764 O   0  0  0  0  0  0  0  0  0  0  0  0
   -8.5859   27.0571   64.8949 O   0  0  0  0  0  0  0  0  0  0  0  0
  -10.6023   29.1771   64.7604 O   0  0  0  0  0  0  0  0  0  0  0  0
   -8.7230   31.2408   69.1666 O   0  0  0  0  0  0  0  0  0  0  0  0
    0.5501   24.9336   65.0959 C   0  0  1  0  0  0  0  0  0  0  0  0
    0.4934   26.2594   64.2886 C   0  0  1  0  0  0  0  0  0  0  0  0
    1.5712   26.2466   63.1660 C   0  0  2  0  0  0  0  0  0  0  0  0
    2.9722   26.0964   63.8086 C   0  0  1  0  0  0  0  0  0  0  0  0
    3.0608   24.7577   64.6254 C   0  0  0  0  0  0  0  0  0  0  0  0
    1.9735   24.7866   65.7206 C   0  0  2  0  0  0  0  0  0  0  0  0
    4.0085   26.0900   62.7482 N   0  0  0  0  0  0  0  0  0  0  0  0
    2.0620   23.5331   66.4775 N   0  0  0  0  0  0  0  0  0  0  0  0
   -0.8138   26.4024   63.6901 O   0  0  0  0  0  0  0  0  0  0  0  0
    1.4930   27.4861   62.4275 O   0  0  0  0  0  0  0  0  0  0  0  0
  1  2  1  0  0  0  0
  1 12  1  6  0  0  0
  1 13  1  0  0  0  0
  2  3  1  0  0  0  0
  2 10  1  6  0  0  0
  4  3  1  6  0  0  0
  4  5  1  0  0  0  0
  4 14  1  0  0  0  0
  5  6  1  0  0  0  0
  5 13  1  1  0  0  0
  6  7  1  0  0  0  0
  6 15  1  1  0  0  0
  7  8  1  0  0  0  0
  7 11  1  1  0  0  0
  8 14  1  0  0  0  0
  8 16  1  6  0  0  0
  9 11  1  0  0  0  0
 17 16  1  6  0  0  0
 17 18  1  0  0  0  0
 17 24  1  0  0  0  0
 18 19  1  0  0  0  0
 18 25  1  6  0  0  0
 19 20  1  0  0  0  0
 19 26  1  1  0  0  0
 20 21  1  0  0  0  0
 20 23  1  6  0  0  0
 21 22  1  1  0  0  0
 21 24  1  0  0  0  0
 22 27  1  0  0  0  0
 28 12  1  1  0  0  0
 28 29  1  0  0  0  0
 28 33  1  0  0  0  0
 29 30  1  0  0  0  0
 29 36  1  6  0  0  0
 30 31  1  0  0  0  0
 30 37  1  1  0  0  0
 31 32  1  0  0  0  0
 31 34  1  6  0  0  0
 32 33  1  0  0  0  0
 33 35  1  6  0  0  0
M  END
>  <CHROM.1>
-171.60944026,-74.63591897,177.52768882,-56.99344208,-168.64621532,63.73930035
-3.45786415,27.79327637,65.79886149,0.14812527,-0.41183048,2.25695025

>  <Name>
ligand

>  <RI>
0

>  <Rbt.Current_Directory>
/home/itssahil/PROJECTS/Mol_Feturizer/Test_systems_manuscript/rnas/2g5k

>  <Rbt.Executable>
rbdock ($Id: //depot/dev/client3/rdock/2013.1/src/exe/rbdock.cxx#4 $)

>  <Rbt.Library>
libRbt.so (2013.1, Build901 2013/11/27)

>  <Rbt.Parameter_File>
/export/apps/rDock/src/rDock_2013.1_src/data/scripts/dock_solv.prm

>  <Rbt.Receptor>
prm/pocket_docking_2.prm

>  <SCORE>
-4.36965

>  <SCORE.INTER>
-1.11299

>  <SCORE.INTER.CONST>
1

>  <SCORE.INTER.POLAR>
0

>  <SCORE.INTER.ROT>
6

>  <SCORE.INTER.SOLV>
19.9879

>  <SCORE.INTER.VDW>
-15.0046

>  <SCORE.INTER.norm>
-0.0300807

>  <SCORE.INTRA>
-3.69249

>  <SCORE.INTRA.DIHEDRAL>
-10.107

>  <SCORE.INTRA.DIHEDRAL.0>
11.3972

>  <SCORE.INTRA.POLAR>
0

>  <SCORE.INTRA.POLAR.0>
0

>  <SCORE.INTRA.REPUL>
0

>  <SCORE.INTRA.REPUL.0>
0

>  <SCORE.INTRA.SOLV>
-0.0907084

>  <SCORE.INTRA.SOLV.lig_0>
-92.3891

>  <SCORE.INTRA.VDW>
1.40638

>  <SCORE.INTRA.VDW.0>
-2.90606

>  <SCORE.INTRA.norm>
-0.099797

>  <SCORE.RESTR>
0.435822

>  <SCORE.RESTR.CAVITY>
0.435822

>  <SCORE.RESTR.norm>
0.011779

>  <SCORE.SYSTEM>
0

>  <SCORE.SYSTEM.CONST>
0

>  <SCORE.SYSTEM.DIHEDRAL>
0

>  <SCORE.SYSTEM.SOLV>
0

>  <SCORE.SYSTEM.norm>
0

>  <SCORE.heavy>
37

>  <SCORE.norm>
-0.118099

>  <RMSD>
1.873

$$$$
ligand
 OpenBabel02271912133D
libRbt.so/2013.1/901 2013/11/27
 37 40  0  0  0  0  0  0  0  0999 V2000
   -1.0488   27.2087   67.9871 C   0  0  1  0  0  0  0  0  0  0  0  0
   -2.1836   26.6038   68.8616 C   0  0  1  0  0  0  0  0  0  0  0  0
   -3.5809   27.0086   68.3544 C   0  0  0  0  0  0  0  0  0  0  0  0
   -3.6740   28.5659   68.3187 C   0  0  1  0  0  0  0  0  0  0  0  0
   -2.5624   29.1634   67.3963 C   0  0  1  0  0  0  0  0  0  0  0  0
   -2.6751   30.7545   67.3761 C   0  0  1  0  0  0  0  0  0  0  0  0
   -4.0858   31.1545   66.8530 C   0  0  1  0  0  0  0  0  0  0  0  0
   -5.1515   30.5053   67.7866 C   0  0  2  0  0  0  0  0  0  0  0  0
   -4.0016   33.3908   65.5483 C   0  0  0  0  0  0  0  0  0  0  0  0
   -2.0637   25.1318   68.9250 N   0  0  0  0  0  0  0  0  0  0  0  0
   -4.2361   32.6578   66.8331 N   0  0  0  0  0  0  0  0  0  0  0  0
   -1.0035   26.6351   66.6661 O   0  0  0  0  0  0  0  0  0  0  0  0
   -1.2472   28.6799   67.9126 O   0  0  0  0  0  0  0  0  0  0  0  0
   -5.0100   29.0440   67.8326 O   0  0  0  0  0  0  0  0  0  0  0  0
   -2.5286   31.2626   68.6958 O   0  0  0  0  0  0  0  0  0  0  0  0
   -6.4605   30.8298   67.3327 O   0  0  0  0  0  0  0  0  0  0  0  0
   -7.5068   30.5276   68.2883 C   0  0  2  0  0  0  0  0  0  0  0  0
   -8.3345   29.2800   67.8987 C   0  0  1  0  0  0  0  0  0  0  0  0
   -9.1560   29.5418   66.5952 C   0  0  2  0  0  0  0  0  0  0  0  0
  -10.0980   30.7047   66.8322 C   0  0  1  0  0  0  0  0  0  0  0  0
   -9.2601   31.9668   67.1964 C   0  0  1  0  0  0  0  0  0  0  0  0
  -10.1413   33.1833   67.4736 C   0  0  0  0  0  0  0  0  0  0  0  0
  -10.8972   30.9453   65.6065 N   0  0  0  0  0  0  0  0  0  0  0  0
   -8.4400   31.6866   68.4151 O   0  0  0  0  0  0  0  0  0  0  0  0
   -7.4119   28.1770   67.7563 O   0  0  0  0  0  0  0  0  0  0  0  0
   -9.9238   28.3825   66.2641 O   0  0  0  0  0  0  0  0  0  0  0  0
  -10.8143   33.5488   66.2934 O   0  0  0  0  0  0  0  0  0  0  0  0
    0.1241   26.8904   65.6896 C   0  0  1  0  0  0  0  0  0  0  0  0
    1.3392   26.0176   66.1076 C   0  0  1  0  0  0  0  0  0  0  0  0
    2.5262   26.2529   65.1291 C   0  0  2  0  0  0  0  0  0  0  0  0
    2.0865   25.8676   63.6951 C   0  0  1  0  0  0  0  0  0  0  0  0
    0.8627   26.7421   63.2425 C   0  0  0  0  0  0  0  0  0  0  0  0
   -0.2947   26.5048   64.2358 C   0  0  2  0  0  0  0  0  0  0  0  0
    3.2126   26.0811   62.7545 N   0  0  0  0  0  0  0  0  0  0  0  0
   -1.4326   27.3255   63.8072 N   0  0  0  0  0  0  0  0  0  0  0  0
    1.7494   26.3742   67.4462 O   0  0  0  0  0  0  0  0  0  0  0  0
    3.6435   25.4356   65.5432 O   0  0  0  0  0  0  0  0  0  0  0  0
  1  2  1  0  0  0  0
  1 12  1  6  0  0  0
  1 13  1  0  0  0  0
  2  3  1  0  0  0  0
  2 10  1  6  0  0  0
  4  3  1  6  0  0  0
  4  5  1  0  0  0  0
  4 14  1  0  0  0  0
  5  6  1  0  0  0  0
  5 13  1  1  0  0  0
  6  7  1  0  0  0  0
  6 15  1  1  0  0  0
  7  8  1  0  0  0  0
  7 11  1  1  0  0  0
  8 14  1  0  0  0  0
  8 16  1  6  0  0  0
  9 11  1  0  0  0  0
 17 16  1  6  0  0  0
 17 18  1  0  0  0  0
 17 24  1  0  0  0  0
 18 19  1  0  0  0  0
 18 25  1  6  0  0  0
 19 20  1  0  0  0  0
 19 26  1  1  0  0  0
 20 21  1  0  0  0  0
 20 23  1  6  0  0  0
 21 22  1  1  0  0  0
 21 24  1  0  0  0  0
 22 27  1  0  0  0  0
 28 12  1  1  0  0  0
 28 29  1  0  0  0  0
 28 33  1  0  0  0  0
 29 30  1  0  0  0  0
 29 36  1  1  0  0  0
 30 31  1  0  0  0  0
 30 37  1  1  0  0  0
 31 32  1  0  0  0  0
 31 34  1  6  0  0  0
 32 33  1  0  0  0  0
 33 35  1  6  0  0  0
M  END
>  <CHROM.1>
-170.51418709,97.21944637,-167.04130604,77.59017528,-105.90744324,-65.12198134
-3.80609717,28.94370870,66.74588574,0.34920276,-0.31941961,2.74763959

>  <Name>
ligand

>  <RI>
0

>  <Rbt.Current_Directory>
/home/itssahil/PROJECTS/Mol_Feturizer/Test_systems_manuscript/rnas/2g5k

>  <Rbt.Executable>
rbdock ($Id: //depot/dev/client3/rdock/2013.1/src/exe/rbdock.cxx#4 $)

>  <Rbt.Library>
libRbt.so (2013.1, Build901 2013/11/27)

>  <Rbt.Parameter_File>
/export/apps/rDock/src/rDock_2013.1_src/data/scripts/dock_solv.prm

>  <Rbt.Receptor>
prm/pocket_docking_3.prm

>  <SCORE>
-3.13778

>  <SCORE.INTER>
-2.45642

>  <SCORE.INTER.CONST>
1

>  <SCORE.INTER.POLAR>
0

>  <SCORE.INTER.ROT>
6

>  <SCORE.INTER.SOLV>
13.5994

>  <SCORE.INTER.VDW>
-13.7707

>  <SCORE.INTER.norm>
-0.0663897

>  <SCORE.INTRA>
-0.686497

>  <SCORE.INTRA.DIHEDRAL>
-1.54086

>  <SCORE.INTRA.DIHEDRAL.0>
11.3972

>  <SCORE.INTRA.POLAR>
0

>  <SCORE.INTRA.POLAR.0>
0

>  <SCORE.INTRA.REPUL>
0

>  <SCORE.INTRA.REPUL.0>
0

>  <SCORE.INTRA.SOLV>
-0.172988

>  <SCORE.INTRA.SOLV.lig_0>
-92.3891

>  <SCORE.INTRA.VDW>
0.170428

>  <SCORE.INTRA.VDW.0>
-2.90606

>  <SCORE.INTRA.norm>
-0.018554

>  <SCORE.RESTR>
0.0051316

>  <SCORE.RESTR.CAVITY>
0.0051316

>  <SCORE.RESTR.norm>
0.000138692

>  <SCORE.SYSTEM>
0

>  <SCORE.SYSTEM.CONST>
0

>  <SCORE.SYSTEM.DIHEDRAL>
0

>  <SCORE.SYSTEM.SOLV>
0

>  <SCORE.SYSTEM.norm>
0

>  <SCORE.heavy>
37

>  <SCORE.norm>
-0.084805

>  <RMSD>
1.885

$$$$
ligand
 OpenBabel02271912133D
libRbt.so/2013.1/901 2013/11/27
 37 40  0  0  0  0  0  0  0  0999 V2000
   -1.3414   27.2477   67.0665 C   0  0  1  0  0  0  0  0  0  0  0  0
   -2.3993   26.2831   67.6740 C   0  0  1  0  0  0  0  0  0  0  0  0
   -3.7187   26.2992   66.8788 C   0  0  0  0  0  0  0  0  0  0  0  0
   -4.2608   27.7617   66.8286 C   0  0  1  0  0  0  0  0  0  0  0  0
   -3.2125   28.7156   66.1693 C   0  0  1  0  0  0  0  0  0  0  0  0
   -3.7860   30.2037   66.1303 C   0  0  1  0  0  0  0  0  0  0  0  0
   -5.1133   30.2124   65.3167 C   0  0  1  0  0  0  0  0  0  0  0  0
   -6.1056   29.2216   65.9966 C   0  0  2  0  0  0  0  0  0  0  0  0
   -5.9398   32.2425   63.9361 C   0  0  0  0  0  0  0  0  0  0  0  0
   -1.8633   24.9080   67.7571 N   0  0  0  0  0  0  0  0  0  0  0  0
   -5.6959   31.6056   65.2695 N   0  0  0  0  0  0  0  0  0  0  0  0
   -0.8580   26.8014   65.7845 O   0  0  0  0  0  0  0  0  0  0  0  0
   -1.9481   28.6000   66.9555 O   0  0  0  0  0  0  0  0  0  0  0  0
   -5.5491   27.8641   66.0674 O   0  0  0  0  0  0  0  0  0  0  0  0
   -4.0708   30.6429   67.4521 O   0  0  0  0  0  0  0  0  0  0  0  0
   -7.3299   29.1830   65.2722 O   0  0  0  0  0  0  0  0  0  0  0  0
   -8.3849   28.4462   65.9379 C   0  0  2  0  0  0  0  0  0  0  0  0
   -9.7710   28.6587   65.2845 C   0  0  1  0  0  0  0  0  0  0  0  0
  -10.2496   30.1358   65.4618 C   0  0  2  0  0  0  0  0  0  0  0  0
  -10.3487   30.4469   66.9415 C   0  0  1  0  0  0  0  0  0  0  0  0
   -8.9452   30.2598   67.5917 C   0  0  1  0  0  0  0  0  0  0  0  0
   -8.9649   30.5340   69.0943 C   0  0  0  0  0  0  0  0  0  0  0  0
  -10.8238   31.8405   67.1183 N   0  0  0  0  0  0  0  0  0  0  0  0
   -8.4759   28.8573   67.3708 O   0  0  0  0  0  0  0  0  0  0  0  0
   -9.6557   28.2801   63.8947 O   0  0  0  0  0  0  0  0  0  0  0  0
  -11.5373   30.3041   64.8648 O   0  0  0  0  0  0  0  0  0  0  0  0
   -9.8196   29.6111   69.7244 O   0  0  0  0  0  0  0  0  0  0  0  0
    0.1339   25.6705   65.6205 C   0  0  1  0  0  0  0  0  0  0  0  0
    0.8623   25.8530   64.2607 C   0  0  1  0  0  0  0  0  0  0  0  0
    1.8921   24.7055   64.0493 C   0  0  2  0  0  0  0  0  0  0  0  0
    2.9315   24.7379   65.1968 C   0  0  1  0  0  0  0  0  0  0  0  0
    2.2225   24.5465   66.5853 C   0  0  0  0  0  0  0  0  0  0  0  0
    1.1959   25.6852   66.7649 C   0  0  2  0  0  0  0  0  0  0  0  0
    3.9227   23.6526   65.0019 N   0  0  0  0  0  0  0  0  0  0  0  0
    0.5376   25.4986   68.0625 N   0  0  0  0  0  0  0  0  0  0  0  0
   -0.1062   25.8252   63.1890 O   0  0  0  0  0  0  0  0  0  0  0  0
    2.5499   24.8952   62.7768 O   0  0  0  0  0  0  0  0  0  0  0  0
  1  2  1  0  0  0  0
  1 12  1  6  0  0  0
  1 13  1  0  0  0  0
  2  3  1  0  0  0  0
  2 10  1  6  0  0  0
  4  3  1  6  0  0  0
  4  5  1  0  0  0  0
  4 14  1  0  0  0  0
  5  6  1  0  0  0  0
  5 13  1  1  0  0  0
  6  7  1  0  0  0  0
  6 15  1  1  0  0  0
  7  8  1  0  0  0  0
  7 11  1  1  0  0  0
  8 14  1  0  0  0  0
  8 16  1  6  0  0  0
  9 11  1  0  0  0  0
 17 16  1  6  0  0  0
 17 18  1  0  0  0  0
 17 24  1  0  0  0  0
 18 19  1  0  0  0  0
 18 25  1  6  0  0  0
 19 20  1  0  0  0  0
 19 26  1  1  0  0  0
 20 21  1  0  0  0  0
 20 23  1  6  0  0  0
 21 22  1  1  0  0  0
 21 24  1  0  0  0  0
 22 27  1  0  0  0  0
 28 12  1  1  0  0  0
 28 29  1  0  0  0  0
 28 33  1  0  0  0  0
 29 30  1  0  0  0  0
 29 36  1  6  0  0  0
 30 31  1  0  0  0  0
 30 37  1  6  0  0  0
 31 32  1  0  0  0  0
 31 34  1  6  0  0  0
 32 33  1  0  0  0  0
 33 35  1  1  0  0  0
M  END
>  <CHROM.1>
-76.11003660,122.22549118,-171.15220496,-156.35231759,168.22350127,62.29842688
-4.21541544,28.02873835,66.07492452,-0.02956766,-0.43724886,1.71628822

>  <Name>
ligand

>  <RI>
0

>  <Rbt.Current_Directory>
/home/itssahil/PROJECTS/Mol_Feturizer/Test_systems_manuscript/rnas/2g5k

>  <Rbt.Executable>
rbdock ($Id: //depot/dev/client3/rdock/2013.1/src/exe/rbdock.cxx#4 $)

>  <Rbt.Library>
libRbt.so (2013.1, Build901 2013/11/27)

>  <Rbt.Parameter_File>
/export/apps/rDock/src/rDock_2013.1_src/data/scripts/dock_solv.prm

>  <Rbt.Receptor>
prm/pocket_docking_2.prm

>  <SCORE>
-2.67961

>  <SCORE.INTER>
-3.68242

>  <SCORE.INTER.CONST>
1

>  <SCORE.INTER.POLAR>
0

>  <SCORE.INTER.ROT>
6

>  <SCORE.INTER.SOLV>
15.8265

>  <SCORE.INTER.VDW>
-15.3305

>  <SCORE.INTER.norm>
-0.0995248

>  <SCORE.INTRA>
0.93142

>  <SCORE.INTRA.DIHEDRAL>
-5.47599

>  <SCORE.INTRA.DIHEDRAL.0>
11.3972

>  <SCORE.INTRA.POLAR>
0

>  <SCORE.INTRA.POLAR.0>
0

>  <SCORE.INTRA.REPUL>
0

>  <SCORE.INTRA.REPUL.0>
0

>  <SCORE.INTRA.SOLV>
4.65181

>  <SCORE.INTRA.SOLV.lig_0>
-92.3891

>  <SCORE.INTRA.VDW>
1.34351

>  <SCORE.INTRA.VDW.0>
-2.90606

>  <SCORE.INTRA.norm>
0.0251735

>  <SCORE.RESTR>
0.0713845

>  <SCORE.RESTR.CAVITY>
0.0713845

>  <SCORE.RESTR.norm>
0.00192931

>  <SCORE.SYSTEM>
0

>  <SCORE.SYSTEM.CONST>
0

>  <SCORE.SYSTEM.DIHEDRAL>
0

>  <SCORE.SYSTEM.SOLV>
0

>  <SCORE.SYSTEM.norm>
0

>  <SCORE.heavy>
37

>  <SCORE.norm>
-0.072422

>  <RMSD>
1.900

$$$$
ligand
 OpenBabel02271912133D
libRbt.so/2013.1/901 2013/11/27
 37 40  0  0  0  0  0  0  0  0999 V2000
   -1.5394   27.1335   67.2849 C   0  0  1  0  0  0  0  0  0  0  0  0
   -2.4839   25.9935   67.7612 C   0  0  1  0  0  0  0  0  0  0  0  0
   -3.7743   25.9252   66.9224 C   0  0  0  0  0  0  0  0  0  0  0  0
   -4.4931   27.3088   66.9872 C   0  0  1  0  0  0  0  0  0  0  0  0
   -3.5554   28.4421   66.4580 C   0  0  1  0  0  0  0  0  0  0  0  0
   -4.3087   29.8462   66.5351 C   0  0  1  0  0  0  0  0  0  0  0  0
   -5.6056   29.7714   65.6770 C   0  0  1  0  0  0  0  0  0  0  0  0
   -6.4837   28.6065   66.2254 C   0  0  2  0  0  0  0  0  0  0  0  0
   -6.0159   32.1551   64.7496 C   0  0  0  0  0  0  0  0  0  0  0  0
   -1.7830   24.6922   67.7370 N   0  0  0  0  0  0  0  0  0  0  0  0
   -6.3559   31.0815   65.7369 N   0  0  0  0  0  0  0  0  0  0  0  0
   -0.9717   26.8746   65.9861 O   0  0  0  0  0  0  0  0  0  0  0  0
   -2.3069   28.4063   67.2766 O   0  0  0  0  0  0  0  0  0  0  0  0
   -5.7643   27.3264   66.1914 O   0  0  0  0  0  0  0  0  0  0  0  0
   -4.6796   30.1185   67.8803 O   0  0  0  0  0  0  0  0  0  0  0  0
   -7.6748   28.4890   65.4556 O   0  0  0  0  0  0  0  0  0  0  0  0
   -8.6901   27.6547   66.0656 C   0  0  2  0  0  0  0  0  0  0  0  0
   -9.9793   27.5584   65.2157 C   0  0  1  0  0  0  0  0  0  0  0  0
  -10.7021   28.9420   65.1422 C   0  0  2  0  0  0  0  0  0  0  0  0
  -11.0679   29.3816   66.5454 C   0  0  1  0  0  0  0  0  0  0  0  0
   -9.7651   29.5054   67.3912 C   0  0  1  0  0  0  0  0  0  0  0  0
  -10.0510   29.9247   68.8319 C   0  0  0  0  0  0  0  0  0  0  0  0
  -11.7743   30.6839   66.4823 N   0  0  0  0  0  0  0  0  0  0  0  0
   -9.0564   28.1888   67.4113 O   0  0  0  0  0  0  0  0  0  0  0  0
   -9.6007   27.0647   63.9115 O   0  0  0  0  0  0  0  0  0  0  0  0
  -11.8968   28.8251   64.3662 O   0  0  0  0  0  0  0  0  0  0  0  0
   -8.8341   30.0962   69.5167 O   0  0  0  0  0  0  0  0  0  0  0  0
   -0.0429   25.7137   65.7038 C   0  0  1  0  0  0  0  0  0  0  0  0
    0.5459   25.8948   64.2778 C   0  0  1  0  0  0  0  0  0  0  0  0
    1.5068   24.7170   63.9442 C   0  0  2  0  0  0  0  0  0  0  0  0
    2.6606   24.6946   64.9769 C   0  0  1  0  0  0  0  0  0  0  0  0
    2.0937   24.5035   66.4293 C   0  0  0  0  0  0  0  0  0  0  0  0
    1.1324   25.6729   66.7308 C   0  0  2  0  0  0  0  0  0  0  0  0
    3.5871   23.5799   64.6646 N   0  0  0  0  0  0  0  0  0  0  0  0
    0.6066   25.4864   68.0876 N   0  0  0  0  0  0  0  0  0  0  0  0
   -0.5293   25.9182   63.3131 O   0  0  0  0  0  0  0  0  0  0  0  0
    2.0348   24.9062   62.6125 O   0  0  0  0  0  0  0  0  0  0  0  0
  1  2  1  0  0  0  0
  1 12  1  6  0  0  0
  1 13  1  0  0  0  0
  2  3  1  0  0  0  0
  2 10  1  6  0  0  0
  4  3  1  6  0  0  0
  4  5  1  0  0  0  0
  4 14  1  0  0  0  0
  5  6  1  0  0  0  0
  5 13  1  1  0  0  0
  6  7  1  0  0  0  0
  6 15  1  1  0  0  0
  7  8  1  0  0  0  0
  7 11  1  1  0  0  0
  8 14  1  0  0  0  0
  8 16  1  6  0  0  0
  9 11  1  0  0  0  0
 17 16  1  6  0  0  0
 17 18  1  0  0  0  0
 17 24  1  0  0  0  0
 18 19  1  0  0  0  0
 18 25  1  6  0  0  0
 19 20  1  0  0  0  0
 19 26  1  6  0  0  0
 20 21  1  0  0  0  0
 20 23  1  6  0  0  0
 21 22  1  1  0  0  0
 21 24  1  0  0  0  0
 22 27  1  0  0  0  0
 28 12  1  1  0  0  0
 28 29  1  0  0  0  0
 28 33  1  0  0  0  0
 29 30  1  0  0  0  0
 29 36  1  6  0  0  0
 30 31  1  0  0  0  0
 30 37  1  6  0  0  0
 31 32  1  0  0  0  0
 31 34  1  6  0  0  0
 32 33  1  0  0  0  0
 33 35  1  1  0  0  0
M  END
>  <CHROM.1>
-63.67895622,87.95529664,-166.35956055,-170.64191123,179.31610732,-176.48014343
-4.52335947,27.62010992,66.10786633,-0.23906657,-0.28803747,1.09216879

>  <Name>
ligand

>  <RI>
0

>  <Rbt.Current_Directory>
/home/itssahil/PROJECTS/Mol_Feturizer/Test_systems_manuscript/rnas/2g5k

>  <Rbt.Executable>
rbdock ($Id: //depot/dev/client3/rdock/2013.1/src/exe/rbdock.cxx#4 $)

>  <Rbt.Library>
libRbt.so (2013.1, Build901 2013/11/27)

>  <Rbt.Parameter_File>
/export/apps/rDock/src/rDock_2013.1_src/data/scripts/dock_solv.prm

>  <Rbt.Receptor>
prm/pocket_docking_2.prm

>  <SCORE>
-3.73562

>  <SCORE.INTER>
-1.99125

>  <SCORE.INTER.CONST>
1

>  <SCORE.INTER.POLAR>
0

>  <SCORE.INTER.ROT>
6

>  <SCORE.INTER.SOLV>
15.7955

>  <SCORE.INTER.VDW>
-14.1927

>  <SCORE.INTER.norm>
-0.0538176

>  <SCORE.INTRA>
-1.83646

>  <SCORE.INTRA.DIHEDRAL>
-9.41081

>  <SCORE.INTRA.DIHEDRAL.0>
11.3972

>  <SCORE.INTRA.POLAR>
0

>  <SCORE.INTRA.POLAR.0>
0

>  <SCORE.INTRA.REPUL>
0

>  <SCORE.INTRA.REPUL.0>
0

>  <SCORE.INTRA.SOLV>
4.1267

>  <SCORE.INTRA.SOLV.lig_0>
-92.3891

>  <SCORE.INTRA.VDW>
0.8056

>  <SCORE.INTRA.VDW.0>
-2.90606

>  <SCORE.INTRA.norm>
-0.0496339

>  <SCORE.RESTR>
0.0920924

>  <SCORE.RESTR.CAVITY>
0.0920924

>  <SCORE.RESTR.norm>
0.00248898

>  <SCORE.SYSTEM>
0

>  <SCORE.SYSTEM.CONST>
0

>  <SCORE.SYSTEM.DIHEDRAL>
0

>  <SCORE.SYSTEM.SOLV>
0

>  <SCORE.SYSTEM.norm>
0

>  <SCORE.heavy>
37

>  <SCORE.norm>
-0.100963

>  <RMSD>
1.923

$$$$
ligand
 OpenBabel02271912133D
libRbt.so/2013.1/901 2013/11/27
 37 40  0  0  0  0  0  0  0  0999 V2000
   -0.8444   26.4117   67.6814 C   0  0  1  0  0  0  0  0  0  0  0  0
   -1.8296   25.7497   68.6862 C   0  0  1  0  0  0  0  0  0  0  0  0
   -3.2622   25.6743   68.1247 C   0  0  0  0  0  0  0  0  0  0  0  0
   -3.7335   27.1133   67.7472 C   0  0  1  0  0  0  0  0  0  0  0  0
   -2.7670   27.7520   66.6977 C   0  0  1  0  0  0  0  0  0  0  0  0
   -3.2660   29.2214   66.3282 C   0  0  1  0  0  0  0  0  0  0  0  0
   -4.7100   29.1348   65.7526 C   0  0  1  0  0  0  0  0  0  0  0  0
   -5.6196   28.4610   66.8237 C   0  0  2  0  0  0  0  0  0  0  0  0
   -4.5977   31.2488   64.2597 C   0  0  0  0  0  0  0  0  0  0  0  0
   -1.3545   24.4039   69.0713 N   0  0  0  0  0  0  0  0  0  0  0  0
   -5.2239   30.5120   65.4034 N   0  0  0  0  0  0  0  0  0  0  0  0
   -0.6073   25.5934   66.5192 O   0  0  0  0  0  0  0  0  0  0  0  0
   -1.3949   27.7347   67.2868 O   0  0  0  0  0  0  0  0  0  0  0  0
   -5.1256   27.1270   67.1892 O   0  0  0  0  0  0  0  0  0  0  0  0
   -3.3012   30.0251   67.5004 O   0  0  0  0  0  0  0  0  0  0  0  0
   -6.9493   28.3435   66.3305 O   0  0  0  0  0  0  0  0  0  0  0  0
   -7.9109   27.9160   67.3264 C   0  0  2  0  0  0  0  0  0  0  0  0
   -9.3132   27.6464   66.7311 C   0  0  1  0  0  0  0  0  0  0  0  0
   -9.9595   28.9696   66.2076 C   0  0  2  0  0  0  0  0  0  0  0  0
  -10.0920   29.9428   67.3614 C   0  0  1  0  0  0  0  0  0  0  0  0
   -8.6754   30.2346   67.9408 C   0  0  1  0  0  0  0  0  0  0  0  0
   -8.7248   31.1948   69.1278 C   0  0  0  0  0  0  0  0  0  0  0  0
  -10.7252   31.1932   66.8773 N   0  0  0  0  0  0  0  0  0  0  0  0
   -8.0470   28.9545   68.3910 O   0  0  0  0  0  0  0  0  0  0  0  0
   -9.1566   26.6594   65.6874 O   0  0  0  0  0  0  0  0  0  0  0  0
  -11.2589   28.6986   65.6773 O   0  0  0  0  0  0  0  0  0  0  0  0
   -7.4128   31.5110   69.5252 O   0  0  0  0  0  0  0  0  0  0  0  0
    0.4466   25.9130   65.4813 C   0  0  1  0  0  0  0  0  0  0  0  0
    0.0710   27.2584   64.8019 C   0  0  1  0  0  0  0  0  0  0  0  0
    1.1298   27.6239   63.7216 C   0  0  2  0  0  0  0  0  0  0  0  0
    2.5175   27.7590   64.3956 C   0  0  1  0  0  0  0  0  0  0  0  0
    2.9272   26.4080   65.0842 C   0  0  0  0  0  0  0  0  0  0  0  0
    1.8554   26.0584   66.1385 C   0  0  2  0  0  0  0  0  0  0  0  0
    3.5339   28.1144   63.3762 N   0  0  0  0  0  0  0  0  0  0  0  0
    2.2443   24.7956   66.7758 N   0  0  0  0  0  0  0  0  0  0  0  0
   -1.2245   27.1350   64.1744 O   0  0  0  0  0  0  0  0  0  0  0  0
    0.7541   28.8740   63.1018 O   0  0  0  0  0  0  0  0  0  0  0  0
  1  2  1  0  0  0  0
  1 12  1  6  0  0  0
  1 13  1  0  0  0  0
  2  3  1  0  0  0  0
  2 10  1  6  0  0  0
  4  3  1  6  0  0  0
  4  5  1  0  0  0  0
  4 14  1  0  0  0  0
  5  6  1  0  0  0  0
  5 13  1  1  0  0  0
  6  7  1  0  0  0  0
  6 15  1  1  0  0  0
  7  8  1  0  0  0  0
  7 11  1  1  0  0  0
  8 14  1  0  0  0  0
  8 16  1  6  0  0  0
  9 11  1  0  0  0  0
 17 16  1  6  0  0  0
 17 18  1  0  0  0  0
 17 24  1  0  0  0  0
 18 19  1  0  0  0  0
 18 25  1  6  0  0  0
 19 20  1  0  0  0  0
 19 26  1  1  0  0  0
 20 21  1  0  0  0  0
 20 23  1  6  0  0  0
 21 22  1  1  0  0  0
 21 24  1  0  0  0  0
 22 27  1  0  0  0  0
 28 12  1  1  0  0  0
 28 29  1  0  0  0  0
 28 33  1  0  0  0  0
 29 30  1  0  0  0  0
 29 36  1  6  0  0  0
 30 31  1  0  0  0  0
 30 37  1  1  0  0  0
 31 32  1  0  0  0  0
 31 34  1  6  0  0  0
 32 33  1  0  0  0  0
 33 35  1  6  0  0  0
M  END
>  <CHROM.1>
-171.48340377,68.41071797,-171.11983207,-63.75443882,-173.67028919,-174.70813465
-3.87727423,28.05828913,66.46468538,0.08185355,-0.29733710,2.41667955

>  <Name>
ligand

>  <RI>
0

>  <Rbt.Current_Directory>
/home/itssahil/PROJECTS/Mol_Feturizer/Test_systems_manuscript/rnas/2g5k

>  <Rbt.Executable>
rbdock ($Id: //depot/dev/client3/rdock/2013.1/src/exe/rbdock.cxx#4 $)

>  <Rbt.Library>
libRbt.so (2013.1, Build901 2013/11/27)

>  <Rbt.Parameter_File>
/export/apps/rDock/src/rDock_2013.1_src/data/scripts/dock_solv.prm

>  <Rbt.Receptor>
prm/pocket_docking_4.prm

>  <SCORE>
-7.69484

>  <SCORE.INTER>
-1.98798

>  <SCORE.INTER.CONST>
1

>  <SCORE.INTER.POLAR>
0

>  <SCORE.INTER.ROT>
6

>  <SCORE.INTER.SOLV>
17.81

>  <SCORE.INTER.VDW>
-14.862

>  <SCORE.INTER.norm>
-0.0537293

>  <SCORE.INTRA>
-5.70686

>  <SCORE.INTRA.DIHEDRAL>
-10.2032

>  <SCORE.INTRA.DIHEDRAL.0>
11.3972

>  <SCORE.INTRA.POLAR>
0

>  <SCORE.INTRA.POLAR.0>
0

>  <SCORE.INTRA.REPUL>
0

>  <SCORE.INTRA.REPUL.0>
0

>  <SCORE.INTRA.SOLV>
-0.872036

>  <SCORE.INTRA.SOLV.lig_0>
-92.3891

>  <SCORE.INTRA.VDW>
-0.169244

>  <SCORE.INTRA.VDW.0>
-2.90606

>  <SCORE.INTRA.norm>
-0.154239

>  <SCORE.RESTR>
0

>  <SCORE.RESTR.CAVITY>
0

>  <SCORE.RESTR.norm>
0

>  <SCORE.SYSTEM>
0

>  <SCORE.SYSTEM.CONST>
0

>  <SCORE.SYSTEM.DIHEDRAL>
0

>  <SCORE.SYSTEM.SOLV>
0

>  <SCORE.SYSTEM.norm>
0

>  <SCORE.heavy>
37

>  <SCORE.norm>
-0.207969

>  <RMSD>
2.040

$$$$
ligand
 OpenBabel02271912133D
libRbt.so/2013.1/901 2013/11/27
 37 40  0  0  0  0  0  0  0  0999 V2000
   -0.5034   27.0787   67.7460 C   0  0  1  0  0  0  0  0  0  0  0  0
   -1.6220   26.0403   68.0438 C   0  0  1  0  0  0  0  0  0  0  0  0
   -2.8904   26.3035   67.2100 C   0  0  0  0  0  0  0  0  0  0  0  0
   -3.3879   27.7556   67.4913 C   0  0  1  0  0  0  0  0  0  0  0  0
   -2.2760   28.7967   67.1402 C   0  0  1  0  0  0  0  0  0  0  0  0
   -2.8047   30.2722   67.4369 C   0  0  1  0  0  0  0  0  0  0  0  0
   -4.0801   30.5331   66.5830 C   0  0  1  0  0  0  0  0  0  0  0  0
   -5.1385   29.4489   66.9479 C   0  0  2  0  0  0  0  0  0  0  0  0
   -4.0315   33.0787   66.1052 C   0  0  0  0  0  0  0  0  0  0  0  0
   -1.1302   24.6651   67.8155 N   0  0  0  0  0  0  0  0  0  0  0  0
   -4.6201   31.9191   66.8482 N   0  0  0  0  0  0  0  0  0  0  0  0
    0.0435   26.9372   66.4204 O   0  0  0  0  0  0  0  0  0  0  0  0
   -1.0647   28.4415   67.9381 O   0  0  0  0  0  0  0  0  0  0  0  0
   -4.6249   28.0930   66.7131 O   0  0  0  0  0  0  0  0  0  0  0  0
   -3.1560   30.3890   68.8095 O   0  0  0  0  0  0  0  0  0  0  0  0
   -6.3177   29.6381   66.1742 O   0  0  0  0  0  0  0  0  0  0  0  0
   -7.4328   28.8111   66.5888 C   0  0  2  0  0  0  0  0  0  0  0  0
   -8.6109   28.8442   65.5865 C   0  0  1  0  0  0  0  0  0  0  0  0
   -9.2632   30.2636   65.5408 C   0  0  2  0  0  0  0  0  0  0  0  0
   -9.7802   30.6125   66.9217 C   0  0  1  0  0  0  0  0  0  0  0  0
   -8.5871   30.6065   67.9238 C   0  0  1  0  0  0  0  0  0  0  0  0
   -9.0303   30.9284   69.3497 C   0  0  0  0  0  0  0  0  0  0  0  0
  -10.4207   31.9493   66.8817 N   0  0  0  0  0  0  0  0  0  0  0  0
   -7.9395   29.2586   67.9205 O   0  0  0  0  0  0  0  0  0  0  0  0
   -8.0954   28.4332   64.3007 O   0  0  0  0  0  0  0  0  0  0  0  0
  -10.3575   30.2658   64.6212 O   0  0  0  0  0  0  0  0  0  0  0  0
   -7.8953   31.1531   70.1501 O   0  0  0  0  0  0  0  0  0  0  0  0
    0.7520   25.6875   65.9449 C   0  0  1  0  0  0  0  0  0  0  0  0
    1.0914   25.8612   64.4391 C   0  0  1  0  0  0  0  0  0  0  0  0
    1.8198   24.5931   63.9069 C   0  0  2  0  0  0  0  0  0  0  0  0
    3.1291   24.3858   64.7076 C   0  0  1  0  0  0  0  0  0  0  0  0
    2.8146   24.1983   66.2351 C   0  0  0  0  0  0  0  0  0  0  0  0
    2.0789   25.4596   66.7356 C   0  0  2  0  0  0  0  0  0  0  0  0
    3.8357   23.1835   64.2042 N   0  0  0  0  0  0  0  0  0  0  0  0
    1.7879   25.2761   68.1616 N   0  0  0  0  0  0  0  0  0  0  0  0
   -0.1289   26.0570   63.6908 O   0  0  0  0  0  0  0  0  0  0  0  0
    2.1179   24.7779   62.5052 O   0  0  0  0  0  0  0  0  0  0  0  0
  1  2  1  0  0  0  0
  1 12  1  6  0  0  0
  1 13  1  0  0  0  0
  2  3  1  0  0  0  0
  2 10  1  6  0  0  0
  4  3  1  6  0  0  0
  4  5  1  0  0  0  0
  4 14  1  0  0  0  0
  5  6  1  0  0  0  0
  5 13  1  1  0  0  0
  6  7  1  0  0  0  0
  6 15  1  1  0  0  0
  7  8  1  0  0  0  0
  7 11  1  1  0  0  0
  8 14  1  0  0  0  0
  8 16  1  6  0  0  0
  9 11  1  0  0  0  0
 17 16  1  6  0  0  0
 17 18  1  0  0  0  0
 17 24  1  0  0  0  0
 18 19  1  0  0  0  0
 18 25  1  6  0  0  0
 19 20  1  0  0  0  0
 19 26  1  6  0  0  0
 20 21  1  0  0  0  0
 20 23  1  6  0  0  0
 21 22  1  1  0  0  0
 21 24  1  0  0  0  0
 22 27  1  0  0  0  0
 28 12  1  1  0  0  0
 28 29  1  0  0  0  0
 28 33  1  0  0  0  0
 29 30  1  0  0  0  0
 29 36  1  6  0  0  0
 30 31  1  0  0  0  0
 30 37  1  6  0  0  0
 31 32  1  0  0  0  0
 31 34  1  6  0  0  0
 32 33  1  0  0  0  0
 33 35  1  1  0  0  0
M  END
>  <CHROM.1>
-61.83602578,83.75978676,-170.85258402,175.29249101,-169.64863365,-169.11582508
-3.44310756,28.13908606,66.52542698,-0.36549593,-0.36899523,1.02899805

>  <Name>
ligand

>  <RI>
0

>  <Rbt.Current_Directory>
/home/itssahil/PROJECTS/Mol_Feturizer/Test_systems_manuscript/rnas/2g5k

>  <Rbt.Executable>
rbdock ($Id: //depot/dev/client3/rdock/2013.1/src/exe/rbdock.cxx#4 $)

>  <Rbt.Library>
libRbt.so (2013.1, Build901 2013/11/27)

>  <Rbt.Parameter_File>
/export/apps/rDock/src/rDock_2013.1_src/data/scripts/dock_solv.prm

>  <Rbt.Receptor>
prm/pocket_docking_3.prm

>  <SCORE>
-6.99152

>  <SCORE.INTER>
-3.84012

>  <SCORE.INTER.CONST>
1

>  <SCORE.INTER.POLAR>
0

>  <SCORE.INTER.ROT>
6

>  <SCORE.INTER.SOLV>
20.4376

>  <SCORE.INTER.VDW>
-16.9726

>  <SCORE.INTER.norm>
-0.103787

>  <SCORE.INTRA>
-3.1514

>  <SCORE.INTRA.DIHEDRAL>
-9.4879

>  <SCORE.INTRA.DIHEDRAL.0>
11.3972

>  <SCORE.INTRA.POLAR>
0

>  <SCORE.INTRA.POLAR.0>
0

>  <SCORE.INTRA.REPUL>
0

>  <SCORE.INTRA.REPUL.0>
0

>  <SCORE.INTRA.SOLV>
2.97135

>  <SCORE.INTRA.SOLV.lig_0>
-92.3891

>  <SCORE.INTRA.VDW>
0.106879

>  <SCORE.INTRA.VDW.0>
-2.90606

>  <SCORE.INTRA.norm>
-0.0851729

>  <SCORE.RESTR>
0

>  <SCORE.RESTR.CAVITY>
0

>  <SCORE.RESTR.norm>
0

>  <SCORE.SYSTEM>
0

>  <SCORE.SYSTEM.CONST>
0

>  <SCORE.SYSTEM.DIHEDRAL>
0

>  <SCORE.SYSTEM.SOLV>
0

>  <SCORE.SYSTEM.norm>
0

>  <SCORE.heavy>
37

>  <SCORE.norm>
-0.18896

>  <RMSD>
2.044

$$$$
ligand
 OpenBabel02271912133D
libRbt.so/2013.1/901 2013/11/27
 37 40  0  0  0  0  0  0  0  0999 V2000
   -1.6538   27.1369   67.3404 C   0  0  1  0  0  0  0  0  0  0  0  0
   -2.5759   25.9533   67.7493 C   0  0  1  0  0  0  0  0  0  0  0  0
   -3.8589   25.9008   66.8981 C   0  0  0  0  0  0  0  0  0  0  0  0
   -4.6086   27.2632   67.0292 C   0  0  1  0  0  0  0  0  0  0  0  0
   -3.6928   28.4428   66.5671 C   0  0  1  0  0  0  0  0  0  0  0  0
   -4.4775   29.8241   66.7113 C   0  0  1  0  0  0  0  0  0  0  0  0
   -5.7667   29.7660   65.8404 C   0  0  1  0  0  0  0  0  0  0  0  0
   -6.6224   28.5552   66.3205 C   0  0  2  0  0  0  0  0  0  0  0  0
   -7.4030   31.2692   67.1721 C   0  0  0  0  0  0  0  0  0  0  0  0
   -1.8462   24.6707   67.6629 N   0  0  0  0  0  0  0  0  0  0  0  0
   -6.5463   31.0545   65.9626 N   0  0  0  0  0  0  0  0  0  0  0  0
   -1.0719   26.9586   66.0343 O   0  0  0  0  0  0  0  0  0  0  0  0
   -2.4493   28.3914   67.3924 O   0  0  0  0  0  0  0  0  0  0  0  0
   -5.8746   27.2946   66.2256 O   0  0  0  0  0  0  0  0  0  0  0  0
   -4.8633   30.0176   68.0659 O   0  0  0  0  0  0  0  0  0  0  0  0
   -7.8054   28.4522   65.5364 O   0  0  0  0  0  0  0  0  0  0  0  0
   -8.8819   27.7328   66.1867 C   0  0  2  0  0  0  0  0  0  0  0  0
   -9.8466   27.0584   65.1827 C   0  0  1  0  0  0  0  0  0  0  0  0
  -10.6292   28.1300   64.3570 C   0  0  2  0  0  0  0  0  0  0  0  0
  -11.4318   28.9946   65.3080 C   0  0  1  0  0  0  0  0  0  0  0  0
  -10.4553   29.6948   66.2998 C   0  0  1  0  0  0  0  0  0  0  0  0
  -11.1915   30.5717   67.3109 C   0  0  0  0  0  0  0  0  0  0  0  0
  -12.1950   30.0002   64.5301 N   0  0  0  0  0  0  0  0  0  0  0  0
   -9.6760   28.6601   67.0469 O   0  0  0  0  0  0  0  0  0  0  0  0
   -9.0566   26.1860   64.3443 O   0  0  0  0  0  0  0  0  0  0  0  0
  -11.5243   27.4846   63.4486 O   0  0  0  0  0  0  0  0  0  0  0  0
  -10.2549   31.1905   68.1591 O   0  0  0  0  0  0  0  0  0  0  0  0
   -0.1407   25.8164   65.6905 C   0  0  1  0  0  0  0  0  0  0  0  0
    0.4171   26.0544   64.2605 C   0  0  1  0  0  0  0  0  0  0  0  0
    1.3794   24.8973   63.8642 C   0  0  2  0  0  0  0  0  0  0  0  0
    2.5545   24.8463   64.8716 C   0  0  1  0  0  0  0  0  0  0  0  0
    2.0191   24.5975   66.3272 C   0  0  0  0  0  0  0  0  0  0  0  0
    1.0558   25.7473   66.6912 C   0  0  2  0  0  0  0  0  0  0  0  0
    3.4823   23.7512   64.4996 N   0  0  0  0  0  0  0  0  0  0  0  0
    0.5596   25.5070   68.0506 N   0  0  0  0  0  0  0  0  0  0  0  0
   -0.6780   26.1046   63.3194 O   0  0  0  0  0  0  0  0  0  0  0  0
    1.8784   25.1395   62.5299 O   0  0  0  0  0  0  0  0  0  0  0  0
  1  2  1  0  0  0  0
  1 12  1  6  0  0  0
  1 13  1  0  0  0  0
  2  3  1  0  0  0  0
  2 10  1  6  0  0  0
  4  3  1  6  0  0  0
  4  5  1  0  0  0  0
  4 14  1  0  0  0  0
  5  6  1  0  0  0  0
  5 13  1  1  0  0  0
  6  7  1  0  0  0  0
  6 15  1  1  0  0  0
  7  8  1  0  0  0  0
  7 11  1  1  0  0  0
  8 14  1  0  0  0  0
  8 16  1  6  0  0  0
  9 11  1  0  0  0  0
 17 16  1  6  0  0  0
 17 18  1  0  0  0  0
 17 24  1  0  0  0  0
 18 19  1  0  0  0  0
 18 25  1  6  0  0  0
 19 20  1  0  0  0  0
 19 26  1  6  0  0  0
 20 21  1  0  0  0  0
 20 23  1  6  0  0  0
 21 22  1  1  0  0  0
 21 24  1  0  0  0  0
 22 27  1  0  0  0  0
 28 12  1  1  0  0  0
 28 29  1  0  0  0  0
 28 33  1  0  0  0  0
 29 30  1  0  0  0  0
 29 36  1  6  0  0  0
 30 31  1  0  0  0  0
 30 37  1  6  0  0  0
 31 32  1  0  0  0  0
 31 34  1  6  0  0  0
 32 33  1  0  0  0  0
 33 35  1  1  0  0  0
M  END
>  <CHROM.1>
-62.22319257,-79.29211403,-157.43747168,-173.02229811,-152.92857163,-179.00744690
-4.74606183,27.56633183,65.95845560,-0.25009803,-0.23336711,0.86194722

>  <Name>
ligand

>  <RI>
0

>  <Rbt.Current_Directory>
/home/itssahil/PROJECTS/Mol_Feturizer/Test_systems_manuscript/rnas/2g5k

>  <Rbt.Executable>
rbdock ($Id: //depot/dev/client3/rdock/2013.1/src/exe/rbdock.cxx#4 $)

>  <Rbt.Library>
libRbt.so (2013.1, Build901 2013/11/27)

>  <Rbt.Parameter_File>
/export/apps/rDock/src/rDock_2013.1_src/data/scripts/dock_solv.prm

>  <Rbt.Receptor>
prm/pocket_docking_2.prm

>  <SCORE>
1.1367

>  <SCORE.INTER>
-0.52369

>  <SCORE.INTER.CONST>
1

>  <SCORE.INTER.POLAR>
0

>  <SCORE.INTER.ROT>
6

>  <SCORE.INTER.SOLV>
14.4731

>  <SCORE.INTER.VDW>
-12.7735

>  <SCORE.INTER.norm>
-0.0141538

>  <SCORE.INTRA>
1.55321

>  <SCORE.INTRA.DIHEDRAL>
-5.54662

>  <SCORE.INTRA.DIHEDRAL.0>
11.3972

>  <SCORE.INTRA.POLAR>
0

>  <SCORE.INTRA.POLAR.0>
0

>  <SCORE.INTRA.REPUL>
0

>  <SCORE.INTRA.REPUL.0>
0

>  <SCORE.INTRA.SOLV>
4.68144

>  <SCORE.INTRA.SOLV.lig_0>
-92.3891

>  <SCORE.INTRA.VDW>
1.98581

>  <SCORE.INTRA.VDW.0>
-2.90606

>  <SCORE.INTRA.norm>
0.0419787

>  <SCORE.RESTR>
0.107177

>  <SCORE.RESTR.CAVITY>
0.107177

>  <SCORE.RESTR.norm>
0.00289667

>  <SCORE.SYSTEM>
0

>  <SCORE.SYSTEM.CONST>
0

>  <SCORE.SYSTEM.DIHEDRAL>
0

>  <SCORE.SYSTEM.SOLV>
0

>  <SCORE.SYSTEM.norm>
0

>  <SCORE.heavy>
37

>  <SCORE.norm>
0.0307216

>  <RMSD>
2.126

$$$$
ligand
 OpenBabel02271912133D
libRbt.so/2013.1/901 2013/11/27
 37 40  0  0  0  0  0  0  0  0999 V2000
   -0.7773   26.7580   67.3807 C   0  0  1  0  0  0  0  0  0  0  0  0
   -1.9429   26.4152   68.3515 C   0  0  1  0  0  0  0  0  0  0  0  0
   -3.3030   26.3773   67.6291 C   0  0  0  0  0  0  0  0  0  0  0  0
   -3.5437   27.7526   66.9321 C   0  0  1  0  0  0  0  0  0  0  0  0
   -2.3946   28.0658   65.9197 C   0  0  1  0  0  0  0  0  0  0  0  0
   -2.6596   29.4753   65.2212 C   0  0  1  0  0  0  0  0  0  0  0  0
   -4.0308   29.4247   64.4856 C   0  0  1  0  0  0  0  0  0  0  0  0
   -5.1307   29.0759   65.5331 C   0  0  2  0  0  0  0  0  0  0  0  0
   -4.7200   31.9145   64.6767 C   0  0  0  0  0  0  0  0  0  0  0  0
   -1.6875   25.1318   69.0391 N   0  0  0  0  0  0  0  0  0  0  0  0
   -4.3245   30.7500   63.8220 N   0  0  0  0  0  0  0  0  0  0  0  0
   -0.5196   25.7042   66.4324 O   0  0  0  0  0  0  0  0  0  0  0  0
   -1.1088   28.0252   66.6781 O   0  0  0  0  0  0  0  0  0  0  0  0
   -4.8530   27.7980   66.2019 O   0  0  0  0  0  0  0  0  0  0  0  0
   -2.7212   30.4961   66.2088 O   0  0  0  0  0  0  0  0  0  0  0  0
   -6.4023   28.9999   64.8987 O   0  0  0  0  0  0  0  0  0  0  0  0
   -7.4737   29.6200   65.6514 C   0  0  2  0  0  0  0  0  0  0  0  0
   -7.9289   28.7696   66.8610 C   0  0  1  0  0  0  0  0  0  0  0  0
   -8.5980   27.4395   66.3861 C   0  0  2  0  0  0  0  0  0  0  0  0
   -9.8063   27.7728   65.5347 C   0  0  1  0  0  0  0  0  0  0  0  0
   -9.3412   28.6050   64.3022 C   0  0  1  0  0  0  0  0  0  0  0  0
  -10.5089   29.0021   63.4011 C   0  0  0  0  0  0  0  0  0  0  0  0
  -10.4600   26.5154   65.0983 N   0  0  0  0  0  0  0  0  0  0  0  0
   -8.6573   29.8498   64.7700 O   0  0  0  0  0  0  0  0  0  0  0  0
   -6.7663   28.5371   67.6871 O   0  0  0  0  0  0  0  0  0  0  0  0
   -9.0239   26.6788   67.5188 O   0  0  0  0  0  0  0  0  0  0  0  0
  -11.5082   29.6162   64.1781 O   0  0  0  0  0  0  0  0  0  0  0  0
    0.6965   25.6781   65.5321 C   0  0  1  0  0  0  0  0  0  0  0  0
    1.6627   24.5768   66.0481 C   0  0  1  0  0  0  0  0  0  0  0  0
    2.9325   24.5182   65.1502 C   0  0  2  0  0  0  0  0  0  0  0  0
    2.5118   24.1918   63.6960 C   0  0  1  0  0  0  0  0  0  0  0  0
    1.5397   25.2957   63.1449 C   0  0  0  0  0  0  0  0  0  0  0  0
    0.2974   25.3463   64.0595 C   0  0  2  0  0  0  0  0  0  0  0  0
    3.7150   24.1264   62.8322 N   0  0  0  0  0  0  0  0  0  0  0  0
   -0.6043   26.3798   63.5391 N   0  0  0  0  0  0  0  0  0  0  0  0
    2.0545   24.8785   67.4056 O   0  0  0  0  0  0  0  0  0  0  0  0
    3.8158   23.4920   65.6547 O   0  0  0  0  0  0  0  0  0  0  0  0
  1  2  1  0  0  0  0
  1 12  1  6  0  0  0
  1 13  1  0  0  0  0
  2  3  1  0  0  0  0
  2 10  1  6  0  0  0
  4  3  1  6  0  0  0
  4  5  1  0  0  0  0
  4 14  1  0  0  0  0
  5  6  1  0  0  0  0
  5 13  1  1  0  0  0
  6  7  1  0  0  0  0
  6 15  1  1  0  0  0
  7  8  1  0  0  0  0
  7 11  1  1  0  0  0
  8 14  1  0  0  0  0
  8 16  1  6  0  0  0
  9 11  1  0  0  0  0
 17 16  1  6  0  0  0
 17 18  1  0  0  0  0
 17 24  1  0  0  0  0
 18 19  1  0  0  0  0
 18 25  1  1  0  0  0
 19 20  1  0  0  0  0
 19 26  1  1  0  0  0
 20 21  1  0  0  0  0
 20 23  1  6  0  0  0
 21 22  1  6  0  0  0
 21 24  1  0  0  0  0
 22 27  1  0  0  0  0
 28 12  1  1  0  0  0
 28 29  1  0  0  0  0
 28 33  1  0  0  0  0
 29 30  1  0  0  0  0
 29 36  1  1  0  0  0
 30 31  1  0  0  0  0
 30 37  1  1  0  0  0
 31 32  1  0  0  0  0
 31 34  1  6  0  0  0
 32 33  1  0  0  0  0
 33 35  1  6  0  0  0
M  END
>  <CHROM.1>
-169.52267872,-73.62242336,-137.81341123,107.50493516,-75.26301810,51.79973430
-3.59256679,27.40339302,65.63521921,0.23971827,-0.25457996,2.32900727

>  <Name>
ligand

>  <RI>
0

>  <Rbt.Current_Directory>
/home/itssahil/PROJECTS/Mol_Feturizer/Test_systems_manuscript/rnas/2g5k

>  <Rbt.Executable>
rbdock ($Id: //depot/dev/client3/rdock/2013.1/src/exe/rbdock.cxx#4 $)

>  <Rbt.Library>
libRbt.so (2013.1, Build901 2013/11/27)

>  <Rbt.Parameter_File>
/export/apps/rDock/src/rDock_2013.1_src/data/scripts/dock_solv.prm

>  <Rbt.Receptor>
prm/pocket_docking_2.prm

>  <SCORE>
-0.510145

>  <SCORE.INTER>
-4.66374

>  <SCORE.INTER.CONST>
1

>  <SCORE.INTER.POLAR>
0

>  <SCORE.INTER.ROT>
6

>  <SCORE.INTER.SOLV>
18.3941

>  <SCORE.INTER.VDW>
-16.8405

>  <SCORE.INTER.norm>
-0.126047

>  <SCORE.INTRA>
3.76962

>  <SCORE.INTRA.DIHEDRAL>
2.8018

>  <SCORE.INTRA.DIHEDRAL.0>
11.3972

>  <SCORE.INTRA.POLAR>
0

>  <SCORE.INTRA.POLAR.0>
0

>  <SCORE.INTRA.REPUL>
0

>  <SCORE.INTRA.REPUL.0>
0

>  <SCORE.INTRA.SOLV>
1.5579

>  <SCORE.INTRA.SOLV.lig_0>
-92.3891

>  <SCORE.INTRA.VDW>
1.58977

>  <SCORE.INTRA.VDW.0>
-2.90606

>  <SCORE.INTRA.norm>
0.101881

>  <SCORE.RESTR>
0.383981

>  <SCORE.RESTR.CAVITY>
0.383981

>  <SCORE.RESTR.norm>
0.0103779

>  <SCORE.SYSTEM>
0

>  <SCORE.SYSTEM.CONST>
0

>  <SCORE.SYSTEM.DIHEDRAL>
0

>  <SCORE.SYSTEM.SOLV>
0

>  <SCORE.SYSTEM.norm>
0

>  <SCORE.heavy>
37

>  <SCORE.norm>
-0.0137877

>  <RMSD>
2.150

$$$$
ligand
 OpenBabel02271912133D
libRbt.so/2013.1/901 2013/11/27
 37 40  0  0  0  0  0  0  0  0999 V2000
   -1.1571   28.1851   67.0848 C   0  0  1  0  0  0  0  0  0  0  0  0
   -2.2279   27.2513   67.7171 C   0  0  1  0  0  0  0  0  0  0  0  0
   -3.4975   27.1588   66.8494 C   0  0  0  0  0  0  0  0  0  0  0  0
   -4.0676   28.5953   66.6333 C   0  0  1  0  0  0  0  0  0  0  0  0
   -3.0031   29.5136   65.9499 C   0  0  1  0  0  0  0  0  0  0  0  0
   -3.6058   30.9756   65.7406 C   0  0  1  0  0  0  0  0  0  0  0  0
   -4.8821   30.8740   64.8548 C   0  0  1  0  0  0  0  0  0  0  0  0
   -5.8912   29.9224   65.5653 C   0  0  2  0  0  0  0  0  0  0  0  0
   -6.2040   32.5254   63.3596 C   0  0  0  0  0  0  0  0  0  0  0  0
   -1.6677   25.9046   67.9577 N   0  0  0  0  0  0  0  0  0  0  0  0
   -5.4912   32.2407   64.6457 N   0  0  0  0  0  0  0  0  0  0  0  0
   -0.5884   27.6374   65.8794 O   0  0  0  0  0  0  0  0  0  0  0  0
   -1.7857   29.5046   66.8146 O   0  0  0  0  0  0  0  0  0  0  0  0
   -5.3102   28.5928   65.7932 O   0  0  0  0  0  0  0  0  0  0  0  0
   -3.9785   31.5254   66.9976 O   0  0  0  0  0  0  0  0  0  0  0  0
   -7.0689   29.7846   64.7785 O   0  0  0  0  0  0  0  0  0  0  0  0
   -8.1674   29.1416   65.4707 C   0  0  2  0  0  0  0  0  0  0  0  0
   -9.3957   28.9055   64.5601 C   0  0  1  0  0  0  0  0  0  0  0  0
  -10.0383   30.2633   64.1291 C   0  0  2  0  0  0  0  0  0  0  0  0
  -10.4802   31.0143   65.3688 C   0  0  1  0  0  0  0  0  0  0  0  0
   -9.2367   31.2758   66.2705 C   0  0  1  0  0  0  0  0  0  0  0  0
   -9.6028   32.0125   67.5575 C   0  0  0  0  0  0  0  0  0  0  0  0
  -11.1115   32.2945   64.9670 N   0  0  0  0  0  0  0  0  0  0  0  0
   -8.6008   29.9720   66.6338 O   0  0  0  0  0  0  0  0  0  0  0  0
   -8.9509   28.1231   63.4296 O   0  0  0  0  0  0  0  0  0  0  0  0
  -11.1789   30.0200   63.3026 O   0  0  0  0  0  0  0  0  0  0  0  0
   -8.4384   32.2287   68.3171 O   0  0  0  0  0  0  0  0  0  0  0  0
    0.1902   26.3402   65.8452 C   0  0  1  0  0  0  0  0  0  0  0  0
    0.6839   26.1051   64.3913 C   0  0  1  0  0  0  0  0  0  0  0  0
    1.4886   24.7756   64.3099 C   0  0  2  0  0  0  0  0  0  0  0  0
    2.7093   24.8618   65.2589 C   0  0  1  0  0  0  0  0  0  0  0  0
    2.2384   25.0910   66.7397 C   0  0  0  0  0  0  0  0  0  0  0  0
    1.4299   26.4048   66.7921 C   0  0  2  0  0  0  0  0  0  0  0  0
    3.4881   23.6023   65.1844 N   0  0  0  0  0  0  0  0  0  0  0  0
    0.9929   26.6108   68.1772 N   0  0  0  0  0  0  0  0  0  0  0  0
   -0.4537   26.0266   63.5041 O   0  0  0  0  0  0  0  0  0  0  0  0
    1.9300   24.5779   62.9483 O   0  0  0  0  0  0  0  0  0  0  0  0
  1  2  1  0  0  0  0
  1 12  1  6  0  0  0
  1 13  1  0  0  0  0
  2  3  1  0  0  0  0
  2 10  1  6  0  0  0
  4  3  1  6  0  0  0
  4  5  1  0  0  0  0
  4 14  1  0  0  0  0
  5  6  1  0  0  0  0
  5 13  1  1  0  0  0
  6  7  1  0  0  0  0
  6 15  1  1  0  0  0
  7  8  1  0  0  0  0
  7 11  1  1  0  0  0
  8 14  1  0  0  0  0
  8 16  1  6  0  0  0
  9 11  1  0  0  0  0
 17 16  1  6  0  0  0
 17 18  1  0  0  0  0
 17 24  1  0  0  0  0
 18 19  1  0  0  0  0
 18 25  1  6  0  0  0
 19 20  1  0  0  0  0
 19 26  1  6  0  0  0
 20 21  1  0  0  0  0
 20 23  1  6  0  0  0
 21 22  1  1  0  0  0
 21 24  1  0  0  0  0
 22 27  1  0  0  0  0
 28 12  1  6  0  0  0
 28 29  1  0  0  0  0
 28 33  1  0  0  0  0
 29 30  1  0  0  0  0
 29 36  1  6  0  0  0
 30 31  1  0  0  0  0
 30 37  1  6  0  0  0
 31 32  1  0  0  0  0
 31 34  1  1  0  0  0
 32 33  1  0  0  0  0
 33 35  1  1  0  0  0
M  END
>  <CHROM.1>
-62.10886967,148.20743332,-168.26606665,-177.99708093,-175.52257231,-179.40285410
-4.12657883,28.66767923,65.65110220,-0.27173232,-0.38704671,0.87532760

>  <Name>
ligand

>  <RI>
0

>  <Rbt.Current_Directory>
/home/itssahil/PROJECTS/Mol_Feturizer/Test_systems_manuscript/rnas/2g5k

>  <Rbt.Executable>
rbdock ($Id: //depot/dev/client3/rdock/2013.1/src/exe/rbdock.cxx#4 $)

>  <Rbt.Library>
libRbt.so (2013.1, Build901 2013/11/27)

>  <Rbt.Parameter_File>
/export/apps/rDock/src/rDock_2013.1_src/data/scripts/dock_solv.prm

>  <Rbt.Receptor>
prm/pocket_docking_3.prm

>  <SCORE>
-5.92186

>  <SCORE.INTER>
-2.73646

>  <SCORE.INTER.CONST>
1

>  <SCORE.INTER.POLAR>
0

>  <SCORE.INTER.ROT>
6

>  <SCORE.INTER.SOLV>
12.9451

>  <SCORE.INTER.VDW>
-13.7393

>  <SCORE.INTER.norm>
-0.0739583

>  <SCORE.INTRA>
-3.18541

>  <SCORE.INTRA.DIHEDRAL>
-9.90712

>  <SCORE.INTRA.DIHEDRAL.0>
11.3972

>  <SCORE.INTRA.POLAR>
0

>  <SCORE.INTRA.POLAR.0>
0

>  <SCORE.INTRA.REPUL>
0

>  <SCORE.INTRA.REPUL.0>
0

>  <SCORE.INTRA.SOLV>
3.54187

>  <SCORE.INTRA.SOLV.lig_0>
-92.3891

>  <SCORE.INTRA.VDW>
-0.00278248

>  <SCORE.INTRA.VDW.0>
-2.90606

>  <SCORE.INTRA.norm>
-0.0860921

>  <SCORE.RESTR>
0

>  <SCORE.RESTR.CAVITY>
0

>  <SCORE.RESTR.norm>
0

>  <SCORE.SYSTEM>
0

>  <SCORE.SYSTEM.CONST>
0

>  <SCORE.SYSTEM.DIHEDRAL>
0

>  <SCORE.SYSTEM.SOLV>
0

>  <SCORE.SYSTEM.norm>
0

>  <SCORE.heavy>
37

>  <SCORE.norm>
-0.16005

>  <RMSD>
2.155

$$$$
ligand
 OpenBabel02271912133D
libRbt.so/2013.1/901 2013/11/27
 37 40  0  0  0  0  0  0  0  0999 V2000
   -0.4977   26.8467   68.2776 C   0  0  1  0  0  0  0  0  0  0  0  0
   -1.5630   26.2730   69.2546 C   0  0  1  0  0  0  0  0  0  0  0  0
   -2.9933   26.6807   68.8529 C   0  0  0  0  0  0  0  0  0  0  0  0
   -3.0759   28.2378   68.7892 C   0  0  1  0  0  0  0  0  0  0  0  0
   -2.0377   28.8033   67.7665 C   0  0  1  0  0  0  0  0  0  0  0  0
   -2.1381   30.3946   67.7192 C   0  0  1  0  0  0  0  0  0  0  0  0
   -3.5832   30.7975   67.3029 C   0  0  1  0  0  0  0  0  0  0  0  0
   -4.5751   30.1800   68.3341 C   0  0  2  0  0  0  0  0  0  0  0  0
   -3.5937   33.0027   65.9437 C   0  0  0  0  0  0  0  0  0  0  0  0
   -1.4508   24.8015   69.3417 N   0  0  0  0  0  0  0  0  0  0  0  0
   -3.7219   32.3014   67.2608 N   0  0  0  0  0  0  0  0  0  0  0  0
   -0.5645   26.2436   66.9707 O   0  0  0  0  0  0  0  0  0  0  0  0
   -0.6891   28.3179   68.1857 O   0  0  0  0  0  0  0  0  0  0  0  0
   -4.4427   28.7188   68.4019 O   0  0  0  0  0  0  0  0  0  0  0  0
   -1.8809   30.9302   69.0108 O   0  0  0  0  0  0  0  0  0  0  0  0
   -5.9139   30.5078   67.9803 O   0  0  0  0  0  0  0  0  0  0  0  0
   -6.5806   29.4908   67.1926 C   0  0  2  0  0  0  0  0  0  0  0  0
   -6.4480   29.7272   65.6695 C   0  0  1  0  0  0  0  0  0  0  0  0
   -7.2127   31.0201   65.2382 C   0  0  2  0  0  0  0  0  0  0  0  0
   -8.6789   30.8645   65.5876 C   0  0  1  0  0  0  0  0  0  0  0  0
   -8.8117   30.6550   67.1259 C   0  0  1  0  0  0  0  0  0  0  0  0
  -10.2645   30.4668   67.5586 C   0  0  0  0  0  0  0  0  0  0  0  0
   -9.4157   32.0787   65.1611 N   0  0  0  0  0  0  0  0  0  0  0  0
   -8.0338   29.4447   67.5336 O   0  0  0  0  0  0  0  0  0  0  0  0
   -5.0372   29.7940   65.3642 O   0  0  0  0  0  0  0  0  0  0  0  0
   -7.0895   31.2091   63.8267 O   0  0  0  0  0  0  0  0  0  0  0  0
  -10.7621   29.2708   67.0096 O   0  0  0  0  0  0  0  0  0  0  0  0
    0.6532   26.0051   66.1045 C   0  0  1  0  0  0  0  0  0  0  0  0
    1.5113   24.8909   66.7641 C   0  0  1  0  0  0  0  0  0  0  0  0
    2.7796   24.6159   65.9052 C   0  0  2  0  0  0  0  0  0  0  0  0
    2.3457   24.1598   64.4902 C   0  0  1  0  0  0  0  0  0  0  0  0
    1.4824   25.2730   63.7953 C   0  0  0  0  0  0  0  0  0  0  0  0
    0.2406   25.5397   64.6724 C   0  0  2  0  0  0  0  0  0  0  0  0
    3.5468   23.8879   63.6644 N   0  0  0  0  0  0  0  0  0  0  0  0
   -0.5591   26.5806   64.0176 N   0  0  0  0  0  0  0  0  0  0  0  0
    1.9151   25.3137   68.0852 O   0  0  0  0  0  0  0  0  0  0  0  0
    3.5619   23.5819   66.5429 O   0  0  0  0  0  0  0  0  0  0  0  0
  1  2  1  0  0  0  0
  1 12  1  6  0  0  0
  1 13  1  0  0  0  0
  2  3  1  0  0  0  0
  2 10  1  6  0  0  0
  4  3  1  6  0  0  0
  4  5  1  0  0  0  0
  4 14  1  0  0  0  0
  5  6  1  0  0  0  0
  5 13  1  1  0  0  0
  6  7  1  0  0  0  0
  6 15  1  1  0  0  0
  7  8  1  0  0  0  0
  7 11  1  1  0  0  0
  8 14  1  0  0  0  0
  8 16  1  6  0  0  0
  9 11  1  0  0  0  0
 17 16  1  1  0  0  0
 17 18  1  0  0  0  0
 17 24  1  0  0  0  0
 18 19  1  0  0  0  0
 18 25  1  1  0  0  0
 19 20  1  0  0  0  0
 19 26  1  6  0  0  0
 20 21  1  0  0  0  0
 20 23  1  1  0  0  0
 21 22  1  6  0  0  0
 21 24  1  0  0  0  0
 22 27  1  0  0  0  0
 28 12  1  1  0  0  0
 28 29  1  0  0  0  0
 28 33  1  0  0  0  0
 29 30  1  0  0  0  0
 29 36  1  1  0  0  0
 30 31  1  0  0  0  0
 30 37  1  1  0  0  0
 31 32  1  0  0  0  0
 31 34  1  6  0  0  0
 32 33  1  0  0  0  0
 33 35  1  6  0  0  0
M  END
>  <CHROM.1>
-146.26566785,97.55499084,94.80641167,69.14295611,-92.82902876,65.27522427
-3.09896454,28.31660841,66.78883529,-0.09585899,-0.53522173,1.45778766

>  <Name>
ligand

>  <RI>
0

>  <Rbt.Current_Directory>
/home/itssahil/PROJECTS/Mol_Feturizer/Test_systems_manuscript/rnas/2g5k

>  <Rbt.Executable>
rbdock ($Id: //depot/dev/client3/rdock/2013.1/src/exe/rbdock.cxx#4 $)

>  <Rbt.Library>
libRbt.so (2013.1, Build901 2013/11/27)

>  <Rbt.Parameter_File>
/export/apps/rDock/src/rDock_2013.1_src/data/scripts/dock_solv.prm

>  <Rbt.Receptor>
prm/pocket_docking_3.prm

>  <SCORE>
-4.55509

>  <SCORE.INTER>
-8.07394

>  <SCORE.INTER.CONST>
1

>  <SCORE.INTER.POLAR>
0

>  <SCORE.INTER.ROT>
6

>  <SCORE.INTER.SOLV>
19.9851

>  <SCORE.INTER.VDW>
-19.6443

>  <SCORE.INTER.norm>
-0.218215

>  <SCORE.INTRA>
3.49976

>  <SCORE.INTRA.DIHEDRAL>
2.86422

>  <SCORE.INTRA.DIHEDRAL.0>
11.3972

>  <SCORE.INTRA.POLAR>
0

>  <SCORE.INTRA.POLAR.0>
0

>  <SCORE.INTRA.REPUL>
0

>  <SCORE.INTRA.REPUL.0>
0

>  <SCORE.INTRA.SOLV>
1.29267

>  <SCORE.INTRA.SOLV.lig_0>
-92.3891

>  <SCORE.INTRA.VDW>
1.42132

>  <SCORE.INTRA.VDW.0>
-2.90606

>  <SCORE.INTRA.norm>
0.0945882

>  <SCORE.RESTR>
0.0190825

>  <SCORE.RESTR.CAVITY>
0.0190825

>  <SCORE.RESTR.norm>
0.000515744

>  <SCORE.SYSTEM>
0

>  <SCORE.SYSTEM.CONST>
0

>  <SCORE.SYSTEM.DIHEDRAL>
0

>  <SCORE.SYSTEM.SOLV>
0

>  <SCORE.SYSTEM.norm>
0

>  <SCORE.heavy>
37

>  <SCORE.norm>
-0.123111

>  <RMSD>
2.178

$$$$
ligand
 OpenBabel02271912133D
libRbt.so/2013.1/901 2013/11/27
 37 40  0  0  0  0  0  0  0  0999 V2000
   -1.0791   28.3326   67.4946 C   0  0  1  0  0  0  0  0  0  0  0  0
   -1.7259   28.5968   68.8840 C   0  0  1  0  0  0  0  0  0  0  0  0
   -3.0714   27.8633   69.0427 C   0  0  0  0  0  0  0  0  0  0  0  0
   -4.0263   28.3039   67.8898 C   0  0  1  0  0  0  0  0  0  0  0  0
   -3.3912   27.9874   66.4970 C   0  0  1  0  0  0  0  0  0  0  0  0
   -4.3823   28.4472   65.3346 C   0  0  1  0  0  0  0  0  0  0  0  0
   -5.7352   27.6940   65.4968 C   0  0  1  0  0  0  0  0  0  0  0  0
   -6.3039   28.0172   66.9113 C   0  0  2  0  0  0  0  0  0  0  0  0
   -7.8805   27.2331   64.1199 C   0  0  0  0  0  0  0  0  0  0  0  0
   -0.7990   28.2162   69.9708 N   0  0  0  0  0  0  0  0  0  0  0  0
   -6.7076   28.1149   64.4197 N   0  0  0  0  0  0  0  0  0  0  0  0
   -0.6330   26.9709   67.3424 O   0  0  0  0  0  0  0  0  0  0  0  0
   -2.0694   28.6800   66.4421 O   0  0  0  0  0  0  0  0  0  0  0  0
   -5.3642   27.6308   67.9719 O   0  0  0  0  0  0  0  0  0  0  0  0
   -4.6335   29.8424   65.4422 O   0  0  0  0  0  0  0  0  0  0  0  0
   -7.5349   27.3317   67.1107 O   0  0  0  0  0  0  0  0  0  0  0  0
   -8.1633   27.6091   68.3863 C   0  0  2  0  0  0  0  0  0  0  0  0
   -9.5071   26.8646   68.5689 C   0  0  1  0  0  0  0  0  0  0  0  0
  -10.5781   27.3938   67.5614 C   0  0  2  0  0  0  0  0  0  0  0  0
  -10.7963   28.8731   67.8067 C   0  0  1  0  0  0  0  0  0  0  0  0
   -9.4478   29.6242   67.5943 C   0  0  1  0  0  0  0  0  0  0  0  0
   -9.5784   31.1252   67.8456 C   0  0  0  0  0  0  0  0  0  0  0  0
  -11.8280   29.3782   66.8689 N   0  0  0  0  0  0  0  0  0  0  0  0
   -8.4177   29.0739   68.5281 O   0  0  0  0  0  0  0  0  0  0  0  0
   -9.2447   25.4533   68.4031 O   0  0  0  0  0  0  0  0  0  0  0  0
  -11.8139   26.7033   67.7591 O   0  0  0  0  0  0  0  0  0  0  0  0
  -10.4072   31.6916   66.8598 O   0  0  0  0  0  0  0  0  0  0  0  0
    0.4191   26.5504   66.3393 C   0  0  1  0  0  0  0  0  0  0  0  0
    1.0273   25.1996   66.8066 C   0  0  1  0  0  0  0  0  0  0  0  0
    2.1199   24.7311   65.8024 C   0  0  2  0  0  0  0  0  0  0  0  0
    1.4802   24.5495   64.4038 C   0  0  1  0  0  0  0  0  0  0  0  0
    0.8639   25.9043   63.9020 C   0  0  0  0  0  0  0  0  0  0  0  0
   -0.2038   26.3566   64.9208 C   0  0  2  0  0  0  0  0  0  0  0  0
    2.5111   24.0961   63.4395 N   0  0  0  0  0  0  0  0  0  0  0  0
   -0.7732   27.6224   64.4458 N   0  0  0  0  0  0  0  0  0  0  0  0
    1.6227   25.3666   68.1124 O   0  0  0  0  0  0  0  0  0  0  0  0
    2.6729   23.4781   66.2629 O   0  0  0  0  0  0  0  0  0  0  0  0
  1  2  1  0  0  0  0
  1 12  1  1  0  0  0
  1 13  1  0  0  0  0
  2  3  1  0  0  0  0
  2 10  1  1  0  0  0
  4  3  1  1  0  0  0
  4  5  1  0  0  0  0
  4 14  1  0  0  0  0
  5  6  1  0  0  0  0
  5 13  1  6  0  0  0
  6  7  1  0  0  0  0
  6 15  1  1  0  0  0
  7  8  1  0  0  0  0
  7 11  1  6  0  0  0
  8 14  1  0  0  0  0
  8 16  1  1  0  0  0
  9 11  1  0  0  0  0
 17 16  1  6  0  0  0
 17 18  1  0  0  0  0
 17 24  1  0  0  0  0
 18 19  1  0  0  0  0
 18 25  1  6  0  0  0
 19 20  1  0  0  0  0
 19 26  1  1  0  0  0
 20 21  1  0  0  0  0
 20 23  1  6  0  0  0
 21 22  1  1  0  0  0
 21 24  1  0  0  0  0
 22 27  1  0  0  0  0
 28 12  1  1  0  0  0
 28 29  1  0  0  0  0
 28 33  1  0  0  0  0
 29 30  1  0  0  0  0
 29 36  1  1  0  0  0
 30 31  1  0  0  0  0
 30 37  1  1  0  0  0
 31 32  1  0  0  0  0
 31 34  1  6  0  0  0
 32 33  1  0  0  0  0
 33 35  1  6  0  0  0
M  END
>  <CHROM.1>
-158.41888419,160.96219122,-177.99321606,158.50542794,179.30372953,-66.74977254
-4.45894944,27.48714464,66.79701417,-0.23539918,-0.17410126,1.08835261

>  <Name>
ligand

>  <RI>
0

>  <Rbt.Current_Directory>
/home/itssahil/PROJECTS/Mol_Feturizer/Test_systems_manuscript/rnas/2g5k

>  <Rbt.Executable>
rbdock ($Id: //depot/dev/client3/rdock/2013.1/src/exe/rbdock.cxx#4 $)

>  <Rbt.Library>
libRbt.so (2013.1, Build901 2013/11/27)

>  <Rbt.Parameter_File>
/export/apps/rDock/src/rDock_2013.1_src/data/scripts/dock_solv.prm

>  <Rbt.Receptor>
prm/pocket_docking_4.prm

>  <SCORE>
-6.77324

>  <SCORE.INTER>
-4.49362

>  <SCORE.INTER.CONST>
1

>  <SCORE.INTER.POLAR>
0

>  <SCORE.INTER.ROT>
6

>  <SCORE.INTER.SOLV>
17.3038

>  <SCORE.INTER.VDW>
-16.3637

>  <SCORE.INTER.norm>
-0.121449

>  <SCORE.INTRA>
-2.27962

>  <SCORE.INTRA.DIHEDRAL>
-6.79359

>  <SCORE.INTRA.DIHEDRAL.0>
11.3972

>  <SCORE.INTRA.POLAR>
0

>  <SCORE.INTRA.POLAR.0>
0

>  <SCORE.INTRA.REPUL>
0

>  <SCORE.INTRA.REPUL.0>
0

>  <SCORE.INTRA.SOLV>
1.96841

>  <SCORE.INTRA.SOLV.lig_0>
-92.3891

>  <SCORE.INTRA.VDW>
0.132971

>  <SCORE.INTRA.VDW.0>
-2.90606

>  <SCORE.INTRA.norm>
-0.0616114

>  <SCORE.RESTR>
0

>  <SCORE.RESTR.CAVITY>
0

>  <SCORE.RESTR.norm>
0

>  <SCORE.SYSTEM>
0

>  <SCORE.SYSTEM.CONST>
0

>  <SCORE.SYSTEM.DIHEDRAL>
0

>  <SCORE.SYSTEM.SOLV>
0

>  <SCORE.SYSTEM.norm>
0

>  <SCORE.heavy>
37

>  <SCORE.norm>
-0.183061

>  <RMSD>
2.210

$$$$
ligand
 OpenBabel02271912133D
libRbt.so/2013.1/901 2013/11/27
 37 40  0  0  0  0  0  0  0  0999 V2000
   -1.0678   26.3832   67.3348 C   0  0  1  0  0  0  0  0  0  0  0  0
   -1.8109   25.8351   68.5862 C   0  0  1  0  0  0  0  0  0  0  0  0
   -3.2903   25.5249   68.2888 C   0  0  0  0  0  0  0  0  0  0  0  0
   -3.9798   26.8180   67.7523 C   0  0  1  0  0  0  0  0  0  0  0  0
   -3.2588   27.3332   66.4645 C   0  0  1  0  0  0  0  0  0  0  0  0
   -3.9781   28.6550   65.9352 C   0  0  1  0  0  0  0  0  0  0  0  0
   -5.4693   28.3300   65.6277 C   0  0  1  0  0  0  0  0  0  0  0  0
   -6.1273   27.7898   66.9331 C   0  0  2  0  0  0  0  0  0  0  0  0
   -7.5983   29.4320   64.6460 C   0  0  0  0  0  0  0  0  0  0  0  0
   -1.1276   24.6350   69.1135 N   0  0  0  0  0  0  0  0  0  0  0  0
   -6.1893   29.5641   65.1363 N   0  0  0  0  0  0  0  0  0  0  0  0
   -0.9053   25.3859   66.3076 O   0  0  0  0  0  0  0  0  0  0  0  0
   -1.8238   27.5524   66.8147 O   0  0  0  0  0  0  0  0  0  0  0  0
   -5.4296   26.5992   67.4361 O   0  0  0  0  0  0  0  0  0  0  0  0
   -3.9391   29.6583   66.9416 O   0  0  0  0  0  0  0  0  0  0  0  0
   -7.4906   27.4606   66.6923 O   0  0  0  0  0  0  0  0  0  0  0  0
   -8.2308   27.1074   67.8867 C   0  0  2  0  0  0  0  0  0  0  0  0
   -9.6511   26.5770   67.5789 C   0  0  1  0  0  0  0  0  0  0  0  0
  -10.5457   27.7034   66.9680 C   0  0  2  0  0  0  0  0  0  0  0  0
  -10.6491   28.8430   67.9612 C   0  0  1  0  0  0  0  0  0  0  0  0
   -9.2202   29.3941   68.2478 C   0  0  1  0  0  0  0  0  0  0  0  0
   -9.2356   30.5363   69.2618 C   0  0  0  0  0  0  0  0  0  0  0  0
  -11.5150   29.9068   67.3978 N   0  0  0  0  0  0  0  0  0  0  0  0
   -8.3596   28.2947   68.7835 O   0  0  0  0  0  0  0  0  0  0  0  0
   -9.5065   25.4461   66.6911 O   0  0  0  0  0  0  0  0  0  0  0  0
  -11.8558   27.1950   66.7067 O   0  0  0  0  0  0  0  0  0  0  0  0
   -7.9404   31.0737   69.3769 O   0  0  0  0  0  0  0  0  0  0  0  0
    0.1531   25.4712   65.2293 C   0  0  1  0  0  0  0  0  0  0  0  0
   -0.0876   26.7688   64.4101 C   0  0  1  0  0  0  0  0  0  0  0  0
    0.9797   26.8944   63.2846 C   0  0  2  0  0  0  0  0  0  0  0  0
    2.3891   26.9453   63.9244 C   0  0  1  0  0  0  0  0  0  0  0  0
    2.6633   25.6394   64.7530 C   0  0  0  0  0  0  0  0  0  0  0  0
    1.5842   25.5281   65.8511 C   0  0  2  0  0  0  0  0  0  0  0  0
    3.4146   27.0722   62.8610 N   0  0  0  0  0  0  0  0  0  0  0  0
    1.8463   24.3061   66.6192 N   0  0  0  0  0  0  0  0  0  0  0  0
   -1.4030   26.7241   63.8142 O   0  0  0  0  0  0  0  0  0  0  0  0
    0.7298   28.1042   62.5350 O   0  0  0  0  0  0  0  0  0  0  0  0
  1  2  1  0  0  0  0
  1 12  1  6  0  0  0
  1 13  1  0  0  0  0
  2  3  1  0  0  0  0
  2 10  1  6  0  0  0
  4  3  1  6  0  0  0
  4  5  1  0  0  0  0
  4 14  1  0  0  0  0
  5  6  1  0  0  0  0
  5 13  1  1  0  0  0
  6  7  1  0  0  0  0
  6 15  1  1  0  0  0
  7  8  1  0  0  0  0
  7 11  1  1  0  0  0
  8 14  1  0  0  0  0
  8 16  1  6  0  0  0
  9 11  1  0  0  0  0
 17 16  1  6  0  0  0
 17 18  1  0  0  0  0
 17 24  1  0  0  0  0
 18 19  1  0  0  0  0
 18 25  1  6  0  0  0
 19 20  1  0  0  0  0
 19 26  1  1  0  0  0
 20 21  1  0  0  0  0
 20 23  1  6  0  0  0
 21 22  1  1  0  0  0
 21 24  1  0  0  0  0
 22 27  1  0  0  0  0
 28 12  1  1  0  0  0
 28 29  1  0  0  0  0
 28 33  1  0  0  0  0
 29 30  1  0  0  0  0
 29 36  1  6  0  0  0
 30 31  1  0  0  0  0
 30 37  1  1  0  0  0
 31 32  1  0  0  0  0
 31 34  1  6  0  0  0
 32 33  1  0  0  0  0
 33 35  1  6  0  0  0
M  END
>  <CHROM.1>
-158.17861301,173.54036401,-172.69060292,-60.42653203,-172.46310157,-174.26690991
-4.32314789,27.38334271,66.49047666,-0.05515303,-0.31151539,2.25737059

>  <Name>
ligand

>  <RI>
0

>  <Rbt.Current_Directory>
/home/itssahil/PROJECTS/Mol_Feturizer/Test_systems_manuscript/rnas/2g5k

>  <Rbt.Executable>
rbdock ($Id: //depot/dev/client3/rdock/2013.1/src/exe/rbdock.cxx#4 $)

>  <Rbt.Library>
libRbt.so (2013.1, Build901 2013/11/27)

>  <Rbt.Parameter_File>
/export/apps/rDock/src/rDock_2013.1_src/data/scripts/dock_solv.prm

>  <Rbt.Receptor>
prm/pocket_docking_3.prm

>  <SCORE>
-5.93722

>  <SCORE.INTER>
-1.67329

>  <SCORE.INTER.CONST>
1

>  <SCORE.INTER.POLAR>
0

>  <SCORE.INTER.ROT>
6

>  <SCORE.INTER.SOLV>
20.2164

>  <SCORE.INTER.VDW>
-15.4543

>  <SCORE.INTER.norm>
-0.045224

>  <SCORE.INTRA>
-4.26817

>  <SCORE.INTRA.DIHEDRAL>
-8.56799

>  <SCORE.INTRA.DIHEDRAL.0>
11.3972

>  <SCORE.INTRA.POLAR>
0

>  <SCORE.INTRA.POLAR.0>
0

>  <SCORE.INTRA.REPUL>
0

>  <SCORE.INTRA.REPUL.0>
0

>  <SCORE.INTRA.SOLV>
-0.17176

>  <SCORE.INTRA.SOLV.lig_0>
-92.3891

>  <SCORE.INTRA.VDW>
0.101707

>  <SCORE.INTRA.VDW.0>
-2.90606

>  <SCORE.INTRA.norm>
-0.115356

>  <SCORE.RESTR>
0.00422958

>  <SCORE.RESTR.CAVITY>
0.00422958

>  <SCORE.RESTR.norm>
0.000114313

>  <SCORE.SYSTEM>
0

>  <SCORE.SYSTEM.CONST>
0

>  <SCORE.SYSTEM.DIHEDRAL>
0

>  <SCORE.SYSTEM.SOLV>
0

>  <SCORE.SYSTEM.norm>
0

>  <SCORE.heavy>
37

>  <SCORE.norm>
-0.160466

>  <RMSD>
2.277

$$$$
ligand
 OpenBabel02271912133D
libRbt.so/2013.1/901 2013/11/27
 37 40  0  0  0  0  0  0  0  0999 V2000
   -0.8735   27.3793   69.1668 C   0  0  1  0  0  0  0  0  0  0  0  0
   -2.1494   26.6402   69.6612 C   0  0  1  0  0  0  0  0  0  0  0  0
   -3.3027   26.7371   68.6445 C   0  0  0  0  0  0  0  0  0  0  0  0
   -3.6036   28.2423   68.3633 C   0  0  1  0  0  0  0  0  0  0  0  0
   -2.3302   28.9661   67.8174 C   0  0  1  0  0  0  0  0  0  0  0  0
   -2.6596   30.5020   67.5391 C   0  0  1  0  0  0  0  0  0  0  0  0
   -3.8188   30.5904   66.5036 C   0  0  1  0  0  0  0  0  0  0  0  0
   -5.0466   29.8254   67.0832 C   0  0  2  0  0  0  0  0  0  0  0  0
   -4.7102   32.3980   64.8761 C   0  0  0  0  0  0  0  0  0  0  0  0
   -1.8467   25.2256   69.9655 N   0  0  0  0  0  0  0  0  0  0  0  0
   -4.1700   32.0332   66.2245 N   0  0  0  0  0  0  0  0  0  0  0  0
   -0.2587   26.7265   68.0388 O   0  0  0  0  0  0  0  0  0  0  0  0
   -1.2439   28.7775   68.8246 O   0  0  0  0  0  0  0  0  0  0  0  0
   -4.7193   28.4241   67.3775 O   0  0  0  0  0  0  0  0  0  0  0  0
   -3.0884   31.1263   68.7423 O   0  0  0  0  0  0  0  0  0  0  0  0
   -6.1270   29.8641   66.1579 O   0  0  0  0  0  0  0  0  0  0  0  0
   -7.3074   29.1503   66.6009 C   0  0  2  0  0  0  0  0  0  0  0  0
   -8.5339   29.3929   65.6897 C   0  0  1  0  0  0  0  0  0  0  0  0
   -9.0064   30.8800   65.7766 C   0  0  2  0  0  0  0  0  0  0  0  0
   -9.3867   31.1928   67.2096 C   0  0  1  0  0  0  0  0  0  0  0  0
   -8.1420   30.9751   68.1212 C   0  0  1  0  0  0  0  0  0  0  0  0
   -8.4499   31.2492   69.5920 C   0  0  0  0  0  0  0  0  0  0  0  0
   -9.8576   32.5963   67.2963 N   0  0  0  0  0  0  0  0  0  0  0  0
   -7.6685   29.5628   67.9901 O   0  0  0  0  0  0  0  0  0  0  0  0
   -8.1567   29.0123   64.3477 O   0  0  0  0  0  0  0  0  0  0  0  0
  -10.1485   31.0764   64.9398 O   0  0  0  0  0  0  0  0  0  0  0  0
   -9.3768   30.2991   70.0582 O   0  0  0  0  0  0  0  0  0  0  0  0
    1.2077   26.8722   67.6947 C   0  0  1  0  0  0  0  0  0  0  0  0
    1.4963   26.0319   66.4206 C   0  0  1  0  0  0  0  0  0  0  0  0
    2.9987   26.1507   66.0326 C   0  0  2  0  0  0  0  0  0  0  0  0
    3.3356   27.6365   65.7547 C   0  0  1  0  0  0  0  0  0  0  0  0
    3.0610   28.5097   67.0312 C   0  0  0  0  0  0  0  0  0  0  0  0
    1.5708   28.3631   67.4058 C   0  0  2  0  0  0  0  0  0  0  0  0
    4.7639   27.7612   65.3768 N   0  0  0  0  0  0  0  0  0  0  0  0
    1.3229   29.1799   68.5989 N   0  0  0  0  0  0  0  0  0  0  0  0
    1.1804   24.6456   66.6772 O   0  0  0  0  0  0  0  0  0  0  0  0
    3.2412   25.3562   64.8503 O   0  0  0  0  0  0  0  0  0  0  0  0
  1  2  1  0  0  0  0
  1 12  1  6  0  0  0
  1 13  1  0  0  0  0
  2  3  1  0  0  0  0
  2 10  1  6  0  0  0
  4  3  1  6  0  0  0
  4  5  1  0  0  0  0
  4 14  1  0  0  0  0
  5  6  1  0  0  0  0
  5 13  1  1  0  0  0
  6  7  1  0  0  0  0
  6 15  1  1  0  0  0
  7  8  1  0  0  0  0
  7 11  1  1  0  0  0
  8 14  1  0  0  0  0
  8 16  1  6  0  0  0
  9 11  1  0  0  0  0
 17 16  1  6  0  0  0
 17 18  1  0  0  0  0
 17 24  1  0  0  0  0
 18 19  1  0  0  0  0
 18 25  1  6  0  0  0
 19 20  1  0  0  0  0
 19 26  1  6  0  0  0
 20 21  1  0  0  0  0
 20 23  1  6  0  0  0
 21 22  1  1  0  0  0
 21 24  1  0  0  0  0
 22 27  1  0  0  0  0
 28 12  1  6  0  0  0
 28 29  1  0  0  0  0
 28 33  1  0  0  0  0
 29 30  1  0  0  0  0
 29 36  1  1  0  0  0
 30 31  1  0  0  0  0
 30 37  1  6  0  0  0
 31 32  1  0  0  0  0
 31 34  1  1  0  0  0
 32 33  1  0  0  0  0
 33 35  1  1  0  0  0
M  END
>  <CHROM.1>
-155.47629247,150.24981338,178.71876881,-179.80057103,170.87903239,65.47334488
-3.34032947,28.90146688,67.24499586,0.18775939,-0.30188397,2.16057594

>  <Name>
ligand

>  <RI>
0

>  <Rbt.Current_Directory>
/home/itssahil/PROJECTS/Mol_Feturizer/Test_systems_manuscript/rnas/2g5k

>  <Rbt.Executable>
rbdock ($Id: //depot/dev/client3/rdock/2013.1/src/exe/rbdock.cxx#4 $)

>  <Rbt.Library>
libRbt.so (2013.1, Build901 2013/11/27)

>  <Rbt.Parameter_File>
/export/apps/rDock/src/rDock_2013.1_src/data/scripts/dock_solv.prm

>  <Rbt.Receptor>
prm/pocket_docking_5.prm

>  <SCORE>
-9.17498

>  <SCORE.INTER>
-6.36795

>  <SCORE.INTER.CONST>
1

>  <SCORE.INTER.POLAR>
0

>  <SCORE.INTER.ROT>
6

>  <SCORE.INTER.SOLV>
18.3799

>  <SCORE.INTER.VDW>
-17.9719

>  <SCORE.INTER.norm>
-0.172107

>  <SCORE.INTRA>
-2.80703

>  <SCORE.INTRA.DIHEDRAL>
-7.66996

>  <SCORE.INTRA.DIHEDRAL.0>
11.3972

>  <SCORE.INTRA.POLAR>
0

>  <SCORE.INTRA.POLAR.0>
0

>  <SCORE.INTRA.REPUL>
0

>  <SCORE.INTRA.REPUL.0>
0

>  <SCORE.INTRA.SOLV>
1.18687

>  <SCORE.INTRA.SOLV.lig_0>
-92.3891

>  <SCORE.INTRA.VDW>
0.434517

>  <SCORE.INTRA.VDW.0>
-2.90606

>  <SCORE.INTRA.norm>
-0.0758656

>  <SCORE.RESTR>
0

>  <SCORE.RESTR.CAVITY>
0

>  <SCORE.RESTR.norm>
0

>  <SCORE.SYSTEM>
0

>  <SCORE.SYSTEM.CONST>
0

>  <SCORE.SYSTEM.DIHEDRAL>
0

>  <SCORE.SYSTEM.SOLV>
0

>  <SCORE.SYSTEM.norm>
0

>  <SCORE.heavy>
37

>  <SCORE.norm>
-0.247972

>  <RMSD>
2.309

$$$$
ligand
 OpenBabel02271912133D
libRbt.so/2013.1/901 2013/11/27
 37 40  0  0  0  0  0  0  0  0999 V2000
   -0.9183   27.3288   67.0844 C   0  0  1  0  0  0  0  0  0  0  0  0
   -1.9298   26.3346   67.7224 C   0  0  1  0  0  0  0  0  0  0  0  0
   -3.2790   26.3276   66.9788 C   0  0  0  0  0  0  0  0  0  0  0  0
   -3.8556   27.7776   66.9642 C   0  0  1  0  0  0  0  0  0  0  0  0
   -2.8555   28.7614   66.2747 C   0  0  1  0  0  0  0  0  0  0  0  0
   -3.4637   30.2361   66.2727 C   0  0  1  0  0  0  0  0  0  0  0  0
   -4.8214   30.2217   65.5109 C   0  0  1  0  0  0  0  0  0  0  0  0
   -5.7639   29.2021   66.2186 C   0  0  2  0  0  0  0  0  0  0  0  0
   -5.9588   32.1503   64.2081 C   0  0  0  0  0  0  0  0  0  0  0  0
   -1.3599   24.9715   67.7710 N   0  0  0  0  0  0  0  0  0  0  0  0
   -5.4368   31.6016   65.5002 N   0  0  0  0  0  0  0  0  0  0  0  0
   -0.4750   26.9055   65.7803 O   0  0  0  0  0  0  0  0  0  0  0  0
   -1.5594   28.6678   67.0104 O   0  0  0  0  0  0  0  0  0  0  0  0
   -5.1745   27.8573   66.2543 O   0  0  0  0  0  0  0  0  0  0  0  0
   -3.7070   30.6566   67.6088 O   0  0  0  0  0  0  0  0  0  0  0  0
   -7.0142   29.1420   65.5415 O   0  0  0  0  0  0  0  0  0  0  0  0
   -8.1512   28.9572   66.4202 C   0  0  2  0  0  0  0  0  0  0  0  0
   -8.6377   27.4896   66.4731 C   0  0  1  0  0  0  0  0  0  0  0  0
   -9.2229   27.0470   65.0933 C   0  0  2  0  0  0  0  0  0  0  0  0
  -10.3942   27.9429   64.7450 C   0  0  1  0  0  0  0  0  0  0  0  0
   -9.8958   29.4169   64.6643 C   0  0  1  0  0  0  0  0  0  0  0  0
  -11.0266   30.3906   64.3380 C   0  0  0  0  0  0  0  0  0  0  0  0
  -10.9693   27.5150   63.4469 N   0  0  0  0  0  0  0  0  0  0  0  0
   -9.2919   29.8118   65.9741 O   0  0  0  0  0  0  0  0  0  0  0  0
   -7.5147   26.6771   66.8815 O   0  0  0  0  0  0  0  0  0  0  0  0
   -9.6796   25.6948   65.1707 O   0  0  0  0  0  0  0  0  0  0  0  0
  -11.9516   30.4015   65.3981 O   0  0  0  0  0  0  0  0  0  0  0  0
    0.4346   25.7165   65.5595 C   0  0  1  0  0  0  0  0  0  0  0  0
    0.9938   25.7914   64.1122 C   0  0  1  0  0  0  0  0  0  0  0  0
    1.9342   24.5815   63.8407 C   0  0  2  0  0  0  0  0  0  0  0  0
    3.1101   24.6161   64.8479 C   0  0  1  0  0  0  0  0  0  0  0  0
    2.5733   24.5328   66.3217 C   0  0  0  0  0  0  0  0  0  0  0  0
    1.6317   25.7321   66.5617 C   0  0  2  0  0  0  0  0  0  0  0  0
    4.0172   23.4711   64.5940 N   0  0  0  0  0  0  0  0  0  0  0  0
    1.1339   25.6463   67.9390 N   0  0  0  0  0  0  0  0  0  0  0  0
   -0.1020   25.7615   63.1712 O   0  0  0  0  0  0  0  0  0  0  0  0
    2.4348   24.6717   62.4883 O   0  0  0  0  0  0  0  0  0  0  0  0
  1  2  1  0  0  0  0
  1 12  1  6  0  0  0
  1 13  1  0  0  0  0
  2  3  1  0  0  0  0
  2 10  1  6  0  0  0
  4  3  1  6  0  0  0
  4  5  1  0  0  0  0
  4 14  1  0  0  0  0
  5  6  1  0  0  0  0
  5 13  1  1  0  0  0
  6  7  1  0  0  0  0
  6 15  1  1  0  0  0
  7  8  1  0  0  0  0
  7 11  1  1  0  0  0
  8 14  1  0  0  0  0
  8 16  1  6  0  0  0
  9 11  1  0  0  0  0
 17 16  1  6  0  0  0
 17 18  1  0  0  0  0
 17 24  1  0  0  0  0
 18 19  1  0  0  0  0
 18 25  1  6  0  0  0
 19 20  1  0  0  0  0
 19 26  1  1  0  0  0
 20 21  1  0  0  0  0
 20 23  1  6  0  0  0
 21 22  1  1  0  0  0
 21 24  1  0  0  0  0
 22 27  1  0  0  0  0
 28 12  1  1  0  0  0
 28 29  1  0  0  0  0
 28 33  1  0  0  0  0
 29 30  1  0  0  0  0
 29 36  1  6  0  0  0
 30 31  1  0  0  0  0
 30 37  1  6  0  0  0
 31 32  1  0  0  0  0
 31 34  1  6  0  0  0
 32 33  1  0  0  0  0
 33 35  1  1  0  0  0
M  END
>  <CHROM.1>
-70.20228939,132.44624814,-143.96837095,-165.12182247,-99.72478403,65.18646387
-4.00413151,27.59093350,65.68473403,-0.31362223,-0.12036478,0.33934428

>  <Name>
ligand

>  <RI>
0

>  <Rbt.Current_Directory>
/home/itssahil/PROJECTS/Mol_Feturizer/Test_systems_manuscript/rnas/2g5k

>  <Rbt.Executable>
rbdock ($Id: //depot/dev/client3/rdock/2013.1/src/exe/rbdock.cxx#4 $)

>  <Rbt.Library>
libRbt.so (2013.1, Build901 2013/11/27)

>  <Rbt.Parameter_File>
/export/apps/rDock/src/rDock_2013.1_src/data/scripts/dock_solv.prm

>  <Rbt.Receptor>
prm/pocket_docking_2.prm

>  <SCORE>
3.08286

>  <SCORE.INTER>
-1.06387

>  <SCORE.INTER.CONST>
1

>  <SCORE.INTER.POLAR>
0

>  <SCORE.INTER.ROT>
6

>  <SCORE.INTER.SOLV>
12.962

>  <SCORE.INTER.VDW>
-12.6299

>  <SCORE.INTER.norm>
-0.0287532

>  <SCORE.INTRA>
3.49802

>  <SCORE.INTRA.DIHEDRAL>
1.39186

>  <SCORE.INTRA.DIHEDRAL.0>
11.3972

>  <SCORE.INTRA.POLAR>
0

>  <SCORE.INTRA.POLAR.0>
0

>  <SCORE.INTRA.REPUL>
0

>  <SCORE.INTRA.REPUL.0>
0

>  <SCORE.INTRA.SOLV>
4.89847

>  <SCORE.INTRA.SOLV.lig_0>
-92.3891

>  <SCORE.INTRA.VDW>
0.352852

>  <SCORE.INTRA.VDW.0>
-2.90606

>  <SCORE.INTRA.norm>
0.094541

>  <SCORE.RESTR>
0.648707

>  <SCORE.RESTR.CAVITY>
0.648707

>  <SCORE.RESTR.norm>
0.0175326

>  <SCORE.SYSTEM>
0

>  <SCORE.SYSTEM.CONST>
0

>  <SCORE.SYSTEM.DIHEDRAL>
0

>  <SCORE.SYSTEM.SOLV>
0

>  <SCORE.SYSTEM.norm>
0

>  <SCORE.heavy>
37

>  <SCORE.norm>
0.0833204

>  <RMSD>
2.345

$$$$
ligand
 OpenBabel02271912133D
libRbt.so/2013.1/901 2013/11/27
 37 40  0  0  0  0  0  0  0  0999 V2000
    0.2797   25.5618   67.1794 C   0  0  1  0  0  0  0  0  0  0  0  0
   -0.8313   25.3919   68.2542 C   0  0  1  0  0  0  0  0  0  0  0  0
   -2.2389   25.3595   67.6287 C   0  0  0  0  0  0  0  0  0  0  0  0
   -2.4557   26.6664   66.8039 C   0  0  1  0  0  0  0  0  0  0  0  0
   -1.3655   26.8035   65.6920 C   0  0  1  0  0  0  0  0  0  0  0  0
   -1.6049   28.1455   64.8636 C   0  0  1  0  0  0  0  0  0  0  0  0
   -3.0250   28.0998   64.2271 C   0  0  1  0  0  0  0  0  0  0  0  0
   -4.0656   27.9280   65.3744 C   0  0  2  0  0  0  0  0  0  0  0  0
   -3.6359   30.6169   64.1898 C   0  0  0  0  0  0  0  0  0  0  0  0
   -0.5957   24.1745   69.0588 N   0  0  0  0  0  0  0  0  0  0  0  0
   -3.2948   29.3636   63.4443 N   0  0  0  0  0  0  0  0  0  0  0  0
    0.4151   24.4013   66.3361 O   0  0  0  0  0  0  0  0  0  0  0  0
   -0.0337   26.7661   66.3666 O   0  0  0  0  0  0  0  0  0  0  0  0
   -3.8087   26.7128   66.1584 O   0  0  0  0  0  0  0  0  0  0  0  0
   -1.5439   29.2657   65.7369 O   0  0  0  0  0  0  0  0  0  0  0  0
   -5.3806   27.8617   64.8347 O   0  0  0  0  0  0  0  0  0  0  0  0
   -6.4244   27.7781   65.8360 C   0  0  2  0  0  0  0  0  0  0  0  0
   -7.8451   27.7651   65.2236 C   0  0  1  0  0  0  0  0  0  0  0  0
   -8.1677   29.1313   64.5367 C   0  0  2  0  0  0  0  0  0  0  0  0
   -8.0869   30.2344   65.5724 C   0  0  1  0  0  0  0  0  0  0  0  0
   -6.6470   30.2638   66.1670 C   0  0  1  0  0  0  0  0  0  0  0  0
   -6.4885   31.3393   67.2401 C   0  0  0  0  0  0  0  0  0  0  0  0
   -8.4136   31.5317   64.9328 N   0  0  0  0  0  0  0  0  0  0  0  0
   -6.3313   28.9350   66.7759 O   0  0  0  0  0  0  0  0  0  0  0  0
   -7.9068   26.6558   64.2997 O   0  0  0  0  0  0  0  0  0  0  0  0
   -9.4892   29.1012   63.9927 O   0  0  0  0  0  0  0  0  0  0  0  0
   -7.3553   31.0582   68.3121 O   0  0  0  0  0  0  0  0  0  0  0  0
    1.4538   24.2887   65.2413 C   0  0  1  0  0  0  0  0  0  0  0  0
    1.2212   25.4417   64.2268 C   0  0  1  0  0  0  0  0  0  0  0  0
    2.2686   25.3610   63.0786 C   0  0  2  0  0  0  0  0  0  0  0  0
    3.6908   25.4845   63.6789 C   0  0  1  0  0  0  0  0  0  0  0  0
    3.9569   24.3242   64.7036 C   0  0  0  0  0  0  0  0  0  0  0  0
    2.8974   24.4148   65.8224 C   0  0  2  0  0  0  0  0  0  0  0  0
    4.6976   25.4161   62.5926 N   0  0  0  0  0  0  0  0  0  0  0  0
    3.1519   23.3277   66.7739 N   0  0  0  0  0  0  0  0  0  0  0  0
   -0.1061   25.3293   63.6673 O   0  0  0  0  0  0  0  0  0  0  0  0
    2.0265   26.4388   62.1472 O   0  0  0  0  0  0  0  0  0  0  0  0
  1  2  1  0  0  0  0
  1 12  1  6  0  0  0
  1 13  1  0  0  0  0
  2  3  1  0  0  0  0
  2 10  1  6  0  0  0
  4  3  1  6  0  0  0
  4  5  1  0  0  0  0
  4 14  1  0  0  0  0
  5  6  1  0  0  0  0
  5 13  1  1  0  0  0
  6  7  1  0  0  0  0
  6 15  1  1  0  0  0
  7  8  1  0  0  0  0
  7 11  1  1  0  0  0
  8 14  1  0  0  0  0
  8 16  1  6  0  0  0
  9 11  1  0  0  0  0
 17 16  1  6  0  0  0
 17 18  1  0  0  0  0
 17 24  1  0  0  0  0
 18 19  1  0  0  0  0
 18 25  1  6  0  0  0
 19 20  1  0  0  0  0
 19 26  1  1  0  0  0
 20 21  1  0  0  0  0
 20 23  1  6  0  0  0
 21 22  1  1  0  0  0
 21 24  1  0  0  0  0
 22 27  1  0  0  0  0
 28 12  1  1  0  0  0
 28 29  1  0  0  0  0
 28 33  1  0  0  0  0
 29 30  1  0  0  0  0
 29 36  1  6  0  0  0
 30 31  1  0  0  0  0
 30 37  1  6  0  0  0
 31 32  1  0  0  0  0
 31 34  1  6  0  0  0
 32 33  1  0  0  0  0
 33 35  1  1  0  0  0
M  END
>  <CHROM.1>
-177.88634494,-76.65044793,-176.67112599,-59.59412770,177.67172534,62.24115072
-2.51706754,27.23524561,65.42612770,0.14703698,-0.42758246,2.04923536

>  <Name>
ligand

>  <RI>
0

>  <Rbt.Current_Directory>
/home/itssahil/PROJECTS/Mol_Feturizer/Test_systems_manuscript/rnas/2g5k

>  <Rbt.Executable>
rbdock ($Id: //depot/dev/client3/rdock/2013.1/src/exe/rbdock.cxx#4 $)

>  <Rbt.Library>
libRbt.so (2013.1, Build901 2013/11/27)

>  <Rbt.Parameter_File>
/export/apps/rDock/src/rDock_2013.1_src/data/scripts/dock_solv.prm

>  <Rbt.Receptor>
prm/pocket_docking_3.prm

>  <SCORE>
-8.69441

>  <SCORE.INTER>
-4.59325

>  <SCORE.INTER.CONST>
1

>  <SCORE.INTER.POLAR>
0

>  <SCORE.INTER.ROT>
6

>  <SCORE.INTER.SOLV>
24.3501

>  <SCORE.INTER.VDW>
-18.7789

>  <SCORE.INTER.norm>
-0.124142

>  <SCORE.INTRA>
-4.10115

>  <SCORE.INTRA.DIHEDRAL>
-11.0225

>  <SCORE.INTRA.DIHEDRAL.0>
11.3972

>  <SCORE.INTRA.POLAR>
0

>  <SCORE.INTRA.POLAR.0>
0

>  <SCORE.INTRA.REPUL>
0

>  <SCORE.INTRA.REPUL.0>
0

>  <SCORE.INTRA.SOLV>
0.0142667

>  <SCORE.INTRA.SOLV.lig_0>
-92.3891

>  <SCORE.INTRA.VDW>
1.40295

>  <SCORE.INTRA.VDW.0>
-2.90606

>  <SCORE.INTRA.norm>
-0.110842

>  <SCORE.RESTR>
0

>  <SCORE.RESTR.CAVITY>
0

>  <SCORE.RESTR.norm>
0

>  <SCORE.SYSTEM>
0

>  <SCORE.SYSTEM.CONST>
0

>  <SCORE.SYSTEM.DIHEDRAL>
0

>  <SCORE.SYSTEM.SOLV>
0

>  <SCORE.SYSTEM.norm>
0

>  <SCORE.heavy>
37

>  <SCORE.norm>
-0.234984

>  <RMSD>
2.463

$$$$
ligand
 OpenBabel02271912133D
libRbt.so/2013.1/901 2013/11/27
 37 40  0  0  0  0  0  0  0  0999 V2000
   -0.5209   26.9078   68.2849 C   0  0  1  0  0  0  0  0  0  0  0  0
   -1.6201   26.3841   69.2523 C   0  0  1  0  0  0  0  0  0  0  0  0
   -3.0305   26.8232   68.8148 C   0  0  0  0  0  0  0  0  0  0  0  0
   -3.0679   28.3803   68.7183 C   0  0  1  0  0  0  0  0  0  0  0  0
   -1.9950   28.8955   67.7048 C   0  0  1  0  0  0  0  0  0  0  0  0
   -2.0496   30.4877   67.6236 C   0  0  1  0  0  0  0  0  0  0  0  0
   -3.4746   30.9220   67.1713 C   0  0  1  0  0  0  0  0  0  0  0  0
   -4.5028   30.3537   68.1952 C   0  0  2  0  0  0  0  0  0  0  0  0
   -3.5610   33.0870   65.7515 C   0  0  0  0  0  0  0  0  0  0  0  0
   -1.5512   24.9123   69.3710 N   0  0  0  0  0  0  0  0  0  0  0  0
   -3.5699   32.4280   67.0964 N   0  0  0  0  0  0  0  0  0  0  0  0
   -0.5799   26.2799   66.9893 O   0  0  0  0  0  0  0  0  0  0  0  0
   -0.6688   28.3814   68.1598 O   0  0  0  0  0  0  0  0  0  0  0  0
   -4.4130   28.8911   68.2949 O   0  0  0  0  0  0  0  0  0  0  0  0
   -1.8017   31.0424   68.9089 O   0  0  0  0  0  0  0  0  0  0  0  0
   -5.8249   30.7114   67.8089 O   0  0  0  0  0  0  0  0  0  0  0  0
   -6.2667   30.0900   66.5769 C   0  0  2  0  0  0  0  0  0  0  0  0
   -7.5904   30.6871   66.0435 C   0  0  1  0  0  0  0  0  0  0  0  0
   -8.7759   30.3641   67.0093 C   0  0  2  0  0  0  0  0  0  0  0  0
   -8.9231   28.8603   67.1222 C   0  0  1  0  0  0  0  0  0  0  0  0
   -7.5987   28.2644   67.6865 C   0  0  1  0  0  0  0  0  0  0  0  0
   -7.6578   26.7431   67.8102 C   0  0  0  0  0  0  0  0  0  0  0  0
  -10.0607   28.5455   68.0199 N   0  0  0  0  0  0  0  0  0  0  0  0
   -6.4642   28.6237   66.7809 O   0  0  0  0  0  0  0  0  0  0  0  0
   -7.3869   32.1080   65.8772 O   0  0  0  0  0  0  0  0  0  0  0  0
   -9.9893   30.9116   66.4887 O   0  0  0  0  0  0  0  0  0  0  0  0
   -8.5099   26.3957   68.8745 O   0  0  0  0  0  0  0  0  0  0  0  0
    0.6436   26.0187   66.1380 C   0  0  1  0  0  0  0  0  0  0  0  0
    1.4735   24.8899   66.8088 C   0  0  1  0  0  0  0  0  0  0  0  0
    2.7468   24.5912   65.9655 C   0  0  2  0  0  0  0  0  0  0  0  0
    2.3220   24.1416   64.5458 C   0  0  1  0  0  0  0  0  0  0  0  0
    1.4873   25.2694   63.8396 C   0  0  0  0  0  0  0  0  0  0  0  0
    0.2400   25.5593   64.7014 C   0  0  2  0  0  0  0  0  0  0  0  0
    3.5278   23.8472   63.7348 N   0  0  0  0  0  0  0  0  0  0  0  0
   -0.5329   26.6138   64.0362 N   0  0  0  0  0  0  0  0  0  0  0  0
    1.8689   25.3067   68.1344 O   0  0  0  0  0  0  0  0  0  0  0  0
    3.5027   23.5440   66.6135 O   0  0  0  0  0  0  0  0  0  0  0  0
  1  2  1  0  0  0  0
  1 12  1  6  0  0  0
  1 13  1  0  0  0  0
  2  3  1  0  0  0  0
  2 10  1  6  0  0  0
  4  3  1  6  0  0  0
  4  5  1  0  0  0  0
  4 14  1  0  0  0  0
  5  6  1  0  0  0  0
  5 13  1  1  0  0  0
  6  7  1  0  0  0  0
  6 15  1  1  0  0  0
  7  8  1  0  0  0  0
  7 11  1  1  0  0  0
  8 14  1  0  0  0  0
  8 16  1  6  0  0  0
  9 11  1  0  0  0  0
 17 16  1  1  0  0  0
 17 18  1  0  0  0  0
 17 24  1  0  0  0  0
 18 19  1  0  0  0  0
 18 25  1  1  0  0  0
 19 20  1  0  0  0  0
 19 26  1  6  0  0  0
 20 21  1  0  0  0  0
 20 23  1  1  0  0  0
 21 22  1  6  0  0  0
 21 24  1  0  0  0  0
 22 27  1  0  0  0  0
 28 12  1  1  0  0  0
 28 29  1  0  0  0  0
 28 33  1  0  0  0  0
 29 30  1  0  0  0  0
 29 36  1  1  0  0  0
 30 31  1  0  0  0  0
 30 37  1  1  0  0  0
 31 32  1  0  0  0  0
 31 34  1  6  0  0  0
 32 33  1  0  0  0  0
 33 35  1  6  0  0  0
M  END
>  <CHROM.1>
-147.72111481,104.77190702,66.62951994,70.44461556,-169.44060056,-71.92420520
-3.11738150,28.03312807,67.07122064,0.47068244,-0.17745942,3.03841429

>  <Name>
ligand

>  <RI>
0

>  <Rbt.Current_Directory>
/home/itssahil/PROJECTS/Mol_Feturizer/Test_systems_manuscript/rnas/2g5k

>  <Rbt.Executable>
rbdock ($Id: //depot/dev/client3/rdock/2013.1/src/exe/rbdock.cxx#4 $)

>  <Rbt.Library>
libRbt.so (2013.1, Build901 2013/11/27)

>  <Rbt.Parameter_File>
/export/apps/rDock/src/rDock_2013.1_src/data/scripts/dock_solv.prm

>  <Rbt.Receptor>
prm/pocket_docking_3.prm

>  <SCORE>
-8.60934

>  <SCORE.INTER>
-7.12189

>  <SCORE.INTER.CONST>
1

>  <SCORE.INTER.POLAR>
0

>  <SCORE.INTER.ROT>
6

>  <SCORE.INTER.SOLV>
19.5034

>  <SCORE.INTER.VDW>
-18.8491

>  <SCORE.INTER.norm>
-0.192483

>  <SCORE.INTRA>
-1.59855

>  <SCORE.INTRA.DIHEDRAL>
-4.55168

>  <SCORE.INTRA.DIHEDRAL.0>
11.3972

>  <SCORE.INTRA.POLAR>
0

>  <SCORE.INTRA.POLAR.0>
0

>  <SCORE.INTRA.REPUL>
0

>  <SCORE.INTRA.REPUL.0>
0

>  <SCORE.INTRA.SOLV>
0.799207

>  <SCORE.INTRA.SOLV.lig_0>
-92.3891

>  <SCORE.INTRA.VDW>
0.277687

>  <SCORE.INTRA.VDW.0>
-2.90606

>  <SCORE.INTRA.norm>
-0.043204

>  <SCORE.RESTR>
0.111093

>  <SCORE.RESTR.CAVITY>
0.111093

>  <SCORE.RESTR.norm>
0.0030025

>  <SCORE.SYSTEM>
0

>  <SCORE.SYSTEM.CONST>
0

>  <SCORE.SYSTEM.DIHEDRAL>
0

>  <SCORE.SYSTEM.SOLV>
0

>  <SCORE.SYSTEM.norm>
0

>  <SCORE.heavy>
37

>  <SCORE.norm>
-0.232685

>  <RMSD>
2.481

$$$$
ligand
 OpenBabel02271912133D
libRbt.so/2013.1/901 2013/11/27
 37 40  0  0  0  0  0  0  0  0999 V2000
   -1.1687   27.3796   69.2369 C   0  0  1  0  0  0  0  0  0  0  0  0
   -2.2721   26.3272   69.5430 C   0  0  1  0  0  0  0  0  0  0  0  0
   -3.2865   26.2030   68.3903 C   0  0  0  0  0  0  0  0  0  0  0  0
   -3.9139   27.6053   68.1158 C   0  0  1  0  0  0  0  0  0  0  0  0
   -2.8031   28.6454   67.7579 C   0  0  1  0  0  0  0  0  0  0  0  0
   -3.4658   30.0703   67.4835 C   0  0  1  0  0  0  0  0  0  0  0  0
   -4.4816   29.9377   66.3112 C   0  0  1  0  0  0  0  0  0  0  0  0
   -5.5423   28.8666   66.7071 C   0  0  2  0  0  0  0  0  0  0  0  0
   -4.8785   31.9432   64.7204 C   0  0  0  0  0  0  0  0  0  0  0  0
   -1.6681   25.0118   69.8432 N   0  0  0  0  0  0  0  0  0  0  0  0
   -5.1422   31.2672   66.0306 N   0  0  0  0  0  0  0  0  0  0  0  0
   -0.2845   26.9617   68.1788 O   0  0  0  0  0  0  0  0  0  0  0  0
   -1.8295   28.6651   68.8900 O   0  0  0  0  0  0  0  0  0  0  0  0
   -4.9167   27.5707   67.0010 O   0  0  0  0  0  0  0  0  0  0  0  0
   -4.1729   30.5010   68.6392 O   0  0  0  0  0  0  0  0  0  0  0  0
   -6.4830   28.6984   65.6527 O   0  0  0  0  0  0  0  0  0  0  0  0
   -7.5426   27.7572   65.9537 C   0  0  2  0  0  0  0  0  0  0  0  0
   -8.3883   27.3870   64.7123 C   0  0  1  0  0  0  0  0  0  0  0  0
   -9.1936   28.6237   64.1983 C   0  0  2  0  0  0  0  0  0  0  0  0
  -10.1175   29.1020   65.2999 C   0  0  1  0  0  0  0  0  0  0  0  0
   -9.2613   29.5012   66.5390 C   0  0  1  0  0  0  0  0  0  0  0  0
  -10.1239   29.9755   67.7069 C   0  0  0  0  0  0  0  0  0  0  0  0
  -10.9018   30.2622   64.8123 N   0  0  0  0  0  0  0  0  0  0  0  0
   -8.4569   28.3240   66.9897 O   0  0  0  0  0  0  0  0  0  0  0  0
   -7.4835   26.8650   63.7137 O   0  0  0  0  0  0  0  0  0  0  0  0
   -9.9783   28.2542   63.0621 O   0  0  0  0  0  0  0  0  0  0  0  0
  -10.8756   31.0950   67.3055 O   0  0  0  0  0  0  0  0  0  0  0  0
    1.1823   27.3308   68.1298 C   0  0  1  0  0  0  0  0  0  0  0  0
    1.7580   26.8645   66.7646 C   0  0  1  0  0  0  0  0  0  0  0  0
    3.2699   27.2222   66.6734 C   0  0  2  0  0  0  0  0  0  0  0  0
    3.4377   28.7561   66.8042 C   0  0  1  0  0  0  0  0  0  0  0  0
    2.8709   29.2549   68.1815 C   0  0  0  0  0  0  0  0  0  0  0  0
    1.3767   28.8749   68.2556 C   0  0  2  0  0  0  0  0  0  0  0  0
    4.8747   29.1097   66.7115 N   0  0  0  0  0  0  0  0  0  0  0  0
    0.8555   29.3427   69.5445 N   0  0  0  0  0  0  0  0  0  0  0  0
    1.6003   25.4338   66.6398 O   0  0  0  0  0  0  0  0  0  0  0  0
    3.7814   26.7727   65.3989 O   0  0  0  0  0  0  0  0  0  0  0  0
  1  2  1  0  0  0  0
  1 12  1  6  0  0  0
  1 13  1  0  0  0  0
  2  3  1  0  0  0  0
  2 10  1  6  0  0  0
  4  3  1  6  0  0  0
  4  5  1  0  0  0  0
  4 14  1  0  0  0  0
  5  6  1  0  0  0  0
  5 13  1  1  0  0  0
  6  7  1  0  0  0  0
  6 15  1  1  0  0  0
  7  8  1  0  0  0  0
  7 11  1  1  0  0  0
  8 14  1  0  0  0  0
  8 16  1  6  0  0  0
  9 11  1  0  0  0  0
 17 16  1  6  0  0  0
 17 18  1  0  0  0  0
 17 24  1  0  0  0  0
 18 19  1  0  0  0  0
 18 25  1  6  0  0  0
 19 20  1  0  0  0  0
 19 26  1  6  0  0  0
 20 21  1  0  0  0  0
 20 23  1  6  0  0  0
 21 22  1  1  0  0  0
 21 24  1  0  0  0  0
 22 27  1  0  0  0  0
 28 12  1  6  0  0  0
 28 29  1  0  0  0  0
 28 33  1  0  0  0  0
 29 30  1  0  0  0  0
 29 36  1  1  0  0  0
 30 31  1  0  0  0  0
 30 37  1  6  0  0  0
 31 32  1  0  0  0  0
 31 34  1  1  0  0  0
 32 33  1  0  0  0  0
 33 35  1  1  0  0  0
M  END
>  <CHROM.1>
-147.13639815,114.20528545,-177.63642140,-172.68837660,-168.95821551,-59.66621417
-3.65762801,28.42510631,66.89279445,-0.03648253,-0.22043198,0.49292194

>  <Name>
ligand

>  <RI>
0

>  <Rbt.Current_Directory>
/home/itssahil/PROJECTS/Mol_Feturizer/Test_systems_manuscript/rnas/2g5k

>  <Rbt.Executable>
rbdock ($Id: //depot/dev/client3/rdock/2013.1/src/exe/rbdock.cxx#4 $)

>  <Rbt.Library>
libRbt.so (2013.1, Build901 2013/11/27)

>  <Rbt.Parameter_File>
/export/apps/rDock/src/rDock_2013.1_src/data/scripts/dock_solv.prm

>  <Rbt.Receptor>
prm/pocket_docking_5.prm

>  <SCORE>
-5.96541

>  <SCORE.INTER>
-4.53342

>  <SCORE.INTER.CONST>
1

>  <SCORE.INTER.POLAR>
0

>  <SCORE.INTER.ROT>
6

>  <SCORE.INTER.SOLV>
17.8707

>  <SCORE.INTER.VDW>
-16.5792

>  <SCORE.INTER.norm>
-0.122525

>  <SCORE.INTRA>
-1.44165

>  <SCORE.INTRA.DIHEDRAL>
-5.18387

>  <SCORE.INTRA.DIHEDRAL.0>
11.3972

>  <SCORE.INTRA.POLAR>
0

>  <SCORE.INTRA.POLAR.0>
0

>  <SCORE.INTRA.REPUL>
0

>  <SCORE.INTRA.REPUL.0>
0

>  <SCORE.INTRA.SOLV>
1.17663

>  <SCORE.INTRA.SOLV.lig_0>
-92.3891

>  <SCORE.INTRA.VDW>
0.561969

>  <SCORE.INTRA.VDW.0>
-2.90606

>  <SCORE.INTRA.norm>
-0.0389635

>  <SCORE.RESTR>
0.00965488

>  <SCORE.RESTR.CAVITY>
0.00965488

>  <SCORE.RESTR.norm>
0.000260943

>  <SCORE.SYSTEM>
0

>  <SCORE.SYSTEM.CONST>
0

>  <SCORE.SYSTEM.DIHEDRAL>
0

>  <SCORE.SYSTEM.SOLV>
0

>  <SCORE.SYSTEM.norm>
0

>  <SCORE.heavy>
37

>  <SCORE.norm>
-0.161227

>  <RMSD>
2.573

$$$$
ligand
 OpenBabel02271912133D
libRbt.so/2013.1/901 2013/11/27
 37 40  0  0  0  0  0  0  0  0999 V2000
   -0.3790   26.4804   68.1020 C   0  0  1  0  0  0  0  0  0  0  0  0
   -1.4292   25.8389   69.0529 C   0  0  1  0  0  0  0  0  0  0  0  0
   -2.8702   26.2138   68.6578 C   0  0  0  0  0  0  0  0  0  0  0  0
   -3.0032   27.7687   68.6474 C   0  0  1  0  0  0  0  0  0  0  0  0
   -1.9795   28.4026   67.6505 C   0  0  1  0  0  0  0  0  0  0  0  0
   -2.1315   29.9905   67.6575 C   0  0  1  0  0  0  0  0  0  0  0  0
   -3.5871   30.3606   67.2476 C   0  0  1  0  0  0  0  0  0  0  0  0
   -4.5628   29.6760   68.2516 C   0  0  2  0  0  0  0  0  0  0  0  0
   -3.3369   32.6504   66.0623 C   0  0  0  0  0  0  0  0  0  0  0  0
   -1.2696   24.3697   69.0897 N   0  0  0  0  0  0  0  0  0  0  0  0
   -3.7745   31.8598   67.2567 N   0  0  0  0  0  0  0  0  0  0  0  0
   -0.4205   25.9210   66.7747 O   0  0  0  0  0  0  0  0  0  0  0  0
   -0.6177   27.9468   68.0600 O   0  0  0  0  0  0  0  0  0  0  0  0
   -4.3833   28.2183   68.2696 O   0  0  0  0  0  0  0  0  0  0  0  0
   -1.8974   30.4891   68.9682 O   0  0  0  0  0  0  0  0  0  0  0  0
   -5.9100   29.9724   67.9020 O   0  0  0  0  0  0  0  0  0  0  0  0
   -6.2941   29.5021   66.5865 C   0  0  2  0  0  0  0  0  0  0  0  0
   -7.7740   29.8015   66.2495 C   0  0  1  0  0  0  0  0  0  0  0  0
   -8.7320   28.9843   67.1751 C   0  0  2  0  0  0  0  0  0  0  0  0
   -8.4693   27.5058   66.9729 C   0  0  1  0  0  0  0  0  0  0  0  0
   -6.9859   27.2018   67.3403 C   0  0  1  0  0  0  0  0  0  0  0  0
   -6.6330   25.7291   67.1411 C   0  0  0  0  0  0  0  0  0  0  0  0
   -9.3902   26.7227   67.8317 N   0  0  0  0  0  0  0  0  0  0  0  0
   -6.0804   28.0276   66.4834 O   0  0  0  0  0  0  0  0  0  0  0  0
   -7.9663   31.2277   66.3795 O   0  0  0  0  0  0  0  0  0  0  0  0
  -10.0918   29.2649   66.8353 O   0  0  0  0  0  0  0  0  0  0  0  0
   -6.7706   25.3976   65.7808 O   0  0  0  0  0  0  0  0  0  0  0  0
    0.8068   25.7601   65.9042 C   0  0  1  0  0  0  0  0  0  0  0  0
    1.7127   24.6669   66.5343 C   0  0  1  0  0  0  0  0  0  0  0  0
    2.9921   24.4714   65.6701 C   0  0  2  0  0  0  0  0  0  0  0  0
    2.5791   24.0358   64.2425 C   0  0  1  0  0  0  0  0  0  0  0  0
    1.6680   25.1286   63.5770 C   0  0  0  0  0  0  0  0  0  0  0  0
    0.4154   25.3164   64.4592 C   0  0  2  0  0  0  0  0  0  0  0  0
    3.7912   23.8395   63.4114 N   0  0  0  0  0  0  0  0  0  0  0  0
   -0.4291   26.3388   63.8320 N   0  0  0  0  0  0  0  0  0  0  0  0
    2.0972   25.0707   67.8671 O   0  0  0  0  0  0  0  0  0  0  0  0
    3.8189   23.4557   66.2805 O   0  0  0  0  0  0  0  0  0  0  0  0
  1  2  1  0  0  0  0
  1 12  1  6  0  0  0
  1 13  1  0  0  0  0
  2  3  1  0  0  0  0
  2 10  1  6  0  0  0
  4  3  1  6  0  0  0
  4  5  1  0  0  0  0
  4 14  1  0  0  0  0
  5  6  1  0  0  0  0
  5 13  1  1  0  0  0
  6  7  1  0  0  0  0
  6 15  1  1  0  0  0
  7  8  1  0  0  0  0
  7 11  1  1  0  0  0
  8 14  1  0  0  0  0
  8 16  1  6  0  0  0
  9 11  1  0  0  0  0
 17 16  1  1  0  0  0
 17 18  1  0  0  0  0
 17 24  1  0  0  0  0
 18 19  1  0  0  0  0
 18 25  1  1  0  0  0
 19 20  1  0  0  0  0
 19 26  1  6  0  0  0
 20 21  1  0  0  0  0
 20 23  1  1  0  0  0
 21 22  1  6  0  0  0
 21 24  1  0  0  0  0
 22 27  1  0  0  0  0
 28 12  1  1  0  0  0
 28 29  1  0  0  0  0
 28 33  1  0  0  0  0
 29 30  1  0  0  0  0
 29 36  1  1  0  0  0
 30 31  1  0  0  0  0
 30 37  1  1  0  0  0
 31 32  1  0  0  0  0
 31 34  1  6  0  0  0
 32 33  1  0  0  0  0
 33 35  1  6  0  0  0
M  END
>  <CHROM.1>
-146.65180216,82.52126175,61.03087556,68.61483803,178.33336244,62.76930356
-2.92918235,27.41867569,66.88229489,-0.45268215,0.03432754,0.22920692

>  <Name>
ligand

>  <RI>
0

>  <Rbt.Current_Directory>
/home/itssahil/PROJECTS/Mol_Feturizer/Test_systems_manuscript/rnas/2g5k

>  <Rbt.Executable>
rbdock ($Id: //depot/dev/client3/rdock/2013.1/src/exe/rbdock.cxx#4 $)

>  <Rbt.Library>
libRbt.so (2013.1, Build901 2013/11/27)

>  <Rbt.Parameter_File>
/export/apps/rDock/src/rDock_2013.1_src/data/scripts/dock_solv.prm

>  <Rbt.Receptor>
prm/pocket_docking_3.prm

>  <SCORE>
-9.91305

>  <SCORE.INTER>
-7.72262

>  <SCORE.INTER.CONST>
1

>  <SCORE.INTER.POLAR>
0

>  <SCORE.INTER.ROT>
6

>  <SCORE.INTER.SOLV>
19.9444

>  <SCORE.INTER.VDW>
-19.3966

>  <SCORE.INTER.norm>
-0.208719

>  <SCORE.INTRA>
-2.19043

>  <SCORE.INTRA.DIHEDRAL>
-6.36077

>  <SCORE.INTRA.DIHEDRAL.0>
11.3972

>  <SCORE.INTRA.POLAR>
0

>  <SCORE.INTRA.POLAR.0>
0

>  <SCORE.INTRA.REPUL>
0

>  <SCORE.INTRA.REPUL.0>
0

>  <SCORE.INTRA.SOLV>
0.400912

>  <SCORE.INTRA.SOLV.lig_0>
-92.3891

>  <SCORE.INTRA.VDW>
0.7895

>  <SCORE.INTRA.VDW.0>
-2.90606

>  <SCORE.INTRA.norm>
-0.0592007

>  <SCORE.RESTR>
0

>  <SCORE.RESTR.CAVITY>
0

>  <SCORE.RESTR.norm>
0

>  <SCORE.SYSTEM>
0

>  <SCORE.SYSTEM.CONST>
0

>  <SCORE.SYSTEM.DIHEDRAL>
0

>  <SCORE.SYSTEM.SOLV>
0

>  <SCORE.SYSTEM.norm>
0

>  <SCORE.heavy>
37

>  <SCORE.norm>
-0.26792

>  <RMSD>
2.666

$$$$
ligand
 OpenBabel02271912133D
libRbt.so/2013.1/901 2013/11/27
 37 40  0  0  0  0  0  0  0  0999 V2000
   -0.6822   28.0906   69.2677 C   0  0  1  0  0  0  0  0  0  0  0  0
   -1.9386   27.5199   69.9849 C   0  0  1  0  0  0  0  0  0  0  0  0
   -3.2268   27.7690   69.1774 C   0  0  0  0  0  0  0  0  0  0  0  0
   -3.3765   29.3016   68.9248 C   0  0  1  0  0  0  0  0  0  0  0  0
   -2.1333   29.8578   68.1576 C   0  0  1  0  0  0  0  0  0  0  0  0
   -2.3066   31.4244   67.9122 C   0  0  1  0  0  0  0  0  0  0  0  0
   -3.6047   31.6660   67.0873 C   0  0  1  0  0  0  0  0  0  0  0  0
   -4.8029   31.0630   67.8806 C   0  0  2  0  0  0  0  0  0  0  0  0
   -3.1056   33.7938   65.6967 C   0  0  0  0  0  0  0  0  0  0  0  0
   -1.7716   26.0768   70.2584 N   0  0  0  0  0  0  0  0  0  0  0  0
   -3.8113   33.1432   66.8464 N   0  0  0  0  0  0  0  0  0  0  0  0
   -0.3576   27.3690   68.0635 O   0  0  0  0  0  0  0  0  0  0  0  0
   -0.9240   29.5264   68.9687 O   0  0  0  0  0  0  0  0  0  0  0  0
   -4.6118   29.6299   68.1399 O   0  0  0  0  0  0  0  0  0  0  0  0
   -2.4403   32.0935   69.1594 O   0  0  0  0  0  0  0  0  0  0  0  0
   -6.0116   31.2447   67.1518 O   0  0  0  0  0  0  0  0  0  0  0  0
   -7.1893   30.7430   67.8305 C   0  0  2  0  0  0  0  0  0  0  0  0
   -7.7489   29.4517   67.1879 C   0  0  1  0  0  0  0  0  0  0  0  0
   -8.3016   29.7377   65.7543 C   0  0  2  0  0  0  0  0  0  0  0  0
   -9.4134   30.7627   65.8508 C   0  0  1  0  0  0  0  0  0  0  0  0
   -8.8404   32.0718   66.4719 C   0  0  1  0  0  0  0  0  0  0  0  0
   -9.9087   33.1529   66.6244 C   0  0  0  0  0  0  0  0  0  0  0  0
   -9.9584   31.0231   64.4965 N   0  0  0  0  0  0  0  0  0  0  0  0
   -8.2686   31.7751   67.8214 O   0  0  0  0  0  0  0  0  0  0  0  0
   -6.6837   28.4753   67.1830 O   0  0  0  0  0  0  0  0  0  0  0  0
   -8.8269   28.5352   65.1876 O   0  0  0  0  0  0  0  0  0  0  0  0
  -10.9308   32.6813   67.4683 O   0  0  0  0  0  0  0  0  0  0  0  0
    1.0529   27.2356   67.5317 C   0  0  1  0  0  0  0  0  0  0  0  0
    1.1025   26.0079   66.5814 C   0  0  1  0  0  0  0  0  0  0  0  0
    2.5406   25.8312   66.0133 C   0  0  2  0  0  0  0  0  0  0  0  0
    2.9361   27.1053   65.2270 C   0  0  1  0  0  0  0  0  0  0  0  0
    2.9029   28.3632   66.1672 C   0  0  0  0  0  0  0  0  0  0  0  0
    1.4731   28.5081   66.7305 C   0  0  2  0  0  0  0  0  0  0  0  0
    4.3028   26.9456   64.6746 N   0  0  0  0  0  0  0  0  0  0  0  0
    1.4508   29.6834   67.6079 N   0  0  0  0  0  0  0  0  0  0  0  0
    0.7316   24.8184   67.3129 O   0  0  0  0  0  0  0  0  0  0  0  0
    2.5607   24.6809   65.1392 O   0  0  0  0  0  0  0  0  0  0  0  0
  1  2  1  0  0  0  0
  1 12  1  6  0  0  0
  1 13  1  0  0  0  0
  2  3  1  0  0  0  0
  2 10  1  6  0  0  0
  4  3  1  6  0  0  0
  4  5  1  0  0  0  0
  4 14  1  0  0  0  0
  5  6  1  0  0  0  0
  5 13  1  1  0  0  0
  6  7  1  0  0  0  0
  6 15  1  1  0  0  0
  7  8  1  0  0  0  0
  7 11  1  1  0  0  0
  8 14  1  0  0  0  0
  8 16  1  6  0  0  0
  9 11  1  0  0  0  0
 17 16  1  6  0  0  0
 17 18  1  0  0  0  0
 17 24  1  0  0  0  0
 18 19  1  0  0  0  0
 18 25  1  6  0  0  0
 19 20  1  0  0  0  0
 19 26  1  1  0  0  0
 20 21  1  0  0  0  0
 20 23  1  6  0  0  0
 21 22  1  1  0  0  0
 21 24  1  0  0  0  0
 22 27  1  0  0  0  0
 28 12  1  6  0  0  0
 28 29  1  0  0  0  0
 28 33  1  0  0  0  0
 29 30  1  0  0  0  0
 29 36  1  1  0  0  0
 30 31  1  0  0  0  0
 30 37  1  6  0  0  0
 31 32  1  0  0  0  0
 31 34  1  1  0  0  0
 32 33  1  0  0  0  0
 33 35  1  1  0  0  0
M  END
>  <CHROM.1>
-150.51577880,83.85989871,-178.52223537,159.12633709,-107.66768710,60.19455078
-3.29193468,29.38822078,67.23284312,-0.40616697,-0.05795795,0.10661277

>  <Name>
ligand

>  <RI>
0

>  <Rbt.Current_Directory>
/home/itssahil/PROJECTS/Mol_Feturizer/Test_systems_manuscript/rnas/2g5k

>  <Rbt.Executable>
rbdock ($Id: //depot/dev/client3/rdock/2013.1/src/exe/rbdock.cxx#4 $)

>  <Rbt.Library>
libRbt.so (2013.1, Build901 2013/11/27)

>  <Rbt.Parameter_File>
/export/apps/rDock/src/rDock_2013.1_src/data/scripts/dock_solv.prm

>  <Rbt.Receptor>
prm/pocket_docking_4.prm

>  <SCORE>
-4.57959

>  <SCORE.INTER>
-5.91964

>  <SCORE.INTER.CONST>
1

>  <SCORE.INTER.POLAR>
0

>  <SCORE.INTER.ROT>
6

>  <SCORE.INTER.SOLV>
15.6772

>  <SCORE.INTER.VDW>
-16.7722

>  <SCORE.INTER.norm>
-0.15999

>  <SCORE.INTRA>
1.34005

>  <SCORE.INTRA.DIHEDRAL>
0.969807

>  <SCORE.INTRA.DIHEDRAL.0>
11.3972

>  <SCORE.INTRA.POLAR>
0

>  <SCORE.INTRA.POLAR.0>
0

>  <SCORE.INTRA.REPUL>
0

>  <SCORE.INTRA.REPUL.0>
0

>  <SCORE.INTRA.SOLV>
1.68702

>  <SCORE.INTRA.SOLV.lig_0>
-92.3891

>  <SCORE.INTRA.VDW>
0.0116315

>  <SCORE.INTRA.VDW.0>
-2.90606

>  <SCORE.INTRA.norm>
0.0362175

>  <SCORE.RESTR>
0

>  <SCORE.RESTR.CAVITY>
0

>  <SCORE.RESTR.norm>
0

>  <SCORE.SYSTEM>
0

>  <SCORE.SYSTEM.CONST>
0

>  <SCORE.SYSTEM.DIHEDRAL>
0

>  <SCORE.SYSTEM.SOLV>
0

>  <SCORE.SYSTEM.norm>
0

>  <SCORE.heavy>
37

>  <SCORE.norm>
-0.123773

>  <RMSD>
2.678

$$$$
ligand
 OpenBabel02271912133D
libRbt.so/2013.1/901 2013/11/27
 37 40  0  0  0  0  0  0  0  0999 V2000
   -2.7282   27.6615   67.0605 C   0  0  1  0  0  0  0  0  0  0  0  0
   -3.7298   26.4897   67.2662 C   0  0  1  0  0  0  0  0  0  0  0  0
   -4.8140   26.4588   66.1722 C   0  0  0  0  0  0  0  0  0  0  0  0
   -5.5565   27.8313   66.1574 C   0  0  1  0  0  0  0  0  0  0  0  0
   -4.5503   28.9993   65.8982 C   0  0  1  0  0  0  0  0  0  0  0  0
   -5.3295   30.3912   65.8892 C   0  0  1  0  0  0  0  0  0  0  0  0
   -6.4159   30.3549   64.7746 C   0  0  1  0  0  0  0  0  0  0  0  0
   -7.3672   29.1547   65.0634 C   0  0  2  0  0  0  0  0  0  0  0  0
   -6.8489   32.6710   63.6983 C   0  0  0  0  0  0  0  0  0  0  0  0
   -3.0149   25.1971   67.3213 N   0  0  0  0  0  0  0  0  0  0  0  0
   -7.1868   31.6540   64.7445 N   0  0  0  0  0  0  0  0  0  0  0  0
   -1.8958   27.4796   65.8984 O   0  0  0  0  0  0  0  0  0  0  0  0
   -3.5009   28.9271   66.9582 O   0  0  0  0  0  0  0  0  0  0  0  0
   -6.6326   27.8839   65.1139 O   0  0  0  0  0  0  0  0  0  0  0  0
   -5.9794   30.5853   67.1387 O   0  0  0  0  0  0  0  0  0  0  0  0
   -8.3678   29.0715   64.0550 O   0  0  0  0  0  0  0  0  0  0  0  0
   -9.4080   28.1029   64.3362 C   0  0  2  0  0  0  0  0  0  0  0  0
  -10.5407   28.1144   63.2825 C   0  0  1  0  0  0  0  0  0  0  0  0
  -11.3334   29.4604   63.3320 C   0  0  2  0  0  0  0  0  0  0  0  0
  -11.9402   29.6239   64.7107 C   0  0  1  0  0  0  0  0  0  0  0  0
  -10.7953   29.6407   65.7674 C   0  0  1  0  0  0  0  0  0  0  0  0
  -11.3280   29.7806   67.1921 C   0  0  0  0  0  0  0  0  0  0  0  0
  -12.7129   30.8887   64.7589 N   0  0  0  0  0  0  0  0  0  0  0  0
  -10.0127   28.3698   65.6754 O   0  0  0  0  0  0  0  0  0  0  0  0
   -9.9329   27.8801   61.9927 O   0  0  0  0  0  0  0  0  0  0  0  0
  -12.3831   29.4416   62.3620 O   0  0  0  0  0  0  0  0  0  0  0  0
  -10.2470   29.8097   68.0922 O   0  0  0  0  0  0  0  0  0  0  0  0
   -0.8864   26.3597   65.7688 C   0  0  1  0  0  0  0  0  0  0  0  0
   -0.1741   26.5006   64.3956 C   0  0  1  0  0  0  0  0  0  0  0  0
    0.8730   25.3629   64.2189 C   0  0  2  0  0  0  0  0  0  0  0  0
    1.9225   25.4579   65.3537 C   0  0  1  0  0  0  0  0  0  0  0  0
    1.2301   25.3096   66.7558 C   0  0  0  0  0  0  0  0  0  0  0  0
    0.1860   26.4372   66.9010 C   0  0  2  0  0  0  0  0  0  0  0  0
    2.9302   24.3824   65.1915 N   0  0  0  0  0  0  0  0  0  0  0  0
   -0.4567   26.2910   68.2115 N   0  0  0  0  0  0  0  0  0  0  0  0
   -1.1521   26.4145   63.3357 O   0  0  0  0  0  0  0  0  0  0  0  0
    1.5154   25.5133   62.9334 O   0  0  0  0  0  0  0  0  0  0  0  0
  1  2  1  0  0  0  0
  1 12  1  6  0  0  0
  1 13  1  0  0  0  0
  2  3  1  0  0  0  0
  2 10  1  6  0  0  0
  4  3  1  6  0  0  0
  4  5  1  0  0  0  0
  4 14  1  0  0  0  0
  5  6  1  0  0  0  0
  5 13  1  1  0  0  0
  6  7  1  0  0  0  0
  6 15  1  1  0  0  0
  7  8  1  0  0  0  0
  7 11  1  1  0  0  0
  8 14  1  0  0  0  0
  8 16  1  6  0  0  0
  9 11  1  0  0  0  0
 17 16  1  6  0  0  0
 17 18  1  0  0  0  0
 17 24  1  0  0  0  0
 18 19  1  0  0  0  0
 18 25  1  6  0  0  0
 19 20  1  0  0  0  0
 19 26  1  6  0  0  0
 20 21  1  0  0  0  0
 20 23  1  6  0  0  0
 21 22  1  1  0  0  0
 21 24  1  0  0  0  0
 22 27  1  0  0  0  0
 28 12  1  1  0  0  0
 28 29  1  0  0  0  0
 28 33  1  0  0  0  0
 29 30  1  0  0  0  0
 29 36  1  6  0  0  0
 30 31  1  0  0  0  0
 30 37  1  6  0  0  0
 31 32  1  0  0  0  0
 31 34  1  6  0  0  0
 32 33  1  0  0  0  0
 33 35  1  1  0  0  0
M  END
>  <CHROM.1>
-64.97829050,101.09166484,-171.86790659,-179.31290073,175.33988306,-179.10880140
-5.41230909,28.12756249,65.32366188,-0.01839734,-0.34342770,1.27540235

>  <Name>
ligand

>  <RI>
0

>  <Rbt.Current_Directory>
/home/itssahil/PROJECTS/Mol_Feturizer/Test_systems_manuscript/rnas/2g5k

>  <Rbt.Executable>
rbdock ($Id: //depot/dev/client3/rdock/2013.1/src/exe/rbdock.cxx#4 $)

>  <Rbt.Library>
libRbt.so (2013.1, Build901 2013/11/27)

>  <Rbt.Parameter_File>
/export/apps/rDock/src/rDock_2013.1_src/data/scripts/dock_solv.prm

>  <Rbt.Receptor>
prm/pocket_docking_5.prm

>  <SCORE>
-5.8618

>  <SCORE.INTER>
-2.62939

>  <SCORE.INTER.CONST>
1

>  <SCORE.INTER.POLAR>
0

>  <SCORE.INTER.ROT>
6

>  <SCORE.INTER.SOLV>
13.585

>  <SCORE.INTER.VDW>
-13.8813

>  <SCORE.INTER.norm>
-0.0710645

>  <SCORE.INTRA>
-3.23241

>  <SCORE.INTRA.DIHEDRAL>
-9.87705

>  <SCORE.INTRA.DIHEDRAL.0>
11.3972

>  <SCORE.INTRA.POLAR>
0

>  <SCORE.INTRA.POLAR.0>
0

>  <SCORE.INTRA.REPUL>
0

>  <SCORE.INTRA.REPUL.0>
0

>  <SCORE.INTRA.SOLV>
3.17053

>  <SCORE.INTRA.SOLV.lig_0>
-92.3891

>  <SCORE.INTRA.VDW>
0.120849

>  <SCORE.INTRA.VDW.0>
-2.90606

>  <SCORE.INTRA.norm>
-0.0873625

>  <SCORE.RESTR>
0

>  <SCORE.RESTR.CAVITY>
0

>  <SCORE.RESTR.norm>
0

>  <SCORE.SYSTEM>
0

>  <SCORE.SYSTEM.CONST>
0

>  <SCORE.SYSTEM.DIHEDRAL>
0

>  <SCORE.SYSTEM.SOLV>
0

>  <SCORE.SYSTEM.norm>
0

>  <SCORE.heavy>
37

>  <SCORE.norm>
-0.158427

>  <RMSD>
2.732

$$$$
ligand
 OpenBabel02271912133D
libRbt.so/2013.1/901 2013/11/27
 37 40  0  0  0  0  0  0  0  0999 V2000
   -0.3901   26.4787   68.1074 C   0  0  1  0  0  0  0  0  0  0  0  0
   -1.4562   25.8157   69.0252 C   0  0  1  0  0  0  0  0  0  0  0  0
   -2.8901   26.2065   68.6194 C   0  0  0  0  0  0  0  0  0  0  0  0
   -3.0177   27.7615   68.6492 C   0  0  1  0  0  0  0  0  0  0  0  0
   -1.9775   28.4183   67.6848 C   0  0  1  0  0  0  0  0  0  0  0  0
   -2.1243   30.0061   67.7326 C   0  0  1  0  0  0  0  0  0  0  0  0
   -3.5725   30.3924   67.3117 C   0  0  1  0  0  0  0  0  0  0  0  0
   -4.5651   29.6845   68.2824 C   0  0  2  0  0  0  0  0  0  0  0  0
   -3.4157   32.6995   66.1441 C   0  0  0  0  0  0  0  0  0  0  0  0
   -1.3020   24.3455   69.0246 N   0  0  0  0  0  0  0  0  0  0  0  0
   -3.7550   31.8915   67.3586 N   0  0  0  0  0  0  0  0  0  0  0  0
   -0.4140   25.9556   66.7650 O   0  0  0  0  0  0  0  0  0  0  0  0
   -0.6233   27.9466   68.1016 O   0  0  0  0  0  0  0  0  0  0  0  0
   -4.3906   28.2263   68.2636 O   0  0  0  0  0  0  0  0  0  0  0  0
   -1.9077   30.4682   69.0595 O   0  0  0  0  0  0  0  0  0  0  0  0
   -5.9060   29.9953   67.9214 O   0  0  0  0  0  0  0  0  0  0  0  0
   -6.1792   29.8664   66.5044 C   0  0  2  0  0  0  0  0  0  0  0  0
   -7.6831   30.0020   66.1675 C   0  0  1  0  0  0  0  0  0  0  0  0
   -8.4966   28.8071   66.7615 C   0  0  2  0  0  0  0  0  0  0  0  0
   -7.9733   27.5134   66.1711 C   0  0  1  0  0  0  0  0  0  0  0  0
   -6.4658   27.3654   66.5361 C   0  0  1  0  0  0  0  0  0  0  0  0
   -5.8548   26.0912   65.9562 C   0  0  0  0  0  0  0  0  0  0  0  0
   -8.7553   26.3760   66.7131 N   0  0  0  0  0  0  0  0  0  0  0  0
   -5.7066   28.5399   66.0068 O   0  0  0  0  0  0  0  0  0  0  0  0
   -8.1266   31.2786   66.6788 O   0  0  0  0  0  0  0  0  0  0  0  0
   -9.8788   28.9455   66.4245 O   0  0  0  0  0  0  0  0  0  0  0  0
   -6.4446   24.9712   66.5704 O   0  0  0  0  0  0  0  0  0  0  0  0
    0.8294   25.7849   65.9194 C   0  0  1  0  0  0  0  0  0  0  0  0
    1.7152   24.6869   66.5694 C   0  0  1  0  0  0  0  0  0  0  0  0
    3.0103   24.4815   65.7313 C   0  0  2  0  0  0  0  0  0  0  0  0
    2.6231   24.0460   64.2964 C   0  0  1  0  0  0  0  0  0  0  0  0
    1.7328   25.1437   63.6111 C   0  0  0  0  0  0  0  0  0  0  0  0
    0.4641   25.3413   64.4677 C   0  0  2  0  0  0  0  0  0  0  0  0
    3.8502   23.8403   63.4901 N   0  0  0  0  0  0  0  0  0  0  0  0
   -0.3609   26.3682   63.8220 N   0  0  0  0  0  0  0  0  0  0  0  0
    2.0756   25.0905   67.9090 O   0  0  0  0  0  0  0  0  0  0  0  0
    3.8179   23.4614   66.3598 O   0  0  0  0  0  0  0  0  0  0  0  0
  1  2  1  0  0  0  0
  1 12  1  6  0  0  0
  1 13  1  0  0  0  0
  2  3  1  0  0  0  0
  2 10  1  6  0  0  0
  4  3  1  6  0  0  0
  4  5  1  0  0  0  0
  4 14  1  0  0  0  0
  5  6  1  0  0  0  0
  5 13  1  1  0  0  0
  6  7  1  0  0  0  0
  6 15  1  1  0  0  0
  7  8  1  0  0  0  0
  7 11  1  1  0  0  0
  8 14  1  0  0  0  0
  8 16  1  6  0  0  0
  9 11  1  0  0  0  0
 17 16  1  1  0  0  0
 17 18  1  0  0  0  0
 17 24  1  0  0  0  0
 18 19  1  0  0  0  0
 18 25  1  1  0  0  0
 19 20  1  0  0  0  0
 19 26  1  6  0  0  0
 20 21  1  0  0  0  0
 20 23  1  1  0  0  0
 21 22  1  6  0  0  0
 21 24  1  0  0  0  0
 22 27  1  0  0  0  0
 28 12  1  1  0  0  0
 28 29  1  0  0  0  0
 28 33  1  0  0  0  0
 29 30  1  0  0  0  0
 29 36  1  1  0  0  0
 30 31  1  0  0  0  0
 30 37  1  1  0  0  0
 31 32  1  0  0  0  0
 31 34  1  6  0  0  0
 32 33  1  0  0  0  0
 33 35  1  6  0  0  0
M  END
>  <CHROM.1>
-145.24799858,88.13743494,46.75285717,66.63788979,171.41190963,-66.21920106
-2.82876754,27.43537580,66.79444610,-0.47049750,-0.05477453,0.33673861

>  <Name>
ligand

>  <RI>
0

>  <Rbt.Current_Directory>
/home/itssahil/PROJECTS/Mol_Feturizer/Test_systems_manuscript/rnas/2g5k

>  <Rbt.Executable>
rbdock ($Id: //depot/dev/client3/rdock/2013.1/src/exe/rbdock.cxx#4 $)

>  <Rbt.Library>
libRbt.so (2013.1, Build901 2013/11/27)

>  <Rbt.Parameter_File>
/export/apps/rDock/src/rDock_2013.1_src/data/scripts/dock_solv.prm

>  <Rbt.Receptor>
prm/pocket_docking_3.prm

>  <SCORE>
-8.38132

>  <SCORE.INTER>
-7.62147

>  <SCORE.INTER.CONST>
1

>  <SCORE.INTER.POLAR>
0

>  <SCORE.INTER.ROT>
6

>  <SCORE.INTER.SOLV>
19.2708

>  <SCORE.INTER.VDW>
-19.1046

>  <SCORE.INTER.norm>
-0.205986

>  <SCORE.INTRA>
-0.759853

>  <SCORE.INTRA.DIHEDRAL>
-4.804

>  <SCORE.INTRA.DIHEDRAL.0>
11.3972

>  <SCORE.INTRA.POLAR>
0

>  <SCORE.INTRA.POLAR.0>
0

>  <SCORE.INTRA.REPUL>
0

>  <SCORE.INTRA.REPUL.0>
0

>  <SCORE.INTRA.SOLV>
1.15934

>  <SCORE.INTRA.SOLV.lig_0>
-92.3891

>  <SCORE.INTRA.VDW>
1.06248

>  <SCORE.INTRA.VDW.0>
-2.90606

>  <SCORE.INTRA.norm>
-0.0205366

>  <SCORE.RESTR>
0

>  <SCORE.RESTR.CAVITY>
0

>  <SCORE.RESTR.norm>
0

>  <SCORE.SYSTEM>
0

>  <SCORE.SYSTEM.CONST>
0

>  <SCORE.SYSTEM.DIHEDRAL>
0

>  <SCORE.SYSTEM.SOLV>
0

>  <SCORE.SYSTEM.norm>
0

>  <SCORE.heavy>
37

>  <SCORE.norm>
-0.226522

>  <RMSD>
2.745

$$$$
ligand
 OpenBabel02271912133D
libRbt.so/2013.1/901 2013/11/27
 37 40  0  0  0  0  0  0  0  0999 V2000
   -0.7252   27.5169   68.4873 C   0  0  1  0  0  0  0  0  0  0  0  0
   -1.8424   27.0955   69.4836 C   0  0  1  0  0  0  0  0  0  0  0  0
   -3.2306   27.5932   69.0380 C   0  0  0  0  0  0  0  0  0  0  0  0
   -3.1834   29.1446   68.8764 C   0  0  1  0  0  0  0  0  0  0  0  0
   -2.0935   29.5572   67.8346 C   0  0  1  0  0  0  0  0  0  0  0  0
   -2.0614   31.1452   67.6869 C   0  0  1  0  0  0  0  0  0  0  0  0
   -3.4646   31.6383   67.2268 C   0  0  1  0  0  0  0  0  0  0  0  0
   -4.5128   31.1708   68.2811 C   0  0  2  0  0  0  0  0  0  0  0  0
   -4.1393   33.7536   65.8925 C   0  0  0  0  0  0  0  0  0  0  0  0
   -1.8533   25.6283   69.6637 N   0  0  0  0  0  0  0  0  0  0  0  0
   -3.4779   33.1429   67.0894 N   0  0  0  0  0  0  0  0  0  0  0  0
   -0.8308   26.8399   67.2197 O   0  0  0  0  0  0  0  0  0  0  0  0
   -0.7933   28.9901   68.3014 O   0  0  0  0  0  0  0  0  0  0  0  0
   -4.5025   29.7108   68.4415 O   0  0  0  0  0  0  0  0  0  0  0  0
   -1.7714   31.7384   68.9460 O   0  0  0  0  0  0  0  0  0  0  0  0
   -5.8168   31.5845   67.8894 O   0  0  0  0  0  0  0  0  0  0  0  0
   -6.8301   31.3757   68.9037 C   0  0  2  0  0  0  0  0  0  0  0  0
   -8.0755   30.6325   68.3650 C   0  0  1  0  0  0  0  0  0  0  0  0
   -8.8404   31.5107   67.3228 C   0  0  2  0  0  0  0  0  0  0  0  0
   -9.2838   32.7954   67.9927 C   0  0  1  0  0  0  0  0  0  0  0  0
   -8.0257   33.5558   68.5090 C   0  0  1  0  0  0  0  0  0  0  0  0
   -8.3905   34.8574   69.2202 C   0  0  0  0  0  0  0  0  0  0  0  0
  -10.0300   33.6249   67.0159 N   0  0  0  0  0  0  0  0  0  0  0  0
   -7.2748   32.6859   69.4659 O   0  0  0  0  0  0  0  0  0  0  0  0
   -7.6218   29.3808   67.8033 O   0  0  0  0  0  0  0  0  0  0  0  0
   -9.9941   30.8107   66.8515 O   0  0  0  0  0  0  0  0  0  0  0  0
   -7.2181   35.5917   69.4768 O   0  0  0  0  0  0  0  0  0  0  0  0
    0.3524   26.5983   66.3078 C   0  0  1  0  0  0  0  0  0  0  0  0
    1.1248   25.3554   66.8288 C   0  0  1  0  0  0  0  0  0  0  0  0
    2.3555   25.0727   65.9192 C   0  0  2  0  0  0  0  0  0  0  0  0
    1.8682   24.8055   64.4737 C   0  0  1  0  0  0  0  0  0  0  0  0
    1.0900   26.0514   63.9176 C   0  0  0  0  0  0  0  0  0  0  0  0
   -0.1148   26.3218   64.8438 C   0  0  2  0  0  0  0  0  0  0  0  0
    3.0326   24.5276   63.5989 N   0  0  0  0  0  0  0  0  0  0  0  0
   -0.8351   27.4869   64.3187 N   0  0  0  0  0  0  0  0  0  0  0  0
    1.5784   25.6021   68.1781 O   0  0  0  0  0  0  0  0  0  0  0  0
    3.0588   23.9178   66.4285 O   0  0  0  0  0  0  0  0  0  0  0  0
  1  2  1  0  0  0  0
  1 12  1  6  0  0  0
  1 13  1  0  0  0  0
  2  3  1  0  0  0  0
  2 10  1  6  0  0  0
  4  3  1  6  0  0  0
  4  5  1  0  0  0  0
  4 14  1  0  0  0  0
  5  6  1  0  0  0  0
  5 13  1  1  0  0  0
  6  7  1  0  0  0  0
  6 15  1  1  0  0  0
  7  8  1  0  0  0  0
  7 11  1  1  0  0  0
  8 14  1  0  0  0  0
  8 16  1  6  0  0  0
  9 11  1  0  0  0  0
 17 16  1  6  0  0  0
 17 18  1  0  0  0  0
 17 24  1  0  0  0  0
 18 19  1  0  0  0  0
 18 25  1  6  0  0  0
 19 20  1  0  0  0  0
 19 26  1  1  0  0  0
 20 21  1  0  0  0  0
 20 23  1  6  0  0  0
 21 22  1  1  0  0  0
 21 24  1  0  0  0  0
 22 27  1  0  0  0  0
 28 12  1  1  0  0  0
 28 29  1  0  0  0  0
 28 33  1  0  0  0  0
 29 30  1  0  0  0  0
 29 36  1  1  0  0  0
 30 31  1  0  0  0  0
 30 37  1  1  0  0  0
 31 32  1  0  0  0  0
 31 34  1  6  0  0  0
 32 33  1  0  0  0  0
 33 35  1  6  0  0  0
M  END
>  <CHROM.1>
-153.99184895,136.42818410,-171.05214350,80.73439706,-129.53602111,-170.99771678
-3.33270245,29.45715492,67.48446237,-0.68152300,0.12968022,0.12159049

>  <Name>
ligand

>  <RI>
0

>  <Rbt.Current_Directory>
/home/itssahil/PROJECTS/Mol_Feturizer/Test_systems_manuscript/rnas/2g5k

>  <Rbt.Executable>
rbdock ($Id: //depot/dev/client3/rdock/2013.1/src/exe/rbdock.cxx#4 $)

>  <Rbt.Library>
libRbt.so (2013.1, Build901 2013/11/27)

>  <Rbt.Parameter_File>
/export/apps/rDock/src/rDock_2013.1_src/data/scripts/dock_solv.prm

>  <Rbt.Receptor>
prm/pocket_docking_7.prm

>  <SCORE>
-11.6765

>  <SCORE.INTER>
-11.6279

>  <SCORE.INTER.CONST>
1

>  <SCORE.INTER.POLAR>
0

>  <SCORE.INTER.ROT>
6

>  <SCORE.INTER.SOLV>
21.7388

>  <SCORE.INTER.VDW>
-22.5982

>  <SCORE.INTER.norm>
-0.314267

>  <SCORE.INTRA>
-0.0486414

>  <SCORE.INTRA.DIHEDRAL>
1.8292

>  <SCORE.INTRA.DIHEDRAL.0>
11.3972

>  <SCORE.INTRA.POLAR>
0

>  <SCORE.INTRA.POLAR.0>
0

>  <SCORE.INTRA.REPUL>
0

>  <SCORE.INTRA.REPUL.0>
0

>  <SCORE.INTRA.SOLV>
-0.906961

>  <SCORE.INTRA.SOLV.lig_0>
-92.3891

>  <SCORE.INTRA.VDW>
-0.509761

>  <SCORE.INTRA.VDW.0>
-2.90606

>  <SCORE.INTRA.norm>
-0.00131463

>  <SCORE.RESTR>
0

>  <SCORE.RESTR.CAVITY>
0

>  <SCORE.RESTR.norm>
0

>  <SCORE.SYSTEM>
0

>  <SCORE.SYSTEM.CONST>
0

>  <SCORE.SYSTEM.DIHEDRAL>
0

>  <SCORE.SYSTEM.SOLV>
0

>  <SCORE.SYSTEM.norm>
0

>  <SCORE.heavy>
37

>  <SCORE.norm>
-0.315582

>  <RMSD>
2.756

$$$$
ligand
 OpenBabel02271912133D
libRbt.so/2013.1/901 2013/11/27
 37 40  0  0  0  0  0  0  0  0999 V2000
   -0.9178   26.8620   67.9951 C   0  0  1  0  0  0  0  0  0  0  0  0
   -2.1001   25.9909   68.5066 C   0  0  1  0  0  0  0  0  0  0  0  0
   -3.4258   26.3507   67.8090 C   0  0  0  0  0  0  0  0  0  0  0  0
   -3.7159   27.8684   68.0269 C   0  0  1  0  0  0  0  0  0  0  0  0
   -2.5466   28.7394   67.4632 C   0  0  1  0  0  0  0  0  0  0  0  0
   -2.8630   30.2852   67.6981 C   0  0  1  0  0  0  0  0  0  0  0  0
   -4.1983   30.6421   66.9817 C   0  0  1  0  0  0  0  0  0  0  0  0
   -5.3180   29.7229   67.5563 C   0  0  2  0  0  0  0  0  0  0  0  0
   -3.9411   33.1223   66.2795 C   0  0  0  0  0  0  0  0  0  0  0  0
   -1.8001   24.5536   68.3355 N   0  0  0  0  0  0  0  0  0  0  0  0
   -4.5399   32.0985   67.1941 N   0  0  0  0  0  0  0  0  0  0  0  0
   -0.5626   26.5655   66.6304 O   0  0  0  0  0  0  0  0  0  0  0  0
   -1.2922   28.2932   68.1395 O   0  0  0  0  0  0  0  0  0  0  0  0
   -4.9952   28.3016   67.3747 O   0  0  0  0  0  0  0  0  0  0  0  0
   -3.0222   30.5365   69.0883 O   0  0  0  0  0  0  0  0  0  0  0  0
   -6.5565   30.0024   66.9138 O   0  0  0  0  0  0  0  0  0  0  0  0
   -6.4585   30.1223   65.4732 C   0  0  2  0  0  0  0  0  0  0  0  0
   -7.8064   30.4877   64.8074 C   0  0  1  0  0  0  0  0  0  0  0  0
   -8.8378   29.3240   64.9635 C   0  0  2  0  0  0  0  0  0  0  0  0
   -8.2811   28.0804   64.3005 C   0  0  1  0  0  0  0  0  0  0  0  0
   -6.9380   27.6982   64.9917 C   0  0  1  0  0  0  0  0  0  0  0  0
   -6.2981   26.4616   64.3637 C   0  0  0  0  0  0  0  0  0  0  0  0
   -9.2641   26.9772   64.4249 N   0  0  0  0  0  0  0  0  0  0  0  0
   -5.9773   28.8388   64.8804 O   0  0  0  0  0  0  0  0  0  0  0  0
   -8.2671   31.7168   65.4116 O   0  0  0  0  0  0  0  0  0  0  0  0
  -10.0685   29.6774   64.3280 O   0  0  0  0  0  0  0  0  0  0  0  0
   -5.0780   26.1904   65.0096 O   0  0  0  0  0  0  0  0  0  0  0  0
    0.4836   27.3403   65.8589 C   0  0  1  0  0  0  0  0  0  0  0  0
    1.8819   26.9690   66.4242 C   0  0  1  0  0  0  0  0  0  0  0  0
    2.9904   27.7488   65.6592 C   0  0  2  0  0  0  0  0  0  0  0  0
    2.9286   27.3770   64.1572 C   0  0  1  0  0  0  0  0  0  0  0  0
    1.5261   27.7502   63.5565 C   0  0  0  0  0  0  0  0  0  0  0  0
    0.4434   26.9785   64.3406 C   0  0  2  0  0  0  0  0  0  0  0  0
    3.9856   28.1092   63.4189 N   0  0  0  0  0  0  0  0  0  0  0  0
   -0.8627   27.3333   63.7748 N   0  0  0  0  0  0  0  0  0  0  0  0
    1.9407   27.3131   67.8261 O   0  0  0  0  0  0  0  0  0  0  0  0
    4.2783   27.3907   66.2077 O   0  0  0  0  0  0  0  0  0  0  0  0
  1  2  1  0  0  0  0
  1 12  1  6  0  0  0
  1 13  1  0  0  0  0
  2  3  1  0  0  0  0
  2 10  1  6  0  0  0
  4  3  1  6  0  0  0
  4  5  1  0  0  0  0
  4 14  1  0  0  0  0
  5  6  1  0  0  0  0
  5 13  1  1  0  0  0
  6  7  1  0  0  0  0
  6 15  1  1  0  0  0
  7  8  1  0  0  0  0
  7 11  1  1  0  0  0
  8 14  1  0  0  0  0
  8 16  1  6  0  0  0
  9 11  1  0  0  0  0
 17 16  1  1  0  0  0
 17 18  1  0  0  0  0
 17 24  1  0  0  0  0
 18 19  1  0  0  0  0
 18 25  1  1  0  0  0
 19 20  1  0  0  0  0
 19 26  1  6  0  0  0
 20 21  1  0  0  0  0
 20 23  1  1  0  0  0
 21 22  1  6  0  0  0
 21 24  1  0  0  0  0
 22 27  1  0  0  0  0
 28 12  1  1  0  0  0
 28 29  1  0  0  0  0
 28 33  1  0  0  0  0
 29 30  1  0  0  0  0
 29 36  1  1  0  0  0
 30 31  1  0  0  0  0
 30 37  1  1  0  0  0
 31 32  1  0  0  0  0
 31 34  1  6  0  0  0
 32 33  1  0  0  0  0
 33 35  1  6  0  0  0
M  END
>  <CHROM.1>
175.26715441,84.80999251,45.33746770,71.96712836,-177.46368954,178.58401259
-3.14592006,28.39318880,66.12790650,-0.17253625,-0.15230070,0.50329044

>  <Name>
ligand

>  <RI>
0

>  <Rbt.Current_Directory>
/home/itssahil/PROJECTS/Mol_Feturizer/Test_systems_manuscript/rnas/2g5k

>  <Rbt.Executable>
rbdock ($Id: //depot/dev/client3/rdock/2013.1/src/exe/rbdock.cxx#4 $)

>  <Rbt.Library>
libRbt.so (2013.1, Build901 2013/11/27)

>  <Rbt.Parameter_File>
/export/apps/rDock/src/rDock_2013.1_src/data/scripts/dock_solv.prm

>  <Rbt.Receptor>
prm/pocket_docking_4.prm

>  <SCORE>
-7.86872

>  <SCORE.INTER>
-3.37429

>  <SCORE.INTER.CONST>
1

>  <SCORE.INTER.POLAR>
0

>  <SCORE.INTER.ROT>
6

>  <SCORE.INTER.SOLV>
13.9678

>  <SCORE.INTER.VDW>
-14.5055

>  <SCORE.INTER.norm>
-0.0911971

>  <SCORE.INTRA>
-4.50098

>  <SCORE.INTRA.DIHEDRAL>
-9.08483

>  <SCORE.INTRA.DIHEDRAL.0>
11.3972

>  <SCORE.INTRA.POLAR>
0

>  <SCORE.INTRA.POLAR.0>
0

>  <SCORE.INTRA.REPUL>
0

>  <SCORE.INTRA.REPUL.0>
0

>  <SCORE.INTRA.SOLV>
-0.381548

>  <SCORE.INTRA.SOLV.lig_0>
-92.3891

>  <SCORE.INTRA.VDW>
0.232211

>  <SCORE.INTRA.VDW.0>
-2.90606

>  <SCORE.INTRA.norm>
-0.121648

>  <SCORE.RESTR>
0.00655324

>  <SCORE.RESTR.CAVITY>
0.00655324

>  <SCORE.RESTR.norm>
0.000177115

>  <SCORE.SYSTEM>
0

>  <SCORE.SYSTEM.CONST>
0

>  <SCORE.SYSTEM.DIHEDRAL>
0

>  <SCORE.SYSTEM.SOLV>
0

>  <SCORE.SYSTEM.norm>
0

>  <SCORE.heavy>
37

>  <SCORE.norm>
-0.212668

>  <RMSD>
2.869

$$$$
ligand
 OpenBabel02271912133D
libRbt.so/2013.1/901 2013/11/27
 37 40  0  0  0  0  0  0  0  0999 V2000
   -0.5490   26.4662   68.5027 C   0  0  1  0  0  0  0  0  0  0  0  0
   -1.7250   25.6716   69.1384 C   0  0  1  0  0  0  0  0  0  0  0  0
   -3.0501   25.9027   68.3874 C   0  0  0  0  0  0  0  0  0  0  0  0
   -3.3581   27.4324   68.3649 C   0  0  1  0  0  0  0  0  0  0  0  0
   -2.1949   28.2187   67.6777 C   0  0  1  0  0  0  0  0  0  0  0  0
   -2.5296   29.7784   67.6675 C   0  0  1  0  0  0  0  0  0  0  0  0
   -3.8642   30.0037   66.8983 C   0  0  1  0  0  0  0  0  0  0  0  0
   -4.9773   29.1720   67.6040 C   0  0  2  0  0  0  0  0  0  0  0  0
   -3.7632   32.3133   65.7296 C   0  0  0  0  0  0  0  0  0  0  0  0
   -1.4083   24.2287   69.1946 N   0  0  0  0  0  0  0  0  0  0  0  0
   -4.2229   31.4713   66.8797 N   0  0  0  0  0  0  0  0  0  0  0  0
   -0.1822   25.9651   67.2025 O   0  0  0  0  0  0  0  0  0  0  0  0
   -0.9400   27.8979   68.4208 O   0  0  0  0  0  0  0  0  0  0  0  0
   -4.6380   27.7436   67.6474 O   0  0  0  0  0  0  0  0  0  0  0  0
   -2.7002   30.2411   69.0009 O   0  0  0  0  0  0  0  0  0  0  0  0
   -6.2148   29.3335   66.9203 O   0  0  0  0  0  0  0  0  0  0  0  0
   -6.1217   29.1583   65.4851 C   0  0  2  0  0  0  0  0  0  0  0  0
   -7.4167   29.5677   64.7443 C   0  0  1  0  0  0  0  0  0  0  0  0
   -8.5942   28.6071   65.1094 C   0  0  2  0  0  0  0  0  0  0  0  0
   -8.2205   27.1950   64.7064 C   0  0  1  0  0  0  0  0  0  0  0  0
   -6.9321   26.7749   65.4754 C   0  0  1  0  0  0  0  0  0  0  0  0
   -6.4747   25.3650   65.1064 C   0  0  0  0  0  0  0  0  0  0  0  0
   -9.3422   26.2804   65.0294 N   0  0  0  0  0  0  0  0  0  0  0  0
   -5.8273   27.7312   65.1578 O   0  0  0  0  0  0  0  0  0  0  0  0
   -7.6980   30.9413   65.0935 O   0  0  0  0  0  0  0  0  0  0  0  0
   -9.7743   28.9947   64.4021 O   0  0  0  0  0  0  0  0  0  0  0  0
   -7.4790   24.4437   65.4558 O   0  0  0  0  0  0  0  0  0  0  0  0
    1.2455   25.9243   66.7023 C   0  0  1  0  0  0  0  0  0  0  0  0
    1.2962   25.0157   65.4435 C   0  0  1  0  0  0  0  0  0  0  0  0
    2.7515   24.9426   64.8970 C   0  0  2  0  0  0  0  0  0  0  0  0
    3.2250   26.3682   64.5205 C   0  0  1  0  0  0  0  0  0  0  0  0
    3.1921   27.3078   65.7788 C   0  0  0  0  0  0  0  0  0  0  0  0
    1.7441   27.3514   66.3119 C   0  0  2  0  0  0  0  0  0  0  0  0
    4.6089   26.3100   63.9916 N   0  0  0  0  0  0  0  0  0  0  0  0
    1.7222   28.2293   67.4869 N   0  0  0  0  0  0  0  0  0  0  0  0
    0.8527   23.6857   65.7923 O   0  0  0  0  0  0  0  0  0  0  0  0
    2.7720   24.0878   63.7322 O   0  0  0  0  0  0  0  0  0  0  0  0
  1  2  1  0  0  0  0
  1 12  1  6  0  0  0
  1 13  1  0  0  0  0
  2  3  1  0  0  0  0
  2 10  1  6  0  0  0
  4  3  1  6  0  0  0
  4  5  1  0  0  0  0
  4 14  1  0  0  0  0
  5  6  1  0  0  0  0
  5 13  1  1  0  0  0
  6  7  1  0  0  0  0
  6 15  1  1  0  0  0
  7  8  1  0  0  0  0
  7 11  1  1  0  0  0
  8 14  1  0  0  0  0
  8 16  1  6  0  0  0
  9 11  1  0  0  0  0
 17 16  1  1  0  0  0
 17 18  1  0  0  0  0
 17 24  1  0  0  0  0
 18 19  1  0  0  0  0
 18 25  1  1  0  0  0
 19 20  1  0  0  0  0
 19 26  1  6  0  0  0
 20 21  1  0  0  0  0
 20 23  1  1  0  0  0
 21 22  1  6  0  0  0
 21 24  1  0  0  0  0
 22 27  1  0  0  0  0
 28 12  1  6  0  0  0
 28 29  1  0  0  0  0
 28 33  1  0  0  0  0
 29 30  1  0  0  0  0
 29 36  1  1  0  0  0
 30 31  1  0  0  0  0
 30 37  1  6  0  0  0
 31 32  1  0  0  0  0
 31 34  1  1  0  0  0
 32 33  1  0  0  0  0
 33 35  1  1  0  0  0
M  END
>  <CHROM.1>
-143.94190342,91.99535746,48.44645554,166.05947575,-170.41513826,-61.58481689
-2.93145987,27.46676313,66.36138838,-0.24551014,-0.12962178,0.32101771

>  <Name>
ligand

>  <RI>
0

>  <Rbt.Current_Directory>
/home/itssahil/PROJECTS/Mol_Feturizer/Test_systems_manuscript/rnas/2g5k

>  <Rbt.Executable>
rbdock ($Id: //depot/dev/client3/rdock/2013.1/src/exe/rbdock.cxx#4 $)

>  <Rbt.Library>
libRbt.so (2013.1, Build901 2013/11/27)

>  <Rbt.Parameter_File>
/export/apps/rDock/src/rDock_2013.1_src/data/scripts/dock_solv.prm

>  <Rbt.Receptor>
prm/pocket_docking_3.prm

>  <SCORE>
-4.67497

>  <SCORE.INTER>
-4.58359

>  <SCORE.INTER.CONST>
1

>  <SCORE.INTER.POLAR>
0

>  <SCORE.INTER.ROT>
6

>  <SCORE.INTER.SOLV>
15.5549

>  <SCORE.INTER.VDW>
-15.8407

>  <SCORE.INTER.norm>
-0.123881

>  <SCORE.INTRA>
-0.39598

>  <SCORE.INTRA.DIHEDRAL>
-3.97908

>  <SCORE.INTRA.DIHEDRAL.0>
11.3972

>  <SCORE.INTRA.POLAR>
0

>  <SCORE.INTRA.POLAR.0>
0

>  <SCORE.INTRA.REPUL>
0

>  <SCORE.INTRA.REPUL.0>
0

>  <SCORE.INTRA.SOLV>
2.24719

>  <SCORE.INTRA.SOLV.lig_0>
-92.3891

>  <SCORE.INTRA.VDW>
0.469967

>  <SCORE.INTRA.VDW.0>
-2.90606

>  <SCORE.INTRA.norm>
-0.0107022

>  <SCORE.RESTR>
0.304599

>  <SCORE.RESTR.CAVITY>
0.304599

>  <SCORE.RESTR.norm>
0.0082324

>  <SCORE.SYSTEM>
0

>  <SCORE.SYSTEM.CONST>
0

>  <SCORE.SYSTEM.DIHEDRAL>
0

>  <SCORE.SYSTEM.SOLV>
0

>  <SCORE.SYSTEM.norm>
0

>  <SCORE.heavy>
37

>  <SCORE.norm>
-0.12635

>  <RMSD>
2.959

$$$$
ligand
 OpenBabel02271912133D
libRbt.so/2013.1/901 2013/11/27
 37 40  0  0  0  0  0  0  0  0999 V2000
   -0.2785   25.9898   67.5227 C   0  0  1  0  0  0  0  0  0  0  0  0
   -1.2029   25.6684   68.7313 C   0  0  1  0  0  0  0  0  0  0  0  0
   -2.6784   25.9950   68.4319 C   0  0  0  0  0  0  0  0  0  0  0  0
   -2.7914   27.4979   68.0272 C   0  0  1  0  0  0  0  0  0  0  0  0
   -1.8995   27.8011   66.7797 C   0  0  1  0  0  0  0  0  0  0  0  0
   -2.0286   29.3414   66.3852 C   0  0  1  0  0  0  0  0  0  0  0  0
   -3.5206   29.6600   66.0747 C   0  0  1  0  0  0  0  0  0  0  0  0
   -4.3647   29.3074   67.3364 C   0  0  2  0  0  0  0  0  0  0  0  0
   -4.5734   31.4780   64.5591 C   0  0  0  0  0  0  0  0  0  0  0  0
   -1.0589   24.2538   69.1354 N   0  0  0  0  0  0  0  0  0  0  0  0
   -3.6857   31.1169   65.7101 N   0  0  0  0  0  0  0  0  0  0  0  0
   -0.5012   25.1065   66.4062 O   0  0  0  0  0  0  0  0  0  0  0  0
   -0.5017   27.4042   67.1240 O   0  0  0  0  0  0  0  0  0  0  0  0
   -4.2032   27.8980   67.7170 O   0  0  0  0  0  0  0  0  0  0  0  0
   -1.6179   30.1527   67.4781 O   0  0  0  0  0  0  0  0  0  0  0  0
   -5.7422   29.5657   67.0897 O   0  0  0  0  0  0  0  0  0  0  0  0
   -6.2887   28.8257   65.9703 C   0  0  2  0  0  0  0  0  0  0  0  0
   -7.7505   29.2163   65.6478 C   0  0  1  0  0  0  0  0  0  0  0  0
   -8.7082   28.7959   66.8090 C   0  0  2  0  0  0  0  0  0  0  0  0
   -8.6280   27.2941   66.9939 C   0  0  1  0  0  0  0  0  0  0  0  0
   -7.1607   26.9066   67.3467 C   0  0  1  0  0  0  0  0  0  0  0  0
   -6.9903   25.3995   67.5279 C   0  0  0  0  0  0  0  0  0  0  0  0
   -9.5510   26.8842   68.0797 N   0  0  0  0  0  0  0  0  0  0  0  0
   -6.2481   27.3597   66.2521 O   0  0  0  0  0  0  0  0  0  0  0  0
   -7.7730   30.6404   65.4036 O   0  0  0  0  0  0  0  0  0  0  0  0
  -10.0533   29.1522   66.4823 O   0  0  0  0  0  0  0  0  0  0  0  0
   -5.6356   25.1108   67.7748 O   0  0  0  0  0  0  0  0  0  0  0  0
    0.3699   25.0985   65.1688 C   0  0  1  0  0  0  0  0  0  0  0  0
    0.2635   26.4903   64.4875 C   0  0  1  0  0  0  0  0  0  0  0  0
    1.1438   26.5246   63.2046 C   0  0  2  0  0  0  0  0  0  0  0  0
    2.6184   26.2545   63.5931 C   0  0  1  0  0  0  0  0  0  0  0  0
    2.7570   24.8475   64.2774 C   0  0  0  0  0  0  0  0  0  0  0  0
    1.8638   24.8321   65.5362 C   0  0  2  0  0  0  0  0  0  0  0  0
    3.4683   26.2918   62.3787 N   0  0  0  0  0  0  0  0  0  0  0  0
    1.9978   23.5151   66.1684 N   0  0  0  0  0  0  0  0  0  0  0  0
   -1.1120   26.7450   64.1264 O   0  0  0  0  0  0  0  0  0  0  0  0
    1.0222   27.8256   62.5878 O   0  0  0  0  0  0  0  0  0  0  0  0
  1  2  1  0  0  0  0
  1 12  1  6  0  0  0
  1 13  1  0  0  0  0
  2  3  1  0  0  0  0
  2 10  1  6  0  0  0
  4  3  1  6  0  0  0
  4  5  1  0  0  0  0
  4 14  1  0  0  0  0
  5  6  1  0  0  0  0
  5 13  1  1  0  0  0
  6  7  1  0  0  0  0
  6 15  1  1  0  0  0
  7  8  1  0  0  0  0
  7 11  1  1  0  0  0
  8 14  1  0  0  0  0
  8 16  1  6  0  0  0
  9 11  1  0  0  0  0
 17 16  1  1  0  0  0
 17 18  1  0  0  0  0
 17 24  1  0  0  0  0
 18 19  1  0  0  0  0
 18 25  1  1  0  0  0
 19 20  1  0  0  0  0
 19 26  1  6  0  0  0
 20 21  1  0  0  0  0
 20 23  1  1  0  0  0
 21 22  1  6  0  0  0
 21 24  1  0  0  0  0
 22 27  1  0  0  0  0
 28 12  1  1  0  0  0
 28 29  1  0  0  0  0
 28 33  1  0  0  0  0
 29 30  1  0  0  0  0
 29 36  1  6  0  0  0
 30 31  1  0  0  0  0
 30 37  1  1  0  0  0
 31 32  1  0  0  0  0
 31 34  1  6  0  0  0
 32 33  1  0  0  0  0
 33 35  1  6  0  0  0
M  END
>  <CHROM.1>
-172.73700614,137.16731387,58.77362502,-62.14135671,-174.99148849,176.96704474
-3.04471453,27.38797494,66.22208811,0.12413253,-0.33299502,2.54149632

>  <Name>
ligand

>  <RI>
0

>  <Rbt.Current_Directory>
/home/itssahil/PROJECTS/Mol_Feturizer/Test_systems_manuscript/rnas/2g5k

>  <Rbt.Executable>
rbdock ($Id: //depot/dev/client3/rdock/2013.1/src/exe/rbdock.cxx#4 $)

>  <Rbt.Library>
libRbt.so (2013.1, Build901 2013/11/27)

>  <Rbt.Parameter_File>
/export/apps/rDock/src/rDock_2013.1_src/data/scripts/dock_solv.prm

>  <Rbt.Receptor>
prm/pocket_docking_3.prm

>  <SCORE>
-7.87455

>  <SCORE.INTER>
-2.50917

>  <SCORE.INTER.CONST>
1

>  <SCORE.INTER.POLAR>
0

>  <SCORE.INTER.ROT>
6

>  <SCORE.INTER.SOLV>
21.3396

>  <SCORE.INTER.VDW>
-16.386

>  <SCORE.INTER.norm>
-0.0678153

>  <SCORE.INTRA>
-5.36592

>  <SCORE.INTRA.DIHEDRAL>
-9.94387

>  <SCORE.INTRA.DIHEDRAL.0>
11.3972

>  <SCORE.INTRA.POLAR>
0

>  <SCORE.INTRA.POLAR.0>
0

>  <SCORE.INTRA.REPUL>
0

>  <SCORE.INTRA.REPUL.0>
0

>  <SCORE.INTRA.SOLV>
0.529483

>  <SCORE.INTRA.SOLV.lig_0>
-92.3891

>  <SCORE.INTRA.VDW>
-0.658724

>  <SCORE.INTRA.VDW.0>
-2.90606

>  <SCORE.INTRA.norm>
-0.145025

>  <SCORE.RESTR>
0.00053709

>  <SCORE.RESTR.CAVITY>
0.00053709

>  <SCORE.RESTR.norm>
1.45159e-05

>  <SCORE.SYSTEM>
0

>  <SCORE.SYSTEM.CONST>
0

>  <SCORE.SYSTEM.DIHEDRAL>
0

>  <SCORE.SYSTEM.SOLV>
0

>  <SCORE.SYSTEM.norm>
0

>  <SCORE.heavy>
37

>  <SCORE.norm>
-0.212826

>  <RMSD>
2.990

$$$$
ligand
 OpenBabel02271912133D
libRbt.so/2013.1/901 2013/11/27
 37 40  0  0  0  0  0  0  0  0999 V2000
   -0.6697   28.5937   69.0456 C   0  0  1  0  0  0  0  0  0  0  0  0
   -1.8993   28.4659   69.9892 C   0  0  1  0  0  0  0  0  0  0  0  0
   -3.2300   28.5759   69.2207 C   0  0  0  0  0  0  0  0  0  0  0  0
   -3.2574   29.9320   68.4491 C   0  0  1  0  0  0  0  0  0  0  0  0
   -2.0470   30.0305   67.4648 C   0  0  1  0  0  0  0  0  0  0  0  0
   -2.0938   31.4236   66.6891 C   0  0  1  0  0  0  0  0  0  0  0  0
   -3.4368   31.5219   65.9077 C   0  0  1  0  0  0  0  0  0  0  0  0
   -4.6045   31.3833   66.9304 C   0  0  2  0  0  0  0  0  0  0  0  0
   -3.8025   34.0861   65.9488 C   0  0  0  0  0  0  0  0  0  0  0  0
   -1.8443   27.1982   70.7475 N   0  0  0  0  0  0  0  0  0  0  0  0
   -3.5246   32.8375   65.1699 N   0  0  0  0  0  0  0  0  0  0  0  0
   -0.5329   27.4653   68.1599 O   0  0  0  0  0  0  0  0  0  0  0  0
   -0.8020   29.8549   68.2704 O   0  0  0  0  0  0  0  0  0  0  0  0
   -4.5260   30.1170   67.6705 O   0  0  0  0  0  0  0  0  0  0  0  0
   -2.0422   32.4945   67.6227 O   0  0  0  0  0  0  0  0  0  0  0  0
   -5.8553   31.4482   66.2548 O   0  0  0  0  0  0  0  0  0  0  0  0
   -6.0391   30.4150   65.2559 C   0  0  2  0  0  0  0  0  0  0  0  0
   -7.3298   30.6056   64.4245 C   0  0  1  0  0  0  0  0  0  0  0  0
   -8.5993   30.4192   65.3168 C   0  0  2  0  0  0  0  0  0  0  0  0
   -8.5901   29.0208   65.9000 C   0  0  1  0  0  0  0  0  0  0  0  0
   -7.3033   28.8410   66.7600 C   0  0  1  0  0  0  0  0  0  0  0  0
   -7.2071   27.4431   67.3681 C   0  0  0  0  0  0  0  0  0  0  0  0
   -9.8034   28.8284   66.7305 N   0  0  0  0  0  0  0  0  0  0  0  0
   -6.0969   29.0723   65.9072 O   0  0  0  0  0  0  0  0  0  0  0  0
   -7.2665   31.9184   63.8240 O   0  0  0  0  0  0  0  0  0  0  0  0
   -9.7778   30.5842   64.5250 O   0  0  0  0  0  0  0  0  0  0  0  0
   -8.2077   27.2910   68.3454 O   0  0  0  0  0  0  0  0  0  0  0  0
    0.8002   26.9855   67.6283 C   0  0  1  0  0  0  0  0  0  0  0  0
    0.5845   25.6109   66.9377 C   0  0  1  0  0  0  0  0  0  0  0  0
    1.9352   25.0776   66.3783 C   0  0  2  0  0  0  0  0  0  0  0  0
    2.4924   26.0888   65.3462 C   0  0  1  0  0  0  0  0  0  0  0  0
    2.7286   27.4876   66.0206 C   0  0  0  0  0  0  0  0  0  0  0  0
    1.3804   27.9879   66.5813 C   0  0  2  0  0  0  0  0  0  0  0  0
    3.7767   25.5874   64.8008 N   0  0  0  0  0  0  0  0  0  0  0  0
    1.6097   29.2932   67.2102 N   0  0  0  0  0  0  0  0  0  0  0  0
    0.0626   24.6667   67.8987 O   0  0  0  0  0  0  0  0  0  0  0  0
    1.7082   23.7974   65.7479 O   0  0  0  0  0  0  0  0  0  0  0  0
  1  2  1  0  0  0  0
  1 12  1  6  0  0  0
  1 13  1  0  0  0  0
  2  3  1  0  0  0  0
  2 10  1  6  0  0  0
  4  3  1  6  0  0  0
  4  5  1  0  0  0  0
  4 14  1  0  0  0  0
  5  6  1  0  0  0  0
  5 13  1  1  0  0  0
  6  7  1  0  0  0  0
  6 15  1  1  0  0  0
  7  8  1  0  0  0  0
  7 11  1  1  0  0  0
  8 14  1  0  0  0  0
  8 16  1  6  0  0  0
  9 11  1  0  0  0  0
 17 16  1  1  0  0  0
 17 18  1  0  0  0  0
 17 24  1  0  0  0  0
 18 19  1  0  0  0  0
 18 25  1  1  0  0  0
 19 20  1  0  0  0  0
 19 26  1  6  0  0  0
 20 21  1  0  0  0  0
 20 23  1  1  0  0  0
 21 22  1  6  0  0  0
 21 24  1  0  0  0  0
 22 27  1  0  0  0  0
 28 12  1  6  0  0  0
 28 29  1  0  0  0  0
 28 33  1  0  0  0  0
 29 30  1  0  0  0  0
 29 36  1  1  0  0  0
 30 31  1  0  0  0  0
 30 37  1  6  0  0  0
 31 32  1  0  0  0  0
 31 34  1  1  0  0  0
 32 33  1  0  0  0  0
 33 35  1  1  0  0  0
M  END
>  <CHROM.1>
-150.65378111,-74.63181024,59.67698701,169.46278636,-173.28155489,-68.78646803
-3.10689562,28.99517751,66.82001516,-0.42211428,-0.02887529,-0.19645921

>  <Name>
ligand

>  <RI>
0

>  <Rbt.Current_Directory>
/home/itssahil/PROJECTS/Mol_Feturizer/Test_systems_manuscript/rnas/2g5k

>  <Rbt.Executable>
rbdock ($Id: //depot/dev/client3/rdock/2013.1/src/exe/rbdock.cxx#4 $)

>  <Rbt.Library>
libRbt.so (2013.1, Build901 2013/11/27)

>  <Rbt.Parameter_File>
/export/apps/rDock/src/rDock_2013.1_src/data/scripts/dock_solv.prm

>  <Rbt.Receptor>
prm/pocket_docking_4.prm

>  <SCORE>
-5.17428

>  <SCORE.INTER>
-5.01372

>  <SCORE.INTER.CONST>
1

>  <SCORE.INTER.POLAR>
0

>  <SCORE.INTER.ROT>
6

>  <SCORE.INTER.SOLV>
18.9748

>  <SCORE.INTER.VDW>
-17.2674

>  <SCORE.INTER.norm>
-0.135506

>  <SCORE.INTRA>
-0.160552

>  <SCORE.INTRA.DIHEDRAL>
-6.69549

>  <SCORE.INTRA.DIHEDRAL.0>
11.3972

>  <SCORE.INTRA.POLAR>
0

>  <SCORE.INTRA.POLAR.0>
0

>  <SCORE.INTRA.REPUL>
0

>  <SCORE.INTRA.REPUL.0>
0

>  <SCORE.INTRA.SOLV>
2.42575

>  <SCORE.INTRA.SOLV.lig_0>
-92.3891

>  <SCORE.INTRA.VDW>
1.97432

>  <SCORE.INTRA.VDW.0>
-2.90606

>  <SCORE.INTRA.norm>
-0.00433925

>  <SCORE.RESTR>
0

>  <SCORE.RESTR.CAVITY>
0

>  <SCORE.RESTR.norm>
0

>  <SCORE.SYSTEM>
0

>  <SCORE.SYSTEM.CONST>
0

>  <SCORE.SYSTEM.DIHEDRAL>
0

>  <SCORE.SYSTEM.SOLV>
0

>  <SCORE.SYSTEM.norm>
0

>  <SCORE.heavy>
37

>  <SCORE.norm>
-0.139845

>  <RMSD>
3.016

$$$$
ligand
 OpenBabel02271912133D
libRbt.so/2013.1/901 2013/11/27
 37 40  0  0  0  0  0  0  0  0999 V2000
   -1.1609   28.1341   69.5874 C   0  0  1  0  0  0  0  0  0  0  0  0
   -2.2505   27.0934   69.9726 C   0  0  1  0  0  0  0  0  0  0  0  0
   -3.1966   26.7865   68.7961 C   0  0  0  0  0  0  0  0  0  0  0  0
   -3.8455   28.1193   68.3083 C   0  0  1  0  0  0  0  0  0  0  0  0
   -2.7452   29.1412   67.8739 C   0  0  1  0  0  0  0  0  0  0  0  0
   -3.4301   30.4952   67.3815 C   0  0  1  0  0  0  0  0  0  0  0  0
   -4.3762   30.1773   66.1867 C   0  0  1  0  0  0  0  0  0  0  0  0
   -5.4276   29.1314   66.6653 C   0  0  2  0  0  0  0  0  0  0  0  0
   -4.9373   31.8099   64.2553 C   0  0  0  0  0  0  0  0  0  0  0  0
   -1.6287   25.8493   70.4732 N   0  0  0  0  0  0  0  0  0  0  0  0
   -5.0560   31.4361   65.7007 N   0  0  0  0  0  0  0  0  0  0  0  0
   -0.2090   27.6126   68.6397 O   0  0  0  0  0  0  0  0  0  0  0  0
   -1.8360   29.3405   69.0416 O   0  0  0  0  0  0  0  0  0  0  0  0
   -4.7844   27.9064   67.1582 O   0  0  0  0  0  0  0  0  0  0  0  0
   -4.2109   31.0480   68.4332 O   0  0  0  0  0  0  0  0  0  0  0  0
   -6.3043   28.7960   65.5957 O   0  0  0  0  0  0  0  0  0  0  0  0
   -7.5274   28.1450   66.0190 C   0  0  2  0  0  0  0  0  0  0  0  0
   -8.3377   27.5613   64.8374 C   0  0  1  0  0  0  0  0  0  0  0  0
   -8.8825   28.7020   63.9186 C   0  0  2  0  0  0  0  0  0  0  0  0
   -9.7835   29.6049   64.7365 C   0  0  1  0  0  0  0  0  0  0  0  0
   -8.9577   30.2138   65.9091 C   0  0  1  0  0  0  0  0  0  0  0  0
   -9.8036   31.1231   66.7984 C   0  0  0  0  0  0  0  0  0  0  0  0
  -10.3224   30.6777   63.8660 N   0  0  0  0  0  0  0  0  0  0  0  0
   -8.3993   29.1115   66.7512 O   0  0  0  0  0  0  0  0  0  0  0  0
   -7.4700   26.6494   64.1277 O   0  0  0  0  0  0  0  0  0  0  0  0
   -9.6398   28.1404   62.8443 O   0  0  0  0  0  0  0  0  0  0  0  0
  -10.2251   32.2403   66.0543 O   0  0  0  0  0  0  0  0  0  0  0  0
    1.0764   28.3249   68.2783 C   0  0  1  0  0  0  0  0  0  0  0  0
    1.9806   28.3714   69.5405 C   0  0  1  0  0  0  0  0  0  0  0  0
    3.3156   29.1012   69.2133 C   0  0  2  0  0  0  0  0  0  0  0  0
    4.0492   28.3362   68.0842 C   0  0  1  0  0  0  0  0  0  0  0  0
    3.1598   28.2814   66.7906 C   0  0  0  0  0  0  0  0  0  0  0  0
    1.8368   27.5689   67.1434 C   0  0  2  0  0  0  0  0  0  0  0  0
    5.3270   29.0190   67.7687 N   0  0  0  0  0  0  0  0  0  0  0  0
    1.0119   27.5230   65.9312 N   0  0  0  0  0  0  0  0  0  0  0  0
    1.2968   29.0828   70.5958 O   0  0  0  0  0  0  0  0  0  0  0  0
    4.1340   29.1361   70.4036 O   0  0  0  0  0  0  0  0  0  0  0  0
  1  2  1  0  0  0  0
  1 12  1  6  0  0  0
  1 13  1  0  0  0  0
  2  3  1  0  0  0  0
  2 10  1  6  0  0  0
  4  3  1  6  0  0  0
  4  5  1  0  0  0  0
  4 14  1  0  0  0  0
  5  6  1  0  0  0  0
  5 13  1  1  0  0  0
  6  7  1  0  0  0  0
  6 15  1  1  0  0  0
  7  8  1  0  0  0  0
  7 11  1  1  0  0  0
  8 14  1  0  0  0  0
  8 16  1  6  0  0  0
  9 11  1  0  0  0  0
 17 16  1  6  0  0  0
 17 18  1  0  0  0  0
 17 24  1  0  0  0  0
 18 19  1  0  0  0  0
 18 25  1  6  0  0  0
 19 20  1  0  0  0  0
 19 26  1  6  0  0  0
 20 21  1  0  0  0  0
 20 23  1  6  0  0  0
 21 22  1  1  0  0  0
 21 24  1  0  0  0  0
 22 27  1  0  0  0  0
 28 12  1  1  0  0  0
 28 29  1  0  0  0  0
 28 33  1  0  0  0  0
 29 30  1  0  0  0  0
 29 36  1  1  0  0  0
 30 31  1  0  0  0  0
 30 37  1  1  0  0  0
 31 32  1  0  0  0  0
 31 34  1  6  0  0  0
 32 33  1  0  0  0  0
 33 35  1  6  0  0  0
M  END
>  <CHROM.1>
-169.26433899,125.17308494,-163.17508288,65.20843378,-169.47118392,-64.86185097
-3.49522980,28.92902672,67.12098161,0.30996945,0.14999894,2.32847011

>  <Name>
ligand

>  <RI>
0

>  <Rbt.Current_Directory>
/home/itssahil/PROJECTS/Mol_Feturizer/Test_systems_manuscript/rnas/2g5k

>  <Rbt.Executable>
rbdock ($Id: //depot/dev/client3/rdock/2013.1/src/exe/rbdock.cxx#4 $)

>  <Rbt.Library>
libRbt.so (2013.1, Build901 2013/11/27)

>  <Rbt.Parameter_File>
/export/apps/rDock/src/rDock_2013.1_src/data/scripts/dock_solv.prm

>  <Rbt.Receptor>
prm/pocket_docking_7.prm

>  <SCORE>
-10.9412

>  <SCORE.INTER>
-6.86387

>  <SCORE.INTER.CONST>
1

>  <SCORE.INTER.POLAR>
0

>  <SCORE.INTER.ROT>
6

>  <SCORE.INTER.SOLV>
18.901

>  <SCORE.INTER.VDW>
-18.4763

>  <SCORE.INTER.norm>
-0.18551

>  <SCORE.INTRA>
-4.07732

>  <SCORE.INTRA.DIHEDRAL>
-7.5785

>  <SCORE.INTRA.DIHEDRAL.0>
11.3972

>  <SCORE.INTRA.POLAR>
0

>  <SCORE.INTRA.POLAR.0>
0

>  <SCORE.INTRA.REPUL>
0

>  <SCORE.INTRA.REPUL.0>
0

>  <SCORE.INTRA.SOLV>
-0.710016

>  <SCORE.INTRA.SOLV.lig_0>
-92.3891

>  <SCORE.INTRA.VDW>
0.066938

>  <SCORE.INTRA.VDW.0>
-2.90606

>  <SCORE.INTRA.norm>
-0.110198

>  <SCORE.RESTR>
0

>  <SCORE.RESTR.CAVITY>
0

>  <SCORE.RESTR.norm>
0

>  <SCORE.SYSTEM>
0

>  <SCORE.SYSTEM.CONST>
0

>  <SCORE.SYSTEM.DIHEDRAL>
0

>  <SCORE.SYSTEM.SOLV>
0

>  <SCORE.SYSTEM.norm>
0

>  <SCORE.heavy>
37

>  <SCORE.norm>
-0.295708

>  <RMSD>
3.029

$$$$
ligand
 OpenBabel02271912133D
libRbt.so/2013.1/901 2013/11/27
 37 40  0  0  0  0  0  0  0  0999 V2000
   -1.0746   26.6475   68.7686 C   0  0  1  0  0  0  0  0  0  0  0  0
   -2.3752   25.8259   68.5407 C   0  0  1  0  0  0  0  0  0  0  0  0
   -3.3311   26.5213   67.5527 C   0  0  0  0  0  0  0  0  0  0  0  0
   -3.6600   27.9497   68.0882 C   0  0  1  0  0  0  0  0  0  0  0  0
   -2.3517   28.7867   68.2652 C   0  0  1  0  0  0  0  0  0  0  0  0
   -2.7109   30.2406   68.8146 C   0  0  1  0  0  0  0  0  0  0  0  0
   -3.6687   30.9395   67.8057 C   0  0  1  0  0  0  0  0  0  0  0  0
   -4.9360   30.0473   67.6420 C   0  0  2  0  0  0  0  0  0  0  0  0
   -3.0856   33.4479   68.0855 C   0  0  0  0  0  0  0  0  0  0  0  0
   -2.0538   24.4607   68.0738 N   0  0  0  0  0  0  0  0  0  0  0  0
   -4.0440   32.3171   68.2998 N   0  0  0  0  0  0  0  0  0  0  0  0
   -0.2321   26.6841   67.6002 O   0  0  0  0  0  0  0  0  0  0  0  0
   -1.4549   28.0232   69.1833 O   0  0  0  0  0  0  0  0  0  0  0  0
   -4.5892   28.6974   67.1786 O   0  0  0  0  0  0  0  0  0  0  0  0
   -3.3826   30.1293   70.0627 O   0  0  0  0  0  0  0  0  0  0  0  0
   -5.8334   30.6405   66.7104 O   0  0  0  0  0  0  0  0  0  0  0  0
   -7.1149   29.9707   66.6191 C   0  0  2  0  0  0  0  0  0  0  0  0
   -8.1075   30.6975   65.6811 C   0  0  1  0  0  0  0  0  0  0  0  0
   -8.5129   32.0876   66.2691 C   0  0  2  0  0  0  0  0  0  0  0  0
   -9.1712   31.8786   67.6178 C   0  0  1  0  0  0  0  0  0  0  0  0
   -8.1596   31.1721   68.5692 C   0  0  1  0  0  0  0  0  0  0  0  0
   -8.7570   30.9041   69.9492 C   0  0  0  0  0  0  0  0  0  0  0  0
   -9.5790   33.1919   68.1726 N   0  0  0  0  0  0  0  0  0  0  0  0
   -7.7402   29.8672   67.9714 O   0  0  0  0  0  0  0  0  0  0  0  0
   -7.4748   30.8102   64.3869 O   0  0  0  0  0  0  0  0  0  0  0  0
   -9.4411   32.7328   65.3945 O   0  0  0  0  0  0  0  0  0  0  0  0
   -9.8669   30.0495   69.8177 O   0  0  0  0  0  0  0  0  0  0  0  0
    1.2573   26.9452   67.6599 C   0  0  1  0  0  0  0  0  0  0  0  0
    1.8394   26.7838   66.2289 C   0  0  1  0  0  0  0  0  0  0  0  0
    3.3742   27.0407   66.2454 C   0  0  2  0  0  0  0  0  0  0  0  0
    3.6429   28.4801   66.7496 C   0  0  1  0  0  0  0  0  0  0  0  0
    3.0716   28.6692   68.2005 C   0  0  0  0  0  0  0  0  0  0  0  0
    1.5534   28.3937   68.1620 C   0  0  2  0  0  0  0  0  0  0  0  0
    5.1028   28.7388   66.7629 N   0  0  0  0  0  0  0  0  0  0  0  0
    1.0281   28.5709   69.5202 N   0  0  0  0  0  0  0  0  0  0  0  0
    1.5876   25.4420   65.7560 O   0  0  0  0  0  0  0  0  0  0  0  0
    3.8906   26.8783   64.9057 O   0  0  0  0  0  0  0  0  0  0  0  0
  1  2  1  0  0  0  0
  1 12  1  6  0  0  0
  1 13  1  0  0  0  0
  2  3  1  0  0  0  0
  2 10  1  6  0  0  0
  4  3  1  6  0  0  0
  4  5  1  0  0  0  0
  4 14  1  0  0  0  0
  5  6  1  0  0  0  0
  5 13  1  1  0  0  0
  6  7  1  0  0  0  0
  6 15  1  1  0  0  0
  7  8  1  0  0  0  0
  7 11  1  1  0  0  0
  8 14  1  0  0  0  0
  8 16  1  6  0  0  0
  9 11  1  0  0  0  0
 17 16  1  1  0  0  0
 17 18  1  0  0  0  0
 17 24  1  0  0  0  0
 18 19  1  0  0  0  0
 18 25  1  6  0  0  0
 19 20  1  0  0  0  0
 19 26  1  6  0  0  0
 20 21  1  0  0  0  0
 20 23  1  1  0  0  0
 21 22  1  1  0  0  0
 21 24  1  0  0  0  0
 22 27  1  0  0  0  0
 28 12  1  6  0  0  0
 28 29  1  0  0  0  0
 28 33  1  0  0  0  0
 29 30  1  0  0  0  0
 29 36  1  1  0  0  0
 30 31  1  0  0  0  0
 30 37  1  6  0  0  0
 31 32  1  0  0  0  0
 31 34  1  1  0  0  0
 32 33  1  0  0  0  0
 33 35  1  1  0  0  0
M  END
>  <CHROM.1>
-156.76002498,80.81311492,-172.59542082,175.06833325,175.63324422,61.38090486
-3.18873618,29.21530882,67.58921356,0.36366186,-0.10093432,2.97220858

>  <Name>
ligand

>  <RI>
0

>  <Rbt.Current_Directory>
/home/itssahil/PROJECTS/Mol_Feturizer/Test_systems_manuscript/rnas/2g5k

>  <Rbt.Executable>
rbdock ($Id: //depot/dev/client3/rdock/2013.1/src/exe/rbdock.cxx#4 $)

>  <Rbt.Library>
libRbt.so (2013.1, Build901 2013/11/27)

>  <Rbt.Parameter_File>
/export/apps/rDock/src/rDock_2013.1_src/data/scripts/dock_solv.prm

>  <Rbt.Receptor>
prm/pocket_docking_5.prm

>  <SCORE>
-8.5718

>  <SCORE.INTER>
-5.56354

>  <SCORE.INTER.CONST>
1

>  <SCORE.INTER.POLAR>
0

>  <SCORE.INTER.ROT>
6

>  <SCORE.INTER.SOLV>
22.8068

>  <SCORE.INTER.VDW>
-18.9113

>  <SCORE.INTER.norm>
-0.150366

>  <SCORE.INTRA>
-3.00826

>  <SCORE.INTRA.DIHEDRAL>
-8.20319

>  <SCORE.INTRA.DIHEDRAL.0>
11.3972

>  <SCORE.INTRA.POLAR>
0

>  <SCORE.INTRA.POLAR.0>
0

>  <SCORE.INTRA.REPUL>
0

>  <SCORE.INTRA.REPUL.0>
0

>  <SCORE.INTRA.SOLV>
1.39361

>  <SCORE.INTRA.SOLV.lig_0>
-92.3891

>  <SCORE.INTRA.VDW>
0.396525

>  <SCORE.INTRA.VDW.0>
-2.90606

>  <SCORE.INTRA.norm>
-0.0813044

>  <SCORE.RESTR>
0

>  <SCORE.RESTR.CAVITY>
0

>  <SCORE.RESTR.norm>
0

>  <SCORE.SYSTEM>
0

>  <SCORE.SYSTEM.CONST>
0

>  <SCORE.SYSTEM.DIHEDRAL>
0

>  <SCORE.SYSTEM.SOLV>
0

>  <SCORE.SYSTEM.norm>
0

>  <SCORE.heavy>
37

>  <SCORE.norm>
-0.23167

>  <RMSD>
3.110

$$$$
ligand
 OpenBabel02271912133D
libRbt.so/2013.1/901 2013/11/27
 37 40  0  0  0  0  0  0  0  0999 V2000
   -1.1765   26.9841   67.9636 C   0  0  1  0  0  0  0  0  0  0  0  0
   -2.2729   25.9037   68.1855 C   0  0  1  0  0  0  0  0  0  0  0  0
   -3.5594   26.2172   67.3982 C   0  0  0  0  0  0  0  0  0  0  0  0
   -4.0755   27.6297   67.8149 C   0  0  1  0  0  0  0  0  0  0  0  0
   -2.9868   28.7173   67.5402 C   0  0  1  0  0  0  0  0  0  0  0  0
   -3.5343   30.1512   67.9748 C   0  0  1  0  0  0  0  0  0  0  0  0
   -4.8282   30.4639   67.1674 C   0  0  1  0  0  0  0  0  0  0  0  0
   -5.8624   29.3332   67.4512 C   0  0  2  0  0  0  0  0  0  0  0  0
   -4.9387   33.0275   66.8120 C   0  0  0  0  0  0  0  0  0  0  0  0
   -1.7627   24.5630   67.8285 N   0  0  0  0  0  0  0  0  0  0  0  0
   -5.3860   31.8113   67.5628 N   0  0  0  0  0  0  0  0  0  0  0  0
   -0.6501   26.9700   66.6223 O   0  0  0  0  0  0  0  0  0  0  0  0
   -1.7565   28.3144   68.2846 O   0  0  0  0  0  0  0  0  0  0  0  0
   -5.3310   28.0126   67.0891 O   0  0  0  0  0  0  0  0  0  0  0  0
   -3.8640   30.1399   69.3577 O   0  0  0  0  0  0  0  0  0  0  0  0
   -7.0576   29.5691   66.7157 O   0  0  0  0  0  0  0  0  0  0  0  0
   -6.8661   29.6149   65.2803 C   0  0  2  0  0  0  0  0  0  0  0  0
   -8.1302   30.0811   64.5199 C   0  0  1  0  0  0  0  0  0  0  0  0
   -9.2809   29.0325   64.6572 C   0  0  2  0  0  0  0  0  0  0  0  0
   -8.8154   27.7121   64.0777 C   0  0  1  0  0  0  0  0  0  0  0  0
   -7.5592   27.2307   64.8638 C   0  0  1  0  0  0  0  0  0  0  0  0
   -7.0124   25.9106   64.3239 C   0  0  0  0  0  0  0  0  0  0  0  0
   -9.9100   26.7174   64.1840 N   0  0  0  0  0  0  0  0  0  0  0  0
   -6.4837   28.2653   64.7677 O   0  0  0  0  0  0  0  0  0  0  0  0
   -8.4984   31.3752   65.0471 O   0  0  0  0  0  0  0  0  0  0  0  0
  -10.4314   29.4767   63.9347 O   0  0  0  0  0  0  0  0  0  0  0  0
   -5.8883   25.5291   65.0791 O   0  0  0  0  0  0  0  0  0  0  0  0
    0.1425   25.8126   66.0548 C   0  0  1  0  0  0  0  0  0  0  0  0
    0.4870   26.1353   64.5750 C   0  0  1  0  0  0  0  0  0  0  0  0
    1.3012   24.9657   63.9498 C   0  0  2  0  0  0  0  0  0  0  0  0
    2.6120   24.7736   64.7519 C   0  0  1  0  0  0  0  0  0  0  0  0
    2.2930   24.4369   66.2526 C   0  0  0  0  0  0  0  0  0  0  0  0
    1.4723   25.6020   66.8455 C   0  0  2  0  0  0  0  0  0  0  0  0
    3.4000   23.6656   64.1605 N   0  0  0  0  0  0  0  0  0  0  0  0
    1.1775   25.2795   68.2459 N   0  0  0  0  0  0  0  0  0  0  0  0
   -0.7348   26.3170   63.8256 O   0  0  0  0  0  0  0  0  0  0  0  0
    1.6027   25.2879   62.5739 O   0  0  0  0  0  0  0  0  0  0  0  0
  1  2  1  0  0  0  0
  1 12  1  6  0  0  0
  1 13  1  0  0  0  0
  2  3  1  0  0  0  0
  2 10  1  6  0  0  0
  4  3  1  6  0  0  0
  4  5  1  0  0  0  0
  4 14  1  0  0  0  0
  5  6  1  0  0  0  0
  5 13  1  1  0  0  0
  6  7  1  0  0  0  0
  6 15  1  1  0  0  0
  7  8  1  0  0  0  0
  7 11  1  1  0  0  0
  8 14  1  0  0  0  0
  8 16  1  6  0  0  0
  9 11  1  0  0  0  0
 17 16  1  1  0  0  0
 17 18  1  0  0  0  0
 17 24  1  0  0  0  0
 18 19  1  0  0  0  0
 18 25  1  1  0  0  0
 19 20  1  0  0  0  0
 19 26  1  6  0  0  0
 20 21  1  0  0  0  0
 20 23  1  1  0  0  0
 21 22  1  6  0  0  0
 21 24  1  0  0  0  0
 22 27  1  0  0  0  0
 28 12  1  1  0  0  0
 28 29  1  0  0  0  0
 28 33  1  0  0  0  0
 29 30  1  0  0  0  0
 29 36  1  6  0  0  0
 30 31  1  0  0  0  0
 30 37  1  6  0  0  0
 31 32  1  0  0  0  0
 31 34  1  6  0  0  0
 32 33  1  0  0  0  0
 33 35  1  1  0  0  0
M  END
>  <CHROM.1>
-65.63415552,90.41320415,59.90602042,177.73351223,-171.34666063,-179.65341655
-3.66781874,27.62557165,66.03461220,-0.28300238,-0.32670227,0.77580066

>  <Name>
ligand

>  <RI>
0

>  <Rbt.Current_Directory>
/home/itssahil/PROJECTS/Mol_Feturizer/Test_systems_manuscript/rnas/2g5k

>  <Rbt.Executable>
rbdock ($Id: //depot/dev/client3/rdock/2013.1/src/exe/rbdock.cxx#4 $)

>  <Rbt.Library>
libRbt.so (2013.1, Build901 2013/11/27)

>  <Rbt.Parameter_File>
/export/apps/rDock/src/rDock_2013.1_src/data/scripts/dock_solv.prm

>  <Rbt.Receptor>
prm/pocket_docking_3.prm

>  <SCORE>
-9.63308

>  <SCORE.INTER>
-6.4553

>  <SCORE.INTER.CONST>
1

>  <SCORE.INTER.POLAR>
0

>  <SCORE.INTER.ROT>
6

>  <SCORE.INTER.SOLV>
21.5615

>  <SCORE.INTER.VDW>
-19.0907

>  <SCORE.INTER.norm>
-0.174468

>  <SCORE.INTRA>
-3.17896

>  <SCORE.INTRA.DIHEDRAL>
-10.2021

>  <SCORE.INTRA.DIHEDRAL.0>
11.3972

>  <SCORE.INTRA.POLAR>
0

>  <SCORE.INTRA.POLAR.0>
0

>  <SCORE.INTRA.REPUL>
0

>  <SCORE.INTRA.REPUL.0>
0

>  <SCORE.INTRA.SOLV>
4.06566

>  <SCORE.INTRA.SOLV.lig_0>
-92.3891

>  <SCORE.INTRA.VDW>
-0.110727

>  <SCORE.INTRA.VDW.0>
-2.90606

>  <SCORE.INTRA.norm>
-0.0859178

>  <SCORE.RESTR>
0.00118415

>  <SCORE.RESTR.CAVITY>
0.00118415

>  <SCORE.RESTR.norm>
3.20039e-05

>  <SCORE.SYSTEM>
0

>  <SCORE.SYSTEM.CONST>
0

>  <SCORE.SYSTEM.DIHEDRAL>
0

>  <SCORE.SYSTEM.SOLV>
0

>  <SCORE.SYSTEM.norm>
0

>  <SCORE.heavy>
37

>  <SCORE.norm>
-0.260353

>  <RMSD>
3.116

$$$$
ligand
 OpenBabel02271912133D
libRbt.so/2013.1/901 2013/11/27
 37 40  0  0  0  0  0  0  0  0999 V2000
   -2.7053   26.1151   67.9149 C   0  0  1  0  0  0  0  0  0  0  0  0
   -4.2491   25.9355   67.8628 C   0  0  1  0  0  0  0  0  0  0  0  0
   -4.9405   27.0975   67.1245 C   0  0  0  0  0  0  0  0  0  0  0  0
   -4.5581   28.4393   67.8235 C   0  0  1  0  0  0  0  0  0  0  0  0
   -3.0075   28.6372   67.8254 C   0  0  1  0  0  0  0  0  0  0  0  0
   -2.6396   30.0123   68.5456 C   0  0  1  0  0  0  0  0  0  0  0  0
   -3.3338   31.1813   67.7873 C   0  0  1  0  0  0  0  0  0  0  0  0
   -4.8693   30.9150   67.7865 C   0  0  2  0  0  0  0  0  0  0  0  0
   -3.0750   33.7540   67.6296 C   0  0  0  0  0  0  0  0  0  0  0  0
   -4.6024   24.6435   67.2375 N   0  0  0  0  0  0  0  0  0  0  0  0
   -3.0199   32.5023   68.4502 N   0  0  0  0  0  0  0  0  0  0  0  0
   -2.0891   25.9806   66.6192 O   0  0  0  0  0  0  0  0  0  0  0  0
   -2.4072   27.4482   68.5006 O   0  0  0  0  0  0  0  0  0  0  0  0
   -5.1930   29.6259   67.1612 O   0  0  0  0  0  0  0  0  0  0  0  0
   -3.1238   29.9983   69.8823 O   0  0  0  0  0  0  0  0  0  0  0  0
   -5.5443   31.9526   67.0846 O   0  0  0  0  0  0  0  0  0  0  0  0
   -6.9855   31.8057   67.0595 C   0  0  2  0  0  0  0  0  0  0  0  0
   -7.6444   32.5446   65.8708 C   0  0  1  0  0  0  0  0  0  0  0  0
   -7.4819   34.0920   66.0180 C   0  0  2  0  0  0  0  0  0  0  0  0
   -8.1466   34.5366   67.3050 C   0  0  1  0  0  0  0  0  0  0  0  0
   -7.4621   33.8125   68.5029 C   0  0  1  0  0  0  0  0  0  0  0  0
   -8.0924   34.1914   69.8417 C   0  0  0  0  0  0  0  0  0  0  0  0
   -8.0160   36.0074   67.4411 N   0  0  0  0  0  0  0  0  0  0  0  0
   -7.5796   32.3325   68.3244 O   0  0  0  0  0  0  0  0  0  0  0  0
   -7.0390   32.0399   64.6597 O   0  0  0  0  0  0  0  0  0  0  0  0
   -8.1111   34.7532   64.9181 O   0  0  0  0  0  0  0  0  0  0  0  0
   -7.8198   35.5437   70.1181 O   0  0  0  0  0  0  0  0  0  0  0  0
   -0.6312   26.2911   66.3583 C   0  0  1  0  0  0  0  0  0  0  0  0
    0.2149   25.0625   66.7913 C   0  0  1  0  0  0  0  0  0  0  0  0
    1.7257   25.3414   66.5429 C   0  0  2  0  0  0  0  0  0  0  0  0
    1.9507   25.6140   65.0351 C   0  0  1  0  0  0  0  0  0  0  0  0
    1.1124   26.8587   64.5712 C   0  0  0  0  0  0  0  0  0  0  0  0
   -0.3786   26.5655   64.8422 C   0  0  2  0  0  0  0  0  0  0  0  0
    3.3888   25.8742   64.7852 N   0  0  0  0  0  0  0  0  0  0  0  0
   -1.1541   27.7325   64.4077 N   0  0  0  0  0  0  0  0  0  0  0  0
    0.0045   24.8053   68.1973 O   0  0  0  0  0  0  0  0  0  0  0  0
    2.4895   24.1876   66.9592 O   0  0  0  0  0  0  0  0  0  0  0  0
  1  2  1  0  0  0  0
  1 12  1  6  0  0  0
  1 13  1  0  0  0  0
  2  3  1  0  0  0  0
  2 10  1  6  0  0  0
  4  3  1  6  0  0  0
  4  5  1  0  0  0  0
  4 14  1  0  0  0  0
  5  6  1  0  0  0  0
  5 13  1  1  0  0  0
  6  7  1  0  0  0  0
  6 15  1  1  0  0  0
  7  8  1  0  0  0  0
  7 11  1  1  0  0  0
  8 14  1  0  0  0  0
  8 16  1  6  0  0  0
  9 11  1  0  0  0  0
 17 16  1  1  0  0  0
 17 18  1  0  0  0  0
 17 24  1  0  0  0  0
 18 19  1  0  0  0  0
 18 25  1  6  0  0  0
 19 20  1  0  0  0  0
 19 26  1  6  0  0  0
 20 21  1  0  0  0  0
 20 23  1  1  0  0  0
 21 22  1  1  0  0  0
 21 24  1  0  0  0  0
 22 27  1  0  0  0  0
 28 12  1  6  0  0  0
 28 29  1  0  0  0  0
 28 33  1  0  0  0  0
 29 30  1  0  0  0  0
 29 36  1  1  0  0  0
 30 31  1  0  0  0  0
 30 37  1  6  0  0  0
 31 32  1  0  0  0  0
 31 34  1  1  0  0  0
 32 33  1  0  0  0  0
 33 35  1  1  0  0  0
M  END
>  <CHROM.1>
171.54921557,154.72291352,-178.58570514,81.58314235,-156.39053371,-67.44335694
-3.67522034,29.60576249,67.14803326,0.67602631,-0.52303160,2.72911577

>  <Name>
ligand

>  <RI>
0

>  <Rbt.Current_Directory>
/home/itssahil/PROJECTS/Mol_Feturizer/Test_systems_manuscript/rnas/2g5k

>  <Rbt.Executable>
rbdock ($Id: //depot/dev/client3/rdock/2013.1/src/exe/rbdock.cxx#4 $)

>  <Rbt.Library>
libRbt.so (2013.1, Build901 2013/11/27)

>  <Rbt.Parameter_File>
/export/apps/rDock/src/rDock_2013.1_src/data/scripts/dock_solv.prm

>  <Rbt.Receptor>
prm/pocket_docking_5.prm

>  <SCORE>
-9.43372

>  <SCORE.INTER>
-6.14444

>  <SCORE.INTER.CONST>
1

>  <SCORE.INTER.POLAR>
0

>  <SCORE.INTER.ROT>
6

>  <SCORE.INTER.SOLV>
18.7137

>  <SCORE.INTER.VDW>
-17.9342

>  <SCORE.INTER.norm>
-0.166066

>  <SCORE.INTRA>
-3.28928

>  <SCORE.INTRA.DIHEDRAL>
-5.87637

>  <SCORE.INTRA.DIHEDRAL.0>
11.3972

>  <SCORE.INTRA.POLAR>
0

>  <SCORE.INTRA.POLAR.0>
0

>  <SCORE.INTRA.REPUL>
0

>  <SCORE.INTRA.REPUL.0>
0

>  <SCORE.INTRA.SOLV>
-0.61679

>  <SCORE.INTRA.SOLV.lig_0>
-92.3891

>  <SCORE.INTRA.VDW>
-0.0426954

>  <SCORE.INTRA.VDW.0>
-2.90606

>  <SCORE.INTRA.norm>
-0.0888994

>  <SCORE.RESTR>
0

>  <SCORE.RESTR.CAVITY>
0

>  <SCORE.RESTR.norm>
0

>  <SCORE.SYSTEM>
0

>  <SCORE.SYSTEM.CONST>
0

>  <SCORE.SYSTEM.DIHEDRAL>
0

>  <SCORE.SYSTEM.SOLV>
0

>  <SCORE.SYSTEM.norm>
0

>  <SCORE.heavy>
37

>  <SCORE.norm>
-0.254965

>  <RMSD>
3.426

$$$$
ligand
 OpenBabel02271912133D
libRbt.so/2013.1/901 2013/11/27
 37 40  0  0  0  0  0  0  0  0999 V2000
   -1.3060   28.8059   67.6098 C   0  0  1  0  0  0  0  0  0  0  0  0
   -1.8961   29.2192   68.9880 C   0  0  1  0  0  0  0  0  0  0  0  0
   -3.4361   29.1794   68.9916 C   0  0  0  0  0  0  0  0  0  0  0  0
   -3.9684   30.1078   67.8558 C   0  0  1  0  0  0  0  0  0  0  0  0
   -3.4122   29.6540   66.4672 C   0  0  1  0  0  0  0  0  0  0  0  0
   -3.9667   30.6169   65.3226 C   0  0  1  0  0  0  0  0  0  0  0  0
   -5.5226   30.5628   65.3268 C   0  0  1  0  0  0  0  0  0  0  0  0
   -6.0191   30.9901   66.7409 C   0  0  2  0  0  0  0  0  0  0  0  0
   -6.0153   32.9571   64.4694 C   0  0  0  0  0  0  0  0  0  0  0  0
   -1.3549   28.3623   70.0642 N   0  0  0  0  0  0  0  0  0  0  0  0
   -6.0867   31.4754   64.2629 N   0  0  0  0  0  0  0  0  0  0  0  0
   -1.5139   27.4107   67.3155 O   0  0  0  0  0  0  0  0  0  0  0  0
   -1.9218   29.6597   66.5605 O   0  0  0  0  0  0  0  0  0  0  0  0
   -5.4667   30.1244   67.7910 O   0  0  0  0  0  0  0  0  0  0  0  0
   -3.5667   31.9554   65.5862 O   0  0  0  0  0  0  0  0  0  0  0  0
   -7.4401   30.9363   66.7961 O   0  0  0  0  0  0  0  0  0  0  0  0
   -7.9958   31.3480   68.0693 C   0  0  2  0  0  0  0  0  0  0  0  0
   -9.5046   31.0312   68.1971 C   0  0  1  0  0  0  0  0  0  0  0  0
  -10.3402   31.8861   67.1904 C   0  0  2  0  0  0  0  0  0  0  0  0
  -10.1174   33.3549   67.4886 C   0  0  1  0  0  0  0  0  0  0  0  0
   -8.6012   33.6775   67.3313 C   0  0  1  0  0  0  0  0  0  0  0  0
   -8.2885   35.1409   67.6380 C   0  0  0  0  0  0  0  0  0  0  0  0
  -10.9246   34.1729   66.5514 N   0  0  0  0  0  0  0  0  0  0  0  0
   -7.8087   32.8170   68.2627 O   0  0  0  0  0  0  0  0  0  0  0  0
   -9.6674   29.6116   67.9818 O   0  0  0  0  0  0  0  0  0  0  0  0
  -11.7304   31.5883   67.3375 O   0  0  0  0  0  0  0  0  0  0  0  0
   -6.9030   35.3552   67.5198 O   0  0  0  0  0  0  0  0  0  0  0  0
   -0.8656   26.7050   66.1442 C   0  0  1  0  0  0  0  0  0  0  0  0
   -1.2987   27.4265   64.8386 C   0  0  1  0  0  0  0  0  0  0  0  0
   -0.6556   26.7286   63.6053 C   0  0  2  0  0  0  0  0  0  0  0  0
    0.8864   26.7857   63.7360 C   0  0  1  0  0  0  0  0  0  0  0  0
    1.3538   26.0547   65.0454 C   0  0  0  0  0  0  0  0  0  0  0  0
    0.6912   26.7533   66.2519 C   0  0  2  0  0  0  0  0  0  0  0  0
    1.5105   26.1295   62.5621 N   0  0  0  0  0  0  0  0  0  0  0  0
    1.1315   26.0643   67.4698 N   0  0  0  0  0  0  0  0  0  0  0  0
   -2.7374   27.3762   64.7160 O   0  0  0  0  0  0  0  0  0  0  0  0
   -1.0788   27.4141   62.4058 O   0  0  0  0  0  0  0  0  0  0  0  0
  1  2  1  0  0  0  0
  1 12  1  6  0  0  0
  1 13  1  0  0  0  0
  2  3  1  0  0  0  0
  2 10  1  1  0  0  0
  4  3  1  1  0  0  0
  4  5  1  0  0  0  0
  4 14  1  0  0  0  0
  5  6  1  0  0  0  0
  5 13  1  1  0  0  0
  6  7  1  0  0  0  0
  6 15  1  1  0  0  0
  7  8  1  0  0  0  0
  7 11  1  6  0  0  0
  8 14  1  0  0  0  0
  8 16  1  6  0  0  0
  9 11  1  0  0  0  0
 17 16  1  6  0  0  0
 17 18  1  0  0  0  0
 17 24  1  0  0  0  0
 18 19  1  0  0  0  0
 18 25  1  6  0  0  0
 19 20  1  0  0  0  0
 19 26  1  1  0  0  0
 20 21  1  0  0  0  0
 20 23  1  6  0  0  0
 21 22  1  1  0  0  0
 21 24  1  0  0  0  0
 22 27  1  0  0  0  0
 28 12  1  1  0  0  0
 28 29  1  0  0  0  0
 28 33  1  0  0  0  0
 29 30  1  0  0  0  0
 29 36  1  6  0  0  0
 30 31  1  0  0  0  0
 30 37  1  6  0  0  0
 31 32  1  0  0  0  0
 31 34  1  6  0  0  0
 32 33  1  0  0  0  0
 33 35  1  1  0  0  0
M  END
>  <CHROM.1>
-170.60807442,-72.20747583,-178.66253938,-58.90297226,-169.17607197,178.12875111
-4.52935170,30.01514677,66.49756225,-0.13367760,-0.57678538,1.65929983

>  <Name>
ligand

>  <RI>
0

>  <Rbt.Current_Directory>
/home/itssahil/PROJECTS/Mol_Feturizer/Test_systems_manuscript/rnas/2g5k

>  <Rbt.Executable>
rbdock ($Id: //depot/dev/client3/rdock/2013.1/src/exe/rbdock.cxx#4 $)

>  <Rbt.Library>
libRbt.so (2013.1, Build901 2013/11/27)

>  <Rbt.Parameter_File>
/export/apps/rDock/src/rDock_2013.1_src/data/scripts/dock_solv.prm

>  <Rbt.Receptor>
prm/pocket_docking_5.prm

>  <SCORE>
-8.49681

>  <SCORE.INTER>
-4.20886

>  <SCORE.INTER.CONST>
1

>  <SCORE.INTER.POLAR>
0

>  <SCORE.INTER.ROT>
6

>  <SCORE.INTER.SOLV>
17.4513

>  <SCORE.INTER.VDW>
-16.223

>  <SCORE.INTER.norm>
-0.113753

>  <SCORE.INTRA>
-4.28795

>  <SCORE.INTRA.DIHEDRAL>
-10.226

>  <SCORE.INTRA.DIHEDRAL.0>
11.3972

>  <SCORE.INTRA.POLAR>
0

>  <SCORE.INTRA.POLAR.0>
0

>  <SCORE.INTRA.REPUL>
0

>  <SCORE.INTRA.REPUL.0>
0

>  <SCORE.INTRA.SOLV>
-0.607652

>  <SCORE.INTRA.SOLV.lig_0>
-92.3891

>  <SCORE.INTRA.VDW>
1.12885

>  <SCORE.INTRA.VDW.0>
-2.90606

>  <SCORE.INTRA.norm>
-0.115891

>  <SCORE.RESTR>
0

>  <SCORE.RESTR.CAVITY>
0

>  <SCORE.RESTR.norm>
0

>  <SCORE.SYSTEM>
0

>  <SCORE.SYSTEM.CONST>
0

>  <SCORE.SYSTEM.DIHEDRAL>
0

>  <SCORE.SYSTEM.SOLV>
0

>  <SCORE.SYSTEM.norm>
0

>  <SCORE.heavy>
37

>  <SCORE.norm>
-0.229643

>  <RMSD>
3.426

$$$$
ligand
 OpenBabel02271912133D
libRbt.so/2013.1/901 2013/11/27
 37 40  0  0  0  0  0  0  0  0999 V2000
   -0.8679   26.7639   68.8043 C   0  0  1  0  0  0  0  0  0  0  0  0
   -2.0789   25.7902   68.8672 C   0  0  1  0  0  0  0  0  0  0  0  0
   -3.2327   26.2449   67.9532 C   0  0  0  0  0  0  0  0  0  0  0  0
   -3.6579   27.6910   68.3573 C   0  0  1  0  0  0  0  0  0  0  0  0
   -2.4478   28.6737   68.2414 C   0  0  1  0  0  0  0  0  0  0  0  0
   -2.9040   30.1438   68.6605 C   0  0  1  0  0  0  0  0  0  0  0  0
   -4.0628   30.5989   67.7257 C   0  0  1  0  0  0  0  0  0  0  0  0
   -5.2241   29.5677   67.8553 C   0  0  2  0  0  0  0  0  0  0  0  0
   -3.8340   33.1702   67.5112 C   0  0  0  0  0  0  0  0  0  0  0  0
   -1.6597   24.4148   68.5242 N   0  0  0  0  0  0  0  0  0  0  0  0
   -4.5329   31.9846   68.1019 N   0  0  0  0  0  0  0  0  0  0  0  0
   -0.1965   26.7293   67.5298 O   0  0  0  0  0  0  0  0  0  0  0  0
   -1.3531   28.1365   69.1034 O   0  0  0  0  0  0  0  0  0  0  0  0
   -4.7814   28.2103   67.5102 O   0  0  0  0  0  0  0  0  0  0  0  0
   -3.3879   30.1331   69.9972 O   0  0  0  0  0  0  0  0  0  0  0  0
   -6.3007   29.9351   67.0004 O   0  0  0  0  0  0  0  0  0  0  0  0
   -5.9583   29.9430   65.5926 C   0  0  2  0  0  0  0  0  0  0  0  0
   -7.0548   30.5862   64.7109 C   0  0  1  0  0  0  0  0  0  0  0  0
   -8.3556   29.7202   64.7201 C   0  0  2  0  0  0  0  0  0  0  0  0
   -8.0333   28.3418   64.1795 C   0  0  1  0  0  0  0  0  0  0  0  0
   -6.9494   27.6850   65.0859 C   0  0  1  0  0  0  0  0  0  0  0  0
   -6.5511   26.2951   64.5931 C   0  0  0  0  0  0  0  0  0  0  0  0
   -9.2678   27.5206   64.1642 N   0  0  0  0  0  0  0  0  0  0  0  0
   -5.7288   28.5485   65.1098 O   0  0  0  0  0  0  0  0  0  0  0  0
   -7.2800   31.9238   65.2092 O   0  0  0  0  0  0  0  0  0  0  0  0
   -9.3476   30.3250   63.8875 O   0  0  0  0  0  0  0  0  0  0  0  0
   -5.5459   25.7755   65.4292 O   0  0  0  0  0  0  0  0  0  0  0  0
    1.3065   26.8251   67.3816 C   0  0  1  0  0  0  0  0  0  0  0  0
    1.6676   26.5725   65.8921 C   0  0  1  0  0  0  0  0  0  0  0  0
    3.2089   26.6584   65.6952 C   0  0  2  0  0  0  0  0  0  0  0  0
    3.6962   28.0688   66.1095 C   0  0  1  0  0  0  0  0  0  0  0  0
    3.3513   28.3481   67.6162 C   0  0  0  0  0  0  0  0  0  0  0  0
    1.8213   28.2415   67.7899 C   0  0  2  0  0  0  0  0  0  0  0  0
    5.1635   28.1647   65.9193 N   0  0  0  0  0  0  0  0  0  0  0  0
    1.5078   28.5022   69.1990 N   0  0  0  0  0  0  0  0  0  0  0  0
    1.2118   25.2579   65.5032 O   0  0  0  0  0  0  0  0  0  0  0  0
    3.5178   26.4139   64.3050 O   0  0  0  0  0  0  0  0  0  0  0  0
  1  2  1  0  0  0  0
  1 12  1  6  0  0  0
  1 13  1  0  0  0  0
  2  3  1  0  0  0  0
  2 10  1  6  0  0  0
  4  3  1  6  0  0  0
  4  5  1  0  0  0  0
  4 14  1  0  0  0  0
  5  6  1  0  0  0  0
  5 13  1  1  0  0  0
  6  7  1  0  0  0  0
  6 15  1  1  0  0  0
  7  8  1  0  0  0  0
  7 11  1  1  0  0  0
  8 14  1  0  0  0  0
  8 16  1  6  0  0  0
  9 11  1  0  0  0  0
 17 16  1  1  0  0  0
 17 18  1  0  0  0  0
 17 24  1  0  0  0  0
 18 19  1  0  0  0  0
 18 25  1  1  0  0  0
 19 20  1  0  0  0  0
 19 26  1  6  0  0  0
 20 21  1  0  0  0  0
 20 23  1  1  0  0  0
 21 22  1  6  0  0  0
 21 24  1  0  0  0  0
 22 27  1  0  0  0  0
 28 12  1  6  0  0  0
 28 29  1  0  0  0  0
 28 33  1  0  0  0  0
 29 30  1  0  0  0  0
 29 36  1  1  0  0  0
 30 31  1  0  0  0  0
 30 37  1  6  0  0  0
 31 32  1  0  0  0  0
 31 34  1  1  0  0  0
 32 33  1  0  0  0  0
 33 35  1  1  0  0  0
M  END
>  <CHROM.1>
-141.76851752,86.63520968,62.23062863,172.92278041,-169.59706576,178.32367007
-2.85153515,28.32979043,66.73812964,-0.12136213,-0.25604715,0.55462379

>  <Name>
ligand

>  <RI>
0

>  <Rbt.Current_Directory>
/home/itssahil/PROJECTS/Mol_Feturizer/Test_systems_manuscript/rnas/2g5k

>  <Rbt.Executable>
rbdock ($Id: //depot/dev/client3/rdock/2013.1/src/exe/rbdock.cxx#4 $)

>  <Rbt.Library>
libRbt.so (2013.1, Build901 2013/11/27)

>  <Rbt.Parameter_File>
/export/apps/rDock/src/rDock_2013.1_src/data/scripts/dock_solv.prm

>  <Rbt.Receptor>
prm/pocket_docking_5.prm

>  <SCORE>
-8.47397

>  <SCORE.INTER>
-6.41433

>  <SCORE.INTER.CONST>
1

>  <SCORE.INTER.POLAR>
0

>  <SCORE.INTER.ROT>
6

>  <SCORE.INTER.SOLV>
19.9103

>  <SCORE.INTER.VDW>
-18.513

>  <SCORE.INTER.norm>
-0.17336

>  <SCORE.INTRA>
-2.05965

>  <SCORE.INTRA.DIHEDRAL>
-4.97146

>  <SCORE.INTRA.DIHEDRAL.0>
11.3972

>  <SCORE.INTRA.POLAR>
0

>  <SCORE.INTRA.POLAR.0>
0

>  <SCORE.INTRA.REPUL>
0

>  <SCORE.INTRA.REPUL.0>
0

>  <SCORE.INTRA.SOLV>
1.25479

>  <SCORE.INTRA.SOLV.lig_0>
-92.3891

>  <SCORE.INTRA.VDW>
-0.201311

>  <SCORE.INTRA.VDW.0>
-2.90606

>  <SCORE.INTRA.norm>
-0.0556661

>  <SCORE.RESTR>
0

>  <SCORE.RESTR.CAVITY>
0

>  <SCORE.RESTR.norm>
0

>  <SCORE.SYSTEM>
0

>  <SCORE.SYSTEM.CONST>
0

>  <SCORE.SYSTEM.DIHEDRAL>
0

>  <SCORE.SYSTEM.SOLV>
0

>  <SCORE.SYSTEM.norm>
0

>  <SCORE.heavy>
37

>  <SCORE.norm>
-0.229026

>  <RMSD>
3.443

$$$$
ligand
 OpenBabel02271912133D
libRbt.so/2013.1/901 2013/11/27
 37 40  0  0  0  0  0  0  0  0999 V2000
   -0.5917   28.9350   69.2145 C   0  0  1  0  0  0  0  0  0  0  0  0
   -1.7782   28.3589   70.0384 C   0  0  1  0  0  0  0  0  0  0  0  0
   -3.1277   28.5561   69.3219 C   0  0  0  0  0  0  0  0  0  0  0  0
   -3.3318   30.0771   69.0383 C   0  0  1  0  0  0  0  0  0  0  0  0
   -2.1617   30.6368   68.1659 C   0  0  1  0  0  0  0  0  0  0  0  0
   -2.3895   32.1914   67.8902 C   0  0  1  0  0  0  0  0  0  0  0  0
   -3.7501   32.3805   67.1574 C   0  0  1  0  0  0  0  0  0  0  0  0
   -4.8722   31.7756   68.0539 C   0  0  2  0  0  0  0  0  0  0  0  0
   -3.2831   34.5142   65.7647 C   0  0  0  0  0  0  0  0  0  0  0  0
   -1.5575   26.9285   70.3391 N   0  0  0  0  0  0  0  0  0  0  0  0
   -4.0086   33.8451   66.8912 N   0  0  0  0  0  0  0  0  0  0  0  0
   -0.3394   28.1851   68.0102 O   0  0  0  0  0  0  0  0  0  0  0  0
   -0.8887   30.3557   68.8942 O   0  0  0  0  0  0  0  0  0  0  0  0
   -4.6287   30.3553   68.3382 O   0  0  0  0  0  0  0  0  0  0  0  0
   -2.4470   32.8942   69.1248 O   0  0  0  0  0  0  0  0  0  0  0  0
   -6.1351   31.9096   67.4119 O   0  0  0  0  0  0  0  0  0  0  0  0
   -7.2633   31.5712   68.2556 C   0  0  2  0  0  0  0  0  0  0  0  0
   -8.5840   31.4256   67.4633 C   0  0  1  0  0  0  0  0  0  0  0  0
   -9.0298   32.7996   66.8668 C   0  0  2  0  0  0  0  0  0  0  0  0
   -9.2400   33.7833   68.0000 C   0  0  1  0  0  0  0  0  0  0  0  0
   -7.9009   33.9497   68.7789 C   0  0  1  0  0  0  0  0  0  0  0  0
   -8.0351   34.9131   69.9567 C   0  0  0  0  0  0  0  0  0  0  0  0
   -9.6848   35.0838   67.4436 N   0  0  0  0  0  0  0  0  0  0  0  0
   -7.4585   32.6200   69.3007 O   0  0  0  0  0  0  0  0  0  0  0  0
   -8.3671   30.4262   66.4423 O   0  0  0  0  0  0  0  0  0  0  0  0
  -10.2586   32.6436   66.1535 O   0  0  0  0  0  0  0  0  0  0  0  0
   -8.2780   36.2109   69.4708 O   0  0  0  0  0  0  0  0  0  0  0  0
    0.7871   28.5084   67.0529 C   0  0  1  0  0  0  0  0  0  0  0  0
    2.1351   28.2371   67.7754 C   0  0  1  0  0  0  0  0  0  0  0  0
    3.3241   28.5613   66.8251 C   0  0  2  0  0  0  0  0  0  0  0  0
    3.2270   27.6649   65.5660 C   0  0  1  0  0  0  0  0  0  0  0  0
    1.8752   27.9253   64.8097 C   0  0  0  0  0  0  0  0  0  0  0  0
    0.7127   27.6131   65.7759 C   0  0  2  0  0  0  0  0  0  0  0  0
    4.3596   27.9602   64.6558 N   0  0  0  0  0  0  0  0  0  0  0  0
   -0.5453   27.8599   65.0629 N   0  0  0  0  0  0  0  0  0  0  0  0
    2.2265   29.0709   68.9517 O   0  0  0  0  0  0  0  0  0  0  0  0
    4.5638   28.3068   67.5224 O   0  0  0  0  0  0  0  0  0  0  0  0
  1  2  1  0  0  0  0
  1 12  1  6  0  0  0
  1 13  1  0  0  0  0
  2  3  1  0  0  0  0
  2 10  1  6  0  0  0
  4  3  1  6  0  0  0
  4  5  1  0  0  0  0
  4 14  1  0  0  0  0
  5  6  1  0  0  0  0
  5 13  1  1  0  0  0
  6  7  1  0  0  0  0
  6 15  1  1  0  0  0
  7  8  1  0  0  0  0
  7 11  1  1  0  0  0
  8 14  1  0  0  0  0
  8 16  1  6  0  0  0
  9 11  1  0  0  0  0
 17 16  1  6  0  0  0
 17 18  1  0  0  0  0
 17 24  1  0  0  0  0
 18 19  1  0  0  0  0
 18 25  1  6  0  0  0
 19 20  1  0  0  0  0
 19 26  1  1  0  0  0
 20 21  1  0  0  0  0
 20 23  1  6  0  0  0
 21 22  1  1  0  0  0
 21 24  1  0  0  0  0
 22 27  1  0  0  0  0
 28 12  1  1  0  0  0
 28 29  1  0  0  0  0
 28 33  1  0  0  0  0
 29 30  1  0  0  0  0
 29 36  1  1  0  0  0
 30 31  1  0  0  0  0
 30 37  1  1  0  0  0
 31 32  1  0  0  0  0
 31 34  1  6  0  0  0
 32 33  1  0  0  0  0
 33 35  1  6  0  0  0
M  END
>  <CHROM.1>
-177.98675386,77.03580924,-170.66954137,66.37955014,-167.49823396,-66.59038546
-3.18825703,30.81765937,67.73666072,0.37595082,-0.30489756,2.66975968

>  <Name>
ligand

>  <RI>
0

>  <Rbt.Current_Directory>
/home/itssahil/PROJECTS/Mol_Feturizer/Test_systems_manuscript/rnas/2g5k

>  <Rbt.Executable>
rbdock ($Id: //depot/dev/client3/rdock/2013.1/src/exe/rbdock.cxx#4 $)

>  <Rbt.Library>
libRbt.so (2013.1, Build901 2013/11/27)

>  <Rbt.Parameter_File>
/export/apps/rDock/src/rDock_2013.1_src/data/scripts/dock_solv.prm

>  <Rbt.Receptor>
prm/pocket_docking_8.prm

>  <SCORE>
-14.2613

>  <SCORE.INTER>
-9.51358

>  <SCORE.INTER.CONST>
1

>  <SCORE.INTER.POLAR>
0

>  <SCORE.INTER.ROT>
6

>  <SCORE.INTER.SOLV>
19.0462

>  <SCORE.INTER.VDW>
-20.2911

>  <SCORE.INTER.norm>
-0.257124

>  <SCORE.INTRA>
-4.74773

>  <SCORE.INTRA.DIHEDRAL>
-9.60205

>  <SCORE.INTRA.DIHEDRAL.0>
11.3972

>  <SCORE.INTRA.POLAR>
0

>  <SCORE.INTRA.POLAR.0>
0

>  <SCORE.INTRA.REPUL>
0

>  <SCORE.INTRA.REPUL.0>
0

>  <SCORE.INTRA.SOLV>
-0.864542

>  <SCORE.INTRA.SOLV.lig_0>
-92.3891

>  <SCORE.INTRA.VDW>
0.485562

>  <SCORE.INTRA.VDW.0>
-2.90606

>  <SCORE.INTRA.norm>
-0.128317

>  <SCORE.RESTR>
0

>  <SCORE.RESTR.CAVITY>
0

>  <SCORE.RESTR.norm>
0

>  <SCORE.SYSTEM>
0

>  <SCORE.SYSTEM.CONST>
0

>  <SCORE.SYSTEM.DIHEDRAL>
0

>  <SCORE.SYSTEM.SOLV>
0

>  <SCORE.SYSTEM.norm>
0

>  <SCORE.heavy>
37

>  <SCORE.norm>
-0.385441

>  <RMSD>
3.637

$$$$
ligand
 OpenBabel02271912133D
libRbt.so/2013.1/901 2013/11/27
 37 40  0  0  0  0  0  0  0  0999 V2000
   -0.6909   28.1535   69.4776 C   0  0  1  0  0  0  0  0  0  0  0  0
   -2.0417   27.5681   69.9790 C   0  0  1  0  0  0  0  0  0  0  0  0
   -3.1962   27.8633   69.0027 C   0  0  0  0  0  0  0  0  0  0  0  0
   -3.3000   29.4064   68.7944 C   0  0  1  0  0  0  0  0  0  0  0  0
   -1.9549   29.9794   68.2410 C   0  0  1  0  0  0  0  0  0  0  0  0
   -2.0828   31.5564   68.0377 C   0  0  1  0  0  0  0  0  0  0  0  0
   -3.2447   31.8450   67.0425 C   0  0  1  0  0  0  0  0  0  0  0  0
   -4.5492   31.2236   67.6263 C   0  0  2  0  0  0  0  0  0  0  0  0
   -2.4673   34.0398   65.9074 C   0  0  0  0  0  0  0  0  0  0  0  0
   -1.9235   26.1135   70.2142 N   0  0  0  0  0  0  0  0  0  0  0  0
   -3.4066   33.3328   66.8351 N   0  0  0  0  0  0  0  0  0  0  0  0
   -0.1967   27.4774   68.3051 O   0  0  0  0  0  0  0  0  0  0  0  0
   -0.8793   29.6027   69.2060 O   0  0  0  0  0  0  0  0  0  0  0  0
   -4.4051   29.7793   67.8514 O   0  0  0  0  0  0  0  0  0  0  0  0
   -2.3947   32.1763   69.2786 O   0  0  0  0  0  0  0  0  0  0  0  0
   -5.6371   31.4474   66.7367 O   0  0  0  0  0  0  0  0  0  0  0  0
   -5.4058   30.9640   65.3906 C   0  0  2  0  0  0  0  0  0  0  0  0
   -6.5476   31.3343   64.4145 C   0  0  1  0  0  0  0  0  0  0  0  0
   -7.8699   30.5950   64.7985 C   0  0  2  0  0  0  0  0  0  0  0  0
   -7.6336   29.0996   64.7369 C   0  0  1  0  0  0  0  0  0  0  0  0
   -6.5029   28.7254   65.7416 C   0  0  1  0  0  0  0  0  0  0  0  0
   -6.1875   27.2310   65.7239 C   0  0  0  0  0  0  0  0  0  0  0  0
   -8.8903   28.3906   65.0785 N   0  0  0  0  0  0  0  0  0  0  0  0
   -5.2580   29.4779   65.3946 O   0  0  0  0  0  0  0  0  0  0  0  0
   -6.6916   32.7718   64.4441 O   0  0  0  0  0  0  0  0  0  0  0  0
   -8.9048   30.9399   63.8749 O   0  0  0  0  0  0  0  0  0  0  0  0
   -7.2878   26.5173   66.2330 O   0  0  0  0  0  0  0  0  0  0  0  0
    1.2680   27.4373   67.9268 C   0  0  1  0  0  0  0  0  0  0  0  0
    1.4190   26.5658   66.6499 C   0  0  1  0  0  0  0  0  0  0  0  0
    2.9150   26.4945   66.2270 C   0  0  2  0  0  0  0  0  0  0  0  0
    3.4292   27.9259   65.9353 C   0  0  1  0  0  0  0  0  0  0  0  0
    3.2962   28.8282   67.2141 C   0  0  0  0  0  0  0  0  0  0  0  0
    1.8085   28.8704   67.6235 C   0  0  2  0  0  0  0  0  0  0  0  0
    4.8526   27.8697   65.5242 N   0  0  0  0  0  0  0  0  0  0  0  0
    1.6930   29.7134   68.8185 N   0  0  0  0  0  0  0  0  0  0  0  0
    0.9377   25.2305   66.9195 O   0  0  0  0  0  0  0  0  0  0  0  0
    3.0283   25.6744   65.0428 O   0  0  0  0  0  0  0  0  0  0  0  0
  1  2  1  0  0  0  0
  1 12  1  6  0  0  0
  1 13  1  0  0  0  0
  2  3  1  0  0  0  0
  2 10  1  6  0  0  0
  4  3  1  6  0  0  0
  4  5  1  0  0  0  0
  4 14  1  0  0  0  0
  5  6  1  0  0  0  0
  5 13  1  1  0  0  0
  6  7  1  0  0  0  0
  6 15  1  1  0  0  0
  7  8  1  0  0  0  0
  7 11  1  1  0  0  0
  8 14  1  0  0  0  0
  8 16  1  6  0  0  0
  9 11  1  0  0  0  0
 17 16  1  1  0  0  0
 17 18  1  0  0  0  0
 17 24  1  0  0  0  0
 18 19  1  0  0  0  0
 18 25  1  1  0  0  0
 19 20  1  0  0  0  0
 19 26  1  6  0  0  0
 20 21  1  0  0  0  0
 20 23  1  1  0  0  0
 21 22  1  6  0  0  0
 21 24  1  0  0  0  0
 22 27  1  0  0  0  0
 28 12  1  6  0  0  0
 28 29  1  0  0  0  0
 28 33  1  0  0  0  0
 29 30  1  0  0  0  0
 29 36  1  1  0  0  0
 30 31  1  0  0  0  0
 30 37  1  6  0  0  0
 31 32  1  0  0  0  0
 31 34  1  1  0  0  0
 32 33  1  0  0  0  0
 33 35  1  1  0  0  0
M  END
>  <CHROM.1>
-155.16352390,79.20734774,55.35002916,177.31597989,-174.74421503,-67.30638651
-2.60563682,29.25506311,66.91096920,0.29007314,0.22752344,-3.05474370

>  <Name>
ligand

>  <RI>
0

>  <Rbt.Current_Directory>
/home/itssahil/PROJECTS/Mol_Feturizer/Test_systems_manuscript/rnas/2g5k

>  <Rbt.Executable>
rbdock ($Id: //depot/dev/client3/rdock/2013.1/src/exe/rbdock.cxx#4 $)

>  <Rbt.Library>
libRbt.so (2013.1, Build901 2013/11/27)

>  <Rbt.Parameter_File>
/export/apps/rDock/src/rDock_2013.1_src/data/scripts/dock_solv.prm

>  <Rbt.Receptor>
prm/pocket_docking_5.prm

>  <SCORE>
-10.7711

>  <SCORE.INTER>
-8.58656

>  <SCORE.INTER.CONST>
1

>  <SCORE.INTER.POLAR>
0

>  <SCORE.INTER.ROT>
6

>  <SCORE.INTER.SOLV>
15.8622

>  <SCORE.INTER.VDW>
-18.6118

>  <SCORE.INTER.norm>
-0.232069

>  <SCORE.INTRA>
-2.18459

>  <SCORE.INTRA.DIHEDRAL>
-7.98257

>  <SCORE.INTRA.DIHEDRAL.0>
11.3972

>  <SCORE.INTRA.POLAR>
0

>  <SCORE.INTRA.POLAR.0>
0

>  <SCORE.INTRA.REPUL>
0

>  <SCORE.INTRA.REPUL.0>
0

>  <SCORE.INTRA.SOLV>
2.41135

>  <SCORE.INTRA.SOLV.lig_0>
-92.3891

>  <SCORE.INTRA.VDW>
0.601022

>  <SCORE.INTRA.VDW.0>
-2.90606

>  <SCORE.INTRA.norm>
-0.0590429

>  <SCORE.RESTR>
0

>  <SCORE.RESTR.CAVITY>
0

>  <SCORE.RESTR.norm>
0

>  <SCORE.SYSTEM>
0

>  <SCORE.SYSTEM.CONST>
0

>  <SCORE.SYSTEM.DIHEDRAL>
0

>  <SCORE.SYSTEM.SOLV>
0

>  <SCORE.SYSTEM.norm>
0

>  <SCORE.heavy>
37

>  <SCORE.norm>
-0.291112

>  <RMSD>
3.638

$$$$
ligand
 OpenBabel02271912133D
libRbt.so/2013.1/901 2013/11/27
 37 40  0  0  0  0  0  0  0  0999 V2000
   -0.8386   29.4734   68.4600 C   0  0  1  0  0  0  0  0  0  0  0  0
   -1.7741   28.7550   69.4736 C   0  0  1  0  0  0  0  0  0  0  0  0
   -3.2337   28.7137   68.9824 C   0  0  0  0  0  0  0  0  0  0  0  0
   -3.7179   30.1726   68.7135 C   0  0  1  0  0  0  0  0  0  0  0  0
   -2.8036   30.8704   67.6549 C   0  0  1  0  0  0  0  0  0  0  0  0
   -3.3151   32.3592   67.3971 C   0  0  1  0  0  0  0  0  0  0  0  0
   -4.7867   32.3074   66.8917 C   0  0  1  0  0  0  0  0  0  0  0  0
   -5.6434   31.5734   67.9669 C   0  0  2  0  0  0  0  0  0  0  0  0
   -4.8799   34.4347   65.4164 C   0  0  0  0  0  0  0  0  0  0  0  0
   -1.2852   27.3887   69.7554 N   0  0  0  0  0  0  0  0  0  0  0  0
   -5.3124   33.7031   66.6496 N   0  0  0  0  0  0  0  0  0  0  0  0
   -0.6641   28.7239   67.2418 O   0  0  0  0  0  0  0  0  0  0  0  0
   -1.4034   30.8176   68.1713 O   0  0  0  0  0  0  0  0  0  0  0  0
   -5.1366   30.2199   68.2288 O   0  0  0  0  0  0  0  0  0  0  0  0
   -3.2876   33.0934   68.6142 O   0  0  0  0  0  0  0  0  0  0  0  0
   -6.9968   31.4858   67.5361 O   0  0  0  0  0  0  0  0  0  0  0  0
   -7.9605   31.4916   68.6179 C   0  0  2  0  0  0  0  0  0  0  0  0
   -9.3729   31.0494   68.1671 C   0  0  1  0  0  0  0  0  0  0  0  0
   -9.9929   32.0894   67.1791 C   0  0  2  0  0  0  0  0  0  0  0  0
  -10.0950   33.4308   67.8764 C   0  0  1  0  0  0  0  0  0  0  0  0
   -8.6679   33.8872   68.3040 C   0  0  1  0  0  0  0  0  0  0  0  0
   -8.6869   35.2272   69.0372 C   0  0  0  0  0  0  0  0  0  0  0  0
  -10.7033   34.4182   66.9524 N   0  0  0  0  0  0  0  0  0  0  0  0
   -8.0653   32.8596   69.2079 O   0  0  0  0  0  0  0  0  0  0  0  0
   -9.2463   29.7365   67.5770 O   0  0  0  0  0  0  0  0  0  0  0  0
  -11.3020   31.6682   66.7891 O   0  0  0  0  0  0  0  0  0  0  0  0
   -7.4018   35.5004   69.5404 O   0  0  0  0  0  0  0  0  0  0  0  0
    0.3653   29.0782   66.1907 C   0  0  1  0  0  0  0  0  0  0  0  0
    0.7042   27.7934   65.3862 C   0  0  1  0  0  0  0  0  0  0  0  0
    1.7654   28.1129   64.2936 C   0  0  2  0  0  0  0  0  0  0  0  0
    1.1972   29.1857   63.3320 C   0  0  1  0  0  0  0  0  0  0  0  0
    0.8533   30.5011   64.1186 C   0  0  0  0  0  0  0  0  0  0  0  0
   -0.1870   30.1564   65.2056 C   0  0  2  0  0  0  0  0  0  0  0  0
    2.1976   29.4932   62.2818 N   0  0  0  0  0  0  0  0  0  0  0  0
   -0.5017   31.3890   65.9360 N   0  0  0  0  0  0  0  0  0  0  0  0
    1.2324   26.7906   66.2821 O   0  0  0  0  0  0  0  0  0  0  0  0
    2.0670   26.9019   63.5653 O   0  0  0  0  0  0  0  0  0  0  0  0
  1  2  1  0  0  0  0
  1 12  1  6  0  0  0
  1 13  1  0  0  0  0
  2  3  1  0  0  0  0
  2 10  1  6  0  0  0
  4  3  1  6  0  0  0
  4  5  1  0  0  0  0
  4 14  1  0  0  0  0
  5  6  1  0  0  0  0
  5 13  1  1  0  0  0
  6  7  1  0  0  0  0
  6 15  1  1  0  0  0
  7  8  1  0  0  0  0
  7 11  1  1  0  0  0
  8 14  1  0  0  0  0
  8 16  1  6  0  0  0
  9 11  1  0  0  0  0
 17 16  1  6  0  0  0
 17 18  1  0  0  0  0
 17 24  1  0  0  0  0
 18 19  1  0  0  0  0
 18 25  1  6  0  0  0
 19 20  1  0  0  0  0
 19 26  1  1  0  0  0
 20 21  1  0  0  0  0
 20 23  1  6  0  0  0
 21 22  1  1  0  0  0
 21 24  1  0  0  0  0
 22 27  1  0  0  0  0
 28 12  1  1  0  0  0
 28 29  1  0  0  0  0
 28 33  1  0  0  0  0
 29 30  1  0  0  0  0
 29 36  1  1  0  0  0
 30 31  1  0  0  0  0
 30 37  1  6  0  0  0
 31 32  1  0  0  0  0
 31 34  1  6  0  0  0
 32 33  1  0  0  0  0
 33 35  1  1  0  0  0
M  END
>  <CHROM.1>
-169.60024448,76.53543398,-149.50209339,155.43539007,-165.78928624,172.69384480
-4.00077905,30.94710404,67.12149340,0.15448771,-0.45913901,2.45018367

>  <Name>
ligand

>  <RI>
0

>  <Rbt.Current_Directory>
/home/itssahil/PROJECTS/Mol_Feturizer/Test_systems_manuscript/rnas/2g5k

>  <Rbt.Executable>
rbdock ($Id: //depot/dev/client3/rdock/2013.1/src/exe/rbdock.cxx#4 $)

>  <Rbt.Library>
libRbt.so (2013.1, Build901 2013/11/27)

>  <Rbt.Parameter_File>
/export/apps/rDock/src/rDock_2013.1_src/data/scripts/dock_solv.prm

>  <Rbt.Receptor>
prm/pocket_docking_5.prm

>  <SCORE>
-8.85804

>  <SCORE.INTER>
-8.19504

>  <SCORE.INTER.CONST>
1

>  <SCORE.INTER.POLAR>
0

>  <SCORE.INTER.ROT>
6

>  <SCORE.INTER.SOLV>
18.5932

>  <SCORE.INTER.VDW>
-19.2611

>  <SCORE.INTER.norm>
-0.221488

>  <SCORE.INTRA>
-0.662994

>  <SCORE.INTRA.DIHEDRAL>
-3.23106

>  <SCORE.INTRA.DIHEDRAL.0>
11.3972

>  <SCORE.INTRA.POLAR>
0

>  <SCORE.INTRA.POLAR.0>
0

>  <SCORE.INTRA.REPUL>
0

>  <SCORE.INTRA.REPUL.0>
0

>  <SCORE.INTRA.SOLV>
2.13143

>  <SCORE.INTRA.SOLV.lig_0>
-92.3891

>  <SCORE.INTRA.VDW>
-0.113179

>  <SCORE.INTRA.VDW.0>
-2.90606

>  <SCORE.INTRA.norm>
-0.0179188

>  <SCORE.RESTR>
0

>  <SCORE.RESTR.CAVITY>
0

>  <SCORE.RESTR.norm>
0

>  <SCORE.SYSTEM>
0

>  <SCORE.SYSTEM.CONST>
0

>  <SCORE.SYSTEM.DIHEDRAL>
0

>  <SCORE.SYSTEM.SOLV>
0

>  <SCORE.SYSTEM.norm>
0

>  <SCORE.heavy>
37

>  <SCORE.norm>
-0.239406

>  <RMSD>
3.642

$$$$
ligand
 OpenBabel02271912133D
libRbt.so/2013.1/901 2013/11/27
 37 40  0  0  0  0  0  0  0  0999 V2000
   -0.5218   28.6720   69.3194 C   0  0  1  0  0  0  0  0  0  0  0  0
   -1.7325   28.2465   70.1978 C   0  0  1  0  0  0  0  0  0  0  0  0
   -3.0775   28.5231   69.4993 C   0  0  0  0  0  0  0  0  0  0  0  0
   -3.1565   30.0390   69.1370 C   0  0  1  0  0  0  0  0  0  0  0  0
   -1.9647   30.4471   68.2114 C   0  0  1  0  0  0  0  0  0  0  0  0
   -2.0642   31.9990   67.8557 C   0  0  1  0  0  0  0  0  0  0  0  0
   -3.4213   32.2676   67.1416 C   0  0  1  0  0  0  0  0  0  0  0  0
   -4.5686   31.8116   68.0926 C   0  0  2  0  0  0  0  0  0  0  0  0
   -2.6491   34.3239   65.7683 C   0  0  0  0  0  0  0  0  0  0  0  0
   -1.6287   26.8201   70.5718 N   0  0  0  0  0  0  0  0  0  0  0  0
   -3.5589   33.7331   66.8009 N   0  0  0  0  0  0  0  0  0  0  0  0
   -0.3656   27.8404   68.1531 O   0  0  0  0  0  0  0  0  0  0  0  0
   -0.7028   30.0944   68.9279 O   0  0  0  0  0  0  0  0  0  0  0  0
   -4.4417   30.3925   68.4494 O   0  0  0  0  0  0  0  0  0  0  0  0
   -2.0297   32.7683   69.0508 O   0  0  0  0  0  0  0  0  0  0  0  0
   -5.8310   32.0216   67.4702 O   0  0  0  0  0  0  0  0  0  0  0  0
   -6.9591   31.8997   68.3711 C   0  0  2  0  0  0  0  0  0  0  0  0
   -8.2929   31.6382   67.6321 C   0  0  1  0  0  0  0  0  0  0  0  0
   -8.7030   32.8750   66.7693 C   0  0  2  0  0  0  0  0  0  0  0  0
   -8.8697   34.0758   67.6782 C   0  0  1  0  0  0  0  0  0  0  0  0
   -7.5171   34.3544   68.3996 C   0  0  1  0  0  0  0  0  0  0  0  0
   -7.6079   35.5420   69.3560 C   0  0  0  0  0  0  0  0  0  0  0  0
   -9.2808   35.2489   66.8696 N   0  0  0  0  0  0  0  0  0  0  0  0
   -7.1098   33.1458   69.1803 O   0  0  0  0  0  0  0  0  0  0  0  0
   -8.1186   30.4447   66.8362 O   0  0  0  0  0  0  0  0  0  0  0  0
   -9.9443   32.6165   66.1093 O   0  0  0  0  0  0  0  0  0  0  0  0
   -8.5317   35.2486   70.3757 O   0  0  0  0  0  0  0  0  0  0  0  0
    0.9718   27.3047   67.6899 C   0  0  1  0  0  0  0  0  0  0  0  0
    0.7182   26.2662   66.5630 C   0  0  1  0  0  0  0  0  0  0  0  0
    2.0712   25.6856   66.0588 C   0  0  2  0  0  0  0  0  0  0  0  0
    2.9448   26.8391   65.5068 C   0  0  1  0  0  0  0  0  0  0  0  0
    3.2247   27.9014   66.6295 C   0  0  0  0  0  0  0  0  0  0  0  0
    1.8696   28.4502   67.1244 C   0  0  2  0  0  0  0  0  0  0  0  0
    4.2346   26.2964   65.0167 N   0  0  0  0  0  0  0  0  0  0  0  0
    2.1394   29.4400   68.1730 N   0  0  0  0  0  0  0  0  0  0  0  0
   -0.0985   25.1903   67.0756 O   0  0  0  0  0  0  0  0  0  0  0  0
    1.8072   24.7194   65.0174 O   0  0  0  0  0  0  0  0  0  0  0  0
  1  2  1  0  0  0  0
  1 12  1  6  0  0  0
  1 13  1  0  0  0  0
  2  3  1  0  0  0  0
  2 10  1  6  0  0  0
  4  3  1  6  0  0  0
  4  5  1  0  0  0  0
  4 14  1  0  0  0  0
  5  6  1  0  0  0  0
  5 13  1  1  0  0  0
  6  7  1  0  0  0  0
  6 15  1  1  0  0  0
  7  8  1  0  0  0  0
  7 11  1  1  0  0  0
  8 14  1  0  0  0  0
  8 16  1  6  0  0  0
  9 11  1  0  0  0  0
 17 16  1  6  0  0  0
 17 18  1  0  0  0  0
 17 24  1  0  0  0  0
 18 19  1  0  0  0  0
 18 25  1  6  0  0  0
 19 20  1  0  0  0  0
 19 26  1  1  0  0  0
 20 21  1  0  0  0  0
 20 23  1  6  0  0  0
 21 22  1  1  0  0  0
 21 24  1  0  0  0  0
 22 27  1  0  0  0  0
 28 12  1  6  0  0  0
 28 29  1  0  0  0  0
 28 33  1  0  0  0  0
 29 30  1  0  0  0  0
 29 36  1  1  0  0  0
 30 31  1  0  0  0  0
 30 37  1  6  0  0  0
 31 32  1  0  0  0  0
 31 34  1  1  0  0  0
 32 33  1  0  0  0  0
 33 35  1  1  0  0  0
M  END
>  <CHROM.1>
-135.80253505,67.47313097,-167.49591292,170.44725049,-159.94219567,63.02349326
-3.09683438,30.42567175,67.76030982,-0.62049616,0.03250004,0.10954946

>  <Name>
ligand

>  <RI>
0

>  <Rbt.Current_Directory>
/home/itssahil/PROJECTS/Mol_Feturizer/Test_systems_manuscript/rnas/2g5k

>  <Rbt.Executable>
rbdock ($Id: //depot/dev/client3/rdock/2013.1/src/exe/rbdock.cxx#4 $)

>  <Rbt.Library>
libRbt.so (2013.1, Build901 2013/11/27)

>  <Rbt.Parameter_File>
/export/apps/rDock/src/rDock_2013.1_src/data/scripts/dock_solv.prm

>  <Rbt.Receptor>
prm/pocket_docking_6.prm

>  <SCORE>
-10.8455

>  <SCORE.INTER>
-10.2113

>  <SCORE.INTER.CONST>
1

>  <SCORE.INTER.POLAR>
0

>  <SCORE.INTER.ROT>
6

>  <SCORE.INTER.SOLV>
20.0438

>  <SCORE.INTER.VDW>
-21.0888

>  <SCORE.INTER.norm>
-0.275982

>  <SCORE.INTRA>
-0.634216

>  <SCORE.INTRA.DIHEDRAL>
-2.26693

>  <SCORE.INTRA.DIHEDRAL.0>
11.3972

>  <SCORE.INTRA.POLAR>
0

>  <SCORE.INTRA.POLAR.0>
0

>  <SCORE.INTRA.REPUL>
0

>  <SCORE.INTRA.REPUL.0>
0

>  <SCORE.INTRA.SOLV>
0.668207

>  <SCORE.INTRA.SOLV.lig_0>
-92.3891

>  <SCORE.INTRA.VDW>
0.165146

>  <SCORE.INTRA.VDW.0>
-2.90606

>  <SCORE.INTRA.norm>
-0.017141

>  <SCORE.RESTR>
0

>  <SCORE.RESTR.CAVITY>
0

>  <SCORE.RESTR.norm>
0

>  <SCORE.SYSTEM>
0

>  <SCORE.SYSTEM.CONST>
0

>  <SCORE.SYSTEM.DIHEDRAL>
0

>  <SCORE.SYSTEM.SOLV>
0

>  <SCORE.SYSTEM.norm>
0

>  <SCORE.heavy>
37

>  <SCORE.norm>
-0.293123

>  <RMSD>
3.667

$$$$
ligand
 OpenBabel02271912133D
libRbt.so/2013.1/901 2013/11/27
 37 40  0  0  0  0  0  0  0  0999 V2000
   -0.6233   29.3700   68.5993 C   0  0  1  0  0  0  0  0  0  0  0  0
   -1.5677   28.6731   69.6195 C   0  0  1  0  0  0  0  0  0  0  0  0
   -3.0368   28.6985   69.1563 C   0  0  0  0  0  0  0  0  0  0  0  0
   -3.4666   30.1799   68.9199 C   0  0  1  0  0  0  0  0  0  0  0  0
   -2.5449   30.8578   67.8548 C   0  0  1  0  0  0  0  0  0  0  0  0
   -3.0006   32.3700   67.6305 C   0  0  1  0  0  0  0  0  0  0  0  0
   -4.4824   32.3857   67.1532 C   0  0  1  0  0  0  0  0  0  0  0  0
   -5.3476   31.6689   68.2331 C   0  0  2  0  0  0  0  0  0  0  0  0
   -4.6225   34.4956   65.6568 C   0  0  0  0  0  0  0  0  0  0  0  0
   -1.1293   27.2838   69.8702 N   0  0  0  0  0  0  0  0  0  0  0  0
   -4.9557   33.8051   66.9434 N   0  0  0  0  0  0  0  0  0  0  0  0
   -0.5021   28.6343   67.3663 O   0  0  0  0  0  0  0  0  0  0  0  0
   -1.1385   30.7404   68.3429 O   0  0  0  0  0  0  0  0  0  0  0  0
   -4.8911   30.2921   68.4637 O   0  0  0  0  0  0  0  0  0  0  0  0
   -2.9205   33.0823   68.8583 O   0  0  0  0  0  0  0  0  0  0  0  0
   -6.7114   31.6429   67.8275 O   0  0  0  0  0  0  0  0  0  0  0  0
   -7.6530   31.7953   68.9181 C   0  0  2  0  0  0  0  0  0  0  0  0
   -9.1186   31.5558   68.4846 C   0  0  1  0  0  0  0  0  0  0  0  0
   -9.5941   32.6655   67.4923 C   0  0  2  0  0  0  0  0  0  0  0  0
   -9.4962   34.0134   68.1774 C   0  0  1  0  0  0  0  0  0  0  0  0
   -8.0142   34.2648   68.5875 C   0  0  1  0  0  0  0  0  0  0  0  0
   -7.8339   35.5997   69.3077 C   0  0  0  0  0  0  0  0  0  0  0  0
   -9.9669   35.0700   67.2495 N   0  0  0  0  0  0  0  0  0  0  0  0
   -7.5551   33.1691   69.4957 O   0  0  0  0  0  0  0  0  0  0  0  0
   -9.1870   30.2334   67.9061 O   0  0  0  0  0  0  0  0  0  0  0  0
  -10.9539   32.4325   67.1185 O   0  0  0  0  0  0  0  0  0  0  0  0
   -8.6095   35.6035   70.4815 O   0  0  0  0  0  0  0  0  0  0  0  0
    0.3527   29.0959   66.2060 C   0  0  1  0  0  0  0  0  0  0  0  0
    1.8381   28.7890   66.5412 C   0  0  1  0  0  0  0  0  0  0  0  0
    2.7551   29.2526   65.3724 C   0  0  2  0  0  0  0  0  0  0  0  0
    2.3536   28.4974   64.0814 C   0  0  1  0  0  0  0  0  0  0  0  0
    0.8562   28.7970   63.7134 C   0  0  0  0  0  0  0  0  0  0  0  0
   -0.0313   28.3444   64.8924 C   0  0  2  0  0  0  0  0  0  0  0  0
    3.2259   28.9262   62.9618 N   0  0  0  0  0  0  0  0  0  0  0  0
   -1.4270   28.6286   64.5416 N   0  0  0  0  0  0  0  0  0  0  0  0
    2.2139   29.4909   67.7467 O   0  0  0  0  0  0  0  0  0  0  0  0
    4.1293   28.9619   65.7117 O   0  0  0  0  0  0  0  0  0  0  0  0
  1  2  1  0  0  0  0
  1 12  1  6  0  0  0
  1 13  1  0  0  0  0
  2  3  1  0  0  0  0
  2 10  1  6  0  0  0
  4  3  1  6  0  0  0
  4  5  1  0  0  0  0
  4 14  1  0  0  0  0
  5  6  1  0  0  0  0
  5 13  1  1  0  0  0
  6  7  1  0  0  0  0
  6 15  1  1  0  0  0
  7  8  1  0  0  0  0
  7 11  1  1  0  0  0
  8 14  1  0  0  0  0
  8 16  1  6  0  0  0
  9 11  1  0  0  0  0
 17 16  1  6  0  0  0
 17 18  1  0  0  0  0
 17 24  1  0  0  0  0
 18 19  1  0  0  0  0
 18 25  1  6  0  0  0
 19 20  1  0  0  0  0
 19 26  1  1  0  0  0
 20 21  1  0  0  0  0
 20 23  1  6  0  0  0
 21 22  1  1  0  0  0
 21 24  1  0  0  0  0
 22 27  1  0  0  0  0
 28 12  1  1  0  0  0
 28 29  1  0  0  0  0
 28 33  1  0  0  0  0
 29 30  1  0  0  0  0
 29 36  1  1  0  0  0
 30 31  1  0  0  0  0
 30 37  1  1  0  0  0
 31 32  1  0  0  0  0
 31 34  1  6  0  0  0
 32 33  1  0  0  0  0
 33 35  1  6  0  0  0
M  END
>  <CHROM.1>
179.81681071,82.10033901,-144.03598451,77.22265042,-171.51905568,60.59342320
-3.61896746,31.08861495,67.46981702,0.07082503,-0.46843701,2.21995959

>  <Name>
ligand

>  <RI>
0

>  <Rbt.Current_Directory>
/home/itssahil/PROJECTS/Mol_Feturizer/Test_systems_manuscript/rnas/2g5k

>  <Rbt.Executable>
rbdock ($Id: //depot/dev/client3/rdock/2013.1/src/exe/rbdock.cxx#4 $)

>  <Rbt.Library>
libRbt.so (2013.1, Build901 2013/11/27)

>  <Rbt.Parameter_File>
/export/apps/rDock/src/rDock_2013.1_src/data/scripts/dock_solv.prm

>  <Rbt.Receptor>
prm/pocket_docking_5.prm

>  <SCORE>
-12.8211

>  <SCORE.INTER>
-9.89248

>  <SCORE.INTER.CONST>
1

>  <SCORE.INTER.POLAR>
0

>  <SCORE.INTER.ROT>
6

>  <SCORE.INTER.SOLV>
17.8555

>  <SCORE.INTER.VDW>
-20.1468

>  <SCORE.INTER.norm>
-0.267364

>  <SCORE.INTRA>
-2.93208

>  <SCORE.INTRA.DIHEDRAL>
-4.60686

>  <SCORE.INTRA.DIHEDRAL.0>
11.3972

>  <SCORE.INTRA.POLAR>
0

>  <SCORE.INTRA.POLAR.0>
0

>  <SCORE.INTRA.REPUL>
0

>  <SCORE.INTRA.REPUL.0>
0

>  <SCORE.INTRA.SOLV>
-0.345555

>  <SCORE.INTRA.SOLV.lig_0>
-92.3891

>  <SCORE.INTRA.VDW>
-0.455877

>  <SCORE.INTRA.VDW.0>
-2.90606

>  <SCORE.INTRA.norm>
-0.0792455

>  <SCORE.RESTR>
0.00345857

>  <SCORE.RESTR.CAVITY>
0.00345857

>  <SCORE.RESTR.norm>
9.34748e-05

>  <SCORE.SYSTEM>
0

>  <SCORE.SYSTEM.CONST>
0

>  <SCORE.SYSTEM.DIHEDRAL>
0

>  <SCORE.SYSTEM.SOLV>
0

>  <SCORE.SYSTEM.norm>
0

>  <SCORE.heavy>
37

>  <SCORE.norm>
-0.346516

>  <RMSD>
3.759

$$$$
ligand
 OpenBabel02271912133D
libRbt.so/2013.1/901 2013/11/27
 37 40  0  0  0  0  0  0  0  0999 V2000
   -0.6629   27.2100   67.5279 C   0  0  1  0  0  0  0  0  0  0  0  0
   -1.1022   25.8874   68.2181 C   0  0  1  0  0  0  0  0  0  0  0  0
   -2.3756   25.2994   67.5808 C   0  0  0  0  0  0  0  0  0  0  0  0
   -3.5122   26.3667   67.6454 C   0  0  1  0  0  0  0  0  0  0  0  0
   -3.0829   27.6745   66.9045 C   0  0  1  0  0  0  0  0  0  0  0  0
   -4.2575   28.7509   66.9847 C   0  0  1  0  0  0  0  0  0  0  0  0
   -5.5368   28.1524   66.3297 C   0  0  1  0  0  0  0  0  0  0  0  0
   -5.8976   26.8369   67.0833 C   0  0  2  0  0  0  0  0  0  0  0  0
   -7.7360   29.0981   65.3400 C   0  0  0  0  0  0  0  0  0  0  0  0
   -0.0058   24.8963   68.1900 N   0  0  0  0  0  0  0  0  0  0  0  0
   -6.6783   29.1398   66.3995 N   0  0  0  0  0  0  0  0  0  0  0  0
   -0.1877   27.0008   66.1838 O   0  0  0  0  0  0  0  0  0  0  0  0
   -1.8153   28.1488   67.5357 O   0  0  0  0  0  0  0  0  0  0  0  0
   -4.7923   25.8706   67.0414 O   0  0  0  0  0  0  0  0  0  0  0  0
   -4.5485   29.0430   68.3453 O   0  0  0  0  0  0  0  0  0  0  0  0
   -7.0538   26.2437   66.5034 O   0  0  0  0  0  0  0  0  0  0  0  0
   -7.3204   24.8974   66.9676 C   0  0  2  0  0  0  0  0  0  0  0  0
   -6.9705   23.8185   65.9154 C   0  0  1  0  0  0  0  0  0  0  0  0
   -7.9153   23.9235   64.6750 C   0  0  2  0  0  0  0  0  0  0  0  0
   -9.3473   23.7244   65.1285 C   0  0  1  0  0  0  0  0  0  0  0  0
   -9.7062   24.8293   66.1668 C   0  0  1  0  0  0  0  0  0  0  0  0
  -11.1331   24.6847   66.6924 C   0  0  0  0  0  0  0  0  0  0  0  0
  -10.2484   23.8005   63.9534 N   0  0  0  0  0  0  0  0  0  0  0  0
   -8.7632   24.7512   67.3247 O   0  0  0  0  0  0  0  0  0  0  0  0
   -5.5796   23.9926   65.5648 O   0  0  0  0  0  0  0  0  0  0  0  0
   -7.5839   22.9084   63.7248 O   0  0  0  0  0  0  0  0  0  0  0  0
  -11.2666   23.4429   67.3402 O   0  0  0  0  0  0  0  0  0  0  0  0
    1.1652   26.4014   65.8668 C   0  0  1  0  0  0  0  0  0  0  0  0
    1.1683   25.9634   64.3765 C   0  0  1  0  0  0  0  0  0  0  0  0
    2.5440   25.3361   64.0080 C   0  0  2  0  0  0  0  0  0  0  0  0
    3.6588   26.3865   64.2366 C   0  0  1  0  0  0  0  0  0  0  0  0
    3.6844   26.8416   65.7398 C   0  0  0  0  0  0  0  0  0  0  0  0
    2.3062   27.4444   66.0859 C   0  0  2  0  0  0  0  0  0  0  0  0
    4.9744   25.8020   63.8818 N   0  0  0  0  0  0  0  0  0  0  0  0
    2.3379   27.8655   67.4908 N   0  0  0  0  0  0  0  0  0  0  0  0
    0.1274   24.9850   64.1608 O   0  0  0  0  0  0  0  0  0  0  0  0
    2.5181   24.9322   62.6209 O   0  0  0  0  0  0  0  0  0  0  0  0
  1  2  1  0  0  0  0
  1 12  1  6  0  0  0
  1 13  1  0  0  0  0
  2  3  1  0  0  0  0
  2 10  1  6  0  0  0
  4  3  1  6  0  0  0
  4  5  1  0  0  0  0
  4 14  1  0  0  0  0
  5  6  1  0  0  0  0
  5 13  1  1  0  0  0
  6  7  1  0  0  0  0
  6 15  1  1  0  0  0
  7  8  1  0  0  0  0
  7 11  1  1  0  0  0
  8 14  1  0  0  0  0
  8 16  1  6  0  0  0
  9 11  1  0  0  0  0
 17 16  1  6  0  0  0
 17 18  1  0  0  0  0
 17 24  1  0  0  0  0
 18 19  1  0  0  0  0
 18 25  1  6  0  0  0
 19 20  1  0  0  0  0
 19 26  1  6  0  0  0
 20 21  1  0  0  0  0
 20 23  1  6  0  0  0
 21 22  1  1  0  0  0
 21 24  1  0  0  0  0
 22 27  1  0  0  0  0
 28 12  1  6  0  0  0
 28 29  1  0  0  0  0
 28 33  1  0  0  0  0
 29 30  1  0  0  0  0
 29 36  1  1  0  0  0
 30 31  1  0  0  0  0
 30 37  1  6  0  0  0
 31 32  1  0  0  0  0
 31 34  1  1  0  0  0
 32 33  1  0  0  0  0
 33 35  1  1  0  0  0
M  END
>  <CHROM.1>
-74.88324326,151.31059012,169.01470397,164.23531157,-105.58764672,61.13075690
-3.58669870,25.99459240,66.09584876,0.06456476,0.12947165,0.65751261

>  <Name>
ligand

>  <RI>
0

>  <Rbt.Current_Directory>
/home/itssahil/PROJECTS/Mol_Feturizer/Test_systems_manuscript/rnas/2g5k

>  <Rbt.Executable>
rbdock ($Id: //depot/dev/client3/rdock/2013.1/src/exe/rbdock.cxx#4 $)

>  <Rbt.Library>
libRbt.so (2013.1, Build901 2013/11/27)

>  <Rbt.Parameter_File>
/export/apps/rDock/src/rDock_2013.1_src/data/scripts/dock_solv.prm

>  <Rbt.Receptor>
prm/pocket_docking_8.prm

>  <SCORE>
-3.25733

>  <SCORE.INTER>
-4.00868

>  <SCORE.INTER.CONST>
1

>  <SCORE.INTER.POLAR>
0

>  <SCORE.INTER.ROT>
6

>  <SCORE.INTER.SOLV>
17.7662

>  <SCORE.INTER.VDW>
-16.1945

>  <SCORE.INTER.norm>
-0.108343

>  <SCORE.INTRA>
0.75135

>  <SCORE.INTRA.DIHEDRAL>
-1.80921

>  <SCORE.INTRA.DIHEDRAL.0>
11.3972

>  <SCORE.INTRA.POLAR>
0

>  <SCORE.INTRA.POLAR.0>
0

>  <SCORE.INTRA.REPUL>
0

>  <SCORE.INTRA.REPUL.0>
0

>  <SCORE.INTRA.SOLV>
2.45826

>  <SCORE.INTRA.SOLV.lig_0>
-92.3891

>  <SCORE.INTRA.VDW>
0.426828

>  <SCORE.INTRA.VDW.0>
-2.90606

>  <SCORE.INTRA.norm>
0.0203068

>  <SCORE.RESTR>
0

>  <SCORE.RESTR.CAVITY>
0

>  <SCORE.RESTR.norm>
0

>  <SCORE.SYSTEM>
0

>  <SCORE.SYSTEM.CONST>
0

>  <SCORE.SYSTEM.DIHEDRAL>
0

>  <SCORE.SYSTEM.SOLV>
0

>  <SCORE.SYSTEM.norm>
0

>  <SCORE.heavy>
37

>  <SCORE.norm>
-0.088036

>  <RMSD>
3.781

$$$$
ligand
 OpenBabel02271912133D
libRbt.so/2013.1/901 2013/11/27
 37 40  0  0  0  0  0  0  0  0999 V2000
   -0.5331   29.7416   68.1095 C   0  0  1  0  0  0  0  0  0  0  0  0
   -1.3669   29.2293   69.3182 C   0  0  1  0  0  0  0  0  0  0  0  0
   -2.8719   29.1652   68.9950 C   0  0  0  0  0  0  0  0  0  0  0  0
   -3.3529   30.5798   68.5450 C   0  0  1  0  0  0  0  0  0  0  0  0
   -2.5453   31.0655   67.2978 C   0  0  1  0  0  0  0  0  0  0  0  0
   -3.0516   32.5125   66.8567 C   0  0  1  0  0  0  0  0  0  0  0  0
   -4.5702   32.4363   66.5225 C   0  0  1  0  0  0  0  0  0  0  0  0
   -5.3194   31.9153   67.7859 C   0  0  2  0  0  0  0  0  0  0  0  0
   -6.2911   33.8697   65.2209 C   0  0  0  0  0  0  0  0  0  0  0  0
   -0.8781   27.9078   69.7653 N   0  0  0  0  0  0  0  0  0  0  0  0
   -5.0908   33.7944   66.1134 N   0  0  0  0  0  0  0  0  0  0  0  0
   -0.5075   28.8018   67.0176 O   0  0  0  0  0  0  0  0  0  0  0  0
   -1.0986   31.0431   67.6671 O   0  0  0  0  0  0  0  0  0  0  0  0
   -4.8146   30.6027   68.2095 O   0  0  0  0  0  0  0  0  0  0  0  0
   -2.8768   33.4295   67.9290 O   0  0  0  0  0  0  0  0  0  0  0  0
   -6.7132   31.8113   67.5184 O   0  0  0  0  0  0  0  0  0  0  0  0
   -7.5472   31.8930   68.7004 C   0  0  2  0  0  0  0  0  0  0  0  0
   -9.0478   31.6756   68.3934 C   0  0  1  0  0  0  0  0  0  0  0  0
   -9.6123   32.8427   67.5207 C   0  0  2  0  0  0  0  0  0  0  0  0
   -9.4468   34.1462   68.2753 C   0  0  1  0  0  0  0  0  0  0  0  0
   -7.9320   34.3769   68.5582 C   0  0  1  0  0  0  0  0  0  0  0  0
   -7.6813   35.6655   69.3391 C   0  0  0  0  0  0  0  0  0  0  0  0
  -10.0005   35.2563   67.4629 N   0  0  0  0  0  0  0  0  0  0  0  0
   -7.3918   33.2289   69.3498 O   0  0  0  0  0  0  0  0  0  0  0  0
   -9.1738   30.3911   67.7435 O   0  0  0  0  0  0  0  0  0  0  0  0
  -11.0019   32.6285   67.2634 O   0  0  0  0  0  0  0  0  0  0  0  0
   -8.2985   35.5730   70.6000 O   0  0  0  0  0  0  0  0  0  0  0  0
    0.2613   29.0406   65.7362 C   0  0  1  0  0  0  0  0  0  0  0  0
    1.7725   29.1336   66.0832 C   0  0  1  0  0  0  0  0  0  0  0  0
    2.6020   29.3834   64.7904 C   0  0  2  0  0  0  0  0  0  0  0  0
    2.3728   28.2106   63.8053 C   0  0  1  0  0  0  0  0  0  0  0  0
    0.8517   28.0985   63.4297 C   0  0  0  0  0  0  0  0  0  0  0  0
    0.0489   27.8677   64.7277 C   0  0  2  0  0  0  0  0  0  0  0  0
    3.1643   28.4344   62.5717 N   0  0  0  0  0  0  0  0  0  0  0  0
   -1.3697   27.7655   64.3687 N   0  0  0  0  0  0  0  0  0  0  0  0
    1.9880   30.2259   67.0040 O   0  0  0  0  0  0  0  0  0  0  0  0
    4.0009   29.4720   65.1413 O   0  0  0  0  0  0  0  0  0  0  0  0
  1  2  1  0  0  0  0
  1 12  1  6  0  0  0
  1 13  1  0  0  0  0
  2  3  1  0  0  0  0
  2 10  1  6  0  0  0
  4  3  1  6  0  0  0
  4  5  1  0  0  0  0
  4 14  1  0  0  0  0
  5  6  1  0  0  0  0
  5 13  1  1  0  0  0
  6  7  1  0  0  0  0
  6 15  1  1  0  0  0
  7  8  1  0  0  0  0
  7 11  1  1  0  0  0
  8 14  1  0  0  0  0
  8 16  1  6  0  0  0
  9 11  1  0  0  0  0
 17 16  1  6  0  0  0
 17 18  1  0  0  0  0
 17 24  1  0  0  0  0
 18 19  1  0  0  0  0
 18 25  1  6  0  0  0
 19 20  1  0  0  0  0
 19 26  1  1  0  0  0
 20 21  1  0  0  0  0
 20 23  1  6  0  0  0
 21 22  1  1  0  0  0
 21 24  1  0  0  0  0
 22 27  1  0  0  0  0
 28 12  1  1  0  0  0
 28 29  1  0  0  0  0
 28 33  1  0  0  0  0
 29 30  1  0  0  0  0
 29 36  1  1  0  0  0
 30 31  1  0  0  0  0
 30 37  1  1  0  0  0
 31 32  1  0  0  0  0
 31 34  1  6  0  0  0
 32 33  1  0  0  0  0
 33 35  1  6  0  0  0
M  END
>  <CHROM.1>
-178.41955981,154.14442898,-155.30409958,62.77251654,-175.87433015,62.88997454
-3.63982520,31.19700891,67.15130759,-0.29535817,-0.40680122,1.46236920

>  <Name>
ligand

>  <RI>
0

>  <Rbt.Current_Directory>
/home/itssahil/PROJECTS/Mol_Feturizer/Test_systems_manuscript/rnas/2g5k

>  <Rbt.Executable>
rbdock ($Id: //depot/dev/client3/rdock/2013.1/src/exe/rbdock.cxx#4 $)

>  <Rbt.Library>
libRbt.so (2013.1, Build901 2013/11/27)

>  <Rbt.Parameter_File>
/export/apps/rDock/src/rDock_2013.1_src/data/scripts/dock_solv.prm

>  <Rbt.Receptor>
prm/pocket_docking_6.prm

>  <SCORE>
-11.7454

>  <SCORE.INTER>
-7.07195

>  <SCORE.INTER.CONST>
1

>  <SCORE.INTER.POLAR>
0

>  <SCORE.INTER.ROT>
6

>  <SCORE.INTER.SOLV>
16.2472

>  <SCORE.INTER.VDW>
-17.7304

>  <SCORE.INTER.norm>
-0.191134

>  <SCORE.INTRA>
-4.67348

>  <SCORE.INTRA.DIHEDRAL>
-8.12687

>  <SCORE.INTRA.DIHEDRAL.0>
11.3972

>  <SCORE.INTRA.POLAR>
0

>  <SCORE.INTRA.POLAR.0>
0

>  <SCORE.INTRA.REPUL>
0

>  <SCORE.INTRA.REPUL.0>
0

>  <SCORE.INTRA.SOLV>
-0.725854

>  <SCORE.INTRA.SOLV.lig_0>
-92.3891

>  <SCORE.INTRA.VDW>
-0.247113

>  <SCORE.INTRA.VDW.0>
-2.90606

>  <SCORE.INTRA.norm>
-0.12631

>  <SCORE.RESTR>
8.01478e-06

>  <SCORE.RESTR.CAVITY>
8.01478e-06

>  <SCORE.RESTR.norm>
2.16616e-07

>  <SCORE.SYSTEM>
0

>  <SCORE.SYSTEM.CONST>
0

>  <SCORE.SYSTEM.DIHEDRAL>
0

>  <SCORE.SYSTEM.SOLV>
0

>  <SCORE.SYSTEM.norm>
0

>  <SCORE.heavy>
37

>  <SCORE.norm>
-0.317444

>  <RMSD>
3.835

$$$$
ligand
 OpenBabel02271912133D
libRbt.so/2013.1/901 2013/11/27
 37 40  0  0  0  0  0  0  0  0999 V2000
   -2.5001   28.4795   63.9840 C   0  0  1  0  0  0  0  0  0  0  0  0
   -3.1059   29.8541   64.3862 C   0  0  1  0  0  0  0  0  0  0  0  0
   -4.0903   29.7282   65.5645 C   0  0  0  0  0  0  0  0  0  0  0  0
   -5.2129   28.7150   65.1793 C   0  0  1  0  0  0  0  0  0  0  0  0
   -4.5997   27.3210   64.8267 C   0  0  1  0  0  0  0  0  0  0  0  0
   -5.7634   26.3028   64.4345 C   0  0  1  0  0  0  0  0  0  0  0  0
   -6.7475   26.1739   65.6341 C   0  0  1  0  0  0  0  0  0  0  0  0
   -7.2997   27.5936   65.9632 C   0  0  2  0  0  0  0  0  0  0  0  0
   -7.5460   23.8062   64.9511 C   0  0  0  0  0  0  0  0  0  0  0  0
   -2.0351   30.8208   64.7089 N   0  0  0  0  0  0  0  0  0  0  0  0
   -7.8743   25.2265   65.2946 N   0  0  0  0  0  0  0  0  0  0  0  0
   -1.6112   27.9521   64.9880 O   0  0  0  0  0  0  0  0  0  0  0  0
   -3.6160   27.5329   63.7233 O   0  0  0  0  0  0  0  0  0  0  0  0
   -6.2166   28.5340   66.2790 O   0  0  0  0  0  0  0  0  0  0  0  0
   -6.4854   26.8063   63.3181 O   0  0  0  0  0  0  0  0  0  0  0  0
   -8.1917   27.5258   67.0699 O   0  0  0  0  0  0  0  0  0  0  0  0
   -9.4519   26.8763   66.7714 C   0  0  2  0  0  0  0  0  0  0  0  0
  -10.3200   27.6785   65.7732 C   0  0  1  0  0  0  0  0  0  0  0  0
  -10.7951   29.0259   66.4065 C   0  0  2  0  0  0  0  0  0  0  0  0
  -11.6163   28.7257   67.6441 C   0  0  1  0  0  0  0  0  0  0  0  0
  -10.7311   27.9426   68.6594 C   0  0  1  0  0  0  0  0  0  0  0  0
  -11.4957   27.5806   69.9313 C   0  0  0  0  0  0  0  0  0  0  0  0
  -12.0897   29.9990   68.2386 N   0  0  0  0  0  0  0  0  0  0  0  0
  -10.2408   26.6807   68.0244 O   0  0  0  0  0  0  0  0  0  0  0  0
   -9.5311   27.8789   64.5793 O   0  0  0  0  0  0  0  0  0  0  0  0
  -11.6072   29.7416   65.4730 O   0  0  0  0  0  0  0  0  0  0  0  0
  -11.7651   28.7525   70.6616 O   0  0  0  0  0  0  0  0  0  0  0  0
   -0.8562   26.6507   64.8258 C   0  0  1  0  0  0  0  0  0  0  0  0
    0.1809   26.8268   63.6830 C   0  0  1  0  0  0  0  0  0  0  0  0
    0.9793   25.5065   63.4795 C   0  0  2  0  0  0  0  0  0  0  0  0
    1.7185   25.1522   64.7934 C   0  0  1  0  0  0  0  0  0  0  0  0
    0.6916   24.9595   65.9662 C   0  0  0  0  0  0  0  0  0  0  0  0
   -0.0983   26.2745   66.1381 C   0  0  2  0  0  0  0  0  0  0  0  0
    2.4889   23.8988   64.6091 N   0  0  0  0  0  0  0  0  0  0  0  0
   -1.0555   26.0859   67.2336 N   0  0  0  0  0  0  0  0  0  0  0  0
   -0.5068   27.1595   62.4567 O   0  0  0  0  0  0  0  0  0  0  0  0
    1.9310   25.6950   62.4086 O   0  0  0  0  0  0  0  0  0  0  0  0
  1  2  1  0  0  0  0
  1 12  1  1  0  0  0
  1 13  1  0  0  0  0
  2  3  1  0  0  0  0
  2 10  1  1  0  0  0
  4  3  1  1  0  0  0
  4  5  1  0  0  0  0
  4 14  1  0  0  0  0
  5  6  1  0  0  0  0
  5 13  1  6  0  0  0
  6  7  1  0  0  0  0
  6 15  1  6  0  0  0
  7  8  1  0  0  0  0
  7 11  1  6  0  0  0
  8 14  1  0  0  0  0
  8 16  1  1  0  0  0
  9 11  1  0  0  0  0
 17 16  1  1  0  0  0
 17 18  1  0  0  0  0
 17 24  1  0  0  0  0
 18 19  1  0  0  0  0
 18 25  1  6  0  0  0
 19 20  1  0  0  0  0
 19 26  1  6  0  0  0
 20 21  1  0  0  0  0
 20 23  1  1  0  0  0
 21 22  1  1  0  0  0
 21 24  1  0  0  0  0
 22 27  1  0  0  0  0
 28 12  1  1  0  0  0
 28 29  1  0  0  0  0
 28 33  1  0  0  0  0
 29 30  1  0  0  0  0
 29 36  1  6  0  0  0
 30 31  1  0  0  0  0
 30 37  1  6  0  0  0
 31 32  1  0  0  0  0
 31 34  1  6  0  0  0
 32 33  1  0  0  0  0
 33 35  1  1  0  0  0
M  END
>  <CHROM.1>
-177.99669415,60.34910434,-70.75025166,66.66736453,-66.72446825,-68.95355581
-5.37373508,27.34276923,65.61691387,-0.02954823,0.32912964,-0.43145930

>  <Name>
ligand

>  <RI>
0

>  <Rbt.Current_Directory>
/home/itssahil/PROJECTS/Mol_Feturizer/Test_systems_manuscript/rnas/2g5k

>  <Rbt.Executable>
rbdock ($Id: //depot/dev/client3/rdock/2013.1/src/exe/rbdock.cxx#4 $)

>  <Rbt.Library>
libRbt.so (2013.1, Build901 2013/11/27)

>  <Rbt.Parameter_File>
/export/apps/rDock/src/rDock_2013.1_src/data/scripts/dock_solv.prm

>  <Rbt.Receptor>
prm/pocket_docking_5.prm

>  <SCORE>
-8.67292

>  <SCORE.INTER>
-6.20914

>  <SCORE.INTER.CONST>
1

>  <SCORE.INTER.POLAR>
0

>  <SCORE.INTER.ROT>
6

>  <SCORE.INTER.SOLV>
13.2987

>  <SCORE.INTER.VDW>
-16.1723

>  <SCORE.INTER.norm>
-0.167815

>  <SCORE.INTRA>
-2.46378

>  <SCORE.INTRA.DIHEDRAL>
-10.0682

>  <SCORE.INTRA.DIHEDRAL.0>
11.3972

>  <SCORE.INTRA.POLAR>
0

>  <SCORE.INTRA.POLAR.0>
0

>  <SCORE.INTRA.REPUL>
0

>  <SCORE.INTRA.REPUL.0>
0

>  <SCORE.INTRA.SOLV>
1.02078

>  <SCORE.INTRA.SOLV.lig_0>
-92.3891

>  <SCORE.INTRA.VDW>
2.05994

>  <SCORE.INTRA.VDW.0>
-2.90606

>  <SCORE.INTRA.norm>
-0.0665886

>  <SCORE.RESTR>
0

>  <SCORE.RESTR.CAVITY>
0

>  <SCORE.RESTR.norm>
0

>  <SCORE.SYSTEM>
0

>  <SCORE.SYSTEM.CONST>
0

>  <SCORE.SYSTEM.DIHEDRAL>
0

>  <SCORE.SYSTEM.SOLV>
0

>  <SCORE.SYSTEM.norm>
0

>  <SCORE.heavy>
37

>  <SCORE.norm>
-0.234403

>  <RMSD>
3.888

$$$$
ligand
 OpenBabel02271912133D
libRbt.so/2013.1/901 2013/11/27
 37 40  0  0  0  0  0  0  0  0999 V2000
   -0.6922   29.0599   68.8947 C   0  0  1  0  0  0  0  0  0  0  0  0
   -1.8000   28.5202   69.8433 C   0  0  1  0  0  0  0  0  0  0  0  0
   -3.2120   28.7545   69.2735 C   0  0  0  0  0  0  0  0  0  0  0  0
   -3.4019   30.2800   69.0049 C   0  0  1  0  0  0  0  0  0  0  0  0
   -2.3161   30.8037   68.0099 C   0  0  1  0  0  0  0  0  0  0  0  0
   -2.5278   32.3636   67.7516 C   0  0  1  0  0  0  0  0  0  0  0  0
   -3.9528   32.5899   67.1667 C   0  0  1  0  0  0  0  0  0  0  0  0
   -4.9897   32.0197   68.1807 C   0  0  2  0  0  0  0  0  0  0  0  0
   -3.5571   34.7114   65.7338 C   0  0  0  0  0  0  0  0  0  0  0  0
   -1.5891   27.0848   70.1266 N   0  0  0  0  0  0  0  0  0  0  0  0
   -4.1966   34.0608   66.9216 N   0  0  0  0  0  0  0  0  0  0  0  0
   -0.5910   28.3003   67.6745 O   0  0  0  0  0  0  0  0  0  0  0  0
   -0.9812   30.4878   68.6001 O   0  0  0  0  0  0  0  0  0  0  0  0
   -4.7577   30.5937   68.4453 O   0  0  0  0  0  0  0  0  0  0  0  0
   -2.4335   33.0706   68.9814 O   0  0  0  0  0  0  0  0  0  0  0  0
   -6.3095   32.1884   67.6761 O   0  0  0  0  0  0  0  0  0  0  0  0
   -7.3490   31.9687   68.6611 C   0  0  2  0  0  0  0  0  0  0  0  0
   -8.7074   31.5873   68.0265 C   0  0  1  0  0  0  0  0  0  0  0  0
   -9.2919   32.7804   67.2035 C   0  0  2  0  0  0  0  0  0  0  0  0
   -9.4939   33.9640   68.1279 C   0  0  1  0  0  0  0  0  0  0  0  0
   -8.1196   34.3639   68.7436 C   0  0  1  0  0  0  0  0  0  0  0  0
   -8.2415   35.5411   69.7093 C   0  0  0  0  0  0  0  0  0  0  0  0
  -10.0693   35.0936   67.3587 N   0  0  0  0  0  0  0  0  0  0  0  0
   -7.5470   33.1984   69.4851 O   0  0  0  0  0  0  0  0  0  0  0  0
   -8.4898   30.4122   67.2143 O   0  0  0  0  0  0  0  0  0  0  0  0
  -10.5526   32.4106   66.6405 O   0  0  0  0  0  0  0  0  0  0  0  0
   -6.9565   36.0216   70.0215 O   0  0  0  0  0  0  0  0  0  0  0  0
    0.6391   28.3074   66.7930 C   0  0  1  0  0  0  0  0  0  0  0  0
    0.3358   27.4640   65.5243 C   0  0  1  0  0  0  0  0  0  0  0  0
    1.5795   27.4416   64.5892 C   0  0  2  0  0  0  0  0  0  0  0  0
    1.9266   28.8917   64.1707 C   0  0  1  0  0  0  0  0  0  0  0  0
    2.2468   29.7664   65.4355 C   0  0  0  0  0  0  0  0  0  0  0  0
    1.0065   29.7601   66.3542 C   0  0  2  0  0  0  0  0  0  0  0  0
    3.1067   28.8822   63.2731 N   0  0  0  0  0  0  0  0  0  0  0  0
    1.3139   30.5775   67.5329 N   0  0  0  0  0  0  0  0  0  0  0  0
    0.0096   26.1113   65.9130 O   0  0  0  0  0  0  0  0  0  0  0  0
    1.2735   26.6468   63.4219 O   0  0  0  0  0  0  0  0  0  0  0  0
  1  2  1  0  0  0  0
  1 12  1  6  0  0  0
  1 13  1  0  0  0  0
  2  3  1  0  0  0  0
  2 10  1  6  0  0  0
  4  3  1  6  0  0  0
  4  5  1  0  0  0  0
  4 14  1  0  0  0  0
  5  6  1  0  0  0  0
  5 13  1  1  0  0  0
  6  7  1  0  0  0  0
  6 15  1  1  0  0  0
  7  8  1  0  0  0  0
  7 11  1  1  0  0  0
  8 14  1  0  0  0  0
  8 16  1  6  0  0  0
  9 11  1  0  0  0  0
 17 16  1  6  0  0  0
 17 18  1  0  0  0  0
 17 24  1  0  0  0  0
 18 19  1  0  0  0  0
 18 25  1  6  0  0  0
 19 20  1  0  0  0  0
 19 26  1  1  0  0  0
 20 21  1  0  0  0  0
 20 23  1  6  0  0  0
 21 22  1  1  0  0  0
 21 24  1  0  0  0  0
 22 27  1  0  0  0  0
 28 12  1  1  0  0  0
 28 29  1  0  0  0  0
 28 33  1  0  0  0  0
 29 30  1  0  0  0  0
 29 36  1  1  0  0  0
 30 31  1  0  0  0  0
 30 37  1  6  0  0  0
 31 32  1  0  0  0  0
 31 34  1  6  0  0  0
 32 33  1  0  0  0  0
 33 35  1  1  0  0  0
M  END
>  <CHROM.1>
-159.96267595,75.98313474,-166.88458140,-175.70457265,-156.60853332,-168.40018197
-3.51637934,30.98593839,67.47632242,0.47437197,-0.31279457,3.01634295

>  <Name>
ligand

>  <RI>
0

>  <Rbt.Current_Directory>
/home/itssahil/PROJECTS/Mol_Feturizer/Test_systems_manuscript/rnas/2g5k

>  <Rbt.Executable>
rbdock ($Id: //depot/dev/client3/rdock/2013.1/src/exe/rbdock.cxx#4 $)

>  <Rbt.Library>
libRbt.so (2013.1, Build901 2013/11/27)

>  <Rbt.Parameter_File>
/export/apps/rDock/src/rDock_2013.1_src/data/scripts/dock_solv.prm

>  <Rbt.Receptor>
prm/pocket_docking_7.prm

>  <SCORE>
-10.8965

>  <SCORE.INTER>
-8.97374

>  <SCORE.INTER.CONST>
1

>  <SCORE.INTER.POLAR>
0

>  <SCORE.INTER.ROT>
6

>  <SCORE.INTER.SOLV>
19

>  <SCORE.INTER.VDW>
-19.9158

>  <SCORE.INTER.norm>
-0.242533

>  <SCORE.INTRA>
-1.92274

>  <SCORE.INTRA.DIHEDRAL>
-5.60497

>  <SCORE.INTRA.DIHEDRAL.0>
11.3972

>  <SCORE.INTRA.POLAR>
0

>  <SCORE.INTRA.POLAR.0>
0

>  <SCORE.INTRA.REPUL>
0

>  <SCORE.INTRA.REPUL.0>
0

>  <SCORE.INTRA.SOLV>
0.745266

>  <SCORE.INTRA.SOLV.lig_0>
-92.3891

>  <SCORE.INTRA.VDW>
0.507105

>  <SCORE.INTRA.VDW.0>
-2.90606

>  <SCORE.INTRA.norm>
-0.0519661

>  <SCORE.RESTR>
0

>  <SCORE.RESTR.CAVITY>
0

>  <SCORE.RESTR.norm>
0

>  <SCORE.SYSTEM>
0

>  <SCORE.SYSTEM.CONST>
0

>  <SCORE.SYSTEM.DIHEDRAL>
0

>  <SCORE.SYSTEM.SOLV>
0

>  <SCORE.SYSTEM.norm>
0

>  <SCORE.heavy>
37

>  <SCORE.norm>
-0.2945

>  <RMSD>
3.903

$$$$
ligand
 OpenBabel02271912133D
libRbt.so/2013.1/901 2013/11/27
 37 40  0  0  0  0  0  0  0  0999 V2000
   -1.9959   28.0964   63.7157 C   0  0  1  0  0  0  0  0  0  0  0  0
   -2.4166   29.5870   63.8555 C   0  0  1  0  0  0  0  0  0  0  0  0
   -3.4369   29.7945   64.9910 C   0  0  0  0  0  0  0  0  0  0  0  0
   -4.6785   28.8868   64.7269 C   0  0  1  0  0  0  0  0  0  0  0  0
   -4.2544   27.3847   64.6396 C   0  0  1  0  0  0  0  0  0  0  0  0
   -5.5372   26.4764   64.3676 C   0  0  1  0  0  0  0  0  0  0  0  0
   -6.5581   26.6846   65.5245 C   0  0  1  0  0  0  0  0  0  0  0  0
   -6.9178   28.1996   65.5873 C   0  0  2  0  0  0  0  0  0  0  0  0
   -7.6707   24.3570   65.2902 C   0  0  0  0  0  0  0  0  0  0  0  0
   -1.2311   30.4454   64.0633 N   0  0  0  0  0  0  0  0  0  0  0  0
   -7.7960   25.8494   65.2944 N   0  0  0  0  0  0  0  0  0  0  0  0
   -1.2122   27.6360   64.8338 O   0  0  0  0  0  0  0  0  0  0  0  0
   -3.2247   27.2741   63.5636 O   0  0  0  0  0  0  0  0  0  0  0  0
   -5.7236   29.0296   65.7932 O   0  0  0  0  0  0  0  0  0  0  0  0
   -6.1562   26.8724   63.1506 O   0  0  0  0  0  0  0  0  0  0  0  0
   -7.8369   28.4395   66.6470 O   0  0  0  0  0  0  0  0  0  0  0  0
   -8.2409   29.8251   66.7735 C   0  0  2  0  0  0  0  0  0  0  0  0
   -9.3328   30.0370   67.8489 C   0  0  1  0  0  0  0  0  0  0  0  0
  -10.6711   29.3494   67.4263 C   0  0  2  0  0  0  0  0  0  0  0  0
  -11.1428   29.9523   66.1187 C   0  0  1  0  0  0  0  0  0  0  0  0
  -10.0539   29.7125   65.0304 C   0  0  1  0  0  0  0  0  0  0  0  0
  -10.4452   30.3128   63.6814 C   0  0  0  0  0  0  0  0  0  0  0  0
  -12.4244   29.3205   65.7221 N   0  0  0  0  0  0  0  0  0  0  0  0
   -8.7650   30.3306   65.4696 O   0  0  0  0  0  0  0  0  0  0  0  0
   -8.8171   29.5192   69.0955 O   0  0  0  0  0  0  0  0  0  0  0  0
  -11.6680   29.5717   68.4263 O   0  0  0  0  0  0  0  0  0  0  0  0
  -10.5556   31.7096   63.8083 O   0  0  0  0  0  0  0  0  0  0  0  0
   -0.4864   26.3082   64.8468 C   0  0  1  0  0  0  0  0  0  0  0  0
    0.6247   26.3482   63.7622 C   0  0  1  0  0  0  0  0  0  0  0  0
    1.3958   24.9966   63.7387 C   0  0  2  0  0  0  0  0  0  0  0  0
    2.0409   24.7557   65.1258 C   0  0  1  0  0  0  0  0  0  0  0  0
    0.9376   24.7018   66.2425 C   0  0  0  0  0  0  0  0  0  0  0  0
    0.1767   26.0448   66.2356 C   0  0  2  0  0  0  0  0  0  0  0  0
    2.7848   23.4732   65.1132 N   0  0  0  0  0  0  0  0  0  0  0  0
   -0.8521   25.9860   67.2796 N   0  0  0  0  0  0  0  0  0  0  0  0
    0.0249   26.5752   62.4675 O   0  0  0  0  0  0  0  0  0  0  0  0
    2.4176   25.0580   62.7189 O   0  0  0  0  0  0  0  0  0  0  0  0
  1  2  1  0  0  0  0
  1 12  1  1  0  0  0
  1 13  1  0  0  0  0
  2  3  1  0  0  0  0
  2 10  1  1  0  0  0
  4  3  1  1  0  0  0
  4  5  1  0  0  0  0
  4 14  1  0  0  0  0
  5  6  1  0  0  0  0
  5 13  1  6  0  0  0
  6  7  1  0  0  0  0
  6 15  1  6  0  0  0
  7  8  1  0  0  0  0
  7 11  1  6  0  0  0
  8 14  1  0  0  0  0
  8 16  1  1  0  0  0
  9 11  1  0  0  0  0
 17 16  1  6  0  0  0
 17 18  1  0  0  0  0
 17 24  1  0  0  0  0
 18 19  1  0  0  0  0
 18 25  1  1  0  0  0
 19 20  1  0  0  0  0
 19 26  1  1  0  0  0
 20 21  1  0  0  0  0
 20 23  1  6  0  0  0
 21 22  1  6  0  0  0
 21 24  1  0  0  0  0
 22 27  1  0  0  0  0
 28 12  1  1  0  0  0
 28 29  1  0  0  0  0
 28 33  1  0  0  0  0
 29 30  1  0  0  0  0
 29 36  1  6  0  0  0
 30 31  1  0  0  0  0
 30 37  1  6  0  0  0
 31 32  1  0  0  0  0
 31 34  1  6  0  0  0
 32 33  1  0  0  0  0
 33 35  1  1  0  0  0
M  END
>  <CHROM.1>
-169.58457968,64.03044840,-179.39476821,65.18607216,174.90154987,63.10102813
-4.90143913,27.82491072,65.20913441,-0.15908306,0.33422327,-0.67790093

>  <Name>
ligand

>  <RI>
0

>  <Rbt.Current_Directory>
/home/itssahil/PROJECTS/Mol_Feturizer/Test_systems_manuscript/rnas/2g5k

>  <Rbt.Executable>
rbdock ($Id: //depot/dev/client3/rdock/2013.1/src/exe/rbdock.cxx#4 $)

>  <Rbt.Library>
libRbt.so (2013.1, Build901 2013/11/27)

>  <Rbt.Parameter_File>
/export/apps/rDock/src/rDock_2013.1_src/data/scripts/dock_solv.prm

>  <Rbt.Receptor>
prm/pocket_docking_4.prm

>  <SCORE>
-10.3209

>  <SCORE.INTER>
-5.41431

>  <SCORE.INTER.CONST>
1

>  <SCORE.INTER.POLAR>
0

>  <SCORE.INTER.ROT>
6

>  <SCORE.INTER.SOLV>
12.8183

>  <SCORE.INTER.VDW>
-15.4823

>  <SCORE.INTER.norm>
-0.146333

>  <SCORE.INTRA>
-4.90657

>  <SCORE.INTRA.DIHEDRAL>
-10.5277

>  <SCORE.INTRA.DIHEDRAL.0>
11.3972

>  <SCORE.INTRA.POLAR>
0

>  <SCORE.INTRA.POLAR.0>
0

>  <SCORE.INTRA.REPUL>
0

>  <SCORE.INTRA.REPUL.0>
0

>  <SCORE.INTRA.SOLV>
-1.19828

>  <SCORE.INTRA.SOLV.lig_0>
-92.3891

>  <SCORE.INTRA.VDW>
0.956418

>  <SCORE.INTRA.VDW.0>
-2.90606

>  <SCORE.INTRA.norm>
-0.13261

>  <SCORE.RESTR>
0

>  <SCORE.RESTR.CAVITY>
0

>  <SCORE.RESTR.norm>
0

>  <SCORE.SYSTEM>
0

>  <SCORE.SYSTEM.CONST>
0

>  <SCORE.SYSTEM.DIHEDRAL>
0

>  <SCORE.SYSTEM.SOLV>
0

>  <SCORE.SYSTEM.norm>
0

>  <SCORE.heavy>
37

>  <SCORE.norm>
-0.278943

>  <RMSD>
3.910

$$$$
ligand
 OpenBabel02271912133D
libRbt.so/2013.1/901 2013/11/27
 37 40  0  0  0  0  0  0  0  0999 V2000
   -2.0102   28.0396   63.7174 C   0  0  1  0  0  0  0  0  0  0  0  0
   -2.4317   29.5309   63.8467 C   0  0  1  0  0  0  0  0  0  0  0  0
   -3.4420   29.7479   64.9894 C   0  0  0  0  0  0  0  0  0  0  0  0
   -4.6847   28.8360   64.7452 C   0  0  1  0  0  0  0  0  0  0  0  0
   -4.2592   27.3338   64.6684 C   0  0  1  0  0  0  0  0  0  0  0  0
   -5.5431   26.4212   64.4167 C   0  0  1  0  0  0  0  0  0  0  0  0
   -6.5539   26.6390   65.5807 C   0  0  1  0  0  0  0  0  0  0  0  0
   -6.9152   28.1541   65.6322 C   0  0  2  0  0  0  0  0  0  0  0  0
   -7.6543   24.3102   65.3050 C   0  0  0  0  0  0  0  0  0  0  0  0
   -1.2457   30.3928   64.0356 N   0  0  0  0  0  0  0  0  0  0  0  0
   -7.7926   25.8001   65.3697 N   0  0  0  0  0  0  0  0  0  0  0  0
   -1.2158   27.5910   64.8328 O   0  0  0  0  0  0  0  0  0  0  0  0
   -3.2391   27.2143   63.5843 O   0  0  0  0  0  0  0  0  0  0  0  0
   -5.7204   28.9877   65.8194 O   0  0  0  0  0  0  0  0  0  0  0  0
   -6.1736   26.8046   63.2015 O   0  0  0  0  0  0  0  0  0  0  0  0
   -7.8250   28.4029   66.6978 O   0  0  0  0  0  0  0  0  0  0  0  0
   -8.3509   29.7527   66.7198 C   0  0  2  0  0  0  0  0  0  0  0  0
   -9.4134   29.9659   67.8240 C   0  0  1  0  0  0  0  0  0  0  0  0
  -10.6978   29.1255   67.5303 C   0  0  2  0  0  0  0  0  0  0  0  0
  -11.2762   29.5594   66.1986 C   0  0  1  0  0  0  0  0  0  0  0  0
  -10.2145   29.3171   65.0842 C   0  0  1  0  0  0  0  0  0  0  0  0
  -10.7143   29.7517   63.7078 C   0  0  0  0  0  0  0  0  0  0  0  0
  -12.5083   28.7817   65.9230 N   0  0  0  0  0  0  0  0  0  0  0  0
   -8.9721   30.0857   65.4032 O   0  0  0  0  0  0  0  0  0  0  0  0
   -8.8017   29.6146   69.0852 O   0  0  0  0  0  0  0  0  0  0  0  0
  -11.6698   29.3503   68.5539 O   0  0  0  0  0  0  0  0  0  0  0  0
  -10.9808   31.1330   63.7245 O   0  0  0  0  0  0  0  0  0  0  0  0
   -0.4658   26.2767   64.8410 C   0  0  1  0  0  0  0  0  0  0  0  0
    0.6558   26.3476   63.7688 C   0  0  1  0  0  0  0  0  0  0  0  0
    1.4520   25.0107   63.7408 C   0  0  2  0  0  0  0  0  0  0  0  0
    2.0868   24.7683   65.1324 C   0  0  1  0  0  0  0  0  0  0  0  0
    0.9729   24.6835   66.2367 C   0  0  0  0  0  0  0  0  0  0  0  0
    0.1875   26.0122   66.2343 C   0  0  2  0  0  0  0  0  0  0  0  0
    2.8544   23.4999   65.1158 N   0  0  0  0  0  0  0  0  0  0  0  0
   -0.8509   25.9244   67.2667 N   0  0  0  0  0  0  0  0  0  0  0  0
    0.0656   26.5758   62.4700 O   0  0  0  0  0  0  0  0  0  0  0  0
    2.4831   25.1007   62.7326 O   0  0  0  0  0  0  0  0  0  0  0  0
  1  2  1  0  0  0  0
  1 12  1  1  0  0  0
  1 13  1  0  0  0  0
  2  3  1  0  0  0  0
  2 10  1  1  0  0  0
  4  3  1  1  0  0  0
  4  5  1  0  0  0  0
  4 14  1  0  0  0  0
  5  6  1  0  0  0  0
  5 13  1  6  0  0  0
  6  7  1  0  0  0  0
  6 15  1  6  0  0  0
  7  8  1  0  0  0  0
  7 11  1  6  0  0  0
  8 14  1  0  0  0  0
  8 16  1  1  0  0  0
  9 11  1  0  0  0  0
 17 16  1  6  0  0  0
 17 18  1  0  0  0  0
 17 24  1  0  0  0  0
 18 19  1  0  0  0  0
 18 25  1  1  0  0  0
 19 20  1  0  0  0  0
 19 26  1  1  0  0  0
 20 21  1  0  0  0  0
 20 23  1  6  0  0  0
 21 22  1  6  0  0  0
 21 24  1  0  0  0  0
 22 27  1  0  0  0  0
 28 12  1  1  0  0  0
 28 29  1  0  0  0  0
 28 33  1  0  0  0  0
 29 30  1  0  0  0  0
 29 36  1  6  0  0  0
 30 31  1  0  0  0  0
 30 37  1  6  0  0  0
 31 32  1  0  0  0  0
 31 34  1  6  0  0  0
 32 33  1  0  0  0  0
 33 35  1  1  0  0  0
M  END
>  <CHROM.1>
-168.33091585,60.77331200,-172.55103017,66.02003261,175.82486586,61.64902860
-4.93385312,27.71493273,65.22929885,-0.11714575,0.32522207,-0.74058356

>  <Name>
ligand

>  <RI>
0

>  <Rbt.Current_Directory>
/home/itssahil/PROJECTS/Mol_Feturizer/Test_systems_manuscript/rnas/2g5k

>  <Rbt.Executable>
rbdock ($Id: //depot/dev/client3/rdock/2013.1/src/exe/rbdock.cxx#4 $)

>  <Rbt.Library>
libRbt.so (2013.1, Build901 2013/11/27)

>  <Rbt.Parameter_File>
/export/apps/rDock/src/rDock_2013.1_src/data/scripts/dock_solv.prm

>  <Rbt.Receptor>
prm/pocket_docking_4.prm

>  <SCORE>
-10.3754

>  <SCORE.INTER>
-5.60172

>  <SCORE.INTER.CONST>
1

>  <SCORE.INTER.POLAR>
0

>  <SCORE.INTER.ROT>
6

>  <SCORE.INTER.SOLV>
12.302

>  <SCORE.INTER.VDW>
-15.4351

>  <SCORE.INTER.norm>
-0.151398

>  <SCORE.INTRA>
-4.7737

>  <SCORE.INTRA.DIHEDRAL>
-10.1665

>  <SCORE.INTRA.DIHEDRAL.0>
11.3972

>  <SCORE.INTRA.POLAR>
0

>  <SCORE.INTRA.POLAR.0>
0

>  <SCORE.INTRA.REPUL>
0

>  <SCORE.INTRA.REPUL.0>
0

>  <SCORE.INTRA.SOLV>
-1.0955

>  <SCORE.INTRA.SOLV.lig_0>
-92.3891

>  <SCORE.INTRA.VDW>
0.857314

>  <SCORE.INTRA.VDW.0>
-2.90606

>  <SCORE.INTRA.norm>
-0.129019

>  <SCORE.RESTR>
0

>  <SCORE.RESTR.CAVITY>
0

>  <SCORE.RESTR.norm>
0

>  <SCORE.SYSTEM>
0

>  <SCORE.SYSTEM.CONST>
0

>  <SCORE.SYSTEM.DIHEDRAL>
0

>  <SCORE.SYSTEM.SOLV>
0

>  <SCORE.SYSTEM.norm>
0

>  <SCORE.heavy>
37

>  <SCORE.norm>
-0.280417

>  <RMSD>
3.936

$$$$
ligand
 OpenBabel02271912133D
libRbt.so/2013.1/901 2013/11/27
 37 40  0  0  0  0  0  0  0  0999 V2000
   -0.9433   27.8667   63.3853 C   0  0  1  0  0  0  0  0  0  0  0  0
   -1.2394   29.3910   63.3005 C   0  0  1  0  0  0  0  0  0  0  0  0
   -2.0708   29.8847   64.4999 C   0  0  0  0  0  0  0  0  0  0  0  0
   -3.3951   29.0622   64.5697 C   0  0  1  0  0  0  0  0  0  0  0  0
   -3.0888   27.5354   64.7072 C   0  0  1  0  0  0  0  0  0  0  0  0
   -4.4550   26.7146   64.7748 C   0  0  1  0  0  0  0  0  0  0  0  0
   -5.2839   27.2128   65.9949 C   0  0  1  0  0  0  0  0  0  0  0  0
   -5.5292   28.7422   65.8229 C   0  0  2  0  0  0  0  0  0  0  0  0
   -6.6087   25.1001   66.6959 C   0  0  0  0  0  0  0  0  0  0  0  0
    0.0181   30.1606   63.1922 N   0  0  0  0  0  0  0  0  0  0  0  0
   -6.5948   26.4670   66.0840 N   0  0  0  0  0  0  0  0  0  0  0  0
   -0.0402   27.5378   64.4589 O   0  0  0  0  0  0  0  0  0  0  0  0
   -2.2332   27.1461   63.5469 O   0  0  0  0  0  0  0  0  0  0  0  0
   -4.2652   29.4828   65.7167 O   0  0  0  0  0  0  0  0  0  0  0  0
   -5.2138   26.9481   63.5955 O   0  0  0  0  0  0  0  0  0  0  0  0
   -6.2693   29.2453   66.9293 O   0  0  0  0  0  0  0  0  0  0  0  0
   -6.8383   30.5593   66.7084 C   0  0  2  0  0  0  0  0  0  0  0  0
   -7.3592   31.2151   68.0091 C   0  0  1  0  0  0  0  0  0  0  0  0
   -8.5826   30.4269   68.5787 C   0  0  2  0  0  0  0  0  0  0  0  0
   -9.6924   30.4277   67.5469 C   0  0  1  0  0  0  0  0  0  0  0  0
   -9.1742   29.7412   66.2478 C   0  0  1  0  0  0  0  0  0  0  0  0
  -10.2314   29.7214   65.1454 C   0  0  0  0  0  0  0  0  0  0  0  0
  -10.8656   29.7005   68.0888 N   0  0  0  0  0  0  0  0  0  0  0  0
   -7.9731   30.4739   65.7412 O   0  0  0  0  0  0  0  0  0  0  0  0
   -6.2548   31.2653   68.9395 O   0  0  0  0  0  0  0  0  0  0  0  0
   -9.0559   31.0594   69.7699 O   0  0  0  0  0  0  0  0  0  0  0  0
  -11.2876   28.8748   65.5288 O   0  0  0  0  0  0  0  0  0  0  0  0
    0.5401   26.1548   64.6598 C   0  0  1  0  0  0  0  0  0  0  0  0
    1.6136   25.9115   63.5638 C   0  0  1  0  0  0  0  0  0  0  0  0
    2.2353   24.4947   63.7316 C   0  0  2  0  0  0  0  0  0  0  0  0
    2.8956   24.3919   65.1286 C   0  0  1  0  0  0  0  0  0  0  0  0
    1.8295   24.6255   66.2582 C   0  0  0  0  0  0  0  0  0  0  0  0
    1.2161   26.0282   66.0616 C   0  0  2  0  0  0  0  0  0  0  0  0
    3.4979   23.0476   65.2972 N   0  0  0  0  0  0  0  0  0  0  0  0
    0.2211   26.2379   67.1190 N   0  0  0  0  0  0  0  0  0  0  0  0
    0.9998   26.0092   62.2596 O   0  0  0  0  0  0  0  0  0  0  0  0
    3.2242   24.2919   62.6978 O   0  0  0  0  0  0  0  0  0  0  0  0
  1  2  1  0  0  0  0
  1 12  1  1  0  0  0
  1 13  1  0  0  0  0
  2  3  1  0  0  0  0
  2 10  1  1  0  0  0
  4  3  1  1  0  0  0
  4  5  1  0  0  0  0
  4 14  1  0  0  0  0
  5  6  1  0  0  0  0
  5 13  1  6  0  0  0
  6  7  1  0  0  0  0
  6 15  1  6  0  0  0
  7  8  1  0  0  0  0
  7 11  1  6  0  0  0
  8 14  1  0  0  0  0
  8 16  1  1  0  0  0
  9 11  1  0  0  0  0
 17 16  1  1  0  0  0
 17 18  1  0  0  0  0
 17 24  1  0  0  0  0
 18 19  1  0  0  0  0
 18 25  1  1  0  0  0
 19 20  1  0  0  0  0
 19 26  1  1  0  0  0
 20 21  1  0  0  0  0
 20 23  1  1  0  0  0
 21 22  1  6  0  0  0
 21 24  1  0  0  0  0
 22 27  1  0  0  0  0
 28 12  1  6  0  0  0
 28 29  1  0  0  0  0
 28 33  1  0  0  0  0
 29 30  1  0  0  0  0
 29 36  1  6  0  0  0
 30 31  1  0  0  0  0
 30 37  1  6  0  0  0
 31 32  1  0  0  0  0
 31 34  1  1  0  0  0
 32 33  1  0  0  0  0
 33 35  1  1  0  0  0
M  END
>  <CHROM.1>
-172.48311384,80.45769814,-165.06094451,73.22635740,-167.14434453,-67.35740641
-3.72854963,27.93507325,65.52152356,-0.30859034,0.35630970,-0.23730373

>  <Name>
ligand

>  <RI>
0

>  <Rbt.Current_Directory>
/home/itssahil/PROJECTS/Mol_Feturizer/Test_systems_manuscript/rnas/2g5k

>  <Rbt.Executable>
rbdock ($Id: //depot/dev/client3/rdock/2013.1/src/exe/rbdock.cxx#4 $)

>  <Rbt.Library>
libRbt.so (2013.1, Build901 2013/11/27)

>  <Rbt.Parameter_File>
/export/apps/rDock/src/rDock_2013.1_src/data/scripts/dock_solv.prm

>  <Rbt.Receptor>
prm/pocket_docking_5.prm

>  <SCORE>
-10.5397

>  <SCORE.INTER>
-6.45207

>  <SCORE.INTER.CONST>
1

>  <SCORE.INTER.POLAR>
0

>  <SCORE.INTER.ROT>
6

>  <SCORE.INTER.SOLV>
15.1245

>  <SCORE.INTER.VDW>
-16.9429

>  <SCORE.INTER.norm>
-0.17438

>  <SCORE.INTRA>
-4.08768

>  <SCORE.INTRA.DIHEDRAL>
-7.92807

>  <SCORE.INTRA.DIHEDRAL.0>
11.3972

>  <SCORE.INTRA.POLAR>
0

>  <SCORE.INTRA.POLAR.0>
0

>  <SCORE.INTRA.REPUL>
0

>  <SCORE.INTRA.REPUL.0>
0

>  <SCORE.INTRA.SOLV>
-0.66817

>  <SCORE.INTRA.SOLV.lig_0>
-92.3891

>  <SCORE.INTRA.VDW>
0.210444

>  <SCORE.INTRA.VDW.0>
-2.90606

>  <SCORE.INTRA.norm>
-0.110478

>  <SCORE.RESTR>
0

>  <SCORE.RESTR.CAVITY>
0

>  <SCORE.RESTR.norm>
0

>  <SCORE.SYSTEM>
0

>  <SCORE.SYSTEM.CONST>
0

>  <SCORE.SYSTEM.DIHEDRAL>
0

>  <SCORE.SYSTEM.SOLV>
0

>  <SCORE.SYSTEM.norm>
0

>  <SCORE.heavy>
37

>  <SCORE.norm>
-0.284858

>  <RMSD>
3.943

$$$$
ligand
 OpenBabel02271912133D
libRbt.so/2013.1/901 2013/11/27
 37 40  0  0  0  0  0  0  0  0999 V2000
   -0.7083   27.7131   63.2896 C   0  0  1  0  0  0  0  0  0  0  0  0
   -0.9055   29.2471   63.1275 C   0  0  1  0  0  0  0  0  0  0  0  0
   -1.7266   29.8486   64.2839 C   0  0  0  0  0  0  0  0  0  0  0  0
   -3.1015   29.1146   64.3628 C   0  0  1  0  0  0  0  0  0  0  0  0
   -2.8953   27.5801   64.5779 C   0  0  1  0  0  0  0  0  0  0  0  0
   -4.3118   26.8503   64.6535 C   0  0  1  0  0  0  0  0  0  0  0  0
   -5.1306   27.4571   65.8305 C   0  0  1  0  0  0  0  0  0  0  0  0
   -5.2751   28.9888   65.5820 C   0  0  2  0  0  0  0  0  0  0  0  0
   -6.7604   25.8653   67.0635 C   0  0  0  0  0  0  0  0  0  0  0  0
    0.4001   29.9306   63.0112 N   0  0  0  0  0  0  0  0  0  0  0  0
   -6.4877   26.7997   65.9253 N   0  0  0  0  0  0  0  0  0  0  0  0
    0.1515   27.3803   64.3971 O   0  0  0  0  0  0  0  0  0  0  0  0
   -2.0441   27.0831   63.4561 O   0  0  0  0  0  0  0  0  0  0  0  0
   -3.9650   29.6431   65.4694 O   0  0  0  0  0  0  0  0  0  0  0  0
   -5.0317   27.0740   63.4481 O   0  0  0  0  0  0  0  0  0  0  0  0
   -6.0028   29.5895   66.6472 O   0  0  0  0  0  0  0  0  0  0  0  0
   -6.5300   30.9020   66.3334 C   0  0  2  0  0  0  0  0  0  0  0  0
   -7.1080   31.6291   67.5706 C   0  0  1  0  0  0  0  0  0  0  0  0
   -8.3780   30.8925   68.1063 C   0  0  2  0  0  0  0  0  0  0  0  0
   -9.4284   30.8652   67.0146 C   0  0  1  0  0  0  0  0  0  0  0  0
   -8.8540   30.1075   65.7803 C   0  0  1  0  0  0  0  0  0  0  0  0
   -9.8484   30.0552   64.6220 C   0  0  0  0  0  0  0  0  0  0  0  0
  -10.6454   30.1872   67.5227 N   0  0  0  0  0  0  0  0  0  0  0  0
   -7.6109   30.7921   65.3087 O   0  0  0  0  0  0  0  0  0  0  0  0
   -6.0561   31.7027   68.5586 O   0  0  0  0  0  0  0  0  0  0  0  0
   -8.9028   31.5902   69.2381 O   0  0  0  0  0  0  0  0  0  0  0  0
  -10.9709   29.2991   65.0064 O   0  0  0  0  0  0  0  0  0  0  0  0
    0.7205   25.9955   64.6179 C   0  0  1  0  0  0  0  0  0  0  0  0
    1.7910   25.7273   63.5248 C   0  0  1  0  0  0  0  0  0  0  0  0
    2.4010   24.3080   63.7129 C   0  0  2  0  0  0  0  0  0  0  0  0
    3.0616   24.2202   65.1109 C   0  0  1  0  0  0  0  0  0  0  0  0
    1.9984   24.4792   66.2377 C   0  0  0  0  0  0  0  0  0  0  0  0
    1.3965   25.8839   66.0209 C   0  0  2  0  0  0  0  0  0  0  0  0
    3.6529   22.8736   65.2987 N   0  0  0  0  0  0  0  0  0  0  0  0
    0.4042   26.1174   67.0758 N   0  0  0  0  0  0  0  0  0  0  0  0
    1.1770   25.8110   62.2197 O   0  0  0  0  0  0  0  0  0  0  0  0
    3.3875   24.0818   62.6816 O   0  0  0  0  0  0  0  0  0  0  0  0
  1  2  1  0  0  0  0
  1 12  1  1  0  0  0
  1 13  1  0  0  0  0
  2  3  1  0  0  0  0
  2 10  1  1  0  0  0
  4  3  1  1  0  0  0
  4  5  1  0  0  0  0
  4 14  1  0  0  0  0
  5  6  1  0  0  0  0
  5 13  1  6  0  0  0
  6  7  1  0  0  0  0
  6 15  1  6  0  0  0
  7  8  1  0  0  0  0
  7 11  1  6  0  0  0
  8 14  1  0  0  0  0
  8 16  1  1  0  0  0
  9 11  1  0  0  0  0
 17 16  1  1  0  0  0
 17 18  1  0  0  0  0
 17 24  1  0  0  0  0
 18 19  1  0  0  0  0
 18 25  1  1  0  0  0
 19 20  1  0  0  0  0
 19 26  1  1  0  0  0
 20 21  1  0  0  0  0
 20 23  1  1  0  0  0
 21 22  1  6  0  0  0
 21 24  1  0  0  0  0
 22 27  1  0  0  0  0
 28 12  1  6  0  0  0
 28 29  1  0  0  0  0
 28 33  1  0  0  0  0
 29 30  1  0  0  0  0
 29 36  1  6  0  0  0
 30 31  1  0  0  0  0
 30 37  1  6  0  0  0
 31 32  1  0  0  0  0
 31 34  1  1  0  0  0
 32 33  1  0  0  0  0
 33 35  1  1  0  0  0
M  END
>  <CHROM.1>
-167.88598737,108.34128198,-162.65769636,70.73418289,-170.41375610,-64.66386633
-3.50973031,28.06104649,65.31370212,-0.25471392,0.42585901,-0.53298186

>  <Name>
ligand

>  <RI>
0

>  <Rbt.Current_Directory>
/home/itssahil/PROJECTS/Mol_Feturizer/Test_systems_manuscript/rnas/2g5k

>  <Rbt.Executable>
rbdock ($Id: //depot/dev/client3/rdock/2013.1/src/exe/rbdock.cxx#4 $)

>  <Rbt.Library>
libRbt.so (2013.1, Build901 2013/11/27)

>  <Rbt.Parameter_File>
/export/apps/rDock/src/rDock_2013.1_src/data/scripts/dock_solv.prm

>  <Rbt.Receptor>
prm/pocket_docking_5.prm

>  <SCORE>
-10.322

>  <SCORE.INTER>
-6.52253

>  <SCORE.INTER.CONST>
1

>  <SCORE.INTER.POLAR>
0

>  <SCORE.INTER.ROT>
6

>  <SCORE.INTER.SOLV>
15.1169

>  <SCORE.INTER.VDW>
-16.9873

>  <SCORE.INTER.norm>
-0.176285

>  <SCORE.INTRA>
-3.79948

>  <SCORE.INTRA.DIHEDRAL>
-7.11867

>  <SCORE.INTRA.DIHEDRAL.0>
11.3972

>  <SCORE.INTRA.POLAR>
0

>  <SCORE.INTRA.POLAR.0>
0

>  <SCORE.INTRA.REPUL>
0

>  <SCORE.INTRA.REPUL.0>
0

>  <SCORE.INTRA.SOLV>
-0.547535

>  <SCORE.INTRA.SOLV.lig_0>
-92.3891

>  <SCORE.INTRA.VDW>
0.0336258

>  <SCORE.INTRA.VDW.0>
-2.90606

>  <SCORE.INTRA.norm>
-0.102689

>  <SCORE.RESTR>
0

>  <SCORE.RESTR.CAVITY>
0

>  <SCORE.RESTR.norm>
0

>  <SCORE.SYSTEM>
0

>  <SCORE.SYSTEM.CONST>
0

>  <SCORE.SYSTEM.DIHEDRAL>
0

>  <SCORE.SYSTEM.SOLV>
0

>  <SCORE.SYSTEM.norm>
0

>  <SCORE.heavy>
37

>  <SCORE.norm>
-0.278973

>  <RMSD>
3.967

$$$$
ligand
 OpenBabel02271912133D
libRbt.so/2013.1/901 2013/11/27
 37 40  0  0  0  0  0  0  0  0999 V2000
   -0.5066   29.5816   68.5748 C   0  0  1  0  0  0  0  0  0  0  0  0
   -1.5336   28.9037   69.5258 C   0  0  1  0  0  0  0  0  0  0  0  0
   -2.9757   29.0240   68.9975 C   0  0  0  0  0  0  0  0  0  0  0  0
   -3.3154   30.5335   68.7944 C   0  0  1  0  0  0  0  0  0  0  0  0
   -2.3099   31.1951   67.7969 C   0  0  1  0  0  0  0  0  0  0  0  0
   -2.6742   32.7364   67.6059 C   0  0  1  0  0  0  0  0  0  0  0  0
   -4.1289   32.8482   67.0626 C   0  0  1  0  0  0  0  0  0  0  0  0
   -5.0807   32.1442   68.0760 C   0  0  2  0  0  0  0  0  0  0  0  0
   -4.3413   34.9300   65.5357 C   0  0  0  0  0  0  0  0  0  0  0  0
   -1.1812   27.4851   69.7467 N   0  0  0  0  0  0  0  0  0  0  0  0
   -4.5163   34.2973   66.8819 N   0  0  0  0  0  0  0  0  0  0  0  0
   -0.3662   28.8814   67.3233 O   0  0  0  0  0  0  0  0  0  0  0  0
   -0.9363   30.9856   68.3440 O   0  0  0  0  0  0  0  0  0  0  0  0
   -4.7087   30.7378   68.2782 O   0  0  0  0  0  0  0  0  0  0  0  0
   -2.6148   33.4025   68.8605 O   0  0  0  0  0  0  0  0  0  0  0  0
   -6.4233   32.2056   67.6082 O   0  0  0  0  0  0  0  0  0  0  0  0
   -7.4169   31.9948   68.6413 C   0  0  2  0  0  0  0  0  0  0  0  0
   -8.7997   31.5968   68.0730 C   0  0  1  0  0  0  0  0  0  0  0  0
   -9.4271   32.7743   67.2594 C   0  0  2  0  0  0  0  0  0  0  0  0
   -9.5954   33.9703   68.1744 C   0  0  1  0  0  0  0  0  0  0  0  0
   -8.1977   34.3868   68.7228 C   0  0  1  0  0  0  0  0  0  0  0  0
   -8.2840   35.5776   69.6756 C   0  0  0  0  0  0  0  0  0  0  0  0
  -10.2110   35.0853   67.4150 N   0  0  0  0  0  0  0  0  0  0  0  0
   -7.5858   33.2356   69.4552 O   0  0  0  0  0  0  0  0  0  0  0  0
   -8.6110   30.4109   67.2693 O   0  0  0  0  0  0  0  0  0  0  0  0
  -10.7092   32.3894   66.7581 O   0  0  0  0  0  0  0  0  0  0  0  0
   -6.9901   36.0739   69.9182 O   0  0  0  0  0  0  0  0  0  0  0  0
    0.5123   29.3719   66.1929 C   0  0  1  0  0  0  0  0  0  0  0  0
    1.9961   29.2242   66.6281 C   0  0  1  0  0  0  0  0  0  0  0  0
    2.9367   29.7223   65.4928 C   0  0  2  0  0  0  0  0  0  0  0  0
    2.6885   28.8763   64.2196 C   0  0  1  0  0  0  0  0  0  0  0  0
    1.1955   29.0140   63.7514 C   0  0  0  0  0  0  0  0  0  0  0  0
    0.2826   28.5302   64.8981 C   0  0  2  0  0  0  0  0  0  0  0  0
    3.5849   29.3375   63.1324 N   0  0  0  0  0  0  0  0  0  0  0  0
   -1.1091   28.6632   64.4537 N   0  0  0  0  0  0  0  0  0  0  0  0
    2.2290   30.0111   67.8171 O   0  0  0  0  0  0  0  0  0  0  0  0
    4.3082   29.5802   65.9248 O   0  0  0  0  0  0  0  0  0  0  0  0
  1  2  1  0  0  0  0
  1 12  1  6  0  0  0
  1 13  1  0  0  0  0
  2  3  1  0  0  0  0
  2 10  1  6  0  0  0
  4  3  1  6  0  0  0
  4  5  1  0  0  0  0
  4 14  1  0  0  0  0
  5  6  1  0  0  0  0
  5 13  1  1  0  0  0
  6  7  1  0  0  0  0
  6 15  1  1  0  0  0
  7  8  1  0  0  0  0
  7 11  1  1  0  0  0
  8 14  1  0  0  0  0
  8 16  1  6  0  0  0
  9 11  1  0  0  0  0
 17 16  1  6  0  0  0
 17 18  1  0  0  0  0
 17 24  1  0  0  0  0
 18 19  1  0  0  0  0
 18 25  1  6  0  0  0
 19 20  1  0  0  0  0
 19 26  1  1  0  0  0
 20 21  1  0  0  0  0
 20 23  1  6  0  0  0
 21 22  1  1  0  0  0
 21 24  1  0  0  0  0
 22 27  1  0  0  0  0
 28 12  1  1  0  0  0
 28 29  1  0  0  0  0
 28 33  1  0  0  0  0
 29 30  1  0  0  0  0
 29 36  1  1  0  0  0
 30 31  1  0  0  0  0
 30 37  1  1  0  0  0
 31 32  1  0  0  0  0
 31 34  1  6  0  0  0
 32 33  1  0  0  0  0
 33 35  1  6  0  0  0
M  END
>  <CHROM.1>
176.60749161,94.59688414,-160.47791537,69.63691712,-160.78406932,-168.09715554
-3.40067834,31.37104869,67.39544466,0.27430600,-0.36217313,2.71693487

>  <Name>
ligand

>  <RI>
0

>  <Rbt.Current_Directory>
/home/itssahil/PROJECTS/Mol_Feturizer/Test_systems_manuscript/rnas/2g5k

>  <Rbt.Executable>
rbdock ($Id: //depot/dev/client3/rdock/2013.1/src/exe/rbdock.cxx#4 $)

>  <Rbt.Library>
libRbt.so (2013.1, Build901 2013/11/27)

>  <Rbt.Parameter_File>
/export/apps/rDock/src/rDock_2013.1_src/data/scripts/dock_solv.prm

>  <Rbt.Receptor>
prm/pocket_docking_6.prm

>  <SCORE>
-13.2551

>  <SCORE.INTER>
-9.13889

>  <SCORE.INTER.CONST>
1

>  <SCORE.INTER.POLAR>
0

>  <SCORE.INTER.ROT>
6

>  <SCORE.INTER.SOLV>
17.1831

>  <SCORE.INTER.VDW>
-19.4203

>  <SCORE.INTER.norm>
-0.246997

>  <SCORE.INTRA>
-4.11622

>  <SCORE.INTRA.DIHEDRAL>
-6.22793

>  <SCORE.INTRA.DIHEDRAL.0>
11.3972

>  <SCORE.INTRA.POLAR>
0

>  <SCORE.INTRA.POLAR.0>
0

>  <SCORE.INTRA.REPUL>
0

>  <SCORE.INTRA.REPUL.0>
0

>  <SCORE.INTRA.SOLV>
-1.69448

>  <SCORE.INTRA.SOLV.lig_0>
-92.3891

>  <SCORE.INTRA.VDW>
-0.155013

>  <SCORE.INTRA.VDW.0>
-2.90606

>  <SCORE.INTRA.norm>
-0.111249

>  <SCORE.RESTR>
0

>  <SCORE.RESTR.CAVITY>
0

>  <SCORE.RESTR.norm>
0

>  <SCORE.SYSTEM>
0

>  <SCORE.SYSTEM.CONST>
0

>  <SCORE.SYSTEM.DIHEDRAL>
0

>  <SCORE.SYSTEM.SOLV>
0

>  <SCORE.SYSTEM.norm>
0

>  <SCORE.heavy>
37

>  <SCORE.norm>
-0.358246

>  <RMSD>
3.990

$$$$
ligand
 OpenBabel02271912133D
libRbt.so/2013.1/901 2013/11/27
 37 40  0  0  0  0  0  0  0  0999 V2000
   -1.6136   27.9951   63.1551 C   0  0  1  0  0  0  0  0  0  0  0  0
   -2.0588   29.4803   63.0349 C   0  0  1  0  0  0  0  0  0  0  0  0
   -2.8320   29.9534   64.2805 C   0  0  0  0  0  0  0  0  0  0  0  0
   -4.0622   29.0180   64.4973 C   0  0  1  0  0  0  0  0  0  0  0  0
   -3.6024   27.5339   64.6692 C   0  0  1  0  0  0  0  0  0  0  0  0
   -4.8744   26.5964   64.8873 C   0  0  1  0  0  0  0  0  0  0  0  0
   -5.6439   27.0752   66.1532 C   0  0  1  0  0  0  0  0  0  0  0  0
   -6.0463   28.5658   65.9414 C   0  0  2  0  0  0  0  0  0  0  0  0
   -8.0348   26.3599   65.4585 C   0  0  0  0  0  0  0  0  0  0  0  0
   -0.8930   30.3551   62.7877 N   0  0  0  0  0  0  0  0  0  0  0  0
   -6.8665   26.2182   66.3848 N   0  0  0  0  0  0  0  0  0  0  0  0
   -0.5984   27.8019   64.1593 O   0  0  0  0  0  0  0  0  0  0  0  0
   -2.8118   27.1688   63.4561 O   0  0  0  0  0  0  0  0  0  0  0  0
   -4.8713   29.4124   65.6971 O   0  0  0  0  0  0  0  0  0  0  0  0
   -5.7461   26.7028   63.7692 O   0  0  0  0  0  0  0  0  0  0  0  0
   -6.7376   29.0520   67.0863 O   0  0  0  0  0  0  0  0  0  0  0  0
   -7.4640   30.2843   66.8561 C   0  0  2  0  0  0  0  0  0  0  0  0
   -7.9275   30.9626   68.1671 C   0  0  1  0  0  0  0  0  0  0  0  0
   -8.9988   30.0898   68.8969 C   0  0  2  0  0  0  0  0  0  0  0  0
  -10.1947   29.9124   67.9835 C   0  0  1  0  0  0  0  0  0  0  0  0
   -9.7305   29.2034   66.6760 C   0  0  1  0  0  0  0  0  0  0  0  0
  -10.8788   29.0067   65.6882 C   0  0  0  0  0  0  0  0  0  0  0  0
  -11.2256   29.1035   68.6776 N   0  0  0  0  0  0  0  0  0  0  0  0
   -8.6692   30.0228   66.0139 O   0  0  0  0  0  0  0  0  0  0  0  0
   -6.7519   31.1838   68.9777 O   0  0  0  0  0  0  0  0  0  0  0  0
   -9.4230   30.7430   70.0954 O   0  0  0  0  0  0  0  0  0  0  0  0
  -11.7918   28.0752   66.2156 O   0  0  0  0  0  0  0  0  0  0  0  0
   -0.0223   26.4461   64.5057 C   0  0  1  0  0  0  0  0  0  0  0  0
    1.1824   26.1722   63.5642 C   0  0  1  0  0  0  0  0  0  0  0  0
    1.8041   24.7820   63.8846 C   0  0  2  0  0  0  0  0  0  0  0  0
    2.2888   24.7692   65.3554 C   0  0  1  0  0  0  0  0  0  0  0  0
    1.0875   25.0353   66.3316 C   0  0  0  0  0  0  0  0  0  0  0  0
    0.4777   26.4101   65.9844 C   0  0  2  0  0  0  0  0  0  0  0  0
    2.8901   23.4509   65.6702 N   0  0  0  0  0  0  0  0  0  0  0  0
   -0.6437   26.6504   66.8991 N   0  0  0  0  0  0  0  0  0  0  0  0
    0.7324   26.1860   62.1913 O   0  0  0  0  0  0  0  0  0  0  0  0
    2.9166   24.5497   62.9922 O   0  0  0  0  0  0  0  0  0  0  0  0
  1  2  1  0  0  0  0
  1 12  1  1  0  0  0
  1 13  1  0  0  0  0
  2  3  1  0  0  0  0
  2 10  1  1  0  0  0
  4  3  1  1  0  0  0
  4  5  1  0  0  0  0
  4 14  1  0  0  0  0
  5  6  1  0  0  0  0
  5 13  1  6  0  0  0
  6  7  1  0  0  0  0
  6 15  1  6  0  0  0
  7  8  1  0  0  0  0
  7 11  1  6  0  0  0
  8 14  1  0  0  0  0
  8 16  1  1  0  0  0
  9 11  1  0  0  0  0
 17 16  1  1  0  0  0
 17 18  1  0  0  0  0
 17 24  1  0  0  0  0
 18 19  1  0  0  0  0
 18 25  1  1  0  0  0
 19 20  1  0  0  0  0
 19 26  1  1  0  0  0
 20 21  1  0  0  0  0
 20 23  1  1  0  0  0
 21 22  1  6  0  0  0
 21 24  1  0  0  0  0
 22 27  1  0  0  0  0
 28 12  1  6  0  0  0
 28 29  1  0  0  0  0
 28 33  1  0  0  0  0
 29 30  1  0  0  0  0
 29 36  1  6  0  0  0
 30 31  1  0  0  0  0
 30 37  1  6  0  0  0
 31 32  1  0  0  0  0
 31 34  1  1  0  0  0
 32 33  1  0  0  0  0
 33 35  1  1  0  0  0
M  END
>  <CHROM.1>
178.09070194,-71.71947544,-164.03446952,88.21855494,-166.65639761,-67.71686651
-4.30516998,27.91107818,65.59381797,0.06826635,0.43288098,-0.99317845

>  <Name>
ligand

>  <RI>
0

>  <Rbt.Current_Directory>
/home/itssahil/PROJECTS/Mol_Feturizer/Test_systems_manuscript/rnas/2g5k

>  <Rbt.Executable>
rbdock ($Id: //depot/dev/client3/rdock/2013.1/src/exe/rbdock.cxx#4 $)

>  <Rbt.Library>
libRbt.so (2013.1, Build901 2013/11/27)

>  <Rbt.Parameter_File>
/export/apps/rDock/src/rDock_2013.1_src/data/scripts/dock_solv.prm

>  <Rbt.Receptor>
prm/pocket_docking_4.prm

>  <SCORE>
-8.03657

>  <SCORE.INTER>
-6.32339

>  <SCORE.INTER.CONST>
1

>  <SCORE.INTER.POLAR>
0

>  <SCORE.INTER.ROT>
6

>  <SCORE.INTER.SOLV>
17.6642

>  <SCORE.INTER.VDW>
-17.7037

>  <SCORE.INTER.norm>
-0.170903

>  <SCORE.INTRA>
-1.72015

>  <SCORE.INTRA.DIHEDRAL>
-5.73715

>  <SCORE.INTRA.DIHEDRAL.0>
11.3972

>  <SCORE.INTRA.POLAR>
0

>  <SCORE.INTRA.POLAR.0>
0

>  <SCORE.INTRA.REPUL>
0

>  <SCORE.INTRA.REPUL.0>
0

>  <SCORE.INTRA.SOLV>
0.115535

>  <SCORE.INTRA.SOLV.lig_0>
-92.3891

>  <SCORE.INTRA.VDW>
1.09065

>  <SCORE.INTRA.VDW.0>
-2.90606

>  <SCORE.INTRA.norm>
-0.0464907

>  <SCORE.RESTR>
0.00698089

>  <SCORE.RESTR.CAVITY>
0.00698089

>  <SCORE.RESTR.norm>
0.000188673

>  <SCORE.SYSTEM>
0

>  <SCORE.SYSTEM.CONST>
0

>  <SCORE.SYSTEM.DIHEDRAL>
0

>  <SCORE.SYSTEM.SOLV>
0

>  <SCORE.SYSTEM.norm>
0

>  <SCORE.heavy>
37

>  <SCORE.norm>
-0.217205

>  <RMSD>
3.997

$$$$
ligand
 OpenBabel02271912133D
libRbt.so/2013.1/901 2013/11/27
 37 40  0  0  0  0  0  0  0  0999 V2000
   -1.7067   27.9981   63.6170 C   0  0  1  0  0  0  0  0  0  0  0  0
   -2.0884   29.5042   63.5485 C   0  0  1  0  0  0  0  0  0  0  0  0
   -3.0923   29.8955   64.6497 C   0  0  0  0  0  0  0  0  0  0  0  0
   -4.3588   28.9926   64.5230 C   0  0  1  0  0  0  0  0  0  0  0  0
   -3.9735   27.4826   64.6450 C   0  0  1  0  0  0  0  0  0  0  0  0
   -5.2813   26.5791   64.5108 C   0  0  1  0  0  0  0  0  0  0  0  0
   -6.2856   26.9742   65.6330 C   0  0  1  0  0  0  0  0  0  0  0  0
   -6.6064   28.4920   65.4846 C   0  0  2  0  0  0  0  0  0  0  0  0
   -7.4694   24.6757   65.7944 C   0  0  0  0  0  0  0  0  0  0  0  0
   -0.8798   30.3518   63.6267 N   0  0  0  0  0  0  0  0  0  0  0  0
   -7.5462   26.1478   65.5298 N   0  0  0  0  0  0  0  0  0  0  0  0
   -0.9242   27.6787   64.7840 O   0  0  0  0  0  0  0  0  0  0  0  0
   -2.9572   27.1952   63.5892 O   0  0  0  0  0  0  0  0  0  0  0  0
   -5.3898   29.3110   65.5648 O   0  0  0  0  0  0  0  0  0  0  0  0
   -5.9017   26.8166   63.2539 O   0  0  0  0  0  0  0  0  0  0  0  0
   -7.5090   28.9021   66.5054 O   0  0  0  0  0  0  0  0  0  0  0  0
   -8.2371   30.1156   66.1948 C   0  0  2  0  0  0  0  0  0  0  0  0
   -9.2849   30.4805   67.2730 C   0  0  1  0  0  0  0  0  0  0  0  0
  -10.4318   29.4199   67.3162 C   0  0  2  0  0  0  0  0  0  0  0  0
  -11.1117   29.3746   65.9628 C   0  0  1  0  0  0  0  0  0  0  0  0
  -10.0606   28.9790   64.8829 C   0  0  1  0  0  0  0  0  0  0  0  0
  -10.6644   28.9328   63.4806 C   0  0  0  0  0  0  0  0  0  0  0  0
  -12.2162   28.3860   66.0023 N   0  0  0  0  0  0  0  0  0  0  0  0
   -8.9432   29.9728   64.8866 O   0  0  0  0  0  0  0  0  0  0  0  0
   -8.5871   30.5890   68.5338 O   0  0  0  0  0  0  0  0  0  0  0  0
  -11.3946   29.7858   68.3073 O   0  0  0  0  0  0  0  0  0  0  0  0
  -11.5739   27.8624   63.4007 O   0  0  0  0  0  0  0  0  0  0  0  0
   -0.2533   26.3381   64.9908 C   0  0  1  0  0  0  0  0  0  0  0  0
    0.9238   26.2205   63.9841 C   0  0  1  0  0  0  0  0  0  0  0  0
    1.6413   24.8509   64.1604 C   0  0  2  0  0  0  0  0  0  0  0  0
    2.1891   24.7466   65.6051 C   0  0  1  0  0  0  0  0  0  0  0  0
    1.0173   24.8538   66.6456 C   0  0  0  0  0  0  0  0  0  0  0  0
    0.3116   26.2112   66.4409 C   0  0  2  0  0  0  0  0  0  0  0  0
    2.8815   23.4476   65.7828 N   0  0  0  0  0  0  0  0  0  0  0  0
   -0.7815   26.3029   67.4148 N   0  0  0  0  0  0  0  0  0  0  0  0
    0.4148   26.3198   62.6356 O   0  0  0  0  0  0  0  0  0  0  0  0
    2.7260   24.7646   63.2097 O   0  0  0  0  0  0  0  0  0  0  0  0
  1  2  1  0  0  0  0
  1 12  1  1  0  0  0
  1 13  1  0  0  0  0
  2  3  1  0  0  0  0
  2 10  1  1  0  0  0
  4  3  1  1  0  0  0
  4  5  1  0  0  0  0
  4 14  1  0  0  0  0
  5  6  1  0  0  0  0
  5 13  1  6  0  0  0
  6  7  1  0  0  0  0
  6 15  1  6  0  0  0
  7  8  1  0  0  0  0
  7 11  1  6  0  0  0
  8 14  1  0  0  0  0
  8 16  1  1  0  0  0
  9 11  1  0  0  0  0
 17 16  1  1  0  0  0
 17 18  1  0  0  0  0
 17 24  1  0  0  0  0
 18 19  1  0  0  0  0
 18 25  1  1  0  0  0
 19 20  1  0  0  0  0
 19 26  1  1  0  0  0
 20 21  1  0  0  0  0
 20 23  1  1  0  0  0
 21 22  1  6  0  0  0
 21 24  1  0  0  0  0
 22 27  1  0  0  0  0
 28 12  1  1  0  0  0
 28 29  1  0  0  0  0
 28 33  1  0  0  0  0
 29 30  1  0  0  0  0
 29 36  1  6  0  0  0
 30 31  1  0  0  0  0
 30 37  1  6  0  0  0
 31 32  1  0  0  0  0
 31 34  1  6  0  0  0
 32 33  1  0  0  0  0
 33 35  1  1  0  0  0
M  END
>  <CHROM.1>
-170.75699760,66.72070302,-158.80440007,70.20712200,175.75375820,-67.92891897
-4.73382199,27.70905221,65.19003412,-0.25560528,0.17600314,-0.20825896

>  <Name>
ligand

>  <RI>
0

>  <Rbt.Current_Directory>
/home/itssahil/PROJECTS/Mol_Feturizer/Test_systems_manuscript/rnas/2g5k

>  <Rbt.Executable>
rbdock ($Id: //depot/dev/client3/rdock/2013.1/src/exe/rbdock.cxx#4 $)

>  <Rbt.Library>
libRbt.so (2013.1, Build901 2013/11/27)

>  <Rbt.Parameter_File>
/export/apps/rDock/src/rDock_2013.1_src/data/scripts/dock_solv.prm

>  <Rbt.Receptor>
prm/pocket_docking_4.prm

>  <SCORE>
-9.7334

>  <SCORE.INTER>
-5.8217

>  <SCORE.INTER.CONST>
1

>  <SCORE.INTER.POLAR>
0

>  <SCORE.INTER.ROT>
6

>  <SCORE.INTER.SOLV>
12.935

>  <SCORE.INTER.VDW>
-15.7928

>  <SCORE.INTER.norm>
-0.157343

>  <SCORE.INTRA>
-3.91169

>  <SCORE.INTRA.DIHEDRAL>
-8.11214

>  <SCORE.INTRA.DIHEDRAL.0>
11.3972

>  <SCORE.INTRA.POLAR>
0

>  <SCORE.INTRA.POLAR.0>
0

>  <SCORE.INTRA.REPUL>
0

>  <SCORE.INTRA.REPUL.0>
0

>  <SCORE.INTRA.SOLV>
-0.468104

>  <SCORE.INTRA.SOLV.lig_0>
-92.3891

>  <SCORE.INTRA.VDW>
0.378428

>  <SCORE.INTRA.VDW.0>
-2.90606

>  <SCORE.INTRA.norm>
-0.105721

>  <SCORE.RESTR>
0

>  <SCORE.RESTR.CAVITY>
0

>  <SCORE.RESTR.norm>
0

>  <SCORE.SYSTEM>
0

>  <SCORE.SYSTEM.CONST>
0

>  <SCORE.SYSTEM.DIHEDRAL>
0

>  <SCORE.SYSTEM.SOLV>
0

>  <SCORE.SYSTEM.norm>
0

>  <SCORE.heavy>
37

>  <SCORE.norm>
-0.263065

>  <RMSD>
4.001

$$$$
ligand
 OpenBabel02271912133D
libRbt.so/2013.1/901 2013/11/27
 37 40  0  0  0  0  0  0  0  0999 V2000
   -1.5134   27.3292   68.1553 C   0  0  1  0  0  0  0  0  0  0  0  0
   -1.7819   25.8559   68.5745 C   0  0  1  0  0  0  0  0  0  0  0  0
   -2.6638   25.1164   67.5505 C   0  0  0  0  0  0  0  0  0  0  0  0
   -4.0022   25.8998   67.3770 C   0  0  1  0  0  0  0  0  0  0  0  0
   -3.7262   27.3644   66.9053 C   0  0  1  0  0  0  0  0  0  0  0  0
   -5.1063   28.1464   66.7366 C   0  0  1  0  0  0  0  0  0  0  0  0
   -5.9867   27.3981   65.6931 C   0  0  1  0  0  0  0  0  0  0  0  0
   -6.2001   25.9386   66.1960 C   0  0  2  0  0  0  0  0  0  0  0  0
   -7.3355   29.4382   64.8391 C   0  0  0  0  0  0  0  0  0  0  0  0
   -0.5091   25.1321   68.7778 N   0  0  0  0  0  0  0  0  0  0  0  0
   -7.3116   28.1026   65.5163 N   0  0  0  0  0  0  0  0  0  0  0  0
   -0.6694   27.4278   66.9916 O   0  0  0  0  0  0  0  0  0  0  0  0
   -2.8205   27.9937   67.9121 O   0  0  0  0  0  0  0  0  0  0  0  0
   -4.9214   25.2426   66.3907 O   0  0  0  0  0  0  0  0  0  0  0  0
   -5.8025   28.1640   67.9761 O   0  0  0  0  0  0  0  0  0  0  0  0
   -6.9862   25.2099   65.2599 O   0  0  0  0  0  0  0  0  0  0  0  0
   -7.3136   23.8647   65.6870 C   0  0  2  0  0  0  0  0  0  0  0  0
   -8.1175   23.0762   64.6262 C   0  0  1  0  0  0  0  0  0  0  0  0
   -9.5348   23.7025   64.4228 C   0  0  2  0  0  0  0  0  0  0  0  0
  -10.2839   23.6632   65.7393 C   0  0  1  0  0  0  0  0  0  0  0  0
   -9.4866   24.4819   66.7984 C   0  0  1  0  0  0  0  0  0  0  0  0
  -10.1673   24.4728   68.1658 C   0  0  0  0  0  0  0  0  0  0  0  0
  -11.6386   24.2357   65.5494 N   0  0  0  0  0  0  0  0  0  0  0  0
   -8.1152   23.9043   66.9465 O   0  0  0  0  0  0  0  0  0  0  0  0
   -7.3378   23.0711   63.4096 O   0  0  0  0  0  0  0  0  0  0  0  0
  -10.2638   22.9491   63.4512 O   0  0  0  0  0  0  0  0  0  0  0  0
   -9.3930   25.2156   69.0759 O   0  0  0  0  0  0  0  0  0  0  0  0
    0.8231   27.1802   67.0265 C   0  0  1  0  0  0  0  0  0  0  0  0
    1.3356   27.0781   65.5637 C   0  0  1  0  0  0  0  0  0  0  0  0
    2.8701   26.8191   65.5533 C   0  0  2  0  0  0  0  0  0  0  0  0
    3.5878   27.9905   66.2681 C   0  0  1  0  0  0  0  0  0  0  0  0
    3.0943   28.1117   67.7544 C   0  0  0  0  0  0  0  0  0  0  0  0
    1.5696   28.3516   67.7395 C   0  0  2  0  0  0  0  0  0  0  0  0
    5.0521   27.7580   66.2581 N   0  0  0  0  0  0  0  0  0  0  0  0
    1.1166   28.4623   69.1303 N   0  0  0  0  0  0  0  0  0  0  0  0
    0.6654   25.9871   64.8945 O   0  0  0  0  0  0  0  0  0  0  0  0
    3.3194   26.7222   64.1834 O   0  0  0  0  0  0  0  0  0  0  0  0
  1  2  1  0  0  0  0
  1 12  1  6  0  0  0
  1 13  1  0  0  0  0
  2  3  1  0  0  0  0
  2 10  1  6  0  0  0
  4  3  1  6  0  0  0
  4  5  1  0  0  0  0
  4 14  1  0  0  0  0
  5  6  1  0  0  0  0
  5 13  1  1  0  0  0
  6  7  1  0  0  0  0
  6 15  1  1  0  0  0
  7  8  1  0  0  0  0
  7 11  1  1  0  0  0
  8 14  1  0  0  0  0
  8 16  1  6  0  0  0
  9 11  1  0  0  0  0
 17 16  1  6  0  0  0
 17 18  1  0  0  0  0
 17 24  1  0  0  0  0
 18 19  1  0  0  0  0
 18 25  1  6  0  0  0
 19 20  1  0  0  0  0
 19 26  1  6  0  0  0
 20 21  1  0  0  0  0
 20 23  1  6  0  0  0
 21 22  1  1  0  0  0
 21 24  1  0  0  0  0
 22 27  1  0  0  0  0
 28 12  1  6  0  0  0
 28 29  1  0  0  0  0
 28 33  1  0  0  0  0
 29 30  1  0  0  0  0
 29 36  1  1  0  0  0
 30 31  1  0  0  0  0
 30 37  1  6  0  0  0
 31 32  1  0  0  0  0
 31 34  1  1  0  0  0
 32 33  1  0  0  0  0
 33 35  1  1  0  0  0
M  END
>  <CHROM.1>
-74.91335020,69.62986316,-176.03762521,168.08626734,-177.59583193,179.42407816
-3.98244826,26.11679984,66.44307133,0.22363062,0.14712648,0.88872175

>  <Name>
ligand

>  <RI>
0

>  <Rbt.Current_Directory>
/home/itssahil/PROJECTS/Mol_Feturizer/Test_systems_manuscript/rnas/2g5k

>  <Rbt.Executable>
rbdock ($Id: //depot/dev/client3/rdock/2013.1/src/exe/rbdock.cxx#4 $)

>  <Rbt.Library>
libRbt.so (2013.1, Build901 2013/11/27)

>  <Rbt.Parameter_File>
/export/apps/rDock/src/rDock_2013.1_src/data/scripts/dock_solv.prm

>  <Rbt.Receptor>
prm/pocket_docking_8.prm

>  <SCORE>
-9.31857

>  <SCORE.INTER>
-5.62448

>  <SCORE.INTER.CONST>
1

>  <SCORE.INTER.POLAR>
0

>  <SCORE.INTER.ROT>
6

>  <SCORE.INTER.SOLV>
17.6997

>  <SCORE.INTER.VDW>
-17.2495

>  <SCORE.INTER.norm>
-0.152013

>  <SCORE.INTRA>
-3.69408

>  <SCORE.INTRA.DIHEDRAL>
-9.45955

>  <SCORE.INTRA.DIHEDRAL.0>
11.3972

>  <SCORE.INTRA.POLAR>
0

>  <SCORE.INTRA.POLAR.0>
0

>  <SCORE.INTRA.REPUL>
0

>  <SCORE.INTRA.REPUL.0>
0

>  <SCORE.INTRA.SOLV>
1.4465

>  <SCORE.INTRA.SOLV.lig_0>
-92.3891

>  <SCORE.INTRA.VDW>
0.312439

>  <SCORE.INTRA.VDW.0>
-2.90606

>  <SCORE.INTRA.norm>
-0.0998401

>  <SCORE.RESTR>
0

>  <SCORE.RESTR.CAVITY>
0

>  <SCORE.RESTR.norm>
0

>  <SCORE.SYSTEM>
0

>  <SCORE.SYSTEM.CONST>
0

>  <SCORE.SYSTEM.DIHEDRAL>
0

>  <SCORE.SYSTEM.SOLV>
0

>  <SCORE.SYSTEM.norm>
0

>  <SCORE.heavy>
37

>  <SCORE.norm>
-0.251853

>  <RMSD>
4.012

$$$$
ligand
 OpenBabel02271912133D
libRbt.so/2013.1/901 2013/11/27
 37 40  0  0  0  0  0  0  0  0999 V2000
   -1.6901   27.9710   63.5167 C   0  0  1  0  0  0  0  0  0  0  0  0
   -2.0799   29.4765   63.5194 C   0  0  1  0  0  0  0  0  0  0  0  0
   -2.9502   29.8449   64.7360 C   0  0  0  0  0  0  0  0  0  0  0  0
   -4.2212   28.9395   64.7409 C   0  0  1  0  0  0  0  0  0  0  0  0
   -3.8217   27.4291   64.7908 C   0  0  1  0  0  0  0  0  0  0  0  0
   -5.1346   26.5230   64.7931 C   0  0  1  0  0  0  0  0  0  0  0  0
   -6.0029   26.8948   66.0307 C   0  0  1  0  0  0  0  0  0  0  0  0
   -6.3415   28.4137   65.9472 C   0  0  2  0  0  0  0  0  0  0  0  0
   -7.1712   24.6177   66.4310 C   0  0  0  0  0  0  0  0  0  0  0  0
   -0.8719   30.3272   63.4721 N   0  0  0  0  0  0  0  0  0  0  0  0
   -7.2655   26.0655   66.0596 N   0  0  0  0  0  0  0  0  0  0  0  0
   -0.7772   27.6344   64.5795 O   0  0  0  0  0  0  0  0  0  0  0  0
   -2.9340   27.1639   63.6196 O   0  0  0  0  0  0  0  0  0  0  0  0
   -5.1253   29.2358   65.9005 O   0  0  0  0  0  0  0  0  0  0  0  0
   -5.8968   26.7799   63.6208 O   0  0  0  0  0  0  0  0  0  0  0  0
   -7.1205   28.8026   67.0727 O   0  0  0  0  0  0  0  0  0  0  0  0
   -7.8914   30.0118   66.8657 C   0  0  2  0  0  0  0  0  0  0  0  0
   -8.2052   30.7577   68.1842 C   0  0  1  0  0  0  0  0  0  0  0  0
   -9.1647   29.9155   69.0855 C   0  0  2  0  0  0  0  0  0  0  0  0
  -10.4588   29.6736   68.3354 C   0  0  1  0  0  0  0  0  0  0  0  0
  -10.1434   28.8972   67.0219 C   0  0  1  0  0  0  0  0  0  0  0  0
  -11.3989   28.6323   66.1932 C   0  0  0  0  0  0  0  0  0  0  0  0
  -11.3836   28.8936   69.1929 N   0  0  0  0  0  0  0  0  0  0  0  0
   -9.1847   29.6898   66.1918 O   0  0  0  0  0  0  0  0  0  0  0  0
   -6.9444   31.0374   68.8325 O   0  0  0  0  0  0  0  0  0  0  0  0
   -9.4526   30.6305   70.2892 O   0  0  0  0  0  0  0  0  0  0  0  0
  -11.9409   29.8580   65.7650 O   0  0  0  0  0  0  0  0  0  0  0  0
   -0.0848   26.2928   64.6839 C   0  0  1  0  0  0  0  0  0  0  0  0
    1.0115   26.2222   63.5857 C   0  0  1  0  0  0  0  0  0  0  0  0
    1.7481   24.8531   63.6550 C   0  0  2  0  0  0  0  0  0  0  0  0
    2.4066   24.7005   65.0483 C   0  0  1  0  0  0  0  0  0  0  0  0
    1.3183   24.7595   66.1793 C   0  0  0  0  0  0  0  0  0  0  0  0
    0.5913   26.1176   66.0803 C   0  0  2  0  0  0  0  0  0  0  0  0
    3.1179   23.4017   65.1235 N   0  0  0  0  0  0  0  0  0  0  0  0
   -0.4237   26.1642   67.1384 N   0  0  0  0  0  0  0  0  0  0  0  0
    0.3992   26.3666   62.2851 O   0  0  0  0  0  0  0  0  0  0  0  0
    2.7564   24.8109   62.6209 O   0  0  0  0  0  0  0  0  0  0  0  0
  1  2  1  0  0  0  0
  1 12  1  1  0  0  0
  1 13  1  0  0  0  0
  2  3  1  0  0  0  0
  2 10  1  1  0  0  0
  4  3  1  1  0  0  0
  4  5  1  0  0  0  0
  4 14  1  0  0  0  0
  5  6  1  0  0  0  0
  5 13  1  6  0  0  0
  6  7  1  0  0  0  0
  6 15  1  6  0  0  0
  7  8  1  0  0  0  0
  7 11  1  6  0  0  0
  8 14  1  0  0  0  0
  8 16  1  1  0  0  0
  9 11  1  0  0  0  0
 17 16  1  1  0  0  0
 17 18  1  0  0  0  0
 17 24  1  0  0  0  0
 18 19  1  0  0  0  0
 18 25  1  1  0  0  0
 19 20  1  0  0  0  0
 19 26  1  1  0  0  0
 20 21  1  0  0  0  0
 20 23  1  1  0  0  0
 21 22  1  6  0  0  0
 21 24  1  0  0  0  0
 22 27  1  0  0  0  0
 28 12  1  1  0  0  0
 28 29  1  0  0  0  0
 28 33  1  0  0  0  0
 29 30  1  0  0  0  0
 29 36  1  6  0  0  0
 30 31  1  0  0  0  0
 30 37  1  6  0  0  0
 31 32  1  0  0  0  0
 31 34  1  6  0  0  0
 32 33  1  0  0  0  0
 33 35  1  1  0  0  0
M  END
>  <CHROM.1>
-170.78143916,73.14630862,-158.26690519,72.71440365,-154.36286876,64.20752652
-4.44335291,27.79522470,65.70374572,-0.21585115,0.38400358,-0.29074660

>  <Name>
ligand

>  <RI>
0

>  <Rbt.Current_Directory>
/home/itssahil/PROJECTS/Mol_Feturizer/Test_systems_manuscript/rnas/2g5k

>  <Rbt.Executable>
rbdock ($Id: //depot/dev/client3/rdock/2013.1/src/exe/rbdock.cxx#4 $)

>  <Rbt.Library>
libRbt.so (2013.1, Build901 2013/11/27)

>  <Rbt.Parameter_File>
/export/apps/rDock/src/rDock_2013.1_src/data/scripts/dock_solv.prm

>  <Rbt.Receptor>
prm/pocket_docking_4.prm

>  <SCORE>
-9.75096

>  <SCORE.INTER>
-6.83782

>  <SCORE.INTER.CONST>
1

>  <SCORE.INTER.POLAR>
0

>  <SCORE.INTER.ROT>
6

>  <SCORE.INTER.SOLV>
15.3498

>  <SCORE.INTER.VDW>
-17.2752

>  <SCORE.INTER.norm>
-0.184806

>  <SCORE.INTRA>
-2.91314

>  <SCORE.INTRA.DIHEDRAL>
-5.12

>  <SCORE.INTRA.DIHEDRAL.0>
11.3972

>  <SCORE.INTRA.POLAR>
0

>  <SCORE.INTRA.POLAR.0>
0

>  <SCORE.INTRA.REPUL>
0

>  <SCORE.INTRA.REPUL.0>
0

>  <SCORE.INTRA.SOLV>
-0.939266

>  <SCORE.INTRA.SOLV.lig_0>
-92.3891

>  <SCORE.INTRA.VDW>
0.116495

>  <SCORE.INTRA.VDW.0>
-2.90606

>  <SCORE.INTRA.norm>
-0.0787335

>  <SCORE.RESTR>
0

>  <SCORE.RESTR.CAVITY>
0

>  <SCORE.RESTR.norm>
0

>  <SCORE.SYSTEM>
0

>  <SCORE.SYSTEM.CONST>
0

>  <SCORE.SYSTEM.DIHEDRAL>
0

>  <SCORE.SYSTEM.SOLV>
0

>  <SCORE.SYSTEM.norm>
0

>  <SCORE.heavy>
37

>  <SCORE.norm>
-0.263539

>  <RMSD>
4.014

$$$$
ligand
 OpenBabel02271912133D
libRbt.so/2013.1/901 2013/11/27
 37 40  0  0  0  0  0  0  0  0999 V2000
   -0.7486   29.0512   68.5514 C   0  0  1  0  0  0  0  0  0  0  0  0
   -1.6670   28.7415   69.7676 C   0  0  1  0  0  0  0  0  0  0  0  0
   -3.1603   28.8122   69.3956 C   0  0  0  0  0  0  0  0  0  0  0  0
   -3.4687   30.2250   68.8090 C   0  0  1  0  0  0  0  0  0  0  0  0
   -2.5783   30.5076   67.5556 C   0  0  1  0  0  0  0  0  0  0  0  0
   -2.9085   31.9560   66.9742 C   0  0  1  0  0  0  0  0  0  0  0  0
   -4.4165   32.0152   66.5918 C   0  0  1  0  0  0  0  0  0  0  0  0
   -5.2532   31.6927   67.8664 C   0  0  2  0  0  0  0  0  0  0  0  0
   -5.7692   33.4783   64.9366 C   0  0  0  0  0  0  0  0  0  0  0  0
   -1.3403   27.4199   70.3436 N   0  0  0  0  0  0  0  0  0  0  0  0
   -4.7716   33.3798   66.0493 N   0  0  0  0  0  0  0  0  0  0  0  0
   -0.7975   28.0208   67.5453 O   0  0  0  0  0  0  0  0  0  0  0  0
   -1.1537   30.3617   67.9789 O   0  0  0  0  0  0  0  0  0  0  0  0
   -4.9091   30.3760   68.4189 O   0  0  0  0  0  0  0  0  0  0  0  0
   -2.6624   32.9403   67.9702 O   0  0  0  0  0  0  0  0  0  0  0  0
   -6.6421   31.7167   67.5574 O   0  0  0  0  0  0  0  0  0  0  0  0
   -7.5021   31.8137   68.7194 C   0  0  2  0  0  0  0  0  0  0  0  0
   -8.9951   31.5874   68.3827 C   0  0  1  0  0  0  0  0  0  0  0  0
   -9.5431   32.7398   67.4804 C   0  0  2  0  0  0  0  0  0  0  0  0
   -9.3976   34.0549   68.2189 C   0  0  1  0  0  0  0  0  0  0  0  0
   -7.8901   34.2941   68.5316 C   0  0  1  0  0  0  0  0  0  0  0  0
   -7.6599   35.5949   69.2984 C   0  0  0  0  0  0  0  0  0  0  0  0
   -9.9361   35.1511   67.3779 N   0  0  0  0  0  0  0  0  0  0  0  0
   -7.3645   33.1596   69.3519 O   0  0  0  0  0  0  0  0  0  0  0  0
   -9.1034   30.2931   67.7495 O   0  0  0  0  0  0  0  0  0  0  0  0
  -10.9261   32.5178   67.1958 O   0  0  0  0  0  0  0  0  0  0  0  0
   -8.3283   35.5307   70.5347 O   0  0  0  0  0  0  0  0  0  0  0  0
    0.0963   28.0113   66.3242 C   0  0  1  0  0  0  0  0  0  0  0  0
   -0.2415   29.2583   65.4618 C   0  0  1  0  0  0  0  0  0  0  0  0
    0.6549   29.2857   64.1900 C   0  0  2  0  0  0  0  0  0  0  0  0
    2.1421   29.3450   64.6180 C   0  0  1  0  0  0  0  0  0  0  0  0
    2.5142   28.0896   65.4855 C   0  0  0  0  0  0  0  0  0  0  0  0
    1.6024   28.0749   66.7308 C   0  0  2  0  0  0  0  0  0  0  0  0
    3.0061   29.3787   63.4135 N   0  0  0  0  0  0  0  0  0  0  0  0
    1.9551   26.8995   67.5345 N   0  0  0  0  0  0  0  0  0  0  0  0
   -1.6293   29.2058   65.0635 O   0  0  0  0  0  0  0  0  0  0  0  0
    0.3168   30.4499   63.4037 O   0  0  0  0  0  0  0  0  0  0  0  0
  1  2  1  0  0  0  0
  1 12  1  6  0  0  0
  1 13  1  0  0  0  0
  2  3  1  0  0  0  0
  2 10  1  6  0  0  0
  4  3  1  6  0  0  0
  4  5  1  0  0  0  0
  4 14  1  0  0  0  0
  5  6  1  0  0  0  0
  5 13  1  1  0  0  0
  6  7  1  0  0  0  0
  6 15  1  1  0  0  0
  7  8  1  0  0  0  0
  7 11  1  1  0  0  0
  8 14  1  0  0  0  0
  8 16  1  6  0  0  0
  9 11  1  0  0  0  0
 17 16  1  6  0  0  0
 17 18  1  0  0  0  0
 17 24  1  0  0  0  0
 18 19  1  0  0  0  0
 18 25  1  6  0  0  0
 19 20  1  0  0  0  0
 19 26  1  1  0  0  0
 20 21  1  0  0  0  0
 20 23  1  6  0  0  0
 21 22  1  1  0  0  0
 21 24  1  0  0  0  0
 22 27  1  0  0  0  0
 28 12  1  1  0  0  0
 28 29  1  0  0  0  0
 28 33  1  0  0  0  0
 29 30  1  0  0  0  0
 29 36  1  6  0  0  0
 30 31  1  0  0  0  0
 30 37  1  6  0  0  0
 31 32  1  0  0  0  0
 31 34  1  6  0  0  0
 32 33  1  0  0  0  0
 33 35  1  1  0  0  0
M  END
>  <CHROM.1>
-174.06500976,143.70579029,-163.14090651,-63.74092714,-169.84900904,61.64335099
-3.79878991,30.98468370,67.33771505,0.07896985,-0.50042130,2.16662094

>  <Name>
ligand

>  <RI>
0

>  <Rbt.Current_Directory>
/home/itssahil/PROJECTS/Mol_Feturizer/Test_systems_manuscript/rnas/2g5k

>  <Rbt.Executable>
rbdock ($Id: //depot/dev/client3/rdock/2013.1/src/exe/rbdock.cxx#4 $)

>  <Rbt.Library>
libRbt.so (2013.1, Build901 2013/11/27)

>  <Rbt.Parameter_File>
/export/apps/rDock/src/rDock_2013.1_src/data/scripts/dock_solv.prm

>  <Rbt.Receptor>
prm/pocket_docking_7.prm

>  <SCORE>
-13.4186

>  <SCORE.INTER>
-8.2644

>  <SCORE.INTER.CONST>
1

>  <SCORE.INTER.POLAR>
0

>  <SCORE.INTER.ROT>
6

>  <SCORE.INTER.SOLV>
20.6699

>  <SCORE.INTER.VDW>
-19.9996

>  <SCORE.INTER.norm>
-0.223362

>  <SCORE.INTRA>
-5.15416

>  <SCORE.INTRA.DIHEDRAL>
-8.512

>  <SCORE.INTRA.DIHEDRAL.0>
11.3972

>  <SCORE.INTRA.POLAR>
0

>  <SCORE.INTRA.POLAR.0>
0

>  <SCORE.INTRA.REPUL>
0

>  <SCORE.INTRA.REPUL.0>
0

>  <SCORE.INTRA.SOLV>
-0.165863

>  <SCORE.INTRA.SOLV.lig_0>
-92.3891

>  <SCORE.INTRA.VDW>
-0.815231

>  <SCORE.INTRA.VDW.0>
-2.90606

>  <SCORE.INTRA.norm>
-0.139302

>  <SCORE.RESTR>
0

>  <SCORE.RESTR.CAVITY>
0

>  <SCORE.RESTR.norm>
0

>  <SCORE.SYSTEM>
0

>  <SCORE.SYSTEM.CONST>
0

>  <SCORE.SYSTEM.DIHEDRAL>
0

>  <SCORE.SYSTEM.SOLV>
0

>  <SCORE.SYSTEM.norm>
0

>  <SCORE.heavy>
37

>  <SCORE.norm>
-0.362664

>  <RMSD>
4.018

$$$$
ligand
 OpenBabel02271912133D
libRbt.so/2013.1/901 2013/11/27
 37 40  0  0  0  0  0  0  0  0999 V2000
   -0.3465   27.8477   63.2673 C   0  0  1  0  0  0  0  0  0  0  0  0
   -0.5175   29.3879   63.1371 C   0  0  1  0  0  0  0  0  0  0  0  0
   -1.3661   29.9729   64.2821 C   0  0  0  0  0  0  0  0  0  0  0  0
   -2.7527   29.2571   64.3002 C   0  0  1  0  0  0  0  0  0  0  0  0
   -2.5744   27.7150   64.4836 C   0  0  1  0  0  0  0  0  0  0  0  0
   -4.0025   27.0042   64.4972 C   0  0  1  0  0  0  0  0  0  0  0  0
   -4.8493   27.5940   65.6629 C   0  0  1  0  0  0  0  0  0  0  0  0
   -4.9650   29.1332   65.4481 C   0  0  2  0  0  0  0  0  0  0  0  0
   -6.4505   25.7977   66.6221 C   0  0  0  0  0  0  0  0  0  0  0  0
    0.8003   30.0551   63.0783 N   0  0  0  0  0  0  0  0  0  0  0  0
   -6.2175   26.9541   65.6993 N   0  0  0  0  0  0  0  0  0  0  0  0
    0.4735   27.4757   64.3922 O   0  0  0  0  0  0  0  0  0  0  0  0
   -1.6954   27.2332   63.3767 O   0  0  0  0  0  0  0  0  0  0  0  0
   -3.6431   29.7710   65.3923 O   0  0  0  0  0  0  0  0  0  0  0  0
   -4.6811   27.2675   63.2760 O   0  0  0  0  0  0  0  0  0  0  0  0
   -5.7174   29.7182   66.5048 O   0  0  0  0  0  0  0  0  0  0  0  0
   -6.2216   31.0431   66.2051 C   0  0  2  0  0  0  0  0  0  0  0  0
   -6.7681   31.7749   67.4538 C   0  0  1  0  0  0  0  0  0  0  0  0
   -8.0458   31.0614   68.0023 C   0  0  2  0  0  0  0  0  0  0  0  0
   -9.1109   31.0618   66.9246 C   0  0  1  0  0  0  0  0  0  0  0  0
   -8.5685   30.2995   65.6786 C   0  0  1  0  0  0  0  0  0  0  0  0
   -9.5790   30.2742   64.5334 C   0  0  0  0  0  0  0  0  0  0  0  0
  -10.3348   30.4060   67.4451 N   0  0  0  0  0  0  0  0  0  0  0  0
   -7.3179   30.9611   65.1943 O   0  0  0  0  0  0  0  0  0  0  0  0
   -5.7020   31.8213   68.4280 O   0  0  0  0  0  0  0  0  0  0  0  0
   -8.5412   31.7633   69.1447 O   0  0  0  0  0  0  0  0  0  0  0  0
  -10.6997   29.5158   64.9186 O   0  0  0  0  0  0  0  0  0  0  0  0
    0.9695   26.0652   64.6262 C   0  0  1  0  0  0  0  0  0  0  0  0
    1.9909   25.7151   63.5095 C   0  0  1  0  0  0  0  0  0  0  0  0
    2.5249   24.2672   63.7104 C   0  0  2  0  0  0  0  0  0  0  0  0
    3.2198   24.1690   65.0909 C   0  0  1  0  0  0  0  0  0  0  0  0
    2.2061   24.5101   66.2412 C   0  0  0  0  0  0  0  0  0  0  0  0
    1.6786   25.9425   66.0118 C   0  0  2  0  0  0  0  0  0  0  0  0
    3.7392   22.7947   65.2905 N   0  0  0  0  0  0  0  0  0  0  0  0
    0.7322   26.2527   67.0888 N   0  0  0  0  0  0  0  0  0  0  0  0
    1.3449   25.8083   62.2206 O   0  0  0  0  0  0  0  0  0  0  0  0
    3.4666   23.9650   62.6569 O   0  0  0  0  0  0  0  0  0  0  0  0
  1  2  1  0  0  0  0
  1 12  1  1  0  0  0
  1 13  1  0  0  0  0
  2  3  1  0  0  0  0
  2 10  1  1  0  0  0
  4  3  1  1  0  0  0
  4  5  1  0  0  0  0
  4 14  1  0  0  0  0
  5  6  1  0  0  0  0
  5 13  1  6  0  0  0
  6  7  1  0  0  0  0
  6 15  1  6  0  0  0
  7  8  1  0  0  0  0
  7 11  1  6  0  0  0
  8 14  1  0  0  0  0
  8 16  1  1  0  0  0
  9 11  1  0  0  0  0
 17 16  1  1  0  0  0
 17 18  1  0  0  0  0
 17 24  1  0  0  0  0
 18 19  1  0  0  0  0
 18 25  1  1  0  0  0
 19 20  1  0  0  0  0
 19 26  1  1  0  0  0
 20 21  1  0  0  0  0
 20 23  1  1  0  0  0
 21 22  1  6  0  0  0
 21 24  1  0  0  0  0
 22 27  1  0  0  0  0
 28 12  1  6  0  0  0
 28 29  1  0  0  0  0
 28 33  1  0  0  0  0
 29 30  1  0  0  0  0
 29 36  1  6  0  0  0
 30 31  1  0  0  0  0
 30 37  1  6  0  0  0
 31 32  1  0  0  0  0
 31 34  1  1  0  0  0
 32 33  1  0  0  0  0
 33 35  1  1  0  0  0
M  END
>  <CHROM.1>
-170.46667778,95.90541948,-162.39466445,67.71897029,-167.73974001,-65.87270155
-3.22285392,28.16823509,65.23433151,-0.43928488,0.25521667,-0.05143065

>  <Name>
ligand

>  <RI>
0

>  <Rbt.Current_Directory>
/home/itssahil/PROJECTS/Mol_Feturizer/Test_systems_manuscript/rnas/2g5k

>  <Rbt.Executable>
rbdock ($Id: //depot/dev/client3/rdock/2013.1/src/exe/rbdock.cxx#4 $)

>  <Rbt.Library>
libRbt.so (2013.1, Build901 2013/11/27)

>  <Rbt.Parameter_File>
/export/apps/rDock/src/rDock_2013.1_src/data/scripts/dock_solv.prm

>  <Rbt.Receptor>
prm/pocket_docking_4.prm

>  <SCORE>
-10.3303

>  <SCORE.INTER>
-6.35624

>  <SCORE.INTER.CONST>
1

>  <SCORE.INTER.POLAR>
0

>  <SCORE.INTER.ROT>
6

>  <SCORE.INTER.SOLV>
14.9953

>  <SCORE.INTER.VDW>
-16.8359

>  <SCORE.INTER.norm>
-0.17179

>  <SCORE.INTRA>
-3.97404

>  <SCORE.INTRA.DIHEDRAL>
-7.59547

>  <SCORE.INTRA.DIHEDRAL.0>
11.3972

>  <SCORE.INTRA.POLAR>
0

>  <SCORE.INTRA.POLAR.0>
0

>  <SCORE.INTRA.REPUL>
0

>  <SCORE.INTRA.REPUL.0>
0

>  <SCORE.INTRA.SOLV>
-0.682062

>  <SCORE.INTRA.SOLV.lig_0>
-92.3891

>  <SCORE.INTRA.VDW>
0.164724

>  <SCORE.INTRA.VDW.0>
-2.90606

>  <SCORE.INTRA.norm>
-0.107407

>  <SCORE.RESTR>
0

>  <SCORE.RESTR.CAVITY>
0

>  <SCORE.RESTR.norm>
0

>  <SCORE.SYSTEM>
0

>  <SCORE.SYSTEM.CONST>
0

>  <SCORE.SYSTEM.DIHEDRAL>
0

>  <SCORE.SYSTEM.SOLV>
0

>  <SCORE.SYSTEM.norm>
0

>  <SCORE.heavy>
37

>  <SCORE.norm>
-0.279197

>  <RMSD>
4.029

$$$$
ligand
 OpenBabel02271912133D
libRbt.so/2013.1/901 2013/11/27
 37 40  0  0  0  0  0  0  0  0999 V2000
   -2.2719   28.4370   64.8945 C   0  0  1  0  0  0  0  0  0  0  0  0
   -2.8409   29.7408   65.5229 C   0  0  1  0  0  0  0  0  0  0  0  0
   -3.7834   29.4475   66.7057 C   0  0  0  0  0  0  0  0  0  0  0  0
   -4.9352   28.5158   66.2151 C   0  0  1  0  0  0  0  0  0  0  0  0
   -4.3574   27.1853   65.6325 C   0  0  1  0  0  0  0  0  0  0  0  0
   -5.5506   26.2502   65.1359 C   0  0  1  0  0  0  0  0  0  0  0  0
   -6.4922   25.9508   66.3391 C   0  0  1  0  0  0  0  0  0  0  0  0
   -7.0095   27.3096   66.9002 C   0  0  2  0  0  0  0  0  0  0  0  0
   -7.3552   23.7043   65.3806 C   0  0  0  0  0  0  0  0  0  0  0  0
   -1.7439   30.6364   65.9467 N   0  0  0  0  0  0  0  0  0  0  0  0
   -7.6455   25.0772   65.9039 N   0  0  0  0  0  0  0  0  0  0  0  0
   -1.3554   27.7545   65.7722 O   0  0  0  0  0  0  0  0  0  0  0  0
   -3.4114   27.5522   64.5368 O   0  0  0  0  0  0  0  0  0  0  0  0
   -5.9009   28.1803   67.3126 O   0  0  0  0  0  0  0  0  0  0  0  0
   -6.3049   26.9245   64.1371 O   0  0  0  0  0  0  0  0  0  0  0  0
   -7.8614   27.0836   68.0174 O   0  0  0  0  0  0  0  0  0  0  0  0
   -9.2061   26.6793   67.6602 C   0  0  2  0  0  0  0  0  0  0  0  0
  -10.0596   27.8478   67.1127 C   0  0  1  0  0  0  0  0  0  0  0  0
  -10.3289   28.9102   68.2268 C   0  0  2  0  0  0  0  0  0  0  0  0
  -11.0731   28.2483   69.3687 C   0  0  1  0  0  0  0  0  0  0  0  0
  -10.1991   27.0902   69.9368 C   0  0  1  0  0  0  0  0  0  0  0  0
  -10.8914   26.3544   71.0825 C   0  0  0  0  0  0  0  0  0  0  0  0
  -11.3522   29.2554   70.4206 N   0  0  0  0  0  0  0  0  0  0  0  0
   -9.9055   26.1069   68.8492 O   0  0  0  0  0  0  0  0  0  0  0  0
   -9.3547   28.4036   65.9803 O   0  0  0  0  0  0  0  0  0  0  0  0
  -11.1312   29.9707   67.7026 O   0  0  0  0  0  0  0  0  0  0  0  0
  -12.0626   25.7411   70.6011 O   0  0  0  0  0  0  0  0  0  0  0  0
   -0.6634   26.4601   65.4041 C   0  0  1  0  0  0  0  0  0  0  0  0
    0.2357   26.7221   64.1649 C   0  0  1  0  0  0  0  0  0  0  0  0
    0.9654   25.4119   63.7490 C   0  0  2  0  0  0  0  0  0  0  0  0
    1.8443   24.9241   64.9270 C   0  0  1  0  0  0  0  0  0  0  0  0
    0.9584   24.6425   66.1931 C   0  0  0  0  0  0  0  0  0  0  0  0
    0.2332   25.9502   66.5762 C   0  0  2  0  0  0  0  0  0  0  0  0
    2.5504   23.6792   64.5395 N   0  0  0  0  0  0  0  0  0  0  0  0
   -0.5925   25.6786   67.7579 N   0  0  0  0  0  0  0  0  0  0  0  0
   -0.5824   27.1795   63.0654 O   0  0  0  0  0  0  0  0  0  0  0  0
    1.7886   25.6812   62.5924 O   0  0  0  0  0  0  0  0  0  0  0  0
  1  2  1  0  0  0  0
  1 12  1  1  0  0  0
  1 13  1  0  0  0  0
  2  3  1  0  0  0  0
  2 10  1  1  0  0  0
  4  3  1  1  0  0  0
  4  5  1  0  0  0  0
  4 14  1  0  0  0  0
  5  6  1  0  0  0  0
  5 13  1  6  0  0  0
  6  7  1  0  0  0  0
  6 15  1  6  0  0  0
  7  8  1  0  0  0  0
  7 11  1  6  0  0  0
  8 14  1  0  0  0  0
  8 16  1  1  0  0  0
  9 11  1  0  0  0  0
 17 16  1  1  0  0  0
 17 18  1  0  0  0  0
 17 24  1  0  0  0  0
 18 19  1  0  0  0  0
 18 25  1  6  0  0  0
 19 20  1  0  0  0  0
 19 26  1  6  0  0  0
 20 21  1  0  0  0  0
 20 23  1  1  0  0  0
 21 22  1  1  0  0  0
 21 24  1  0  0  0  0
 22 27  1  0  0  0  0
 28 12  1  1  0  0  0
 28 29  1  0  0  0  0
 28 33  1  0  0  0  0
 29 30  1  0  0  0  0
 29 36  1  6  0  0  0
 30 31  1  0  0  0  0
 30 37  1  6  0  0  0
 31 32  1  0  0  0  0
 31 34  1  6  0  0  0
 32 33  1  0  0  0  0
 33 35  1  1  0  0  0
M  END
>  <CHROM.1>
179.86135790,62.40423776,-79.03240451,62.23148796,-74.47467856,63.31435846
-5.12356107,27.04721569,66.48568686,-0.04419310,0.37848969,-0.19997414

>  <Name>
ligand

>  <RI>
0

>  <Rbt.Current_Directory>
/home/itssahil/PROJECTS/Mol_Feturizer/Test_systems_manuscript/rnas/2g5k

>  <Rbt.Executable>
rbdock ($Id: //depot/dev/client3/rdock/2013.1/src/exe/rbdock.cxx#4 $)

>  <Rbt.Library>
libRbt.so (2013.1, Build901 2013/11/27)

>  <Rbt.Parameter_File>
/export/apps/rDock/src/rDock_2013.1_src/data/scripts/dock_solv.prm

>  <Rbt.Receptor>
prm/pocket_docking_7.prm

>  <SCORE>
-9.06327

>  <SCORE.INTER>
-5.98029

>  <SCORE.INTER.CONST>
1

>  <SCORE.INTER.POLAR>
0

>  <SCORE.INTER.ROT>
6

>  <SCORE.INTER.SOLV>
15.1257

>  <SCORE.INTER.VDW>
-16.6288

>  <SCORE.INTER.norm>
-0.16163

>  <SCORE.INTRA>
-3.08297

>  <SCORE.INTRA.DIHEDRAL>
-8.67061

>  <SCORE.INTRA.DIHEDRAL.0>
11.3972

>  <SCORE.INTRA.POLAR>
0

>  <SCORE.INTRA.POLAR.0>
0

>  <SCORE.INTRA.REPUL>
0

>  <SCORE.INTRA.REPUL.0>
0

>  <SCORE.INTRA.SOLV>
0.0541416

>  <SCORE.INTRA.SOLV.lig_0>
-92.3891

>  <SCORE.INTRA.VDW>
1.22526

>  <SCORE.INTRA.VDW.0>
-2.90606

>  <SCORE.INTRA.norm>
-0.0833236

>  <SCORE.RESTR>
0

>  <SCORE.RESTR.CAVITY>
0

>  <SCORE.RESTR.norm>
0

>  <SCORE.SYSTEM>
0

>  <SCORE.SYSTEM.CONST>
0

>  <SCORE.SYSTEM.DIHEDRAL>
0

>  <SCORE.SYSTEM.SOLV>
0

>  <SCORE.SYSTEM.norm>
0

>  <SCORE.heavy>
37

>  <SCORE.norm>
-0.244953

>  <RMSD>
4.032

$$$$
ligand
 OpenBabel02271912133D
libRbt.so/2013.1/901 2013/11/27
 37 40  0  0  0  0  0  0  0  0999 V2000
   -0.4732   27.1847   67.2289 C   0  0  1  0  0  0  0  0  0  0  0  0
   -0.7269   25.8795   68.0355 C   0  0  1  0  0  0  0  0  0  0  0  0
   -1.8560   25.0312   67.4200 C   0  0  0  0  0  0  0  0  0  0  0  0
   -3.1516   25.8972   67.3381 C   0  0  1  0  0  0  0  0  0  0  0  0
   -2.9028   27.1814   66.4823 C   0  0  1  0  0  0  0  0  0  0  0  0
   -4.2380   28.0516   66.4137 C   0  0  1  0  0  0  0  0  0  0  0  0
   -5.3705   27.1903   65.7815 C   0  0  1  0  0  0  0  0  0  0  0  0
   -5.5511   25.9111   66.6531 C   0  0  2  0  0  0  0  0  0  0  0  0
   -7.6169   27.6994   64.5962 C   0  0  0  0  0  0  0  0  0  0  0  0
    0.5149   25.0850   68.1446 N   0  0  0  0  0  0  0  0  0  0  0  0
   -6.6582   27.9776   65.7128 N   0  0  0  0  0  0  0  0  0  0  0  0
    0.0950   26.9298   65.9295 O   0  0  0  0  0  0  0  0  0  0  0  0
   -1.7608   27.9165   67.1030 O   0  0  0  0  0  0  0  0  0  0  0  0
   -4.3038   25.1411   66.7462 O   0  0  0  0  0  0  0  0  0  0  0  0
   -4.6387   28.4198   67.7271 O   0  0  0  0  0  0  0  0  0  0  0  0
   -6.5667   25.0825   66.0990 O   0  0  0  0  0  0  0  0  0  0  0  0
   -6.7362   23.8189   66.7874 C   0  0  2  0  0  0  0  0  0  0  0  0
   -7.8552   22.9450   66.1728 C   0  0  1  0  0  0  0  0  0  0  0  0
   -9.2549   23.6105   66.3737 C   0  0  2  0  0  0  0  0  0  0  0  0
   -9.5144   23.7727   67.8577 C   0  0  1  0  0  0  0  0  0  0  0  0
   -8.4021   24.6766   68.4688 C   0  0  1  0  0  0  0  0  0  0  0  0
   -8.5799   24.8718   69.9733 C   0  0  0  0  0  0  0  0  0  0  0  0
  -10.8509   24.3835   68.0573 N   0  0  0  0  0  0  0  0  0  0  0  0
   -7.0641   24.0549   68.2252 O   0  0  0  0  0  0  0  0  0  0  0  0
   -7.5332   22.7497   64.7777 O   0  0  0  0  0  0  0  0  0  0  0  0
  -10.2730   22.7788   65.8126 O   0  0  0  0  0  0  0  0  0  0  0  0
   -8.4283   23.6337   70.6241 O   0  0  0  0  0  0  0  0  0  0  0  0
    0.7726   27.9966   65.0972 C   0  0  1  0  0  0  0  0  0  0  0  0
    2.1782   28.2672   65.7002 C   0  0  1  0  0  0  0  0  0  0  0  0
    2.9105   29.3643   64.8744 C   0  0  2  0  0  0  0  0  0  0  0  0
    3.0641   28.8808   63.4111 C   0  0  1  0  0  0  0  0  0  0  0  0
    1.6553   28.6075   62.7726 C   0  0  0  0  0  0  0  0  0  0  0  0
    0.9426   27.5298   63.6170 C   0  0  2  0  0  0  0  0  0  0  0  0
    3.7673   29.9158   62.6158 N   0  0  0  0  0  0  0  0  0  0  0  0
   -0.3720   27.2814   63.0153 N   0  0  0  0  0  0  0  0  0  0  0  0
    2.0371   28.7162   67.0662 O   0  0  0  0  0  0  0  0  0  0  0  0
    4.2106   29.6009   65.4590 O   0  0  0  0  0  0  0  0  0  0  0  0
  1  2  1  0  0  0  0
  1 12  1  6  0  0  0
  1 13  1  0  0  0  0
  2  3  1  0  0  0  0
  2 10  1  6  0  0  0
  4  3  1  6  0  0  0
  4  5  1  0  0  0  0
  4 14  1  0  0  0  0
  5  6  1  0  0  0  0
  5 13  1  1  0  0  0
  6  7  1  0  0  0  0
  6 15  1  1  0  0  0
  7  8  1  0  0  0  0
  7 11  1  1  0  0  0
  8 14  1  0  0  0  0
  8 16  1  6  0  0  0
  9 11  1  0  0  0  0
 17 16  1  6  0  0  0
 17 18  1  0  0  0  0
 17 24  1  0  0  0  0
 18 19  1  0  0  0  0
 18 25  1  6  0  0  0
 19 20  1  0  0  0  0
 19 26  1  1  0  0  0
 20 21  1  0  0  0  0
 20 23  1  6  0  0  0
 21 22  1  1  0  0  0
 21 24  1  0  0  0  0
 22 27  1  0  0  0  0
 28 12  1  1  0  0  0
 28 29  1  0  0  0  0
 28 33  1  0  0  0  0
 29 30  1  0  0  0  0
 29 36  1  1  0  0  0
 30 31  1  0  0  0  0
 30 37  1  1  0  0  0
 31 32  1  0  0  0  0
 31 34  1  6  0  0  0
 32 33  1  0  0  0  0
 33 35  1  6  0  0  0
M  END
>  <CHROM.1>
-163.25652902,148.84546555,175.61015753,75.68234000,179.44127546,64.45416860
-3.51367672,26.30946267,66.35065063,-0.31413004,0.31061368,1.86120184

>  <Name>
ligand

>  <RI>
0

>  <Rbt.Current_Directory>
/home/itssahil/PROJECTS/Mol_Feturizer/Test_systems_manuscript/rnas/2g5k

>  <Rbt.Executable>
rbdock ($Id: //depot/dev/client3/rdock/2013.1/src/exe/rbdock.cxx#4 $)

>  <Rbt.Library>
libRbt.so (2013.1, Build901 2013/11/27)

>  <Rbt.Parameter_File>
/export/apps/rDock/src/rDock_2013.1_src/data/scripts/dock_solv.prm

>  <Rbt.Receptor>
prm/pocket_docking_7.prm

>  <SCORE>
-8.79824

>  <SCORE.INTER>
-4.56414

>  <SCORE.INTER.CONST>
1

>  <SCORE.INTER.POLAR>
0

>  <SCORE.INTER.ROT>
6

>  <SCORE.INTER.SOLV>
19.0832

>  <SCORE.INTER.VDW>
-17.0038

>  <SCORE.INTER.norm>
-0.123355

>  <SCORE.INTRA>
-4.2341

>  <SCORE.INTRA.DIHEDRAL>
-8.11305

>  <SCORE.INTRA.DIHEDRAL.0>
11.3972

>  <SCORE.INTRA.POLAR>
0

>  <SCORE.INTRA.POLAR.0>
0

>  <SCORE.INTRA.REPUL>
0

>  <SCORE.INTRA.REPUL.0>
0

>  <SCORE.INTRA.SOLV>
-0.867413

>  <SCORE.INTRA.SOLV.lig_0>
-92.3891

>  <SCORE.INTRA.VDW>
0.256134

>  <SCORE.INTRA.VDW.0>
-2.90606

>  <SCORE.INTRA.norm>
-0.114435

>  <SCORE.RESTR>
0

>  <SCORE.RESTR.CAVITY>
0

>  <SCORE.RESTR.norm>
0

>  <SCORE.SYSTEM>
0

>  <SCORE.SYSTEM.CONST>
0

>  <SCORE.SYSTEM.DIHEDRAL>
0

>  <SCORE.SYSTEM.SOLV>
0

>  <SCORE.SYSTEM.norm>
0

>  <SCORE.heavy>
37

>  <SCORE.norm>
-0.23779

>  <RMSD>
4.040

$$$$
ligand
 OpenBabel02271912133D
libRbt.so/2013.1/901 2013/11/27
 37 40  0  0  0  0  0  0  0  0999 V2000
   -1.6126   27.9762   63.1810 C   0  0  1  0  0  0  0  0  0  0  0  0
   -2.0898   29.4476   63.0207 C   0  0  1  0  0  0  0  0  0  0  0  0
   -2.8389   29.9505   64.2694 C   0  0  0  0  0  0  0  0  0  0  0  0
   -4.0444   29.0007   64.5523 C   0  0  1  0  0  0  0  0  0  0  0  0
   -3.5512   27.5325   64.7639 C   0  0  1  0  0  0  0  0  0  0  0  0
   -4.7985   26.5798   65.0493 C   0  0  1  0  0  0  0  0  0  0  0  0
   -5.5434   27.0891   66.3180 C   0  0  1  0  0  0  0  0  0  0  0  0
   -5.9804   28.5635   66.0649 C   0  0  2  0  0  0  0  0  0  0  0  0
   -6.5220   24.8619   67.2080 C   0  0  0  0  0  0  0  0  0  0  0  0
   -0.9484   30.3345   62.7113 N   0  0  0  0  0  0  0  0  0  0  0  0
   -6.7425   26.2184   66.6128 N   0  0  0  0  0  0  0  0  0  0  0  0
   -0.5676   27.8379   64.1635 O   0  0  0  0  0  0  0  0  0  0  0  0
   -2.7861   27.1390   63.5434 O   0  0  0  0  0  0  0  0  0  0  0  0
   -4.8290   29.4225   65.7590 O   0  0  0  0  0  0  0  0  0  0  0  0
   -5.7014   26.6299   63.9523 O   0  0  0  0  0  0  0  0  0  0  0  0
   -6.6504   29.0774   67.2103 O   0  0  0  0  0  0  0  0  0  0  0  0
   -7.3823   30.3032   66.9635 C   0  0  2  0  0  0  0  0  0  0  0  0
   -7.9157   30.9562   68.2607 C   0  0  1  0  0  0  0  0  0  0  0  0
   -9.0077   30.0588   68.9274 C   0  0  2  0  0  0  0  0  0  0  0  0
  -10.1572   29.8790   67.9567 C   0  0  1  0  0  0  0  0  0  0  0  0
   -9.6228   29.1952   66.6627 C   0  0  1  0  0  0  0  0  0  0  0  0
  -10.7211   28.9978   65.6195 C   0  0  0  0  0  0  0  0  0  0  0  0
  -11.2080   29.0465   68.5906 N   0  0  0  0  0  0  0  0  0  0  0  0
   -8.5433   30.0381   66.0623 O   0  0  0  0  0  0  0  0  0  0  0  0
   -6.7823   31.1811   69.1284 O   0  0  0  0  0  0  0  0  0  0  0  0
   -9.4961   30.6889   70.1138 O   0  0  0  0  0  0  0  0  0  0  0  0
  -10.1657   28.4209   64.4628 O   0  0  0  0  0  0  0  0  0  0  0  0
    0.0645   26.5101   64.5202 C   0  0  1  0  0  0  0  0  0  0  0  0
    1.2179   26.2331   63.5174 C   0  0  1  0  0  0  0  0  0  0  0  0
    1.8950   24.8711   63.8466 C   0  0  2  0  0  0  0  0  0  0  0  0
    2.4666   24.9225   65.2850 C   0  0  1  0  0  0  0  0  0  0  0  0
    1.3188   25.1931   66.3225 C   0  0  0  0  0  0  0  0  0  0  0  0
    0.6525   26.5391   65.9663 C   0  0  2  0  0  0  0  0  0  0  0  0
    3.1209   23.6317   65.6075 N   0  0  0  0  0  0  0  0  0  0  0  0
   -0.4185   26.7836   66.9385 N   0  0  0  0  0  0  0  0  0  0  0  0
    0.6868   26.1869   62.1746 O   0  0  0  0  0  0  0  0  0  0  0  0
    2.9582   24.6350   62.8970 O   0  0  0  0  0  0  0  0  0  0  0  0
  1  2  1  0  0  0  0
  1 12  1  1  0  0  0
  1 13  1  0  0  0  0
  2  3  1  0  0  0  0
  2 10  1  1  0  0  0
  4  3  1  1  0  0  0
  4  5  1  0  0  0  0
  4 14  1  0  0  0  0
  5  6  1  0  0  0  0
  5 13  1  6  0  0  0
  6  7  1  0  0  0  0
  6 15  1  6  0  0  0
  7  8  1  0  0  0  0
  7 11  1  6  0  0  0
  8 14  1  0  0  0  0
  8 16  1  1  0  0  0
  9 11  1  0  0  0  0
 17 16  1  1  0  0  0
 17 18  1  0  0  0  0
 17 24  1  0  0  0  0
 18 19  1  0  0  0  0
 18 25  1  1  0  0  0
 19 20  1  0  0  0  0
 19 26  1  1  0  0  0
 20 21  1  0  0  0  0
 20 23  1  1  0  0  0
 21 22  1  6  0  0  0
 21 24  1  0  0  0  0
 22 27  1  0  0  0  0
 28 12  1  6  0  0  0
 28 29  1  0  0  0  0
 28 33  1  0  0  0  0
 29 30  1  0  0  0  0
 29 36  1  6  0  0  0
 30 31  1  0  0  0  0
 30 37  1  6  0  0  0
 31 32  1  0  0  0  0
 31 34  1  1  0  0  0
 32 33  1  0  0  0  0
 33 35  1  1  0  0  0
M  END
>  <CHROM.1>
179.44829628,75.02503555,-165.33661867,85.89623476,-171.08106658,177.97578448
-4.15316068,27.89826515,65.62248885,0.08309483,0.43931638,-1.02630618

>  <Name>
ligand

>  <RI>
0

>  <Rbt.Current_Directory>
/home/itssahil/PROJECTS/Mol_Feturizer/Test_systems_manuscript/rnas/2g5k

>  <Rbt.Executable>
rbdock ($Id: //depot/dev/client3/rdock/2013.1/src/exe/rbdock.cxx#4 $)

>  <Rbt.Library>
libRbt.so (2013.1, Build901 2013/11/27)

>  <Rbt.Parameter_File>
/export/apps/rDock/src/rDock_2013.1_src/data/scripts/dock_solv.prm

>  <Rbt.Receptor>
prm/pocket_docking_4.prm

>  <SCORE>
-10.5533

>  <SCORE.INTER>
-6.25837

>  <SCORE.INTER.CONST>
1

>  <SCORE.INTER.POLAR>
0

>  <SCORE.INTER.ROT>
6

>  <SCORE.INTER.SOLV>
17.5464

>  <SCORE.INTER.VDW>
-17.6211

>  <SCORE.INTER.norm>
-0.169145

>  <SCORE.INTRA>
-4.2971

>  <SCORE.INTRA.DIHEDRAL>
-6.9472

>  <SCORE.INTRA.DIHEDRAL.0>
11.3972

>  <SCORE.INTRA.POLAR>
0

>  <SCORE.INTRA.POLAR.0>
0

>  <SCORE.INTRA.REPUL>
0

>  <SCORE.INTRA.REPUL.0>
0

>  <SCORE.INTRA.SOLV>
-1.38972

>  <SCORE.INTRA.SOLV.lig_0>
-92.3891

>  <SCORE.INTRA.VDW>
-0.128639

>  <SCORE.INTRA.VDW.0>
-2.90606

>  <SCORE.INTRA.norm>
-0.116138

>  <SCORE.RESTR>
0.0021284

>  <SCORE.RESTR.CAVITY>
0.0021284

>  <SCORE.RESTR.norm>
5.75243e-05

>  <SCORE.SYSTEM>
0

>  <SCORE.SYSTEM.CONST>
0

>  <SCORE.SYSTEM.DIHEDRAL>
0

>  <SCORE.SYSTEM.SOLV>
0

>  <SCORE.SYSTEM.norm>
0

>  <SCORE.heavy>
37

>  <SCORE.norm>
-0.285225

>  <RMSD>
4.070

$$$$
ligand
 OpenBabel02271912133D
libRbt.so/2013.1/901 2013/11/27
 37 40  0  0  0  0  0  0  0  0999 V2000
   -1.4177   26.9619   68.2440 C   0  0  1  0  0  0  0  0  0  0  0  0
   -1.8387   25.5439   68.7241 C   0  0  1  0  0  0  0  0  0  0  0  0
   -2.7555   24.8388   67.7064 C   0  0  0  0  0  0  0  0  0  0  0  0
   -4.0068   25.7347   67.4477 C   0  0  1  0  0  0  0  0  0  0  0  0
   -3.5775   27.1406   66.9159 C   0  0  1  0  0  0  0  0  0  0  0  0
   -4.8706   28.0392   66.6606 C   0  0  1  0  0  0  0  0  0  0  0  0
   -5.7860   27.3243   65.6239 C   0  0  1  0  0  0  0  0  0  0  0  0
   -6.1535   25.9191   66.1888 C   0  0  2  0  0  0  0  0  0  0  0  0
   -7.8829   27.8048   64.1807 C   0  0  0  0  0  0  0  0  0  0  0  0
   -0.6479   24.7151   69.0073 N   0  0  0  0  0  0  0  0  0  0  0  0
   -7.0313   28.1402   65.3663 N   0  0  0  0  0  0  0  0  0  0  0  0
   -0.5328   26.9206   67.1076 O   0  0  0  0  0  0  0  0  0  0  0  0
   -2.6471   27.7330   67.9226 O   0  0  0  0  0  0  0  0  0  0  0  0
   -4.9538   25.1169   66.4623 O   0  0  0  0  0  0  0  0  0  0  0  0
   -5.5997   28.1860   67.8722 O   0  0  0  0  0  0  0  0  0  0  0  0
   -6.9765   25.2203   65.2618 O   0  0  0  0  0  0  0  0  0  0  0  0
   -7.3449   23.8864   65.6907 C   0  0  2  0  0  0  0  0  0  0  0  0
   -8.1744   23.1222   64.6317 C   0  0  1  0  0  0  0  0  0  0  0  0
   -9.5718   23.7921   64.4296 C   0  0  2  0  0  0  0  0  0  0  0  0
  -10.3200   23.7773   65.7471 C   0  0  1  0  0  0  0  0  0  0  0  0
   -9.4962   24.5719   66.8044 C   0  0  1  0  0  0  0  0  0  0  0  0
  -10.1750   24.5852   68.1727 C   0  0  0  0  0  0  0  0  0  0  0  0
  -11.6565   24.3915   65.5584 N   0  0  0  0  0  0  0  0  0  0  0  0
   -8.1432   23.9521   66.9512 O   0  0  0  0  0  0  0  0  0  0  0  0
   -7.3969   23.0917   63.4141 O   0  0  0  0  0  0  0  0  0  0  0  0
  -10.3252   23.0608   63.4597 O   0  0  0  0  0  0  0  0  0  0  0  0
  -11.3923   25.2846   68.0813 O   0  0  0  0  0  0  0  0  0  0  0  0
    0.3853   28.0627   66.7297 C   0  0  1  0  0  0  0  0  0  0  0  0
    1.4778   28.1945   67.8260 C   0  0  1  0  0  0  0  0  0  0  0  0
    2.4442   29.3635   67.4778 C   0  0  2  0  0  0  0  0  0  0  0  0
    3.1181   29.0763   66.1134 C   0  0  1  0  0  0  0  0  0  0  0  0
    2.0354   28.9468   64.9828 C   0  0  0  0  0  0  0  0  0  0  0  0
    1.0804   27.7935   65.3578 C   0  0  2  0  0  0  0  0  0  0  0  0
    4.0472   30.1809   65.7744 N   0  0  0  0  0  0  0  0  0  0  0  0
    0.0722   27.6800   64.2984 N   0  0  0  0  0  0  0  0  0  0  0  0
    0.8508   28.4603   69.1002 O   0  0  0  0  0  0  0  0  0  0  0  0
    3.4452   29.4683   68.5147 O   0  0  0  0  0  0  0  0  0  0  0  0
  1  2  1  0  0  0  0
  1 12  1  6  0  0  0
  1 13  1  0  0  0  0
  2  3  1  0  0  0  0
  2 10  1  6  0  0  0
  4  3  1  6  0  0  0
  4  5  1  0  0  0  0
  4 14  1  0  0  0  0
  5  6  1  0  0  0  0
  5 13  1  1  0  0  0
  6  7  1  0  0  0  0
  6 15  1  1  0  0  0
  7  8  1  0  0  0  0
  7 11  1  1  0  0  0
  8 14  1  0  0  0  0
  8 16  1  6  0  0  0
  9 11  1  0  0  0  0
 17 16  1  6  0  0  0
 17 18  1  0  0  0  0
 17 24  1  0  0  0  0
 18 19  1  0  0  0  0
 18 25  1  6  0  0  0
 19 20  1  0  0  0  0
 19 26  1  6  0  0  0
 20 21  1  0  0  0  0
 20 23  1  6  0  0  0
 21 22  1  1  0  0  0
 21 24  1  0  0  0  0
 22 27  1  0  0  0  0
 28 12  1  1  0  0  0
 28 29  1  0  0  0  0
 28 33  1  0  0  0  0
 29 30  1  0  0  0  0
 29 36  1  1  0  0  0
 30 31  1  0  0  0  0
 30 37  1  1  0  0  0
 31 32  1  0  0  0  0
 31 34  1  6  0  0  0
 32 33  1  0  0  0  0
 33 35  1  6  0  0  0
M  END
>  <CHROM.1>
-158.60674931,165.77761941,178.68539125,67.85353584,-176.87528288,-64.74800705
-4.15105205,26.36963950,66.48687572,0.11075764,0.35343446,1.58987113

>  <Name>
ligand

>  <RI>
0

>  <Rbt.Current_Directory>
/home/itssahil/PROJECTS/Mol_Feturizer/Test_systems_manuscript/rnas/2g5k

>  <Rbt.Executable>
rbdock ($Id: //depot/dev/client3/rdock/2013.1/src/exe/rbdock.cxx#4 $)

>  <Rbt.Library>
libRbt.so (2013.1, Build901 2013/11/27)

>  <Rbt.Parameter_File>
/export/apps/rDock/src/rDock_2013.1_src/data/scripts/dock_solv.prm

>  <Rbt.Receptor>
prm/pocket_docking_7.prm

>  <SCORE>
-8.57848

>  <SCORE.INTER>
-4.8707

>  <SCORE.INTER.CONST>
1

>  <SCORE.INTER.POLAR>
0

>  <SCORE.INTER.ROT>
6

>  <SCORE.INTER.SOLV>
19.7838

>  <SCORE.INTER.VDW>
-17.4417

>  <SCORE.INTER.norm>
-0.131641

>  <SCORE.INTRA>
-3.70778

>  <SCORE.INTRA.DIHEDRAL>
-8.73624

>  <SCORE.INTRA.DIHEDRAL.0>
11.3972

>  <SCORE.INTRA.POLAR>
0

>  <SCORE.INTRA.POLAR.0>
0

>  <SCORE.INTRA.REPUL>
0

>  <SCORE.INTRA.REPUL.0>
0

>  <SCORE.INTRA.SOLV>
-0.425253

>  <SCORE.INTRA.SOLV.lig_0>
-92.3891

>  <SCORE.INTRA.VDW>
0.872968

>  <SCORE.INTRA.VDW.0>
-2.90606

>  <SCORE.INTRA.norm>
-0.10021

>  <SCORE.RESTR>
0

>  <SCORE.RESTR.CAVITY>
0

>  <SCORE.RESTR.norm>
0

>  <SCORE.SYSTEM>
0

>  <SCORE.SYSTEM.CONST>
0

>  <SCORE.SYSTEM.DIHEDRAL>
0

>  <SCORE.SYSTEM.SOLV>
0

>  <SCORE.SYSTEM.norm>
0

>  <SCORE.heavy>
37

>  <SCORE.norm>
-0.231851

>  <RMSD>
4.084

$$$$
ligand
 OpenBabel02271912133D
libRbt.so/2013.1/901 2013/11/27
 37 40  0  0  0  0  0  0  0  0999 V2000
   -2.4036   28.3520   63.8393 C   0  0  1  0  0  0  0  0  0  0  0  0
   -2.9515   29.7739   64.1501 C   0  0  1  0  0  0  0  0  0  0  0  0
   -3.9905   29.7560   65.2874 C   0  0  0  0  0  0  0  0  0  0  0  0
   -5.1484   28.7845   64.8989 C   0  0  1  0  0  0  0  0  0  0  0  0
   -4.5964   27.3454   64.6389 C   0  0  1  0  0  0  0  0  0  0  0  0
   -5.7952   26.3708   64.2419 C   0  0  1  0  0  0  0  0  0  0  0  0
   -6.8350   26.3509   65.4004 C   0  0  1  0  0  0  0  0  0  0  0  0
   -7.3239   27.8114   65.6386 C   0  0  2  0  0  0  0  0  0  0  0  0
   -7.7578   23.9724   64.9513 C   0  0  0  0  0  0  0  0  0  0  0  0
   -1.8451   30.6985   64.4760 N   0  0  0  0  0  0  0  0  0  0  0  0
   -7.9956   25.4475   65.0544 N   0  0  0  0  0  0  0  0  0  0  0  0
   -1.5879   27.8287   64.9057 O   0  0  0  0  0  0  0  0  0  0  0  0
   -3.5566   27.4527   63.5724 O   0  0  0  0  0  0  0  0  0  0  0  0
   -6.2064   28.7089   65.9593 O   0  0  0  0  0  0  0  0  0  0  0  0
   -6.4409   26.8563   63.0720 O   0  0  0  0  0  0  0  0  0  0  0  0
   -8.2646   27.8432   66.7059 O   0  0  0  0  0  0  0  0  0  0  0  0
   -8.7988   29.1617   66.9807 C   0  0  2  0  0  0  0  0  0  0  0  0
   -9.7861   29.1739   68.1717 C   0  0  1  0  0  0  0  0  0  0  0  0
  -11.0805   28.3677   67.8300 C   0  0  2  0  0  0  0  0  0  0  0  0
  -11.7509   28.9995   66.6269 C   0  0  1  0  0  0  0  0  0  0  0  0
  -10.7648   28.9601   65.4212 C   0  0  1  0  0  0  0  0  0  0  0  0
  -11.3597   29.6014   64.1690 C   0  0  0  0  0  0  0  0  0  0  0  0
  -12.9924   28.2533   66.3098 N   0  0  0  0  0  0  0  0  0  0  0  0
   -9.5100   29.6907   65.7788 O   0  0  0  0  0  0  0  0  0  0  0  0
   -9.0880   28.6356   69.3167 O   0  0  0  0  0  0  0  0  0  0  0  0
  -11.9831   28.4061   68.9377 O   0  0  0  0  0  0  0  0  0  0  0  0
  -10.4605   29.4513   63.0974 O   0  0  0  0  0  0  0  0  0  0  0  0
   -0.8163   26.5313   64.7990 C   0  0  1  0  0  0  0  0  0  0  0  0
    0.2729   26.6992   63.7043 C   0  0  1  0  0  0  0  0  0  0  0  0
    1.0899   25.3828   63.5587 C   0  0  2  0  0  0  0  0  0  0  0  0
    1.7681   25.0536   64.9114 C   0  0  1  0  0  0  0  0  0  0  0  0
    0.6878   24.8695   66.0367 C   0  0  0  0  0  0  0  0  0  0  0  0
   -0.1192   26.1802   66.1512 C   0  0  2  0  0  0  0  0  0  0  0  0
    2.5558   23.8040   64.7827 N   0  0  0  0  0  0  0  0  0  0  0  0
   -1.1262   25.9997   67.2026 N   0  0  0  0  0  0  0  0  0  0  0  0
   -0.3580   27.0086   62.4419 O   0  0  0  0  0  0  0  0  0  0  0  0
    2.0902   25.5636   62.5317 O   0  0  0  0  0  0  0  0  0  0  0  0
  1  2  1  0  0  0  0
  1 12  1  1  0  0  0
  1 13  1  0  0  0  0
  2  3  1  0  0  0  0
  2 10  1  1  0  0  0
  4  3  1  1  0  0  0
  4  5  1  0  0  0  0
  4 14  1  0  0  0  0
  5  6  1  0  0  0  0
  5 13  1  6  0  0  0
  6  7  1  0  0  0  0
  6 15  1  6  0  0  0
  7  8  1  0  0  0  0
  7 11  1  6  0  0  0
  8 14  1  0  0  0  0
  8 16  1  1  0  0  0
  9 11  1  0  0  0  0
 17 16  1  6  0  0  0
 17 18  1  0  0  0  0
 17 24  1  0  0  0  0
 18 19  1  0  0  0  0
 18 25  1  1  0  0  0
 19 20  1  0  0  0  0
 19 26  1  1  0  0  0
 20 21  1  0  0  0  0
 20 23  1  6  0  0  0
 21 22  1  6  0  0  0
 21 24  1  0  0  0  0
 22 27  1  0  0  0  0
 28 12  1  1  0  0  0
 28 29  1  0  0  0  0
 28 33  1  0  0  0  0
 29 30  1  0  0  0  0
 29 36  1  6  0  0  0
 30 31  1  0  0  0  0
 30 37  1  6  0  0  0
 31 32  1  0  0  0  0
 31 34  1  6  0  0  0
 32 33  1  0  0  0  0
 33 35  1  1  0  0  0
M  END
>  <CHROM.1>
-173.38759353,67.50996645,-178.69568804,64.96107881,-178.29279646,-175.96357879
-5.29119327,27.55253787,65.27553169,0.00327264,0.29235689,-0.86333306

>  <Name>
ligand

>  <RI>
0

>  <Rbt.Current_Directory>
/home/itssahil/PROJECTS/Mol_Feturizer/Test_systems_manuscript/rnas/2g5k

>  <Rbt.Executable>
rbdock ($Id: //depot/dev/client3/rdock/2013.1/src/exe/rbdock.cxx#4 $)

>  <Rbt.Library>
libRbt.so (2013.1, Build901 2013/11/27)

>  <Rbt.Parameter_File>
/export/apps/rDock/src/rDock_2013.1_src/data/scripts/dock_solv.prm

>  <Rbt.Receptor>
prm/pocket_docking_4.prm

>  <SCORE>
-10.1617

>  <SCORE.INTER>
-4.48377

>  <SCORE.INTER.CONST>
1

>  <SCORE.INTER.POLAR>
0

>  <SCORE.INTER.ROT>
6

>  <SCORE.INTER.SOLV>
12.9746

>  <SCORE.INTER.VDW>
-14.914

>  <SCORE.INTER.norm>
-0.121183

>  <SCORE.INTRA>
-5.67795

>  <SCORE.INTRA.DIHEDRAL>
-10.8965

>  <SCORE.INTRA.DIHEDRAL.0>
11.3972

>  <SCORE.INTRA.POLAR>
0

>  <SCORE.INTRA.POLAR.0>
0

>  <SCORE.INTRA.REPUL>
0

>  <SCORE.INTRA.REPUL.0>
0

>  <SCORE.INTRA.SOLV>
-1.94083

>  <SCORE.INTRA.SOLV.lig_0>
-92.3891

>  <SCORE.INTRA.VDW>
0.740701

>  <SCORE.INTRA.VDW.0>
-2.90606

>  <SCORE.INTRA.norm>
-0.153458

>  <SCORE.RESTR>
0

>  <SCORE.RESTR.CAVITY>
0

>  <SCORE.RESTR.norm>
0

>  <SCORE.SYSTEM>
0

>  <SCORE.SYSTEM.CONST>
0

>  <SCORE.SYSTEM.DIHEDRAL>
0

>  <SCORE.SYSTEM.SOLV>
0

>  <SCORE.SYSTEM.norm>
0

>  <SCORE.heavy>
37

>  <SCORE.norm>
-0.274641

>  <RMSD>
4.101

$$$$
ligand
 OpenBabel02271912133D
libRbt.so/2013.1/901 2013/11/27
 37 40  0  0  0  0  0  0  0  0999 V2000
   -0.8238   30.4411   67.8038 C   0  0  1  0  0  0  0  0  0  0  0  0
   -1.4999   31.7760   68.2275 C   0  0  1  0  0  0  0  0  0  0  0  0
   -2.8971   31.5475   68.8349 C   0  0  0  0  0  0  0  0  0  0  0  0
   -3.7783   30.7793   67.8011 C   0  0  1  0  0  0  0  0  0  0  0  0
   -3.1173   29.4150   67.4198 C   0  0  1  0  0  0  0  0  0  0  0  0
   -4.0328   28.6486   66.3619 C   0  0  1  0  0  0  0  0  0  0  0  0
   -5.4389   28.4131   66.9875 C   0  0  1  0  0  0  0  0  0  0  0  0
   -6.0340   29.7992   67.3790 C   0  0  2  0  0  0  0  0  0  0  0  0
   -7.4784   26.8812   66.5358 C   0  0  0  0  0  0  0  0  0  0  0  0
   -0.6403   32.5176   69.1742 N   0  0  0  0  0  0  0  0  0  0  0  0
   -6.3414   27.7004   66.0075 N   0  0  0  0  0  0  0  0  0  0  0  0
   -0.4668   29.6197   68.9326 O   0  0  0  0  0  0  0  0  0  0  0  0
   -1.7500   29.7125   66.8981 O   0  0  0  0  0  0  0  0  0  0  0  0
   -5.1611   30.5152   68.3185 O   0  0  0  0  0  0  0  0  0  0  0  0
   -4.1916   29.4477   65.1969 O   0  0  0  0  0  0  0  0  0  0  0  0
   -7.3152   29.6296   67.9745 O   0  0  0  0  0  0  0  0  0  0  0  0
   -8.0309   30.8700   68.1947 C   0  0  2  0  0  0  0  0  0  0  0  0
   -9.3866   30.6627   68.9106 C   0  0  1  0  0  0  0  0  0  0  0  0
  -10.3824   29.8748   67.9996 C   0  0  2  0  0  0  0  0  0  0  0  0
  -10.6124   30.6620   66.7255 C   0  0  1  0  0  0  0  0  0  0  0  0
   -9.2499   30.8447   65.9921 C   0  0  1  0  0  0  0  0  0  0  0  0
   -9.3928   31.6516   64.7030 C   0  0  0  0  0  0  0  0  0  0  0  0
  -11.5739   29.9313   65.8650 N   0  0  0  0  0  0  0  0  0  0  0  0
   -8.2898   31.5542   66.8927 O   0  0  0  0  0  0  0  0  0  0  0  0
   -9.1179   29.9778   70.1542 O   0  0  0  0  0  0  0  0  0  0  0  0
  -11.6313   29.7092   68.6748 O   0  0  0  0  0  0  0  0  0  0  0  0
   -9.8483   32.9463   65.0126 O   0  0  0  0  0  0  0  0  0  0  0  0
    0.2679   28.3033   68.8005 C   0  0  1  0  0  0  0  0  0  0  0  0
   -0.6636   27.2947   68.0740 C   0  0  1  0  0  0  0  0  0  0  0  0
    0.0535   25.9221   67.9203 C   0  0  2  0  0  0  0  0  0  0  0  0
    1.3473   26.1150   67.0913 C   0  0  1  0  0  0  0  0  0  0  0  0
    2.3132   27.1251   67.8081 C   0  0  0  0  0  0  0  0  0  0  0  0
    1.5753   28.4719   67.9638 C   0  0  2  0  0  0  0  0  0  0  0  0
    2.0358   24.8116   66.9321 N   0  0  0  0  0  0  0  0  0  0  0  0
    2.4830   29.4088   68.6349 N   0  0  0  0  0  0  0  0  0  0  0  0
   -1.8722   27.1152   68.8450 O   0  0  0  0  0  0  0  0  0  0  0  0
   -0.8353   25.0021   67.2483 O   0  0  0  0  0  0  0  0  0  0  0  0
  1  2  1  0  0  0  0
  1 12  1  1  0  0  0
  1 13  1  0  0  0  0
  2  3  1  0  0  0  0
  2 10  1  1  0  0  0
  4  3  1  1  0  0  0
  4  5  1  0  0  0  0
  4 14  1  0  0  0  0
  5  6  1  0  0  0  0
  5 13  1  6  0  0  0
  6  7  1  0  0  0  0
  6 15  1  6  0  0  0
  7  8  1  0  0  0  0
  7 11  1  6  0  0  0
  8 14  1  0  0  0  0
  8 16  1  1  0  0  0
  9 11  1  0  0  0  0
 17 16  1  6  0  0  0
 17 18  1  0  0  0  0
 17 24  1  0  0  0  0
 18 19  1  0  0  0  0
 18 25  1  1  0  0  0
 19 20  1  0  0  0  0
 19 26  1  1  0  0  0
 20 21  1  0  0  0  0
 20 23  1  6  0  0  0
 21 22  1  6  0  0  0
 21 24  1  0  0  0  0
 22 27  1  0  0  0  0
 28 12  1  6  0  0  0
 28 29  1  0  0  0  0
 28 33  1  0  0  0  0
 29 30  1  0  0  0  0
 29 36  1  1  0  0  0
 30 31  1  0  0  0  0
 30 37  1  6  0  0  0
 31 32  1  0  0  0  0
 31 34  1  1  0  0  0
 32 33  1  0  0  0  0
 33 35  1  1  0  0  0
M  END
>  <CHROM.1>
-176.75072962,154.60651824,-171.50282026,-66.46674244,-176.95666253,62.50586036
-4.43392356,29.33278313,67.52154555,-0.23780541,-0.13674770,0.20648707

>  <Name>
ligand

>  <RI>
0

>  <Rbt.Current_Directory>
/home/itssahil/PROJECTS/Mol_Feturizer/Test_systems_manuscript/rnas/2g5k

>  <Rbt.Executable>
rbdock ($Id: //depot/dev/client3/rdock/2013.1/src/exe/rbdock.cxx#4 $)

>  <Rbt.Library>
libRbt.so (2013.1, Build901 2013/11/27)

>  <Rbt.Parameter_File>
/export/apps/rDock/src/rDock_2013.1_src/data/scripts/dock_solv.prm

>  <Rbt.Receptor>
prm/pocket_docking_7.prm

>  <SCORE>
-9.68254

>  <SCORE.INTER>
-3.84993

>  <SCORE.INTER.CONST>
1

>  <SCORE.INTER.POLAR>
0

>  <SCORE.INTER.ROT>
6

>  <SCORE.INTER.SOLV>
12.9002

>  <SCORE.INTER.VDW>
-14.4667

>  <SCORE.INTER.norm>
-0.104052

>  <SCORE.INTRA>
-5.8326

>  <SCORE.INTRA.DIHEDRAL>
-10.2288

>  <SCORE.INTRA.DIHEDRAL.0>
11.3972

>  <SCORE.INTRA.POLAR>
0

>  <SCORE.INTRA.POLAR.0>
0

>  <SCORE.INTRA.REPUL>
0

>  <SCORE.INTRA.REPUL.0>
0

>  <SCORE.INTRA.SOLV>
-0.27637

>  <SCORE.INTRA.SOLV.lig_0>
-92.3891

>  <SCORE.INTRA.VDW>
-0.580026

>  <SCORE.INTRA.VDW.0>
-2.90606

>  <SCORE.INTRA.norm>
-0.157638

>  <SCORE.RESTR>
0

>  <SCORE.RESTR.CAVITY>
0

>  <SCORE.RESTR.norm>
0

>  <SCORE.SYSTEM>
0

>  <SCORE.SYSTEM.CONST>
0

>  <SCORE.SYSTEM.DIHEDRAL>
0

>  <SCORE.SYSTEM.SOLV>
0

>  <SCORE.SYSTEM.norm>
0

>  <SCORE.heavy>
37

>  <SCORE.norm>
-0.26169

>  <RMSD>
4.102

$$$$
ligand
 OpenBabel02271912133D
libRbt.so/2013.1/901 2013/11/27
 37 40  0  0  0  0  0  0  0  0999 V2000
   -2.6485   28.4949   65.7551 C   0  0  1  0  0  0  0  0  0  0  0  0
   -3.3104   29.5737   66.6588 C   0  0  1  0  0  0  0  0  0  0  0  0
   -4.3017   28.9558   67.6632 C   0  0  0  0  0  0  0  0  0  0  0  0
   -5.3808   28.1482   66.8767 C   0  0  1  0  0  0  0  0  0  0  0  0
   -4.7114   27.0321   66.0109 C   0  0  1  0  0  0  0  0  0  0  0  0
   -5.8313   26.2215   65.2151 C   0  0  1  0  0  0  0  0  0  0  0  0
   -6.8224   25.5924   66.2378 C   0  0  1  0  0  0  0  0  0  0  0  0
   -7.4317   26.7433   67.0939 C   0  0  2  0  0  0  0  0  0  0  0  0
   -7.5290   23.6362   64.6937 C   0  0  0  0  0  0  0  0  0  0  0  0
   -2.2806   30.3621   67.3681 N   0  0  0  0  0  0  0  0  0  0  0  0
   -7.9087   24.8266   65.5194 N   0  0  0  0  0  0  0  0  0  0  0  0
   -1.7509   27.6367   66.4858 O   0  0  0  0  0  0  0  0  0  0  0  0
   -3.7248   27.6986   65.1095 O   0  0  0  0  0  0  0  0  0  0  0  0
   -6.3885   27.5109   67.7866 O   0  0  0  0  0  0  0  0  0  0  0  0
   -6.5601   27.1081   64.3760 O   0  0  0  0  0  0  0  0  0  0  0  0
   -8.3320   26.2101   68.0583 O   0  0  0  0  0  0  0  0  0  0  0  0
   -8.8006   27.1810   69.0262 C   0  0  2  0  0  0  0  0  0  0  0  0
   -9.6546   26.5462   70.1492 C   0  0  1  0  0  0  0  0  0  0  0  0
  -10.9980   25.9874   69.5786 C   0  0  2  0  0  0  0  0  0  0  0  0
  -11.7767   27.1249   68.9496 C   0  0  1  0  0  0  0  0  0  0  0  0
  -10.9262   27.7440   67.8003 C   0  0  1  0  0  0  0  0  0  0  0  0
  -11.6350   28.9173   67.1265 C   0  0  0  0  0  0  0  0  0  0  0  0
  -13.0633   26.6066   68.4253 N   0  0  0  0  0  0  0  0  0  0  0  0
   -9.6225   28.2285   68.3496 O   0  0  0  0  0  0  0  0  0  0  0  0
   -8.8521   25.5197   70.7739 O   0  0  0  0  0  0  0  0  0  0  0  0
  -11.7760   25.4207   70.6353 O   0  0  0  0  0  0  0  0  0  0  0  0
  -11.8960   29.9149   68.0836 O   0  0  0  0  0  0  0  0  0  0  0  0
   -1.0277   26.4657   65.8568 C   0  0  1  0  0  0  0  0  0  0  0  0
   -0.1040   27.0088   64.7323 C   0  0  1  0  0  0  0  0  0  0  0  0
    0.6581   25.8335   64.0542 C   0  0  2  0  0  0  0  0  0  0  0  0
    1.5172   25.1049   65.1170 C   0  0  1  0  0  0  0  0  0  0  0  0
    0.6064   24.5369   66.2637 C   0  0  0  0  0  0  0  0  0  0  0  0
   -0.1504   25.7171   66.9094 C   0  0  2  0  0  0  0  0  0  0  0  0
    2.2540   23.9867   64.4805 N   0  0  0  0  0  0  0  0  0  0  0  0
   -0.9992   25.1784   67.9777 N   0  0  0  0  0  0  0  0  0  0  0  0
   -0.9036   27.6909   63.7409 O   0  0  0  0  0  0  0  0  0  0  0  0
    1.5038   26.3644   63.0098 O   0  0  0  0  0  0  0  0  0  0  0  0
  1  2  1  0  0  0  0
  1 12  1  1  0  0  0
  1 13  1  0  0  0  0
  2  3  1  0  0  0  0
  2 10  1  1  0  0  0
  4  3  1  1  0  0  0
  4  5  1  0  0  0  0
  4 14  1  0  0  0  0
  5  6  1  0  0  0  0
  5 13  1  6  0  0  0
  6  7  1  0  0  0  0
  6 15  1  6  0  0  0
  7  8  1  0  0  0  0
  7 11  1  6  0  0  0
  8 14  1  0  0  0  0
  8 16  1  1  0  0  0
  9 11  1  0  0  0  0
 17 16  1  6  0  0  0
 17 18  1  0  0  0  0
 17 24  1  0  0  0  0
 18 19  1  0  0  0  0
 18 25  1  6  0  0  0
 19 20  1  0  0  0  0
 19 26  1  1  0  0  0
 20 21  1  0  0  0  0
 20 23  1  6  0  0  0
 21 22  1  1  0  0  0
 21 24  1  0  0  0  0
 22 27  1  0  0  0  0
 28 12  1  1  0  0  0
 28 29  1  0  0  0  0
 28 33  1  0  0  0  0
 29 30  1  0  0  0  0
 29 36  1  6  0  0  0
 30 31  1  0  0  0  0
 30 37  1  6  0  0  0
 31 32  1  0  0  0  0
 31 34  1  6  0  0  0
 32 33  1  0  0  0  0
 33 35  1  1  0  0  0
M  END
>  <CHROM.1>
177.07621486,63.07506068,171.54199576,61.63903662,-173.84137848,59.30842725
-5.46653222,26.84210018,66.81055330,-0.04596952,0.32172752,-0.07148459

>  <Name>
ligand

>  <RI>
0

>  <Rbt.Current_Directory>
/home/itssahil/PROJECTS/Mol_Feturizer/Test_systems_manuscript/rnas/2g5k

>  <Rbt.Executable>
rbdock ($Id: //depot/dev/client3/rdock/2013.1/src/exe/rbdock.cxx#4 $)

>  <Rbt.Library>
libRbt.so (2013.1, Build901 2013/11/27)

>  <Rbt.Parameter_File>
/export/apps/rDock/src/rDock_2013.1_src/data/scripts/dock_solv.prm

>  <Rbt.Receptor>
prm/pocket_docking_8.prm

>  <SCORE>
-10.7006

>  <SCORE.INTER>
-5.88644

>  <SCORE.INTER.CONST>
1

>  <SCORE.INTER.POLAR>
0

>  <SCORE.INTER.ROT>
6

>  <SCORE.INTER.SOLV>
14.1603

>  <SCORE.INTER.VDW>
-16.2444

>  <SCORE.INTER.norm>
-0.159093

>  <SCORE.INTRA>
-4.81411

>  <SCORE.INTRA.DIHEDRAL>
-10.7641

>  <SCORE.INTRA.DIHEDRAL.0>
11.3972

>  <SCORE.INTRA.POLAR>
0

>  <SCORE.INTRA.POLAR.0>
0

>  <SCORE.INTRA.REPUL>
0

>  <SCORE.INTRA.REPUL.0>
0

>  <SCORE.INTRA.SOLV>
-1.32342

>  <SCORE.INTRA.SOLV.lig_0>
-92.3891

>  <SCORE.INTRA.VDW>
1.22964

>  <SCORE.INTRA.VDW.0>
-2.90606

>  <SCORE.INTRA.norm>
-0.130111

>  <SCORE.RESTR>
0

>  <SCORE.RESTR.CAVITY>
0

>  <SCORE.RESTR.norm>
0

>  <SCORE.SYSTEM>
0

>  <SCORE.SYSTEM.CONST>
0

>  <SCORE.SYSTEM.DIHEDRAL>
0

>  <SCORE.SYSTEM.SOLV>
0

>  <SCORE.SYSTEM.norm>
0

>  <SCORE.heavy>
37

>  <SCORE.norm>
-0.289204

>  <RMSD>
4.188

$$$$
ligand
 OpenBabel02271912133D
libRbt.so/2013.1/901 2013/11/27
 37 40  0  0  0  0  0  0  0  0999 V2000
   -0.4902   27.3551   68.7753 C   0  0  1  0  0  0  0  0  0  0  0  0
   -1.7261   27.3175   69.7186 C   0  0  1  0  0  0  0  0  0  0  0  0
   -2.8130   28.3197   69.2857 C   0  0  0  0  0  0  0  0  0  0  0  0
   -2.1912   29.7502   69.2375 C   0  0  1  0  0  0  0  0  0  0  0  0
   -0.9820   29.7924   68.2477 C   0  0  1  0  0  0  0  0  0  0  0  0
   -0.3614   31.2615   68.2158 C   0  0  1  0  0  0  0  0  0  0  0  0
   -1.4633   32.2659   67.7678 C   0  0  1  0  0  0  0  0  0  0  0  0
   -2.6545   32.1566   68.7668 C   0  0  2  0  0  0  0  0  0  0  0  0
   -0.2982   34.1839   66.4739 C   0  0  0  0  0  0  0  0  0  0  0  0
   -2.2839   25.9505   69.7919 N   0  0  0  0  0  0  0  0  0  0  0  0
   -0.9160   33.6739   67.7393 N   0  0  0  0  0  0  0  0  0  0  0  0
   -0.7828   26.8435   67.4604 O   0  0  0  0  0  0  0  0  0  0  0  0
   -0.0033   28.7571   68.6953 O   0  0  0  0  0  0  0  0  0  0  0  0
   -3.1892   30.7897   68.8214 O   0  0  0  0  0  0  0  0  0  0  0  0
    0.0719   31.6277   69.5194 O   0  0  0  0  0  0  0  0  0  0  0  0
   -3.6965   33.0465   68.3830 O   0  0  0  0  0  0  0  0  0  0  0  0
   -4.5155   32.5585   67.2921 C   0  0  2  0  0  0  0  0  0  0  0  0
   -5.1501   33.6983   66.4603 C   0  0  1  0  0  0  0  0  0  0  0  0
   -6.1904   34.4956   67.3113 C   0  0  2  0  0  0  0  0  0  0  0  0
   -7.2831   33.5495   67.7661 C   0  0  1  0  0  0  0  0  0  0  0  0
   -6.6452   32.4185   68.6273 C   0  0  1  0  0  0  0  0  0  0  0  0
   -7.6826   31.4057   69.1083 C   0  0  0  0  0  0  0  0  0  0  0  0
   -8.2865   34.3034   68.5559 N   0  0  0  0  0  0  0  0  0  0  0  0
   -5.6154   31.6962   67.8186 O   0  0  0  0  0  0  0  0  0  0  0  0
   -4.0731   34.5345   65.9817 O   0  0  0  0  0  0  0  0  0  0  0  0
   -6.7741   35.5319   66.5184 O   0  0  0  0  0  0  0  0  0  0  0  0
   -8.2565   30.7636   67.9958 O   0  0  0  0  0  0  0  0  0  0  0  0
    0.2837   26.5610   66.4246 C   0  0  1  0  0  0  0  0  0  0  0  0
    1.0579   25.2853   66.8559 C   0  0  1  0  0  0  0  0  0  0  0  0
    2.1702   24.9600   65.8172 C   0  0  2  0  0  0  0  0  0  0  0  0
    1.5182   24.7213   64.4329 C   0  0  1  0  0  0  0  0  0  0  0  0
    0.7346   26.0004   63.9672 C   0  0  0  0  0  0  0  0  0  0  0  0
   -0.3506   26.3124   65.0197 C   0  0  2  0  0  0  0  0  0  0  0  0
    2.5685   24.4032   63.4358 N   0  0  0  0  0  0  0  0  0  0  0  0
   -1.0766   27.5083   64.5784 N   0  0  0  0  0  0  0  0  0  0  0  0
    1.6650   25.5054   68.1483 O   0  0  0  0  0  0  0  0  0  0  0  0
    2.8780   23.7750   66.2446 O   0  0  0  0  0  0  0  0  0  0  0  0
  1  2  1  0  0  0  0
  1 12  1  6  0  0  0
  1 13  1  0  0  0  0
  2  3  1  0  0  0  0
  2 10  1  6  0  0  0
  4  3  1  6  0  0  0
  4  5  1  0  0  0  0
  4 14  1  0  0  0  0
  5  6  1  0  0  0  0
  5 13  1  1  0  0  0
  6  7  1  0  0  0  0
  6 15  1  1  0  0  0
  7  8  1  0  0  0  0
  7 11  1  1  0  0  0
  8 14  1  0  0  0  0
  8 16  1  6  0  0  0
  9 11  1  0  0  0  0
 17 16  1  1  0  0  0
 17 18  1  0  0  0  0
 17 24  1  0  0  0  0
 18 19  1  0  0  0  0
 18 25  1  1  0  0  0
 19 20  1  0  0  0  0
 19 26  1  6  0  0  0
 20 21  1  0  0  0  0
 20 23  1  1  0  0  0
 21 22  1  6  0  0  0
 21 24  1  0  0  0  0
 22 27  1  0  0  0  0
 28 12  1  1  0  0  0
 28 29  1  0  0  0  0
 28 33  1  0  0  0  0
 29 30  1  0  0  0  0
 29 36  1  1  0  0  0
 30 31  1  0  0  0  0
 30 37  1  1  0  0  0
 31 32  1  0  0  0  0
 31 34  1  6  0  0  0
 32 33  1  0  0  0  0
 33 35  1  6  0  0  0
M  END
>  <CHROM.1>
-169.86892911,90.12478804,78.82946899,72.76533338,-152.69943601,62.94652561
-2.25202688,29.84456105,67.45133538,0.79618028,-0.34608241,3.01704274

>  <Name>
ligand

>  <RI>
0

>  <Rbt.Current_Directory>
/home/itssahil/PROJECTS/Mol_Feturizer/Test_systems_manuscript/rnas/2g5k

>  <Rbt.Executable>
rbdock ($Id: //depot/dev/client3/rdock/2013.1/src/exe/rbdock.cxx#4 $)

>  <Rbt.Library>
libRbt.so (2013.1, Build901 2013/11/27)

>  <Rbt.Parameter_File>
/export/apps/rDock/src/rDock_2013.1_src/data/scripts/dock_solv.prm

>  <Rbt.Receptor>
prm/pocket_docking_7.prm

>  <SCORE>
-13.5652

>  <SCORE.INTER>
-11.3785

>  <SCORE.INTER.CONST>
1

>  <SCORE.INTER.POLAR>
0

>  <SCORE.INTER.ROT>
6

>  <SCORE.INTER.SOLV>
22.6464

>  <SCORE.INTER.VDW>
-22.7344

>  <SCORE.INTER.norm>
-0.307526

>  <SCORE.INTRA>
-2.18672

>  <SCORE.INTRA.DIHEDRAL>
-4.76309

>  <SCORE.INTRA.DIHEDRAL.0>
11.3972

>  <SCORE.INTRA.POLAR>
0

>  <SCORE.INTRA.POLAR.0>
0

>  <SCORE.INTRA.REPUL>
0

>  <SCORE.INTRA.REPUL.0>
0

>  <SCORE.INTRA.SOLV>
-0.281979

>  <SCORE.INTRA.SOLV.lig_0>
-92.3891

>  <SCORE.INTRA.VDW>
0.335821

>  <SCORE.INTRA.VDW.0>
-2.90606

>  <SCORE.INTRA.norm>
-0.0591004

>  <SCORE.RESTR>
0

>  <SCORE.RESTR.CAVITY>
0

>  <SCORE.RESTR.norm>
0

>  <SCORE.SYSTEM>
0

>  <SCORE.SYSTEM.CONST>
0

>  <SCORE.SYSTEM.DIHEDRAL>
0

>  <SCORE.SYSTEM.SOLV>
0

>  <SCORE.SYSTEM.norm>
0

>  <SCORE.heavy>
37

>  <SCORE.norm>
-0.366627

>  <RMSD>
4.191

$$$$
ligand
 OpenBabel02271912133D
libRbt.so/2013.1/901 2013/11/27
 37 40  0  0  0  0  0  0  0  0999 V2000
   -2.3824   28.3453   64.1965 C   0  0  1  0  0  0  0  0  0  0  0  0
   -2.9703   29.7757   64.3603 C   0  0  1  0  0  0  0  0  0  0  0  0
   -4.0997   29.8188   65.4072 C   0  0  0  0  0  0  0  0  0  0  0  0
   -5.2103   28.8031   64.9946 C   0  0  1  0  0  0  0  0  0  0  0  0
   -4.6223   27.3591   64.8827 C   0  0  1  0  0  0  0  0  0  0  0  0
   -5.7730   26.3389   64.4586 C   0  0  1  0  0  0  0  0  0  0  0  0
   -6.9049   26.3816   65.5266 C   0  0  1  0  0  0  0  0  0  0  0  0
   -7.4284   27.8465   65.6205 C   0  0  2  0  0  0  0  0  0  0  0  0
   -7.7348   23.9686   65.0805 C   0  0  0  0  0  0  0  0  0  0  0  0
   -1.9053   30.7395   64.7098 N   0  0  0  0  0  0  0  0  0  0  0  0
   -8.0225   25.4367   65.1513 N   0  0  0  0  0  0  0  0  0  0  0  0
   -1.6520   27.9112   65.3602 O   0  0  0  0  0  0  0  0  0  0  0  0
   -3.4990   27.4100   63.9001 O   0  0  0  0  0  0  0  0  0  0  0  0
   -6.3516   28.7831   65.9676 O   0  0  0  0  0  0  0  0  0  0  0  0
   -6.3250   26.7311   63.2085 O   0  0  0  0  0  0  0  0  0  0  0  0
   -8.4546   27.9361   66.6023 O   0  0  0  0  0  0  0  0  0  0  0  0
   -9.1814   29.1893   66.5816 C   0  0  2  0  0  0  0  0  0  0  0  0
   -8.8597   30.0908   67.7970 C   0  0  1  0  0  0  0  0  0  0  0  0
   -9.3746   29.4427   69.1226 C   0  0  2  0  0  0  0  0  0  0  0  0
  -10.8756   29.2573   69.0293 C   0  0  1  0  0  0  0  0  0  0  0  0
  -11.1950   28.3260   67.8217 C   0  0  1  0  0  0  0  0  0  0  0  0
  -12.6962   28.1061   67.6448 C   0  0  0  0  0  0  0  0  0  0  0  0
  -11.3752   28.6631   70.2927 N   0  0  0  0  0  0  0  0  0  0  0  0
  -10.6525   28.9321   66.5670 O   0  0  0  0  0  0  0  0  0  0  0  0
   -7.4309   30.3067   67.8081 O   0  0  0  0  0  0  0  0  0  0  0  0
   -9.0806   30.2996   70.2282 O   0  0  0  0  0  0  0  0  0  0  0  0
  -13.3168   29.3372   67.3639 O   0  0  0  0  0  0  0  0  0  0  0  0
   -0.9362   26.5803   65.4409 C   0  0  1  0  0  0  0  0  0  0  0  0
    0.1181   26.5228   64.3016 C   0  0  1  0  0  0  0  0  0  0  0  0
    0.8771   25.1649   64.3457 C   0  0  2  0  0  0  0  0  0  0  0  0
    1.5909   25.0261   65.7130 C   0  0  1  0  0  0  0  0  0  0  0  0
    0.5460   25.0722   66.8849 C   0  0  0  0  0  0  0  0  0  0  0  0
   -0.2045   26.4190   66.8108 C   0  0  2  0  0  0  0  0  0  0  0  0
    2.3238   23.7382   65.7638 N   0  0  0  0  0  0  0  0  0  0  0  0
   -1.1787   26.4537   67.9070 N   0  0  0  0  0  0  0  0  0  0  0  0
   -0.5458   26.6544   63.0252 O   0  0  0  0  0  0  0  0  0  0  0  0
    1.8456   25.1348   63.2738 O   0  0  0  0  0  0  0  0  0  0  0  0
  1  2  1  0  0  0  0
  1 12  1  1  0  0  0
  1 13  1  0  0  0  0
  2  3  1  0  0  0  0
  2 10  1  1  0  0  0
  4  3  1  1  0  0  0
  4  5  1  0  0  0  0
  4 14  1  0  0  0  0
  5  6  1  0  0  0  0
  5 13  1  6  0  0  0
  6  7  1  0  0  0  0
  6 15  1  6  0  0  0
  7  8  1  0  0  0  0
  7 11  1  6  0  0  0
  8 14  1  0  0  0  0
  8 16  1  1  0  0  0
  9 11  1  0  0  0  0
 17 16  1  1  0  0  0
 17 18  1  0  0  0  0
 17 24  1  0  0  0  0
 18 19  1  0  0  0  0
 18 25  1  1  0  0  0
 19 20  1  0  0  0  0
 19 26  1  1  0  0  0
 20 21  1  0  0  0  0
 20 23  1  1  0  0  0
 21 22  1  6  0  0  0
 21 24  1  0  0  0  0
 22 27  1  0  0  0  0
 28 12  1  1  0  0  0
 28 29  1  0  0  0  0
 28 33  1  0  0  0  0
 29 30  1  0  0  0  0
 29 36  1  6  0  0  0
 30 31  1  0  0  0  0
 30 37  1  6  0  0  0
 31 32  1  0  0  0  0
 31 34  1  6  0  0  0
 32 33  1  0  0  0  0
 33 35  1  1  0  0  0
M  END
>  <CHROM.1>
-177.61468758,63.34188215,-168.58383134,58.96552968,-108.76914816,62.57205454
-5.26030717,27.64137238,66.02064689,-0.35949956,0.05648325,0.66562323

>  <Name>
ligand

>  <RI>
0

>  <Rbt.Current_Directory>
/home/itssahil/PROJECTS/Mol_Feturizer/Test_systems_manuscript/rnas/2g5k

>  <Rbt.Executable>
rbdock ($Id: //depot/dev/client3/rdock/2013.1/src/exe/rbdock.cxx#4 $)

>  <Rbt.Library>
libRbt.so (2013.1, Build901 2013/11/27)

>  <Rbt.Parameter_File>
/export/apps/rDock/src/rDock_2013.1_src/data/scripts/dock_solv.prm

>  <Rbt.Receptor>
prm/pocket_docking_5.prm

>  <SCORE>
-8.7996

>  <SCORE.INTER>
-7.11152

>  <SCORE.INTER.CONST>
1

>  <SCORE.INTER.POLAR>
0

>  <SCORE.INTER.ROT>
6

>  <SCORE.INTER.SOLV>
16.5867

>  <SCORE.INTER.VDW>
-17.8699

>  <SCORE.INTER.norm>
-0.192203

>  <SCORE.INTRA>
-1.68807

>  <SCORE.INTRA.DIHEDRAL>
-4.08387

>  <SCORE.INTRA.DIHEDRAL.0>
11.3972

>  <SCORE.INTRA.POLAR>
0

>  <SCORE.INTRA.POLAR.0>
0

>  <SCORE.INTRA.REPUL>
0

>  <SCORE.INTRA.REPUL.0>
0

>  <SCORE.INTRA.SOLV>
-0.903962

>  <SCORE.INTRA.SOLV.lig_0>
-92.3891

>  <SCORE.INTRA.VDW>
0.80584

>  <SCORE.INTRA.VDW.0>
-2.90606

>  <SCORE.INTRA.norm>
-0.0456236

>  <SCORE.RESTR>
0

>  <SCORE.RESTR.CAVITY>
0

>  <SCORE.RESTR.norm>
0

>  <SCORE.SYSTEM>
0

>  <SCORE.SYSTEM.CONST>
0

>  <SCORE.SYSTEM.DIHEDRAL>
0

>  <SCORE.SYSTEM.SOLV>
0

>  <SCORE.SYSTEM.norm>
0

>  <SCORE.heavy>
37

>  <SCORE.norm>
-0.237827

>  <RMSD>
4.221

$$$$
ligand
 OpenBabel02271912133D
libRbt.so/2013.1/901 2013/11/27
 37 40  0  0  0  0  0  0  0  0999 V2000
   -2.6318   28.5166   64.2449 C   0  0  1  0  0  0  0  0  0  0  0  0
   -3.3110   29.8997   64.4552 C   0  0  1  0  0  0  0  0  0  0  0  0
   -4.4801   29.8221   65.4555 C   0  0  0  0  0  0  0  0  0  0  0  0
   -5.5106   28.7659   64.9476 C   0  0  1  0  0  0  0  0  0  0  0  0
   -4.8323   27.3666   64.7885 C   0  0  1  0  0  0  0  0  0  0  0  0
   -5.9021   26.3042   64.2672 C   0  0  1  0  0  0  0  0  0  0  0  0
   -7.0745   26.2249   65.2886 C   0  0  1  0  0  0  0  0  0  0  0  0
   -7.6889   27.6498   65.4334 C   0  0  2  0  0  0  0  0  0  0  0  0
   -7.7523   23.7872   64.7333 C   0  0  0  0  0  0  0  0  0  0  0  0
   -2.3205   30.9047   64.8957 N   0  0  0  0  0  0  0  0  0  0  0  0
   -8.1176   25.2370   64.8211 N   0  0  0  0  0  0  0  0  0  0  0  0
   -1.9213   28.0661   65.4147 O   0  0  0  0  0  0  0  0  0  0  0  0
   -3.6775   27.5343   63.8567 O   0  0  0  0  0  0  0  0  0  0  0  0
   -6.6848   28.6285   65.8706 O   0  0  0  0  0  0  0  0  0  0  0  0
   -6.4288   26.7278   63.0165 O   0  0  0  0  0  0  0  0  0  0  0  0
   -8.7554   27.6279   66.3753 O   0  0  0  0  0  0  0  0  0  0  0  0
   -9.4098   28.9082   66.5534 C   0  0  2  0  0  0  0  0  0  0  0  0
  -10.5743   28.8516   67.5704 C   0  0  1  0  0  0  0  0  0  0  0  0
  -11.7429   27.9659   67.0299 C   0  0  2  0  0  0  0  0  0  0  0  0
  -12.2504   28.5593   65.7313 C   0  0  1  0  0  0  0  0  0  0  0  0
  -11.0830   28.5888   64.6997 C   0  0  1  0  0  0  0  0  0  0  0  0
  -11.5089   29.1966   63.3646 C   0  0  0  0  0  0  0  0  0  0  0  0
  -13.3747   27.7367   65.2231 N   0  0  0  0  0  0  0  0  0  0  0  0
   -9.9512   29.3964   65.2500 O   0  0  0  0  0  0  0  0  0  0  0  0
  -10.0362   28.3536   68.8156 O   0  0  0  0  0  0  0  0  0  0  0  0
  -12.8123   27.9413   67.9781 O   0  0  0  0  0  0  0  0  0  0  0  0
  -11.8848   30.5378   63.5629 O   0  0  0  0  0  0  0  0  0  0  0  0
   -1.2789   26.6999   65.5196 C   0  0  1  0  0  0  0  0  0  0  0  0
   -0.2042   26.5785   64.4046 C   0  0  1  0  0  0  0  0  0  0  0  0
    0.4807   25.1828   64.4739 C   0  0  2  0  0  0  0  0  0  0  0  0
    1.1556   25.0164   65.8578 C   0  0  1  0  0  0  0  0  0  0  0  0
    0.0890   25.1261   67.0056 C   0  0  0  0  0  0  0  0  0  0  0  0
   -0.5873   26.5101   66.9064 C   0  0  2  0  0  0  0  0  0  0  0  0
    1.8180   23.6920   65.9328 N   0  0  0  0  0  0  0  0  0  0  0  0
   -1.5823   26.6041   67.9802 N   0  0  0  0  0  0  0  0  0  0  0  0
   -0.8318   26.7358   63.1128 O   0  0  0  0  0  0  0  0  0  0  0  0
    1.4696   25.0938   63.4242 O   0  0  0  0  0  0  0  0  0  0  0  0
  1  2  1  0  0  0  0
  1 12  1  1  0  0  0
  1 13  1  0  0  0  0
  2  3  1  0  0  0  0
  2 10  1  1  0  0  0
  4  3  1  1  0  0  0
  4  5  1  0  0  0  0
  4 14  1  0  0  0  0
  5  6  1  0  0  0  0
  5 13  1  6  0  0  0
  6  7  1  0  0  0  0
  6 15  1  6  0  0  0
  7  8  1  0  0  0  0
  7 11  1  6  0  0  0
  8 14  1  0  0  0  0
  8 16  1  1  0  0  0
  9 11  1  0  0  0  0
 17 16  1  6  0  0  0
 17 18  1  0  0  0  0
 17 24  1  0  0  0  0
 18 19  1  0  0  0  0
 18 25  1  1  0  0  0
 19 20  1  0  0  0  0
 19 26  1  1  0  0  0
 20 21  1  0  0  0  0
 20 23  1  6  0  0  0
 21 22  1  6  0  0  0
 21 24  1  0  0  0  0
 22 27  1  0  0  0  0
 28 12  1  1  0  0  0
 28 29  1  0  0  0  0
 28 33  1  0  0  0  0
 29 30  1  0  0  0  0
 29 36  1  6  0  0  0
 30 31  1  0  0  0  0
 30 37  1  6  0  0  0
 31 32  1  0  0  0  0
 31 34  1  6  0  0  0
 32 33  1  0  0  0  0
 33 35  1  1  0  0  0
M  END
>  <CHROM.1>
174.29542498,65.36829303,-178.66766092,60.63173511,179.36117013,62.74932333
-5.75358890,27.47736459,65.34654597,-0.15319592,0.15162882,-0.47942831

>  <Name>
ligand

>  <RI>
0

>  <Rbt.Current_Directory>
/home/itssahil/PROJECTS/Mol_Feturizer/Test_systems_manuscript/rnas/2g5k

>  <Rbt.Executable>
rbdock ($Id: //depot/dev/client3/rdock/2013.1/src/exe/rbdock.cxx#4 $)

>  <Rbt.Library>
libRbt.so (2013.1, Build901 2013/11/27)

>  <Rbt.Parameter_File>
/export/apps/rDock/src/rDock_2013.1_src/data/scripts/dock_solv.prm

>  <Rbt.Receptor>
prm/pocket_docking_4.prm

>  <SCORE>
-9.60158

>  <SCORE.INTER>
-4.38359

>  <SCORE.INTER.CONST>
1

>  <SCORE.INTER.POLAR>
0

>  <SCORE.INTER.ROT>
6

>  <SCORE.INTER.SOLV>
13.2819

>  <SCORE.INTER.VDW>
-14.9497

>  <SCORE.INTER.norm>
-0.118476

>  <SCORE.INTRA>
-5.21798

>  <SCORE.INTRA.DIHEDRAL>
-11.1354

>  <SCORE.INTRA.DIHEDRAL.0>
11.3972

>  <SCORE.INTRA.POLAR>
0

>  <SCORE.INTRA.POLAR.0>
0

>  <SCORE.INTRA.REPUL>
0

>  <SCORE.INTRA.REPUL.0>
0

>  <SCORE.INTRA.SOLV>
-1.2911

>  <SCORE.INTRA.SOLV.lig_0>
-92.3891

>  <SCORE.INTRA.VDW>
0.99529

>  <SCORE.INTRA.VDW.0>
-2.90606

>  <SCORE.INTRA.norm>
-0.141027

>  <SCORE.RESTR>
0

>  <SCORE.RESTR.CAVITY>
0

>  <SCORE.RESTR.norm>
0

>  <SCORE.SYSTEM>
0

>  <SCORE.SYSTEM.CONST>
0

>  <SCORE.SYSTEM.DIHEDRAL>
0

>  <SCORE.SYSTEM.SOLV>
0

>  <SCORE.SYSTEM.norm>
0

>  <SCORE.heavy>
37

>  <SCORE.norm>
-0.259502

>  <RMSD>
4.266

$$$$
ligand
 OpenBabel02271912133D
libRbt.so/2013.1/901 2013/11/27
 37 40  0  0  0  0  0  0  0  0999 V2000
   -0.4720   27.0539   68.5666 C   0  0  1  0  0  0  0  0  0  0  0  0
   -1.7635   27.0170   69.4322 C   0  0  1  0  0  0  0  0  0  0  0  0
   -2.7531   28.1305   69.0396 C   0  0  0  0  0  0  0  0  0  0  0  0
   -2.0364   29.5110   69.1655 C   0  0  1  0  0  0  0  0  0  0  0  0
   -0.7683   29.5588   68.2527 C   0  0  1  0  0  0  0  0  0  0  0  0
   -0.0512   30.9763   68.3984 C   0  0  1  0  0  0  0  0  0  0  0  0
   -1.0547   32.0944   67.9903 C   0  0  1  0  0  0  0  0  0  0  0  0
   -2.3099   31.9779   68.9066 C   0  0  2  0  0  0  0  0  0  0  0  0
   -0.4575   34.3972   66.9651 C   0  0  0  0  0  0  0  0  0  0  0  0
   -2.4138   25.6926   69.3410 N   0  0  0  0  0  0  0  0  0  0  0  0
   -0.4149   33.4561   68.1294 N   0  0  0  0  0  0  0  0  0  0  0  0
   -0.7158   26.6896   67.1940 O   0  0  0  0  0  0  0  0  0  0  0  0
    0.1105   28.4188   68.6506 O   0  0  0  0  0  0  0  0  0  0  0  0
   -2.9360   30.6536   68.7982 O   0  0  0  0  0  0  0  0  0  0  0  0
    0.3239   31.1871   69.7535 O   0  0  0  0  0  0  0  0  0  0  0  0
   -3.2652   32.9721   68.5545 O   0  0  0  0  0  0  0  0  0  0  0  0
   -3.6838   32.9216   67.1684 C   0  0  2  0  0  0  0  0  0  0  0  0
   -4.6742   34.0509   66.7981 C   0  0  1  0  0  0  0  0  0  0  0  0
   -6.0319   33.8695   67.5505 C   0  0  2  0  0  0  0  0  0  0  0  0
   -6.6363   32.5358   67.1609 C   0  0  1  0  0  0  0  0  0  0  0  0
   -5.6494   31.3983   67.5607 C   0  0  1  0  0  0  0  0  0  0  0  0
   -6.1776   30.0166   67.1796 C   0  0  0  0  0  0  0  0  0  0  0  0
   -7.9363   32.3659   67.8538 N   0  0  0  0  0  0  0  0  0  0  0  0
   -4.3380   31.6115   66.8746 O   0  0  0  0  0  0  0  0  0  0  0  0
   -4.0336   35.3073   67.1129 O   0  0  0  0  0  0  0  0  0  0  0  0
   -6.9351   34.9140   67.1812 O   0  0  0  0  0  0  0  0  0  0  0  0
   -7.3539   29.7520   67.9046 O   0  0  0  0  0  0  0  0  0  0  0  0
    0.3915   26.4177   66.1991 C   0  0  1  0  0  0  0  0  0  0  0  0
    1.1821   25.1691   66.6773 C   0  0  1  0  0  0  0  0  0  0  0  0
    2.3364   24.8555   65.6818 C   0  0  2  0  0  0  0  0  0  0  0  0
    1.7376   24.5784   64.2807 C   0  0  1  0  0  0  0  0  0  0  0  0
    0.9387   25.8297   63.7679 C   0  0  0  0  0  0  0  0  0  0  0  0
   -0.1887   26.1309   64.7783 C   0  0  2  0  0  0  0  0  0  0  0  0
    2.8285   24.2711   63.3247 N   0  0  0  0  0  0  0  0  0  0  0  0
   -0.9288   27.3009   64.2931 N   0  0  0  0  0  0  0  0  0  0  0  0
    1.7397   25.4250   67.9854 O   0  0  0  0  0  0  0  0  0  0  0  0
    3.0585   23.6957   66.1523 O   0  0  0  0  0  0  0  0  0  0  0  0
  1  2  1  0  0  0  0
  1 12  1  6  0  0  0
  1 13  1  0  0  0  0
  2  3  1  0  0  0  0
  2 10  1  6  0  0  0
  4  3  1  6  0  0  0
  4  5  1  0  0  0  0
  4 14  1  0  0  0  0
  5  6  1  0  0  0  0
  5 13  1  1  0  0  0
  6  7  1  0  0  0  0
  6 15  1  1  0  0  0
  7  8  1  0  0  0  0
  7 11  1  1  0  0  0
  8 14  1  0  0  0  0
  8 16  1  6  0  0  0
  9 11  1  0  0  0  0
 17 16  1  1  0  0  0
 17 18  1  0  0  0  0
 17 24  1  0  0  0  0
 18 19  1  0  0  0  0
 18 25  1  1  0  0  0
 19 20  1  0  0  0  0
 19 26  1  6  0  0  0
 20 21  1  0  0  0  0
 20 23  1  1  0  0  0
 21 22  1  6  0  0  0
 21 24  1  0  0  0  0
 22 27  1  0  0  0  0
 28 12  1  1  0  0  0
 28 29  1  0  0  0  0
 28 33  1  0  0  0  0
 29 30  1  0  0  0  0
 29 36  1  1  0  0  0
 30 31  1  0  0  0  0
 30 37  1  1  0  0  0
 31 32  1  0  0  0  0
 31 34  1  6  0  0  0
 32 33  1  0  0  0  0
 33 35  1  6  0  0  0
M  END
>  <CHROM.1>
-169.31904529,127.94004561,57.07670381,63.97412206,-177.47331734,-63.87781197
-1.94286781,29.55412041,67.33465913,0.89354065,0.00769655,-2.92608756

>  <Name>
ligand

>  <RI>
0

>  <Rbt.Current_Directory>
/home/itssahil/PROJECTS/Mol_Feturizer/Test_systems_manuscript/rnas/2g5k

>  <Rbt.Executable>
rbdock ($Id: //depot/dev/client3/rdock/2013.1/src/exe/rbdock.cxx#4 $)

>  <Rbt.Library>
libRbt.so (2013.1, Build901 2013/11/27)

>  <Rbt.Parameter_File>
/export/apps/rDock/src/rDock_2013.1_src/data/scripts/dock_solv.prm

>  <Rbt.Receptor>
prm/pocket_docking_7.prm

>  <SCORE>
-13.3586

>  <SCORE.INTER>
-9.23746

>  <SCORE.INTER.CONST>
1

>  <SCORE.INTER.POLAR>
0

>  <SCORE.INTER.ROT>
6

>  <SCORE.INTER.SOLV>
18.0575

>  <SCORE.INTER.VDW>
-19.7775

>  <SCORE.INTER.norm>
-0.249661

>  <SCORE.INTRA>
-4.12116

>  <SCORE.INTRA.DIHEDRAL>
-9.45912

>  <SCORE.INTRA.DIHEDRAL.0>
11.3972

>  <SCORE.INTRA.POLAR>
0

>  <SCORE.INTRA.POLAR.0>
0

>  <SCORE.INTRA.REPUL>
0

>  <SCORE.INTRA.REPUL.0>
0

>  <SCORE.INTRA.SOLV>
0.090544

>  <SCORE.INTRA.SOLV.lig_0>
-92.3891

>  <SCORE.INTRA.VDW>
0.563132

>  <SCORE.INTRA.VDW.0>
-2.90606

>  <SCORE.INTRA.norm>
-0.111383

>  <SCORE.RESTR>
0

>  <SCORE.RESTR.CAVITY>
0

>  <SCORE.RESTR.norm>
0

>  <SCORE.SYSTEM>
0

>  <SCORE.SYSTEM.CONST>
0

>  <SCORE.SYSTEM.DIHEDRAL>
0

>  <SCORE.SYSTEM.SOLV>
0

>  <SCORE.SYSTEM.norm>
0

>  <SCORE.heavy>
37

>  <SCORE.norm>
-0.361044

>  <RMSD>
4.314

$$$$
ligand
 OpenBabel02271912133D
libRbt.so/2013.1/901 2013/11/27
 37 40  0  0  0  0  0  0  0  0999 V2000
    0.6910   27.9408   63.1926 C   0  0  1  0  0  0  0  0  0  0  0  0
    0.7041   29.4950   63.2465 C   0  0  1  0  0  0  0  0  0  0  0  0
   -0.2616   30.0433   64.3143 C   0  0  0  0  0  0  0  0  0  0  0  0
   -1.6974   29.5073   64.0203 C   0  0  1  0  0  0  0  0  0  0  0  0
   -1.7126   27.9442   64.0193 C   0  0  1  0  0  0  0  0  0  0  0  0
   -3.1877   27.4187   63.7152 C   0  0  1  0  0  0  0  0  0  0  0  0
   -4.1547   27.9691   64.8041 C   0  0  1  0  0  0  0  0  0  0  0  0
   -4.0731   29.5253   64.7837 C   0  0  2  0  0  0  0  0  0  0  0  0
   -6.5496   27.4986   65.6721 C   0  0  0  0  0  0  0  0  0  0  0  0
    2.0744   29.9964   63.4834 N   0  0  0  0  0  0  0  0  0  0  0  0
   -5.5678   27.5035   64.5412 N   0  0  0  0  0  0  0  0  0  0  0  0
    1.2656   27.3420   64.3706 O   0  0  0  0  0  0  0  0  0  0  0  0
   -0.7129   27.4893   63.0075 O   0  0  0  0  0  0  0  0  0  0  0  0
   -2.7024   29.9969   65.0203 O   0  0  0  0  0  0  0  0  0  0  0  0
   -3.6186   27.9041   62.4503 O   0  0  0  0  0  0  0  0  0  0  0  0
   -4.9295   30.0720   65.7800 O   0  0  0  0  0  0  0  0  0  0  0  0
   -5.1867   31.4891   65.6221 C   0  0  2  0  0  0  0  0  0  0  0  0
   -5.6029   32.1754   66.9447 C   0  0  1  0  0  0  0  0  0  0  0  0
   -6.9915   31.6493   67.4319 C   0  0  2  0  0  0  0  0  0  0  0  0
   -8.0314   31.9497   66.3716 C   0  0  1  0  0  0  0  0  0  0  0  0
   -7.6247   31.2339   65.0487 C   0  0  1  0  0  0  0  0  0  0  0  0
   -8.6151   31.5063   63.9180 C   0  0  0  0  0  0  0  0  0  0  0  0
   -9.3566   31.4732   66.8362 N   0  0  0  0  0  0  0  0  0  0  0  0
   -6.2726   31.7077   64.6204 O   0  0  0  0  0  0  0  0  0  0  0  0
   -4.5528   31.9312   67.9068 O   0  0  0  0  0  0  0  0  0  0  0  0
   -7.3619   32.3081   68.6451 O   0  0  0  0  0  0  0  0  0  0  0  0
   -9.8467   30.8977   64.2217 O   0  0  0  0  0  0  0  0  0  0  0  0
    1.6039   25.8705   64.4717 C   0  0  1  0  0  0  0  0  0  0  0  0
    2.8109   25.5815   63.5376 C   0  0  1  0  0  0  0  0  0  0  0  0
    3.1906   24.0740   63.6082 C   0  0  2  0  0  0  0  0  0  0  0  0
    3.5715   23.7138   65.0654 C   0  0  1  0  0  0  0  0  0  0  0  0
    2.3644   23.9884   66.0322 C   0  0  0  0  0  0  0  0  0  0  0  0
    1.9959   25.4840   65.9327 C   0  0  2  0  0  0  0  0  0  0  0  0
    3.9424   22.2804   65.1436 N   0  0  0  0  0  0  0  0  0  0  0  0
    0.8677   25.7318   66.8370 N   0  0  0  0  0  0  0  0  0  0  0  0
    2.4581   25.9190   62.1778 O   0  0  0  0  0  0  0  0  0  0  0  0
    4.3098   23.8312   62.7271 O   0  0  0  0  0  0  0  0  0  0  0  0
  1  2  1  0  0  0  0
  1 12  1  1  0  0  0
  1 13  1  0  0  0  0
  2  3  1  0  0  0  0
  2 10  1  1  0  0  0
  4  3  1  1  0  0  0
  4  5  1  0  0  0  0
  4 14  1  0  0  0  0
  5  6  1  0  0  0  0
  5 13  1  6  0  0  0
  6  7  1  0  0  0  0
  6 15  1  6  0  0  0
  7  8  1  0  0  0  0
  7 11  1  6  0  0  0
  8 14  1  0  0  0  0
  8 16  1  1  0  0  0
  9 11  1  0  0  0  0
 17 16  1  1  0  0  0
 17 18  1  0  0  0  0
 17 24  1  0  0  0  0
 18 19  1  0  0  0  0
 18 25  1  1  0  0  0
 19 20  1  0  0  0  0
 19 26  1  1  0  0  0
 20 21  1  0  0  0  0
 20 23  1  1  0  0  0
 21 22  1  6  0  0  0
 21 24  1  0  0  0  0
 22 27  1  0  0  0  0
 28 12  1  1  0  0  0
 28 29  1  0  0  0  0
 28 33  1  0  0  0  0
 29 30  1  0  0  0  0
 29 36  1  6  0  0  0
 30 31  1  0  0  0  0
 30 37  1  6  0  0  0
 31 32  1  0  0  0  0
 31 34  1  6  0  0  0
 32 33  1  0  0  0  0
 33 35  1  1  0  0  0
M  END
>  <CHROM.1>
-168.63553884,158.86788770,-165.09630150,69.60864471,-156.65486653,-67.26325513
-2.38816867,28.46830645,64.84550274,-0.54532138,0.16613151,0.02306486

>  <Name>
ligand

>  <RI>
0

>  <Rbt.Current_Directory>
/home/itssahil/PROJECTS/Mol_Feturizer/Test_systems_manuscript/rnas/2g5k

>  <Rbt.Executable>
rbdock ($Id: //depot/dev/client3/rdock/2013.1/src/exe/rbdock.cxx#4 $)

>  <Rbt.Library>
libRbt.so (2013.1, Build901 2013/11/27)

>  <Rbt.Parameter_File>
/export/apps/rDock/src/rDock_2013.1_src/data/scripts/dock_solv.prm

>  <Rbt.Receptor>
prm/pocket_docking_4.prm

>  <SCORE>
-11.5052

>  <SCORE.INTER>
-8.07174

>  <SCORE.INTER.CONST>
1

>  <SCORE.INTER.POLAR>
0

>  <SCORE.INTER.ROT>
6

>  <SCORE.INTER.SOLV>
14.5894

>  <SCORE.INTER.VDW>
-17.8443

>  <SCORE.INTER.norm>
-0.218155

>  <SCORE.INTRA>
-3.43349

>  <SCORE.INTRA.DIHEDRAL>
-6.3753

>  <SCORE.INTRA.DIHEDRAL.0>
11.3972

>  <SCORE.INTRA.POLAR>
0

>  <SCORE.INTRA.POLAR.0>
0

>  <SCORE.INTRA.REPUL>
0

>  <SCORE.INTRA.REPUL.0>
0

>  <SCORE.INTRA.SOLV>
-0.618158

>  <SCORE.INTRA.SOLV.lig_0>
-92.3891

>  <SCORE.INTRA.VDW>
0.0632403

>  <SCORE.INTRA.VDW.0>
-2.90606

>  <SCORE.INTRA.norm>
-0.0927971

>  <SCORE.RESTR>
0

>  <SCORE.RESTR.CAVITY>
0

>  <SCORE.RESTR.norm>
0

>  <SCORE.SYSTEM>
0

>  <SCORE.SYSTEM.CONST>
0

>  <SCORE.SYSTEM.DIHEDRAL>
0

>  <SCORE.SYSTEM.SOLV>
0

>  <SCORE.SYSTEM.norm>
0

>  <SCORE.heavy>
37

>  <SCORE.norm>
-0.310952

>  <RMSD>
4.321

$$$$
ligand
 OpenBabel02271912133D
libRbt.so/2013.1/901 2013/11/27
 37 40  0  0  0  0  0  0  0  0999 V2000
   -1.1773   28.3778   68.0231 C   0  0  1  0  0  0  0  0  0  0  0  0
   -1.8190   28.0407   69.3990 C   0  0  1  0  0  0  0  0  0  0  0  0
   -2.5777   26.7003   69.3688 C   0  0  0  0  0  0  0  0  0  0  0  0
   -3.6610   26.7578   68.2471 C   0  0  1  0  0  0  0  0  0  0  0  0
   -3.0022   27.0454   66.8590 C   0  0  1  0  0  0  0  0  0  0  0  0
   -4.1267   27.1019   65.7289 C   0  0  1  0  0  0  0  0  0  0  0  0
   -4.8814   25.7405   65.6987 C   0  0  1  0  0  0  0  0  0  0  0  0
   -5.4864   25.4896   67.1128 C   0  0  2  0  0  0  0  0  0  0  0  0
   -7.2293   26.5160   64.9267 C   0  0  0  0  0  0  0  0  0  0  0  0
   -0.7931   28.0295   70.4633 N   0  0  0  0  0  0  0  0  0  0  0  0
   -5.9667   25.7604   64.6477 N   0  0  0  0  0  0  0  0  0  0  0  0
   -0.0918   27.4915   67.6874 O   0  0  0  0  0  0  0  0  0  0  0  0
   -2.2387   28.3227   66.9841 O   0  0  0  0  0  0  0  0  0  0  0  0
   -4.4475   25.4843   68.1510 O   0  0  0  0  0  0  0  0  0  0  0  0
   -5.0651   28.1247   66.0365 O   0  0  0  0  0  0  0  0  0  0  0  0
   -6.1712   24.2424   67.1363 O   0  0  0  0  0  0  0  0  0  0  0  0
   -6.6938   23.8823   68.4388 C   0  0  2  0  0  0  0  0  0  0  0  0
   -7.6157   22.6407   68.3942 C   0  0  1  0  0  0  0  0  0  0  0  0
   -8.9242   22.9472   67.5966 C   0  0  2  0  0  0  0  0  0  0  0  0
   -9.6602   24.0840   68.2763 C   0  0  1  0  0  0  0  0  0  0  0  0
   -8.7403   25.3415   68.2944 C   0  0  1  0  0  0  0  0  0  0  0  0
   -9.4036   26.5309   68.9860 C   0  0  0  0  0  0  0  0  0  0  0  0
  -10.9147   24.3662   67.5378 N   0  0  0  0  0  0  0  0  0  0  0  0
   -7.4703   25.0202   69.0155 O   0  0  0  0  0  0  0  0  0  0  0  0
   -6.8554   21.5593   67.8106 O   0  0  0  0  0  0  0  0  0  0  0  0
   -9.7660   21.7921   67.5822 O   0  0  0  0  0  0  0  0  0  0  0  0
   -9.6024   26.2271   70.3453 O   0  0  0  0  0  0  0  0  0  0  0  0
    0.8398   27.7273   66.5184 C   0  0  1  0  0  0  0  0  0  0  0  0
    1.7573   28.9331   66.8606 C   0  0  1  0  0  0  0  0  0  0  0  0
    2.7317   29.2134   65.6799 C   0  0  2  0  0  0  0  0  0  0  0  0
    3.6044   27.9582   65.4326 C   0  0  1  0  0  0  0  0  0  0  0  0
    2.7014   26.7235   65.0753 C   0  0  0  0  0  0  0  0  0  0  0  0
    1.7340   26.4755   66.2522 C   0  0  2  0  0  0  0  0  0  0  0  0
    4.5423   28.2162   64.3136 N   0  0  0  0  0  0  0  0  0  0  0  0
    0.8939   25.3225   65.9104 N   0  0  0  0  0  0  0  0  0  0  0  0
    0.9447   30.1046   67.0939 O   0  0  0  0  0  0  0  0  0  0  0  0
    3.5681   30.3413   66.0207 O   0  0  0  0  0  0  0  0  0  0  0  0
  1  2  1  0  0  0  0
  1 12  1  6  0  0  0
  1 13  1  0  0  0  0
  2  3  1  0  0  0  0
  2 10  1  1  0  0  0
  4  3  1  1  0  0  0
  4  5  1  0  0  0  0
  4 14  1  0  0  0  0
  5  6  1  0  0  0  0
  5 13  1  1  0  0  0
  6  7  1  0  0  0  0
  6 15  1  1  0  0  0
  7  8  1  0  0  0  0
  7 11  1  6  0  0  0
  8 14  1  0  0  0  0
  8 16  1  6  0  0  0
  9 11  1  0  0  0  0
 17 16  1  6  0  0  0
 17 18  1  0  0  0  0
 17 24  1  0  0  0  0
 18 19  1  0  0  0  0
 18 25  1  6  0  0  0
 19 20  1  0  0  0  0
 19 26  1  1  0  0  0
 20 21  1  0  0  0  0
 20 23  1  6  0  0  0
 21 22  1  1  0  0  0
 21 24  1  0  0  0  0
 22 27  1  0  0  0  0
 28 12  1  1  0  0  0
 28 29  1  0  0  0  0
 28 33  1  0  0  0  0
 29 30  1  0  0  0  0
 29 36  1  6  0  0  0
 30 31  1  0  0  0  0
 30 37  1  1  0  0  0
 31 32  1  0  0  0  0
 31 34  1  6  0  0  0
 32 33  1  0  0  0  0
 33 35  1  6  0  0  0
M  END
>  <CHROM.1>
-170.10314566,-75.51557741,176.17212001,71.19244715,171.09860939,64.86693340
-3.59031923,26.33791337,67.25276889,0.18382572,0.35654166,0.68718176

>  <Name>
ligand

>  <RI>
0

>  <Rbt.Current_Directory>
/home/itssahil/PROJECTS/Mol_Feturizer/Test_systems_manuscript/rnas/2g5k

>  <Rbt.Executable>
rbdock ($Id: //depot/dev/client3/rdock/2013.1/src/exe/rbdock.cxx#4 $)

>  <Rbt.Library>
libRbt.so (2013.1, Build901 2013/11/27)

>  <Rbt.Parameter_File>
/export/apps/rDock/src/rDock_2013.1_src/data/scripts/dock_solv.prm

>  <Rbt.Receptor>
prm/pocket_docking_8.prm

>  <SCORE>
-7.68533

>  <SCORE.INTER>
-4.3705

>  <SCORE.INTER.CONST>
1

>  <SCORE.INTER.POLAR>
0

>  <SCORE.INTER.ROT>
6

>  <SCORE.INTER.SOLV>
16.6381

>  <SCORE.INTER.VDW>
-16.0597

>  <SCORE.INTER.norm>
-0.118122

>  <SCORE.INTRA>
-3.31484

>  <SCORE.INTRA.DIHEDRAL>
-9.55744

>  <SCORE.INTRA.DIHEDRAL.0>
11.3972

>  <SCORE.INTRA.POLAR>
0

>  <SCORE.INTRA.POLAR.0>
0

>  <SCORE.INTRA.REPUL>
0

>  <SCORE.INTRA.REPUL.0>
0

>  <SCORE.INTRA.SOLV>
-0.908159

>  <SCORE.INTRA.SOLV.lig_0>
-92.3891

>  <SCORE.INTRA.VDW>
1.91796

>  <SCORE.INTRA.VDW.0>
-2.90606

>  <SCORE.INTRA.norm>
-0.0895902

>  <SCORE.RESTR>
0

>  <SCORE.RESTR.CAVITY>
0

>  <SCORE.RESTR.norm>
0

>  <SCORE.SYSTEM>
0

>  <SCORE.SYSTEM.CONST>
0

>  <SCORE.SYSTEM.DIHEDRAL>
0

>  <SCORE.SYSTEM.SOLV>
0

>  <SCORE.SYSTEM.norm>
0

>  <SCORE.heavy>
37

>  <SCORE.norm>
-0.207712

>  <RMSD>
4.329

$$$$
ligand
 OpenBabel02271912133D
libRbt.so/2013.1/901 2013/11/27
 37 40  0  0  0  0  0  0  0  0999 V2000
    0.3909   29.0033   67.3317 C   0  0  1  0  0  0  0  0  0  0  0  0
    0.0786   27.4830   67.2344 C   0  0  1  0  0  0  0  0  0  0  0  0
   -1.2916   27.2160   66.5827 C   0  0  0  0  0  0  0  0  0  0  0  0
   -2.3933   27.9607   67.3992 C   0  0  1  0  0  0  0  0  0  0  0  0
   -2.1001   29.4954   67.4483 C   0  0  1  0  0  0  0  0  0  0  0  0
   -3.2363   30.2356   68.2884 C   0  0  1  0  0  0  0  0  0  0  0  0
   -4.6156   29.9689   67.6174 C   0  0  1  0  0  0  0  0  0  0  0  0
   -4.8392   28.4275   67.5640 C   0  0  2  0  0  0  0  0  0  0  0  0
   -6.1110   32.0433   68.0308 C   0  0  0  0  0  0  0  0  0  0  0  0
    1.1477   26.7779   66.4960 N   0  0  0  0  0  0  0  0  0  0  0  0
   -5.7215   30.6438   68.3948 N   0  0  0  0  0  0  0  0  0  0  0  0
    0.6138   29.6055   66.0417 O   0  0  0  0  0  0  0  0  0  0  0  0
   -0.7372   29.6703   68.0330 O   0  0  0  0  0  0  0  0  0  0  0  0
   -3.7637   27.7516   66.8266 O   0  0  0  0  0  0  0  0  0  0  0  0
   -3.2747   29.7114   69.6094 O   0  0  0  0  0  0  0  0  0  0  0  0
   -6.0837   28.1363   66.9385 O   0  0  0  0  0  0  0  0  0  0  0  0
   -6.8147   27.0502   67.5593 C   0  0  2  0  0  0  0  0  0  0  0  0
   -6.1058   25.6837   67.4060 C   0  0  1  0  0  0  0  0  0  0  0  0
   -6.0764   25.2366   65.9088 C   0  0  2  0  0  0  0  0  0  0  0  0
   -7.4996   25.1136   65.4037 C   0  0  1  0  0  0  0  0  0  0  0  0
   -8.2025   26.4982   65.5327 C   0  0  1  0  0  0  0  0  0  0  0  0
   -9.6552   26.4531   65.0628 C   0  0  0  0  0  0  0  0  0  0  0  0
   -7.4808   24.6680   63.9895 N   0  0  0  0  0  0  0  0  0  0  0  0
   -8.1787   26.9387   66.9615 O   0  0  0  0  0  0  0  0  0  0  0  0
   -4.7808   25.8195   67.9665 O   0  0  0  0  0  0  0  0  0  0  0  0
   -5.4316   23.9661   65.7940 O   0  0  0  0  0  0  0  0  0  0  0  0
  -10.3712   25.5345   65.8521 O   0  0  0  0  0  0  0  0  0  0  0  0
    1.6730   29.1242   65.0740 C   0  0  1  0  0  0  0  0  0  0  0  0
    1.3983   29.7700   63.6883 C   0  0  1  0  0  0  0  0  0  0  0  0
    2.4656   29.2975   62.6589 C   0  0  2  0  0  0  0  0  0  0  0  0
    3.8707   29.7212   63.1532 C   0  0  1  0  0  0  0  0  0  0  0  0
    4.1790   29.0745   64.5510 C   0  0  0  0  0  0  0  0  0  0  0  0
    3.0997   29.5439   65.5496 C   0  0  2  0  0  0  0  0  0  0  0  0
    4.8958   29.2822   62.1761 N   0  0  0  0  0  0  0  0  0  0  0  0
    3.3939   28.9349   66.8513 N   0  0  0  0  0  0  0  0  0  0  0  0
    0.0868   29.3775   63.2264 O   0  0  0  0  0  0  0  0  0  0  0  0
    2.1839   29.9066   61.3792 O   0  0  0  0  0  0  0  0  0  0  0  0
  1  2  1  0  0  0  0
  1 12  1  6  0  0  0
  1 13  1  0  0  0  0
  2  3  1  0  0  0  0
  2 10  1  6  0  0  0
  4  3  1  6  0  0  0
  4  5  1  0  0  0  0
  4 14  1  0  0  0  0
  5  6  1  0  0  0  0
  5 13  1  1  0  0  0
  6  7  1  0  0  0  0
  6 15  1  1  0  0  0
  7  8  1  0  0  0  0
  7 11  1  1  0  0  0
  8 14  1  0  0  0  0
  8 16  1  6  0  0  0
  9 11  1  0  0  0  0
 17 16  1  6  0  0  0
 17 18  1  0  0  0  0
 17 24  1  0  0  0  0
 18 19  1  0  0  0  0
 18 25  1  6  0  0  0
 19 20  1  0  0  0  0
 19 26  1  1  0  0  0
 20 21  1  0  0  0  0
 20 23  1  6  0  0  0
 21 22  1  1  0  0  0
 21 24  1  0  0  0  0
 22 27  1  0  0  0  0
 28 12  1  1  0  0  0
 28 29  1  0  0  0  0
 28 33  1  0  0  0  0
 29 30  1  0  0  0  0
 29 36  1  6  0  0  0
 30 31  1  0  0  0  0
 30 37  1  6  0  0  0
 31 32  1  0  0  0  0
 31 34  1  6  0  0  0
 32 33  1  0  0  0  0
 33 35  1  1  0  0  0
M  END
>  <CHROM.1>
-57.02474829,90.42020518,-140.23398372,166.67315969,-66.60554389,60.60499523
-2.63476369,28.13193979,66.10425865,0.00015406,0.32735285,0.90663712

>  <Name>
ligand

>  <RI>
0

>  <Rbt.Current_Directory>
/home/itssahil/PROJECTS/Mol_Feturizer/Test_systems_manuscript/rnas/2g5k

>  <Rbt.Executable>
rbdock ($Id: //depot/dev/client3/rdock/2013.1/src/exe/rbdock.cxx#4 $)

>  <Rbt.Library>
libRbt.so (2013.1, Build901 2013/11/27)

>  <Rbt.Parameter_File>
/export/apps/rDock/src/rDock_2013.1_src/data/scripts/dock_solv.prm

>  <Rbt.Receptor>
prm/pocket_docking_8.prm

>  <SCORE>
-4.12227

>  <SCORE.INTER>
-5.45631

>  <SCORE.INTER.CONST>
1

>  <SCORE.INTER.POLAR>
0

>  <SCORE.INTER.ROT>
6

>  <SCORE.INTER.SOLV>
16.9253

>  <SCORE.INTER.VDW>
-16.8793

>  <SCORE.INTER.norm>
-0.147468

>  <SCORE.INTRA>
1.33404

>  <SCORE.INTRA.DIHEDRAL>
-4.31898

>  <SCORE.INTRA.DIHEDRAL.0>
11.3972

>  <SCORE.INTRA.POLAR>
0

>  <SCORE.INTRA.POLAR.0>
0

>  <SCORE.INTRA.REPUL>
0

>  <SCORE.INTRA.REPUL.0>
0

>  <SCORE.INTRA.SOLV>
4.28991

>  <SCORE.INTRA.SOLV.lig_0>
-92.3891

>  <SCORE.INTRA.VDW>
1.34857

>  <SCORE.INTRA.VDW.0>
-2.90606

>  <SCORE.INTRA.norm>
0.0360552

>  <SCORE.RESTR>
0

>  <SCORE.RESTR.CAVITY>
0

>  <SCORE.RESTR.norm>
0

>  <SCORE.SYSTEM>
0

>  <SCORE.SYSTEM.CONST>
0

>  <SCORE.SYSTEM.DIHEDRAL>
0

>  <SCORE.SYSTEM.SOLV>
0

>  <SCORE.SYSTEM.norm>
0

>  <SCORE.heavy>
37

>  <SCORE.norm>
-0.111413

>  <RMSD>
4.344

$$$$
ligand
 OpenBabel02271912133D
libRbt.so/2013.1/901 2013/11/27
 37 40  0  0  0  0  0  0  0  0999 V2000
   -2.3214   27.8314   68.6651 C   0  0  1  0  0  0  0  0  0  0  0  0
   -2.6159   26.3857   69.1568 C   0  0  1  0  0  0  0  0  0  0  0  0
   -3.3224   25.5423   68.0784 C   0  0  0  0  0  0  0  0  0  0  0  0
   -4.6379   26.2656   67.6525 C   0  0  1  0  0  0  0  0  0  0  0  0
   -4.3281   27.6989   67.1107 C   0  0  1  0  0  0  0  0  0  0  0  0
   -5.6856   28.4197   66.6836 C   0  0  1  0  0  0  0  0  0  0  0  0
   -6.3875   27.5662   65.5870 C   0  0  1  0  0  0  0  0  0  0  0  0
   -6.6400   26.1424   66.1680 C   0  0  2  0  0  0  0  0  0  0  0  0
   -8.3387   27.7618   63.8944 C   0  0  0  0  0  0  0  0  0  0  0  0
   -1.3709   25.7219   69.5979 N   0  0  0  0  0  0  0  0  0  0  0  0
   -7.6874   28.2110   65.1660 N   0  0  0  0  0  0  0  0  0  0  0  0
   -1.3188   27.8700   67.6308 O   0  0  0  0  0  0  0  0  0  0  0  0
   -3.5931   28.4319   68.1843 O   0  0  0  0  0  0  0  0  0  0  0  0
   -5.3886   25.5059   66.5994 O   0  0  0  0  0  0  0  0  0  0  0  0
   -6.5555   28.5075   67.8046 O   0  0  0  0  0  0  0  0  0  0  0  0
   -7.2648   25.3196   65.1894 O   0  0  0  0  0  0  0  0  0  0  0  0
   -7.6315   24.0041   65.6733 C   0  0  2  0  0  0  0  0  0  0  0  0
   -8.2990   23.1284   64.5866 C   0  0  1  0  0  0  0  0  0  0  0  0
   -9.6865   23.7166   64.1725 C   0  0  2  0  0  0  0  0  0  0  0  0
  -10.5857   23.7615   65.3912 C   0  0  1  0  0  0  0  0  0  0  0  0
   -9.9247   24.6670   66.4732 C   0  0  1  0  0  0  0  0  0  0  0  0
  -10.7622   24.7468   67.7481 C   0  0  0  0  0  0  0  0  0  0  0  0
  -11.9122   24.2979   65.0017 N   0  0  0  0  0  0  0  0  0  0  0  0
   -8.5766   24.1228   66.8236 O   0  0  0  0  0  0  0  0  0  0  0  0
   -7.3809   23.0469   63.4738 O   0  0  0  0  0  0  0  0  0  0  0  0
  -10.2905   22.8835   63.1804 O   0  0  0  0  0  0  0  0  0  0  0  0
  -11.9689   25.4149   67.4709 O   0  0  0  0  0  0  0  0  0  0  0  0
    0.1496   27.6112   67.8895 C   0  0  1  0  0  0  0  0  0  0  0  0
    0.8935   27.6128   66.5259 C   0  0  1  0  0  0  0  0  0  0  0  0
    2.4107   27.3457   66.7460 C   0  0  2  0  0  0  0  0  0  0  0  0
    2.9961   28.4574   67.6514 C   0  0  1  0  0  0  0  0  0  0  0  0
    2.2670   28.4730   69.0426 C   0  0  0  0  0  0  0  0  0  0  0  0
    0.7636   28.7228   68.7978 C   0  0  2  0  0  0  0  0  0  0  0  0
    4.4439   28.2171   67.8624 N   0  0  0  0  0  0  0  0  0  0  0  0
    0.0901   28.7346   70.1009 N   0  0  0  0  0  0  0  0  0  0  0  0
    0.3471   26.5777   65.6790 O   0  0  0  0  0  0  0  0  0  0  0  0
    3.0771   27.3461   65.4639 O   0  0  0  0  0  0  0  0  0  0  0  0
  1  2  1  0  0  0  0
  1 12  1  6  0  0  0
  1 13  1  0  0  0  0
  2  3  1  0  0  0  0
  2 10  1  6  0  0  0
  4  3  1  6  0  0  0
  4  5  1  0  0  0  0
  4 14  1  0  0  0  0
  5  6  1  0  0  0  0
  5 13  1  1  0  0  0
  6  7  1  0  0  0  0
  6 15  1  1  0  0  0
  7  8  1  0  0  0  0
  7 11  1  1  0  0  0
  8 14  1  0  0  0  0
  8 16  1  6  0  0  0
  9 11  1  0  0  0  0
 17 16  1  6  0  0  0
 17 18  1  0  0  0  0
 17 24  1  0  0  0  0
 18 19  1  0  0  0  0
 18 25  1  6  0  0  0
 19 20  1  0  0  0  0
 19 26  1  6  0  0  0
 20 21  1  0  0  0  0
 20 23  1  6  0  0  0
 21 22  1  1  0  0  0
 21 24  1  0  0  0  0
 22 27  1  0  0  0  0
 28 12  1  6  0  0  0
 28 29  1  0  0  0  0
 28 33  1  0  0  0  0
 29 30  1  0  0  0  0
 29 36  1  6  0  0  0
 30 31  1  0  0  0  0
 30 37  1  6  0  0  0
 31 32  1  0  0  0  0
 31 34  1  1  0  0  0
 32 33  1  0  0  0  0
 33 35  1  1  0  0  0
M  END
>  <CHROM.1>
-71.95051755,164.25410835,-175.55953925,174.95506142,-179.59335425,-66.42890960
-4.56692628,26.36175173,66.69651479,0.33675272,0.10227863,0.91988976

>  <Name>
ligand

>  <RI>
0

>  <Rbt.Current_Directory>
/home/itssahil/PROJECTS/Mol_Feturizer/Test_systems_manuscript/rnas/2g5k

>  <Rbt.Executable>
rbdock ($Id: //depot/dev/client3/rdock/2013.1/src/exe/rbdock.cxx#4 $)

>  <Rbt.Library>
libRbt.so (2013.1, Build901 2013/11/27)

>  <Rbt.Parameter_File>
/export/apps/rDock/src/rDock_2013.1_src/data/scripts/dock_solv.prm

>  <Rbt.Receptor>
prm/pocket_docking_5.prm

>  <SCORE>
-10.1885

>  <SCORE.INTER>
-7.06011

>  <SCORE.INTER.CONST>
1

>  <SCORE.INTER.POLAR>
0

>  <SCORE.INTER.ROT>
6

>  <SCORE.INTER.SOLV>
21.1019

>  <SCORE.INTER.VDW>
-19.3407

>  <SCORE.INTER.norm>
-0.190814

>  <SCORE.INTRA>
-3.12836

>  <SCORE.INTRA.DIHEDRAL>
-10.118

>  <SCORE.INTRA.DIHEDRAL.0>
11.3972

>  <SCORE.INTRA.POLAR>
0

>  <SCORE.INTRA.POLAR.0>
0

>  <SCORE.INTRA.REPUL>
0

>  <SCORE.INTRA.REPUL.0>
0

>  <SCORE.INTRA.SOLV>
3.11667

>  <SCORE.INTRA.SOLV.lig_0>
-92.3891

>  <SCORE.INTRA.VDW>
0.37233

>  <SCORE.INTRA.VDW.0>
-2.90606

>  <SCORE.INTRA.norm>
-0.0845503

>  <SCORE.RESTR>
0

>  <SCORE.RESTR.CAVITY>
0

>  <SCORE.RESTR.norm>
0

>  <SCORE.SYSTEM>
0

>  <SCORE.SYSTEM.CONST>
0

>  <SCORE.SYSTEM.DIHEDRAL>
0

>  <SCORE.SYSTEM.SOLV>
0

>  <SCORE.SYSTEM.norm>
0

>  <SCORE.heavy>
37

>  <SCORE.norm>
-0.275364

>  <RMSD>
4.361

$$$$
ligand
 OpenBabel02271912133D
libRbt.so/2013.1/901 2013/11/27
 37 40  0  0  0  0  0  0  0  0999 V2000
    0.6794   27.8915   63.1642 C   0  0  1  0  0  0  0  0  0  0  0  0
    0.6780   29.4461   63.2058 C   0  0  1  0  0  0  0  0  0  0  0  0
   -0.2711   29.9934   64.2888 C   0  0  0  0  0  0  0  0  0  0  0  0
   -1.7072   29.4410   64.0283 C   0  0  1  0  0  0  0  0  0  0  0  0
   -1.7068   27.8778   64.0398 C   0  0  1  0  0  0  0  0  0  0  0  0
   -3.1825   27.3355   63.7699 C   0  0  1  0  0  0  0  0  0  0  0  0
   -4.1325   27.8850   64.8742 C   0  0  1  0  0  0  0  0  0  0  0  0
   -4.0669   29.4417   64.8400 C   0  0  2  0  0  0  0  0  0  0  0  0
   -6.2438   26.6590   65.7400 C   0  0  0  0  0  0  0  0  0  0  0  0
    2.0478   29.9628   63.4108 N   0  0  0  0  0  0  0  0  0  0  0  0
   -5.5460   27.4034   64.6437 N   0  0  0  0  0  0  0  0  0  0  0  0
    1.2838   27.3077   64.3348 O   0  0  0  0  0  0  0  0  0  0  0  0
   -0.7235   27.4248   63.0113 O   0  0  0  0  0  0  0  0  0  0  0  0
   -2.6964   29.9286   65.0448 O   0  0  0  0  0  0  0  0  0  0  0  0
   -3.6439   27.8065   62.5104 O   0  0  0  0  0  0  0  0  0  0  0  0
   -4.9083   29.9879   65.8493 O   0  0  0  0  0  0  0  0  0  0  0  0
   -5.0872   31.4225   65.7538 C   0  0  2  0  0  0  0  0  0  0  0  0
   -5.7017   32.0380   67.0333 C   0  0  1  0  0  0  0  0  0  0  0  0
   -7.1702   31.5441   67.2386 C   0  0  2  0  0  0  0  0  0  0  0  0
   -8.0015   31.9607   66.0423 C   0  0  1  0  0  0  0  0  0  0  0  0
   -7.3973   31.3163   64.7587 C   0  0  1  0  0  0  0  0  0  0  0  0
   -8.1686   31.7074   63.4996 C   0  0  0  0  0  0  0  0  0  0  0  0
   -9.4020   31.5150   66.2398 N   0  0  0  0  0  0  0  0  0  0  0  0
   -5.9766   31.7557   64.6013 O   0  0  0  0  0  0  0  0  0  0  0  0
   -4.8416   31.6834   68.1390 O   0  0  0  0  0  0  0  0  0  0  0  0
   -7.7218   32.1373   68.4163 O   0  0  0  0  0  0  0  0  0  0  0  0
   -7.9793   33.0780   63.2450 O   0  0  0  0  0  0  0  0  0  0  0  0
    1.6584   25.8448   64.4323 C   0  0  1  0  0  0  0  0  0  0  0  0
    2.8215   25.5711   63.4398 C   0  0  1  0  0  0  0  0  0  0  0  0
    3.2367   24.0727   63.5052 C   0  0  2  0  0  0  0  0  0  0  0  0
    3.6999   23.7362   64.9441 C   0  0  1  0  0  0  0  0  0  0  0  0
    2.5386   23.9958   65.9694 C   0  0  0  0  0  0  0  0  0  0  0  0
    2.1334   25.4822   65.8748 C   0  0  2  0  0  0  0  0  0  0  0  0
    4.1050   22.3118   65.0168 N   0  0  0  0  0  0  0  0  0  0  0  0
    1.0483   25.7160   66.8339 N   0  0  0  0  0  0  0  0  0  0  0  0
    2.3919   25.8866   62.0970 O   0  0  0  0  0  0  0  0  0  0  0  0
    4.3139   23.8440   62.5697 O   0  0  0  0  0  0  0  0  0  0  0  0
  1  2  1  0  0  0  0
  1 12  1  1  0  0  0
  1 13  1  0  0  0  0
  2  3  1  0  0  0  0
  2 10  1  1  0  0  0
  4  3  1  1  0  0  0
  4  5  1  0  0  0  0
  4 14  1  0  0  0  0
  5  6  1  0  0  0  0
  5 13  1  6  0  0  0
  6  7  1  0  0  0  0
  6 15  1  6  0  0  0
  7  8  1  0  0  0  0
  7 11  1  6  0  0  0
  8 14  1  0  0  0  0
  8 16  1  1  0  0  0
  9 11  1  0  0  0  0
 17 16  1  1  0  0  0
 17 18  1  0  0  0  0
 17 24  1  0  0  0  0
 18 19  1  0  0  0  0
 18 25  1  1  0  0  0
 19 20  1  0  0  0  0
 19 26  1  1  0  0  0
 20 21  1  0  0  0  0
 20 23  1  1  0  0  0
 21 22  1  6  0  0  0
 21 24  1  0  0  0  0
 22 27  1  0  0  0  0
 28 12  1  1  0  0  0
 28 29  1  0  0  0  0
 28 33  1  0  0  0  0
 29 30  1  0  0  0  0
 29 36  1  6  0  0  0
 30 31  1  0  0  0  0
 30 37  1  6  0  0  0
 31 32  1  0  0  0  0
 31 34  1  6  0  0  0
 32 33  1  0  0  0  0
 33 35  1  1  0  0  0
M  END
>  <CHROM.1>
-167.65711701,124.02776495,-170.26096059,67.34518435,-165.81880808,68.07305641
-2.29949603,28.47267255,64.75986334,-0.25832938,0.53688699,-0.83705995

>  <Name>
ligand

>  <RI>
0

>  <Rbt.Current_Directory>
/home/itssahil/PROJECTS/Mol_Feturizer/Test_systems_manuscript/rnas/2g5k

>  <Rbt.Executable>
rbdock ($Id: //depot/dev/client3/rdock/2013.1/src/exe/rbdock.cxx#4 $)

>  <Rbt.Library>
libRbt.so (2013.1, Build901 2013/11/27)

>  <Rbt.Parameter_File>
/export/apps/rDock/src/rDock_2013.1_src/data/scripts/dock_solv.prm

>  <Rbt.Receptor>
prm/pocket_docking_4.prm

>  <SCORE>
-12.347

>  <SCORE.INTER>
-7.95574

>  <SCORE.INTER.CONST>
1

>  <SCORE.INTER.POLAR>
0

>  <SCORE.INTER.ROT>
6

>  <SCORE.INTER.SOLV>
14.3573

>  <SCORE.INTER.VDW>
-17.6896

>  <SCORE.INTER.norm>
-0.21502

>  <SCORE.INTRA>
-4.41705

>  <SCORE.INTRA.DIHEDRAL>
-7.54828

>  <SCORE.INTRA.DIHEDRAL.0>
11.3972

>  <SCORE.INTRA.POLAR>
0

>  <SCORE.INTRA.POLAR.0>
0

>  <SCORE.INTRA.REPUL>
0

>  <SCORE.INTRA.REPUL.0>
0

>  <SCORE.INTRA.SOLV>
-1.22756

>  <SCORE.INTRA.SOLV.lig_0>
-92.3891

>  <SCORE.INTRA.VDW>
-0.0291261

>  <SCORE.INTRA.VDW.0>
-2.90606

>  <SCORE.INTRA.norm>
-0.11938

>  <SCORE.RESTR>
0.0257602

>  <SCORE.RESTR.CAVITY>
0.0257602

>  <SCORE.RESTR.norm>
0.000696221

>  <SCORE.SYSTEM>
0

>  <SCORE.SYSTEM.CONST>
0

>  <SCORE.SYSTEM.DIHEDRAL>
0

>  <SCORE.SYSTEM.SOLV>
0

>  <SCORE.SYSTEM.norm>
0

>  <SCORE.heavy>
37

>  <SCORE.norm>
-0.333703

>  <RMSD>
4.380

$$$$
ligand
 OpenBabel02271912133D
libRbt.so/2013.1/901 2013/11/27
 37 40  0  0  0  0  0  0  0  0999 V2000
    0.7085   27.8798   63.2075 C   0  0  1  0  0  0  0  0  0  0  0  0
    0.7394   29.4335   63.2675 C   0  0  1  0  0  0  0  0  0  0  0  0
   -0.2416   29.9899   64.3170 C   0  0  0  0  0  0  0  0  0  0  0  0
   -1.6774   29.4726   63.9912 C   0  0  1  0  0  0  0  0  0  0  0  0
   -1.7116   27.9098   63.9841 C   0  0  1  0  0  0  0  0  0  0  0  0
   -3.1864   27.4036   63.6473 C   0  0  1  0  0  0  0  0  0  0  0  0
   -4.1690   27.9620   64.7180 C   0  0  1  0  0  0  0  0  0  0  0  0
   -4.0681   29.5171   64.7051 C   0  0  2  0  0  0  0  0  0  0  0  0
   -6.1550   26.3710   65.2028 C   0  0  0  0  0  0  0  0  0  0  0  0
    2.1105   29.9172   63.5347 N   0  0  0  0  0  0  0  0  0  0  0  0
   -5.5819   27.5147   64.4240 N   0  0  0  0  0  0  0  0  0  0  0  0
    1.2511   27.2699   64.3949 O   0  0  0  0  0  0  0  0  0  0  0  0
   -0.6967   27.4462   62.9915 O   0  0  0  0  0  0  0  0  0  0  0  0
   -2.6969   29.9710   64.9719 O   0  0  0  0  0  0  0  0  0  0  0  0
   -3.5849   27.8986   62.3756 O   0  0  0  0  0  0  0  0  0  0  0  0
   -4.9383   30.0708   65.6854 O   0  0  0  0  0  0  0  0  0  0  0  0
   -5.0386   31.5153   65.6350 C   0  0  2  0  0  0  0  0  0  0  0  0
   -5.4643   32.1358   66.9868 C   0  0  1  0  0  0  0  0  0  0  0  0
   -6.9273   31.7248   67.3518 C   0  0  2  0  0  0  0  0  0  0  0  0
   -7.8625   32.2177   66.2663 C   0  0  1  0  0  0  0  0  0  0  0  0
   -7.4493   31.5691   64.9112 C   0  0  1  0  0  0  0  0  0  0  0  0
   -8.3338   32.0345   63.7561 C   0  0  0  0  0  0  0  0  0  0  0  0
   -9.2560   31.8509   66.6166 N   0  0  0  0  0  0  0  0  0  0  0  0
   -6.0316   31.9275   64.5984 O   0  0  0  0  0  0  0  0  0  0  0  0
   -4.5071   31.7052   67.9799 O   0  0  0  0  0  0  0  0  0  0  0  0
   -7.3035   32.3216   68.5949 O   0  0  0  0  0  0  0  0  0  0  0  0
   -9.6303   31.5146   63.9242 O   0  0  0  0  0  0  0  0  0  0  0  0
    1.6353   25.8084   64.4747 C   0  0  1  0  0  0  0  0  0  0  0  0
    2.8912   25.5844   63.5886 C   0  0  1  0  0  0  0  0  0  0  0  0
    3.3194   24.0891   63.6389 C   0  0  2  0  0  0  0  0  0  0  0  0
    3.6484   23.7038   65.1023 C   0  0  1  0  0  0  0  0  0  0  0  0
    2.3913   23.9126   66.0208 C   0  0  0  0  0  0  0  0  0  0  0  0
    1.9760   25.3971   65.9418 C   0  0  2  0  0  0  0  0  0  0  0  0
    4.0648   22.2821   65.1616 N   0  0  0  0  0  0  0  0  0  0  0  0
    0.8015   25.5833   66.8007 N   0  0  0  0  0  0  0  0  0  0  0  0
    2.5868   25.9454   62.2231 O   0  0  0  0  0  0  0  0  0  0  0  0
    4.4838   23.9070   62.8029 O   0  0  0  0  0  0  0  0  0  0  0  0
  1  2  1  0  0  0  0
  1 12  1  1  0  0  0
  1 13  1  0  0  0  0
  2  3  1  0  0  0  0
  2 10  1  1  0  0  0
  4  3  1  1  0  0  0
  4  5  1  0  0  0  0
  4 14  1  0  0  0  0
  5  6  1  0  0  0  0
  5 13  1  6  0  0  0
  6  7  1  0  0  0  0
  6 15  1  6  0  0  0
  7  8  1  0  0  0  0
  7 11  1  6  0  0  0
  8 14  1  0  0  0  0
  8 16  1  1  0  0  0
  9 11  1  0  0  0  0
 17 16  1  1  0  0  0
 17 18  1  0  0  0  0
 17 24  1  0  0  0  0
 18 19  1  0  0  0  0
 18 25  1  1  0  0  0
 19 20  1  0  0  0  0
 19 26  1  1  0  0  0
 20 21  1  0  0  0  0
 20 23  1  1  0  0  0
 21 22  1  6  0  0  0
 21 24  1  0  0  0  0
 22 27  1  0  0  0  0
 28 12  1  1  0  0  0
 28 29  1  0  0  0  0
 28 33  1  0  0  0  0
 29 30  1  0  0  0  0
 29 36  1  6  0  0  0
 30 31  1  0  0  0  0
 30 37  1  6  0  0  0
 31 32  1  0  0  0  0
 31 34  1  6  0  0  0
 32 33  1  0  0  0  0
 33 35  1  1  0  0  0
M  END
>  <CHROM.1>
-165.40529699,100.97684343,-172.68184740,69.59472275,-155.87369696,-68.57256796
-2.30969365,28.47614407,64.79775971,-0.46206440,0.37234402,-0.37757218

>  <Name>
ligand

>  <RI>
0

>  <Rbt.Current_Directory>
/home/itssahil/PROJECTS/Mol_Feturizer/Test_systems_manuscript/rnas/2g5k

>  <Rbt.Executable>
rbdock ($Id: //depot/dev/client3/rdock/2013.1/src/exe/rbdock.cxx#4 $)

>  <Rbt.Library>
libRbt.so (2013.1, Build901 2013/11/27)

>  <Rbt.Parameter_File>
/export/apps/rDock/src/rDock_2013.1_src/data/scripts/dock_solv.prm

>  <Rbt.Receptor>
prm/pocket_docking_4.prm

>  <SCORE>
-12.0857

>  <SCORE.INTER>
-9.01325

>  <SCORE.INTER.CONST>
1

>  <SCORE.INTER.POLAR>
0

>  <SCORE.INTER.ROT>
6

>  <SCORE.INTER.SOLV>
14.3593

>  <SCORE.INTER.VDW>
-18.3953

>  <SCORE.INTER.norm>
-0.243601

>  <SCORE.INTRA>
-3.0829

>  <SCORE.INTRA.DIHEDRAL>
-5.96424

>  <SCORE.INTRA.DIHEDRAL.0>
11.3972

>  <SCORE.INTRA.POLAR>
0

>  <SCORE.INTRA.POLAR.0>
0

>  <SCORE.INTRA.REPUL>
0

>  <SCORE.INTRA.REPUL.0>
0

>  <SCORE.INTRA.SOLV>
-0.692768

>  <SCORE.INTRA.SOLV.lig_0>
-92.3891

>  <SCORE.INTRA.VDW>
0.245605

>  <SCORE.INTRA.VDW.0>
-2.90606

>  <SCORE.INTRA.norm>
-0.0833216

>  <SCORE.RESTR>
0.0104541

>  <SCORE.RESTR.CAVITY>
0.0104541

>  <SCORE.RESTR.norm>
0.000282543

>  <SCORE.SYSTEM>
0

>  <SCORE.SYSTEM.CONST>
0

>  <SCORE.SYSTEM.DIHEDRAL>
0

>  <SCORE.SYSTEM.SOLV>
0

>  <SCORE.SYSTEM.norm>
0

>  <SCORE.heavy>
37

>  <SCORE.norm>
-0.32664

>  <RMSD>
4.382

$$$$
ligand
 OpenBabel02271912133D
libRbt.so/2013.1/901 2013/11/27
 37 40  0  0  0  0  0  0  0  0999 V2000
   -2.9160   28.7742   64.0807 C   0  0  1  0  0  0  0  0  0  0  0  0
   -3.6256   30.0668   64.5748 C   0  0  1  0  0  0  0  0  0  0  0  0
   -4.6159   29.7797   65.7195 C   0  0  0  0  0  0  0  0  0  0  0  0
   -5.6564   28.7227   65.2343 C   0  0  1  0  0  0  0  0  0  0  0  0
   -4.9388   27.4075   64.7883 C   0  0  1  0  0  0  0  0  0  0  0  0
   -6.0199   26.3432   64.2951 C   0  0  1  0  0  0  0  0  0  0  0  0
   -7.0100   26.0515   65.4605 C   0  0  1  0  0  0  0  0  0  0  0  0
   -7.6684   27.3983   65.8864 C   0  0  2  0  0  0  0  0  0  0  0  0
   -7.6379   23.6577   64.6950 C   0  0  0  0  0  0  0  0  0  0  0  0
   -2.6324   31.0787   64.9931 N   0  0  0  0  0  0  0  0  0  0  0  0
   -8.0602   25.0560   65.0260 N   0  0  0  0  0  0  0  0  0  0  0  0
   -2.0065   28.2343   65.0594 O   0  0  0  0  0  0  0  0  0  0  0  0
   -3.9565   27.7742   63.7250 O   0  0  0  0  0  0  0  0  0  0  0  0
   -6.6609   28.3856   66.2959 O   0  0  0  0  0  0  0  0  0  0  0  0
   -6.7594   26.8800   63.2060 O   0  0  0  0  0  0  0  0  0  0  0  0
   -8.5696   27.1811   66.9660 O   0  0  0  0  0  0  0  0  0  0  0  0
   -9.2244   28.3845   67.4375 C   0  0  2  0  0  0  0  0  0  0  0  0
   -9.9894   28.1717   68.7652 C   0  0  1  0  0  0  0  0  0  0  0  0
  -11.2009   27.2059   68.5610 C   0  0  2  0  0  0  0  0  0  0  0  0
  -12.1439   27.8082   67.5393 C   0  0  1  0  0  0  0  0  0  0  0  0
  -11.3789   27.9951   66.1948 C   0  0  1  0  0  0  0  0  0  0  0  0
  -12.2578   28.6212   65.1138 C   0  0  0  0  0  0  0  0  0  0  0  0
  -13.3078   26.9079   67.3562 N   0  0  0  0  0  0  0  0  0  0  0  0
  -10.1931   28.8793   66.4142 O   0  0  0  0  0  0  0  0  0  0  0  0
   -9.0418   27.6696   69.7337 O   0  0  0  0  0  0  0  0  0  0  0  0
  -11.9008   27.0370   69.7958 O   0  0  0  0  0  0  0  0  0  0  0  0
  -13.3051   27.7371   64.7959 O   0  0  0  0  0  0  0  0  0  0  0  0
   -1.2564   26.9344   64.8658 C   0  0  1  0  0  0  0  0  0  0  0  0
   -0.1903   27.1461   63.7561 C   0  0  1  0  0  0  0  0  0  0  0  0
    0.6040   25.8286   63.5216 C   0  0  2  0  0  0  0  0  0  0  0  0
    1.3083   25.4188   64.8385 C   0  0  1  0  0  0  0  0  0  0  0  0
    0.2516   25.1892   65.9778 C   0  0  0  0  0  0  0  0  0  0  0  0
   -0.5336   26.5025   66.1807 C   0  0  2  0  0  0  0  0  0  0  0  0
    2.0746   24.1675   64.6251 N   0  0  0  0  0  0  0  0  0  0  0  0
   -1.5187   26.2796   67.2446 N   0  0  0  0  0  0  0  0  0  0  0  0
   -0.8454   27.5307   62.5272 O   0  0  0  0  0  0  0  0  0  0  0  0
    1.5830   26.0506   62.4823 O   0  0  0  0  0  0  0  0  0  0  0  0
  1  2  1  0  0  0  0
  1 12  1  1  0  0  0
  1 13  1  0  0  0  0
  2  3  1  0  0  0  0
  2 10  1  1  0  0  0
  4  3  1  1  0  0  0
  4  5  1  0  0  0  0
  4 14  1  0  0  0  0
  5  6  1  0  0  0  0
  5 13  1  6  0  0  0
  6  7  1  0  0  0  0
  6 15  1  6  0  0  0
  7  8  1  0  0  0  0
  7 11  1  6  0  0  0
  8 14  1  0  0  0  0
  8 16  1  1  0  0  0
  9 11  1  0  0  0  0
 17 16  1  6  0  0  0
 17 18  1  0  0  0  0
 17 24  1  0  0  0  0
 18 19  1  0  0  0  0
 18 25  1  1  0  0  0
 19 20  1  0  0  0  0
 19 26  1  1  0  0  0
 20 21  1  0  0  0  0
 20 23  1  6  0  0  0
 21 22  1  6  0  0  0
 21 24  1  0  0  0  0
 22 27  1  0  0  0  0
 28 12  1  1  0  0  0
 28 29  1  0  0  0  0
 28 33  1  0  0  0  0
 29 30  1  0  0  0  0
 29 36  1  6  0  0  0
 30 31  1  0  0  0  0
 30 37  1  6  0  0  0
 31 32  1  0  0  0  0
 31 34  1  6  0  0  0
 32 33  1  0  0  0  0
 33 35  1  1  0  0  0
M  END
>  <CHROM.1>
175.95957960,65.59625819,179.56947988,69.71117293,-169.34229747,-64.90646671
-5.75539163,27.30485972,65.60871429,0.05000621,0.25899003,-0.53282350

>  <Name>
ligand

>  <RI>
0

>  <Rbt.Current_Directory>
/home/itssahil/PROJECTS/Mol_Feturizer/Test_systems_manuscript/rnas/2g5k

>  <Rbt.Executable>
rbdock ($Id: //depot/dev/client3/rdock/2013.1/src/exe/rbdock.cxx#4 $)

>  <Rbt.Library>
libRbt.so (2013.1, Build901 2013/11/27)

>  <Rbt.Parameter_File>
/export/apps/rDock/src/rDock_2013.1_src/data/scripts/dock_solv.prm

>  <Rbt.Receptor>
prm/pocket_docking_7.prm

>  <SCORE>
-9.93978

>  <SCORE.INTER>
-5.26623

>  <SCORE.INTER.CONST>
1

>  <SCORE.INTER.POLAR>
0

>  <SCORE.INTER.ROT>
6

>  <SCORE.INTER.SOLV>
12.3611

>  <SCORE.INTER.VDW>
-15.2312

>  <SCORE.INTER.norm>
-0.14233

>  <SCORE.INTRA>
-4.67356

>  <SCORE.INTRA.DIHEDRAL>
-10.1669

>  <SCORE.INTRA.DIHEDRAL.0>
11.3972

>  <SCORE.INTRA.POLAR>
0

>  <SCORE.INTRA.POLAR.0>
0

>  <SCORE.INTRA.REPUL>
0

>  <SCORE.INTRA.REPUL.0>
0

>  <SCORE.INTRA.SOLV>
-0.850781

>  <SCORE.INTRA.SOLV.lig_0>
-92.3891

>  <SCORE.INTRA.VDW>
0.835268

>  <SCORE.INTRA.VDW.0>
-2.90606

>  <SCORE.INTRA.norm>
-0.126312

>  <SCORE.RESTR>
0

>  <SCORE.RESTR.CAVITY>
0

>  <SCORE.RESTR.norm>
0

>  <SCORE.SYSTEM>
0

>  <SCORE.SYSTEM.CONST>
0

>  <SCORE.SYSTEM.DIHEDRAL>
0

>  <SCORE.SYSTEM.SOLV>
0

>  <SCORE.SYSTEM.norm>
0

>  <SCORE.heavy>
37

>  <SCORE.norm>
-0.268643

>  <RMSD>
4.409

$$$$
ligand
 OpenBabel02271912133D
libRbt.so/2013.1/901 2013/11/27
 37 40  0  0  0  0  0  0  0  0999 V2000
    0.6903   26.9264   62.6898 C   0  0  1  0  0  0  0  0  0  0  0  0
    1.1245   28.3069   63.2590 C   0  0  1  0  0  0  0  0  0  0  0  0
    0.3303   28.6851   64.5238 C   0  0  0  0  0  0  0  0  0  0  0  0
   -1.1932   28.6751   64.1858 C   0  0  1  0  0  0  0  0  0  0  0  0
   -1.6325   27.2687   63.6635 C   0  0  1  0  0  0  0  0  0  0  0  0
   -3.1908   27.2820   63.3227 C   0  0  1  0  0  0  0  0  0  0  0  0
   -3.9859   27.6550   64.6082 C   0  0  1  0  0  0  0  0  0  0  0  0
   -3.4843   29.0451   65.1026 C   0  0  2  0  0  0  0  0  0  0  0  0
   -6.2580   26.4236   64.4291 C   0  0  0  0  0  0  0  0  0  0  0  0
    2.5763   28.3223   63.5372 N   0  0  0  0  0  0  0  0  0  0  0  0
   -5.4688   27.6919   64.3210 N   0  0  0  0  0  0  0  0  0  0  0  0
    1.0652   25.8317   63.5486 O   0  0  0  0  0  0  0  0  0  0  0  0
   -0.7810   26.9469   62.4796 O   0  0  0  0  0  0  0  0  0  0  0  0
   -2.0402   29.0337   65.3705 O   0  0  0  0  0  0  0  0  0  0  0  0
   -3.4571   28.2669   62.3326 O   0  0  0  0  0  0  0  0  0  0  0  0
   -4.1729   29.4180   66.2908 O   0  0  0  0  0  0  0  0  0  0  0  0
   -3.8394   30.7428   66.7734 C   0  0  2  0  0  0  0  0  0  0  0  0
   -4.5993   31.1202   68.0671 C   0  0  1  0  0  0  0  0  0  0  0  0
   -6.1320   31.2545   67.7933 C   0  0  2  0  0  0  0  0  0  0  0  0
   -6.3540   32.3374   66.7570 C   0  0  1  0  0  0  0  0  0  0  0  0
   -5.6113   31.9411   65.4458 C   0  0  1  0  0  0  0  0  0  0  0  0
   -5.7680   32.9969   64.3531 C   0  0  0  0  0  0  0  0  0  0  0  0
   -7.8082   32.4863   66.5079 N   0  0  0  0  0  0  0  0  0  0  0  0
   -4.1541   31.7655   65.7315 O   0  0  0  0  0  0  0  0  0  0  0  0
   -4.3025   30.1066   69.0533 O   0  0  0  0  0  0  0  0  0  0  0  0
   -6.8103   31.6186   68.9977 O   0  0  0  0  0  0  0  0  0  0  0  0
   -7.1106   33.0373   63.9344 O   0  0  0  0  0  0  0  0  0  0  0  0
    2.5023   25.4917   63.8789 C   0  0  1  0  0  0  0  0  0  0  0  0
    2.5046   24.3396   64.9208 C   0  0  1  0  0  0  0  0  0  0  0  0
    3.9674   23.9600   65.2925 C   0  0  2  0  0  0  0  0  0  0  0  0
    4.7127   23.4990   64.0158 C   0  0  1  0  0  0  0  0  0  0  0  0
    4.7333   24.6494   62.9465 C   0  0  0  0  0  0  0  0  0  0  0  0
    3.2739   25.0195   62.6063 C   0  0  2  0  0  0  0  0  0  0  0  0
    6.1064   23.1277   64.3592 N   0  0  0  0  0  0  0  0  0  0  0  0
    3.3018   26.0947   61.6088 N   0  0  0  0  0  0  0  0  0  0  0  0
    1.8077   24.7672   66.1119 O   0  0  0  0  0  0  0  0  0  0  0  0
    3.9411   22.8925   66.2660 O   0  0  0  0  0  0  0  0  0  0  0  0
  1  2  1  0  0  0  0
  1 12  1  1  0  0  0
  1 13  1  0  0  0  0
  2  3  1  0  0  0  0
  2 10  1  1  0  0  0
  4  3  1  1  0  0  0
  4  5  1  0  0  0  0
  4 14  1  0  0  0  0
  5  6  1  0  0  0  0
  5 13  1  6  0  0  0
  6  7  1  0  0  0  0
  6 15  1  6  0  0  0
  7  8  1  0  0  0  0
  7 11  1  6  0  0  0
  8 14  1  0  0  0  0
  8 16  1  1  0  0  0
  9 11  1  0  0  0  0
 17 16  1  6  0  0  0
 17 18  1  0  0  0  0
 17 24  1  0  0  0  0
 18 19  1  0  0  0  0
 18 25  1  1  0  0  0
 19 20  1  0  0  0  0
 19 26  1  1  0  0  0
 20 21  1  0  0  0  0
 20 23  1  6  0  0  0
 21 22  1  6  0  0  0
 21 24  1  0  0  0  0
 22 27  1  0  0  0  0
 28 12  1  6  0  0  0
 28 29  1  0  0  0  0
 28 33  1  0  0  0  0
 29 30  1  0  0  0  0
 29 36  1  1  0  0  0
 30 31  1  0  0  0  0
 30 37  1  1  0  0  0
 31 32  1  0  0  0  0
 31 34  1  1  0  0  0
 32 33  1  0  0  0  0
 33 35  1  6  0  0  0
M  END
>  <CHROM.1>
-62.58286131,86.97631654,-175.85942788,175.16158741,-179.85809409,-67.35502573
-1.55379632,28.10160595,64.86518864,0.17605715,0.61842611,-1.53509381

>  <Name>
ligand

>  <RI>
0

>  <Rbt.Current_Directory>
/home/itssahil/PROJECTS/Mol_Feturizer/Test_systems_manuscript/rnas/2g5k

>  <Rbt.Executable>
rbdock ($Id: //depot/dev/client3/rdock/2013.1/src/exe/rbdock.cxx#4 $)

>  <Rbt.Library>
libRbt.so (2013.1, Build901 2013/11/27)

>  <Rbt.Parameter_File>
/export/apps/rDock/src/rDock_2013.1_src/data/scripts/dock_solv.prm

>  <Rbt.Receptor>
prm/pocket_docking_5.prm

>  <SCORE>
-13.2163

>  <SCORE.INTER>
-10.3605

>  <SCORE.INTER.CONST>
1

>  <SCORE.INTER.POLAR>
0

>  <SCORE.INTER.ROT>
6

>  <SCORE.INTER.SOLV>
14.7943

>  <SCORE.INTER.VDW>
-19.4384

>  <SCORE.INTER.norm>
-0.280012

>  <SCORE.INTRA>
-2.85584

>  <SCORE.INTRA.DIHEDRAL>
-10.4316

>  <SCORE.INTRA.DIHEDRAL.0>
11.3972

>  <SCORE.INTRA.POLAR>
0

>  <SCORE.INTRA.POLAR.0>
0

>  <SCORE.INTRA.REPUL>
0

>  <SCORE.INTRA.REPUL.0>
0

>  <SCORE.INTRA.SOLV>
3.92616

>  <SCORE.INTRA.SOLV.lig_0>
-92.3891

>  <SCORE.INTRA.VDW>
0.39687

>  <SCORE.INTRA.VDW.0>
-2.90606

>  <SCORE.INTRA.norm>
-0.0771848

>  <SCORE.RESTR>
0

>  <SCORE.RESTR.CAVITY>
0

>  <SCORE.RESTR.norm>
0

>  <SCORE.SYSTEM>
0

>  <SCORE.SYSTEM.CONST>
0

>  <SCORE.SYSTEM.DIHEDRAL>
0

>  <SCORE.SYSTEM.SOLV>
0

>  <SCORE.SYSTEM.norm>
0

>  <SCORE.heavy>
37

>  <SCORE.norm>
-0.357197

>  <RMSD>
4.421

$$$$
ligand
 OpenBabel02271912133D
libRbt.so/2013.1/901 2013/11/27
 37 40  0  0  0  0  0  0  0  0999 V2000
    0.3207   27.9049   63.1647 C   0  0  1  0  0  0  0  0  0  0  0  0
    0.2501   29.4560   63.0776 C   0  0  1  0  0  0  0  0  0  0  0  0
   -0.7463   30.0461   64.0937 C   0  0  0  0  0  0  0  0  0  0  0  0
   -2.1505   29.4093   63.8529 C   0  0  1  0  0  0  0  0  0  0  0  0
   -2.0816   27.8539   63.9935 C   0  0  1  0  0  0  0  0  0  0  0  0
   -3.5256   27.2245   63.7418 C   0  0  1  0  0  0  0  0  0  0  0  0
   -4.5234   27.8185   64.7788 C   0  0  1  0  0  0  0  0  0  0  0  0
   -4.5256   29.3685   64.6173 C   0  0  2  0  0  0  0  0  0  0  0  0
   -6.1998   25.8577   65.0141 C   0  0  0  0  0  0  0  0  0  0  0  0
    1.5909   30.0497   63.2648 N   0  0  0  0  0  0  0  0  0  0  0  0
   -5.9088   27.2557   64.5626 N   0  0  0  0  0  0  0  0  0  0  0  0
    0.9238   27.4470   64.3906 O   0  0  0  0  0  0  0  0  0  0  0  0
   -1.0565   27.3637   63.0246 O   0  0  0  0  0  0  0  0  0  0  0  0
   -3.1828   29.9326   64.8069 O   0  0  0  0  0  0  0  0  0  0  0  0
   -3.9789   27.5695   62.4392 O   0  0  0  0  0  0  0  0  0  0  0  0
   -5.4126   29.9564   65.5621 O   0  0  0  0  0  0  0  0  0  0  0  0
   -6.0839   31.1458   65.0785 C   0  0  2  0  0  0  0  0  0  0  0  0
   -5.3998   32.4532   65.5435 C   0  0  1  0  0  0  0  0  0  0  0  0
   -5.5198   32.6239   67.0923 C   0  0  2  0  0  0  0  0  0  0  0  0
   -6.9864   32.6732   67.4699 C   0  0  1  0  0  0  0  0  0  0  0  0
   -7.6668   31.3436   67.0261 C   0  0  1  0  0  0  0  0  0  0  0  0
   -9.1589   31.3228   67.3524 C   0  0  0  0  0  0  0  0  0  0  0  0
   -7.1088   32.8575   68.9362 N   0  0  0  0  0  0  0  0  0  0  0  0
   -7.5006   31.1663   65.5506 O   0  0  0  0  0  0  0  0  0  0  0  0
   -4.0255   32.4027   65.0997 O   0  0  0  0  0  0  0  0  0  0  0  0
   -4.8953   33.8446   67.4961 O   0  0  0  0  0  0  0  0  0  0  0  0
   -9.7022   30.0836   66.9670 O   0  0  0  0  0  0  0  0  0  0  0  0
    1.3071   26.0040   64.6375 C   0  0  1  0  0  0  0  0  0  0  0  0
    2.4308   25.6190   63.6366 C   0  0  1  0  0  0  0  0  0  0  0  0
    2.8536   24.1371   63.8539 C   0  0  2  0  0  0  0  0  0  0  0  0
    3.3747   23.9646   65.3020 C   0  0  1  0  0  0  0  0  0  0  0  0
    2.2541   24.3394   66.3370 C   0  0  0  0  0  0  0  0  0  0  0  0
    1.8402   25.8060   66.0916 C   0  0  2  0  0  0  0  0  0  0  0  0
    3.7873   22.5571   65.5186 N   0  0  0  0  0  0  0  0  0  0  0  0
    0.7932   26.1476   67.0606 N   0  0  0  0  0  0  0  0  0  0  0  0
    1.9472   25.7814   62.2850 O   0  0  0  0  0  0  0  0  0  0  0  0
    3.8936   23.8033   62.9080 O   0  0  0  0  0  0  0  0  0  0  0  0
  1  2  1  0  0  0  0
  1 12  1  1  0  0  0
  1 13  1  0  0  0  0
  2  3  1  0  0  0  0
  2 10  1  1  0  0  0
  4  3  1  1  0  0  0
  4  5  1  0  0  0  0
  4 14  1  0  0  0  0
  5  6  1  0  0  0  0
  5 13  1  6  0  0  0
  6  7  1  0  0  0  0
  6 15  1  6  0  0  0
  7  8  1  0  0  0  0
  7 11  1  6  0  0  0
  8 14  1  0  0  0  0
  8 16  1  1  0  0  0
  9 11  1  0  0  0  0
 17 16  1  1  0  0  0
 17 18  1  0  0  0  0
 17 24  1  0  0  0  0
 18 19  1  0  0  0  0
 18 25  1  1  0  0  0
 19 20  1  0  0  0  0
 19 26  1  6  0  0  0
 20 21  1  0  0  0  0
 20 23  1  1  0  0  0
 21 22  1  6  0  0  0
 21 24  1  0  0  0  0
 22 27  1  0  0  0  0
 28 12  1  1  0  0  0
 28 29  1  0  0  0  0
 28 33  1  0  0  0  0
 29 30  1  0  0  0  0
 29 36  1  6  0  0  0
 30 31  1  0  0  0  0
 30 37  1  6  0  0  0
 31 32  1  0  0  0  0
 31 34  1  1  0  0  0
 32 33  1  0  0  0  0
 33 35  1  1  0  0  0
M  END
>  <CHROM.1>
-170.29927549,75.90276486,-146.09507761,64.73807554,-97.86172153,-178.12479123
-2.46737276,28.51891141,65.00377698,-0.60162374,0.17839697,0.09688232

>  <Name>
ligand

>  <RI>
0

>  <Rbt.Current_Directory>
/home/itssahil/PROJECTS/Mol_Feturizer/Test_systems_manuscript/rnas/2g5k

>  <Rbt.Executable>
rbdock ($Id: //depot/dev/client3/rdock/2013.1/src/exe/rbdock.cxx#4 $)

>  <Rbt.Library>
libRbt.so (2013.1, Build901 2013/11/27)

>  <Rbt.Parameter_File>
/export/apps/rDock/src/rDock_2013.1_src/data/scripts/dock_solv.prm

>  <Rbt.Receptor>
prm/pocket_docking_4.prm

>  <SCORE>
-8.14436

>  <SCORE.INTER>
-7.06688

>  <SCORE.INTER.CONST>
1

>  <SCORE.INTER.POLAR>
0

>  <SCORE.INTER.ROT>
6

>  <SCORE.INTER.SOLV>
19.1895

>  <SCORE.INTER.VDW>
-18.7078

>  <SCORE.INTER.norm>
-0.190997

>  <SCORE.INTRA>
-1.07748

>  <SCORE.INTRA.DIHEDRAL>
-1.24752

>  <SCORE.INTRA.DIHEDRAL.0>
11.3972

>  <SCORE.INTRA.POLAR>
0

>  <SCORE.INTRA.POLAR.0>
0

>  <SCORE.INTRA.REPUL>
0

>  <SCORE.INTRA.REPUL.0>
0

>  <SCORE.INTRA.SOLV>
-1.41502

>  <SCORE.INTRA.SOLV.lig_0>
-92.3891

>  <SCORE.INTRA.VDW>
0.25379

>  <SCORE.INTRA.VDW.0>
-2.90606

>  <SCORE.INTRA.norm>
-0.0291212

>  <SCORE.RESTR>
0

>  <SCORE.RESTR.CAVITY>
0

>  <SCORE.RESTR.norm>
0

>  <SCORE.SYSTEM>
0

>  <SCORE.SYSTEM.CONST>
0

>  <SCORE.SYSTEM.DIHEDRAL>
0

>  <SCORE.SYSTEM.SOLV>
0

>  <SCORE.SYSTEM.norm>
0

>  <SCORE.heavy>
37

>  <SCORE.norm>
-0.220118

>  <RMSD>
4.435

$$$$
ligand
 OpenBabel02271912133D
libRbt.so/2013.1/901 2013/11/27
 37 40  0  0  0  0  0  0  0  0999 V2000
   -2.5986   28.4586   64.3131 C   0  0  1  0  0  0  0  0  0  0  0  0
   -3.2732   29.8516   64.4647 C   0  0  1  0  0  0  0  0  0  0  0  0
   -4.4779   29.8078   65.4240 C   0  0  0  0  0  0  0  0  0  0  0  0
   -5.4984   28.7471   64.9056 C   0  0  1  0  0  0  0  0  0  0  0  0
   -4.8268   27.3391   64.8055 C   0  0  1  0  0  0  0  0  0  0  0  0
   -5.8861   26.2722   64.2725 C   0  0  1  0  0  0  0  0  0  0  0  0
   -7.0948   26.2272   65.2527 C   0  0  1  0  0  0  0  0  0  0  0  0
   -7.7021   27.6598   65.3401 C   0  0  2  0  0  0  0  0  0  0  0  0
   -7.7296   23.8031   64.5960 C   0  0  0  0  0  0  0  0  0  0  0  0
   -2.2906   30.8598   64.9156 N   0  0  0  0  0  0  0  0  0  0  0  0
   -8.1289   25.2358   64.7725 N   0  0  0  0  0  0  0  0  0  0  0  0
   -1.9341   28.0321   65.5184 O   0  0  0  0  0  0  0  0  0  0  0  0
   -3.6380   27.4748   63.9119 O   0  0  0  0  0  0  0  0  0  0  0  0
   -6.7060   28.6416   65.7889 O   0  0  0  0  0  0  0  0  0  0  0  0
   -6.3641   26.6684   62.9935 O   0  0  0  0  0  0  0  0  0  0  0  0
   -8.8016   27.6695   66.2434 O   0  0  0  0  0  0  0  0  0  0  0  0
   -9.6702   28.8204   66.1013 C   0  0  2  0  0  0  0  0  0  0  0  0
  -10.9059   28.7592   67.0301 C   0  0  1  0  0  0  0  0  0  0  0  0
  -11.8548   27.5879   66.6177 C   0  0  2  0  0  0  0  0  0  0  0  0
  -12.3192   27.8091   65.1925 C   0  0  1  0  0  0  0  0  0  0  0  0
  -11.0748   27.8418   64.2554 C   0  0  1  0  0  0  0  0  0  0  0  0
  -11.4578   28.0843   62.7968 C   0  0  0  0  0  0  0  0  0  0  0  0
  -13.2381   26.7130   64.8010 N   0  0  0  0  0  0  0  0  0  0  0  0
  -10.1503   28.9332   64.6916 O   0  0  0  0  0  0  0  0  0  0  0  0
  -10.4214   28.6248   68.3848 O   0  0  0  0  0  0  0  0  0  0  0  0
  -12.9954   27.5609   67.4787 O   0  0  0  0  0  0  0  0  0  0  0  0
  -10.3271   27.8952   61.9812 O   0  0  0  0  0  0  0  0  0  0  0  0
   -1.2748   26.6781   65.6669 C   0  0  1  0  0  0  0  0  0  0  0  0
   -0.1809   26.5448   64.5722 C   0  0  1  0  0  0  0  0  0  0  0  0
    0.5220   25.1611   64.6865 C   0  0  2  0  0  0  0  0  0  0  0  0
    1.1770   25.0380   66.0843 C   0  0  1  0  0  0  0  0  0  0  0  0
    0.0908   25.1606   67.2123 C   0  0  0  0  0  0  0  0  0  0  0  0
   -0.6027   26.5320   67.0686 C   0  0  2  0  0  0  0  0  0  0  0  0
    1.8564   23.7254   66.2023 N   0  0  0  0  0  0  0  0  0  0  0  0
   -1.6159   26.6381   68.1242 N   0  0  0  0  0  0  0  0  0  0  0  0
   -0.7899   26.6617   63.2672 O   0  0  0  0  0  0  0  0  0  0  0  0
    1.5287   25.0605   63.6548 O   0  0  0  0  0  0  0  0  0  0  0  0
  1  2  1  0  0  0  0
  1 12  1  1  0  0  0
  1 13  1  0  0  0  0
  2  3  1  0  0  0  0
  2 10  1  1  0  0  0
  4  3  1  1  0  0  0
  4  5  1  0  0  0  0
  4 14  1  0  0  0  0
  5  6  1  0  0  0  0
  5 13  1  6  0  0  0
  6  7  1  0  0  0  0
  6 15  1  6  0  0  0
  7  8  1  0  0  0  0
  7 11  1  6  0  0  0
  8 14  1  0  0  0  0
  8 16  1  1  0  0  0
  9 11  1  0  0  0  0
 17 16  1  6  0  0  0
 17 18  1  0  0  0  0
 17 24  1  0  0  0  0
 18 19  1  0  0  0  0
 18 25  1  1  0  0  0
 19 20  1  0  0  0  0
 19 26  1  1  0  0  0
 20 21  1  0  0  0  0
 20 23  1  6  0  0  0
 21 22  1  6  0  0  0
 21 24  1  0  0  0  0
 22 27  1  0  0  0  0
 28 12  1  1  0  0  0
 28 29  1  0  0  0  0
 28 33  1  0  0  0  0
 29 30  1  0  0  0  0
 29 36  1  6  0  0  0
 30 31  1  0  0  0  0
 30 37  1  6  0  0  0
 31 32  1  0  0  0  0
 31 34  1  6  0  0  0
 32 33  1  0  0  0  0
 33 35  1  1  0  0  0
M  END
>  <CHROM.1>
176.00979720,58.98902312,-162.58050412,58.77107789,176.23287967,-170.86819122
-5.73463753,27.26136007,65.20853608,-0.14102600,-0.03187924,0.26880567

>  <Name>
ligand

>  <RI>
0

>  <Rbt.Current_Directory>
/home/itssahil/PROJECTS/Mol_Feturizer/Test_systems_manuscript/rnas/2g5k

>  <Rbt.Executable>
rbdock ($Id: //depot/dev/client3/rdock/2013.1/src/exe/rbdock.cxx#4 $)

>  <Rbt.Library>
libRbt.so (2013.1, Build901 2013/11/27)

>  <Rbt.Parameter_File>
/export/apps/rDock/src/rDock_2013.1_src/data/scripts/dock_solv.prm

>  <Rbt.Receptor>
prm/pocket_docking_4.prm

>  <SCORE>
-10.0137

>  <SCORE.INTER>
-5.23027

>  <SCORE.INTER.CONST>
1

>  <SCORE.INTER.POLAR>
0

>  <SCORE.INTER.ROT>
6

>  <SCORE.INTER.SOLV>
14.5193

>  <SCORE.INTER.VDW>
-15.9266

>  <SCORE.INTER.norm>
-0.141359

>  <SCORE.INTRA>
-4.78345

>  <SCORE.INTRA.DIHEDRAL>
-9.51637

>  <SCORE.INTRA.DIHEDRAL.0>
11.3972

>  <SCORE.INTRA.POLAR>
0

>  <SCORE.INTRA.POLAR.0>
0

>  <SCORE.INTRA.REPUL>
0.0126985

>  <SCORE.INTRA.REPUL.0>
0

>  <SCORE.INTRA.SOLV>
-1.67132

>  <SCORE.INTRA.SOLV.lig_0>
-92.3891

>  <SCORE.INTRA.VDW>
0.746908

>  <SCORE.INTRA.VDW.0>
-2.90606

>  <SCORE.INTRA.norm>
-0.129282

>  <SCORE.RESTR>
0

>  <SCORE.RESTR.CAVITY>
0

>  <SCORE.RESTR.norm>
0

>  <SCORE.SYSTEM>
0

>  <SCORE.SYSTEM.CONST>
0

>  <SCORE.SYSTEM.DIHEDRAL>
0

>  <SCORE.SYSTEM.SOLV>
0

>  <SCORE.SYSTEM.norm>
0

>  <SCORE.heavy>
37

>  <SCORE.norm>
-0.270641

>  <RMSD>
4.439

$$$$
ligand
 OpenBabel02271912133D
libRbt.so/2013.1/901 2013/11/27
 37 40  0  0  0  0  0  0  0  0999 V2000
   -2.6434   28.2662   64.3582 C   0  0  1  0  0  0  0  0  0  0  0  0
   -3.6791   29.3688   63.9973 C   0  0  1  0  0  0  0  0  0  0  0  0
   -4.6941   29.6007   65.1328 C   0  0  0  0  0  0  0  0  0  0  0  0
   -5.4066   28.2508   65.4575 C   0  0  1  0  0  0  0  0  0  0  0  0
   -4.3631   27.1622   65.8697 C   0  0  1  0  0  0  0  0  0  0  0  0
   -5.1122   25.7918   66.1947 C   0  0  1  0  0  0  0  0  0  0  0  0
   -6.1283   26.0330   67.3494 C   0  0  1  0  0  0  0  0  0  0  0  0
   -7.1195   27.1479   66.8985 C   0  0  2  0  0  0  0  0  0  0  0  0
   -6.0903   23.5697   68.1500 C   0  0  0  0  0  0  0  0  0  0  0  0
   -2.9950   30.6324   63.6503 N   0  0  0  0  0  0  0  0  0  0  0  0
   -6.8696   24.7579   67.6768 N   0  0  0  0  0  0  0  0  0  0  0  0
   -1.7447   28.6743   65.4080 O   0  0  0  0  0  0  0  0  0  0  0  0
   -3.3828   27.0378   64.7500 O   0  0  0  0  0  0  0  0  0  0  0  0
   -6.4149   28.3911   66.5588 O   0  0  0  0  0  0  0  0  0  0  0  0
   -5.8340   25.3564   65.0499 O   0  0  0  0  0  0  0  0  0  0  0  0
   -8.0574   27.4153   67.9348 O   0  0  0  0  0  0  0  0  0  0  0  0
   -9.1055   28.3410   67.5557 C   0  0  2  0  0  0  0  0  0  0  0  0
  -10.0569   28.6839   68.7264 C   0  0  1  0  0  0  0  0  0  0  0  0
  -10.8793   27.4282   69.1616 C   0  0  2  0  0  0  0  0  0  0  0  0
  -11.7007   26.9452   67.9835 C   0  0  1  0  0  0  0  0  0  0  0  0
  -10.7385   26.5735   66.8157 C   0  0  1  0  0  0  0  0  0  0  0  0
  -11.4934   26.0962   65.5766 C   0  0  0  0  0  0  0  0  0  0  0  0
  -12.5013   25.7667   68.3948 N   0  0  0  0  0  0  0  0  0  0  0  0
   -9.9211   27.7690   66.4430 O   0  0  0  0  0  0  0  0  0  0  0  0
   -9.2469   29.2113   69.8006 O   0  0  0  0  0  0  0  0  0  0  0  0
  -11.7613   27.7726   70.2324 O   0  0  0  0  0  0  0  0  0  0  0  0
  -10.5694   25.6804   64.6004 O   0  0  0  0  0  0  0  0  0  0  0  0
   -0.4964   27.9028   65.7772 C   0  0  1  0  0  0  0  0  0  0  0  0
   -0.9267   26.5652   66.4393 C   0  0  1  0  0  0  0  0  0  0  0  0
    0.3304   25.7396   66.8393 C   0  0  2  0  0  0  0  0  0  0  0  0
    1.1655   25.4389   65.5703 C   0  0  1  0  0  0  0  0  0  0  0  0
    1.6223   26.7760   64.8841 C   0  0  0  0  0  0  0  0  0  0  0  0
    0.3608   27.5838   64.5118 C   0  0  2  0  0  0  0  0  0  0  0  0
    2.3631   24.6460   65.9384 N   0  0  0  0  0  0  0  0  0  0  0  0
    0.7957   28.8307   63.8731 N   0  0  0  0  0  0  0  0  0  0  0  0
   -1.7079   26.8438   67.6223 O   0  0  0  0  0  0  0  0  0  0  0  0
   -0.0971   24.5055   67.4574 O   0  0  0  0  0  0  0  0  0  0  0  0
  1  2  1  0  0  0  0
  1 12  1  1  0  0  0
  1 13  1  0  0  0  0
  2  3  1  0  0  0  0
  2 10  1  1  0  0  0
  4  3  1  1  0  0  0
  4  5  1  0  0  0  0
  4 14  1  0  0  0  0
  5  6  1  0  0  0  0
  5 13  1  6  0  0  0
  6  7  1  0  0  0  0
  6 15  1  6  0  0  0
  7  8  1  0  0  0  0
  7 11  1  6  0  0  0
  8 14  1  0  0  0  0
  8 16  1  1  0  0  0
  9 11  1  0  0  0  0
 17 16  1  1  0  0  0
 17 18  1  0  0  0  0
 17 24  1  0  0  0  0
 18 19  1  0  0  0  0
 18 25  1  1  0  0  0
 19 20  1  0  0  0  0
 19 26  1  1  0  0  0
 20 21  1  0  0  0  0
 20 23  1  1  0  0  0
 21 22  1  6  0  0  0
 21 24  1  0  0  0  0
 22 27  1  0  0  0  0
 28 12  1  6  0  0  0
 28 29  1  0  0  0  0
 28 33  1  0  0  0  0
 29 30  1  0  0  0  0
 29 36  1  1  0  0  0
 30 31  1  0  0  0  0
 30 37  1  6  0  0  0
 31 32  1  0  0  0  0
 31 34  1  1  0  0  0
 32 33  1  0  0  0  0
 33 35  1  1  0  0  0
M  END
>  <CHROM.1>
-168.58981575,61.03741170,-173.94459829,-69.47386000,-176.29282567,-175.50044644
-5.32122722,27.08665808,66.47185874,0.10515759,0.20018877,-0.56158807

>  <Name>
ligand

>  <RI>
0

>  <Rbt.Current_Directory>
/home/itssahil/PROJECTS/Mol_Feturizer/Test_systems_manuscript/rnas/2g5k

>  <Rbt.Executable>
rbdock ($Id: //depot/dev/client3/rdock/2013.1/src/exe/rbdock.cxx#4 $)

>  <Rbt.Library>
libRbt.so (2013.1, Build901 2013/11/27)

>  <Rbt.Parameter_File>
/export/apps/rDock/src/rDock_2013.1_src/data/scripts/dock_solv.prm

>  <Rbt.Receptor>
prm/pocket_docking_5.prm

>  <SCORE>
-6.74136

>  <SCORE.INTER>
-1.39666

>  <SCORE.INTER.CONST>
1

>  <SCORE.INTER.POLAR>
0

>  <SCORE.INTER.ROT>
6

>  <SCORE.INTER.SOLV>
12.898

>  <SCORE.INTER.VDW>
-12.8305

>  <SCORE.INTER.norm>
-0.0377476

>  <SCORE.INTRA>
-5.3447

>  <SCORE.INTRA.DIHEDRAL>
-9.98171

>  <SCORE.INTRA.DIHEDRAL.0>
11.3972

>  <SCORE.INTRA.POLAR>
0

>  <SCORE.INTRA.POLAR.0>
0

>  <SCORE.INTRA.REPUL>
0

>  <SCORE.INTRA.REPUL.0>
0

>  <SCORE.INTRA.SOLV>
-0.780668

>  <SCORE.INTRA.SOLV.lig_0>
-92.3891

>  <SCORE.INTRA.VDW>
0.0364836

>  <SCORE.INTRA.VDW.0>
-2.90606

>  <SCORE.INTRA.norm>
-0.144451

>  <SCORE.RESTR>
0

>  <SCORE.RESTR.CAVITY>
0

>  <SCORE.RESTR.norm>
0

>  <SCORE.SYSTEM>
0

>  <SCORE.SYSTEM.CONST>
0

>  <SCORE.SYSTEM.DIHEDRAL>
0

>  <SCORE.SYSTEM.SOLV>
0

>  <SCORE.SYSTEM.norm>
0

>  <SCORE.heavy>
37

>  <SCORE.norm>
-0.182199

>  <RMSD>
4.448

$$$$
ligand
 OpenBabel02271912133D
libRbt.so/2013.1/901 2013/11/27
 37 40  0  0  0  0  0  0  0  0999 V2000
   -3.1662   28.8540   64.1242 C   0  0  1  0  0  0  0  0  0  0  0  0
   -3.9803   30.0989   64.5781 C   0  0  1  0  0  0  0  0  0  0  0  0
   -5.0581   29.7359   65.6173 C   0  0  0  0  0  0  0  0  0  0  0  0
   -5.9967   28.6458   65.0123 C   0  0  1  0  0  0  0  0  0  0  0  0
   -5.1781   27.3774   64.6066 C   0  0  1  0  0  0  0  0  0  0  0  0
   -6.1559   26.2783   63.9895 C   0  0  1  0  0  0  0  0  0  0  0  0
   -7.2353   25.9103   65.0494 C   0  0  1  0  0  0  0  0  0  0  0  0
   -7.9946   27.2135   65.4413 C   0  0  2  0  0  0  0  0  0  0  0  0
   -7.7014   23.4807   64.2809 C   0  0  0  0  0  0  0  0  0  0  0  0
   -3.0804   31.1436   65.1110 N   0  0  0  0  0  0  0  0  0  0  0  0
   -8.1912   24.8797   64.4952 N   0  0  0  0  0  0  0  0  0  0  0  0
   -2.3271   28.3302   65.1720 O   0  0  0  0  0  0  0  0  0  0  0  0
   -4.1197   27.8173   63.6494 O   0  0  0  0  0  0  0  0  0  0  0  0
   -7.0785   28.2345   65.9663 O   0  0  0  0  0  0  0  0  0  0  0  0
   -6.8156   26.8099   62.8478 O   0  0  0  0  0  0  0  0  0  0  0  0
   -8.9812   26.9262   66.4258 O   0  0  0  0  0  0  0  0  0  0  0  0
   -9.9662   27.9750   66.5957 C   0  0  2  0  0  0  0  0  0  0  0  0
  -10.9547   27.6897   67.7511 C   0  0  1  0  0  0  0  0  0  0  0  0
  -11.8540   26.4547   67.4221 C   0  0  2  0  0  0  0  0  0  0  0  0
  -12.6407   26.7409   66.1591 C   0  0  1  0  0  0  0  0  0  0  0  0
  -11.6428   26.9997   64.9908 C   0  0  1  0  0  0  0  0  0  0  0  0
  -12.3599   27.3194   63.6805 C   0  0  0  0  0  0  0  0  0  0  0  0
  -13.5135   25.5820   65.8524 N   0  0  0  0  0  0  0  0  0  0  0  0
  -10.7542   28.1508   65.3393 O   0  0  0  0  0  0  0  0  0  0  0  0
  -10.1726   27.4977   68.9508 O   0  0  0  0  0  0  0  0  0  0  0  0
  -12.7685   26.2202   68.4954 O   0  0  0  0  0  0  0  0  0  0  0  0
  -13.1454   28.4743   63.8499 O   0  0  0  0  0  0  0  0  0  0  0  0
   -0.9096   27.8545   64.9390 C   0  0  1  0  0  0  0  0  0  0  0  0
   -0.3967   27.1890   66.2455 C   0  0  1  0  0  0  0  0  0  0  0  0
    1.0635   26.6874   66.0506 C   0  0  2  0  0  0  0  0  0  0  0  0
    1.0955   25.6514   64.9000 C   0  0  1  0  0  0  0  0  0  0  0  0
    0.5894   26.3008   63.5624 C   0  0  0  0  0  0  0  0  0  0  0  0
   -0.8526   26.8046   63.7848 C   0  0  2  0  0  0  0  0  0  0  0  0
    2.4817   25.1608   64.7098 N   0  0  0  0  0  0  0  0  0  0  0  0
   -1.3172   27.4105   62.5322 N   0  0  0  0  0  0  0  0  0  0  0  0
   -0.4279   28.1535   67.3207 O   0  0  0  0  0  0  0  0  0  0  0  0
    1.5178   26.0794   67.2802 O   0  0  0  0  0  0  0  0  0  0  0  0
  1  2  1  0  0  0  0
  1 12  1  1  0  0  0
  1 13  1  0  0  0  0
  2  3  1  0  0  0  0
  2 10  1  1  0  0  0
  4  3  1  1  0  0  0
  4  5  1  0  0  0  0
  4 14  1  0  0  0  0
  5  6  1  0  0  0  0
  5 13  1  6  0  0  0
  6  7  1  0  0  0  0
  6 15  1  6  0  0  0
  7  8  1  0  0  0  0
  7 11  1  6  0  0  0
  8 14  1  0  0  0  0
  8 16  1  1  0  0  0
  9 11  1  0  0  0  0
 17 16  1  6  0  0  0
 17 18  1  0  0  0  0
 17 24  1  0  0  0  0
 18 19  1  0  0  0  0
 18 25  1  1  0  0  0
 19 20  1  0  0  0  0
 19 26  1  1  0  0  0
 20 21  1  0  0  0  0
 20 23  1  6  0  0  0
 21 22  1  6  0  0  0
 21 24  1  0  0  0  0
 22 27  1  0  0  0  0
 28 12  1  1  0  0  0
 28 29  1  0  0  0  0
 28 33  1  0  0  0  0
 29 30  1  0  0  0  0
 29 36  1  1  0  0  0
 30 31  1  0  0  0  0
 30 37  1  1  0  0  0
 31 32  1  0  0  0  0
 31 34  1  6  0  0  0
 32 33  1  0  0  0  0
 33 35  1  6  0  0  0
M  END
>  <CHROM.1>
-138.28754156,70.61131041,-164.41639011,-172.48692196,-175.19660913,60.06046319
-5.99391392,27.24850484,65.33972869,0.06768226,-0.04815847,-2.03744926

>  <Name>
ligand

>  <RI>
0

>  <Rbt.Current_Directory>
/home/itssahil/PROJECTS/Mol_Feturizer/Test_systems_manuscript/rnas/2g5k

>  <Rbt.Executable>
rbdock ($Id: //depot/dev/client3/rdock/2013.1/src/exe/rbdock.cxx#4 $)

>  <Rbt.Library>
libRbt.so (2013.1, Build901 2013/11/27)

>  <Rbt.Parameter_File>
/export/apps/rDock/src/rDock_2013.1_src/data/scripts/dock_solv.prm

>  <Rbt.Receptor>
prm/pocket_docking_5.prm

>  <SCORE>
-4.80693

>  <SCORE.INTER>
-3.5778

>  <SCORE.INTER.CONST>
1

>  <SCORE.INTER.POLAR>
0

>  <SCORE.INTER.ROT>
6

>  <SCORE.INTER.SOLV>
11.709

>  <SCORE.INTER.VDW>
-13.8882

>  <SCORE.INTER.norm>
-0.0966974

>  <SCORE.INTRA>
-1.22912

>  <SCORE.INTRA.DIHEDRAL>
-4.0935

>  <SCORE.INTRA.DIHEDRAL.0>
11.3972

>  <SCORE.INTRA.POLAR>
0

>  <SCORE.INTRA.POLAR.0>
0

>  <SCORE.INTRA.REPUL>
0

>  <SCORE.INTRA.REPUL.0>
0

>  <SCORE.INTRA.SOLV>
0.785475

>  <SCORE.INTRA.SOLV.lig_0>
-92.3891

>  <SCORE.INTRA.VDW>
0.424891

>  <SCORE.INTRA.VDW.0>
-2.90606

>  <SCORE.INTRA.norm>
-0.0332195

>  <SCORE.RESTR>
0

>  <SCORE.RESTR.CAVITY>
0

>  <SCORE.RESTR.norm>
0

>  <SCORE.SYSTEM>
0

>  <SCORE.SYSTEM.CONST>
0

>  <SCORE.SYSTEM.DIHEDRAL>
0

>  <SCORE.SYSTEM.SOLV>
0

>  <SCORE.SYSTEM.norm>
0

>  <SCORE.heavy>
37

>  <SCORE.norm>
-0.129917

>  <RMSD>
4.453

$$$$
ligand
 OpenBabel02271912133D
libRbt.so/2013.1/901 2013/11/27
 37 40  0  0  0  0  0  0  0  0999 V2000
    0.9484   27.7734   62.9827 C   0  0  1  0  0  0  0  0  0  0  0  0
    1.0976   29.3157   62.8493 C   0  0  1  0  0  0  0  0  0  0  0  0
    0.2107   30.0704   63.8579 C   0  0  0  0  0  0  0  0  0  0  0  0
   -1.2732   29.6335   63.6520 C   0  0  1  0  0  0  0  0  0  0  0  0
   -1.4239   28.0889   63.8391 C   0  0  1  0  0  0  0  0  0  0  0  0
   -2.9464   27.6648   63.6224 C   0  0  1  0  0  0  0  0  0  0  0  0
   -3.8338   28.4242   64.6518 C   0  0  1  0  0  0  0  0  0  0  0  0
   -3.6181   29.9535   64.4433 C   0  0  2  0  0  0  0  0  0  0  0  0
   -5.7603   26.7154   64.9327 C   0  0  0  0  0  0  0  0  0  0  0  0
    2.5118   29.7174   63.0036 N   0  0  0  0  0  0  0  0  0  0  0  0
   -5.2882   28.0586   64.4680 N   0  0  0  0  0  0  0  0  0  0  0  0
    1.4989   27.2694   64.2153 O   0  0  0  0  0  0  0  0  0  0  0  0
   -0.4937   27.4302   62.8742 O   0  0  0  0  0  0  0  0  0  0  0  0
   -2.2060   30.3257   64.6009 O   0  0  0  0  0  0  0  0  0  0  0  0
   -3.3658   28.0335   62.3150 O   0  0  0  0  0  0  0  0  0  0  0  0
   -4.3981   30.6884   65.3795 O   0  0  0  0  0  0  0  0  0  0  0  0
   -5.8013   30.7830   65.0311 C   0  0  2  0  0  0  0  0  0  0  0  0
   -6.0967   31.9264   64.0316 C   0  0  1  0  0  0  0  0  0  0  0  0
   -5.8338   33.3205   64.6872 C   0  0  2  0  0  0  0  0  0  0  0  0
   -6.7364   33.4749   65.8944 C   0  0  1  0  0  0  0  0  0  0  0  0
   -6.4171   32.3389   66.9119 C   0  0  1  0  0  0  0  0  0  0  0  0
   -7.3043   32.4109   68.1533 C   0  0  0  0  0  0  0  0  0  0  0  0
   -6.5089   34.8049   66.5093 N   0  0  0  0  0  0  0  0  0  0  0  0
   -6.6229   31.0103   66.2573 O   0  0  0  0  0  0  0  0  0  0  0  0
   -5.2746   31.7027   62.8645 O   0  0  0  0  0  0  0  0  0  0  0  0
   -6.1281   34.3603   63.7516 O   0  0  0  0  0  0  0  0  0  0  0  0
   -6.9619   31.3661   69.0311 O   0  0  0  0  0  0  0  0  0  0  0  0
    1.7998   25.8053   64.4513 C   0  0  1  0  0  0  0  0  0  0  0  0
    2.9548   25.3847   63.5018 C   0  0  1  0  0  0  0  0  0  0  0  0
    3.2948   23.8803   63.7095 C   0  0  2  0  0  0  0  0  0  0  0  0
    3.7305   23.6561   65.1786 C   0  0  1  0  0  0  0  0  0  0  0  0
    2.5763   24.0657   66.1621 C   0  0  0  0  0  0  0  0  0  0  0  0
    2.2460   25.5549   65.9265 C   0  0  2  0  0  0  0  0  0  0  0  0
    4.0640   22.2265   65.3867 N   0  0  0  0  0  0  0  0  0  0  0  0
    1.1670   25.9290   66.8473 N   0  0  0  0  0  0  0  0  0  0  0  0
    2.5509   25.5952   62.1307 O   0  0  0  0  0  0  0  0  0  0  0  0
    4.3659   23.5139   62.8116 O   0  0  0  0  0  0  0  0  0  0  0  0
  1  2  1  0  0  0  0
  1 12  1  1  0  0  0
  1 13  1  0  0  0  0
  2  3  1  0  0  0  0
  2 10  1  1  0  0  0
  4  3  1  1  0  0  0
  4  5  1  0  0  0  0
  4 14  1  0  0  0  0
  5  6  1  0  0  0  0
  5 13  1  6  0  0  0
  6  7  1  0  0  0  0
  6 15  1  6  0  0  0
  7  8  1  0  0  0  0
  7 11  1  6  0  0  0
  8 14  1  0  0  0  0
  8 16  1  1  0  0  0
  9 11  1  0  0  0  0
 17 16  1  1  0  0  0
 17 18  1  0  0  0  0
 17 24  1  0  0  0  0
 18 19  1  0  0  0  0
 18 25  1  6  0  0  0
 19 20  1  0  0  0  0
 19 26  1  6  0  0  0
 20 21  1  0  0  0  0
 20 23  1  1  0  0  0
 21 22  1  1  0  0  0
 21 24  1  0  0  0  0
 22 27  1  0  0  0  0
 28 12  1  1  0  0  0
 28 29  1  0  0  0  0
 28 33  1  0  0  0  0
 29 30  1  0  0  0  0
 29 36  1  6  0  0  0
 30 31  1  0  0  0  0
 30 37  1  6  0  0  0
 31 32  1  0  0  0  0
 31 34  1  6  0  0  0
 32 33  1  0  0  0  0
 33 35  1  1  0  0  0
M  END
>  <CHROM.1>
-164.26897649,74.32215631,-78.08923464,66.52046178,-83.42037300,-179.70565001
-1.91176036,28.72909578,64.60870873,-0.38647795,0.57995036,-0.71958054

>  <Name>
ligand

>  <RI>
0

>  <Rbt.Current_Directory>
/home/itssahil/PROJECTS/Mol_Feturizer/Test_systems_manuscript/rnas/2g5k

>  <Rbt.Executable>
rbdock ($Id: //depot/dev/client3/rdock/2013.1/src/exe/rbdock.cxx#4 $)

>  <Rbt.Library>
libRbt.so (2013.1, Build901 2013/11/27)

>  <Rbt.Parameter_File>
/export/apps/rDock/src/rDock_2013.1_src/data/scripts/dock_solv.prm

>  <Rbt.Receptor>
prm/pocket_docking_7.prm

>  <SCORE>
-14.4898

>  <SCORE.INTER>
-11.887

>  <SCORE.INTER.CONST>
1

>  <SCORE.INTER.POLAR>
0

>  <SCORE.INTER.ROT>
6

>  <SCORE.INTER.SOLV>
19.0429

>  <SCORE.INTER.VDW>
-21.8723

>  <SCORE.INTER.norm>
-0.32127

>  <SCORE.INTRA>
-2.60287

>  <SCORE.INTRA.DIHEDRAL>
-5.96897

>  <SCORE.INTRA.DIHEDRAL.0>
11.3972

>  <SCORE.INTRA.POLAR>
0

>  <SCORE.INTRA.POLAR.0>
0

>  <SCORE.INTRA.REPUL>
0

>  <SCORE.INTRA.REPUL.0>
0

>  <SCORE.INTRA.SOLV>
-0.583396

>  <SCORE.INTRA.SOLV.lig_0>
-92.3891

>  <SCORE.INTRA.VDW>
0.673306

>  <SCORE.INTRA.VDW.0>
-2.90606

>  <SCORE.INTRA.norm>
-0.070348

>  <SCORE.RESTR>
0

>  <SCORE.RESTR.CAVITY>
0

>  <SCORE.RESTR.norm>
0

>  <SCORE.SYSTEM>
0

>  <SCORE.SYSTEM.CONST>
0

>  <SCORE.SYSTEM.DIHEDRAL>
0

>  <SCORE.SYSTEM.SOLV>
0

>  <SCORE.SYSTEM.norm>
0

>  <SCORE.heavy>
37

>  <SCORE.norm>
-0.391617

>  <RMSD>
4.528

$$$$
ligand
 OpenBabel02271912133D
libRbt.so/2013.1/901 2013/11/27
 37 40  0  0  0  0  0  0  0  0999 V2000
    0.6133   27.8364   63.1865 C   0  0  1  0  0  0  0  0  0  0  0  0
    0.6688   29.3905   63.1712 C   0  0  1  0  0  0  0  0  0  0  0  0
   -0.3105   30.0127   64.1847 C   0  0  0  0  0  0  0  0  0  0  0  0
   -1.7520   29.5028   63.8732 C   0  0  1  0  0  0  0  0  0  0  0  0
   -1.8114   27.9423   63.9417 C   0  0  1  0  0  0  0  0  0  0  0  0
   -3.2917   27.4435   63.6184 C   0  0  1  0  0  0  0  0  0  0  0  0
   -4.2728   28.0688   64.6530 C   0  0  1  0  0  0  0  0  0  0  0  0
   -4.1467   29.6196   64.5653 C   0  0  2  0  0  0  0  0  0  0  0  0
   -6.1127   26.2488   64.7665 C   0  0  0  0  0  0  0  0  0  0  0  0
    2.0456   29.8650   63.4254 N   0  0  0  0  0  0  0  0  0  0  0  0
   -5.6906   27.6300   64.3699 N   0  0  0  0  0  0  0  0  0  0  0  0
    1.1376   27.2766   64.4063 O   0  0  0  0  0  0  0  0  0  0  0  0
   -0.7971   27.4150   62.9808 O   0  0  0  0  0  0  0  0  0  0  0  0
   -2.7703   30.0643   64.8205 O   0  0  0  0  0  0  0  0  0  0  0  0
   -3.6732   27.8822   62.3210 O   0  0  0  0  0  0  0  0  0  0  0  0
   -5.0148   30.2340   65.5107 O   0  0  0  0  0  0  0  0  0  0  0  0
   -4.9213   31.6795   65.5433 C   0  0  2  0  0  0  0  0  0  0  0  0
   -5.8451   32.3177   66.6076 C   0  0  1  0  0  0  0  0  0  0  0  0
   -7.3489   32.1014   66.2412 C   0  0  2  0  0  0  0  0  0  0  0  0
   -7.6258   32.7449   64.8976 C   0  0  1  0  0  0  0  0  0  0  0  0
   -6.7145   32.0806   63.8224 C   0  0  1  0  0  0  0  0  0  0  0  0
   -6.9178   32.6917   62.4374 C   0  0  0  0  0  0  0  0  0  0  0  0
   -9.0566   32.5631   64.5530 N   0  0  0  0  0  0  0  0  0  0  0  0
   -5.2803   32.2497   64.2105 O   0  0  0  0  0  0  0  0  0  0  0  0
   -5.4998   31.7353   67.8841 O   0  0  0  0  0  0  0  0  0  0  0  0
   -8.1821   32.7122   67.2290 O   0  0  0  0  0  0  0  0  0  0  0  0
   -6.5735   34.0553   62.4754 O   0  0  0  0  0  0  0  0  0  0  0  0
    1.5335   25.8229   64.5483 C   0  0  1  0  0  0  0  0  0  0  0  0
    2.7099   25.5397   63.5743 C   0  0  1  0  0  0  0  0  0  0  0  0
    3.1473   24.0503   63.6854 C   0  0  2  0  0  0  0  0  0  0  0  0
    3.6020   23.7614   65.1373 C   0  0  1  0  0  0  0  0  0  0  0  0
    2.4274   24.0315   66.1445 C   0  0  0  0  0  0  0  0  0  0  0  0
    2.0005   25.5082   66.0045 C   0  0  2  0  0  0  0  0  0  0  0  0
    4.0281   22.3460   65.2535 N   0  0  0  0  0  0  0  0  0  0  0  0
    0.9030   25.7519   66.9469 N   0  0  0  0  0  0  0  0  0  0  0  0
    2.2882   25.8108   62.2193 O   0  0  0  0  0  0  0  0  0  0  0  0
    4.2366   23.8123   62.7663 O   0  0  0  0  0  0  0  0  0  0  0  0
  1  2  1  0  0  0  0
  1 12  1  1  0  0  0
  1 13  1  0  0  0  0
  2  3  1  0  0  0  0
  2 10  1  1  0  0  0
  4  3  1  1  0  0  0
  4  5  1  0  0  0  0
  4 14  1  0  0  0  0
  5  6  1  0  0  0  0
  5 13  1  6  0  0  0
  6  7  1  0  0  0  0
  6 15  1  6  0  0  0
  7  8  1  0  0  0  0
  7 11  1  6  0  0  0
  8 14  1  0  0  0  0
  8 16  1  1  0  0  0
  9 11  1  0  0  0  0
 17 16  1  6  0  0  0
 17 18  1  0  0  0  0
 17 24  1  0  0  0  0
 18 19  1  0  0  0  0
 18 25  1  1  0  0  0
 19 20  1  0  0  0  0
 19 26  1  1  0  0  0
 20 21  1  0  0  0  0
 20 23  1  6  0  0  0
 21 22  1  6  0  0  0
 21 24  1  0  0  0  0
 22 27  1  0  0  0  0
 28 12  1  1  0  0  0
 28 29  1  0  0  0  0
 28 33  1  0  0  0  0
 29 30  1  0  0  0  0
 29 36  1  6  0  0  0
 30 31  1  0  0  0  0
 30 37  1  6  0  0  0
 31 32  1  0  0  0  0
 31 34  1  6  0  0  0
 32 33  1  0  0  0  0
 33 35  1  1  0  0  0
M  END
>  <CHROM.1>
-163.65930973,76.90467176,177.37406744,63.31142861,-178.33300646,61.76412827
-2.26073034,28.67247397,64.47528688,-0.44120628,0.48581299,-0.67943490

>  <Name>
ligand

>  <RI>
0

>  <Rbt.Current_Directory>
/home/itssahil/PROJECTS/Mol_Feturizer/Test_systems_manuscript/rnas/2g5k

>  <Rbt.Executable>
rbdock ($Id: //depot/dev/client3/rdock/2013.1/src/exe/rbdock.cxx#4 $)

>  <Rbt.Library>
libRbt.so (2013.1, Build901 2013/11/27)

>  <Rbt.Parameter_File>
/export/apps/rDock/src/rDock_2013.1_src/data/scripts/dock_solv.prm

>  <Rbt.Receptor>
prm/pocket_docking_4.prm

>  <SCORE>
-15.7918

>  <SCORE.INTER>
-11.1699

>  <SCORE.INTER.CONST>
1

>  <SCORE.INTER.POLAR>
0

>  <SCORE.INTER.ROT>
6

>  <SCORE.INTER.SOLV>
16.2208

>  <SCORE.INTER.VDW>
-20.4535

>  <SCORE.INTER.norm>
-0.301889

>  <SCORE.INTRA>
-4.62191

>  <SCORE.INTRA.DIHEDRAL>
-9.78882

>  <SCORE.INTRA.DIHEDRAL.0>
11.3972

>  <SCORE.INTRA.POLAR>
0

>  <SCORE.INTRA.POLAR.0>
0

>  <SCORE.INTRA.REPUL>
0

>  <SCORE.INTRA.REPUL.0>
0

>  <SCORE.INTRA.SOLV>
-1.15641

>  <SCORE.INTRA.SOLV.lig_0>
-92.3891

>  <SCORE.INTRA.VDW>
0.850705

>  <SCORE.INTRA.VDW.0>
-2.90606

>  <SCORE.INTRA.norm>
-0.124916

>  <SCORE.RESTR>
0

>  <SCORE.RESTR.CAVITY>
0

>  <SCORE.RESTR.norm>
0

>  <SCORE.SYSTEM>
0

>  <SCORE.SYSTEM.CONST>
0

>  <SCORE.SYSTEM.DIHEDRAL>
0

>  <SCORE.SYSTEM.SOLV>
0

>  <SCORE.SYSTEM.norm>
0

>  <SCORE.heavy>
37

>  <SCORE.norm>
-0.426806

>  <RMSD>
4.561

$$$$
ligand
 OpenBabel02271912133D
libRbt.so/2013.1/901 2013/11/27
 37 40  0  0  0  0  0  0  0  0999 V2000
    0.6062   27.8087   63.1757 C   0  0  1  0  0  0  0  0  0  0  0  0
    0.6671   29.3625   63.1562 C   0  0  1  0  0  0  0  0  0  0  0  0
   -0.3071   29.9908   64.1709 C   0  0  0  0  0  0  0  0  0  0  0  0
   -1.7513   29.4853   63.8647 C   0  0  1  0  0  0  0  0  0  0  0  0
   -1.8160   27.9251   63.9374 C   0  0  1  0  0  0  0  0  0  0  0  0
   -3.2990   27.4307   63.6196 C   0  0  1  0  0  0  0  0  0  0  0  0
   -4.2749   28.0622   64.6553 C   0  0  1  0  0  0  0  0  0  0  0  0
   -4.1436   29.6123   64.5632 C   0  0  2  0  0  0  0  0  0  0  0  0
   -6.1283   26.2583   64.8018 C   0  0  0  0  0  0  0  0  0  0  0  0
    2.0463   29.8327   63.4052 N   0  0  0  0  0  0  0  0  0  0  0  0
   -5.6951   27.6277   64.3774 N   0  0  0  0  0  0  0  0  0  0  0  0
    1.1319   27.2501   64.3955 O   0  0  0  0  0  0  0  0  0  0  0  0
   -0.8063   27.3917   62.9750 O   0  0  0  0  0  0  0  0  0  0  0  0
   -2.7650   30.0528   64.8134 O   0  0  0  0  0  0  0  0  0  0  0  0
   -3.6826   27.8675   62.3221 O   0  0  0  0  0  0  0  0  0  0  0  0
   -5.0069   30.2323   65.5095 O   0  0  0  0  0  0  0  0  0  0  0  0
   -4.9056   31.6773   65.5405 C   0  0  2  0  0  0  0  0  0  0  0  0
   -5.8067   32.3199   66.6215 C   0  0  1  0  0  0  0  0  0  0  0  0
   -7.3179   32.1110   66.2826 C   0  0  2  0  0  0  0  0  0  0  0  0
   -7.6161   32.7562   64.9444 C   0  0  1  0  0  0  0  0  0  0  0  0
   -6.7279   32.0876   63.8527 C   0  0  1  0  0  0  0  0  0  0  0  0
   -6.9534   32.7000   62.4716 C   0  0  0  0  0  0  0  0  0  0  0  0
   -9.0538   32.5816   64.6259 N   0  0  0  0  0  0  0  0  0  0  0  0
   -5.2860   32.2495   64.2145 O   0  0  0  0  0  0  0  0  0  0  0  0
   -5.4411   31.7355   67.8915 O   0  0  0  0  0  0  0  0  0  0  0  0
   -8.1299   32.7258   67.2855 O   0  0  0  0  0  0  0  0  0  0  0  0
   -6.5882   34.0584   62.4998 O   0  0  0  0  0  0  0  0  0  0  0  0
    1.5264   25.7962   64.5390 C   0  0  1  0  0  0  0  0  0  0  0  0
    2.7067   25.5123   63.5701 C   0  0  1  0  0  0  0  0  0  0  0  0
    3.1428   24.0227   63.6830 C   0  0  2  0  0  0  0  0  0  0  0  0
    3.5911   23.7334   65.1368 C   0  0  1  0  0  0  0  0  0  0  0  0
    2.4123   24.0042   66.1390 C   0  0  0  0  0  0  0  0  0  0  0  0
    1.9869   25.4812   65.9973 C   0  0  2  0  0  0  0  0  0  0  0  0
    4.0159   22.3178   65.2547 N   0  0  0  0  0  0  0  0  0  0  0  0
    0.8855   25.7254   66.9349 N   0  0  0  0  0  0  0  0  0  0  0  0
    2.2909   25.7838   62.2133 O   0  0  0  0  0  0  0  0  0  0  0  0
    4.2358   23.7841   62.7685 O   0  0  0  0  0  0  0  0  0  0  0  0
  1  2  1  0  0  0  0
  1 12  1  1  0  0  0
  1 13  1  0  0  0  0
  2  3  1  0  0  0  0
  2 10  1  1  0  0  0
  4  3  1  1  0  0  0
  4  5  1  0  0  0  0
  4 14  1  0  0  0  0
  5  6  1  0  0  0  0
  5 13  1  6  0  0  0
  6  7  1  0  0  0  0
  6 15  1  6  0  0  0
  7  8  1  0  0  0  0
  7 11  1  6  0  0  0
  8 14  1  0  0  0  0
  8 16  1  1  0  0  0
  9 11  1  0  0  0  0
 17 16  1  6  0  0  0
 17 18  1  0  0  0  0
 17 24  1  0  0  0  0
 18 19  1  0  0  0  0
 18 25  1  1  0  0  0
 19 20  1  0  0  0  0
 19 26  1  1  0  0  0
 20 21  1  0  0  0  0
 20 23  1  6  0  0  0
 21 22  1  6  0  0  0
 21 24  1  0  0  0  0
 22 27  1  0  0  0  0
 28 12  1  1  0  0  0
 28 29  1  0  0  0  0
 28 33  1  0  0  0  0
 29 30  1  0  0  0  0
 29 36  1  6  0  0  0
 30 31  1  0  0  0  0
 30 37  1  6  0  0  0
 31 32  1  0  0  0  0
 31 34  1  6  0  0  0
 32 33  1  0  0  0  0
 33 35  1  1  0  0  0
M  END
>  <CHROM.1>
-163.49794593,78.03451608,177.22111768,63.66874911,-177.38038734,62.38459583
-2.26020723,28.66061081,64.48169366,-0.43903721,0.49251935,-0.68445548

>  <Name>
ligand

>  <RI>
0

>  <Rbt.Current_Directory>
/home/itssahil/PROJECTS/Mol_Feturizer/Test_systems_manuscript/rnas/2g5k

>  <Rbt.Executable>
rbdock ($Id: //depot/dev/client3/rdock/2013.1/src/exe/rbdock.cxx#4 $)

>  <Rbt.Library>
libRbt.so (2013.1, Build901 2013/11/27)

>  <Rbt.Parameter_File>
/export/apps/rDock/src/rDock_2013.1_src/data/scripts/dock_solv.prm

>  <Rbt.Receptor>
prm/pocket_docking_4.prm

>  <SCORE>
-15.74

>  <SCORE.INTER>
-11.139

>  <SCORE.INTER.CONST>
1

>  <SCORE.INTER.POLAR>
0

>  <SCORE.INTER.ROT>
6

>  <SCORE.INTER.SOLV>
16.22

>  <SCORE.INTER.VDW>
-20.4327

>  <SCORE.INTER.norm>
-0.301055

>  <SCORE.INTRA>
-4.60688

>  <SCORE.INTRA.DIHEDRAL>
-9.69182

>  <SCORE.INTRA.DIHEDRAL.0>
11.3972

>  <SCORE.INTRA.POLAR>
0

>  <SCORE.INTRA.POLAR.0>
0

>  <SCORE.INTRA.REPUL>
0

>  <SCORE.INTRA.REPUL.0>
0

>  <SCORE.INTRA.SOLV>
-1.15765

>  <SCORE.INTRA.SOLV.lig_0>
-92.3891

>  <SCORE.INTRA.VDW>
0.817858

>  <SCORE.INTRA.VDW.0>
-2.90606

>  <SCORE.INTRA.norm>
-0.12451

>  <SCORE.RESTR>
0.00591628

>  <SCORE.RESTR.CAVITY>
0.00591628

>  <SCORE.RESTR.norm>
0.000159899

>  <SCORE.SYSTEM>
0

>  <SCORE.SYSTEM.CONST>
0

>  <SCORE.SYSTEM.DIHEDRAL>
0

>  <SCORE.SYSTEM.SOLV>
0

>  <SCORE.SYSTEM.norm>
0

>  <SCORE.heavy>
37

>  <SCORE.norm>
-0.425405

>  <RMSD>
4.563

$$$$
ligand
 OpenBabel02271912133D
libRbt.so/2013.1/901 2013/11/27
 37 40  0  0  0  0  0  0  0  0999 V2000
   -1.0470   26.1688   66.8545 C   0  0  1  0  0  0  0  0  0  0  0  0
   -1.1710   26.8737   65.4738 C   0  0  1  0  0  0  0  0  0  0  0  0
   -2.3914   27.8120   65.4127 C   0  0  0  0  0  0  0  0  0  0  0  0
   -3.6777   26.9900   65.7370 C   0  0  1  0  0  0  0  0  0  0  0  0
   -3.5667   26.3273   67.1484 C   0  0  1  0  0  0  0  0  0  0  0  0
   -4.8898   25.4916   67.4580 C   0  0  1  0  0  0  0  0  0  0  0  0
   -6.1163   26.4490   67.4041 C   0  0  1  0  0  0  0  0  0  0  0  0
   -6.1574   27.1057   65.9914 C   0  0  2  0  0  0  0  0  0  0  0  0
   -8.5346   26.4059   68.3318 C   0  0  0  0  0  0  0  0  0  0  0  0
    0.0671   27.6156   65.1547 N   0  0  0  0  0  0  0  0  0  0  0  0
   -7.3931   25.6893   67.6787 N   0  0  0  0  0  0  0  0  0  0  0  0
   -0.7035   27.0838   67.9133 O   0  0  0  0  0  0  0  0  0  0  0  0
   -2.3334   25.4853   67.1498 O   0  0  0  0  0  0  0  0  0  0  0  0
   -4.9163   27.8349   65.6990 O   0  0  0  0  0  0  0  0  0  0  0  0
   -5.0652   24.4866   66.4678 O   0  0  0  0  0  0  0  0  0  0  0  0
   -7.2555   28.0065   65.9037 O   0  0  0  0  0  0  0  0  0  0  0  0
   -7.6798   28.2872   64.5471 C   0  0  2  0  0  0  0  0  0  0  0  0
   -8.4002   29.6497   64.4124 C   0  0  1  0  0  0  0  0  0  0  0  0
   -9.7621   29.6374   65.1788 C   0  0  2  0  0  0  0  0  0  0  0  0
  -10.6452   28.5526   64.5963 C   0  0  1  0  0  0  0  0  0  0  0  0
   -9.9299   27.1780   64.7589 C   0  0  1  0  0  0  0  0  0  0  0  0
  -10.7490   26.0292   64.1736 C   0  0  0  0  0  0  0  0  0  0  0  0
  -11.9484   28.5493   65.3038 N   0  0  0  0  0  0  0  0  0  0  0  0
   -8.6059   27.2193   64.0650 O   0  0  0  0  0  0  0  0  0  0  0  0
   -7.4990   30.6653   64.9068 O   0  0  0  0  0  0  0  0  0  0  0  0
  -10.4160   30.8994   65.0273 O   0  0  0  0  0  0  0  0  0  0  0  0
  -10.0823   24.8136   64.4126 O   0  0  0  0  0  0  0  0  0  0  0  0
    0.5898   27.8689   67.9435 C   0  0  1  0  0  0  0  0  0  0  0  0
    0.5416   28.8434   69.1522 C   0  0  1  0  0  0  0  0  0  0  0  0
    1.8548   29.6758   69.2186 C   0  0  2  0  0  0  0  0  0  0  0  0
    3.0579   28.7145   69.3819 C   0  0  1  0  0  0  0  0  0  0  0  0
    3.1363   27.7218   68.1671 C   0  0  0  0  0  0  0  0  0  0  0  0
    1.8183   26.9202   68.1121 C   0  0  2  0  0  0  0  0  0  0  0  0
    4.3150   29.4974   69.4535 N   0  0  0  0  0  0  0  0  0  0  0  0
    1.8989   25.9970   66.9749 N   0  0  0  0  0  0  0  0  0  0  0  0
   -0.5816   29.7396   69.0027 O   0  0  0  0  0  0  0  0  0  0  0  0
    1.7816   30.5769   70.3458 O   0  0  0  0  0  0  0  0  0  0  0  0
  1  2  1  0  0  0  0
  1 12  1  1  0  0  0
  1 13  1  0  0  0  0
  2  3  1  0  0  0  0
  2 10  1  1  0  0  0
  4  3  1  1  0  0  0
  4  5  1  0  0  0  0
  4 14  1  0  0  0  0
  5  6  1  0  0  0  0
  5 13  1  6  0  0  0
  6  7  1  0  0  0  0
  6 15  1  6  0  0  0
  7  8  1  0  0  0  0
  7 11  1  6  0  0  0
  8 14  1  0  0  0  0
  8 16  1  1  0  0  0
  9 11  1  0  0  0  0
 17 16  1  1  0  0  0
 17 18  1  0  0  0  0
 17 24  1  0  0  0  0
 18 19  1  0  0  0  0
 18 25  1  1  0  0  0
 19 20  1  0  0  0  0
 19 26  1  6  0  0  0
 20 21  1  0  0  0  0
 20 23  1  1  0  0  0
 21 22  1  6  0  0  0
 21 24  1  0  0  0  0
 22 27  1  0  0  0  0
 28 12  1  1  0  0  0
 28 29  1  0  0  0  0
 28 33  1  0  0  0  0
 29 30  1  0  0  0  0
 29 36  1  6  0  0  0
 30 31  1  0  0  0  0
 30 37  1  1  0  0  0
 31 32  1  0  0  0  0
 31 34  1  6  0  0  0
 32 33  1  0  0  0  0
 33 35  1  6  0  0  0
M  END
>  <CHROM.1>
-62.27232825,150.01554920,-158.53453395,174.47836480,-155.20394910,-177.02982342
-4.17752821,27.65133271,66.61368425,-0.06941765,0.28425527,-3.02901986

>  <Name>
ligand

>  <RI>
0

>  <Rbt.Current_Directory>
/home/itssahil/PROJECTS/Mol_Feturizer/Test_systems_manuscript/rnas/2g5k

>  <Rbt.Executable>
rbdock ($Id: //depot/dev/client3/rdock/2013.1/src/exe/rbdock.cxx#4 $)

>  <Rbt.Library>
libRbt.so (2013.1, Build901 2013/11/27)

>  <Rbt.Parameter_File>
/export/apps/rDock/src/rDock_2013.1_src/data/scripts/dock_solv.prm

>  <Rbt.Receptor>
prm/pocket_docking_7.prm

>  <SCORE>
-6.67306

>  <SCORE.INTER>
-4.7886

>  <SCORE.INTER.CONST>
1

>  <SCORE.INTER.POLAR>
0

>  <SCORE.INTER.ROT>
6

>  <SCORE.INTER.SOLV>
11.7234

>  <SCORE.INTER.VDW>
-14.7002

>  <SCORE.INTER.norm>
-0.129422

>  <SCORE.INTRA>
-1.88446

>  <SCORE.INTRA.DIHEDRAL>
-5.89241

>  <SCORE.INTRA.DIHEDRAL.0>
11.3972

>  <SCORE.INTRA.POLAR>
0

>  <SCORE.INTRA.POLAR.0>
0

>  <SCORE.INTRA.REPUL>
0

>  <SCORE.INTRA.REPUL.0>
0

>  <SCORE.INTRA.SOLV>
3.10624

>  <SCORE.INTRA.SOLV.lig_0>
-92.3891

>  <SCORE.INTRA.VDW>
-0.491374

>  <SCORE.INTRA.VDW.0>
-2.90606

>  <SCORE.INTRA.norm>
-0.0509314

>  <SCORE.RESTR>
0

>  <SCORE.RESTR.CAVITY>
0

>  <SCORE.RESTR.norm>
0

>  <SCORE.SYSTEM>
0

>  <SCORE.SYSTEM.CONST>
0

>  <SCORE.SYSTEM.DIHEDRAL>
0

>  <SCORE.SYSTEM.SOLV>
0

>  <SCORE.SYSTEM.norm>
0

>  <SCORE.heavy>
37

>  <SCORE.norm>
-0.180353

>  <RMSD>
4.571

$$$$
ligand
 OpenBabel02271912133D
libRbt.so/2013.1/901 2013/11/27
 37 40  0  0  0  0  0  0  0  0999 V2000
   -3.0956   28.8111   64.0919 C   0  0  1  0  0  0  0  0  0  0  0  0
   -3.8996   30.0771   64.5034 C   0  0  1  0  0  0  0  0  0  0  0  0
   -4.9892   29.7555   65.5440 C   0  0  0  0  0  0  0  0  0  0  0  0
   -5.9348   28.6584   64.9631 C   0  0  1  0  0  0  0  0  0  0  0  0
   -5.1269   27.3703   64.6005 C   0  0  1  0  0  0  0  0  0  0  0  0
   -6.1117   26.2643   64.0075 C   0  0  1  0  0  0  0  0  0  0  0  0
   -7.2031   25.9383   65.0689 C   0  0  1  0  0  0  0  0  0  0  0  0
   -7.9512   27.2602   65.4173 C   0  0  2  0  0  0  0  0  0  0  0  0
   -7.6971   23.4874   64.3908 C   0  0  0  0  0  0  0  0  0  0  0  0
   -2.9926   31.1271   65.0132 N   0  0  0  0  0  0  0  0  0  0  0  0
   -8.1658   24.9024   64.5369 N   0  0  0  0  0  0  0  0  0  0  0  0
   -2.2702   28.3088   65.1609 O   0  0  0  0  0  0  0  0  0  0  0  0
   -4.0565   27.7712   63.6395 O   0  0  0  0  0  0  0  0  0  0  0  0
   -7.0282   28.2862   65.9200 O   0  0  0  0  0  0  0  0  0  0  0  0
   -6.7569   26.7697   62.8458 O   0  0  0  0  0  0  0  0  0  0  0  0
   -8.9483   27.0118   66.4017 O   0  0  0  0  0  0  0  0  0  0  0  0
   -9.8571   28.1205   66.6120 C   0  0  2  0  0  0  0  0  0  0  0  0
  -11.0957   27.7311   67.4533 C   0  0  1  0  0  0  0  0  0  0  0  0
  -11.9988   26.7180   66.6784 C   0  0  2  0  0  0  0  0  0  0  0  0
  -12.4619   27.3598   65.3863 C   0  0  1  0  0  0  0  0  0  0  0  0
  -11.2136   27.7250   64.5284 C   0  0  1  0  0  0  0  0  0  0  0  0
  -11.5959   28.4001   63.2126 C   0  0  0  0  0  0  0  0  0  0  0  0
  -13.3380   26.4125   64.6554 N   0  0  0  0  0  0  0  0  0  0  0  0
  -10.3320   28.6539   65.3004 O   0  0  0  0  0  0  0  0  0  0  0  0
  -10.6153   27.1944   68.7060 O   0  0  0  0  0  0  0  0  0  0  0  0
  -13.1432   26.3855   67.4677 O   0  0  0  0  0  0  0  0  0  0  0  0
  -12.2629   27.4731   62.3908 O   0  0  0  0  0  0  0  0  0  0  0  0
   -1.4703   27.0282   65.0591 C   0  0  1  0  0  0  0  0  0  0  0  0
   -0.3740   27.2218   63.9759 C   0  0  1  0  0  0  0  0  0  0  0  0
    0.4721   25.9233   63.8355 C   0  0  2  0  0  0  0  0  0  0  0  0
    1.1435   25.6052   65.1943 C   0  0  1  0  0  0  0  0  0  0  0  0
    0.0561   25.3955   66.3082 C   0  0  0  0  0  0  0  0  0  0  0  0
   -0.7795   26.6887   66.4175 C   0  0  2  0  0  0  0  0  0  0  0  0
    1.9587   24.3728   65.0707 N   0  0  0  0  0  0  0  0  0  0  0  0
   -1.7929   26.4844   67.4583 N   0  0  0  0  0  0  0  0  0  0  0  0
   -0.9986   27.5209   62.7079 O   0  0  0  0  0  0  0  0  0  0  0  0
    1.4785   26.1276   62.8191 O   0  0  0  0  0  0  0  0  0  0  0  0
  1  2  1  0  0  0  0
  1 12  1  1  0  0  0
  1 13  1  0  0  0  0
  2  3  1  0  0  0  0
  2 10  1  1  0  0  0
  4  3  1  1  0  0  0
  4  5  1  0  0  0  0
  4 14  1  0  0  0  0
  5  6  1  0  0  0  0
  5 13  1  6  0  0  0
  6  7  1  0  0  0  0
  6 15  1  6  0  0  0
  7  8  1  0  0  0  0
  7 11  1  6  0  0  0
  8 14  1  0  0  0  0
  8 16  1  1  0  0  0
  9 11  1  0  0  0  0
 17 16  1  6  0  0  0
 17 18  1  0  0  0  0
 17 24  1  0  0  0  0
 18 19  1  0  0  0  0
 18 25  1  1  0  0  0
 19 20  1  0  0  0  0
 19 26  1  1  0  0  0
 20 21  1  0  0  0  0
 20 23  1  6  0  0  0
 21 22  1  6  0  0  0
 21 24  1  0  0  0  0
 22 27  1  0  0  0  0
 28 12  1  1  0  0  0
 28 29  1  0  0  0  0
 28 33  1  0  0  0  0
 29 30  1  0  0  0  0
 29 36  1  6  0  0  0
 30 31  1  0  0  0  0
 30 37  1  6  0  0  0
 31 32  1  0  0  0  0
 31 34  1  6  0  0  0
 32 33  1  0  0  0  0
 33 35  1  1  0  0  0
M  END
>  <CHROM.1>
175.12798523,71.73732380,-169.27020240,65.54048677,167.89349151,-67.29176609
-6.00528617,27.19604496,65.04989840,-0.00450656,0.09426066,-0.42851680

>  <Name>
ligand

>  <RI>
0

>  <Rbt.Current_Directory>
/home/itssahil/PROJECTS/Mol_Feturizer/Test_systems_manuscript/rnas/2g5k

>  <Rbt.Executable>
rbdock ($Id: //depot/dev/client3/rdock/2013.1/src/exe/rbdock.cxx#4 $)

>  <Rbt.Library>
libRbt.so (2013.1, Build901 2013/11/27)

>  <Rbt.Parameter_File>
/export/apps/rDock/src/rDock_2013.1_src/data/scripts/dock_solv.prm

>  <Rbt.Receptor>
prm/pocket_docking_5.prm

>  <SCORE>
-9.79324

>  <SCORE.INTER>
-5.33647

>  <SCORE.INTER.CONST>
1

>  <SCORE.INTER.POLAR>
0

>  <SCORE.INTER.ROT>
6

>  <SCORE.INTER.SOLV>
10.8061

>  <SCORE.INTER.VDW>
-14.7597

>  <SCORE.INTER.norm>
-0.144229

>  <SCORE.INTRA>
-4.45677

>  <SCORE.INTRA.DIHEDRAL>
-9.54687

>  <SCORE.INTRA.DIHEDRAL.0>
11.3972

>  <SCORE.INTRA.POLAR>
0

>  <SCORE.INTRA.POLAR.0>
0

>  <SCORE.INTRA.REPUL>
0

>  <SCORE.INTRA.REPUL.0>
0

>  <SCORE.INTRA.SOLV>
-0.7165

>  <SCORE.INTRA.SOLV.lig_0>
-92.3891

>  <SCORE.INTRA.VDW>
0.674919

>  <SCORE.INTRA.VDW.0>
-2.90606

>  <SCORE.INTRA.norm>
-0.120453

>  <SCORE.RESTR>
0

>  <SCORE.RESTR.CAVITY>
0

>  <SCORE.RESTR.norm>
0

>  <SCORE.SYSTEM>
0

>  <SCORE.SYSTEM.CONST>
0

>  <SCORE.SYSTEM.DIHEDRAL>
0

>  <SCORE.SYSTEM.SOLV>
0

>  <SCORE.SYSTEM.norm>
0

>  <SCORE.heavy>
37

>  <SCORE.norm>
-0.264682

>  <RMSD>
4.600

$$$$
ligand
 OpenBabel02271912133D
libRbt.so/2013.1/901 2013/11/27
 37 40  0  0  0  0  0  0  0  0999 V2000
   -2.7910   31.8814   65.7383 C   0  0  1  0  0  0  0  0  0  0  0  0
   -3.0891   32.5675   67.1018 C   0  0  1  0  0  0  0  0  0  0  0  0
   -4.2959   31.9303   67.8166 C   0  0  0  0  0  0  0  0  0  0  0  0
   -5.5371   32.0009   66.8734 C   0  0  1  0  0  0  0  0  0  0  0  0
   -5.2475   31.2640   65.5255 C   0  0  1  0  0  0  0  0  0  0  0  0
   -6.5273   31.3503   64.5772 C   0  0  1  0  0  0  0  0  0  0  0  0
   -7.7390   30.6954   65.3030 C   0  0  1  0  0  0  0  0  0  0  0  0
   -7.9596   31.4448   66.6515 C   0  0  2  0  0  0  0  0  0  0  0  0
   -9.6799   32.0855   64.2976 C   0  0  0  0  0  0  0  0  0  0  0  0
   -1.8958   32.5338   67.9736 N   0  0  0  0  0  0  0  0  0  0  0  0
   -8.9767   30.7709   64.4397 N   0  0  0  0  0  0  0  0  0  0  0  0
   -2.2995   30.5357   65.8925 O   0  0  0  0  0  0  0  0  0  0  0  0
   -4.0346   31.8947   64.9244 O   0  0  0  0  0  0  0  0  0  0  0  0
   -6.7600   31.3974   67.4977 O   0  0  0  0  0  0  0  0  0  0  0  0
   -6.8441   32.7125   64.3216 O   0  0  0  0  0  0  0  0  0  0  0  0
   -9.0492   30.8649   67.3595 O   0  0  0  0  0  0  0  0  0  0  0  0
   -8.6496   30.0356   68.4784 C   0  0  2  0  0  0  0  0  0  0  0  0
   -8.2530   28.6021   68.0526 C   0  0  1  0  0  0  0  0  0  0  0  0
   -9.4903   27.8229   67.5011 C   0  0  2  0  0  0  0  0  0  0  0  0
  -10.5446   27.7414   68.5863 C   0  0  1  0  0  0  0  0  0  0  0  0
  -10.9629   29.1862   68.9932 C   0  0  1  0  0  0  0  0  0  0  0  0
  -12.0116   29.1914   70.1038 C   0  0  0  0  0  0  0  0  0  0  0  0
  -11.7136   26.9838   68.0779 N   0  0  0  0  0  0  0  0  0  0  0  0
   -9.7614   29.9376   69.4707 O   0  0  0  0  0  0  0  0  0  0  0  0
   -7.1953   28.7192   67.0752 O   0  0  0  0  0  0  0  0  0  0  0  0
   -9.1036   26.4980   67.1293 O   0  0  0  0  0  0  0  0  0  0  0  0
  -11.4566   28.6340   71.2703 O   0  0  0  0  0  0  0  0  0  0  0  0
   -1.7131   29.7316   64.7524 C   0  0  1  0  0  0  0  0  0  0  0  0
   -0.1967   30.0542   64.6565 C   0  0  1  0  0  0  0  0  0  0  0  0
    0.4470   29.2488   63.4908 C   0  0  2  0  0  0  0  0  0  0  0  0
    0.2600   27.7345   63.7556 C   0  0  1  0  0  0  0  0  0  0  0  0
   -1.2669   27.3779   63.8487 C   0  0  0  0  0  0  0  0  0  0  0  0
   -1.8860   28.1996   64.9993 C   0  0  2  0  0  0  0  0  0  0  0  0
    0.8761   26.9563   62.6541 N   0  0  0  0  0  0  0  0  0  0  0  0
   -3.3114   27.8621   65.0788 N   0  0  0  0  0  0  0  0  0  0  0  0
   -0.0202   31.4670   64.4116 O   0  0  0  0  0  0  0  0  0  0  0  0
    1.8537   29.5713   63.4195 O   0  0  0  0  0  0  0  0  0  0  0  0
  1  2  1  0  0  0  0
  1 12  1  1  0  0  0
  1 13  1  0  0  0  0
  2  3  1  0  0  0  0
  2 10  1  1  0  0  0
  4  3  1  1  0  0  0
  4  5  1  0  0  0  0
  4 14  1  0  0  0  0
  5  6  1  0  0  0  0
  5 13  1  6  0  0  0
  6  7  1  0  0  0  0
  6 15  1  1  0  0  0
  7  8  1  0  0  0  0
  7 11  1  6  0  0  0
  8 14  1  0  0  0  0
  8 16  1  1  0  0  0
  9 11  1  0  0  0  0
 17 16  1  6  0  0  0
 17 18  1  0  0  0  0
 17 24  1  0  0  0  0
 18 19  1  0  0  0  0
 18 25  1  6  0  0  0
 19 20  1  0  0  0  0
 19 26  1  1  0  0  0
 20 21  1  0  0  0  0
 20 23  1  6  0  0  0
 21 22  1  1  0  0  0
 21 24  1  0  0  0  0
 22 27  1  0  0  0  0
 28 12  1  1  0  0  0
 28 29  1  0  0  0  0
 28 33  1  0  0  0  0
 29 30  1  0  0  0  0
 29 36  1  6  0  0  0
 30 31  1  0  0  0  0
 30 37  1  1  0  0  0
 31 32  1  0  0  0  0
 31 34  1  6  0  0  0
 32 33  1  0  0  0  0
 33 35  1  6  0  0  0
M  END
>  <CHROM.1>
-169.23696522,-74.65726993,104.47693138,87.12635578,-82.25917489,64.11921816
-5.61974206,29.94618240,66.28655105,0.04915066,0.39312946,-0.01528831

>  <Name>
ligand

>  <RI>
0

>  <Rbt.Current_Directory>
/home/itssahil/PROJECTS/Mol_Feturizer/Test_systems_manuscript/rnas/2g5k

>  <Rbt.Executable>
rbdock ($Id: //depot/dev/client3/rdock/2013.1/src/exe/rbdock.cxx#4 $)

>  <Rbt.Library>
libRbt.so (2013.1, Build901 2013/11/27)

>  <Rbt.Parameter_File>
/export/apps/rDock/src/rDock_2013.1_src/data/scripts/dock_solv.prm

>  <Rbt.Receptor>
prm/pocket_docking_6.prm

>  <SCORE>
-0.789706

>  <SCORE.INTER>
-4.89236

>  <SCORE.INTER.CONST>
1

>  <SCORE.INTER.POLAR>
0

>  <SCORE.INTER.ROT>
6

>  <SCORE.INTER.SOLV>
12.5864

>  <SCORE.INTER.VDW>
-15.057

>  <SCORE.INTER.norm>
-0.132226

>  <SCORE.INTRA>
4.10265

>  <SCORE.INTRA.DIHEDRAL>
0.701095

>  <SCORE.INTRA.DIHEDRAL.0>
11.3972

>  <SCORE.INTRA.POLAR>
0

>  <SCORE.INTRA.POLAR.0>
0

>  <SCORE.INTRA.REPUL>
0

>  <SCORE.INTRA.REPUL.0>
0

>  <SCORE.INTRA.SOLV>
1.06208

>  <SCORE.INTRA.SOLV.lig_0>
-92.3891

>  <SCORE.INTRA.VDW>
3.22107

>  <SCORE.INTRA.VDW.0>
-2.90606

>  <SCORE.INTRA.norm>
0.110883

>  <SCORE.RESTR>
0

>  <SCORE.RESTR.CAVITY>
0

>  <SCORE.RESTR.norm>
0

>  <SCORE.SYSTEM>
0

>  <SCORE.SYSTEM.CONST>
0

>  <SCORE.SYSTEM.DIHEDRAL>
0

>  <SCORE.SYSTEM.SOLV>
0

>  <SCORE.SYSTEM.norm>
0

>  <SCORE.heavy>
37

>  <SCORE.norm>
-0.0213434

>  <RMSD>
4.607

$$$$
ligand
 OpenBabel02271912133D
libRbt.so/2013.1/901 2013/11/27
 37 40  0  0  0  0  0  0  0  0999 V2000
    1.2737   30.3649   68.7378 C   0  0  1  0  0  0  0  0  0  0  0  0
    0.8796   29.2630   69.7620 C   0  0  1  0  0  0  0  0  0  0  0  0
   -0.3848   28.4974   69.3277 C   0  0  0  0  0  0  0  0  0  0  0  0
   -1.5496   29.5167   69.1289 C   0  0  1  0  0  0  0  0  0  0  0  0
   -1.1656   30.5906   68.0599 C   0  0  1  0  0  0  0  0  0  0  0  0
   -2.3683   31.6220   67.8745 C   0  0  1  0  0  0  0  0  0  0  0  0
   -3.6386   30.8415   67.4261 C   0  0  1  0  0  0  0  0  0  0  0  0
   -3.9537   29.7651   68.5081 C   0  0  2  0  0  0  0  0  0  0  0  0
   -5.7125   31.6055   66.0750 C   0  0  0  0  0  0  0  0  0  0  0  0
    2.0025   28.3258   69.9766 N   0  0  0  0  0  0  0  0  0  0  0  0
   -4.8059   31.7850   67.2536 N   0  0  0  0  0  0  0  0  0  0  0  0
    1.7381   29.8176   67.4883 O   0  0  0  0  0  0  0  0  0  0  0  0
    0.0961   31.2448   68.5185 O   0  0  0  0  0  0  0  0  0  0  0  0
   -2.8228   28.8483   68.7026 O   0  0  0  0  0  0  0  0  0  0  0  0
   -2.6506   32.2578   69.1144 O   0  0  0  0  0  0  0  0  0  0  0  0
   -5.1001   29.0124   68.1283 O   0  0  0  0  0  0  0  0  0  0  0  0
   -4.9752   28.3583   66.8416 C   0  0  2  0  0  0  0  0  0  0  0  0
   -6.2821   27.6637   66.3910 C   0  0  1  0  0  0  0  0  0  0  0  0
   -6.6265   26.4627   67.3297 C   0  0  2  0  0  0  0  0  0  0  0  0
   -5.4924   25.4591   67.2814 C   0  0  1  0  0  0  0  0  0  0  0  0
   -4.1832   26.1532   67.7628 C   0  0  1  0  0  0  0  0  0  0  0  0
   -2.9823   25.2101   67.7222 C   0  0  0  0  0  0  0  0  0  0  0  0
   -5.8217   24.3053   68.1528 N   0  0  0  0  0  0  0  0  0  0  0  0
   -3.8922   27.3309   66.8884 O   0  0  0  0  0  0  0  0  0  0  0  0
   -7.3215   28.6675   66.3767 O   0  0  0  0  0  0  0  0  0  0  0  0
   -7.8275   25.8278   66.8852 O   0  0  0  0  0  0  0  0  0  0  0  0
   -1.8560   25.8681   68.2496 O   0  0  0  0  0  0  0  0  0  0  0  0
    2.8549   28.8009   67.3926 C   0  0  1  0  0  0  0  0  0  0  0  0
    2.7930   28.1378   65.9893 C   0  0  1  0  0  0  0  0  0  0  0  0
    3.9253   27.0795   65.8493 C   0  0  2  0  0  0  0  0  0  0  0  0
    5.2968   27.7763   66.0277 C   0  0  1  0  0  0  0  0  0  0  0  0
    5.3906   28.4491   67.4439 C   0  0  0  0  0  0  0  0  0  0  0  0
    4.2495   29.4814   67.5653 C   0  0  2  0  0  0  0  0  0  0  0  0
    6.3844   26.7782   65.8891 N   0  0  0  0  0  0  0  0  0  0  0  0
    4.3432   30.1039   68.8904 N   0  0  0  0  0  0  0  0  0  0  0  0
    1.5132   27.4890   65.8202 O   0  0  0  0  0  0  0  0  0  0  0  0
    3.8414   26.4744   64.5398 O   0  0  0  0  0  0  0  0  0  0  0  0
  1  2  1  0  0  0  0
  1 12  1  6  0  0  0
  1 13  1  0  0  0  0
  2  3  1  0  0  0  0
  2 10  1  6  0  0  0
  4  3  1  6  0  0  0
  4  5  1  0  0  0  0
  4 14  1  0  0  0  0
  5  6  1  0  0  0  0
  5 13  1  1  0  0  0
  6  7  1  0  0  0  0
  6 15  1  1  0  0  0
  7  8  1  0  0  0  0
  7 11  1  1  0  0  0
  8 14  1  0  0  0  0
  8 16  1  6  0  0  0
  9 11  1  0  0  0  0
 17 16  1  1  0  0  0
 17 18  1  0  0  0  0
 17 24  1  0  0  0  0
 18 19  1  0  0  0  0
 18 25  1  1  0  0  0
 19 20  1  0  0  0  0
 19 26  1  6  0  0  0
 20 21  1  0  0  0  0
 20 23  1  1  0  0  0
 21 22  1  6  0  0  0
 21 24  1  0  0  0  0
 22 27  1  0  0  0  0
 28 12  1  6  0  0  0
 28 29  1  0  0  0  0
 28 33  1  0  0  0  0
 29 30  1  0  0  0  0
 29 36  1  1  0  0  0
 30 31  1  0  0  0  0
 30 37  1  6  0  0  0
 31 32  1  0  0  0  0
 31 34  1  1  0  0  0
 32 33  1  0  0  0  0
 33 35  1  1  0  0  0
M  END
>  <CHROM.1>
-53.68787750,138.20198442,57.46977579,163.23271456,-174.35992559,-176.16470513
-1.26495772,28.51774471,67.53965946,0.03940106,0.03809407,0.28138133

>  <Name>
ligand

>  <RI>
0

>  <Rbt.Current_Directory>
/home/itssahil/PROJECTS/Mol_Feturizer/Test_systems_manuscript/rnas/2g5k

>  <Rbt.Executable>
rbdock ($Id: //depot/dev/client3/rdock/2013.1/src/exe/rbdock.cxx#4 $)

>  <Rbt.Library>
libRbt.so (2013.1, Build901 2013/11/27)

>  <Rbt.Parameter_File>
/export/apps/rDock/src/rDock_2013.1_src/data/scripts/dock_solv.prm

>  <Rbt.Receptor>
prm/pocket_docking_7.prm

>  <SCORE>
-8.808

>  <SCORE.INTER>
-6.43068

>  <SCORE.INTER.CONST>
1

>  <SCORE.INTER.POLAR>
0

>  <SCORE.INTER.ROT>
6

>  <SCORE.INTER.SOLV>
17.4672

>  <SCORE.INTER.VDW>
-17.7095

>  <SCORE.INTER.norm>
-0.173802

>  <SCORE.INTRA>
-2.37732

>  <SCORE.INTRA.DIHEDRAL>
-8.67564

>  <SCORE.INTRA.DIHEDRAL.0>
11.3972

>  <SCORE.INTRA.POLAR>
0

>  <SCORE.INTRA.POLAR.0>
0

>  <SCORE.INTRA.REPUL>
0

>  <SCORE.INTRA.REPUL.0>
0

>  <SCORE.INTRA.SOLV>
4.34443

>  <SCORE.INTRA.SOLV.lig_0>
-92.3891

>  <SCORE.INTRA.VDW>
-0.211719

>  <SCORE.INTRA.VDW.0>
-2.90606

>  <SCORE.INTRA.norm>
-0.0642519

>  <SCORE.RESTR>
0

>  <SCORE.RESTR.CAVITY>
0

>  <SCORE.RESTR.norm>
0

>  <SCORE.SYSTEM>
0

>  <SCORE.SYSTEM.CONST>
0

>  <SCORE.SYSTEM.DIHEDRAL>
0

>  <SCORE.SYSTEM.SOLV>
0

>  <SCORE.SYSTEM.norm>
0

>  <SCORE.heavy>
37

>  <SCORE.norm>
-0.238054

>  <RMSD>
4.825

$$$$
ligand
 OpenBabel02271912133D
libRbt.so/2013.1/901 2013/11/27
 37 40  0  0  0  0  0  0  0  0999 V2000
   -5.4650   27.1384   65.3159 C   0  0  1  0  0  0  0  0  0  0  0  0
   -6.8432   26.5739   64.8683 C   0  0  1  0  0  0  0  0  0  0  0  0
   -7.6317   27.5860   64.0155 C   0  0  0  0  0  0  0  0  0  0  0  0
   -7.8071   28.9053   64.8303 C   0  0  1  0  0  0  0  0  0  0  0  0
   -6.4158   29.4941   65.2317 C   0  0  1  0  0  0  0  0  0  0  0  0
   -6.6188   30.8395   66.0644 C   0  0  1  0  0  0  0  0  0  0  0  0
   -7.4073   31.8596   65.1917 C   0  0  1  0  0  0  0  0  0  0  0  0
   -8.7660   31.2088   64.7930 C   0  0  2  0  0  0  0  0  0  0  0  0
   -6.5110   34.1328   66.0517 C   0  0  0  0  0  0  0  0  0  0  0  0
   -6.6716   25.3026   64.1337 N   0  0  0  0  0  0  0  0  0  0  0  0
   -7.6323   33.1449   65.9535 N   0  0  0  0  0  0  0  0  0  0  0  0
   -4.5482   27.2953   64.2154 O   0  0  0  0  0  0  0  0  0  0  0  0
   -5.6899   28.4388   65.9996 O   0  0  0  0  0  0  0  0  0  0  0  0
   -8.5677   29.9480   64.0661 O   0  0  0  0  0  0  0  0  0  0  0  0
   -7.3817   30.5699   67.2333 O   0  0  0  0  0  0  0  0  0  0  0  0
   -9.5138   32.1020   63.9757 O   0  0  0  0  0  0  0  0  0  0  0  0
  -10.7743   31.5594   63.5110 C   0  0  2  0  0  0  0  0  0  0  0  0
  -11.5669   32.5521   62.6279 C   0  0  1  0  0  0  0  0  0  0  0  0
  -12.0369   33.7869   63.4625 C   0  0  2  0  0  0  0  0  0  0  0  0
  -12.9292   33.3083   64.5898 C   0  0  1  0  0  0  0  0  0  0  0  0
  -12.1199   32.3309   65.4940 C   0  0  1  0  0  0  0  0  0  0  0  0
  -12.9592   31.7836   66.6469 C   0  0  0  0  0  0  0  0  0  0  0  0
  -13.3976   34.4768   65.3736 N   0  0  0  0  0  0  0  0  0  0  0  0
  -11.6322   31.1800   64.6731 O   0  0  0  0  0  0  0  0  0  0  0  0
  -10.7118   32.9261   61.5247 O   0  0  0  0  0  0  0  0  0  0  0  0
  -12.7794   34.6812   62.6306 O   0  0  0  0  0  0  0  0  0  0  0  0
  -12.1571   30.9567   67.4545 O   0  0  0  0  0  0  0  0  0  0  0  0
   -3.2143   27.9989   64.3415 C   0  0  1  0  0  0  0  0  0  0  0  0
   -2.3585   27.2389   65.3916 C   0  0  1  0  0  0  0  0  0  0  0  0
   -0.9755   27.9334   65.5557 C   0  0  2  0  0  0  0  0  0  0  0  0
   -0.2397   27.9282   64.1931 C   0  0  1  0  0  0  0  0  0  0  0  0
   -1.0798   28.6988   63.1125 C   0  0  0  0  0  0  0  0  0  0  0  0
   -2.4510   28.0026   62.9794 C   0  0  2  0  0  0  0  0  0  0  0  0
    1.0833   28.5815   64.3389 N   0  0  0  0  0  0  0  0  0  0  0  0
   -3.2296   28.7285   61.9701 N   0  0  0  0  0  0  0  0  0  0  0  0
   -3.0445   27.2408   66.6631 O   0  0  0  0  0  0  0  0  0  0  0  0
   -0.2031   27.2118   66.5409 O   0  0  0  0  0  0  0  0  0  0  0  0
  1  2  1  0  0  0  0
  1 12  1  6  0  0  0
  1 13  1  0  0  0  0
  2  3  1  0  0  0  0
  2 10  1  6  0  0  0
  4  3  1  6  0  0  0
  4  5  1  0  0  0  0
  4 14  1  0  0  0  0
  5  6  1  0  0  0  0
  5 13  1  1  0  0  0
  6  7  1  0  0  0  0
  6 15  1  1  0  0  0
  7  8  1  0  0  0  0
  7 11  1  1  0  0  0
  8 14  1  0  0  0  0
  8 16  1  6  0  0  0
  9 11  1  0  0  0  0
 17 16  1  1  0  0  0
 17 18  1  0  0  0  0
 17 24  1  0  0  0  0
 18 19  1  0  0  0  0
 18 25  1  6  0  0  0
 19 20  1  0  0  0  0
 19 26  1  6  0  0  0
 20 21  1  0  0  0  0
 20 23  1  1  0  0  0
 21 22  1  1  0  0  0
 21 24  1  0  0  0  0
 22 27  1  0  0  0  0
 28 12  1  6  0  0  0
 28 29  1  0  0  0  0
 28 33  1  0  0  0  0
 29 30  1  0  0  0  0
 29 36  1  1  0  0  0
 30 31  1  0  0  0  0
 30 37  1  1  0  0  0
 31 32  1  0  0  0  0
 31 34  1  1  0  0  0
 32 33  1  0  0  0  0
 33 35  1  6  0  0  0
M  END
>  <CHROM.1>
171.31605317,79.26608758,177.68139405,60.47221565,179.87945422,-177.49040322
-7.12279563,30.11759353,64.74761753,0.45348359,-0.17832171,2.74243171

>  <Name>
ligand

>  <RI>
0

>  <Rbt.Current_Directory>
/home/itssahil/PROJECTS/Mol_Feturizer/Test_systems_manuscript/rnas/2g5k

>  <Rbt.Executable>
rbdock ($Id: //depot/dev/client3/rdock/2013.1/src/exe/rbdock.cxx#4 $)

>  <Rbt.Library>
libRbt.so (2013.1, Build901 2013/11/27)

>  <Rbt.Parameter_File>
/export/apps/rDock/src/rDock_2013.1_src/data/scripts/dock_solv.prm

>  <Rbt.Receptor>
prm/pocket_docking_6.prm

>  <SCORE>
-5.62115

>  <SCORE.INTER>
-0.0961014

>  <SCORE.INTER.CONST>
1

>  <SCORE.INTER.POLAR>
0

>  <SCORE.INTER.ROT>
6

>  <SCORE.INTER.SOLV>
13.4495

>  <SCORE.INTER.VDW>
-12.1472

>  <SCORE.INTER.norm>
-0.00259734

>  <SCORE.INTRA>
-5.52505

>  <SCORE.INTRA.DIHEDRAL>
-10.6626

>  <SCORE.INTRA.DIHEDRAL.0>
11.3972

>  <SCORE.INTRA.POLAR>
0

>  <SCORE.INTRA.POLAR.0>
0

>  <SCORE.INTRA.REPUL>
0

>  <SCORE.INTRA.REPUL.0>
0

>  <SCORE.INTRA.SOLV>
-1.96438

>  <SCORE.INTRA.SOLV.lig_0>
-92.3891

>  <SCORE.INTRA.VDW>
0.788423

>  <SCORE.INTRA.VDW.0>
-2.90606

>  <SCORE.INTRA.norm>
-0.149326

>  <SCORE.RESTR>
0

>  <SCORE.RESTR.CAVITY>
0

>  <SCORE.RESTR.norm>
0

>  <SCORE.SYSTEM>
0

>  <SCORE.SYSTEM.CONST>
0

>  <SCORE.SYSTEM.DIHEDRAL>
0

>  <SCORE.SYSTEM.SOLV>
0

>  <SCORE.SYSTEM.norm>
0

>  <SCORE.heavy>
37

>  <SCORE.norm>
-0.151923

>  <RMSD>
4.867

$$$$
ligand
 OpenBabel02271912133D
libRbt.so/2013.1/901 2013/11/27
 37 40  0  0  0  0  0  0  0  0999 V2000
    1.3415   27.8916   62.9207 C   0  0  1  0  0  0  0  0  0  0  0  0
    1.4748   29.4383   62.8283 C   0  0  1  0  0  0  0  0  0  0  0  0
    0.5782   30.1569   63.8545 C   0  0  0  0  0  0  0  0  0  0  0  0
   -0.9007   29.7102   63.6339 C   0  0  1  0  0  0  0  0  0  0  0  0
   -1.0356   28.1597   63.7799 C   0  0  1  0  0  0  0  0  0  0  0  0
   -2.5531   27.7257   63.5488 C   0  0  1  0  0  0  0  0  0  0  0  0
   -3.4504   28.4484   64.5959 C   0  0  1  0  0  0  0  0  0  0  0  0
   -3.2503   29.9848   64.4283 C   0  0  2  0  0  0  0  0  0  0  0  0
   -5.8149   28.0739   65.5855 C   0  0  0  0  0  0  0  0  0  0  0  0
    2.8845   29.8504   62.9963 N   0  0  0  0  0  0  0  0  0  0  0  0
   -4.9005   28.0727   64.3993 N   0  0  0  0  0  0  0  0  0  0  0  0
    1.8948   27.3609   64.1408 O   0  0  0  0  0  0  0  0  0  0  0  0
   -0.0967   27.5364   62.8001 O   0  0  0  0  0  0  0  0  0  0  0  0
   -1.8425   30.3674   64.5987 O   0  0  0  0  0  0  0  0  0  0  0  0
   -2.9739   28.1244   62.2506 O   0  0  0  0  0  0  0  0  0  0  0  0
   -4.0397   30.6867   65.3818 O   0  0  0  0  0  0  0  0  0  0  0  0
   -4.0366   32.1247   65.2045 C   0  0  2  0  0  0  0  0  0  0  0  0
   -4.7193   32.8757   66.3720 C   0  0  1  0  0  0  0  0  0  0  0  0
   -6.2494   32.5610   66.4174 C   0  0  2  0  0  0  0  0  0  0  0  0
   -6.8812   32.9998   65.1119 C   0  0  1  0  0  0  0  0  0  0  0  0
   -6.2115   32.2211   63.9402 C   0  0  1  0  0  0  0  0  0  0  0  0
   -6.7798   32.6243   62.5809 C   0  0  0  0  0  0  0  0  0  0  0  0
   -8.3377   32.7248   65.1557 N   0  0  0  0  0  0  0  0  0  0  0  0
   -4.7405   32.4898   63.9389 O   0  0  0  0  0  0  0  0  0  0  0  0
   -4.0413   32.4901   67.5885 O   0  0  0  0  0  0  0  0  0  0  0  0
   -6.8608   33.2772   67.4927 O   0  0  0  0  0  0  0  0  0  0  0  0
   -6.5420   33.9941   62.3652 O   0  0  0  0  0  0  0  0  0  0  0  0
    2.0817   25.8803   64.3911 C   0  0  1  0  0  0  0  0  0  0  0  0
    3.1378   25.3444   63.3860 C   0  0  1  0  0  0  0  0  0  0  0  0
    3.3584   23.8197   63.6068 C   0  0  2  0  0  0  0  0  0  0  0  0
    3.8595   23.5831   65.0528 C   0  0  1  0  0  0  0  0  0  0  0  0
    2.8054   24.1085   66.0920 C   0  0  0  0  0  0  0  0  0  0  0  0
    2.5914   25.6167   65.8432 C   0  0  2  0  0  0  0  0  0  0  0  0
    4.0801   22.1335   65.2726 N   0  0  0  0  0  0  0  0  0  0  0  0
    1.6053   26.0991   66.8163 N   0  0  0  0  0  0  0  0  0  0  0  0
    2.6730   25.5663   62.0362 O   0  0  0  0  0  0  0  0  0  0  0  0
    4.3388   23.3460   62.6568 O   0  0  0  0  0  0  0  0  0  0  0  0
  1  2  1  0  0  0  0
  1 12  1  1  0  0  0
  1 13  1  0  0  0  0
  2  3  1  0  0  0  0
  2 10  1  1  0  0  0
  4  3  1  1  0  0  0
  4  5  1  0  0  0  0
  4 14  1  0  0  0  0
  5  6  1  0  0  0  0
  5 13  1  6  0  0  0
  6  7  1  0  0  0  0
  6 15  1  6  0  0  0
  7  8  1  0  0  0  0
  7 11  1  6  0  0  0
  8 14  1  0  0  0  0
  8 16  1  1  0  0  0
  9 11  1  0  0  0  0
 17 16  1  1  0  0  0
 17 18  1  0  0  0  0
 17 24  1  0  0  0  0
 18 19  1  0  0  0  0
 18 25  1  1  0  0  0
 19 20  1  0  0  0  0
 19 26  1  1  0  0  0
 20 21  1  0  0  0  0
 20 23  1  1  0  0  0
 21 22  1  6  0  0  0
 21 24  1  0  0  0  0
 22 27  1  0  0  0  0
 28 12  1  1  0  0  0
 28 29  1  0  0  0  0
 28 33  1  0  0  0  0
 29 30  1  0  0  0  0
 29 36  1  6  0  0  0
 30 31  1  0  0  0  0
 30 37  1  6  0  0  0
 31 32  1  0  0  0  0
 31 34  1  1  0  0  0
 32 33  1  0  0  0  0
 33 35  1  1  0  0  0
M  END
>  <CHROM.1>
-170.59576966,150.76685166,-173.35655804,65.28568036,-171.22422332,61.02148451
-1.59265898,28.88286092,64.39691530,-0.32735142,0.61907021,-0.91839967

>  <Name>
ligand

>  <RI>
0

>  <Rbt.Current_Directory>
/home/itssahil/PROJECTS/Mol_Feturizer/Test_systems_manuscript/rnas/2g5k

>  <Rbt.Executable>
rbdock ($Id: //depot/dev/client3/rdock/2013.1/src/exe/rbdock.cxx#4 $)

>  <Rbt.Library>
libRbt.so (2013.1, Build901 2013/11/27)

>  <Rbt.Parameter_File>
/export/apps/rDock/src/rDock_2013.1_src/data/scripts/dock_solv.prm

>  <Rbt.Receptor>
prm/pocket_docking_6.prm

>  <SCORE>
-16.9058

>  <SCORE.INTER>
-11.6073

>  <SCORE.INTER.CONST>
1

>  <SCORE.INTER.POLAR>
0

>  <SCORE.INTER.ROT>
6

>  <SCORE.INTER.SOLV>
18.5418

>  <SCORE.INTER.VDW>
-21.5188

>  <SCORE.INTER.norm>
-0.31371

>  <SCORE.INTRA>
-5.29859

>  <SCORE.INTRA.DIHEDRAL>
-9.62796

>  <SCORE.INTRA.DIHEDRAL.0>
11.3972

>  <SCORE.INTRA.POLAR>
0

>  <SCORE.INTRA.POLAR.0>
0

>  <SCORE.INTRA.REPUL>
0

>  <SCORE.INTRA.REPUL.0>
0

>  <SCORE.INTRA.SOLV>
-1.22584

>  <SCORE.INTRA.SOLV.lig_0>
-92.3891

>  <SCORE.INTRA.VDW>
0.128309

>  <SCORE.INTRA.VDW.0>
-2.90606

>  <SCORE.INTRA.norm>
-0.143205

>  <SCORE.RESTR>
0

>  <SCORE.RESTR.CAVITY>
0

>  <SCORE.RESTR.norm>
0

>  <SCORE.SYSTEM>
0

>  <SCORE.SYSTEM.CONST>
0

>  <SCORE.SYSTEM.DIHEDRAL>
0

>  <SCORE.SYSTEM.SOLV>
0

>  <SCORE.SYSTEM.norm>
0

>  <SCORE.heavy>
37

>  <SCORE.norm>
-0.456915

>  <RMSD>
4.992

$$$$
ligand
 OpenBabel02271912133D
libRbt.so/2013.1/901 2013/11/27
 37 40  0  0  0  0  0  0  0  0999 V2000
    1.3401   27.8995   62.8477 C   0  0  1  0  0  0  0  0  0  0  0  0
    1.4649   29.4476   62.7672 C   0  0  1  0  0  0  0  0  0  0  0  0
    0.5830   30.1527   63.8154 C   0  0  0  0  0  0  0  0  0  0  0  0
   -0.8975   29.7012   63.6163 C   0  0  1  0  0  0  0  0  0  0  0  0
   -1.0229   28.1488   63.7503 C   0  0  1  0  0  0  0  0  0  0  0  0
   -2.5423   27.7099   63.5416 C   0  0  1  0  0  0  0  0  0  0  0  0
   -3.4244   28.4189   64.6107 C   0  0  1  0  0  0  0  0  0  0  0  0
   -3.2341   29.9577   64.4538 C   0  0  2  0  0  0  0  0  0  0  0  0
   -5.7806   28.0699   65.6292 C   0  0  0  0  0  0  0  0  0  0  0  0
    2.8754   29.8647   62.9145 N   0  0  0  0  0  0  0  0  0  0  0  0
   -4.8761   28.0383   64.4358 N   0  0  0  0  0  0  0  0  0  0  0  0
    1.9169   27.3603   64.0530 O   0  0  0  0  0  0  0  0  0  0  0  0
   -0.0985   27.5388   62.7487 O   0  0  0  0  0  0  0  0  0  0  0  0
   -1.8253   30.3452   64.6033 O   0  0  0  0  0  0  0  0  0  0  0  0
   -2.9873   28.1185   62.2547 O   0  0  0  0  0  0  0  0  0  0  0  0
   -4.0100   30.6472   65.4272 O   0  0  0  0  0  0  0  0  0  0  0  0
   -4.0133   32.0870   65.2654 C   0  0  2  0  0  0  0  0  0  0  0  0
   -4.7043   32.8221   66.4383 C   0  0  1  0  0  0  0  0  0  0  0  0
   -6.2330   32.4994   66.4741 C   0  0  2  0  0  0  0  0  0  0  0  0
   -6.8618   32.9491   65.1709 C   0  0  1  0  0  0  0  0  0  0  0  0
   -6.1837   32.1863   63.9936 C   0  0  1  0  0  0  0  0  0  0  0  0
   -6.7486   32.6014   62.6365 C   0  0  0  0  0  0  0  0  0  0  0  0
   -8.3171   32.6665   65.2060 N   0  0  0  0  0  0  0  0  0  0  0  0
   -4.7140   32.4622   64.0011 O   0  0  0  0  0  0  0  0  0  0  0  0
   -4.0292   32.4267   67.6532 O   0  0  0  0  0  0  0  0  0  0  0  0
   -6.8522   33.2009   67.5547 O   0  0  0  0  0  0  0  0  0  0  0  0
   -6.5107   33.9731   62.4335 O   0  0  0  0  0  0  0  0  0  0  0  0
    2.0995   25.8775   64.2934 C   0  0  1  0  0  0  0  0  0  0  0  0
    3.1319   25.3395   63.2650 C   0  0  1  0  0  0  0  0  0  0  0  0
    3.3473   23.8126   63.4748 C   0  0  2  0  0  0  0  0  0  0  0  0
    3.8759   23.5666   64.9095 C   0  0  1  0  0  0  0  0  0  0  0  0
    2.8462   24.0939   65.9719 C   0  0  0  0  0  0  0  0  0  0  0  0
    2.6366   25.6045   65.7338 C   0  0  2  0  0  0  0  0  0  0  0  0
    4.0919   22.1147   65.1187 N   0  0  0  0  0  0  0  0  0  0  0  0
    1.6733   26.0888   66.7285 N   0  0  0  0  0  0  0  0  0  0  0  0
    2.6414   25.5701   61.9257 O   0  0  0  0  0  0  0  0  0  0  0  0
    4.3054   23.3370   62.5034 O   0  0  0  0  0  0  0  0  0  0  0  0
  1  2  1  0  0  0  0
  1 12  1  1  0  0  0
  1 13  1  0  0  0  0
  2  3  1  0  0  0  0
  2 10  1  1  0  0  0
  4  3  1  1  0  0  0
  4  5  1  0  0  0  0
  4 14  1  0  0  0  0
  5  6  1  0  0  0  0
  5 13  1  6  0  0  0
  6  7  1  0  0  0  0
  6 15  1  6  0  0  0
  7  8  1  0  0  0  0
  7 11  1  6  0  0  0
  8 14  1  0  0  0  0
  8 16  1  1  0  0  0
  9 11  1  0  0  0  0
 17 16  1  1  0  0  0
 17 18  1  0  0  0  0
 17 24  1  0  0  0  0
 18 19  1  0  0  0  0
 18 25  1  1  0  0  0
 19 20  1  0  0  0  0
 19 26  1  1  0  0  0
 20 21  1  0  0  0  0
 20 23  1  1  0  0  0
 21 22  1  6  0  0  0
 21 24  1  0  0  0  0
 22 27  1  0  0  0  0
 28 12  1  6  0  0  0
 28 29  1  0  0  0  0
 28 33  1  0  0  0  0
 29 30  1  0  0  0  0
 29 36  1  6  0  0  0
 30 31  1  0  0  0  0
 30 37  1  6  0  0  0
 31 32  1  0  0  0  0
 31 34  1  1  0  0  0
 32 33  1  0  0  0  0
 33 35  1  1  0  0  0
M  END
>  <CHROM.1>
-171.35006279,152.84092090,-173.52291405,65.41032017,-172.37103578,61.32295504
-1.57898313,28.86198154,64.37497766,-0.31668794,0.62410919,-0.91166214

>  <Name>
ligand

>  <RI>
0

>  <Rbt.Current_Directory>
/home/itssahil/PROJECTS/Mol_Feturizer/Test_systems_manuscript/rnas/2g5k

>  <Rbt.Executable>
rbdock ($Id: //depot/dev/client3/rdock/2013.1/src/exe/rbdock.cxx#4 $)

>  <Rbt.Library>
libRbt.so (2013.1, Build901 2013/11/27)

>  <Rbt.Parameter_File>
/export/apps/rDock/src/rDock_2013.1_src/data/scripts/dock_solv.prm

>  <Rbt.Receptor>
prm/pocket_docking_6.prm

>  <SCORE>
-16.8946

>  <SCORE.INTER>
-11.5113

>  <SCORE.INTER.CONST>
1

>  <SCORE.INTER.POLAR>
0

>  <SCORE.INTER.ROT>
6

>  <SCORE.INTER.SOLV>
18.4046

>  <SCORE.INTER.VDW>
-21.4091

>  <SCORE.INTER.norm>
-0.311116

>  <SCORE.INTRA>
-5.38333

>  <SCORE.INTRA.DIHEDRAL>
-9.84863

>  <SCORE.INTRA.DIHEDRAL.0>
11.3972

>  <SCORE.INTRA.POLAR>
0

>  <SCORE.INTRA.POLAR.0>
0

>  <SCORE.INTRA.REPUL>
0

>  <SCORE.INTRA.REPUL.0>
0

>  <SCORE.INTRA.SOLV>
-1.228

>  <SCORE.INTRA.SOLV.lig_0>
-92.3891

>  <SCORE.INTRA.VDW>
0.154983

>  <SCORE.INTRA.VDW.0>
-2.90606

>  <SCORE.INTRA.norm>
-0.145495

>  <SCORE.RESTR>
0

>  <SCORE.RESTR.CAVITY>
0

>  <SCORE.RESTR.norm>
0

>  <SCORE.SYSTEM>
0

>  <SCORE.SYSTEM.CONST>
0

>  <SCORE.SYSTEM.DIHEDRAL>
0

>  <SCORE.SYSTEM.SOLV>
0

>  <SCORE.SYSTEM.norm>
0

>  <SCORE.heavy>
37

>  <SCORE.norm>
-0.456612

>  <RMSD>
4.997

$$$$
ligand
 OpenBabel02271912133D
libRbt.so/2013.1/901 2013/11/27
 37 40  0  0  0  0  0  0  0  0999 V2000
    1.2726   27.7972   62.9419 C   0  0  1  0  0  0  0  0  0  0  0  0
    1.4240   29.3404   62.8234 C   0  0  1  0  0  0  0  0  0  0  0  0
    0.5361   30.0867   63.8373 C   0  0  0  0  0  0  0  0  0  0  0  0
   -0.9479   29.6537   63.6245 C   0  0  1  0  0  0  0  0  0  0  0  0
   -1.1009   28.1076   63.7966 C   0  0  1  0  0  0  0  0  0  0  0  0
   -2.6235   27.6874   63.5731 C   0  0  1  0  0  0  0  0  0  0  0  0
   -3.5119   28.4382   64.6079 C   0  0  1  0  0  0  0  0  0  0  0  0
   -3.2939   29.9691   64.4143 C   0  0  2  0  0  0  0  0  0  0  0  0
   -5.4590   26.7626   64.9422 C   0  0  0  0  0  0  0  0  0  0  0  0
    2.8384   29.7389   62.9842 N   0  0  0  0  0  0  0  0  0  0  0  0
   -4.9664   28.0761   64.4179 N   0  0  0  0  0  0  0  0  0  0  0  0
    1.8201   27.2808   64.1706 O   0  0  0  0  0  0  0  0  0  0  0  0
   -0.1697   27.4568   62.8274 O   0  0  0  0  0  0  0  0  0  0  0  0
   -1.8817   30.3380   64.5781 O   0  0  0  0  0  0  0  0  0  0  0  0
   -3.0399   28.0691   62.2684 O   0  0  0  0  0  0  0  0  0  0  0  0
   -4.0748   30.6961   65.3559 O   0  0  0  0  0  0  0  0  0  0  0  0
   -4.0526   32.1310   65.1562 C   0  0  2  0  0  0  0  0  0  0  0  0
   -4.7070   32.9103   66.3215 C   0  0  1  0  0  0  0  0  0  0  0  0
   -6.2409   32.6197   66.3935 C   0  0  2  0  0  0  0  0  0  0  0  0
   -6.8848   33.0479   65.0904 C   0  0  1  0  0  0  0  0  0  0  0  0
   -6.2439   32.2411   63.9217 C   0  0  1  0  0  0  0  0  0  0  0  0
   -6.8257   32.6320   62.5645 C   0  0  0  0  0  0  0  0  0  0  0  0
   -8.3444   32.7959   65.1593 N   0  0  0  0  0  0  0  0  0  0  0  0
   -4.7692   32.4872   63.8952 O   0  0  0  0  0  0  0  0  0  0  0  0
   -4.0174   32.5332   67.5340 O   0  0  0  0  0  0  0  0  0  0  0  0
   -6.8258   33.3616   67.4661 O   0  0  0  0  0  0  0  0  0  0  0  0
   -6.5912   34.0001   62.3345 O   0  0  0  0  0  0  0  0  0  0  0  0
    2.0298   25.8046   64.4290 C   0  0  1  0  0  0  0  0  0  0  0  0
    3.0739   25.2736   63.4090 C   0  0  1  0  0  0  0  0  0  0  0  0
    3.3173   23.7536   63.6374 C   0  0  2  0  0  0  0  0  0  0  0  0
    3.8475   23.5346   65.0759 C   0  0  1  0  0  0  0  0  0  0  0  0
    2.8060   24.0554   66.1301 C   0  0  0  0  0  0  0  0  0  0  0  0
    2.5690   25.5589   65.8735 C   0  0  2  0  0  0  0  0  0  0  0  0
    4.0899   22.0896   65.3028 N   0  0  0  0  0  0  0  0  0  0  0  0
    1.5949   26.0370   66.8607 N   0  0  0  0  0  0  0  0  0  0  0  0
    2.5819   25.4791   62.0662 O   0  0  0  0  0  0  0  0  0  0  0  0
    4.2859   23.2843   62.6734 O   0  0  0  0  0  0  0  0  0  0  0  0
  1  2  1  0  0  0  0
  1 12  1  1  0  0  0
  1 13  1  0  0  0  0
  2  3  1  0  0  0  0
  2 10  1  1  0  0  0
  4  3  1  1  0  0  0
  4  5  1  0  0  0  0
  4 14  1  0  0  0  0
  5  6  1  0  0  0  0
  5 13  1  6  0  0  0
  6  7  1  0  0  0  0
  6 15  1  6  0  0  0
  7  8  1  0  0  0  0
  7 11  1  6  0  0  0
  8 14  1  0  0  0  0
  8 16  1  1  0  0  0
  9 11  1  0  0  0  0
 17 16  1  1  0  0  0
 17 18  1  0  0  0  0
 17 24  1  0  0  0  0
 18 19  1  0  0  0  0
 18 25  1  1  0  0  0
 19 20  1  0  0  0  0
 19 26  1  1  0  0  0
 20 21  1  0  0  0  0
 20 23  1  1  0  0  0
 21 22  1  6  0  0  0
 21 24  1  0  0  0  0
 22 27  1  0  0  0  0
 28 12  1  6  0  0  0
 28 29  1  0  0  0  0
 28 33  1  0  0  0  0
 29 30  1  0  0  0  0
 29 36  1  6  0  0  0
 30 31  1  0  0  0  0
 30 37  1  6  0  0  0
 31 32  1  0  0  0  0
 31 34  1  1  0  0  0
 32 33  1  0  0  0  0
 33 35  1  1  0  0  0
M  END
>  <CHROM.1>
-168.62828754,77.92583875,-173.48498826,63.49601157,-170.34148234,59.99028884
-1.61739448,28.81781473,64.37909790,-0.39460826,0.59535441,-0.82374246

>  <Name>
ligand

>  <RI>
0

>  <Rbt.Current_Directory>
/home/itssahil/PROJECTS/Mol_Feturizer/Test_systems_manuscript/rnas/2g5k

>  <Rbt.Executable>
rbdock ($Id: //depot/dev/client3/rdock/2013.1/src/exe/rbdock.cxx#4 $)

>  <Rbt.Library>
libRbt.so (2013.1, Build901 2013/11/27)

>  <Rbt.Parameter_File>
/export/apps/rDock/src/rDock_2013.1_src/data/scripts/dock_solv.prm

>  <Rbt.Receptor>
prm/pocket_docking_5.prm

>  <SCORE>
-17.2985

>  <SCORE.INTER>
-12.3496

>  <SCORE.INTER.CONST>
1

>  <SCORE.INTER.POLAR>
0

>  <SCORE.INTER.ROT>
6

>  <SCORE.INTER.SOLV>
18.6606

>  <SCORE.INTER.VDW>
-22.0533

>  <SCORE.INTER.norm>
-0.333774

>  <SCORE.INTRA>
-4.94888

>  <SCORE.INTRA.DIHEDRAL>
-9.77892

>  <SCORE.INTRA.DIHEDRAL.0>
11.3972

>  <SCORE.INTRA.POLAR>
0

>  <SCORE.INTRA.POLAR.0>
0

>  <SCORE.INTRA.REPUL>
0

>  <SCORE.INTRA.REPUL.0>
0

>  <SCORE.INTRA.SOLV>
-1.22868

>  <SCORE.INTRA.SOLV.lig_0>
-92.3891

>  <SCORE.INTRA.VDW>
0.554918

>  <SCORE.INTRA.VDW.0>
-2.90606

>  <SCORE.INTRA.norm>
-0.133754

>  <SCORE.RESTR>
0

>  <SCORE.RESTR.CAVITY>
0

>  <SCORE.RESTR.norm>
0

>  <SCORE.SYSTEM>
0

>  <SCORE.SYSTEM.CONST>
0

>  <SCORE.SYSTEM.DIHEDRAL>
0

>  <SCORE.SYSTEM.SOLV>
0

>  <SCORE.SYSTEM.norm>
0

>  <SCORE.heavy>
37

>  <SCORE.norm>
-0.467528

>  <RMSD>
5.007

$$$$
ligand
 OpenBabel02271912133D
libRbt.so/2013.1/901 2013/11/27
 37 40  0  0  0  0  0  0  0  0999 V2000
    1.4606   27.9780   62.8088 C   0  0  1  0  0  0  0  0  0  0  0  0
    1.5751   29.5281   62.7564 C   0  0  1  0  0  0  0  0  0  0  0  0
    0.6739   30.2088   63.8041 C   0  0  0  0  0  0  0  0  0  0  0  0
   -0.8003   29.7503   63.5772 C   0  0  1  0  0  0  0  0  0  0  0  0
   -0.9162   28.1950   63.6831 C   0  0  1  0  0  0  0  0  0  0  0  0
   -2.4293   27.7488   63.4461 C   0  0  1  0  0  0  0  0  0  0  0  0
   -3.3310   28.4332   64.5149 C   0  0  1  0  0  0  0  0  0  0  0  0
   -3.1500   29.9757   64.3868 C   0  0  2  0  0  0  0  0  0  0  0  0
   -5.6608   27.9004   65.5144 C   0  0  0  0  0  0  0  0  0  0  0  0
    2.9804   29.9526   62.9300 N   0  0  0  0  0  0  0  0  0  0  0  0
   -4.7774   28.0453   64.3137 N   0  0  0  0  0  0  0  0  0  0  0  0
    2.0250   27.4224   64.0126 O   0  0  0  0  0  0  0  0  0  0  0  0
    0.0263   27.6088   62.6840 O   0  0  0  0  0  0  0  0  0  0  0  0
   -1.7462   30.3706   64.5621 O   0  0  0  0  0  0  0  0  0  0  0  0
   -2.8597   28.1762   62.1603 O   0  0  0  0  0  0  0  0  0  0  0  0
   -3.9440   30.6430   65.3611 O   0  0  0  0  0  0  0  0  0  0  0  0
   -3.9664   32.0843   65.2156 C   0  0  2  0  0  0  0  0  0  0  0  0
   -4.6817   32.7958   66.3885 C   0  0  1  0  0  0  0  0  0  0  0  0
   -6.2058   32.4507   66.4026 C   0  0  2  0  0  0  0  0  0  0  0  0
   -6.8259   32.9063   65.0973 C   0  0  1  0  0  0  0  0  0  0  0  0
   -6.1230   32.1670   63.9195 C   0  0  1  0  0  0  0  0  0  0  0  0
   -6.6781   32.5896   62.5606 C   0  0  0  0  0  0  0  0  0  0  0  0
   -8.2772   32.6024   65.1119 N   0  0  0  0  0  0  0  0  0  0  0  0
   -4.6577   32.4640   63.9474 O   0  0  0  0  0  0  0  0  0  0  0  0
   -4.0151   32.3962   67.6068 O   0  0  0  0  0  0  0  0  0  0  0  0
   -6.8477   33.1307   67.4837 O   0  0  0  0  0  0  0  0  0  0  0  0
   -6.4811   33.9718   62.3871 O   0  0  0  0  0  0  0  0  0  0  0  0
    2.1743   25.9352   64.2485 C   0  0  1  0  0  0  0  0  0  0  0  0
    3.2156   25.3822   63.2372 C   0  0  1  0  0  0  0  0  0  0  0  0
    3.3975   23.8504   63.4431 C   0  0  2  0  0  0  0  0  0  0  0  0
    3.8936   23.5872   64.8862 C   0  0  1  0  0  0  0  0  0  0  0  0
    2.8541   24.1292   65.9316 C   0  0  0  0  0  0  0  0  0  0  0  0
    2.6784   25.6448   65.6975 C   0  0  2  0  0  0  0  0  0  0  0  0
    4.0774   22.1304   65.0919 N   0  0  0  0  0  0  0  0  0  0  0  0
    1.7056   26.1427   66.6762 N   0  0  0  0  0  0  0  0  0  0  0  0
    2.7554   25.6289   61.8901 O   0  0  0  0  0  0  0  0  0  0  0  0
    4.3646   23.3611   62.4875 O   0  0  0  0  0  0  0  0  0  0  0  0
  1  2  1  0  0  0  0
  1 12  1  1  0  0  0
  1 13  1  0  0  0  0
  2  3  1  0  0  0  0
  2 10  1  1  0  0  0
  4  3  1  1  0  0  0
  4  5  1  0  0  0  0
  4 14  1  0  0  0  0
  5  6  1  0  0  0  0
  5 13  1  6  0  0  0
  6  7  1  0  0  0  0
  6 15  1  6  0  0  0
  7  8  1  0  0  0  0
  7 11  1  6  0  0  0
  8 14  1  0  0  0  0
  8 16  1  1  0  0  0
  9 11  1  0  0  0  0
 17 16  1  1  0  0  0
 17 18  1  0  0  0  0
 17 24  1  0  0  0  0
 18 19  1  0  0  0  0
 18 25  1  1  0  0  0
 19 20  1  0  0  0  0
 19 26  1  1  0  0  0
 20 21  1  0  0  0  0
 20 23  1  1  0  0  0
 21 22  1  6  0  0  0
 21 24  1  0  0  0  0
 22 27  1  0  0  0  0
 28 12  1  1  0  0  0
 28 29  1  0  0  0  0
 28 33  1  0  0  0  0
 29 30  1  0  0  0  0
 29 36  1  6  0  0  0
 30 31  1  0  0  0  0
 30 37  1  6  0  0  0
 31 32  1  0  0  0  0
 31 34  1  6  0  0  0
 32 33  1  0  0  0  0
 33 35  1  1  0  0  0
M  END
>  <CHROM.1>
-173.38320466,146.04892358,-172.94360320,66.51668089,-172.54000615,60.18626167
-1.51068305,28.87739942,64.32096274,-0.35163170,0.60027825,-0.85022339

>  <Name>
ligand

>  <RI>
0

>  <Rbt.Current_Directory>
/home/itssahil/PROJECTS/Mol_Feturizer/Test_systems_manuscript/rnas/2g5k

>  <Rbt.Executable>
rbdock ($Id: //depot/dev/client3/rdock/2013.1/src/exe/rbdock.cxx#4 $)

>  <Rbt.Library>
libRbt.so (2013.1, Build901 2013/11/27)

>  <Rbt.Parameter_File>
/export/apps/rDock/src/rDock_2013.1_src/data/scripts/dock_solv.prm

>  <Rbt.Receptor>
prm/pocket_docking_7.prm

>  <SCORE>
-16.8138

>  <SCORE.INTER>
-11.4162

>  <SCORE.INTER.CONST>
1

>  <SCORE.INTER.POLAR>
0

>  <SCORE.INTER.ROT>
6

>  <SCORE.INTER.SOLV>
18.8139

>  <SCORE.INTER.VDW>
-21.4821

>  <SCORE.INTER.norm>
-0.308547

>  <SCORE.INTRA>
-5.39757

>  <SCORE.INTRA.DIHEDRAL>
-9.70242

>  <SCORE.INTRA.DIHEDRAL.0>
11.3972

>  <SCORE.INTRA.POLAR>
0

>  <SCORE.INTRA.POLAR.0>
0

>  <SCORE.INTRA.REPUL>
0

>  <SCORE.INTRA.REPUL.0>
0

>  <SCORE.INTRA.SOLV>
-1.23148

>  <SCORE.INTRA.SOLV.lig_0>
-92.3891

>  <SCORE.INTRA.VDW>
0.0693746

>  <SCORE.INTRA.VDW.0>
-2.90606

>  <SCORE.INTRA.norm>
-0.14588

>  <SCORE.RESTR>
0

>  <SCORE.RESTR.CAVITY>
0

>  <SCORE.RESTR.norm>
0

>  <SCORE.SYSTEM>
0

>  <SCORE.SYSTEM.CONST>
0

>  <SCORE.SYSTEM.DIHEDRAL>
0

>  <SCORE.SYSTEM.SOLV>
0

>  <SCORE.SYSTEM.norm>
0

>  <SCORE.heavy>
37

>  <SCORE.norm>
-0.454427

>  <RMSD>
5.042

$$$$
ligand
 OpenBabel02271912133D
libRbt.so/2013.1/901 2013/11/27
 37 40  0  0  0  0  0  0  0  0999 V2000
    1.3816   27.8426   62.7854 C   0  0  1  0  0  0  0  0  0  0  0  0
    1.5515   29.3801   62.6253 C   0  0  1  0  0  0  0  0  0  0  0  0
    0.7185   30.1632   63.6579 C   0  0  0  0  0  0  0  0  0  0  0  0
   -0.7796   29.7498   63.5169 C   0  0  1  0  0  0  0  0  0  0  0  0
   -0.9490   28.2106   63.7307 C   0  0  1  0  0  0  0  0  0  0  0  0
   -2.4859   27.8104   63.5804 C   0  0  1  0  0  0  0  0  0  0  0  0
   -3.3185   28.5984   64.6338 C   0  0  1  0  0  0  0  0  0  0  0  0
   -3.0853   30.1209   64.3962 C   0  0  2  0  0  0  0  0  0  0  0  0
   -5.2410   26.8824   64.8980 C   0  0  0  0  0  0  0  0  0  0  0  0
    2.9774   29.7589   62.7180 N   0  0  0  0  0  0  0  0  0  0  0  0
   -4.7851   28.2561   64.5127 N   0  0  0  0  0  0  0  0  0  0  0  0
    1.9721   27.3449   64.0019 O   0  0  0  0  0  0  0  0  0  0  0  0
   -0.0693   27.5233   62.7388 O   0  0  0  0  0  0  0  0  0  0  0  0
   -1.6620   30.4703   64.4926 O   0  0  0  0  0  0  0  0  0  0  0  0
   -2.9507   28.1697   62.2858 O   0  0  0  0  0  0  0  0  0  0  0  0
   -3.8148   30.8814   65.3525 O   0  0  0  0  0  0  0  0  0  0  0  0
   -3.9630   32.2798   65.0035 C   0  0  2  0  0  0  0  0  0  0  0  0
   -4.3879   33.1573   66.2047 C   0  0  1  0  0  0  0  0  0  0  0  0
   -5.8309   32.7901   66.6794 C   0  0  2  0  0  0  0  0  0  0  0  0
   -6.7983   33.0173   65.5356 C   0  0  1  0  0  0  0  0  0  0  0  0
   -6.3849   32.1113   64.3373 C   0  0  1  0  0  0  0  0  0  0  0  0
   -7.3018   32.2985   63.1300 C   0  0  0  0  0  0  0  0  0  0  0  0
   -8.1735   32.6922   65.9852 N   0  0  0  0  0  0  0  0  0  0  0  0
   -4.9847   32.4367   63.9256 O   0  0  0  0  0  0  0  0  0  0  0  0
   -3.4020   32.9722   67.2447 O   0  0  0  0  0  0  0  0  0  0  0  0
   -6.2073   33.6232   67.7782 O   0  0  0  0  0  0  0  0  0  0  0  0
   -7.2252   33.6327   62.6902 O   0  0  0  0  0  0  0  0  0  0  0  0
    2.1200   25.8704   64.3088 C   0  0  1  0  0  0  0  0  0  0  0  0
    2.9777   25.2217   63.1880 C   0  0  1  0  0  0  0  0  0  0  0  0
    3.1519   23.7000   63.4632 C   0  0  2  0  0  0  0  0  0  0  0  0
    3.8597   23.5082   64.8272 C   0  0  1  0  0  0  0  0  0  0  0  0
    3.0086   24.1480   65.9820 C   0  0  0  0  0  0  0  0  0  0  0  0
    2.8357   25.6516   65.6791 C   0  0  2  0  0  0  0  0  0  0  0  0
    4.0376   22.0612   65.0970 N   0  0  0  0  0  0  0  0  0  0  0  0
    2.0393   26.2412   66.7608 N   0  0  0  0  0  0  0  0  0  0  0  0
    2.3200   25.4016   61.9143 O   0  0  0  0  0  0  0  0  0  0  0  0
    3.9467   23.1206   62.4046 O   0  0  0  0  0  0  0  0  0  0  0  0
  1  2  1  0  0  0  0
  1 12  1  1  0  0  0
  1 13  1  0  0  0  0
  2  3  1  0  0  0  0
  2 10  1  1  0  0  0
  4  3  1  1  0  0  0
  4  5  1  0  0  0  0
  4 14  1  0  0  0  0
  5  6  1  0  0  0  0
  5 13  1  6  0  0  0
  6  7  1  0  0  0  0
  6 15  1  6  0  0  0
  7  8  1  0  0  0  0
  7 11  1  6  0  0  0
  8 14  1  0  0  0  0
  8 16  1  1  0  0  0
  9 11  1  0  0  0  0
 17 16  1  1  0  0  0
 17 18  1  0  0  0  0
 17 24  1  0  0  0  0
 18 19  1  0  0  0  0
 18 25  1  1  0  0  0
 19 20  1  0  0  0  0
 19 26  1  1  0  0  0
 20 21  1  0  0  0  0
 20 23  1  1  0  0  0
 21 22  1  6  0  0  0
 21 24  1  0  0  0  0
 22 27  1  0  0  0  0
 28 12  1  6  0  0  0
 28 29  1  0  0  0  0
 28 33  1  0  0  0  0
 29 30  1  0  0  0  0
 29 36  1  6  0  0  0
 30 31  1  0  0  0  0
 30 37  1  6  0  0  0
 31 32  1  0  0  0  0
 31 34  1  1  0  0  0
 32 33  1  0  0  0  0
 33 35  1  1  0  0  0
M  END
>  <CHROM.1>
-171.12322932,68.81603850,-163.96949066,58.84033701,-163.63820252,61.17939925
-1.52268729,28.87072413,64.36836782,-0.70757446,0.06206209,0.09140594

>  <Name>
ligand

>  <RI>
0

>  <Rbt.Current_Directory>
/home/itssahil/PROJECTS/Mol_Feturizer/Test_systems_manuscript/rnas/2g5k

>  <Rbt.Executable>
rbdock ($Id: //depot/dev/client3/rdock/2013.1/src/exe/rbdock.cxx#4 $)

>  <Rbt.Library>
libRbt.so (2013.1, Build901 2013/11/27)

>  <Rbt.Parameter_File>
/export/apps/rDock/src/rDock_2013.1_src/data/scripts/dock_solv.prm

>  <Rbt.Receptor>
prm/pocket_docking_7.prm

>  <SCORE>
-15.5778

>  <SCORE.INTER>
-11.4568

>  <SCORE.INTER.CONST>
1

>  <SCORE.INTER.POLAR>
0

>  <SCORE.INTER.ROT>
6

>  <SCORE.INTER.SOLV>
18.2838

>  <SCORE.INTER.VDW>
-21.3325

>  <SCORE.INTER.norm>
-0.309643

>  <SCORE.INTRA>
-4.12105

>  <SCORE.INTRA.DIHEDRAL>
-8.47435

>  <SCORE.INTRA.DIHEDRAL.0>
11.3972

>  <SCORE.INTRA.POLAR>
0

>  <SCORE.INTRA.POLAR.0>
0

>  <SCORE.INTRA.REPUL>
0

>  <SCORE.INTRA.REPUL.0>
0

>  <SCORE.INTRA.SOLV>
-1.1588

>  <SCORE.INTRA.SOLV.lig_0>
-92.3891

>  <SCORE.INTRA.VDW>
0.695525

>  <SCORE.INTRA.VDW.0>
-2.90606

>  <SCORE.INTRA.norm>
-0.11138

>  <SCORE.RESTR>
0

>  <SCORE.RESTR.CAVITY>
0

>  <SCORE.RESTR.norm>
0

>  <SCORE.SYSTEM>
0

>  <SCORE.SYSTEM.CONST>
0

>  <SCORE.SYSTEM.DIHEDRAL>
0

>  <SCORE.SYSTEM.SOLV>
0

>  <SCORE.SYSTEM.norm>
0

>  <SCORE.heavy>
37

>  <SCORE.norm>
-0.421023

>  <RMSD>
5.106

$$$$
ligand
 OpenBabel02271912133D
libRbt.so/2013.1/901 2013/11/27
 37 40  0  0  0  0  0  0  0  0999 V2000
    2.1075   28.0208   62.9925 C   0  0  1  0  0  0  0  0  0  0  0  0
    1.9265   29.4604   62.4327 C   0  0  1  0  0  0  0  0  0  0  0  0
    0.9858   30.3069   63.3114 C   0  0  0  0  0  0  0  0  0  0  0  0
   -0.3885   29.5772   63.4293 C   0  0  1  0  0  0  0  0  0  0  0  0
   -0.2042   28.1506   64.0412 C   0  0  1  0  0  0  0  0  0  0  0  0
   -1.6196   27.4231   64.1507 C   0  0  1  0  0  0  0  0  0  0  0  0
   -2.5601   28.2800   65.0480 C   0  0  1  0  0  0  0  0  0  0  0  0
   -2.6795   29.6973   64.4111 C   0  0  2  0  0  0  0  0  0  0  0  0
   -4.1441   26.6140   66.2421 C   0  0  0  0  0  0  0  0  0  0  0  0
    3.2360   30.1299   62.2842 N   0  0  0  0  0  0  0  0  0  0  0  0
   -3.9185   27.6289   65.1640 N   0  0  0  0  0  0  0  0  0  0  0  0
    2.8448   27.9977   64.2304 O   0  0  0  0  0  0  0  0  0  0  0  0
    0.7624   27.4146   63.1729 O   0  0  0  0  0  0  0  0  0  0  0  0
   -1.3658   30.3396   64.2739 O   0  0  0  0  0  0  0  0  0  0  0  0
   -2.2072   27.3201   62.8602 O   0  0  0  0  0  0  0  0  0  0  0  0
   -3.5175   30.5230   65.2117 O   0  0  0  0  0  0  0  0  0  0  0  0
   -4.1321   31.6166   64.4868 C   0  0  2  0  0  0  0  0  0  0  0  0
   -4.1525   32.9364   65.2939 C   0  0  1  0  0  0  0  0  0  0  0  0
   -5.0867   32.8121   66.5406 C   0  0  2  0  0  0  0  0  0  0  0  0
   -6.4932   32.4982   66.0725 C   0  0  1  0  0  0  0  0  0  0  0  0
   -6.4748   31.1542   65.2845 C   0  0  1  0  0  0  0  0  0  0  0  0
   -7.8576   30.7764   64.7569 C   0  0  0  0  0  0  0  0  0  0  0  0
   -7.3907   32.4007   67.2489 N   0  0  0  0  0  0  0  0  0  0  0  0
   -5.5386   31.2690   64.1241 O   0  0  0  0  0  0  0  0  0  0  0  0
   -2.7875   33.2417   65.6566 O   0  0  0  0  0  0  0  0  0  0  0  0
   -5.1019   34.0466   67.2609 O   0  0  0  0  0  0  0  0  0  0  0  0
   -7.8171   29.4683   64.2406 O   0  0  0  0  0  0  0  0  0  0  0  0
    3.3664   26.7248   64.8610 C   0  0  1  0  0  0  0  0  0  0  0  0
    2.1608   25.7826   65.1286 C   0  0  1  0  0  0  0  0  0  0  0  0
    2.6535   24.4591   65.7824 C   0  0  2  0  0  0  0  0  0  0  0  0
    3.6491   23.7593   64.8247 C   0  0  1  0  0  0  0  0  0  0  0  0
    4.8845   24.6876   64.5431 C   0  0  0  0  0  0  0  0  0  0  0  0
    4.3702   25.9984   63.9109 C   0  0  2  0  0  0  0  0  0  0  0  0
    4.1201   22.4926   65.4344 N   0  0  0  0  0  0  0  0  0  0  0  0
    5.5291   26.8598   63.6524 N   0  0  0  0  0  0  0  0  0  0  0  0
    1.2297   26.4348   66.0203 O   0  0  0  0  0  0  0  0  0  0  0  0
    1.5139   23.6048   66.0262 O   0  0  0  0  0  0  0  0  0  0  0  0
  1  2  1  0  0  0  0
  1 12  1  1  0  0  0
  1 13  1  0  0  0  0
  2  3  1  0  0  0  0
  2 10  1  1  0  0  0
  4  3  1  1  0  0  0
  4  5  1  0  0  0  0
  4 14  1  0  0  0  0
  5  6  1  0  0  0  0
  5 13  1  6  0  0  0
  6  7  1  0  0  0  0
  6 15  1  6  0  0  0
  7  8  1  0  0  0  0
  7 11  1  6  0  0  0
  8 14  1  0  0  0  0
  8 16  1  1  0  0  0
  9 11  1  0  0  0  0
 17 16  1  1  0  0  0
 17 18  1  0  0  0  0
 17 24  1  0  0  0  0
 18 19  1  0  0  0  0
 18 25  1  1  0  0  0
 19 20  1  0  0  0  0
 19 26  1  6  0  0  0
 20 21  1  0  0  0  0
 20 23  1  1  0  0  0
 21 22  1  6  0  0  0
 21 24  1  0  0  0  0
 22 27  1  0  0  0  0
 28 12  1  6  0  0  0
 28 29  1  0  0  0  0
 28 33  1  0  0  0  0
 29 30  1  0  0  0  0
 29 36  1  1  0  0  0
 30 31  1  0  0  0  0
 30 37  1  6  0  0  0
 31 32  1  0  0  0  0
 31 34  1  1  0  0  0
 32 33  1  0  0  0  0
 33 35  1  1  0  0  0
M  END
>  <CHROM.1>
-169.08416477,87.47819492,-155.99725420,-58.77507446,-139.30739493,-170.98840330
-1.13707638,28.71792318,64.72400069,-0.54591168,0.24104172,-0.19745415

>  <Name>
ligand

>  <RI>
0

>  <Rbt.Current_Directory>
/home/itssahil/PROJECTS/Mol_Feturizer/Test_systems_manuscript/rnas/2g5k

>  <Rbt.Executable>
rbdock ($Id: //depot/dev/client3/rdock/2013.1/src/exe/rbdock.cxx#4 $)

>  <Rbt.Library>
libRbt.so (2013.1, Build901 2013/11/27)

>  <Rbt.Parameter_File>
/export/apps/rDock/src/rDock_2013.1_src/data/scripts/dock_solv.prm

>  <Rbt.Receptor>
prm/pocket_docking_6.prm

>  <SCORE>
-10.956

>  <SCORE.INTER>
-8.99741

>  <SCORE.INTER.CONST>
1

>  <SCORE.INTER.POLAR>
0

>  <SCORE.INTER.ROT>
6

>  <SCORE.INTER.SOLV>
18.5502

>  <SCORE.INTER.VDW>
-19.7817

>  <SCORE.INTER.norm>
-0.243173

>  <SCORE.INTRA>
-1.95859

>  <SCORE.INTRA.DIHEDRAL>
-1.99053

>  <SCORE.INTRA.DIHEDRAL.0>
11.3972

>  <SCORE.INTRA.POLAR>
0

>  <SCORE.INTRA.POLAR.0>
0

>  <SCORE.INTRA.REPUL>
0

>  <SCORE.INTRA.REPUL.0>
0

>  <SCORE.INTRA.SOLV>
-0.647698

>  <SCORE.INTRA.SOLV.lig_0>
-92.3891

>  <SCORE.INTRA.VDW>
-0.639478

>  <SCORE.INTRA.VDW.0>
-2.90606

>  <SCORE.INTRA.norm>
-0.052935

>  <SCORE.RESTR>
0

>  <SCORE.RESTR.CAVITY>
0

>  <SCORE.RESTR.norm>
0

>  <SCORE.SYSTEM>
0

>  <SCORE.SYSTEM.CONST>
0

>  <SCORE.SYSTEM.DIHEDRAL>
0

>  <SCORE.SYSTEM.SOLV>
0

>  <SCORE.SYSTEM.norm>
0

>  <SCORE.heavy>
37

>  <SCORE.norm>
-0.296108

>  <RMSD>
5.130

$$$$
ligand
 OpenBabel02271912133D
libRbt.so/2013.1/901 2013/11/27
 37 40  0  0  0  0  0  0  0  0999 V2000
    1.5515   28.0155   62.7255 C   0  0  1  0  0  0  0  0  0  0  0  0
    1.6891   29.5645   62.7099 C   0  0  1  0  0  0  0  0  0  0  0  0
    0.8243   30.2315   63.7964 C   0  0  0  0  0  0  0  0  0  0  0  0
   -0.6621   29.8013   63.5941 C   0  0  1  0  0  0  0  0  0  0  0  0
   -0.7998   28.2458   63.6630 C   0  0  1  0  0  0  0  0  0  0  0  0
   -2.3251   27.8289   63.4519 C   0  0  1  0  0  0  0  0  0  0  0  0
   -3.1899   28.4989   64.5596 C   0  0  1  0  0  0  0  0  0  0  0  0
   -2.9876   30.0413   64.4665 C   0  0  2  0  0  0  0  0  0  0  0  0
   -5.4807   27.8857   65.6021 C   0  0  0  0  0  0  0  0  0  0  0  0
    3.1047   29.9630   62.8598 N   0  0  0  0  0  0  0  0  0  0  0  0
   -4.6466   28.1383   64.3841 N   0  0  0  0  0  0  0  0  0  0  0  0
    2.1358   27.4204   63.9005 O   0  0  0  0  0  0  0  0  0  0  0  0
    0.1089   27.6714   62.6265 O   0  0  0  0  0  0  0  0  0  0  0  0
   -1.5740   30.4102   64.6174 O   0  0  0  0  0  0  0  0  0  0  0  0
   -2.7796   28.2959   62.1884 O   0  0  0  0  0  0  0  0  0  0  0  0
   -3.7474   30.6951   65.4767 O   0  0  0  0  0  0  0  0  0  0  0  0
   -3.6633   32.1408   65.4336 C   0  0  2  0  0  0  0  0  0  0  0  0
   -4.1508   32.8104   66.7403 C   0  0  1  0  0  0  0  0  0  0  0  0
   -5.6837   32.5837   66.9436 C   0  0  2  0  0  0  0  0  0  0  0  0
   -6.4303   33.1874   65.7714 C   0  0  1  0  0  0  0  0  0  0  0  0
   -5.9582   32.4915   64.4598 C   0  0  1  0  0  0  0  0  0  0  0  0
   -6.6507   33.0616   63.2234 C   0  0  0  0  0  0  0  0  0  0  0  0
   -7.8876   32.9960   65.9679 N   0  0  0  0  0  0  0  0  0  0  0  0
   -4.4820   32.6716   64.3030 O   0  0  0  0  0  0  0  0  0  0  0  0
   -3.3650   32.2657   67.8237 O   0  0  0  0  0  0  0  0  0  0  0  0
   -6.1138   33.2237   68.1472 O   0  0  0  0  0  0  0  0  0  0  0  0
   -6.1875   32.3877   62.0785 O   0  0  0  0  0  0  0  0  0  0  0  0
    2.2767   25.9257   64.0902 C   0  0  1  0  0  0  0  0  0  0  0  0
    3.4670   25.4332   63.2222 C   0  0  1  0  0  0  0  0  0  0  0  0
    3.6454   23.8958   63.3850 C   0  0  2  0  0  0  0  0  0  0  0  0
    3.9265   23.5718   64.8730 C   0  0  1  0  0  0  0  0  0  0  0  0
    2.7330   24.0518   65.7744 C   0  0  0  0  0  0  0  0  0  0  0  0
    2.5652   25.5744   65.5839 C   0  0  2  0  0  0  0  0  0  0  0  0
    4.1053   22.1093   65.0392 N   0  0  0  0  0  0  0  0  0  0  0  0
    1.4486   26.0143   66.4274 N   0  0  0  0  0  0  0  0  0  0  0  0
    3.2075   25.7367   61.8337 O   0  0  0  0  0  0  0  0  0  0  0  0
    4.7529   23.4633   62.5639 O   0  0  0  0  0  0  0  0  0  0  0  0
  1  2  1  0  0  0  0
  1 12  1  1  0  0  0
  1 13  1  0  0  0  0
  2  3  1  0  0  0  0
  2 10  1  1  0  0  0
  4  3  1  1  0  0  0
  4  5  1  0  0  0  0
  4 14  1  0  0  0  0
  5  6  1  0  0  0  0
  5 13  1  6  0  0  0
  6  7  1  0  0  0  0
  6 15  1  6  0  0  0
  7  8  1  0  0  0  0
  7 11  1  6  0  0  0
  8 14  1  0  0  0  0
  8 16  1  1  0  0  0
  9 11  1  0  0  0  0
 17 16  1  1  0  0  0
 17 18  1  0  0  0  0
 17 24  1  0  0  0  0
 18 19  1  0  0  0  0
 18 25  1  1  0  0  0
 19 20  1  0  0  0  0
 19 26  1  1  0  0  0
 20 21  1  0  0  0  0
 20 23  1  1  0  0  0
 21 22  1  6  0  0  0
 21 24  1  0  0  0  0
 22 27  1  0  0  0  0
 28 12  1  1  0  0  0
 28 29  1  0  0  0  0
 28 33  1  0  0  0  0
 29 30  1  0  0  0  0
 29 36  1  6  0  0  0
 30 31  1  0  0  0  0
 30 37  1  6  0  0  0
 31 32  1  0  0  0  0
 31 34  1  6  0  0  0
 32 33  1  0  0  0  0
 33 35  1  1  0  0  0
M  END
>  <CHROM.1>
-172.91155346,141.99407951,-177.65071754,76.43610721,-163.86654690,-179.66427383
-1.30908262,28.89872252,64.43016962,-0.22546290,0.67017145,-1.00240255

>  <Name>
ligand

>  <RI>
0

>  <Rbt.Current_Directory>
/home/itssahil/PROJECTS/Mol_Feturizer/Test_systems_manuscript/rnas/2g5k

>  <Rbt.Executable>
rbdock ($Id: //depot/dev/client3/rdock/2013.1/src/exe/rbdock.cxx#4 $)

>  <Rbt.Library>
libRbt.so (2013.1, Build901 2013/11/27)

>  <Rbt.Parameter_File>
/export/apps/rDock/src/rDock_2013.1_src/data/scripts/dock_solv.prm

>  <Rbt.Receptor>
prm/pocket_docking_6.prm

>  <SCORE>
-15.3237

>  <SCORE.INTER>
-10.3979

>  <SCORE.INTER.CONST>
1

>  <SCORE.INTER.POLAR>
0

>  <SCORE.INTER.ROT>
6

>  <SCORE.INTER.SOLV>
19.3205

>  <SCORE.INTER.VDW>
-20.9721

>  <SCORE.INTER.norm>
-0.281023

>  <SCORE.INTRA>
-4.92581

>  <SCORE.INTRA.DIHEDRAL>
-7.78175

>  <SCORE.INTRA.DIHEDRAL.0>
11.3972

>  <SCORE.INTRA.POLAR>
0

>  <SCORE.INTRA.POLAR.0>
0

>  <SCORE.INTRA.REPUL>
0

>  <SCORE.INTRA.REPUL.0>
0

>  <SCORE.INTRA.SOLV>
-1.83489

>  <SCORE.INTRA.SOLV.lig_0>
-92.3891

>  <SCORE.INTRA.VDW>
-0.117486

>  <SCORE.INTRA.VDW.0>
-2.90606

>  <SCORE.INTRA.norm>
-0.13313

>  <SCORE.RESTR>
0

>  <SCORE.RESTR.CAVITY>
0

>  <SCORE.RESTR.norm>
0

>  <SCORE.SYSTEM>
0

>  <SCORE.SYSTEM.CONST>
0

>  <SCORE.SYSTEM.DIHEDRAL>
0

>  <SCORE.SYSTEM.SOLV>
0

>  <SCORE.SYSTEM.norm>
0

>  <SCORE.heavy>
37

>  <SCORE.norm>
-0.414153

>  <RMSD>
5.160

$$$$
ligand
 OpenBabel02271912133D
libRbt.so/2013.1/901 2013/11/27
 37 40  0  0  0  0  0  0  0  0999 V2000
    1.5823   27.9769   62.6974 C   0  0  1  0  0  0  0  0  0  0  0  0
    1.7127   29.5206   62.5615 C   0  0  1  0  0  0  0  0  0  0  0  0
    0.8407   30.2660   63.5898 C   0  0  0  0  0  0  0  0  0  0  0  0
   -0.6429   29.8141   63.4165 C   0  0  1  0  0  0  0  0  0  0  0  0
   -0.7736   28.2679   63.6061 C   0  0  1  0  0  0  0  0  0  0  0  0
   -2.2961   27.8283   63.4229 C   0  0  1  0  0  0  0  0  0  0  0  0
   -3.1682   28.5784   64.4721 C   0  0  1  0  0  0  0  0  0  0  0  0
   -2.9728   30.1098   64.2596 C   0  0  2  0  0  0  0  0  0  0  0  0
   -5.0879   26.8854   64.8713 C   0  0  0  0  0  0  0  0  0  0  0  0
    3.1259   29.9366   62.6847 N   0  0  0  0  0  0  0  0  0  0  0  0
   -4.6226   28.1980   64.3202 N   0  0  0  0  0  0  0  0  0  0  0  0
    2.1649   27.4781   63.9172 O   0  0  0  0  0  0  0  0  0  0  0  0
    0.1417   27.6190   62.6206 O   0  0  0  0  0  0  0  0  0  0  0  0
   -1.5615   30.4963   64.3862 O   0  0  0  0  0  0  0  0  0  0  0  0
   -2.7480   28.1932   62.1253 O   0  0  0  0  0  0  0  0  0  0  0  0
   -3.7394   30.8365   65.2132 O   0  0  0  0  0  0  0  0  0  0  0  0
   -3.8850   32.2441   64.9020 C   0  0  2  0  0  0  0  0  0  0  0  0
   -4.3108   33.0893   66.1259 C   0  0  1  0  0  0  0  0  0  0  0  0
   -5.7550   32.7114   66.5880 C   0  0  2  0  0  0  0  0  0  0  0  0
   -6.7202   32.9712   65.4492 C   0  0  1  0  0  0  0  0  0  0  0  0
   -6.3060   32.0974   64.2274 C   0  0  1  0  0  0  0  0  0  0  0  0
   -7.2205   32.3188   63.0241 C   0  0  0  0  0  0  0  0  0  0  0  0
   -8.0966   32.6360   65.8874 N   0  0  0  0  0  0  0  0  0  0  0  0
   -4.9046   32.4318   63.8270 O   0  0  0  0  0  0  0  0  0  0  0  0
   -3.3269   32.8745   67.1622 O   0  0  0  0  0  0  0  0  0  0  0  0
   -6.1321   33.5149   67.7084 O   0  0  0  0  0  0  0  0  0  0  0  0
   -7.1421   33.6646   62.6216 O   0  0  0  0  0  0  0  0  0  0  0  0
    2.2600   26.0047   64.2487 C   0  0  1  0  0  0  0  0  0  0  0  0
    3.0679   25.3020   63.1234 C   0  0  1  0  0  0  0  0  0  0  0  0
    3.1867   23.7796   63.4234 C   0  0  2  0  0  0  0  0  0  0  0  0
    3.9141   23.5838   64.7765 C   0  0  1  0  0  0  0  0  0  0  0  0
    3.1132   24.2779   65.9358 C   0  0  0  0  0  0  0  0  0  0  0  0
    2.9944   25.7817   65.6083 C   0  0  2  0  0  0  0  0  0  0  0  0
    4.0395   22.1358   65.0697 N   0  0  0  0  0  0  0  0  0  0  0  0
    2.2446   26.4221   66.6944 N   0  0  0  0  0  0  0  0  0  0  0  0
    2.3918   25.4855   61.8598 O   0  0  0  0  0  0  0  0  0  0  0  0
    3.9357   23.1498   62.3603 O   0  0  0  0  0  0  0  0  0  0  0  0
  1  2  1  0  0  0  0
  1 12  1  1  0  0  0
  1 13  1  0  0  0  0
  2  3  1  0  0  0  0
  2 10  1  1  0  0  0
  4  3  1  1  0  0  0
  4  5  1  0  0  0  0
  4 14  1  0  0  0  0
  5  6  1  0  0  0  0
  5 13  1  6  0  0  0
  6  7  1  0  0  0  0
  6 15  1  6  0  0  0
  7  8  1  0  0  0  0
  7 11  1  6  0  0  0
  8 14  1  0  0  0  0
  8 16  1  1  0  0  0
  9 11  1  0  0  0  0
 17 16  1  1  0  0  0
 17 18  1  0  0  0  0
 17 24  1  0  0  0  0
 18 19  1  0  0  0  0
 18 25  1  1  0  0  0
 19 20  1  0  0  0  0
 19 26  1  1  0  0  0
 20 21  1  0  0  0  0
 20 23  1  1  0  0  0
 21 22  1  6  0  0  0
 21 24  1  0  0  0  0
 22 27  1  0  0  0  0
 28 12  1  6  0  0  0
 28 29  1  0  0  0  0
 28 33  1  0  0  0  0
 29 30  1  0  0  0  0
 29 36  1  6  0  0  0
 30 31  1  0  0  0  0
 30 37  1  6  0  0  0
 31 32  1  0  0  0  0
 31 34  1  1  0  0  0
 32 33  1  0  0  0  0
 33 35  1  1  0  0  0
M  END
>  <CHROM.1>
-175.53432542,78.09426922,-165.77607981,58.18278927,-161.72269337,61.12312497
-1.40942296,28.90710178,64.27983970,-0.64695029,0.28779562,-0.19847917

>  <Name>
ligand

>  <RI>
0

>  <Rbt.Current_Directory>
/home/itssahil/PROJECTS/Mol_Feturizer/Test_systems_manuscript/rnas/2g5k

>  <Rbt.Executable>
rbdock ($Id: //depot/dev/client3/rdock/2013.1/src/exe/rbdock.cxx#4 $)

>  <Rbt.Library>
libRbt.so (2013.1, Build901 2013/11/27)

>  <Rbt.Parameter_File>
/export/apps/rDock/src/rDock_2013.1_src/data/scripts/dock_solv.prm

>  <Rbt.Receptor>
prm/pocket_docking_8.prm

>  <SCORE>
-15.8201

>  <SCORE.INTER>
-11.502

>  <SCORE.INTER.CONST>
1

>  <SCORE.INTER.POLAR>
0

>  <SCORE.INTER.ROT>
6

>  <SCORE.INTER.SOLV>
19.1382

>  <SCORE.INTER.VDW>
-21.6474

>  <SCORE.INTER.norm>
-0.310864

>  <SCORE.INTRA>
-4.31809

>  <SCORE.INTRA.DIHEDRAL>
-8.5185

>  <SCORE.INTRA.DIHEDRAL.0>
11.3972

>  <SCORE.INTRA.POLAR>
0

>  <SCORE.INTRA.POLAR.0>
0

>  <SCORE.INTRA.REPUL>
0

>  <SCORE.INTRA.REPUL.0>
0

>  <SCORE.INTRA.SOLV>
-1.23387

>  <SCORE.INTRA.SOLV.lig_0>
-92.3891

>  <SCORE.INTRA.VDW>
0.558092

>  <SCORE.INTRA.VDW.0>
-2.90606

>  <SCORE.INTRA.norm>
-0.116705

>  <SCORE.RESTR>
0

>  <SCORE.RESTR.CAVITY>
0

>  <SCORE.RESTR.norm>
0

>  <SCORE.SYSTEM>
0

>  <SCORE.SYSTEM.CONST>
0

>  <SCORE.SYSTEM.DIHEDRAL>
0

>  <SCORE.SYSTEM.SOLV>
0

>  <SCORE.SYSTEM.norm>
0

>  <SCORE.heavy>
37

>  <SCORE.norm>
-0.427569

>  <RMSD>
5.188

$$$$
ligand
 OpenBabel02271912133D
libRbt.so/2013.1/901 2013/11/27
 37 40  0  0  0  0  0  0  0  0999 V2000
    2.0328   27.9887   63.0209 C   0  0  1  0  0  0  0  0  0  0  0  0
    1.8556   29.4439   62.5017 C   0  0  1  0  0  0  0  0  0  0  0  0
    0.9755   30.2889   63.4424 C   0  0  0  0  0  0  0  0  0  0  0  0
   -0.4067   29.5842   63.6101 C   0  0  1  0  0  0  0  0  0  0  0  0
   -0.2235   28.1407   64.1814 C   0  0  1  0  0  0  0  0  0  0  0  0
   -1.6471   27.4391   64.3426 C   0  0  1  0  0  0  0  0  0  0  0  0
   -2.5259   28.2939   65.3022 C   0  0  1  0  0  0  0  0  0  0  0  0
   -2.6457   29.7274   64.7026 C   0  0  2  0  0  0  0  0  0  0  0  0
   -4.6209   27.8590   66.7623 C   0  0  0  0  0  0  0  0  0  0  0  0
    3.1703   30.0905   62.3054 N   0  0  0  0  0  0  0  0  0  0  0  0
   -3.8907   27.6675   65.4688 N   0  0  0  0  0  0  0  0  0  0  0  0
    2.8271   27.9230   64.2213 O   0  0  0  0  0  0  0  0  0  0  0  0
    0.6853   27.4055   63.2521 O   0  0  0  0  0  0  0  0  0  0  0  0
   -1.3268   30.3465   64.5167 O   0  0  0  0  0  0  0  0  0  0  0  0
   -2.2971   27.3771   63.0797 O   0  0  0  0  0  0  0  0  0  0  0  0
   -3.4274   30.5513   65.5600 O   0  0  0  0  0  0  0  0  0  0  0  0
   -3.4662   31.9442   65.1633 C   0  0  2  0  0  0  0  0  0  0  0  0
   -3.8879   32.8860   66.3160 C   0  0  1  0  0  0  0  0  0  0  0  0
   -5.3727   32.6285   66.7302 C   0  0  2  0  0  0  0  0  0  0  0  0
   -6.2683   32.8807   65.5343 C   0  0  1  0  0  0  0  0  0  0  0  0
   -5.8601   31.9113   64.3847 C   0  0  1  0  0  0  0  0  0  0  0  0
   -6.7049   32.1182   63.1291 C   0  0  0  0  0  0  0  0  0  0  0  0
   -7.6815   32.6600   65.9254 N   0  0  0  0  0  0  0  0  0  0  0  0
   -4.4236   32.1319   64.0326 O   0  0  0  0  0  0  0  0  0  0  0  0
   -2.9662   32.6713   67.4080 O   0  0  0  0  0  0  0  0  0  0  0  0
   -5.7442   33.5195   67.7844 O   0  0  0  0  0  0  0  0  0  0  0  0
   -6.5178   33.4290   62.6533 O   0  0  0  0  0  0  0  0  0  0  0  0
    3.3644   26.6276   64.7900 C   0  0  1  0  0  0  0  0  0  0  0  0
    2.1611   25.7010   65.1160 C   0  0  1  0  0  0  0  0  0  0  0  0
    2.6699   24.3550   65.7086 C   0  0  2  0  0  0  0  0  0  0  0  0
    3.5880   23.6591   64.6736 C   0  0  1  0  0  0  0  0  0  0  0  0
    4.8199   24.5716   64.3315 C   0  0  0  0  0  0  0  0  0  0  0  0
    4.2905   25.9048   63.7616 C   0  0  2  0  0  0  0  0  0  0  0  0
    4.0734   22.3712   65.2249 N   0  0  0  0  0  0  0  0  0  0  0  0
    5.4464   26.7512   63.4460 N   0  0  0  0  0  0  0  0  0  0  0  0
    1.3021   26.3496   66.0798 O   0  0  0  0  0  0  0  0  0  0  0  0
    1.5325   23.5156   66.0083 O   0  0  0  0  0  0  0  0  0  0  0  0
  1  2  1  0  0  0  0
  1 12  1  1  0  0  0
  1 13  1  0  0  0  0
  2  3  1  0  0  0  0
  2 10  1  1  0  0  0
  4  3  1  1  0  0  0
  4  5  1  0  0  0  0
  4 14  1  0  0  0  0
  5  6  1  0  0  0  0
  5 13  1  6  0  0  0
  6  7  1  0  0  0  0
  6 15  1  6  0  0  0
  7  8  1  0  0  0  0
  7 11  1  6  0  0  0
  8 14  1  0  0  0  0
  8 16  1  1  0  0  0
  9 11  1  0  0  0  0
 17 16  1  1  0  0  0
 17 18  1  0  0  0  0
 17 24  1  0  0  0  0
 18 19  1  0  0  0  0
 18 25  1  1  0  0  0
 19 20  1  0  0  0  0
 19 26  1  1  0  0  0
 20 21  1  0  0  0  0
 20 23  1  1  0  0  0
 21 22  1  6  0  0  0
 21 24  1  0  0  0  0
 22 27  1  0  0  0  0
 28 12  1  6  0  0  0
 28 29  1  0  0  0  0
 28 33  1  0  0  0  0
 29 30  1  0  0  0  0
 29 36  1  1  0  0  0
 30 31  1  0  0  0  0
 30 37  1  6  0  0  0
 31 32  1  0  0  0  0
 31 34  1  1  0  0  0
 32 33  1  0  0  0  0
 33 35  1  1  0  0  0
M  END
>  <CHROM.1>
-168.37329345,149.76250480,173.26120424,-59.97991087,-160.41800996,61.28047282
-1.05428942,28.91426233,64.73030743,-0.53911149,0.40981826,-0.45653887

>  <Name>
ligand

>  <RI>
0

>  <Rbt.Current_Directory>
/home/itssahil/PROJECTS/Mol_Feturizer/Test_systems_manuscript/rnas/2g5k

>  <Rbt.Executable>
rbdock ($Id: //depot/dev/client3/rdock/2013.1/src/exe/rbdock.cxx#4 $)

>  <Rbt.Library>
libRbt.so (2013.1, Build901 2013/11/27)

>  <Rbt.Parameter_File>
/export/apps/rDock/src/rDock_2013.1_src/data/scripts/dock_solv.prm

>  <Rbt.Receptor>
prm/pocket_docking_5.prm

>  <SCORE>
-12.589

>  <SCORE.INTER>
-8.21893

>  <SCORE.INTER.CONST>
1

>  <SCORE.INTER.POLAR>
0

>  <SCORE.INTER.ROT>
6

>  <SCORE.INTER.SOLV>
18.1017

>  <SCORE.INTER.VDW>
-19.1132

>  <SCORE.INTER.norm>
-0.222133

>  <SCORE.INTRA>
-4.37005

>  <SCORE.INTRA.DIHEDRAL>
-8.14913

>  <SCORE.INTRA.DIHEDRAL.0>
11.3972

>  <SCORE.INTRA.POLAR>
0

>  <SCORE.INTRA.POLAR.0>
0

>  <SCORE.INTRA.REPUL>
0

>  <SCORE.INTRA.REPUL.0>
0

>  <SCORE.INTRA.SOLV>
-0.194518

>  <SCORE.INTRA.SOLV.lig_0>
-92.3891

>  <SCORE.INTRA.VDW>
-0.198226

>  <SCORE.INTRA.VDW.0>
-2.90606

>  <SCORE.INTRA.norm>
-0.118109

>  <SCORE.RESTR>
0

>  <SCORE.RESTR.CAVITY>
0

>  <SCORE.RESTR.norm>
0

>  <SCORE.SYSTEM>
0

>  <SCORE.SYSTEM.CONST>
0

>  <SCORE.SYSTEM.DIHEDRAL>
0

>  <SCORE.SYSTEM.SOLV>
0

>  <SCORE.SYSTEM.norm>
0

>  <SCORE.heavy>
37

>  <SCORE.norm>
-0.340243

>  <RMSD>
5.210

$$$$
ligand
 OpenBabel02271912133D
libRbt.so/2013.1/901 2013/11/27
 37 40  0  0  0  0  0  0  0  0999 V2000
   -1.4827   27.5205   66.3074 C   0  0  1  0  0  0  0  0  0  0  0  0
   -1.9895   27.9896   64.9140 C   0  0  1  0  0  0  0  0  0  0  0  0
   -3.4498   28.4778   64.9656 C   0  0  0  0  0  0  0  0  0  0  0  0
   -4.3464   27.3312   65.5283 C   0  0  1  0  0  0  0  0  0  0  0  0
   -3.8623   26.9010   66.9511 C   0  0  1  0  0  0  0  0  0  0  0  0
   -4.7906   25.7281   67.5055 C   0  0  1  0  0  0  0  0  0  0  0  0
   -6.2621   26.2332   67.5638 C   0  0  1  0  0  0  0  0  0  0  0  0
   -6.6789   26.6797   66.1301 C   0  0  2  0  0  0  0  0  0  0  0  0
   -8.4780   25.5268   68.7046 C   0  0  0  0  0  0  0  0  0  0  0  0
   -1.1109   29.0461   64.3689 N   0  0  0  0  0  0  0  0  0  0  0  0
   -7.1761   25.1426   68.0718 N   0  0  0  0  0  0  0  0  0  0  0  0
   -1.3420   28.6100   67.2399 O   0  0  0  0  0  0  0  0  0  0  0  0
   -2.4285   26.5010   66.8320 O   0  0  0  0  0  0  0  0  0  0  0  0
   -5.7903   27.7282   65.6118 O   0  0  0  0  0  0  0  0  0  0  0  0
   -4.7361   24.6151   66.6226 O   0  0  0  0  0  0  0  0  0  0  0  0
   -8.0153   27.1685   66.1403 O   0  0  0  0  0  0  0  0  0  0  0  0
   -8.6529   27.1665   64.8393 C   0  0  2  0  0  0  0  0  0  0  0  0
  -10.1112   27.6810   64.8839 C   0  0  1  0  0  0  0  0  0  0  0  0
  -11.0231   26.7006   65.6900 C   0  0  2  0  0  0  0  0  0  0  0  0
  -10.9994   25.3422   65.0191 C   0  0  1  0  0  0  0  0  0  0  0  0
   -9.5337   24.8137   65.0010 C   0  0  1  0  0  0  0  0  0  0  0  0
   -9.4204   23.4521   64.3180 C   0  0  0  0  0  0  0  0  0  0  0  0
  -11.8802   24.4117   65.7656 N   0  0  0  0  0  0  0  0  0  0  0  0
   -8.6619   25.7852   64.2716 O   0  0  0  0  0  0  0  0  0  0  0  0
  -10.0840   29.0065   65.4588 O   0  0  0  0  0  0  0  0  0  0  0  0
  -12.3667   27.1879   65.7042 O   0  0  0  0  0  0  0  0  0  0  0  0
   -8.0657   23.0797   64.2446 O   0  0  0  0  0  0  0  0  0  0  0  0
   -0.0012   29.1480   67.6902 C   0  0  1  0  0  0  0  0  0  0  0  0
   -0.2519   30.3256   68.6716 C   0  0  1  0  0  0  0  0  0  0  0  0
    1.1049   30.9126   69.1577 C   0  0  2  0  0  0  0  0  0  0  0  0
    1.9081   29.8036   69.8811 C   0  0  1  0  0  0  0  0  0  0  0  0
    2.1840   28.6020   68.9079 C   0  0  0  0  0  0  0  0  0  0  0  0
    0.8260   28.0477   68.4270 C   0  0  2  0  0  0  0  0  0  0  0  0
    3.2008   30.3536   70.3553 N   0  0  0  0  0  0  0  0  0  0  0  0
    1.0923   26.9274   67.5182 N   0  0  0  0  0  0  0  0  0  0  0  0
   -1.0032   31.3603   67.9990 O   0  0  0  0  0  0  0  0  0  0  0  0
    0.8437   32.0084   70.0627 O   0  0  0  0  0  0  0  0  0  0  0  0
  1  2  1  0  0  0  0
  1 12  1  1  0  0  0
  1 13  1  0  0  0  0
  2  3  1  0  0  0  0
  2 10  1  1  0  0  0
  4  3  1  1  0  0  0
  4  5  1  0  0  0  0
  4 14  1  0  0  0  0
  5  6  1  0  0  0  0
  5 13  1  6  0  0  0
  6  7  1  0  0  0  0
  6 15  1  6  0  0  0
  7  8  1  0  0  0  0
  7 11  1  6  0  0  0
  8 14  1  0  0  0  0
  8 16  1  1  0  0  0
  9 11  1  0  0  0  0
 17 16  1  1  0  0  0
 17 18  1  0  0  0  0
 17 24  1  0  0  0  0
 18 19  1  0  0  0  0
 18 25  1  1  0  0  0
 19 20  1  0  0  0  0
 19 26  1  6  0  0  0
 20 21  1  0  0  0  0
 20 23  1  1  0  0  0
 21 22  1  6  0  0  0
 21 24  1  0  0  0  0
 22 27  1  0  0  0  0
 28 12  1  1  0  0  0
 28 29  1  0  0  0  0
 28 33  1  0  0  0  0
 29 30  1  0  0  0  0
 29 36  1  6  0  0  0
 30 31  1  0  0  0  0
 30 37  1  1  0  0  0
 31 32  1  0  0  0  0
 31 34  1  6  0  0  0
 32 33  1  0  0  0  0
 33 35  1  6  0  0  0
M  END
>  <CHROM.1>
-107.93653716,156.38619263,-159.51745222,179.11795064,179.07438071,175.57384825
-4.72371924,27.38484868,66.67464384,-0.39796114,0.17079211,-2.84911391

>  <Name>
ligand

>  <RI>
0

>  <Rbt.Current_Directory>
/home/itssahil/PROJECTS/Mol_Feturizer/Test_systems_manuscript/rnas/2g5k

>  <Rbt.Executable>
rbdock ($Id: //depot/dev/client3/rdock/2013.1/src/exe/rbdock.cxx#4 $)

>  <Rbt.Library>
libRbt.so (2013.1, Build901 2013/11/27)

>  <Rbt.Parameter_File>
/export/apps/rDock/src/rDock_2013.1_src/data/scripts/dock_solv.prm

>  <Rbt.Receptor>
prm/pocket_docking_7.prm

>  <SCORE>
-5.27825

>  <SCORE.INTER>
-3.71798

>  <SCORE.INTER.CONST>
1

>  <SCORE.INTER.POLAR>
0

>  <SCORE.INTER.ROT>
6

>  <SCORE.INTER.SOLV>
10.7294

>  <SCORE.INTER.VDW>
-13.6551

>  <SCORE.INTER.norm>
-0.100486

>  <SCORE.INTRA>
-1.56118

>  <SCORE.INTRA.DIHEDRAL>
-2.51864

>  <SCORE.INTRA.DIHEDRAL.0>
11.3972

>  <SCORE.INTRA.POLAR>
0

>  <SCORE.INTRA.POLAR.0>
0

>  <SCORE.INTRA.REPUL>
0.00173148

>  <SCORE.INTRA.REPUL.0>
0

>  <SCORE.INTRA.SOLV>
0.245117

>  <SCORE.INTRA.SOLV.lig_0>
-92.3891

>  <SCORE.INTRA.VDW>
-0.433077

>  <SCORE.INTRA.VDW.0>
-2.90606

>  <SCORE.INTRA.norm>
-0.042194

>  <SCORE.RESTR>
0.000912152

>  <SCORE.RESTR.CAVITY>
0.000912152

>  <SCORE.RESTR.norm>
2.46527e-05

>  <SCORE.SYSTEM>
0

>  <SCORE.SYSTEM.CONST>
0

>  <SCORE.SYSTEM.DIHEDRAL>
0

>  <SCORE.SYSTEM.SOLV>
0

>  <SCORE.SYSTEM.norm>
0

>  <SCORE.heavy>
37

>  <SCORE.norm>
-0.142655

>  <RMSD>
5.409

$$$$
ligand
 OpenBabel02271912133D
libRbt.so/2013.1/901 2013/11/27
 37 40  0  0  0  0  0  0  0  0999 V2000
    3.8398   29.2096   65.3053 C   0  0  1  0  0  0  0  0  0  0  0  0
    3.6149   30.2671   66.4232 C   0  0  1  0  0  0  0  0  0  0  0  0
    2.1656   30.2552   66.9455 C   0  0  0  0  0  0  0  0  0  0  0  0
    1.1947   30.4947   65.7474 C   0  0  1  0  0  0  0  0  0  0  0  0
    1.3907   29.3975   64.6514 C   0  0  1  0  0  0  0  0  0  0  0  0
    0.3910   29.6627   63.4370 C   0  0  1  0  0  0  0  0  0  0  0  0
   -1.0710   29.6390   63.9718 C   0  0  1  0  0  0  0  0  0  0  0  0
   -1.1992   30.7253   65.0818 C   0  0  2  0  0  0  0  0  0  0  0  0
   -2.8553   28.7597   62.3124 C   0  0  0  0  0  0  0  0  0  0  0  0
    4.5662   30.0595   67.5355 N   0  0  0  0  0  0  0  0  0  0  0  0
   -2.0489   29.9014   62.8503 N   0  0  0  0  0  0  0  0  0  0  0  0
    3.7710   27.8583   65.8008 O   0  0  0  0  0  0  0  0  0  0  0  0
    2.8261   29.4292   64.2407 O   0  0  0  0  0  0  0  0  0  0  0  0
   -0.2434   30.4967   66.1734 O   0  0  0  0  0  0  0  0  0  0  0  0
    0.6413   30.9470   62.8812 O   0  0  0  0  0  0  0  0  0  0  0  0
   -2.5189   30.7257   65.6142 O   0  0  0  0  0  0  0  0  0  0  0  0
   -3.4924   31.3934   64.7742 C   0  0  2  0  0  0  0  0  0  0  0  0
   -3.9372   32.7624   65.3412 C   0  0  1  0  0  0  0  0  0  0  0  0
   -4.7334   32.5810   66.6736 C   0  0  2  0  0  0  0  0  0  0  0  0
   -5.9619   31.7367   66.4020 C   0  0  1  0  0  0  0  0  0  0  0  0
   -5.5101   30.3483   65.8580 C   0  0  1  0  0  0  0  0  0  0  0  0
   -6.6964   29.4413   65.5367 C   0  0  0  0  0  0  0  0  0  0  0  0
   -6.7350   31.5784   67.6575 N   0  0  0  0  0  0  0  0  0  0  0  0
   -4.7061   30.5384   64.6116 O   0  0  0  0  0  0  0  0  0  0  0  0
   -2.7479   33.5646   65.5149 O   0  0  0  0  0  0  0  0  0  0  0  0
   -5.1468   33.8561   67.1698 O   0  0  0  0  0  0  0  0  0  0  0  0
   -6.2214   28.2015   65.0712 O   0  0  0  0  0  0  0  0  0  0  0  0
    4.0295   26.6439   64.9357 C   0  0  1  0  0  0  0  0  0  0  0  0
    2.9221   26.5737   63.8487 C   0  0  1  0  0  0  0  0  0  0  0  0
    3.1482   25.3334   62.9365 C   0  0  2  0  0  0  0  0  0  0  0  0
    4.5324   25.4518   62.2521 C   0  0  1  0  0  0  0  0  0  0  0  0
    5.6737   25.5159   63.3293 C   0  0  0  0  0  0  0  0  0  0  0  0
    5.4192   26.7427   64.2309 C   0  0  2  0  0  0  0  0  0  0  0  0
    4.7561   24.2781   61.3742 N   0  0  0  0  0  0  0  0  0  0  0  0
    6.4880   26.7947   65.2344 N   0  0  0  0  0  0  0  0  0  0  0  0
    1.6297   26.4655   64.4855 O   0  0  0  0  0  0  0  0  0  0  0  0
    2.1029   25.2882   61.9399 O   0  0  0  0  0  0  0  0  0  0  0  0
  1  2  1  0  0  0  0
  1 12  1  1  0  0  0
  1 13  1  0  0  0  0
  2  3  1  0  0  0  0
  2 10  1  1  0  0  0
  4  3  1  1  0  0  0
  4  5  1  0  0  0  0
  4 14  1  0  0  0  0
  5  6  1  0  0  0  0
  5 13  1  6  0  0  0
  6  7  1  0  0  0  0
  6 15  1  1  0  0  0
  7  8  1  0  0  0  0
  7 11  1  6  0  0  0
  8 14  1  0  0  0  0
  8 16  1  1  0  0  0
  9 11  1  0  0  0  0
 17 16  1  1  0  0  0
 17 18  1  0  0  0  0
 17 24  1  0  0  0  0
 18 19  1  0  0  0  0
 18 25  1  1  0  0  0
 19 20  1  0  0  0  0
 19 26  1  6  0  0  0
 20 21  1  0  0  0  0
 20 23  1  1  0  0  0
 21 22  1  6  0  0  0
 21 24  1  0  0  0  0
 22 27  1  0  0  0  0
 28 12  1  1  0  0  0
 28 29  1  0  0  0  0
 28 33  1  0  0  0  0
 29 30  1  0  0  0  0
 29 36  1  1  0  0  0
 30 31  1  0  0  0  0
 30 37  1  6  0  0  0
 31 32  1  0  0  0  0
 31 34  1  6  0  0  0
 32 33  1  0  0  0  0
 33 35  1  1  0  0  0
M  END
>  <CHROM.1>
-176.53610495,105.90611817,-78.18158552,-64.93081475,-106.99446450,-179.11529094
-0.07379477,29.28493787,64.81202283,-0.48259873,-0.14669970,0.64644708

>  <Name>
ligand

>  <RI>
0

>  <Rbt.Current_Directory>
/home/itssahil/PROJECTS/Mol_Feturizer/Test_systems_manuscript/rnas/2g5k

>  <Rbt.Executable>
rbdock ($Id: //depot/dev/client3/rdock/2013.1/src/exe/rbdock.cxx#4 $)

>  <Rbt.Library>
libRbt.so (2013.1, Build901 2013/11/27)

>  <Rbt.Parameter_File>
/export/apps/rDock/src/rDock_2013.1_src/data/scripts/dock_solv.prm

>  <Rbt.Receptor>
prm/pocket_docking_7.prm

>  <SCORE>
-8.75077

>  <SCORE.INTER>
-7.04596

>  <SCORE.INTER.CONST>
1

>  <SCORE.INTER.POLAR>
0

>  <SCORE.INTER.ROT>
6

>  <SCORE.INTER.SOLV>
11.7029

>  <SCORE.INTER.VDW>
-16.1983

>  <SCORE.INTER.norm>
-0.190431

>  <SCORE.INTRA>
-1.70482

>  <SCORE.INTRA.DIHEDRAL>
-2.24195

>  <SCORE.INTRA.DIHEDRAL.0>
11.3972

>  <SCORE.INTRA.POLAR>
0

>  <SCORE.INTRA.POLAR.0>
0

>  <SCORE.INTRA.REPUL>
0

>  <SCORE.INTRA.REPUL.0>
0

>  <SCORE.INTRA.SOLV>
-0.0072698

>  <SCORE.INTRA.SOLV.lig_0>
-92.3891

>  <SCORE.INTRA.VDW>
-0.580209

>  <SCORE.INTRA.VDW.0>
-2.90606

>  <SCORE.INTRA.norm>
-0.0460761

>  <SCORE.RESTR>
0

>  <SCORE.RESTR.CAVITY>
0

>  <SCORE.RESTR.norm>
0

>  <SCORE.SYSTEM>
0

>  <SCORE.SYSTEM.CONST>
0

>  <SCORE.SYSTEM.DIHEDRAL>
0

>  <SCORE.SYSTEM.SOLV>
0

>  <SCORE.SYSTEM.norm>
0

>  <SCORE.heavy>
37

>  <SCORE.norm>
-0.236507

>  <RMSD>
5.413

$$$$
ligand
 OpenBabel02271912133D
libRbt.so/2013.1/901 2013/11/27
 37 40  0  0  0  0  0  0  0  0999 V2000
    2.8662   24.5645   65.7214 C   0  0  1  0  0  0  0  0  0  0  0  0
    1.9616   24.1792   64.5166 C   0  0  1  0  0  0  0  0  0  0  0  0
    0.8150   25.1872   64.3105 C   0  0  0  0  0  0  0  0  0  0  0  0
   -0.0185   25.2807   65.6265 C   0  0  1  0  0  0  0  0  0  0  0  0
    0.8875   25.7190   66.8226 C   0  0  1  0  0  0  0  0  0  0  0  0
    0.0165   25.8060   68.1561 C   0  0  1  0  0  0  0  0  0  0  0  0
   -1.1332   26.8338   67.9425 C   0  0  1  0  0  0  0  0  0  0  0  0
   -1.9806   26.3668   66.7208 C   0  0  2  0  0  0  0  0  0  0  0  0
   -1.6348   27.9443   70.2284 C   0  0  0  0  0  0  0  0  0  0  0  0
    2.7648   24.0514   63.2822 N   0  0  0  0  0  0  0  0  0  0  0  0
   -1.9910   26.9335   69.1823 N   0  0  0  0  0  0  0  0  0  0  0  0
    3.6338   25.7591   65.4765 O   0  0  0  0  0  0  0  0  0  0  0  0
    2.0043   24.7325   66.9207 O   0  0  0  0  0  0  0  0  0  0  0  0
   -1.1595   26.2470   65.5088 O   0  0  0  0  0  0  0  0  0  0  0  0
   -0.5648   24.5385   68.4331 O   0  0  0  0  0  0  0  0  0  0  0  0
   -3.0350   27.2907   66.4764 O   0  0  0  0  0  0  0  0  0  0  0  0
   -3.9833   26.8500   65.4736 C   0  0  2  0  0  0  0  0  0  0  0  0
   -5.1532   27.8427   65.2752 C   0  0  1  0  0  0  0  0  0  0  0  0
   -6.0477   27.9119   66.5547 C   0  0  2  0  0  0  0  0  0  0  0  0
   -6.6121   26.5341   66.8359 C   0  0  1  0  0  0  0  0  0  0  0  0
   -5.4323   25.5421   67.0636 C   0  0  1  0  0  0  0  0  0  0  0  0
   -5.9191   24.1195   67.3323 C   0  0  0  0  0  0  0  0  0  0  0  0
   -7.4804   26.5960   68.0364 N   0  0  0  0  0  0  0  0  0  0  0  0
   -4.5554   25.5235   65.8524 O   0  0  0  0  0  0  0  0  0  0  0  0
   -4.5788   29.1242   64.9347 O   0  0  0  0  0  0  0  0  0  0  0  0
   -7.1292   28.8221   66.3426 O   0  0  0  0  0  0  0  0  0  0  0  0
   -6.5910   24.0833   68.5678 O   0  0  0  0  0  0  0  0  0  0  0  0
    4.6834   25.8621   64.3913 C   0  0  1  0  0  0  0  0  0  0  0  0
    4.8942   27.3643   64.0566 C   0  0  1  0  0  0  0  0  0  0  0  0
    5.9663   27.5161   62.9389 C   0  0  2  0  0  0  0  0  0  0  0  0
    7.3026   26.9074   63.4307 C   0  0  1  0  0  0  0  0  0  0  0  0
    7.1206   25.3843   63.7686 C   0  0  0  0  0  0  0  0  0  0  0  0
    6.0426   25.2580   64.8661 C   0  0  2  0  0  0  0  0  0  0  0  0
    8.3343   27.0528   62.3758 N   0  0  0  0  0  0  0  0  0  0  0  0
    5.8777   23.8334   65.1748 N   0  0  0  0  0  0  0  0  0  0  0  0
    3.6478   27.9345   63.5997 O   0  0  0  0  0  0  0  0  0  0  0  0
    6.1383   28.9199   62.6426 O   0  0  0  0  0  0  0  0  0  0  0  0
  1  2  1  0  0  0  0
  1 12  1  6  0  0  0
  1 13  1  0  0  0  0
  2  3  1  0  0  0  0
  2 10  1  6  0  0  0
  4  3  1  6  0  0  0
  4  5  1  0  0  0  0
  4 14  1  0  0  0  0
  5  6  1  0  0  0  0
  5 13  1  1  0  0  0
  6  7  1  0  0  0  0
  6 15  1  6  0  0  0
  7  8  1  0  0  0  0
  7 11  1  1  0  0  0
  8 14  1  0  0  0  0
  8 16  1  6  0  0  0
  9 11  1  0  0  0  0
 17 16  1  1  0  0  0
 17 18  1  0  0  0  0
 17 24  1  0  0  0  0
 18 19  1  0  0  0  0
 18 25  1  1  0  0  0
 19 20  1  0  0  0  0
 19 26  1  6  0  0  0
 20 21  1  0  0  0  0
 20 23  1  1  0  0  0
 21 22  1  6  0  0  0
 21 24  1  0  0  0  0
 22 27  1  0  0  0  0
 28 12  1  1  0  0  0
 28 29  1  0  0  0  0
 28 33  1  0  0  0  0
 29 30  1  0  0  0  0
 29 36  1  6  0  0  0
 30 31  1  0  0  0  0
 30 37  1  1  0  0  0
 31 32  1  0  0  0  0
 31 34  1  6  0  0  0
 32 33  1  0  0  0  0
 33 35  1  6  0  0  0
M  END
>  <CHROM.1>
-63.43860443,90.34923092,-172.15985983,158.39226961,177.35246479,-66.98481897
-0.05859936,26.24678888,65.82278646,-0.16066479,-0.23675131,2.42645918

>  <Name>
ligand

>  <RI>
0

>  <Rbt.Current_Directory>
/home/itssahil/PROJECTS/Mol_Feturizer/Test_systems_manuscript/rnas/2g5k

>  <Rbt.Executable>
rbdock ($Id: //depot/dev/client3/rdock/2013.1/src/exe/rbdock.cxx#4 $)

>  <Rbt.Library>
libRbt.so (2013.1, Build901 2013/11/27)

>  <Rbt.Parameter_File>
/export/apps/rDock/src/rDock_2013.1_src/data/scripts/dock_solv.prm

>  <Rbt.Receptor>
prm/pocket_docking_6.prm

>  <SCORE>
-10.854

>  <SCORE.INTER>
-8.39106

>  <SCORE.INTER.CONST>
1

>  <SCORE.INTER.POLAR>
0

>  <SCORE.INTER.ROT>
6

>  <SCORE.INTER.SOLV>
22.008

>  <SCORE.INTER.VDW>
-20.53

>  <SCORE.INTER.norm>
-0.226785

>  <SCORE.INTRA>
-2.46289

>  <SCORE.INTRA.DIHEDRAL>
-8.11858

>  <SCORE.INTRA.DIHEDRAL.0>
11.3972

>  <SCORE.INTRA.POLAR>
0

>  <SCORE.INTRA.POLAR.0>
0

>  <SCORE.INTRA.REPUL>
0

>  <SCORE.INTRA.REPUL.0>
0

>  <SCORE.INTRA.SOLV>
2.92402

>  <SCORE.INTRA.SOLV.lig_0>
-92.3891

>  <SCORE.INTRA.VDW>
0.134393

>  <SCORE.INTRA.VDW.0>
-2.90606

>  <SCORE.INTRA.norm>
-0.0665646

>  <SCORE.RESTR>
0

>  <SCORE.RESTR.CAVITY>
0

>  <SCORE.RESTR.norm>
0

>  <SCORE.SYSTEM>
0

>  <SCORE.SYSTEM.CONST>
0

>  <SCORE.SYSTEM.DIHEDRAL>
0

>  <SCORE.SYSTEM.SOLV>
0

>  <SCORE.SYSTEM.norm>
0

>  <SCORE.heavy>
37

>  <SCORE.norm>
-0.29335

>  <RMSD>
5.417

$$$$
ligand
 OpenBabel02271912133D
libRbt.so/2013.1/901 2013/11/27
 37 40  0  0  0  0  0  0  0  0999 V2000
   -4.3559   29.4385   67.0843 C   0  0  1  0  0  0  0  0  0  0  0  0
   -5.6320   30.3251   67.0218 C   0  0  1  0  0  0  0  0  0  0  0  0
   -6.9216   29.4876   67.1170 C   0  0  0  0  0  0  0  0  0  0  0  0
   -6.9218   28.4280   65.9713 C   0  0  1  0  0  0  0  0  0  0  0  0
   -5.6624   27.5075   66.0719 C   0  0  1  0  0  0  0  0  0  0  0  0
   -5.6821   26.4346   64.8914 C   0  0  1  0  0  0  0  0  0  0  0  0
   -6.9831   25.5866   65.0012 C   0  0  1  0  0  0  0  0  0  0  0  0
   -8.2014   26.5557   64.9301 C   0  0  2  0  0  0  0  0  0  0  0  0
   -7.7817   23.2837   64.1240 C   0  0  0  0  0  0  0  0  0  0  0  0
   -5.6045   31.3530   68.0838 N   0  0  0  0  0  0  0  0  0  0  0  0
   -7.0450   24.5662   63.8886 N   0  0  0  0  0  0  0  0  0  0  0  0
   -4.1618   28.8396   68.3804 O   0  0  0  0  0  0  0  0  0  0  0  0
   -4.4597   28.3918   66.0341 O   0  0  0  0  0  0  0  0  0  0  0  0
   -8.1495   27.5667   65.9943 O   0  0  0  0  0  0  0  0  0  0  0  0
   -5.6901   27.1024   63.6363 O   0  0  0  0  0  0  0  0  0  0  0  0
   -9.4156   25.8227   65.0464 O   0  0  0  0  0  0  0  0  0  0  0  0
  -10.5858   26.6512   65.2544 C   0  0  2  0  0  0  0  0  0  0  0  0
  -11.9017   25.8380   65.2770 C   0  0  1  0  0  0  0  0  0  0  0  0
  -12.1949   25.2143   63.8743 C   0  0  2  0  0  0  0  0  0  0  0  0
  -12.3215   26.3296   62.8564 C   0  0  1  0  0  0  0  0  0  0  0  0
  -10.9850   27.1294   62.8151 C   0  0  1  0  0  0  0  0  0  0  0  0
  -11.0388   28.2908   61.8245 C   0  0  0  0  0  0  0  0  0  0  0  0
  -12.6219   25.7470   61.5263 N   0  0  0  0  0  0  0  0  0  0  0  0
  -10.6895   27.6777   64.1746 O   0  0  0  0  0  0  0  0  0  0  0  0
  -11.7718   24.8353   66.3094 O   0  0  0  0  0  0  0  0  0  0  0  0
  -13.4216   24.4818   63.9154 O   0  0  0  0  0  0  0  0  0  0  0  0
  -11.0874   27.7823   60.5136 O   0  0  0  0  0  0  0  0  0  0  0  0
   -2.9707   27.9709   68.7223 C   0  0  1  0  0  0  0  0  0  0  0  0
   -3.0640   26.6638   67.8884 C   0  0  1  0  0  0  0  0  0  0  0  0
   -1.8567   25.7369   68.2130 C   0  0  2  0  0  0  0  0  0  0  0  0
   -0.5411   26.4756   67.8641 C   0  0  1  0  0  0  0  0  0  0  0  0
   -0.4161   27.7991   68.7008 C   0  0  0  0  0  0  0  0  0  0  0  0
   -1.6310   28.6936   68.3749 C   0  0  2  0  0  0  0  0  0  0  0  0
    0.6167   25.5989   68.1629 N   0  0  0  0  0  0  0  0  0  0  0  0
   -1.5076   29.9262   69.1607 N   0  0  0  0  0  0  0  0  0  0  0  0
   -4.2920   25.9743   68.2109 O   0  0  0  0  0  0  0  0  0  0  0  0
   -1.9709   24.5278   67.4302 O   0  0  0  0  0  0  0  0  0  0  0  0
  1  2  1  0  0  0  0
  1 12  1  1  0  0  0
  1 13  1  0  0  0  0
  2  3  1  0  0  0  0
  2 10  1  1  0  0  0
  4  3  1  1  0  0  0
  4  5  1  0  0  0  0
  4 14  1  0  0  0  0
  5  6  1  0  0  0  0
  5 13  1  6  0  0  0
  6  7  1  0  0  0  0
  6 15  1  6  0  0  0
  7  8  1  0  0  0  0
  7 11  1  6  0  0  0
  8 14  1  0  0  0  0
  8 16  1  1  0  0  0
  9 11  1  0  0  0  0
 17 16  1  6  0  0  0
 17 18  1  0  0  0  0
 17 24  1  0  0  0  0
 18 19  1  0  0  0  0
 18 25  1  1  0  0  0
 19 20  1  0  0  0  0
 19 26  1  1  0  0  0
 20 21  1  0  0  0  0
 20 23  1  6  0  0  0
 21 22  1  6  0  0  0
 21 24  1  0  0  0  0
 22 27  1  0  0  0  0
 28 12  1  6  0  0  0
 28 29  1  0  0  0  0
 28 33  1  0  0  0  0
 29 30  1  0  0  0  0
 29 36  1  1  0  0  0
 30 31  1  0  0  0  0
 30 37  1  6  0  0  0
 31 32  1  0  0  0  0
 31 34  1  1  0  0  0
 32 33  1  0  0  0  0
 33 35  1  1  0  0  0
M  END
>  <CHROM.1>
-177.80377359,151.30634872,168.52834218,-66.74647653,175.92955802,-68.85585746
-6.77722828,27.00159180,65.76753105,0.22516617,-0.43559570,0.19770044

>  <Name>
ligand

>  <RI>
0

>  <Rbt.Current_Directory>
/home/itssahil/PROJECTS/Mol_Feturizer/Test_systems_manuscript/rnas/2g5k

>  <Rbt.Executable>
rbdock ($Id: //depot/dev/client3/rdock/2013.1/src/exe/rbdock.cxx#4 $)

>  <Rbt.Library>
libRbt.so (2013.1, Build901 2013/11/27)

>  <Rbt.Parameter_File>
/export/apps/rDock/src/rDock_2013.1_src/data/scripts/dock_solv.prm

>  <Rbt.Receptor>
prm/pocket_docking_5.prm

>  <SCORE>
-10.4555

>  <SCORE.INTER>
-5.80363

>  <SCORE.INTER.CONST>
1

>  <SCORE.INTER.POLAR>
0

>  <SCORE.INTER.ROT>
6

>  <SCORE.INTER.SOLV>
20.8602

>  <SCORE.INTER.VDW>
-18.4225

>  <SCORE.INTER.norm>
-0.156855

>  <SCORE.INTRA>
-4.65187

>  <SCORE.INTRA.DIHEDRAL>
-9.57126

>  <SCORE.INTRA.DIHEDRAL.0>
11.3972

>  <SCORE.INTRA.POLAR>
0

>  <SCORE.INTRA.POLAR.0>
0

>  <SCORE.INTRA.REPUL>
0

>  <SCORE.INTRA.REPUL.0>
0

>  <SCORE.INTRA.SOLV>
0.0433701

>  <SCORE.INTRA.SOLV.lig_0>
-92.3891

>  <SCORE.INTRA.VDW>
0.112082

>  <SCORE.INTRA.VDW.0>
-2.90606

>  <SCORE.INTRA.norm>
-0.125726

>  <SCORE.RESTR>
0

>  <SCORE.RESTR.CAVITY>
0

>  <SCORE.RESTR.norm>
0

>  <SCORE.SYSTEM>
0

>  <SCORE.SYSTEM.CONST>
0

>  <SCORE.SYSTEM.DIHEDRAL>
0

>  <SCORE.SYSTEM.SOLV>
0

>  <SCORE.SYSTEM.norm>
0

>  <SCORE.heavy>
37

>  <SCORE.norm>
-0.282581

>  <RMSD>
5.546

$$$$
ligand
 OpenBabel02271912133D
libRbt.so/2013.1/901 2013/11/27
 37 40  0  0  0  0  0  0  0  0999 V2000
    4.0022   28.8167   65.3369 C   0  0  1  0  0  0  0  0  0  0  0  0
    3.9248   29.9579   66.3905 C   0  0  1  0  0  0  0  0  0  0  0  0
    2.4915   30.1597   66.9181 C   0  0  0  0  0  0  0  0  0  0  0  0
    1.5449   30.4491   65.7116 C   0  0  1  0  0  0  0  0  0  0  0  0
    1.5890   29.2735   64.6823 C   0  0  1  0  0  0  0  0  0  0  0  0
    0.6169   29.5910   63.4580 C   0  0  1  0  0  0  0  0  0  0  0  0
   -0.8303   29.7834   63.9988 C   0  0  1  0  0  0  0  0  0  0  0  0
   -0.8084   30.9405   65.0425 C   0  0  2  0  0  0  0  0  0  0  0  0
   -2.7434   29.0471   62.4149 C   0  0  0  0  0  0  0  0  0  0  0  0
    4.8549   29.6975   67.5096 N   0  0  0  0  0  0  0  0  0  0  0  0
   -1.7801   30.1009   62.8674 N   0  0  0  0  0  0  0  0  0  0  0  0
    3.7696   27.5163   65.9123 O   0  0  0  0  0  0  0  0  0  0  0  0
    3.0122   29.0996   64.2649 O   0  0  0  0  0  0  0  0  0  0  0  0
    0.1234   30.6576   66.1421 O   0  0  0  0  0  0  0  0  0  0  0  0
    1.0204   30.7986   62.8256 O   0  0  0  0  0  0  0  0  0  0  0  0
   -2.1114   31.1387   65.5789 O   0  0  0  0  0  0  0  0  0  0  0  0
   -2.1672   32.1211   66.6423 C   0  0  2  0  0  0  0  0  0  0  0  0
   -2.3164   31.4825   68.0435 C   0  0  1  0  0  0  0  0  0  0  0  0
   -3.7019   30.7741   68.1877 C   0  0  2  0  0  0  0  0  0  0  0  0
   -4.8012   31.7985   67.9928 C   0  0  1  0  0  0  0  0  0  0  0  0
   -4.6659   32.4196   66.5703 C   0  0  1  0  0  0  0  0  0  0  0  0
   -5.7291   33.4831   66.3023 C   0  0  0  0  0  0  0  0  0  0  0  0
   -6.1196   31.1382   68.1503 N   0  0  0  0  0  0  0  0  0  0  0  0
   -3.3172   33.0493   66.4271 O   0  0  0  0  0  0  0  0  0  0  0  0
   -1.2100   30.5702   68.2221 O   0  0  0  0  0  0  0  0  0  0  0  0
   -3.8231   30.2058   69.4937 O   0  0  0  0  0  0  0  0  0  0  0  0
   -5.5777   33.9724   64.9919 O   0  0  0  0  0  0  0  0  0  0  0  0
    3.7319   26.2429   65.0955 C   0  0  1  0  0  0  0  0  0  0  0  0
    5.1859   25.7189   64.9404 C   0  0  1  0  0  0  0  0  0  0  0  0
    5.1935   24.4085   64.1009 C   0  0  2  0  0  0  0  0  0  0  0  0
    4.3364   23.3386   64.8214 C   0  0  1  0  0  0  0  0  0  0  0  0
    2.8565   23.8393   64.9842 C   0  0  0  0  0  0  0  0  0  0  0  0
    2.8759   25.1465   65.8048 C   0  0  2  0  0  0  0  0  0  0  0  0
    4.3422   22.0825   64.0337 N   0  0  0  0  0  0  0  0  0  0  0  0
    1.4912   25.6080   65.9512 N   0  0  0  0  0  0  0  0  0  0  0  0
    5.9876   26.7167   64.2703 O   0  0  0  0  0  0  0  0  0  0  0  0
    6.5560   23.9464   63.9665 O   0  0  0  0  0  0  0  0  0  0  0  0
  1  2  1  0  0  0  0
  1 12  1  1  0  0  0
  1 13  1  0  0  0  0
  2  3  1  0  0  0  0
  2 10  1  1  0  0  0
  4  3  1  1  0  0  0
  4  5  1  0  0  0  0
  4 14  1  0  0  0  0
  5  6  1  0  0  0  0
  5 13  1  6  0  0  0
  6  7  1  0  0  0  0
  6 15  1  1  0  0  0
  7  8  1  0  0  0  0
  7 11  1  6  0  0  0
  8 14  1  0  0  0  0
  8 16  1  1  0  0  0
  9 11  1  0  0  0  0
 17 16  1  6  0  0  0
 17 18  1  0  0  0  0
 17 24  1  0  0  0  0
 18 19  1  0  0  0  0
 18 25  1  6  0  0  0
 19 20  1  0  0  0  0
 19 26  1  1  0  0  0
 20 21  1  0  0  0  0
 20 23  1  6  0  0  0
 21 22  1  1  0  0  0
 21 24  1  0  0  0  0
 22 27  1  0  0  0  0
 28 12  1  1  0  0  0
 28 29  1  0  0  0  0
 28 33  1  0  0  0  0
 29 30  1  0  0  0  0
 29 36  1  6  0  0  0
 30 31  1  0  0  0  0
 30 37  1  1  0  0  0
 31 32  1  0  0  0  0
 31 34  1  6  0  0  0
 32 33  1  0  0  0  0
 33 35  1  6  0  0  0
M  END
>  <CHROM.1>
177.37100751,106.78638893,175.06957350,85.75407191,-104.74851503,-178.19153341
0.46110457,29.09029537,65.61527071,-0.61852642,0.29171928,-0.10493891

>  <Name>
ligand

>  <RI>
0

>  <Rbt.Current_Directory>
/home/itssahil/PROJECTS/Mol_Feturizer/Test_systems_manuscript/rnas/2g5k

>  <Rbt.Executable>
rbdock ($Id: //depot/dev/client3/rdock/2013.1/src/exe/rbdock.cxx#4 $)

>  <Rbt.Library>
libRbt.so (2013.1, Build901 2013/11/27)

>  <Rbt.Parameter_File>
/export/apps/rDock/src/rDock_2013.1_src/data/scripts/dock_solv.prm

>  <Rbt.Receptor>
prm/pocket_docking_8.prm

>  <SCORE>
-12.2731

>  <SCORE.INTER>
-11.5383

>  <SCORE.INTER.CONST>
1

>  <SCORE.INTER.POLAR>
0

>  <SCORE.INTER.ROT>
6

>  <SCORE.INTER.SOLV>
14.2652

>  <SCORE.INTER.VDW>
-20.0473

>  <SCORE.INTER.norm>
-0.311847

>  <SCORE.INTRA>
-0.734815

>  <SCORE.INTRA.DIHEDRAL>
-1.22201

>  <SCORE.INTRA.DIHEDRAL.0>
11.3972

>  <SCORE.INTRA.POLAR>
0

>  <SCORE.INTRA.POLAR.0>
0

>  <SCORE.INTRA.REPUL>
0

>  <SCORE.INTRA.REPUL.0>
0

>  <SCORE.INTRA.SOLV>
-1.01519

>  <SCORE.INTRA.SOLV.lig_0>
-92.3891

>  <SCORE.INTRA.VDW>
0.383784

>  <SCORE.INTRA.VDW.0>
-2.90606

>  <SCORE.INTRA.norm>
-0.0198599

>  <SCORE.RESTR>
0

>  <SCORE.RESTR.CAVITY>
0

>  <SCORE.RESTR.norm>
0

>  <SCORE.SYSTEM>
0

>  <SCORE.SYSTEM.CONST>
0

>  <SCORE.SYSTEM.DIHEDRAL>
0

>  <SCORE.SYSTEM.SOLV>
0

>  <SCORE.SYSTEM.norm>
0

>  <SCORE.heavy>
37

>  <SCORE.norm>
-0.331707

>  <RMSD>
5.632

$$$$
ligand
 OpenBabel02271912133D
libRbt.so/2013.1/901 2013/11/27
 37 40  0  0  0  0  0  0  0  0999 V2000
   -0.3992   26.6551   68.1720 C   0  0  1  0  0  0  0  0  0  0  0  0
   -1.8089   27.0342   68.7082 C   0  0  1  0  0  0  0  0  0  0  0  0
   -2.2945   28.3852   68.1495 C   0  0  0  0  0  0  0  0  0  0  0  0
   -1.2473   29.4857   68.5068 C   0  0  1  0  0  0  0  0  0  0  0  0
    0.1553   29.1228   67.9198 C   0  0  1  0  0  0  0  0  0  0  0  0
    1.2094   30.2588   68.2982 C   0  0  1  0  0  0  0  0  0  0  0  0
    0.7160   31.6181   67.7214 C   0  0  1  0  0  0  0  0  0  0  0  0
   -0.6962   31.9116   68.3115 C   0  0  2  0  0  0  0  0  0  0  0  0
    2.9762   32.8193   67.3223 C   0  0  0  0  0  0  0  0  0  0  0  0
   -2.7862   25.9679   68.4029 N   0  0  0  0  0  0  0  0  0  0  0  0
    1.6835   32.7243   68.0726 N   0  0  0  0  0  0  0  0  0  0  0  0
   -0.4076   26.3472   66.7644 O   0  0  0  0  0  0  0  0  0  0  0  0
    0.5294   27.7803   68.4564 O   0  0  0  0  0  0  0  0  0  0  0  0
   -1.6470   30.8377   67.9951 O   0  0  0  0  0  0  0  0  0  0  0  0
    1.2970   30.3803   69.7120 O   0  0  0  0  0  0  0  0  0  0  0  0
   -1.1957   33.1397   67.7943 O   0  0  0  0  0  0  0  0  0  0  0  0
   -1.1350   33.2383   66.3501 C   0  0  2  0  0  0  0  0  0  0  0  0
   -1.6804   34.5840   65.8161 C   0  0  1  0  0  0  0  0  0  0  0  0
   -3.2154   34.7074   66.0823 C   0  0  2  0  0  0  0  0  0  0  0  0
   -3.9300   33.5714   65.3789 C   0  0  1  0  0  0  0  0  0  0  0  0
   -3.3993   32.2177   65.9388 C   0  0  1  0  0  0  0  0  0  0  0  0
   -4.0568   31.0166   65.2619 C   0  0  0  0  0  0  0  0  0  0  0  0
   -5.3898   33.6942   65.6083 N   0  0  0  0  0  0  0  0  0  0  0  0
   -1.9217   32.1339   65.7243 O   0  0  0  0  0  0  0  0  0  0  0  0
   -0.9246   35.6389   66.4517 O   0  0  0  0  0  0  0  0  0  0  0  0
   -3.6993   35.9499   65.5671 O   0  0  0  0  0  0  0  0  0  0  0  0
   -3.8131   31.0718   63.8774 O   0  0  0  0  0  0  0  0  0  0  0  0
    0.8418   26.0003   65.9842 C   0  0  1  0  0  0  0  0  0  0  0  0
    1.5178   24.7775   66.6628 C   0  0  1  0  0  0  0  0  0  0  0  0
    2.8127   24.3884   65.8923 C   0  0  2  0  0  0  0  0  0  0  0  0
    2.4455   24.0271   64.4318 C   0  0  1  0  0  0  0  0  0  0  0  0
    1.7670   25.2505   63.7175 C   0  0  0  0  0  0  0  0  0  0  0  0
    0.4960   25.6278   64.5079 C   0  0  2  0  0  0  0  0  0  0  0  0
    3.6715   23.6475   63.6893 N   0  0  0  0  0  0  0  0  0  0  0  0
   -0.1306   26.7712   63.8356 N   0  0  0  0  0  0  0  0  0  0  0  0
    1.8590   25.1121   68.0262 O   0  0  0  0  0  0  0  0  0  0  0  0
    3.4241   23.2545   66.5466 O   0  0  0  0  0  0  0  0  0  0  0  0
  1  2  1  0  0  0  0
  1 12  1  6  0  0  0
  1 13  1  0  0  0  0
  2  3  1  0  0  0  0
  2 10  1  6  0  0  0
  4  3  1  6  0  0  0
  4  5  1  0  0  0  0
  4 14  1  0  0  0  0
  5  6  1  0  0  0  0
  5 13  1  1  0  0  0
  6  7  1  0  0  0  0
  6 15  1  1  0  0  0
  7  8  1  0  0  0  0
  7 11  1  1  0  0  0
  8 14  1  0  0  0  0
  8 16  1  6  0  0  0
  9 11  1  0  0  0  0
 17 16  1  1  0  0  0
 17 18  1  0  0  0  0
 17 24  1  0  0  0  0
 18 19  1  0  0  0  0
 18 25  1  1  0  0  0
 19 20  1  0  0  0  0
 19 26  1  6  0  0  0
 20 21  1  0  0  0  0
 20 23  1  1  0  0  0
 21 22  1  6  0  0  0
 21 24  1  0  0  0  0
 22 27  1  0  0  0  0
 28 12  1  1  0  0  0
 28 29  1  0  0  0  0
 28 33  1  0  0  0  0
 29 30  1  0  0  0  0
 29 36  1  1  0  0  0
 30 31  1  0  0  0  0
 30 37  1  1  0  0  0
 31 32  1  0  0  0  0
 31 34  1  6  0  0  0
 32 33  1  0  0  0  0
 33 35  1  6  0  0  0
M  END
>  <CHROM.1>
177.55839909,75.77543195,50.84993775,56.92436332,-179.84658509,58.74211270
-0.49603221,29.52842727,66.65199136,-1.04150016,-0.56079305,0.33109144

>  <Name>
ligand

>  <RI>
0

>  <Rbt.Current_Directory>
/home/itssahil/PROJECTS/Mol_Feturizer/Test_systems_manuscript/rnas/2g5k

>  <Rbt.Executable>
rbdock ($Id: //depot/dev/client3/rdock/2013.1/src/exe/rbdock.cxx#4 $)

>  <Rbt.Library>
libRbt.so (2013.1, Build901 2013/11/27)

>  <Rbt.Parameter_File>
/export/apps/rDock/src/rDock_2013.1_src/data/scripts/dock_solv.prm

>  <Rbt.Receptor>
prm/pocket_docking_8.prm

>  <SCORE>
-13.0408

>  <SCORE.INTER>
-8.60383

>  <SCORE.INTER.CONST>
1

>  <SCORE.INTER.POLAR>
0

>  <SCORE.INTER.ROT>
6

>  <SCORE.INTER.SOLV>
15.7949

>  <SCORE.INTER.VDW>
-18.6009

>  <SCORE.INTER.norm>
-0.232536

>  <SCORE.INTRA>
-4.43701

>  <SCORE.INTRA.DIHEDRAL>
-10.6817

>  <SCORE.INTRA.DIHEDRAL.0>
11.3972

>  <SCORE.INTRA.POLAR>
0

>  <SCORE.INTRA.POLAR.0>
0

>  <SCORE.INTRA.REPUL>
0

>  <SCORE.INTRA.REPUL.0>
0

>  <SCORE.INTRA.SOLV>
-0.410312

>  <SCORE.INTRA.SOLV.lig_0>
-92.3891

>  <SCORE.INTRA.VDW>
1.109

>  <SCORE.INTRA.VDW.0>
-2.90606

>  <SCORE.INTRA.norm>
-0.119919

>  <SCORE.RESTR>
0

>  <SCORE.RESTR.CAVITY>
0

>  <SCORE.RESTR.norm>
0

>  <SCORE.SYSTEM>
0

>  <SCORE.SYSTEM.CONST>
0

>  <SCORE.SYSTEM.DIHEDRAL>
0

>  <SCORE.SYSTEM.SOLV>
0

>  <SCORE.SYSTEM.norm>
0

>  <SCORE.heavy>
37

>  <SCORE.norm>
-0.352455

>  <RMSD>
5.672

$$$$
ligand
 OpenBabel02271912133D
libRbt.so/2013.1/901 2013/11/27
 37 40  0  0  0  0  0  0  0  0999 V2000
   -4.3789   29.6820   66.4076 C   0  0  1  0  0  0  0  0  0  0  0  0
   -5.5378   30.6628   66.0708 C   0  0  1  0  0  0  0  0  0  0  0  0
   -6.9161   29.9810   66.1642 C   0  0  0  0  0  0  0  0  0  0  0  0
   -6.9351   28.7464   65.2099 C   0  0  1  0  0  0  0  0  0  0  0  0
   -5.7999   27.7404   65.5879 C   0  0  1  0  0  0  0  0  0  0  0  0
   -5.8365   26.4887   64.5997 C   0  0  1  0  0  0  0  0  0  0  0  0
   -7.2286   25.8002   64.7079 C   0  0  1  0  0  0  0  0  0  0  0  0
   -8.3204   26.8550   64.3553 C   0  0  2  0  0  0  0  0  0  0  0  0
   -7.7458   23.2918   64.3195 C   0  0  0  0  0  0  0  0  0  0  0  0
   -5.4881   31.8495   66.9509 N   0  0  0  0  0  0  0  0  0  0  0  0
   -7.3071   24.6155   63.7734 N   0  0  0  0  0  0  0  0  0  0  0  0
   -4.3663   29.2973   67.7962 O   0  0  0  0  0  0  0  0  0  0  0  0
   -4.5072   28.4862   65.5342 O   0  0  0  0  0  0  0  0  0  0  0  0
   -8.2486   28.0231   65.2428 O   0  0  0  0  0  0  0  0  0  0  0  0
   -5.6608   26.9301   63.2597 O   0  0  0  0  0  0  0  0  0  0  0  0
   -9.6142   26.2721   64.4607 O   0  0  0  0  0  0  0  0  0  0  0  0
  -10.6963   27.2356   64.4549 C   0  0  2  0  0  0  0  0  0  0  0  0
  -12.0896   26.5755   64.5832 C   0  0  1  0  0  0  0  0  0  0  0  0
  -12.4173   25.7169   63.3192 C   0  0  2  0  0  0  0  0  0  0  0  0
  -12.4070   26.6142   62.0983 C   0  0  1  0  0  0  0  0  0  0  0  0
  -10.9942   27.2555   61.9551 C   0  0  1  0  0  0  0  0  0  0  0  0
  -10.9072   28.1962   60.7548 C   0  0  0  0  0  0  0  0  0  0  0  0
  -12.7391   25.8108   60.8970 N   0  0  0  0  0  0  0  0  0  0  0  0
  -10.6710   28.0318   63.1916 O   0  0  0  0  0  0  0  0  0  0  0  0
  -12.0853   25.7905   65.7964 O   0  0  0  0  0  0  0  0  0  0  0  0
  -13.7139   25.1305   63.4533 O   0  0  0  0  0  0  0  0  0  0  0  0
  -11.7740   29.2862   60.9543 O   0  0  0  0  0  0  0  0  0  0  0  0
   -3.3799   28.3049   68.3726 C   0  0  1  0  0  0  0  0  0  0  0  0
   -3.6194   26.9281   67.6944 C   0  0  1  0  0  0  0  0  0  0  0  0
   -2.6256   25.8739   68.2625 C   0  0  2  0  0  0  0  0  0  0  0  0
   -1.1756   26.3393   67.9812 C   0  0  1  0  0  0  0  0  0  0  0  0
   -0.9025   27.7274   68.6637 C   0  0  0  0  0  0  0  0  0  0  0  0
   -1.9092   28.7511   68.0973 C   0  0  2  0  0  0  0  0  0  0  0  0
   -0.2193   25.3384   68.5121 N   0  0  0  0  0  0  0  0  0  0  0  0
   -1.6485   30.0436   68.7403 N   0  0  0  0  0  0  0  0  0  0  0  0
   -4.9725   26.4933   67.9540 O   0  0  0  0  0  0  0  0  0  0  0  0
   -2.8734   24.6032   67.6208 O   0  0  0  0  0  0  0  0  0  0  0  0
  1  2  1  0  0  0  0
  1 12  1  1  0  0  0
  1 13  1  0  0  0  0
  2  3  1  0  0  0  0
  2 10  1  1  0  0  0
  4  3  1  1  0  0  0
  4  5  1  0  0  0  0
  4 14  1  0  0  0  0
  5  6  1  0  0  0  0
  5 13  1  6  0  0  0
  6  7  1  0  0  0  0
  6 15  1  6  0  0  0
  7  8  1  0  0  0  0
  7 11  1  6  0  0  0
  8 14  1  0  0  0  0
  8 16  1  1  0  0  0
  9 11  1  0  0  0  0
 17 16  1  6  0  0  0
 17 18  1  0  0  0  0
 17 24  1  0  0  0  0
 18 19  1  0  0  0  0
 18 25  1  1  0  0  0
 19 20  1  0  0  0  0
 19 26  1  1  0  0  0
 20 21  1  0  0  0  0
 20 23  1  6  0  0  0
 21 22  1  6  0  0  0
 21 24  1  0  0  0  0
 22 27  1  0  0  0  0
 28 12  1  6  0  0  0
 28 29  1  0  0  0  0
 28 33  1  0  0  0  0
 29 30  1  0  0  0  0
 29 36  1  1  0  0  0
 30 31  1  0  0  0  0
 30 37  1  6  0  0  0
 31 32  1  0  0  0  0
 31 34  1  1  0  0  0
 32 33  1  0  0  0  0
 33 35  1  1  0  0  0
M  END
>  <CHROM.1>
177.21194940,128.36316115,166.56204976,-63.22454467,-179.48692214,64.40603807
-7.01750692,27.29996339,65.32497993,0.08763787,-0.51121766,-0.02475583

>  <Name>
ligand

>  <RI>
0

>  <Rbt.Current_Directory>
/home/itssahil/PROJECTS/Mol_Feturizer/Test_systems_manuscript/rnas/2g5k

>  <Rbt.Executable>
rbdock ($Id: //depot/dev/client3/rdock/2013.1/src/exe/rbdock.cxx#4 $)

>  <Rbt.Library>
libRbt.so (2013.1, Build901 2013/11/27)

>  <Rbt.Parameter_File>
/export/apps/rDock/src/rDock_2013.1_src/data/scripts/dock_solv.prm

>  <Rbt.Receptor>
prm/pocket_docking_8.prm

>  <SCORE>
-11.2092

>  <SCORE.INTER>
-6.80755

>  <SCORE.INTER.CONST>
1

>  <SCORE.INTER.POLAR>
0

>  <SCORE.INTER.ROT>
6

>  <SCORE.INTER.SOLV>
18.1774

>  <SCORE.INTER.VDW>
-18.1975

>  <SCORE.INTER.norm>
-0.183988

>  <SCORE.INTRA>
-4.4016

>  <SCORE.INTRA.DIHEDRAL>
-9.20401

>  <SCORE.INTRA.DIHEDRAL.0>
11.3972

>  <SCORE.INTRA.POLAR>
0

>  <SCORE.INTRA.POLAR.0>
0

>  <SCORE.INTRA.REPUL>
0

>  <SCORE.INTRA.REPUL.0>
0

>  <SCORE.INTRA.SOLV>
-0.279707

>  <SCORE.INTRA.SOLV.lig_0>
-92.3891

>  <SCORE.INTRA.VDW>
0.340256

>  <SCORE.INTRA.VDW.0>
-2.90606

>  <SCORE.INTRA.norm>
-0.118962

>  <SCORE.RESTR>
0

>  <SCORE.RESTR.CAVITY>
0

>  <SCORE.RESTR.norm>
0

>  <SCORE.SYSTEM>
0

>  <SCORE.SYSTEM.CONST>
0

>  <SCORE.SYSTEM.DIHEDRAL>
0

>  <SCORE.SYSTEM.SOLV>
0

>  <SCORE.SYSTEM.norm>
0

>  <SCORE.heavy>
37

>  <SCORE.norm>
-0.30295

>  <RMSD>
5.823

$$$$
ligand
 OpenBabel02271912133D
libRbt.so/2013.1/901 2013/11/27
 37 40  0  0  0  0  0  0  0  0999 V2000
   -3.7009   31.8885   66.9798 C   0  0  1  0  0  0  0  0  0  0  0  0
   -4.8861   32.8226   66.6038 C   0  0  1  0  0  0  0  0  0  0  0  0
   -6.1987   32.3921   67.2857 C   0  0  0  0  0  0  0  0  0  0  0  0
   -6.5090   30.9130   66.8967 C   0  0  1  0  0  0  0  0  0  0  0  0
   -5.3357   29.9730   67.3249 C   0  0  1  0  0  0  0  0  0  0  0  0
   -5.6729   28.4683   66.9163 C   0  0  1  0  0  0  0  0  0  0  0  0
   -6.9948   28.0385   67.6175 C   0  0  1  0  0  0  0  0  0  0  0  0
   -8.1182   29.0274   67.1830 C   0  0  2  0  0  0  0  0  0  0  0  0
   -8.1993   25.8160   68.1831 C   0  0  0  0  0  0  0  0  0  0  0  0
   -4.5679   34.2273   66.9365 N   0  0  0  0  0  0  0  0  0  0  0  0
   -7.3556   26.6200   67.2425 N   0  0  0  0  0  0  0  0  0  0  0  0
   -3.3114   32.0185   68.3610 O   0  0  0  0  0  0  0  0  0  0  0  0
   -4.0929   30.4873   66.6760 O   0  0  0  0  0  0  0  0  0  0  0  0
   -7.7771   30.4148   67.5238 O   0  0  0  0  0  0  0  0  0  0  0  0
   -5.8667   28.3848   65.5104 O   0  0  0  0  0  0  0  0  0  0  0  0
   -9.3443   28.6825   67.8177 O   0  0  0  0  0  0  0  0  0  0  0  0
  -10.4848   29.4421   67.3471 C   0  0  2  0  0  0  0  0  0  0  0  0
  -11.8008   29.0560   68.0629 C   0  0  1  0  0  0  0  0  0  0  0  0
  -12.2199   27.5933   67.7064 C   0  0  2  0  0  0  0  0  0  0  0  0
  -12.4245   27.4909   66.2085 C   0  0  1  0  0  0  0  0  0  0  0  0
  -11.0897   27.8526   65.4909 C   0  0  1  0  0  0  0  0  0  0  0  0
  -11.2189   27.7948   63.9700 C   0  0  0  0  0  0  0  0  0  0  0  0
  -12.8442   26.1109   65.8646 N   0  0  0  0  0  0  0  0  0  0  0  0
  -10.6726   29.2349   65.8801 O   0  0  0  0  0  0  0  0  0  0  0  0
  -11.5907   29.2388   69.4808 O   0  0  0  0  0  0  0  0  0  0  0  0
  -13.4448   27.2647   68.3657 O   0  0  0  0  0  0  0  0  0  0  0  0
   -9.9704   28.0768   63.3859 O   0  0  0  0  0  0  0  0  0  0  0  0
   -2.1502   31.2626   68.9696 C   0  0  1  0  0  0  0  0  0  0  0  0
   -2.4805   29.7454   68.9301 C   0  0  1  0  0  0  0  0  0  0  0  0
   -1.3107   28.9287   69.5517 C   0  0  2  0  0  0  0  0  0  0  0  0
   -0.0186   29.1940   68.7404 C   0  0  1  0  0  0  0  0  0  0  0  0
    0.3446   30.7219   68.7706 C   0  0  0  0  0  0  0  0  0  0  0  0
   -0.8354   31.5114   68.1650 C   0  0  2  0  0  0  0  0  0  0  0  0
    1.1021   28.4150   69.3196 N   0  0  0  0  0  0  0  0  0  0  0  0
   -0.4892   32.9365   68.1981 N   0  0  0  0  0  0  0  0  0  0  0  0
   -3.6871   29.4962   69.6847 O   0  0  0  0  0  0  0  0  0  0  0  0
   -1.6455   27.5237   69.5084 O   0  0  0  0  0  0  0  0  0  0  0  0
  1  2  1  0  0  0  0
  1 12  1  1  0  0  0
  1 13  1  0  0  0  0
  2  3  1  0  0  0  0
  2 10  1  1  0  0  0
  4  3  1  1  0  0  0
  4  5  1  0  0  0  0
  4 14  1  0  0  0  0
  5  6  1  0  0  0  0
  5 13  1  6  0  0  0
  6  7  1  0  0  0  0
  6 15  1  6  0  0  0
  7  8  1  0  0  0  0
  7 11  1  6  0  0  0
  8 14  1  0  0  0  0
  8 16  1  1  0  0  0
  9 11  1  0  0  0  0
 17 16  1  1  0  0  0
 17 18  1  0  0  0  0
 17 24  1  0  0  0  0
 18 19  1  0  0  0  0
 18 25  1  1  0  0  0
 19 20  1  0  0  0  0
 19 26  1  1  0  0  0
 20 21  1  0  0  0  0
 20 23  1  1  0  0  0
 21 22  1  6  0  0  0
 21 24  1  0  0  0  0
 22 27  1  0  0  0  0
 28 12  1  6  0  0  0
 28 29  1  0  0  0  0
 28 33  1  0  0  0  0
 29 30  1  0  0  0  0
 29 36  1  1  0  0  0
 30 31  1  0  0  0  0
 30 37  1  6  0  0  0
 31 32  1  0  0  0  0
 31 34  1  1  0  0  0
 32 33  1  0  0  0  0
 33 35  1  1  0  0  0
M  END
>  <CHROM.1>
-177.52467992,154.48666203,-172.67635958,-64.46607257,-179.46622006,-177.60907183
-6.45216759,29.41067317,67.47539872,0.19750738,-0.25116711,-0.29024372

>  <Name>
ligand

>  <RI>
0

>  <Rbt.Current_Directory>
/home/itssahil/PROJECTS/Mol_Feturizer/Test_systems_manuscript/rnas/2g5k

>  <Rbt.Executable>
rbdock ($Id: //depot/dev/client3/rdock/2013.1/src/exe/rbdock.cxx#4 $)

>  <Rbt.Library>
libRbt.so (2013.1, Build901 2013/11/27)

>  <Rbt.Parameter_File>
/export/apps/rDock/src/rDock_2013.1_src/data/scripts/dock_solv.prm

>  <Rbt.Receptor>
prm/pocket_docking_7.prm

>  <SCORE>
-10.1984

>  <SCORE.INTER>
-4.0352

>  <SCORE.INTER.CONST>
1

>  <SCORE.INTER.POLAR>
0

>  <SCORE.INTER.ROT>
6

>  <SCORE.INTER.SOLV>
10.1436

>  <SCORE.INTER.VDW>
-13.6713

>  <SCORE.INTER.norm>
-0.109059

>  <SCORE.INTRA>
-6.16323

>  <SCORE.INTRA.DIHEDRAL>
-10.4879

>  <SCORE.INTRA.DIHEDRAL.0>
11.3972

>  <SCORE.INTRA.POLAR>
0

>  <SCORE.INTRA.POLAR.0>
0

>  <SCORE.INTRA.REPUL>
0

>  <SCORE.INTRA.REPUL.0>
0

>  <SCORE.INTRA.SOLV>
-0.896655

>  <SCORE.INTRA.SOLV.lig_0>
-92.3891

>  <SCORE.INTRA.VDW>
-0.470939

>  <SCORE.INTRA.VDW.0>
-2.90606

>  <SCORE.INTRA.norm>
-0.166574

>  <SCORE.RESTR>
0

>  <SCORE.RESTR.CAVITY>
0

>  <SCORE.RESTR.norm>
0

>  <SCORE.SYSTEM>
0

>  <SCORE.SYSTEM.CONST>
0

>  <SCORE.SYSTEM.DIHEDRAL>
0

>  <SCORE.SYSTEM.SOLV>
0

>  <SCORE.SYSTEM.norm>
0

>  <SCORE.heavy>
37

>  <SCORE.norm>
-0.275633

>  <RMSD>
5.864

$$$$
ligand
 OpenBabel02271912133D
libRbt.so/2013.1/901 2013/11/27
 37 40  0  0  0  0  0  0  0  0999 V2000
    3.8404   28.8611   65.4474 C   0  0  1  0  0  0  0  0  0  0  0  0
    3.8202   29.9915   66.5153 C   0  0  1  0  0  0  0  0  0  0  0  0
    2.4104   30.2107   67.0966 C   0  0  0  0  0  0  0  0  0  0  0  0
    1.4259   30.5290   65.9285 C   0  0  1  0  0  0  0  0  0  0  0  0
    1.4131   29.3645   64.8857 C   0  0  1  0  0  0  0  0  0  0  0  0
    0.4028   29.7116   63.7010 C   0  0  1  0  0  0  0  0  0  0  0  0
   -1.0205   29.9215   64.2960 C   0  0  1  0  0  0  0  0  0  0  0  0
   -0.9415   31.0662   65.3506 C   0  0  2  0  0  0  0  0  0  0  0  0
   -2.7366   29.1580   62.5121 C   0  0  0  0  0  0  0  0  0  0  0  0
    4.7857   29.7034   67.5969 N   0  0  0  0  0  0  0  0  0  0  0  0
   -2.0051   30.2671   63.2033 N   0  0  0  0  0  0  0  0  0  0  0  0
    3.6071   27.5583   66.0170 O   0  0  0  0  0  0  0  0  0  0  0  0
    2.8172   29.1721   64.4151 O   0  0  0  0  0  0  0  0  0  0  0  0
    0.0245   30.7558   66.4125 O   0  0  0  0  0  0  0  0  0  0  0  0
    0.8033   30.9195   63.0673 O   0  0  0  0  0  0  0  0  0  0  0  0
   -2.2209   31.2795   65.9360 O   0  0  0  0  0  0  0  0  0  0  0  0
   -2.2167   32.2295   67.0300 C   0  0  2  0  0  0  0  0  0  0  0  0
   -3.5770   32.3086   67.7625 C   0  0  1  0  0  0  0  0  0  0  0  0
   -4.6795   32.9013   66.8267 C   0  0  2  0  0  0  0  0  0  0  0  0
   -4.2665   34.2956   66.4010 C   0  0  1  0  0  0  0  0  0  0  0  0
   -2.9103   34.2096   65.6386 C   0  0  1  0  0  0  0  0  0  0  0  0
   -2.4116   35.5829   65.1931 C   0  0  0  0  0  0  0  0  0  0  0  0
   -5.3184   34.8737   65.5303 N   0  0  0  0  0  0  0  0  0  0  0  0
   -1.8768   33.5939   66.5269 O   0  0  0  0  0  0  0  0  0  0  0  0
   -3.8998   30.9761   68.2188 O   0  0  0  0  0  0  0  0  0  0  0  0
   -5.9220   32.9793   67.5290 O   0  0  0  0  0  0  0  0  0  0  0  0
   -1.1830   35.4368   64.5232 O   0  0  0  0  0  0  0  0  0  0  0  0
    3.5761   26.2877   65.1956 C   0  0  1  0  0  0  0  0  0  0  0  0
    5.0401   25.8379   64.9363 C   0  0  1  0  0  0  0  0  0  0  0  0
    5.0547   24.5327   64.0888 C   0  0  2  0  0  0  0  0  0  0  0  0
    4.3041   23.4185   64.8592 C   0  0  1  0  0  0  0  0  0  0  0  0
    2.8161   23.8436   65.1278 C   0  0  0  0  0  0  0  0  0  0  0  0
    2.8273   25.1470   65.9545 C   0  0  2  0  0  0  0  0  0  0  0  0
    4.3177   22.1672   64.0639 N   0  0  0  0  0  0  0  0  0  0  0  0
    1.4348   25.5378   66.1998 N   0  0  0  0  0  0  0  0  0  0  0  0
    5.7426   26.8772   64.2196 O   0  0  0  0  0  0  0  0  0  0  0  0
    6.4258   24.1402   63.8570 O   0  0  0  0  0  0  0  0  0  0  0  0
  1  2  1  0  0  0  0
  1 12  1  1  0  0  0
  1 13  1  0  0  0  0
  2  3  1  0  0  0  0
  2 10  1  1  0  0  0
  4  3  1  1  0  0  0
  4  5  1  0  0  0  0
  4 14  1  0  0  0  0
  5  6  1  0  0  0  0
  5 13  1  6  0  0  0
  6  7  1  0  0  0  0
  6 15  1  1  0  0  0
  7  8  1  0  0  0  0
  7 11  1  6  0  0  0
  8 14  1  0  0  0  0
  8 16  1  1  0  0  0
  9 11  1  0  0  0  0
 17 16  1  6  0  0  0
 17 18  1  0  0  0  0
 17 24  1  0  0  0  0
 18 19  1  0  0  0  0
 18 25  1  6  0  0  0
 19 20  1  0  0  0  0
 19 26  1  1  0  0  0
 20 21  1  0  0  0  0
 20 23  1  6  0  0  0
 21 22  1  1  0  0  0
 21 24  1  0  0  0  0
 22 27  1  0  0  0  0
 28 12  1  1  0  0  0
 28 29  1  0  0  0  0
 28 33  1  0  0  0  0
 29 30  1  0  0  0  0
 29 36  1  6  0  0  0
 30 31  1  0  0  0  0
 30 37  1  1  0  0  0
 31 32  1  0  0  0  0
 31 34  1  6  0  0  0
 32 33  1  0  0  0  0
 33 35  1  6  0  0  0
M  END
>  <CHROM.1>
-179.98504231,90.08746378,173.81872162,80.64572047,-172.70930653,179.52310472
0.51459065,29.64670867,65.45418724,-0.80070719,0.03919916,0.11630749

>  <Name>
ligand

>  <RI>
0

>  <Rbt.Current_Directory>
/home/itssahil/PROJECTS/Mol_Feturizer/Test_systems_manuscript/rnas/2g5k

>  <Rbt.Executable>
rbdock ($Id: //depot/dev/client3/rdock/2013.1/src/exe/rbdock.cxx#4 $)

>  <Rbt.Library>
libRbt.so (2013.1, Build901 2013/11/27)

>  <Rbt.Parameter_File>
/export/apps/rDock/src/rDock_2013.1_src/data/scripts/dock_solv.prm

>  <Rbt.Receptor>
prm/pocket_docking_8.prm

>  <SCORE>
-16.0372

>  <SCORE.INTER>
-11.1981

>  <SCORE.INTER.CONST>
1

>  <SCORE.INTER.POLAR>
0

>  <SCORE.INTER.ROT>
6

>  <SCORE.INTER.SOLV>
13.4085

>  <SCORE.INTER.VDW>
-19.5349

>  <SCORE.INTER.norm>
-0.30265

>  <SCORE.INTRA>
-4.83915

>  <SCORE.INTRA.DIHEDRAL>
-8.40534

>  <SCORE.INTRA.DIHEDRAL.0>
11.3972

>  <SCORE.INTRA.POLAR>
0

>  <SCORE.INTRA.POLAR.0>
0

>  <SCORE.INTRA.REPUL>
0

>  <SCORE.INTRA.REPUL.0>
0

>  <SCORE.INTRA.SOLV>
-1.74947

>  <SCORE.INTRA.SOLV.lig_0>
-92.3891

>  <SCORE.INTRA.VDW>
0.238253

>  <SCORE.INTRA.VDW.0>
-2.90606

>  <SCORE.INTRA.norm>
-0.130788

>  <SCORE.RESTR>
0

>  <SCORE.RESTR.CAVITY>
0

>  <SCORE.RESTR.norm>
0

>  <SCORE.SYSTEM>
0

>  <SCORE.SYSTEM.CONST>
0

>  <SCORE.SYSTEM.DIHEDRAL>
0

>  <SCORE.SYSTEM.SOLV>
0

>  <SCORE.SYSTEM.norm>
0

>  <SCORE.heavy>
37

>  <SCORE.norm>
-0.433438

>  <RMSD>
5.877

$$$$
ligand
 OpenBabel02271912133D
libRbt.so/2013.1/901 2013/11/27
 37 40  0  0  0  0  0  0  0  0999 V2000
   -3.8066   31.9529   67.1006 C   0  0  1  0  0  0  0  0  0  0  0  0
   -5.0018   32.8849   66.7524 C   0  0  1  0  0  0  0  0  0  0  0  0
   -6.3198   32.3917   67.3795 C   0  0  0  0  0  0  0  0  0  0  0  0
   -6.5925   30.9320   66.8999 C   0  0  1  0  0  0  0  0  0  0  0  0
   -5.4101   29.9908   67.2995 C   0  0  1  0  0  0  0  0  0  0  0  0
   -5.7088   28.5060   66.7984 C   0  0  1  0  0  0  0  0  0  0  0  0
   -7.0363   28.0122   67.4445 C   0  0  1  0  0  0  0  0  0  0  0  0
   -8.1697   29.0035   67.0425 C   0  0  2  0  0  0  0  0  0  0  0  0
   -6.4983   25.4782   67.4450 C   0  0  0  0  0  0  0  0  0  0  0  0
   -4.7185   34.2739   67.1717 N   0  0  0  0  0  0  0  0  0  0  0  0
   -7.3611   26.6112   66.9813 N   0  0  0  0  0  0  0  0  0  0  0  0
   -3.4488   32.0105   68.4952 O   0  0  0  0  0  0  0  0  0  0  0  0
   -4.1644   30.5645   66.7087 O   0  0  0  0  0  0  0  0  0  0  0  0
   -7.8634   30.3751   67.4694 O   0  0  0  0  0  0  0  0  0  0  0  0
   -5.8714   28.5000   65.3861 O   0  0  0  0  0  0  0  0  0  0  0  0
   -9.4018   28.6000   67.6293 O   0  0  0  0  0  0  0  0  0  0  0  0
  -10.5319   29.4238   67.2504 C   0  0  2  0  0  0  0  0  0  0  0  0
  -11.8400   29.0166   67.9690 C   0  0  1  0  0  0  0  0  0  0  0  0
  -12.3087   27.5980   67.5106 C   0  0  2  0  0  0  0  0  0  0  0  0
  -12.5532   27.6196   66.0154 C   0  0  1  0  0  0  0  0  0  0  0  0
  -11.2269   28.0020   65.2925 C   0  0  1  0  0  0  0  0  0  0  0  0
  -11.3954   28.0677   63.7758 C   0  0  0  0  0  0  0  0  0  0  0  0
  -13.0197   26.2824   65.5759 N   0  0  0  0  0  0  0  0  0  0  0  0
  -10.7618   29.3379   65.7773 O   0  0  0  0  0  0  0  0  0  0  0  0
  -11.5898   29.0814   69.3907 O   0  0  0  0  0  0  0  0  0  0  0  0
  -13.5256   27.2504   68.1750 O   0  0  0  0  0  0  0  0  0  0  0  0
  -10.1444   28.3084   63.1787 O   0  0  0  0  0  0  0  0  0  0  0  0
   -2.2832   31.2460   69.0842 C   0  0  1  0  0  0  0  0  0  0  0  0
   -2.5697   29.7267   68.9342 C   0  0  1  0  0  0  0  0  0  0  0  0
   -1.3942   28.9008   69.5324 C   0  0  2  0  0  0  0  0  0  0  0  0
   -0.0891   29.2542   68.7773 C   0  0  1  0  0  0  0  0  0  0  0  0
    0.2301   30.7855   68.9197 C   0  0  0  0  0  0  0  0  0  0  0  0
   -0.9553   31.5829   68.3354 C   0  0  2  0  0  0  0  0  0  0  0  0
    1.0374   28.4674   69.3344 N   0  0  0  0  0  0  0  0  0  0  0  0
   -0.6501   33.0111   68.4733 N   0  0  0  0  0  0  0  0  0  0  0  0
   -3.7882   29.3956   69.6363 O   0  0  0  0  0  0  0  0  0  0  0  0
   -1.6882   27.4937   69.3859 O   0  0  0  0  0  0  0  0  0  0  0  0
  1  2  1  0  0  0  0
  1 12  1  1  0  0  0
  1 13  1  0  0  0  0
  2  3  1  0  0  0  0
  2 10  1  1  0  0  0
  4  3  1  1  0  0  0
  4  5  1  0  0  0  0
  4 14  1  0  0  0  0
  5  6  1  0  0  0  0
  5 13  1  6  0  0  0
  6  7  1  0  0  0  0
  6 15  1  6  0  0  0
  7  8  1  0  0  0  0
  7 11  1  6  0  0  0
  8 14  1  0  0  0  0
  8 16  1  1  0  0  0
  9 11  1  0  0  0  0
 17 16  1  1  0  0  0
 17 18  1  0  0  0  0
 17 24  1  0  0  0  0
 18 19  1  0  0  0  0
 18 25  1  1  0  0  0
 19 20  1  0  0  0  0
 19 26  1  1  0  0  0
 20 21  1  0  0  0  0
 20 23  1  6  0  0  0
 21 22  1  6  0  0  0
 21 24  1  0  0  0  0
 22 27  1  0  0  0  0
 28 12  1  6  0  0  0
 28 29  1  0  0  0  0
 28 33  1  0  0  0  0
 29 30  1  0  0  0  0
 29 36  1  1  0  0  0
 30 31  1  0  0  0  0
 30 37  1  6  0  0  0
 31 32  1  0  0  0  0
 31 34  1  1  0  0  0
 32 33  1  0  0  0  0
 33 35  1  1  0  0  0
M  END
>  <CHROM.1>
-177.32579804,69.16002581,-176.79731435,-63.79305539,-176.48532656,-175.22969052
-6.49093099,29.43287181,67.40926776,0.20755156,-0.25577376,-0.17227073

>  <Name>
ligand

>  <RI>
0

>  <Rbt.Current_Directory>
/home/itssahil/PROJECTS/Mol_Feturizer/Test_systems_manuscript/rnas/2g5k

>  <Rbt.Executable>
rbdock ($Id: //depot/dev/client3/rdock/2013.1/src/exe/rbdock.cxx#4 $)

>  <Rbt.Library>
libRbt.so (2013.1, Build901 2013/11/27)

>  <Rbt.Parameter_File>
/export/apps/rDock/src/rDock_2013.1_src/data/scripts/dock_solv.prm

>  <Rbt.Receptor>
prm/pocket_docking_5.prm

>  <SCORE>
-10.2337

>  <SCORE.INTER>
-4.30696

>  <SCORE.INTER.CONST>
1

>  <SCORE.INTER.POLAR>
0

>  <SCORE.INTER.ROT>
6

>  <SCORE.INTER.SOLV>
10.6439

>  <SCORE.INTER.VDW>
-14.0193

>  <SCORE.INTER.norm>
-0.116404

>  <SCORE.INTRA>
-5.9267

>  <SCORE.INTRA.DIHEDRAL>
-10.991

>  <SCORE.INTRA.DIHEDRAL.0>
11.3972

>  <SCORE.INTRA.POLAR>
0

>  <SCORE.INTRA.POLAR.0>
0

>  <SCORE.INTRA.REPUL>
0

>  <SCORE.INTRA.REPUL.0>
0

>  <SCORE.INTRA.SOLV>
-0.962488

>  <SCORE.INTRA.SOLV.lig_0>
-92.3891

>  <SCORE.INTRA.VDW>
0.050046

>  <SCORE.INTRA.VDW.0>
-2.90606

>  <SCORE.INTRA.norm>
-0.160181

>  <SCORE.RESTR>
0

>  <SCORE.RESTR.CAVITY>
0

>  <SCORE.RESTR.norm>
0

>  <SCORE.SYSTEM>
0

>  <SCORE.SYSTEM.CONST>
0

>  <SCORE.SYSTEM.DIHEDRAL>
0

>  <SCORE.SYSTEM.SOLV>
0

>  <SCORE.SYSTEM.norm>
0

>  <SCORE.heavy>
37

>  <SCORE.norm>
-0.276585

>  <RMSD>
5.879

$$$$
ligand
 OpenBabel02271912133D
libRbt.so/2013.1/901 2013/11/27
 37 40  0  0  0  0  0  0  0  0999 V2000
    2.3722   27.9419   63.0494 C   0  0  1  0  0  0  0  0  0  0  0  0
    2.2902   29.3809   62.4654 C   0  0  1  0  0  0  0  0  0  0  0  0
    1.3041   30.2668   63.2504 C   0  0  0  0  0  0  0  0  0  0  0  0
   -0.0990   29.5839   63.2505 C   0  0  1  0  0  0  0  0  0  0  0  0
   -0.0180   28.1583   63.8866 C   0  0  1  0  0  0  0  0  0  0  0  0
   -1.4612   27.4788   63.8746 C   0  0  1  0  0  0  0  0  0  0  0  0
   -2.4484   28.3752   64.6782 C   0  0  1  0  0  0  0  0  0  0  0  0
   -2.4630   29.7891   64.0230 C   0  0  2  0  0  0  0  0  0  0  0  0
   -4.3350   27.1118   65.9252 C   0  0  0  0  0  0  0  0  0  0  0  0
    3.6295   30.0055   62.4295 N   0  0  0  0  0  0  0  0  0  0  0  0
   -3.8329   27.7703   64.6772 N   0  0  0  0  0  0  0  0  0  0  0  0
    2.9952   27.9072   64.3482 O   0  0  0  0  0  0  0  0  0  0  0  0
    0.9968   27.3821   63.1134 O   0  0  0  0  0  0  0  0  0  0  0  0
   -1.1214   30.3865   63.9990 O   0  0  0  0  0  0  0  0  0  0  0  0
   -1.9348   27.3820   62.5376 O   0  0  0  0  0  0  0  0  0  0  0  0
   -3.3406   30.6501   64.7397 O   0  0  0  0  0  0  0  0  0  0  0  0
   -3.0281   30.7682   66.1495 C   0  0  2  0  0  0  0  0  0  0  0  0
   -4.1142   31.5315   66.9439 C   0  0  1  0  0  0  0  0  0  0  0  0
   -4.1774   33.0293   66.5024 C   0  0  2  0  0  0  0  0  0  0  0  0
   -2.8315   33.6758   66.7602 C   0  0  1  0  0  0  0  0  0  0  0  0
   -1.7439   32.9230   65.9368 C   0  0  1  0  0  0  0  0  0  0  0  0
   -0.3482   33.5024   66.1599 C   0  0  0  0  0  0  0  0  0  0  0  0
   -2.8900   35.1037   66.3644 N   0  0  0  0  0  0  0  0  0  0  0  0
   -1.7284   31.4808   66.3316 O   0  0  0  0  0  0  0  0  0  0  0  0
   -5.3668   30.8422   66.7345 O   0  0  0  0  0  0  0  0  0  0  0  0
   -5.1755   33.7172   67.2598 O   0  0  0  0  0  0  0  0  0  0  0  0
    0.5869   32.7647   65.4110 O   0  0  0  0  0  0  0  0  0  0  0  0
    3.3977   26.6232   65.0406 C   0  0  1  0  0  0  0  0  0  0  0  0
    2.1388   25.7225   65.1696 C   0  0  1  0  0  0  0  0  0  0  0  0
    2.5081   24.3889   65.8818 C   0  0  2  0  0  0  0  0  0  0  0  0
    3.5850   23.6499   65.0497 C   0  0  1  0  0  0  0  0  0  0  0  0
    4.8747   24.5357   64.9104 C   0  0  0  0  0  0  0  0  0  0  0  0
    4.4809   25.8574   64.2172 C   0  0  2  0  0  0  0  0  0  0  0  0
    3.9398   22.3735   65.7154 N   0  0  0  0  0  0  0  0  0  0  0  0
    5.6897   26.6790   64.0922 N   0  0  0  0  0  0  0  0  0  0  0  0
    1.1321   26.4112   65.9438 O   0  0  0  0  0  0  0  0  0  0  0  0
    1.3204   23.5737   65.9944 O   0  0  0  0  0  0  0  0  0  0  0  0
  1  2  1  0  0  0  0
  1 12  1  1  0  0  0
  1 13  1  0  0  0  0
  2  3  1  0  0  0  0
  2 10  1  1  0  0  0
  4  3  1  1  0  0  0
  4  5  1  0  0  0  0
  4 14  1  0  0  0  0
  5  6  1  0  0  0  0
  5 13  1  6  0  0  0
  6  7  1  0  0  0  0
  6 15  1  6  0  0  0
  7  8  1  0  0  0  0
  7 11  1  6  0  0  0
  8 14  1  0  0  0  0
  8 16  1  1  0  0  0
  9 11  1  0  0  0  0
 17 16  1  6  0  0  0
 17 18  1  0  0  0  0
 17 24  1  0  0  0  0
 18 19  1  0  0  0  0
 18 25  1  6  0  0  0
 19 20  1  0  0  0  0
 19 26  1  1  0  0  0
 20 21  1  0  0  0  0
 20 23  1  6  0  0  0
 21 22  1  1  0  0  0
 21 24  1  0  0  0  0
 22 27  1  0  0  0  0
 28 12  1  6  0  0  0
 28 29  1  0  0  0  0
 28 33  1  0  0  0  0
 29 30  1  0  0  0  0
 29 36  1  1  0  0  0
 30 31  1  0  0  0  0
 30 37  1  6  0  0  0
 31 32  1  0  0  0  0
 31 34  1  1  0  0  0
 32 33  1  0  0  0  0
 33 35  1  1  0  0  0
M  END
>  <CHROM.1>
-169.98391820,105.59244462,56.27743722,-56.87812723,-171.28513749,178.88213467
-0.18875795,28.90321643,64.95285026,-0.77905396,0.26222704,-0.04604866

>  <Name>
ligand

>  <RI>
0

>  <Rbt.Current_Directory>
/home/itssahil/PROJECTS/Mol_Feturizer/Test_systems_manuscript/rnas/2g5k

>  <Rbt.Executable>
rbdock ($Id: //depot/dev/client3/rdock/2013.1/src/exe/rbdock.cxx#4 $)

>  <Rbt.Library>
libRbt.so (2013.1, Build901 2013/11/27)

>  <Rbt.Parameter_File>
/export/apps/rDock/src/rDock_2013.1_src/data/scripts/dock_solv.prm

>  <Rbt.Receptor>
prm/pocket_docking_6.prm

>  <SCORE>
-14.7022

>  <SCORE.INTER>
-9.70376

>  <SCORE.INTER.CONST>
1

>  <SCORE.INTER.POLAR>
0

>  <SCORE.INTER.ROT>
6

>  <SCORE.INTER.SOLV>
18.5439

>  <SCORE.INTER.VDW>
-20.2505

>  <SCORE.INTER.norm>
-0.262264

>  <SCORE.INTRA>
-4.9984

>  <SCORE.INTRA.DIHEDRAL>
-9.35122

>  <SCORE.INTRA.DIHEDRAL.0>
11.3972

>  <SCORE.INTRA.POLAR>
0

>  <SCORE.INTRA.POLAR.0>
0

>  <SCORE.INTRA.REPUL>
0

>  <SCORE.INTRA.REPUL.0>
0

>  <SCORE.INTRA.SOLV>
0.479278

>  <SCORE.INTRA.SOLV.lig_0>
-92.3891

>  <SCORE.INTRA.VDW>
-0.562423

>  <SCORE.INTRA.VDW.0>
-2.90606

>  <SCORE.INTRA.norm>
-0.135092

>  <SCORE.RESTR>
0

>  <SCORE.RESTR.CAVITY>
0

>  <SCORE.RESTR.norm>
0

>  <SCORE.SYSTEM>
0

>  <SCORE.SYSTEM.CONST>
0

>  <SCORE.SYSTEM.DIHEDRAL>
0

>  <SCORE.SYSTEM.SOLV>
0

>  <SCORE.SYSTEM.norm>
0

>  <SCORE.heavy>
37

>  <SCORE.norm>
-0.397356

>  <RMSD>
5.930

$$$$
ligand
 OpenBabel02271912133D
libRbt.so/2013.1/901 2013/11/27
 37 40  0  0  0  0  0  0  0  0999 V2000
    4.0007   29.1366   65.1361 C   0  0  1  0  0  0  0  0  0  0  0  0
    3.9469   30.2401   66.2306 C   0  0  1  0  0  0  0  0  0  0  0  0
    2.5517   30.3457   66.8753 C   0  0  0  0  0  0  0  0  0  0  0  0
    1.4975   30.6170   65.7571 C   0  0  1  0  0  0  0  0  0  0  0  0
    1.5218   29.4765   64.6884 C   0  0  1  0  0  0  0  0  0  0  0  0
    0.4392   29.7750   63.5554 C   0  0  1  0  0  0  0  0  0  0  0  0
   -0.9683   29.8701   64.2141 C   0  0  1  0  0  0  0  0  0  0  0  0
   -0.9248   30.9953   65.2914 C   0  0  2  0  0  0  0  0  0  0  0  0
   -2.7269   29.0232   62.5110 C   0  0  0  0  0  0  0  0  0  0  0  0
    4.9763   29.9994   67.2638 N   0  0  0  0  0  0  0  0  0  0  0  0
   -2.0212   30.1670   63.1720 N   0  0  0  0  0  0  0  0  0  0  0  0
    3.8848   27.8088   65.6837 O   0  0  0  0  0  0  0  0  0  0  0  0
    2.9143   29.3950   64.1551 O   0  0  0  0  0  0  0  0  0  0  0  0
    0.1058   30.7328   66.3045 O   0  0  0  0  0  0  0  0  0  0  0  0
    0.7256   31.0214   62.9345 O   0  0  0  0  0  0  0  0  0  0  0  0
   -2.1894   31.1043   65.9347 O   0  0  0  0  0  0  0  0  0  0  0  0
   -2.2047   32.0284   67.0505 C   0  0  2  0  0  0  0  0  0  0  0  0
   -3.5740   32.0809   67.7687 C   0  0  1  0  0  0  0  0  0  0  0  0
   -4.6699   32.6875   66.8342 C   0  0  2  0  0  0  0  0  0  0  0  0
   -4.2621   34.0943   66.4459 C   0  0  1  0  0  0  0  0  0  0  0  0
   -2.8967   34.0356   65.6976 C   0  0  1  0  0  0  0  0  0  0  0  0
   -2.4028   35.4224   65.2900 C   0  0  0  0  0  0  0  0  0  0  0  0
   -5.3081   34.6852   65.5767 N   0  0  0  0  0  0  0  0  0  0  0  0
   -1.8690   33.4066   66.5833 O   0  0  0  0  0  0  0  0  0  0  0  0
   -3.8923   30.7358   68.1900 O   0  0  0  0  0  0  0  0  0  0  0  0
   -5.9209   32.7405   67.5236 O   0  0  0  0  0  0  0  0  0  0  0  0
   -2.2140   36.2064   66.4429 O   0  0  0  0  0  0  0  0  0  0  0  0
    4.1022   26.5534   64.8673 C   0  0  1  0  0  0  0  0  0  0  0  0
    3.0266   26.5064   63.7476 C   0  0  1  0  0  0  0  0  0  0  0  0
    3.2118   25.2253   62.8838 C   0  0  2  0  0  0  0  0  0  0  0  0
    4.6208   25.2449   62.2415 C   0  0  1  0  0  0  0  0  0  0  0  0
    5.7302   25.2836   63.3528 C   0  0  0  0  0  0  0  0  0  0  0  0
    5.5163   26.5524   64.2054 C   0  0  2  0  0  0  0  0  0  0  0  0
    4.8061   24.0315   61.4098 N   0  0  0  0  0  0  0  0  0  0  0  0
    6.5549   26.5804   65.2411 N   0  0  0  0  0  0  0  0  0  0  0  0
    1.7112   26.4903   64.3449 O   0  0  0  0  0  0  0  0  0  0  0  0
    2.1967   25.2030   61.8556 O   0  0  0  0  0  0  0  0  0  0  0  0
  1  2  1  0  0  0  0
  1 12  1  1  0  0  0
  1 13  1  0  0  0  0
  2  3  1  0  0  0  0
  2 10  1  1  0  0  0
  4  3  1  1  0  0  0
  4  5  1  0  0  0  0
  4 14  1  0  0  0  0
  5  6  1  0  0  0  0
  5 13  1  6  0  0  0
  6  7  1  0  0  0  0
  6 15  1  1  0  0  0
  7  8  1  0  0  0  0
  7 11  1  6  0  0  0
  8 14  1  0  0  0  0
  8 16  1  1  0  0  0
  9 11  1  0  0  0  0
 17 16  1  6  0  0  0
 17 18  1  0  0  0  0
 17 24  1  0  0  0  0
 18 19  1  0  0  0  0
 18 25  1  6  0  0  0
 19 20  1  0  0  0  0
 19 26  1  1  0  0  0
 20 21  1  0  0  0  0
 20 23  1  6  0  0  0
 21 22  1  1  0  0  0
 21 24  1  0  0  0  0
 22 27  1  0  0  0  0
 28 12  1  6  0  0  0
 28 29  1  0  0  0  0
 28 33  1  0  0  0  0
 29 30  1  0  0  0  0
 29 36  1  1  0  0  0
 30 31  1  0  0  0  0
 30 37  1  6  0  0  0
 31 32  1  0  0  0  0
 31 34  1  1  0  0  0
 32 33  1  0  0  0  0
 33 35  1  1  0  0  0
M  END
>  <CHROM.1>
-171.06481922,91.64489755,173.77696809,-62.82202021,-177.49794334,61.15478783
0.48831112,29.90562427,65.07129824,-0.71925830,-0.26460123,0.65578349

>  <Name>
ligand

>  <RI>
0

>  <Rbt.Current_Directory>
/home/itssahil/PROJECTS/Mol_Feturizer/Test_systems_manuscript/rnas/2g5k

>  <Rbt.Executable>
rbdock ($Id: //depot/dev/client3/rdock/2013.1/src/exe/rbdock.cxx#4 $)

>  <Rbt.Library>
libRbt.so (2013.1, Build901 2013/11/27)

>  <Rbt.Parameter_File>
/export/apps/rDock/src/rDock_2013.1_src/data/scripts/dock_solv.prm

>  <Rbt.Receptor>
prm/pocket_docking_7.prm

>  <SCORE>
-12.7731

>  <SCORE.INTER>
-7.60665

>  <SCORE.INTER.CONST>
1

>  <SCORE.INTER.POLAR>
0

>  <SCORE.INTER.ROT>
6

>  <SCORE.INTER.SOLV>
12.9002

>  <SCORE.INTER.VDW>
-16.9712

>  <SCORE.INTER.norm>
-0.205585

>  <SCORE.INTRA>
-5.16648

>  <SCORE.INTRA.DIHEDRAL>
-10.0578

>  <SCORE.INTRA.DIHEDRAL.0>
11.3972

>  <SCORE.INTRA.POLAR>
0

>  <SCORE.INTRA.POLAR.0>
0

>  <SCORE.INTRA.REPUL>
0

>  <SCORE.INTRA.REPUL.0>
0

>  <SCORE.INTRA.SOLV>
-0.291421

>  <SCORE.INTRA.SOLV.lig_0>
-92.3891

>  <SCORE.INTRA.VDW>
0.00815868

>  <SCORE.INTRA.VDW.0>
-2.90606

>  <SCORE.INTRA.norm>
-0.139634

>  <SCORE.RESTR>
0

>  <SCORE.RESTR.CAVITY>
0

>  <SCORE.RESTR.norm>
0

>  <SCORE.SYSTEM>
0

>  <SCORE.SYSTEM.CONST>
0

>  <SCORE.SYSTEM.DIHEDRAL>
0

>  <SCORE.SYSTEM.SOLV>
0

>  <SCORE.SYSTEM.norm>
0

>  <SCORE.heavy>
37

>  <SCORE.norm>
-0.34522

>  <RMSD>
5.964

$$$$
ligand
 OpenBabel02271912133D
libRbt.so/2013.1/901 2013/11/27
 37 40  0  0  0  0  0  0  0  0999 V2000
    3.9816   28.8686   65.1075 C   0  0  1  0  0  0  0  0  0  0  0  0
    3.9890   29.9312   66.2430 C   0  0  1  0  0  0  0  0  0  0  0  0
    2.6022   30.0880   66.8954 C   0  0  0  0  0  0  0  0  0  0  0  0
    1.5632   30.4583   65.7914 C   0  0  1  0  0  0  0  0  0  0  0  0
    1.5245   29.3595   64.6803 C   0  0  1  0  0  0  0  0  0  0  0  0
    0.4586   29.7590   63.5627 C   0  0  1  0  0  0  0  0  0  0  0  0
   -0.9409   29.9054   64.2287 C   0  0  1  0  0  0  0  0  0  0  0  0
   -0.8352   30.9851   65.3476 C   0  0  2  0  0  0  0  0  0  0  0  0
   -2.7702   29.2221   62.5265 C   0  0  0  0  0  0  0  0  0  0  0  0
    5.0047   29.5960   67.2634 N   0  0  0  0  0  0  0  0  0  0  0  0
   -1.9771   30.2984   63.2017 N   0  0  0  0  0  0  0  0  0  0  0  0
    3.7941   27.5293   65.6050 O   0  0  0  0  0  0  0  0  0  0  0  0
    2.9100   29.2226   64.1402 O   0  0  0  0  0  0  0  0  0  0  0  0
    0.1805   30.6288   66.3469 O   0  0  0  0  0  0  0  0  0  0  0  0
    0.8119   31.0107   62.9884 O   0  0  0  0  0  0  0  0  0  0  0  0
   -2.0915   31.1382   65.9983 O   0  0  0  0  0  0  0  0  0  0  0  0
   -2.0768   32.0907   67.0900 C   0  0  2  0  0  0  0  0  0  0  0  0
   -3.4180   32.1437   67.8594 C   0  0  1  0  0  0  0  0  0  0  0  0
   -4.5576   32.7114   66.9531 C   0  0  2  0  0  0  0  0  0  0  0  0
   -4.1852   34.1128   66.5136 C   0  0  1  0  0  0  0  0  0  0  0  0
   -2.8489   34.0528   65.7145 C   0  0  1  0  0  0  0  0  0  0  0  0
   -2.3909   35.4349   65.2528 C   0  0  0  0  0  0  0  0  0  0  0  0
   -5.2722   34.6671   65.6710 N   0  0  0  0  0  0  0  0  0  0  0  0
   -1.7790   33.4606   66.5751 O   0  0  0  0  0  0  0  0  0  0  0  0
   -3.7007   30.8059   68.3268 O   0  0  0  0  0  0  0  0  0  0  0  0
   -5.7818   32.7657   67.6891 O   0  0  0  0  0  0  0  0  0  0  0  0
   -1.1763   35.3129   64.5533 O   0  0  0  0  0  0  0  0  0  0  0  0
    3.8713   26.3000   64.7259 C   0  0  1  0  0  0  0  0  0  0  0  0
    5.3494   26.1022   64.2913 C   0  0  1  0  0  0  0  0  0  0  0  0
    5.4738   24.8470   63.3798 C   0  0  2  0  0  0  0  0  0  0  0  0
    4.9984   23.5998   64.1651 C   0  0  1  0  0  0  0  0  0  0  0  0
    3.5015   23.7690   64.6101 C   0  0  0  0  0  0  0  0  0  0  0  0
    3.4005   25.0274   65.4983 C   0  0  2  0  0  0  0  0  0  0  0  0
    5.1191   22.3958   63.3083 N   0  0  0  0  0  0  0  0  0  0  0  0
    2.0002   25.1790   65.9083 N   0  0  0  0  0  0  0  0  0  0  0  0
    5.7955   27.2659   63.5604 O   0  0  0  0  0  0  0  0  0  0  0  0
    6.8549   24.6898   62.9853 O   0  0  0  0  0  0  0  0  0  0  0  0
  1  2  1  0  0  0  0
  1 12  1  1  0  0  0
  1 13  1  0  0  0  0
  2  3  1  0  0  0  0
  2 10  1  1  0  0  0
  4  3  1  1  0  0  0
  4  5  1  0  0  0  0
  4 14  1  0  0  0  0
  5  6  1  0  0  0  0
  5 13  1  6  0  0  0
  6  7  1  0  0  0  0
  6 15  1  1  0  0  0
  7  8  1  0  0  0  0
  7 11  1  6  0  0  0
  8 14  1  0  0  0  0
  8 16  1  1  0  0  0
  9 11  1  0  0  0  0
 17 16  1  6  0  0  0
 17 18  1  0  0  0  0
 17 24  1  0  0  0  0
 18 19  1  0  0  0  0
 18 25  1  6  0  0  0
 19 20  1  0  0  0  0
 19 26  1  1  0  0  0
 20 21  1  0  0  0  0
 20 23  1  6  0  0  0
 21 22  1  1  0  0  0
 21 24  1  0  0  0  0
 22 27  1  0  0  0  0
 28 12  1  1  0  0  0
 28 29  1  0  0  0  0
 28 33  1  0  0  0  0
 29 30  1  0  0  0  0
 29 36  1  6  0  0  0
 30 31  1  0  0  0  0
 30 37  1  1  0  0  0
 31 32  1  0  0  0  0
 31 34  1  6  0  0  0
 32 33  1  0  0  0  0
 33 35  1  6  0  0  0
M  END
>  <CHROM.1>
-174.34976316,93.25327020,177.88500755,69.79141545,-174.82621757,179.34515338
0.71845404,29.62369678,65.25322832,-0.76123091,0.13130189,0.10729014

>  <Name>
ligand

>  <RI>
0

>  <Rbt.Current_Directory>
/home/itssahil/PROJECTS/Mol_Feturizer/Test_systems_manuscript/rnas/2g5k

>  <Rbt.Executable>
rbdock ($Id: //depot/dev/client3/rdock/2013.1/src/exe/rbdock.cxx#4 $)

>  <Rbt.Library>
libRbt.so (2013.1, Build901 2013/11/27)

>  <Rbt.Parameter_File>
/export/apps/rDock/src/rDock_2013.1_src/data/scripts/dock_solv.prm

>  <Rbt.Receptor>
prm/pocket_docking_7.prm

>  <SCORE>
-15.9031

>  <SCORE.INTER>
-10.3579

>  <SCORE.INTER.CONST>
1

>  <SCORE.INTER.POLAR>
0

>  <SCORE.INTER.ROT>
6

>  <SCORE.INTER.SOLV>
12.6036

>  <SCORE.INTER.VDW>
-18.7065

>  <SCORE.INTER.norm>
-0.279944

>  <SCORE.INTRA>
-5.54515

>  <SCORE.INTRA.DIHEDRAL>
-9.88421

>  <SCORE.INTRA.DIHEDRAL.0>
11.3972

>  <SCORE.INTRA.POLAR>
0

>  <SCORE.INTRA.POLAR.0>
0

>  <SCORE.INTRA.REPUL>
0

>  <SCORE.INTRA.REPUL.0>
0

>  <SCORE.INTRA.SOLV>
-1.96962

>  <SCORE.INTRA.SOLV.lig_0>
-92.3891

>  <SCORE.INTRA.VDW>
0.381767

>  <SCORE.INTRA.VDW.0>
-2.90606

>  <SCORE.INTRA.norm>
-0.149869

>  <SCORE.RESTR>
0

>  <SCORE.RESTR.CAVITY>
0

>  <SCORE.RESTR.norm>
0

>  <SCORE.SYSTEM>
0

>  <SCORE.SYSTEM.CONST>
0

>  <SCORE.SYSTEM.DIHEDRAL>
0

>  <SCORE.SYSTEM.SOLV>
0

>  <SCORE.SYSTEM.norm>
0

>  <SCORE.heavy>
37

>  <SCORE.norm>
-0.429813

>  <RMSD>
5.982

$$$$
ligand
 OpenBabel02271912133D
libRbt.so/2013.1/901 2013/11/27
 37 40  0  0  0  0  0  0  0  0999 V2000
    3.8509   28.8209   65.4090 C   0  0  1  0  0  0  0  0  0  0  0  0
    3.8737   29.9742   66.4520 C   0  0  1  0  0  0  0  0  0  0  0  0
    2.4793   30.2371   67.0519 C   0  0  0  0  0  0  0  0  0  0  0  0
    1.4820   30.5520   65.8938 C   0  0  1  0  0  0  0  0  0  0  0  0
    1.4258   29.3658   64.8772 C   0  0  1  0  0  0  0  0  0  0  0  0
    0.4030   29.7096   63.7023 C   0  0  1  0  0  0  0  0  0  0  0  0
   -1.0048   29.9639   64.3163 C   0  0  1  0  0  0  0  0  0  0  0  0
   -0.8827   31.1291   65.3440 C   0  0  2  0  0  0  0  0  0  0  0  0
   -2.7218   29.1961   62.5349 C   0  0  0  0  0  0  0  0  0  0  0  0
    4.8512   29.6881   67.5234 N   0  0  0  0  0  0  0  0  0  0  0  0
   -2.0003   30.3076   63.2329 N   0  0  0  0  0  0  0  0  0  0  0  0
    3.5990   27.5362   66.0109 O   0  0  0  0  0  0  0  0  0  0  0  0
    2.8171   29.1323   64.3874 O   0  0  0  0  0  0  0  0  0  0  0  0
    0.0944   30.8202   66.3962 O   0  0  0  0  0  0  0  0  0  0  0  0
    0.8189   30.8945   63.0356 O   0  0  0  0  0  0  0  0  0  0  0  0
   -2.1468   31.3833   65.9460 O   0  0  0  0  0  0  0  0  0  0  0  0
   -2.1053   32.3662   67.0097 C   0  0  2  0  0  0  0  0  0  0  0  0
   -3.4880   32.6059   67.6609 C   0  0  1  0  0  0  0  0  0  0  0  0
   -4.4731   33.2717   66.6466 C   0  0  2  0  0  0  0  0  0  0  0  0
   -3.8989   34.6022   66.2038 C   0  0  1  0  0  0  0  0  0  0  0  0
   -2.5194   34.3550   65.5228 C   0  0  1  0  0  0  0  0  0  0  0  0
   -1.8612   35.6554   65.0656 C   0  0  0  0  0  0  0  0  0  0  0  0
   -4.8387   35.2508   65.2578 N   0  0  0  0  0  0  0  0  0  0  0  0
   -1.6027   33.6715   66.4863 O   0  0  0  0  0  0  0  0  0  0  0  0
   -3.9679   31.3290   68.1375 O   0  0  0  0  0  0  0  0  0  0  0  0
   -5.7372   33.4976   67.2743 O   0  0  0  0  0  0  0  0  0  0  0  0
   -1.5994   36.4636   66.1871 O   0  0  0  0  0  0  0  0  0  0  0  0
    3.5653   26.2441   65.2237 C   0  0  1  0  0  0  0  0  0  0  0  0
    5.0273   25.7666   65.0059 C   0  0  1  0  0  0  0  0  0  0  0  0
    5.0391   24.4386   64.1946 C   0  0  2  0  0  0  0  0  0  0  0  0
    4.2572   23.3567   64.9798 C   0  0  1  0  0  0  0  0  0  0  0  0
    2.7707   23.8102   65.2071 C   0  0  0  0  0  0  0  0  0  0  0  0
    2.7850   25.1355   65.9982 C   0  0  2  0  0  0  0  0  0  0  0  0
    4.2678   22.0840   64.2192 N   0  0  0  0  0  0  0  0  0  0  0  0
    1.3939   25.5526   66.2051 N   0  0  0  0  0  0  0  0  0  0  0  0
    5.7589   26.7758   64.2754 O   0  0  0  0  0  0  0  0  0  0  0  0
    6.4085   24.0203   64.0009 O   0  0  0  0  0  0  0  0  0  0  0  0
  1  2  1  0  0  0  0
  1 12  1  1  0  0  0
  1 13  1  0  0  0  0
  2  3  1  0  0  0  0
  2 10  1  1  0  0  0
  4  3  1  1  0  0  0
  4  5  1  0  0  0  0
  4 14  1  0  0  0  0
  5  6  1  0  0  0  0
  5 13  1  6  0  0  0
  6  7  1  0  0  0  0
  6 15  1  1  0  0  0
  7  8  1  0  0  0  0
  7 11  1  6  0  0  0
  8 14  1  0  0  0  0
  8 16  1  1  0  0  0
  9 11  1  0  0  0  0
 17 16  1  6  0  0  0
 17 18  1  0  0  0  0
 17 24  1  0  0  0  0
 18 19  1  0  0  0  0
 18 25  1  6  0  0  0
 19 20  1  0  0  0  0
 19 26  1  1  0  0  0
 20 21  1  0  0  0  0
 20 23  1  6  0  0  0
 21 22  1  1  0  0  0
 21 24  1  0  0  0  0
 22 27  1  0  0  0  0
 28 12  1  1  0  0  0
 28 29  1  0  0  0  0
 28 33  1  0  0  0  0
 29 30  1  0  0  0  0
 29 36  1  6  0  0  0
 30 31  1  0  0  0  0
 30 37  1  1  0  0  0
 31 32  1  0  0  0  0
 31 34  1  6  0  0  0
 32 33  1  0  0  0  0
 33 35  1  6  0  0  0
M  END
>  <CHROM.1>
-178.18057320,87.31309053,174.40497003,81.21647750,-179.07362964,62.79651392
0.57732923,29.74039146,65.48200345,-0.84010825,-0.06798147,0.20370900

>  <Name>
ligand

>  <RI>
0

>  <Rbt.Current_Directory>
/home/itssahil/PROJECTS/Mol_Feturizer/Test_systems_manuscript/rnas/2g5k

>  <Rbt.Executable>
rbdock ($Id: //depot/dev/client3/rdock/2013.1/src/exe/rbdock.cxx#4 $)

>  <Rbt.Library>
libRbt.so (2013.1, Build901 2013/11/27)

>  <Rbt.Parameter_File>
/export/apps/rDock/src/rDock_2013.1_src/data/scripts/dock_solv.prm

>  <Rbt.Receptor>
prm/pocket_docking_7.prm

>  <SCORE>
-15.4481

>  <SCORE.INTER>
-10.9547

>  <SCORE.INTER.CONST>
1

>  <SCORE.INTER.POLAR>
0

>  <SCORE.INTER.ROT>
6

>  <SCORE.INTER.SOLV>
13.2244

>  <SCORE.INTER.VDW>
-19.3112

>  <SCORE.INTER.norm>
-0.296072

>  <SCORE.INTRA>
-4.49342

>  <SCORE.INTRA.DIHEDRAL>
-8.63963

>  <SCORE.INTRA.DIHEDRAL.0>
11.3972

>  <SCORE.INTRA.POLAR>
0

>  <SCORE.INTRA.POLAR.0>
0

>  <SCORE.INTRA.REPUL>
0

>  <SCORE.INTRA.REPUL.0>
0

>  <SCORE.INTRA.SOLV>
-1.03252

>  <SCORE.INTRA.SOLV.lig_0>
-92.3891

>  <SCORE.INTRA.VDW>
0.342656

>  <SCORE.INTRA.VDW.0>
-2.90606

>  <SCORE.INTRA.norm>
-0.121444

>  <SCORE.RESTR>
0

>  <SCORE.RESTR.CAVITY>
0

>  <SCORE.RESTR.norm>
0

>  <SCORE.SYSTEM>
0

>  <SCORE.SYSTEM.CONST>
0

>  <SCORE.SYSTEM.DIHEDRAL>
0

>  <SCORE.SYSTEM.SOLV>
0

>  <SCORE.SYSTEM.norm>
0

>  <SCORE.heavy>
37

>  <SCORE.norm>
-0.417516

>  <RMSD>
5.993

$$$$
ligand
 OpenBabel02271912133D
libRbt.so/2013.1/901 2013/11/27
 37 40  0  0  0  0  0  0  0  0999 V2000
    4.1315   28.8172   65.2192 C   0  0  1  0  0  0  0  0  0  0  0  0
    4.0399   29.8548   66.3740 C   0  0  1  0  0  0  0  0  0  0  0  0
    2.6028   29.9946   66.9113 C   0  0  0  0  0  0  0  0  0  0  0  0
    1.6584   30.3869   65.7325 C   0  0  1  0  0  0  0  0  0  0  0  0
    1.7169   29.3125   64.5986 C   0  0  1  0  0  0  0  0  0  0  0  0
    0.7467   29.7342   63.4046 C   0  0  1  0  0  0  0  0  0  0  0  0
   -0.7042   29.8633   63.9541 C   0  0  1  0  0  0  0  0  0  0  0  0
   -0.6965   30.9185   65.1010 C   0  0  2  0  0  0  0  0  0  0  0  0
   -2.8652   29.4380   62.5905 C   0  0  0  0  0  0  0  0  0  0  0  0
    4.9679   29.4993   67.4683 N   0  0  0  0  0  0  0  0  0  0  0  0
   -1.6523   30.2765   62.8527 N   0  0  0  0  0  0  0  0  0  0  0  0
    3.9081   27.4670   65.6703 O   0  0  0  0  0  0  0  0  0  0  0  0
    3.1432   29.1902   64.1735 O   0  0  0  0  0  0  0  0  0  0  0  0
    0.2334   30.5425   66.1739 O   0  0  0  0  0  0  0  0  0  0  0  0
    1.1421   30.9988   62.8890 O   0  0  0  0  0  0  0  0  0  0  0  0
   -2.0033   31.0549   65.6474 O   0  0  0  0  0  0  0  0  0  0  0  0
   -2.0630   31.8910   66.8292 C   0  0  2  0  0  0  0  0  0  0  0  0
   -3.4494   31.8640   67.5152 C   0  0  1  0  0  0  0  0  0  0  0  0
   -4.5351   32.5201   66.6024 C   0  0  2  0  0  0  0  0  0  0  0  0
   -4.1464   33.9594   66.3319 C   0  0  1  0  0  0  0  0  0  0  0  0
   -2.7630   33.9825   65.6153 C   0  0  1  0  0  0  0  0  0  0  0  0
   -2.2874   35.4050   65.3261 C   0  0  0  0  0  0  0  0  0  0  0  0
   -5.1834   34.5958   65.4842 N   0  0  0  0  0  0  0  0  0  0  0  0
   -1.7440   33.3066   66.4760 O   0  0  0  0  0  0  0  0  0  0  0  0
   -3.7506   30.4852   67.8255 O   0  0  0  0  0  0  0  0  0  0  0  0
   -5.8026   32.4978   67.2626 O   0  0  0  0  0  0  0  0  0  0  0  0
   -1.0390   35.3557   64.6793 O   0  0  0  0  0  0  0  0  0  0  0  0
    3.9892   26.2636   64.7564 C   0  0  1  0  0  0  0  0  0  0  0  0
    5.4744   26.0573   64.3508 C   0  0  1  0  0  0  0  0  0  0  0  0
    5.6030   24.8283   63.4049 C   0  0  2  0  0  0  0  0  0  0  0  0
    5.0916   23.5652   64.1408 C   0  0  1  0  0  0  0  0  0  0  0  0
    3.5871   23.7428   64.5555 C   0  0  0  0  0  0  0  0  0  0  0  0
    3.4824   24.9754   65.4787 C   0  0  2  0  0  0  0  0  0  0  0  0
    5.2161   22.3857   63.2510 N   0  0  0  0  0  0  0  0  0  0  0  0
    2.0749   25.1351   65.8602 N   0  0  0  0  0  0  0  0  0  0  0  0
    5.9538   27.2357   63.6661 O   0  0  0  0  0  0  0  0  0  0  0  0
    6.9908   24.6627   63.0383 O   0  0  0  0  0  0  0  0  0  0  0  0
  1  2  1  0  0  0  0
  1 12  1  1  0  0  0
  1 13  1  0  0  0  0
  2  3  1  0  0  0  0
  2 10  1  1  0  0  0
  4  3  1  1  0  0  0
  4  5  1  0  0  0  0
  4 14  1  0  0  0  0
  5  6  1  0  0  0  0
  5 13  1  6  0  0  0
  6  7  1  0  0  0  0
  6 15  1  1  0  0  0
  7  8  1  0  0  0  0
  7 11  1  6  0  0  0
  8 14  1  0  0  0  0
  8 16  1  1  0  0  0
  9 11  1  0  0  0  0
 17 16  1  6  0  0  0
 17 18  1  0  0  0  0
 17 24  1  0  0  0  0
 18 19  1  0  0  0  0
 18 25  1  6  0  0  0
 19 20  1  0  0  0  0
 19 26  1  1  0  0  0
 20 21  1  0  0  0  0
 20 23  1  6  0  0  0
 21 22  1  1  0  0  0
 21 24  1  0  0  0  0
 22 27  1  0  0  0  0
 28 12  1  1  0  0  0
 28 29  1  0  0  0  0
 28 33  1  0  0  0  0
 29 30  1  0  0  0  0
 29 36  1  6  0  0  0
 30 31  1  0  0  0  0
 30 37  1  1  0  0  0
 31 32  1  0  0  0  0
 31 34  1  6  0  0  0
 32 33  1  0  0  0  0
 33 35  1  6  0  0  0
M  END
>  <CHROM.1>
-177.80914190,125.59450351,172.72542923,69.52457836,-171.97164233,-179.90905760
0.81788841,29.55159027,65.16242909,-0.75371858,0.07401240,0.13546432

>  <Name>
ligand

>  <RI>
0

>  <Rbt.Current_Directory>
/home/itssahil/PROJECTS/Mol_Feturizer/Test_systems_manuscript/rnas/2g5k

>  <Rbt.Executable>
rbdock ($Id: //depot/dev/client3/rdock/2013.1/src/exe/rbdock.cxx#4 $)

>  <Rbt.Library>
libRbt.so (2013.1, Build901 2013/11/27)

>  <Rbt.Parameter_File>
/export/apps/rDock/src/rDock_2013.1_src/data/scripts/dock_solv.prm

>  <Rbt.Receptor>
prm/pocket_docking_7.prm

>  <SCORE>
-15.6651

>  <SCORE.INTER>
-10.4065

>  <SCORE.INTER.CONST>
1

>  <SCORE.INTER.POLAR>
0

>  <SCORE.INTER.ROT>
6

>  <SCORE.INTER.SOLV>
12.1533

>  <SCORE.INTER.VDW>
-18.5887

>  <SCORE.INTER.norm>
-0.281256

>  <SCORE.INTRA>
-5.25862

>  <SCORE.INTRA.DIHEDRAL>
-9.15321

>  <SCORE.INTRA.DIHEDRAL.0>
11.3972

>  <SCORE.INTRA.POLAR>
0

>  <SCORE.INTRA.POLAR.0>
0

>  <SCORE.INTRA.REPUL>
0

>  <SCORE.INTRA.REPUL.0>
0

>  <SCORE.INTRA.SOLV>
-1.98925

>  <SCORE.INTRA.SOLV.lig_0>
-92.3891

>  <SCORE.INTRA.VDW>
0.31261

>  <SCORE.INTRA.VDW.0>
-2.90606

>  <SCORE.INTRA.norm>
-0.142125

>  <SCORE.RESTR>
0

>  <SCORE.RESTR.CAVITY>
0

>  <SCORE.RESTR.norm>
0

>  <SCORE.SYSTEM>
0

>  <SCORE.SYSTEM.CONST>
0

>  <SCORE.SYSTEM.DIHEDRAL>
0

>  <SCORE.SYSTEM.SOLV>
0

>  <SCORE.SYSTEM.norm>
0

>  <SCORE.heavy>
37

>  <SCORE.norm>
-0.423381

>  <RMSD>
5.993

$$$$
ligand
 OpenBabel02271912133D
libRbt.so/2013.1/901 2013/11/27
 37 40  0  0  0  0  0  0  0  0999 V2000
    4.4462   27.4383   64.9198 C   0  0  1  0  0  0  0  0  0  0  0  0
    4.5020   28.3901   66.1484 C   0  0  1  0  0  0  0  0  0  0  0  0
    3.2007   28.3460   66.9718 C   0  0  0  0  0  0  0  0  0  0  0  0
    2.0011   28.7063   66.0410 C   0  0  1  0  0  0  0  0  0  0  0  0
    1.9207   27.7132   64.8364 C   0  0  1  0  0  0  0  0  0  0  0  0
    0.6902   28.1010   63.8982 C   0  0  1  0  0  0  0  0  0  0  0  0
   -0.6211   28.0441   64.7355 C   0  0  1  0  0  0  0  0  0  0  0  0
   -0.4718   29.0242   65.9380 C   0  0  2  0  0  0  0  0  0  0  0  0
   -1.9357   29.8322   63.3996 C   0  0  0  0  0  0  0  0  0  0  0  0
    5.6648   28.0697   67.0030 N   0  0  0  0  0  0  0  0  0  0  0  0
   -1.8102   28.4202   63.8827 N   0  0  0  0  0  0  0  0  0  0  0  0
    4.4444   26.0477   65.2974 O   0  0  0  0  0  0  0  0  0  0  0  0
    3.2332   27.7669   64.1261 O   0  0  0  0  0  0  0  0  0  0  0  0
    0.6903   28.6848   66.7696 O   0  0  0  0  0  0  0  0  0  0  0  0
    0.8539   29.4284   63.4164 O   0  0  0  0  0  0  0  0  0  0  0  0
   -1.6441   28.9899   66.7440 O   0  0  0  0  0  0  0  0  0  0  0  0
   -1.5977   29.8770   67.8886 C   0  0  2  0  0  0  0  0  0  0  0  0
   -2.9328   29.9214   68.6690 C   0  0  1  0  0  0  0  0  0  0  0  0
   -4.0614   30.5708   67.8049 C   0  0  2  0  0  0  0  0  0  0  0  0
   -3.6535   31.9848   67.4442 C   0  0  1  0  0  0  0  0  0  0  0  0
   -2.3237   31.9353   66.6337 C   0  0  1  0  0  0  0  0  0  0  0  0
   -1.8308   33.3290   66.2492 C   0  0  0  0  0  0  0  0  0  0  0  0
   -4.7296   32.6158   66.6425 N   0  0  0  0  0  0  0  0  0  0  0  0
   -1.2656   31.2659   67.4514 O   0  0  0  0  0  0  0  0  0  0  0  0
   -3.2491   28.5670   69.0606 O   0  0  0  0  0  0  0  0  0  0  0  0
   -5.2797   30.6153   68.5513 O   0  0  0  0  0  0  0  0  0  0  0  0
   -0.6436   33.2132   65.5032 O   0  0  0  0  0  0  0  0  0  0  0  0
    4.3431   24.9171   64.2967 C   0  0  1  0  0  0  0  0  0  0  0  0
    5.5841   24.9771   63.3645 C   0  0  1  0  0  0  0  0  0  0  0  0
    5.5180   23.8305   62.3143 C   0  0  2  0  0  0  0  0  0  0  0  0
    5.4944   22.4682   63.0504 C   0  0  1  0  0  0  0  0  0  0  0  0
    4.2429   22.3764   63.9952 C   0  0  0  0  0  0  0  0  0  0  0  0
    4.3220   23.5314   65.0160 C   0  0  2  0  0  0  0  0  0  0  0  0
    5.4386   21.3672   62.0589 N   0  0  0  0  0  0  0  0  0  0  0  0
    3.1498   23.4394   65.8932 N   0  0  0  0  0  0  0  0  0  0  0  0
    5.6090   26.2484   62.6785 O   0  0  0  0  0  0  0  0  0  0  0  0
    6.6785   23.9128   61.4574 O   0  0  0  0  0  0  0  0  0  0  0  0
  1  2  1  0  0  0  0
  1 12  1  1  0  0  0
  1 13  1  0  0  0  0
  2  3  1  0  0  0  0
  2 10  1  1  0  0  0
  4  3  1  1  0  0  0
  4  5  1  0  0  0  0
  4 14  1  0  0  0  0
  5  6  1  0  0  0  0
  5 13  1  6  0  0  0
  6  7  1  0  0  0  0
  6 15  1  1  0  0  0
  7  8  1  0  0  0  0
  7 11  1  6  0  0  0
  8 14  1  0  0  0  0
  8 16  1  1  0  0  0
  9 11  1  0  0  0  0
 17 16  1  6  0  0  0
 17 18  1  0  0  0  0
 17 24  1  0  0  0  0
 18 19  1  0  0  0  0
 18 25  1  6  0  0  0
 19 20  1  0  0  0  0
 19 26  1  1  0  0  0
 20 21  1  0  0  0  0
 20 23  1  6  0  0  0
 21 22  1  1  0  0  0
 21 24  1  0  0  0  0
 22 27  1  0  0  0  0
 28 12  1  1  0  0  0
 28 29  1  0  0  0  0
 28 33  1  0  0  0  0
 29 30  1  0  0  0  0
 29 36  1  6  0  0  0
 30 31  1  0  0  0  0
 30 37  1  6  0  0  0
 31 32  1  0  0  0  0
 31 34  1  6  0  0  0
 32 33  1  0  0  0  0
 33 35  1  1  0  0  0
M  END
>  <CHROM.1>
177.65160663,-68.07059210,-179.80450040,62.40593060,174.49121963,-179.01680876
1.16310844,27.98352074,65.40953722,-0.62570904,0.46722684,-0.07471425

>  <Name>
ligand

>  <RI>
0

>  <Rbt.Current_Directory>
/home/itssahil/PROJECTS/Mol_Feturizer/Test_systems_manuscript/rnas/2g5k

>  <Rbt.Executable>
rbdock ($Id: //depot/dev/client3/rdock/2013.1/src/exe/rbdock.cxx#4 $)

>  <Rbt.Library>
libRbt.so (2013.1, Build901 2013/11/27)

>  <Rbt.Parameter_File>
/export/apps/rDock/src/rDock_2013.1_src/data/scripts/dock_solv.prm

>  <Rbt.Receptor>
prm/pocket_docking_7.prm

>  <SCORE>
-9.17688

>  <SCORE.INTER>
-4.85325

>  <SCORE.INTER.CONST>
1

>  <SCORE.INTER.POLAR>
0

>  <SCORE.INTER.ROT>
6

>  <SCORE.INTER.SOLV>
13.4743

>  <SCORE.INTER.VDW>
-15.3269

>  <SCORE.INTER.norm>
-0.131169

>  <SCORE.INTRA>
-4.32363

>  <SCORE.INTRA.DIHEDRAL>
-11.098

>  <SCORE.INTRA.DIHEDRAL.0>
11.3972

>  <SCORE.INTRA.POLAR>
0

>  <SCORE.INTRA.POLAR.0>
0

>  <SCORE.INTRA.REPUL>
0

>  <SCORE.INTRA.REPUL.0>
0

>  <SCORE.INTRA.SOLV>
-1.60765

>  <SCORE.INTRA.SOLV.lig_0>
-92.3891

>  <SCORE.INTRA.VDW>
2.0292

>  <SCORE.INTRA.VDW.0>
-2.90606

>  <SCORE.INTRA.norm>
-0.116855

>  <SCORE.RESTR>
0

>  <SCORE.RESTR.CAVITY>
0

>  <SCORE.RESTR.norm>
0

>  <SCORE.SYSTEM>
0

>  <SCORE.SYSTEM.CONST>
0

>  <SCORE.SYSTEM.DIHEDRAL>
0

>  <SCORE.SYSTEM.SOLV>
0

>  <SCORE.SYSTEM.norm>
0

>  <SCORE.heavy>
37

>  <SCORE.norm>
-0.248024

>  <RMSD>
6.006

$$$$
ligand
 OpenBabel02271912133D
libRbt.so/2013.1/901 2013/11/27
 37 40  0  0  0  0  0  0  0  0999 V2000
    4.0286   28.7188   65.3733 C   0  0  1  0  0  0  0  0  0  0  0  0
    4.0370   29.8436   66.4473 C   0  0  1  0  0  0  0  0  0  0  0  0
    2.6297   30.1101   67.0145 C   0  0  0  0  0  0  0  0  0  0  0  0
    1.6701   30.4697   65.8376 C   0  0  1  0  0  0  0  0  0  0  0  0
    1.6272   29.3118   64.7882 C   0  0  1  0  0  0  0  0  0  0  0  0
    0.6431   29.7011   63.5946 C   0  0  1  0  0  0  0  0  0  0  0  0
   -0.7783   29.9588   64.1753 C   0  0  1  0  0  0  0  0  0  0  0  0
   -0.6700   31.0944   65.2371 C   0  0  2  0  0  0  0  0  0  0  0  0
   -2.7547   29.3450   62.6172 C   0  0  0  0  0  0  0  0  0  0  0  0
    4.9796   29.5154   67.5377 N   0  0  0  0  0  0  0  0  0  0  0  0
   -1.7377   30.3452   63.0740 N   0  0  0  0  0  0  0  0  0  0  0  0
    3.7425   27.4222   65.9330 O   0  0  0  0  0  0  0  0  0  0  0  0
    3.0286   29.0718   64.3318 O   0  0  0  0  0  0  0  0  0  0  0  0
    0.2725   30.7440   66.3077 O   0  0  0  0  0  0  0  0  0  0  0  0
    1.0936   30.8973   62.9721 O   0  0  0  0  0  0  0  0  0  0  0  0
   -1.9473   31.3504   65.8098 O   0  0  0  0  0  0  0  0  0  0  0  0
   -1.9203   32.2887   66.9134 C   0  0  2  0  0  0  0  0  0  0  0  0
   -3.2983   32.4519   67.5975 C   0  0  1  0  0  0  0  0  0  0  0  0
   -4.3243   33.1243   66.6292 C   0  0  2  0  0  0  0  0  0  0  0  0
   -3.8049   34.4916   66.2336 C   0  0  1  0  0  0  0  0  0  0  0  0
   -2.4305   34.3221   65.5195 C   0  0  1  0  0  0  0  0  0  0  0  0
   -1.8262   35.6629   65.1069 C   0  0  0  0  0  0  0  0  0  0  0  0
   -4.7839   35.1455   65.3321 N   0  0  0  0  0  0  0  0  0  0  0  0
   -1.4729   33.6318   66.4375 O   0  0  0  0  0  0  0  0  0  0  0  0
   -3.7248   31.1399   68.0275 O   0  0  0  0  0  0  0  0  0  0  0  0
   -5.5838   33.2788   67.2873 O   0  0  0  0  0  0  0  0  0  0  0  0
   -1.5564   36.4256   66.2580 O   0  0  0  0  0  0  0  0  0  0  0  0
    3.7081   26.1530   65.1096 C   0  0  1  0  0  0  0  0  0  0  0  0
    5.1680   25.6627   64.9068 C   0  0  1  0  0  0  0  0  0  0  0  0
    5.1791   24.3576   64.0591 C   0  0  2  0  0  0  0  0  0  0  0  0
    4.3685   23.2647   64.7985 C   0  0  1  0  0  0  0  0  0  0  0  0
    2.8835   23.7310   65.0097 C   0  0  0  0  0  0  0  0  0  0  0  0
    2.8990   25.0337   65.8376 C   0  0  2  0  0  0  0  0  0  0  0  0
    4.3781   22.0135   64.0030 N   0  0  0  0  0  0  0  0  0  0  0  0
    1.5094   25.4631   66.0291 N   0  0  0  0  0  0  0  0  0  0  0  0
    5.9264   26.6820   64.2190 O   0  0  0  0  0  0  0  0  0  0  0  0
    6.5468   23.9270   63.8803 O   0  0  0  0  0  0  0  0  0  0  0  0
  1  2  1  0  0  0  0
  1 12  1  1  0  0  0
  1 13  1  0  0  0  0
  2  3  1  0  0  0  0
  2 10  1  1  0  0  0
  4  3  1  1  0  0  0
  4  5  1  0  0  0  0
  4 14  1  0  0  0  0
  5  6  1  0  0  0  0
  5 13  1  6  0  0  0
  6  7  1  0  0  0  0
  6 15  1  1  0  0  0
  7  8  1  0  0  0  0
  7 11  1  6  0  0  0
  8 14  1  0  0  0  0
  8 16  1  1  0  0  0
  9 11  1  0  0  0  0
 17 16  1  6  0  0  0
 17 18  1  0  0  0  0
 17 24  1  0  0  0  0
 18 19  1  0  0  0  0
 18 25  1  6  0  0  0
 19 20  1  0  0  0  0
 19 26  1  1  0  0  0
 20 21  1  0  0  0  0
 20 23  1  6  0  0  0
 21 22  1  1  0  0  0
 21 24  1  0  0  0  0
 22 27  1  0  0  0  0
 28 12  1  1  0  0  0
 28 29  1  0  0  0  0
 28 33  1  0  0  0  0
 29 30  1  0  0  0  0
 29 36  1  6  0  0  0
 30 31  1  0  0  0  0
 30 37  1  1  0  0  0
 31 32  1  0  0  0  0
 31 34  1  6  0  0  0
 32 33  1  0  0  0  0
 33 35  1  6  0  0  0
M  END
>  <CHROM.1>
-178.45769773,106.03427328,173.52966885,80.90636841,-174.85550343,63.52968511
0.72835211,29.66457539,65.41197150,-0.84059674,-0.07022941,0.21633556

>  <Name>
ligand

>  <RI>
0

>  <Rbt.Current_Directory>
/home/itssahil/PROJECTS/Mol_Feturizer/Test_systems_manuscript/rnas/2g5k

>  <Rbt.Executable>
rbdock ($Id: //depot/dev/client3/rdock/2013.1/src/exe/rbdock.cxx#4 $)

>  <Rbt.Library>
libRbt.so (2013.1, Build901 2013/11/27)

>  <Rbt.Parameter_File>
/export/apps/rDock/src/rDock_2013.1_src/data/scripts/dock_solv.prm

>  <Rbt.Receptor>
prm/pocket_docking_7.prm

>  <SCORE>
-15.2107

>  <SCORE.INTER>
-10.9226

>  <SCORE.INTER.CONST>
1

>  <SCORE.INTER.POLAR>
0

>  <SCORE.INTER.ROT>
6

>  <SCORE.INTER.SOLV>
13.4103

>  <SCORE.INTER.VDW>
-19.3518

>  <SCORE.INTER.norm>
-0.295205

>  <SCORE.INTRA>
-4.28813

>  <SCORE.INTRA.DIHEDRAL>
-7.97233

>  <SCORE.INTRA.DIHEDRAL.0>
11.3972

>  <SCORE.INTRA.POLAR>
0

>  <SCORE.INTRA.POLAR.0>
0

>  <SCORE.INTRA.REPUL>
0

>  <SCORE.INTRA.REPUL.0>
0

>  <SCORE.INTRA.SOLV>
-1.08499

>  <SCORE.INTRA.SOLV.lig_0>
-92.3891

>  <SCORE.INTRA.VDW>
0.240533

>  <SCORE.INTRA.VDW.0>
-2.90606

>  <SCORE.INTRA.norm>
-0.115895

>  <SCORE.RESTR>
0

>  <SCORE.RESTR.CAVITY>
0

>  <SCORE.RESTR.norm>
0

>  <SCORE.SYSTEM>
0

>  <SCORE.SYSTEM.CONST>
0

>  <SCORE.SYSTEM.DIHEDRAL>
0

>  <SCORE.SYSTEM.SOLV>
0

>  <SCORE.SYSTEM.norm>
0

>  <SCORE.heavy>
37

>  <SCORE.norm>
-0.4111

>  <RMSD>
6.068

$$$$
ligand
 OpenBabel02271912133D
libRbt.so/2013.1/901 2013/11/27
 37 40  0  0  0  0  0  0  0  0999 V2000
    3.8764   24.0092   64.4998 C   0  0  1  0  0  0  0  0  0  0  0  0
    3.4337   23.5621   65.9220 C   0  0  1  0  0  0  0  0  0  0  0  0
    1.9040   23.6207   66.0950 C   0  0  0  0  0  0  0  0  0  0  0  0
    1.4158   25.0709   65.7888 C   0  0  1  0  0  0  0  0  0  0  0  0
    1.8194   25.4936   64.3389 C   0  0  1  0  0  0  0  0  0  0  0  0
    1.3128   26.9780   64.0485 C   0  0  1  0  0  0  0  0  0  0  0  0
   -0.2344   27.0256   64.2157 C   0  0  1  0  0  0  0  0  0  0  0  0
   -0.5804   26.5630   65.6631 C   0  0  2  0  0  0  0  0  0  0  0  0
   -1.9962   28.5960   63.1479 C   0  0  0  0  0  0  0  0  0  0  0  0
    3.9355   22.2042   66.2208 N   0  0  0  0  0  0  0  0  0  0  0  0
   -0.7512   28.4225   63.9621 N   0  0  0  0  0  0  0  0  0  0  0  0
    3.4803   23.0737   63.4779 O   0  0  0  0  0  0  0  0  0  0  0  0
    3.3022   25.3533   64.2302 O   0  0  0  0  0  0  0  0  0  0  0  0
   -0.0702   25.2127   65.9344 O   0  0  0  0  0  0  0  0  0  0  0  0
    1.8903   27.8746   64.9886 O   0  0  0  0  0  0  0  0  0  0  0  0
   -1.9905   26.5726   65.8545 O   0  0  0  0  0  0  0  0  0  0  0  0
   -2.4164   26.0138   67.1216 C   0  0  2  0  0  0  0  0  0  0  0  0
   -3.9443   26.1172   67.3409 C   0  0  1  0  0  0  0  0  0  0  0  0
   -4.3866   27.6094   67.4830 C   0  0  2  0  0  0  0  0  0  0  0  0
   -3.6749   28.2227   68.6718 C   0  0  1  0  0  0  0  0  0  0  0  0
   -2.1369   28.1431   68.4354 C   0  0  1  0  0  0  0  0  0  0  0  0
   -1.3433   28.7233   69.6045 C   0  0  0  0  0  0  0  0  0  0  0  0
   -4.1063   29.6330   68.8268 N   0  0  0  0  0  0  0  0  0  0  0  0
   -1.7339   26.7150   68.2499 O   0  0  0  0  0  0  0  0  0  0  0  0
   -4.5859   25.4561   66.2276 O   0  0  0  0  0  0  0  0  0  0  0  0
   -5.7977   27.6790   67.7002 O   0  0  0  0  0  0  0  0  0  0  0  0
   -1.6409   27.9994   70.7737 O   0  0  0  0  0  0  0  0  0  0  0  0
    4.0124   23.1180   62.0620 C   0  0  1  0  0  0  0  0  0  0  0  0
    3.8910   24.5758   61.5399 C   0  0  1  0  0  0  0  0  0  0  0  0
    4.4253   24.6659   60.0811 C   0  0  2  0  0  0  0  0  0  0  0  0
    5.9124   24.2343   60.0571 C   0  0  1  0  0  0  0  0  0  0  0  0
    6.0639   22.7583   60.5727 C   0  0  0  0  0  0  0  0  0  0  0  0
    5.5133   22.6904   62.0131 C   0  0  2  0  0  0  0  0  0  0  0  0
    6.4346   24.3229   58.6723 N   0  0  0  0  0  0  0  0  0  0  0  0
    5.6571   21.3094   62.4865 N   0  0  0  0  0  0  0  0  0  0  0  0
    2.5045   24.9811   61.5636 O   0  0  0  0  0  0  0  0  0  0  0  0
    4.2954   26.0285   59.6181 O   0  0  0  0  0  0  0  0  0  0  0  0
  1  2  1  0  0  0  0
  1 12  1  6  0  0  0
  1 13  1  0  0  0  0
  2  3  1  0  0  0  0
  2 10  1  6  0  0  0
  4  3  1  6  0  0  0
  4  5  1  0  0  0  0
  4 14  1  0  0  0  0
  5  6  1  0  0  0  0
  5 13  1  1  0  0  0
  6  7  1  0  0  0  0
  6 15  1  1  0  0  0
  7  8  1  0  0  0  0
  7 11  1  1  0  0  0
  8 14  1  0  0  0  0
  8 16  1  6  0  0  0
  9 11  1  0  0  0  0
 17 16  1  6  0  0  0
 17 18  1  0  0  0  0
 17 24  1  0  0  0  0
 18 19  1  0  0  0  0
 18 25  1  6  0  0  0
 19 20  1  0  0  0  0
 19 26  1  1  0  0  0
 20 21  1  0  0  0  0
 20 23  1  6  0  0  0
 21 22  1  1  0  0  0
 21 24  1  0  0  0  0
 22 27  1  0  0  0  0
 28 12  1  1  0  0  0
 28 29  1  0  0  0  0
 28 33  1  0  0  0  0
 29 30  1  0  0  0  0
 29 36  1  6  0  0  0
 30 31  1  0  0  0  0
 30 37  1  1  0  0  0
 31 32  1  0  0  0  0
 31 34  1  6  0  0  0
 32 33  1  0  0  0  0
 33 35  1  6  0  0  0
M  END
>  <CHROM.1>
-167.42465161,137.23124865,173.41527423,-48.92253687,176.41355055,60.27987052
0.86041841,25.71979651,64.82037361,-0.41112723,-0.64743234,1.97201720

>  <Name>
ligand

>  <RI>
0

>  <Rbt.Current_Directory>
/home/itssahil/PROJECTS/Mol_Feturizer/Test_systems_manuscript/rnas/2g5k

>  <Rbt.Executable>
rbdock ($Id: //depot/dev/client3/rdock/2013.1/src/exe/rbdock.cxx#4 $)

>  <Rbt.Library>
libRbt.so (2013.1, Build901 2013/11/27)

>  <Rbt.Parameter_File>
/export/apps/rDock/src/rDock_2013.1_src/data/scripts/dock_solv.prm

>  <Rbt.Receptor>
prm/pocket_docking_6.prm

>  <SCORE>
-15.6455

>  <SCORE.INTER>
-11.4696

>  <SCORE.INTER.CONST>
1

>  <SCORE.INTER.POLAR>
0

>  <SCORE.INTER.ROT>
6

>  <SCORE.INTER.SOLV>
26.2255

>  <SCORE.INTER.VDW>
-23.9882

>  <SCORE.INTER.norm>
-0.309989

>  <SCORE.INTRA>
-4.17596

>  <SCORE.INTRA.DIHEDRAL>
-8.77332

>  <SCORE.INTRA.DIHEDRAL.0>
11.3972

>  <SCORE.INTRA.POLAR>
0

>  <SCORE.INTRA.POLAR.0>
0

>  <SCORE.INTRA.REPUL>
0

>  <SCORE.INTRA.REPUL.0>
0

>  <SCORE.INTRA.SOLV>
-0.128781

>  <SCORE.INTRA.SOLV.lig_0>
-92.3891

>  <SCORE.INTRA.VDW>
0.275097

>  <SCORE.INTRA.VDW.0>
-2.90606

>  <SCORE.INTRA.norm>
-0.112864

>  <SCORE.RESTR>
0

>  <SCORE.RESTR.CAVITY>
0

>  <SCORE.RESTR.norm>
0

>  <SCORE.SYSTEM>
0

>  <SCORE.SYSTEM.CONST>
0

>  <SCORE.SYSTEM.DIHEDRAL>
0

>  <SCORE.SYSTEM.SOLV>
0

>  <SCORE.SYSTEM.norm>
0

>  <SCORE.heavy>
37

>  <SCORE.norm>
-0.422853

>  <RMSD>
6.147

$$$$
ligand
 OpenBabel02271912133D
libRbt.so/2013.1/901 2013/11/27
 37 40  0  0  0  0  0  0  0  0999 V2000
   -4.4212   30.6012   67.1521 C   0  0  1  0  0  0  0  0  0  0  0  0
   -5.8682   31.0787   66.8409 C   0  0  1  0  0  0  0  0  0  0  0  0
   -6.9282   30.1692   67.4910 C   0  0  0  0  0  0  0  0  0  0  0  0
   -6.7065   28.7044   67.0007 C   0  0  1  0  0  0  0  0  0  0  0  0
   -5.2673   28.2137   67.3635 C   0  0  1  0  0  0  0  0  0  0  0  0
   -5.0622   26.7167   66.8519 C   0  0  1  0  0  0  0  0  0  0  0  0
   -6.1306   25.8033   67.5212 C   0  0  1  0  0  0  0  0  0  0  0  0
   -7.5405   26.3576   67.1556 C   0  0  2  0  0  0  0  0  0  0  0  0
   -6.3253   23.2627   67.9883 C   0  0  0  0  0  0  0  0  0  0  0  0
   -6.0575   32.4806   67.2699 N   0  0  0  0  0  0  0  0  0  0  0  0
   -5.9774   24.3763   67.0491 N   0  0  0  0  0  0  0  0  0  0  0  0
   -4.0695   30.7708   68.5391 O   0  0  0  0  0  0  0  0  0  0  0  0
   -4.3015   29.1747   66.7522 O   0  0  0  0  0  0  0  0  0  0  0  0
   -7.7022   27.7508   67.5914 O   0  0  0  0  0  0  0  0  0  0  0  0
   -5.2480   26.6613   65.4435 O   0  0  0  0  0  0  0  0  0  0  0  0
   -8.5508   25.5615   67.7645 O   0  0  0  0  0  0  0  0  0  0  0  0
   -9.9011   25.9735   67.4386 C   0  0  2  0  0  0  0  0  0  0  0  0
  -10.9749   25.2072   68.2467 C   0  0  1  0  0  0  0  0  0  0  0  0
  -10.9960   23.6955   67.8509 C   0  0  2  0  0  0  0  0  0  0  0  0
  -11.3126   23.5777   66.3738 C   0  0  1  0  0  0  0  0  0  0  0  0
  -10.2141   24.3261   65.5608 C   0  0  1  0  0  0  0  0  0  0  0  0
  -10.4739   24.2731   64.0565 C   0  0  0  0  0  0  0  0  0  0  0  0
  -11.3564   22.1447   65.9949 N   0  0  0  0  0  0  0  0  0  0  0  0
  -10.1689   25.7593   65.9850 O   0  0  0  0  0  0  0  0  0  0  0  0
  -10.6838   25.4057   69.6481 O   0  0  0  0  0  0  0  0  0  0  0  0
  -12.0049   23.0119   68.5979 O   0  0  0  0  0  0  0  0  0  0  0  0
  -10.3519   22.9446   63.6099 O   0  0  0  0  0  0  0  0  0  0  0  0
   -2.6715   30.5461   69.0733 C   0  0  1  0  0  0  0  0  0  0  0  0
   -2.2897   29.0598   68.8329 C   0  0  1  0  0  0  0  0  0  0  0  0
   -0.8564   28.7835   69.3725 C   0  0  2  0  0  0  0  0  0  0  0  0
    0.1502   29.6983   68.6321 C   0  0  1  0  0  0  0  0  0  0  0  0
   -0.2074   31.2099   68.8654 C   0  0  0  0  0  0  0  0  0  0  0  0
   -1.6371   31.4556   68.3380 C   0  0  2  0  0  0  0  0  0  0  0  0
    1.5212   29.4386   69.1333 N   0  0  0  0  0  0  0  0  0  0  0  0
   -1.9636   32.8683   68.5607 N   0  0  0  0  0  0  0  0  0  0  0  0
   -3.2292   28.2047   69.5211 O   0  0  0  0  0  0  0  0  0  0  0  0
   -0.5290   27.3951   69.1425 O   0  0  0  0  0  0  0  0  0  0  0  0
  1  2  1  0  0  0  0
  1 12  1  1  0  0  0
  1 13  1  0  0  0  0
  2  3  1  0  0  0  0
  2 10  1  1  0  0  0
  4  3  1  1  0  0  0
  4  5  1  0  0  0  0
  4 14  1  0  0  0  0
  5  6  1  0  0  0  0
  5 13  1  6  0  0  0
  6  7  1  0  0  0  0
  6 15  1  6  0  0  0
  7  8  1  0  0  0  0
  7 11  1  6  0  0  0
  8 14  1  0  0  0  0
  8 16  1  1  0  0  0
  9 11  1  0  0  0  0
 17 16  1  1  0  0  0
 17 18  1  0  0  0  0
 17 24  1  0  0  0  0
 18 19  1  0  0  0  0
 18 25  1  1  0  0  0
 19 20  1  0  0  0  0
 19 26  1  1  0  0  0
 20 21  1  0  0  0  0
 20 23  1  6  0  0  0
 21 22  1  6  0  0  0
 21 24  1  0  0  0  0
 22 27  1  0  0  0  0
 28 12  1  6  0  0  0
 28 29  1  0  0  0  0
 28 33  1  0  0  0  0
 29 30  1  0  0  0  0
 29 36  1  1  0  0  0
 30 31  1  0  0  0  0
 30 37  1  6  0  0  0
 31 32  1  0  0  0  0
 31 34  1  1  0  0  0
 32 33  1  0  0  0  0
 33 35  1  1  0  0  0
M  END
>  <CHROM.1>
-172.26798506,148.06876443,-177.81652886,-61.91223292,-172.90192658,-66.28015575
-6.15743393,27.32083893,67.52691612,0.60464792,-0.22722682,-0.01578283

>  <Name>
ligand

>  <RI>
0

>  <Rbt.Current_Directory>
/home/itssahil/PROJECTS/Mol_Feturizer/Test_systems_manuscript/rnas/2g5k

>  <Rbt.Executable>
rbdock ($Id: //depot/dev/client3/rdock/2013.1/src/exe/rbdock.cxx#4 $)

>  <Rbt.Library>
libRbt.so (2013.1, Build901 2013/11/27)

>  <Rbt.Parameter_File>
/export/apps/rDock/src/rDock_2013.1_src/data/scripts/dock_solv.prm

>  <Rbt.Receptor>
prm/pocket_docking_6.prm

>  <SCORE>
-10.1658

>  <SCORE.INTER>
-4.94913

>  <SCORE.INTER.CONST>
1

>  <SCORE.INTER.POLAR>
0

>  <SCORE.INTER.ROT>
6

>  <SCORE.INTER.SOLV>
13.9983

>  <SCORE.INTER.VDW>
-15.5655

>  <SCORE.INTER.norm>
-0.13376

>  <SCORE.INTRA>
-5.21888

>  <SCORE.INTRA.DIHEDRAL>
-9.9821

>  <SCORE.INTRA.DIHEDRAL.0>
11.3972

>  <SCORE.INTRA.POLAR>
0

>  <SCORE.INTRA.POLAR.0>
0

>  <SCORE.INTRA.REPUL>
0

>  <SCORE.INTRA.REPUL.0>
0

>  <SCORE.INTRA.SOLV>
0.0873292

>  <SCORE.INTRA.SOLV.lig_0>
-92.3891

>  <SCORE.INTRA.VDW>
-0.271493

>  <SCORE.INTRA.VDW.0>
-2.90606

>  <SCORE.INTRA.norm>
-0.141051

>  <SCORE.RESTR>
0.00217614

>  <SCORE.RESTR.CAVITY>
0.00217614

>  <SCORE.RESTR.norm>
5.88145e-05

>  <SCORE.SYSTEM>
0

>  <SCORE.SYSTEM.CONST>
0

>  <SCORE.SYSTEM.DIHEDRAL>
0

>  <SCORE.SYSTEM.SOLV>
0

>  <SCORE.SYSTEM.norm>
0

>  <SCORE.heavy>
37

>  <SCORE.norm>
-0.274752

>  <RMSD>
6.310

$$$$
ligand
 OpenBabel02271912133D
libRbt.so/2013.1/901 2013/11/27
 37 40  0  0  0  0  0  0  0  0999 V2000
   -3.2716   29.4041   68.6623 C   0  0  1  0  0  0  0  0  0  0  0  0
   -3.0482   27.9230   69.0808 C   0  0  1  0  0  0  0  0  0  0  0  0
   -3.4626   26.9406   67.9689 C   0  0  0  0  0  0  0  0  0  0  0  0
   -4.9570   27.1966   67.5994 C   0  0  1  0  0  0  0  0  0  0  0  0
   -5.1634   28.6733   67.1301 C   0  0  1  0  0  0  0  0  0  0  0  0
   -6.6964   28.9130   66.7598 C   0  0  1  0  0  0  0  0  0  0  0  0
   -7.1037   27.9234   65.6291 C   0  0  1  0  0  0  0  0  0  0  0  0
   -6.8454   26.4730   66.1374 C   0  0  2  0  0  0  0  0  0  0  0  0
   -8.9376   29.2647   64.3849 C   0  0  0  0  0  0  0  0  0  0  0  0
   -1.6398   27.6985   69.4696 N   0  0  0  0  0  0  0  0  0  0  0  0
   -8.5568   28.1106   65.2602 N   0  0  0  0  0  0  0  0  0  0  0  0
   -2.3722   29.8251   67.6183 O   0  0  0  0  0  0  0  0  0  0  0  0
   -4.6851   29.5619   68.2309 O   0  0  0  0  0  0  0  0  0  0  0  0
   -5.4403   26.2768   66.5178 O   0  0  0  0  0  0  0  0  0  0  0  0
   -7.5108   28.6515   67.8954 O   0  0  0  0  0  0  0  0  0  0  0  0
   -7.1868   25.5330   65.1251 O   0  0  0  0  0  0  0  0  0  0  0  0
   -7.3420   24.1764   65.6096 C   0  0  2  0  0  0  0  0  0  0  0  0
   -8.0180   23.2431   64.5773 C   0  0  1  0  0  0  0  0  0  0  0  0
   -9.5016   23.6678   64.3305 C   0  0  2  0  0  0  0  0  0  0  0  0
  -10.2607   23.5878   65.6394 C   0  0  1  0  0  0  0  0  0  0  0  0
   -9.5952   24.5500   66.6685 C   0  0  1  0  0  0  0  0  0  0  0  0
  -10.2913   24.5111   68.0276 C   0  0  0  0  0  0  0  0  0  0  0  0
  -11.6754   23.9680   65.4093 N   0  0  0  0  0  0  0  0  0  0  0  0
   -8.1626   24.1651   66.8573 O   0  0  0  0  0  0  0  0  0  0  0  0
   -7.2243   23.2875   63.3705 O   0  0  0  0  0  0  0  0  0  0  0  0
  -10.1094   22.7831   63.3866 O   0  0  0  0  0  0  0  0  0  0  0  0
  -10.1821   23.2173   68.5695 O   0  0  0  0  0  0  0  0  0  0  0  0
   -2.3810   31.2187   67.0285 C   0  0  1  0  0  0  0  0  0  0  0  0
   -3.6832   31.3899   66.1992 C   0  0  1  0  0  0  0  0  0  0  0  0
   -3.7313   32.8124   65.5697 C   0  0  2  0  0  0  0  0  0  0  0  0
   -3.7004   33.8697   66.7009 C   0  0  1  0  0  0  0  0  0  0  0  0
   -2.3879   33.7252   67.5516 C   0  0  0  0  0  0  0  0  0  0  0  0
   -2.3546   32.3033   68.1513 C   0  0  2  0  0  0  0  0  0  0  0  0
   -3.7529   35.2298   66.1129 N   0  0  0  0  0  0  0  0  0  0  0  0
   -1.1260   32.1761   68.9428 N   0  0  0  0  0  0  0  0  0  0  0  0
   -3.7149   30.4028   65.1447 O   0  0  0  0  0  0  0  0  0  0  0  0
   -4.9471   32.9430   64.7999 O   0  0  0  0  0  0  0  0  0  0  0  0
  1  2  1  0  0  0  0
  1 12  1  6  0  0  0
  1 13  1  0  0  0  0
  2  3  1  0  0  0  0
  2 10  1  6  0  0  0
  4  3  1  6  0  0  0
  4  5  1  0  0  0  0
  4 14  1  0  0  0  0
  5  6  1  0  0  0  0
  5 13  1  1  0  0  0
  6  7  1  0  0  0  0
  6 15  1  1  0  0  0
  7  8  1  0  0  0  0
  7 11  1  1  0  0  0
  8 14  1  0  0  0  0
  8 16  1  6  0  0  0
  9 11  1  0  0  0  0
 17 16  1  6  0  0  0
 17 18  1  0  0  0  0
 17 24  1  0  0  0  0
 18 19  1  0  0  0  0
 18 25  1  6  0  0  0
 19 20  1  0  0  0  0
 19 26  1  6  0  0  0
 20 21  1  0  0  0  0
 20 23  1  6  0  0  0
 21 22  1  1  0  0  0
 21 24  1  0  0  0  0
 22 27  1  0  0  0  0
 28 12  1  1  0  0  0
 28 29  1  0  0  0  0
 28 33  1  0  0  0  0
 29 30  1  0  0  0  0
 29 36  1  6  0  0  0
 30 31  1  0  0  0  0
 30 37  1  1  0  0  0
 31 32  1  0  0  0  0
 31 34  1  6  0  0  0
 32 33  1  0  0  0  0
 33 35  1  6  0  0  0
M  END
>  <CHROM.1>
179.92061389,78.18676252,-163.59495981,-69.62579876,166.92387055,62.38625019
-6.00872825,27.94612218,66.52224221,-0.71242072,0.63192272,2.74374361

>  <Name>
ligand

>  <RI>
0

>  <Rbt.Current_Directory>
/home/itssahil/PROJECTS/Mol_Feturizer/Test_systems_manuscript/rnas/2g5k

>  <Rbt.Executable>
rbdock ($Id: //depot/dev/client3/rdock/2013.1/src/exe/rbdock.cxx#4 $)

>  <Rbt.Library>
libRbt.so (2013.1, Build901 2013/11/27)

>  <Rbt.Parameter_File>
/export/apps/rDock/src/rDock_2013.1_src/data/scripts/dock_solv.prm

>  <Rbt.Receptor>
prm/pocket_docking_8.prm

>  <SCORE>
-12.9062

>  <SCORE.INTER>
-8.22724

>  <SCORE.INTER.CONST>
1

>  <SCORE.INTER.POLAR>
0

>  <SCORE.INTER.ROT>
6

>  <SCORE.INTER.SOLV>
15.3323

>  <SCORE.INTER.VDW>
-18.1956

>  <SCORE.INTER.norm>
-0.222358

>  <SCORE.INTRA>
-4.67896

>  <SCORE.INTRA.DIHEDRAL>
-8.58712

>  <SCORE.INTRA.DIHEDRAL.0>
11.3972

>  <SCORE.INTRA.POLAR>
0

>  <SCORE.INTRA.POLAR.0>
0

>  <SCORE.INTRA.REPUL>
0

>  <SCORE.INTRA.REPUL.0>
0

>  <SCORE.INTRA.SOLV>
-0.087096

>  <SCORE.INTRA.SOLV.lig_0>
-92.3891

>  <SCORE.INTRA.VDW>
-0.341851

>  <SCORE.INTRA.VDW.0>
-2.90606

>  <SCORE.INTRA.norm>
-0.126458

>  <SCORE.RESTR>
0

>  <SCORE.RESTR.CAVITY>
0

>  <SCORE.RESTR.norm>
0

>  <SCORE.SYSTEM>
0

>  <SCORE.SYSTEM.CONST>
0

>  <SCORE.SYSTEM.DIHEDRAL>
0

>  <SCORE.SYSTEM.SOLV>
0

>  <SCORE.SYSTEM.norm>
0

>  <SCORE.heavy>
37

>  <SCORE.norm>
-0.348816

>  <RMSD>
6.434

$$$$
ligand
 OpenBabel02271912133D
libRbt.so/2013.1/901 2013/11/27
 37 40  0  0  0  0  0  0  0  0999 V2000
   -1.0198   32.9446   66.5419 C   0  0  1  0  0  0  0  0  0  0  0  0
   -1.5121   34.2696   65.8933 C   0  0  1  0  0  0  0  0  0  0  0  0
   -3.0423   34.4228   65.9847 C   0  0  0  0  0  0  0  0  0  0  0  0
   -3.7152   33.1873   65.3095 C   0  0  1  0  0  0  0  0  0  0  0  0
   -3.2553   31.8629   66.0009 C   0  0  1  0  0  0  0  0  0  0  0  0
   -3.9530   30.6145   65.2942 C   0  0  1  0  0  0  0  0  0  0  0  0
   -5.4982   30.7725   65.4001 C   0  0  1  0  0  0  0  0  0  0  0  0
   -5.8952   32.1212   64.7277 C   0  0  2  0  0  0  0  0  0  0  0  0
   -6.4761   28.3770   65.5253 C   0  0  0  0  0  0  0  0  0  0  0  0
   -0.8390   35.4326   66.5095 N   0  0  0  0  0  0  0  0  0  0  0  0
   -6.1959   29.6132   64.7277 N   0  0  0  0  0  0  0  0  0  0  0  0
   -1.1797   32.9374   67.9739 O   0  0  0  0  0  0  0  0  0  0  0  0
   -1.7646   31.8154   65.9261 O   0  0  0  0  0  0  0  0  0  0  0  0
   -5.2126   33.2593   65.3572 O   0  0  0  0  0  0  0  0  0  0  0  0
   -3.6015   30.5845   63.9170 O   0  0  0  0  0  0  0  0  0  0  0  0
   -7.3018   32.3166   64.8189 O   0  0  0  0  0  0  0  0  0  0  0  0
   -7.7458   33.6192   64.3659 C   0  0  2  0  0  0  0  0  0  0  0  0
   -9.2641   33.8394   64.5649 C   0  0  1  0  0  0  0  0  0  0  0  0
  -10.0905   32.8814   63.6475 C   0  0  2  0  0  0  0  0  0  0  0  0
   -9.7371   33.1592   62.2005 C   0  0  1  0  0  0  0  0  0  0  0  0
   -8.2129   32.9092   61.9962 C   0  0  1  0  0  0  0  0  0  0  0  0
   -7.7699   33.1901   60.5616 C   0  0  0  0  0  0  0  0  0  0  0  0
  -10.5340   32.2691   61.3220 N   0  0  0  0  0  0  0  0  0  0  0  0
   -7.4343   33.7947   62.9159 O   0  0  0  0  0  0  0  0  0  0  0  0
   -9.5490   33.6405   65.9676 O   0  0  0  0  0  0  0  0  0  0  0  0
  -11.4881   33.1135   63.8368 O   0  0  0  0  0  0  0  0  0  0  0  0
   -8.4275   32.3032   59.6895 O   0  0  0  0  0  0  0  0  0  0  0  0
   -0.5150   31.9214   68.8772 C   0  0  1  0  0  0  0  0  0  0  0  0
   -0.9800   30.5041   68.4436 C   0  0  1  0  0  0  0  0  0  0  0  0
   -0.3210   29.4258   69.3518 C   0  0  2  0  0  0  0  0  0  0  0  0
    1.2189   29.5232   69.2207 C   0  0  1  0  0  0  0  0  0  0  0  0
    1.7185   30.9456   69.6617 C   0  0  0  0  0  0  0  0  0  0  0  0
    1.0400   31.9977   68.7588 C   0  0  2  0  0  0  0  0  0  0  0  0
    1.8579   28.4950   70.0768 N   0  0  0  0  0  0  0  0  0  0  0  0
    1.5105   33.3226   69.1777 N   0  0  0  0  0  0  0  0  0  0  0  0
   -2.4168   30.4120   68.5632 O   0  0  0  0  0  0  0  0  0  0  0  0
   -0.7743   28.1195   68.9321 O   0  0  0  0  0  0  0  0  0  0  0  0
  1  2  1  0  0  0  0
  1 12  1  1  0  0  0
  1 13  1  0  0  0  0
  2  3  1  0  0  0  0
  2 10  1  1  0  0  0
  4  3  1  1  0  0  0
  4  5  1  0  0  0  0
  4 14  1  0  0  0  0
  5  6  1  0  0  0  0
  5 13  1  6  0  0  0
  6  7  1  0  0  0  0
  6 15  1  6  0  0  0
  7  8  1  0  0  0  0
  7 11  1  6  0  0  0
  8 14  1  0  0  0  0
  8 16  1  1  0  0  0
  9 11  1  0  0  0  0
 17 16  1  6  0  0  0
 17 18  1  0  0  0  0
 17 24  1  0  0  0  0
 18 19  1  0  0  0  0
 18 25  1  1  0  0  0
 19 20  1  0  0  0  0
 19 26  1  6  0  0  0
 20 21  1  0  0  0  0
 20 23  1  6  0  0  0
 21 22  1  6  0  0  0
 21 24  1  0  0  0  0
 22 27  1  0  0  0  0
 28 12  1  6  0  0  0
 28 29  1  0  0  0  0
 28 33  1  0  0  0  0
 29 30  1  0  0  0  0
 29 36  1  1  0  0  0
 30 31  1  0  0  0  0
 30 37  1  6  0  0  0
 31 32  1  0  0  0  0
 31 34  1  1  0  0  0
 32 33  1  0  0  0  0
 33 35  1  1  0  0  0
M  END
>  <CHROM.1>
-166.06507777,87.83718746,172.87849204,-58.75978623,-176.11527481,-62.79622756
-4.33670550,31.98900349,65.70486468,-0.32249181,-0.50046785,-0.30381584

>  <Name>
ligand

>  <RI>
0

>  <Rbt.Current_Directory>
/home/itssahil/PROJECTS/Mol_Feturizer/Test_systems_manuscript/rnas/2g5k

>  <Rbt.Executable>
rbdock ($Id: //depot/dev/client3/rdock/2013.1/src/exe/rbdock.cxx#4 $)

>  <Rbt.Library>
libRbt.so (2013.1, Build901 2013/11/27)

>  <Rbt.Parameter_File>
/export/apps/rDock/src/rDock_2013.1_src/data/scripts/dock_solv.prm

>  <Rbt.Receptor>
prm/pocket_docking_8.prm

>  <SCORE>
-9.34987

>  <SCORE.INTER>
-5.06717

>  <SCORE.INTER.CONST>
1

>  <SCORE.INTER.POLAR>
0

>  <SCORE.INTER.ROT>
6

>  <SCORE.INTER.SOLV>
13.086

>  <SCORE.INTER.VDW>
-15.3401

>  <SCORE.INTER.norm>
-0.13695

>  <SCORE.INTRA>
-4.2827

>  <SCORE.INTRA.DIHEDRAL>
-9.55738

>  <SCORE.INTRA.DIHEDRAL.0>
11.3972

>  <SCORE.INTRA.POLAR>
0

>  <SCORE.INTRA.POLAR.0>
0

>  <SCORE.INTRA.REPUL>
0

>  <SCORE.INTRA.REPUL.0>
0

>  <SCORE.INTRA.SOLV>
0.325623

>  <SCORE.INTRA.SOLV.lig_0>
-92.3891

>  <SCORE.INTRA.VDW>
0.333177

>  <SCORE.INTRA.VDW.0>
-2.90606

>  <SCORE.INTRA.norm>
-0.115749

>  <SCORE.RESTR>
0

>  <SCORE.RESTR.CAVITY>
0

>  <SCORE.RESTR.norm>
0

>  <SCORE.SYSTEM>
0

>  <SCORE.SYSTEM.CONST>
0

>  <SCORE.SYSTEM.DIHEDRAL>
0

>  <SCORE.SYSTEM.SOLV>
0

>  <SCORE.SYSTEM.norm>
0

>  <SCORE.heavy>
37

>  <SCORE.norm>
-0.252699

>  <RMSD>
6.464

$$$$
ligand
 OpenBabel02271912133D
libRbt.so/2013.1/901 2013/11/27
 37 40  0  0  0  0  0  0  0  0999 V2000
   -5.0921   32.4504   67.3122 C   0  0  1  0  0  0  0  0  0  0  0  0
   -6.4054   33.2707   67.4563 C   0  0  1  0  0  0  0  0  0  0  0  0
   -7.4342   32.5592   68.3555 C   0  0  0  0  0  0  0  0  0  0  0  0
   -7.7231   31.1420   67.7695 C   0  0  1  0  0  0  0  0  0  0  0  0
   -6.4060   30.3053   67.6764 C   0  0  1  0  0  0  0  0  0  0  0  0
   -6.7241   28.8629   67.0737 C   0  0  1  0  0  0  0  0  0  0  0  0
   -7.7565   28.1475   67.9936 C   0  0  1  0  0  0  0  0  0  0  0  0
   -9.0315   29.0396   68.0777 C   0  0  2  0  0  0  0  0  0  0  0  0
   -7.1170   25.6623   67.6392 C   0  0  0  0  0  0  0  0  0  0  0  0
   -6.1188   34.6261   67.9721 N   0  0  0  0  0  0  0  0  0  0  0  0
   -8.0946   26.7804   67.4463 N   0  0  0  0  0  0  0  0  0  0  0  0
   -4.3407   32.3895   68.5402 O   0  0  0  0  0  0  0  0  0  0  0  0
   -5.4413   31.0837   66.8437 O   0  0  0  0  0  0  0  0  0  0  0  0
   -8.7195   30.3797   68.5916 O   0  0  0  0  0  0  0  0  0  0  0  0
   -7.2990   28.9994   65.7806 O   0  0  0  0  0  0  0  0  0  0  0  0
   -9.9977   28.4312   68.9270 O   0  0  0  0  0  0  0  0  0  0  0  0
  -11.2380   29.1724   69.0334 C   0  0  2  0  0  0  0  0  0  0  0  0
  -12.1744   28.6223   70.1352 C   0  0  1  0  0  0  0  0  0  0  0  0
  -12.6856   27.1918   69.7683 C   0  0  2  0  0  0  0  0  0  0  0  0
  -13.4494   27.2622   68.4615 C   0  0  1  0  0  0  0  0  0  0  0  0
  -12.4961   27.7894   67.3475 C   0  0  1  0  0  0  0  0  0  0  0  0
  -13.1996   27.9112   65.9971 C   0  0  0  0  0  0  0  0  0  0  0  0
  -13.9570   25.9120   68.1175 N   0  0  0  0  0  0  0  0  0  0  0  0
  -11.9736   29.1361   67.7341 O   0  0  0  0  0  0  0  0  0  0  0  0
  -11.4369   28.6419   71.3778 O   0  0  0  0  0  0  0  0  0  0  0  0
  -13.5600   26.7112   70.7917 O   0  0  0  0  0  0  0  0  0  0  0  0
  -14.2448   28.8475   66.0998 O   0  0  0  0  0  0  0  0  0  0  0  0
   -2.9748   31.7467   68.6453 C   0  0  1  0  0  0  0  0  0  0  0  0
   -3.1473   30.2086   68.5149 C   0  0  1  0  0  0  0  0  0  0  0  0
   -1.7629   29.5058   68.6216 C   0  0  2  0  0  0  0  0  0  0  0  0
   -0.8444   30.0176   67.4846 C   0  0  1  0  0  0  0  0  0  0  0  0
   -0.6452   31.5715   67.5974 C   0  0  0  0  0  0  0  0  0  0  0  0
   -2.0312   32.2446   67.5054 C   0  0  2  0  0  0  0  0  0  0  0  0
    0.4761   29.3491   67.5721 N   0  0  0  0  0  0  0  0  0  0  0  0
   -1.8366   33.6947   67.6127 N   0  0  0  0  0  0  0  0  0  0  0  0
   -4.0058   29.7296   69.5736 O   0  0  0  0  0  0  0  0  0  0  0  0
   -1.9521   28.0782   68.5037 O   0  0  0  0  0  0  0  0  0  0  0  0
  1  2  1  0  0  0  0
  1 12  1  1  0  0  0
  1 13  1  0  0  0  0
  2  3  1  0  0  0  0
  2 10  1  1  0  0  0
  4  3  1  1  0  0  0
  4  5  1  0  0  0  0
  4 14  1  0  0  0  0
  5  6  1  0  0  0  0
  5 13  1  6  0  0  0
  6  7  1  0  0  0  0
  6 15  1  6  0  0  0
  7  8  1  0  0  0  0
  7 11  1  6  0  0  0
  8 14  1  0  0  0  0
  8 16  1  1  0  0  0
  9 11  1  0  0  0  0
 17 16  1  6  0  0  0
 17 18  1  0  0  0  0
 17 24  1  0  0  0  0
 18 19  1  0  0  0  0
 18 25  1  1  0  0  0
 19 20  1  0  0  0  0
 19 26  1  1  0  0  0
 20 21  1  0  0  0  0
 20 23  1  6  0  0  0
 21 22  1  6  0  0  0
 21 24  1  0  0  0  0
 22 27  1  0  0  0  0
 28 12  1  6  0  0  0
 28 29  1  0  0  0  0
 28 33  1  0  0  0  0
 29 30  1  0  0  0  0
 29 36  1  1  0  0  0
 30 31  1  0  0  0  0
 30 37  1  6  0  0  0
 31 32  1  0  0  0  0
 31 34  1  1  0  0  0
 32 33  1  0  0  0  0
 33 35  1  1  0  0  0
M  END
>  <CHROM.1>
-175.06435753,77.12997441,-178.20342888,-70.89264748,-170.40670904,62.30521474
-7.42504011,29.63397337,68.11741121,0.32364303,0.02300001,-0.09696656

>  <Name>
ligand

>  <RI>
0

>  <Rbt.Current_Directory>
/home/itssahil/PROJECTS/Mol_Feturizer/Test_systems_manuscript/rnas/2g5k

>  <Rbt.Executable>
rbdock ($Id: //depot/dev/client3/rdock/2013.1/src/exe/rbdock.cxx#4 $)

>  <Rbt.Library>
libRbt.so (2013.1, Build901 2013/11/27)

>  <Rbt.Parameter_File>
/export/apps/rDock/src/rDock_2013.1_src/data/scripts/dock_solv.prm

>  <Rbt.Receptor>
prm/pocket_docking_7.prm

>  <SCORE>
-10.8117

>  <SCORE.INTER>
-5.41556

>  <SCORE.INTER.CONST>
1

>  <SCORE.INTER.POLAR>
0

>  <SCORE.INTER.ROT>
6

>  <SCORE.INTER.SOLV>
12.4201

>  <SCORE.INTER.VDW>
-15.3504

>  <SCORE.INTER.norm>
-0.146367

>  <SCORE.INTRA>
-5.39616

>  <SCORE.INTRA.DIHEDRAL>
-9.96451

>  <SCORE.INTRA.DIHEDRAL.0>
11.3972

>  <SCORE.INTRA.POLAR>
0

>  <SCORE.INTRA.POLAR.0>
0

>  <SCORE.INTRA.REPUL>
0

>  <SCORE.INTRA.REPUL.0>
0

>  <SCORE.INTRA.SOLV>
-0.448376

>  <SCORE.INTRA.SOLV.lig_0>
-92.3891

>  <SCORE.INTRA.VDW>
-0.189719

>  <SCORE.INTRA.VDW.0>
-2.90606

>  <SCORE.INTRA.norm>
-0.145842

>  <SCORE.RESTR>
0

>  <SCORE.RESTR.CAVITY>
0

>  <SCORE.RESTR.norm>
0

>  <SCORE.SYSTEM>
0

>  <SCORE.SYSTEM.CONST>
0

>  <SCORE.SYSTEM.DIHEDRAL>
0

>  <SCORE.SYSTEM.SOLV>
0

>  <SCORE.SYSTEM.norm>
0

>  <SCORE.heavy>
37

>  <SCORE.norm>
-0.292209

>  <RMSD>
6.492

$$$$
ligand
 OpenBabel02271912133D
libRbt.so/2013.1/901 2013/11/27
 37 40  0  0  0  0  0  0  0  0999 V2000
    3.5420   26.1079   62.6976 C   0  0  1  0  0  0  0  0  0  0  0  0
    4.1969   26.7327   63.9622 C   0  0  1  0  0  0  0  0  0  0  0  0
    3.2494   26.7038   65.1766 C   0  0  0  0  0  0  0  0  0  0  0  0
    1.9296   27.4492   64.8058 C   0  0  1  0  0  0  0  0  0  0  0  0
    1.2503   26.7831   63.5654 C   0  0  1  0  0  0  0  0  0  0  0  0
   -0.0942   27.5613   63.2032 C   0  0  1  0  0  0  0  0  0  0  0  0
   -1.0494   27.5186   64.4319 C   0  0  1  0  0  0  0  0  0  0  0  0
   -0.3103   28.1621   65.6436 C   0  0  2  0  0  0  0  0  0  0  0  0
   -3.6089   27.4842   64.0345 C   0  0  0  0  0  0  0  0  0  0  0  0
    5.4677   26.0487   64.2824 N   0  0  0  0  0  0  0  0  0  0  0  0
   -2.3313   28.2597   64.1316 N   0  0  0  0  0  0  0  0  0  0  0  0
    3.3482   24.6854   62.8210 O   0  0  0  0  0  0  0  0  0  0  0  0
    2.2462   26.7935   62.4527 O   0  0  0  0  0  0  0  0  0  0  0  0
    0.9483   27.4653   65.9400 O   0  0  0  0  0  0  0  0  0  0  0  0
    0.2015   28.9220   62.9160 O   0  0  0  0  0  0  0  0  0  0  0  0
   -1.1422   28.1266   66.7976 O   0  0  0  0  0  0  0  0  0  0  0  0
   -0.5529   28.7456   67.9675 C   0  0  2  0  0  0  0  0  0  0  0  0
   -1.5157   28.7814   69.1779 C   0  0  1  0  0  0  0  0  0  0  0  0
   -2.7313   29.7219   68.8948 C   0  0  2  0  0  0  0  0  0  0  0  0
   -2.2186   31.1231   68.6305 C   0  0  1  0  0  0  0  0  0  0  0  0
   -1.2716   31.0892   67.3937 C   0  0  1  0  0  0  0  0  0  0  0  0
   -0.6922   32.4657   67.0735 C   0  0  0  0  0  0  0  0  0  0  0  0
   -3.3679   32.0267   68.3828 N   0  0  0  0  0  0  0  0  0  0  0  0
   -0.1406   30.1471   67.6569 O   0  0  0  0  0  0  0  0  0  0  0  0
   -1.9225   27.4210   69.4462 O   0  0  0  0  0  0  0  0  0  0  0  0
   -3.5976   29.7513   70.0313 O   0  0  0  0  0  0  0  0  0  0  0  0
   -1.7222   33.3100   66.6200 O   0  0  0  0  0  0  0  0  0  0  0  0
    4.3943   23.6683   62.4195 C   0  0  1  0  0  0  0  0  0  0  0  0
    3.9841   22.2888   63.0040 C   0  0  1  0  0  0  0  0  0  0  0  0
    5.0379   21.2111   62.6168 C   0  0  2  0  0  0  0  0  0  0  0  0
    5.1189   21.1111   61.0736 C   0  0  1  0  0  0  0  0  0  0  0  0
    5.5410   22.4920   60.4554 C   0  0  0  0  0  0  0  0  0  0  0  0
    4.4913   23.5466   60.8659 C   0  0  2  0  0  0  0  0  0  0  0  0
    6.1155   20.0815   60.6927 N   0  0  0  0  0  0  0  0  0  0  0  0
    4.8932   24.8328   60.2861 N   0  0  0  0  0  0  0  0  0  0  0  0
    3.9059   22.3807   64.4437 O   0  0  0  0  0  0  0  0  0  0  0  0
    4.6365   19.9411   63.1772 O   0  0  0  0  0  0  0  0  0  0  0  0
  1  2  1  0  0  0  0
  1 12  1  1  0  0  0
  1 13  1  0  0  0  0
  2  3  1  0  0  0  0
  2 10  1  1  0  0  0
  4  3  1  1  0  0  0
  4  5  1  0  0  0  0
  4 14  1  0  0  0  0
  5  6  1  0  0  0  0
  5 13  1  6  0  0  0
  6  7  1  0  0  0  0
  6 15  1  1  0  0  0
  7  8  1  0  0  0  0
  7 11  1  6  0  0  0
  8 14  1  0  0  0  0
  8 16  1  1  0  0  0
  9 11  1  0  0  0  0
 17 16  1  6  0  0  0
 17 18  1  0  0  0  0
 17 24  1  0  0  0  0
 18 19  1  0  0  0  0
 18 25  1  6  0  0  0
 19 20  1  0  0  0  0
 19 26  1  1  0  0  0
 20 21  1  0  0  0  0
 20 23  1  6  0  0  0
 21 22  1  1  0  0  0
 21 24  1  0  0  0  0
 22 27  1  0  0  0  0
 28 12  1  6  0  0  0
 28 29  1  0  0  0  0
 28 33  1  0  0  0  0
 29 30  1  0  0  0  0
 29 36  1  1  0  0  0
 30 31  1  0  0  0  0
 30 37  1  1  0  0  0
 31 32  1  0  0  0  0
 31 34  1  1  0  0  0
 32 33  1  0  0  0  0
 33 35  1  6  0  0  0
M  END
>  <CHROM.1>
-88.85263872,112.76309828,-178.05713411,166.48853795,175.96813042,-68.04090119
1.20797145,26.80706390,64.82546116,-0.21333947,0.93958544,-0.66782186

>  <Name>
ligand

>  <RI>
0

>  <Rbt.Current_Directory>
/home/itssahil/PROJECTS/Mol_Feturizer/Test_systems_manuscript/rnas/2g5k

>  <Rbt.Executable>
rbdock ($Id: //depot/dev/client3/rdock/2013.1/src/exe/rbdock.cxx#4 $)

>  <Rbt.Library>
libRbt.so (2013.1, Build901 2013/11/27)

>  <Rbt.Parameter_File>
/export/apps/rDock/src/rDock_2013.1_src/data/scripts/dock_solv.prm

>  <Rbt.Receptor>
prm/pocket_docking_8.prm

>  <SCORE>
-10.9859

>  <SCORE.INTER>
-9.09873

>  <SCORE.INTER.CONST>
1

>  <SCORE.INTER.POLAR>
0

>  <SCORE.INTER.ROT>
6

>  <SCORE.INTER.SOLV>
14.9684

>  <SCORE.INTER.VDW>
-18.6553

>  <SCORE.INTER.norm>
-0.245911

>  <SCORE.INTRA>
-1.88717

>  <SCORE.INTRA.DIHEDRAL>
-5.63485

>  <SCORE.INTRA.DIHEDRAL.0>
11.3972

>  <SCORE.INTRA.POLAR>
0

>  <SCORE.INTRA.POLAR.0>
0

>  <SCORE.INTRA.REPUL>
0

>  <SCORE.INTRA.REPUL.0>
0

>  <SCORE.INTRA.SOLV>
1.54903

>  <SCORE.INTRA.SOLV.lig_0>
-92.3891

>  <SCORE.INTRA.VDW>
0.155742

>  <SCORE.INTRA.VDW.0>
-2.90606

>  <SCORE.INTRA.norm>
-0.0510045

>  <SCORE.RESTR>
0

>  <SCORE.RESTR.CAVITY>
0

>  <SCORE.RESTR.norm>
0

>  <SCORE.SYSTEM>
0

>  <SCORE.SYSTEM.CONST>
0

>  <SCORE.SYSTEM.DIHEDRAL>
0

>  <SCORE.SYSTEM.SOLV>
0

>  <SCORE.SYSTEM.norm>
0

>  <SCORE.heavy>
37

>  <SCORE.norm>
-0.296916

>  <RMSD>
6.598

$$$$
ligand
 OpenBabel02271912133D
libRbt.so/2013.1/901 2013/11/27
 37 40  0  0  0  0  0  0  0  0999 V2000
    3.4812   26.0841   62.5060 C   0  0  1  0  0  0  0  0  0  0  0  0
    4.2079   26.7357   63.7167 C   0  0  1  0  0  0  0  0  0  0  0  0
    3.3467   26.7004   64.9936 C   0  0  0  0  0  0  0  0  0  0  0  0
    1.9891   27.4147   64.7075 C   0  0  1  0  0  0  0  0  0  0  0  0
    1.2407   26.7216   63.5230 C   0  0  1  0  0  0  0  0  0  0  0  0
   -0.1417   27.4683   63.2468 C   0  0  1  0  0  0  0  0  0  0  0  0
   -1.0093   27.4192   64.5386 C   0  0  1  0  0  0  0  0  0  0  0  0
   -0.2026   28.0906   65.6907 C   0  0  2  0  0  0  0  0  0  0  0  0
   -3.2810   27.5860   63.3050 C   0  0  0  0  0  0  0  0  0  0  0  0
    5.5118   26.0813   63.9551 N   0  0  0  0  0  0  0  0  0  0  0  0
   -2.3241   28.1307   64.3203 N   0  0  0  0  0  0  0  0  0  0  0  0
    3.3264   24.6594   62.6556 O   0  0  0  0  0  0  0  0  0  0  0  0
    2.1575   26.7405   62.3443 O   0  0  0  0  0  0  0  0  0  0  0  0
    1.0877   27.4228   65.9062 O   0  0  0  0  0  0  0  0  0  0  0  0
    0.1049   28.8315   62.9274 O   0  0  0  0  0  0  0  0  0  0  0  0
   -0.9526   28.0504   66.8994 O   0  0  0  0  0  0  0  0  0  0  0  0
   -0.3704   28.8211   67.9793 C   0  0  2  0  0  0  0  0  0  0  0  0
   -1.2909   28.9082   69.2197 C   0  0  1  0  0  0  0  0  0  0  0  0
   -2.5814   29.7291   68.8987 C   0  0  2  0  0  0  0  0  0  0  0  0
   -2.1826   31.1299   68.4808 C   0  0  1  0  0  0  0  0  0  0  0  0
   -1.2790   31.0409   67.2146 C   0  0  1  0  0  0  0  0  0  0  0  0
   -0.8138   32.4165   66.7406 C   0  0  0  0  0  0  0  0  0  0  0  0
   -3.4032   31.9223   68.1958 N   0  0  0  0  0  0  0  0  0  0  0  0
   -0.0733   30.2106   67.5194 O   0  0  0  0  0  0  0  0  0  0  0  0
   -1.5870   27.5557   69.6334 O   0  0  0  0  0  0  0  0  0  0  0  0
   -3.4078   29.8094   70.0622 O   0  0  0  0  0  0  0  0  0  0  0  0
   -0.0631   33.0304   67.7599 O   0  0  0  0  0  0  0  0  0  0  0  0
    4.4045   23.6648   62.2835 C   0  0  1  0  0  0  0  0  0  0  0  0
    4.0384   22.2908   62.9086 C   0  0  1  0  0  0  0  0  0  0  0  0
    5.1261   21.2362   62.5527 C   0  0  2  0  0  0  0  0  0  0  0  0
    5.2107   21.0934   61.0130 C   0  0  1  0  0  0  0  0  0  0  0  0
    5.5887   22.4683   60.3541 C   0  0  0  0  0  0  0  0  0  0  0  0
    4.5057   23.5005   60.7341 C   0  0  2  0  0  0  0  0  0  0  0  0
    6.2397   20.0853   60.6620 N   0  0  0  0  0  0  0  0  0  0  0  0
    4.8666   24.7812   60.1164 N   0  0  0  0  0  0  0  0  0  0  0  0
    3.9569   22.4226   64.3451 O   0  0  0  0  0  0  0  0  0  0  0  0
    4.7653   19.9712   63.1505 O   0  0  0  0  0  0  0  0  0  0  0  0
  1  2  1  0  0  0  0
  1 12  1  1  0  0  0
  1 13  1  0  0  0  0
  2  3  1  0  0  0  0
  2 10  1  1  0  0  0
  4  3  1  1  0  0  0
  4  5  1  0  0  0  0
  4 14  1  0  0  0  0
  5  6  1  0  0  0  0
  5 13  1  6  0  0  0
  6  7  1  0  0  0  0
  6 15  1  1  0  0  0
  7  8  1  0  0  0  0
  7 11  1  6  0  0  0
  8 14  1  0  0  0  0
  8 16  1  1  0  0  0
  9 11  1  0  0  0  0
 17 16  1  6  0  0  0
 17 18  1  0  0  0  0
 17 24  1  0  0  0  0
 18 19  1  0  0  0  0
 18 25  1  6  0  0  0
 19 20  1  0  0  0  0
 19 26  1  1  0  0  0
 20 21  1  0  0  0  0
 20 23  1  6  0  0  0
 21 22  1  1  0  0  0
 21 24  1  0  0  0  0
 22 27  1  0  0  0  0
 28 12  1  6  0  0  0
 28 29  1  0  0  0  0
 28 33  1  0  0  0  0
 29 30  1  0  0  0  0
 29 36  1  1  0  0  0
 30 31  1  0  0  0  0
 30 37  1  1  0  0  0
 31 32  1  0  0  0  0
 31 34  1  1  0  0  0
 32 33  1  0  0  0  0
 33 35  1  6  0  0  0
M  END
>  <CHROM.1>
-84.33471028,63.65846399,-171.46955461,165.67607148,172.69809971,60.60377938
1.32239057,26.78772515,64.77318461,-0.06781692,0.97306236,-0.83018344

>  <Name>
ligand

>  <RI>
0

>  <Rbt.Current_Directory>
/home/itssahil/PROJECTS/Mol_Feturizer/Test_systems_manuscript/rnas/2g5k

>  <Rbt.Executable>
rbdock ($Id: //depot/dev/client3/rdock/2013.1/src/exe/rbdock.cxx#4 $)

>  <Rbt.Library>
libRbt.so (2013.1, Build901 2013/11/27)

>  <Rbt.Parameter_File>
/export/apps/rDock/src/rDock_2013.1_src/data/scripts/dock_solv.prm

>  <Rbt.Receptor>
prm/pocket_docking_8.prm

>  <SCORE>
-11.9009

>  <SCORE.INTER>
-9.52609

>  <SCORE.INTER.CONST>
1

>  <SCORE.INTER.POLAR>
0

>  <SCORE.INTER.ROT>
6

>  <SCORE.INTER.SOLV>
14.4476

>  <SCORE.INTER.VDW>
-18.7666

>  <SCORE.INTER.norm>
-0.257462

>  <SCORE.INTRA>
-2.37486

>  <SCORE.INTRA.DIHEDRAL>
-7.22758

>  <SCORE.INTRA.DIHEDRAL.0>
11.3972

>  <SCORE.INTRA.POLAR>
0

>  <SCORE.INTRA.POLAR.0>
0

>  <SCORE.INTRA.REPUL>
0

>  <SCORE.INTRA.REPUL.0>
0

>  <SCORE.INTRA.SOLV>
1.57026

>  <SCORE.INTRA.SOLV.lig_0>
-92.3891

>  <SCORE.INTRA.VDW>
0.453798

>  <SCORE.INTRA.VDW.0>
-2.90606

>  <SCORE.INTRA.norm>
-0.0641854

>  <SCORE.RESTR>
0

>  <SCORE.RESTR.CAVITY>
0

>  <SCORE.RESTR.norm>
0

>  <SCORE.SYSTEM>
0

>  <SCORE.SYSTEM.CONST>
0

>  <SCORE.SYSTEM.DIHEDRAL>
0

>  <SCORE.SYSTEM.SOLV>
0

>  <SCORE.SYSTEM.norm>
0

>  <SCORE.heavy>
37

>  <SCORE.norm>
-0.321647

>  <RMSD>
6.732

$$$$
ligand
 OpenBabel02271912133D
libRbt.so/2013.1/901 2013/11/27
 37 40  0  0  0  0  0  0  0  0999 V2000
   -5.9201   26.1792   66.9712 C   0  0  1  0  0  0  0  0  0  0  0  0
   -5.5398   26.1630   65.4634 C   0  0  1  0  0  0  0  0  0  0  0  0
   -6.3840   27.1584   64.6448 C   0  0  0  0  0  0  0  0  0  0  0  0
   -7.8949   26.8221   64.8427 C   0  0  1  0  0  0  0  0  0  0  0  0
   -8.2812   26.8914   66.3559 C   0  0  1  0  0  0  0  0  0  0  0  0
   -9.8275   26.5427   66.5349 C   0  0  1  0  0  0  0  0  0  0  0  0
  -10.6731   27.5591   65.7128 C   0  0  1  0  0  0  0  0  0  0  0  0
  -10.2233   27.4718   64.2233 C   0  0  2  0  0  0  0  0  0  0  0  0
  -12.9154   27.8717   66.9718 C   0  0  0  0  0  0  0  0  0  0  0  0
   -4.0987   26.4408   65.2868 N   0  0  0  0  0  0  0  0  0  0  0  0
  -12.1464   27.2516   65.8461 N   0  0  0  0  0  0  0  0  0  0  0  0
   -5.5457   27.4087   67.6226 O   0  0  0  0  0  0  0  0  0  0  0  0
   -7.3839   25.9491   67.0886 O   0  0  0  0  0  0  0  0  0  0  0  0
   -8.7888   27.7507   64.0757 O   0  0  0  0  0  0  0  0  0  0  0  0
  -10.0865   25.2382   66.0322 O   0  0  0  0  0  0  0  0  0  0  0  0
  -10.9592   28.4010   63.4360 O   0  0  0  0  0  0  0  0  0  0  0  0
  -10.8634   28.1694   62.0090 C   0  0  2  0  0  0  0  0  0  0  0  0
  -11.5817   29.2559   61.1741 C   0  0  1  0  0  0  0  0  0  0  0  0
  -13.1265   29.2047   61.4049 C   0  0  2  0  0  0  0  0  0  0  0  0
  -13.6415   27.8418   60.9886 C   0  0  1  0  0  0  0  0  0  0  0  0
  -12.9376   26.7513   61.8506 C   0  0  1  0  0  0  0  0  0  0  0  0
  -13.3877   25.3407   61.4753 C   0  0  0  0  0  0  0  0  0  0  0  0
  -15.1107   27.7928   61.1837 N   0  0  0  0  0  0  0  0  0  0  0  0
  -11.4572   26.8440   61.6607 O   0  0  0  0  0  0  0  0  0  0  0  0
  -11.0115   30.5313   61.5435 O   0  0  0  0  0  0  0  0  0  0  0  0
  -13.7693   30.2057   60.6125 O   0  0  0  0  0  0  0  0  0  0  0  0
  -12.7881   24.4137   62.3474 O   0  0  0  0  0  0  0  0  0  0  0  0
   -4.1093   27.8556   67.7872 C   0  0  1  0  0  0  0  0  0  0  0  0
   -4.1062   29.2411   68.4895 C   0  0  1  0  0  0  0  0  0  0  0  0
   -2.6443   29.7412   68.6756 C   0  0  2  0  0  0  0  0  0  0  0  0
   -1.8659   28.7232   69.5451 C   0  0  1  0  0  0  0  0  0  0  0  0
   -1.8456   27.3130   68.8536 C   0  0  0  0  0  0  0  0  0  0  0  0
   -3.3046   26.8459   68.6651 C   0  0  2  0  0  0  0  0  0  0  0  0
   -0.4726   29.1931   69.7353 N   0  0  0  0  0  0  0  0  0  0  0  0
   -3.2769   25.5297   68.0179 N   0  0  0  0  0  0  0  0  0  0  0  0
   -4.8338   30.1917   67.6807 O   0  0  0  0  0  0  0  0  0  0  0  0
   -2.6699   31.0322   69.3241 O   0  0  0  0  0  0  0  0  0  0  0  0
  1  2  1  0  0  0  0
  1 12  1  6  0  0  0
  1 13  1  0  0  0  0
  2  3  1  0  0  0  0
  2 10  1  1  0  0  0
  4  3  1  1  0  0  0
  4  5  1  0  0  0  0
  4 14  1  0  0  0  0
  5  6  1  0  0  0  0
  5 13  1  1  0  0  0
  6  7  1  0  0  0  0
  6 15  1  6  0  0  0
  7  8  1  0  0  0  0
  7 11  1  6  0  0  0
  8 14  1  0  0  0  0
  8 16  1  6  0  0  0
  9 11  1  0  0  0  0
 17 16  1  1  0  0  0
 17 18  1  0  0  0  0
 17 24  1  0  0  0  0
 18 19  1  0  0  0  0
 18 25  1  1  0  0  0
 19 20  1  0  0  0  0
 19 26  1  6  0  0  0
 20 21  1  0  0  0  0
 20 23  1  1  0  0  0
 21 22  1  6  0  0  0
 21 24  1  0  0  0  0
 22 27  1  0  0  0  0
 28 12  1  1  0  0  0
 28 29  1  0  0  0  0
 28 33  1  0  0  0  0
 29 30  1  0  0  0  0
 29 36  1  6  0  0  0
 30 31  1  0  0  0  0
 30 37  1  1  0  0  0
 31 32  1  0  0  0  0
 31 34  1  6  0  0  0
 32 33  1  0  0  0  0
 33 35  1  6  0  0  0
M  END
>  <CHROM.1>
-64.40286219,88.82935485,-165.25803536,178.12739711,-175.56588130,-175.98517108
-8.30442716,27.66434595,65.22346892,0.14224484,0.56789178,2.80075197

>  <Name>
ligand

>  <RI>
0

>  <Rbt.Current_Directory>
/home/itssahil/PROJECTS/Mol_Feturizer/Test_systems_manuscript/rnas/2g5k

>  <Rbt.Executable>
rbdock ($Id: //depot/dev/client3/rdock/2013.1/src/exe/rbdock.cxx#4 $)

>  <Rbt.Library>
libRbt.so (2013.1, Build901 2013/11/27)

>  <Rbt.Parameter_File>
/export/apps/rDock/src/rDock_2013.1_src/data/scripts/dock_solv.prm

>  <Rbt.Receptor>
prm/pocket_docking_6.prm

>  <SCORE>
-8.42296

>  <SCORE.INTER>
-5.1684

>  <SCORE.INTER.CONST>
1

>  <SCORE.INTER.POLAR>
0

>  <SCORE.INTER.ROT>
6

>  <SCORE.INTER.SOLV>
15.937

>  <SCORE.INTER.VDW>
-16.3579

>  <SCORE.INTER.norm>
-0.139687

>  <SCORE.INTRA>
-3.25456

>  <SCORE.INTRA.DIHEDRAL>
-9.51369

>  <SCORE.INTRA.DIHEDRAL.0>
11.3972

>  <SCORE.INTRA.POLAR>
0

>  <SCORE.INTRA.POLAR.0>
0

>  <SCORE.INTRA.REPUL>
0

>  <SCORE.INTRA.REPUL.0>
0

>  <SCORE.INTRA.SOLV>
3.05794

>  <SCORE.INTRA.SOLV.lig_0>
-92.3891

>  <SCORE.INTRA.VDW>
-0.0266805

>  <SCORE.INTRA.VDW.0>
-2.90606

>  <SCORE.INTRA.norm>
-0.087961

>  <SCORE.RESTR>
0

>  <SCORE.RESTR.CAVITY>
0

>  <SCORE.RESTR.norm>
0

>  <SCORE.SYSTEM>
0

>  <SCORE.SYSTEM.CONST>
0

>  <SCORE.SYSTEM.DIHEDRAL>
0

>  <SCORE.SYSTEM.SOLV>
0

>  <SCORE.SYSTEM.norm>
0

>  <SCORE.heavy>
37

>  <SCORE.norm>
-0.227648

>  <RMSD>
6.867

$$$$
ligand
 OpenBabel02271912133D
libRbt.so/2013.1/901 2013/11/27
 37 40  0  0  0  0  0  0  0  0999 V2000
    4.4109   26.9230   62.9547 C   0  0  1  0  0  0  0  0  0  0  0  0
    4.8681   27.2274   64.4096 C   0  0  1  0  0  0  0  0  0  0  0  0
    3.7019   27.1350   65.4120 C   0  0  0  0  0  0  0  0  0  0  0  0
    2.5726   28.1151   64.9655 C   0  0  1  0  0  0  0  0  0  0  0  0
    2.0824   27.7699   63.5219 C   0  0  1  0  0  0  0  0  0  0  0  0
    0.9311   28.7842   63.0856 C   0  0  1  0  0  0  0  0  0  0  0  0
   -0.2470   28.6769   64.0978 C   0  0  1  0  0  0  0  0  0  0  0  0
    0.3047   28.9961   65.5199 C   0  0  2  0  0  0  0  0  0  0  0  0
   -2.5034   29.1306   62.9090 C   0  0  0  0  0  0  0  0  0  0  0  0
    5.9663   26.3228   64.8104 N   0  0  0  0  0  0  0  0  0  0  0  0
   -1.3537   29.6356   63.7252 N   0  0  0  0  0  0  0  0  0  0  0  0
    4.0396   25.5432   62.7692 O   0  0  0  0  0  0  0  0  0  0  0  0
    3.2735   27.8205   62.6226 O   0  0  0  0  0  0  0  0  0  0  0  0
    1.3944   28.0847   65.8931 O   0  0  0  0  0  0  0  0  0  0  0  0
    1.4271   30.1161   63.1189 O   0  0  0  0  0  0  0  0  0  0  0  0
   -0.7377   28.8905   66.4829 O   0  0  0  0  0  0  0  0  0  0  0  0
   -0.3190   29.1841   67.8384 C   0  0  2  0  0  0  0  0  0  0  0  0
   -1.4607   29.0192   68.8693 C   0  0  1  0  0  0  0  0  0  0  0  0
   -2.5771   30.0884   68.6392 C   0  0  2  0  0  0  0  0  0  0  0  0
   -1.9735   31.4702   68.7883 C   0  0  1  0  0  0  0  0  0  0  0  0
   -0.8431   31.6441   67.7301 C   0  0  1  0  0  0  0  0  0  0  0  0
   -0.1657   33.0095   67.8294 C   0  0  0  0  0  0  0  0  0  0  0  0
   -3.0317   32.4906   68.5933 N   0  0  0  0  0  0  0  0  0  0  0  0
    0.1930   30.5842   67.9282 O   0  0  0  0  0  0  0  0  0  0  0  0
   -1.9589   27.6681   68.7492 O   0  0  0  0  0  0  0  0  0  0  0  0
   -3.6122   29.9267   69.6116 O   0  0  0  0  0  0  0  0  0  0  0  0
    0.4659   33.1256   69.0812 O   0  0  0  0  0  0  0  0  0  0  0  0
    5.0329   24.4028   62.8247 C   0  0  1  0  0  0  0  0  0  0  0  0
    4.2420   23.0659   62.8277 C   0  0  1  0  0  0  0  0  0  0  0  0
    5.2279   21.8633   62.8882 C   0  0  2  0  0  0  0  0  0  0  0  0
    6.1583   21.9065   61.6509 C   0  0  1  0  0  0  0  0  0  0  0  0
    6.9781   23.2461   61.6271 C   0  0  0  0  0  0  0  0  0  0  0  0
    5.9802   24.4229   61.5837 C   0  0  2  0  0  0  0  0  0  0  0  0
    7.0981   20.7605   61.6941 N   0  0  0  0  0  0  0  0  0  0  0  0
    6.7532   25.6695   61.5630 N   0  0  0  0  0  0  0  0  0  0  0  0
    3.3717   23.0248   63.9802 O   0  0  0  0  0  0  0  0  0  0  0  0
    4.4677   20.6345   62.8963 O   0  0  0  0  0  0  0  0  0  0  0  0
  1  2  1  0  0  0  0
  1 12  1  1  0  0  0
  1 13  1  0  0  0  0
  2  3  1  0  0  0  0
  2 10  1  1  0  0  0
  4  3  1  1  0  0  0
  4  5  1  0  0  0  0
  4 14  1  0  0  0  0
  5  6  1  0  0  0  0
  5 13  1  6  0  0  0
  6  7  1  0  0  0  0
  6 15  1  1  0  0  0
  7  8  1  0  0  0  0
  7 11  1  6  0  0  0
  8 14  1  0  0  0  0
  8 16  1  1  0  0  0
  9 11  1  0  0  0  0
 17 16  1  6  0  0  0
 17 18  1  0  0  0  0
 17 24  1  0  0  0  0
 18 19  1  0  0  0  0
 18 25  1  6  0  0  0
 19 20  1  0  0  0  0
 19 26  1  1  0  0  0
 20 21  1  0  0  0  0
 20 23  1  6  0  0  0
 21 22  1  1  0  0  0
 21 24  1  0  0  0  0
 22 27  1  0  0  0  0
 28 12  1  6  0  0  0
 28 29  1  0  0  0  0
 28 33  1  0  0  0  0
 29 30  1  0  0  0  0
 29 36  1  1  0  0  0
 30 31  1  0  0  0  0
 30 37  1  6  0  0  0
 31 32  1  0  0  0  0
 31 34  1  1  0  0  0
 32 33  1  0  0  0  0
 33 35  1  1  0  0  0
M  END
>  <CHROM.1>
-67.95802793,95.64711555,-179.42758373,170.32185129,-178.22770216,63.19635481
1.85123010,27.49180724,64.99183017,-0.58401853,0.75670188,-0.16987758

>  <Name>
ligand

>  <RI>
0

>  <Rbt.Current_Directory>
/home/itssahil/PROJECTS/Mol_Feturizer/Test_systems_manuscript/rnas/2g5k

>  <Rbt.Executable>
rbdock ($Id: //depot/dev/client3/rdock/2013.1/src/exe/rbdock.cxx#4 $)

>  <Rbt.Library>
libRbt.so (2013.1, Build901 2013/11/27)

>  <Rbt.Parameter_File>
/export/apps/rDock/src/rDock_2013.1_src/data/scripts/dock_solv.prm

>  <Rbt.Receptor>
prm/pocket_docking_8.prm

>  <SCORE>
-9.38453

>  <SCORE.INTER>
-5.99542

>  <SCORE.INTER.CONST>
1

>  <SCORE.INTER.POLAR>
0

>  <SCORE.INTER.ROT>
6

>  <SCORE.INTER.SOLV>
11.5712

>  <SCORE.INTER.VDW>
-15.454

>  <SCORE.INTER.norm>
-0.162038

>  <SCORE.INTRA>
-3.38911

>  <SCORE.INTRA.DIHEDRAL>
-9.76945

>  <SCORE.INTRA.DIHEDRAL.0>
11.3972

>  <SCORE.INTRA.POLAR>
0

>  <SCORE.INTRA.POLAR.0>
0

>  <SCORE.INTRA.REPUL>
0

>  <SCORE.INTRA.REPUL.0>
0

>  <SCORE.INTRA.SOLV>
2.66733

>  <SCORE.INTRA.SOLV.lig_0>
-92.3891

>  <SCORE.INTRA.VDW>
0.161947

>  <SCORE.INTRA.VDW.0>
-2.90606

>  <SCORE.INTRA.norm>
-0.0915977

>  <SCORE.RESTR>
0

>  <SCORE.RESTR.CAVITY>
0

>  <SCORE.RESTR.norm>
0

>  <SCORE.SYSTEM>
0

>  <SCORE.SYSTEM.CONST>
0

>  <SCORE.SYSTEM.DIHEDRAL>
0

>  <SCORE.SYSTEM.SOLV>
0

>  <SCORE.SYSTEM.norm>
0

>  <SCORE.heavy>
37

>  <SCORE.norm>
-0.253636

>  <RMSD>
6.886

$$$$
ligand
 OpenBabel02271912133D
libRbt.so/2013.1/901 2013/11/27
 37 40  0  0  0  0  0  0  0  0999 V2000
   -5.9238   26.1810   66.5885 C   0  0  1  0  0  0  0  0  0  0  0  0
   -5.5207   26.2563   65.0884 C   0  0  1  0  0  0  0  0  0  0  0  0
   -6.3670   27.2850   64.3145 C   0  0  0  0  0  0  0  0  0  0  0  0
   -7.8756   26.9170   64.4691 C   0  0  1  0  0  0  0  0  0  0  0  0
   -8.2856   26.8945   65.9774 C   0  0  1  0  0  0  0  0  0  0  0  0
   -9.8291   26.5147   66.1118 C   0  0  1  0  0  0  0  0  0  0  0  0
  -10.6771   27.5646   65.3356 C   0  0  1  0  0  0  0  0  0  0  0  0
  -10.2037   27.5688   63.8508 C   0  0  2  0  0  0  0  0  0  0  0  0
  -12.9174   27.6796   66.6312 C   0  0  0  0  0  0  0  0  0  0  0  0
   -4.0813   26.5636   64.9507 N   0  0  0  0  0  0  0  0  0  0  0  0
  -12.1476   27.2297   65.4278 N   0  0  0  0  0  0  0  0  0  0  0  0
   -5.5773   27.3764   67.3146 O   0  0  0  0  0  0  0  0  0  0  0  0
   -7.3856   25.9244   66.6695 O   0  0  0  0  0  0  0  0  0  0  0  0
   -8.7715   27.8754   63.7420 O   0  0  0  0  0  0  0  0  0  0  0  0
  -10.0613   25.2377   65.5317 O   0  0  0  0  0  0  0  0  0  0  0  0
  -10.9414   28.5312   63.1061 O   0  0  0  0  0  0  0  0  0  0  0  0
  -10.8583   28.3544   61.6705 C   0  0  2  0  0  0  0  0  0  0  0  0
  -11.5106   29.5156   60.8832 C   0  0  1  0  0  0  0  0  0  0  0  0
  -13.0559   29.5459   61.1142 C   0  0  2  0  0  0  0  0  0  0  0  0
  -13.6501   28.2344   60.6420 C   0  0  1  0  0  0  0  0  0  0  0  0
  -13.0124   27.0691   61.4562 C   0  0  1  0  0  0  0  0  0  0  0  0
  -13.5446   25.7045   61.0228 C   0  0  0  0  0  0  0  0  0  0  0  0
  -15.1197   28.2640   60.8373 N   0  0  0  0  0  0  0  0  0  0  0  0
  -11.5290   27.0822   61.2679 O   0  0  0  0  0  0  0  0  0  0  0  0
  -10.8665   30.7384   61.3048 O   0  0  0  0  0  0  0  0  0  0  0  0
  -13.6379   30.6155   60.3657 O   0  0  0  0  0  0  0  0  0  0  0  0
  -13.0625   24.7168   61.9012 O   0  0  0  0  0  0  0  0  0  0  0  0
   -4.1508   27.7688   67.6331 C   0  0  1  0  0  0  0  0  0  0  0  0
   -4.1732   29.1361   68.3698 C   0  0  1  0  0  0  0  0  0  0  0  0
   -2.7219   29.5802   68.7137 C   0  0  2  0  0  0  0  0  0  0  0  0
   -2.0678   28.5150   69.6280 C   0  0  1  0  0  0  0  0  0  0  0  0
   -2.0240   27.1220   68.9036 C   0  0  0  0  0  0  0  0  0  0  0  0
   -3.4712   26.7108   68.5585 C   0  0  2  0  0  0  0  0  0  0  0  0
   -0.6860   28.9313   69.9682 N   0  0  0  0  0  0  0  0  0  0  0  0
   -3.4215   25.4103   67.8816 N   0  0  0  0  0  0  0  0  0  0  0  0
   -4.7851   30.1307   67.5191 O   0  0  0  0  0  0  0  0  0  0  0  0
   -2.7705   30.8553   69.3916 O   0  0  0  0  0  0  0  0  0  0  0  0
  1  2  1  0  0  0  0
  1 12  1  1  0  0  0
  1 13  1  0  0  0  0
  2  3  1  0  0  0  0
  2 10  1  1  0  0  0
  4  3  1  1  0  0  0
  4  5  1  0  0  0  0
  4 14  1  0  0  0  0
  5  6  1  0  0  0  0
  5 13  1  1  0  0  0
  6  7  1  0  0  0  0
  6 15  1  6  0  0  0
  7  8  1  0  0  0  0
  7 11  1  6  0  0  0
  8 14  1  0  0  0  0
  8 16  1  6  0  0  0
  9 11  1  0  0  0  0
 17 16  1  1  0  0  0
 17 18  1  0  0  0  0
 17 24  1  0  0  0  0
 18 19  1  0  0  0  0
 18 25  1  1  0  0  0
 19 20  1  0  0  0  0
 19 26  1  6  0  0  0
 20 21  1  0  0  0  0
 20 23  1  1  0  0  0
 21 22  1  6  0  0  0
 21 24  1  0  0  0  0
 22 27  1  0  0  0  0
 28 12  1  1  0  0  0
 28 29  1  0  0  0  0
 28 33  1  0  0  0  0
 29 30  1  0  0  0  0
 29 36  1  6  0  0  0
 30 31  1  0  0  0  0
 30 37  1  1  0  0  0
 31 32  1  0  0  0  0
 31 34  1  6  0  0  0
 32 33  1  0  0  0  0
 33 35  1  6  0  0  0
M  END
>  <CHROM.1>
-70.01549213,83.90965070,-163.22372424,177.71902748,-172.42328260,-172.63742044
-8.33634778,27.73253705,64.95205745,0.18348348,0.58345246,2.79804275

>  <Name>
ligand

>  <RI>
0

>  <Rbt.Current_Directory>
/home/itssahil/PROJECTS/Mol_Feturizer/Test_systems_manuscript/rnas/2g5k

>  <Rbt.Executable>
rbdock ($Id: //depot/dev/client3/rdock/2013.1/src/exe/rbdock.cxx#4 $)

>  <Rbt.Library>
libRbt.so (2013.1, Build901 2013/11/27)

>  <Rbt.Parameter_File>
/export/apps/rDock/src/rDock_2013.1_src/data/scripts/dock_solv.prm

>  <Rbt.Receptor>
prm/pocket_docking_8.prm

>  <SCORE>
-8.34881

>  <SCORE.INTER>
-5.17684

>  <SCORE.INTER.CONST>
1

>  <SCORE.INTER.POLAR>
0

>  <SCORE.INTER.ROT>
6

>  <SCORE.INTER.SOLV>
17.3101

>  <SCORE.INTER.VDW>
-16.8213

>  <SCORE.INTER.norm>
-0.139915

>  <SCORE.INTRA>
-3.17197

>  <SCORE.INTRA.DIHEDRAL>
-8.66969

>  <SCORE.INTRA.DIHEDRAL.0>
11.3972

>  <SCORE.INTRA.POLAR>
0

>  <SCORE.INTRA.POLAR.0>
0

>  <SCORE.INTRA.REPUL>
0

>  <SCORE.INTRA.REPUL.0>
0

>  <SCORE.INTRA.SOLV>
2.52775

>  <SCORE.INTRA.SOLV.lig_0>
-92.3891

>  <SCORE.INTRA.VDW>
-0.100996

>  <SCORE.INTRA.VDW.0>
-2.90606

>  <SCORE.INTRA.norm>
-0.0857289

>  <SCORE.RESTR>
0

>  <SCORE.RESTR.CAVITY>
0

>  <SCORE.RESTR.norm>
0

>  <SCORE.SYSTEM>
0

>  <SCORE.SYSTEM.CONST>
0

>  <SCORE.SYSTEM.DIHEDRAL>
0

>  <SCORE.SYSTEM.SOLV>
0

>  <SCORE.SYSTEM.norm>
0

>  <SCORE.heavy>
37

>  <SCORE.norm>
-0.225644

>  <RMSD>
6.964

$$$$
ligand
 OpenBabel02271912133D
libRbt.so/2013.1/901 2013/11/27
 37 40  0  0  0  0  0  0  0  0999 V2000
    3.9644   29.1832   61.6785 C   0  0  1  0  0  0  0  0  0  0  0  0
    4.6459   29.0509   63.0701 C   0  0  1  0  0  0  0  0  0  0  0  0
    3.7277   28.3643   64.0992 C   0  0  0  0  0  0  0  0  0  0  0  0
    2.3954   29.1699   64.2047 C   0  0  1  0  0  0  0  0  0  0  0  0
    1.6905   29.2539   62.8121 C   0  0  1  0  0  0  0  0  0  0  0  0
    0.3335   30.0824   62.9429 C   0  0  1  0  0  0  0  0  0  0  0  0
   -0.5919   29.3763   63.9767 C   0  0  1  0  0  0  0  0  0  0  0  0
    0.1724   29.2893   65.3321 C   0  0  2  0  0  0  0  0  0  0  0  0
   -2.9576   29.9750   63.1076 C   0  0  0  0  0  0  0  0  0  0  0  0
    5.9276   28.3234   62.9552 N   0  0  0  0  0  0  0  0  0  0  0  0
   -1.8845   30.1414   64.1391 N   0  0  0  0  0  0  0  0  0  0  0  0
    3.7812   27.9099   61.0294 O   0  0  0  0  0  0  0  0  0  0  0  0
    2.6595   29.8718   61.8585 O   0  0  0  0  0  0  0  0  0  0  0  0
    1.4414   28.5634   65.1904 O   0  0  0  0  0  0  0  0  0  0  0  0
    0.6150   31.3922   63.4186 O   0  0  0  0  0  0  0  0  0  0  0  0
   -0.6316   28.6312   66.3044 O   0  0  0  0  0  0  0  0  0  0  0  0
   -0.1640   28.7980   67.6656 C   0  0  2  0  0  0  0  0  0  0  0  0
   -0.8368   27.8188   68.6565 C   0  0  1  0  0  0  0  0  0  0  0  0
   -2.3612   28.1319   68.7999 C   0  0  2  0  0  0  0  0  0  0  0  0
   -2.5268   29.5471   69.3155 C   0  0  1  0  0  0  0  0  0  0  0  0
   -1.8733   30.5334   68.3017 C   0  0  1  0  0  0  0  0  0  0  0  0
   -1.9784   31.9862   68.7615 C   0  0  0  0  0  0  0  0  0  0  0  0
   -3.9707   29.8444   69.4756 N   0  0  0  0  0  0  0  0  0  0  0  0
   -0.4273   30.1914   68.1342 O   0  0  0  0  0  0  0  0  0  0  0  0
   -0.5928   26.4793   68.1725 O   0  0  0  0  0  0  0  0  0  0  0  0
   -2.9576   27.2260   69.7309 O   0  0  0  0  0  0  0  0  0  0  0  0
   -1.3902   32.8235   67.7959 O   0  0  0  0  0  0  0  0  0  0  0  0
    4.8970   26.9039   60.8476 C   0  0  1  0  0  0  0  0  0  0  0  0
    4.2766   25.5720   60.3438 C   0  0  1  0  0  0  0  0  0  0  0  0
    5.3923   24.5051   60.1466 C   0  0  2  0  0  0  0  0  0  0  0  0
    6.4120   25.0236   59.1027 C   0  0  1  0  0  0  0  0  0  0  0  0
    7.0625   26.3673   59.5911 C   0  0  0  0  0  0  0  0  0  0  0  0
    5.9366   27.4033   59.7951 C   0  0  2  0  0  0  0  0  0  0  0  0
    7.4767   24.0116   58.9012 N   0  0  0  0  0  0  0  0  0  0  0  0
    6.5518   28.6541   60.2522 N   0  0  0  0  0  0  0  0  0  0  0  0
    3.3232   25.0879   61.3155 O   0  0  0  0  0  0  0  0  0  0  0  0
    4.7888   23.2762   59.6846 O   0  0  0  0  0  0  0  0  0  0  0  0
  1  2  1  0  0  0  0
  1 12  1  1  0  0  0
  1 13  1  0  0  0  0
  2  3  1  0  0  0  0
  2 10  1  6  0  0  0
  4  3  1  6  0  0  0
  4  5  1  0  0  0  0
  4 14  1  0  0  0  0
  5  6  1  0  0  0  0
  5 13  1  6  0  0  0
  6  7  1  0  0  0  0
  6 15  1  1  0  0  0
  7  8  1  0  0  0  0
  7 11  1  1  0  0  0
  8 14  1  0  0  0  0
  8 16  1  1  0  0  0
  9 11  1  0  0  0  0
 17 16  1  6  0  0  0
 17 18  1  0  0  0  0
 17 24  1  0  0  0  0
 18 19  1  0  0  0  0
 18 25  1  6  0  0  0
 19 20  1  0  0  0  0
 19 26  1  1  0  0  0
 20 21  1  0  0  0  0
 20 23  1  6  0  0  0
 21 22  1  1  0  0  0
 21 24  1  0  0  0  0
 22 27  1  0  0  0  0
 28 12  1  6  0  0  0
 28 29  1  0  0  0  0
 28 33  1  0  0  0  0
 29 30  1  0  0  0  0
 29 36  1  1  0  0  0
 30 31  1  0  0  0  0
 30 37  1  6  0  0  0
 31 32  1  0  0  0  0
 31 34  1  1  0  0  0
 32 33  1  0  0  0  0
 33 35  1  1  0  0  0
M  END
>  <CHROM.1>
-51.36873788,79.45445791,-165.12692017,170.10956712,-166.36898336,-179.09956957
1.63958687,28.35110711,64.11068706,-0.08316878,0.84864422,-0.31336467

>  <Name>
ligand

>  <RI>
0

>  <Rbt.Current_Directory>
/home/itssahil/PROJECTS/Mol_Feturizer/Test_systems_manuscript/rnas/2g5k

>  <Rbt.Executable>
rbdock ($Id: //depot/dev/client3/rdock/2013.1/src/exe/rbdock.cxx#4 $)

>  <Rbt.Library>
libRbt.so (2013.1, Build901 2013/11/27)

>  <Rbt.Parameter_File>
/export/apps/rDock/src/rDock_2013.1_src/data/scripts/dock_solv.prm

>  <Rbt.Receptor>
prm/pocket_docking_6.prm

>  <SCORE>
-12.5783

>  <SCORE.INTER>
-10.551

>  <SCORE.INTER.CONST>
1

>  <SCORE.INTER.POLAR>
0

>  <SCORE.INTER.ROT>
6

>  <SCORE.INTER.SOLV>
19.2921

>  <SCORE.INTER.VDW>
-21.0647

>  <SCORE.INTER.norm>
-0.285163

>  <SCORE.INTRA>
-2.02724

>  <SCORE.INTRA.DIHEDRAL>
-8.3293

>  <SCORE.INTRA.DIHEDRAL.0>
11.3972

>  <SCORE.INTRA.POLAR>
0

>  <SCORE.INTRA.POLAR.0>
0

>  <SCORE.INTRA.REPUL>
0

>  <SCORE.INTRA.REPUL.0>
0

>  <SCORE.INTRA.SOLV>
3.60533

>  <SCORE.INTRA.SOLV.lig_0>
-92.3891

>  <SCORE.INTRA.VDW>
0.334743

>  <SCORE.INTRA.VDW.0>
-2.90606

>  <SCORE.INTRA.norm>
-0.0547902

>  <SCORE.RESTR>
0

>  <SCORE.RESTR.CAVITY>
0

>  <SCORE.RESTR.norm>
0

>  <SCORE.SYSTEM>
0

>  <SCORE.SYSTEM.CONST>
0

>  <SCORE.SYSTEM.DIHEDRAL>
0

>  <SCORE.SYSTEM.SOLV>
0

>  <SCORE.SYSTEM.norm>
0

>  <SCORE.heavy>
37

>  <SCORE.norm>
-0.339953

>  <RMSD>
7.114

$$$$
ligand
 OpenBabel02271912133D
libRbt.so/2013.1/901 2013/11/27
 37 40  0  0  0  0  0  0  0  0999 V2000
   -4.7496   31.7361   64.1385 C   0  0  1  0  0  0  0  0  0  0  0  0
   -6.2795   31.8054   63.8679 C   0  0  1  0  0  0  0  0  0  0  0  0
   -7.0868   31.0133   64.9140 C   0  0  0  0  0  0  0  0  0  0  0  0
   -6.5883   29.5345   64.9233 C   0  0  1  0  0  0  0  0  0  0  0  0
   -5.0604   29.4701   65.2473 C   0  0  1  0  0  0  0  0  0  0  0  0
   -4.5726   27.9514   65.2496 C   0  0  1  0  0  0  0  0  0  0  0  0
   -5.3862   27.1610   66.3160 C   0  0  1  0  0  0  0  0  0  0  0  0
   -6.8991   27.2880   65.9641 C   0  0  2  0  0  0  0  0  0  0  0  0
   -4.2302   25.1902   67.5367 C   0  0  0  0  0  0  0  0  0  0  0  0
   -6.7365   33.2104   63.8187 N   0  0  0  0  0  0  0  0  0  0  0  0
   -4.9615   25.7112   66.3380 N   0  0  0  0  0  0  0  0  0  0  0  0
   -4.3664   32.4479   65.3313 O   0  0  0  0  0  0  0  0  0  0  0  0
   -4.3538   30.3065   64.2318 O   0  0  0  0  0  0  0  0  0  0  0  0
   -7.3269   28.6924   65.9207 O   0  0  0  0  0  0  0  0  0  0  0  0
   -4.8189   27.3663   63.9775 O   0  0  0  0  0  0  0  0  0  0  0  0
   -7.6840   26.5942   66.9271 O   0  0  0  0  0  0  0  0  0  0  0  0
   -9.0123   26.2468   66.4642 C   0  0  2  0  0  0  0  0  0  0  0  0
   -9.8560   25.5277   67.5433 C   0  0  1  0  0  0  0  0  0  0  0  0
   -9.2546   24.1242   67.8763 C   0  0  2  0  0  0  0  0  0  0  0  0
   -9.2432   23.2821   66.6167 C   0  0  1  0  0  0  0  0  0  0  0  0
   -8.3695   23.9945   65.5411 C   0  0  1  0  0  0  0  0  0  0  0  0
   -8.3248   23.2167   64.2273 C   0  0  0  0  0  0  0  0  0  0  0  0
   -8.6943   21.9405   66.9294 N   0  0  0  0  0  0  0  0  0  0  0  0
   -8.9251   25.3558   65.2688 O   0  0  0  0  0  0  0  0  0  0  0  0
   -9.9071   26.3935   68.6991 O   0  0  0  0  0  0  0  0  0  0  0  0
  -10.0585   23.4731   68.8627 O   0  0  0  0  0  0  0  0  0  0  0  0
   -7.3190   23.7535   63.4028 O   0  0  0  0  0  0  0  0  0  0  0  0
   -2.9397   32.8519   65.6333 C   0  0  1  0  0  0  0  0  0  0  0  0
   -2.9435   33.7447   66.9044 C   0  0  1  0  0  0  0  0  0  0  0  0
   -1.4919   34.1871   67.2495 C   0  0  2  0  0  0  0  0  0  0  0  0
   -0.6256   32.9298   67.5080 C   0  0  1  0  0  0  0  0  0  0  0  0
   -0.5968   32.0115   66.2339 C   0  0  0  0  0  0  0  0  0  0  0  0
   -2.0468   31.5995   65.9021 C   0  0  2  0  0  0  0  0  0  0  0  0
    0.7590   33.3395   67.8450 N   0  0  0  0  0  0  0  0  0  0  0  0
   -2.0115   30.7438   64.7111 N   0  0  0  0  0  0  0  0  0  0  0  0
   -3.7531   34.9173   66.6658 O   0  0  0  0  0  0  0  0  0  0  0  0
   -1.5243   35.0201   68.4297 O   0  0  0  0  0  0  0  0  0  0  0  0
  1  2  1  0  0  0  0
  1 12  1  1  0  0  0
  1 13  1  0  0  0  0
  2  3  1  0  0  0  0
  2 10  1  1  0  0  0
  4  3  1  1  0  0  0
  4  5  1  0  0  0  0
  4 14  1  0  0  0  0
  5  6  1  0  0  0  0
  5 13  1  6  0  0  0
  6  7  1  0  0  0  0
  6 15  1  6  0  0  0
  7  8  1  0  0  0  0
  7 11  1  6  0  0  0
  8 14  1  0  0  0  0
  8 16  1  1  0  0  0
  9 11  1  0  0  0  0
 17 16  1  1  0  0  0
 17 18  1  0  0  0  0
 17 24  1  0  0  0  0
 18 19  1  0  0  0  0
 18 25  1  1  0  0  0
 19 20  1  0  0  0  0
 19 26  1  1  0  0  0
 20 21  1  0  0  0  0
 20 23  1  1  0  0  0
 21 22  1  6  0  0  0
 21 24  1  0  0  0  0
 22 27  1  0  0  0  0
 28 12  1  1  0  0  0
 28 29  1  0  0  0  0
 28 33  1  0  0  0  0
 29 30  1  0  0  0  0
 29 36  1  6  0  0  0
 30 31  1  0  0  0  0
 30 37  1  1  0  0  0
 31 32  1  0  0  0  0
 31 34  1  6  0  0  0
 32 33  1  0  0  0  0
 33 35  1  6  0  0  0
M  END
>  <CHROM.1>
-163.33737043,111.49640058,-159.35588392,173.09927084,-178.45703801,-168.04983358
-5.63016926,28.73707222,66.04015675,0.90346408,-0.35750518,-0.28498951

>  <Name>
ligand

>  <RI>
0

>  <Rbt.Current_Directory>
/home/itssahil/PROJECTS/Mol_Feturizer/Test_systems_manuscript/rnas/2g5k

>  <Rbt.Executable>
rbdock ($Id: //depot/dev/client3/rdock/2013.1/src/exe/rbdock.cxx#4 $)

>  <Rbt.Library>
libRbt.so (2013.1, Build901 2013/11/27)

>  <Rbt.Parameter_File>
/export/apps/rDock/src/rDock_2013.1_src/data/scripts/dock_solv.prm

>  <Rbt.Receptor>
prm/pocket_docking_6.prm

>  <SCORE>
-8.15045

>  <SCORE.INTER>
-5.76051

>  <SCORE.INTER.CONST>
1

>  <SCORE.INTER.POLAR>
0

>  <SCORE.INTER.ROT>
6

>  <SCORE.INTER.SOLV>
11.4401

>  <SCORE.INTER.VDW>
-15.2537

>  <SCORE.INTER.norm>
-0.155689

>  <SCORE.INTRA>
-2.38994

>  <SCORE.INTRA.DIHEDRAL>
-6.29285

>  <SCORE.INTRA.DIHEDRAL.0>
11.3972

>  <SCORE.INTRA.POLAR>
0

>  <SCORE.INTRA.POLAR.0>
0

>  <SCORE.INTRA.REPUL>
0

>  <SCORE.INTRA.REPUL.0>
0

>  <SCORE.INTRA.SOLV>
1.32886

>  <SCORE.INTRA.SOLV.lig_0>
-92.3891

>  <SCORE.INTRA.VDW>
0.0920481

>  <SCORE.INTRA.VDW.0>
-2.90606

>  <SCORE.INTRA.norm>
-0.0645931

>  <SCORE.RESTR>
0

>  <SCORE.RESTR.CAVITY>
0

>  <SCORE.RESTR.norm>
0

>  <SCORE.SYSTEM>
0

>  <SCORE.SYSTEM.CONST>
0

>  <SCORE.SYSTEM.DIHEDRAL>
0

>  <SCORE.SYSTEM.SOLV>
0

>  <SCORE.SYSTEM.norm>
0

>  <SCORE.heavy>
37

>  <SCORE.norm>
-0.220283

>  <RMSD>
7.117

$$$$
ligand
 OpenBabel02271912133D
libRbt.so/2013.1/901 2013/11/27
 37 40  0  0  0  0  0  0  0  0999 V2000
    1.3919   25.2225   67.4996 C   0  0  1  0  0  0  0  0  0  0  0  0
   -0.0125   25.6691   67.9962 C   0  0  1  0  0  0  0  0  0  0  0  0
   -0.2977   27.1469   67.6675 C   0  0  0  0  0  0  0  0  0  0  0  0
    0.8239   28.0303   68.2976 C   0  0  1  0  0  0  0  0  0  0  0  0
    2.2277   27.6094   67.7537 C   0  0  1  0  0  0  0  0  0  0  0  0
    3.3578   28.5230   68.4117 C   0  0  1  0  0  0  0  0  0  0  0  0
    3.0676   30.0130   68.0662 C   0  0  1  0  0  0  0  0  0  0  0  0
    1.6466   30.3668   68.5995 C   0  0  2  0  0  0  0  0  0  0  0  0
    5.3815   31.1702   67.9351 C   0  0  0  0  0  0  0  0  0  0  0  0
   -1.0660   24.8013   67.4284 N   0  0  0  0  0  0  0  0  0  0  0  0
    4.1113   30.9128   68.6858 N   0  0  0  0  0  0  0  0  0  0  0  0
    1.4799   25.1732   66.0622 O   0  0  0  0  0  0  0  0  0  0  0  0
    2.4053   26.1575   68.0545 O   0  0  0  0  0  0  0  0  0  0  0  0
    0.6196   29.4903   68.0212 O   0  0  0  0  0  0  0  0  0  0  0  0
    3.3277   28.3795   69.8258 O   0  0  0  0  0  0  0  0  0  0  0  0
    1.3308   31.7188   68.2874 O   0  0  0  0  0  0  0  0  0  0  0  0
    1.4359   32.0377   66.8780 C   0  0  2  0  0  0  0  0  0  0  0  0
    1.1319   33.5238   66.5737 C   0  0  1  0  0  0  0  0  0  0  0  0
   -0.3664   33.8570   66.8676 C   0  0  2  0  0  0  0  0  0  0  0  0
   -1.2452   32.9847   65.9942 C   0  0  1  0  0  0  0  0  0  0  0  0
   -0.9576   31.4890   66.3229 C   0  0  1  0  0  0  0  0  0  0  0  0
   -1.7915   30.5396   65.4648 C   0  0  0  0  0  0  0  0  0  0  0  0
   -2.6688   33.3106   66.2512 N   0  0  0  0  0  0  0  0  0  0  0  0
    0.4896   31.1957   66.0869 O   0  0  0  0  0  0  0  0  0  0  0  0
    2.0393   34.3212   67.3667 O   0  0  0  0  0  0  0  0  0  0  0  0
   -0.6272   35.2293   66.5646 O   0  0  0  0  0  0  0  0  0  0  0  0
   -3.1509   30.6846   65.7973 O   0  0  0  0  0  0  0  0  0  0  0  0
    2.7675   24.8887   65.3198 C   0  0  1  0  0  0  0  0  0  0  0  0
    3.5308   26.2288   65.1343 C   0  0  1  0  0  0  0  0  0  0  0  0
    4.8635   25.9819   64.3695 C   0  0  2  0  0  0  0  0  0  0  0  0
    5.7415   24.9993   65.1831 C   0  0  1  0  0  0  0  0  0  0  0  0
    4.9967   23.6303   65.3786 C   0  0  0  0  0  0  0  0  0  0  0  0
    3.6725   23.9024   66.1236 C   0  0  2  0  0  0  0  0  0  0  0  0
    7.0179   24.7619   64.4670 N   0  0  0  0  0  0  0  0  0  0  0  0
    2.9827   22.6200   66.3009 N   0  0  0  0  0  0  0  0  0  0  0  0
    2.7122   27.1476   64.3774 O   0  0  0  0  0  0  0  0  0  0  0  0
    5.5496   27.2428   64.2051 O   0  0  0  0  0  0  0  0  0  0  0  0
  1  2  1  0  0  0  0
  1 12  1  6  0  0  0
  1 13  1  0  0  0  0
  2  3  1  0  0  0  0
  2 10  1  6  0  0  0
  4  3  1  6  0  0  0
  4  5  1  0  0  0  0
  4 14  1  0  0  0  0
  5  6  1  0  0  0  0
  5 13  1  1  0  0  0
  6  7  1  0  0  0  0
  6 15  1  1  0  0  0
  7  8  1  0  0  0  0
  7 11  1  1  0  0  0
  8 14  1  0  0  0  0
  8 16  1  6  0  0  0
  9 11  1  0  0  0  0
 17 16  1  1  0  0  0
 17 18  1  0  0  0  0
 17 24  1  0  0  0  0
 18 19  1  0  0  0  0
 18 25  1  1  0  0  0
 19 20  1  0  0  0  0
 19 26  1  6  0  0  0
 20 21  1  0  0  0  0
 20 23  1  1  0  0  0
 21 22  1  6  0  0  0
 21 24  1  0  0  0  0
 22 27  1  0  0  0  0
 28 12  1  1  0  0  0
 28 29  1  0  0  0  0
 28 33  1  0  0  0  0
 29 30  1  0  0  0  0
 29 36  1  6  0  0  0
 30 31  1  0  0  0  0
 30 37  1  1  0  0  0
 31 32  1  0  0  0  0
 31 34  1  6  0  0  0
 32 33  1  0  0  0  0
 33 35  1  6  0  0  0
M  END
>  <CHROM.1>
174.40623782,86.40269348,55.31997448,-86.19635301,-178.14090210,-66.23467739
1.82372647,28.72639640,66.74908767,1.09863234,-0.03637218,-3.03599948

>  <Name>
ligand

>  <RI>
0

>  <Rbt.Current_Directory>
/home/itssahil/PROJECTS/Mol_Feturizer/Test_systems_manuscript/rnas/2g5k

>  <Rbt.Executable>
rbdock ($Id: //depot/dev/client3/rdock/2013.1/src/exe/rbdock.cxx#4 $)

>  <Rbt.Library>
libRbt.so (2013.1, Build901 2013/11/27)

>  <Rbt.Parameter_File>
/export/apps/rDock/src/rDock_2013.1_src/data/scripts/dock_solv.prm

>  <Rbt.Receptor>
prm/pocket_docking_8.prm

>  <SCORE>
-8.21476

>  <SCORE.INTER>
-4.80943

>  <SCORE.INTER.CONST>
1

>  <SCORE.INTER.POLAR>
0

>  <SCORE.INTER.ROT>
6

>  <SCORE.INTER.SOLV>
20.0784

>  <SCORE.INTER.VDW>
-17.4991

>  <SCORE.INTER.norm>
-0.129985

>  <SCORE.INTRA>
-3.40532

>  <SCORE.INTRA.DIHEDRAL>
-7.57069

>  <SCORE.INTRA.DIHEDRAL.0>
11.3972

>  <SCORE.INTRA.POLAR>
0

>  <SCORE.INTRA.POLAR.0>
0

>  <SCORE.INTRA.REPUL>
0

>  <SCORE.INTRA.REPUL.0>
0

>  <SCORE.INTRA.SOLV>
0.957294

>  <SCORE.INTRA.SOLV.lig_0>
-92.3891

>  <SCORE.INTRA.VDW>
-0.0986266

>  <SCORE.INTRA.VDW.0>
-2.90606

>  <SCORE.INTRA.norm>
-0.0920358

>  <SCORE.RESTR>
0

>  <SCORE.RESTR.CAVITY>
0

>  <SCORE.RESTR.norm>
0

>  <SCORE.SYSTEM>
0

>  <SCORE.SYSTEM.CONST>
0

>  <SCORE.SYSTEM.DIHEDRAL>
0

>  <SCORE.SYSTEM.SOLV>
0

>  <SCORE.SYSTEM.norm>
0

>  <SCORE.heavy>
37

>  <SCORE.norm>
-0.22202

>  <RMSD>
7.250

$$$$
ligand
 OpenBabel02271912133D
libRbt.so/2013.1/901 2013/11/27
 37 40  0  0  0  0  0  0  0  0999 V2000
   -6.6966   26.6302   63.4974 C   0  0  1  0  0  0  0  0  0  0  0  0
   -7.9060   27.3649   64.1425 C   0  0  1  0  0  0  0  0  0  0  0  0
   -8.1926   26.8609   65.5698 C   0  0  0  0  0  0  0  0  0  0  0  0
   -8.4365   25.3203   65.5224 C   0  0  1  0  0  0  0  0  0  0  0  0
   -7.1956   24.5843   64.9207 C   0  0  1  0  0  0  0  0  0  0  0  0
   -7.4672   23.0129   64.8800 C   0  0  1  0  0  0  0  0  0  0  0  0
   -7.7459   22.5106   66.3270 C   0  0  1  0  0  0  0  0  0  0  0  0
   -8.9668   23.3001   66.8879 C   0  0  2  0  0  0  0  0  0  0  0  0
   -9.3186   20.5316   66.8931 C   0  0  0  0  0  0  0  0  0  0  0  0
   -7.6859   28.8267   64.1456 N   0  0  0  0  0  0  0  0  0  0  0  0
   -8.0227   21.0253   66.3274 N   0  0  0  0  0  0  0  0  0  0  0  0
   -5.4455   26.9647   64.1292 O   0  0  0  0  0  0  0  0  0  0  0  0
   -6.9443   25.1664   63.5687 O   0  0  0  0  0  0  0  0  0  0  0  0
   -8.7230   24.7485   66.8790 O   0  0  0  0  0  0  0  0  0  0  0  0
   -8.6160   22.7450   64.0864 O   0  0  0  0  0  0  0  0  0  0  0  0
   -9.2458   22.8855   68.2203 O   0  0  0  0  0  0  0  0  0  0  0  0
   -8.2062   23.2224   69.1716 C   0  0  2  0  0  0  0  0  0  0  0  0
   -8.5863   22.8667   70.6284 C   0  0  1  0  0  0  0  0  0  0  0  0
   -9.7752   23.7510   71.1253 C   0  0  2  0  0  0  0  0  0  0  0  0
   -9.3641   25.2081   71.0643 C   0  0  1  0  0  0  0  0  0  0  0  0
   -9.0092   25.5713   69.5913 C   0  0  1  0  0  0  0  0  0  0  0  0
   -8.5611   27.0245   69.4479 C   0  0  0  0  0  0  0  0  0  0  0  0
  -10.4795   26.0528   71.5555 N   0  0  0  0  0  0  0  0  0  0  0  0
   -7.9056   24.6841   69.1107 O   0  0  0  0  0  0  0  0  0  0  0  0
   -8.8977   21.4560   70.6611 O   0  0  0  0  0  0  0  0  0  0  0  0
  -10.0980   23.4159   72.4768 O   0  0  0  0  0  0  0  0  0  0  0  0
   -7.6136   27.1191   68.4121 O   0  0  0  0  0  0  0  0  0  0  0  0
   -5.2533   26.9822   65.6301 C   0  0  1  0  0  0  0  0  0  0  0  0
   -4.2685   25.8426   66.0098 C   0  0  1  0  0  0  0  0  0  0  0  0
   -4.0449   25.8222   67.5497 C   0  0  2  0  0  0  0  0  0  0  0  0
   -3.4527   27.1820   67.9951 C   0  0  1  0  0  0  0  0  0  0  0  0
   -4.4334   28.3537   67.6308 C   0  0  0  0  0  0  0  0  0  0  0  0
   -4.6523   28.3435   66.1029 C   0  0  2  0  0  0  0  0  0  0  0  0
   -3.2286   27.1717   69.4607 N   0  0  0  0  0  0  0  0  0  0  0  0
   -5.5698   29.4391   65.7713 N   0  0  0  0  0  0  0  0  0  0  0  0
   -4.8184   24.5732   65.5930 O   0  0  0  0  0  0  0  0  0  0  0  0
   -3.1317   24.7511   67.8762 O   0  0  0  0  0  0  0  0  0  0  0  0
  1  2  1  0  0  0  0
  1 12  1  1  0  0  0
  1 13  1  0  0  0  0
  2  3  1  0  0  0  0
  2 10  1  1  0  0  0
  4  3  1  1  0  0  0
  4  5  1  0  0  0  0
  4 14  1  0  0  0  0
  5  6  1  0  0  0  0
  5 13  1  6  0  0  0
  6  7  1  0  0  0  0
  6 15  1  6  0  0  0
  7  8  1  0  0  0  0
  7 11  1  6  0  0  0
  8 14  1  0  0  0  0
  8 16  1  1  0  0  0
  9 11  1  0  0  0  0
 17 16  1  6  0  0  0
 17 18  1  0  0  0  0
 17 24  1  0  0  0  0
 18 19  1  0  0  0  0
 18 25  1  6  0  0  0
 19 20  1  0  0  0  0
 19 26  1  1  0  0  0
 20 21  1  0  0  0  0
 20 23  1  6  0  0  0
 21 22  1  1  0  0  0
 21 24  1  0  0  0  0
 22 27  1  0  0  0  0
 28 12  1  6  0  0  0
 28 29  1  0  0  0  0
 28 33  1  0  0  0  0
 29 30  1  0  0  0  0
 29 36  1  1  0  0  0
 30 31  1  0  0  0  0
 30 37  1  6  0  0  0
 31 32  1  0  0  0  0
 31 34  1  1  0  0  0
 32 33  1  0  0  0  0
 33 35  1  1  0  0  0
M  END
>  <CHROM.1>
46.85743760,-122.70413467,66.12582016,113.37339783,175.20479737,147.89125440
-7.25687389,25.13066002,67.27462390,0.48247299,-0.91207813,-1.84767548

>  <Name>
ligand

>  <RI>
0

>  <Rbt.Current_Directory>
/home/itssahil/PROJECTS/Mol_Feturizer/Test_systems_manuscript/rnas/2g5k

>  <Rbt.Executable>
rbdock ($Id: //depot/dev/client3/rdock/2013.1/src/exe/rbdock.cxx#4 $)

>  <Rbt.Library>
libRbt.so (2013.1, Build901 2013/11/27)

>  <Rbt.Parameter_File>
/export/apps/rDock/src/rDock_2013.1_src/data/scripts/dock_solv.prm

>  <Rbt.Receptor>
prm/blind_docking_100.prm

>  <SCORE>
23.9249

>  <SCORE.INTER>
-1.01998

>  <SCORE.INTER.CONST>
1

>  <SCORE.INTER.POLAR>
0

>  <SCORE.INTER.ROT>
6

>  <SCORE.INTER.SOLV>
28.2467

>  <SCORE.INTER.VDW>
-17.6956

>  <SCORE.INTER.norm>
-0.027567

>  <SCORE.INTRA>
10.3064

>  <SCORE.INTRA.DIHEDRAL>
0.851552

>  <SCORE.INTRA.DIHEDRAL.0>
11.3972

>  <SCORE.INTRA.POLAR>
0

>  <SCORE.INTRA.POLAR.0>
0

>  <SCORE.INTRA.REPUL>
0

>  <SCORE.INTRA.REPUL.0>
0

>  <SCORE.INTRA.SOLV>
6.0644

>  <SCORE.INTRA.SOLV.lig_0>
-92.3891

>  <SCORE.INTRA.VDW>
6.84842

>  <SCORE.INTRA.VDW.0>
-2.90606

>  <SCORE.INTRA.norm>
0.278551

>  <SCORE.RESTR>
14.6385

>  <SCORE.RESTR.CAVITY>
14.6385

>  <SCORE.RESTR.norm>
0.395634

>  <SCORE.SYSTEM>
0

>  <SCORE.SYSTEM.CONST>
0

>  <SCORE.SYSTEM.DIHEDRAL>
0

>  <SCORE.SYSTEM.SOLV>
0

>  <SCORE.SYSTEM.norm>
0

>  <SCORE.heavy>
37

>  <SCORE.norm>
0.646618

>  <RMSD>
7.270

$$$$
ligand
 OpenBabel02271912133D
libRbt.so/2013.1/901 2013/11/27
 37 40  0  0  0  0  0  0  0  0999 V2000
   -6.6941   26.6740   63.4790 C   0  0  1  0  0  0  0  0  0  0  0  0
   -7.8982   27.4151   64.1266 C   0  0  1  0  0  0  0  0  0  0  0  0
   -8.1970   26.8989   65.5470 C   0  0  0  0  0  0  0  0  0  0  0  0
   -8.4575   25.3616   65.4818 C   0  0  1  0  0  0  0  0  0  0  0  0
   -7.2220   24.6185   64.8778 C   0  0  1  0  0  0  0  0  0  0  0  0
   -7.5107   23.0507   64.8188 C   0  0  1  0  0  0  0  0  0  0  0  0
   -7.8015   22.5360   66.2590 C   0  0  1  0  0  0  0  0  0  0  0  0
   -9.0164   23.3328   66.8229 C   0  0  2  0  0  0  0  0  0  0  0  0
   -7.9472   20.2732   67.5117 C   0  0  0  0  0  0  0  0  0  0  0  0
   -7.6622   28.8742   64.1465 N   0  0  0  0  0  0  0  0  0  0  0  0
   -8.0946   21.0539   66.2421 N   0  0  0  0  0  0  0  0  0  0  0  0
   -5.4423   26.9879   64.1200 O   0  0  0  0  0  0  0  0  0  0  0  0
   -6.9581   25.2123   63.5333 O   0  0  0  0  0  0  0  0  0  0  0  0
   -8.7566   24.7784   66.8309 O   0  0  0  0  0  0  0  0  0  0  0  0
   -8.6587   22.8041   64.0172 O   0  0  0  0  0  0  0  0  0  0  0  0
   -9.3060   22.9069   68.1495 O   0  0  0  0  0  0  0  0  0  0  0  0
   -8.2588   23.2049   69.1053 C   0  0  2  0  0  0  0  0  0  0  0  0
   -8.6375   22.8135   70.5534 C   0  0  1  0  0  0  0  0  0  0  0  0
   -9.8137   23.6978   71.0795 C   0  0  2  0  0  0  0  0  0  0  0  0
   -9.3852   25.1510   71.0572 C   0  0  1  0  0  0  0  0  0  0  0  0
   -9.0316   25.5506   69.5933 C   0  0  1  0  0  0  0  0  0  0  0  0
   -8.5665   27.0018   69.4883 C   0  0  0  0  0  0  0  0  0  0  0  0
  -10.4884   25.9951   71.5762 N   0  0  0  0  0  0  0  0  0  0  0  0
   -7.9407   24.6639   69.0837 O   0  0  0  0  0  0  0  0  0  0  0  0
   -8.9659   21.4063   70.5483 O   0  0  0  0  0  0  0  0  0  0  0  0
  -10.1353   23.3293   72.4226 O   0  0  0  0  0  0  0  0  0  0  0  0
   -7.7038   27.1351   68.3849 O   0  0  0  0  0  0  0  0  0  0  0  0
   -5.2572   26.9883   65.6219 C   0  0  1  0  0  0  0  0  0  0  0  0
   -4.2777   25.8416   65.9937 C   0  0  1  0  0  0  0  0  0  0  0  0
   -4.0615   25.8036   67.5344 C   0  0  2  0  0  0  0  0  0  0  0  0
   -3.4673   27.1566   67.9975 C   0  0  1  0  0  0  0  0  0  0  0  0
   -4.4427   28.3352   67.6415 C   0  0  0  0  0  0  0  0  0  0  0  0
   -4.6544   28.3425   66.1126 C   0  0  2  0  0  0  0  0  0  0  0  0
   -3.2502   27.1295   69.4640 N   0  0  0  0  0  0  0  0  0  0  0  0
   -5.5669   29.4444   65.7886 N   0  0  0  0  0  0  0  0  0  0  0  0
   -4.8294   24.5786   65.5604 O   0  0  0  0  0  0  0  0  0  0  0  0
   -3.1530   24.7261   67.8534 O   0  0  0  0  0  0  0  0  0  0  0  0
  1  2  1  0  0  0  0
  1 12  1  1  0  0  0
  1 13  1  0  0  0  0
  2  3  1  0  0  0  0
  2 10  1  1  0  0  0
  4  3  1  1  0  0  0
  4  5  1  0  0  0  0
  4 14  1  0  0  0  0
  5  6  1  0  0  0  0
  5 13  1  6  0  0  0
  6  7  1  0  0  0  0
  6 15  1  6  0  0  0
  7  8  1  0  0  0  0
  7 11  1  6  0  0  0
  8 14  1  0  0  0  0
  8 16  1  1  0  0  0
  9 11  1  0  0  0  0
 17 16  1  6  0  0  0
 17 18  1  0  0  0  0
 17 24  1  0  0  0  0
 18 19  1  0  0  0  0
 18 25  1  6  0  0  0
 19 20  1  0  0  0  0
 19 26  1  1  0  0  0
 20 21  1  0  0  0  0
 20 23  1  6  0  0  0
 21 22  1  1  0  0  0
 21 24  1  0  0  0  0
 22 27  1  0  0  0  0
 28 12  1  6  0  0  0
 28 29  1  0  0  0  0
 28 33  1  0  0  0  0
 29 30  1  0  0  0  0
 29 36  1  1  0  0  0
 30 31  1  0  0  0  0
 30 37  1  6  0  0  0
 31 32  1  0  0  0  0
 31 34  1  1  0  0  0
 32 33  1  0  0  0  0
 33 35  1  1  0  0  0
M  END
>  <CHROM.1>
46.80054442,159.64619001,65.27900005,113.85780191,176.31418759,152.53915090
-7.24298202,25.12385818,67.26322804,0.46275558,-0.94447493,-1.88663876

>  <Name>
ligand

>  <RI>
0

>  <Rbt.Current_Directory>
/home/itssahil/PROJECTS/Mol_Feturizer/Test_systems_manuscript/rnas/2g5k

>  <Rbt.Executable>
rbdock ($Id: //depot/dev/client3/rdock/2013.1/src/exe/rbdock.cxx#4 $)

>  <Rbt.Library>
libRbt.so (2013.1, Build901 2013/11/27)

>  <Rbt.Parameter_File>
/export/apps/rDock/src/rDock_2013.1_src/data/scripts/dock_solv.prm

>  <Rbt.Receptor>
prm/blind_docking_100.prm

>  <SCORE>
16.7502

>  <SCORE.INTER>
-2.96248

>  <SCORE.INTER.CONST>
1

>  <SCORE.INTER.POLAR>
0

>  <SCORE.INTER.ROT>
6

>  <SCORE.INTER.SOLV>
28.3552

>  <SCORE.INTER.VDW>
-19.0267

>  <SCORE.INTER.norm>
-0.080067

>  <SCORE.INTRA>
4.84381

>  <SCORE.INTRA.DIHEDRAL>
-0.728737

>  <SCORE.INTRA.DIHEDRAL.0>
11.3972

>  <SCORE.INTRA.POLAR>
0

>  <SCORE.INTRA.POLAR.0>
0

>  <SCORE.INTRA.REPUL>
0

>  <SCORE.INTRA.REPUL.0>
0

>  <SCORE.INTRA.SOLV>
5.98282

>  <SCORE.INTRA.SOLV.lig_0>
-92.3891

>  <SCORE.INTRA.VDW>
2.21677

>  <SCORE.INTRA.VDW.0>
-2.90606

>  <SCORE.INTRA.norm>
0.130914

>  <SCORE.RESTR>
14.8688

>  <SCORE.RESTR.CAVITY>
14.8688

>  <SCORE.RESTR.norm>
0.40186

>  <SCORE.SYSTEM>
0

>  <SCORE.SYSTEM.CONST>
0

>  <SCORE.SYSTEM.DIHEDRAL>
0

>  <SCORE.SYSTEM.SOLV>
0

>  <SCORE.SYSTEM.norm>
0

>  <SCORE.heavy>
37

>  <SCORE.norm>
0.452707

>  <RMSD>
7.272

$$$$
ligand
 OpenBabel02271912133D
libRbt.so/2013.1/901 2013/11/27
 37 40  0  0  0  0  0  0  0  0999 V2000
   -6.6980   26.6396   63.4772 C   0  0  1  0  0  0  0  0  0  0  0  0
   -7.8946   27.3874   64.1310 C   0  0  1  0  0  0  0  0  0  0  0  0
   -8.1886   26.8730   65.5531 C   0  0  0  0  0  0  0  0  0  0  0  0
   -8.4580   25.3372   65.4895 C   0  0  1  0  0  0  0  0  0  0  0  0
   -7.2299   24.5872   64.8790 C   0  0  1  0  0  0  0  0  0  0  0  0
   -7.5275   23.0210   64.8217 C   0  0  1  0  0  0  0  0  0  0  0  0
   -7.8136   22.5080   66.2635 C   0  0  1  0  0  0  0  0  0  0  0  0
   -9.0210   23.3116   66.8338 C   0  0  2  0  0  0  0  0  0  0  0  0
   -7.9557   20.2444   67.5149 C   0  0  0  0  0  0  0  0  0  0  0  0
   -7.6503   28.8452   64.1495 N   0  0  0  0  0  0  0  0  0  0  0  0
   -8.1150   21.0276   66.2484 N   0  0  0  0  0  0  0  0  0  0  0  0
   -5.4411   26.9466   64.1115 O   0  0  0  0  0  0  0  0  0  0  0  0
   -6.9698   25.1794   63.5330 O   0  0  0  0  0  0  0  0  0  0  0  0
   -8.7532   24.7558   66.8402 O   0  0  0  0  0  0  0  0  0  0  0  0
   -8.6811   22.7807   64.0263 O   0  0  0  0  0  0  0  0  0  0  0  0
   -9.3059   22.8875   68.1619 O   0  0  0  0  0  0  0  0  0  0  0  0
   -8.2570   23.1902   69.1144 C   0  0  2  0  0  0  0  0  0  0  0  0
   -8.6336   22.8070   70.5652 C   0  0  1  0  0  0  0  0  0  0  0  0
   -9.8085   23.6948   71.0883 C   0  0  2  0  0  0  0  0  0  0  0  0
   -9.3793   25.1477   71.0573 C   0  0  1  0  0  0  0  0  0  0  0  0
   -9.0279   25.5390   69.5907 C   0  0  1  0  0  0  0  0  0  0  0  0
   -8.5622   26.9893   69.4769 C   0  0  0  0  0  0  0  0  0  0  0  0
  -10.4812   25.9952   71.5734 N   0  0  0  0  0  0  0  0  0  0  0  0
   -7.9382   24.6489   69.0842 O   0  0  0  0  0  0  0  0  0  0  0  0
   -8.9627   21.4000   70.5685 O   0  0  0  0  0  0  0  0  0  0  0  0
  -10.1281   23.3339   72.4340 O   0  0  0  0  0  0  0  0  0  0  0  0
   -7.7003   27.1158   68.3721 O   0  0  0  0  0  0  0  0  0  0  0  0
   -5.2525   26.9636   65.6128 C   0  0  1  0  0  0  0  0  0  0  0  0
   -4.2837   25.8116   65.9965 C   0  0  1  0  0  0  0  0  0  0  0  0
   -4.0644   25.7903   67.5371 C   0  0  2  0  0  0  0  0  0  0  0  0
   -3.4554   27.1428   67.9822 C   0  0  1  0  0  0  0  0  0  0  0  0
   -4.4198   28.3268   67.6139 C   0  0  0  0  0  0  0  0  0  0  0  0
   -4.6349   28.3174   66.0855 C   0  0  2  0  0  0  0  0  0  0  0  0
   -3.2353   27.1315   69.4484 N   0  0  0  0  0  0  0  0  0  0  0  0
   -5.5370   29.4245   65.7500 N   0  0  0  0  0  0  0  0  0  0  0  0
   -4.8492   24.5490   65.5800 O   0  0  0  0  0  0  0  0  0  0  0  0
   -3.1661   24.7077   67.8673 O   0  0  0  0  0  0  0  0  0  0  0  0
  1  2  1  0  0  0  0
  1 12  1  1  0  0  0
  1 13  1  0  0  0  0
  2  3  1  0  0  0  0
  2 10  1  1  0  0  0
  4  3  1  1  0  0  0
  4  5  1  0  0  0  0
  4 14  1  0  0  0  0
  5  6  1  0  0  0  0
  5 13  1  6  0  0  0
  6  7  1  0  0  0  0
  6 15  1  6  0  0  0
  7  8  1  0  0  0  0
  7 11  1  6  0  0  0
  8 14  1  0  0  0  0
  8 16  1  1  0  0  0
  9 11  1  0  0  0  0
 17 16  1  6  0  0  0
 17 18  1  0  0  0  0
 17 24  1  0  0  0  0
 18 19  1  0  0  0  0
 18 25  1  6  0  0  0
 19 20  1  0  0  0  0
 19 26  1  1  0  0  0
 20 21  1  0  0  0  0
 20 23  1  6  0  0  0
 21 22  1  1  0  0  0
 21 24  1  0  0  0  0
 22 27  1  0  0  0  0
 28 12  1  6  0  0  0
 28 29  1  0  0  0  0
 28 33  1  0  0  0  0
 29 30  1  0  0  0  0
 29 36  1  1  0  0  0
 30 31  1  0  0  0  0
 30 37  1  6  0  0  0
 31 32  1  0  0  0  0
 31 34  1  1  0  0  0
 32 33  1  0  0  0  0
 33 35  1  1  0  0  0
M  END
>  <CHROM.1>
45.98527329,159.21440991,65.79125590,113.95819250,176.02815206,152.48704552
-7.24237515,25.10450509,67.26373702,0.46476896,-0.94245511,-1.88383745

>  <Name>
ligand

>  <RI>
0

>  <Rbt.Current_Directory>
/home/itssahil/PROJECTS/Mol_Feturizer/Test_systems_manuscript/rnas/2g5k

>  <Rbt.Executable>
rbdock ($Id: //depot/dev/client3/rdock/2013.1/src/exe/rbdock.cxx#4 $)

>  <Rbt.Library>
libRbt.so (2013.1, Build901 2013/11/27)

>  <Rbt.Parameter_File>
/export/apps/rDock/src/rDock_2013.1_src/data/scripts/dock_solv.prm

>  <Rbt.Receptor>
prm/blind_docking_100.prm

>  <SCORE>
17.0975

>  <SCORE.INTER>
-2.83996

>  <SCORE.INTER.CONST>
1

>  <SCORE.INTER.POLAR>
0

>  <SCORE.INTER.ROT>
6

>  <SCORE.INTER.SOLV>
28.3296

>  <SCORE.INTER.VDW>
-18.9365

>  <SCORE.INTER.norm>
-0.0767556

>  <SCORE.INTRA>
5.17804

>  <SCORE.INTRA.DIHEDRAL>
-0.565332

>  <SCORE.INTRA.DIHEDRAL.0>
11.3972

>  <SCORE.INTRA.POLAR>
0

>  <SCORE.INTRA.POLAR.0>
0

>  <SCORE.INTRA.REPUL>
0

>  <SCORE.INTRA.REPUL.0>
0

>  <SCORE.INTRA.SOLV>
5.98969

>  <SCORE.INTRA.SOLV.lig_0>
-92.3891

>  <SCORE.INTRA.VDW>
2.46587

>  <SCORE.INTRA.VDW.0>
-2.90606

>  <SCORE.INTRA.norm>
0.139947

>  <SCORE.RESTR>
14.7594

>  <SCORE.RESTR.CAVITY>
14.7594

>  <SCORE.RESTR.norm>
0.398903

>  <SCORE.SYSTEM>
0

>  <SCORE.SYSTEM.CONST>
0

>  <SCORE.SYSTEM.DIHEDRAL>
0

>  <SCORE.SYSTEM.SOLV>
0

>  <SCORE.SYSTEM.norm>
0

>  <SCORE.heavy>
37

>  <SCORE.norm>
0.462094

>  <RMSD>
7.277

$$$$
ligand
 OpenBabel02271912133D
libRbt.so/2013.1/901 2013/11/27
 37 40  0  0  0  0  0  0  0  0999 V2000
   -6.7116   26.6431   63.4956 C   0  0  1  0  0  0  0  0  0  0  0  0
   -7.9074   27.3897   64.1522 C   0  0  1  0  0  0  0  0  0  0  0  0
   -8.1990   26.8738   65.5742 C   0  0  0  0  0  0  0  0  0  0  0  0
   -8.4680   25.3380   65.5094 C   0  0  1  0  0  0  0  0  0  0  0  0
   -7.2405   24.5890   64.8962 C   0  0  1  0  0  0  0  0  0  0  0  0
   -7.5377   23.0228   64.8377 C   0  0  1  0  0  0  0  0  0  0  0  0
   -7.8213   22.5082   66.2795 C   0  0  1  0  0  0  0  0  0  0  0  0
   -9.0280   23.3108   66.8524 C   0  0  2  0  0  0  0  0  0  0  0  0
   -7.9142   20.2339   67.5161 C   0  0  0  0  0  0  0  0  0  0  0  0
   -7.6637   28.8476   64.1718 N   0  0  0  0  0  0  0  0  0  0  0  0
   -8.1221   21.0277   66.2632 N   0  0  0  0  0  0  0  0  0  0  0  0
   -5.4538   26.9499   64.1283 O   0  0  0  0  0  0  0  0  0  0  0  0
   -6.9828   25.1828   63.5504 O   0  0  0  0  0  0  0  0  0  0  0  0
   -8.7608   24.7550   66.8599 O   0  0  0  0  0  0  0  0  0  0  0  0
   -8.6924   22.7829   64.0439 O   0  0  0  0  0  0  0  0  0  0  0  0
   -9.3107   22.8852   68.1806 O   0  0  0  0  0  0  0  0  0  0  0  0
   -8.2632   23.1929   69.1330 C   0  0  2  0  0  0  0  0  0  0  0  0
   -8.6426   22.8191   70.5855 C   0  0  1  0  0  0  0  0  0  0  0  0
   -9.8176   23.7112   71.1010 C   0  0  2  0  0  0  0  0  0  0  0  0
   -9.3871   25.1635   71.0617 C   0  0  1  0  0  0  0  0  0  0  0  0
   -9.0329   25.5453   69.5932 C   0  0  1  0  0  0  0  0  0  0  0  0
   -8.5657   26.9945   69.4711 C   0  0  0  0  0  0  0  0  0  0  0  0
  -10.4892   26.0151   71.5705 N   0  0  0  0  0  0  0  0  0  0  0  0
   -7.9431   24.6512   69.0942 O   0  0  0  0  0  0  0  0  0  0  0  0
   -8.9729   21.4124   70.5970 O   0  0  0  0  0  0  0  0  0  0  0  0
  -10.1398   23.3590   72.4483 O   0  0  0  0  0  0  0  0  0  0  0  0
   -7.6390   27.0974   68.4175 O   0  0  0  0  0  0  0  0  0  0  0  0
   -5.2604   26.9557   65.6291 C   0  0  1  0  0  0  0  0  0  0  0  0
   -4.2827   25.8071   66.0000 C   0  0  1  0  0  0  0  0  0  0  0  0
   -4.0581   25.7744   67.5396 C   0  0  2  0  0  0  0  0  0  0  0  0
   -3.4567   27.1273   67.9940 C   0  0  1  0  0  0  0  0  0  0  0  0
   -4.4301   28.3077   67.6387 C   0  0  0  0  0  0  0  0  0  0  0  0
   -4.6502   28.3097   66.1110 C   0  0  2  0  0  0  0  0  0  0  0  0
   -3.2316   27.1052   69.4594 N   0  0  0  0  0  0  0  0  0  0  0  0
   -5.5608   29.4134   65.7877 N   0  0  0  0  0  0  0  0  0  0  0  0
   -4.8411   24.5442   65.5748 O   0  0  0  0  0  0  0  0  0  0  0  0
   -3.1515   24.6952   67.8579 O   0  0  0  0  0  0  0  0  0  0  0  0
  1  2  1  0  0  0  0
  1 12  1  1  0  0  0
  1 13  1  0  0  0  0
  2  3  1  0  0  0  0
  2 10  1  1  0  0  0
  4  3  1  1  0  0  0
  4  5  1  0  0  0  0
  4 14  1  0  0  0  0
  5  6  1  0  0  0  0
  5 13  1  6  0  0  0
  6  7  1  0  0  0  0
  6 15  1  6  0  0  0
  7  8  1  0  0  0  0
  7 11  1  6  0  0  0
  8 14  1  0  0  0  0
  8 16  1  1  0  0  0
  9 11  1  0  0  0  0
 17 16  1  6  0  0  0
 17 18  1  0  0  0  0
 17 24  1  0  0  0  0
 18 19  1  0  0  0  0
 18 25  1  6  0  0  0
 19 20  1  0  0  0  0
 19 26  1  1  0  0  0
 20 21  1  0  0  0  0
 20 23  1  6  0  0  0
 21 22  1  1  0  0  0
 21 24  1  0  0  0  0
 22 27  1  0  0  0  0
 28 12  1  6  0  0  0
 28 29  1  0  0  0  0
 28 33  1  0  0  0  0
 29 30  1  0  0  0  0
 29 36  1  1  0  0  0
 30 31  1  0  0  0  0
 30 37  1  6  0  0  0
 31 32  1  0  0  0  0
 31 34  1  1  0  0  0
 32 33  1  0  0  0  0
 33 35  1  1  0  0  0
M  END
>  <CHROM.1>
46.43962087,157.07601564,66.06907176,114.12106197,175.52633658,148.94344909
-7.24602660,25.10403617,67.27844178,0.46313487,-0.94161248,-1.88832727

>  <Name>
ligand

>  <RI>
0

>  <Rbt.Current_Directory>
/home/itssahil/PROJECTS/Mol_Feturizer/Test_systems_manuscript/rnas/2g5k

>  <Rbt.Executable>
rbdock ($Id: //depot/dev/client3/rdock/2013.1/src/exe/rbdock.cxx#4 $)

>  <Rbt.Library>
libRbt.so (2013.1, Build901 2013/11/27)

>  <Rbt.Parameter_File>
/export/apps/rDock/src/rDock_2013.1_src/data/scripts/dock_solv.prm

>  <Rbt.Receptor>
prm/blind_docking_100.prm

>  <SCORE>
17.2484

>  <SCORE.INTER>
-2.71132

>  <SCORE.INTER.CONST>
1

>  <SCORE.INTER.POLAR>
0

>  <SCORE.INTER.ROT>
6

>  <SCORE.INTER.SOLV>
28.3022

>  <SCORE.INTER.VDW>
-18.8416

>  <SCORE.INTER.norm>
-0.0732789

>  <SCORE.INTRA>
5.23886

>  <SCORE.INTRA.DIHEDRAL>
-0.0264594

>  <SCORE.INTRA.DIHEDRAL.0>
11.3972

>  <SCORE.INTRA.POLAR>
0

>  <SCORE.INTRA.POLAR.0>
0

>  <SCORE.INTRA.REPUL>
0

>  <SCORE.INTRA.REPUL.0>
0

>  <SCORE.INTRA.SOLV>
6.02555

>  <SCORE.INTRA.SOLV.lig_0>
-92.3891

>  <SCORE.INTRA.VDW>
2.23931

>  <SCORE.INTRA.VDW.0>
-2.90606

>  <SCORE.INTRA.norm>
0.141591

>  <SCORE.RESTR>
14.7208

>  <SCORE.RESTR.CAVITY>
14.7208

>  <SCORE.RESTR.norm>
0.39786

>  <SCORE.SYSTEM>
0

>  <SCORE.SYSTEM.CONST>
0

>  <SCORE.SYSTEM.DIHEDRAL>
0

>  <SCORE.SYSTEM.SOLV>
0

>  <SCORE.SYSTEM.norm>
0

>  <SCORE.heavy>
37

>  <SCORE.norm>
0.466172

>  <RMSD>
7.279

$$$$
ligand
 OpenBabel02271912133D
libRbt.so/2013.1/901 2013/11/27
 37 40  0  0  0  0  0  0  0  0999 V2000
   -6.7354   26.6698   63.5447 C   0  0  1  0  0  0  0  0  0  0  0  0
   -7.9197   27.3908   64.2490 C   0  0  1  0  0  0  0  0  0  0  0  0
   -8.1542   26.8572   65.6750 C   0  0  0  0  0  0  0  0  0  0  0  0
   -8.4007   25.3178   65.6044 C   0  0  1  0  0  0  0  0  0  0  0  0
   -7.1832   24.5946   64.9424 C   0  0  1  0  0  0  0  0  0  0  0  0
   -7.4573   23.0244   64.8789 C   0  0  1  0  0  0  0  0  0  0  0  0
   -7.6830   22.4920   66.3244 C   0  0  1  0  0  0  0  0  0  0  0  0
   -8.8821   23.2696   66.9460 C   0  0  2  0  0  0  0  0  0  0  0  0
   -9.2397   20.5024   66.8979 C   0  0  0  0  0  0  0  0  0  0  0  0
   -7.6986   28.8522   64.2744 N   0  0  0  0  0  0  0  0  0  0  0  0
   -7.9607   21.0070   66.3040 N   0  0  0  0  0  0  0  0  0  0  0  0
   -5.4617   26.9911   64.1370 O   0  0  0  0  0  0  0  0  0  0  0  0
   -6.9813   25.2048   63.5945 O   0  0  0  0  0  0  0  0  0  0  0  0
   -8.6377   24.7178   66.9585 O   0  0  0  0  0  0  0  0  0  0  0  0
   -8.6346   22.7731   64.1226 O   0  0  0  0  0  0  0  0  0  0  0  0
   -9.1122   22.8272   68.2788 O   0  0  0  0  0  0  0  0  0  0  0  0
   -8.1798   23.3669   69.2476 C   0  0  2  0  0  0  0  0  0  0  0  0
   -8.3587   22.7575   70.6583 C   0  0  1  0  0  0  0  0  0  0  0  0
   -9.7351   23.1705   71.2726 C   0  0  2  0  0  0  0  0  0  0  0  0
   -9.7944   24.6810   71.3765 C   0  0  1  0  0  0  0  0  0  0  0  0
   -9.6425   25.2913   69.9509 C   0  0  1  0  0  0  0  0  0  0  0  0
   -9.6697   26.8184   69.9719 C   0  0  0  0  0  0  0  0  0  0  0  0
  -11.0891   25.0801   71.9794 N   0  0  0  0  0  0  0  0  0  0  0  0
   -8.3455   24.8473   69.3537 O   0  0  0  0  0  0  0  0  0  0  0  0
   -8.2203   21.3248   70.5303 O   0  0  0  0  0  0  0  0  0  0  0  0
   -9.8711   22.6096   72.5803 O   0  0  0  0  0  0  0  0  0  0  0  0
   -8.4480   27.2985   70.4782 O   0  0  0  0  0  0  0  0  0  0  0  0
   -5.2239   27.0118   65.6313 C   0  0  1  0  0  0  0  0  0  0  0  0
   -4.2288   25.8722   65.9834 C   0  0  1  0  0  0  0  0  0  0  0  0
   -3.9585   25.8550   67.5159 C   0  0  2  0  0  0  0  0  0  0  0  0
   -3.3520   27.2154   67.9400 C   0  0  1  0  0  0  0  0  0  0  0  0
   -4.3426   28.3869   67.6032 C   0  0  0  0  0  0  0  0  0  0  0  0
   -4.6079   28.3736   66.0827 C   0  0  2  0  0  0  0  0  0  0  0  0
   -3.0835   27.2081   69.3982 N   0  0  0  0  0  0  0  0  0  0  0  0
   -5.5342   29.4691   65.7766 N   0  0  0  0  0  0  0  0  0  0  0  0
   -4.7920   24.6024   65.5864 O   0  0  0  0  0  0  0  0  0  0  0  0
   -3.0365   24.7839   67.8168 O   0  0  0  0  0  0  0  0  0  0  0  0
  1  2  1  0  0  0  0
  1 12  1  1  0  0  0
  1 13  1  0  0  0  0
  2  3  1  0  0  0  0
  2 10  1  1  0  0  0
  4  3  1  1  0  0  0
  4  5  1  0  0  0  0
  4 14  1  0  0  0  0
  5  6  1  0  0  0  0
  5 13  1  6  0  0  0
  6  7  1  0  0  0  0
  6 15  1  6  0  0  0
  7  8  1  0  0  0  0
  7 11  1  6  0  0  0
  8 14  1  0  0  0  0
  8 16  1  1  0  0  0
  9 11  1  0  0  0  0
 17 16  1  6  0  0  0
 17 18  1  0  0  0  0
 17 24  1  0  0  0  0
 18 19  1  0  0  0  0
 18 25  1  6  0  0  0
 19 20  1  0  0  0  0
 19 26  1  1  0  0  0
 20 21  1  0  0  0  0
 20 23  1  6  0  0  0
 21 22  1  1  0  0  0
 21 24  1  0  0  0  0
 22 27  1  0  0  0  0
 28 12  1  6  0  0  0
 28 29  1  0  0  0  0
 28 33  1  0  0  0  0
 29 30  1  0  0  0  0
 29 36  1  1  0  0  0
 30 31  1  0  0  0  0
 30 37  1  6  0  0  0
 31 32  1  0  0  0  0
 31 34  1  1  0  0  0
 32 33  1  0  0  0  0
 33 35  1  1  0  0  0
M  END
>  <CHROM.1>
45.24017063,-122.28740804,77.76101973,114.04443415,-173.98986591,74.35221574
-7.30186571,25.05613758,67.40477213,0.47118365,-0.91809523,-1.91112022

>  <Name>
ligand

>  <RI>
0

>  <Rbt.Current_Directory>
/home/itssahil/PROJECTS/Mol_Feturizer/Test_systems_manuscript/rnas/2g5k

>  <Rbt.Executable>
rbdock ($Id: //depot/dev/client3/rdock/2013.1/src/exe/rbdock.cxx#4 $)

>  <Rbt.Library>
libRbt.so (2013.1, Build901 2013/11/27)

>  <Rbt.Parameter_File>
/export/apps/rDock/src/rDock_2013.1_src/data/scripts/dock_solv.prm

>  <Rbt.Receptor>
prm/blind_docking_100.prm

>  <SCORE>
24.9207

>  <SCORE.INTER>
-0.797585

>  <SCORE.INTER.CONST>
1

>  <SCORE.INTER.POLAR>
0

>  <SCORE.INTER.ROT>
6

>  <SCORE.INTER.SOLV>
26.7467

>  <SCORE.INTER.VDW>
-17.0473

>  <SCORE.INTER.norm>
-0.0215563

>  <SCORE.INTRA>
9.75626

>  <SCORE.INTRA.DIHEDRAL>
0.211216

>  <SCORE.INTRA.DIHEDRAL.0>
11.3972

>  <SCORE.INTRA.POLAR>
0

>  <SCORE.INTRA.POLAR.0>
0

>  <SCORE.INTRA.REPUL>
0

>  <SCORE.INTRA.REPUL.0>
0

>  <SCORE.INTRA.SOLV>
5.15916

>  <SCORE.INTRA.SOLV.lig_0>
-92.3891

>  <SCORE.INTRA.VDW>
7.07108

>  <SCORE.INTRA.VDW.0>
-2.90606

>  <SCORE.INTRA.norm>
0.263683

>  <SCORE.RESTR>
15.962

>  <SCORE.RESTR.CAVITY>
15.962

>  <SCORE.RESTR.norm>
0.431405

>  <SCORE.SYSTEM>
0

>  <SCORE.SYSTEM.CONST>
0

>  <SCORE.SYSTEM.DIHEDRAL>
0

>  <SCORE.SYSTEM.SOLV>
0

>  <SCORE.SYSTEM.norm>
0

>  <SCORE.heavy>
37

>  <SCORE.norm>
0.673531

>  <RMSD>
7.335

$$$$
ligand
 OpenBabel02271912133D
libRbt.so/2013.1/901 2013/11/27
 37 40  0  0  0  0  0  0  0  0999 V2000
   -6.7560   26.6750   63.5594 C   0  0  1  0  0  0  0  0  0  0  0  0
   -7.9437   27.3923   64.2619 C   0  0  1  0  0  0  0  0  0  0  0  0
   -8.1780   26.8585   65.6879 C   0  0  0  0  0  0  0  0  0  0  0  0
   -8.4192   25.3183   65.6178 C   0  0  1  0  0  0  0  0  0  0  0  0
   -7.1984   24.5989   64.9576 C   0  0  1  0  0  0  0  0  0  0  0  0
   -7.4670   23.0277   64.8945 C   0  0  1  0  0  0  0  0  0  0  0  0
   -7.6927   22.4953   66.3400 C   0  0  1  0  0  0  0  0  0  0  0  0
   -8.8951   23.2691   66.9598 C   0  0  2  0  0  0  0  0  0  0  0  0
   -9.2692   20.5062   66.8580 C   0  0  0  0  0  0  0  0  0  0  0  0
   -7.7276   28.8544   64.2869 N   0  0  0  0  0  0  0  0  0  0  0  0
   -7.9652   21.0093   66.3200 N   0  0  0  0  0  0  0  0  0  0  0  0
   -5.4842   27.0009   64.1531 O   0  0  0  0  0  0  0  0  0  0  0  0
   -6.9970   25.2091   63.6096 O   0  0  0  0  0  0  0  0  0  0  0  0
   -8.6558   24.7182   66.9718 O   0  0  0  0  0  0  0  0  0  0  0  0
   -8.6425   22.7720   64.1369 O   0  0  0  0  0  0  0  0  0  0  0  0
   -9.1254   22.8266   68.2926 O   0  0  0  0  0  0  0  0  0  0  0  0
   -8.1902   23.3626   69.2607 C   0  0  2  0  0  0  0  0  0  0  0  0
   -8.3663   22.7491   70.6700 C   0  0  1  0  0  0  0  0  0  0  0  0
   -9.7409   23.1613   71.2888 C   0  0  2  0  0  0  0  0  0  0  0  0
   -9.7988   24.6715   71.3974 C   0  0  1  0  0  0  0  0  0  0  0  0
   -9.6498   25.2860   69.9733 C   0  0  1  0  0  0  0  0  0  0  0  0
   -9.6757   26.8131   69.9989 C   0  0  0  0  0  0  0  0  0  0  0  0
  -11.0917   25.0698   72.0045 N   0  0  0  0  0  0  0  0  0  0  0  0
   -8.3546   24.8428   69.3717 O   0  0  0  0  0  0  0  0  0  0  0  0
   -8.2293   21.3167   70.5374 O   0  0  0  0  0  0  0  0  0  0  0  0
   -9.8743   22.5966   72.5951 O   0  0  0  0  0  0  0  0  0  0  0  0
   -8.4487   27.2909   70.4944 O   0  0  0  0  0  0  0  0  0  0  0  0
   -5.2445   27.0092   65.6472 C   0  0  1  0  0  0  0  0  0  0  0  0
   -4.2400   25.8742   65.9871 C   0  0  1  0  0  0  0  0  0  0  0  0
   -3.9674   25.8445   67.5190 C   0  0  2  0  0  0  0  0  0  0  0  0
   -3.3710   27.2055   67.9553 C   0  0  1  0  0  0  0  0  0  0  0  0
   -4.3711   28.3724   67.6309 C   0  0  0  0  0  0  0  0  0  0  0  0
   -4.6385   28.3715   66.1107 C   0  0  2  0  0  0  0  0  0  0  0  0
   -3.1004   27.1865   69.4130 N   0  0  0  0  0  0  0  0  0  0  0  0
   -5.5738   29.4626   65.8163 N   0  0  0  0  0  0  0  0  0  0  0  0
   -4.7938   24.6038   65.5788 O   0  0  0  0  0  0  0  0  0  0  0  0
   -3.0367   24.7779   67.8085 O   0  0  0  0  0  0  0  0  0  0  0  0
  1  2  1  0  0  0  0
  1 12  1  1  0  0  0
  1 13  1  0  0  0  0
  2  3  1  0  0  0  0
  2 10  1  1  0  0  0
  4  3  1  1  0  0  0
  4  5  1  0  0  0  0
  4 14  1  0  0  0  0
  5  6  1  0  0  0  0
  5 13  1  6  0  0  0
  6  7  1  0  0  0  0
  6 15  1  6  0  0  0
  7  8  1  0  0  0  0
  7 11  1  6  0  0  0
  8 14  1  0  0  0  0
  8 16  1  1  0  0  0
  9 11  1  0  0  0  0
 17 16  1  6  0  0  0
 17 18  1  0  0  0  0
 17 24  1  0  0  0  0
 18 19  1  0  0  0  0
 18 25  1  6  0  0  0
 19 20  1  0  0  0  0
 19 26  1  1  0  0  0
 20 21  1  0  0  0  0
 20 23  1  6  0  0  0
 21 22  1  1  0  0  0
 21 24  1  0  0  0  0
 22 27  1  0  0  0  0
 28 12  1  6  0  0  0
 28 29  1  0  0  0  0
 28 33  1  0  0  0  0
 29 30  1  0  0  0  0
 29 36  1  1  0  0  0
 30 31  1  0  0  0  0
 30 37  1  6  0  0  0
 31 32  1  0  0  0  0
 31 34  1  1  0  0  0
 32 33  1  0  0  0  0
 33 35  1  1  0  0  0
M  END
>  <CHROM.1>
45.89326425,-119.63271582,77.35345371,114.02602013,-173.77979319,74.79074757
-7.31570904,25.05303995,67.41800696,0.47514082,-0.91893671,-1.90871846

>  <Name>
ligand

>  <RI>
0

>  <Rbt.Current_Directory>
/home/itssahil/PROJECTS/Mol_Feturizer/Test_systems_manuscript/rnas/2g5k

>  <Rbt.Executable>
rbdock ($Id: //depot/dev/client3/rdock/2013.1/src/exe/rbdock.cxx#4 $)

>  <Rbt.Library>
libRbt.so (2013.1, Build901 2013/11/27)

>  <Rbt.Parameter_File>
/export/apps/rDock/src/rDock_2013.1_src/data/scripts/dock_solv.prm

>  <Rbt.Receptor>
prm/blind_docking_100.prm

>  <SCORE>
24.8442

>  <SCORE.INTER>
-0.522099

>  <SCORE.INTER.CONST>
1

>  <SCORE.INTER.POLAR>
0

>  <SCORE.INTER.ROT>
6

>  <SCORE.INTER.SOLV>
26.8186

>  <SCORE.INTER.VDW>
-16.8876

>  <SCORE.INTER.norm>
-0.0141108

>  <SCORE.INTRA>
9.36264

>  <SCORE.INTRA.DIHEDRAL>
0.123781

>  <SCORE.INTRA.DIHEDRAL.0>
11.3972

>  <SCORE.INTRA.POLAR>
0

>  <SCORE.INTRA.POLAR.0>
0

>  <SCORE.INTRA.REPUL>
0

>  <SCORE.INTRA.REPUL.0>
0

>  <SCORE.INTRA.SOLV>
5.1418

>  <SCORE.INTRA.SOLV.lig_0>
-92.3891

>  <SCORE.INTRA.VDW>
6.72985

>  <SCORE.INTRA.VDW.0>
-2.90606

>  <SCORE.INTRA.norm>
0.253044

>  <SCORE.RESTR>
16.0036

>  <SCORE.RESTR.CAVITY>
16.0036

>  <SCORE.RESTR.norm>
0.432531

>  <SCORE.SYSTEM>
0

>  <SCORE.SYSTEM.CONST>
0

>  <SCORE.SYSTEM.DIHEDRAL>
0

>  <SCORE.SYSTEM.SOLV>
0

>  <SCORE.SYSTEM.norm>
0

>  <SCORE.heavy>
37

>  <SCORE.norm>
0.671464

>  <RMSD>
7.347

$$$$
ligand
 OpenBabel02271912133D
libRbt.so/2013.1/901 2013/11/27
 37 40  0  0  0  0  0  0  0  0999 V2000
   -6.7364   26.6809   63.5609 C   0  0  1  0  0  0  0  0  0  0  0  0
   -7.9246   27.3844   64.2763 C   0  0  1  0  0  0  0  0  0  0  0  0
   -8.1782   26.8035   65.6805 C   0  0  0  0  0  0  0  0  0  0  0  0
   -8.4325   25.2690   65.5543 C   0  0  1  0  0  0  0  0  0  0  0  0
   -7.2116   24.5617   64.8815 C   0  0  1  0  0  0  0  0  0  0  0  0
   -7.4937   22.9962   64.7610 C   0  0  1  0  0  0  0  0  0  0  0  0
   -7.7388   22.4159   66.1847 C   0  0  1  0  0  0  0  0  0  0  0  0
   -8.9404   23.1789   66.8193 C   0  0  2  0  0  0  0  0  0  0  0  0
   -7.9587   20.1212   67.3663 C   0  0  0  0  0  0  0  0  0  0  0  0
   -7.6957   28.8427   64.3544 N   0  0  0  0  0  0  0  0  0  0  0  0
   -8.0245   20.9342   66.1102 N   0  0  0  0  0  0  0  0  0  0  0  0
   -5.4678   26.9741   64.1781 O   0  0  0  0  0  0  0  0  0  0  0  0
   -6.9911   25.2165   63.5576 O   0  0  0  0  0  0  0  0  0  0  0  0
   -8.6882   24.6244   66.8842 O   0  0  0  0  0  0  0  0  0  0  0  0
   -8.6638   22.7780   63.9834 O   0  0  0  0  0  0  0  0  0  0  0  0
   -9.1881   22.6924   68.1335 O   0  0  0  0  0  0  0  0  0  0  0  0
   -8.1378   23.0001   69.0828 C   0  0  2  0  0  0  0  0  0  0  0  0
   -8.4350   22.4631   70.5030 C   0  0  1  0  0  0  0  0  0  0  0  0
   -9.6617   23.2000   71.1312 C   0  0  2  0  0  0  0  0  0  0  0  0
   -9.3547   24.6813   71.2180 C   0  0  1  0  0  0  0  0  0  0  0  0
   -9.0838   25.2254   69.7833 C   0  0  1  0  0  0  0  0  0  0  0  0
   -8.7429   26.7144   69.7865 C   0  0  0  0  0  0  0  0  0  0  0  0
  -10.5057   25.3848   71.8339 N   0  0  0  0  0  0  0  0  0  0  0  0
   -7.9413   24.4777   69.1736 O   0  0  0  0  0  0  0  0  0  0  0  0
   -8.6469   21.0382   70.3902 O   0  0  0  0  0  0  0  0  0  0  0  0
   -9.9073   22.6990   72.4472 O   0  0  0  0  0  0  0  0  0  0  0  0
   -9.8604   27.4465   70.2277 O   0  0  0  0  0  0  0  0  0  0  0  0
   -5.2548   26.9735   65.6763 C   0  0  1  0  0  0  0  0  0  0  0  0
   -4.2677   25.8272   66.0289 C   0  0  1  0  0  0  0  0  0  0  0  0
   -4.0230   25.7881   67.5653 C   0  0  2  0  0  0  0  0  0  0  0  0
   -3.4212   27.1412   68.0183 C   0  0  1  0  0  0  0  0  0  0  0  0
   -4.4039   28.3194   67.6814 C   0  0  0  0  0  0  0  0  0  0  0  0
   -4.6439   28.3277   66.1567 C   0  0  2  0  0  0  0  0  0  0  0  0
   -3.1769   27.1131   69.4805 N   0  0  0  0  0  0  0  0  0  0  0  0
   -5.5631   29.4293   65.8506 N   0  0  0  0  0  0  0  0  0  0  0  0
   -4.8266   24.5641   65.6049 O   0  0  0  0  0  0  0  0  0  0  0  0
   -3.1080   24.7111   67.8665 O   0  0  0  0  0  0  0  0  0  0  0  0
  1  2  1  0  0  0  0
  1 12  1  1  0  0  0
  1 13  1  0  0  0  0
  2  3  1  0  0  0  0
  2 10  1  1  0  0  0
  4  3  1  1  0  0  0
  4  5  1  0  0  0  0
  4 14  1  0  0  0  0
  5  6  1  0  0  0  0
  5 13  1  6  0  0  0
  6  7  1  0  0  0  0
  6 15  1  6  0  0  0
  7  8  1  0  0  0  0
  7 11  1  6  0  0  0
  8 14  1  0  0  0  0
  8 16  1  1  0  0  0
  9 11  1  0  0  0  0
 17 16  1  6  0  0  0
 17 18  1  0  0  0  0
 17 24  1  0  0  0  0
 18 19  1  0  0  0  0
 18 25  1  6  0  0  0
 19 20  1  0  0  0  0
 19 26  1  1  0  0  0
 20 21  1  0  0  0  0
 20 23  1  6  0  0  0
 21 22  1  1  0  0  0
 21 24  1  0  0  0  0
 22 27  1  0  0  0  0
 28 12  1  6  0  0  0
 28 29  1  0  0  0  0
 28 33  1  0  0  0  0
 29 30  1  0  0  0  0
 29 36  1  1  0  0  0
 30 31  1  0  0  0  0
 30 37  1  6  0  0  0
 31 32  1  0  0  0  0
 31 34  1  1  0  0  0
 32 33  1  0  0  0  0
 33 35  1  1  0  0  0
M  END
>  <CHROM.1>
43.77129123,165.26406788,67.56391845,114.89052205,179.84183594,-64.96393845
-7.27086085,24.98761063,67.35901757,0.37575928,-0.98304648,-1.99626121

>  <Name>
ligand

>  <RI>
0

>  <Rbt.Current_Directory>
/home/itssahil/PROJECTS/Mol_Feturizer/Test_systems_manuscript/rnas/2g5k

>  <Rbt.Executable>
rbdock ($Id: //depot/dev/client3/rdock/2013.1/src/exe/rbdock.cxx#4 $)

>  <Rbt.Library>
libRbt.so (2013.1, Build901 2013/11/27)

>  <Rbt.Parameter_File>
/export/apps/rDock/src/rDock_2013.1_src/data/scripts/dock_solv.prm

>  <Rbt.Receptor>
prm/blind_docking_100.prm

>  <SCORE>
18.3393

>  <SCORE.INTER>
-1.80653

>  <SCORE.INTER.CONST>
1

>  <SCORE.INTER.POLAR>
0

>  <SCORE.INTER.ROT>
6

>  <SCORE.INTER.SOLV>
27.4938

>  <SCORE.INTER.VDW>
-17.969

>  <SCORE.INTER.norm>
-0.0488252

>  <SCORE.INTRA>
4.72369

>  <SCORE.INTRA.DIHEDRAL>
-2.53487

>  <SCORE.INTRA.DIHEDRAL.0>
11.3972

>  <SCORE.INTRA.POLAR>
0

>  <SCORE.INTRA.POLAR.0>
0

>  <SCORE.INTRA.REPUL>
0

>  <SCORE.INTRA.REPUL.0>
0

>  <SCORE.INTRA.SOLV>
5.85605

>  <SCORE.INTRA.SOLV.lig_0>
-92.3891

>  <SCORE.INTRA.VDW>
3.0631

>  <SCORE.INTRA.VDW.0>
-2.90606

>  <SCORE.INTRA.norm>
0.127667

>  <SCORE.RESTR>
15.4222

>  <SCORE.RESTR.CAVITY>
15.4222

>  <SCORE.RESTR.norm>
0.416815

>  <SCORE.SYSTEM>
0

>  <SCORE.SYSTEM.CONST>
0

>  <SCORE.SYSTEM.DIHEDRAL>
0

>  <SCORE.SYSTEM.SOLV>
0

>  <SCORE.SYSTEM.norm>
0

>  <SCORE.heavy>
37

>  <SCORE.norm>
0.495657

>  <RMSD>
7.358

$$$$
ligand
 OpenBabel02271912133D
libRbt.so/2013.1/901 2013/11/27
 37 40  0  0  0  0  0  0  0  0999 V2000
   -7.3370   27.0029   63.7296 C   0  0  1  0  0  0  0  0  0  0  0  0
   -8.8711   27.0912   63.9687 C   0  0  1  0  0  0  0  0  0  0  0  0
   -9.2587   26.6562   65.3949 C   0  0  0  0  0  0  0  0  0  0  0  0
   -8.7385   25.2054   65.6397 C   0  0  1  0  0  0  0  0  0  0  0  0
   -7.1886   25.1361   65.4483 C   0  0  1  0  0  0  0  0  0  0  0  0
   -6.6794   23.6457   65.7012 C   0  0  1  0  0  0  0  0  0  0  0  0
   -7.0663   23.2181   67.1473 C   0  0  1  0  0  0  0  0  0  0  0  0
   -8.6133   23.3393   67.2916 C   0  0  2  0  0  0  0  0  0  0  0  0
   -7.6358   20.7103   67.4592 C   0  0  0  0  0  0  0  0  0  0  0  0
   -9.3631   28.4579   63.6941 N   0  0  0  0  0  0  0  0  0  0  0  0
   -6.6123   21.8030   67.4200 N   0  0  0  0  0  0  0  0  0  0  0  0
   -6.6017   27.9811   64.4904 O   0  0  0  0  0  0  0  0  0  0  0  0
   -6.8871   25.6280   64.0709 O   0  0  0  0  0  0  0  0  0  0  0  0
   -9.0759   24.7052   67.0128 O   0  0  0  0  0  0  0  0  0  0  0  0
   -7.3162   22.7600   64.7893 O   0  0  0  0  0  0  0  0  0  0  0  0
   -9.0106   22.9755   68.6087 O   0  0  0  0  0  0  0  0  0  0  0  0
   -8.1578   23.5116   69.6501 C   0  0  2  0  0  0  0  0  0  0  0  0
   -8.5308   22.9926   71.0590 C   0  0  1  0  0  0  0  0  0  0  0  0
   -9.9368   23.5196   71.4922 C   0  0  2  0  0  0  0  0  0  0  0  0
   -9.9090   25.0344   71.5158 C   0  0  1  0  0  0  0  0  0  0  0  0
   -9.5612   25.5551   70.0890 C   0  0  1  0  0  0  0  0  0  0  0  0
   -9.4912   27.0800   70.0332 C   0  0  0  0  0  0  0  0  0  0  0  0
  -11.2337   25.5420   71.9476 N   0  0  0  0  0  0  0  0  0  0  0  0
   -8.2378   25.0029   69.6652 O   0  0  0  0  0  0  0  0  0  0  0  0
   -8.4724   21.5494   71.0168 O   0  0  0  0  0  0  0  0  0  0  0  0
  -10.2527   23.0407   72.8014 O   0  0  0  0  0  0  0  0  0  0  0  0
   -9.5284   27.4985   68.6905 O   0  0  0  0  0  0  0  0  0  0  0  0
   -5.5555   27.6147   65.5206 C   0  0  1  0  0  0  0  0  0  0  0  0
   -6.1648   26.5563   66.4805 C   0  0  1  0  0  0  0  0  0  0  0  0
   -5.1205   26.1530   67.5615 C   0  0  2  0  0  0  0  0  0  0  0  0
   -3.8728   25.5562   66.8647 C   0  0  1  0  0  0  0  0  0  0  0  0
   -3.2301   26.6097   65.8930 C   0  0  0  0  0  0  0  0  0  0  0  0
   -4.2883   27.0060   64.8414 C   0  0  2  0  0  0  0  0  0  0  0  0
   -2.8730   25.1614   67.8860 N   0  0  0  0  0  0  0  0  0  0  0  0
   -3.6810   27.9905   63.9392 N   0  0  0  0  0  0  0  0  0  0  0  0
   -7.3304   27.1106   67.1299 O   0  0  0  0  0  0  0  0  0  0  0  0
   -5.7135   25.1740   68.4434 O   0  0  0  0  0  0  0  0  0  0  0  0
  1  2  1  0  0  0  0
  1 12  1  1  0  0  0
  1 13  1  0  0  0  0
  2  3  1  0  0  0  0
  2 10  1  1  0  0  0
  4  3  1  1  0  0  0
  4  5  1  0  0  0  0
  4 14  1  0  0  0  0
  5  6  1  0  0  0  0
  5 13  1  6  0  0  0
  6  7  1  0  0  0  0
  6 15  1  6  0  0  0
  7  8  1  0  0  0  0
  7 11  1  6  0  0  0
  8 14  1  0  0  0  0
  8 16  1  1  0  0  0
  9 11  1  0  0  0  0
 17 16  1  6  0  0  0
 17 18  1  0  0  0  0
 17 24  1  0  0  0  0
 18 19  1  0  0  0  0
 18 25  1  6  0  0  0
 19 20  1  0  0  0  0
 19 26  1  1  0  0  0
 20 21  1  0  0  0  0
 20 23  1  6  0  0  0
 21 22  1  1  0  0  0
 21 24  1  0  0  0  0
 22 27  1  0  0  0  0
 28 12  1  6  0  0  0
 28 29  1  0  0  0  0
 28 33  1  0  0  0  0
 29 30  1  0  0  0  0
 29 36  1  1  0  0  0
 30 31  1  0  0  0  0
 30 37  1  1  0  0  0
 31 32  1  0  0  0  0
 31 34  1  1  0  0  0
 32 33  1  0  0  0  0
 33 35  1  6  0  0  0
M  END
>  <CHROM.1>
119.53980909,-105.95101321,42.94472314,-50.16351472,-174.52960698,-164.60913256
-7.52362628,25.15549587,67.43938422,0.97695751,0.58694235,-0.72526029

>  <Name>
ligand

>  <RI>
0

>  <Rbt.Current_Directory>
/home/itssahil/PROJECTS/Mol_Feturizer/Test_systems_manuscript/rnas/2g5k

>  <Rbt.Executable>
rbdock ($Id: //depot/dev/client3/rdock/2013.1/src/exe/rbdock.cxx#4 $)

>  <Rbt.Library>
libRbt.so (2013.1, Build901 2013/11/27)

>  <Rbt.Parameter_File>
/export/apps/rDock/src/rDock_2013.1_src/data/scripts/dock_solv.prm

>  <Rbt.Receptor>
prm/blind_docking_100.prm

>  <SCORE>
42.0571

>  <SCORE.INTER>
3.33919

>  <SCORE.INTER.CONST>
1

>  <SCORE.INTER.POLAR>
0

>  <SCORE.INTER.ROT>
6

>  <SCORE.INTER.SOLV>
24.2138

>  <SCORE.INTER.VDW>
-13.4451

>  <SCORE.INTER.norm>
0.0902484

>  <SCORE.INTRA>
23.5231

>  <SCORE.INTRA.DIHEDRAL>
-0.365807

>  <SCORE.INTRA.DIHEDRAL.0>
11.3972

>  <SCORE.INTRA.POLAR>
0

>  <SCORE.INTRA.POLAR.0>
0

>  <SCORE.INTRA.REPUL>
0.375727

>  <SCORE.INTRA.REPUL.0>
0

>  <SCORE.INTRA.SOLV>
4.51099

>  <SCORE.INTRA.SOLV.lig_0>
-92.3891

>  <SCORE.INTRA.VDW>
19.5719

>  <SCORE.INTRA.VDW.0>
-2.90606

>  <SCORE.INTRA.norm>
0.635759

>  <SCORE.RESTR>
15.1948

>  <SCORE.RESTR.CAVITY>
15.1948

>  <SCORE.RESTR.norm>
0.410671

>  <SCORE.SYSTEM>
0

>  <SCORE.SYSTEM.CONST>
0

>  <SCORE.SYSTEM.DIHEDRAL>
0

>  <SCORE.SYSTEM.SOLV>
0

>  <SCORE.SYSTEM.norm>
0

>  <SCORE.heavy>
37

>  <SCORE.norm>
1.13668

>  <RMSD>
7.380

$$$$
ligand
 OpenBabel02271912133D
libRbt.so/2013.1/901 2013/11/27
 37 40  0  0  0  0  0  0  0  0999 V2000
    4.5430   26.9591   62.4753 C   0  0  1  0  0  0  0  0  0  0  0  0
    5.2422   27.5139   63.7489 C   0  0  1  0  0  0  0  0  0  0  0  0
    4.2465   27.7360   64.9032 C   0  0  0  0  0  0  0  0  0  0  0  0
    3.1197   28.7015   64.4200 C   0  0  1  0  0  0  0  0  0  0  0  0
    2.3873   28.1123   63.1710 C   0  0  1  0  0  0  0  0  0  0  0  0
    1.2424   29.1152   62.6935 C   0  0  1  0  0  0  0  0  0  0  0  0
    0.2357   29.3259   63.8622 C   0  0  1  0  0  0  0  0  0  0  0  0
    1.0237   29.8798   65.0873 C   0  0  2  0  0  0  0  0  0  0  0  0
   -2.1929   29.7304   63.0566 C   0  0  0  0  0  0  0  0  0  0  0  0
    6.3356   26.6154   64.1759 N   0  0  0  0  0  0  0  0  0  0  0  0
   -0.8585   30.2837   63.4518 N   0  0  0  0  0  0  0  0  0  0  0  0
    4.0673   25.6101   62.6491 O   0  0  0  0  0  0  0  0  0  0  0  0
    3.4216   27.8683   62.1218 O   0  0  0  0  0  0  0  0  0  0  0  0
    2.1038   28.9697   65.4904 O   0  0  0  0  0  0  0  0  0  0  0  0
    1.8141   30.3748   62.3653 O   0  0  0  0  0  0  0  0  0  0  0  0
    0.1429   30.0697   66.1888 O   0  0  0  0  0  0  0  0  0  0  0  0
    0.6810   30.9170   67.2336 C   0  0  2  0  0  0  0  0  0  0  0  0
   -0.2524   31.0217   68.4630 C   0  0  1  0  0  0  0  0  0  0  0  0
   -1.5759   31.7668   68.0951 C   0  0  2  0  0  0  0  0  0  0  0  0
   -1.2373   33.1626   67.6124 C   0  0  1  0  0  0  0  0  0  0  0  0
   -0.3204   33.0540   66.3573 C   0  0  1  0  0  0  0  0  0  0  0  0
    0.0861   34.4250   65.8202 C   0  0  0  0  0  0  0  0  0  0  0  0
   -2.4900   33.8841   67.2823 N   0  0  0  0  0  0  0  0  0  0  0  0
    0.9190   32.2948   66.7089 O   0  0  0  0  0  0  0  0  0  0  0  0
   -0.4906   29.6785   68.9397 O   0  0  0  0  0  0  0  0  0  0  0  0
   -2.4145   31.8652   69.2485 O   0  0  0  0  0  0  0  0  0  0  0  0
    0.8531   35.0959   66.7903 O   0  0  0  0  0  0  0  0  0  0  0  0
    4.9637   24.3953   62.5460 C   0  0  1  0  0  0  0  0  0  0  0  0
    4.1468   23.1472   62.9794 C   0  0  1  0  0  0  0  0  0  0  0  0
    5.0346   21.8721   62.8918 C   0  0  2  0  0  0  0  0  0  0  0  0
    5.5170   21.6883   61.4317 C   0  0  1  0  0  0  0  0  0  0  0  0
    6.3547   22.9340   60.9694 C   0  0  0  0  0  0  0  0  0  0  0  0
    5.4597   24.1867   61.0803 C   0  0  2  0  0  0  0  0  0  0  0  0
    6.3586   20.4715   61.3346 N   0  0  0  0  0  0  0  0  0  0  0  0
    6.2493   25.3450   60.6483 N   0  0  0  0  0  0  0  0  0  0  0  0
    3.6940   23.3179   64.3407 O   0  0  0  0  0  0  0  0  0  0  0  0
    4.2541   20.7287   63.3054 O   0  0  0  0  0  0  0  0  0  0  0  0
  1  2  1  0  0  0  0
  1 12  1  1  0  0  0
  1 13  1  0  0  0  0
  2  3  1  0  0  0  0
  2 10  1  1  0  0  0
  4  3  1  1  0  0  0
  4  5  1  0  0  0  0
  4 14  1  0  0  0  0
  5  6  1  0  0  0  0
  5 13  1  6  0  0  0
  6  7  1  0  0  0  0
  6 15  1  1  0  0  0
  7  8  1  0  0  0  0
  7 11  1  6  0  0  0
  8 14  1  0  0  0  0
  8 16  1  1  0  0  0
  9 11  1  0  0  0  0
 17 16  1  6  0  0  0
 17 18  1  0  0  0  0
 17 24  1  0  0  0  0
 18 19  1  0  0  0  0
 18 25  1  6  0  0  0
 19 20  1  0  0  0  0
 19 26  1  1  0  0  0
 20 21  1  0  0  0  0
 20 23  1  6  0  0  0
 21 22  1  1  0  0  0
 21 24  1  0  0  0  0
 22 27  1  0  0  0  0
 28 12  1  6  0  0  0
 28 29  1  0  0  0  0
 28 33  1  0  0  0  0
 29 30  1  0  0  0  0
 29 36  1  1  0  0  0
 30 31  1  0  0  0  0
 30 37  1  6  0  0  0
 31 32  1  0  0  0  0
 31 34  1  1  0  0  0
 32 33  1  0  0  0  0
 33 35  1  1  0  0  0
M  END
>  <CHROM.1>
-79.98423152,101.17193371,-163.56188843,172.41163508,-175.75388054,63.30581605
2.19785980,28.19897506,64.46602475,-0.57014481,0.93199074,-0.41459693

>  <Name>
ligand

>  <RI>
0

>  <Rbt.Current_Directory>
/home/itssahil/PROJECTS/Mol_Feturizer/Test_systems_manuscript/rnas/2g5k

>  <Rbt.Executable>
rbdock ($Id: //depot/dev/client3/rdock/2013.1/src/exe/rbdock.cxx#4 $)

>  <Rbt.Library>
libRbt.so (2013.1, Build901 2013/11/27)

>  <Rbt.Parameter_File>
/export/apps/rDock/src/rDock_2013.1_src/data/scripts/dock_solv.prm

>  <Rbt.Receptor>
prm/pocket_docking_8.prm

>  <SCORE>
-11.7574

>  <SCORE.INTER>
-9.10042

>  <SCORE.INTER.CONST>
1

>  <SCORE.INTER.POLAR>
0

>  <SCORE.INTER.ROT>
6

>  <SCORE.INTER.SOLV>
11.0527

>  <SCORE.INTER.VDW>
-17.3512

>  <SCORE.INTER.norm>
-0.245957

>  <SCORE.INTRA>
-2.65695

>  <SCORE.INTRA.DIHEDRAL>
-6.97915

>  <SCORE.INTRA.DIHEDRAL.0>
11.3972

>  <SCORE.INTRA.POLAR>
0

>  <SCORE.INTRA.POLAR.0>
0

>  <SCORE.INTRA.REPUL>
0

>  <SCORE.INTRA.REPUL.0>
0

>  <SCORE.INTRA.SOLV>
2.05684

>  <SCORE.INTRA.SOLV.lig_0>
-92.3891

>  <SCORE.INTRA.VDW>
-0.195796

>  <SCORE.INTRA.VDW.0>
-2.90606

>  <SCORE.INTRA.norm>
-0.0718095

>  <SCORE.RESTR>
0

>  <SCORE.RESTR.CAVITY>
0

>  <SCORE.RESTR.norm>
0

>  <SCORE.SYSTEM>
0

>  <SCORE.SYSTEM.CONST>
0

>  <SCORE.SYSTEM.DIHEDRAL>
0

>  <SCORE.SYSTEM.SOLV>
0

>  <SCORE.SYSTEM.norm>
0

>  <SCORE.heavy>
37

>  <SCORE.norm>
-0.317767

>  <RMSD>
7.522

$$$$
ligand
 OpenBabel02271912133D
libRbt.so/2013.1/901 2013/11/27
 37 40  0  0  0  0  0  0  0  0999 V2000
   -4.6054   28.0534   67.7977 C   0  0  1  0  0  0  0  0  0  0  0  0
   -3.6986   26.9911   68.4816 C   0  0  1  0  0  0  0  0  0  0  0  0
   -3.8769   25.5934   67.8588 C   0  0  0  0  0  0  0  0  0  0  0  0
   -5.3806   25.1866   67.9520 C   0  0  1  0  0  0  0  0  0  0  0  0
   -6.2809   26.2323   67.2173 C   0  0  1  0  0  0  0  0  0  0  0  0
   -7.8120   25.7982   67.3268 C   0  0  1  0  0  0  0  0  0  0  0  0
   -7.9848   24.3897   66.6864 C   0  0  1  0  0  0  0  0  0  0  0  0
   -7.0418   23.3984   67.4325 C   0  0  2  0  0  0  0  0  0  0  0  0
  -10.0657   23.3076   65.5865 C   0  0  0  0  0  0  0  0  0  0  0  0
   -2.2802   27.4039   68.4263 N   0  0  0  0  0  0  0  0  0  0  0  0
   -9.4230   23.9369   66.7840 N   0  0  0  0  0  0  0  0  0  0  0  0
   -4.2004   28.3369   66.4442 O   0  0  0  0  0  0  0  0  0  0  0  0
   -6.0089   27.5653   67.8330 O   0  0  0  0  0  0  0  0  0  0  0  0
   -5.6401   23.8316   67.3635 O   0  0  0  0  0  0  0  0  0  0  0  0
   -8.1905   25.7151   68.6947 O   0  0  0  0  0  0  0  0  0  0  0  0
   -7.1533   22.0981   66.8652 O   0  0  0  0  0  0  0  0  0  0  0  0
   -7.0474   21.0234   67.8311 C   0  0  2  0  0  0  0  0  0  0  0  0
   -8.2717   20.0778   67.8147 C   0  0  1  0  0  0  0  0  0  0  0  0
   -9.5565   20.8221   68.3021 C   0  0  2  0  0  0  0  0  0  0  0  0
   -9.3328   21.3153   69.7173 C   0  0  1  0  0  0  0  0  0  0  0  0
   -8.1169   22.2896   69.7259 C   0  0  1  0  0  0  0  0  0  0  0  0
   -7.8104   22.8164   71.1266 C   0  0  0  0  0  0  0  0  0  0  0  0
  -10.5561   22.0037   70.1953 N   0  0  0  0  0  0  0  0  0  0  0  0
   -6.9058   21.5807   69.2094 O   0  0  0  0  0  0  0  0  0  0  0  0
   -8.4067   19.5695   66.4688 O   0  0  0  0  0  0  0  0  0  0  0  0
  -10.6698   19.9257   68.2935 O   0  0  0  0  0  0  0  0  0  0  0  0
   -8.8836   23.6108   71.5700 O   0  0  0  0  0  0  0  0  0  0  0  0
   -5.1743   28.4302   65.2897 C   0  0  1  0  0  0  0  0  0  0  0  0
   -5.3523   27.0107   64.6848 C   0  0  1  0  0  0  0  0  0  0  0  0
   -6.3462   27.0618   63.4883 C   0  0  2  0  0  0  0  0  0  0  0  0
   -7.7164   27.5822   63.9882 C   0  0  1  0  0  0  0  0  0  0  0  0
   -7.5676   29.0220   64.5981 C   0  0  0  0  0  0  0  0  0  0  0  0
   -6.5662   28.9492   65.7705 C   0  0  2  0  0  0  0  0  0  0  0  0
   -8.6743   27.6284   62.8574 N   0  0  0  0  0  0  0  0  0  0  0  0
   -6.4318   30.2972   66.3334 N   0  0  0  0  0  0  0  0  0  0  0  0
   -4.0744   26.5226   64.2199 O   0  0  0  0  0  0  0  0  0  0  0  0
   -6.4887   25.7322   62.9408 O   0  0  0  0  0  0  0  0  0  0  0  0
  1  2  1  0  0  0  0
  1 12  1  6  0  0  0
  1 13  1  0  0  0  0
  2  3  1  0  0  0  0
  2 10  1  6  0  0  0
  4  3  1  6  0  0  0
  4  5  1  0  0  0  0
  4 14  1  0  0  0  0
  5  6  1  0  0  0  0
  5 13  1  1  0  0  0
  6  7  1  0  0  0  0
  6 15  1  1  0  0  0
  7  8  1  0  0  0  0
  7 11  1  1  0  0  0
  8 14  1  0  0  0  0
  8 16  1  6  0  0  0
  9 11  1  0  0  0  0
 17 16  1  6  0  0  0
 17 18  1  0  0  0  0
 17 24  1  0  0  0  0
 18 19  1  0  0  0  0
 18 25  1  6  0  0  0
 19 20  1  0  0  0  0
 19 26  1  1  0  0  0
 20 21  1  0  0  0  0
 20 23  1  6  0  0  0
 21 22  1  1  0  0  0
 21 24  1  0  0  0  0
 22 27  1  0  0  0  0
 28 12  1  1  0  0  0
 28 29  1  0  0  0  0
 28 33  1  0  0  0  0
 29 30  1  0  0  0  0
 29 36  1  6  0  0  0
 30 31  1  0  0  0  0
 30 37  1  1  0  0  0
 31 32  1  0  0  0  0
 31 34  1  6  0  0  0
 32 33  1  0  0  0  0
 33 35  1  6  0  0  0
M  END
>  <CHROM.1>
134.62690093,135.75399885,-144.17430566,-88.66962991,123.67243546,-65.30305622
-7.02546907,24.85367803,67.11893684,-0.91874668,0.81585707,2.18633515

>  <Name>
ligand

>  <RI>
0

>  <Rbt.Current_Directory>
/home/itssahil/PROJECTS/Mol_Feturizer/Test_systems_manuscript/rnas/2g5k

>  <Rbt.Executable>
rbdock ($Id: //depot/dev/client3/rdock/2013.1/src/exe/rbdock.cxx#4 $)

>  <Rbt.Library>
libRbt.so (2013.1, Build901 2013/11/27)

>  <Rbt.Parameter_File>
/export/apps/rDock/src/rDock_2013.1_src/data/scripts/dock_solv.prm

>  <Rbt.Receptor>
prm/blind_docking_100.prm

>  <SCORE>
30.654

>  <SCORE.INTER>
2.72905

>  <SCORE.INTER.CONST>
1

>  <SCORE.INTER.POLAR>
0

>  <SCORE.INTER.ROT>
6

>  <SCORE.INTER.SOLV>
19.4347

>  <SCORE.INTER.VDW>
-12.2589

>  <SCORE.INTER.norm>
0.0737582

>  <SCORE.INTRA>
9.80722

>  <SCORE.INTRA.DIHEDRAL>
11.0553

>  <SCORE.INTRA.DIHEDRAL.0>
11.3972

>  <SCORE.INTRA.POLAR>
0

>  <SCORE.INTRA.POLAR.0>
0

>  <SCORE.INTRA.REPUL>
0

>  <SCORE.INTRA.REPUL.0>
0

>  <SCORE.INTRA.SOLV>
3.69197

>  <SCORE.INTRA.SOLV.lig_0>
-92.3891

>  <SCORE.INTRA.VDW>
2.43357

>  <SCORE.INTRA.VDW.0>
-2.90606

>  <SCORE.INTRA.norm>
0.26506

>  <SCORE.RESTR>
18.1177

>  <SCORE.RESTR.CAVITY>
18.1177

>  <SCORE.RESTR.norm>
0.489668

>  <SCORE.SYSTEM>
0

>  <SCORE.SYSTEM.CONST>
0

>  <SCORE.SYSTEM.DIHEDRAL>
0

>  <SCORE.SYSTEM.SOLV>
0

>  <SCORE.SYSTEM.norm>
0

>  <SCORE.heavy>
37

>  <SCORE.norm>
0.828486

>  <RMSD>
7.625

$$$$
ligand
 OpenBabel02271912133D
libRbt.so/2013.1/901 2013/11/27
 37 40  0  0  0  0  0  0  0  0999 V2000
   -4.6881   27.3256   67.9273 C   0  0  1  0  0  0  0  0  0  0  0  0
   -3.8518   26.1034   68.4020 C   0  0  1  0  0  0  0  0  0  0  0  0
   -4.1333   24.8478   67.5548 C   0  0  0  0  0  0  0  0  0  0  0  0
   -5.6609   24.5335   67.6091 C   0  0  1  0  0  0  0  0  0  0  0  0
   -6.4923   25.7476   67.0815 C   0  0  1  0  0  0  0  0  0  0  0  0
   -8.0490   25.4055   67.1477 C   0  0  1  0  0  0  0  0  0  0  0  0
   -8.3259   24.1420   66.2813 C   0  0  1  0  0  0  0  0  0  0  0  0
   -7.4479   22.9765   66.8285 C   0  0  2  0  0  0  0  0  0  0  0  0
  -10.5250   23.5561   65.0439 C   0  0  0  0  0  0  0  0  0  0  0  0
   -2.4085   26.4228   68.3879 N   0  0  0  0  0  0  0  0  0  0  0  0
   -9.7913   23.7773   66.3307 N   0  0  0  0  0  0  0  0  0  0  0  0
   -4.2766   27.8080   66.6334 O   0  0  0  0  0  0  0  0  0  0  0  0
   -6.1219   26.9345   67.9086 O   0  0  0  0  0  0  0  0  0  0  0  0
   -6.0200   23.3195   66.8047 O   0  0  0  0  0  0  0  0  0  0  0  0
   -8.4199   25.1158   68.4892 O   0  0  0  0  0  0  0  0  0  0  0  0
   -7.6553   21.8027   66.0512 O   0  0  0  0  0  0  0  0  0  0  0  0
   -8.0326   20.6403   66.8295 C   0  0  2  0  0  0  0  0  0  0  0  0
   -9.5411   20.6094   67.1712 C   0  0  1  0  0  0  0  0  0  0  0  0
   -9.9170   21.7787   68.1375 C   0  0  2  0  0  0  0  0  0  0  0  0
   -9.1182   21.6360   69.4172 C   0  0  1  0  0  0  0  0  0  0  0  0
   -7.5996   21.6960   69.0736 C   0  0  1  0  0  0  0  0  0  0  0  0
   -6.7215   21.5363   70.3132 C   0  0  0  0  0  0  0  0  0  0  0  0
   -9.4857   22.7297   70.3486 N   0  0  0  0  0  0  0  0  0  0  0  0
   -7.2629   20.6043   68.1088 O   0  0  0  0  0  0  0  0  0  0  0  0
  -10.2677   20.6706   65.9236 O   0  0  0  0  0  0  0  0  0  0  0  0
  -11.3103   21.7206   68.4512 O   0  0  0  0  0  0  0  0  0  0  0  0
   -7.1234   22.4648   71.2908 O   0  0  0  0  0  0  0  0  0  0  0  0
   -5.2476   28.0991   65.5099 C   0  0  1  0  0  0  0  0  0  0  0  0
   -5.3665   26.8279   64.6253 C   0  0  1  0  0  0  0  0  0  0  0  0
   -6.3556   27.0855   63.4518 C   0  0  2  0  0  0  0  0  0  0  0  0
   -7.7478   27.4408   64.0296 C   0  0  1  0  0  0  0  0  0  0  0  0
   -7.6588   28.7298   64.9228 C   0  0  0  0  0  0  0  0  0  0  0  0
   -6.6612   28.4561   66.0685 C   0  0  2  0  0  0  0  0  0  0  0  0
   -8.7011   27.6816   62.9198 N   0  0  0  0  0  0  0  0  0  0  0  0
   -6.5829   29.6644   66.8967 N   0  0  0  0  0  0  0  0  0  0  0  0
   -4.0680   26.4936   64.0870 O   0  0  0  0  0  0  0  0  0  0  0  0
   -6.4429   25.8918   62.6423 O   0  0  0  0  0  0  0  0  0  0  0  0
  1  2  1  0  0  0  0
  1 12  1  6  0  0  0
  1 13  1  0  0  0  0
  2  3  1  0  0  0  0
  2 10  1  6  0  0  0
  4  3  1  6  0  0  0
  4  5  1  0  0  0  0
  4 14  1  0  0  0  0
  5  6  1  0  0  0  0
  5 13  1  1  0  0  0
  6  7  1  0  0  0  0
  6 15  1  1  0  0  0
  7  8  1  0  0  0  0
  7 11  1  1  0  0  0
  8 14  1  0  0  0  0
  8 16  1  6  0  0  0
  9 11  1  0  0  0  0
 17 16  1  1  0  0  0
 17 18  1  0  0  0  0
 17 24  1  0  0  0  0
 18 19  1  0  0  0  0
 18 25  1  6  0  0  0
 19 20  1  0  0  0  0
 19 26  1  1  0  0  0
 20 21  1  0  0  0  0
 20 23  1  1  0  0  0
 21 22  1  1  0  0  0
 21 24  1  0  0  0  0
 22 27  1  0  0  0  0
 28 12  1  1  0  0  0
 28 29  1  0  0  0  0
 28 33  1  0  0  0  0
 29 30  1  0  0  0  0
 29 36  1  6  0  0  0
 30 31  1  0  0  0  0
 30 37  1  6  0  0  0
 31 32  1  0  0  0  0
 31 34  1  6  0  0  0
 32 33  1  0  0  0  0
 33 35  1  1  0  0  0
M  END
>  <CHROM.1>
131.57613823,128.98805979,-125.84472779,-93.12119933,81.81016771,-52.58890876
-7.17459522,24.61956004,66.88551483,-0.96820754,0.65499945,2.31323835

>  <Name>
ligand

>  <RI>
0

>  <Rbt.Current_Directory>
/home/itssahil/PROJECTS/Mol_Feturizer/Test_systems_manuscript/rnas/2g5k

>  <Rbt.Executable>
rbdock ($Id: //depot/dev/client3/rdock/2013.1/src/exe/rbdock.cxx#4 $)

>  <Rbt.Library>
libRbt.so (2013.1, Build901 2013/11/27)

>  <Rbt.Parameter_File>
/export/apps/rDock/src/rDock_2013.1_src/data/scripts/dock_solv.prm

>  <Rbt.Receptor>
prm/blind_docking_100.prm

>  <SCORE>
33.1734

>  <SCORE.INTER>
3.77871

>  <SCORE.INTER.CONST>
1

>  <SCORE.INTER.POLAR>
0

>  <SCORE.INTER.ROT>
6

>  <SCORE.INTER.SOLV>
20.0672

>  <SCORE.INTER.VDW>
-11.7699

>  <SCORE.INTER.norm>
0.102127

>  <SCORE.INTRA>
14.395

>  <SCORE.INTRA.DIHEDRAL>
9.79362

>  <SCORE.INTRA.DIHEDRAL.0>
11.3972

>  <SCORE.INTRA.POLAR>
0

>  <SCORE.INTRA.POLAR.0>
0

>  <SCORE.INTRA.REPUL>
0

>  <SCORE.INTRA.REPUL.0>
0

>  <SCORE.INTRA.SOLV>
6.93822

>  <SCORE.INTRA.SOLV.lig_0>
-92.3891

>  <SCORE.INTRA.VDW>
6.0291

>  <SCORE.INTRA.VDW.0>
-2.90606

>  <SCORE.INTRA.norm>
0.389055

>  <SCORE.RESTR>
14.9997

>  <SCORE.RESTR.CAVITY>
14.9997

>  <SCORE.RESTR.norm>
0.405397

>  <SCORE.SYSTEM>
0

>  <SCORE.SYSTEM.CONST>
0

>  <SCORE.SYSTEM.DIHEDRAL>
0

>  <SCORE.SYSTEM.SOLV>
0

>  <SCORE.SYSTEM.norm>
0

>  <SCORE.heavy>
37

>  <SCORE.norm>
0.896579

>  <RMSD>
7.674

$$$$
ligand
 OpenBabel02271912133D
libRbt.so/2013.1/901 2013/11/27
 37 40  0  0  0  0  0  0  0  0999 V2000
   -4.5495   27.9000   67.8126 C   0  0  1  0  0  0  0  0  0  0  0  0
   -3.6652   26.8100   68.4822 C   0  0  1  0  0  0  0  0  0  0  0  0
   -3.9007   25.4176   67.8664 C   0  0  0  0  0  0  0  0  0  0  0  0
   -5.4149   25.0604   67.9888 C   0  0  1  0  0  0  0  0  0  0  0  0
   -6.2942   26.1335   67.2684 C   0  0  1  0  0  0  0  0  0  0  0  0
   -7.8363   25.7498   67.4076 C   0  0  1  0  0  0  0  0  0  0  0  0
   -8.0670   24.3465   66.7742 C   0  0  1  0  0  0  0  0  0  0  0  0
   -7.1430   23.3264   67.5052 C   0  0  2  0  0  0  0  0  0  0  0  0
  -10.2198   23.3877   65.6987 C   0  0  0  0  0  0  0  0  0  0  0  0
   -2.2354   27.1761   68.3993 N   0  0  0  0  0  0  0  0  0  0  0  0
   -9.5171   23.9412   66.8999 N   0  0  0  0  0  0  0  0  0  0  0  0
   -4.1610   28.1675   66.4511 O   0  0  0  0  0  0  0  0  0  0  0  0
   -5.9673   27.4581   67.8754 O   0  0  0  0  0  0  0  0  0  0  0  0
   -5.7294   23.7134   67.4088 O   0  0  0  0  0  0  0  0  0  0  0  0
   -8.1916   25.6819   68.7826 O   0  0  0  0  0  0  0  0  0  0  0  0
   -7.3075   22.0293   66.9434 O   0  0  0  0  0  0  0  0  0  0  0  0
   -7.0472   20.9482   67.8722 C   0  0  2  0  0  0  0  0  0  0  0  0
   -8.1772   19.8918   67.8967 C   0  0  1  0  0  0  0  0  0  0  0  0
   -9.4959   20.5004   68.4737 C   0  0  2  0  0  0  0  0  0  0  0  0
   -9.2389   20.9810   69.8875 C   0  0  1  0  0  0  0  0  0  0  0  0
   -8.1205   22.0654   69.8566 C   0  0  1  0  0  0  0  0  0  0  0  0
   -7.7851   22.5875   71.2524 C   0  0  0  0  0  0  0  0  0  0  0  0
  -10.4918   21.5400   70.4503 N   0  0  0  0  0  0  0  0  0  0  0  0
   -6.8800   21.4857   69.2555 O   0  0  0  0  0  0  0  0  0  0  0  0
   -8.3406   19.4031   66.5467 O   0  0  0  0  0  0  0  0  0  0  0  0
  -10.5196   19.5033   68.5012 O   0  0  0  0  0  0  0  0  0  0  0  0
   -7.0080   23.7547   71.1382 O   0  0  0  0  0  0  0  0  0  0  0  0
   -5.1548   28.3206   65.3202 C   0  0  1  0  0  0  0  0  0  0  0  0
   -5.3292   26.9388   64.6325 C   0  0  1  0  0  0  0  0  0  0  0  0
   -6.3433   27.0521   63.4576 C   0  0  2  0  0  0  0  0  0  0  0  0
   -7.7100   27.5266   64.0101 C   0  0  1  0  0  0  0  0  0  0  0  0
   -7.5648   28.9281   64.7043 C   0  0  0  0  0  0  0  0  0  0  0  0
   -6.5434   28.7946   65.8540 C   0  0  2  0  0  0  0  0  0  0  0  0
   -8.6869   27.6315   62.8997 N   0  0  0  0  0  0  0  0  0  0  0  0
   -6.4126   30.1072   66.4959 N   0  0  0  0  0  0  0  0  0  0  0  0
   -4.0546   26.4934   64.1183 O   0  0  0  0  0  0  0  0  0  0  0  0
   -6.4821   25.7569   62.8322 O   0  0  0  0  0  0  0  0  0  0  0  0
  1  2  1  0  0  0  0
  1 12  1  6  0  0  0
  1 13  1  0  0  0  0
  2  3  1  0  0  0  0
  2 10  1  6  0  0  0
  4  3  1  6  0  0  0
  4  5  1  0  0  0  0
  4 14  1  0  0  0  0
  5  6  1  0  0  0  0
  5 13  1  1  0  0  0
  6  7  1  0  0  0  0
  6 15  1  1  0  0  0
  7  8  1  0  0  0  0
  7 11  1  1  0  0  0
  8 14  1  0  0  0  0
  8 16  1  6  0  0  0
  9 11  1  0  0  0  0
 17 16  1  6  0  0  0
 17 18  1  0  0  0  0
 17 24  1  0  0  0  0
 18 19  1  0  0  0  0
 18 25  1  6  0  0  0
 19 20  1  0  0  0  0
 19 26  1  1  0  0  0
 20 21  1  0  0  0  0
 20 23  1  6  0  0  0
 21 22  1  1  0  0  0
 21 24  1  0  0  0  0
 22 27  1  0  0  0  0
 28 12  1  1  0  0  0
 28 29  1  0  0  0  0
 28 33  1  0  0  0  0
 29 30  1  0  0  0  0
 29 36  1  6  0  0  0
 30 31  1  0  0  0  0
 30 37  1  1  0  0  0
 31 32  1  0  0  0  0
 31 34  1  6  0  0  0
 32 33  1  0  0  0  0
 33 35  1  6  0  0  0
M  END
>  <CHROM.1>
136.02546128,133.04550290,-151.77745341,-93.65661479,130.13324595,-166.75068339
-6.96493840,24.73128107,67.16636332,-0.98488354,0.78446153,2.25315763

>  <Name>
ligand

>  <RI>
0

>  <Rbt.Current_Directory>
/home/itssahil/PROJECTS/Mol_Feturizer/Test_systems_manuscript/rnas/2g5k

>  <Rbt.Executable>
rbdock ($Id: //depot/dev/client3/rdock/2013.1/src/exe/rbdock.cxx#4 $)

>  <Rbt.Library>
libRbt.so (2013.1, Build901 2013/11/27)

>  <Rbt.Parameter_File>
/export/apps/rDock/src/rDock_2013.1_src/data/scripts/dock_solv.prm

>  <Rbt.Receptor>
prm/blind_docking_100.prm

>  <SCORE>
30.6932

>  <SCORE.INTER>
4.52318

>  <SCORE.INTER.CONST>
1

>  <SCORE.INTER.POLAR>
0

>  <SCORE.INTER.ROT>
6

>  <SCORE.INTER.SOLV>
20.6401

>  <SCORE.INTER.VDW>
-11.4646

>  <SCORE.INTER.norm>
0.122248

>  <SCORE.INTRA>
8.51835

>  <SCORE.INTRA.DIHEDRAL>
10.5396

>  <SCORE.INTRA.DIHEDRAL.0>
11.3972

>  <SCORE.INTRA.POLAR>
0

>  <SCORE.INTRA.POLAR.0>
0

>  <SCORE.INTRA.REPUL>
0

>  <SCORE.INTRA.REPUL.0>
0

>  <SCORE.INTRA.SOLV>
2.27996

>  <SCORE.INTRA.SOLV.lig_0>
-92.3891

>  <SCORE.INTRA.VDW>
2.10857

>  <SCORE.INTRA.VDW.0>
-2.90606

>  <SCORE.INTRA.norm>
0.230226

>  <SCORE.RESTR>
17.6517

>  <SCORE.RESTR.CAVITY>
17.6517

>  <SCORE.RESTR.norm>
0.477072

>  <SCORE.SYSTEM>
0

>  <SCORE.SYSTEM.CONST>
0

>  <SCORE.SYSTEM.DIHEDRAL>
0

>  <SCORE.SYSTEM.SOLV>
0

>  <SCORE.SYSTEM.norm>
0

>  <SCORE.heavy>
37

>  <SCORE.norm>
0.829546

>  <RMSD>
7.727

$$$$
ligand
 OpenBabel02271912133D
libRbt.so/2013.1/901 2013/11/27
 37 40  0  0  0  0  0  0  0  0999 V2000
   -4.7212   27.3294   67.8988 C   0  0  1  0  0  0  0  0  0  0  0  0
   -3.8898   26.1092   68.3870 C   0  0  1  0  0  0  0  0  0  0  0  0
   -4.1881   24.8414   67.5641 C   0  0  0  0  0  0  0  0  0  0  0  0
   -5.7174   24.5397   67.6371 C   0  0  1  0  0  0  0  0  0  0  0  0
   -6.5445   25.7508   67.0960 C   0  0  1  0  0  0  0  0  0  0  0  0
   -8.1030   25.4217   67.1817 C   0  0  1  0  0  0  0  0  0  0  0  0
   -8.3970   24.1456   66.3396 C   0  0  1  0  0  0  0  0  0  0  0  0
   -7.5228   22.9831   66.8992 C   0  0  2  0  0  0  0  0  0  0  0  0
  -10.5315   23.2344   65.1889 C   0  0  0  0  0  0  0  0  0  0  0  0
   -2.4444   26.4174   68.3549 N   0  0  0  0  0  0  0  0  0  0  0  0
   -9.8645   23.7929   66.4081 N   0  0  0  0  0  0  0  0  0  0  0  0
   -4.3176   27.7865   66.5932 O   0  0  0  0  0  0  0  0  0  0  0  0
   -6.1580   26.9489   67.8993 O   0  0  0  0  0  0  0  0  0  0  0  0
   -6.0926   23.3148   66.8570 O   0  0  0  0  0  0  0  0  0  0  0  0
   -8.4642   25.1579   68.5312 O   0  0  0  0  0  0  0  0  0  0  0  0
   -7.7458   21.7977   66.1440 O   0  0  0  0  0  0  0  0  0  0  0  0
   -7.8285   20.5948   66.9473 C   0  0  2  0  0  0  0  0  0  0  0  0
   -9.2834   20.2112   67.3073 C   0  0  1  0  0  0  0  0  0  0  0  0
   -9.9211   21.2760   68.2569 C   0  0  2  0  0  0  0  0  0  0  0  0
   -9.1022   21.3541   69.5294 C   0  0  1  0  0  0  0  0  0  0  0  0
   -7.6446   21.7684   69.1669 C   0  0  1  0  0  0  0  0  0  0  0  0
   -6.7449   21.8483   70.3987 C   0  0  0  0  0  0  0  0  0  0  0  0
   -9.7140   22.3469   70.4455 N   0  0  0  0  0  0  0  0  0  0  0  0
   -7.0633   20.7696   68.2179 O   0  0  0  0  0  0  0  0  0  0  0  0
  -10.0124   20.0718   66.0674 O   0  0  0  0  0  0  0  0  0  0  0  0
  -11.2578   20.8929   68.5879 O   0  0  0  0  0  0  0  0  0  0  0  0
   -7.1691   22.9115   71.2166 O   0  0  0  0  0  0  0  0  0  0  0  0
   -5.2980   28.0856   65.4799 C   0  0  1  0  0  0  0  0  0  0  0  0
   -5.4048   26.8294   64.5725 C   0  0  1  0  0  0  0  0  0  0  0  0
   -6.4031   27.0957   63.4087 C   0  0  2  0  0  0  0  0  0  0  0  0
   -7.7968   27.4221   63.9996 C   0  0  1  0  0  0  0  0  0  0  0  0
   -7.7200   28.6955   64.9160 C   0  0  0  0  0  0  0  0  0  0  0  0
   -6.7133   28.4138   66.0517 C   0  0  2  0  0  0  0  0  0  0  0  0
   -8.7586   27.6709   62.8990 N   0  0  0  0  0  0  0  0  0  0  0  0
   -6.6464   29.6075   66.9017 N   0  0  0  0  0  0  0  0  0  0  0  0
   -4.1049   26.5220   64.0220 O   0  0  0  0  0  0  0  0  0  0  0  0
   -6.4790   25.9161   62.5777 O   0  0  0  0  0  0  0  0  0  0  0  0
  1  2  1  0  0  0  0
  1 12  1  6  0  0  0
  1 13  1  0  0  0  0
  2  3  1  0  0  0  0
  2 10  1  6  0  0  0
  4  3  1  6  0  0  0
  4  5  1  0  0  0  0
  4 14  1  0  0  0  0
  5  6  1  0  0  0  0
  5 13  1  1  0  0  0
  6  7  1  0  0  0  0
  6 15  1  1  0  0  0
  7  8  1  0  0  0  0
  7 11  1  1  0  0  0
  8 14  1  0  0  0  0
  8 16  1  6  0  0  0
  9 11  1  0  0  0  0
 17 16  1  1  0  0  0
 17 18  1  0  0  0  0
 17 24  1  0  0  0  0
 18 19  1  0  0  0  0
 18 25  1  6  0  0  0
 19 20  1  0  0  0  0
 19 26  1  1  0  0  0
 20 21  1  0  0  0  0
 20 23  1  1  0  0  0
 21 22  1  1  0  0  0
 21 24  1  0  0  0  0
 22 27  1  0  0  0  0
 28 12  1  1  0  0  0
 28 29  1  0  0  0  0
 28 33  1  0  0  0  0
 29 30  1  0  0  0  0
 29 36  1  6  0  0  0
 30 31  1  0  0  0  0
 30 37  1  6  0  0  0
 31 32  1  0  0  0  0
 31 34  1  6  0  0  0
 32 33  1  0  0  0  0
 33 35  1  1  0  0  0
M  END
>  <CHROM.1>
132.52995464,143.68236837,-138.93046578,-95.86953066,94.94562362,-67.02353167
-7.19225577,24.55423901,66.91935145,-0.96705025,0.69518908,2.29455710

>  <Name>
ligand

>  <RI>
0

>  <Rbt.Current_Directory>
/home/itssahil/PROJECTS/Mol_Feturizer/Test_systems_manuscript/rnas/2g5k

>  <Rbt.Executable>
rbdock ($Id: //depot/dev/client3/rdock/2013.1/src/exe/rbdock.cxx#4 $)

>  <Rbt.Library>
libRbt.so (2013.1, Build901 2013/11/27)

>  <Rbt.Parameter_File>
/export/apps/rDock/src/rDock_2013.1_src/data/scripts/dock_solv.prm

>  <Rbt.Receptor>
prm/blind_docking_100.prm

>  <SCORE>
31.9378

>  <SCORE.INTER>
2.75393

>  <SCORE.INTER.CONST>
1

>  <SCORE.INTER.POLAR>
0

>  <SCORE.INTER.ROT>
6

>  <SCORE.INTER.SOLV>
20.3015

>  <SCORE.INTER.VDW>
-12.5312

>  <SCORE.INTER.norm>
0.0744306

>  <SCORE.INTRA>
14.0477

>  <SCORE.INTRA.DIHEDRAL>
10.7903

>  <SCORE.INTRA.DIHEDRAL.0>
11.3972

>  <SCORE.INTRA.POLAR>
0

>  <SCORE.INTRA.POLAR.0>
0

>  <SCORE.INTRA.REPUL>
0

>  <SCORE.INTRA.REPUL.0>
0

>  <SCORE.INTRA.SOLV>
5.40073

>  <SCORE.INTRA.SOLV.lig_0>
-92.3891

>  <SCORE.INTRA.VDW>
5.95218

>  <SCORE.INTRA.VDW.0>
-2.90606

>  <SCORE.INTRA.norm>
0.379667

>  <SCORE.RESTR>
15.1362

>  <SCORE.RESTR.CAVITY>
15.1362

>  <SCORE.RESTR.norm>
0.409086

>  <SCORE.SYSTEM>
0

>  <SCORE.SYSTEM.CONST>
0

>  <SCORE.SYSTEM.DIHEDRAL>
0

>  <SCORE.SYSTEM.SOLV>
0

>  <SCORE.SYSTEM.norm>
0

>  <SCORE.heavy>
37

>  <SCORE.norm>
0.863184

>  <RMSD>
7.760

$$$$
ligand
 OpenBabel02271912133D
libRbt.so/2013.1/901 2013/11/27
 37 40  0  0  0  0  0  0  0  0999 V2000
   -4.7032   27.3827   67.8946 C   0  0  1  0  0  0  0  0  0  0  0  0
   -3.8718   26.1593   68.3750 C   0  0  1  0  0  0  0  0  0  0  0  0
   -4.1654   24.8985   67.5399 C   0  0  0  0  0  0  0  0  0  0  0  0
   -5.6946   24.5940   67.6049 C   0  0  1  0  0  0  0  0  0  0  0  0
   -6.5215   25.8087   67.0716 C   0  0  1  0  0  0  0  0  0  0  0  0
   -8.0798   25.4767   67.1489 C   0  0  1  0  0  0  0  0  0  0  0  0
   -8.3690   24.2077   66.2946 C   0  0  1  0  0  0  0  0  0  0  0  0
   -7.4952   23.0415   66.8469 C   0  0  2  0  0  0  0  0  0  0  0  0
  -10.5116   23.3562   65.1135 C   0  0  0  0  0  0  0  0  0  0  0  0
   -2.4268   26.4699   68.3506 N   0  0  0  0  0  0  0  0  0  0  0  0
   -9.8363   23.8524   66.3548 N   0  0  0  0  0  0  0  0  0  0  0  0
   -4.2958   27.8518   66.5946 O   0  0  0  0  0  0  0  0  0  0  0  0
   -6.1395   27.0002   67.8868 O   0  0  0  0  0  0  0  0  0  0  0  0
   -6.0654   23.3756   66.8126 O   0  0  0  0  0  0  0  0  0  0  0  0
   -8.4453   25.2004   68.4948 O   0  0  0  0  0  0  0  0  0  0  0  0
   -7.7139   21.8625   66.0805 O   0  0  0  0  0  0  0  0  0  0  0  0
   -7.9336   20.6737   66.8790 C   0  0  2  0  0  0  0  0  0  0  0  0
   -9.4151   20.4865   67.2833 C   0  0  1  0  0  0  0  0  0  0  0  0
   -9.8731   21.6179   68.2592 C   0  0  2  0  0  0  0  0  0  0  0  0
   -9.0120   21.5718   69.5051 C   0  0  1  0  0  0  0  0  0  0  0  0
   -7.5237   21.7891   69.0984 C   0  0  1  0  0  0  0  0  0  0  0  0
   -6.5837   21.7341   70.3011 C   0  0  0  0  0  0  0  0  0  0  0  0
   -9.4551   22.6287   70.4462 N   0  0  0  0  0  0  0  0  0  0  0  0
   -7.1128   20.7306   68.1253 O   0  0  0  0  0  0  0  0  0  0  0  0
  -10.1945   20.4595   66.0667 O   0  0  0  0  0  0  0  0  0  0  0  0
  -11.2384   21.4156   68.6307 O   0  0  0  0  0  0  0  0  0  0  0  0
   -6.7176   20.4876   70.9396 O   0  0  0  0  0  0  0  0  0  0  0  0
   -5.2697   28.1252   65.4691 C   0  0  1  0  0  0  0  0  0  0  0  0
   -5.3955   26.8383   64.6085 C   0  0  1  0  0  0  0  0  0  0  0  0
   -6.3878   27.0774   63.4337 C   0  0  2  0  0  0  0  0  0  0  0  0
   -7.7769   27.4476   64.0096 C   0  0  1  0  0  0  0  0  0  0  0  0
   -7.6809   28.7525   64.8786 C   0  0  0  0  0  0  0  0  0  0  0  0
   -6.6804   28.4969   66.0258 C   0  0  2  0  0  0  0  0  0  0  0  0
   -8.7332   27.6709   62.8987 N   0  0  0  0  0  0  0  0  0  0  0  0
   -6.5954   29.7199   66.8313 N   0  0  0  0  0  0  0  0  0  0  0  0
   -4.0999   26.4900   64.0722 O   0  0  0  0  0  0  0  0  0  0  0  0
   -6.4816   25.8692   62.6467 O   0  0  0  0  0  0  0  0  0  0  0  0
  1  2  1  0  0  0  0
  1 12  1  6  0  0  0
  1 13  1  0  0  0  0
  2  3  1  0  0  0  0
  2 10  1  6  0  0  0
  4  3  1  6  0  0  0
  4  5  1  0  0  0  0
  4 14  1  0  0  0  0
  5  6  1  0  0  0  0
  5 13  1  1  0  0  0
  6  7  1  0  0  0  0
  6 15  1  1  0  0  0
  7  8  1  0  0  0  0
  7 11  1  1  0  0  0
  8 14  1  0  0  0  0
  8 16  1  6  0  0  0
  9 11  1  0  0  0  0
 17 16  1  1  0  0  0
 17 18  1  0  0  0  0
 17 24  1  0  0  0  0
 18 19  1  0  0  0  0
 18 25  1  6  0  0  0
 19 20  1  0  0  0  0
 19 26  1  1  0  0  0
 20 21  1  0  0  0  0
 20 23  1  1  0  0  0
 21 22  1  1  0  0  0
 21 24  1  0  0  0  0
 22 27  1  0  0  0  0
 28 12  1  1  0  0  0
 28 29  1  0  0  0  0
 28 33  1  0  0  0  0
 29 30  1  0  0  0  0
 29 36  1  6  0  0  0
 30 31  1  0  0  0  0
 30 37  1  1  0  0  0
 31 32  1  0  0  0  0
 31 34  1  6  0  0  0
 32 33  1  0  0  0  0
 33 35  1  6  0  0  0
M  END
>  <CHROM.1>
130.89407070,141.23194217,-132.96568084,-92.52329928,86.51540203,58.42057349
-7.15739853,24.56652048,66.88969867,-1.04365319,0.62141854,2.37707216

>  <Name>
ligand

>  <RI>
0

>  <Rbt.Current_Directory>
/home/itssahil/PROJECTS/Mol_Feturizer/Test_systems_manuscript/rnas/2g5k

>  <Rbt.Executable>
rbdock ($Id: //depot/dev/client3/rdock/2013.1/src/exe/rbdock.cxx#4 $)

>  <Rbt.Library>
libRbt.so (2013.1, Build901 2013/11/27)

>  <Rbt.Parameter_File>
/export/apps/rDock/src/rDock_2013.1_src/data/scripts/dock_solv.prm

>  <Rbt.Receptor>
prm/blind_docking_100.prm

>  <SCORE>
30.2546

>  <SCORE.INTER>
1.93247

>  <SCORE.INTER.CONST>
1

>  <SCORE.INTER.POLAR>
0

>  <SCORE.INTER.ROT>
6

>  <SCORE.INTER.SOLV>
19.9707

>  <SCORE.INTER.VDW>
-12.9686

>  <SCORE.INTER.norm>
0.0522289

>  <SCORE.INTRA>
13.0119

>  <SCORE.INTRA.DIHEDRAL>
9.51003

>  <SCORE.INTRA.DIHEDRAL.0>
11.3972

>  <SCORE.INTRA.POLAR>
0

>  <SCORE.INTRA.POLAR.0>
0

>  <SCORE.INTRA.REPUL>
0

>  <SCORE.INTRA.REPUL.0>
0

>  <SCORE.INTRA.SOLV>
5.61161

>  <SCORE.INTRA.SOLV.lig_0>
-92.3891

>  <SCORE.INTRA.VDW>
5.45109

>  <SCORE.INTRA.VDW.0>
-2.90606

>  <SCORE.INTRA.norm>
0.351673

>  <SCORE.RESTR>
15.3103

>  <SCORE.RESTR.CAVITY>
15.3103

>  <SCORE.RESTR.norm>
0.413791

>  <SCORE.SYSTEM>
0

>  <SCORE.SYSTEM.CONST>
0

>  <SCORE.SYSTEM.DIHEDRAL>
0

>  <SCORE.SYSTEM.SOLV>
0

>  <SCORE.SYSTEM.norm>
0

>  <SCORE.heavy>
37

>  <SCORE.norm>
0.817693

>  <RMSD>
7.769

$$$$
ligand
 OpenBabel02271912133D
libRbt.so/2013.1/901 2013/11/27
 37 40  0  0  0  0  0  0  0  0999 V2000
    4.9973   23.3372   65.1943 C   0  0  1  0  0  0  0  0  0  0  0  0
    3.9373   23.2146   66.3256 C   0  0  1  0  0  0  0  0  0  0  0  0
    2.6437   23.9809   65.9895 C   0  0  0  0  0  0  0  0  0  0  0  0
    2.9983   25.4759   65.7168 C   0  0  1  0  0  0  0  0  0  0  0  0
    4.0248   25.5937   64.5438 C   0  0  1  0  0  0  0  0  0  0  0  0
    4.3740   27.1283   64.2839 C   0  0  1  0  0  0  0  0  0  0  0  0
    3.0633   27.8927   63.9353 C   0  0  1  0  0  0  0  0  0  0  0  0
    2.0671   27.7129   65.1202 C   0  0  2  0  0  0  0  0  0  0  0  0
    3.9937   29.7650   62.4059 C   0  0  0  0  0  0  0  0  0  0  0  0
    3.6379   21.7946   66.6071 N   0  0  0  0  0  0  0  0  0  0  0  0
    3.3520   29.3563   63.6959 N   0  0  0  0  0  0  0  0  0  0  0  0
    4.6077   22.6418   63.9939 O   0  0  0  0  0  0  0  0  0  0  0  0
    5.2207   24.7798   64.9146 O   0  0  0  0  0  0  0  0  0  0  0  0
    1.7875   26.2945   65.3796 O   0  0  0  0  0  0  0  0  0  0  0  0
    4.9240   27.7016   65.4629 O   0  0  0  0  0  0  0  0  0  0  0  0
    0.8437   28.3815   64.8350 O   0  0  0  0  0  0  0  0  0  0  0  0
   -0.0907   28.3971   65.9422 C   0  0  2  0  0  0  0  0  0  0  0  0
   -1.4674   28.9893   65.5585 C   0  0  1  0  0  0  0  0  0  0  0  0
   -1.3446   30.5102   65.2204 C   0  0  2  0  0  0  0  0  0  0  0  0
   -0.8134   31.2433   66.4355 C   0  0  1  0  0  0  0  0  0  0  0  0
    0.5858   30.6643   66.8025 C   0  0  1  0  0  0  0  0  0  0  0  0
    1.1827   31.3382   68.0366 C   0  0  0  0  0  0  0  0  0  0  0  0
   -0.7149   32.6910   66.1298 N   0  0  0  0  0  0  0  0  0  0  0  0
    0.4639   29.1988   67.0737 O   0  0  0  0  0  0  0  0  0  0  0  0
   -1.9750   28.2173   64.4475 O   0  0  0  0  0  0  0  0  0  0  0  0
   -2.6296   31.0384   64.8846 O   0  0  0  0  0  0  0  0  0  0  0  0
    0.3539   31.0936   69.1468 O   0  0  0  0  0  0  0  0  0  0  0  0
    5.5811   22.2765   62.8944 C   0  0  1  0  0  0  0  0  0  0  0  0
    4.9638   21.1213   62.0594 C   0  0  1  0  0  0  0  0  0  0  0  0
    5.9369   20.7107   60.9164 C   0  0  2  0  0  0  0  0  0  0  0  0
    6.1855   21.9322   59.9976 C   0  0  1  0  0  0  0  0  0  0  0  0
    6.8187   23.1144   60.8154 C   0  0  0  0  0  0  0  0  0  0  0  0
    5.8445   23.4927   61.9513 C   0  0  2  0  0  0  0  0  0  0  0  0
    7.1064   21.5507   58.8999 N   0  0  0  0  0  0  0  0  0  0  0  0
    6.4433   24.5958   62.7107 N   0  0  0  0  0  0  0  0  0  0  0  0
    4.7290   19.9815   62.9155 O   0  0  0  0  0  0  0  0  0  0  0  0
    5.3425   19.6323   60.1602 O   0  0  0  0  0  0  0  0  0  0  0  0
  1  2  1  0  0  0  0
  1 12  1  6  0  0  0
  1 13  1  0  0  0  0
  2  3  1  0  0  0  0
  2 10  1  6  0  0  0
  4  3  1  6  0  0  0
  4  5  1  0  0  0  0
  4 14  1  0  0  0  0
  5  6  1  0  0  0  0
  5 13  1  1  0  0  0
  6  7  1  0  0  0  0
  6 15  1  1  0  0  0
  7  8  1  0  0  0  0
  7 11  1  1  0  0  0
  8 14  1  0  0  0  0
  8 16  1  6  0  0  0
  9 11  1  0  0  0  0
 17 16  1  6  0  0  0
 17 18  1  0  0  0  0
 17 24  1  0  0  0  0
 18 19  1  0  0  0  0
 18 25  1  6  0  0  0
 19 20  1  0  0  0  0
 19 26  1  1  0  0  0
 20 21  1  0  0  0  0
 20 23  1  6  0  0  0
 21 22  1  1  0  0  0
 21 24  1  0  0  0  0
 22 27  1  0  0  0  0
 28 12  1  1  0  0  0
 28 29  1  0  0  0  0
 28 33  1  0  0  0  0
 29 30  1  0  0  0  0
 29 36  1  1  0  0  0
 30 31  1  0  0  0  0
 30 37  1  6  0  0  0
 31 32  1  0  0  0  0
 31 34  1  6  0  0  0
 32 33  1  0  0  0  0
 33 35  1  1  0  0  0
M  END
>  <CHROM.1>
-162.75138710,75.67251593,-173.42439694,159.10728486,-173.63578164,62.52253515
2.91276899,26.15228465,64.38072133,0.38229833,-0.97314303,2.48551524

>  <Name>
ligand

>  <RI>
0

>  <Rbt.Current_Directory>
/home/itssahil/PROJECTS/Mol_Feturizer/Test_systems_manuscript/rnas/2g5k

>  <Rbt.Executable>
rbdock ($Id: //depot/dev/client3/rdock/2013.1/src/exe/rbdock.cxx#4 $)

>  <Rbt.Library>
libRbt.so (2013.1, Build901 2013/11/27)

>  <Rbt.Parameter_File>
/export/apps/rDock/src/rDock_2013.1_src/data/scripts/dock_solv.prm

>  <Rbt.Receptor>
prm/pocket_docking_8.prm

>  <SCORE>
-10.7532

>  <SCORE.INTER>
-8.09968

>  <SCORE.INTER.CONST>
1

>  <SCORE.INTER.POLAR>
0

>  <SCORE.INTER.ROT>
6

>  <SCORE.INTER.SOLV>
18.2021

>  <SCORE.INTER.VDW>
-19.0672

>  <SCORE.INTER.norm>
-0.21891

>  <SCORE.INTRA>
-2.65356

>  <SCORE.INTRA.DIHEDRAL>
-7.42111

>  <SCORE.INTRA.DIHEDRAL.0>
11.3972

>  <SCORE.INTRA.POLAR>
0

>  <SCORE.INTRA.POLAR.0>
0

>  <SCORE.INTRA.REPUL>
0

>  <SCORE.INTRA.REPUL.0>
0

>  <SCORE.INTRA.SOLV>
1.72652

>  <SCORE.INTRA.SOLV.lig_0>
-92.3891

>  <SCORE.INTRA.VDW>
0.193732

>  <SCORE.INTRA.VDW.0>
-2.90606

>  <SCORE.INTRA.norm>
-0.0717179

>  <SCORE.RESTR>
0

>  <SCORE.RESTR.CAVITY>
0

>  <SCORE.RESTR.norm>
0

>  <SCORE.SYSTEM>
0

>  <SCORE.SYSTEM.CONST>
0

>  <SCORE.SYSTEM.DIHEDRAL>
0

>  <SCORE.SYSTEM.SOLV>
0

>  <SCORE.SYSTEM.norm>
0

>  <SCORE.heavy>
37

>  <SCORE.norm>
-0.290628

>  <RMSD>
7.840

$$$$
ligand
 OpenBabel02271912133D
libRbt.so/2013.1/901 2013/11/27
 37 40  0  0  0  0  0  0  0  0999 V2000
    4.5412   23.2769   64.6694 C   0  0  1  0  0  0  0  0  0  0  0  0
    3.9312   23.2351   66.0993 C   0  0  1  0  0  0  0  0  0  0  0  0
    2.6365   24.0640   66.1987 C   0  0  0  0  0  0  0  0  0  0  0  0
    2.9415   25.5317   65.7649 C   0  0  1  0  0  0  0  0  0  0  0  0
    3.5054   25.5697   64.3075 C   0  0  1  0  0  0  0  0  0  0  0  0
    3.8115   27.0775   63.8860 C   0  0  1  0  0  0  0  0  0  0  0  0
    2.4962   27.9052   63.9797 C   0  0  1  0  0  0  0  0  0  0  0  0
    1.9621   27.8038   65.4402 C   0  0  2  0  0  0  0  0  0  0  0  0
    2.3592   29.8129   62.2325 C   0  0  0  0  0  0  0  0  0  0  0  0
    3.6844   21.8395   66.5196 N   0  0  0  0  0  0  0  0  0  0  0  0
    2.7495   29.3457   63.6009 N   0  0  0  0  0  0  0  0  0  0  0  0
    3.7315   22.5799   63.7025 O   0  0  0  0  0  0  0  0  0  0  0  0
    4.7184   24.6993   64.2760 O   0  0  0  0  0  0  0  0  0  0  0  0
    1.7263   26.4083   65.8328 O   0  0  0  0  0  0  0  0  0  0  0  0
    4.7588   27.6433   64.7826 O   0  0  0  0  0  0  0  0  0  0  0  0
    0.7463   28.5324   65.5669 O   0  0  0  0  0  0  0  0  0  0  0  0
    0.9142   29.9707   65.5183 C   0  0  2  0  0  0  0  0  0  0  0  0
    1.3947   30.5655   66.8632 C   0  0  1  0  0  0  0  0  0  0  0  0
    0.2983   30.4071   67.9655 C   0  0  2  0  0  0  0  0  0  0  0  0
   -0.9539   31.1365   67.5227 C   0  0  1  0  0  0  0  0  0  0  0  0
   -1.4519   30.5167   66.1828 C   0  0  1  0  0  0  0  0  0  0  0  0
   -2.7041   31.2145   65.6552 C   0  0  0  0  0  0  0  0  0  0  0  0
   -1.9922   31.0096   68.5738 N   0  0  0  0  0  0  0  0  0  0  0  0
   -0.3754   30.6282   65.1509 O   0  0  0  0  0  0  0  0  0  0  0  0
    2.6283   29.8994   67.2136 O   0  0  0  0  0  0  0  0  0  0  0  0
    0.7579   30.9770   69.1931 O   0  0  0  0  0  0  0  0  0  0  0  0
   -3.1331   30.5736   64.4785 O   0  0  0  0  0  0  0  0  0  0  0  0
    4.1666   22.3445   62.2723 C   0  0  1  0  0  0  0  0  0  0  0  0
    4.4246   23.7242   61.6069 C   0  0  1  0  0  0  0  0  0  0  0  0
    4.8719   23.5281   60.1293 C   0  0  2  0  0  0  0  0  0  0  0  0
    6.1752   22.6921   60.0997 C   0  0  1  0  0  0  0  0  0  0  0  0
    5.9406   21.2861   60.7595 C   0  0  0  0  0  0  0  0  0  0  0  0
    5.4827   21.5064   62.2170 C   0  0  2  0  0  0  0  0  0  0  0  0
    6.6150   22.5047   58.6962 N   0  0  0  0  0  0  0  0  0  0  0  0
    5.2646   20.1894   62.8254 N   0  0  0  0  0  0  0  0  0  0  0  0
    3.2103   24.5064   61.6355 O   0  0  0  0  0  0  0  0  0  0  0  0
    5.0988   24.8244   59.5327 O   0  0  0  0  0  0  0  0  0  0  0  0
  1  2  1  0  0  0  0
  1 12  1  6  0  0  0
  1 13  1  0  0  0  0
  2  3  1  0  0  0  0
  2 10  1  6  0  0  0
  4  3  1  6  0  0  0
  4  5  1  0  0  0  0
  4 14  1  0  0  0  0
  5  6  1  0  0  0  0
  5 13  1  1  0  0  0
  6  7  1  0  0  0  0
  6 15  1  1  0  0  0
  7  8  1  0  0  0  0
  7 11  1  1  0  0  0
  8 14  1  0  0  0  0
  8 16  1  6  0  0  0
  9 11  1  0  0  0  0
 17 16  1  1  0  0  0
 17 18  1  0  0  0  0
 17 24  1  0  0  0  0
 18 19  1  0  0  0  0
 18 25  1  1  0  0  0
 19 20  1  0  0  0  0
 19 26  1  1  0  0  0
 20 21  1  0  0  0  0
 20 23  1  1  0  0  0
 21 22  1  6  0  0  0
 21 24  1  0  0  0  0
 22 27  1  0  0  0  0
 28 12  1  1  0  0  0
 28 29  1  0  0  0  0
 28 33  1  0  0  0  0
 29 30  1  0  0  0  0
 29 36  1  6  0  0  0
 30 31  1  0  0  0  0
 30 37  1  1  0  0  0
 31 32  1  0  0  0  0
 31 34  1  6  0  0  0
 32 33  1  0  0  0  0
 33 35  1  6  0  0  0
M  END
>  <CHROM.1>
-173.35837731,101.39231406,-71.31260535,-59.10512313,-79.80547234,-177.53007702
2.59292636,26.51925706,64.35815024,-0.12131490,-1.03065809,1.97503221

>  <Name>
ligand

>  <RI>
0

>  <Rbt.Current_Directory>
/home/itssahil/PROJECTS/Mol_Feturizer/Test_systems_manuscript/rnas/2g5k

>  <Rbt.Executable>
rbdock ($Id: //depot/dev/client3/rdock/2013.1/src/exe/rbdock.cxx#4 $)

>  <Rbt.Library>
libRbt.so (2013.1, Build901 2013/11/27)

>  <Rbt.Parameter_File>
/export/apps/rDock/src/rDock_2013.1_src/data/scripts/dock_solv.prm

>  <Rbt.Receptor>
prm/pocket_docking_7.prm

>  <SCORE>
-10.8236

>  <SCORE.INTER>
-7.47591

>  <SCORE.INTER.CONST>
1

>  <SCORE.INTER.POLAR>
0

>  <SCORE.INTER.ROT>
6

>  <SCORE.INTER.SOLV>
22.0247

>  <SCORE.INTER.VDW>
-19.9255

>  <SCORE.INTER.norm>
-0.202052

>  <SCORE.INTRA>
-3.34772

>  <SCORE.INTRA.DIHEDRAL>
-7.80438

>  <SCORE.INTRA.DIHEDRAL.0>
11.3972

>  <SCORE.INTRA.POLAR>
0

>  <SCORE.INTRA.POLAR.0>
0

>  <SCORE.INTRA.REPUL>
0

>  <SCORE.INTRA.REPUL.0>
0

>  <SCORE.INTRA.SOLV>
0.506549

>  <SCORE.INTRA.SOLV.lig_0>
-92.3891

>  <SCORE.INTRA.VDW>
0.301189

>  <SCORE.INTRA.VDW.0>
-2.90606

>  <SCORE.INTRA.norm>
-0.0904791

>  <SCORE.RESTR>
0

>  <SCORE.RESTR.CAVITY>
0

>  <SCORE.RESTR.norm>
0

>  <SCORE.SYSTEM>
0

>  <SCORE.SYSTEM.CONST>
0

>  <SCORE.SYSTEM.DIHEDRAL>
0

>  <SCORE.SYSTEM.SOLV>
0

>  <SCORE.SYSTEM.norm>
0

>  <SCORE.heavy>
37

>  <SCORE.norm>
-0.292531

>  <RMSD>
7.904

$$$$
ligand
 OpenBabel02271912133D
libRbt.so/2013.1/901 2013/11/27
 37 40  0  0  0  0  0  0  0  0999 V2000
   -8.7310   25.1954   64.2697 C   0  0  1  0  0  0  0  0  0  0  0  0
   -9.9265   24.5365   65.0148 C   0  0  1  0  0  0  0  0  0  0  0  0
   -9.8511   24.7598   66.5372 C   0  0  0  0  0  0  0  0  0  0  0  0
   -8.4911   24.2036   67.0629 C   0  0  1  0  0  0  0  0  0  0  0  0
   -7.2937   24.9081   66.3463 C   0  0  1  0  0  0  0  0  0  0  0  0
   -5.9153   24.3235   66.8969 C   0  0  1  0  0  0  0  0  0  0  0  0
   -5.8432   24.5623   68.4336 C   0  0  1  0  0  0  0  0  0  0  0  0
   -7.0753   23.8701   69.0905 C   0  0  2  0  0  0  0  0  0  0  0  0
   -3.2579   24.6315   68.5807 C   0  0  0  0  0  0  0  0  0  0  0  0
  -11.2115   25.0371   64.4825 N   0  0  0  0  0  0  0  0  0  0  0  0
   -4.5549   24.0079   68.9954 N   0  0  0  0  0  0  0  0  0  0  0  0
   -8.7820   26.6350   64.3071 O   0  0  0  0  0  0  0  0  0  0  0  0
   -7.4684   24.7003   64.8778 O   0  0  0  0  0  0  0  0  0  0  0  0
   -8.3380   24.3841   68.5440 O   0  0  0  0  0  0  0  0  0  0  0  0
   -5.8598   22.9227   66.6606 O   0  0  0  0  0  0  0  0  0  0  0  0
   -7.0601   24.0800   70.4979 O   0  0  0  0  0  0  0  0  0  0  0  0
   -7.7727   23.0685   71.2517 C   0  0  2  0  0  0  0  0  0  0  0  0
   -7.6510   21.6576   70.6288 C   0  0  1  0  0  0  0  0  0  0  0  0
   -8.3744   21.5959   69.2448 C   0  0  2  0  0  0  0  0  0  0  0  0
   -9.8406   21.9240   69.4406 C   0  0  1  0  0  0  0  0  0  0  0  0
   -9.9614   23.3565   70.0415 C   0  0  1  0  0  0  0  0  0  0  0  0
  -11.4144   23.7562   70.2911 C   0  0  0  0  0  0  0  0  0  0  0  0
  -10.5388   21.8458   68.1347 N   0  0  0  0  0  0  0  0  0  0  0  0
   -9.2223   23.4169   71.3401 O   0  0  0  0  0  0  0  0  0  0  0  0
   -6.2427   21.3501   70.5285 O   0  0  0  0  0  0  0  0  0  0  0  0
   -8.2622   20.2806   68.6966 O   0  0  0  0  0  0  0  0  0  0  0  0
  -11.4587   25.0842   70.7536 O   0  0  0  0  0  0  0  0  0  0  0  0
   -7.5759   27.4999   64.6023 C   0  0  1  0  0  0  0  0  0  0  0  0
   -7.4033   27.5880   66.1434 C   0  0  1  0  0  0  0  0  0  0  0  0
   -6.1726   28.4742   66.4924 C   0  0  2  0  0  0  0  0  0  0  0  0
   -4.9016   27.8467   65.8686 C   0  0  1  0  0  0  0  0  0  0  0  0
   -5.0451   27.7533   64.3072 C   0  0  0  0  0  0  0  0  0  0  0  0
   -6.2799   26.8845   63.9863 C   0  0  2  0  0  0  0  0  0  0  0  0
   -3.7206   28.6793   66.2007 N   0  0  0  0  0  0  0  0  0  0  0  0
   -6.4076   26.8034   62.5271 N   0  0  0  0  0  0  0  0  0  0  0  0
   -8.5892   28.1712   66.7274 O   0  0  0  0  0  0  0  0  0  0  0  0
   -6.0386   28.5447   67.9294 O   0  0  0  0  0  0  0  0  0  0  0  0
  1  2  1  0  0  0  0
  1 12  1  1  0  0  0
  1 13  1  0  0  0  0
  2  3  1  0  0  0  0
  2 10  1  6  0  0  0
  4  3  1  6  0  0  0
  4  5  1  0  0  0  0
  4 14  1  0  0  0  0
  5  6  1  0  0  0  0
  5 13  1  6  0  0  0
  6  7  1  0  0  0  0
  6 15  1  1  0  0  0
  7  8  1  0  0  0  0
  7 11  1  1  0  0  0
  8 14  1  0  0  0  0
  8 16  1  1  0  0  0
  9 11  1  0  0  0  0
 17 16  1  6  0  0  0
 17 18  1  0  0  0  0
 17 24  1  0  0  0  0
 18 19  1  0  0  0  0
 18 25  1  6  0  0  0
 19 20  1  0  0  0  0
 19 26  1  1  0  0  0
 20 21  1  0  0  0  0
 20 23  1  6  0  0  0
 21 22  1  1  0  0  0
 21 24  1  0  0  0  0
 22 27  1  0  0  0  0
 28 12  1  1  0  0  0
 28 29  1  0  0  0  0
 28 33  1  0  0  0  0
 29 30  1  0  0  0  0
 29 36  1  1  0  0  0
 30 31  1  0  0  0  0
 30 37  1  1  0  0  0
 31 32  1  0  0  0  0
 31 34  1  6  0  0  0
 32 33  1  0  0  0  0
 33 35  1  6  0  0  0
M  END
>  <CHROM.1>
135.51949332,65.63906263,-155.15918751,-83.21448489,34.98438996,-176.38939677
-7.64134956,24.80741090,67.49175232,1.22347354,-0.26880221,-0.90601873

>  <Name>
ligand

>  <RI>
0

>  <Rbt.Current_Directory>
/home/itssahil/PROJECTS/Mol_Feturizer/Test_systems_manuscript/rnas/2g5k

>  <Rbt.Executable>
rbdock ($Id: //depot/dev/client3/rdock/2013.1/src/exe/rbdock.cxx#4 $)

>  <Rbt.Library>
libRbt.so (2013.1, Build901 2013/11/27)

>  <Rbt.Parameter_File>
/export/apps/rDock/src/rDock_2013.1_src/data/scripts/dock_solv.prm

>  <Rbt.Receptor>
prm/blind_docking_100.prm

>  <SCORE>
94.7256

>  <SCORE.INTER>
68.0712

>  <SCORE.INTER.CONST>
1

>  <SCORE.INTER.POLAR>
0

>  <SCORE.INTER.ROT>
6

>  <SCORE.INTER.SOLV>
21.9067

>  <SCORE.INTER.VDW>
30.4786

>  <SCORE.INTER.norm>
1.83976

>  <SCORE.INTRA>
11.0742

>  <SCORE.INTRA.DIHEDRAL>
2.41641

>  <SCORE.INTRA.DIHEDRAL.0>
11.3972

>  <SCORE.INTRA.POLAR>
0

>  <SCORE.INTRA.POLAR.0>
0

>  <SCORE.INTRA.REPUL>
0

>  <SCORE.INTRA.REPUL.0>
0

>  <SCORE.INTRA.SOLV>
4.99647

>  <SCORE.INTRA.SOLV.lig_0>
-92.3891

>  <SCORE.INTRA.VDW>
7.36776

>  <SCORE.INTRA.VDW.0>
-2.90606

>  <SCORE.INTRA.norm>
0.299303

>  <SCORE.RESTR>
15.5802

>  <SCORE.RESTR.CAVITY>
15.5802

>  <SCORE.RESTR.norm>
0.421087

>  <SCORE.SYSTEM>
0

>  <SCORE.SYSTEM.CONST>
0

>  <SCORE.SYSTEM.DIHEDRAL>
0

>  <SCORE.SYSTEM.SOLV>
0

>  <SCORE.SYSTEM.norm>
0

>  <SCORE.heavy>
37

>  <SCORE.norm>
2.56015

>  <RMSD>
8.015

$$$$
ligand
 OpenBabel02271912133D
libRbt.so/2013.1/901 2013/11/27
 37 40  0  0  0  0  0  0  0  0999 V2000
   -7.3250   23.4175   64.0010 C   0  0  1  0  0  0  0  0  0  0  0  0
   -8.6329   24.2517   64.1102 C   0  0  1  0  0  0  0  0  0  0  0  0
   -9.0064   24.5500   65.5747 C   0  0  0  0  0  0  0  0  0  0  0  0
   -9.1391   23.2007   66.3474 C   0  0  1  0  0  0  0  0  0  0  0  0
   -7.8035   22.3916   66.2768 C   0  0  1  0  0  0  0  0  0  0  0  0
   -7.9623   21.0170   67.0705 C   0  0  1  0  0  0  0  0  0  0  0  0
   -8.3296   21.3280   68.5511 C   0  0  1  0  0  0  0  0  0  0  0  0
   -9.6456   22.1627   68.5594 C   0  0  2  0  0  0  0  0  0  0  0  0
   -9.8330   19.3589   69.3081 C   0  0  0  0  0  0  0  0  0  0  0  0
   -8.5146   25.5086   63.3412 N   0  0  0  0  0  0  0  0  0  0  0  0
   -8.5030   20.0471   69.3335 N   0  0  0  0  0  0  0  0  0  0  0  0
   -6.1589   24.1628   64.4023 O   0  0  0  0  0  0  0  0  0  0  0  0
   -7.4770   22.1952   64.8329 O   0  0  0  0  0  0  0  0  0  0  0  0
   -9.5018   23.4045   67.7884 O   0  0  0  0  0  0  0  0  0  0  0  0
   -9.0173   20.2531   66.5007 O   0  0  0  0  0  0  0  0  0  0  0  0
  -10.0093   22.4871   69.8964 O   0  0  0  0  0  0  0  0  0  0  0  0
   -8.9530   23.1249   70.6557 C   0  0  2  0  0  0  0  0  0  0  0  0
   -9.4897   24.0141   71.8023 C   0  0  1  0  0  0  0  0  0  0  0  0
  -10.2661   25.2459   71.2347 C   0  0  2  0  0  0  0  0  0  0  0  0
   -9.3270   26.0654   70.3730 C   0  0  1  0  0  0  0  0  0  0  0  0
   -8.8102   25.1759   69.2028 C   0  0  1  0  0  0  0  0  0  0  0  0
   -7.8357   25.9253   68.2962 C   0  0  0  0  0  0  0  0  0  0  0  0
  -10.0505   27.2487   69.8485 N   0  0  0  0  0  0  0  0  0  0  0  0
   -8.1142   23.9748   69.7587 O   0  0  0  0  0  0  0  0  0  0  0  0
  -10.3180   23.1807   72.6433 O   0  0  0  0  0  0  0  0  0  0  0  0
  -10.7383   26.0600   72.3105 O   0  0  0  0  0  0  0  0  0  0  0  0
   -8.5330   26.9174   67.5828 O   0  0  0  0  0  0  0  0  0  0  0  0
   -6.1798   25.2105   65.4940 C   0  0  1  0  0  0  0  0  0  0  0  0
   -5.0882   24.8495   66.5385 C   0  0  1  0  0  0  0  0  0  0  0  0
   -5.0778   25.9024   67.6844 C   0  0  2  0  0  0  0  0  0  0  0  0
   -4.7756   27.2993   67.0880 C   0  0  1  0  0  0  0  0  0  0  0  0
   -5.8704   27.6944   66.0332 C   0  0  0  0  0  0  0  0  0  0  0  0
   -5.8731   26.6285   64.9168 C   0  0  2  0  0  0  0  0  0  0  0  0
   -4.7561   28.3103   68.1724 N   0  0  0  0  0  0  0  0  0  0  0  0
   -6.8984   27.0038   63.9371 N   0  0  0  0  0  0  0  0  0  0  0  0
   -5.3673   23.5455   67.0944 O   0  0  0  0  0  0  0  0  0  0  0  0
   -4.0598   25.5403   68.6438 O   0  0  0  0  0  0  0  0  0  0  0  0
  1  2  1  0  0  0  0
  1 12  1  1  0  0  0
  1 13  1  0  0  0  0
  2  3  1  0  0  0  0
  2 10  1  6  0  0  0
  4  3  1  1  0  0  0
  4  5  1  0  0  0  0
  4 14  1  0  0  0  0
  5  6  1  0  0  0  0
  5 13  1  6  0  0  0
  6  7  1  0  0  0  0
  6 15  1  6  0  0  0
  7  8  1  0  0  0  0
  7 11  1  1  0  0  0
  8 14  1  0  0  0  0
  8 16  1  1  0  0  0
  9 11  1  0  0  0  0
 17 16  1  6  0  0  0
 17 18  1  0  0  0  0
 17 24  1  0  0  0  0
 18 19  1  0  0  0  0
 18 25  1  1  0  0  0
 19 20  1  0  0  0  0
 19 26  1  1  0  0  0
 20 21  1  0  0  0  0
 20 23  1  6  0  0  0
 21 22  1  1  0  0  0
 21 24  1  0  0  0  0
 22 27  1  0  0  0  0
 28 12  1  6  0  0  0
 28 29  1  0  0  0  0
 28 33  1  0  0  0  0
 29 30  1  0  0  0  0
 29 36  1  1  0  0  0
 30 31  1  0  0  0  0
 30 37  1  1  0  0  0
 31 32  1  0  0  0  0
 31 34  1  1  0  0  0
 32 33  1  0  0  0  0
 33 35  1  6  0  0  0
M  END
>  <CHROM.1>
33.56119341,-85.28392728,53.00916735,125.70309502,154.22147062,-69.16592789
-7.94103955,24.26082186,67.73875040,0.19557098,-1.01336706,-2.41838421

>  <Name>
ligand

>  <RI>
0

>  <Rbt.Current_Directory>
/home/itssahil/PROJECTS/Mol_Feturizer/Test_systems_manuscript/rnas/2g5k

>  <Rbt.Executable>
rbdock ($Id: //depot/dev/client3/rdock/2013.1/src/exe/rbdock.cxx#4 $)

>  <Rbt.Library>
libRbt.so (2013.1, Build901 2013/11/27)

>  <Rbt.Parameter_File>
/export/apps/rDock/src/rDock_2013.1_src/data/scripts/dock_solv.prm

>  <Rbt.Receptor>
prm/blind_docking_100.prm

>  <SCORE>
63.6577

>  <SCORE.INTER>
35.0469

>  <SCORE.INTER.CONST>
1

>  <SCORE.INTER.POLAR>
0

>  <SCORE.INTER.ROT>
6

>  <SCORE.INTER.SOLV>
24.7531

>  <SCORE.INTER.VDW>
7.51357

>  <SCORE.INTER.norm>
0.947214

>  <SCORE.INTRA>
16.1341

>  <SCORE.INTRA.DIHEDRAL>
2.39867

>  <SCORE.INTRA.DIHEDRAL.0>
11.3972

>  <SCORE.INTRA.POLAR>
0

>  <SCORE.INTRA.POLAR.0>
0

>  <SCORE.INTRA.REPUL>
0

>  <SCORE.INTRA.REPUL.0>
0

>  <SCORE.INTRA.SOLV>
9.73054

>  <SCORE.INTRA.SOLV.lig_0>
-92.3891

>  <SCORE.INTRA.VDW>
10.0695

>  <SCORE.INTRA.VDW.0>
-2.90606

>  <SCORE.INTRA.norm>
0.436056

>  <SCORE.RESTR>
12.4767

>  <SCORE.RESTR.CAVITY>
12.4767

>  <SCORE.RESTR.norm>
0.337208

>  <SCORE.SYSTEM>
0

>  <SCORE.SYSTEM.CONST>
0

>  <SCORE.SYSTEM.DIHEDRAL>
0

>  <SCORE.SYSTEM.SOLV>
0

>  <SCORE.SYSTEM.norm>
0

>  <SCORE.heavy>
37

>  <SCORE.norm>
1.72048

>  <RMSD>
8.040

$$$$
ligand
 OpenBabel02271912133D
libRbt.so/2013.1/901 2013/11/27
 37 40  0  0  0  0  0  0  0  0999 V2000
   -7.5275   27.2539   63.2251 C   0  0  1  0  0  0  0  0  0  0  0  0
   -9.0100   27.5270   63.6074 C   0  0  1  0  0  0  0  0  0  0  0  0
   -9.3217   27.0961   65.0533 C   0  0  0  0  0  0  0  0  0  0  0  0
   -8.9730   25.5838   65.2163 C   0  0  1  0  0  0  0  0  0  0  0  0
   -7.4682   25.3260   64.8805 C   0  0  1  0  0  0  0  0  0  0  0  0
   -7.1347   23.7754   65.0516 C   0  0  1  0  0  0  0  0  0  0  0  0
   -7.4429   23.3512   66.5175 C   0  0  1  0  0  0  0  0  0  0  0  0
   -8.9424   23.6616   66.8073 C   0  0  2  0  0  0  0  0  0  0  0  0
   -8.2986   20.9193   66.7707 C   0  0  0  0  0  0  0  0  0  0  0  0
   -9.3445   28.9534   63.4103 N   0  0  0  0  0  0  0  0  0  0  0  0
   -7.1524   21.8817   66.7152 N   0  0  0  0  0  0  0  0  0  0  0  0
   -6.6076   28.1051   63.9361 O   0  0  0  0  0  0  0  0  0  0  0  0
   -7.2299   25.8224   63.4924 O   0  0  0  0  0  0  0  0  0  0  0  0
   -9.2482   25.0836   66.6033 O   0  0  0  0  0  0  0  0  0  0  0  0
   -7.9589   23.0088   64.1832 O   0  0  0  0  0  0  0  0  0  0  0  0
   -9.2642   23.3062   68.1472 O   0  0  0  0  0  0  0  0  0  0  0  0
   -8.4982   24.0230   69.1465 C   0  0  2  0  0  0  0  0  0  0  0  0
   -7.5608   23.1004   69.9611 C   0  0  1  0  0  0  0  0  0  0  0  0
   -8.3852   22.1058   70.8406 C   0  0  2  0  0  0  0  0  0  0  0  0
   -9.2522   22.8977   71.7982 C   0  0  1  0  0  0  0  0  0  0  0  0
  -10.2150   23.8049   70.9749 C   0  0  1  0  0  0  0  0  0  0  0  0
  -11.1119   24.6565   71.8714 C   0  0  0  0  0  0  0  0  0  0  0  0
  -10.0214   21.9605   72.6519 N   0  0  0  0  0  0  0  0  0  0  0  0
   -9.4152   24.7163   70.0998 O   0  0  0  0  0  0  0  0  0  0  0  0
   -6.7000   22.4205   69.0204 O   0  0  0  0  0  0  0  0  0  0  0  0
   -7.4993   21.2755   71.5949 O   0  0  0  0  0  0  0  0  0  0  0  0
  -10.4991   25.9034   72.0927 O   0  0  0  0  0  0  0  0  0  0  0  0
   -5.8546   27.6624   65.1719 C   0  0  1  0  0  0  0  0  0  0  0  0
   -6.8902   27.3053   66.2731 C   0  0  1  0  0  0  0  0  0  0  0  0
   -6.1563   26.8472   67.5667 C   0  0  2  0  0  0  0  0  0  0  0  0
   -5.2954   25.6000   67.2478 C   0  0  1  0  0  0  0  0  0  0  0  0
   -4.2320   25.9353   66.1415 C   0  0  0  0  0  0  0  0  0  0  0  0
   -4.9818   26.4021   64.8757 C   0  0  2  0  0  0  0  0  0  0  0  0
   -4.5965   25.1500   68.4755 N   0  0  0  0  0  0  0  0  0  0  0  0
   -3.9822   26.7144   63.8485 N   0  0  0  0  0  0  0  0  0  0  0  0
   -7.6958   28.4672   66.5705 O   0  0  0  0  0  0  0  0  0  0  0  0
   -7.1404   26.5276   68.5753 O   0  0  0  0  0  0  0  0  0  0  0  0
  1  2  1  0  0  0  0
  1 12  1  1  0  0  0
  1 13  1  0  0  0  0
  2  3  1  0  0  0  0
  2 10  1  1  0  0  0
  4  3  1  1  0  0  0
  4  5  1  0  0  0  0
  4 14  1  0  0  0  0
  5  6  1  0  0  0  0
  5 13  1  6  0  0  0
  6  7  1  0  0  0  0
  6 15  1  6  0  0  0
  7  8  1  0  0  0  0
  7 11  1  6  0  0  0
  8 14  1  0  0  0  0
  8 16  1  1  0  0  0
  9 11  1  0  0  0  0
 17 16  1  6  0  0  0
 17 18  1  0  0  0  0
 17 24  1  0  0  0  0
 18 19  1  0  0  0  0
 18 25  1  6  0  0  0
 19 20  1  0  0  0  0
 19 26  1  1  0  0  0
 20 21  1  0  0  0  0
 20 23  1  6  0  0  0
 21 22  1  1  0  0  0
 21 24  1  0  0  0  0
 22 27  1  0  0  0  0
 28 12  1  6  0  0  0
 28 29  1  0  0  0  0
 28 33  1  0  0  0  0
 29 30  1  0  0  0  0
 29 36  1  1  0  0  0
 30 31  1  0  0  0  0
 30 37  1  1  0  0  0
 31 32  1  0  0  0  0
 31 34  1  1  0  0  0
 32 33  1  0  0  0  0
 33 35  1  6  0  0  0
M  END
>  <CHROM.1>
98.54366885,-103.57344025,60.61218931,-61.09001812,-114.54731323,92.55966766
-7.77465403,24.96521356,67.27860151,1.12920171,0.86235146,-0.68491025

>  <Name>
ligand

>  <RI>
0

>  <Rbt.Current_Directory>
/home/itssahil/PROJECTS/Mol_Feturizer/Test_systems_manuscript/rnas/2g5k

>  <Rbt.Executable>
rbdock ($Id: //depot/dev/client3/rdock/2013.1/src/exe/rbdock.cxx#4 $)

>  <Rbt.Library>
libRbt.so (2013.1, Build901 2013/11/27)

>  <Rbt.Parameter_File>
/export/apps/rDock/src/rDock_2013.1_src/data/scripts/dock_solv.prm

>  <Rbt.Receptor>
prm/blind_docking_100.prm

>  <SCORE>
57.1984

>  <SCORE.INTER>
17.9915

>  <SCORE.INTER.CONST>
1

>  <SCORE.INTER.POLAR>
0

>  <SCORE.INTER.ROT>
6

>  <SCORE.INTER.SOLV>
26.4925

>  <SCORE.INTER.VDW>
-4.43653

>  <SCORE.INTER.norm>
0.486256

>  <SCORE.INTRA>
22.4892

>  <SCORE.INTRA.DIHEDRAL>
4.82974

>  <SCORE.INTRA.DIHEDRAL.0>
11.3972

>  <SCORE.INTRA.POLAR>
0

>  <SCORE.INTRA.POLAR.0>
0

>  <SCORE.INTRA.REPUL>
0

>  <SCORE.INTRA.REPUL.0>
0

>  <SCORE.INTRA.SOLV>
7.91544

>  <SCORE.INTRA.SOLV.lig_0>
-92.3891

>  <SCORE.INTRA.VDW>
16.1166

>  <SCORE.INTRA.VDW.0>
-2.90606

>  <SCORE.INTRA.norm>
0.607816

>  <SCORE.RESTR>
16.7177

>  <SCORE.RESTR.CAVITY>
16.7177

>  <SCORE.RESTR.norm>
0.451829

>  <SCORE.SYSTEM>
0

>  <SCORE.SYSTEM.CONST>
0

>  <SCORE.SYSTEM.DIHEDRAL>
0

>  <SCORE.SYSTEM.SOLV>
0

>  <SCORE.SYSTEM.norm>
0

>  <SCORE.heavy>
37

>  <SCORE.norm>
1.5459

>  <RMSD>
8.046

$$$$
ligand
 OpenBabel02271912133D
libRbt.so/2013.1/901 2013/11/27
 37 40  0  0  0  0  0  0  0  0999 V2000
   -8.0702   23.2691   64.0698 C   0  0  1  0  0  0  0  0  0  0  0  0
   -9.6023   23.0484   64.2204 C   0  0  1  0  0  0  0  0  0  0  0  0
  -10.1096   23.4580   65.6162 C   0  0  0  0  0  0  0  0  0  0  0  0
   -9.3213   22.6540   66.6966 C   0  0  1  0  0  0  0  0  0  0  0  0
   -7.7863   22.9217   66.5717 C   0  0  1  0  0  0  0  0  0  0  0  0
   -7.0008   22.0894   67.6829 C   0  0  1  0  0  0  0  0  0  0  0  0
   -7.5124   22.5167   69.0899 C   0  0  1  0  0  0  0  0  0  0  0  0
   -9.0487   22.2609   69.1457 C   0  0  2  0  0  0  0  0  0  0  0  0
   -7.3432   20.4020   70.5765 C   0  0  0  0  0  0  0  0  0  0  0  0
  -10.3396   23.7792   63.1681 N   0  0  0  0  0  0  0  0  0  0  0  0
   -6.8003   21.7376   70.1709 N   0  0  0  0  0  0  0  0  0  0  0  0
   -7.7111   24.6645   64.0591 O   0  0  0  0  0  0  0  0  0  0  0  0
   -7.3824   22.5598   65.1803 O   0  0  0  0  0  0  0  0  0  0  0  0
   -9.7569   22.9969   68.0902 O   0  0  0  0  0  0  0  0  0  0  0  0
   -7.2615   20.7017   67.5166 O   0  0  0  0  0  0  0  0  0  0  0  0
   -9.5636   22.6569   70.4119 O   0  0  0  0  0  0  0  0  0  0  0  0
   -8.8879   23.8002   70.9908 C   0  0  2  0  0  0  0  0  0  0  0  0
   -9.7937   24.6141   71.9450 C   0  0  1  0  0  0  0  0  0  0  0  0
  -10.9606   25.2947   71.1591 C   0  0  2  0  0  0  0  0  0  0  0  0
  -10.3751   26.2280   70.1189 C   0  0  1  0  0  0  0  0  0  0  0  0
   -9.4861   25.4012   69.1423 C   0  0  1  0  0  0  0  0  0  0  0  0
   -8.8379   26.2767   68.0716 C   0  0  0  0  0  0  0  0  0  0  0  0
  -11.4767   26.8948   69.3835 N   0  0  0  0  0  0  0  0  0  0  0  0
   -8.4044   24.7138   69.9129 O   0  0  0  0  0  0  0  0  0  0  0  0
  -10.2710   23.7082   72.9646 O   0  0  0  0  0  0  0  0  0  0  0  0
  -11.7739   26.0527   72.0575 O   0  0  0  0  0  0  0  0  0  0  0  0
   -8.0670   27.2767   68.6922 O   0  0  0  0  0  0  0  0  0  0  0  0
   -7.2365   25.4078   65.2889 C   0  0  1  0  0  0  0  0  0  0  0  0
   -5.7156   25.1439   65.4625 C   0  0  1  0  0  0  0  0  0  0  0  0
   -5.1855   25.8891   66.7217 C   0  0  2  0  0  0  0  0  0  0  0  0
   -5.4266   27.4093   66.5513 C   0  0  1  0  0  0  0  0  0  0  0  0
   -6.9597   27.7065   66.3822 C   0  0  0  0  0  0  0  0  0  0  0  0
   -7.4654   26.9449   65.1386 C   0  0  2  0  0  0  0  0  0  0  0  0
   -4.9187   28.1308   67.7429 N   0  0  0  0  0  0  0  0  0  0  0  0
   -8.8973   27.2265   64.9885 N   0  0  0  0  0  0  0  0  0  0  0  0
   -5.4886   23.7257   65.6193 O   0  0  0  0  0  0  0  0  0  0  0  0
   -3.7725   25.6223   66.8635 O   0  0  0  0  0  0  0  0  0  0  0  0
  1  2  1  0  0  0  0
  1 12  1  1  0  0  0
  1 13  1  0  0  0  0
  2  3  1  0  0  0  0
  2 10  1  6  0  0  0
  4  3  1  6  0  0  0
  4  5  1  0  0  0  0
  4 14  1  0  0  0  0
  5  6  1  0  0  0  0
  5 13  1  6  0  0  0
  6  7  1  0  0  0  0
  6 15  1  6  0  0  0
  7  8  1  0  0  0  0
  7 11  1  1  0  0  0
  8 14  1  0  0  0  0
  8 16  1  1  0  0  0
  9 11  1  0  0  0  0
 17 16  1  6  0  0  0
 17 18  1  0  0  0  0
 17 24  1  0  0  0  0
 18 19  1  0  0  0  0
 18 25  1  1  0  0  0
 19 20  1  0  0  0  0
 19 26  1  1  0  0  0
 20 21  1  0  0  0  0
 20 23  1  6  0  0  0
 21 22  1  6  0  0  0
 21 24  1  0  0  0  0
 22 27  1  0  0  0  0
 28 12  1  6  0  0  0
 28 29  1  0  0  0  0
 28 33  1  0  0  0  0
 29 30  1  0  0  0  0
 29 36  1  1  0  0  0
 30 31  1  0  0  0  0
 30 37  1  6  0  0  0
 31 32  1  0  0  0  0
 31 34  1  1  0  0  0
 32 33  1  0  0  0  0
 33 35  1  1  0  0  0
M  END
>  <CHROM.1>
96.67661906,-86.50771070,33.66979448,83.22881075,152.84336664,57.79755642
-8.21283807,24.44170102,67.80105419,-0.05432912,-1.10773058,-3.04862555

>  <Name>
ligand

>  <RI>
0

>  <Rbt.Current_Directory>
/home/itssahil/PROJECTS/Mol_Feturizer/Test_systems_manuscript/rnas/2g5k

>  <Rbt.Executable>
rbdock ($Id: //depot/dev/client3/rdock/2013.1/src/exe/rbdock.cxx#4 $)

>  <Rbt.Library>
libRbt.so (2013.1, Build901 2013/11/27)

>  <Rbt.Parameter_File>
/export/apps/rDock/src/rDock_2013.1_src/data/scripts/dock_solv.prm

>  <Rbt.Receptor>
prm/blind_docking_100.prm

>  <SCORE>
36.9878

>  <SCORE.INTER>
5.31238

>  <SCORE.INTER.CONST>
1

>  <SCORE.INTER.POLAR>
0

>  <SCORE.INTER.ROT>
6

>  <SCORE.INTER.SOLV>
22.2013

>  <SCORE.INTER.VDW>
-11.4589

>  <SCORE.INTER.norm>
0.143578

>  <SCORE.INTRA>
16.0253

>  <SCORE.INTRA.DIHEDRAL>
2.27825

>  <SCORE.INTRA.DIHEDRAL.0>
11.3972

>  <SCORE.INTRA.POLAR>
0

>  <SCORE.INTRA.POLAR.0>
0

>  <SCORE.INTRA.REPUL>
0

>  <SCORE.INTRA.REPUL.0>
0

>  <SCORE.INTRA.SOLV>
5.73559

>  <SCORE.INTRA.SOLV.lig_0>
-92.3891

>  <SCORE.INTRA.VDW>
12.0183

>  <SCORE.INTRA.VDW.0>
-2.90606

>  <SCORE.INTRA.norm>
0.433115

>  <SCORE.RESTR>
15.6502

>  <SCORE.RESTR.CAVITY>
15.6502

>  <SCORE.RESTR.norm>
0.422977

>  <SCORE.SYSTEM>
0

>  <SCORE.SYSTEM.CONST>
0

>  <SCORE.SYSTEM.DIHEDRAL>
0

>  <SCORE.SYSTEM.SOLV>
0

>  <SCORE.SYSTEM.norm>
0

>  <SCORE.heavy>
37

>  <SCORE.norm>
0.99967

>  <RMSD>
8.081

$$$$
ligand
 OpenBabel02271912133D
libRbt.so/2013.1/901 2013/11/27
 37 40  0  0  0  0  0  0  0  0999 V2000
   -9.0631   24.9958   63.9161 C   0  0  1  0  0  0  0  0  0  0  0  0
  -10.1519   24.2397   64.7294 C   0  0  1  0  0  0  0  0  0  0  0  0
  -10.0638   24.5473   66.2364 C   0  0  0  0  0  0  0  0  0  0  0  0
   -8.6341   24.1820   66.7440 C   0  0  1  0  0  0  0  0  0  0  0  0
   -7.5481   24.9849   65.9569 C   0  0  1  0  0  0  0  0  0  0  0  0
   -6.0961   24.5949   66.4902 C   0  0  1  0  0  0  0  0  0  0  0  0
   -6.0127   24.9182   68.0109 C   0  0  1  0  0  0  0  0  0  0  0  0
   -7.1361   24.1203   68.7388 C   0  0  2  0  0  0  0  0  0  0  0  0
   -3.4436   25.2498   68.0209 C   0  0  0  0  0  0  0  0  0  0  0  0
  -11.5008   24.5583   64.2154 N   0  0  0  0  0  0  0  0  0  0  0  0
   -4.6533   24.5481   68.5567 N   0  0  0  0  0  0  0  0  0  0  0  0
   -9.2839   26.4194   63.8870 O   0  0  0  0  0  0  0  0  0  0  0  0
   -7.7351   24.6838   64.5063 O   0  0  0  0  0  0  0  0  0  0  0  0
   -8.4648   24.4541   68.2093 O   0  0  0  0  0  0  0  0  0  0  0  0
   -5.8806   23.2002   66.3188 O   0  0  0  0  0  0  0  0  0  0  0  0
   -7.1093   24.4017   70.1335 O   0  0  0  0  0  0  0  0  0  0  0  0
   -7.6764   23.3529   70.9567 C   0  0  2  0  0  0  0  0  0  0  0  0
   -7.4341   21.9383   70.3792 C   0  0  1  0  0  0  0  0  0  0  0  0
   -8.2080   21.7455   69.0353 C   0  0  2  0  0  0  0  0  0  0  0  0
   -9.6905   21.9271   69.2904 C   0  0  1  0  0  0  0  0  0  0  0  0
   -9.9352   23.3624   69.8451 C   0  0  1  0  0  0  0  0  0  0  0  0
  -11.4097   23.6186   70.1507 C   0  0  0  0  0  0  0  0  0  0  0  0
  -10.4341   21.7237   68.0237 N   0  0  0  0  0  0  0  0  0  0  0  0
   -9.1493   23.5519   71.1031 O   0  0  0  0  0  0  0  0  0  0  0  0
   -6.0070   21.7750   70.2215 O   0  0  0  0  0  0  0  0  0  0  0  0
   -7.9819   20.4279   68.5294 O   0  0  0  0  0  0  0  0  0  0  0  0
  -11.5800   24.9637   70.5265 O   0  0  0  0  0  0  0  0  0  0  0  0
   -8.2724   27.4257   64.3912 C   0  0  1  0  0  0  0  0  0  0  0  0
   -8.3975   27.5116   65.9370 C   0  0  1  0  0  0  0  0  0  0  0  0
   -7.3745   28.5412   66.4984 C   0  0  2  0  0  0  0  0  0  0  0  0
   -5.9414   28.0895   66.1236 C   0  0  1  0  0  0  0  0  0  0  0  0
   -5.7836   28.0024   64.5633 C   0  0  0  0  0  0  0  0  0  0  0  0
   -6.8178   26.9890   64.0286 C   0  0  2  0  0  0  0  0  0  0  0  0
   -4.9570   29.0600   66.6597 N   0  0  0  0  0  0  0  0  0  0  0  0
   -6.6650   26.9145   62.5715 N   0  0  0  0  0  0  0  0  0  0  0  0
   -9.7346   27.9308   66.2886 O   0  0  0  0  0  0  0  0  0  0  0  0
   -7.5158   28.6064   67.9349 O   0  0  0  0  0  0  0  0  0  0  0  0
  1  2  1  0  0  0  0
  1 12  1  1  0  0  0
  1 13  1  0  0  0  0
  2  3  1  0  0  0  0
  2 10  1  6  0  0  0
  4  3  1  6  0  0  0
  4  5  1  0  0  0  0
  4 14  1  0  0  0  0
  5  6  1  0  0  0  0
  5 13  1  6  0  0  0
  6  7  1  0  0  0  0
  6 15  1  1  0  0  0
  7  8  1  0  0  0  0
  7 11  1  1  0  0  0
  8 14  1  0  0  0  0
  8 16  1  1  0  0  0
  9 11  1  0  0  0  0
 17 16  1  6  0  0  0
 17 18  1  0  0  0  0
 17 24  1  0  0  0  0
 18 19  1  0  0  0  0
 18 25  1  6  0  0  0
 19 20  1  0  0  0  0
 19 26  1  1  0  0  0
 20 21  1  0  0  0  0
 20 23  1  6  0  0  0
 21 22  1  1  0  0  0
 21 24  1  0  0  0  0
 22 27  1  0  0  0  0
 28 12  1  1  0  0  0
 28 29  1  0  0  0  0
 28 33  1  0  0  0  0
 29 30  1  0  0  0  0
 29 36  1  6  0  0  0
 30 31  1  0  0  0  0
 30 37  1  1  0  0  0
 31 32  1  0  0  0  0
 31 34  1  6  0  0  0
 32 33  1  0  0  0  0
 33 35  1  6  0  0  0
M  END
>  <CHROM.1>
121.77988920,62.56487702,-155.14942671,-80.91155446,33.56614208,-174.54505926
-7.94322649,24.89506248,67.27171751,1.35941857,-0.33282200,-0.88971330

>  <Name>
ligand

>  <RI>
0

>  <Rbt.Current_Directory>
/home/itssahil/PROJECTS/Mol_Feturizer/Test_systems_manuscript/rnas/2g5k

>  <Rbt.Executable>
rbdock ($Id: //depot/dev/client3/rdock/2013.1/src/exe/rbdock.cxx#4 $)

>  <Rbt.Library>
libRbt.so (2013.1, Build901 2013/11/27)

>  <Rbt.Parameter_File>
/export/apps/rDock/src/rDock_2013.1_src/data/scripts/dock_solv.prm

>  <Rbt.Receptor>
prm/blind_docking_100.prm

>  <SCORE>
75.0151

>  <SCORE.INTER>
44.8742

>  <SCORE.INTER.CONST>
1

>  <SCORE.INTER.POLAR>
0

>  <SCORE.INTER.ROT>
6

>  <SCORE.INTER.SOLV>
21.285

>  <SCORE.INTER.VDW>
15.2211

>  <SCORE.INTER.norm>
1.21282

>  <SCORE.INTRA>
13.5214

>  <SCORE.INTRA.DIHEDRAL>
3.42848

>  <SCORE.INTRA.DIHEDRAL.0>
11.3972

>  <SCORE.INTRA.POLAR>
0

>  <SCORE.INTRA.POLAR.0>
0

>  <SCORE.INTRA.REPUL>
0

>  <SCORE.INTRA.REPUL.0>
0

>  <SCORE.INTRA.SOLV>
5.95446

>  <SCORE.INTRA.SOLV.lig_0>
-92.3891

>  <SCORE.INTRA.VDW>
8.82988

>  <SCORE.INTRA.VDW.0>
-2.90606

>  <SCORE.INTRA.norm>
0.365442

>  <SCORE.RESTR>
16.6196

>  <SCORE.RESTR.CAVITY>
16.6196

>  <SCORE.RESTR.norm>
0.449177

>  <SCORE.SYSTEM>
0

>  <SCORE.SYSTEM.CONST>
0

>  <SCORE.SYSTEM.DIHEDRAL>
0

>  <SCORE.SYSTEM.SOLV>
0

>  <SCORE.SYSTEM.norm>
0

>  <SCORE.heavy>
37

>  <SCORE.norm>
2.02744

>  <RMSD>
8.282

$$$$
ligand
 OpenBabel02271912133D
libRbt.so/2013.1/901 2013/11/27
 37 40  0  0  0  0  0  0  0  0999 V2000
   -5.7521   27.4466   65.0260 C   0  0  1  0  0  0  0  0  0  0  0  0
   -4.6895   27.0776   66.0999 C   0  0  1  0  0  0  0  0  0  0  0  0
   -5.2142   26.0222   67.0920 C   0  0  0  0  0  0  0  0  0  0  0  0
   -6.5183   26.5602   67.7593 C   0  0  1  0  0  0  0  0  0  0  0  0
   -7.5998   26.8796   66.6768 C   0  0  1  0  0  0  0  0  0  0  0  0
   -8.9219   27.4292   67.3802 C   0  0  1  0  0  0  0  0  0  0  0  0
   -9.4507   26.3529   68.3731 C   0  0  1  0  0  0  0  0  0  0  0  0
   -8.3231   26.0492   69.4051 C   0  0  2  0  0  0  0  0  0  0  0  0
  -10.5531   27.7300   70.2702 C   0  0  0  0  0  0  0  0  0  0  0  0
   -3.4425   26.6088   65.4591 N   0  0  0  0  0  0  0  0  0  0  0  0
  -10.6973   26.8441   69.0713 N   0  0  0  0  0  0  0  0  0  0  0  0
   -6.0142   26.3634   64.1127 O   0  0  0  0  0  0  0  0  0  0  0  0
   -6.9993   27.8582   65.7219 O   0  0  0  0  0  0  0  0  0  0  0  0
   -7.0962   25.5867   68.7432 O   0  0  0  0  0  0  0  0  0  0  0  0
   -8.6189   28.6058   68.1185 O   0  0  0  0  0  0  0  0  0  0  0  0
   -8.7576   25.0529   70.3236 O   0  0  0  0  0  0  0  0  0  0  0  0
   -9.4285   23.9301   69.7005 C   0  0  2  0  0  0  0  0  0  0  0  0
   -9.7838   22.8090   70.7056 C   0  0  1  0  0  0  0  0  0  0  0  0
   -8.4906   22.1373   71.2704 C   0  0  2  0  0  0  0  0  0  0  0  0
   -7.7046   21.5390   70.1214 C   0  0  1  0  0  0  0  0  0  0  0  0
   -7.3235   22.6747   69.1250 C   0  0  1  0  0  0  0  0  0  0  0  0
   -6.5448   22.1479   67.9212 C   0  0  0  0  0  0  0  0  0  0  0  0
   -6.4866   20.8801   70.6517 N   0  0  0  0  0  0  0  0  0  0  0  0
   -8.5667   23.3431   68.6312 O   0  0  0  0  0  0  0  0  0  0  0  0
  -10.5953   23.4015   71.7441 O   0  0  0  0  0  0  0  0  0  0  0  0
   -8.8435   21.0958   72.1835 O   0  0  0  0  0  0  0  0  0  0  0  0
   -7.2280   21.0484   67.3701 O   0  0  0  0  0  0  0  0  0  0  0  0
   -7.3468   25.6508   64.0323 C   0  0  1  0  0  0  0  0  0  0  0  0
   -7.3726   24.5394   65.1172 C   0  0  1  0  0  0  0  0  0  0  0  0
   -8.7282   23.7767   65.0669 C   0  0  2  0  0  0  0  0  0  0  0  0
   -9.8829   24.7753   65.3274 C   0  0  1  0  0  0  0  0  0  0  0  0
   -9.8861   25.9071   64.2383 C   0  0  0  0  0  0  0  0  0  0  0  0
   -8.5276   26.6377   64.2962 C   0  0  2  0  0  0  0  0  0  0  0  0
  -11.1800   24.0581   65.2889 N   0  0  0  0  0  0  0  0  0  0  0  0
   -8.5381   27.6915   63.2758 N   0  0  0  0  0  0  0  0  0  0  0  0
   -6.2946   23.6079   64.8770 O   0  0  0  0  0  0  0  0  0  0  0  0
   -8.7237   22.7463   66.0799 O   0  0  0  0  0  0  0  0  0  0  0  0
  1  2  1  0  0  0  0
  1 12  1  6  0  0  0
  1 13  1  0  0  0  0
  2  3  1  0  0  0  0
  2 10  1  6  0  0  0
  4  3  1  6  0  0  0
  4  5  1  0  0  0  0
  4 14  1  0  0  0  0
  5  6  1  0  0  0  0
  5 13  1  6  0  0  0
  6  7  1  0  0  0  0
  6 15  1  1  0  0  0
  7  8  1  0  0  0  0
  7 11  1  1  0  0  0
  8 14  1  0  0  0  0
  8 16  1  1  0  0  0
  9 11  1  0  0  0  0
 17 16  1  1  0  0  0
 17 18  1  0  0  0  0
 17 24  1  0  0  0  0
 18 19  1  0  0  0  0
 18 25  1  1  0  0  0
 19 20  1  0  0  0  0
 19 26  1  1  0  0  0
 20 21  1  0  0  0  0
 20 23  1  1  0  0  0
 21 22  1  6  0  0  0
 21 24  1  0  0  0  0
 22 27  1  0  0  0  0
 28 12  1  1  0  0  0
 28 29  1  0  0  0  0
 28 33  1  0  0  0  0
 29 30  1  0  0  0  0
 29 36  1  6  0  0  0
 30 31  1  0  0  0  0
 30 37  1  1  0  0  0
 31 32  1  0  0  0  0
 31 34  1  6  0  0  0
 32 33  1  0  0  0  0
 33 35  1  6  0  0  0
M  END
>  <CHROM.1>
114.18305210,-82.98731689,44.88204674,-84.64569537,175.17331995,49.92418742
-8.00755034,24.92202065,67.50714651,-1.18941120,-0.88711559,2.50413044

>  <Name>
ligand

>  <RI>
0

>  <Rbt.Current_Directory>
/home/itssahil/PROJECTS/Mol_Feturizer/Test_systems_manuscript/rnas/2g5k

>  <Rbt.Executable>
rbdock ($Id: //depot/dev/client3/rdock/2013.1/src/exe/rbdock.cxx#4 $)

>  <Rbt.Library>
libRbt.so (2013.1, Build901 2013/11/27)

>  <Rbt.Parameter_File>
/export/apps/rDock/src/rDock_2013.1_src/data/scripts/dock_solv.prm

>  <Rbt.Receptor>
prm/blind_docking_100.prm

>  <SCORE>
37.2976

>  <SCORE.INTER>
7.70464

>  <SCORE.INTER.CONST>
1

>  <SCORE.INTER.POLAR>
0

>  <SCORE.INTER.ROT>
6

>  <SCORE.INTER.SOLV>
21.5897

>  <SCORE.INTER.VDW>
-9.66013

>  <SCORE.INTER.norm>
0.208233

>  <SCORE.INTRA>
12.1589

>  <SCORE.INTRA.DIHEDRAL>
0.182041

>  <SCORE.INTRA.DIHEDRAL.0>
11.3972

>  <SCORE.INTRA.POLAR>
0

>  <SCORE.INTRA.POLAR.0>
0

>  <SCORE.INTRA.REPUL>
0.0431798

>  <SCORE.INTRA.REPUL.0>
0

>  <SCORE.INTRA.SOLV>
5.79709

>  <SCORE.INTRA.SOLV.lig_0>
-92.3891

>  <SCORE.INTRA.VDW>
8.95347

>  <SCORE.INTRA.VDW.0>
-2.90606

>  <SCORE.INTRA.norm>
0.32862

>  <SCORE.RESTR>
17.434

>  <SCORE.RESTR.CAVITY>
17.434

>  <SCORE.RESTR.norm>
0.471189

>  <SCORE.SYSTEM>
0

>  <SCORE.SYSTEM.CONST>
0

>  <SCORE.SYSTEM.DIHEDRAL>
0

>  <SCORE.SYSTEM.SOLV>
0

>  <SCORE.SYSTEM.norm>
0

>  <SCORE.heavy>
37

>  <SCORE.norm>
1.00804

>  <RMSD>
8.406

$$$$
ligand
 OpenBabel02271912133D
libRbt.so/2013.1/901 2013/11/27
 37 40  0  0  0  0  0  0  0  0999 V2000
  -10.7784   22.9513   66.2285 C   0  0  1  0  0  0  0  0  0  0  0  0
  -10.7183   23.4827   64.7682 C   0  0  1  0  0  0  0  0  0  0  0  0
   -9.2708   23.5856   64.2509 C   0  0  0  0  0  0  0  0  0  0  0  0
   -8.4543   24.5039   65.2127 C   0  0  1  0  0  0  0  0  0  0  0  0
   -8.4763   23.9350   66.6686 C   0  0  1  0  0  0  0  0  0  0  0  0
   -7.6384   24.8893   67.6339 C   0  0  1  0  0  0  0  0  0  0  0  0
   -6.1752   24.9794   67.1096 C   0  0  1  0  0  0  0  0  0  0  0  0
   -6.2160   25.5177   65.6477 C   0  0  2  0  0  0  0  0  0  0  0  0
   -3.8591   25.7758   67.9533 C   0  0  0  0  0  0  0  0  0  0  0  0
  -11.5281   22.6318   63.8707 N   0  0  0  0  0  0  0  0  0  0  0  0
   -5.3520   25.8885   67.9921 N   0  0  0  0  0  0  0  0  0  0  0  0
  -10.3849   21.5689   66.3304 O   0  0  0  0  0  0  0  0  0  0  0  0
   -9.9074   23.8074   67.0758 O   0  0  0  0  0  0  0  0  0  0  0  0
   -7.0270   24.6558   64.7778 O   0  0  0  0  0  0  0  0  0  0  0  0
   -8.1978   26.1962   67.6204 O   0  0  0  0  0  0  0  0  0  0  0  0
   -4.8968   25.5982   65.1202 O   0  0  0  0  0  0  0  0  0  0  0  0
   -4.6846   26.7249   64.2344 C   0  0  2  0  0  0  0  0  0  0  0  0
   -4.3091   28.0214   64.9904 C   0  0  1  0  0  0  0  0  0  0  0  0
   -5.5034   28.5213   65.8656 C   0  0  2  0  0  0  0  0  0  0  0  0
   -6.6900   28.8009   64.9657 C   0  0  1  0  0  0  0  0  0  0  0  0
   -7.0840   27.4868   64.2270 C   0  0  1  0  0  0  0  0  0  0  0  0
   -8.2639   27.6904   63.2786 C   0  0  0  0  0  0  0  0  0  0  0  0
   -7.8210   29.2972   65.7863 N   0  0  0  0  0  0  0  0  0  0  0  0
   -5.9171   26.9910   63.4342 O   0  0  0  0  0  0  0  0  0  0  0  0
   -3.1310   27.7365   65.7773 O   0  0  0  0  0  0  0  0  0  0  0  0
   -5.1390   29.7270   66.5413 O   0  0  0  0  0  0  0  0  0  0  0  0
   -9.4627   27.6615   64.0145 O   0  0  0  0  0  0  0  0  0  0  0  0
   -9.3577   21.0703   67.3234 C   0  0  1  0  0  0  0  0  0  0  0  0
   -8.0656   21.9160   67.1559 C   0  0  1  0  0  0  0  0  0  0  0  0
   -6.9782   21.4326   68.1587 C   0  0  2  0  0  0  0  0  0  0  0  0
   -7.5125   21.5923   69.6034 C   0  0  1  0  0  0  0  0  0  0  0  0
   -8.8161   20.7394   69.8040 C   0  0  0  0  0  0  0  0  0  0  0  0
   -9.8728   21.2254   68.7892 C   0  0  2  0  0  0  0  0  0  0  0  0
   -6.4814   21.1411   70.5686 N   0  0  0  0  0  0  0  0  0  0  0  0
  -11.0859   20.4235   68.9820 N   0  0  0  0  0  0  0  0  0  0  0  0
   -7.5668   21.7700   65.8078 O   0  0  0  0  0  0  0  0  0  0  0  0
   -5.7868   22.2300   67.9779 O   0  0  0  0  0  0  0  0  0  0  0  0
  1  2  1  0  0  0  0
  1 12  1  6  0  0  0
  1 13  1  0  0  0  0
  2  3  1  0  0  0  0
  2 10  1  6  0  0  0
  4  3  1  6  0  0  0
  4  5  1  0  0  0  0
  4 14  1  0  0  0  0
  5  6  1  0  0  0  0
  5 13  1  1  0  0  0
  6  7  1  0  0  0  0
  6 15  1  6  0  0  0
  7  8  1  0  0  0  0
  7 11  1  1  0  0  0
  8 14  1  0  0  0  0
  8 16  1  6  0  0  0
  9 11  1  0  0  0  0
 17 16  1  1  0  0  0
 17 18  1  0  0  0  0
 17 24  1  0  0  0  0
 18 19  1  0  0  0  0
 18 25  1  1  0  0  0
 19 20  1  0  0  0  0
 19 26  1  6  0  0  0
 20 21  1  0  0  0  0
 20 23  1  1  0  0  0
 21 22  1  6  0  0  0
 21 24  1  0  0  0  0
 22 27  1  0  0  0  0
 28 12  1  6  0  0  0
 28 29  1  0  0  0  0
 28 33  1  0  0  0  0
 29 30  1  0  0  0  0
 29 36  1  6  0  0  0
 30 31  1  0  0  0  0
 30 37  1  1  0  0  0
 31 32  1  0  0  0  0
 31 34  1  1  0  0  0
 32 33  1  0  0  0  0
 33 35  1  6  0  0  0
M  END
>  <CHROM.1>
129.59162393,160.27079065,-144.52182383,-53.24637000,85.46390338,-80.78854832
-7.49609905,24.68483684,66.34740801,2.11745211,0.50385560,2.46166760

>  <Name>
ligand

>  <RI>
0

>  <Rbt.Current_Directory>
/home/itssahil/PROJECTS/Mol_Feturizer/Test_systems_manuscript/rnas/2g5k

>  <Rbt.Executable>
rbdock ($Id: //depot/dev/client3/rdock/2013.1/src/exe/rbdock.cxx#4 $)

>  <Rbt.Library>
libRbt.so (2013.1, Build901 2013/11/27)

>  <Rbt.Parameter_File>
/export/apps/rDock/src/rDock_2013.1_src/data/scripts/dock_solv.prm

>  <Rbt.Receptor>
prm/blind_docking_100.prm

>  <SCORE>
46.267

>  <SCORE.INTER>
3.65972

>  <SCORE.INTER.CONST>
1

>  <SCORE.INTER.POLAR>
0

>  <SCORE.INTER.ROT>
6

>  <SCORE.INTER.SOLV>
19.679

>  <SCORE.INTER.VDW>
-11.7198

>  <SCORE.INTER.norm>
0.0989113

>  <SCORE.INTRA>
23.6076

>  <SCORE.INTRA.DIHEDRAL>
4.64562

>  <SCORE.INTRA.DIHEDRAL.0>
11.3972

>  <SCORE.INTRA.POLAR>
0

>  <SCORE.INTRA.POLAR.0>
0

>  <SCORE.INTRA.REPUL>
0

>  <SCORE.INTRA.REPUL.0>
0

>  <SCORE.INTRA.SOLV>
5.649

>  <SCORE.INTRA.SOLV.lig_0>
-92.3891

>  <SCORE.INTRA.VDW>
18.4603

>  <SCORE.INTRA.VDW.0>
-2.90606

>  <SCORE.INTRA.norm>
0.638042

>  <SCORE.RESTR>
18.9997

>  <SCORE.RESTR.CAVITY>
18.9997

>  <SCORE.RESTR.norm>
0.513506

>  <SCORE.SYSTEM>
0

>  <SCORE.SYSTEM.CONST>
0

>  <SCORE.SYSTEM.DIHEDRAL>
0

>  <SCORE.SYSTEM.SOLV>
0

>  <SCORE.SYSTEM.norm>
0

>  <SCORE.heavy>
37

>  <SCORE.norm>
1.25046

>  <RMSD>
8.448

$$$$
ligand
 OpenBabel02271912133D
libRbt.so/2013.1/901 2013/11/27
 37 40  0  0  0  0  0  0  0  0999 V2000
   -8.2739   23.9088   71.0489 C   0  0  1  0  0  0  0  0  0  0  0  0
   -8.8511   25.3492   70.9459 C   0  0  1  0  0  0  0  0  0  0  0  0
   -9.4971   25.6150   69.5729 C   0  0  0  0  0  0  0  0  0  0  0  0
   -8.4369   25.3577   68.4571 C   0  0  1  0  0  0  0  0  0  0  0  0
   -7.8998   23.8917   68.5349 C   0  0  1  0  0  0  0  0  0  0  0  0
   -6.8173   23.6517   67.3880 C   0  0  1  0  0  0  0  0  0  0  0  0
   -7.4812   23.9126   66.0041 C   0  0  1  0  0  0  0  0  0  0  0  0
   -8.0275   25.3721   65.9956 C   0  0  2  0  0  0  0  0  0  0  0  0
   -6.8890   22.9149   63.6880 C   0  0  0  0  0  0  0  0  0  0  0  0
   -9.8232   25.5996   72.0311 N   0  0  0  0  0  0  0  0  0  0  0  0
   -6.4807   23.7089   64.8905 N   0  0  0  0  0  0  0  0  0  0  0  0
   -9.3034   22.9007   71.0654 O   0  0  0  0  0  0  0  0  0  0  0  0
   -7.3468   23.6919   69.9076 O   0  0  0  0  0  0  0  0  0  0  0  0
   -8.9894   25.5946   67.0830 O   0  0  0  0  0  0  0  0  0  0  0  0
   -5.7407   24.5668   67.5453 O   0  0  0  0  0  0  0  0  0  0  0  0
   -8.6620   25.6485   64.7521 O   0  0  0  0  0  0  0  0  0  0  0  0
   -8.2744   26.9136   64.1618 C   0  0  2  0  0  0  0  0  0  0  0  0
   -6.8121   26.9183   63.6568 C   0  0  1  0  0  0  0  0  0  0  0  0
   -5.8105   26.8007   64.8506 C   0  0  2  0  0  0  0  0  0  0  0  0
   -6.0146   27.9782   65.7822 C   0  0  1  0  0  0  0  0  0  0  0  0
   -7.4798   27.9548   66.3117 C   0  0  1  0  0  0  0  0  0  0  0  0
   -7.7743   29.1279   67.2447 C   0  0  0  0  0  0  0  0  0  0  0  0
   -5.0522   27.8857   66.9066 N   0  0  0  0  0  0  0  0  0  0  0  0
   -8.4285   28.0160   65.1574 O   0  0  0  0  0  0  0  0  0  0  0  0
   -6.6770   25.8304   62.7152 O   0  0  0  0  0  0  0  0  0  0  0  0
   -4.4675   26.8230   64.3618 O   0  0  0  0  0  0  0  0  0  0  0  0
   -7.4967   30.3346   66.5766 O   0  0  0  0  0  0  0  0  0  0  0  0
   -9.2425   21.6400   70.2306 C   0  0  1  0  0  0  0  0  0  0  0  0
   -9.6191   22.0038   68.7682 C   0  0  1  0  0  0  0  0  0  0  0  0
   -9.5727   20.7314   67.8734 C   0  0  2  0  0  0  0  0  0  0  0  0
   -8.1412   20.1413   67.9033 C   0  0  1  0  0  0  0  0  0  0  0  0
   -7.7369   19.7557   69.3713 C   0  0  0  0  0  0  0  0  0  0  0  0
   -7.8060   21.0283   70.2419 C   0  0  2  0  0  0  0  0  0  0  0  0
   -8.0831   18.9316   67.0479 N   0  0  0  0  0  0  0  0  0  0  0  0
   -7.4286   20.6597   71.6107 N   0  0  0  0  0  0  0  0  0  0  0  0
  -10.9536   22.5566   68.7387 O   0  0  0  0  0  0  0  0  0  0  0  0
   -9.9324   21.0957   66.5222 O   0  0  0  0  0  0  0  0  0  0  0  0
  1  2  1  0  0  0  0
  1 12  1  6  0  0  0
  1 13  1  0  0  0  0
  2  3  1  0  0  0  0
  2 10  1  1  0  0  0
  4  3  1  1  0  0  0
  4  5  1  0  0  0  0
  4 14  1  0  0  0  0
  5  6  1  0  0  0  0
  5 13  1  1  0  0  0
  6  7  1  0  0  0  0
  6 15  1  1  0  0  0
  7  8  1  0  0  0  0
  7 11  1  6  0  0  0
  8 14  1  0  0  0  0
  8 16  1  6  0  0  0
  9 11  1  0  0  0  0
 17 16  1  1  0  0  0
 17 18  1  0  0  0  0
 17 24  1  0  0  0  0
 18 19  1  0  0  0  0
 18 25  1  6  0  0  0
 19 20  1  0  0  0  0
 19 26  1  6  0  0  0
 20 21  1  0  0  0  0
 20 23  1  1  0  0  0
 21 22  1  1  0  0  0
 21 24  1  0  0  0  0
 22 27  1  0  0  0  0
 28 12  1  1  0  0  0
 28 29  1  0  0  0  0
 28 33  1  0  0  0  0
 29 30  1  0  0  0  0
 29 36  1  1  0  0  0
 30 31  1  0  0  0  0
 30 37  1  6  0  0  0
 31 32  1  0  0  0  0
 31 34  1  6  0  0  0
 32 33  1  0  0  0  0
 33 35  1  1  0  0  0
M  END
>  <CHROM.1>
134.32954793,134.21380171,-133.13751056,-77.36275858,69.59990448,56.33619911
-7.87567527,24.48611956,67.39249774,2.52075551,-1.25664423,-2.87106857

>  <Name>
ligand

>  <RI>
0

>  <Rbt.Current_Directory>
/home/itssahil/PROJECTS/Mol_Feturizer/Test_systems_manuscript/rnas/2g5k

>  <Rbt.Executable>
rbdock ($Id: //depot/dev/client3/rdock/2013.1/src/exe/rbdock.cxx#4 $)

>  <Rbt.Library>
libRbt.so (2013.1, Build901 2013/11/27)

>  <Rbt.Parameter_File>
/export/apps/rDock/src/rDock_2013.1_src/data/scripts/dock_solv.prm

>  <Rbt.Receptor>
prm/blind_docking_100.prm

>  <SCORE>
43.1764

>  <SCORE.INTER>
19.15

>  <SCORE.INTER.CONST>
1

>  <SCORE.INTER.POLAR>
0

>  <SCORE.INTER.ROT>
6

>  <SCORE.INTER.SOLV>
30.3752

>  <SCORE.INTER.VDW>
-4.95838

>  <SCORE.INTER.norm>
0.517568

>  <SCORE.INTRA>
9.22113

>  <SCORE.INTRA.DIHEDRAL>
4.12395

>  <SCORE.INTRA.DIHEDRAL.0>
11.3972

>  <SCORE.INTRA.POLAR>
0

>  <SCORE.INTRA.POLAR.0>
0

>  <SCORE.INTRA.REPUL>
0

>  <SCORE.INTRA.REPUL.0>
0

>  <SCORE.INTRA.SOLV>
5.17619

>  <SCORE.INTRA.SOLV.lig_0>
-92.3891

>  <SCORE.INTRA.VDW>
4.57106

>  <SCORE.INTRA.VDW.0>
-2.90606

>  <SCORE.INTRA.norm>
0.24922

>  <SCORE.RESTR>
14.8052

>  <SCORE.RESTR.CAVITY>
14.8052

>  <SCORE.RESTR.norm>
0.400142

>  <SCORE.SYSTEM>
0

>  <SCORE.SYSTEM.CONST>
0

>  <SCORE.SYSTEM.DIHEDRAL>
0

>  <SCORE.SYSTEM.SOLV>
0

>  <SCORE.SYSTEM.norm>
0

>  <SCORE.heavy>
37

>  <SCORE.norm>
1.16693

>  <RMSD>
8.542

$$$$
ligand
 OpenBabel02271912133D
libRbt.so/2013.1/901 2013/11/27
 37 40  0  0  0  0  0  0  0  0999 V2000
   -8.2276   23.9605   70.9926 C   0  0  1  0  0  0  0  0  0  0  0  0
   -8.7759   25.4120   70.8876 C   0  0  1  0  0  0  0  0  0  0  0  0
   -9.4313   25.6836   69.5201 C   0  0  0  0  0  0  0  0  0  0  0  0
   -8.3889   25.3982   68.3944 C   0  0  1  0  0  0  0  0  0  0  0  0
   -7.8814   23.9219   68.4748 C   0  0  1  0  0  0  0  0  0  0  0  0
   -6.8168   23.6532   67.3176 C   0  0  1  0  0  0  0  0  0  0  0  0
   -7.4902   23.9202   65.9396 C   0  0  1  0  0  0  0  0  0  0  0  0
   -8.0062   25.3906   65.9285 C   0  0  2  0  0  0  0  0  0  0  0  0
   -6.9249   22.8486   63.6499 C   0  0  0  0  0  0  0  0  0  0  0  0
   -9.7307   25.6884   71.9818 N   0  0  0  0  0  0  0  0  0  0  0  0
   -6.5063   23.6896   64.8163 N   0  0  0  0  0  0  0  0  0  0  0  0
   -9.2774   22.9741   71.0260 O   0  0  0  0  0  0  0  0  0  0  0  0
   -7.3177   23.7182   69.8425 O   0  0  0  0  0  0  0  0  0  0  0  0
   -8.9514   25.6390   67.0250 O   0  0  0  0  0  0  0  0  0  0  0  0
   -5.7198   24.5466   67.4580 O   0  0  0  0  0  0  0  0  0  0  0  0
   -8.6484   25.6732   64.6905 O   0  0  0  0  0  0  0  0  0  0  0  0
   -8.1890   26.8907   64.0534 C   0  0  2  0  0  0  0  0  0  0  0  0
   -6.7302   26.7910   63.5480 C   0  0  1  0  0  0  0  0  0  0  0  0
   -5.7341   26.6593   64.7451 C   0  0  2  0  0  0  0  0  0  0  0  0
   -5.8666   27.8804   65.6324 C   0  0  1  0  0  0  0  0  0  0  0  0
   -7.3294   27.9626   66.1629 C   0  0  1  0  0  0  0  0  0  0  0  0
   -7.5523   29.1847   67.0517 C   0  0  0  0  0  0  0  0  0  0  0  0
   -4.9085   27.7736   66.7591 N   0  0  0  0  0  0  0  0  0  0  0  0
   -8.2757   28.0364   65.0075 O   0  0  0  0  0  0  0  0  0  0  0  0
   -6.6614   25.6630   62.6475 O   0  0  0  0  0  0  0  0  0  0  0  0
   -4.3934   26.5848   64.2553 O   0  0  0  0  0  0  0  0  0  0  0  0
   -6.4970   29.2859   67.9767 O   0  0  0  0  0  0  0  0  0  0  0  0
   -9.2507   21.7068   70.1995 C   0  0  1  0  0  0  0  0  0  0  0  0
   -9.6484   22.0659   68.7415 C   0  0  1  0  0  0  0  0  0  0  0  0
   -9.6375   20.7867   67.8554 C   0  0  2  0  0  0  0  0  0  0  0  0
   -8.2147   20.1752   67.8636 C   0  0  1  0  0  0  0  0  0  0  0  0
   -7.7895   19.7939   69.3268 C   0  0  0  0  0  0  0  0  0  0  0  0
   -7.8236   21.0736   70.1892 C   0  0  2  0  0  0  0  0  0  0  0  0
   -8.1904   18.9588   67.0162 N   0  0  0  0  0  0  0  0  0  0  0  0
   -7.4267   20.7089   71.5535 N   0  0  0  0  0  0  0  0  0  0  0  0
  -10.9748   22.6386   68.7322 O   0  0  0  0  0  0  0  0  0  0  0  0
  -10.0164   21.1468   66.5083 O   0  0  0  0  0  0  0  0  0  0  0  0
  1  2  1  0  0  0  0
  1 12  1  6  0  0  0
  1 13  1  0  0  0  0
  2  3  1  0  0  0  0
  2 10  1  1  0  0  0
  4  3  1  1  0  0  0
  4  5  1  0  0  0  0
  4 14  1  0  0  0  0
  5  6  1  0  0  0  0
  5 13  1  1  0  0  0
  6  7  1  0  0  0  0
  6 15  1  1  0  0  0
  7  8  1  0  0  0  0
  7 11  1  6  0  0  0
  8 14  1  0  0  0  0
  8 16  1  6  0  0  0
  9 11  1  0  0  0  0
 17 16  1  1  0  0  0
 17 18  1  0  0  0  0
 17 24  1  0  0  0  0
 18 19  1  0  0  0  0
 18 25  1  6  0  0  0
 19 20  1  0  0  0  0
 19 26  1  6  0  0  0
 20 21  1  0  0  0  0
 20 23  1  1  0  0  0
 21 22  1  1  0  0  0
 21 24  1  0  0  0  0
 22 27  1  0  0  0  0
 28 12  1  1  0  0  0
 28 29  1  0  0  0  0
 28 33  1  0  0  0  0
 29 30  1  0  0  0  0
 29 36  1  1  0  0  0
 30 31  1  0  0  0  0
 30 37  1  6  0  0  0
 31 32  1  0  0  0  0
 31 34  1  6  0  0  0
 32 33  1  0  0  0  0
 33 35  1  1  0  0  0
M  END
>  <CHROM.1>
134.43031858,131.63001843,-129.99189358,-77.94939643,68.24938646,-46.53070514
-7.81538886,24.45669921,67.36621482,2.79535750,-1.25843612,-2.62183158

>  <Name>
ligand

>  <RI>
0

>  <Rbt.Current_Directory>
/home/itssahil/PROJECTS/Mol_Feturizer/Test_systems_manuscript/rnas/2g5k

>  <Rbt.Executable>
rbdock ($Id: //depot/dev/client3/rdock/2013.1/src/exe/rbdock.cxx#4 $)

>  <Rbt.Library>
libRbt.so (2013.1, Build901 2013/11/27)

>  <Rbt.Parameter_File>
/export/apps/rDock/src/rDock_2013.1_src/data/scripts/dock_solv.prm

>  <Rbt.Receptor>
prm/blind_docking_100.prm

>  <SCORE>
45.1869

>  <SCORE.INTER>
21.4595

>  <SCORE.INTER.CONST>
1

>  <SCORE.INTER.POLAR>
0

>  <SCORE.INTER.ROT>
6

>  <SCORE.INTER.SOLV>
31.0424

>  <SCORE.INTER.VDW>
-3.64111

>  <SCORE.INTER.norm>
0.579987

>  <SCORE.INTRA>
10.4666

>  <SCORE.INTRA.DIHEDRAL>
5.05695

>  <SCORE.INTRA.DIHEDRAL.0>
11.3972

>  <SCORE.INTRA.POLAR>
0

>  <SCORE.INTRA.POLAR.0>
0

>  <SCORE.INTRA.REPUL>
0

>  <SCORE.INTRA.REPUL.0>
0

>  <SCORE.INTRA.SOLV>
5.94066

>  <SCORE.INTRA.SOLV.lig_0>
-92.3891

>  <SCORE.INTRA.VDW>
4.96783

>  <SCORE.INTRA.VDW.0>
-2.90606

>  <SCORE.INTRA.norm>
0.282882

>  <SCORE.RESTR>
13.2607

>  <SCORE.RESTR.CAVITY>
13.2607

>  <SCORE.RESTR.norm>
0.358397

>  <SCORE.SYSTEM>
0

>  <SCORE.SYSTEM.CONST>
0

>  <SCORE.SYSTEM.DIHEDRAL>
0

>  <SCORE.SYSTEM.SOLV>
0

>  <SCORE.SYSTEM.norm>
0

>  <SCORE.heavy>
37

>  <SCORE.norm>
1.22127

>  <RMSD>
8.556

$$$$
ligand
 OpenBabel02271912133D
libRbt.so/2013.1/901 2013/11/27
 37 40  0  0  0  0  0  0  0  0999 V2000
   -9.2392   24.1620   71.0220 C   0  0  1  0  0  0  0  0  0  0  0  0
   -9.9861   25.4372   70.5375 C   0  0  1  0  0  0  0  0  0  0  0  0
  -10.1362   25.4705   69.0047 C   0  0  0  0  0  0  0  0  0  0  0  0
   -8.7202   25.3730   68.3560 C   0  0  1  0  0  0  0  0  0  0  0  0
   -7.9966   24.0628   68.8069 C   0  0  1  0  0  0  0  0  0  0  0  0
   -6.5521   23.9850   68.1344 C   0  0  1  0  0  0  0  0  0  0  0  0
   -6.7138   24.0090   66.5861 C   0  0  1  0  0  0  0  0  0  0  0  0
   -7.4694   25.3155   66.1975 C   0  0  2  0  0  0  0  0  0  0  0  0
   -4.3162   24.9483   66.3039 C   0  0  0  0  0  0  0  0  0  0  0  0
  -11.3091   25.5446   71.1883 N   0  0  0  0  0  0  0  0  0  0  0  0
   -5.3628   23.9512   65.9121 N   0  0  0  0  0  0  0  0  0  0  0  0
  -10.0118   22.9614   70.8272 O   0  0  0  0  0  0  0  0  0  0  0  0
   -7.9434   24.0740   70.2993 O   0  0  0  0  0  0  0  0  0  0  0  0
   -8.7789   25.3980   66.8575 O   0  0  0  0  0  0  0  0  0  0  0  0
   -5.7819   25.1161   68.5196 O   0  0  0  0  0  0  0  0  0  0  0  0
   -7.6569   25.3699   64.7879 O   0  0  0  0  0  0  0  0  0  0  0  0
   -7.6402   26.7123   64.2432 C   0  0  2  0  0  0  0  0  0  0  0  0
   -6.4276   26.9705   63.3178 C   0  0  1  0  0  0  0  0  0  0  0  0
   -5.0917   26.9361   64.1281 C   0  0  2  0  0  0  0  0  0  0  0  0
   -5.1355   28.0107   65.1955 C   0  0  1  0  0  0  0  0  0  0  0  0
   -6.3407   27.7322   66.1429 C   0  0  1  0  0  0  0  0  0  0  0  0
   -6.4685   28.7886   67.2388 C   0  0  0  0  0  0  0  0  0  0  0  0
   -3.8618   27.9992   65.9548 N   0  0  0  0  0  0  0  0  0  0  0  0
   -7.6072   27.7167   65.3479 O   0  0  0  0  0  0  0  0  0  0  0  0
   -6.4631   25.9743   62.2716 O   0  0  0  0  0  0  0  0  0  0  0  0
   -3.9883   27.1923   63.2565 O   0  0  0  0  0  0  0  0  0  0  0  0
   -6.7156   30.0423   66.6499 O   0  0  0  0  0  0  0  0  0  0  0  0
   -9.4873   21.7487   70.0893 C   0  0  1  0  0  0  0  0  0  0  0  0
   -9.5997   22.0187   68.5638 C   0  0  1  0  0  0  0  0  0  0  0  0
   -9.0730   20.7915   67.7649 C   0  0  2  0  0  0  0  0  0  0  0  0
   -7.5897   20.5435   68.1343 C   0  0  1  0  0  0  0  0  0  0  0  0
   -7.4473   20.2586   69.6724 C   0  0  0  0  0  0  0  0  0  0  0  0
   -7.9903   21.4809   70.4428 C   0  0  2  0  0  0  0  0  0  0  0  0
   -7.0746   19.3799   67.3733 N   0  0  0  0  0  0  0  0  0  0  0  0
   -7.8550   21.2065   71.8775 N   0  0  0  0  0  0  0  0  0  0  0  0
  -10.9828   22.2526   68.2176 O   0  0  0  0  0  0  0  0  0  0  0  0
   -9.1944   21.0657   66.3514 O   0  0  0  0  0  0  0  0  0  0  0  0
  1  2  1  0  0  0  0
  1 12  1  6  0  0  0
  1 13  1  0  0  0  0
  2  3  1  0  0  0  0
  2 10  1  1  0  0  0
  4  3  1  1  0  0  0
  4  5  1  0  0  0  0
  4 14  1  0  0  0  0
  5  6  1  0  0  0  0
  5 13  1  1  0  0  0
  6  7  1  0  0  0  0
  6 15  1  1  0  0  0
  7  8  1  0  0  0  0
  7 11  1  6  0  0  0
  8 14  1  0  0  0  0
  8 16  1  6  0  0  0
  9 11  1  0  0  0  0
 17 16  1  1  0  0  0
 17 18  1  0  0  0  0
 17 24  1  0  0  0  0
 18 19  1  0  0  0  0
 18 25  1  6  0  0  0
 19 20  1  0  0  0  0
 19 26  1  6  0  0  0
 20 21  1  0  0  0  0
 20 23  1  1  0  0  0
 21 22  1  1  0  0  0
 21 24  1  0  0  0  0
 22 27  1  0  0  0  0
 28 12  1  1  0  0  0
 28 29  1  0  0  0  0
 28 33  1  0  0  0  0
 29 30  1  0  0  0  0
 29 36  1  6  0  0  0
 30 31  1  0  0  0  0
 30 37  1  6  0  0  0
 31 32  1  0  0  0  0
 31 34  1  6  0  0  0
 32 33  1  0  0  0  0
 33 35  1  1  0  0  0
M  END
>  <CHROM.1>
126.67607737,-53.19636626,-147.70725595,-79.44018221,113.64848393,62.56726492
-7.56410293,24.62580241,67.41142918,2.40981367,-0.98410471,3.13622982

>  <Name>
ligand

>  <RI>
0

>  <Rbt.Current_Directory>
/home/itssahil/PROJECTS/Mol_Feturizer/Test_systems_manuscript/rnas/2g5k

>  <Rbt.Executable>
rbdock ($Id: //depot/dev/client3/rdock/2013.1/src/exe/rbdock.cxx#4 $)

>  <Rbt.Library>
libRbt.so (2013.1, Build901 2013/11/27)

>  <Rbt.Parameter_File>
/export/apps/rDock/src/rDock_2013.1_src/data/scripts/dock_solv.prm

>  <Rbt.Receptor>
prm/blind_docking_100.prm

>  <SCORE>
36.7622

>  <SCORE.INTER>
7.63534

>  <SCORE.INTER.CONST>
1

>  <SCORE.INTER.POLAR>
0

>  <SCORE.INTER.ROT>
6

>  <SCORE.INTER.SOLV>
26.5599

>  <SCORE.INTER.VDW>
-11.3631

>  <SCORE.INTER.norm>
0.206361

>  <SCORE.INTRA>
15.1909

>  <SCORE.INTRA.DIHEDRAL>
8.38127

>  <SCORE.INTRA.DIHEDRAL.0>
11.3972

>  <SCORE.INTRA.POLAR>
0

>  <SCORE.INTRA.POLAR.0>
0

>  <SCORE.INTRA.REPUL>
0

>  <SCORE.INTRA.REPUL.0>
0

>  <SCORE.INTRA.SOLV>
4.58394

>  <SCORE.INTRA.SOLV.lig_0>
-92.3891

>  <SCORE.INTRA.VDW>
8.70828

>  <SCORE.INTRA.VDW.0>
-2.90606

>  <SCORE.INTRA.norm>
0.410564

>  <SCORE.RESTR>
13.936

>  <SCORE.RESTR.CAVITY>
13.936

>  <SCORE.RESTR.norm>
0.376648

>  <SCORE.SYSTEM>
0

>  <SCORE.SYSTEM.CONST>
0

>  <SCORE.SYSTEM.DIHEDRAL>
0

>  <SCORE.SYSTEM.SOLV>
0

>  <SCORE.SYSTEM.norm>
0

>  <SCORE.heavy>
37

>  <SCORE.norm>
0.993573

>  <RMSD>
8.562

$$$$
ligand
 OpenBabel02271912133D
libRbt.so/2013.1/901 2013/11/27
 37 40  0  0  0  0  0  0  0  0999 V2000
   -9.2322   24.1637   71.0240 C   0  0  1  0  0  0  0  0  0  0  0  0
   -9.9729   25.4464   70.5501 C   0  0  1  0  0  0  0  0  0  0  0  0
  -10.1310   25.4885   69.0182 C   0  0  0  0  0  0  0  0  0  0  0  0
   -8.7193   25.3845   68.3613 C   0  0  1  0  0  0  0  0  0  0  0  0
   -8.0023   24.0671   68.8017 C   0  0  1  0  0  0  0  0  0  0  0  0
   -6.5622   23.9827   68.1209 C   0  0  1  0  0  0  0  0  0  0  0  0
   -6.7321   24.0157   66.5736 C   0  0  1  0  0  0  0  0  0  0  0  0
   -7.4807   25.3292   66.1957 C   0  0  2  0  0  0  0  0  0  0  0  0
   -4.3276   24.9360   66.2872 C   0  0  0  0  0  0  0  0  0  0  0  0
  -11.2915   25.5597   71.2086 N   0  0  0  0  0  0  0  0  0  0  0  0
   -5.3852   23.9519   65.8920 N   0  0  0  0  0  0  0  0  0  0  0  0
  -10.0140   22.9694   70.8275 O   0  0  0  0  0  0  0  0  0  0  0  0
   -7.9410   24.0704   70.2938 O   0  0  0  0  0  0  0  0  0  0  0  0
   -8.7861   25.4174   66.8633 O   0  0  0  0  0  0  0  0  0  0  0  0
   -5.7820   25.1066   68.5075 O   0  0  0  0  0  0  0  0  0  0  0  0
   -7.6755   25.3920   64.7874 O   0  0  0  0  0  0  0  0  0  0  0  0
   -7.6404   26.7361   64.2476 C   0  0  2  0  0  0  0  0  0  0  0  0
   -6.4222   26.9821   63.3262 C   0  0  1  0  0  0  0  0  0  0  0  0
   -5.0889   26.9277   64.1398 C   0  0  2  0  0  0  0  0  0  0  0  0
   -5.1218   27.9989   65.2109 C   0  0  1  0  0  0  0  0  0  0  0  0
   -6.3328   27.7325   66.1543 C   0  0  1  0  0  0  0  0  0  0  0  0
   -6.4499   28.7865   67.2536 C   0  0  0  0  0  0  0  0  0  0  0  0
   -3.8502   27.9685   65.9733 N   0  0  0  0  0  0  0  0  0  0  0  0
   -7.5973   27.7360   65.3561 O   0  0  0  0  0  0  0  0  0  0  0  0
   -6.4677   25.9902   62.2764 O   0  0  0  0  0  0  0  0  0  0  0  0
   -3.9801   27.1730   63.2718 O   0  0  0  0  0  0  0  0  0  0  0  0
   -6.6133   30.0547   66.6667 O   0  0  0  0  0  0  0  0  0  0  0  0
   -9.4985   21.7532   70.0893 C   0  0  1  0  0  0  0  0  0  0  0  0
   -9.6031   22.0268   68.5639 C   0  0  1  0  0  0  0  0  0  0  0  0
   -9.0852   20.7960   67.7646 C   0  0  2  0  0  0  0  0  0  0  0  0
   -7.6056   20.5335   68.1387 C   0  0  1  0  0  0  0  0  0  0  0  0
   -7.4711   20.2446   69.6768 C   0  0  0  0  0  0  0  0  0  0  0  0
   -8.0052   21.4707   70.4475 C   0  0  2  0  0  0  0  0  0  0  0  0
   -7.0988   19.3664   67.3774 N   0  0  0  0  0  0  0  0  0  0  0  0
   -7.8775   21.1926   71.8821 N   0  0  0  0  0  0  0  0  0  0  0  0
  -10.9827   22.2742   68.2133 O   0  0  0  0  0  0  0  0  0  0  0  0
   -9.1992   21.0738   66.3512 O   0  0  0  0  0  0  0  0  0  0  0  0
  1  2  1  0  0  0  0
  1 12  1  6  0  0  0
  1 13  1  0  0  0  0
  2  3  1  0  0  0  0
  2 10  1  1  0  0  0
  4  3  1  1  0  0  0
  4  5  1  0  0  0  0
  4 14  1  0  0  0  0
  5  6  1  0  0  0  0
  5 13  1  1  0  0  0
  6  7  1  0  0  0  0
  6 15  1  1  0  0  0
  7  8  1  0  0  0  0
  7 11  1  6  0  0  0
  8 14  1  0  0  0  0
  8 16  1  6  0  0  0
  9 11  1  0  0  0  0
 17 16  1  1  0  0  0
 17 18  1  0  0  0  0
 17 24  1  0  0  0  0
 18 19  1  0  0  0  0
 18 25  1  6  0  0  0
 19 20  1  0  0  0  0
 19 26  1  6  0  0  0
 20 21  1  0  0  0  0
 20 23  1  1  0  0  0
 21 22  1  1  0  0  0
 21 24  1  0  0  0  0
 22 27  1  0  0  0  0
 28 12  1  1  0  0  0
 28 29  1  0  0  0  0
 28 33  1  0  0  0  0
 29 30  1  0  0  0  0
 29 36  1  6  0  0  0
 30 31  1  0  0  0  0
 30 37  1  6  0  0  0
 31 32  1  0  0  0  0
 31 34  1  6  0  0  0
 32 33  1  0  0  0  0
 33 35  1  1  0  0  0
M  END
>  <CHROM.1>
127.13035243,-52.93325865,-147.17360895,-79.27566595,113.13131759,59.68229817
-7.56419540,24.62866837,67.41460592,2.41987711,-0.98745037,-3.13427915

>  <Name>
ligand

>  <RI>
0

>  <Rbt.Current_Directory>
/home/itssahil/PROJECTS/Mol_Feturizer/Test_systems_manuscript/rnas/2g5k

>  <Rbt.Executable>
rbdock ($Id: //depot/dev/client3/rdock/2013.1/src/exe/rbdock.cxx#4 $)

>  <Rbt.Library>
libRbt.so (2013.1, Build901 2013/11/27)

>  <Rbt.Parameter_File>
/export/apps/rDock/src/rDock_2013.1_src/data/scripts/dock_solv.prm

>  <Rbt.Receptor>
prm/blind_docking_100.prm

>  <SCORE>
36.5676

>  <SCORE.INTER>
7.12729

>  <SCORE.INTER.CONST>
1

>  <SCORE.INTER.POLAR>
0

>  <SCORE.INTER.ROT>
6

>  <SCORE.INTER.SOLV>
26.5278

>  <SCORE.INTER.VDW>
-11.6911

>  <SCORE.INTER.norm>
0.19263

>  <SCORE.INTRA>
15.4579

>  <SCORE.INTRA.DIHEDRAL>
8.36923

>  <SCORE.INTRA.DIHEDRAL.0>
11.3972

>  <SCORE.INTRA.POLAR>
0

>  <SCORE.INTRA.POLAR.0>
0

>  <SCORE.INTRA.REPUL>
0

>  <SCORE.INTRA.REPUL.0>
0

>  <SCORE.INTRA.SOLV>
4.68253

>  <SCORE.INTRA.SOLV.lig_0>
-92.3891

>  <SCORE.INTRA.VDW>
8.93199

>  <SCORE.INTRA.VDW.0>
-2.90606

>  <SCORE.INTRA.norm>
0.41778

>  <SCORE.RESTR>
13.9825

>  <SCORE.RESTR.CAVITY>
13.9825

>  <SCORE.RESTR.norm>
0.377904

>  <SCORE.SYSTEM>
0

>  <SCORE.SYSTEM.CONST>
0

>  <SCORE.SYSTEM.DIHEDRAL>
0

>  <SCORE.SYSTEM.SOLV>
0

>  <SCORE.SYSTEM.norm>
0

>  <SCORE.heavy>
37

>  <SCORE.norm>
0.988314

>  <RMSD>
8.568

$$$$
ligand
 OpenBabel02271912133D
libRbt.so/2013.1/901 2013/11/27
 37 40  0  0  0  0  0  0  0  0999 V2000
   -9.2787   24.2632   70.9600 C   0  0  1  0  0  0  0  0  0  0  0  0
  -10.0335   25.5139   70.4263 C   0  0  1  0  0  0  0  0  0  0  0  0
  -10.1548   25.5027   68.8906 C   0  0  0  0  0  0  0  0  0  0  0  0
   -8.7256   25.4072   68.2713 C   0  0  1  0  0  0  0  0  0  0  0  0
   -7.9930   24.1203   68.7720 C   0  0  1  0  0  0  0  0  0  0  0  0
   -6.5351   24.0441   68.1289 C   0  0  1  0  0  0  0  0  0  0  0  0
   -6.6677   24.0231   66.5778 C   0  0  1  0  0  0  0  0  0  0  0  0
   -7.4334   25.3075   66.1389 C   0  0  2  0  0  0  0  0  0  0  0  0
   -4.2708   24.9741   66.3306 C   0  0  0  0  0  0  0  0  0  0  0  0
  -11.3699   25.6207   71.0491 N   0  0  0  0  0  0  0  0  0  0  0  0
   -5.3035   23.9656   65.9310 N   0  0  0  0  0  0  0  0  0  0  0  0
  -10.0311   23.0469   70.7844 O   0  0  0  0  0  0  0  0  0  0  0  0
   -7.9683   24.1734   70.2642 O   0  0  0  0  0  0  0  0  0  0  0  0
   -8.7562   25.3899   66.7718 O   0  0  0  0  0  0  0  0  0  0  0  0
   -5.7877   25.1962   68.4966 O   0  0  0  0  0  0  0  0  0  0  0  0
   -7.5948   25.3203   64.7251 O   0  0  0  0  0  0  0  0  0  0  0  0
   -7.6152   26.6486   64.1469 C   0  0  2  0  0  0  0  0  0  0  0  0
   -6.4502   26.8918   63.1583 C   0  0  1  0  0  0  0  0  0  0  0  0
   -5.0770   26.8873   63.9044 C   0  0  2  0  0  0  0  0  0  0  0  0
   -5.0787   27.9882   64.9454 C   0  0  1  0  0  0  0  0  0  0  0  0
   -6.2350   27.7254   65.9561 C   0  0  1  0  0  0  0  0  0  0  0  0
   -6.3190   28.8083   67.0301 C   0  0  0  0  0  0  0  0  0  0  0  0
   -3.7701   28.0049   65.6429 N   0  0  0  0  0  0  0  0  0  0  0  0
   -7.5377   27.6809   65.2233 O   0  0  0  0  0  0  0  0  0  0  0  0
   -6.5274   25.8692   62.1403 O   0  0  0  0  0  0  0  0  0  0  0  0
   -4.0185   27.1291   62.9747 O   0  0  0  0  0  0  0  0  0  0  0  0
   -5.3245   28.5808   67.9989 O   0  0  0  0  0  0  0  0  0  0  0  0
   -9.4788   21.8242   70.0844 C   0  0  1  0  0  0  0  0  0  0  0  0
   -9.5955   22.0447   68.5512 C   0  0  1  0  0  0  0  0  0  0  0  0
   -9.0406   20.8056   67.7906 C   0  0  2  0  0  0  0  0  0  0  0  0
   -7.5525   20.6023   68.1682 C   0  0  1  0  0  0  0  0  0  0  0  0
   -7.4056   20.3679   69.7144 C   0  0  0  0  0  0  0  0  0  0  0  0
   -7.9766   21.6009   70.4467 C   0  0  2  0  0  0  0  0  0  0  0  0
   -7.0107   19.4277   67.4435 N   0  0  0  0  0  0  0  0  0  0  0  0
   -7.8369   21.3738   71.8892 N   0  0  0  0  0  0  0  0  0  0  0  0
  -10.9830   22.2369   68.1974 O   0  0  0  0  0  0  0  0  0  0  0  0
   -9.1664   21.0335   66.3693 O   0  0  0  0  0  0  0  0  0  0  0  0
  1  2  1  0  0  0  0
  1 12  1  6  0  0  0
  1 13  1  0  0  0  0
  2  3  1  0  0  0  0
  2 10  1  1  0  0  0
  4  3  1  1  0  0  0
  4  5  1  0  0  0  0
  4 14  1  0  0  0  0
  5  6  1  0  0  0  0
  5 13  1  1  0  0  0
  6  7  1  0  0  0  0
  6 15  1  6  0  0  0
  7  8  1  0  0  0  0
  7 11  1  6  0  0  0
  8 14  1  0  0  0  0
  8 16  1  6  0  0  0
  9 11  1  0  0  0  0
 17 16  1  1  0  0  0
 17 18  1  0  0  0  0
 17 24  1  0  0  0  0
 18 19  1  0  0  0  0
 18 25  1  6  0  0  0
 19 20  1  0  0  0  0
 19 26  1  6  0  0  0
 20 21  1  0  0  0  0
 20 23  1  1  0  0  0
 21 22  1  1  0  0  0
 21 24  1  0  0  0  0
 22 27  1  0  0  0  0
 28 12  1  1  0  0  0
 28 29  1  0  0  0  0
 28 33  1  0  0  0  0
 29 30  1  0  0  0  0
 29 36  1  1  0  0  0
 30 31  1  0  0  0  0
 30 37  1  6  0  0  0
 31 32  1  0  0  0  0
 31 34  1  6  0  0  0
 32 33  1  0  0  0  0
 33 35  1  1  0  0  0
M  END
>  <CHROM.1>
126.35495754,-52.21115927,-148.98211543,-80.38496574,117.82148614,-78.42366318
-7.50289842,24.60336481,67.38174990,2.58783321,-1.02620699,-2.99815412

>  <Name>
ligand

>  <RI>
0

>  <Rbt.Current_Directory>
/home/itssahil/PROJECTS/Mol_Feturizer/Test_systems_manuscript/rnas/2g5k

>  <Rbt.Executable>
rbdock ($Id: //depot/dev/client3/rdock/2013.1/src/exe/rbdock.cxx#4 $)

>  <Rbt.Library>
libRbt.so (2013.1, Build901 2013/11/27)

>  <Rbt.Parameter_File>
/export/apps/rDock/src/rDock_2013.1_src/data/scripts/dock_solv.prm

>  <Rbt.Receptor>
prm/blind_docking_100.prm

>  <SCORE>
36.7937

>  <SCORE.INTER>
9.32595

>  <SCORE.INTER.CONST>
1

>  <SCORE.INTER.POLAR>
0

>  <SCORE.INTER.ROT>
6

>  <SCORE.INTER.SOLV>
28.0046

>  <SCORE.INTER.VDW>
-10.7176

>  <SCORE.INTER.norm>
0.252053

>  <SCORE.INTRA>
14.7979

>  <SCORE.INTRA.DIHEDRAL>
9.60692

>  <SCORE.INTRA.DIHEDRAL.0>
11.3972

>  <SCORE.INTRA.POLAR>
0

>  <SCORE.INTRA.POLAR.0>
0

>  <SCORE.INTRA.REPUL>
0

>  <SCORE.INTRA.REPUL.0>
0

>  <SCORE.INTRA.SOLV>
4.88379

>  <SCORE.INTRA.SOLV.lig_0>
-92.3891

>  <SCORE.INTRA.VDW>
7.55252

>  <SCORE.INTRA.VDW.0>
-2.90606

>  <SCORE.INTRA.norm>
0.399943

>  <SCORE.RESTR>
12.6699

>  <SCORE.RESTR.CAVITY>
12.6699

>  <SCORE.RESTR.norm>
0.342429

>  <SCORE.SYSTEM>
0

>  <SCORE.SYSTEM.CONST>
0

>  <SCORE.SYSTEM.DIHEDRAL>
0

>  <SCORE.SYSTEM.SOLV>
0

>  <SCORE.SYSTEM.norm>
0

>  <SCORE.heavy>
37

>  <SCORE.norm>
0.994424

>  <RMSD>
8.571

$$$$
ligand
 OpenBabel02271912133D
libRbt.so/2013.1/901 2013/11/27
 37 40  0  0  0  0  0  0  0  0999 V2000
   -8.3565   23.8907   71.0912 C   0  0  1  0  0  0  0  0  0  0  0  0
   -8.9146   25.3405   71.0204 C   0  0  1  0  0  0  0  0  0  0  0  0
   -9.5372   25.6526   69.6462 C   0  0  0  0  0  0  0  0  0  0  0  0
   -8.4638   25.4132   68.5390 C   0  0  1  0  0  0  0  0  0  0  0  0
   -7.9457   23.9390   68.5833 C   0  0  1  0  0  0  0  0  0  0  0  0
   -6.8495   23.7176   67.4458 C   0  0  1  0  0  0  0  0  0  0  0  0
   -7.4897   24.0253   66.0604 C   0  0  1  0  0  0  0  0  0  0  0  0
   -8.0181   25.4912   66.0850 C   0  0  2  0  0  0  0  0  0  0  0  0
   -6.8500   23.0192   63.7606 C   0  0  0  0  0  0  0  0  0  0  0  0
   -9.8994   25.5726   72.0981 N   0  0  0  0  0  0  0  0  0  0  0  0
   -6.4755   23.8401   64.9560 N   0  0  0  0  0  0  0  0  0  0  0  0
   -9.3982   22.8955   71.0646 O   0  0  0  0  0  0  0  0  0  0  0  0
   -7.4154   23.6941   69.9577 O   0  0  0  0  0  0  0  0  0  0  0  0
   -8.9932   25.6952   67.1643 O   0  0  0  0  0  0  0  0  0  0  0  0
   -5.7643   24.6144   67.6441 O   0  0  0  0  0  0  0  0  0  0  0  0
   -8.6309   25.8100   64.8408 O   0  0  0  0  0  0  0  0  0  0  0  0
   -8.1751   27.0579   64.2628 C   0  0  2  0  0  0  0  0  0  0  0  0
   -6.7347   26.9713   63.7049 C   0  0  1  0  0  0  0  0  0  0  0  0
   -5.7029   26.7560   64.8588 C   0  0  2  0  0  0  0  0  0  0  0  0
   -5.7900   27.9231   65.8212 C   0  0  1  0  0  0  0  0  0  0  0  0
   -7.2337   27.9908   66.4032 C   0  0  1  0  0  0  0  0  0  0  0  0
   -7.4111   29.1598   67.3702 C   0  0  0  0  0  0  0  0  0  0  0  0
   -4.7979   27.7373   66.9076 N   0  0  0  0  0  0  0  0  0  0  0  0
   -8.2154   28.1452   65.2858 O   0  0  0  0  0  0  0  0  0  0  0  0
   -6.7105   25.8987   62.7370 O   0  0  0  0  0  0  0  0  0  0  0  0
   -4.3797   26.6950   64.3218 O   0  0  0  0  0  0  0  0  0  0  0  0
   -7.0335   30.3544   66.7300 O   0  0  0  0  0  0  0  0  0  0  0  0
   -9.3273   21.6436   70.2173 C   0  0  1  0  0  0  0  0  0  0  0  0
   -9.6810   22.0240   68.7534 C   0  0  1  0  0  0  0  0  0  0  0  0
   -9.6237   20.7611   67.8458 C   0  0  2  0  0  0  0  0  0  0  0  0
   -8.1941   20.1675   67.8909 C   0  0  1  0  0  0  0  0  0  0  0  0
   -7.8128   19.7653   69.3606 C   0  0  0  0  0  0  0  0  0  0  0  0
   -7.8924   21.0287   70.2437 C   0  0  2  0  0  0  0  0  0  0  0  0
   -8.1256   18.9670   67.0235 N   0  0  0  0  0  0  0  0  0  0  0  0
   -7.5365   20.6446   71.6140 N   0  0  0  0  0  0  0  0  0  0  0  0
  -11.0137   22.5800   68.7097 O   0  0  0  0  0  0  0  0  0  0  0  0
   -9.9622   21.1407   66.4933 O   0  0  0  0  0  0  0  0  0  0  0  0
  1  2  1  0  0  0  0
  1 12  1  6  0  0  0
  1 13  1  0  0  0  0
  2  3  1  0  0  0  0
  2 10  1  1  0  0  0
  4  3  1  1  0  0  0
  4  5  1  0  0  0  0
  4 14  1  0  0  0  0
  5  6  1  0  0  0  0
  5 13  1  1  0  0  0
  6  7  1  0  0  0  0
  6 15  1  1  0  0  0
  7  8  1  0  0  0  0
  7 11  1  6  0  0  0
  8 14  1  0  0  0  0
  8 16  1  6  0  0  0
  9 11  1  0  0  0  0
 17 16  1  1  0  0  0
 17 18  1  0  0  0  0
 17 24  1  0  0  0  0
 18 19  1  0  0  0  0
 18 25  1  6  0  0  0
 19 20  1  0  0  0  0
 19 26  1  6  0  0  0
 20 21  1  0  0  0  0
 20 23  1  1  0  0  0
 21 22  1  1  0  0  0
 21 24  1  0  0  0  0
 22 27  1  0  0  0  0
 28 12  1  1  0  0  0
 28 29  1  0  0  0  0
 28 33  1  0  0  0  0
 29 30  1  0  0  0  0
 29 36  1  1  0  0  0
 30 31  1  0  0  0  0
 30 37  1  6  0  0  0
 31 32  1  0  0  0  0
 31 34  1  6  0  0  0
 32 33  1  0  0  0  0
 33 35  1  1  0  0  0
M  END
>  <CHROM.1>
135.63915766,130.76822822,-130.54233689,-78.41963835,72.29567127,54.57803269
-7.84823295,24.51933433,67.43526854,2.61641157,-1.23474308,-2.77269268

>  <Name>
ligand

>  <RI>
0

>  <Rbt.Current_Directory>
/home/itssahil/PROJECTS/Mol_Feturizer/Test_systems_manuscript/rnas/2g5k

>  <Rbt.Executable>
rbdock ($Id: //depot/dev/client3/rdock/2013.1/src/exe/rbdock.cxx#4 $)

>  <Rbt.Library>
libRbt.so (2013.1, Build901 2013/11/27)

>  <Rbt.Parameter_File>
/export/apps/rDock/src/rDock_2013.1_src/data/scripts/dock_solv.prm

>  <Rbt.Receptor>
prm/blind_docking_100.prm

>  <SCORE>
42.7616

>  <SCORE.INTER>
18.7048

>  <SCORE.INTER.CONST>
1

>  <SCORE.INTER.POLAR>
0

>  <SCORE.INTER.ROT>
6

>  <SCORE.INTER.SOLV>
29.6329

>  <SCORE.INTER.VDW>
-5.00775

>  <SCORE.INTER.norm>
0.505535

>  <SCORE.INTRA>
9.23171

>  <SCORE.INTRA.DIHEDRAL>
4.78988

>  <SCORE.INTRA.DIHEDRAL.0>
11.3972

>  <SCORE.INTRA.POLAR>
0

>  <SCORE.INTRA.POLAR.0>
0

>  <SCORE.INTRA.REPUL>
0

>  <SCORE.INTRA.REPUL.0>
0

>  <SCORE.INTRA.SOLV>
5.3689

>  <SCORE.INTRA.SOLV.lig_0>
-92.3891

>  <SCORE.INTRA.VDW>
4.15232

>  <SCORE.INTRA.VDW.0>
-2.90606

>  <SCORE.INTRA.norm>
0.249506

>  <SCORE.RESTR>
14.8251

>  <SCORE.RESTR.CAVITY>
14.8251

>  <SCORE.RESTR.norm>
0.400678

>  <SCORE.SYSTEM>
0

>  <SCORE.SYSTEM.CONST>
0

>  <SCORE.SYSTEM.DIHEDRAL>
0

>  <SCORE.SYSTEM.SOLV>
0

>  <SCORE.SYSTEM.norm>
0

>  <SCORE.heavy>
37

>  <SCORE.norm>
1.15572

>  <RMSD>
8.575

$$$$
ligand
 OpenBabel02271912133D
libRbt.so/2013.1/901 2013/11/27
 37 40  0  0  0  0  0  0  0  0999 V2000
   -9.2639   24.2574   70.9728 C   0  0  1  0  0  0  0  0  0  0  0  0
  -10.0076   25.5184   70.4481 C   0  0  1  0  0  0  0  0  0  0  0  0
  -10.1367   25.5149   68.9129 C   0  0  0  0  0  0  0  0  0  0  0  0
   -8.7118   25.4064   68.2861 C   0  0  1  0  0  0  0  0  0  0  0  0
   -7.9908   24.1095   68.7778 C   0  0  1  0  0  0  0  0  0  0  0  0
   -6.5371   24.0200   68.1270 C   0  0  1  0  0  0  0  0  0  0  0  0
   -6.6776   24.0069   66.5766 C   0  0  1  0  0  0  0  0  0  0  0  0
   -7.4314   25.3014   66.1467 C   0  0  2  0  0  0  0  0  0  0  0  0
   -4.2769   24.9425   66.3095 C   0  0  0  0  0  0  0  0  0  0  0  0
  -11.3396   25.6373   71.0780 N   0  0  0  0  0  0  0  0  0  0  0  0
   -5.3174   23.9372   65.9226 N   0  0  0  0  0  0  0  0  0  0  0  0
  -10.0304   23.0501   70.7961 O   0  0  0  0  0  0  0  0  0  0  0  0
   -7.9581   24.1562   70.2701 O   0  0  0  0  0  0  0  0  0  0  0  0
   -8.7501   25.3956   66.7867 O   0  0  0  0  0  0  0  0  0  0  0  0
   -5.7753   25.1624   68.4957 O   0  0  0  0  0  0  0  0  0  0  0  0
   -7.5998   25.3217   64.7338 O   0  0  0  0  0  0  0  0  0  0  0  0
   -7.6121   26.6527   64.1616 C   0  0  2  0  0  0  0  0  0  0  0  0
   -6.4436   26.8944   63.1768 C   0  0  1  0  0  0  0  0  0  0  0  0
   -5.0721   26.8795   63.9258 C   0  0  2  0  0  0  0  0  0  0  0  0
   -5.0705   27.9757   64.9719 C   0  0  1  0  0  0  0  0  0  0  0  0
   -6.2305   27.7143   65.9788 C   0  0  1  0  0  0  0  0  0  0  0  0
   -6.3114   28.7928   67.0575 C   0  0  0  0  0  0  0  0  0  0  0  0
   -3.7635   27.9826   65.6723 N   0  0  0  0  0  0  0  0  0  0  0  0
   -7.5318   27.6798   65.2429 O   0  0  0  0  0  0  0  0  0  0  0  0
   -6.5237   25.8768   62.1539 O   0  0  0  0  0  0  0  0  0  0  0  0
   -4.0103   27.1201   62.9997 O   0  0  0  0  0  0  0  0  0  0  0  0
   -5.3124   28.5628   68.0211 O   0  0  0  0  0  0  0  0  0  0  0  0
   -9.4929   21.8222   70.0938 C   0  0  1  0  0  0  0  0  0  0  0  0
   -9.6189   22.0415   68.5612 C   0  0  1  0  0  0  0  0  0  0  0  0
   -9.0793   20.7970   67.7984 C   0  0  2  0  0  0  0  0  0  0  0  0
   -7.5902   20.5825   68.1655 C   0  0  1  0  0  0  0  0  0  0  0  0
   -7.4339   20.3491   69.7109 C   0  0  0  0  0  0  0  0  0  0  0  0
   -7.9899   21.5875   70.4455 C   0  0  2  0  0  0  0  0  0  0  0  0
   -7.0630   19.4027   67.4385 N   0  0  0  0  0  0  0  0  0  0  0  0
   -7.8416   21.3612   71.8873 N   0  0  0  0  0  0  0  0  0  0  0  0
  -11.0074   22.2441   68.2172 O   0  0  0  0  0  0  0  0  0  0  0  0
   -9.2137   21.0240   66.3777 O   0  0  0  0  0  0  0  0  0  0  0  0
  1  2  1  0  0  0  0
  1 12  1  6  0  0  0
  1 13  1  0  0  0  0
  2  3  1  0  0  0  0
  2 10  1  1  0  0  0
  4  3  1  1  0  0  0
  4  5  1  0  0  0  0
  4 14  1  0  0  0  0
  5  6  1  0  0  0  0
  5 13  1  1  0  0  0
  6  7  1  0  0  0  0
  6 15  1  6  0  0  0
  7  8  1  0  0  0  0
  7 11  1  6  0  0  0
  8 14  1  0  0  0  0
  8 16  1  6  0  0  0
  9 11  1  0  0  0  0
 17 16  1  1  0  0  0
 17 18  1  0  0  0  0
 17 24  1  0  0  0  0
 18 19  1  0  0  0  0
 18 25  1  6  0  0  0
 19 20  1  0  0  0  0
 19 26  1  6  0  0  0
 20 21  1  0  0  0  0
 20 23  1  1  0  0  0
 21 22  1  1  0  0  0
 21 24  1  0  0  0  0
 22 27  1  0  0  0  0
 28 12  1  1  0  0  0
 28 29  1  0  0  0  0
 28 33  1  0  0  0  0
 29 30  1  0  0  0  0
 29 36  1  1  0  0  0
 30 31  1  0  0  0  0
 30 37  1  6  0  0  0
 31 32  1  0  0  0  0
 31 34  1  6  0  0  0
 32 33  1  0  0  0  0
 33 35  1  1  0  0  0
M  END
>  <CHROM.1>
126.64103053,-52.91196128,-149.13720835,-80.83862899,117.36854985,-77.89457618
-7.50590947,24.59475273,67.39270129,2.60307434,-1.02910685,-2.97915295

>  <Name>
ligand

>  <RI>
0

>  <Rbt.Current_Directory>
/home/itssahil/PROJECTS/Mol_Feturizer/Test_systems_manuscript/rnas/2g5k

>  <Rbt.Executable>
rbdock ($Id: //depot/dev/client3/rdock/2013.1/src/exe/rbdock.cxx#4 $)

>  <Rbt.Library>
libRbt.so (2013.1, Build901 2013/11/27)

>  <Rbt.Parameter_File>
/export/apps/rDock/src/rDock_2013.1_src/data/scripts/dock_solv.prm

>  <Rbt.Receptor>
prm/blind_docking_100.prm

>  <SCORE>
36.5086

>  <SCORE.INTER>
9.11598

>  <SCORE.INTER.CONST>
1

>  <SCORE.INTER.POLAR>
0

>  <SCORE.INTER.ROT>
6

>  <SCORE.INTER.SOLV>
28.0183

>  <SCORE.INTER.VDW>
-10.8621

>  <SCORE.INTER.norm>
0.246378

>  <SCORE.INTRA>
14.6636

>  <SCORE.INTRA.DIHEDRAL>
9.55689

>  <SCORE.INTRA.DIHEDRAL.0>
11.3972

>  <SCORE.INTRA.POLAR>
0

>  <SCORE.INTRA.POLAR.0>
0

>  <SCORE.INTRA.REPUL>
0

>  <SCORE.INTRA.REPUL.0>
0

>  <SCORE.INTRA.SOLV>
4.87051

>  <SCORE.INTRA.SOLV.lig_0>
-92.3891

>  <SCORE.INTRA.VDW>
7.44986

>  <SCORE.INTRA.VDW.0>
-2.90606

>  <SCORE.INTRA.norm>
0.396312

>  <SCORE.RESTR>
12.7291

>  <SCORE.RESTR.CAVITY>
12.7291

>  <SCORE.RESTR.norm>
0.344029

>  <SCORE.SYSTEM>
0

>  <SCORE.SYSTEM.CONST>
0

>  <SCORE.SYSTEM.DIHEDRAL>
0

>  <SCORE.SYSTEM.SOLV>
0

>  <SCORE.SYSTEM.norm>
0

>  <SCORE.heavy>
37

>  <SCORE.norm>
0.986719

>  <RMSD>
8.584

$$$$
ligand
 OpenBabel02271912133D
libRbt.so/2013.1/901 2013/11/27
 37 40  0  0  0  0  0  0  0  0999 V2000
   -8.4458   23.9087   71.0805 C   0  0  1  0  0  0  0  0  0  0  0  0
   -9.0218   25.3530   71.1078 C   0  0  1  0  0  0  0  0  0  0  0  0
   -9.6594   25.7454   69.7614 C   0  0  0  0  0  0  0  0  0  0  0  0
   -8.5924   25.5915   68.6330 C   0  0  1  0  0  0  0  0  0  0  0  0
   -8.0564   24.1241   68.5779 C   0  0  1  0  0  0  0  0  0  0  0  0
   -6.9671   23.9903   67.4203 C   0  0  1  0  0  0  0  0  0  0  0  0
   -7.6223   24.3789   66.0626 C   0  0  1  0  0  0  0  0  0  0  0  0
   -8.1680   25.8334   66.1859 C   0  0  2  0  0  0  0  0  0  0  0  0
   -7.0366   23.6583   63.6443 C   0  0  0  0  0  0  0  0  0  0  0  0
  -10.0004   25.5028   72.2056 N   0  0  0  0  0  0  0  0  0  0  0  0
   -6.6151   24.2781   64.9409 N   0  0  0  0  0  0  0  0  0  0  0  0
   -9.4758   22.9044   70.9973 O   0  0  0  0  0  0  0  0  0  0  0  0
   -7.5119   23.7975   69.9296 O   0  0  0  0  0  0  0  0  0  0  0  0
   -9.1365   25.9552   67.2834 O   0  0  0  0  0  0  0  0  0  0  0  0
   -5.8911   24.8859   67.6681 O   0  0  0  0  0  0  0  0  0  0  0  0
   -8.7948   26.2243   64.9696 O   0  0  0  0  0  0  0  0  0  0  0  0
   -8.3740   27.5217   64.4809 C   0  0  2  0  0  0  0  0  0  0  0  0
   -7.5766   27.4360   63.1579 C   0  0  1  0  0  0  0  0  0  0  0  0
   -6.2071   26.7164   63.3789 C   0  0  2  0  0  0  0  0  0  0  0  0
   -5.3977   27.4990   64.3930 C   0  0  1  0  0  0  0  0  0  0  0  0
   -6.1903   27.5595   65.7331 C   0  0  1  0  0  0  0  0  0  0  0  0
   -5.4485   28.3544   66.8060 C   0  0  0  0  0  0  0  0  0  0  0  0
   -4.0871   26.8345   64.5918 N   0  0  0  0  0  0  0  0  0  0  0  0
   -7.5192   28.2036   65.4982 O   0  0  0  0  0  0  0  0  0  0  0  0
   -8.4095   26.7517   62.1955 O   0  0  0  0  0  0  0  0  0  0  0  0
   -5.4823   26.6630   62.1481 O   0  0  0  0  0  0  0  0  0  0  0  0
   -6.0254   28.0914   68.0620 O   0  0  0  0  0  0  0  0  0  0  0  0
   -9.3496   21.6555   70.1520 C   0  0  1  0  0  0  0  0  0  0  0  0
   -9.5965   22.0430   68.6682 C   0  0  1  0  0  0  0  0  0  0  0  0
   -9.4796   20.7834   67.7618 C   0  0  2  0  0  0  0  0  0  0  0  0
   -8.0591   20.1837   67.9062 C   0  0  1  0  0  0  0  0  0  0  0  0
   -7.7851   19.7742   69.3977 C   0  0  0  0  0  0  0  0  0  0  0  0
   -7.9226   21.0346   70.2781 C   0  0  2  0  0  0  0  0  0  0  0  0
   -7.9337   18.9862   67.0410 N   0  0  0  0  0  0  0  0  0  0  0  0
   -7.6667   20.6437   71.6687 N   0  0  0  0  0  0  0  0  0  0  0  0
  -10.9206   22.6047   68.5320 O   0  0  0  0  0  0  0  0  0  0  0  0
   -9.7194   21.1696   66.3902 O   0  0  0  0  0  0  0  0  0  0  0  0
  1  2  1  0  0  0  0
  1 12  1  6  0  0  0
  1 13  1  0  0  0  0
  2  3  1  0  0  0  0
  2 10  1  1  0  0  0
  4  3  1  1  0  0  0
  4  5  1  0  0  0  0
  4 14  1  0  0  0  0
  5  6  1  0  0  0  0
  5 13  1  1  0  0  0
  6  7  1  0  0  0  0
  6 15  1  1  0  0  0
  7  8  1  0  0  0  0
  7 11  1  6  0  0  0
  8 14  1  0  0  0  0
  8 16  1  6  0  0  0
  9 11  1  0  0  0  0
 17 16  1  1  0  0  0
 17 18  1  0  0  0  0
 17 24  1  0  0  0  0
 18 19  1  0  0  0  0
 18 25  1  6  0  0  0
 19 20  1  0  0  0  0
 19 26  1  6  0  0  0
 20 21  1  0  0  0  0
 20 23  1  1  0  0  0
 21 22  1  1  0  0  0
 21 24  1  0  0  0  0
 22 27  1  0  0  0  0
 28 12  1  1  0  0  0
 28 29  1  0  0  0  0
 28 33  1  0  0  0  0
 29 30  1  0  0  0  0
 29 36  1  1  0  0  0
 30 31  1  0  0  0  0
 30 37  1  6  0  0  0
 31 32  1  0  0  0  0
 31 34  1  6  0  0  0
 32 33  1  0  0  0  0
 33 35  1  1  0  0  0
M  END
>  <CHROM.1>
140.59820203,137.12372182,-131.44111148,-77.09358872,113.13941171,-165.04084737
-7.84692647,24.53326914,67.22900898,3.02350922,-1.28072801,-2.52254019

>  <Name>
ligand

>  <RI>
0

>  <Rbt.Current_Directory>
/home/itssahil/PROJECTS/Mol_Feturizer/Test_systems_manuscript/rnas/2g5k

>  <Rbt.Executable>
rbdock ($Id: //depot/dev/client3/rdock/2013.1/src/exe/rbdock.cxx#4 $)

>  <Rbt.Library>
libRbt.so (2013.1, Build901 2013/11/27)

>  <Rbt.Parameter_File>
/export/apps/rDock/src/rDock_2013.1_src/data/scripts/dock_solv.prm

>  <Rbt.Receptor>
prm/blind_docking_100.prm

>  <SCORE>
63.6851

>  <SCORE.INTER>
39.5499

>  <SCORE.INTER.CONST>
1

>  <SCORE.INTER.POLAR>
0

>  <SCORE.INTER.ROT>
6

>  <SCORE.INTER.SOLV>
34.8653

>  <SCORE.INTER.VDW>
7.14481

>  <SCORE.INTER.norm>
1.06892

>  <SCORE.INTRA>
11.6064

>  <SCORE.INTRA.DIHEDRAL>
10.5214

>  <SCORE.INTRA.DIHEDRAL.0>
11.3972

>  <SCORE.INTRA.POLAR>
0

>  <SCORE.INTRA.POLAR.0>
0

>  <SCORE.INTRA.REPUL>
0

>  <SCORE.INTRA.REPUL.0>
0

>  <SCORE.INTRA.SOLV>
4.85355

>  <SCORE.INTRA.SOLV.lig_0>
-92.3891

>  <SCORE.INTRA.VDW>
3.91896

>  <SCORE.INTRA.VDW.0>
-2.90606

>  <SCORE.INTRA.norm>
0.313688

>  <SCORE.RESTR>
12.5288

>  <SCORE.RESTR.CAVITY>
12.5288

>  <SCORE.RESTR.norm>
0.338617

>  <SCORE.SYSTEM>
0

>  <SCORE.SYSTEM.CONST>
0

>  <SCORE.SYSTEM.DIHEDRAL>
0

>  <SCORE.SYSTEM.SOLV>
0

>  <SCORE.SYSTEM.norm>
0

>  <SCORE.heavy>
37

>  <SCORE.norm>
1.72122

>  <RMSD>
8.586

$$$$
ligand
 OpenBabel02271912133D
libRbt.so/2013.1/901 2013/11/27
 37 40  0  0  0  0  0  0  0  0999 V2000
   -8.3629   23.9198   71.0321 C   0  0  1  0  0  0  0  0  0  0  0  0
   -8.8606   25.3919   70.9700 C   0  0  1  0  0  0  0  0  0  0  0  0
   -9.4710   25.7371   69.5982 C   0  0  0  0  0  0  0  0  0  0  0  0
   -8.4095   25.4597   68.4885 C   0  0  1  0  0  0  0  0  0  0  0  0
   -7.9527   23.9651   68.5241 C   0  0  1  0  0  0  0  0  0  0  0  0
   -6.8676   23.7049   67.3841 C   0  0  1  0  0  0  0  0  0  0  0  0
   -7.4958   24.0465   66.0012 C   0  0  1  0  0  0  0  0  0  0  0  0
   -7.9631   25.5328   66.0344 C   0  0  2  0  0  0  0  0  0  0  0  0
   -6.8919   23.0055   63.7072 C   0  0  0  0  0  0  0  0  0  0  0  0
   -9.8340   25.6585   72.0501 N   0  0  0  0  0  0  0  0  0  0  0  0
   -6.4911   23.8257   64.8946 N   0  0  0  0  0  0  0  0  0  0  0  0
   -9.4449   22.9687   71.0012 O   0  0  0  0  0  0  0  0  0  0  0  0
   -7.4318   23.6908   69.8964 O   0  0  0  0  0  0  0  0  0  0  0  0
   -8.9279   25.7710   67.1159 O   0  0  0  0  0  0  0  0  0  0  0  0
   -5.7461   24.5549   67.5862 O   0  0  0  0  0  0  0  0  0  0  0  0
   -8.5633   25.8836   64.7927 O   0  0  0  0  0  0  0  0  0  0  0  0
   -8.0767   27.1290   64.2347 C   0  0  2  0  0  0  0  0  0  0  0  0
   -6.6638   26.9999   63.6179 C   0  0  1  0  0  0  0  0  0  0  0  0
   -5.5988   26.7053   64.7230 C   0  0  2  0  0  0  0  0  0  0  0  0
   -5.5986   27.8440   65.7226 C   0  0  1  0  0  0  0  0  0  0  0  0
   -7.0147   27.9536   66.3631 C   0  0  1  0  0  0  0  0  0  0  0  0
   -7.1045   29.0979   67.3709 C   0  0  0  0  0  0  0  0  0  0  0  0
   -4.5746   27.5826   66.7628 N   0  0  0  0  0  0  0  0  0  0  0  0
   -8.0310   28.1842   65.2906 O   0  0  0  0  0  0  0  0  0  0  0  0
   -6.7228   25.9583   62.6180 O   0  0  0  0  0  0  0  0  0  0  0  0
   -4.3009   26.6059   64.1323 O   0  0  0  0  0  0  0  0  0  0  0  0
   -8.2468   28.9226   68.1733 O   0  0  0  0  0  0  0  0  0  0  0  0
   -9.4165   21.7076   70.1653 C   0  0  1  0  0  0  0  0  0  0  0  0
   -9.7382   22.0892   68.6943 C   0  0  1  0  0  0  0  0  0  0  0  0
   -9.7232   20.8171   67.7980 C   0  0  2  0  0  0  0  0  0  0  0  0
   -8.3198   20.1657   67.8641 C   0  0  1  0  0  0  0  0  0  0  0  0
   -7.9714   19.7611   69.3413 C   0  0  0  0  0  0  0  0  0  0  0  0
   -8.0085   21.0345   70.2129 C   0  0  2  0  0  0  0  0  0  0  0  0
   -8.2914   18.9557   67.0077 N   0  0  0  0  0  0  0  0  0  0  0  0
   -7.6836   20.6481   71.5903 N   0  0  0  0  0  0  0  0  0  0  0  0
  -11.0464   22.6992   68.6310 O   0  0  0  0  0  0  0  0  0  0  0  0
  -10.0311   21.1984   66.4387 O   0  0  0  0  0  0  0  0  0  0  0  0
  1  2  1  0  0  0  0
  1 12  1  6  0  0  0
  1 13  1  0  0  0  0
  2  3  1  0  0  0  0
  2 10  1  1  0  0  0
  4  3  1  1  0  0  0
  4  5  1  0  0  0  0
  4 14  1  0  0  0  0
  5  6  1  0  0  0  0
  5 13  1  1  0  0  0
  6  7  1  0  0  0  0
  6 15  1  1  0  0  0
  7  8  1  0  0  0  0
  7 11  1  6  0  0  0
  8 14  1  0  0  0  0
  8 16  1  6  0  0  0
  9 11  1  0  0  0  0
 17 16  1  1  0  0  0
 17 18  1  0  0  0  0
 17 24  1  0  0  0  0
 18 19  1  0  0  0  0
 18 25  1  6  0  0  0
 19 20  1  0  0  0  0
 19 26  1  6  0  0  0
 20 21  1  0  0  0  0
 20 23  1  1  0  0  0
 21 22  1  1  0  0  0
 21 24  1  0  0  0  0
 22 27  1  0  0  0  0
 28 12  1  1  0  0  0
 28 29  1  0  0  0  0
 28 33  1  0  0  0  0
 29 30  1  0  0  0  0
 29 36  1  1  0  0  0
 30 31  1  0  0  0  0
 30 37  1  6  0  0  0
 31 32  1  0  0  0  0
 31 34  1  6  0  0  0
 32 33  1  0  0  0  0
 33 35  1  1  0  0  0
M  END
>  <CHROM.1>
136.73590137,129.60747298,-131.75394186,-78.47938133,75.15580204,-163.70271379
-7.86654346,24.49196359,67.42155666,2.68256587,-1.21484204,-2.75200542

>  <Name>
ligand

>  <RI>
0

>  <Rbt.Current_Directory>
/home/itssahil/PROJECTS/Mol_Feturizer/Test_systems_manuscript/rnas/2g5k

>  <Rbt.Executable>
rbdock ($Id: //depot/dev/client3/rdock/2013.1/src/exe/rbdock.cxx#4 $)

>  <Rbt.Library>
libRbt.so (2013.1, Build901 2013/11/27)

>  <Rbt.Parameter_File>
/export/apps/rDock/src/rDock_2013.1_src/data/scripts/dock_solv.prm

>  <Rbt.Receptor>
prm/blind_docking_100.prm

>  <SCORE>
42.7881

>  <SCORE.INTER>
19.9178

>  <SCORE.INTER.CONST>
1

>  <SCORE.INTER.POLAR>
0

>  <SCORE.INTER.ROT>
6

>  <SCORE.INTER.SOLV>
29.5277

>  <SCORE.INTER.VDW>
-4.16399

>  <SCORE.INTER.norm>
0.53832

>  <SCORE.INTRA>
9.03513

>  <SCORE.INTRA.DIHEDRAL>
5.69698

>  <SCORE.INTRA.DIHEDRAL.0>
11.3972

>  <SCORE.INTRA.POLAR>
0

>  <SCORE.INTRA.POLAR.0>
0

>  <SCORE.INTRA.REPUL>
0

>  <SCORE.INTRA.REPUL.0>
0

>  <SCORE.INTRA.SOLV>
5.03343

>  <SCORE.INTRA.SOLV.lig_0>
-92.3891

>  <SCORE.INTRA.VDW>
3.66992

>  <SCORE.INTRA.VDW.0>
-2.90606

>  <SCORE.INTRA.norm>
0.244193

>  <SCORE.RESTR>
13.8352

>  <SCORE.RESTR.CAVITY>
13.8352

>  <SCORE.RESTR.norm>
0.373924

>  <SCORE.SYSTEM>
0

>  <SCORE.SYSTEM.CONST>
0

>  <SCORE.SYSTEM.DIHEDRAL>
0

>  <SCORE.SYSTEM.SOLV>
0

>  <SCORE.SYSTEM.norm>
0

>  <SCORE.heavy>
37

>  <SCORE.norm>
1.15644

>  <RMSD>
8.604

$$$$
ligand
 OpenBabel02271912133D
libRbt.so/2013.1/901 2013/11/27
 37 40  0  0  0  0  0  0  0  0999 V2000
   -8.4171   23.8890   71.0782 C   0  0  1  0  0  0  0  0  0  0  0  0
   -8.9690   25.3427   71.1044 C   0  0  1  0  0  0  0  0  0  0  0  0
   -9.6070   25.7419   69.7602 C   0  0  0  0  0  0  0  0  0  0  0  0
   -8.5486   25.5674   68.6268 C   0  0  1  0  0  0  0  0  0  0  0  0
   -8.0370   24.0912   68.5731 C   0  0  1  0  0  0  0  0  0  0  0  0
   -6.9560   23.9363   67.4103 C   0  0  1  0  0  0  0  0  0  0  0  0
   -7.6118   24.3320   66.0548 C   0  0  1  0  0  0  0  0  0  0  0  0
   -8.1328   25.7957   66.1769 C   0  0  2  0  0  0  0  0  0  0  0  0
   -7.0513   23.5980   63.6346 C   0  0  0  0  0  0  0  0  0  0  0  0
   -9.9393   25.5115   72.2068 N   0  0  0  0  0  0  0  0  0  0  0  0
   -6.6122   24.2116   64.9283 N   0  0  0  0  0  0  0  0  0  0  0  0
   -9.4638   22.9016   71.0031 O   0  0  0  0  0  0  0  0  0  0  0  0
   -7.4910   23.7593   69.9228 O   0  0  0  0  0  0  0  0  0  0  0  0
   -9.0935   25.9363   67.2790 O   0  0  0  0  0  0  0  0  0  0  0  0
   -5.8642   24.8147   67.6501 O   0  0  0  0  0  0  0  0  0  0  0  0
   -8.7593   26.1935   64.9627 O   0  0  0  0  0  0  0  0  0  0  0  0
   -8.3425   27.4961   64.4845 C   0  0  2  0  0  0  0  0  0  0  0  0
   -7.5514   27.4241   63.1569 C   0  0  1  0  0  0  0  0  0  0  0  0
   -6.1799   26.7043   63.3646 C   0  0  2  0  0  0  0  0  0  0  0  0
   -5.3667   27.4783   64.3822 C   0  0  1  0  0  0  0  0  0  0  0  0
   -6.1530   27.5248   65.7266 C   0  0  1  0  0  0  0  0  0  0  0  0
   -5.4071   28.3104   66.8036 C   0  0  0  0  0  0  0  0  0  0  0  0
   -4.0543   26.8136   64.5684 N   0  0  0  0  0  0  0  0  0  0  0  0
   -7.4838   28.1693   65.5042 O   0  0  0  0  0  0  0  0  0  0  0  0
   -8.3879   26.7480   62.1920 O   0  0  0  0  0  0  0  0  0  0  0  0
   -5.4609   26.6637   62.1298 O   0  0  0  0  0  0  0  0  0  0  0  0
   -6.0141   28.0800   68.0518 O   0  0  0  0  0  0  0  0  0  0  0  0
   -9.3628   21.6488   70.1603 C   0  0  1  0  0  0  0  0  0  0  0  0
   -9.6350   22.0326   68.6800 C   0  0  1  0  0  0  0  0  0  0  0  0
   -9.5445   20.7689   67.7763 C   0  0  2  0  0  0  0  0  0  0  0  0
   -8.1259   20.1593   67.8960 C   0  0  1  0  0  0  0  0  0  0  0  0
   -7.8266   19.7533   69.3835 C   0  0  0  0  0  0  0  0  0  0  0  0
   -7.9382   21.0179   70.2616 C   0  0  2  0  0  0  0  0  0  0  0  0
   -8.0256   18.9578   67.0331 N   0  0  0  0  0  0  0  0  0  0  0  0
   -7.6587   20.6302   71.6485 N   0  0  0  0  0  0  0  0  0  0  0  0
  -10.9574   22.6035   68.5668 O   0  0  0  0  0  0  0  0  0  0  0  0
   -9.8076   21.1518   66.4080 O   0  0  0  0  0  0  0  0  0  0  0  0
  1  2  1  0  0  0  0
  1 12  1  6  0  0  0
  1 13  1  0  0  0  0
  2  3  1  0  0  0  0
  2 10  1  1  0  0  0
  4  3  1  1  0  0  0
  4  5  1  0  0  0  0
  4 14  1  0  0  0  0
  5  6  1  0  0  0  0
  5 13  1  1  0  0  0
  6  7  1  0  0  0  0
  6 15  1  1  0  0  0
  7  8  1  0  0  0  0
  7 11  1  6  0  0  0
  8 14  1  0  0  0  0
  8 16  1  6  0  0  0
  9 11  1  0  0  0  0
 17 16  1  1  0  0  0
 17 18  1  0  0  0  0
 17 24  1  0  0  0  0
 18 19  1  0  0  0  0
 18 25  1  6  0  0  0
 19 20  1  0  0  0  0
 19 26  1  6  0  0  0
 20 21  1  0  0  0  0
 20 23  1  1  0  0  0
 21 22  1  1  0  0  0
 21 24  1  0  0  0  0
 22 27  1  0  0  0  0
 28 12  1  1  0  0  0
 28 29  1  0  0  0  0
 28 33  1  0  0  0  0
 29 30  1  0  0  0  0
 29 36  1  1  0  0  0
 30 31  1  0  0  0  0
 30 37  1  6  0  0  0
 31 32  1  0  0  0  0
 31 34  1  6  0  0  0
 32 33  1  0  0  0  0
 33 35  1  1  0  0  0
M  END
>  <CHROM.1>
140.57743871,137.25169837,-132.78740352,-78.03770452,113.53089201,-167.57145152
-7.83862129,24.50947971,67.22486235,3.08631450,-1.27628915,-2.45682075

>  <Name>
ligand

>  <RI>
0

>  <Rbt.Current_Directory>
/home/itssahil/PROJECTS/Mol_Feturizer/Test_systems_manuscript/rnas/2g5k

>  <Rbt.Executable>
rbdock ($Id: //depot/dev/client3/rdock/2013.1/src/exe/rbdock.cxx#4 $)

>  <Rbt.Library>
libRbt.so (2013.1, Build901 2013/11/27)

>  <Rbt.Parameter_File>
/export/apps/rDock/src/rDock_2013.1_src/data/scripts/dock_solv.prm

>  <Rbt.Receptor>
prm/blind_docking_100.prm

>  <SCORE>
63.9089

>  <SCORE.INTER>
40.6335

>  <SCORE.INTER.CONST>
1

>  <SCORE.INTER.POLAR>
0

>  <SCORE.INTER.ROT>
6

>  <SCORE.INTER.SOLV>
35.1443

>  <SCORE.INTER.VDW>
7.77419

>  <SCORE.INTER.norm>
1.0982

>  <SCORE.INTRA>
10.8969

>  <SCORE.INTRA.DIHEDRAL>
10.3089

>  <SCORE.INTRA.DIHEDRAL.0>
11.3972

>  <SCORE.INTRA.POLAR>
0

>  <SCORE.INTRA.POLAR.0>
0

>  <SCORE.INTRA.REPUL>
0

>  <SCORE.INTRA.REPUL.0>
0

>  <SCORE.INTRA.SOLV>
4.56728

>  <SCORE.INTRA.SOLV.lig_0>
-92.3891

>  <SCORE.INTRA.VDW>
3.45879

>  <SCORE.INTRA.VDW.0>
-2.90606

>  <SCORE.INTRA.norm>
0.29451

>  <SCORE.RESTR>
12.3786

>  <SCORE.RESTR.CAVITY>
12.3786

>  <SCORE.RESTR.norm>
0.334557

>  <SCORE.SYSTEM>
0

>  <SCORE.SYSTEM.CONST>
0

>  <SCORE.SYSTEM.DIHEDRAL>
0

>  <SCORE.SYSTEM.SOLV>
0

>  <SCORE.SYSTEM.norm>
0

>  <SCORE.heavy>
37

>  <SCORE.norm>
1.72727

>  <RMSD>
8.610

$$$$
ligand
 OpenBabel02271912133D
libRbt.so/2013.1/901 2013/11/27
 37 40  0  0  0  0  0  0  0  0999 V2000
   -6.6070   28.4966   65.0055 C   0  0  1  0  0  0  0  0  0  0  0  0
   -5.2862   27.7414   65.3274 C   0  0  1  0  0  0  0  0  0  0  0  0
   -5.5493   26.3169   65.8519 C   0  0  0  0  0  0  0  0  0  0  0  0
   -6.4641   26.4036   67.1132 C   0  0  1  0  0  0  0  0  0  0  0  0
   -7.8113   27.1178   66.7687 C   0  0  1  0  0  0  0  0  0  0  0  0
   -8.7289   27.1970   68.0713 C   0  0  1  0  0  0  0  0  0  0  0  0
   -8.9979   25.7534   68.5884 C   0  0  1  0  0  0  0  0  0  0  0  0
   -7.6238   25.0793   68.8820 C   0  0  2  0  0  0  0  0  0  0  0  0
  -10.1175   24.5084   70.5650 C   0  0  0  0  0  0  0  0  0  0  0  0
   -4.4071   27.7001   64.1397 N   0  0  0  0  0  0  0  0  0  0  0  0
   -9.8540   25.7881   69.8328 N   0  0  0  0  0  0  0  0  0  0  0  0
   -7.2975   27.9426   63.8685 O   0  0  0  0  0  0  0  0  0  0  0  0
   -7.4738   28.4619   66.2124 O   0  0  0  0  0  0  0  0  0  0  0  0
   -6.7699   25.0521   67.6872 O   0  0  0  0  0  0  0  0  0  0  0  0
   -8.0509   27.9170   69.0926 O   0  0  0  0  0  0  0  0  0  0  0  0
   -7.8219   23.7467   69.3402 O   0  0  0  0  0  0  0  0  0  0  0  0
   -6.6545   22.8990   69.2078 C   0  0  2  0  0  0  0  0  0  0  0  0
   -6.6879   22.0249   67.9317 C   0  0  1  0  0  0  0  0  0  0  0  0
   -7.8416   20.9734   68.0074 C   0  0  2  0  0  0  0  0  0  0  0  0
   -7.6161   20.0809   69.2110 C   0  0  1  0  0  0  0  0  0  0  0  0
   -7.6113   20.9601   70.4974 C   0  0  1  0  0  0  0  0  0  0  0  0
   -7.3662   20.1343   71.7588 C   0  0  0  0  0  0  0  0  0  0  0  0
   -8.6950   19.0658   69.2771 N   0  0  0  0  0  0  0  0  0  0  0  0
   -6.5370   21.9947   70.3906 O   0  0  0  0  0  0  0  0  0  0  0  0
   -6.8273   22.9153   66.8022 O   0  0  0  0  0  0  0  0  0  0  0  0
   -7.8430   20.1683   66.8263 O   0  0  0  0  0  0  0  0  0  0  0  0
   -8.4423   19.2486   71.9514 O   0  0  0  0  0  0  0  0  0  0  0  0
   -8.0918   26.6559   63.9272 C   0  0  1  0  0  0  0  0  0  0  0  0
   -7.0969   25.4645   63.8668 C   0  0  1  0  0  0  0  0  0  0  0  0
   -7.8743   24.1174   63.9208 C   0  0  2  0  0  0  0  0  0  0  0  0
   -8.6789   24.0479   65.2422 C   0  0  1  0  0  0  0  0  0  0  0  0
   -9.7007   25.2379   65.3260 C   0  0  0  0  0  0  0  0  0  0  0  0
   -8.9089   26.5609   65.2542 C   0  0  2  0  0  0  0  0  0  0  0  0
   -9.4187   22.7646   65.3080 N   0  0  0  0  0  0  0  0  0  0  0  0
   -9.8698   27.6666   65.3318 N   0  0  0  0  0  0  0  0  0  0  0  0
   -6.3437   25.5290   62.6356 O   0  0  0  0  0  0  0  0  0  0  0  0
   -6.9278   23.0276   63.8568 O   0  0  0  0  0  0  0  0  0  0  0  0
  1  2  1  0  0  0  0
  1 12  1  6  0  0  0
  1 13  1  0  0  0  0
  2  3  1  0  0  0  0
  2 10  1  6  0  0  0
  4  3  1  6  0  0  0
  4  5  1  0  0  0  0
  4 14  1  0  0  0  0
  5  6  1  0  0  0  0
  5 13  1  1  0  0  0
  6  7  1  0  0  0  0
  6 15  1  1  0  0  0
  7  8  1  0  0  0  0
  7 11  1  1  0  0  0
  8 14  1  0  0  0  0
  8 16  1  6  0  0  0
  9 11  1  0  0  0  0
 17 16  1  1  0  0  0
 17 18  1  0  0  0  0
 17 24  1  0  0  0  0
 18 19  1  0  0  0  0
 18 25  1  6  0  0  0
 19 20  1  0  0  0  0
 19 26  1  6  0  0  0
 20 21  1  0  0  0  0
 20 23  1  1  0  0  0
 21 22  1  1  0  0  0
 21 24  1  0  0  0  0
 22 27  1  0  0  0  0
 28 12  1  1  0  0  0
 28 29  1  0  0  0  0
 28 33  1  0  0  0  0
 29 30  1  0  0  0  0
 29 36  1  6  0  0  0
 30 31  1  0  0  0  0
 30 37  1  1  0  0  0
 31 32  1  0  0  0  0
 31 34  1  6  0  0  0
 32 33  1  0  0  0  0
 33 35  1  6  0  0  0
M  END
>  <CHROM.1>
76.11950783,-174.13136680,160.08711311,-78.84375468,-97.41316400,-65.00594993
-7.66565898,24.48405938,67.12105020,1.16425781,1.33483290,-0.28870790

>  <Name>
ligand

>  <RI>
0

>  <Rbt.Current_Directory>
/home/itssahil/PROJECTS/Mol_Feturizer/Test_systems_manuscript/rnas/2g5k

>  <Rbt.Executable>
rbdock ($Id: //depot/dev/client3/rdock/2013.1/src/exe/rbdock.cxx#4 $)

>  <Rbt.Library>
libRbt.so (2013.1, Build901 2013/11/27)

>  <Rbt.Parameter_File>
/export/apps/rDock/src/rDock_2013.1_src/data/scripts/dock_solv.prm

>  <Rbt.Receptor>
prm/blind_docking_100.prm

>  <SCORE>
49.0095

>  <SCORE.INTER>
4.44217

>  <SCORE.INTER.CONST>
1

>  <SCORE.INTER.POLAR>
0

>  <SCORE.INTER.ROT>
6

>  <SCORE.INTER.SOLV>
19.8632

>  <SCORE.INTER.VDW>
-11.2596

>  <SCORE.INTER.norm>
0.120059

>  <SCORE.INTRA>
29.4049

>  <SCORE.INTRA.DIHEDRAL>
-1.69168

>  <SCORE.INTRA.DIHEDRAL.0>
11.3972

>  <SCORE.INTRA.POLAR>
0

>  <SCORE.INTRA.POLAR.0>
0

>  <SCORE.INTRA.REPUL>
0

>  <SCORE.INTRA.REPUL.0>
0

>  <SCORE.INTRA.SOLV>
11.1584

>  <SCORE.INTRA.SOLV.lig_0>
-92.3891

>  <SCORE.INTRA.VDW>
24.6716

>  <SCORE.INTRA.VDW.0>
-2.90606

>  <SCORE.INTRA.norm>
0.794728

>  <SCORE.RESTR>
15.1623

>  <SCORE.RESTR.CAVITY>
15.1623

>  <SCORE.RESTR.norm>
0.409793

>  <SCORE.SYSTEM>
0

>  <SCORE.SYSTEM.CONST>
0

>  <SCORE.SYSTEM.DIHEDRAL>
0

>  <SCORE.SYSTEM.SOLV>
0

>  <SCORE.SYSTEM.norm>
0

>  <SCORE.heavy>
37

>  <SCORE.norm>
1.32458

>  <RMSD>
8.661

$$$$
ligand
 OpenBabel02271912133D
libRbt.so/2013.1/901 2013/11/27
 37 40  0  0  0  0  0  0  0  0999 V2000
   -5.2602   32.5758   67.5120 C   0  0  1  0  0  0  0  0  0  0  0  0
   -4.1899   31.5241   67.9205 C   0  0  1  0  0  0  0  0  0  0  0  0
   -4.4450   30.1553   67.2614 C   0  0  0  0  0  0  0  0  0  0  0  0
   -5.8782   29.6698   67.6429 C   0  0  1  0  0  0  0  0  0  0  0  0
   -6.9524   30.7079   67.1824 C   0  0  1  0  0  0  0  0  0  0  0  0
   -8.4078   30.1930   67.5838 C   0  0  1  0  0  0  0  0  0  0  0  0
   -8.6610   28.8147   66.9056 C   0  0  1  0  0  0  0  0  0  0  0  0
   -7.5446   27.8323   67.3719 C   0  0  2  0  0  0  0  0  0  0  0  0
  -10.7795   27.4646   66.2736 C   0  0  0  0  0  0  0  0  0  0  0  0
   -2.8321   32.0092   67.5944 N   0  0  0  0  0  0  0  0  0  0  0  0
  -10.0275   28.2863   67.2748 N   0  0  0  0  0  0  0  0  0  0  0  0
   -5.1638   32.9523   66.1244 O   0  0  0  0  0  0  0  0  0  0  0  0
   -6.6049   32.0174   67.8107 O   0  0  0  0  0  0  0  0  0  0  0  0
   -6.2068   28.3377   67.0371 O   0  0  0  0  0  0  0  0  0  0  0  0
   -8.4829   30.0168   68.9926 O   0  0  0  0  0  0  0  0  0  0  0  0
   -7.7262   26.5609   66.7590 O   0  0  0  0  0  0  0  0  0  0  0  0
   -6.5641   25.6989   66.8358 C   0  0  2  0  0  0  0  0  0  0  0  0
   -6.4971   24.6757   65.6774 C   0  0  1  0  0  0  0  0  0  0  0  0
   -7.6682   23.6456   65.7761 C   0  0  2  0  0  0  0  0  0  0  0  0
   -7.5635   22.9060   67.0945 C   0  0  1  0  0  0  0  0  0  0  0  0
   -7.6599   23.9356   68.2599 C   0  0  1  0  0  0  0  0  0  0  0  0
   -7.5398   23.2692   69.6291 C   0  0  0  0  0  0  0  0  0  0  0  0
   -8.6588   21.9106   67.1861 N   0  0  0  0  0  0  0  0  0  0  0  0
   -6.5653   24.9455   68.1253 O   0  0  0  0  0  0  0  0  0  0  0  0
   -6.5227   25.4219   64.4403 O   0  0  0  0  0  0  0  0  0  0  0  0
   -7.5767   22.7023   64.7061 O   0  0  0  0  0  0  0  0  0  0  0  0
   -6.3280   22.5575   69.6954 O   0  0  0  0  0  0  0  0  0  0  0  0
   -6.2003   33.8021   65.4220 C   0  0  1  0  0  0  0  0  0  0  0  0
   -5.9376   35.2901   65.7822 C   0  0  1  0  0  0  0  0  0  0  0  0
   -6.9867   36.2014   65.0817 C   0  0  2  0  0  0  0  0  0  0  0  0
   -6.8761   36.0172   63.5480 C   0  0  1  0  0  0  0  0  0  0  0  0
   -7.1463   34.5209   63.1539 C   0  0  0  0  0  0  0  0  0  0  0  0
   -6.1054   33.6362   63.8724 C   0  0  2  0  0  0  0  0  0  0  0  0
   -7.8669   36.8867   62.8692 N   0  0  0  0  0  0  0  0  0  0  0  0
   -6.3652   32.2412   63.5005 N   0  0  0  0  0  0  0  0  0  0  0  0
   -6.0381   35.4634   67.2130 O   0  0  0  0  0  0  0  0  0  0  0  0
   -6.7241   37.5770   65.4376 O   0  0  0  0  0  0  0  0  0  0  0  0
  1  2  1  0  0  0  0
  1 12  1  6  0  0  0
  1 13  1  0  0  0  0
  2  3  1  0  0  0  0
  2 10  1  6  0  0  0
  4  3  1  6  0  0  0
  4  5  1  0  0  0  0
  4 14  1  0  0  0  0
  5  6  1  0  0  0  0
  5 13  1  1  0  0  0
  6  7  1  0  0  0  0
  6 15  1  1  0  0  0
  7  8  1  0  0  0  0
  7 11  1  1  0  0  0
  8 14  1  0  0  0  0
  8 16  1  6  0  0  0
  9 11  1  0  0  0  0
 17 16  1  6  0  0  0
 17 18  1  0  0  0  0
 17 24  1  0  0  0  0
 18 19  1  0  0  0  0
 18 25  1  6  0  0  0
 19 20  1  0  0  0  0
 19 26  1  6  0  0  0
 20 21  1  0  0  0  0
 20 23  1  1  0  0  0
 21 22  1  1  0  0  0
 21 24  1  0  0  0  0
 22 27  1  0  0  0  0
 28 12  1  1  0  0  0
 28 29  1  0  0  0  0
 28 33  1  0  0  0  0
 29 30  1  0  0  0  0
 29 36  1  1  0  0  0
 30 31  1  0  0  0  0
 30 37  1  6  0  0  0
 31 32  1  0  0  0  0
 31 34  1  6  0  0  0
 32 33  1  0  0  0  0
 33 35  1  1  0  0  0
M  END
>  <CHROM.1>
170.95717388,147.19953309,164.24208640,80.29373724,-152.97477823,56.91549797
-6.88457895,29.48744614,66.52135092,-1.39817179,0.92839424,2.82042246

>  <Name>
ligand

>  <RI>
0

>  <Rbt.Current_Directory>
/home/itssahil/PROJECTS/Mol_Feturizer/Test_systems_manuscript/rnas/2g5k

>  <Rbt.Executable>
rbdock ($Id: //depot/dev/client3/rdock/2013.1/src/exe/rbdock.cxx#4 $)

>  <Rbt.Library>
libRbt.so (2013.1, Build901 2013/11/27)

>  <Rbt.Parameter_File>
/export/apps/rDock/src/rDock_2013.1_src/data/scripts/dock_solv.prm

>  <Rbt.Receptor>
prm/pocket_docking_7.prm

>  <SCORE>
-5.33239

>  <SCORE.INTER>
-3.10839

>  <SCORE.INTER.CONST>
1

>  <SCORE.INTER.POLAR>
0

>  <SCORE.INTER.ROT>
6

>  <SCORE.INTER.SOLV>
12.8796

>  <SCORE.INTER.VDW>
-13.9655

>  <SCORE.INTER.norm>
-0.0840105

>  <SCORE.INTRA>
-2.224

>  <SCORE.INTRA.DIHEDRAL>
-4.20728

>  <SCORE.INTRA.DIHEDRAL.0>
11.3972

>  <SCORE.INTRA.POLAR>
0

>  <SCORE.INTRA.POLAR.0>
0

>  <SCORE.INTRA.REPUL>
0

>  <SCORE.INTRA.REPUL.0>
0

>  <SCORE.INTRA.SOLV>
-0.977212

>  <SCORE.INTRA.SOLV.lig_0>
-92.3891

>  <SCORE.INTRA.VDW>
0.368243

>  <SCORE.INTRA.VDW.0>
-2.90606

>  <SCORE.INTRA.norm>
-0.0601082

>  <SCORE.RESTR>
0

>  <SCORE.RESTR.CAVITY>
0

>  <SCORE.RESTR.norm>
0

>  <SCORE.SYSTEM>
0

>  <SCORE.SYSTEM.CONST>
0

>  <SCORE.SYSTEM.DIHEDRAL>
0

>  <SCORE.SYSTEM.SOLV>
0

>  <SCORE.SYSTEM.norm>
0

>  <SCORE.heavy>
37

>  <SCORE.norm>
-0.144119

>  <RMSD>
8.661

$$$$
ligand
 OpenBabel02271912133D
libRbt.so/2013.1/901 2013/11/27
 37 40  0  0  0  0  0  0  0  0999 V2000
   -7.2376   21.0745   70.7387 C   0  0  1  0  0  0  0  0  0  0  0  0
   -7.4836   22.2481   71.7290 C   0  0  1  0  0  0  0  0  0  0  0  0
   -8.2417   23.4136   71.0655 C   0  0  0  0  0  0  0  0  0  0  0  0
   -7.4367   23.8953   69.8185 C   0  0  1  0  0  0  0  0  0  0  0  0
   -7.2386   22.7228   68.8038 C   0  0  1  0  0  0  0  0  0  0  0  0
   -6.4127   23.2366   67.5395 C   0  0  1  0  0  0  0  0  0  0  0  0
   -7.1906   24.4070   66.8695 C   0  0  1  0  0  0  0  0  0  0  0  0
   -7.3891   25.5290   67.9328 C   0  0  2  0  0  0  0  0  0  0  0  0
   -6.9930   24.7050   64.3039 C   0  0  0  0  0  0  0  0  0  0  0  0
   -8.2096   21.7752   72.9268 N   0  0  0  0  0  0  0  0  0  0  0  0
   -6.4307   24.9312   65.6735 N   0  0  0  0  0  0  0  0  0  0  0  0
   -8.4548   20.3957   70.3727 O   0  0  0  0  0  0  0  0  0  0  0  0
   -6.5554   21.6130   69.5329 O   0  0  0  0  0  0  0  0  0  0  0  0
   -8.1113   25.0334   69.1118 O   0  0  0  0  0  0  0  0  0  0  0  0
   -5.1463   23.7266   67.9605 O   0  0  0  0  0  0  0  0  0  0  0  0
   -8.1152   26.6144   67.3673 O   0  0  0  0  0  0  0  0  0  0  0  0
   -7.3956   27.8719   67.3754 C   0  0  2  0  0  0  0  0  0  0  0  0
   -7.0757   28.3905   65.9534 C   0  0  1  0  0  0  0  0  0  0  0  0
   -6.0624   27.4453   65.2309 C   0  0  2  0  0  0  0  0  0  0  0  0
   -4.7800   27.3905   66.0363 C   0  0  1  0  0  0  0  0  0  0  0  0
   -5.1004   26.8410   67.4586 C   0  0  1  0  0  0  0  0  0  0  0  0
   -3.8577   26.7756   68.3446 C   0  0  0  0  0  0  0  0  0  0  0  0
   -3.8048   26.5127   65.3455 N   0  0  0  0  0  0  0  0  0  0  0  0
   -6.1092   27.7251   68.1196 O   0  0  0  0  0  0  0  0  0  0  0  0
   -8.3288   28.5014   65.2423 O   0  0  0  0  0  0  0  0  0  0  0  0
   -5.7702   27.9523   63.9268 O   0  0  0  0  0  0  0  0  0  0  0  0
   -3.1253   25.6153   68.0337 O   0  0  0  0  0  0  0  0  0  0  0  0
   -9.1582   20.6103   69.0501 C   0  0  1  0  0  0  0  0  0  0  0  0
   -9.7234   22.0569   69.0265 C   0  0  1  0  0  0  0  0  0  0  0  0
  -10.4604   22.3195   67.6812 C   0  0  2  0  0  0  0  0  0  0  0  0
   -9.4616   22.1395   66.5114 C   0  0  1  0  0  0  0  0  0  0  0  0
   -8.8800   20.6804   66.5057 C   0  0  0  0  0  0  0  0  0  0  0  0
   -8.1691   20.4381   67.8542 C   0  0  2  0  0  0  0  0  0  0  0  0
  -10.1514   22.3943   65.2238 N   0  0  0  0  0  0  0  0  0  0  0  0
   -7.6302   19.0738   67.8415 N   0  0  0  0  0  0  0  0  0  0  0  0
  -10.6538   22.2274   70.1186 O   0  0  0  0  0  0  0  0  0  0  0  0
  -10.9811   23.6673   67.6877 O   0  0  0  0  0  0  0  0  0  0  0  0
  1  2  1  0  0  0  0
  1 12  1  6  0  0  0
  1 13  1  0  0  0  0
  2  3  1  0  0  0  0
  2 10  1  1  0  0  0
  4  3  1  1  0  0  0
  4  5  1  0  0  0  0
  4 14  1  0  0  0  0
  5  6  1  0  0  0  0
  5 13  1  1  0  0  0
  6  7  1  0  0  0  0
  6 15  1  1  0  0  0
  7  8  1  0  0  0  0
  7 11  1  6  0  0  0
  8 14  1  0  0  0  0
  8 16  1  6  0  0  0
  9 11  1  0  0  0  0
 17 16  1  6  0  0  0
 17 18  1  0  0  0  0
 17 24  1  0  0  0  0
 18 19  1  0  0  0  0
 18 25  1  6  0  0  0
 19 20  1  0  0  0  0
 19 26  1  6  0  0  0
 20 21  1  0  0  0  0
 20 23  1  6  0  0  0
 21 22  1  1  0  0  0
 21 24  1  0  0  0  0
 22 27  1  0  0  0  0
 28 12  1  1  0  0  0
 28 29  1  0  0  0  0
 28 33  1  0  0  0  0
 29 30  1  0  0  0  0
 29 36  1  1  0  0  0
 30 31  1  0  0  0  0
 30 37  1  1  0  0  0
 31 32  1  0  0  0  0
 31 34  1  6  0  0  0
 32 33  1  0  0  0  0
 33 35  1  6  0  0  0
M  END
>  <CHROM.1>
102.39897192,111.33287983,-119.76244012,-67.82676456,115.13429974,-80.60772955
-7.38260245,24.14015589,67.83971819,-2.09220374,-0.67858093,-0.87342828

>  <Name>
ligand

>  <RI>
0

>  <Rbt.Current_Directory>
/home/itssahil/PROJECTS/Mol_Feturizer/Test_systems_manuscript/rnas/2g5k

>  <Rbt.Executable>
rbdock ($Id: //depot/dev/client3/rdock/2013.1/src/exe/rbdock.cxx#4 $)

>  <Rbt.Library>
libRbt.so (2013.1, Build901 2013/11/27)

>  <Rbt.Parameter_File>
/export/apps/rDock/src/rDock_2013.1_src/data/scripts/dock_solv.prm

>  <Rbt.Receptor>
prm/blind_docking_100.prm

>  <SCORE>
45.6891

>  <SCORE.INTER>
7.90555

>  <SCORE.INTER.CONST>
1

>  <SCORE.INTER.POLAR>
0

>  <SCORE.INTER.ROT>
6

>  <SCORE.INTER.SOLV>
24.2655

>  <SCORE.INTER.VDW>
-10.4181

>  <SCORE.INTER.norm>
0.213663

>  <SCORE.INTRA>
21.9245

>  <SCORE.INTRA.DIHEDRAL>
11.459

>  <SCORE.INTRA.DIHEDRAL.0>
11.3972

>  <SCORE.INTRA.POLAR>
0

>  <SCORE.INTRA.POLAR.0>
0

>  <SCORE.INTRA.REPUL>
0

>  <SCORE.INTRA.REPUL.0>
0

>  <SCORE.INTRA.SOLV>
10.7007

>  <SCORE.INTRA.SOLV.lig_0>
-92.3891

>  <SCORE.INTRA.VDW>
10.8447

>  <SCORE.INTRA.VDW.0>
-2.90606

>  <SCORE.INTRA.norm>
0.592555

>  <SCORE.RESTR>
15.859

>  <SCORE.RESTR.CAVITY>
15.859

>  <SCORE.RESTR.norm>
0.428623

>  <SCORE.SYSTEM>
0

>  <SCORE.SYSTEM.CONST>
0

>  <SCORE.SYSTEM.DIHEDRAL>
0

>  <SCORE.SYSTEM.SOLV>
0

>  <SCORE.SYSTEM.norm>
0

>  <SCORE.heavy>
37

>  <SCORE.norm>
1.23484

>  <RMSD>
8.696

$$$$
ligand
 OpenBabel02271912133D
libRbt.so/2013.1/901 2013/11/27
 37 40  0  0  0  0  0  0  0  0999 V2000
   -8.7688   25.4348   63.5354 C   0  0  1  0  0  0  0  0  0  0  0  0
   -9.9314   24.5943   64.1357 C   0  0  1  0  0  0  0  0  0  0  0  0
  -10.0059   24.7249   65.6689 C   0  0  0  0  0  0  0  0  0  0  0  0
   -8.6351   24.2973   66.2798 C   0  0  1  0  0  0  0  0  0  0  0  0
   -7.4784   25.1814   65.7106 C   0  0  1  0  0  0  0  0  0  0  0  0
   -6.0879   24.7262   66.3463 C   0  0  1  0  0  0  0  0  0  0  0  0
   -6.1687   24.8709   67.8943 C   0  0  1  0  0  0  0  0  0  0  0  0
   -7.3563   23.9988   68.4018 C   0  0  2  0  0  0  0  0  0  0  0  0
   -3.5910   25.0571   68.0714 C   0  0  0  0  0  0  0  0  0  0  0  0
  -11.2209   24.9758   63.5218 N   0  0  0  0  0  0  0  0  0  0  0  0
   -4.8718   24.4344   68.5349 N   0  0  0  0  0  0  0  0  0  0  0  0
   -8.9968   26.8531   63.6478 O   0  0  0  0  0  0  0  0  0  0  0  0
   -7.5083   25.0510   64.2232 O   0  0  0  0  0  0  0  0  0  0  0  0
   -8.6241   24.3973   67.7763 O   0  0  0  0  0  0  0  0  0  0  0  0
   -5.8442   23.3598   66.0387 O   0  0  0  0  0  0  0  0  0  0  0  0
   -7.4796   24.1168   69.8146 O   0  0  0  0  0  0  0  0  0  0  0  0
   -8.5448   23.3149   70.3816 C   0  0  2  0  0  0  0  0  0  0  0  0
   -8.0205   22.1388   71.2391 C   0  0  1  0  0  0  0  0  0  0  0  0
   -7.2696   21.0942   70.3516 C   0  0  2  0  0  0  0  0  0  0  0  0
   -8.2273   20.5556   69.3083 C   0  0  1  0  0  0  0  0  0  0  0  0
   -8.7318   21.7381   68.4279 C   0  0  1  0  0  0  0  0  0  0  0  0
   -9.7238   21.2797   67.3607 C   0  0  0  0  0  0  0  0  0  0  0  0
   -7.5283   19.5470   68.4759 N   0  0  0  0  0  0  0  0  0  0  0  0
   -9.4029   22.7548   69.2951 O   0  0  0  0  0  0  0  0  0  0  0  0
   -7.1734   22.6983   72.2674 O   0  0  0  0  0  0  0  0  0  0  0  0
   -6.8086   20.0107   71.1619 O   0  0  0  0  0  0  0  0  0  0  0  0
  -10.7407   20.5194   67.9667 O   0  0  0  0  0  0  0  0  0  0  0  0
   -7.9800   27.8130   64.2263 C   0  0  1  0  0  0  0  0  0  0  0  0
   -8.3097   28.0266   65.7291 C   0  0  1  0  0  0  0  0  0  0  0  0
   -7.2874   29.0132   66.3642 C   0  0  2  0  0  0  0  0  0  0  0  0
   -5.8617   28.4236   66.2301 C   0  0  1  0  0  0  0  0  0  0  0  0
   -5.4979   28.2051   64.7178 C   0  0  0  0  0  0  0  0  0  0  0  0
   -6.5335   27.2376   64.1063 C   0  0  2  0  0  0  0  0  0  0  0  0
   -4.8792   29.3525   66.8386 N   0  0  0  0  0  0  0  0  0  0  0  0
   -6.1878   27.0400   62.6945 N   0  0  0  0  0  0  0  0  0  0  0  0
   -9.6404   28.5746   65.8563 O   0  0  0  0  0  0  0  0  0  0  0  0
   -7.6197   29.1991   67.7581 O   0  0  0  0  0  0  0  0  0  0  0  0
  1  2  1  0  0  0  0
  1 12  1  1  0  0  0
  1 13  1  0  0  0  0
  2  3  1  0  0  0  0
  2 10  1  6  0  0  0
  4  3  1  6  0  0  0
  4  5  1  0  0  0  0
  4 14  1  0  0  0  0
  5  6  1  0  0  0  0
  5 13  1  6  0  0  0
  6  7  1  0  0  0  0
  6 15  1  1  0  0  0
  7  8  1  0  0  0  0
  7 11  1  1  0  0  0
  8 14  1  0  0  0  0
  8 16  1  1  0  0  0
  9 11  1  0  0  0  0
 17 16  1  6  0  0  0
 17 18  1  0  0  0  0
 17 24  1  0  0  0  0
 18 19  1  0  0  0  0
 18 25  1  1  0  0  0
 19 20  1  0  0  0  0
 19 26  1  1  0  0  0
 20 21  1  0  0  0  0
 20 23  1  6  0  0  0
 21 22  1  6  0  0  0
 21 24  1  0  0  0  0
 22 27  1  0  0  0  0
 28 12  1  1  0  0  0
 28 29  1  0  0  0  0
 28 33  1  0  0  0  0
 29 30  1  0  0  0  0
 29 36  1  6  0  0  0
 30 31  1  0  0  0  0
 30 37  1  1  0  0  0
 31 32  1  0  0  0  0
 31 34  1  6  0  0  0
 32 33  1  0  0  0  0
 33 35  1  6  0  0  0
M  END
>  <CHROM.1>
129.11793706,53.97576984,-178.76205171,-95.20425218,110.87627697,51.48789064
-7.70134822,24.69903908,67.07235426,1.47513100,-0.73989457,-0.74344105

>  <Name>
ligand

>  <RI>
0

>  <Rbt.Current_Directory>
/home/itssahil/PROJECTS/Mol_Feturizer/Test_systems_manuscript/rnas/2g5k

>  <Rbt.Executable>
rbdock ($Id: //depot/dev/client3/rdock/2013.1/src/exe/rbdock.cxx#4 $)

>  <Rbt.Library>
libRbt.so (2013.1, Build901 2013/11/27)

>  <Rbt.Parameter_File>
/export/apps/rDock/src/rDock_2013.1_src/data/scripts/dock_solv.prm

>  <Rbt.Receptor>
prm/blind_docking_100.prm

>  <SCORE>
81.4951

>  <SCORE.INTER>
48.7318

>  <SCORE.INTER.CONST>
1

>  <SCORE.INTER.POLAR>
0

>  <SCORE.INTER.ROT>
6

>  <SCORE.INTER.SOLV>
27.1157

>  <SCORE.INTER.VDW>
15.8493

>  <SCORE.INTER.norm>
1.31708

>  <SCORE.INTRA>
15.0301

>  <SCORE.INTRA.DIHEDRAL>
7.07349

>  <SCORE.INTRA.DIHEDRAL.0>
11.3972

>  <SCORE.INTRA.POLAR>
0

>  <SCORE.INTRA.POLAR.0>
0

>  <SCORE.INTRA.REPUL>
0

>  <SCORE.INTRA.REPUL.0>
0

>  <SCORE.INTRA.SOLV>
2.79334

>  <SCORE.INTRA.SOLV.lig_0>
-92.3891

>  <SCORE.INTRA.VDW>
10.0967

>  <SCORE.INTRA.VDW.0>
-2.90606

>  <SCORE.INTRA.norm>
0.40622

>  <SCORE.RESTR>
17.7332

>  <SCORE.RESTR.CAVITY>
17.7332

>  <SCORE.RESTR.norm>
0.479275

>  <SCORE.SYSTEM>
0

>  <SCORE.SYSTEM.CONST>
0

>  <SCORE.SYSTEM.DIHEDRAL>
0

>  <SCORE.SYSTEM.SOLV>
0

>  <SCORE.SYSTEM.norm>
0

>  <SCORE.heavy>
37

>  <SCORE.norm>
2.20257

>  <RMSD>
8.733

$$$$
ligand
 OpenBabel02271912133D
libRbt.so/2013.1/901 2013/11/27
 37 40  0  0  0  0  0  0  0  0999 V2000
   -5.7707   27.3123   65.1753 C   0  0  1  0  0  0  0  0  0  0  0  0
   -4.4903   26.9158   65.9639 C   0  0  1  0  0  0  0  0  0  0  0  0
   -4.6732   25.5943   66.7342 C   0  0  0  0  0  0  0  0  0  0  0  0
   -5.8977   25.7326   67.6916 C   0  0  1  0  0  0  0  0  0  0  0  0
   -7.1911   26.0800   66.8854 C   0  0  1  0  0  0  0  0  0  0  0  0
   -8.4283   26.2185   67.8828 C   0  0  1  0  0  0  0  0  0  0  0  0
   -8.6120   24.8759   68.6493 C   0  0  1  0  0  0  0  0  0  0  0  0
   -7.2852   24.5627   69.4043 C   0  0  2  0  0  0  0  0  0  0  0  0
   -9.6145   25.8153   70.8455 C   0  0  0  0  0  0  0  0  0  0  0  0
   -3.3263   26.8280   65.0569 N   0  0  0  0  0  0  0  0  0  0  0  0
   -9.7685   24.9729   69.6168 N   0  0  0  0  0  0  0  0  0  0  0  0
   -6.0384   26.4236   64.0731 O   0  0  0  0  0  0  0  0  0  0  0  0
   -6.9169   27.3334   66.1213 O   0  0  0  0  0  0  0  0  0  0  0  0
   -6.1454   24.4818   68.4815 O   0  0  0  0  0  0  0  0  0  0  0  0
   -8.1656   27.2421   68.8339 O   0  0  0  0  0  0  0  0  0  0  0  0
   -7.4019   23.3299   70.1054 O   0  0  0  0  0  0  0  0  0  0  0  0
   -8.6709   22.6589   69.9092 C   0  0  2  0  0  0  0  0  0  0  0  0
   -9.0349   21.7086   71.0745 C   0  0  1  0  0  0  0  0  0  0  0  0
   -8.0415   20.5040   71.1415 C   0  0  2  0  0  0  0  0  0  0  0  0
   -8.1113   19.7352   69.8376 C   0  0  1  0  0  0  0  0  0  0  0  0
   -7.7167   20.6868   68.6687 C   0  0  1  0  0  0  0  0  0  0  0  0
   -7.7840   19.9905   67.3109 C   0  0  0  0  0  0  0  0  0  0  0  0
   -7.1875   18.5770   69.9017 N   0  0  0  0  0  0  0  0  0  0  0  0
   -8.6425   21.8610   68.6470 O   0  0  0  0  0  0  0  0  0  0  0  0
   -9.0321   22.4930   72.2881 O   0  0  0  0  0  0  0  0  0  0  0  0
   -8.4064   19.6327   72.2142 O   0  0  0  0  0  0  0  0  0  0  0  0
   -9.1241   19.6848   67.0107 O   0  0  0  0  0  0  0  0  0  0  0  0
   -7.2589   25.5316   64.0050 C   0  0  1  0  0  0  0  0  0  0  0  0
   -7.0485   24.3407   64.9800 C   0  0  1  0  0  0  0  0  0  0  0  0
   -8.2825   23.3934   64.9385 C   0  0  2  0  0  0  0  0  0  0  0  0
   -9.5451   24.1850   65.3599 C   0  0  1  0  0  0  0  0  0  0  0  0
   -9.7873   25.3920   64.3843 C   0  0  0  0  0  0  0  0  0  0  0  0
   -8.5454   26.3074   64.4303 C   0  0  2  0  0  0  0  0  0  0  0  0
  -10.7268   23.2900   65.3309 N   0  0  0  0  0  0  0  0  0  0  0  0
   -8.7788   27.4308   63.5161 N   0  0  0  0  0  0  0  0  0  0  0  0
   -5.8697   23.6023   64.5897 O   0  0  0  0  0  0  0  0  0  0  0  0
   -8.0588   22.2929   65.8478 O   0  0  0  0  0  0  0  0  0  0  0  0
  1  2  1  0  0  0  0
  1 12  1  6  0  0  0
  1 13  1  0  0  0  0
  2  3  1  0  0  0  0
  2 10  1  6  0  0  0
  4  3  1  6  0  0  0
  4  5  1  0  0  0  0
  4 14  1  0  0  0  0
  5  6  1  0  0  0  0
  5 13  1  1  0  0  0
  6  7  1  0  0  0  0
  6 15  1  1  0  0  0
  7  8  1  0  0  0  0
  7 11  1  1  0  0  0
  8 14  1  0  0  0  0
  8 16  1  6  0  0  0
  9 11  1  0  0  0  0
 17 16  1  1  0  0  0
 17 18  1  0  0  0  0
 17 24  1  0  0  0  0
 18 19  1  0  0  0  0
 18 25  1  1  0  0  0
 19 20  1  0  0  0  0
 19 26  1  1  0  0  0
 20 21  1  0  0  0  0
 20 23  1  1  0  0  0
 21 22  1  6  0  0  0
 21 24  1  0  0  0  0
 22 27  1  0  0  0  0
 28 12  1  1  0  0  0
 28 29  1  0  0  0  0
 28 33  1  0  0  0  0
 29 30  1  0  0  0  0
 29 36  1  6  0  0  0
 30 31  1  0  0  0  0
 30 37  1  1  0  0  0
 31 32  1  0  0  0  0
 31 34  1  6  0  0  0
 32 33  1  0  0  0  0
 33 35  1  6  0  0  0
M  END
>  <CHROM.1>
114.98957443,-71.34936701,2.26692586,-75.06083863,-155.26061612,67.19840643
-7.71494109,23.95073678,67.51511728,-0.39005715,1.33173369,1.20497740

>  <Name>
ligand

>  <RI>
0

>  <Rbt.Current_Directory>
/home/itssahil/PROJECTS/Mol_Feturizer/Test_systems_manuscript/rnas/2g5k

>  <Rbt.Executable>
rbdock ($Id: //depot/dev/client3/rdock/2013.1/src/exe/rbdock.cxx#4 $)

>  <Rbt.Library>
libRbt.so (2013.1, Build901 2013/11/27)

>  <Rbt.Parameter_File>
/export/apps/rDock/src/rDock_2013.1_src/data/scripts/dock_solv.prm

>  <Rbt.Receptor>
prm/blind_docking_100.prm

>  <SCORE>
38.0377

>  <SCORE.INTER>
4.40859

>  <SCORE.INTER.CONST>
1

>  <SCORE.INTER.POLAR>
0

>  <SCORE.INTER.ROT>
6

>  <SCORE.INTER.SOLV>
22.8726

>  <SCORE.INTER.VDW>
-12.2852

>  <SCORE.INTER.norm>
0.119151

>  <SCORE.INTRA>
18.9898

>  <SCORE.INTRA.DIHEDRAL>
6.80394

>  <SCORE.INTRA.DIHEDRAL.0>
11.3972

>  <SCORE.INTRA.POLAR>
0

>  <SCORE.INTRA.POLAR.0>
0

>  <SCORE.INTRA.REPUL>
0.213114

>  <SCORE.INTRA.REPUL.0>
0

>  <SCORE.INTRA.SOLV>
5.42832

>  <SCORE.INTRA.SOLV.lig_0>
-92.3891

>  <SCORE.INTRA.VDW>
11.8081

>  <SCORE.INTRA.VDW.0>
-2.90606

>  <SCORE.INTRA.norm>
0.513238

>  <SCORE.RESTR>
14.6393

>  <SCORE.RESTR.CAVITY>
14.6393

>  <SCORE.RESTR.norm>
0.395658

>  <SCORE.SYSTEM>
0

>  <SCORE.SYSTEM.CONST>
0

>  <SCORE.SYSTEM.DIHEDRAL>
0

>  <SCORE.SYSTEM.SOLV>
0

>  <SCORE.SYSTEM.norm>
0

>  <SCORE.heavy>
37

>  <SCORE.norm>
1.02805

>  <RMSD>
8.844

$$$$
ligand
 OpenBabel02271912133D
libRbt.so/2013.1/901 2013/11/27
 37 40  0  0  0  0  0  0  0  0999 V2000
   -9.3327   21.5235   67.7617 C   0  0  1  0  0  0  0  0  0  0  0  0
   -7.9086   20.9348   67.9714 C   0  0  1  0  0  0  0  0  0  0  0  0
   -6.8216   22.0258   67.9308 C   0  0  0  0  0  0  0  0  0  0  0  0
   -6.9171   22.7840   66.5703 C   0  0  1  0  0  0  0  0  0  0  0  0
   -8.3351   23.4170   66.3905 C   0  0  1  0  0  0  0  0  0  0  0  0
   -8.4107   24.1844   64.9941 C   0  0  1  0  0  0  0  0  0  0  0  0
   -7.3160   25.2910   64.9658 C   0  0  1  0  0  0  0  0  0  0  0  0
   -5.9315   24.6096   65.1835 C   0  0  2  0  0  0  0  0  0  0  0  0
   -8.0410   27.3577   63.5823 C   0  0  0  0  0  0  0  0  0  0  0  0
   -7.8380   20.1826   69.2420 N   0  0  0  0  0  0  0  0  0  0  0  0
   -7.3469   26.0323   63.6495 N   0  0  0  0  0  0  0  0  0  0  0  0
   -9.7632   22.3371   68.8704 O   0  0  0  0  0  0  0  0  0  0  0  0
   -9.3337   22.3123   66.5019 O   0  0  0  0  0  0  0  0  0  0  0  0
   -5.8882   23.8688   66.4511 O   0  0  0  0  0  0  0  0  0  0  0  0
   -8.1524   23.2750   63.9322 O   0  0  0  0  0  0  0  0  0  0  0  0
   -4.8999   25.5898   65.1843 O   0  0  0  0  0  0  0  0  0  0  0  0
   -5.2897   26.8553   64.5965 C   0  0  2  0  0  0  0  0  0  0  0  0
   -4.0802   27.7577   64.2558 C   0  0  1  0  0  0  0  0  0  0  0  0
   -3.3467   28.2200   65.5560 C   0  0  2  0  0  0  0  0  0  0  0  0
   -4.3179   29.0010   66.4179 C   0  0  1  0  0  0  0  0  0  0  0  0
   -5.5211   28.0810   66.7832 C   0  0  1  0  0  0  0  0  0  0  0  0
   -6.5613   28.8043   67.6366 C   0  0  0  0  0  0  0  0  0  0  0  0
   -3.6231   29.4624   67.6440 N   0  0  0  0  0  0  0  0  0  0  0  0
   -6.1831   27.6041   65.5300 O   0  0  0  0  0  0  0  0  0  0  0  0
   -3.2165   27.0070   63.3734 O   0  0  0  0  0  0  0  0  0  0  0  0
   -2.2439   29.0640   65.2176 O   0  0  0  0  0  0  0  0  0  0  0  0
   -7.6058   27.9152   67.9496 O   0  0  0  0  0  0  0  0  0  0  0  0
   -9.3110   23.7667   69.0745 C   0  0  1  0  0  0  0  0  0  0  0  0
  -10.4235   24.7116   68.5433 C   0  0  1  0  0  0  0  0  0  0  0  0
   -9.9964   26.1963   68.7308 C   0  0  2  0  0  0  0  0  0  0  0  0
   -9.7649   26.4718   70.2371 C   0  0  1  0  0  0  0  0  0  0  0  0
   -8.6368   25.5347   70.7995 C   0  0  0  0  0  0  0  0  0  0  0  0
   -9.0750   24.0698   70.5878 C   0  0  2  0  0  0  0  0  0  0  0  0
   -9.3642   27.8864   70.4288 N   0  0  0  0  0  0  0  0  0  0  0  0
   -8.0162   23.2016   71.1142 N   0  0  0  0  0  0  0  0  0  0  0  0
  -10.6424   24.4544   67.1385 O   0  0  0  0  0  0  0  0  0  0  0  0
  -11.0441   27.0525   68.2238 O   0  0  0  0  0  0  0  0  0  0  0  0
  1  2  1  0  0  0  0
  1 12  1  1  0  0  0
  1 13  1  0  0  0  0
  2  3  1  0  0  0  0
  2 10  1  1  0  0  0
  4  3  1  1  0  0  0
  4  5  1  0  0  0  0
  4 14  1  0  0  0  0
  5  6  1  0  0  0  0
  5 13  1  6  0  0  0
  6  7  1  0  0  0  0
  6 15  1  6  0  0  0
  7  8  1  0  0  0  0
  7 11  1  6  0  0  0
  8 14  1  0  0  0  0
  8 16  1  1  0  0  0
  9 11  1  0  0  0  0
 17 16  1  1  0  0  0
 17 18  1  0  0  0  0
 17 24  1  0  0  0  0
 18 19  1  0  0  0  0
 18 25  1  6  0  0  0
 19 20  1  0  0  0  0
 19 26  1  6  0  0  0
 20 21  1  0  0  0  0
 20 23  1  1  0  0  0
 21 22  1  1  0  0  0
 21 24  1  0  0  0  0
 22 27  1  0  0  0  0
 28 12  1  1  0  0  0
 28 29  1  0  0  0  0
 28 33  1  0  0  0  0
 29 30  1  0  0  0  0
 29 36  1  6  0  0  0
 30 31  1  0  0  0  0
 30 37  1  1  0  0  0
 31 32  1  0  0  0  0
 31 34  1  6  0  0  0
 32 33  1  0  0  0  0
 33 35  1  6  0  0  0
M  END
>  <CHROM.1>
79.22749869,99.46620106,-17.83711566,98.84115106,-164.31133553,-178.99916838
-7.30489040,25.38979633,66.96199435,-2.80674804,0.84102054,0.48725354

>  <Name>
ligand

>  <RI>
0

>  <Rbt.Current_Directory>
/home/itssahil/PROJECTS/Mol_Feturizer/Test_systems_manuscript/rnas/2g5k

>  <Rbt.Executable>
rbdock ($Id: //depot/dev/client3/rdock/2013.1/src/exe/rbdock.cxx#4 $)

>  <Rbt.Library>
libRbt.so (2013.1, Build901 2013/11/27)

>  <Rbt.Parameter_File>
/export/apps/rDock/src/rDock_2013.1_src/data/scripts/dock_solv.prm

>  <Rbt.Receptor>
prm/blind_docking_100.prm

>  <SCORE>
40.8268

>  <SCORE.INTER>
7.64586

>  <SCORE.INTER.CONST>
1

>  <SCORE.INTER.POLAR>
0

>  <SCORE.INTER.ROT>
6

>  <SCORE.INTER.SOLV>
20.2444

>  <SCORE.INTER.VDW>
-9.25088

>  <SCORE.INTER.norm>
0.206645

>  <SCORE.INTRA>
14.6588

>  <SCORE.INTRA.DIHEDRAL>
3.25922

>  <SCORE.INTRA.DIHEDRAL.0>
11.3972

>  <SCORE.INTRA.POLAR>
0

>  <SCORE.INTRA.POLAR.0>
0

>  <SCORE.INTRA.REPUL>
0

>  <SCORE.INTRA.REPUL.0>
0

>  <SCORE.INTRA.SOLV>
5.64383

>  <SCORE.INTRA.SOLV.lig_0>
-92.3891

>  <SCORE.INTRA.VDW>
10.2073

>  <SCORE.INTRA.VDW.0>
-2.90606

>  <SCORE.INTRA.norm>
0.396183

>  <SCORE.RESTR>
18.5222

>  <SCORE.RESTR.CAVITY>
18.5222

>  <SCORE.RESTR.norm>
0.500599

>  <SCORE.SYSTEM>
0

>  <SCORE.SYSTEM.CONST>
0

>  <SCORE.SYSTEM.DIHEDRAL>
0

>  <SCORE.SYSTEM.SOLV>
0

>  <SCORE.SYSTEM.norm>
0

>  <SCORE.heavy>
37

>  <SCORE.norm>
1.10343

>  <RMSD>
8.858

$$$$
ligand
 OpenBabel02271912133D
libRbt.so/2013.1/901 2013/11/27
 37 40  0  0  0  0  0  0  0  0999 V2000
   -8.0087   26.1969   66.6460 C   0  0  1  0  0  0  0  0  0  0  0  0
   -7.9697   26.9766   65.3010 C   0  0  1  0  0  0  0  0  0  0  0  0
   -6.5988   26.8627   64.6076 C   0  0  0  0  0  0  0  0  0  0  0  0
   -5.4947   27.3773   65.5830 C   0  0  1  0  0  0  0  0  0  0  0  0
   -5.5062   26.5542   66.9119 C   0  0  1  0  0  0  0  0  0  0  0  0
   -4.3725   27.0978   67.8936 C   0  0  1  0  0  0  0  0  0  0  0  0
   -2.9901   26.9697   67.1891 C   0  0  1  0  0  0  0  0  0  0  0  0
   -3.0471   27.7782   65.8580 C   0  0  2  0  0  0  0  0  0  0  0  0
   -1.7263   26.8940   69.4491 C   0  0  0  0  0  0  0  0  0  0  0  0
   -9.0448   26.5127   64.3987 N   0  0  0  0  0  0  0  0  0  0  0  0
   -1.8897   27.4893   68.0845 N   0  0  0  0  0  0  0  0  0  0  0  0
   -7.9486   24.7694   66.4592 O   0  0  0  0  0  0  0  0  0  0  0  0
   -6.8783   26.6624   67.4914 O   0  0  0  0  0  0  0  0  0  0  0  0
   -4.1232   27.2985   64.9810 O   0  0  0  0  0  0  0  0  0  0  0  0
   -4.6021   28.4718   68.1775 O   0  0  0  0  0  0  0  0  0  0  0  0
   -1.8064   27.6725   65.1692 O   0  0  0  0  0  0  0  0  0  0  0  0
   -1.7284   28.4808   63.9693 C   0  0  2  0  0  0  0  0  0  0  0  0
   -0.6770   27.9598   62.9610 C   0  0  1  0  0  0  0  0  0  0  0  0
    0.7678   28.1031   63.5393 C   0  0  2  0  0  0  0  0  0  0  0  0
    1.0408   29.5659   63.8253 C   0  0  1  0  0  0  0  0  0  0  0  0
   -0.0018   30.0805   64.8626 C   0  0  1  0  0  0  0  0  0  0  0  0
    0.1921   31.5600   65.1892 C   0  0  0  0  0  0  0  0  0  0  0  0
    2.4185   29.7129   64.3537 N   0  0  0  0  0  0  0  0  0  0  0  0
   -1.3819   29.8908   64.3190 O   0  0  0  0  0  0  0  0  0  0  0  0
   -1.0145   26.5885   62.6553 O   0  0  0  0  0  0  0  0  0  0  0  0
    1.7217   27.6308   62.5853 O   0  0  0  0  0  0  0  0  0  0  0  0
   -0.7515   31.9503   66.1570 O   0  0  0  0  0  0  0  0  0  0  0  0
   -8.3401   23.7758   67.5315 C   0  0  1  0  0  0  0  0  0  0  0  0
   -7.7926   22.3796   67.1270 C   0  0  1  0  0  0  0  0  0  0  0  0
   -8.1771   21.3238   68.2037 C   0  0  2  0  0  0  0  0  0  0  0  0
   -7.5662   21.7403   69.5645 C   0  0  1  0  0  0  0  0  0  0  0  0
   -8.1101   23.1471   70.0029 C   0  0  0  0  0  0  0  0  0  0  0  0
   -7.7314   24.1728   68.9134 C   0  0  2  0  0  0  0  0  0  0  0  0
   -7.9203   20.7372   70.5973 N   0  0  0  0  0  0  0  0  0  0  0  0
   -8.2438   25.4829   69.3294 N   0  0  0  0  0  0  0  0  0  0  0  0
   -8.3598   21.9904   65.8565 O   0  0  0  0  0  0  0  0  0  0  0  0
   -7.6622   20.0352   67.8009 O   0  0  0  0  0  0  0  0  0  0  0  0
  1  2  1  0  0  0  0
  1 12  1  6  0  0  0
  1 13  1  0  0  0  0
  2  3  1  0  0  0  0
  2 10  1  6  0  0  0
  4  3  1  6  0  0  0
  4  5  1  0  0  0  0
  4 14  1  0  0  0  0
  5  6  1  0  0  0  0
  5 13  1  1  0  0  0
  6  7  1  0  0  0  0
  6 15  1  6  0  0  0
  7  8  1  0  0  0  0
  7 11  1  1  0  0  0
  8 14  1  0  0  0  0
  8 16  1  6  0  0  0
  9 11  1  0  0  0  0
 17 16  1  1  0  0  0
 17 18  1  0  0  0  0
 17 24  1  0  0  0  0
 18 19  1  0  0  0  0
 18 25  1  1  0  0  0
 19 20  1  0  0  0  0
 19 26  1  6  0  0  0
 20 21  1  0  0  0  0
 20 23  1  1  0  0  0
 21 22  1  6  0  0  0
 21 24  1  0  0  0  0
 22 27  1  0  0  0  0
 28 12  1  6  0  0  0
 28 29  1  0  0  0  0
 28 33  1  0  0  0  0
 29 30  1  0  0  0  0
 29 36  1  6  0  0  0
 30 31  1  0  0  0  0
 30 37  1  6  0  0  0
 31 32  1  0  0  0  0
 31 34  1  1  0  0  0
 32 33  1  0  0  0  0
 33 35  1  1  0  0  0
M  END
>  <CHROM.1>
-162.86612115,56.58212607,-175.32923392,-164.88159832,-157.02139663,-178.26623199
-4.32889245,26.44422661,66.29132819,2.84676328,0.68054180,1.49251056

>  <Name>
ligand

>  <RI>
0

>  <Rbt.Current_Directory>
/home/itssahil/PROJECTS/Mol_Feturizer/Test_systems_manuscript/rnas/2g5k

>  <Rbt.Executable>
rbdock ($Id: //depot/dev/client3/rdock/2013.1/src/exe/rbdock.cxx#4 $)

>  <Rbt.Library>
libRbt.so (2013.1, Build901 2013/11/27)

>  <Rbt.Parameter_File>
/export/apps/rDock/src/rDock_2013.1_src/data/scripts/dock_solv.prm

>  <Rbt.Receptor>
prm/pocket_docking_8.prm

>  <SCORE>
-10.5088

>  <SCORE.INTER>
-8.88747

>  <SCORE.INTER.CONST>
1

>  <SCORE.INTER.POLAR>
0

>  <SCORE.INTER.ROT>
6

>  <SCORE.INTER.SOLV>
15.616

>  <SCORE.INTER.VDW>
-18.7303

>  <SCORE.INTER.norm>
-0.240202

>  <SCORE.INTRA>
-1.62131

>  <SCORE.INTRA.DIHEDRAL>
-6.5067

>  <SCORE.INTRA.DIHEDRAL.0>
11.3972

>  <SCORE.INTRA.POLAR>
0

>  <SCORE.INTRA.POLAR.0>
0

>  <SCORE.INTRA.REPUL>
0

>  <SCORE.INTRA.REPUL.0>
0

>  <SCORE.INTRA.SOLV>
0.563041

>  <SCORE.INTRA.SOLV.lig_0>
-92.3891

>  <SCORE.INTRA.VDW>
1.35052

>  <SCORE.INTRA.VDW.0>
-2.90606

>  <SCORE.INTRA.norm>
-0.0438192

>  <SCORE.RESTR>
0

>  <SCORE.RESTR.CAVITY>
0

>  <SCORE.RESTR.norm>
0

>  <SCORE.SYSTEM>
0

>  <SCORE.SYSTEM.CONST>
0

>  <SCORE.SYSTEM.DIHEDRAL>
0

>  <SCORE.SYSTEM.SOLV>
0

>  <SCORE.SYSTEM.norm>
0

>  <SCORE.heavy>
37

>  <SCORE.norm>
-0.284021

>  <RMSD>
8.913

$$$$
ligand
 OpenBabel02271912133D
libRbt.so/2013.1/901 2013/11/27
 37 40  0  0  0  0  0  0  0  0999 V2000
    5.0395   26.3316   61.2700 C   0  0  1  0  0  0  0  0  0  0  0  0
    6.0751   26.8134   62.3254 C   0  0  1  0  0  0  0  0  0  0  0  0
    5.4221   27.0784   63.6954 C   0  0  0  0  0  0  0  0  0  0  0  0
    4.2793   28.1259   63.5164 C   0  0  1  0  0  0  0  0  0  0  0  0
    3.2155   27.6115   62.4930 C   0  0  1  0  0  0  0  0  0  0  0  0
    2.0592   28.6974   62.3243 C   0  0  1  0  0  0  0  0  0  0  0  0
    1.3984   28.9515   63.7108 C   0  0  1  0  0  0  0  0  0  0  0  0
    2.5074   29.4275   64.6969 C   0  0  2  0  0  0  0  0  0  0  0  0
   -0.8236   29.9619   64.5781 C   0  0  0  0  0  0  0  0  0  0  0  0
    7.1761   25.8360   62.4587 N   0  0  0  0  0  0  0  0  0  0  0  0
    0.3051   29.9878   63.5940 N   0  0  0  0  0  0  0  0  0  0  0  0
    4.5311   25.0140   61.5559 O   0  0  0  0  0  0  0  0  0  0  0  0
    3.9308   27.3201   61.2150 O   0  0  0  0  0  0  0  0  0  0  0  0
    3.5887   28.4399   64.8103 O   0  0  0  0  0  0  0  0  0  0  0  0
    2.6150   29.9225   61.8644 O   0  0  0  0  0  0  0  0  0  0  0  0
    1.9497   29.6537   65.9863 O   0  0  0  0  0  0  0  0  0  0  0  0
    2.7764   30.4721   66.8501 C   0  0  2  0  0  0  0  0  0  0  0  0
    2.5378   30.1914   68.3526 C   0  0  1  0  0  0  0  0  0  0  0  0
    1.0986   30.6270   68.7786 C   0  0  2  0  0  0  0  0  0  0  0  0
    0.9376   32.1117   68.5224 C   0  0  1  0  0  0  0  0  0  0  0  0
    1.1503   32.3878   67.0037 C   0  0  1  0  0  0  0  0  0  0  0  0
    1.0261   33.8720   66.6648 C   0  0  0  0  0  0  0  0  0  0  0  0
   -0.4185   32.5375   68.9449 N   0  0  0  0  0  0  0  0  0  0  0  0
    2.5112   31.9199   66.5973 O   0  0  0  0  0  0  0  0  0  0  0  0
    2.7744   28.7827   68.5715 O   0  0  0  0  0  0  0  0  0  0  0  0
    0.9069   30.3730   70.1721 O   0  0  0  0  0  0  0  0  0  0  0  0
    2.0352   34.5881   67.3343 O   0  0  0  0  0  0  0  0  0  0  0  0
    5.2935   23.7451   61.2419 C   0  0  1  0  0  0  0  0  0  0  0  0
    4.6693   22.5842   62.0637 C   0  0  1  0  0  0  0  0  0  0  0  0
    5.4281   21.2569   61.7728 C   0  0  2  0  0  0  0  0  0  0  0  0
    5.3219   20.9317   60.2625 C   0  0  1  0  0  0  0  0  0  0  0  0
    5.9544   22.0868   59.4064 C   0  0  0  0  0  0  0  0  0  0  0  0
    5.1972   23.3939   59.7236 C   0  0  2  0  0  0  0  0  0  0  0  0
    6.0357   19.6644   59.9745 N   0  0  0  0  0  0  0  0  0  0  0  0
    5.7944   24.4673   58.9216 N   0  0  0  0  0  0  0  0  0  0  0  0
    4.7654   22.8869   63.4731 O   0  0  0  0  0  0  0  0  0  0  0  0
    4.8327   20.1964   62.5531 O   0  0  0  0  0  0  0  0  0  0  0  0
  1  2  1  0  0  0  0
  1 12  1  1  0  0  0
  1 13  1  0  0  0  0
  2  3  1  0  0  0  0
  2 10  1  1  0  0  0
  4  3  1  1  0  0  0
  4  5  1  0  0  0  0
  4 14  1  0  0  0  0
  5  6  1  0  0  0  0
  5 13  1  6  0  0  0
  6  7  1  0  0  0  0
  6 15  1  1  0  0  0
  7  8  1  0  0  0  0
  7 11  1  6  0  0  0
  8 14  1  0  0  0  0
  8 16  1  1  0  0  0
  9 11  1  0  0  0  0
 17 16  1  6  0  0  0
 17 18  1  0  0  0  0
 17 24  1  0  0  0  0
 18 19  1  0  0  0  0
 18 25  1  6  0  0  0
 19 20  1  0  0  0  0
 19 26  1  1  0  0  0
 20 21  1  0  0  0  0
 20 23  1  6  0  0  0
 21 22  1  1  0  0  0
 21 24  1  0  0  0  0
 22 27  1  0  0  0  0
 28 12  1  6  0  0  0
 28 29  1  0  0  0  0
 28 33  1  0  0  0  0
 29 30  1  0  0  0  0
 29 36  1  1  0  0  0
 30 31  1  0  0  0  0
 30 37  1  1  0  0  0
 31 32  1  0  0  0  0
 31 34  1  1  0  0  0
 32 33  1  0  0  0  0
 33 35  1  6  0  0  0
M  END
>  <CHROM.1>
-79.17903298,153.35575612,-162.02129368,162.62206138,-153.55119499,62.72697464
3.32752848,27.55717657,64.02616047,0.06533774,1.21362457,-1.01795668

>  <Name>
ligand

>  <RI>
0

>  <Rbt.Current_Directory>
/home/itssahil/PROJECTS/Mol_Feturizer/Test_systems_manuscript/rnas/2g5k

>  <Rbt.Executable>
rbdock ($Id: //depot/dev/client3/rdock/2013.1/src/exe/rbdock.cxx#4 $)

>  <Rbt.Library>
libRbt.so (2013.1, Build901 2013/11/27)

>  <Rbt.Parameter_File>
/export/apps/rDock/src/rDock_2013.1_src/data/scripts/dock_solv.prm

>  <Rbt.Receptor>
prm/pocket_docking_8.prm

>  <SCORE>
-7.93

>  <SCORE.INTER>
-6.65198

>  <SCORE.INTER.CONST>
1

>  <SCORE.INTER.POLAR>
0

>  <SCORE.INTER.ROT>
6

>  <SCORE.INTER.SOLV>
14.14

>  <SCORE.INTER.VDW>
-16.748

>  <SCORE.INTER.norm>
-0.179783

>  <SCORE.INTRA>
-1.27802

>  <SCORE.INTRA.DIHEDRAL>
-3.37945

>  <SCORE.INTRA.DIHEDRAL.0>
11.3972

>  <SCORE.INTRA.POLAR>
0

>  <SCORE.INTRA.POLAR.0>
0

>  <SCORE.INTRA.REPUL>
0

>  <SCORE.INTRA.REPUL.0>
0

>  <SCORE.INTRA.SOLV>
1.8026

>  <SCORE.INTRA.SOLV.lig_0>
-92.3891

>  <SCORE.INTRA.VDW>
-0.489602

>  <SCORE.INTRA.VDW.0>
-2.90606

>  <SCORE.INTRA.norm>
-0.0345412

>  <SCORE.RESTR>
0

>  <SCORE.RESTR.CAVITY>
0

>  <SCORE.RESTR.norm>
0

>  <SCORE.SYSTEM>
0

>  <SCORE.SYSTEM.CONST>
0

>  <SCORE.SYSTEM.DIHEDRAL>
0

>  <SCORE.SYSTEM.SOLV>
0

>  <SCORE.SYSTEM.norm>
0

>  <SCORE.heavy>
37

>  <SCORE.norm>
-0.214324

>  <RMSD>
8.929

$$$$
ligand
 OpenBabel02271912133D
libRbt.so/2013.1/901 2013/11/27
 37 40  0  0  0  0  0  0  0  0999 V2000
   -7.9996   27.7530   67.2377 C   0  0  1  0  0  0  0  0  0  0  0  0
   -7.8364   28.7853   66.0861 C   0  0  1  0  0  0  0  0  0  0  0  0
   -6.6867   28.4087   65.1323 C   0  0  0  0  0  0  0  0  0  0  0  0
   -5.3680   28.2794   65.9567 C   0  0  1  0  0  0  0  0  0  0  0  0
   -5.5231   27.2026   67.0792 C   0  0  1  0  0  0  0  0  0  0  0  0
   -4.1658   27.0887   67.9095 C   0  0  1  0  0  0  0  0  0  0  0  0
   -3.0118   26.6982   66.9401 C   0  0  1  0  0  0  0  0  0  0  0  0
   -2.9256   27.7844   65.8260 C   0  0  2  0  0  0  0  0  0  0  0  0
   -1.4382   25.3734   68.5146 C   0  0  0  0  0  0  0  0  0  0  0  0
   -9.1018   28.9333   65.3362 N   0  0  0  0  0  0  0  0  0  0  0  0
   -1.7038   26.5945   67.6892 N   0  0  0  0  0  0  0  0  0  0  0  0
   -8.4784   26.4762   66.7719 O   0  0  0  0  0  0  0  0  0  0  0  0
   -6.6889   27.6025   67.9224 O   0  0  0  0  0  0  0  0  0  0  0  0
   -4.1947   27.9121   65.0976 O   0  0  0  0  0  0  0  0  0  0  0  0
   -3.8522   28.3474   68.4913 O   0  0  0  0  0  0  0  0  0  0  0  0
   -1.8930   27.4564   64.9034 O   0  0  0  0  0  0  0  0  0  0  0  0
   -1.7587   28.3983   63.8107 C   0  0  2  0  0  0  0  0  0  0  0  0
   -0.6268   28.0196   62.8264 C   0  0  1  0  0  0  0  0  0  0  0  0
    0.7709   28.1276   63.5172 C   0  0  2  0  0  0  0  0  0  0  0  0
    0.9801   29.5536   63.9847 C   0  0  1  0  0  0  0  0  0  0  0  0
   -0.1448   29.9229   64.9976 C   0  0  1  0  0  0  0  0  0  0  0  0
   -0.0176   31.3592   65.5016 C   0  0  0  0  0  0  0  0  0  0  0  0
    2.3141   29.6695   64.6217 N   0  0  0  0  0  0  0  0  0  0  0  0
   -1.4789   29.7663   64.3406 O   0  0  0  0  0  0  0  0  0  0  0  0
   -0.9018   26.6851   62.3452 O   0  0  0  0  0  0  0  0  0  0  0  0
    1.8005   27.7887   62.5854 O   0  0  0  0  0  0  0  0  0  0  0  0
   -1.0431   31.6193   66.4291 O   0  0  0  0  0  0  0  0  0  0  0  0
   -8.6841   25.2854   67.6827 C   0  0  1  0  0  0  0  0  0  0  0  0
   -7.2907   24.7091   68.0556 C   0  0  1  0  0  0  0  0  0  0  0  0
   -7.4565   23.4767   68.9913 C   0  0  2  0  0  0  0  0  0  0  0  0
   -8.1932   23.9138   70.2814 C   0  0  1  0  0  0  0  0  0  0  0  0
   -9.6112   24.4935   69.9343 C   0  0  0  0  0  0  0  0  0  0  0  0
   -9.4221   25.7028   68.9938 C   0  0  2  0  0  0  0  0  0  0  0  0
   -8.3506   22.7484   71.1843 N   0  0  0  0  0  0  0  0  0  0  0  0
  -10.7502   26.2372   68.6735 N   0  0  0  0  0  0  0  0  0  0  0  0
   -6.6010   24.3027   66.8529 O   0  0  0  0  0  0  0  0  0  0  0  0
   -6.1483   22.9569   69.3173 O   0  0  0  0  0  0  0  0  0  0  0  0
  1  2  1  0  0  0  0
  1 12  1  6  0  0  0
  1 13  1  0  0  0  0
  2  3  1  0  0  0  0
  2 10  1  6  0  0  0
  4  3  1  6  0  0  0
  4  5  1  0  0  0  0
  4 14  1  0  0  0  0
  5  6  1  0  0  0  0
  5 13  1  1  0  0  0
  6  7  1  0  0  0  0
  6 15  1  6  0  0  0
  7  8  1  0  0  0  0
  7 11  1  1  0  0  0
  8 14  1  0  0  0  0
  8 16  1  6  0  0  0
  9 11  1  0  0  0  0
 17 16  1  1  0  0  0
 17 18  1  0  0  0  0
 17 24  1  0  0  0  0
 18 19  1  0  0  0  0
 18 25  1  1  0  0  0
 19 20  1  0  0  0  0
 19 26  1  6  0  0  0
 20 21  1  0  0  0  0
 20 23  1  1  0  0  0
 21 22  1  6  0  0  0
 21 24  1  0  0  0  0
 22 27  1  0  0  0  0
 28 12  1  6  0  0  0
 28 29  1  0  0  0  0
 28 33  1  0  0  0  0
 29 30  1  0  0  0  0
 29 36  1  6  0  0  0
 30 31  1  0  0  0  0
 30 37  1  1  0  0  0
 31 32  1  0  0  0  0
 31 34  1  1  0  0  0
 32 33  1  0  0  0  0
 33 35  1  6  0  0  0
M  END
>  <CHROM.1>
178.13627553,77.59429011,178.66753279,-73.97354843,179.82597400,-178.82273005
-4.37137562,27.18040586,66.51541408,2.55754034,-0.17003032,2.53555514

>  <Name>
ligand

>  <RI>
0

>  <Rbt.Current_Directory>
/home/itssahil/PROJECTS/Mol_Feturizer/Test_systems_manuscript/rnas/2g5k

>  <Rbt.Executable>
rbdock ($Id: //depot/dev/client3/rdock/2013.1/src/exe/rbdock.cxx#4 $)

>  <Rbt.Library>
libRbt.so (2013.1, Build901 2013/11/27)

>  <Rbt.Parameter_File>
/export/apps/rDock/src/rDock_2013.1_src/data/scripts/dock_solv.prm

>  <Rbt.Receptor>
prm/pocket_docking_8.prm

>  <SCORE>
-12.3652

>  <SCORE.INTER>
-6.64171

>  <SCORE.INTER.CONST>
1

>  <SCORE.INTER.POLAR>
0

>  <SCORE.INTER.ROT>
6

>  <SCORE.INTER.SOLV>
13.4407

>  <SCORE.INTER.VDW>
-16.508

>  <SCORE.INTER.norm>
-0.179506

>  <SCORE.INTRA>
-5.72344

>  <SCORE.INTRA.DIHEDRAL>
-10.1695

>  <SCORE.INTRA.DIHEDRAL.0>
11.3972

>  <SCORE.INTRA.POLAR>
0

>  <SCORE.INTRA.POLAR.0>
0

>  <SCORE.INTRA.REPUL>
0

>  <SCORE.INTRA.REPUL.0>
0

>  <SCORE.INTRA.SOLV>
-1.02298

>  <SCORE.INTRA.SOLV.lig_0>
-92.3891

>  <SCORE.INTRA.VDW>
-0.127186

>  <SCORE.INTRA.VDW.0>
-2.90606

>  <SCORE.INTRA.norm>
-0.154688

>  <SCORE.RESTR>
0

>  <SCORE.RESTR.CAVITY>
0

>  <SCORE.RESTR.norm>
0

>  <SCORE.SYSTEM>
0

>  <SCORE.SYSTEM.CONST>
0

>  <SCORE.SYSTEM.DIHEDRAL>
0

>  <SCORE.SYSTEM.SOLV>
0

>  <SCORE.SYSTEM.norm>
0

>  <SCORE.heavy>
37

>  <SCORE.norm>
-0.334193

>  <RMSD>
8.929

$$$$
ligand
 OpenBabel02271912133D
libRbt.so/2013.1/901 2013/11/27
 37 40  0  0  0  0  0  0  0  0999 V2000
  -11.0794   22.1459   65.6243 C   0  0  1  0  0  0  0  0  0  0  0  0
  -10.5645   23.0552   64.4726 C   0  0  1  0  0  0  0  0  0  0  0  0
   -9.1348   23.5654   64.7356 C   0  0  0  0  0  0  0  0  0  0  0  0
   -9.1119   24.3247   66.0987 C   0  0  1  0  0  0  0  0  0  0  0  0
   -9.5812   23.3883   67.2591 C   0  0  1  0  0  0  0  0  0  0  0  0
   -9.5518   24.1846   68.6410 C   0  0  1  0  0  0  0  0  0  0  0  0
   -8.1020   24.6876   68.9036 C   0  0  1  0  0  0  0  0  0  0  0  0
   -7.6749   25.5849   67.7031 C   0  0  2  0  0  0  0  0  0  0  0  0
   -9.2693   25.5603   71.0451 C   0  0  0  0  0  0  0  0  0  0  0  0
  -10.6288   22.3434   63.1786 N   0  0  0  0  0  0  0  0  0  0  0  0
   -8.0369   25.4610   70.1999 N   0  0  0  0  0  0  0  0  0  0  0  0
  -10.3805   20.8875   65.6897 O   0  0  0  0  0  0  0  0  0  0  0  0
  -10.9429   22.8879   66.9050 O   0  0  0  0  0  0  0  0  0  0  0  0
   -7.7487   24.8549   66.4308 O   0  0  0  0  0  0  0  0  0  0  0  0
  -10.4084   25.3165   68.5608 O   0  0  0  0  0  0  0  0  0  0  0  0
   -6.3443   26.0525   67.8925 O   0  0  0  0  0  0  0  0  0  0  0  0
   -6.1458   27.4352   67.5080 C   0  0  2  0  0  0  0  0  0  0  0  0
   -7.3623   28.0320   66.7615 C   0  0  1  0  0  0  0  0  0  0  0  0
   -7.5598   27.3384   65.3751 C   0  0  2  0  0  0  0  0  0  0  0  0
   -6.3149   27.5491   64.5374 C   0  0  1  0  0  0  0  0  0  0  0  0
   -5.0960   26.9220   65.2781 C   0  0  1  0  0  0  0  0  0  0  0  0
   -3.7919   27.1125   64.5059 C   0  0  0  0  0  0  0  0  0  0  0  0
   -6.5032   26.9126   63.2114 N   0  0  0  0  0  0  0  0  0  0  0  0
   -4.9487   27.5578   66.6236 O   0  0  0  0  0  0  0  0  0  0  0  0
   -8.5134   27.8810   67.6219 O   0  0  0  0  0  0  0  0  0  0  0  0
   -8.6782   27.9161   64.6979 O   0  0  0  0  0  0  0  0  0  0  0  0
   -4.0290   26.9061   63.1345 O   0  0  0  0  0  0  0  0  0  0  0  0
   -9.4219   20.5286   66.8043 C   0  0  1  0  0  0  0  0  0  0  0  0
   -8.3303   21.6308   66.8838 C   0  0  1  0  0  0  0  0  0  0  0  0
   -7.3183   21.2981   68.0182 C   0  0  2  0  0  0  0  0  0  0  0  0
   -8.0739   21.2257   69.3680 C   0  0  1  0  0  0  0  0  0  0  0  0
   -9.1798   20.1113   69.3189 C   0  0  0  0  0  0  0  0  0  0  0  0
  -10.1610   20.4538   68.1776 C   0  0  2  0  0  0  0  0  0  0  0  0
   -7.1178   20.9160   70.4581 N   0  0  0  0  0  0  0  0  0  0  0  0
  -11.1892   19.4083   68.1376 N   0  0  0  0  0  0  0  0  0  0  0  0
   -7.6257   21.7014   65.6245 O   0  0  0  0  0  0  0  0  0  0  0  0
   -6.3118   22.3338   68.0665 O   0  0  0  0  0  0  0  0  0  0  0  0
  1  2  1  0  0  0  0
  1 12  1  1  0  0  0
  1 13  1  0  0  0  0
  2  3  1  0  0  0  0
  2 10  1  6  0  0  0
  4  3  1  6  0  0  0
  4  5  1  0  0  0  0
  4 14  1  0  0  0  0
  5  6  1  0  0  0  0
  5 13  1  6  0  0  0
  6  7  1  0  0  0  0
  6 15  1  6  0  0  0
  7  8  1  0  0  0  0
  7 11  1  1  0  0  0
  8 14  1  0  0  0  0
  8 16  1  1  0  0  0
  9 11  1  0  0  0  0
 17 16  1  6  0  0  0
 17 18  1  0  0  0  0
 17 24  1  0  0  0  0
 18 19  1  0  0  0  0
 18 25  1  1  0  0  0
 19 20  1  0  0  0  0
 19 26  1  6  0  0  0
 20 21  1  0  0  0  0
 20 23  1  6  0  0  0
 21 22  1  6  0  0  0
 21 24  1  0  0  0  0
 22 27  1  0  0  0  0
 28 12  1  6  0  0  0
 28 29  1  0  0  0  0
 28 33  1  0  0  0  0
 29 30  1  0  0  0  0
 29 36  1  6  0  0  0
 30 31  1  0  0  0  0
 30 37  1  1  0  0  0
 31 32  1  0  0  0  0
 31 34  1  1  0  0  0
 32 33  1  0  0  0  0
 33 35  1  6  0  0  0
M  END
>  <CHROM.1>
110.00249122,3.60508851,-139.44118878,-55.58572678,-9.41765685,-40.87101178
-8.15075543,24.23830756,66.84081901,2.73407909,1.02179279,1.67463128

>  <Name>
ligand

>  <RI>
0

>  <Rbt.Current_Directory>
/home/itssahil/PROJECTS/Mol_Feturizer/Test_systems_manuscript/rnas/2g5k

>  <Rbt.Executable>
rbdock ($Id: //depot/dev/client3/rdock/2013.1/src/exe/rbdock.cxx#4 $)

>  <Rbt.Library>
libRbt.so (2013.1, Build901 2013/11/27)

>  <Rbt.Parameter_File>
/export/apps/rDock/src/rDock_2013.1_src/data/scripts/dock_solv.prm

>  <Rbt.Receptor>
prm/blind_docking_100.prm

>  <SCORE>
57.7488

>  <SCORE.INTER>
8.05027

>  <SCORE.INTER.CONST>
1

>  <SCORE.INTER.POLAR>
0

>  <SCORE.INTER.ROT>
6

>  <SCORE.INTER.SOLV>
27.0579

>  <SCORE.INTER.VDW>
-11.2524

>  <SCORE.INTER.norm>
0.217575

>  <SCORE.INTRA>
34.7477

>  <SCORE.INTRA.DIHEDRAL>
10.0715

>  <SCORE.INTRA.DIHEDRAL.0>
11.3972

>  <SCORE.INTRA.POLAR>
0

>  <SCORE.INTRA.POLAR.0>
0

>  <SCORE.INTRA.REPUL>
0.0991688

>  <SCORE.INTRA.REPUL.0>
0

>  <SCORE.INTRA.SOLV>
6.31824

>  <SCORE.INTRA.SOLV.lig_0>
-92.3891

>  <SCORE.INTRA.VDW>
26.057

>  <SCORE.INTRA.VDW.0>
-2.90606

>  <SCORE.INTRA.norm>
0.939127

>  <SCORE.RESTR>
14.9508

>  <SCORE.RESTR.CAVITY>
14.9508

>  <SCORE.RESTR.norm>
0.404076

>  <SCORE.SYSTEM>
0

>  <SCORE.SYSTEM.CONST>
0

>  <SCORE.SYSTEM.DIHEDRAL>
0

>  <SCORE.SYSTEM.SOLV>
0

>  <SCORE.SYSTEM.norm>
0

>  <SCORE.heavy>
37

>  <SCORE.norm>
1.56078

>  <RMSD>
8.931

$$$$
ligand
 OpenBabel02271912133D
libRbt.so/2013.1/901 2013/11/27
 37 40  0  0  0  0  0  0  0  0999 V2000
   -5.8550   27.2326   65.5448 C   0  0  1  0  0  0  0  0  0  0  0  0
   -4.5458   26.7754   66.2486 C   0  0  1  0  0  0  0  0  0  0  0  0
   -4.7031   25.3986   66.9216 C   0  0  0  0  0  0  0  0  0  0  0  0
   -5.8878   25.4639   67.9352 C   0  0  1  0  0  0  0  0  0  0  0  0
   -7.2110   25.8736   67.2106 C   0  0  1  0  0  0  0  0  0  0  0  0
   -8.4068   25.9360   68.2647 C   0  0  1  0  0  0  0  0  0  0  0  0
   -8.5652   24.5385   68.9324 C   0  0  1  0  0  0  0  0  0  0  0  0
   -7.2105   24.1669   69.6072 C   0  0  2  0  0  0  0  0  0  0  0  0
   -9.6045   25.5352   71.0857 C   0  0  0  0  0  0  0  0  0  0  0  0
   -3.4193   26.7565   65.2915 N   0  0  0  0  0  0  0  0  0  0  0  0
   -9.6817   24.5619   69.9500 N   0  0  0  0  0  0  0  0  0  0  0  0
   -6.1701   26.4317   64.3892 O   0  0  0  0  0  0  0  0  0  0  0  0
   -6.9625   27.1819   66.5348 O   0  0  0  0  0  0  0  0  0  0  0  0
   -6.1088   24.1563   68.6359 O   0  0  0  0  0  0  0  0  0  0  0  0
   -8.1022   26.8831   69.2803 O   0  0  0  0  0  0  0  0  0  0  0  0
   -7.3040   22.8839   70.2155 O   0  0  0  0  0  0  0  0  0  0  0  0
   -8.5784   22.2261   70.0094 C   0  0  2  0  0  0  0  0  0  0  0  0
   -8.6514   20.8337   70.6796 C   0  0  1  0  0  0  0  0  0  0  0  0
   -7.6608   19.8353   69.9983 C   0  0  2  0  0  0  0  0  0  0  0  0
   -8.0286   19.6984   68.5347 C   0  0  1  0  0  0  0  0  0  0  0  0
   -7.9266   21.0971   67.8557 C   0  0  1  0  0  0  0  0  0  0  0  0
   -8.3052   21.0487   66.3767 C   0  0  0  0  0  0  0  0  0  0  0  0
   -7.1066   18.7353   67.8859 N   0  0  0  0  0  0  0  0  0  0  0  0
   -8.8408   22.0562   68.5491 O   0  0  0  0  0  0  0  0  0  0  0  0
   -8.3701   21.0158   72.0852 O   0  0  0  0  0  0  0  0  0  0  0  0
   -7.7571   18.5533   70.6229 O   0  0  0  0  0  0  0  0  0  0  0  0
   -7.6455   22.0867   65.6934 O   0  0  0  0  0  0  0  0  0  0  0  0
   -7.5842   26.0613   63.9978 C   0  0  1  0  0  0  0  0  0  0  0  0
   -7.8965   24.6519   64.5713 C   0  0  1  0  0  0  0  0  0  0  0  0
   -9.3442   24.2290   64.1877 C   0  0  2  0  0  0  0  0  0  0  0  0
  -10.3453   25.2550   64.7737 C   0  0  1  0  0  0  0  0  0  0  0  0
  -10.0578   26.6900   64.2031 C   0  0  0  0  0  0  0  0  0  0  0  0
   -8.6131   27.0802   64.5816 C   0  0  2  0  0  0  0  0  0  0  0  0
  -11.7295   24.8582   64.4203 N   0  0  0  0  0  0  0  0  0  0  0  0
   -8.3522   28.4201   64.0443 N   0  0  0  0  0  0  0  0  0  0  0  0
   -6.9621   23.6936   64.0273 O   0  0  0  0  0  0  0  0  0  0  0  0
   -9.6065   22.9144   64.7269 O   0  0  0  0  0  0  0  0  0  0  0  0
  1  2  1  0  0  0  0
  1 12  1  6  0  0  0
  1 13  1  0  0  0  0
  2  3  1  0  0  0  0
  2 10  1  6  0  0  0
  4  3  1  6  0  0  0
  4  5  1  0  0  0  0
  4 14  1  0  0  0  0
  5  6  1  0  0  0  0
  5 13  1  1  0  0  0
  6  7  1  0  0  0  0
  6 15  1  1  0  0  0
  7  8  1  0  0  0  0
  7 11  1  1  0  0  0
  8 14  1  0  0  0  0
  8 16  1  6  0  0  0
  9 11  1  0  0  0  0
 17 16  1  6  0  0  0
 17 18  1  0  0  0  0
 17 24  1  0  0  0  0
 18 19  1  0  0  0  0
 18 25  1  1  0  0  0
 19 20  1  0  0  0  0
 19 26  1  1  0  0  0
 20 21  1  0  0  0  0
 20 23  1  6  0  0  0
 21 22  1  6  0  0  0
 21 24  1  0  0  0  0
 22 27  1  0  0  0  0
 28 12  1  1  0  0  0
 28 29  1  0  0  0  0
 28 33  1  0  0  0  0
 29 30  1  0  0  0  0
 29 36  1  6  0  0  0
 30 31  1  0  0  0  0
 30 37  1  1  0  0  0
 31 32  1  0  0  0  0
 31 34  1  6  0  0  0
 32 33  1  0  0  0  0
 33 35  1  6  0  0  0
M  END
>  <CHROM.1>
143.57108243,-58.18653483,2.77828371,-95.77514882,179.92977667,-153.15830601
-7.80996028,24.04935665,67.26692444,-1.37446844,1.11121947,2.24776332

>  <Name>
ligand

>  <RI>
0

>  <Rbt.Current_Directory>
/home/itssahil/PROJECTS/Mol_Feturizer/Test_systems_manuscript/rnas/2g5k

>  <Rbt.Executable>
rbdock ($Id: //depot/dev/client3/rdock/2013.1/src/exe/rbdock.cxx#4 $)

>  <Rbt.Library>
libRbt.so (2013.1, Build901 2013/11/27)

>  <Rbt.Parameter_File>
/export/apps/rDock/src/rDock_2013.1_src/data/scripts/dock_solv.prm

>  <Rbt.Receptor>
prm/blind_docking_100.prm

>  <SCORE>
40.0417

>  <SCORE.INTER>
5.86841

>  <SCORE.INTER.CONST>
1

>  <SCORE.INTER.POLAR>
0

>  <SCORE.INTER.ROT>
6

>  <SCORE.INTER.SOLV>
26.3415

>  <SCORE.INTER.VDW>
-12.4682

>  <SCORE.INTER.norm>
0.158606

>  <SCORE.INTRA>
18.5935

>  <SCORE.INTRA.DIHEDRAL>
7.42035

>  <SCORE.INTRA.DIHEDRAL.0>
11.3972

>  <SCORE.INTRA.POLAR>
0

>  <SCORE.INTRA.POLAR.0>
0

>  <SCORE.INTRA.REPUL>
0.00938815

>  <SCORE.INTRA.REPUL.0>
0

>  <SCORE.INTRA.SOLV>
4.02108

>  <SCORE.INTRA.SOLV.lig_0>
-92.3891

>  <SCORE.INTRA.VDW>
12.8259

>  <SCORE.INTRA.VDW.0>
-2.90606

>  <SCORE.INTRA.norm>
0.502528

>  <SCORE.RESTR>
15.5798

>  <SCORE.RESTR.CAVITY>
15.5798

>  <SCORE.RESTR.norm>
0.421074

>  <SCORE.SYSTEM>
0

>  <SCORE.SYSTEM.CONST>
0

>  <SCORE.SYSTEM.DIHEDRAL>
0

>  <SCORE.SYSTEM.SOLV>
0

>  <SCORE.SYSTEM.norm>
0

>  <SCORE.heavy>
37

>  <SCORE.norm>
1.08221

>  <RMSD>
9.026

$$$$
ligand
 OpenBabel02271912133D
libRbt.so/2013.1/901 2013/11/27
 37 40  0  0  0  0  0  0  0  0999 V2000
  -10.4870   21.0351   66.7859 C   0  0  1  0  0  0  0  0  0  0  0  0
   -9.1332   20.4217   66.3281 C   0  0  1  0  0  0  0  0  0  0  0  0
   -8.0162   21.4799   66.2534 C   0  0  0  0  0  0  0  0  0  0  0  0
   -8.4655   22.6220   65.2895 C   0  0  1  0  0  0  0  0  0  0  0  0
   -9.7998   23.2683   65.7851 C   0  0  1  0  0  0  0  0  0  0  0  0
  -10.2410   24.4303   64.7852 C   0  0  1  0  0  0  0  0  0  0  0  0
   -9.1112   25.4997   64.7236 C   0  0  1  0  0  0  0  0  0  0  0  0
   -7.8011   24.7953   64.2588 C   0  0  2  0  0  0  0  0  0  0  0  0
   -9.2325   28.0302   64.1827 C   0  0  0  0  0  0  0  0  0  0  0  0
   -8.7353   19.3131   67.2214 N   0  0  0  0  0  0  0  0  0  0  0  0
   -9.4872   26.6123   63.7730 N   0  0  0  0  0  0  0  0  0  0  0  0
  -10.4634   21.4613   68.1622 O   0  0  0  0  0  0  0  0  0  0  0  0
  -10.8123   22.1756   65.8900 O   0  0  0  0  0  0  0  0  0  0  0  0
   -7.4288   23.6983   65.1617 O   0  0  0  0  0  0  0  0  0  0  0  0
  -10.4214   23.8970   63.4797 O   0  0  0  0  0  0  0  0  0  0  0  0
   -6.7337   25.7349   64.2068 O   0  0  0  0  0  0  0  0  0  0  0  0
   -6.7973   26.7554   65.2333 C   0  0  2  0  0  0  0  0  0  0  0  0
   -5.4461   27.4780   65.4470 C   0  0  1  0  0  0  0  0  0  0  0  0
   -4.3779   26.4991   66.0328 C   0  0  2  0  0  0  0  0  0  0  0  0
   -4.8715   25.9717   67.3648 C   0  0  1  0  0  0  0  0  0  0  0  0
   -6.2180   25.2199   67.1424 C   0  0  1  0  0  0  0  0  0  0  0  0
   -6.7959   24.6745   68.4469 C   0  0  0  0  0  0  0  0  0  0  0  0
   -3.8531   25.0590   67.9381 N   0  0  0  0  0  0  0  0  0  0  0  0
   -7.2158   26.1530   66.5342 O   0  0  0  0  0  0  0  0  0  0  0  0
   -5.0464   28.0314   64.1734 O   0  0  0  0  0  0  0  0  0  0  0  0
   -3.1443   27.1918   66.2362 O   0  0  0  0  0  0  0  0  0  0  0  0
   -7.6003   25.6602   69.0475 O   0  0  0  0  0  0  0  0  0  0  0  0
   -9.2958   22.1978   68.7821 C   0  0  1  0  0  0  0  0  0  0  0  0
   -9.8531   23.2176   69.8127 C   0  0  1  0  0  0  0  0  0  0  0  0
   -8.6824   24.0018   70.4733 C   0  0  2  0  0  0  0  0  0  0  0  0
   -7.7452   23.0025   71.1953 C   0  0  1  0  0  0  0  0  0  0  0  0
   -7.1593   21.9631   70.1737 C   0  0  0  0  0  0  0  0  0  0  0  0
   -8.3379   21.2103   69.5205 C   0  0  2  0  0  0  0  0  0  0  0  0
   -6.6290   23.7396   71.8350 N   0  0  0  0  0  0  0  0  0  0  0  0
   -7.7828   20.2431   68.5674 N   0  0  0  0  0  0  0  0  0  0  0  0
  -10.7296   24.1494   69.1413 O   0  0  0  0  0  0  0  0  0  0  0  0
   -9.2275   24.9463   71.4213 O   0  0  0  0  0  0  0  0  0  0  0  0
  1  2  1  0  0  0  0
  1 12  1  1  0  0  0
  1 13  1  0  0  0  0
  2  3  1  0  0  0  0
  2 10  1  1  0  0  0
  4  3  1  1  0  0  0
  4  5  1  0  0  0  0
  4 14  1  0  0  0  0
  5  6  1  0  0  0  0
  5 13  1  6  0  0  0
  6  7  1  0  0  0  0
  6 15  1  6  0  0  0
  7  8  1  0  0  0  0
  7 11  1  6  0  0  0
  8 14  1  0  0  0  0
  8 16  1  1  0  0  0
  9 11  1  0  0  0  0
 17 16  1  6  0  0  0
 17 18  1  0  0  0  0
 17 24  1  0  0  0  0
 18 19  1  0  0  0  0
 18 25  1  6  0  0  0
 19 20  1  0  0  0  0
 19 26  1  1  0  0  0
 20 21  1  0  0  0  0
 20 23  1  6  0  0  0
 21 22  1  1  0  0  0
 21 24  1  0  0  0  0
 22 27  1  0  0  0  0
 28 12  1  1  0  0  0
 28 29  1  0  0  0  0
 28 33  1  0  0  0  0
 29 30  1  0  0  0  0
 29 36  1  6  0  0  0
 30 31  1  0  0  0  0
 30 37  1  1  0  0  0
 31 32  1  0  0  0  0
 31 34  1  6  0  0  0
 32 33  1  0  0  0  0
 33 35  1  6  0  0  0
M  END
>  <CHROM.1>
42.53886828,136.37622270,34.66826298,144.90451189,161.96946987,88.05565542
-7.92887069,24.14559806,67.02945829,2.19261685,0.73435787,2.04208012

>  <Name>
ligand

>  <RI>
0

>  <Rbt.Current_Directory>
/home/itssahil/PROJECTS/Mol_Feturizer/Test_systems_manuscript/rnas/2g5k

>  <Rbt.Executable>
rbdock ($Id: //depot/dev/client3/rdock/2013.1/src/exe/rbdock.cxx#4 $)

>  <Rbt.Library>
libRbt.so (2013.1, Build901 2013/11/27)

>  <Rbt.Parameter_File>
/export/apps/rDock/src/rDock_2013.1_src/data/scripts/dock_solv.prm

>  <Rbt.Receptor>
prm/blind_docking_100.prm

>  <SCORE>
76.1985

>  <SCORE.INTER>
33.7701

>  <SCORE.INTER.CONST>
1

>  <SCORE.INTER.POLAR>
0

>  <SCORE.INTER.ROT>
6

>  <SCORE.INTER.SOLV>
28.4113

>  <SCORE.INTER.VDW>
5.44298

>  <SCORE.INTER.norm>
0.912707

>  <SCORE.INTRA>
28.0775

>  <SCORE.INTRA.DIHEDRAL>
2.15534

>  <SCORE.INTRA.DIHEDRAL.0>
11.3972

>  <SCORE.INTRA.POLAR>
0

>  <SCORE.INTRA.POLAR.0>
0

>  <SCORE.INTRA.REPUL>
0

>  <SCORE.INTRA.REPUL.0>
0

>  <SCORE.INTRA.SOLV>
10.9489

>  <SCORE.INTRA.SOLV.lig_0>
-92.3891

>  <SCORE.INTRA.VDW>
21.5254

>  <SCORE.INTRA.VDW.0>
-2.90606

>  <SCORE.INTRA.norm>
0.758852

>  <SCORE.RESTR>
14.3508

>  <SCORE.RESTR.CAVITY>
14.3508

>  <SCORE.RESTR.norm>
0.387861

>  <SCORE.SYSTEM>
0

>  <SCORE.SYSTEM.CONST>
0

>  <SCORE.SYSTEM.DIHEDRAL>
0

>  <SCORE.SYSTEM.SOLV>
0

>  <SCORE.SYSTEM.norm>
0

>  <SCORE.heavy>
37

>  <SCORE.norm>
2.05942

>  <RMSD>
9.089

$$$$
ligand
 OpenBabel02271912133D
libRbt.so/2013.1/901 2013/11/27
 37 40  0  0  0  0  0  0  0  0999 V2000
   -7.9826   27.7702   66.0289 C   0  0  1  0  0  0  0  0  0  0  0  0
   -7.8265   26.3622   66.6705 C   0  0  1  0  0  0  0  0  0  0  0  0
   -6.4881   26.2144   67.4190 C   0  0  0  0  0  0  0  0  0  0  0  0
   -5.3195   26.5083   66.4274 C   0  0  1  0  0  0  0  0  0  0  0  0
   -5.4549   27.9450   65.8263 C   0  0  1  0  0  0  0  0  0  0  0  0
   -4.2526   28.2229   64.8155 C   0  0  1  0  0  0  0  0  0  0  0  0
   -2.9050   28.0814   65.5821 C   0  0  1  0  0  0  0  0  0  0  0  0
   -2.8395   26.6468   66.1874 C   0  0  2  0  0  0  0  0  0  0  0  0
   -1.5273   29.7009   64.1024 C   0  0  0  0  0  0  0  0  0  0  0  0
   -8.9590   26.0741   67.5760 N   0  0  0  0  0  0  0  0  0  0  0  0
   -1.7392   28.3240   64.6521 N   0  0  0  0  0  0  0  0  0  0  0  0
   -8.1378   28.8118   67.0125 O   0  0  0  0  0  0  0  0  0  0  0  0
   -6.7953   28.0305   65.1735 O   0  0  0  0  0  0  0  0  0  0  0  0
   -3.9752   26.3860   67.0814 O   0  0  0  0  0  0  0  0  0  0  0  0
   -4.2732   27.2605   63.7692 O   0  0  0  0  0  0  0  0  0  0  0  0
   -1.6286   26.4793   66.9158 O   0  0  0  0  0  0  0  0  0  0  0  0
   -0.9049   25.2686   66.5845 C   0  0  2  0  0  0  0  0  0  0  0  0
    0.2295   24.9528   67.5878 C   0  0  1  0  0  0  0  0  0  0  0  0
    1.3571   26.0322   67.5111 C   0  0  2  0  0  0  0  0  0  0  0  0
    1.9293   26.0475   66.1081 C   0  0  1  0  0  0  0  0  0  0  0  0
    0.7908   26.3939   65.1024 C   0  0  1  0  0  0  0  0  0  0  0  0
    1.2833   26.4074   63.6566 C   0  0  0  0  0  0  0  0  0  0  0  0
    3.0155   27.0542   66.0330 N   0  0  0  0  0  0  0  0  0  0  0  0
   -0.3049   25.3832   65.2217 O   0  0  0  0  0  0  0  0  0  0  0  0
   -0.3665   24.8713   68.9017 O   0  0  0  0  0  0  0  0  0  0  0  0
    2.4001   25.7115   68.4343 O   0  0  0  0  0  0  0  0  0  0  0  0
    0.2223   26.7705   62.8070 O   0  0  0  0  0  0  0  0  0  0  0  0
   -7.8461   30.2694   66.7294 C   0  0  1  0  0  0  0  0  0  0  0  0
   -6.3153   30.4964   66.8639 C   0  0  1  0  0  0  0  0  0  0  0  0
   -5.9709   31.9879   66.5838 C   0  0  2  0  0  0  0  0  0  0  0  0
   -6.4193   32.3516   65.1468 C   0  0  1  0  0  0  0  0  0  0  0  0
   -7.9672   32.1395   64.9846 C   0  0  0  0  0  0  0  0  0  0  0  0
   -8.2862   30.6591   65.2829 C   0  0  2  0  0  0  0  0  0  0  0  0
   -6.0895   33.7696   64.8659 N   0  0  0  0  0  0  0  0  0  0  0  0
   -9.7329   30.4697   65.1306 N   0  0  0  0  0  0  0  0  0  0  0  0
   -5.8947   30.1555   68.2034 O   0  0  0  0  0  0  0  0  0  0  0  0
   -4.5444   32.1730   66.7215 O   0  0  0  0  0  0  0  0  0  0  0  0
  1  2  1  0  0  0  0
  1 12  1  1  0  0  0
  1 13  1  0  0  0  0
  2  3  1  0  0  0  0
  2 10  1  1  0  0  0
  4  3  1  1  0  0  0
  4  5  1  0  0  0  0
  4 14  1  0  0  0  0
  5  6  1  0  0  0  0
  5 13  1  6  0  0  0
  6  7  1  0  0  0  0
  6 15  1  6  0  0  0
  7  8  1  0  0  0  0
  7 11  1  6  0  0  0
  8 14  1  0  0  0  0
  8 16  1  1  0  0  0
  9 11  1  0  0  0  0
 17 16  1  1  0  0  0
 17 18  1  0  0  0  0
 17 24  1  0  0  0  0
 18 19  1  0  0  0  0
 18 25  1  1  0  0  0
 19 20  1  0  0  0  0
 19 26  1  1  0  0  0
 20 21  1  0  0  0  0
 20 23  1  1  0  0  0
 21 22  1  6  0  0  0
 21 24  1  0  0  0  0
 22 27  1  0  0  0  0
 28 12  1  6  0  0  0
 28 29  1  0  0  0  0
 28 33  1  0  0  0  0
 29 30  1  0  0  0  0
 29 36  1  1  0  0  0
 30 31  1  0  0  0  0
 30 37  1  6  0  0  0
 31 32  1  0  0  0  0
 31 34  1  1  0  0  0
 32 33  1  0  0  0  0
 33 35  1  1  0  0  0
M  END
>  <CHROM.1>
158.69468043,67.72971219,-130.90502512,-81.77287313,-167.54803849,-177.98965792
-3.72800536,28.03900578,66.05203488,2.71816939,0.17736538,-0.41105491

>  <Name>
ligand

>  <RI>
0

>  <Rbt.Current_Directory>
/home/itssahil/PROJECTS/Mol_Feturizer/Test_systems_manuscript/rnas/2g5k

>  <Rbt.Executable>
rbdock ($Id: //depot/dev/client3/rdock/2013.1/src/exe/rbdock.cxx#4 $)

>  <Rbt.Library>
libRbt.so (2013.1, Build901 2013/11/27)

>  <Rbt.Parameter_File>
/export/apps/rDock/src/rDock_2013.1_src/data/scripts/dock_solv.prm

>  <Rbt.Receptor>
prm/pocket_docking_3.prm

>  <SCORE>
-1.49084

>  <SCORE.INTER>
-1.34379

>  <SCORE.INTER.CONST>
1

>  <SCORE.INTER.POLAR>
0

>  <SCORE.INTER.ROT>
6

>  <SCORE.INTER.SOLV>
11.4472

>  <SCORE.INTER.VDW>
-12.3116

>  <SCORE.INTER.norm>
-0.0363186

>  <SCORE.INTRA>
-0.429888

>  <SCORE.INTRA.DIHEDRAL>
0.138535

>  <SCORE.INTRA.DIHEDRAL.0>
11.3972

>  <SCORE.INTRA.POLAR>
0

>  <SCORE.INTRA.POLAR.0>
0

>  <SCORE.INTRA.REPUL>
0

>  <SCORE.INTRA.REPUL.0>
0

>  <SCORE.INTRA.SOLV>
1.22447

>  <SCORE.INTRA.SOLV.lig_0>
-92.3891

>  <SCORE.INTRA.VDW>
-1.11139

>  <SCORE.INTRA.VDW.0>
-2.90606

>  <SCORE.INTRA.norm>
-0.0116186

>  <SCORE.RESTR>
0.282838

>  <SCORE.RESTR.CAVITY>
0.282838

>  <SCORE.RESTR.norm>
0.00764427

>  <SCORE.SYSTEM>
0

>  <SCORE.SYSTEM.CONST>
0

>  <SCORE.SYSTEM.DIHEDRAL>
0

>  <SCORE.SYSTEM.SOLV>
0

>  <SCORE.SYSTEM.norm>
0

>  <SCORE.heavy>
37

>  <SCORE.norm>
-0.0402929

>  <RMSD>
9.122

$$$$
ligand
 OpenBabel02271912133D
libRbt.so/2013.1/901 2013/11/27
 37 40  0  0  0  0  0  0  0  0999 V2000
   -7.4683   29.4167   65.5268 C   0  0  1  0  0  0  0  0  0  0  0  0
   -6.8728   30.8430   65.3551 C   0  0  1  0  0  0  0  0  0  0  0  0
   -5.4243   30.8042   64.8317 C   0  0  0  0  0  0  0  0  0  0  0  0
   -4.5566   29.9512   65.8087 C   0  0  1  0  0  0  0  0  0  0  0  0
   -5.1319   28.5032   65.9355 C   0  0  1  0  0  0  0  0  0  0  0  0
   -4.2317   27.6506   66.9392 C   0  0  1  0  0  0  0  0  0  0  0  0
   -2.7727   27.6082   66.3976 C   0  0  1  0  0  0  0  0  0  0  0  0
   -2.2639   29.0747   66.2588 C   0  0  2  0  0  0  0  0  0  0  0  0
   -2.1464   25.3563   67.5144 C   0  0  0  0  0  0  0  0  0  0  0  0
   -7.7229   31.6583   64.4618 N   0  0  0  0  0  0  0  0  0  0  0  0
   -1.8844   26.8195   67.3313 N   0  0  0  0  0  0  0  0  0  0  0  0
   -7.6830   28.7519   64.2665 O   0  0  0  0  0  0  0  0  0  0  0  0
   -6.5502   28.6250   66.3867 O   0  0  0  0  0  0  0  0  0  0  0  0
   -3.1257   29.8627   65.3679 O   0  0  0  0  0  0  0  0  0  0  0  0
   -4.2148   28.2744   68.2166 O   0  0  0  0  0  0  0  0  0  0  0  0
   -0.9363   29.0843   65.7467 O   0  0  0  0  0  0  0  0  0  0  0  0
   -0.3658   30.4095   65.6145 C   0  0  2  0  0  0  0  0  0  0  0  0
    1.0054   30.4049   64.8981 C   0  0  1  0  0  0  0  0  0  0  0  0
    2.0833   29.6761   65.7638 C   0  0  2  0  0  0  0  0  0  0  0  0
    2.2212   30.3982   67.0888 C   0  0  1  0  0  0  0  0  0  0  0  0
    0.8460   30.3766   67.8209 C   0  0  1  0  0  0  0  0  0  0  0  0
    0.8952   31.1072   69.1614 C   0  0  0  0  0  0  0  0  0  0  0  0
    3.2586   29.7257   67.9076 N   0  0  0  0  0  0  0  0  0  0  0  0
   -0.1875   31.0309   66.9608 O   0  0  0  0  0  0  0  0  0  0  0  0
    0.8173   29.7779   63.6099 O   0  0  0  0  0  0  0  0  0  0  0  0
    3.3436   29.6982   65.0898 O   0  0  0  0  0  0  0  0  0  0  0  0
    1.7154   30.3906   70.0520 O   0  0  0  0  0  0  0  0  0  0  0  0
   -8.1904   27.3307   64.1547 C   0  0  1  0  0  0  0  0  0  0  0  0
   -7.0546   26.3699   64.6016 C   0  0  1  0  0  0  0  0  0  0  0  0
   -7.5341   24.8930   64.4983 C   0  0  2  0  0  0  0  0  0  0  0  0
   -8.7658   24.6935   65.4155 C   0  0  1  0  0  0  0  0  0  0  0  0
   -9.9348   25.6479   64.9802 C   0  0  0  0  0  0  0  0  0  0  0  0
   -9.4310   27.1039   65.0751 C   0  0  2  0  0  0  0  0  0  0  0  0
   -9.2275   23.2870   65.3306 N   0  0  0  0  0  0  0  0  0  0  0  0
  -10.5275   27.9883   64.6660 N   0  0  0  0  0  0  0  0  0  0  0  0
   -5.9037   26.5562   63.7483 O   0  0  0  0  0  0  0  0  0  0  0  0
   -6.4588   24.0214   64.9128 O   0  0  0  0  0  0  0  0  0  0  0  0
  1  2  1  0  0  0  0
  1 12  1  6  0  0  0
  1 13  1  0  0  0  0
  2  3  1  0  0  0  0
  2 10  1  6  0  0  0
  4  3  1  6  0  0  0
  4  5  1  0  0  0  0
  4 14  1  0  0  0  0
  5  6  1  0  0  0  0
  5 13  1  1  0  0  0
  6  7  1  0  0  0  0
  6 15  1  1  0  0  0
  7  8  1  0  0  0  0
  7 11  1  1  0  0  0
  8 14  1  0  0  0  0
  8 16  1  6  0  0  0
  9 11  1  0  0  0  0
 17 16  1  1  0  0  0
 17 18  1  0  0  0  0
 17 24  1  0  0  0  0
 18 19  1  0  0  0  0
 18 25  1  6  0  0  0
 19 20  1  0  0  0  0
 19 26  1  6  0  0  0
 20 21  1  0  0  0  0
 20 23  1  1  0  0  0
 21 22  1  1  0  0  0
 21 24  1  0  0  0  0
 22 27  1  0  0  0  0
 28 12  1  1  0  0  0
 28 29  1  0  0  0  0
 28 33  1  0  0  0  0
 29 30  1  0  0  0  0
 29 36  1  6  0  0  0
 30 31  1  0  0  0  0
 30 37  1  1  0  0  0
 31 32  1  0  0  0  0
 31 34  1  6  0  0  0
 32 33  1  0  0  0  0
 33 35  1  6  0  0  0
M  END
>  <CHROM.1>
176.95756293,64.82643897,-178.54700781,-71.84438750,-173.00336401,-67.47747808
-3.73577794,28.46784199,65.89095525,2.84193906,0.24167363,3.01213868

>  <Name>
ligand

>  <RI>
0

>  <Rbt.Current_Directory>
/home/itssahil/PROJECTS/Mol_Feturizer/Test_systems_manuscript/rnas/2g5k

>  <Rbt.Executable>
rbdock ($Id: //depot/dev/client3/rdock/2013.1/src/exe/rbdock.cxx#4 $)

>  <Rbt.Library>
libRbt.so (2013.1, Build901 2013/11/27)

>  <Rbt.Parameter_File>
/export/apps/rDock/src/rDock_2013.1_src/data/scripts/dock_solv.prm

>  <Rbt.Receptor>
prm/pocket_docking_6.prm

>  <SCORE>
-10.8116

>  <SCORE.INTER>
-5.90486

>  <SCORE.INTER.CONST>
1

>  <SCORE.INTER.POLAR>
0

>  <SCORE.INTER.ROT>
6

>  <SCORE.INTER.SOLV>
8.88886

>  <SCORE.INTER.VDW>
-14.4995

>  <SCORE.INTER.norm>
-0.159591

>  <SCORE.INTRA>
-4.90677

>  <SCORE.INTRA.DIHEDRAL>
-10.1785

>  <SCORE.INTRA.DIHEDRAL.0>
11.3972

>  <SCORE.INTRA.POLAR>
0

>  <SCORE.INTRA.POLAR.0>
0

>  <SCORE.INTRA.REPUL>
0

>  <SCORE.INTRA.REPUL.0>
0

>  <SCORE.INTRA.SOLV>
0.0480325

>  <SCORE.INTRA.SOLV.lig_0>
-92.3891

>  <SCORE.INTRA.VDW>
0.158437

>  <SCORE.INTRA.VDW.0>
-2.90606

>  <SCORE.INTRA.norm>
-0.132615

>  <SCORE.RESTR>
0

>  <SCORE.RESTR.CAVITY>
0

>  <SCORE.RESTR.norm>
0

>  <SCORE.SYSTEM>
0

>  <SCORE.SYSTEM.CONST>
0

>  <SCORE.SYSTEM.DIHEDRAL>
0

>  <SCORE.SYSTEM.SOLV>
0

>  <SCORE.SYSTEM.norm>
0

>  <SCORE.heavy>
37

>  <SCORE.norm>
-0.292206

>  <RMSD>
9.128

$$$$
ligand
 OpenBabel02271912133D
libRbt.so/2013.1/901 2013/11/27
 37 40  0  0  0  0  0  0  0  0999 V2000
   -8.7209   22.7583   70.8363 C   0  0  1  0  0  0  0  0  0  0  0  0
   -8.9024   24.2788   71.1078 C   0  0  1  0  0  0  0  0  0  0  0  0
   -9.3857   25.0347   69.8554 C   0  0  0  0  0  0  0  0  0  0  0  0
   -8.3702   24.7924   68.6955 C   0  0  1  0  0  0  0  0  0  0  0  0
   -8.2326   23.2647   68.3939 C   0  0  1  0  0  0  0  0  0  0  0  0
   -7.1896   23.0404   67.2079 C   0  0  1  0  0  0  0  0  0  0  0  0
   -7.6907   23.7991   65.9441 C   0  0  1  0  0  0  0  0  0  0  0  0
   -7.8425   25.3060   66.3113 C   0  0  2  0  0  0  0  0  0  0  0  0
   -7.1953   22.9621   63.5432 C   0  0  0  0  0  0  0  0  0  0  0  0
   -9.8331   24.4991   72.2350 N   0  0  0  0  0  0  0  0  0  0  0  0
   -6.7192   23.6218   64.8006 N   0  0  0  0  0  0  0  0  0  0  0  0
   -9.9742   22.0831   70.6134 O   0  0  0  0  0  0  0  0  0  0  0  0
   -7.8222   22.5948   69.6638 O   0  0  0  0  0  0  0  0  0  0  0  0
   -8.7706   25.4971   67.4335 O   0  0  0  0  0  0  0  0  0  0  0  0
   -5.9238   23.5736   67.5749 O   0  0  0  0  0  0  0  0  0  0  0  0
   -8.3186   26.0367   65.1868 O   0  0  0  0  0  0  0  0  0  0  0  0
   -7.8334   27.4004   65.1225 C   0  0  2  0  0  0  0  0  0  0  0  0
   -6.9012   27.6503   63.9134 C   0  0  1  0  0  0  0  0  0  0  0  0
   -5.5712   26.8428   64.0596 C   0  0  2  0  0  0  0  0  0  0  0  0
   -4.8651   27.2823   65.3262 C   0  0  1  0  0  0  0  0  0  0  0  0
   -5.7947   27.0032   66.5451 C   0  0  1  0  0  0  0  0  0  0  0  0
   -5.1619   27.4409   67.8646 C   0  0  0  0  0  0  0  0  0  0  0  0
   -3.5907   26.5362   65.4606 N   0  0  0  0  0  0  0  0  0  0  0  0
   -7.0837   27.7403   66.3686 O   0  0  0  0  0  0  0  0  0  0  0  0
   -7.6350   27.2920   62.7213 O   0  0  0  0  0  0  0  0  0  0  0  0
   -4.7206   27.1013   62.9404 O   0  0  0  0  0  0  0  0  0  0  0  0
   -4.1902   26.4992   68.2496 O   0  0  0  0  0  0  0  0  0  0  0  0
  -10.5057   21.7556   69.2348 C   0  0  1  0  0  0  0  0  0  0  0  0
  -10.8260   23.0889   68.5053 C   0  0  1  0  0  0  0  0  0  0  0  0
  -11.3806   22.7974   67.0807 C   0  0  2  0  0  0  0  0  0  0  0  0
  -10.3178   22.0126   66.2727 C   0  0  1  0  0  0  0  0  0  0  0  0
   -9.9806   20.6534   66.9842 C   0  0  0  0  0  0  0  0  0  0  0  0
   -9.4487   20.9671   68.3988 C   0  0  2  0  0  0  0  0  0  0  0  0
  -10.8327   21.7351   64.9103 N   0  0  0  0  0  0  0  0  0  0  0  0
   -9.1376   19.6934   69.0566 N   0  0  0  0  0  0  0  0  0  0  0  0
  -11.8158   23.8236   69.2589 O   0  0  0  0  0  0  0  0  0  0  0  0
  -11.6758   24.0518   66.4273 O   0  0  0  0  0  0  0  0  0  0  0  0
  1  2  1  0  0  0  0
  1 12  1  6  0  0  0
  1 13  1  0  0  0  0
  2  3  1  0  0  0  0
  2 10  1  1  0  0  0
  4  3  1  1  0  0  0
  4  5  1  0  0  0  0
  4 14  1  0  0  0  0
  5  6  1  0  0  0  0
  5 13  1  1  0  0  0
  6  7  1  0  0  0  0
  6 15  1  1  0  0  0
  7  8  1  0  0  0  0
  7 11  1  6  0  0  0
  8 14  1  0  0  0  0
  8 16  1  6  0  0  0
  9 11  1  0  0  0  0
 17 16  1  1  0  0  0
 17 18  1  0  0  0  0
 17 24  1  0  0  0  0
 18 19  1  0  0  0  0
 18 25  1  6  0  0  0
 19 20  1  0  0  0  0
 19 26  1  6  0  0  0
 20 21  1  0  0  0  0
 20 23  1  1  0  0  0
 21 22  1  1  0  0  0
 21 24  1  0  0  0  0
 22 27  1  0  0  0  0
 28 12  1  1  0  0  0
 28 29  1  0  0  0  0
 28 33  1  0  0  0  0
 29 30  1  0  0  0  0
 29 36  1  1  0  0  0
 30 31  1  0  0  0  0
 30 37  1  6  0  0  0
 31 32  1  0  0  0  0
 31 34  1  6  0  0  0
 32 33  1  0  0  0  0
 33 35  1  1  0  0  0
M  END
>  <CHROM.1>
98.89548405,119.19780551,-147.97716202,-66.04334419,113.89469326,-76.57857376
-8.10101957,24.42087040,67.12011536,-2.49008953,-0.78605044,-1.51776862

>  <Name>
ligand

>  <RI>
0

>  <Rbt.Current_Directory>
/home/itssahil/PROJECTS/Mol_Feturizer/Test_systems_manuscript/rnas/2g5k

>  <Rbt.Executable>
rbdock ($Id: //depot/dev/client3/rdock/2013.1/src/exe/rbdock.cxx#4 $)

>  <Rbt.Library>
libRbt.so (2013.1, Build901 2013/11/27)

>  <Rbt.Parameter_File>
/export/apps/rDock/src/rDock_2013.1_src/data/scripts/dock_solv.prm

>  <Rbt.Receptor>
prm/blind_docking_100.prm

>  <SCORE>
51.7571

>  <SCORE.INTER>
15.1196

>  <SCORE.INTER.CONST>
1

>  <SCORE.INTER.POLAR>
0

>  <SCORE.INTER.ROT>
6

>  <SCORE.INTER.SOLV>
22.3153

>  <SCORE.INTER.VDW>
-4.95872

>  <SCORE.INTER.norm>
0.408637

>  <SCORE.INTRA>
17.7874

>  <SCORE.INTRA.DIHEDRAL>
7.11811

>  <SCORE.INTRA.DIHEDRAL.0>
11.3972

>  <SCORE.INTRA.POLAR>
0

>  <SCORE.INTRA.POLAR.0>
0

>  <SCORE.INTRA.REPUL>
0

>  <SCORE.INTRA.REPUL.0>
0

>  <SCORE.INTRA.SOLV>
6.82096

>  <SCORE.INTRA.SOLV.lig_0>
-92.3891

>  <SCORE.INTRA.VDW>
10.8179

>  <SCORE.INTRA.VDW.0>
-2.90606

>  <SCORE.INTRA.norm>
0.480741

>  <SCORE.RESTR>
18.8501

>  <SCORE.RESTR.CAVITY>
18.8501

>  <SCORE.RESTR.norm>
0.509463

>  <SCORE.SYSTEM>
0

>  <SCORE.SYSTEM.CONST>
0

>  <SCORE.SYSTEM.DIHEDRAL>
0

>  <SCORE.SYSTEM.SOLV>
0

>  <SCORE.SYSTEM.norm>
0

>  <SCORE.heavy>
37

>  <SCORE.norm>
1.39884

>  <RMSD>
9.170

$$$$
ligand
 OpenBabel02271912133D
libRbt.so/2013.1/901 2013/11/27
 37 40  0  0  0  0  0  0  0  0999 V2000
   -8.6256   21.8829   69.9088 C   0  0  1  0  0  0  0  0  0  0  0  0
   -7.2628   21.2724   69.4745 C   0  0  1  0  0  0  0  0  0  0  0  0
   -6.5085   22.1868   68.4905 C   0  0  0  0  0  0  0  0  0  0  0  0
   -7.4189   22.4567   67.2521 C   0  0  1  0  0  0  0  0  0  0  0  0
   -8.7653   23.1181   67.6917 C   0  0  1  0  0  0  0  0  0  0  0  0
   -9.6800   23.3830   66.4119 C   0  0  1  0  0  0  0  0  0  0  0  0
   -8.9143   24.3155   65.4280 C   0  0  1  0  0  0  0  0  0  0  0  0
   -7.5693   23.6241   65.0517 C   0  0  2  0  0  0  0  0  0  0  0  0
  -10.8510   23.6286   63.8507 C   0  0  0  0  0  0  0  0  0  0  0  0
   -6.4230   20.9805   70.6554 N   0  0  0  0  0  0  0  0  0  0  0  0
   -9.7449   24.5783   64.1935 N   0  0  0  0  0  0  0  0  0  0  0  0
   -8.4690   23.0527   70.7353 O   0  0  0  0  0  0  0  0  0  0  0  0
   -9.4061   22.2064   68.6859 O   0  0  0  0  0  0  0  0  0  0  0  0
   -6.7550   23.3444   66.2417 O   0  0  0  0  0  0  0  0  0  0  0  0
   -9.9429   22.1539   65.7474 O   0  0  0  0  0  0  0  0  0  0  0  0
   -6.8255   24.4531   64.1659 O   0  0  0  0  0  0  0  0  0  0  0  0
   -7.1702   25.8581   64.2456 C   0  0  2  0  0  0  0  0  0  0  0  0
   -6.2938   26.7448   63.3295 C   0  0  1  0  0  0  0  0  0  0  0  0
   -4.8086   26.7504   63.8157 C   0  0  2  0  0  0  0  0  0  0  0  0
   -4.7550   27.2959   65.2284 C   0  0  1  0  0  0  0  0  0  0  0  0
   -5.6153   26.3846   66.1542 C   0  0  1  0  0  0  0  0  0  0  0  0
   -5.6314   26.8818   67.5985 C   0  0  0  0  0  0  0  0  0  0  0  0
   -3.3458   27.3252   65.6890 N   0  0  0  0  0  0  0  0  0  0  0  0
   -7.0223   26.3466   65.6491 O   0  0  0  0  0  0  0  0  0  0  0  0
   -6.4305   26.2411   61.9821 O   0  0  0  0  0  0  0  0  0  0  0  0
   -4.0222   27.5875   62.9648 O   0  0  0  0  0  0  0  0  0  0  0  0
   -6.6061   27.8874   67.7334 O   0  0  0  0  0  0  0  0  0  0  0  0
   -9.2803   24.3161   70.5462 C   0  0  1  0  0  0  0  0  0  0  0  0
   -8.8022   25.0132   69.2430 C   0  0  1  0  0  0  0  0  0  0  0  0
   -9.6103   26.3229   69.0117 C   0  0  2  0  0  0  0  0  0  0  0  0
  -11.1145   25.9763   68.8864 C   0  0  1  0  0  0  0  0  0  0  0  0
  -11.6276   25.2770   70.1959 C   0  0  0  0  0  0  0  0  0  0  0  0
  -10.8016   23.9912   70.4129 C   0  0  2  0  0  0  0  0  0  0  0  0
  -11.8942   27.2166   68.6584 N   0  0  0  0  0  0  0  0  0  0  0  0
  -11.2858   23.3452   71.6377 N   0  0  0  0  0  0  0  0  0  0  0  0
   -7.3985   25.3353   69.3573 O   0  0  0  0  0  0  0  0  0  0  0  0
   -9.1425   26.9537   67.7988 O   0  0  0  0  0  0  0  0  0  0  0  0
  1  2  1  0  0  0  0
  1 12  1  6  0  0  0
  1 13  1  0  0  0  0
  2  3  1  0  0  0  0
  2 10  1  1  0  0  0
  4  3  1  1  0  0  0
  4  5  1  0  0  0  0
  4 14  1  0  0  0  0
  5  6  1  0  0  0  0
  5 13  1  1  0  0  0
  6  7  1  0  0  0  0
  6 15  1  6  0  0  0
  7  8  1  0  0  0  0
  7 11  1  6  0  0  0
  8 14  1  0  0  0  0
  8 16  1  6  0  0  0
  9 11  1  0  0  0  0
 17 16  1  1  0  0  0
 17 18  1  0  0  0  0
 17 24  1  0  0  0  0
 18 19  1  0  0  0  0
 18 25  1  6  0  0  0
 19 20  1  0  0  0  0
 19 26  1  6  0  0  0
 20 21  1  0  0  0  0
 20 23  1  1  0  0  0
 21 22  1  1  0  0  0
 21 24  1  0  0  0  0
 22 27  1  0  0  0  0
 28 12  1  6  0  0  0
 28 29  1  0  0  0  0
 28 33  1  0  0  0  0
 29 30  1  0  0  0  0
 29 36  1  1  0  0  0
 30 31  1  0  0  0  0
 30 37  1  6  0  0  0
 31 32  1  0  0  0  0
 31 34  1  1  0  0  0
 32 33  1  0  0  0  0
 33 35  1  1  0  0  0
M  END
>  <CHROM.1>
135.64972526,-20.69160374,23.32662983,-71.21287707,176.84496671,83.21789634
-7.97716451,24.76259252,67.10246947,-2.24367741,-0.57601100,-1.49319400

>  <Name>
ligand

>  <RI>
0

>  <Rbt.Current_Directory>
/home/itssahil/PROJECTS/Mol_Feturizer/Test_systems_manuscript/rnas/2g5k

>  <Rbt.Executable>
rbdock ($Id: //depot/dev/client3/rdock/2013.1/src/exe/rbdock.cxx#4 $)

>  <Rbt.Library>
libRbt.so (2013.1, Build901 2013/11/27)

>  <Rbt.Parameter_File>
/export/apps/rDock/src/rDock_2013.1_src/data/scripts/dock_solv.prm

>  <Rbt.Receptor>
prm/blind_docking_100.prm

>  <SCORE>
42.0398

>  <SCORE.INTER>
5.32563

>  <SCORE.INTER.CONST>
1

>  <SCORE.INTER.POLAR>
0

>  <SCORE.INTER.ROT>
6

>  <SCORE.INTER.SOLV>
21.594

>  <SCORE.INTER.VDW>
-11.2476

>  <SCORE.INTER.norm>
0.143936

>  <SCORE.INTRA>
21.1651

>  <SCORE.INTRA.DIHEDRAL>
2.74786

>  <SCORE.INTRA.DIHEDRAL.0>
11.3972

>  <SCORE.INTRA.POLAR>
0

>  <SCORE.INTRA.POLAR.0>
0

>  <SCORE.INTRA.REPUL>
0.5426

>  <SCORE.INTRA.REPUL.0>
0

>  <SCORE.INTRA.SOLV>
3.84005

>  <SCORE.INTRA.SOLV.lig_0>
-92.3891

>  <SCORE.INTRA.VDW>
15.1581

>  <SCORE.INTRA.VDW.0>
-2.90606

>  <SCORE.INTRA.norm>
0.572029

>  <SCORE.RESTR>
15.5491

>  <SCORE.RESTR.CAVITY>
15.5491

>  <SCORE.RESTR.norm>
0.420246

>  <SCORE.SYSTEM>
0

>  <SCORE.SYSTEM.CONST>
0

>  <SCORE.SYSTEM.DIHEDRAL>
0

>  <SCORE.SYSTEM.SOLV>
0

>  <SCORE.SYSTEM.norm>
0

>  <SCORE.heavy>
37

>  <SCORE.norm>
1.13621

>  <RMSD>
9.198

$$$$
ligand
 OpenBabel02271912133D
libRbt.so/2013.1/901 2013/11/27
 37 40  0  0  0  0  0  0  0  0999 V2000
   -5.6588   30.9311   65.5230 C   0  0  1  0  0  0  0  0  0  0  0  0
   -4.3816   31.5894   64.9280 C   0  0  1  0  0  0  0  0  0  0  0  0
   -3.2400   30.5713   64.7444 C   0  0  0  0  0  0  0  0  0  0  0  0
   -2.9334   29.9022   66.1204 C   0  0  1  0  0  0  0  0  0  0  0  0
   -4.2088   29.1982   66.6872 C   0  0  1  0  0  0  0  0  0  0  0  0
   -3.8734   28.5235   68.0933 C   0  0  1  0  0  0  0  0  0  0  0  0
   -2.7262   27.4895   67.8966 C   0  0  1  0  0  0  0  0  0  0  0  0
   -1.4962   28.2372   67.2992 C   0  0  2  0  0  0  0  0  0  0  0  0
   -1.8962   25.4173   69.2110 C   0  0  0  0  0  0  0  0  0  0  0  0
   -4.6892   32.2571   63.6455 N   0  0  0  0  0  0  0  0  0  0  0  0
   -2.3696   26.8382   69.2124 N   0  0  0  0  0  0  0  0  0  0  0  0
   -6.2911   30.0201   64.6029 O   0  0  0  0  0  0  0  0  0  0  0  0
   -5.2840   30.2304   66.7792 O   0  0  0  0  0  0  0  0  0  0  0  0
   -1.8285   28.8921   66.0272 O   0  0  0  0  0  0  0  0  0  0  0  0
   -3.4264   29.5164   69.0074 O   0  0  0  0  0  0  0  0  0  0  0  0
   -0.4268   27.3234   67.0842 O   0  0  0  0  0  0  0  0  0  0  0  0
   -0.7690   26.2082   66.2249 C   0  0  2  0  0  0  0  0  0  0  0  0
    0.3113   25.1008   66.2184 C   0  0  1  0  0  0  0  0  0  0  0  0
    1.6333   25.6167   65.5638 C   0  0  2  0  0  0  0  0  0  0  0  0
    1.3456   26.0338   64.1358 C   0  0  1  0  0  0  0  0  0  0  0  0
    0.2782   27.1689   64.1469 C   0  0  1  0  0  0  0  0  0  0  0  0
   -0.0852   27.6319   62.7374 C   0  0  0  0  0  0  0  0  0  0  0  0
    2.6003   26.5039   63.5005 N   0  0  0  0  0  0  0  0  0  0  0  0
   -0.9635   26.6796   64.8212 O   0  0  0  0  0  0  0  0  0  0  0  0
    0.5029   24.6766   67.5864 O   0  0  0  0  0  0  0  0  0  0  0  0
    2.6101   24.5732   65.5548 O   0  0  0  0  0  0  0  0  0  0  0  0
   -0.5911   26.5420   62.0056 O   0  0  0  0  0  0  0  0  0  0  0  0
   -7.3594   29.0317   65.0173 C   0  0  1  0  0  0  0  0  0  0  0  0
   -6.6896   27.9144   65.8633 C   0  0  1  0  0  0  0  0  0  0  0  0
   -7.7553   26.8713   66.3084 C   0  0  2  0  0  0  0  0  0  0  0  0
   -8.8365   27.5815   67.1598 C   0  0  1  0  0  0  0  0  0  0  0  0
   -9.5375   28.7124   66.3250 C   0  0  0  0  0  0  0  0  0  0  0  0
   -8.4598   29.7245   65.8816 C   0  0  2  0  0  0  0  0  0  0  0  0
   -9.8543   26.5954   67.5958 N   0  0  0  0  0  0  0  0  0  0  0  0
   -9.1219   30.7760   65.1019 N   0  0  0  0  0  0  0  0  0  0  0  0
   -5.6790   27.2522   65.0712 O   0  0  0  0  0  0  0  0  0  0  0  0
   -7.1061   25.8416   67.0868 O   0  0  0  0  0  0  0  0  0  0  0  0
  1  2  1  0  0  0  0
  1 12  1  6  0  0  0
  1 13  1  0  0  0  0
  2  3  1  0  0  0  0
  2 10  1  6  0  0  0
  4  3  1  6  0  0  0
  4  5  1  0  0  0  0
  4 14  1  0  0  0  0
  5  6  1  0  0  0  0
  5 13  1  1  0  0  0
  6  7  1  0  0  0  0
  6 15  1  1  0  0  0
  7  8  1  0  0  0  0
  7 11  1  1  0  0  0
  8 14  1  0  0  0  0
  8 16  1  6  0  0  0
  9 11  1  0  0  0  0
 17 16  1  1  0  0  0
 17 18  1  0  0  0  0
 17 24  1  0  0  0  0
 18 19  1  0  0  0  0
 18 25  1  1  0  0  0
 19 20  1  0  0  0  0
 19 26  1  6  0  0  0
 20 21  1  0  0  0  0
 20 23  1  1  0  0  0
 21 22  1  6  0  0  0
 21 24  1  0  0  0  0
 22 27  1  0  0  0  0
 28 12  1  1  0  0  0
 28 29  1  0  0  0  0
 28 33  1  0  0  0  0
 29 30  1  0  0  0  0
 29 36  1  6  0  0  0
 30 31  1  0  0  0  0
 30 37  1  1  0  0  0
 31 32  1  0  0  0  0
 31 34  1  6  0  0  0
 32 33  1  0  0  0  0
 33 35  1  6  0  0  0
M  END
>  <CHROM.1>
166.38464288,147.78941315,56.97833328,-71.30511218,-169.26924313,59.27921568
-3.42176309,27.91430678,65.96981415,-2.96625548,-0.30038389,2.35587127

>  <Name>
ligand

>  <RI>
0

>  <Rbt.Current_Directory>
/home/itssahil/PROJECTS/Mol_Feturizer/Test_systems_manuscript/rnas/2g5k

>  <Rbt.Executable>
rbdock ($Id: //depot/dev/client3/rdock/2013.1/src/exe/rbdock.cxx#4 $)

>  <Rbt.Library>
libRbt.so (2013.1, Build901 2013/11/27)

>  <Rbt.Parameter_File>
/export/apps/rDock/src/rDock_2013.1_src/data/scripts/dock_solv.prm

>  <Rbt.Receptor>
prm/pocket_docking_2.prm

>  <SCORE>
-2.75327

>  <SCORE.INTER>
-1.58794

>  <SCORE.INTER.CONST>
1

>  <SCORE.INTER.POLAR>
0

>  <SCORE.INTER.ROT>
6

>  <SCORE.INTER.SOLV>
16.086

>  <SCORE.INTER.VDW>
-14.0206

>  <SCORE.INTER.norm>
-0.0429173

>  <SCORE.INTRA>
-3.35996

>  <SCORE.INTRA.DIHEDRAL>
-8.60335

>  <SCORE.INTRA.DIHEDRAL.0>
11.3972

>  <SCORE.INTRA.POLAR>
0

>  <SCORE.INTRA.POLAR.0>
0

>  <SCORE.INTRA.REPUL>
0

>  <SCORE.INTRA.REPUL.0>
0

>  <SCORE.INTRA.SOLV>
1.07431

>  <SCORE.INTRA.SOLV.lig_0>
-92.3891

>  <SCORE.INTRA.VDW>
0.404559

>  <SCORE.INTRA.VDW.0>
-2.90606

>  <SCORE.INTRA.norm>
-0.0908098

>  <SCORE.RESTR>
2.19463

>  <SCORE.RESTR.CAVITY>
2.19463

>  <SCORE.RESTR.norm>
0.0593144

>  <SCORE.SYSTEM>
0

>  <SCORE.SYSTEM.CONST>
0

>  <SCORE.SYSTEM.DIHEDRAL>
0

>  <SCORE.SYSTEM.SOLV>
0

>  <SCORE.SYSTEM.norm>
0

>  <SCORE.heavy>
37

>  <SCORE.norm>
-0.0744127

>  <RMSD>
9.198

$$$$
ligand
 OpenBabel02271912133D
libRbt.so/2013.1/901 2013/11/27
 37 40  0  0  0  0  0  0  0  0999 V2000
   -8.6722   21.8209   69.8150 C   0  0  1  0  0  0  0  0  0  0  0  0
   -7.2258   21.3542   69.4855 C   0  0  1  0  0  0  0  0  0  0  0  0
   -6.5173   22.3151   68.5119 C   0  0  0  0  0  0  0  0  0  0  0  0
   -7.3728   22.4399   67.2127 C   0  0  1  0  0  0  0  0  0  0  0  0
   -8.8090   22.9591   67.5464 C   0  0  1  0  0  0  0  0  0  0  0  0
   -9.6656   23.0770   66.2059 C   0  0  1  0  0  0  0  0  0  0  0  0
   -8.9479   24.0572   65.2323 C   0  0  1  0  0  0  0  0  0  0  0  0
   -7.5138   23.5100   64.9628 C   0  0  2  0  0  0  0  0  0  0  0  0
  -11.2009   24.4226   64.0071 C   0  0  0  0  0  0  0  0  0  0  0  0
   -6.4342   21.1978   70.7241 N   0  0  0  0  0  0  0  0  0  0  0  0
   -9.7237   24.1840   63.9420 N   0  0  0  0  0  0  0  0  0  0  0  0
   -8.6979   23.0274   70.6024 O   0  0  0  0  0  0  0  0  0  0  0  0
   -9.4058   22.0141   68.5368 O   0  0  0  0  0  0  0  0  0  0  0  0
   -6.7495   23.3632   66.2085 O   0  0  0  0  0  0  0  0  0  0  0  0
   -9.7489   21.8050   65.5764 O   0  0  0  0  0  0  0  0  0  0  0  0
   -6.8124   24.3881   64.0899 O   0  0  0  0  0  0  0  0  0  0  0  0
   -7.2142   25.7756   64.2030 C   0  0  2  0  0  0  0  0  0  0  0  0
   -6.3699   26.7201   63.3151 C   0  0  1  0  0  0  0  0  0  0  0  0
   -4.8886   26.7733   63.8103 C   0  0  2  0  0  0  0  0  0  0  0  0
   -4.8644   27.2843   65.2366 C   0  0  1  0  0  0  0  0  0  0  0  0
   -5.6917   26.3156   66.1338 C   0  0  1  0  0  0  0  0  0  0  0  0
   -5.7353   26.7747   67.5900 C   0  0  0  0  0  0  0  0  0  0  0  0
   -3.4599   27.3588   65.7064 N   0  0  0  0  0  0  0  0  0  0  0  0
   -7.0933   26.2336   65.6193 O   0  0  0  0  0  0  0  0  0  0  0  0
   -6.4792   26.2458   61.9545 O   0  0  0  0  0  0  0  0  0  0  0  0
   -4.1325   27.6629   62.9856 O   0  0  0  0  0  0  0  0  0  0  0  0
   -6.2467   28.0840   67.6499 O   0  0  0  0  0  0  0  0  0  0  0  0
   -9.3542   24.3084   70.1352 C   0  0  1  0  0  0  0  0  0  0  0  0
  -10.2353   24.8558   71.2914 C   0  0  1  0  0  0  0  0  0  0  0  0
  -10.9339   26.1748   70.8509 C   0  0  2  0  0  0  0  0  0  0  0  0
   -9.8548   27.2241   70.4868 C   0  0  1  0  0  0  0  0  0  0  0  0
   -8.9533   26.6997   69.3123 C   0  0  0  0  0  0  0  0  0  0  0  0
   -8.2848   25.3845   69.7661 C   0  0  2  0  0  0  0  0  0  0  0  0
  -10.5092   28.4883   70.0720 N   0  0  0  0  0  0  0  0  0  0  0  0
   -7.4462   24.9009   68.6639 N   0  0  0  0  0  0  0  0  0  0  0  0
  -11.2414   23.8771   71.6340 O   0  0  0  0  0  0  0  0  0  0  0  0
  -11.7506   26.6586   71.9403 O   0  0  0  0  0  0  0  0  0  0  0  0
  1  2  1  0  0  0  0
  1 12  1  6  0  0  0
  1 13  1  0  0  0  0
  2  3  1  0  0  0  0
  2 10  1  1  0  0  0
  4  3  1  1  0  0  0
  4  5  1  0  0  0  0
  4 14  1  0  0  0  0
  5  6  1  0  0  0  0
  5 13  1  1  0  0  0
  6  7  1  0  0  0  0
  6 15  1  6  0  0  0
  7  8  1  0  0  0  0
  7 11  1  6  0  0  0
  8 14  1  0  0  0  0
  8 16  1  6  0  0  0
  9 11  1  0  0  0  0
 17 16  1  1  0  0  0
 17 18  1  0  0  0  0
 17 24  1  0  0  0  0
 18 19  1  0  0  0  0
 18 25  1  6  0  0  0
 19 20  1  0  0  0  0
 19 26  1  6  0  0  0
 20 21  1  0  0  0  0
 20 23  1  1  0  0  0
 21 22  1  1  0  0  0
 21 24  1  0  0  0  0
 22 27  1  0  0  0  0
 28 12  1  1  0  0  0
 28 29  1  0  0  0  0
 28 33  1  0  0  0  0
 29 30  1  0  0  0  0
 29 36  1  6  0  0  0
 30 31  1  0  0  0  0
 30 37  1  1  0  0  0
 31 32  1  0  0  0  0
 31 34  1  6  0  0  0
 32 33  1  0  0  0  0
 33 35  1  6  0  0  0
M  END
>  <CHROM.1>
119.61902436,47.84004398,29.87498442,132.80655935,176.03787512,56.23353128
-7.96063565,24.86146337,67.30185887,2.93904145,1.04060688,0.52351538

>  <Name>
ligand

>  <RI>
0

>  <Rbt.Current_Directory>
/home/itssahil/PROJECTS/Mol_Feturizer/Test_systems_manuscript/rnas/2g5k

>  <Rbt.Executable>
rbdock ($Id: //depot/dev/client3/rdock/2013.1/src/exe/rbdock.cxx#4 $)

>  <Rbt.Library>
libRbt.so (2013.1, Build901 2013/11/27)

>  <Rbt.Parameter_File>
/export/apps/rDock/src/rDock_2013.1_src/data/scripts/dock_solv.prm

>  <Rbt.Receptor>
prm/blind_docking_100.prm

>  <SCORE>
26.9536

>  <SCORE.INTER>
1.75964

>  <SCORE.INTER.CONST>
1

>  <SCORE.INTER.POLAR>
0

>  <SCORE.INTER.ROT>
6

>  <SCORE.INTER.SOLV>
25.5892

>  <SCORE.INTER.VDW>
-14.9566

>  <SCORE.INTER.norm>
0.0475579

>  <SCORE.INTRA>
11.3724

>  <SCORE.INTRA.DIHEDRAL>
6.08972

>  <SCORE.INTRA.DIHEDRAL.0>
11.3972

>  <SCORE.INTRA.POLAR>
0

>  <SCORE.INTRA.POLAR.0>
0

>  <SCORE.INTRA.REPUL>
0.000474823

>  <SCORE.INTRA.REPUL.0>
0

>  <SCORE.INTRA.SOLV>
8.43033

>  <SCORE.INTRA.SOLV.lig_0>
-92.3891

>  <SCORE.INTRA.VDW>
4.11002

>  <SCORE.INTRA.VDW.0>
-2.90606

>  <SCORE.INTRA.norm>
0.307363

>  <SCORE.RESTR>
13.8215

>  <SCORE.RESTR.CAVITY>
13.8215

>  <SCORE.RESTR.norm>
0.373555

>  <SCORE.SYSTEM>
0

>  <SCORE.SYSTEM.CONST>
0

>  <SCORE.SYSTEM.DIHEDRAL>
0

>  <SCORE.SYSTEM.SOLV>
0

>  <SCORE.SYSTEM.norm>
0

>  <SCORE.heavy>
37

>  <SCORE.norm>
0.728476

>  <RMSD>
9.250

$$$$
ligand
 OpenBabel02271912133D
libRbt.so/2013.1/901 2013/11/27
 37 40  0  0  0  0  0  0  0  0999 V2000
   -9.7606   20.1626   67.9509 C   0  0  1  0  0  0  0  0  0  0  0  0
   -8.3563   19.6914   67.4774 C   0  0  1  0  0  0  0  0  0  0  0  0
   -7.4394   20.8773   67.1219 C   0  0  0  0  0  0  0  0  0  0  0  0
   -8.1357   21.7439   66.0267 C   0  0  1  0  0  0  0  0  0  0  0  0
   -9.5239   22.2568   66.5300 C   0  0  1  0  0  0  0  0  0  0  0  0
  -10.2179   23.1376   65.3954 C   0  0  1  0  0  0  0  0  0  0  0  0
   -9.2896   24.3386   65.0496 C   0  0  1  0  0  0  0  0  0  0  0  0
   -7.9133   23.7711   64.5885 C   0  0  2  0  0  0  0  0  0  0  0  0
  -11.2529   25.8032   64.2066 C   0  0  0  0  0  0  0  0  0  0  0  0
   -7.7208   18.8366   68.5025 N   0  0  0  0  0  0  0  0  0  0  0  0
   -9.9078   25.1903   63.9655 N   0  0  0  0  0  0  0  0  0  0  0  0
   -9.7187   20.8288   69.2279 O   0  0  0  0  0  0  0  0  0  0  0  0
  -10.3303   21.0590   66.9111 O   0  0  0  0  0  0  0  0  0  0  0  0
   -7.3043   22.9254   65.6236 O   0  0  0  0  0  0  0  0  0  0  0  0
  -10.3916   22.3561   64.2205 O   0  0  0  0  0  0  0  0  0  0  0  0
   -7.0240   24.8382   64.2799 O   0  0  0  0  0  0  0  0  0  0  0  0
   -5.9943   25.0533   65.2762 C   0  0  2  0  0  0  0  0  0  0  0  0
   -6.5375   25.7011   66.5718 C   0  0  1  0  0  0  0  0  0  0  0  0
   -7.0315   27.1587   66.3006 C   0  0  2  0  0  0  0  0  0  0  0  0
   -5.8700   27.9844   65.7856 C   0  0  1  0  0  0  0  0  0  0  0  0
   -5.3432   27.3461   64.4655 C   0  0  1  0  0  0  0  0  0  0  0  0
   -4.1517   28.1102   63.8913 C   0  0  0  0  0  0  0  0  0  0  0  0
   -6.3255   29.3752   65.5468 N   0  0  0  0  0  0  0  0  0  0  0  0
   -4.9216   25.9354   64.7269 O   0  0  0  0  0  0  0  0  0  0  0  0
   -7.5899   24.8470   67.0730 O   0  0  0  0  0  0  0  0  0  0  0  0
   -7.5136   27.7416   67.5135 O   0  0  0  0  0  0  0  0  0  0  0  0
   -3.7969   27.5534   62.6489 O   0  0  0  0  0  0  0  0  0  0  0  0
   -9.1227   22.2057   69.4254 C   0  0  1  0  0  0  0  0  0  0  0  0
  -10.2857   23.2257   69.5662 C   0  0  1  0  0  0  0  0  0  0  0  0
   -9.7157   24.6597   69.7679 C   0  0  2  0  0  0  0  0  0  0  0  0
   -8.8510   24.6866   71.0523 C   0  0  1  0  0  0  0  0  0  0  0  0
   -7.6602   23.6691   70.9339 C   0  0  0  0  0  0  0  0  0  0  0  0
   -8.2491   22.2587   70.7184 C   0  0  2  0  0  0  0  0  0  0  0  0
   -8.3079   26.0508   71.2587 N   0  0  0  0  0  0  0  0  0  0  0  0
   -7.1313   21.3152   70.6075 N   0  0  0  0  0  0  0  0  0  0  0  0
  -11.0949   23.2004   68.3696 O   0  0  0  0  0  0  0  0  0  0  0  0
  -10.8161   25.5883   69.8895 O   0  0  0  0  0  0  0  0  0  0  0  0
  1  2  1  0  0  0  0
  1 12  1  1  0  0  0
  1 13  1  0  0  0  0
  2  3  1  0  0  0  0
  2 10  1  1  0  0  0
  4  3  1  1  0  0  0
  4  5  1  0  0  0  0
  4 14  1  0  0  0  0
  5  6  1  0  0  0  0
  5 13  1  6  0  0  0
  6  7  1  0  0  0  0
  6 15  1  6  0  0  0
  7  8  1  0  0  0  0
  7 11  1  6  0  0  0
  8 14  1  0  0  0  0
  8 16  1  1  0  0  0
  9 11  1  0  0  0  0
 17 16  1  6  0  0  0
 17 18  1  0  0  0  0
 17 24  1  0  0  0  0
 18 19  1  0  0  0  0
 18 25  1  6  0  0  0
 19 20  1  0  0  0  0
 19 26  1  1  0  0  0
 20 21  1  0  0  0  0
 20 23  1  6  0  0  0
 21 22  1  1  0  0  0
 21 24  1  0  0  0  0
 22 27  1  0  0  0  0
 28 12  1  1  0  0  0
 28 29  1  0  0  0  0
 28 33  1  0  0  0  0
 29 30  1  0  0  0  0
 29 36  1  6  0  0  0
 30 31  1  0  0  0  0
 30 37  1  1  0  0  0
 31 32  1  0  0  0  0
 31 34  1  6  0  0  0
 32 33  1  0  0  0  0
 33 35  1  6  0  0  0
M  END
>  <CHROM.1>
71.09296381,58.83032128,105.59781028,103.83044259,-73.08568827,-175.10380823
-8.13057609,24.11244805,66.95001992,2.90322237,1.10942835,1.16734640

>  <Name>
ligand

>  <RI>
0

>  <Rbt.Current_Directory>
/home/itssahil/PROJECTS/Mol_Feturizer/Test_systems_manuscript/rnas/2g5k

>  <Rbt.Executable>
rbdock ($Id: //depot/dev/client3/rdock/2013.1/src/exe/rbdock.cxx#4 $)

>  <Rbt.Library>
libRbt.so (2013.1, Build901 2013/11/27)

>  <Rbt.Parameter_File>
/export/apps/rDock/src/rDock_2013.1_src/data/scripts/dock_solv.prm

>  <Rbt.Receptor>
prm/blind_docking_100.prm

>  <SCORE>
39.608

>  <SCORE.INTER>
19.347

>  <SCORE.INTER.CONST>
1

>  <SCORE.INTER.POLAR>
0

>  <SCORE.INTER.ROT>
6

>  <SCORE.INTER.SOLV>
28.3489

>  <SCORE.INTER.VDW>
-4.15161

>  <SCORE.INTER.norm>
0.522892

>  <SCORE.INTRA>
6.55882

>  <SCORE.INTRA.DIHEDRAL>
2.2983

>  <SCORE.INTRA.DIHEDRAL.0>
11.3972

>  <SCORE.INTRA.POLAR>
0

>  <SCORE.INTRA.POLAR.0>
0

>  <SCORE.INTRA.REPUL>
0

>  <SCORE.INTRA.REPUL.0>
0

>  <SCORE.INTRA.SOLV>
4.55018

>  <SCORE.INTRA.SOLV.lig_0>
-92.3891

>  <SCORE.INTRA.VDW>
3.13458

>  <SCORE.INTRA.VDW.0>
-2.90606

>  <SCORE.INTRA.norm>
0.177265

>  <SCORE.RESTR>
13.7022

>  <SCORE.RESTR.CAVITY>
13.7022

>  <SCORE.RESTR.norm>
0.370329

>  <SCORE.SYSTEM>
0

>  <SCORE.SYSTEM.CONST>
0

>  <SCORE.SYSTEM.DIHEDRAL>
0

>  <SCORE.SYSTEM.SOLV>
0

>  <SCORE.SYSTEM.norm>
0

>  <SCORE.heavy>
37

>  <SCORE.norm>
1.07049

>  <RMSD>
9.302

$$$$
ligand
 OpenBabel02271912133D
libRbt.so/2013.1/901 2013/11/27
 37 40  0  0  0  0  0  0  0  0999 V2000
   -9.7656   20.1711   67.9415 C   0  0  1  0  0  0  0  0  0  0  0  0
   -8.3590   19.7020   67.4723 C   0  0  1  0  0  0  0  0  0  0  0  0
   -7.4437   20.8892   67.1171 C   0  0  0  0  0  0  0  0  0  0  0  0
   -8.1390   21.7525   66.0188 C   0  0  1  0  0  0  0  0  0  0  0  0
   -9.5296   22.2634   66.5177 C   0  0  1  0  0  0  0  0  0  0  0  0
  -10.2225   23.1409   65.3798 C   0  0  1  0  0  0  0  0  0  0  0  0
   -9.2958   24.3432   65.0344 C   0  0  1  0  0  0  0  0  0  0  0  0
   -7.9172   23.7778   64.5778 C   0  0  2  0  0  0  0  0  0  0  0  0
  -11.2507   25.8194   64.1920 C   0  0  0  0  0  0  0  0  0  0  0  0
   -7.7244   18.8503   68.5004 N   0  0  0  0  0  0  0  0  0  0  0  0
   -9.9131   25.1918   63.9474 N   0  0  0  0  0  0  0  0  0  0  0  0
   -9.7283   20.8395   69.2174 O   0  0  0  0  0  0  0  0  0  0  0  0
  -10.3344   21.0646   66.8987 O   0  0  0  0  0  0  0  0  0  0  0  0
   -7.3091   22.9351   65.6158 O   0  0  0  0  0  0  0  0  0  0  0  0
  -10.3916   22.3571   64.2058 O   0  0  0  0  0  0  0  0  0  0  0  0
   -7.0293   24.8463   64.2696 O   0  0  0  0  0  0  0  0  0  0  0  0
   -6.0024   25.0649   65.2680 C   0  0  2  0  0  0  0  0  0  0  0  0
   -6.5489   25.7189   66.5592 C   0  0  1  0  0  0  0  0  0  0  0  0
   -7.0409   27.1757   66.2800 C   0  0  2  0  0  0  0  0  0  0  0  0
   -5.8773   27.9982   65.7648 C   0  0  1  0  0  0  0  0  0  0  0  0
   -5.3470   27.3536   64.4491 C   0  0  1  0  0  0  0  0  0  0  0  0
   -4.1532   28.1142   63.8751 C   0  0  0  0  0  0  0  0  0  0  0  0
   -6.3309   29.3883   65.5185 N   0  0  0  0  0  0  0  0  0  0  0  0
   -4.9273   25.9437   64.7181 O   0  0  0  0  0  0  0  0  0  0  0  0
   -7.6035   24.8680   67.0610 O   0  0  0  0  0  0  0  0  0  0  0  0
   -7.5262   27.7644   67.4888 O   0  0  0  0  0  0  0  0  0  0  0  0
   -3.8021   27.5585   62.6312 O   0  0  0  0  0  0  0  0  0  0  0  0
   -9.1342   22.2173   69.4145 C   0  0  1  0  0  0  0  0  0  0  0  0
  -10.2986   23.2361   69.5521 C   0  0  1  0  0  0  0  0  0  0  0  0
   -9.7305   24.6710   69.7532 C   0  0  2  0  0  0  0  0  0  0  0  0
   -8.8681   24.7003   71.0392 C   0  0  1  0  0  0  0  0  0  0  0  0
   -7.6760   23.6840   70.9239 C   0  0  0  0  0  0  0  0  0  0  0  0
   -8.2629   22.2727   70.7090 C   0  0  2  0  0  0  0  0  0  0  0  0
   -8.3269   26.0652   71.2450 N   0  0  0  0  0  0  0  0  0  0  0  0
   -7.1439   21.3303   70.6011 N   0  0  0  0  0  0  0  0  0  0  0  0
  -11.1056   23.2086   68.3541 O   0  0  0  0  0  0  0  0  0  0  0  0
  -10.8322   25.5984   69.8719 O   0  0  0  0  0  0  0  0  0  0  0  0
  1  2  1  0  0  0  0
  1 12  1  1  0  0  0
  1 13  1  0  0  0  0
  2  3  1  0  0  0  0
  2 10  1  1  0  0  0
  4  3  1  1  0  0  0
  4  5  1  0  0  0  0
  4 14  1  0  0  0  0
  5  6  1  0  0  0  0
  5 13  1  6  0  0  0
  6  7  1  0  0  0  0
  6 15  1  6  0  0  0
  7  8  1  0  0  0  0
  7 11  1  6  0  0  0
  8 14  1  0  0  0  0
  8 16  1  1  0  0  0
  9 11  1  0  0  0  0
 17 16  1  6  0  0  0
 17 18  1  0  0  0  0
 17 24  1  0  0  0  0
 18 19  1  0  0  0  0
 18 25  1  6  0  0  0
 19 20  1  0  0  0  0
 19 26  1  1  0  0  0
 20 21  1  0  0  0  0
 20 23  1  6  0  0  0
 21 22  1  1  0  0  0
 21 24  1  0  0  0  0
 22 27  1  0  0  0  0
 28 12  1  1  0  0  0
 28 29  1  0  0  0  0
 28 33  1  0  0  0  0
 29 30  1  0  0  0  0
 29 36  1  6  0  0  0
 30 31  1  0  0  0  0
 30 37  1  1  0  0  0
 31 32  1  0  0  0  0
 31 34  1  6  0  0  0
 32 33  1  0  0  0  0
 33 35  1  6  0  0  0
M  END
>  <CHROM.1>
71.01883577,59.74791233,105.61022735,103.91749440,-73.32178083,-174.62627814
-8.13850470,24.12305735,66.93693037,2.91062139,1.11023406,1.15813485

>  <Name>
ligand

>  <RI>
0

>  <Rbt.Current_Directory>
/home/itssahil/PROJECTS/Mol_Feturizer/Test_systems_manuscript/rnas/2g5k

>  <Rbt.Executable>
rbdock ($Id: //depot/dev/client3/rdock/2013.1/src/exe/rbdock.cxx#4 $)

>  <Rbt.Library>
libRbt.so (2013.1, Build901 2013/11/27)

>  <Rbt.Parameter_File>
/export/apps/rDock/src/rDock_2013.1_src/data/scripts/dock_solv.prm

>  <Rbt.Receptor>
prm/blind_docking_100.prm

>  <SCORE>
39.1613

>  <SCORE.INTER>
18.863

>  <SCORE.INTER.CONST>
1

>  <SCORE.INTER.POLAR>
0

>  <SCORE.INTER.ROT>
6

>  <SCORE.INTER.SOLV>
28.2755

>  <SCORE.INTER.VDW>
-4.44987

>  <SCORE.INTER.norm>
0.50981

>  <SCORE.INTRA>
6.48916

>  <SCORE.INTRA.DIHEDRAL>
2.34948

>  <SCORE.INTRA.DIHEDRAL.0>
11.3972

>  <SCORE.INTRA.POLAR>
0

>  <SCORE.INTRA.POLAR.0>
0

>  <SCORE.INTRA.REPUL>
0

>  <SCORE.INTRA.REPUL.0>
0

>  <SCORE.INTRA.SOLV>
4.53793

>  <SCORE.INTRA.SOLV.lig_0>
-92.3891

>  <SCORE.INTRA.VDW>
3.04546

>  <SCORE.INTRA.VDW.0>
-2.90606

>  <SCORE.INTRA.norm>
0.175383

>  <SCORE.RESTR>
13.8091

>  <SCORE.RESTR.CAVITY>
13.8091

>  <SCORE.RESTR.norm>
0.37322

>  <SCORE.SYSTEM>
0

>  <SCORE.SYSTEM.CONST>
0

>  <SCORE.SYSTEM.DIHEDRAL>
0

>  <SCORE.SYSTEM.SOLV>
0

>  <SCORE.SYSTEM.norm>
0

>  <SCORE.heavy>
37

>  <SCORE.norm>
1.05841

>  <RMSD>
9.302

$$$$
ligand
 OpenBabel02271912133D
libRbt.so/2013.1/901 2013/11/27
 37 40  0  0  0  0  0  0  0  0999 V2000
   -5.5851   32.5719   67.3428 C   0  0  1  0  0  0  0  0  0  0  0  0
   -4.3207   33.2328   66.7239 C   0  0  1  0  0  0  0  0  0  0  0  0
   -3.3779   32.1925   66.0896 C   0  0  0  0  0  0  0  0  0  0  0  0
   -2.9840   31.1404   67.1727 C   0  0  1  0  0  0  0  0  0  0  0  0
   -4.2574   30.4435   67.7527 C   0  0  1  0  0  0  0  0  0  0  0  0
   -3.8320   29.3749   68.8580 C   0  0  1  0  0  0  0  0  0  0  0  0
   -2.8880   28.3224   68.2062 C   0  0  1  0  0  0  0  0  0  0  0  0
   -1.6569   29.0742   67.6163 C   0  0  2  0  0  0  0  0  0  0  0  0
   -1.5289   27.7243   70.3289 C   0  0  0  0  0  0  0  0  0  0  0  0
   -4.7025   34.2577   65.7295 N   0  0  0  0  0  0  0  0  0  0  0  0
   -2.4510   27.2988   69.2281 N   0  0  0  0  0  0  0  0  0  0  0  0
   -6.4664   32.0222   66.3441 O   0  0  0  0  0  0  0  0  0  0  0  0
   -5.1459   31.5159   68.2920 O   0  0  0  0  0  0  0  0  0  0  0  0
   -2.0635   30.0866   66.6328 O   0  0  0  0  0  0  0  0  0  0  0  0
   -3.1210   30.0238   69.9042 O   0  0  0  0  0  0  0  0  0  0  0  0
   -0.7739   28.1497   66.9914 O   0  0  0  0  0  0  0  0  0  0  0  0
   -1.3993   27.3391   65.9662 C   0  0  2  0  0  0  0  0  0  0  0  0
   -0.4161   26.3466   65.3018 C   0  0  1  0  0  0  0  0  0  0  0  0
    0.6777   27.1085   64.4860 C   0  0  2  0  0  0  0  0  0  0  0  0
    0.0033   27.9316   63.4073 C   0  0  1  0  0  0  0  0  0  0  0  0
   -0.9651   28.9497   64.0807 C   0  0  1  0  0  0  0  0  0  0  0  0
   -1.7045   29.8068   63.0550 C   0  0  0  0  0  0  0  0  0  0  0  0
    1.0364   28.6406   62.6143 N   0  0  0  0  0  0  0  0  0  0  0  0
   -1.9752   28.2111   64.8993 O   0  0  0  0  0  0  0  0  0  0  0  0
    0.1487   25.5302   66.3518 O   0  0  0  0  0  0  0  0  0  0  0  0
    1.5640   26.1719   63.8692 O   0  0  0  0  0  0  0  0  0  0  0  0
   -2.5426   28.9849   62.2796 O   0  0  0  0  0  0  0  0  0  0  0  0
   -7.7236   31.2506   66.6821 C   0  0  1  0  0  0  0  0  0  0  0  0
   -7.3090   29.8953   67.3176 C   0  0  1  0  0  0  0  0  0  0  0  0
   -8.5755   29.0659   67.6781 C   0  0  2  0  0  0  0  0  0  0  0  0
   -9.4354   29.8648   68.6883 C   0  0  1  0  0  0  0  0  0  0  0  0
   -9.8768   31.2386   68.0676 C   0  0  0  0  0  0  0  0  0  0  0  0
   -8.6058   32.0353   67.7037 C   0  0  2  0  0  0  0  0  0  0  0  0
  -10.6422   29.0807   69.0448 N   0  0  0  0  0  0  0  0  0  0  0  0
   -9.0263   33.3155   67.1239 N   0  0  0  0  0  0  0  0  0  0  0  0
   -6.5047   29.1494   66.3773 O   0  0  0  0  0  0  0  0  0  0  0  0
   -8.1625   27.8097   68.2606 O   0  0  0  0  0  0  0  0  0  0  0  0
  1  2  1  0  0  0  0
  1 12  1  6  0  0  0
  1 13  1  0  0  0  0
  2  3  1  0  0  0  0
  2 10  1  6  0  0  0
  4  3  1  6  0  0  0
  4  5  1  0  0  0  0
  4 14  1  0  0  0  0
  5  6  1  0  0  0  0
  5 13  1  1  0  0  0
  6  7  1  0  0  0  0
  6 15  1  1  0  0  0
  7  8  1  0  0  0  0
  7 11  1  1  0  0  0
  8 14  1  0  0  0  0
  8 16  1  6  0  0  0
  9 11  1  0  0  0  0
 17 16  1  1  0  0  0
 17 18  1  0  0  0  0
 17 24  1  0  0  0  0
 18 19  1  0  0  0  0
 18 25  1  1  0  0  0
 19 20  1  0  0  0  0
 19 26  1  6  0  0  0
 20 21  1  0  0  0  0
 20 23  1  1  0  0  0
 21 22  1  6  0  0  0
 21 24  1  0  0  0  0
 22 27  1  0  0  0  0
 28 12  1  1  0  0  0
 28 29  1  0  0  0  0
 28 33  1  0  0  0  0
 29 30  1  0  0  0  0
 29 36  1  6  0  0  0
 30 31  1  0  0  0  0
 30 37  1  1  0  0  0
 31 32  1  0  0  0  0
 31 34  1  6  0  0  0
 32 33  1  0  0  0  0
 33 35  1  6  0  0  0
M  END
>  <CHROM.1>
176.15624507,-68.88491877,55.80383013,-68.87410451,179.84537621,64.63253165
-3.92116610,29.56379383,66.65344216,-3.10419109,-0.51168910,2.35845599

>  <Name>
ligand

>  <RI>
0

>  <Rbt.Current_Directory>
/home/itssahil/PROJECTS/Mol_Feturizer/Test_systems_manuscript/rnas/2g5k

>  <Rbt.Executable>
rbdock ($Id: //depot/dev/client3/rdock/2013.1/src/exe/rbdock.cxx#4 $)

>  <Rbt.Library>
libRbt.so (2013.1, Build901 2013/11/27)

>  <Rbt.Parameter_File>
/export/apps/rDock/src/rDock_2013.1_src/data/scripts/dock_solv.prm

>  <Rbt.Receptor>
prm/pocket_docking_4.prm

>  <SCORE>
-10.0834

>  <SCORE.INTER>
-6.92572

>  <SCORE.INTER.CONST>
1

>  <SCORE.INTER.POLAR>
0

>  <SCORE.INTER.ROT>
6

>  <SCORE.INTER.SOLV>
14.8245

>  <SCORE.INTER.VDW>
-17.1587

>  <SCORE.INTER.norm>
-0.187182

>  <SCORE.INTRA>
-3.15771

>  <SCORE.INTRA.DIHEDRAL>
-10.6762

>  <SCORE.INTRA.DIHEDRAL.0>
11.3972

>  <SCORE.INTRA.POLAR>
0

>  <SCORE.INTRA.POLAR.0>
0

>  <SCORE.INTRA.REPUL>
0

>  <SCORE.INTRA.REPUL.0>
0

>  <SCORE.INTRA.SOLV>
0.694714

>  <SCORE.INTRA.SOLV.lig_0>
-92.3891

>  <SCORE.INTRA.VDW>
1.83305

>  <SCORE.INTRA.VDW.0>
-2.90606

>  <SCORE.INTRA.norm>
-0.0853436

>  <SCORE.RESTR>
0

>  <SCORE.RESTR.CAVITY>
0

>  <SCORE.RESTR.norm>
0

>  <SCORE.SYSTEM>
0

>  <SCORE.SYSTEM.CONST>
0

>  <SCORE.SYSTEM.DIHEDRAL>
0

>  <SCORE.SYSTEM.SOLV>
0

>  <SCORE.SYSTEM.norm>
0

>  <SCORE.heavy>
37

>  <SCORE.norm>
-0.272525

>  <RMSD>
9.347

$$$$
ligand
 OpenBabel02271912133D
libRbt.so/2013.1/901 2013/11/27
 37 40  0  0  0  0  0  0  0  0999 V2000
   -6.9452   27.5959   65.7818 C   0  0  1  0  0  0  0  0  0  0  0  0
   -5.5150   27.0795   66.1078 C   0  0  1  0  0  0  0  0  0  0  0  0
   -5.5361   25.6579   66.7010 C   0  0  0  0  0  0  0  0  0  0  0  0
   -6.4343   25.6561   67.9771 C   0  0  1  0  0  0  0  0  0  0  0  0
   -7.8843   26.1266   67.6310 C   0  0  1  0  0  0  0  0  0  0  0  0
   -8.7834   26.1189   68.9487 C   0  0  1  0  0  0  0  0  0  0  0  0
   -8.8074   24.6771   69.5356 C   0  0  1  0  0  0  0  0  0  0  0  0
   -7.3381   24.2479   69.8285 C   0  0  2  0  0  0  0  0  0  0  0  0
  -10.8975   25.4427   70.8606 C   0  0  0  0  0  0  0  0  0  0  0  0
   -4.6583   27.1240   64.9039 N   0  0  0  0  0  0  0  0  0  0  0  0
   -9.6395   24.6325   70.7959 N   0  0  0  0  0  0  0  0  0  0  0  0
   -7.5534   26.8844   64.6862 O   0  0  0  0  0  0  0  0  0  0  0  0
   -7.7772   27.4795   67.0079 O   0  0  0  0  0  0  0  0  0  0  0  0
   -6.5087   24.3018   68.6175 O   0  0  0  0  0  0  0  0  0  0  0  0
   -8.2161   26.9865   69.9217 O   0  0  0  0  0  0  0  0  0  0  0  0
   -7.3110   22.9242   70.3499 O   0  0  0  0  0  0  0  0  0  0  0  0
   -8.5590   22.2047   70.1950 C   0  0  2  0  0  0  0  0  0  0  0  0
   -8.4730   20.7397   70.6846 C   0  0  1  0  0  0  0  0  0  0  0  0
   -7.5076   19.9066   69.7811 C   0  0  2  0  0  0  0  0  0  0  0  0
   -8.0291   19.9216   68.3585 C   0  0  1  0  0  0  0  0  0  0  0  0
   -8.0878   21.3959   67.8579 C   0  0  1  0  0  0  0  0  0  0  0  0
   -8.6269   21.4996   66.4325 C   0  0  0  0  0  0  0  0  0  0  0  0
   -7.1302   19.1143   67.4987 N   0  0  0  0  0  0  0  0  0  0  0  0
   -8.9735   22.1943   68.7602 O   0  0  0  0  0  0  0  0  0  0  0  0
   -8.0466   20.7702   72.0649 O   0  0  0  0  0  0  0  0  0  0  0  0
   -7.4564   18.5547   70.2425 O   0  0  0  0  0  0  0  0  0  0  0  0
   -9.8843   20.8721   66.3640 O   0  0  0  0  0  0  0  0  0  0  0  0
   -8.3470   25.6084   64.8651 C   0  0  1  0  0  0  0  0  0  0  0  0
   -9.8036   25.8687   64.3924 C   0  0  1  0  0  0  0  0  0  0  0  0
  -10.6581   24.5793   64.5633 C   0  0  2  0  0  0  0  0  0  0  0  0
  -10.0380   23.4427   63.7135 C   0  0  1  0  0  0  0  0  0  0  0  0
   -8.5655   23.1519   64.1765 C   0  0  0  0  0  0  0  0  0  0  0  0
   -7.7427   24.4476   64.0135 C   0  0  2  0  0  0  0  0  0  0  0  0
  -10.8484   22.2102   63.8629 N   0  0  0  0  0  0  0  0  0  0  0  0
   -6.3700   24.1682   64.4490 N   0  0  0  0  0  0  0  0  0  0  0  0
  -10.3830   26.9304   65.1827 O   0  0  0  0  0  0  0  0  0  0  0  0
  -12.0075   24.8500   64.1231 O   0  0  0  0  0  0  0  0  0  0  0  0
  1  2  1  0  0  0  0
  1 12  1  6  0  0  0
  1 13  1  0  0  0  0
  2  3  1  0  0  0  0
  2 10  1  6  0  0  0
  4  3  1  6  0  0  0
  4  5  1  0  0  0  0
  4 14  1  0  0  0  0
  5  6  1  0  0  0  0
  5 13  1  1  0  0  0
  6  7  1  0  0  0  0
  6 15  1  1  0  0  0
  7  8  1  0  0  0  0
  7 11  1  1  0  0  0
  8 14  1  0  0  0  0
  8 16  1  6  0  0  0
  9 11  1  0  0  0  0
 17 16  1  6  0  0  0
 17 18  1  0  0  0  0
 17 24  1  0  0  0  0
 18 19  1  0  0  0  0
 18 25  1  1  0  0  0
 19 20  1  0  0  0  0
 19 26  1  1  0  0  0
 20 21  1  0  0  0  0
 20 23  1  6  0  0  0
 21 22  1  6  0  0  0
 21 24  1  0  0  0  0
 22 27  1  0  0  0  0
 28 12  1  6  0  0  0
 28 29  1  0  0  0  0
 28 33  1  0  0  0  0
 29 30  1  0  0  0  0
 29 36  1  1  0  0  0
 30 31  1  0  0  0  0
 30 37  1  6  0  0  0
 31 32  1  0  0  0  0
 31 34  1  1  0  0  0
 32 33  1  0  0  0  0
 33 35  1  1  0  0  0
M  END
>  <CHROM.1>
87.58417977,38.63332099,13.43212517,117.94081711,176.18205181,55.30518853
-8.27285719,23.92462063,67.36359681,-1.59846757,1.22962399,2.41957163

>  <Name>
ligand

>  <RI>
0

>  <Rbt.Current_Directory>
/home/itssahil/PROJECTS/Mol_Feturizer/Test_systems_manuscript/rnas/2g5k

>  <Rbt.Executable>
rbdock ($Id: //depot/dev/client3/rdock/2013.1/src/exe/rbdock.cxx#4 $)

>  <Rbt.Library>
libRbt.so (2013.1, Build901 2013/11/27)

>  <Rbt.Parameter_File>
/export/apps/rDock/src/rDock_2013.1_src/data/scripts/dock_solv.prm

>  <Rbt.Receptor>
prm/blind_docking_100.prm

>  <SCORE>
35.9919

>  <SCORE.INTER>
5.24539

>  <SCORE.INTER.CONST>
1

>  <SCORE.INTER.POLAR>
0

>  <SCORE.INTER.ROT>
6

>  <SCORE.INTER.SOLV>
30.3154

>  <SCORE.INTER.VDW>
-14.2082

>  <SCORE.INTER.norm>
0.141767

>  <SCORE.INTRA>
14.9644

>  <SCORE.INTRA.DIHEDRAL>
5.75003

>  <SCORE.INTRA.DIHEDRAL.0>
11.3972

>  <SCORE.INTRA.POLAR>
0

>  <SCORE.INTRA.POLAR.0>
0

>  <SCORE.INTRA.REPUL>
0

>  <SCORE.INTRA.REPUL.0>
0

>  <SCORE.INTRA.SOLV>
7.74842

>  <SCORE.INTRA.SOLV.lig_0>
-92.3891

>  <SCORE.INTRA.VDW>
8.21516

>  <SCORE.INTRA.VDW.0>
-2.90606

>  <SCORE.INTRA.norm>
0.404443

>  <SCORE.RESTR>
15.7821

>  <SCORE.RESTR.CAVITY>
15.7821

>  <SCORE.RESTR.norm>
0.426544

>  <SCORE.SYSTEM>
0

>  <SCORE.SYSTEM.CONST>
0

>  <SCORE.SYSTEM.DIHEDRAL>
0

>  <SCORE.SYSTEM.SOLV>
0

>  <SCORE.SYSTEM.norm>
0

>  <SCORE.heavy>
37

>  <SCORE.norm>
0.972754

>  <RMSD>
9.356

$$$$
ligand
 OpenBabel02271912133D
libRbt.so/2013.1/901 2013/11/27
 37 40  0  0  0  0  0  0  0  0999 V2000
   -9.7892   20.3064   68.3857 C   0  0  1  0  0  0  0  0  0  0  0  0
   -8.4322   19.7506   67.8678 C   0  0  1  0  0  0  0  0  0  0  0  0
   -7.5429   20.8601   67.2749 C   0  0  0  0  0  0  0  0  0  0  0  0
   -8.3251   21.5775   66.1308 C   0  0  1  0  0  0  0  0  0  0  0  0
   -9.6633   22.1784   66.6710 C   0  0  1  0  0  0  0  0  0  0  0  0
  -10.4464   22.9043   65.4858 C   0  0  1  0  0  0  0  0  0  0  0  0
   -9.5448   24.0300   64.8995 C   0  0  1  0  0  0  0  0  0  0  0  0
   -8.2153   23.3810   64.4097 C   0  0  2  0  0  0  0  0  0  0  0  0
  -11.2448   25.8046   64.0803 C   0  0  0  0  0  0  0  0  0  0  0  0
   -7.7165   19.0362   68.9460 N   0  0  0  0  0  0  0  0  0  0  0  0
  -10.2484   24.7328   63.7620 N   0  0  0  0  0  0  0  0  0  0  0  0
   -9.6361   21.1429   69.5489 O   0  0  0  0  0  0  0  0  0  0  0  0
  -10.4403   21.0589   67.2816 O   0  0  0  0  0  0  0  0  0  0  0  0
   -7.5251   22.6775   65.4987 O   0  0  0  0  0  0  0  0  0  0  0  0
  -10.7227   21.9701   64.4504 O   0  0  0  0  0  0  0  0  0  0  0  0
   -7.3500   24.3799   63.8819 O   0  0  0  0  0  0  0  0  0  0  0  0
   -7.6861   25.7276   64.2944 C   0  0  2  0  0  0  0  0  0  0  0  0
   -6.6371   26.7726   63.8459 C   0  0  1  0  0  0  0  0  0  0  0  0
   -5.2750   26.5431   64.5770 C   0  0  2  0  0  0  0  0  0  0  0  0
   -5.4908   26.6705   66.0714 C   0  0  1  0  0  0  0  0  0  0  0  0
   -6.5262   25.5982   66.5251 C   0  0  1  0  0  0  0  0  0  0  0  0
   -6.8171   25.6752   68.0226 C   0  0  0  0  0  0  0  0  0  0  0  0
   -4.1980   26.4761   66.7713 N   0  0  0  0  0  0  0  0  0  0  0  0
   -7.8082   25.7965   65.7812 O   0  0  0  0  0  0  0  0  0  0  0  0
   -6.5150   26.6727   62.4096 O   0  0  0  0  0  0  0  0  0  0  0  0
   -4.3276   27.5285   64.1592 O   0  0  0  0  0  0  0  0  0  0  0  0
   -7.4545   26.8960   68.3105 O   0  0  0  0  0  0  0  0  0  0  0  0
   -9.1594   22.5775   69.4814 C   0  0  1  0  0  0  0  0  0  0  0  0
  -10.3990   23.5090   69.5736 C   0  0  1  0  0  0  0  0  0  0  0  0
   -9.9531   24.9984   69.5040 C   0  0  2  0  0  0  0  0  0  0  0  0
   -8.9968   25.2980   70.6847 C   0  0  1  0  0  0  0  0  0  0  0  0
   -7.7282   24.3748   70.6116 C   0  0  0  0  0  0  0  0  0  0  0  0
   -8.1961   22.9049   70.6658 C   0  0  2  0  0  0  0  0  0  0  0  0
   -8.5707   26.7172   70.6328 N   0  0  0  0  0  0  0  0  0  0  0  0
   -7.0063   22.0497   70.5957 N   0  0  0  0  0  0  0  0  0  0  0  0
  -11.2934   23.2293   68.4740 O   0  0  0  0  0  0  0  0  0  0  0  0
  -11.1234   25.8419   69.5854 O   0  0  0  0  0  0  0  0  0  0  0  0
  1  2  1  0  0  0  0
  1 12  1  1  0  0  0
  1 13  1  0  0  0  0
  2  3  1  0  0  0  0
  2 10  1  1  0  0  0
  4  3  1  1  0  0  0
  4  5  1  0  0  0  0
  4 14  1  0  0  0  0
  5  6  1  0  0  0  0
  5 13  1  6  0  0  0
  6  7  1  0  0  0  0
  6 15  1  6  0  0  0
  7  8  1  0  0  0  0
  7 11  1  6  0  0  0
  8 14  1  0  0  0  0
  8 16  1  1  0  0  0
  9 11  1  0  0  0  0
 17 16  1  1  0  0  0
 17 18  1  0  0  0  0
 17 24  1  0  0  0  0
 18 19  1  0  0  0  0
 18 25  1  6  0  0  0
 19 20  1  0  0  0  0
 19 26  1  6  0  0  0
 20 21  1  0  0  0  0
 20 23  1  1  0  0  0
 21 22  1  1  0  0  0
 21 24  1  0  0  0  0
 22 27  1  0  0  0  0
 28 12  1  1  0  0  0
 28 29  1  0  0  0  0
 28 33  1  0  0  0  0
 29 30  1  0  0  0  0
 29 36  1  6  0  0  0
 30 31  1  0  0  0  0
 30 37  1  1  0  0  0
 31 32  1  0  0  0  0
 31 34  1  6  0  0  0
 32 33  1  0  0  0  0
 33 35  1  6  0  0  0
M  END
>  <CHROM.1>
77.96520025,81.80624195,18.48500597,100.08079728,173.21526192,65.58973021
-8.33775965,24.01242200,66.96944420,2.43613399,1.01125713,1.54703517

>  <Name>
ligand

>  <RI>
0

>  <Rbt.Current_Directory>
/home/itssahil/PROJECTS/Mol_Feturizer/Test_systems_manuscript/rnas/2g5k

>  <Rbt.Executable>
rbdock ($Id: //depot/dev/client3/rdock/2013.1/src/exe/rbdock.cxx#4 $)

>  <Rbt.Library>
libRbt.so (2013.1, Build901 2013/11/27)

>  <Rbt.Parameter_File>
/export/apps/rDock/src/rDock_2013.1_src/data/scripts/dock_solv.prm

>  <Rbt.Receptor>
prm/blind_docking_100.prm

>  <SCORE>
29.1119

>  <SCORE.INTER>
6.69206

>  <SCORE.INTER.CONST>
1

>  <SCORE.INTER.POLAR>
0

>  <SCORE.INTER.ROT>
6

>  <SCORE.INTER.SOLV>
27.9155

>  <SCORE.INTER.VDW>
-12.4438

>  <SCORE.INTER.norm>
0.180867

>  <SCORE.INTRA>
8.58844

>  <SCORE.INTRA.DIHEDRAL>
1.82279

>  <SCORE.INTRA.DIHEDRAL.0>
11.3972

>  <SCORE.INTRA.POLAR>
0

>  <SCORE.INTRA.POLAR.0>
0

>  <SCORE.INTRA.REPUL>
0

>  <SCORE.INTRA.REPUL.0>
0

>  <SCORE.INTRA.SOLV>
6.90397

>  <SCORE.INTRA.SOLV.lig_0>
-92.3891

>  <SCORE.INTRA.VDW>
4.22506

>  <SCORE.INTRA.VDW.0>
-2.90606

>  <SCORE.INTRA.norm>
0.23212

>  <SCORE.RESTR>
13.8314

>  <SCORE.RESTR.CAVITY>
13.8314

>  <SCORE.RESTR.norm>
0.373822

>  <SCORE.SYSTEM>
0

>  <SCORE.SYSTEM.CONST>
0

>  <SCORE.SYSTEM.DIHEDRAL>
0

>  <SCORE.SYSTEM.SOLV>
0

>  <SCORE.SYSTEM.norm>
0

>  <SCORE.heavy>
37

>  <SCORE.norm>
0.786808

>  <RMSD>
9.364

$$$$
ligand
 OpenBabel02271912133D
libRbt.so/2013.1/901 2013/11/27
 37 40  0  0  0  0  0  0  0  0999 V2000
   -6.8965   29.3128   65.4892 C   0  0  1  0  0  0  0  0  0  0  0  0
   -6.5068   30.8155   65.3970 C   0  0  1  0  0  0  0  0  0  0  0  0
   -5.3736   31.0563   64.3815 C   0  0  0  0  0  0  0  0  0  0  0  0
   -4.1428   30.1843   64.7815 C   0  0  1  0  0  0  0  0  0  0  0  0
   -4.5298   28.6703   64.8212 C   0  0  1  0  0  0  0  0  0  0  0  0
   -3.2589   27.7988   65.2336 C   0  0  1  0  0  0  0  0  0  0  0  0
   -2.1227   28.0404   64.1970 C   0  0  1  0  0  0  0  0  0  0  0  0
   -1.8028   29.5655   64.1744 C   0  0  2  0  0  0  0  0  0  0  0  0
   -0.0474   26.6737   63.4653 C   0  0  0  0  0  0  0  0  0  0  0  0
   -7.6866   31.6397   65.0591 N   0  0  0  0  0  0  0  0  0  0  0  0
   -0.8939   27.2410   64.5628 N   0  0  0  0  0  0  0  0  0  0  0  0
   -7.5378   28.8335   64.2912 O   0  0  0  0  0  0  0  0  0  0  0  0
   -5.6685   28.5262   65.7765 O   0  0  0  0  0  0  0  0  0  0  0  0
   -2.9906   30.3610   63.8376 O   0  0  0  0  0  0  0  0  0  0  0  0
   -2.7903   28.2087   66.5118 O   0  0  0  0  0  0  0  0  0  0  0  0
   -0.7795   29.8355   63.2232 O   0  0  0  0  0  0  0  0  0  0  0  0
    0.2166   30.7820   63.6826 C   0  0  2  0  0  0  0  0  0  0  0  0
    1.4009   30.9333   62.6988 C   0  0  1  0  0  0  0  0  0  0  0  0
    2.2288   29.6103   62.6166 C   0  0  2  0  0  0  0  0  0  0  0  0
    2.7699   29.2818   63.9932 C   0  0  1  0  0  0  0  0  0  0  0  0
    1.5741   29.1018   64.9758 C   0  0  1  0  0  0  0  0  0  0  0  0
    2.0380   28.7890   66.3971 C   0  0  0  0  0  0  0  0  0  0  0  0
    3.5755   28.0390   63.9192 N   0  0  0  0  0  0  0  0  0  0  0  0
    0.7606   30.3562   65.0067 O   0  0  0  0  0  0  0  0  0  0  0  0
    0.8524   31.3203   61.4192 O   0  0  0  0  0  0  0  0  0  0  0  0
    3.3251   29.7788   61.7150 O   0  0  0  0  0  0  0  0  0  0  0  0
    0.9143   28.6108   67.2247 O   0  0  0  0  0  0  0  0  0  0  0  0
   -8.1162   27.4412   64.1607 C   0  0  1  0  0  0  0  0  0  0  0  0
   -6.9900   26.4143   64.4608 C   0  0  1  0  0  0  0  0  0  0  0  0
   -7.5424   24.9649   64.3337 C   0  0  2  0  0  0  0  0  0  0  0  0
   -8.6974   24.7709   65.3469 C   0  0  1  0  0  0  0  0  0  0  0  0
   -9.8559   25.7923   65.0609 C   0  0  0  0  0  0  0  0  0  0  0  0
   -9.2811   27.2201   65.1765 C   0  0  2  0  0  0  0  0  0  0  0  0
   -9.2273   23.3902   65.2397 N   0  0  0  0  0  0  0  0  0  0  0  0
  -10.3682   28.1674   64.9069 N   0  0  0  0  0  0  0  0  0  0  0  0
   -5.9105   26.5953   63.5179 O   0  0  0  0  0  0  0  0  0  0  0  0
   -6.4753   24.0311   64.6111 O   0  0  0  0  0  0  0  0  0  0  0  0
  1  2  1  0  0  0  0
  1 12  1  6  0  0  0
  1 13  1  0  0  0  0
  2  3  1  0  0  0  0
  2 10  1  6  0  0  0
  4  3  1  6  0  0  0
  4  5  1  0  0  0  0
  4 14  1  0  0  0  0
  5  6  1  0  0  0  0
  5 13  1  1  0  0  0
  6  7  1  0  0  0  0
  6 15  1  1  0  0  0
  7  8  1  0  0  0  0
  7 11  1  1  0  0  0
  8 14  1  0  0  0  0
  8 16  1  6  0  0  0
  9 11  1  0  0  0  0
 17 16  1  6  0  0  0
 17 18  1  0  0  0  0
 17 24  1  0  0  0  0
 18 19  1  0  0  0  0
 18 25  1  6  0  0  0
 19 20  1  0  0  0  0
 19 26  1  6  0  0  0
 20 21  1  0  0  0  0
 20 23  1  6  0  0  0
 21 22  1  1  0  0  0
 21 24  1  0  0  0  0
 22 27  1  0  0  0  0
 28 12  1  1  0  0  0
 28 29  1  0  0  0  0
 28 33  1  0  0  0  0
 29 30  1  0  0  0  0
 29 36  1  6  0  0  0
 30 31  1  0  0  0  0
 30 37  1  1  0  0  0
 31 32  1  0  0  0  0
 31 34  1  6  0  0  0
 32 33  1  0  0  0  0
 33 35  1  6  0  0  0
M  END
>  <CHROM.1>
-174.89471483,145.07962407,-137.86339302,-56.73114506,173.36285741,-178.75807419
-3.34500434,28.44424319,64.46863080,2.86451199,-0.08175207,3.03047561

>  <Name>
ligand

>  <RI>
0

>  <Rbt.Current_Directory>
/home/itssahil/PROJECTS/Mol_Feturizer/Test_systems_manuscript/rnas/2g5k

>  <Rbt.Executable>
rbdock ($Id: //depot/dev/client3/rdock/2013.1/src/exe/rbdock.cxx#4 $)

>  <Rbt.Library>
libRbt.so (2013.1, Build901 2013/11/27)

>  <Rbt.Parameter_File>
/export/apps/rDock/src/rDock_2013.1_src/data/scripts/dock_solv.prm

>  <Rbt.Receptor>
prm/pocket_docking_6.prm

>  <SCORE>
-14.5151

>  <SCORE.INTER>
-11.7534

>  <SCORE.INTER.CONST>
1

>  <SCORE.INTER.POLAR>
0

>  <SCORE.INTER.ROT>
6

>  <SCORE.INTER.SOLV>
11.7814

>  <SCORE.INTER.VDW>
-19.3627

>  <SCORE.INTER.norm>
-0.317659

>  <SCORE.INTRA>
-2.76173

>  <SCORE.INTRA.DIHEDRAL>
-4.50452

>  <SCORE.INTRA.DIHEDRAL.0>
11.3972

>  <SCORE.INTRA.POLAR>
0

>  <SCORE.INTRA.POLAR.0>
0

>  <SCORE.INTRA.REPUL>
0.0146695

>  <SCORE.INTRA.REPUL.0>
0

>  <SCORE.INTRA.SOLV>
1.46199

>  <SCORE.INTRA.SOLV.lig_0>
-92.3891

>  <SCORE.INTRA.VDW>
-1.31381

>  <SCORE.INTRA.VDW.0>
-2.90606

>  <SCORE.INTRA.norm>
-0.0746412

>  <SCORE.RESTR>
0

>  <SCORE.RESTR.CAVITY>
0

>  <SCORE.RESTR.norm>
0

>  <SCORE.SYSTEM>
0

>  <SCORE.SYSTEM.CONST>
0

>  <SCORE.SYSTEM.DIHEDRAL>
0

>  <SCORE.SYSTEM.SOLV>
0

>  <SCORE.SYSTEM.norm>
0

>  <SCORE.heavy>
37

>  <SCORE.norm>
-0.3923

>  <RMSD>
9.389

$$$$
ligand
 OpenBabel02271912133D
libRbt.so/2013.1/901 2013/11/27
 37 40  0  0  0  0  0  0  0  0999 V2000
   -7.8471   24.4557   65.4870 C   0  0  1  0  0  0  0  0  0  0  0  0
   -7.0187   23.5013   66.3933 C   0  0  1  0  0  0  0  0  0  0  0  0
   -6.2544   24.2665   67.4904 C   0  0  0  0  0  0  0  0  0  0  0  0
   -5.3358   25.3330   66.8164 C   0  0  1  0  0  0  0  0  0  0  0  0
   -6.1823   26.3201   65.9488 C   0  0  1  0  0  0  0  0  0  0  0  0
   -5.2241   27.3989   65.2686 C   0  0  1  0  0  0  0  0  0  0  0  0
   -4.4636   28.1740   66.3843 C   0  0  1  0  0  0  0  0  0  0  0  0
   -3.6673   27.1404   67.2365 C   0  0  2  0  0  0  0  0  0  0  0  0
   -3.1584   30.4027   66.5839 C   0  0  0  0  0  0  0  0  0  0  0  0
   -7.8887   22.4686   66.9947 N   0  0  0  0  0  0  0  0  0  0  0  0
   -3.5329   29.1977   65.7772 N   0  0  0  0  0  0  0  0  0  0  0  0
   -8.9570   25.0547   66.1838 O   0  0  0  0  0  0  0  0  0  0  0  0
   -6.9375   25.5029   64.9529 O   0  0  0  0  0  0  0  0  0  0  0  0
   -4.5540   26.1258   67.8213 O   0  0  0  0  0  0  0  0  0  0  0  0
   -4.2654   26.7411   64.4505 O   0  0  0  0  0  0  0  0  0  0  0  0
   -2.9700   27.8052   68.2838 O   0  0  0  0  0  0  0  0  0  0  0  0
   -2.1023   26.9391   69.0559 C   0  0  2  0  0  0  0  0  0  0  0  0
   -1.2138   27.7156   70.0564 C   0  0  1  0  0  0  0  0  0  0  0  0
   -0.1817   28.6149   69.3026 C   0  0  2  0  0  0  0  0  0  0  0  0
    0.6999   27.7353   68.4395 C   0  0  1  0  0  0  0  0  0  0  0  0
   -0.1943   26.9760   67.4140 C   0  0  1  0  0  0  0  0  0  0  0  0
    0.6202   26.0462   66.5165 C   0  0  0  0  0  0  0  0  0  0  0  0
    1.6969   28.5792   67.7376 N   0  0  0  0  0  0  0  0  0  0  0  0
   -1.2104   26.1593   68.1465 O   0  0  0  0  0  0  0  0  0  0  0  0
   -2.0928   28.4822   70.9095 O   0  0  0  0  0  0  0  0  0  0  0  0
    0.6372   29.3096   70.2459 O   0  0  0  0  0  0  0  0  0  0  0  0
   -0.2438   25.3886   65.6219 O   0  0  0  0  0  0  0  0  0  0  0  0
  -10.0233   25.8768   65.4931 C   0  0  1  0  0  0  0  0  0  0  0  0
   -9.3439   27.1170   64.8503 C   0  0  1  0  0  0  0  0  0  0  0  0
  -10.4084   27.9947   64.1303 C   0  0  2  0  0  0  0  0  0  0  0  0
  -11.0955   27.1554   63.0250 C   0  0  1  0  0  0  0  0  0  0  0  0
  -11.7994   25.8973   63.6488 C   0  0  0  0  0  0  0  0  0  0  0  0
  -10.7281   25.0521   64.3702 C   0  0  2  0  0  0  0  0  0  0  0  0
  -12.1076   27.9841   62.3270 N   0  0  0  0  0  0  0  0  0  0  0  0
  -11.3932   23.8805   64.9508 N   0  0  0  0  0  0  0  0  0  0  0  0
   -8.7003   27.9002   65.8798 O   0  0  0  0  0  0  0  0  0  0  0  0
   -9.7523   29.1427   63.5476 O   0  0  0  0  0  0  0  0  0  0  0  0
  1  2  1  0  0  0  0
  1 12  1  1  0  0  0
  1 13  1  0  0  0  0
  2  3  1  0  0  0  0
  2 10  1  1  0  0  0
  4  3  1  1  0  0  0
  4  5  1  0  0  0  0
  4 14  1  0  0  0  0
  5  6  1  0  0  0  0
  5 13  1  6  0  0  0
  6  7  1  0  0  0  0
  6 15  1  6  0  0  0
  7  8  1  0  0  0  0
  7 11  1  6  0  0  0
  8 14  1  0  0  0  0
  8 16  1  1  0  0  0
  9 11  1  0  0  0  0
 17 16  1  6  0  0  0
 17 18  1  0  0  0  0
 17 24  1  0  0  0  0
 18 19  1  0  0  0  0
 18 25  1  6  0  0  0
 19 20  1  0  0  0  0
 19 26  1  1  0  0  0
 20 21  1  0  0  0  0
 20 23  1  6  0  0  0
 21 22  1  1  0  0  0
 21 24  1  0  0  0  0
 22 27  1  0  0  0  0
 28 12  1  6  0  0  0
 28 29  1  0  0  0  0
 28 33  1  0  0  0  0
 29 30  1  0  0  0  0
 29 36  1  1  0  0  0
 30 31  1  0  0  0  0
 30 37  1  6  0  0  0
 31 32  1  0  0  0  0
 31 34  1  1  0  0  0
 32 33  1  0  0  0  0
 33 35  1  1  0  0  0
M  END
>  <CHROM.1>
-171.76414889,154.37513039,-174.63078360,-61.62387610,172.11795378,179.70646965
-5.28195213,26.77442214,66.44528242,-3.09538652,-0.41433068,-0.26930930

>  <Name>
ligand

>  <RI>
0

>  <Rbt.Current_Directory>
/home/itssahil/PROJECTS/Mol_Feturizer/Test_systems_manuscript/rnas/2g5k

>  <Rbt.Executable>
rbdock ($Id: //depot/dev/client3/rdock/2013.1/src/exe/rbdock.cxx#4 $)

>  <Rbt.Library>
libRbt.so (2013.1, Build901 2013/11/27)

>  <Rbt.Parameter_File>
/export/apps/rDock/src/rDock_2013.1_src/data/scripts/dock_solv.prm

>  <Rbt.Receptor>
prm/pocket_docking_7.prm

>  <SCORE>
-15.3111

>  <SCORE.INTER>
-9.49163

>  <SCORE.INTER.CONST>
1

>  <SCORE.INTER.POLAR>
0

>  <SCORE.INTER.ROT>
6

>  <SCORE.INTER.SOLV>
12.6935

>  <SCORE.INTER.VDW>
-18.1589

>  <SCORE.INTER.norm>
-0.256531

>  <SCORE.INTRA>
-5.81943

>  <SCORE.INTRA.DIHEDRAL>
-10.1108

>  <SCORE.INTRA.DIHEDRAL.0>
11.3972

>  <SCORE.INTRA.POLAR>
0

>  <SCORE.INTRA.POLAR.0>
0

>  <SCORE.INTRA.REPUL>
0

>  <SCORE.INTRA.REPUL.0>
0

>  <SCORE.INTRA.SOLV>
-0.784264

>  <SCORE.INTRA.SOLV.lig_0>
-92.3891

>  <SCORE.INTRA.VDW>
-0.371889

>  <SCORE.INTRA.VDW.0>
-2.90606

>  <SCORE.INTRA.norm>
-0.157282

>  <SCORE.RESTR>
0

>  <SCORE.RESTR.CAVITY>
0

>  <SCORE.RESTR.norm>
0

>  <SCORE.SYSTEM>
0

>  <SCORE.SYSTEM.CONST>
0

>  <SCORE.SYSTEM.DIHEDRAL>
0

>  <SCORE.SYSTEM.SOLV>
0

>  <SCORE.SYSTEM.norm>
0

>  <SCORE.heavy>
37

>  <SCORE.norm>
-0.413812

>  <RMSD>
9.396

$$$$
ligand
 OpenBabel02271912133D
libRbt.so/2013.1/901 2013/11/27
 37 40  0  0  0  0  0  0  0  0999 V2000
   -9.6782   20.1302   68.0739 C   0  0  1  0  0  0  0  0  0  0  0  0
   -8.2603   19.7463   67.5634 C   0  0  1  0  0  0  0  0  0  0  0  0
   -7.4599   20.9792   67.1020 C   0  0  0  0  0  0  0  0  0  0  0  0
   -8.2698   21.7217   65.9938 C   0  0  1  0  0  0  0  0  0  0  0  0
   -9.6739   22.1501   66.5310 C   0  0  1  0  0  0  0  0  0  0  0  0
  -10.4842   22.9047   65.3826 C   0  0  1  0  0  0  0  0  0  0  0  0
   -9.6733   24.1541   64.9295 C   0  0  1  0  0  0  0  0  0  0  0  0
   -8.2749   23.6728   64.4380 C   0  0  2  0  0  0  0  0  0  0  0  0
  -10.9858   26.2369   64.1237 C   0  0  0  0  0  0  0  0  0  0  0  0
   -7.5148   19.0066   68.6038 N   0  0  0  0  0  0  0  0  0  0  0  0
  -10.4037   24.8886   63.8297 N   0  0  0  0  0  0  0  0  0  0  0  0
   -9.6392   20.8711   69.3092 O   0  0  0  0  0  0  0  0  0  0  0  0
  -10.3621   20.9159   67.0136 O   0  0  0  0  0  0  0  0  0  0  0  0
   -7.5561   22.9406   65.4890 O   0  0  0  0  0  0  0  0  0  0  0  0
  -10.6407   22.0445   64.2615 O   0  0  0  0  0  0  0  0  0  0  0  0
   -7.4902   24.7880   64.0310 O   0  0  0  0  0  0  0  0  0  0  0  0
   -7.6108   25.9411   64.8999 C   0  0  2  0  0  0  0  0  0  0  0  0
   -6.8437   27.1757   64.3701 C   0  0  1  0  0  0  0  0  0  0  0  0
   -5.3017   26.9218   64.3854 C   0  0  2  0  0  0  0  0  0  0  0  0
   -4.8630   26.6416   65.8084 C   0  0  1  0  0  0  0  0  0  0  0  0
   -5.6158   25.3810   66.3298 C   0  0  1  0  0  0  0  0  0  0  0  0
   -5.2442   25.0433   67.7723 C   0  0  0  0  0  0  0  0  0  0  0  0
   -3.3968   26.4215   65.8347 N   0  0  0  0  0  0  0  0  0  0  0  0
   -7.0909   25.6171   66.2620 O   0  0  0  0  0  0  0  0  0  0  0  0
   -7.3424   27.4572   63.0434 O   0  0  0  0  0  0  0  0  0  0  0  0
   -4.6140   28.0801   63.9072 O   0  0  0  0  0  0  0  0  0  0  0  0
   -4.4404   26.0712   68.2985 O   0  0  0  0  0  0  0  0  0  0  0  0
   -9.0996   22.2811   69.4136 C   0  0  1  0  0  0  0  0  0  0  0  0
  -10.2962   23.2469   69.6330 C   0  0  1  0  0  0  0  0  0  0  0  0
   -9.7850   24.7128   69.7423 C   0  0  2  0  0  0  0  0  0  0  0  0
   -8.8102   24.8227   70.9406 C   0  0  1  0  0  0  0  0  0  0  0  0
   -7.5841   23.8615   70.7408 C   0  0  0  0  0  0  0  0  0  0  0  0
   -8.1165   22.4178   70.6188 C   0  0  2  0  0  0  0  0  0  0  0  0
   -8.3217   26.2177   71.0590 N   0  0  0  0  0  0  0  0  0  0  0  0
   -6.9661   21.5270   70.4313 N   0  0  0  0  0  0  0  0  0  0  0  0
  -11.2080   23.1441   68.5170 O   0  0  0  0  0  0  0  0  0  0  0  0
  -10.9163   25.5898   69.9394 O   0  0  0  0  0  0  0  0  0  0  0  0
  1  2  1  0  0  0  0
  1 12  1  1  0  0  0
  1 13  1  0  0  0  0
  2  3  1  0  0  0  0
  2 10  1  1  0  0  0
  4  3  1  1  0  0  0
  4  5  1  0  0  0  0
  4 14  1  0  0  0  0
  5  6  1  0  0  0  0
  5 13  1  6  0  0  0
  6  7  1  0  0  0  0
  6 15  1  6  0  0  0
  7  8  1  0  0  0  0
  7 11  1  6  0  0  0
  8 14  1  0  0  0  0
  8 16  1  1  0  0  0
  9 11  1  0  0  0  0
 17 16  1  6  0  0  0
 17 18  1  0  0  0  0
 17 24  1  0  0  0  0
 18 19  1  0  0  0  0
 18 25  1  6  0  0  0
 19 20  1  0  0  0  0
 19 26  1  1  0  0  0
 20 21  1  0  0  0  0
 20 23  1  6  0  0  0
 21 22  1  1  0  0  0
 21 24  1  0  0  0  0
 22 27  1  0  0  0  0
 28 12  1  1  0  0  0
 28 29  1  0  0  0  0
 28 33  1  0  0  0  0
 29 30  1  0  0  0  0
 29 36  1  6  0  0  0
 30 31  1  0  0  0  0
 30 37  1  1  0  0  0
 31 32  1  0  0  0  0
 31 34  1  6  0  0  0
 32 33  1  0  0  0  0
 33 35  1  6  0  0  0
M  END
>  <CHROM.1>
68.54558699,110.99088668,40.87936880,108.16795256,-175.11846410,7.37330398
-8.11188105,23.96438555,66.95804519,2.22714021,0.77561342,1.92592394

>  <Name>
ligand

>  <RI>
0

>  <Rbt.Current_Directory>
/home/itssahil/PROJECTS/Mol_Feturizer/Test_systems_manuscript/rnas/2g5k

>  <Rbt.Executable>
rbdock ($Id: //depot/dev/client3/rdock/2013.1/src/exe/rbdock.cxx#4 $)

>  <Rbt.Library>
libRbt.so (2013.1, Build901 2013/11/27)

>  <Rbt.Parameter_File>
/export/apps/rDock/src/rDock_2013.1_src/data/scripts/dock_solv.prm

>  <Rbt.Receptor>
prm/blind_docking_100.prm

>  <SCORE>
32.9376

>  <SCORE.INTER>
13.8615

>  <SCORE.INTER.CONST>
1

>  <SCORE.INTER.POLAR>
0

>  <SCORE.INTER.ROT>
6

>  <SCORE.INTER.SOLV>
31.6011

>  <SCORE.INTER.VDW>
-8.89269

>  <SCORE.INTER.norm>
0.374635

>  <SCORE.INTRA>
5.58646

>  <SCORE.INTRA.DIHEDRAL>
3.49988

>  <SCORE.INTRA.DIHEDRAL.0>
11.3972

>  <SCORE.INTRA.POLAR>
0

>  <SCORE.INTRA.POLAR.0>
0

>  <SCORE.INTRA.REPUL>
0

>  <SCORE.INTRA.REPUL.0>
0

>  <SCORE.INTRA.SOLV>
5.08406

>  <SCORE.INTRA.SOLV.lig_0>
-92.3891

>  <SCORE.INTRA.VDW>
1.29449

>  <SCORE.INTRA.VDW.0>
-2.90606

>  <SCORE.INTRA.norm>
0.150985

>  <SCORE.RESTR>
13.4896

>  <SCORE.RESTR.CAVITY>
13.4896

>  <SCORE.RESTR.norm>
0.364584

>  <SCORE.SYSTEM>
0

>  <SCORE.SYSTEM.CONST>
0

>  <SCORE.SYSTEM.DIHEDRAL>
0

>  <SCORE.SYSTEM.SOLV>
0

>  <SCORE.SYSTEM.norm>
0

>  <SCORE.heavy>
37

>  <SCORE.norm>
0.890205

>  <RMSD>
9.400

$$$$
ligand
 OpenBabel02271912133D
libRbt.so/2013.1/901 2013/11/27
 37 40  0  0  0  0  0  0  0  0999 V2000
   -9.6802   20.1287   68.0713 C   0  0  1  0  0  0  0  0  0  0  0  0
   -8.2581   19.7672   67.5560 C   0  0  1  0  0  0  0  0  0  0  0  0
   -7.4794   21.0123   67.0904 C   0  0  0  0  0  0  0  0  0  0  0  0
   -8.3051   21.7406   65.9845 C   0  0  1  0  0  0  0  0  0  0  0  0
   -9.7140   22.1469   66.5264 C   0  0  1  0  0  0  0  0  0  0  0  0
  -10.5405   22.8871   65.3803 C   0  0  1  0  0  0  0  0  0  0  0  0
   -9.7515   24.1489   64.9230 C   0  0  1  0  0  0  0  0  0  0  0  0
   -8.3474   23.6897   64.4269 C   0  0  2  0  0  0  0  0  0  0  0  0
  -10.9924   26.2609   64.0804 C   0  0  0  0  0  0  0  0  0  0  0  0
   -7.4970   19.0407   68.5943 N   0  0  0  0  0  0  0  0  0  0  0  0
  -10.4977   24.8705   63.8252 N   0  0  0  0  0  0  0  0  0  0  0  0
   -9.6486   20.8713   69.3057 O   0  0  0  0  0  0  0  0  0  0  0  0
  -10.3805   20.9021   67.0127 O   0  0  0  0  0  0  0  0  0  0  0  0
   -7.6131   22.9703   65.4760 O   0  0  0  0  0  0  0  0  0  0  0  0
  -10.6873   22.0234   64.2606 O   0  0  0  0  0  0  0  0  0  0  0  0
   -7.5823   24.8170   64.0160 O   0  0  0  0  0  0  0  0  0  0  0  0
   -7.7157   25.9679   64.8859 C   0  0  2  0  0  0  0  0  0  0  0  0
   -6.9055   27.1905   64.3938 C   0  0  1  0  0  0  0  0  0  0  0  0
   -5.3704   26.9077   64.4686 C   0  0  2  0  0  0  0  0  0  0  0  0
   -4.9936   26.6123   65.9062 C   0  0  1  0  0  0  0  0  0  0  0  0
   -5.7897   25.3634   66.3902 C   0  0  1  0  0  0  0  0  0  0  0  0
   -5.4817   25.0116   67.8444 C   0  0  0  0  0  0  0  0  0  0  0  0
   -3.5339   26.3646   65.9891 N   0  0  0  0  0  0  0  0  0  0  0  0
   -7.2563   25.6275   66.2656 O   0  0  0  0  0  0  0  0  0  0  0  0
   -7.3461   27.4878   63.0501 O   0  0  0  0  0  0  0  0  0  0  0  0
   -4.6430   28.0552   64.0245 O   0  0  0  0  0  0  0  0  0  0  0  0
   -6.1925   23.8516   68.2030 O   0  0  0  0  0  0  0  0  0  0  0  0
   -9.0982   22.2768   69.4138 C   0  0  1  0  0  0  0  0  0  0  0  0
  -10.2890   23.2537   69.6149 C   0  0  1  0  0  0  0  0  0  0  0  0
   -9.7665   24.7152   69.7274 C   0  0  2  0  0  0  0  0  0  0  0  0
   -8.8068   24.8198   70.9382 C   0  0  1  0  0  0  0  0  0  0  0  0
   -7.5866   23.8474   70.7572 C   0  0  0  0  0  0  0  0  0  0  0  0
   -8.1299   22.4081   70.6317 C   0  0  2  0  0  0  0  0  0  0  0  0
   -8.3078   26.2107   71.0597 N   0  0  0  0  0  0  0  0  0  0  0  0
   -6.9850   21.5068   70.4617 N   0  0  0  0  0  0  0  0  0  0  0  0
  -11.1867   23.1559   68.4871 O   0  0  0  0  0  0  0  0  0  0  0  0
  -10.8927   25.6026   69.9072 O   0  0  0  0  0  0  0  0  0  0  0  0
  1  2  1  0  0  0  0
  1 12  1  1  0  0  0
  1 13  1  0  0  0  0
  2  3  1  0  0  0  0
  2 10  1  1  0  0  0
  4  3  1  1  0  0  0
  4  5  1  0  0  0  0
  4 14  1  0  0  0  0
  5  6  1  0  0  0  0
  5 13  1  6  0  0  0
  6  7  1  0  0  0  0
  6 15  1  6  0  0  0
  7  8  1  0  0  0  0
  7 11  1  6  0  0  0
  8 14  1  0  0  0  0
  8 16  1  1  0  0  0
  9 11  1  0  0  0  0
 17 16  1  6  0  0  0
 17 18  1  0  0  0  0
 17 24  1  0  0  0  0
 18 19  1  0  0  0  0
 18 25  1  6  0  0  0
 19 20  1  0  0  0  0
 19 26  1  1  0  0  0
 20 21  1  0  0  0  0
 20 23  1  6  0  0  0
 21 22  1  1  0  0  0
 21 24  1  0  0  0  0
 22 27  1  0  0  0  0
 28 12  1  1  0  0  0
 28 29  1  0  0  0  0
 28 33  1  0  0  0  0
 29 30  1  0  0  0  0
 29 36  1  6  0  0  0
 30 31  1  0  0  0  0
 30 37  1  1  0  0  0
 31 32  1  0  0  0  0
 31 34  1  6  0  0  0
 32 33  1  0  0  0  0
 33 35  1  6  0  0  0
M  END
>  <CHROM.1>
66.89457410,116.49745818,41.01971236,108.03651670,-178.36991544,-177.89222492
-8.20977406,23.89723530,66.96609488,2.14901707,0.80912202,1.94049809

>  <Name>
ligand

>  <RI>
0

>  <Rbt.Current_Directory>
/home/itssahil/PROJECTS/Mol_Feturizer/Test_systems_manuscript/rnas/2g5k

>  <Rbt.Executable>
rbdock ($Id: //depot/dev/client3/rdock/2013.1/src/exe/rbdock.cxx#4 $)

>  <Rbt.Library>
libRbt.so (2013.1, Build901 2013/11/27)

>  <Rbt.Parameter_File>
/export/apps/rDock/src/rDock_2013.1_src/data/scripts/dock_solv.prm

>  <Rbt.Receptor>
prm/blind_docking_100.prm

>  <SCORE>
26.8418

>  <SCORE.INTER>
11.8876

>  <SCORE.INTER.CONST>
1

>  <SCORE.INTER.POLAR>
0

>  <SCORE.INTER.ROT>
6

>  <SCORE.INTER.SOLV>
30.7885

>  <SCORE.INTER.VDW>
-9.93779

>  <SCORE.INTER.norm>
0.321286

>  <SCORE.INTRA>
1.42725

>  <SCORE.INTRA.DIHEDRAL>
-1.76761

>  <SCORE.INTRA.DIHEDRAL.0>
11.3972

>  <SCORE.INTRA.POLAR>
0

>  <SCORE.INTRA.POLAR.0>
0

>  <SCORE.INTRA.REPUL>
0

>  <SCORE.INTRA.REPUL.0>
0

>  <SCORE.INTRA.SOLV>
5.90958

>  <SCORE.INTRA.SOLV.lig_0>
-92.3891

>  <SCORE.INTRA.VDW>
-0.643733

>  <SCORE.INTRA.VDW.0>
-2.90606

>  <SCORE.INTRA.norm>
0.0385744

>  <SCORE.RESTR>
13.5269

>  <SCORE.RESTR.CAVITY>
13.5269

>  <SCORE.RESTR.norm>
0.365593

>  <SCORE.SYSTEM>
0

>  <SCORE.SYSTEM.CONST>
0

>  <SCORE.SYSTEM.DIHEDRAL>
0

>  <SCORE.SYSTEM.SOLV>
0

>  <SCORE.SYSTEM.norm>
0

>  <SCORE.heavy>
37

>  <SCORE.norm>
0.725453

>  <RMSD>
9.412

$$$$
ligand
 OpenBabel02271912133D
libRbt.so/2013.1/901 2013/11/27
 37 40  0  0  0  0  0  0  0  0999 V2000
   -7.8775   24.4137   65.2364 C   0  0  1  0  0  0  0  0  0  0  0  0
   -7.0427   23.4566   66.1339 C   0  0  1  0  0  0  0  0  0  0  0  0
   -6.2865   24.2164   67.2404 C   0  0  0  0  0  0  0  0  0  0  0  0
   -5.3757   25.2975   66.5794 C   0  0  1  0  0  0  0  0  0  0  0  0
   -6.2289   26.2867   65.7209 C   0  0  1  0  0  0  0  0  0  0  0  0
   -5.2785   27.3806   65.0538 C   0  0  1  0  0  0  0  0  0  0  0  0
   -4.5263   28.1500   66.1790 C   0  0  1  0  0  0  0  0  0  0  0  0
   -3.7229   27.1140   67.0215 C   0  0  2  0  0  0  0  0  0  0  0  0
   -4.1963   30.4295   64.9936 C   0  0  0  0  0  0  0  0  0  0  0  0
   -7.9052   22.4104   66.7228 N   0  0  0  0  0  0  0  0  0  0  0  0
   -3.6031   29.1877   65.5843 N   0  0  0  0  0  0  0  0  0  0  0  0
   -8.9935   24.9961   65.9376 O   0  0  0  0  0  0  0  0  0  0  0  0
   -6.9757   25.4740   64.7150 O   0  0  0  0  0  0  0  0  0  0  0  0
   -4.6021   26.0860   67.5939 O   0  0  0  0  0  0  0  0  0  0  0  0
   -4.3131   26.7394   64.2304 O   0  0  0  0  0  0  0  0  0  0  0  0
   -3.0328   27.7734   68.0770 O   0  0  0  0  0  0  0  0  0  0  0  0
   -2.2458   26.8869   68.9100 C   0  0  2  0  0  0  0  0  0  0  0  0
   -1.3774   27.6450   69.9418 C   0  0  1  0  0  0  0  0  0  0  0  0
   -0.2686   28.4832   69.2275 C   0  0  2  0  0  0  0  0  0  0  0  0
    0.6172   27.5486   68.4288 C   0  0  1  0  0  0  0  0  0  0  0  0
   -0.2547   26.8074   67.3714 C   0  0  1  0  0  0  0  0  0  0  0  0
    0.5638   25.8249   66.5359 C   0  0  0  0  0  0  0  0  0  0  0  0
    1.6859   28.3340   67.7655 N   0  0  0  0  0  0  0  0  0  0  0  0
   -1.3428   26.0507   68.0639 O   0  0  0  0  0  0  0  0  0  0  0  0
   -2.2651   28.4663   70.7327 O   0  0  0  0  0  0  0  0  0  0  0  0
    0.5297   29.1614   70.2000 O   0  0  0  0  0  0  0  0  0  0  0  0
   -0.2846   25.1700   65.6245 O   0  0  0  0  0  0  0  0  0  0  0  0
  -10.0889   25.7793   65.2473 C   0  0  1  0  0  0  0  0  0  0  0  0
   -9.4568   27.0488   64.6136 C   0  0  1  0  0  0  0  0  0  0  0  0
  -10.5526   27.8878   63.8944 C   0  0  2  0  0  0  0  0  0  0  0  0
  -11.2022   27.0280   62.7822 C   0  0  1  0  0  0  0  0  0  0  0  0
  -11.8580   25.7398   63.3967 C   0  0  0  0  0  0  0  0  0  0  0  0
  -10.7567   24.9335   64.1175 C   0  0  2  0  0  0  0  0  0  0  0  0
  -12.2438   27.8200   62.0848 N   0  0  0  0  0  0  0  0  0  0  0  0
  -11.3771   23.7335   64.6893 N   0  0  0  0  0  0  0  0  0  0  0  0
   -8.8483   27.8512   65.6496 O   0  0  0  0  0  0  0  0  0  0  0  0
   -9.9403   29.0639   63.3202 O   0  0  0  0  0  0  0  0  0  0  0  0
  1  2  1  0  0  0  0
  1 12  1  1  0  0  0
  1 13  1  0  0  0  0
  2  3  1  0  0  0  0
  2 10  1  1  0  0  0
  4  3  1  1  0  0  0
  4  5  1  0  0  0  0
  4 14  1  0  0  0  0
  5  6  1  0  0  0  0
  5 13  1  6  0  0  0
  6  7  1  0  0  0  0
  6 15  1  6  0  0  0
  7  8  1  0  0  0  0
  7 11  1  6  0  0  0
  8 14  1  0  0  0  0
  8 16  1  1  0  0  0
  9 11  1  0  0  0  0
 17 16  1  6  0  0  0
 17 18  1  0  0  0  0
 17 24  1  0  0  0  0
 18 19  1  0  0  0  0
 18 25  1  6  0  0  0
 19 20  1  0  0  0  0
 19 26  1  1  0  0  0
 20 21  1  0  0  0  0
 20 23  1  6  0  0  0
 21 22  1  1  0  0  0
 21 24  1  0  0  0  0
 22 27  1  0  0  0  0
 28 12  1  6  0  0  0
 28 29  1  0  0  0  0
 28 33  1  0  0  0  0
 29 30  1  0  0  0  0
 29 36  1  1  0  0  0
 30 31  1  0  0  0  0
 30 37  1  6  0  0  0
 31 32  1  0  0  0  0
 31 34  1  1  0  0  0
 32 33  1  0  0  0  0
 33 35  1  1  0  0  0
M  END
>  <CHROM.1>
-169.73977059,73.29709649,-179.48408469,-63.39332489,173.22350764,178.70488159
-5.38512666,26.68966909,66.22399099,-3.11975674,-0.42651898,-0.28539518

>  <Name>
ligand

>  <RI>
0

>  <Rbt.Current_Directory>
/home/itssahil/PROJECTS/Mol_Feturizer/Test_systems_manuscript/rnas/2g5k

>  <Rbt.Executable>
rbdock ($Id: //depot/dev/client3/rdock/2013.1/src/exe/rbdock.cxx#4 $)

>  <Rbt.Library>
libRbt.so (2013.1, Build901 2013/11/27)

>  <Rbt.Parameter_File>
/export/apps/rDock/src/rDock_2013.1_src/data/scripts/dock_solv.prm

>  <Rbt.Receptor>
prm/pocket_docking_5.prm

>  <SCORE>
-15.9966

>  <SCORE.INTER>
-10.4177

>  <SCORE.INTER.CONST>
1

>  <SCORE.INTER.POLAR>
0

>  <SCORE.INTER.ROT>
6

>  <SCORE.INTER.SOLV>
13.9671

>  <SCORE.INTER.VDW>
-19.2008

>  <SCORE.INTER.norm>
-0.28156

>  <SCORE.INTRA>
-5.57891

>  <SCORE.INTRA.DIHEDRAL>
-10.4257

>  <SCORE.INTRA.DIHEDRAL.0>
11.3972

>  <SCORE.INTRA.POLAR>
0

>  <SCORE.INTRA.POLAR.0>
0

>  <SCORE.INTRA.REPUL>
0

>  <SCORE.INTRA.REPUL.0>
0

>  <SCORE.INTRA.SOLV>
-0.791564

>  <SCORE.INTRA.SOLV.lig_0>
-92.3891

>  <SCORE.INTRA.VDW>
0.0297287

>  <SCORE.INTRA.VDW.0>
-2.90606

>  <SCORE.INTRA.norm>
-0.150781

>  <SCORE.RESTR>
0

>  <SCORE.RESTR.CAVITY>
0

>  <SCORE.RESTR.norm>
0

>  <SCORE.SYSTEM>
0

>  <SCORE.SYSTEM.CONST>
0

>  <SCORE.SYSTEM.DIHEDRAL>
0

>  <SCORE.SYSTEM.SOLV>
0

>  <SCORE.SYSTEM.norm>
0

>  <SCORE.heavy>
37

>  <SCORE.norm>
-0.432341

>  <RMSD>
9.415

$$$$
ligand
 OpenBabel02271912133D
libRbt.so/2013.1/901 2013/11/27
 37 40  0  0  0  0  0  0  0  0999 V2000
   -9.6807   20.0893   68.0854 C   0  0  1  0  0  0  0  0  0  0  0  0
   -8.2595   19.7405   67.5591 C   0  0  1  0  0  0  0  0  0  0  0  0
   -7.4930   20.9933   67.0940 C   0  0  0  0  0  0  0  0  0  0  0  0
   -8.3313   21.7205   65.9969 C   0  0  1  0  0  0  0  0  0  0  0  0
   -9.7394   22.1141   66.5501 C   0  0  1  0  0  0  0  0  0  0  0  0
  -10.5789   22.8535   65.4128 C   0  0  1  0  0  0  0  0  0  0  0  0
   -9.8021   24.1231   64.9561 C   0  0  1  0  0  0  0  0  0  0  0  0
   -8.3980   23.6763   64.4485 C   0  0  2  0  0  0  0  0  0  0  0  0
  -10.9096   26.2875   64.0622 C   0  0  0  0  0  0  0  0  0  0  0  0
   -7.4863   19.0148   68.5890 N   0  0  0  0  0  0  0  0  0  0  0  0
  -10.5608   24.8442   63.8665 N   0  0  0  0  0  0  0  0  0  0  0  0
   -9.6462   20.8266   69.3230 O   0  0  0  0  0  0  0  0  0  0  0  0
  -10.3936   20.8624   67.0351 O   0  0  0  0  0  0  0  0  0  0  0  0
   -7.6516   22.9575   65.4894 O   0  0  0  0  0  0  0  0  0  0  0  0
  -10.7269   21.9938   64.2902 O   0  0  0  0  0  0  0  0  0  0  0  0
   -7.6438   24.8110   64.0377 O   0  0  0  0  0  0  0  0  0  0  0  0
   -7.7649   25.9507   64.9240 C   0  0  2  0  0  0  0  0  0  0  0  0
   -6.9403   27.1709   64.4500 C   0  0  1  0  0  0  0  0  0  0  0  0
   -5.4086   26.8695   64.5219 C   0  0  2  0  0  0  0  0  0  0  0  0
   -5.0366   26.5493   65.9554 C   0  0  1  0  0  0  0  0  0  0  0  0
   -5.8473   25.3028   66.4209 C   0  0  1  0  0  0  0  0  0  0  0  0
   -5.5447   24.9268   67.8701 C   0  0  0  0  0  0  0  0  0  0  0  0
   -3.5799   26.2838   66.0359 N   0  0  0  0  0  0  0  0  0  0  0  0
   -7.3107   25.5854   66.2989 O   0  0  0  0  0  0  0  0  0  0  0  0
   -7.3762   27.4924   63.1103 O   0  0  0  0  0  0  0  0  0  0  0  0
   -4.6677   28.0149   64.0948 O   0  0  0  0  0  0  0  0  0  0  0  0
   -6.1757   23.7070   68.1757 O   0  0  0  0  0  0  0  0  0  0  0  0
   -9.1116   22.2380   69.4325 C   0  0  1  0  0  0  0  0  0  0  0  0
  -10.3109   23.1983   69.6615 C   0  0  1  0  0  0  0  0  0  0  0  0
   -9.8048   24.6654   69.7764 C   0  0  2  0  0  0  0  0  0  0  0  0
   -8.8256   24.7729   70.9714 C   0  0  1  0  0  0  0  0  0  0  0  0
   -7.5968   23.8173   70.7619 C   0  0  0  0  0  0  0  0  0  0  0  0
   -8.1242   22.3723   70.6346 C   0  0  2  0  0  0  0  0  0  0  0  0
   -8.3420   26.1691   71.0951 N   0  0  0  0  0  0  0  0  0  0  0  0
   -6.9713   21.4868   70.4380 N   0  0  0  0  0  0  0  0  0  0  0  0
  -11.2266   23.0977   68.5486 O   0  0  0  0  0  0  0  0  0  0  0  0
  -10.9386   25.5372   69.9824 O   0  0  0  0  0  0  0  0  0  0  0  0
  1  2  1  0  0  0  0
  1 12  1  1  0  0  0
  1 13  1  0  0  0  0
  2  3  1  0  0  0  0
  2 10  1  1  0  0  0
  4  3  1  1  0  0  0
  4  5  1  0  0  0  0
  4 14  1  0  0  0  0
  5  6  1  0  0  0  0
  5 13  1  6  0  0  0
  6  7  1  0  0  0  0
  6 15  1  6  0  0  0
  7  8  1  0  0  0  0
  7 11  1  6  0  0  0
  8 14  1  0  0  0  0
  8 16  1  1  0  0  0
  9 11  1  0  0  0  0
 17 16  1  6  0  0  0
 17 18  1  0  0  0  0
 17 24  1  0  0  0  0
 18 19  1  0  0  0  0
 18 25  1  6  0  0  0
 19 20  1  0  0  0  0
 19 26  1  1  0  0  0
 20 21  1  0  0  0  0
 20 23  1  6  0  0  0
 21 22  1  1  0  0  0
 21 24  1  0  0  0  0
 22 27  1  0  0  0  0
 28 12  1  1  0  0  0
 28 29  1  0  0  0  0
 28 33  1  0  0  0  0
 29 30  1  0  0  0  0
 29 36  1  6  0  0  0
 30 31  1  0  0  0  0
 30 37  1  1  0  0  0
 31 32  1  0  0  0  0
 31 34  1  6  0  0  0
 32 33  1  0  0  0  0
 33 35  1  6  0  0  0
M  END
>  <CHROM.1>
67.20827114,124.30172963,41.84223474,108.51300551,-179.74128736,-172.79362690
-8.23538597,23.85930554,66.99340807,2.13988019,0.80844070,1.94884230

>  <Name>
ligand

>  <RI>
0

>  <Rbt.Current_Directory>
/home/itssahil/PROJECTS/Mol_Feturizer/Test_systems_manuscript/rnas/2g5k

>  <Rbt.Executable>
rbdock ($Id: //depot/dev/client3/rdock/2013.1/src/exe/rbdock.cxx#4 $)

>  <Rbt.Library>
libRbt.so (2013.1, Build901 2013/11/27)

>  <Rbt.Parameter_File>
/export/apps/rDock/src/rDock_2013.1_src/data/scripts/dock_solv.prm

>  <Rbt.Receptor>
prm/blind_docking_100.prm

>  <SCORE>
26.0739

>  <SCORE.INTER>
10.9857

>  <SCORE.INTER.CONST>
1

>  <SCORE.INTER.POLAR>
0

>  <SCORE.INTER.ROT>
6

>  <SCORE.INTER.SOLV>
30.6827

>  <SCORE.INTER.VDW>
-10.5038

>  <SCORE.INTER.norm>
0.296911

>  <SCORE.INTRA>
1.31247

>  <SCORE.INTRA.DIHEDRAL>
-1.66846

>  <SCORE.INTRA.DIHEDRAL.0>
11.3972

>  <SCORE.INTRA.POLAR>
0

>  <SCORE.INTRA.POLAR.0>
0

>  <SCORE.INTRA.REPUL>
0

>  <SCORE.INTRA.REPUL.0>
0

>  <SCORE.INTRA.SOLV>
6.02019

>  <SCORE.INTRA.SOLV.lig_0>
-92.3891

>  <SCORE.INTRA.VDW>
-0.863389

>  <SCORE.INTRA.VDW.0>
-2.90606

>  <SCORE.INTRA.norm>
0.0354722

>  <SCORE.RESTR>
13.7757

>  <SCORE.RESTR.CAVITY>
13.7757

>  <SCORE.RESTR.norm>
0.372316

>  <SCORE.SYSTEM>
0

>  <SCORE.SYSTEM.CONST>
0

>  <SCORE.SYSTEM.DIHEDRAL>
0

>  <SCORE.SYSTEM.SOLV>
0

>  <SCORE.SYSTEM.norm>
0

>  <SCORE.heavy>
37

>  <SCORE.norm>
0.704699

>  <RMSD>
9.437

$$$$
ligand
 OpenBabel02271912133D
libRbt.so/2013.1/901 2013/11/27
 37 40  0  0  0  0  0  0  0  0999 V2000
   -6.8021   23.6750   66.2282 C   0  0  1  0  0  0  0  0  0  0  0  0
   -7.7248   22.5305   65.7209 C   0  0  1  0  0  0  0  0  0  0  0  0
   -8.9767   22.3648   66.6033 C   0  0  0  0  0  0  0  0  0  0  0  0
   -8.5270   22.1079   68.0754 C   0  0  1  0  0  0  0  0  0  0  0  0
   -7.6429   23.2876   68.5954 C   0  0  1  0  0  0  0  0  0  0  0  0
   -7.1935   23.0034   70.0994 C   0  0  1  0  0  0  0  0  0  0  0  0
   -8.4641   22.8474   70.9854 C   0  0  1  0  0  0  0  0  0  0  0  0
   -9.3222   21.6843   70.4025 C   0  0  2  0  0  0  0  0  0  0  0  0
   -9.1556   22.4881   73.4559 C   0  0  0  0  0  0  0  0  0  0  0  0
   -8.1122   22.7593   64.3128 N   0  0  0  0  0  0  0  0  0  0  0  0
   -8.0783   22.5621   72.4181 N   0  0  0  0  0  0  0  0  0  0  0  0
   -7.3934   24.9780   66.0585 O   0  0  0  0  0  0  0  0  0  0  0  0
   -6.4876   23.4250   67.6592 O   0  0  0  0  0  0  0  0  0  0  0  0
   -9.6926   21.9357   69.0036 O   0  0  0  0  0  0  0  0  0  0  0  0
   -6.4571   21.7888   70.1587 O   0  0  0  0  0  0  0  0  0  0  0  0
  -10.5072   21.5187   71.1728 O   0  0  0  0  0  0  0  0  0  0  0  0
  -10.9616   20.1461   71.2662 C   0  0  2  0  0  0  0  0  0  0  0  0
  -10.1549   19.3144   72.2914 C   0  0  1  0  0  0  0  0  0  0  0  0
   -8.6762   19.1319   71.8198 C   0  0  2  0  0  0  0  0  0  0  0  0
   -8.6699   18.4122   70.4865 C   0  0  1  0  0  0  0  0  0  0  0  0
   -9.4587   19.2656   69.4485 C   0  0  1  0  0  0  0  0  0  0  0  0
   -9.5182   18.5951   68.0773 C   0  0  0  0  0  0  0  0  0  0  0  0
   -7.2688   18.2153   70.0426 N   0  0  0  0  0  0  0  0  0  0  0  0
  -10.8568   19.4765   69.9354 O   0  0  0  0  0  0  0  0  0  0  0  0
  -10.2475   19.9913   73.5648 O   0  0  0  0  0  0  0  0  0  0  0  0
   -7.9555   18.3483   72.7737 O   0  0  0  0  0  0  0  0  0  0  0  0
   -9.9781   19.5233   67.1253 O   0  0  0  0  0  0  0  0  0  0  0  0
   -6.5812   26.2518   65.9695 C   0  0  1  0  0  0  0  0  0  0  0  0
   -5.2411   26.0303   66.7230 C   0  0  1  0  0  0  0  0  0  0  0  0
   -4.3740   27.3210   66.6593 C   0  0  2  0  0  0  0  0  0  0  0  0
   -4.0795   27.6625   65.1778 C   0  0  1  0  0  0  0  0  0  0  0  0
   -5.4189   27.9006   64.3926 C   0  0  0  0  0  0  0  0  0  0  0  0
   -6.2677   26.6146   64.4836 C   0  0  2  0  0  0  0  0  0  0  0  0
   -3.2473   28.8875   65.1049 N   0  0  0  0  0  0  0  0  0  0  0  0
   -7.5166   26.8455   63.7494 N   0  0  0  0  0  0  0  0  0  0  0  0
   -5.5139   25.7093   68.1050 O   0  0  0  0  0  0  0  0  0  0  0  0
   -3.1382   27.0906   67.3718 O   0  0  0  0  0  0  0  0  0  0  0  0
  1  2  1  0  0  0  0
  1 12  1  1  0  0  0
  1 13  1  0  0  0  0
  2  3  1  0  0  0  0
  2 10  1  6  0  0  0
  4  3  1  6  0  0  0
  4  5  1  0  0  0  0
  4 14  1  0  0  0  0
  5  6  1  0  0  0  0
  5 13  1  6  0  0  0
  6  7  1  0  0  0  0
  6 15  1  6  0  0  0
  7  8  1  0  0  0  0
  7 11  1  1  0  0  0
  8 14  1  0  0  0  0
  8 16  1  1  0  0  0
  9 11  1  0  0  0  0
 17 16  1  6  0  0  0
 17 18  1  0  0  0  0
 17 24  1  0  0  0  0
 18 19  1  0  0  0  0
 18 25  1  1  0  0  0
 19 20  1  0  0  0  0
 19 26  1  1  0  0  0
 20 21  1  0  0  0  0
 20 23  1  6  0  0  0
 21 22  1  6  0  0  0
 21 24  1  0  0  0  0
 22 27  1  0  0  0  0
 28 12  1  6  0  0  0
 28 29  1  0  0  0  0
 28 33  1  0  0  0  0
 29 30  1  0  0  0  0
 29 36  1  1  0  0  0
 30 31  1  0  0  0  0
 30 37  1  1  0  0  0
 31 32  1  0  0  0  0
 31 34  1  1  0  0  0
 32 33  1  0  0  0  0
 33 35  1  6  0  0  0
M  END
>  <CHROM.1>
-156.50545967,175.09635296,-146.55467239,-26.22308357,78.29552970,-167.36675520
-7.73806267,22.77197442,68.57262474,0.78793816,-0.93609536,-1.35915112

>  <Name>
ligand

>  <RI>
0

>  <Rbt.Current_Directory>
/home/itssahil/PROJECTS/Mol_Feturizer/Test_systems_manuscript/rnas/2g5k

>  <Rbt.Executable>
rbdock ($Id: //depot/dev/client3/rdock/2013.1/src/exe/rbdock.cxx#4 $)

>  <Rbt.Library>
libRbt.so (2013.1, Build901 2013/11/27)

>  <Rbt.Parameter_File>
/export/apps/rDock/src/rDock_2013.1_src/data/scripts/dock_solv.prm

>  <Rbt.Receptor>
prm/blind_docking_80.prm

>  <SCORE>
48.7872

>  <SCORE.INTER>
31.4518

>  <SCORE.INTER.CONST>
1

>  <SCORE.INTER.POLAR>
0

>  <SCORE.INTER.ROT>
6

>  <SCORE.INTER.SOLV>
25.2219

>  <SCORE.INTER.VDW>
4.96055

>  <SCORE.INTER.norm>
0.850048

>  <SCORE.INTRA>
7.90562

>  <SCORE.INTRA.DIHEDRAL>
1.66611

>  <SCORE.INTRA.DIHEDRAL.0>
11.3972

>  <SCORE.INTRA.POLAR>
0

>  <SCORE.INTRA.POLAR.0>
0

>  <SCORE.INTRA.REPUL>
0

>  <SCORE.INTRA.REPUL.0>
0

>  <SCORE.INTRA.SOLV>
3.171

>  <SCORE.INTRA.SOLV.lig_0>
-92.3891

>  <SCORE.INTRA.VDW>
5.48706

>  <SCORE.INTRA.VDW.0>
-2.90606

>  <SCORE.INTRA.norm>
0.213665

>  <SCORE.RESTR>
9.42985

>  <SCORE.RESTR.CAVITY>
9.42985

>  <SCORE.RESTR.norm>
0.254861

>  <SCORE.SYSTEM>
0

>  <SCORE.SYSTEM.CONST>
0

>  <SCORE.SYSTEM.DIHEDRAL>
0

>  <SCORE.SYSTEM.SOLV>
0

>  <SCORE.SYSTEM.norm>
0

>  <SCORE.heavy>
37

>  <SCORE.norm>
1.31857

>  <RMSD>
9.453

$$$$
ligand
 OpenBabel02271912133D
libRbt.so/2013.1/901 2013/11/27
 37 40  0  0  0  0  0  0  0  0999 V2000
   -6.1741   28.1830   67.5110 C   0  0  1  0  0  0  0  0  0  0  0  0
   -5.8362   29.6871   67.3058 C   0  0  1  0  0  0  0  0  0  0  0  0
   -4.8041   29.8984   66.1818 C   0  0  0  0  0  0  0  0  0  0  0  0
   -3.5189   29.0783   66.5150 C   0  0  1  0  0  0  0  0  0  0  0  0
   -3.8584   27.5601   66.6683 C   0  0  1  0  0  0  0  0  0  0  0  0
   -2.5322   26.7421   67.0103 C   0  0  1  0  0  0  0  0  0  0  0  0
   -1.4990   26.9531   65.8649 C   0  0  1  0  0  0  0  0  0  0  0  0
   -1.2251   28.4817   65.7341 C   0  0  2  0  0  0  0  0  0  0  0  0
    0.6083   25.7089   65.0156 C   0  0  0  0  0  0  0  0  0  0  0  0
   -7.0637   30.4640   67.0324 N   0  0  0  0  0  0  0  0  0  0  0  0
   -0.2209   26.2035   66.1605 N   0  0  0  0  0  0  0  0  0  0  0  0
   -6.9048   27.6243   66.4019 O   0  0  0  0  0  0  0  0  0  0  0  0
   -4.9040   27.4419   67.7279 O   0  0  0  0  0  0  0  0  0  0  0  0
   -2.4598   29.2299   65.4638 O   0  0  0  0  0  0  0  0  0  0  0  0
   -1.9645   27.2318   68.2182 O   0  0  0  0  0  0  0  0  0  0  0  0
   -0.2976   28.7231   64.6822 O   0  0  0  0  0  0  0  0  0  0  0  0
    0.4427   29.9606   64.8226 C   0  0  2  0  0  0  0  0  0  0  0  0
    1.0498   30.4525   63.4873 C   0  0  1  0  0  0  0  0  0  0  0  0
    2.1571   29.4711   62.9842 C   0  0  2  0  0  0  0  0  0  0  0  0
    3.2548   29.3916   64.0257 C   0  0  1  0  0  0  0  0  0  0  0  0
    2.6463   28.8688   65.3615 C   0  0  1  0  0  0  0  0  0  0  0  0
    3.6889   28.7809   66.4743 C   0  0  0  0  0  0  0  0  0  0  0  0
    4.3204   28.4790   63.5457 N   0  0  0  0  0  0  0  0  0  0  0  0
    1.5538   29.7882   65.8056 O   0  0  0  0  0  0  0  0  0  0  0  0
   -0.0359   30.5884   62.5436 O   0  0  0  0  0  0  0  0  0  0  0  0
    2.7136   29.9536   61.7592 O   0  0  0  0  0  0  0  0  0  0  0  0
    3.0861   28.2671   67.6370 O   0  0  0  0  0  0  0  0  0  0  0  0
   -7.2722   26.1595   66.3048 C   0  0  1  0  0  0  0  0  0  0  0  0
   -8.4969   25.9011   67.2246 C   0  0  1  0  0  0  0  0  0  0  0  0
   -8.9070   24.4014   67.1577 C   0  0  2  0  0  0  0  0  0  0  0  0
   -9.2764   24.0405   65.6977 C   0  0  1  0  0  0  0  0  0  0  0  0
   -8.0514   24.2843   64.7452 C   0  0  0  0  0  0  0  0  0  0  0  0
   -7.6532   25.7725   64.8410 C   0  0  2  0  0  0  0  0  0  0  0  0
   -9.6759   22.6146   65.6228 N   0  0  0  0  0  0  0  0  0  0  0  0
   -6.5084   25.9915   63.9501 N   0  0  0  0  0  0  0  0  0  0  0  0
   -8.1549   26.2394   68.5870 O   0  0  0  0  0  0  0  0  0  0  0  0
  -10.0424   24.1871   68.0254 O   0  0  0  0  0  0  0  0  0  0  0  0
  1  2  1  0  0  0  0
  1 12  1  6  0  0  0
  1 13  1  0  0  0  0
  2  3  1  0  0  0  0
  2 10  1  6  0  0  0
  4  3  1  6  0  0  0
  4  5  1  0  0  0  0
  4 14  1  0  0  0  0
  5  6  1  0  0  0  0
  5 13  1  1  0  0  0
  6  7  1  0  0  0  0
  6 15  1  1  0  0  0
  7  8  1  0  0  0  0
  7 11  1  1  0  0  0
  8 14  1  0  0  0  0
  8 16  1  6  0  0  0
  9 11  1  0  0  0  0
 17 16  1  6  0  0  0
 17 18  1  0  0  0  0
 17 24  1  0  0  0  0
 18 19  1  0  0  0  0
 18 25  1  6  0  0  0
 19 20  1  0  0  0  0
 19 26  1  6  0  0  0
 20 21  1  0  0  0  0
 20 23  1  6  0  0  0
 21 22  1  1  0  0  0
 21 24  1  0  0  0  0
 22 27  1  0  0  0  0
 28 12  1  6  0  0  0
 28 29  1  0  0  0  0
 28 33  1  0  0  0  0
 29 30  1  0  0  0  0
 29 36  1  1  0  0  0
 30 31  1  0  0  0  0
 30 37  1  1  0  0  0
 31 32  1  0  0  0  0
 31 34  1  1  0  0  0
 32 33  1  0  0  0  0
 33 35  1  6  0  0  0
M  END
>  <CHROM.1>
175.58338115,150.78958444,-155.34930130,78.09714037,-159.73254881,-178.28711548
-2.98275426,27.65714325,65.79677784,2.86276611,-0.26041960,-2.94277945

>  <Name>
ligand

>  <RI>
0

>  <Rbt.Current_Directory>
/home/itssahil/PROJECTS/Mol_Feturizer/Test_systems_manuscript/rnas/2g5k

>  <Rbt.Executable>
rbdock ($Id: //depot/dev/client3/rdock/2013.1/src/exe/rbdock.cxx#4 $)

>  <Rbt.Library>
libRbt.so (2013.1, Build901 2013/11/27)

>  <Rbt.Parameter_File>
/export/apps/rDock/src/rDock_2013.1_src/data/scripts/dock_solv.prm

>  <Rbt.Receptor>
prm/pocket_docking_5.prm

>  <SCORE>
-7.7658

>  <SCORE.INTER>
-4.01834

>  <SCORE.INTER.CONST>
1

>  <SCORE.INTER.POLAR>
0

>  <SCORE.INTER.ROT>
6

>  <SCORE.INTER.SOLV>
11.4132

>  <SCORE.INTER.VDW>
-14.0833

>  <SCORE.INTER.norm>
-0.108604

>  <SCORE.INTRA>
-3.74746

>  <SCORE.INTRA.DIHEDRAL>
-4.74867

>  <SCORE.INTRA.DIHEDRAL.0>
11.3972

>  <SCORE.INTRA.POLAR>
0

>  <SCORE.INTRA.POLAR.0>
0

>  <SCORE.INTRA.REPUL>
0

>  <SCORE.INTRA.REPUL.0>
0

>  <SCORE.INTRA.SOLV>
-1.30785

>  <SCORE.INTRA.SOLV.lig_0>
-92.3891

>  <SCORE.INTRA.VDW>
-0.719204

>  <SCORE.INTRA.VDW.0>
-2.90606

>  <SCORE.INTRA.norm>
-0.101283

>  <SCORE.RESTR>
0

>  <SCORE.RESTR.CAVITY>
0

>  <SCORE.RESTR.norm>
0

>  <SCORE.SYSTEM>
0

>  <SCORE.SYSTEM.CONST>
0

>  <SCORE.SYSTEM.DIHEDRAL>
0

>  <SCORE.SYSTEM.SOLV>
0

>  <SCORE.SYSTEM.norm>
0

>  <SCORE.heavy>
37

>  <SCORE.norm>
-0.209887

>  <RMSD>
9.463

$$$$
ligand
 OpenBabel02271912133D
libRbt.so/2013.1/901 2013/11/27
 37 40  0  0  0  0  0  0  0  0999 V2000
   -8.3815   22.1097   69.7907 C   0  0  1  0  0  0  0  0  0  0  0  0
   -6.9709   21.6232   69.3523 C   0  0  1  0  0  0  0  0  0  0  0  0
   -6.3411   22.5543   68.2989 C   0  0  0  0  0  0  0  0  0  0  0  0
   -7.3024   22.6548   67.0737 C   0  0  1  0  0  0  0  0  0  0  0  0
   -8.7020   23.1939   67.5142 C   0  0  1  0  0  0  0  0  0  0  0  0
   -9.6679   23.2865   66.2480 C   0  0  1  0  0  0  0  0  0  0  0  0
   -9.0287   24.2368   65.1935 C   0  0  1  0  0  0  0  0  0  0  0  0
   -7.6259   23.6714   64.8179 C   0  0  2  0  0  0  0  0  0  0  0  0
  -11.0887   25.2621   64.0036 C   0  0  0  0  0  0  0  0  0  0  0  0
   -6.0787   21.4902   70.5234 N   0  0  0  0  0  0  0  0  0  0  0  0
   -9.9098   24.3389   63.9703 N   0  0  0  0  0  0  0  0  0  0  0  0
   -8.3331   23.3351   70.5473 O   0  0  0  0  0  0  0  0  0  0  0  0
   -9.2190   22.2781   68.5744 O   0  0  0  0  0  0  0  0  0  0  0  0
   -6.7602   23.5483   65.9980 O   0  0  0  0  0  0  0  0  0  0  0  0
   -9.8119   22.0004   65.6595 O   0  0  0  0  0  0  0  0  0  0  0  0
   -6.9952   24.5223   63.8675 O   0  0  0  0  0  0  0  0  0  0  0  0
   -7.2780   25.9303   64.0589 C   0  0  2  0  0  0  0  0  0  0  0  0
   -6.2636   26.8504   63.3393 C   0  0  1  0  0  0  0  0  0  0  0  0
   -4.8428   26.7186   63.9768 C   0  0  2  0  0  0  0  0  0  0  0  0
   -4.9197   27.1158   65.4371 C   0  0  1  0  0  0  0  0  0  0  0  0
   -5.9204   26.1694   66.1655 C   0  0  1  0  0  0  0  0  0  0  0  0
   -6.0723   26.5196   67.6445 C   0  0  0  0  0  0  0  0  0  0  0  0
   -3.5704   27.0147   66.0439 N   0  0  0  0  0  0  0  0  0  0  0  0
   -7.2629   26.2662   65.5141 O   0  0  0  0  0  0  0  0  0  0  0  0
   -6.2744   26.4931   61.9392 O   0  0  0  0  0  0  0  0  0  0  0  0
   -3.9274   27.5882   63.3068 O   0  0  0  0  0  0  0  0  0  0  0  0
   -5.0545   27.4168   68.0171 O   0  0  0  0  0  0  0  0  0  0  0  0
   -9.5520   24.1891   70.8211 C   0  0  1  0  0  0  0  0  0  0  0  0
   -9.2715   25.6236   70.2956 C   0  0  1  0  0  0  0  0  0  0  0  0
  -10.5018   26.5388   70.5612 C   0  0  2  0  0  0  0  0  0  0  0  0
  -11.7358   25.9561   69.8290 C   0  0  1  0  0  0  0  0  0  0  0  0
  -12.0482   24.5068   70.3479 C   0  0  0  0  0  0  0  0  0  0  0  0
  -10.8095   23.6231   70.0889 C   0  0  2  0  0  0  0  0  0  0  0  0
  -12.9134   26.8243   70.0692 N   0  0  0  0  0  0  0  0  0  0  0  0
  -11.1088   22.2725   70.5771 N   0  0  0  0  0  0  0  0  0  0  0  0
   -8.1191   26.1680   70.9760 O   0  0  0  0  0  0  0  0  0  0  0  0
  -10.2128   27.8664   70.0695 O   0  0  0  0  0  0  0  0  0  0  0  0
  1  2  1  0  0  0  0
  1 12  1  6  0  0  0
  1 13  1  0  0  0  0
  2  3  1  0  0  0  0
  2 10  1  1  0  0  0
  4  3  1  1  0  0  0
  4  5  1  0  0  0  0
  4 14  1  0  0  0  0
  5  6  1  0  0  0  0
  5 13  1  1  0  0  0
  6  7  1  0  0  0  0
  6 15  1  6  0  0  0
  7  8  1  0  0  0  0
  7 11  1  6  0  0  0
  8 14  1  0  0  0  0
  8 16  1  6  0  0  0
  9 11  1  0  0  0  0
 17 16  1  1  0  0  0
 17 18  1  0  0  0  0
 17 24  1  0  0  0  0
 18 19  1  0  0  0  0
 18 25  1  6  0  0  0
 19 20  1  0  0  0  0
 19 26  1  6  0  0  0
 20 21  1  0  0  0  0
 20 23  1  1  0  0  0
 21 22  1  1  0  0  0
 21 24  1  0  0  0  0
 22 27  1  0  0  0  0
 28 12  1  6  0  0  0
 28 29  1  0  0  0  0
 28 33  1  0  0  0  0
 29 30  1  0  0  0  0
 29 36  1  1  0  0  0
 30 31  1  0  0  0  0
 30 37  1  6  0  0  0
 31 32  1  0  0  0  0
 31 34  1  1  0  0  0
 32 33  1  0  0  0  0
 33 35  1  1  0  0  0
M  END
>  <CHROM.1>
165.50090835,80.81440317,35.41503005,-123.77907587,161.62190699,-12.62276949
-8.08145485,24.82685887,67.28168044,2.36858543,0.66573603,1.33946804

>  <Name>
ligand

>  <RI>
0

>  <Rbt.Current_Directory>
/home/itssahil/PROJECTS/Mol_Feturizer/Test_systems_manuscript/rnas/2g5k

>  <Rbt.Executable>
rbdock ($Id: //depot/dev/client3/rdock/2013.1/src/exe/rbdock.cxx#4 $)

>  <Rbt.Library>
libRbt.so (2013.1, Build901 2013/11/27)

>  <Rbt.Parameter_File>
/export/apps/rDock/src/rDock_2013.1_src/data/scripts/dock_solv.prm

>  <Rbt.Receptor>
prm/blind_docking_100.prm

>  <SCORE>
34.8001

>  <SCORE.INTER>
7.17171

>  <SCORE.INTER.CONST>
1

>  <SCORE.INTER.POLAR>
0

>  <SCORE.INTER.ROT>
6

>  <SCORE.INTER.SOLV>
24.7409

>  <SCORE.INTER.VDW>
-11.0658

>  <SCORE.INTER.norm>
0.19383

>  <SCORE.INTRA>
9.89434

>  <SCORE.INTRA.DIHEDRAL>
5.91701

>  <SCORE.INTRA.DIHEDRAL.0>
11.3972

>  <SCORE.INTRA.POLAR>
0

>  <SCORE.INTRA.POLAR.0>
0

>  <SCORE.INTRA.REPUL>
0

>  <SCORE.INTRA.REPUL.0>
0

>  <SCORE.INTRA.SOLV>
3.16178

>  <SCORE.INTRA.SOLV.lig_0>
-92.3891

>  <SCORE.INTRA.VDW>
5.35495

>  <SCORE.INTRA.VDW.0>
-2.90606

>  <SCORE.INTRA.norm>
0.267415

>  <SCORE.RESTR>
17.734

>  <SCORE.RESTR.CAVITY>
17.734

>  <SCORE.RESTR.norm>
0.479298

>  <SCORE.SYSTEM>
0

>  <SCORE.SYSTEM.CONST>
0

>  <SCORE.SYSTEM.DIHEDRAL>
0

>  <SCORE.SYSTEM.SOLV>
0

>  <SCORE.SYSTEM.norm>
0

>  <SCORE.heavy>
37

>  <SCORE.norm>
0.940542

>  <RMSD>
9.466

$$$$
ligand
 OpenBabel02271912133D
libRbt.so/2013.1/901 2013/11/27
 37 40  0  0  0  0  0  0  0  0999 V2000
   -7.9925   24.5185   64.8238 C   0  0  1  0  0  0  0  0  0  0  0  0
   -7.1204   23.5388   65.6594 C   0  0  1  0  0  0  0  0  0  0  0  0
   -6.3389   24.2661   66.7701 C   0  0  0  0  0  0  0  0  0  0  0  0
   -5.4604   25.3815   66.1227 C   0  0  1  0  0  0  0  0  0  0  0  0
   -6.3500   26.3917   65.3278 C   0  0  1  0  0  0  0  0  0  0  0  0
   -5.4322   27.5206   64.6737 C   0  0  1  0  0  0  0  0  0  0  0  0
   -4.6542   28.2567   65.8036 C   0  0  1  0  0  0  0  0  0  0  0  0
   -3.8144   27.1999   66.5823 C   0  0  2  0  0  0  0  0  0  0  0  0
   -3.4983   30.5648   66.0212 C   0  0  0  0  0  0  0  0  0  0  0  0
   -7.9532   22.4614   66.2346 N   0  0  0  0  0  0  0  0  0  0  0  0
   -3.7608   29.3266   65.2205 N   0  0  0  0  0  0  0  0  0  0  0  0
   -9.0927   25.0613   65.5796 O   0  0  0  0  0  0  0  0  0  0  0  0
   -7.1185   25.6079   64.3153 O   0  0  0  0  0  0  0  0  0  0  0  0
   -4.6646   26.1411   67.1422 O   0  0  0  0  0  0  0  0  0  0  0  0
   -4.4856   26.9218   63.7981 O   0  0  0  0  0  0  0  0  0  0  0  0
   -3.0995   27.8279   67.6404 O   0  0  0  0  0  0  0  0  0  0  0  0
   -2.4077   26.9022   68.5142 C   0  0  2  0  0  0  0  0  0  0  0  0
   -1.6154   27.6132   69.6368 C   0  0  1  0  0  0  0  0  0  0  0  0
   -0.4303   28.4411   69.0431 C   0  0  2  0  0  0  0  0  0  0  0  0
    0.5004   27.5048   68.2992 C   0  0  1  0  0  0  0  0  0  0  0  0
   -0.2929   26.8115   67.1514 C   0  0  1  0  0  0  0  0  0  0  0  0
    0.5728   25.8299   66.3637 C   0  0  0  0  0  0  0  0  0  0  0  0
    1.6398   28.2798   67.7515 N   0  0  0  0  0  0  0  0  0  0  0  0
   -1.4537   26.0650   67.7272 O   0  0  0  0  0  0  0  0  0  0  0  0
   -2.5498   28.4365   70.3697 O   0  0  0  0  0  0  0  0  0  0  0  0
    0.2957   29.0754   70.0985 O   0  0  0  0  0  0  0  0  0  0  0  0
   -0.1780   25.2978   65.2995 O   0  0  0  0  0  0  0  0  0  0  0  0
  -10.2427   25.8135   64.9459 C   0  0  1  0  0  0  0  0  0  0  0  0
   -9.6717   27.0726   64.2378 C   0  0  1  0  0  0  0  0  0  0  0  0
  -10.8247   27.8798   63.5738 C   0  0  2  0  0  0  0  0  0  0  0  0
  -11.5374   26.9835   62.5313 C   0  0  1  0  0  0  0  0  0  0  0  0
  -12.1331   25.7049   63.2223 C   0  0  0  0  0  0  0  0  0  0  0  0
  -10.9749   24.9305   63.8867 C   0  0  2  0  0  0  0  0  0  0  0  0
  -12.6342   27.7449   61.8865 N   0  0  0  0  0  0  0  0  0  0  0  0
  -11.5393   23.7393   64.5305 N   0  0  0  0  0  0  0  0  0  0  0  0
   -9.0044   27.9091   65.2086 O   0  0  0  0  0  0  0  0  0  0  0  0
  -10.2682   29.0470   62.9288 O   0  0  0  0  0  0  0  0  0  0  0  0
  1  2  1  0  0  0  0
  1 12  1  1  0  0  0
  1 13  1  0  0  0  0
  2  3  1  0  0  0  0
  2 10  1  1  0  0  0
  4  3  1  1  0  0  0
  4  5  1  0  0  0  0
  4 14  1  0  0  0  0
  5  6  1  0  0  0  0
  5 13  1  6  0  0  0
  6  7  1  0  0  0  0
  6 15  1  6  0  0  0
  7  8  1  0  0  0  0
  7 11  1  6  0  0  0
  8 14  1  0  0  0  0
  8 16  1  1  0  0  0
  9 11  1  0  0  0  0
 17 16  1  6  0  0  0
 17 18  1  0  0  0  0
 17 24  1  0  0  0  0
 18 19  1  0  0  0  0
 18 25  1  6  0  0  0
 19 20  1  0  0  0  0
 19 26  1  1  0  0  0
 20 21  1  0  0  0  0
 20 23  1  6  0  0  0
 21 22  1  1  0  0  0
 21 24  1  0  0  0  0
 22 27  1  0  0  0  0
 28 12  1  6  0  0  0
 28 29  1  0  0  0  0
 28 33  1  0  0  0  0
 29 30  1  0  0  0  0
 29 36  1  1  0  0  0
 30 31  1  0  0  0  0
 30 37  1  6  0  0  0
 31 32  1  0  0  0  0
 31 34  1  1  0  0  0
 32 33  1  0  0  0  0
 33 35  1  1  0  0  0
M  END
>  <CHROM.1>
-167.45892961,148.23111436,173.40805261,-60.85919234,178.79268956,-176.66212835
-5.50900676,26.72809666,65.93562058,-3.07690397,-0.42177171,-0.18038006

>  <Name>
ligand

>  <RI>
0

>  <Rbt.Current_Directory>
/home/itssahil/PROJECTS/Mol_Feturizer/Test_systems_manuscript/rnas/2g5k

>  <Rbt.Executable>
rbdock ($Id: //depot/dev/client3/rdock/2013.1/src/exe/rbdock.cxx#4 $)

>  <Rbt.Library>
libRbt.so (2013.1, Build901 2013/11/27)

>  <Rbt.Parameter_File>
/export/apps/rDock/src/rDock_2013.1_src/data/scripts/dock_solv.prm

>  <Rbt.Receptor>
prm/pocket_docking_8.prm

>  <SCORE>
-15.2793

>  <SCORE.INTER>
-9.87594

>  <SCORE.INTER.CONST>
1

>  <SCORE.INTER.POLAR>
0

>  <SCORE.INTER.ROT>
6

>  <SCORE.INTER.SOLV>
13.6758

>  <SCORE.INTER.VDW>
-18.7426

>  <SCORE.INTER.norm>
-0.266917

>  <SCORE.INTRA>
-5.40337

>  <SCORE.INTRA.DIHEDRAL>
-9.69319

>  <SCORE.INTRA.DIHEDRAL.0>
11.3972

>  <SCORE.INTRA.POLAR>
0

>  <SCORE.INTRA.POLAR.0>
0

>  <SCORE.INTRA.REPUL>
0

>  <SCORE.INTRA.REPUL.0>
0

>  <SCORE.INTRA.SOLV>
-0.772658

>  <SCORE.INTRA.SOLV.lig_0>
-92.3891

>  <SCORE.INTRA.VDW>
-0.170445

>  <SCORE.INTRA.VDW.0>
-2.90606

>  <SCORE.INTRA.norm>
-0.146037

>  <SCORE.RESTR>
0

>  <SCORE.RESTR.CAVITY>
0

>  <SCORE.RESTR.norm>
0

>  <SCORE.SYSTEM>
0

>  <SCORE.SYSTEM.CONST>
0

>  <SCORE.SYSTEM.DIHEDRAL>
0

>  <SCORE.SYSTEM.SOLV>
0

>  <SCORE.SYSTEM.norm>
0

>  <SCORE.heavy>
37

>  <SCORE.norm>
-0.412954

>  <RMSD>
9.500

$$$$
ligand
 OpenBabel02271912133D
libRbt.so/2013.1/901 2013/11/27
 37 40  0  0  0  0  0  0  0  0999 V2000
   -8.0314   24.4155   64.8416 C   0  0  1  0  0  0  0  0  0  0  0  0
   -7.1522   23.4566   65.6935 C   0  0  1  0  0  0  0  0  0  0  0  0
   -6.3810   24.2073   66.7958 C   0  0  0  0  0  0  0  0  0  0  0  0
   -5.5115   25.3219   66.1347 C   0  0  1  0  0  0  0  0  0  0  0  0
   -6.4087   26.3118   65.3230 C   0  0  1  0  0  0  0  0  0  0  0  0
   -5.5001   27.4401   64.6551 C   0  0  1  0  0  0  0  0  0  0  0  0
   -4.7325   28.2000   65.7763 C   0  0  1  0  0  0  0  0  0  0  0  0
   -3.8846   27.1627   66.5724 C   0  0  2  0  0  0  0  0  0  0  0  0
   -4.4427   30.6087   64.8683 C   0  0  0  0  0  0  0  0  0  0  0  0
   -7.9761   22.3795   66.2820 N   0  0  0  0  0  0  0  0  0  0  0  0
   -3.8480   29.2701   65.1802 N   0  0  0  0  0  0  0  0  0  0  0  0
   -9.1389   24.9584   65.5865 O   0  0  0  0  0  0  0  0  0  0  0  0
   -7.1666   25.5060   64.3198 O   0  0  0  0  0  0  0  0  0  0  0  0
   -4.7260   26.1039   67.1453 O   0  0  0  0  0  0  0  0  0  0  0  0
   -4.5453   26.8381   63.7908 O   0  0  0  0  0  0  0  0  0  0  0  0
   -3.1789   27.8129   67.6233 O   0  0  0  0  0  0  0  0  0  0  0  0
   -2.5366   26.9044   68.5513 C   0  0  2  0  0  0  0  0  0  0  0  0
   -1.7435   27.6378   69.6588 C   0  0  1  0  0  0  0  0  0  0  0  0
   -0.5193   28.3992   69.0555 C   0  0  2  0  0  0  0  0  0  0  0  0
    0.3940   27.4010   68.3733 C   0  0  1  0  0  0  0  0  0  0  0  0
   -0.3990   26.6841   67.2397 C   0  0  1  0  0  0  0  0  0  0  0  0
    0.4487   25.6408   66.5143 C   0  0  0  0  0  0  0  0  0  0  0  0
    1.5698   28.1131   67.8172 N   0  0  0  0  0  0  0  0  0  0  0  0
   -1.5957   26.0024   67.8221 O   0  0  0  0  0  0  0  0  0  0  0  0
   -2.6641   28.5229   70.3349 O   0  0  0  0  0  0  0  0  0  0  0  0
    0.2062   29.0553   70.0977 O   0  0  0  0  0  0  0  0  0  0  0  0
   -0.3143   25.0527   65.4889 O   0  0  0  0  0  0  0  0  0  0  0  0
  -10.2941   25.6908   64.9390 C   0  0  1  0  0  0  0  0  0  0  0  0
   -9.7285   26.9254   64.1850 C   0  0  1  0  0  0  0  0  0  0  0  0
  -10.8868   27.7118   63.5054 C   0  0  2  0  0  0  0  0  0  0  0  0
  -11.6098   26.7827   62.4993 C   0  0  1  0  0  0  0  0  0  0  0  0
  -12.2002   25.5281   63.2373 C   0  0  0  0  0  0  0  0  0  0  0  0
  -11.0367   24.7744   63.9160 C   0  0  2  0  0  0  0  0  0  0  0  0
  -12.7118   27.5239   61.8401 N   0  0  0  0  0  0  0  0  0  0  0  0
  -11.5962   23.6056   64.6036 N   0  0  0  0  0  0  0  0  0  0  0  0
   -9.0516   27.7924   65.1217 O   0  0  0  0  0  0  0  0  0  0  0  0
  -10.3352   28.8566   62.8175 O   0  0  0  0  0  0  0  0  0  0  0  0
  1  2  1  0  0  0  0
  1 12  1  1  0  0  0
  1 13  1  0  0  0  0
  2  3  1  0  0  0  0
  2 10  1  1  0  0  0
  4  3  1  1  0  0  0
  4  5  1  0  0  0  0
  4 14  1  0  0  0  0
  5  6  1  0  0  0  0
  5 13  1  6  0  0  0
  6  7  1  0  0  0  0
  6 15  1  6  0  0  0
  7  8  1  0  0  0  0
  7 11  1  6  0  0  0
  8 14  1  0  0  0  0
  8 16  1  1  0  0  0
  9 11  1  0  0  0  0
 17 16  1  6  0  0  0
 17 18  1  0  0  0  0
 17 24  1  0  0  0  0
 18 19  1  0  0  0  0
 18 25  1  6  0  0  0
 19 20  1  0  0  0  0
 19 26  1  1  0  0  0
 20 21  1  0  0  0  0
 20 23  1  6  0  0  0
 21 22  1  1  0  0  0
 21 24  1  0  0  0  0
 22 27  1  0  0  0  0
 28 12  1  6  0  0  0
 28 29  1  0  0  0  0
 28 33  1  0  0  0  0
 29 30  1  0  0  0  0
 29 36  1  1  0  0  0
 30 31  1  0  0  0  0
 30 37  1  6  0  0  0
 31 32  1  0  0  0  0
 31 34  1  1  0  0  0
 32 33  1  0  0  0  0
 33 35  1  1  0  0  0
M  END
>  <CHROM.1>
-167.49576804,84.50171775,170.45170550,-59.44421375,178.34001437,-178.77666139
-5.60917693,26.63500746,65.91423156,-3.09952938,-0.43245623,-0.23196509

>  <Name>
ligand

>  <RI>
0

>  <Rbt.Current_Directory>
/home/itssahil/PROJECTS/Mol_Feturizer/Test_systems_manuscript/rnas/2g5k

>  <Rbt.Executable>
rbdock ($Id: //depot/dev/client3/rdock/2013.1/src/exe/rbdock.cxx#4 $)

>  <Rbt.Library>
libRbt.so (2013.1, Build901 2013/11/27)

>  <Rbt.Parameter_File>
/export/apps/rDock/src/rDock_2013.1_src/data/scripts/dock_solv.prm

>  <Rbt.Receptor>
prm/pocket_docking_6.prm

>  <SCORE>
-15.8315

>  <SCORE.INTER>
-10.7594

>  <SCORE.INTER.CONST>
1

>  <SCORE.INTER.POLAR>
0

>  <SCORE.INTER.ROT>
6

>  <SCORE.INTER.SOLV>
14.4062

>  <SCORE.INTER.VDW>
-19.575

>  <SCORE.INTER.norm>
-0.290794

>  <SCORE.INTRA>
-5.07215

>  <SCORE.INTRA.DIHEDRAL>
-9.72765

>  <SCORE.INTRA.DIHEDRAL.0>
11.3972

>  <SCORE.INTRA.POLAR>
0

>  <SCORE.INTRA.POLAR.0>
0

>  <SCORE.INTRA.REPUL>
0

>  <SCORE.INTRA.REPUL.0>
0

>  <SCORE.INTRA.SOLV>
-0.766817

>  <SCORE.INTRA.SOLV.lig_0>
-92.3891

>  <SCORE.INTRA.VDW>
0.175081

>  <SCORE.INTRA.VDW.0>
-2.90606

>  <SCORE.INTRA.norm>
-0.137085

>  <SCORE.RESTR>
0

>  <SCORE.RESTR.CAVITY>
0

>  <SCORE.RESTR.norm>
0

>  <SCORE.SYSTEM>
0

>  <SCORE.SYSTEM.CONST>
0

>  <SCORE.SYSTEM.DIHEDRAL>
0

>  <SCORE.SYSTEM.SOLV>
0

>  <SCORE.SYSTEM.norm>
0

>  <SCORE.heavy>
37

>  <SCORE.norm>
-0.427879

>  <RMSD>
9.502

$$$$
ligand
 OpenBabel02271912133D
libRbt.so/2013.1/901 2013/11/27
 37 40  0  0  0  0  0  0  0  0999 V2000
   -9.7353   20.1295   68.1559 C   0  0  1  0  0  0  0  0  0  0  0  0
   -8.3336   19.6923   67.6436 C   0  0  1  0  0  0  0  0  0  0  0  0
   -7.4969   20.8914   67.1583 C   0  0  0  0  0  0  0  0  0  0  0  0
   -8.2893   21.6423   66.0431 C   0  0  1  0  0  0  0  0  0  0  0  0
   -9.6756   22.1239   66.5814 C   0  0  1  0  0  0  0  0  0  0  0  0
  -10.4683   22.8862   65.4258 C   0  0  1  0  0  0  0  0  0  0  0  0
   -9.6205   24.1016   64.9486 C   0  0  1  0  0  0  0  0  0  0  0  0
   -8.2413   23.5680   64.4569 C   0  0  2  0  0  0  0  0  0  0  0  0
  -11.4928   25.7238   64.1912 C   0  0  0  0  0  0  0  0  0  0  0  0
   -7.6059   18.9452   68.6913 N   0  0  0  0  0  0  0  0  0  0  0  0
  -10.3337   24.8421   63.8414 N   0  0  0  0  0  0  0  0  0  0  0  0
   -9.6650   20.8878   69.3792 O   0  0  0  0  0  0  0  0  0  0  0  0
  -10.4001   20.9201   67.0872 O   0  0  0  0  0  0  0  0  0  0  0  0
   -7.5400   22.8295   65.5152 O   0  0  0  0  0  0  0  0  0  0  0  0
  -10.6592   22.0142   64.3193 O   0  0  0  0  0  0  0  0  0  0  0  0
   -7.4238   24.6509   64.0280 O   0  0  0  0  0  0  0  0  0  0  0  0
   -7.5152   25.8268   64.8695 C   0  0  2  0  0  0  0  0  0  0  0  0
   -6.4863   26.9183   64.4909 C   0  0  1  0  0  0  0  0  0  0  0  0
   -5.0286   26.4321   64.7758 C   0  0  2  0  0  0  0  0  0  0  0  0
   -4.8941   26.1179   66.2520 C   0  0  1  0  0  0  0  0  0  0  0  0
   -5.9117   24.9983   66.6245 C   0  0  1  0  0  0  0  0  0  0  0  0
   -5.8546   24.6380   68.1078 C   0  0  0  0  0  0  0  0  0  0  0  0
   -3.5068   25.6768   66.5345 N   0  0  0  0  0  0  0  0  0  0  0  0
   -7.2978   25.4557   66.2996 O   0  0  0  0  0  0  0  0  0  0  0  0
   -6.6958   27.2449   63.0989 O   0  0  0  0  0  0  0  0  0  0  0  0
   -4.0977   27.4613   64.4335 O   0  0  0  0  0  0  0  0  0  0  0  0
   -6.3613   23.3383   68.2906 O   0  0  0  0  0  0  0  0  0  0  0  0
   -9.1097   22.2936   69.4523 C   0  0  1  0  0  0  0  0  0  0  0  0
  -10.2989   23.2812   69.6047 C   0  0  1  0  0  0  0  0  0  0  0  0
   -9.7714   24.7434   69.6801 C   0  0  2  0  0  0  0  0  0  0  0  0
   -8.8297   24.8813   70.9018 C   0  0  1  0  0  0  0  0  0  0  0  0
   -7.6115   23.8986   70.7696 C   0  0  0  0  0  0  0  0  0  0  0  0
   -8.1596   22.4584   70.6802 C   0  0  2  0  0  0  0  0  0  0  0  0
   -8.3262   26.2732   70.9879 N   0  0  0  0  0  0  0  0  0  0  0  0
   -7.0165   21.5475   70.5558 N   0  0  0  0  0  0  0  0  0  0  0  0
  -11.1798   23.1524   68.4668 O   0  0  0  0  0  0  0  0  0  0  0  0
  -10.8960   25.6406   69.8151 O   0  0  0  0  0  0  0  0  0  0  0  0
  1  2  1  0  0  0  0
  1 12  1  1  0  0  0
  1 13  1  0  0  0  0
  2  3  1  0  0  0  0
  2 10  1  1  0  0  0
  4  3  1  1  0  0  0
  4  5  1  0  0  0  0
  4 14  1  0  0  0  0
  5  6  1  0  0  0  0
  5 13  1  6  0  0  0
  6  7  1  0  0  0  0
  6 15  1  6  0  0  0
  7  8  1  0  0  0  0
  7 11  1  6  0  0  0
  8 14  1  0  0  0  0
  8 16  1  1  0  0  0
  9 11  1  0  0  0  0
 17 16  1  6  0  0  0
 17 18  1  0  0  0  0
 17 24  1  0  0  0  0
 18 19  1  0  0  0  0
 18 25  1  6  0  0  0
 19 20  1  0  0  0  0
 19 26  1  1  0  0  0
 20 21  1  0  0  0  0
 20 23  1  6  0  0  0
 21 22  1  1  0  0  0
 21 24  1  0  0  0  0
 22 27  1  0  0  0  0
 28 12  1  1  0  0  0
 28 29  1  0  0  0  0
 28 33  1  0  0  0  0
 29 30  1  0  0  0  0
 29 36  1  6  0  0  0
 30 31  1  0  0  0  0
 30 37  1  1  0  0  0
 31 32  1  0  0  0  0
 31 34  1  6  0  0  0
 32 33  1  0  0  0  0
 33 35  1  6  0  0  0
M  END
>  <CHROM.1>
70.03421343,75.71179014,40.11898943,105.20411570,172.57589173,-157.13258556
-8.17024235,23.74921124,67.05223346,2.19231063,0.73481939,1.90275113

>  <Name>
ligand

>  <RI>
0

>  <Rbt.Current_Directory>
/home/itssahil/PROJECTS/Mol_Feturizer/Test_systems_manuscript/rnas/2g5k

>  <Rbt.Executable>
rbdock ($Id: //depot/dev/client3/rdock/2013.1/src/exe/rbdock.cxx#4 $)

>  <Rbt.Library>
libRbt.so (2013.1, Build901 2013/11/27)

>  <Rbt.Parameter_File>
/export/apps/rDock/src/rDock_2013.1_src/data/scripts/dock_solv.prm

>  <Rbt.Receptor>
prm/blind_docking_100.prm

>  <SCORE>
26.9679

>  <SCORE.INTER>
10.3062

>  <SCORE.INTER.CONST>
1

>  <SCORE.INTER.POLAR>
0

>  <SCORE.INTER.ROT>
6

>  <SCORE.INTER.SOLV>
30.4813

>  <SCORE.INTER.VDW>
-10.8896

>  <SCORE.INTER.norm>
0.278547

>  <SCORE.INTRA>
3.23306

>  <SCORE.INTRA.DIHEDRAL>
-0.79315

>  <SCORE.INTRA.DIHEDRAL.0>
11.3972

>  <SCORE.INTRA.POLAR>
0

>  <SCORE.INTRA.POLAR.0>
0

>  <SCORE.INTRA.REPUL>
0

>  <SCORE.INTRA.REPUL.0>
0

>  <SCORE.INTRA.SOLV>
6.73538

>  <SCORE.INTRA.SOLV.lig_0>
-92.3891

>  <SCORE.INTRA.VDW>
0.26194

>  <SCORE.INTRA.VDW.0>
-2.90606

>  <SCORE.INTRA.norm>
0.0873799

>  <SCORE.RESTR>
13.4286

>  <SCORE.RESTR.CAVITY>
13.4286

>  <SCORE.RESTR.norm>
0.362936

>  <SCORE.SYSTEM>
0

>  <SCORE.SYSTEM.CONST>
0

>  <SCORE.SYSTEM.DIHEDRAL>
0

>  <SCORE.SYSTEM.SOLV>
0

>  <SCORE.SYSTEM.norm>
0

>  <SCORE.heavy>
37

>  <SCORE.norm>
0.728863

>  <RMSD>
9.503

$$$$
ligand
 OpenBabel02271912133D
libRbt.so/2013.1/901 2013/11/27
 37 40  0  0  0  0  0  0  0  0999 V2000
   -8.6203   25.3249   64.9458 C   0  0  1  0  0  0  0  0  0  0  0  0
   -7.9643   24.2526   65.8614 C   0  0  1  0  0  0  0  0  0  0  0  0
   -7.0446   24.8853   66.9232 C   0  0  0  0  0  0  0  0  0  0  0  0
   -5.9587   25.7446   66.2040 C   0  0  1  0  0  0  0  0  0  0  0  0
   -6.6253   26.8533   65.3265 C   0  0  1  0  0  0  0  0  0  0  0  0
   -5.4983   27.7173   64.5999 C   0  0  1  0  0  0  0  0  0  0  0  0
   -4.5801   28.3607   65.6801 C   0  0  1  0  0  0  0  0  0  0  0  0
   -3.9717   27.2155   66.5444 C   0  0  2  0  0  0  0  0  0  0  0  0
   -3.8348   30.5133   64.4467 C   0  0  0  0  0  0  0  0  0  0  0  0
   -8.9980   23.4156   66.5063 N   0  0  0  0  0  0  0  0  0  0  0  0
   -3.4886   29.1774   65.0286 N   0  0  0  0  0  0  0  0  0  0  0  0
   -9.5817   26.1373   65.6472 O   0  0  0  0  0  0  0  0  0  0  0  0
   -7.5434   26.1703   64.3670 O   0  0  0  0  0  0  0  0  0  0  0  0
   -5.0188   26.3991   67.1725 O   0  0  0  0  0  0  0  0  0  0  0  0
   -4.6992   26.8728   63.7817 O   0  0  0  0  0  0  0  0  0  0  0  0
   -3.1379   27.7610   67.5604 O   0  0  0  0  0  0  0  0  0  0  0  0
   -2.5670   26.7692   68.4490 C   0  0  2  0  0  0  0  0  0  0  0  0
   -1.5396   27.3688   69.4381 C   0  0  1  0  0  0  0  0  0  0  0  0
   -0.2749   27.8876   68.6807 C   0  0  2  0  0  0  0  0  0  0  0  0
    0.3672   26.7296   67.9440 C   0  0  1  0  0  0  0  0  0  0  0  0
   -0.6600   26.1457   66.9283 C   0  0  1  0  0  0  0  0  0  0  0  0
   -0.0947   24.9544   66.1572 C   0  0  0  0  0  0  0  0  0  0  0  0
    1.5813   27.2093   67.2405 N   0  0  0  0  0  0  0  0  0  0  0  0
   -1.8862   25.7001   67.6591 O   0  0  0  0  0  0  0  0  0  0  0  0
   -2.2095   28.4167   70.1738 O   0  0  0  0  0  0  0  0  0  0  0  0
    0.6656   28.4219   69.6151 O   0  0  0  0  0  0  0  0  0  0  0  0
    0.9443   25.3948   65.3170 O   0  0  0  0  0  0  0  0  0  0  0  0
  -10.3653   27.2507   64.9866 C   0  0  1  0  0  0  0  0  0  0  0  0
   -9.3878   28.4164   64.6728 C   0  0  1  0  0  0  0  0  0  0  0  0
  -10.1554   29.5878   63.9941 C   0  0  2  0  0  0  0  0  0  0  0  0
  -10.7912   29.0820   62.6757 C   0  0  1  0  0  0  0  0  0  0  0  0
  -11.7925   27.9068   62.9645 C   0  0  0  0  0  0  0  0  0  0  0  0
  -11.0130   26.7653   63.6514 C   0  0  2  0  0  0  0  0  0  0  0  0
  -11.5198   30.1922   62.0161 N   0  0  0  0  0  0  0  0  0  0  0  0
  -11.9548   25.6729   63.9188 N   0  0  0  0  0  0  0  0  0  0  0  0
   -8.7919   28.8881   65.9015 O   0  0  0  0  0  0  0  0  0  0  0  0
   -9.2261   30.6595   63.7191 O   0  0  0  0  0  0  0  0  0  0  0  0
  1  2  1  0  0  0  0
  1 12  1  1  0  0  0
  1 13  1  0  0  0  0
  2  3  1  0  0  0  0
  2 10  1  1  0  0  0
  4  3  1  1  0  0  0
  4  5  1  0  0  0  0
  4 14  1  0  0  0  0
  5  6  1  0  0  0  0
  5 13  1  6  0  0  0
  6  7  1  0  0  0  0
  6 15  1  6  0  0  0
  7  8  1  0  0  0  0
  7 11  1  6  0  0  0
  8 14  1  0  0  0  0
  8 16  1  1  0  0  0
  9 11  1  0  0  0  0
 17 16  1  6  0  0  0
 17 18  1  0  0  0  0
 17 24  1  0  0  0  0
 18 19  1  0  0  0  0
 18 25  1  6  0  0  0
 19 20  1  0  0  0  0
 19 26  1  1  0  0  0
 20 21  1  0  0  0  0
 20 23  1  6  0  0  0
 21 22  1  1  0  0  0
 21 24  1  0  0  0  0
 22 27  1  0  0  0  0
 28 12  1  6  0  0  0
 28 29  1  0  0  0  0
 28 33  1  0  0  0  0
 29 30  1  0  0  0  0
 29 36  1  1  0  0  0
 30 31  1  0  0  0  0
 30 37  1  6  0  0  0
 31 32  1  0  0  0  0
 31 34  1  1  0  0  0
 32 33  1  0  0  0  0
 33 35  1  1  0  0  0
M  END
>  <CHROM.1>
-179.80945531,75.43288367,177.75226066,-70.32422815,173.35642073,-67.13823726
-5.54707972,27.20947364,65.87664744,2.96061951,-0.32910264,-0.34144381

>  <Name>
ligand

>  <RI>
0

>  <Rbt.Current_Directory>
/home/itssahil/PROJECTS/Mol_Feturizer/Test_systems_manuscript/rnas/2g5k

>  <Rbt.Executable>
rbdock ($Id: //depot/dev/client3/rdock/2013.1/src/exe/rbdock.cxx#4 $)

>  <Rbt.Library>
libRbt.so (2013.1, Build901 2013/11/27)

>  <Rbt.Parameter_File>
/export/apps/rDock/src/rDock_2013.1_src/data/scripts/dock_solv.prm

>  <Rbt.Receptor>
prm/pocket_docking_4.prm

>  <SCORE>
-12.209

>  <SCORE.INTER>
-7.34763

>  <SCORE.INTER.CONST>
1

>  <SCORE.INTER.POLAR>
0

>  <SCORE.INTER.ROT>
6

>  <SCORE.INTER.SOLV>
11.4946

>  <SCORE.INTER.VDW>
-16.33

>  <SCORE.INTER.norm>
-0.198585

>  <SCORE.INTRA>
-4.8644

>  <SCORE.INTRA.DIHEDRAL>
-10.2406

>  <SCORE.INTRA.DIHEDRAL.0>
11.3972

>  <SCORE.INTRA.POLAR>
0

>  <SCORE.INTRA.POLAR.0>
0

>  <SCORE.INTRA.REPUL>
0

>  <SCORE.INTRA.REPUL.0>
0

>  <SCORE.INTRA.SOLV>
0.0665385

>  <SCORE.INTRA.SOLV.lig_0>
-92.3891

>  <SCORE.INTRA.VDW>
0.222632

>  <SCORE.INTRA.VDW.0>
-2.90606

>  <SCORE.INTRA.norm>
-0.13147

>  <SCORE.RESTR>
0.00307854

>  <SCORE.RESTR.CAVITY>
0.00307854

>  <SCORE.RESTR.norm>
8.32038e-05

>  <SCORE.SYSTEM>
0

>  <SCORE.SYSTEM.CONST>
0

>  <SCORE.SYSTEM.DIHEDRAL>
0

>  <SCORE.SYSTEM.SOLV>
0

>  <SCORE.SYSTEM.norm>
0

>  <SCORE.heavy>
37

>  <SCORE.norm>
-0.329972

>  <RMSD>
9.509

$$$$
ligand
 OpenBabel02271912133D
libRbt.so/2013.1/901 2013/11/27
 37 40  0  0  0  0  0  0  0  0999 V2000
   -8.6217   25.3374   64.9398 C   0  0  1  0  0  0  0  0  0  0  0  0
   -7.9637   24.2654   65.8543 C   0  0  1  0  0  0  0  0  0  0  0  0
   -7.0370   24.8979   66.9100 C   0  0  0  0  0  0  0  0  0  0  0  0
   -5.9526   25.7530   66.1833 C   0  0  1  0  0  0  0  0  0  0  0  0
   -6.6210   26.8615   65.3069 C   0  0  1  0  0  0  0  0  0  0  0  0
   -5.4955   27.7211   64.5727 C   0  0  1  0  0  0  0  0  0  0  0  0
   -4.5702   28.3645   65.6467 C   0  0  1  0  0  0  0  0  0  0  0  0
   -3.9602   27.2196   66.5103 C   0  0  2  0  0  0  0  0  0  0  0  0
   -3.8285   30.5068   64.3934 C   0  0  0  0  0  0  0  0  0  0  0  0
   -8.9962   23.4323   66.5063 N   0  0  0  0  0  0  0  0  0  0  0  0
   -3.4800   29.1770   64.9878 N   0  0  0  0  0  0  0  0  0  0  0  0
   -9.5775   26.1537   65.6444 O   0  0  0  0  0  0  0  0  0  0  0  0
   -7.5458   26.1788   64.3536 O   0  0  0  0  0  0  0  0  0  0  0  0
   -5.0060   26.4071   67.1455 O   0  0  0  0  0  0  0  0  0  0  0  0
   -4.7029   26.8729   63.7521 O   0  0  0  0  0  0  0  0  0  0  0  0
   -3.1198   27.7651   67.5208 O   0  0  0  0  0  0  0  0  0  0  0  0
   -2.5660   26.7762   68.4233 C   0  0  2  0  0  0  0  0  0  0  0  0
   -1.5421   27.3752   69.4163 C   0  0  1  0  0  0  0  0  0  0  0  0
   -0.2658   27.8755   68.6659 C   0  0  2  0  0  0  0  0  0  0  0  0
    0.3721   26.7051   67.9453 C   0  0  1  0  0  0  0  0  0  0  0  0
   -0.6513   26.1216   66.9256 C   0  0  1  0  0  0  0  0  0  0  0  0
   -0.0901   24.9183   66.1703 C   0  0  0  0  0  0  0  0  0  0  0  0
    1.5968   27.1673   67.2487 N   0  0  0  0  0  0  0  0  0  0  0  0
   -1.8880   25.6938   67.6491 O   0  0  0  0  0  0  0  0  0  0  0  0
   -2.2089   28.4357   70.1366 O   0  0  0  0  0  0  0  0  0  0  0  0
    0.6710   28.4096   69.6040 O   0  0  0  0  0  0  0  0  0  0  0  0
    0.9504   25.3440   65.3244 O   0  0  0  0  0  0  0  0  0  0  0  0
  -10.3708   27.2594   64.9826 C   0  0  1  0  0  0  0  0  0  0  0  0
   -9.4047   28.4355   64.6725 C   0  0  1  0  0  0  0  0  0  0  0  0
  -10.1826   29.5994   63.9927 C   0  0  2  0  0  0  0  0  0  0  0  0
  -10.8095   29.0882   62.6721 C   0  0  1  0  0  0  0  0  0  0  0  0
  -11.7993   27.9024   62.9573 C   0  0  0  0  0  0  0  0  0  0  0  0
  -11.0097   26.7684   63.6453 C   0  0  2  0  0  0  0  0  0  0  0  0
  -11.5479   30.1913   62.0115 N   0  0  0  0  0  0  0  0  0  0  0  0
  -11.9409   25.6660   63.9092 N   0  0  0  0  0  0  0  0  0  0  0  0
   -8.8171   28.9123   65.9033 O   0  0  0  0  0  0  0  0  0  0  0  0
   -9.2638   30.6810   63.7211 O   0  0  0  0  0  0  0  0  0  0  0  0
  1  2  1  0  0  0  0
  1 12  1  1  0  0  0
  1 13  1  0  0  0  0
  2  3  1  0  0  0  0
  2 10  1  1  0  0  0
  4  3  1  1  0  0  0
  4  5  1  0  0  0  0
  4 14  1  0  0  0  0
  5  6  1  0  0  0  0
  5 13  1  6  0  0  0
  6  7  1  0  0  0  0
  6 15  1  6  0  0  0
  7  8  1  0  0  0  0
  7 11  1  6  0  0  0
  8 14  1  0  0  0  0
  8 16  1  1  0  0  0
  9 11  1  0  0  0  0
 17 16  1  6  0  0  0
 17 18  1  0  0  0  0
 17 24  1  0  0  0  0
 18 19  1  0  0  0  0
 18 25  1  6  0  0  0
 19 20  1  0  0  0  0
 19 26  1  1  0  0  0
 20 21  1  0  0  0  0
 20 23  1  6  0  0  0
 21 22  1  1  0  0  0
 21 24  1  0  0  0  0
 22 27  1  0  0  0  0
 28 12  1  6  0  0  0
 28 29  1  0  0  0  0
 28 33  1  0  0  0  0
 29 30  1  0  0  0  0
 29 36  1  1  0  0  0
 30 31  1  0  0  0  0
 30 37  1  6  0  0  0
 31 32  1  0  0  0  0
 31 34  1  1  0  0  0
 32 33  1  0  0  0  0
 33 35  1  1  0  0  0
M  END
>  <CHROM.1>
-179.23720624,74.86053578,176.69438348,-71.38288273,173.95583451,-67.79734911
-5.54738440,27.20999935,65.86317204,2.95995041,-0.32801504,-0.33486712

>  <Name>
ligand

>  <RI>
0

>  <Rbt.Current_Directory>
/home/itssahil/PROJECTS/Mol_Feturizer/Test_systems_manuscript/rnas/2g5k

>  <Rbt.Executable>
rbdock ($Id: //depot/dev/client3/rdock/2013.1/src/exe/rbdock.cxx#4 $)

>  <Rbt.Library>
libRbt.so (2013.1, Build901 2013/11/27)

>  <Rbt.Parameter_File>
/export/apps/rDock/src/rDock_2013.1_src/data/scripts/dock_solv.prm

>  <Rbt.Receptor>
prm/pocket_docking_4.prm

>  <SCORE>
-12.2026

>  <SCORE.INTER>
-7.36408

>  <SCORE.INTER.CONST>
1

>  <SCORE.INTER.POLAR>
0

>  <SCORE.INTER.ROT>
6

>  <SCORE.INTER.SOLV>
11.4891

>  <SCORE.INTER.VDW>
-16.3391

>  <SCORE.INTER.norm>
-0.199029

>  <SCORE.INTRA>
-4.83851

>  <SCORE.INTRA.DIHEDRAL>
-10.117

>  <SCORE.INTRA.DIHEDRAL.0>
11.3972

>  <SCORE.INTRA.POLAR>
0

>  <SCORE.INTRA.POLAR.0>
0

>  <SCORE.INTRA.REPUL>
0

>  <SCORE.INTRA.REPUL.0>
0

>  <SCORE.INTRA.SOLV>
0.0287579

>  <SCORE.INTRA.SOLV.lig_0>
-92.3891

>  <SCORE.INTRA.VDW>
0.205619

>  <SCORE.INTRA.VDW.0>
-2.90606

>  <SCORE.INTRA.norm>
-0.130771

>  <SCORE.RESTR>
0

>  <SCORE.RESTR.CAVITY>
0

>  <SCORE.RESTR.norm>
0

>  <SCORE.SYSTEM>
0

>  <SCORE.SYSTEM.CONST>
0

>  <SCORE.SYSTEM.DIHEDRAL>
0

>  <SCORE.SYSTEM.SOLV>
0

>  <SCORE.SYSTEM.norm>
0

>  <SCORE.heavy>
37

>  <SCORE.norm>
-0.3298

>  <RMSD>
9.519

$$$$
ligand
 OpenBabel02271912133D
libRbt.so/2013.1/901 2013/11/27
 37 40  0  0  0  0  0  0  0  0999 V2000
   -8.1210   24.4085   64.7761 C   0  0  1  0  0  0  0  0  0  0  0  0
   -7.2586   23.4358   65.6297 C   0  0  1  0  0  0  0  0  0  0  0  0
   -6.5213   24.1662   66.7682 C   0  0  0  0  0  0  0  0  0  0  0  0
   -5.6416   25.2999   66.1550 C   0  0  1  0  0  0  0  0  0  0  0  0
   -6.5231   26.3026   65.3418 C   0  0  1  0  0  0  0  0  0  0  0  0
   -5.6042   27.4504   64.7231 C   0  0  1  0  0  0  0  0  0  0  0  0
   -4.8710   28.1895   65.8807 C   0  0  1  0  0  0  0  0  0  0  0  0
   -4.0380   27.1396   66.6760 C   0  0  2  0  0  0  0  0  0  0  0  0
   -4.5835   30.6005   64.9780 C   0  0  0  0  0  0  0  0  0  0  0  0
   -8.0912   22.3414   66.1724 N   0  0  0  0  0  0  0  0  0  0  0  0
   -3.9776   29.2774   65.3319 N   0  0  0  0  0  0  0  0  0  0  0  0
   -9.2510   24.9286   65.5032 O   0  0  0  0  0  0  0  0  0  0  0  0
   -7.2494   25.5151   64.3015 O   0  0  0  0  0  0  0  0  0  0  0  0
   -4.8878   26.0637   67.2029 O   0  0  0  0  0  0  0  0  0  0  0  0
   -4.6233   26.8729   63.8714 O   0  0  0  0  0  0  0  0  0  0  0  0
   -3.3641   27.7702   67.7591 O   0  0  0  0  0  0  0  0  0  0  0  0
   -2.6272   26.8551   68.6069 C   0  0  2  0  0  0  0  0  0  0  0  0
   -1.7109   27.5805   69.6206 C   0  0  1  0  0  0  0  0  0  0  0  0
   -0.5576   28.3375   68.8861 C   0  0  2  0  0  0  0  0  0  0  0  0
    0.2678   27.3366   68.1032 C   0  0  1  0  0  0  0  0  0  0  0  0
   -0.6512   26.6278   67.0636 C   0  0  1  0  0  0  0  0  0  0  0  0
    0.1040   25.5825   66.2449 C   0  0  0  0  0  0  0  0  0  0  0  0
    1.3780   28.0443   67.4209 N   0  0  0  0  0  0  0  0  0  0  0  0
   -1.7790   25.9506   67.7745 O   0  0  0  0  0  0  0  0  0  0  0  0
   -2.5449   28.4683   70.3980 O   0  0  0  0  0  0  0  0  0  0  0  0
    0.2838   28.9861   69.8424 O   0  0  0  0  0  0  0  0  0  0  0  0
    0.5566   24.5605   67.0994 O   0  0  0  0  0  0  0  0  0  0  0  0
  -10.3820   25.6885   64.8449 C   0  0  1  0  0  0  0  0  0  0  0  0
   -9.7838   26.9279   64.1248 C   0  0  1  0  0  0  0  0  0  0  0  0
  -10.9166   27.7423   63.4353 C   0  0  2  0  0  0  0  0  0  0  0  0
  -11.6309   26.8412   62.3980 C   0  0  1  0  0  0  0  0  0  0  0  0
  -12.2539   25.5824   63.1011 C   0  0  0  0  0  0  0  0  0  0  0  0
  -11.1154   24.8007   63.7905 C   0  0  2  0  0  0  0  0  0  0  0  0
  -12.7084   27.6093   61.7292 N   0  0  0  0  0  0  0  0  0  0  0  0
  -11.7054   23.6280   64.4454 N   0  0  0  0  0  0  0  0  0  0  0  0
   -9.1150   27.7688   65.0908 O   0  0  0  0  0  0  0  0  0  0  0  0
  -10.3349   28.8910   62.7795 O   0  0  0  0  0  0  0  0  0  0  0  0
  1  2  1  0  0  0  0
  1 12  1  1  0  0  0
  1 13  1  0  0  0  0
  2  3  1  0  0  0  0
  2 10  1  1  0  0  0
  4  3  1  1  0  0  0
  4  5  1  0  0  0  0
  4 14  1  0  0  0  0
  5  6  1  0  0  0  0
  5 13  1  6  0  0  0
  6  7  1  0  0  0  0
  6 15  1  6  0  0  0
  7  8  1  0  0  0  0
  7 11  1  6  0  0  0
  8 14  1  0  0  0  0
  8 16  1  1  0  0  0
  9 11  1  0  0  0  0
 17 16  1  6  0  0  0
 17 18  1  0  0  0  0
 17 24  1  0  0  0  0
 18 19  1  0  0  0  0
 18 25  1  6  0  0  0
 19 20  1  0  0  0  0
 19 26  1  1  0  0  0
 20 21  1  0  0  0  0
 20 23  1  6  0  0  0
 21 22  1  1  0  0  0
 21 24  1  0  0  0  0
 22 27  1  0  0  0  0
 28 12  1  6  0  0  0
 28 29  1  0  0  0  0
 28 33  1  0  0  0  0
 29 30  1  0  0  0  0
 29 36  1  1  0  0  0
 30 31  1  0  0  0  0
 30 37  1  6  0  0  0
 31 32  1  0  0  0  0
 31 34  1  1  0  0  0
 32 33  1  0  0  0  0
 33 35  1  1  0  0  0
M  END
>  <CHROM.1>
-168.52736415,81.88128016,176.41106734,-58.04593513,169.99668210,63.55039653
-5.67528265,26.60529827,65.91267111,-3.11122571,-0.43432968,-0.21953129

>  <Name>
ligand

>  <RI>
0

>  <Rbt.Current_Directory>
/home/itssahil/PROJECTS/Mol_Feturizer/Test_systems_manuscript/rnas/2g5k

>  <Rbt.Executable>
rbdock ($Id: //depot/dev/client3/rdock/2013.1/src/exe/rbdock.cxx#4 $)

>  <Rbt.Library>
libRbt.so (2013.1, Build901 2013/11/27)

>  <Rbt.Parameter_File>
/export/apps/rDock/src/rDock_2013.1_src/data/scripts/dock_solv.prm

>  <Rbt.Receptor>
prm/pocket_docking_5.prm

>  <SCORE>
-16.5437

>  <SCORE.INTER>
-11.8251

>  <SCORE.INTER.CONST>
1

>  <SCORE.INTER.POLAR>
0

>  <SCORE.INTER.ROT>
6

>  <SCORE.INTER.SOLV>
14.1686

>  <SCORE.INTER.VDW>
-20.2063

>  <SCORE.INTER.norm>
-0.319598

>  <SCORE.INTRA>
-4.71857

>  <SCORE.INTRA.DIHEDRAL>
-9.7669

>  <SCORE.INTRA.DIHEDRAL.0>
11.3972

>  <SCORE.INTRA.POLAR>
0

>  <SCORE.INTRA.POLAR.0>
0

>  <SCORE.INTRA.REPUL>
0

>  <SCORE.INTRA.REPUL.0>
0

>  <SCORE.INTRA.SOLV>
-0.137593

>  <SCORE.INTRA.SOLV.lig_0>
-92.3891

>  <SCORE.INTRA.VDW>
0.233674

>  <SCORE.INTRA.VDW.0>
-2.90606

>  <SCORE.INTRA.norm>
-0.127529

>  <SCORE.RESTR>
0

>  <SCORE.RESTR.CAVITY>
0

>  <SCORE.RESTR.norm>
0

>  <SCORE.SYSTEM>
0

>  <SCORE.SYSTEM.CONST>
0

>  <SCORE.SYSTEM.DIHEDRAL>
0

>  <SCORE.SYSTEM.SOLV>
0

>  <SCORE.SYSTEM.norm>
0

>  <SCORE.heavy>
37

>  <SCORE.norm>
-0.447127

>  <RMSD>
9.523

$$$$
ligand
 OpenBabel02271912133D
libRbt.so/2013.1/901 2013/11/27
 37 40  0  0  0  0  0  0  0  0999 V2000
   -8.1450   24.4257   64.7841 C   0  0  1  0  0  0  0  0  0  0  0  0
   -7.2833   23.4519   65.6372 C   0  0  1  0  0  0  0  0  0  0  0  0
   -6.5382   24.1828   66.7704 C   0  0  0  0  0  0  0  0  0  0  0  0
   -5.6562   25.3109   66.1501 C   0  0  1  0  0  0  0  0  0  0  0  0
   -6.5368   26.3147   65.3374 C   0  0  1  0  0  0  0  0  0  0  0  0
   -5.6157   27.4568   64.7114 C   0  0  1  0  0  0  0  0  0  0  0  0
   -4.8746   28.1963   65.8637 C   0  0  1  0  0  0  0  0  0  0  0  0
   -4.0428   27.1453   66.6588 C   0  0  2  0  0  0  0  0  0  0  0  0
   -4.5815   30.6017   64.9480 C   0  0  0  0  0  0  0  0  0  0  0  0
   -8.1182   22.3628   66.1867 N   0  0  0  0  0  0  0  0  0  0  0  0
   -3.9789   29.2787   65.3078 N   0  0  0  0  0  0  0  0  0  0  0  0
   -9.2699   24.9528   65.5143 O   0  0  0  0  0  0  0  0  0  0  0  0
   -7.2708   25.5271   64.3025 O   0  0  0  0  0  0  0  0  0  0  0  0
   -4.8949   26.0746   67.1925 O   0  0  0  0  0  0  0  0  0  0  0  0
   -4.6407   26.8725   63.8574 O   0  0  0  0  0  0  0  0  0  0  0  0
   -3.3618   27.7764   67.7372 O   0  0  0  0  0  0  0  0  0  0  0  0
   -2.6250   26.8609   68.5846 C   0  0  2  0  0  0  0  0  0  0  0  0
   -1.7165   27.5858   69.6056 C   0  0  1  0  0  0  0  0  0  0  0  0
   -0.5630   28.3506   68.8797 C   0  0  2  0  0  0  0  0  0  0  0  0
    0.2702   27.3565   68.0965 C   0  0  1  0  0  0  0  0  0  0  0  0
   -0.6409   26.6483   67.0496 C   0  0  1  0  0  0  0  0  0  0  0  0
    0.1225   25.6095   66.2302 C   0  0  0  0  0  0  0  0  0  0  0  0
    1.3807   28.0717   67.4224 N   0  0  0  0  0  0  0  0  0  0  0  0
   -1.7692   25.9633   67.7524 O   0  0  0  0  0  0  0  0  0  0  0  0
   -2.5579   28.4669   70.3827 O   0  0  0  0  0  0  0  0  0  0  0  0
    0.2712   28.9987   69.8426 O   0  0  0  0  0  0  0  0  0  0  0  0
    0.5964   24.5985   67.0861 O   0  0  0  0  0  0  0  0  0  0  0  0
  -10.3952   25.7243   64.8598 C   0  0  1  0  0  0  0  0  0  0  0  0
   -9.7925   26.9832   64.1781 C   0  0  1  0  0  0  0  0  0  0  0  0
  -10.9194   27.8100   63.4938 C   0  0  2  0  0  0  0  0  0  0  0  0
  -11.6164   26.9319   62.4255 C   0  0  1  0  0  0  0  0  0  0  0  0
  -12.2436   25.6540   63.0894 C   0  0  0  0  0  0  0  0  0  0  0  0
  -11.1111   24.8598   63.7745 C   0  0  2  0  0  0  0  0  0  0  0  0
  -12.6882   27.7121   61.7614 N   0  0  0  0  0  0  0  0  0  0  0  0
  -11.7049   23.6694   64.3928 N   0  0  0  0  0  0  0  0  0  0  0  0
   -9.1397   27.8026   65.1730 O   0  0  0  0  0  0  0  0  0  0  0  0
  -10.3338   28.9765   62.8739 O   0  0  0  0  0  0  0  0  0  0  0  0
  1  2  1  0  0  0  0
  1 12  1  1  0  0  0
  1 13  1  0  0  0  0
  2  3  1  0  0  0  0
  2 10  1  1  0  0  0
  4  3  1  1  0  0  0
  4  5  1  0  0  0  0
  4 14  1  0  0  0  0
  5  6  1  0  0  0  0
  5 13  1  6  0  0  0
  6  7  1  0  0  0  0
  6 15  1  6  0  0  0
  7  8  1  0  0  0  0
  7 11  1  6  0  0  0
  8 14  1  0  0  0  0
  8 16  1  1  0  0  0
  9 11  1  0  0  0  0
 17 16  1  6  0  0  0
 17 18  1  0  0  0  0
 17 24  1  0  0  0  0
 18 19  1  0  0  0  0
 18 25  1  6  0  0  0
 19 20  1  0  0  0  0
 19 26  1  1  0  0  0
 20 21  1  0  0  0  0
 20 23  1  6  0  0  0
 21 22  1  1  0  0  0
 21 24  1  0  0  0  0
 22 27  1  0  0  0  0
 28 12  1  6  0  0  0
 28 29  1  0  0  0  0
 28 33  1  0  0  0  0
 29 30  1  0  0  0  0
 29 36  1  1  0  0  0
 30 31  1  0  0  0  0
 30 37  1  6  0  0  0
 31 32  1  0  0  0  0
 31 34  1  1  0  0  0
 32 33  1  0  0  0  0
 33 35  1  1  0  0  0
M  END
>  <CHROM.1>
-169.00144020,81.67509259,176.42271348,-59.66076091,170.80383972,62.48243804
-5.67939753,26.63187883,65.91406153,-3.11218179,-0.42995000,-0.21438734

>  <Name>
ligand

>  <RI>
0

>  <Rbt.Current_Directory>
/home/itssahil/PROJECTS/Mol_Feturizer/Test_systems_manuscript/rnas/2g5k

>  <Rbt.Executable>
rbdock ($Id: //depot/dev/client3/rdock/2013.1/src/exe/rbdock.cxx#4 $)

>  <Rbt.Library>
libRbt.so (2013.1, Build901 2013/11/27)

>  <Rbt.Parameter_File>
/export/apps/rDock/src/rDock_2013.1_src/data/scripts/dock_solv.prm

>  <Rbt.Receptor>
prm/pocket_docking_6.prm

>  <SCORE>
-16.4574

>  <SCORE.INTER>
-11.6056

>  <SCORE.INTER.CONST>
1

>  <SCORE.INTER.POLAR>
0

>  <SCORE.INTER.ROT>
6

>  <SCORE.INTER.SOLV>
13.9518

>  <SCORE.INTER.VDW>
-19.9876

>  <SCORE.INTER.norm>
-0.313664

>  <SCORE.INTRA>
-4.85181

>  <SCORE.INTRA.DIHEDRAL>
-9.93772

>  <SCORE.INTRA.DIHEDRAL.0>
11.3972

>  <SCORE.INTRA.POLAR>
0

>  <SCORE.INTRA.POLAR.0>
0

>  <SCORE.INTRA.REPUL>
0

>  <SCORE.INTRA.REPUL.0>
0

>  <SCORE.INTRA.SOLV>
-0.153629

>  <SCORE.INTRA.SOLV.lig_0>
-92.3891

>  <SCORE.INTRA.VDW>
0.193861

>  <SCORE.INTRA.VDW.0>
-2.90606

>  <SCORE.INTRA.norm>
-0.13113

>  <SCORE.RESTR>
0

>  <SCORE.RESTR.CAVITY>
0

>  <SCORE.RESTR.norm>
0

>  <SCORE.SYSTEM>
0

>  <SCORE.SYSTEM.CONST>
0

>  <SCORE.SYSTEM.DIHEDRAL>
0

>  <SCORE.SYSTEM.SOLV>
0

>  <SCORE.SYSTEM.norm>
0

>  <SCORE.heavy>
37

>  <SCORE.norm>
-0.444794

>  <RMSD>
9.523

$$$$
ligand
 OpenBabel02271912133D
libRbt.so/2013.1/901 2013/11/27
 37 40  0  0  0  0  0  0  0  0999 V2000
  -10.0970   26.7750   65.7124 C   0  0  1  0  0  0  0  0  0  0  0  0
   -9.7858   26.4139   67.1927 C   0  0  1  0  0  0  0  0  0  0  0  0
   -8.7314   27.3546   67.8066 C   0  0  0  0  0  0  0  0  0  0  0  0
   -7.4378   27.3010   66.9354 C   0  0  1  0  0  0  0  0  0  0  0  0
   -7.7491   27.7155   65.4606 C   0  0  1  0  0  0  0  0  0  0  0  0
   -6.4147   27.6517   64.5888 C   0  0  1  0  0  0  0  0  0  0  0  0
   -5.3589   28.6124   65.2101 C   0  0  1  0  0  0  0  0  0  0  0  0
   -5.1139   28.1751   66.6857 C   0  0  2  0  0  0  0  0  0  0  0  0
   -3.3076   29.8393   64.2113 C   0  0  0  0  0  0  0  0  0  0  0  0
  -11.0223   26.4257   68.0027 N   0  0  0  0  0  0  0  0  0  0  0  0
   -4.0729   28.5686   64.4181 N   0  0  0  0  0  0  0  0  0  0  0  0
  -10.7888   28.0324   65.5839 O   0  0  0  0  0  0  0  0  0  0  0  0
   -8.8173   26.8018   64.9568 O   0  0  0  0  0  0  0  0  0  0  0  0
   -6.3571   28.1945   67.4676 O   0  0  0  0  0  0  0  0  0  0  0  0
   -5.8867   26.3320   64.6156 O   0  0  0  0  0  0  0  0  0  0  0  0
   -4.1665   29.0408   67.3004 O   0  0  0  0  0  0  0  0  0  0  0  0
   -3.8559   28.6944   68.6725 C   0  0  2  0  0  0  0  0  0  0  0  0
   -2.6689   29.5059   69.2435 C   0  0  1  0  0  0  0  0  0  0  0  0
   -1.3389   29.1375   68.5103 C   0  0  2  0  0  0  0  0  0  0  0  0
   -1.0640   27.6598   68.7021 C   0  0  1  0  0  0  0  0  0  0  0  0
   -2.2475   26.8440   68.1008 C   0  0  1  0  0  0  0  0  0  0  0  0
   -2.0568   25.3384   68.2745 C   0  0  0  0  0  0  0  0  0  0  0  0
    0.2086   27.3066   68.0278 N   0  0  0  0  0  0  0  0  0  0  0  0
   -3.5215   27.2424   68.7748 O   0  0  0  0  0  0  0  0  0  0  0  0
   -3.0006   30.9062   69.1123 O   0  0  0  0  0  0  0  0  0  0  0  0
   -0.2552   29.8869   69.0644 O   0  0  0  0  0  0  0  0  0  0  0  0
   -3.1425   24.6614   67.6894 O   0  0  0  0  0  0  0  0  0  0  0  0
  -10.1654   29.3626   65.9471 C   0  0  1  0  0  0  0  0  0  0  0  0
  -10.1010   30.2381   64.6656 C   0  0  1  0  0  0  0  0  0  0  0  0
   -9.4609   31.6180   64.9942 C   0  0  2  0  0  0  0  0  0  0  0  0
  -10.3215   32.3354   66.0633 C   0  0  1  0  0  0  0  0  0  0  0  0
  -10.3967   31.4751   67.3753 C   0  0  0  0  0  0  0  0  0  0  0  0
  -11.0188   30.1075   67.0216 C   0  0  2  0  0  0  0  0  0  0  0  0
   -9.7247   33.6554   66.3794 N   0  0  0  0  0  0  0  0  0  0  0  0
  -11.0842   29.3100   68.2512 N   0  0  0  0  0  0  0  0  0  0  0  0
   -9.3002   29.5692   63.6662 O   0  0  0  0  0  0  0  0  0  0  0  0
   -9.4072   32.4089   63.7861 O   0  0  0  0  0  0  0  0  0  0  0  0
  1  2  1  0  0  0  0
  1 12  1  1  0  0  0
  1 13  1  0  0  0  0
  2  3  1  0  0  0  0
  2 10  1  1  0  0  0
  4  3  1  1  0  0  0
  4  5  1  0  0  0  0
  4 14  1  0  0  0  0
  5  6  1  0  0  0  0
  5 13  1  6  0  0  0
  6  7  1  0  0  0  0
  6 15  1  1  0  0  0
  7  8  1  0  0  0  0
  7 11  1  6  0  0  0
  8 14  1  0  0  0  0
  8 16  1  1  0  0  0
  9 11  1  0  0  0  0
 17 16  1  6  0  0  0
 17 18  1  0  0  0  0
 17 24  1  0  0  0  0
 18 19  1  0  0  0  0
 18 25  1  6  0  0  0
 19 20  1  0  0  0  0
 19 26  1  1  0  0  0
 20 21  1  0  0  0  0
 20 23  1  6  0  0  0
 21 22  1  1  0  0  0
 21 24  1  0  0  0  0
 22 27  1  0  0  0  0
 28 12  1  6  0  0  0
 28 29  1  0  0  0  0
 28 33  1  0  0  0  0
 29 30  1  0  0  0  0
 29 36  1  6  0  0  0
 30 31  1  0  0  0  0
 30 37  1  6  0  0  0
 31 32  1  0  0  0  0
 31 34  1  1  0  0  0
 32 33  1  0  0  0  0
 33 35  1  1  0  0  0
M  END
>  <CHROM.1>
65.77656856,141.94518163,-178.90294392,118.03378185,170.96101313,-178.85991080
-6.42157159,28.65428547,66.70447031,2.90887178,-0.25101553,-0.07540617

>  <Name>
ligand

>  <RI>
0

>  <Rbt.Current_Directory>
/home/itssahil/PROJECTS/Mol_Feturizer/Test_systems_manuscript/rnas/2g5k

>  <Rbt.Executable>
rbdock ($Id: //depot/dev/client3/rdock/2013.1/src/exe/rbdock.cxx#4 $)

>  <Rbt.Library>
libRbt.so (2013.1, Build901 2013/11/27)

>  <Rbt.Parameter_File>
/export/apps/rDock/src/rDock_2013.1_src/data/scripts/dock_solv.prm

>  <Rbt.Receptor>
prm/pocket_docking_3.prm

>  <SCORE>
-4.52973

>  <SCORE.INTER>
-4.61236

>  <SCORE.INTER.CONST>
1

>  <SCORE.INTER.POLAR>
0

>  <SCORE.INTER.ROT>
6

>  <SCORE.INTER.SOLV>
9.67593

>  <SCORE.INTER.VDW>
-13.9002

>  <SCORE.INTER.norm>
-0.124658

>  <SCORE.INTRA>
-0.369213

>  <SCORE.INTRA.DIHEDRAL>
-2.76565

>  <SCORE.INTRA.DIHEDRAL.0>
11.3972

>  <SCORE.INTRA.POLAR>
0

>  <SCORE.INTRA.POLAR.0>
0

>  <SCORE.INTRA.REPUL>
0

>  <SCORE.INTRA.REPUL.0>
0

>  <SCORE.INTRA.SOLV>
3.57278

>  <SCORE.INTRA.SOLV.lig_0>
-92.3891

>  <SCORE.INTRA.VDW>
-0.772776

>  <SCORE.INTRA.VDW.0>
-2.90606

>  <SCORE.INTRA.norm>
-0.00997873

>  <SCORE.RESTR>
0.451847

>  <SCORE.RESTR.CAVITY>
0.451847

>  <SCORE.RESTR.norm>
0.0122121

>  <SCORE.SYSTEM>
0

>  <SCORE.SYSTEM.CONST>
0

>  <SCORE.SYSTEM.DIHEDRAL>
0

>  <SCORE.SYSTEM.SOLV>
0

>  <SCORE.SYSTEM.norm>
0

>  <SCORE.heavy>
37

>  <SCORE.norm>
-0.122425

>  <RMSD>
9.524

$$$$
ligand
 OpenBabel02271912133D
libRbt.so/2013.1/901 2013/11/27
 37 40  0  0  0  0  0  0  0  0999 V2000
   -9.7620   26.4547   66.3024 C   0  0  1  0  0  0  0  0  0  0  0  0
   -9.3849   26.3902   67.8098 C   0  0  1  0  0  0  0  0  0  0  0  0
   -8.3983   27.5052   68.2059 C   0  0  0  0  0  0  0  0  0  0  0  0
   -7.1268   27.3976   67.3075 C   0  0  1  0  0  0  0  0  0  0  0  0
   -7.5084   27.5155   65.7962 C   0  0  1  0  0  0  0  0  0  0  0  0
   -6.1954   27.4011   64.8974 C   0  0  1  0  0  0  0  0  0  0  0  0
   -5.2088   28.5371   65.2972 C   0  0  1  0  0  0  0  0  0  0  0  0
   -4.8914   28.3918   66.8160 C   0  0  2  0  0  0  0  0  0  0  0  0
   -3.2866   29.7220   64.0277 C   0  0  0  0  0  0  0  0  0  0  0  0
  -10.5975   26.4502   68.6530 N   0  0  0  0  0  0  0  0  0  0  0  0
   -3.9438   28.4528   64.4754 N   0  0  0  0  0  0  0  0  0  0  0  0
  -10.5600   27.6107   65.9812 O   0  0  0  0  0  0  0  0  0  0  0  0
   -8.5083   26.4456   65.5041 O   0  0  0  0  0  0  0  0  0  0  0  0
   -6.1120   28.4538   67.6306 O   0  0  0  0  0  0  0  0  0  0  0  0
   -5.5580   26.1529   65.1360 O   0  0  0  0  0  0  0  0  0  0  0  0
   -4.0051   29.4251   67.2304 O   0  0  0  0  0  0  0  0  0  0  0  0
   -3.8751   29.5478   68.6682 C   0  0  2  0  0  0  0  0  0  0  0  0
   -2.8423   30.6201   69.0890 C   0  0  1  0  0  0  0  0  0  0  0  0
   -1.3975   30.1958   68.6709 C   0  0  2  0  0  0  0  0  0  0  0  0
   -1.0532   28.8858   69.3500 C   0  0  1  0  0  0  0  0  0  0  0  0
   -2.0777   27.8006   68.9023 C   0  0  1  0  0  0  0  0  0  0  0  0
   -1.8119   26.4494   69.5633 C   0  0  0  0  0  0  0  0  0  0  0  0
    0.3253   28.4874   68.9758 N   0  0  0  0  0  0  0  0  0  0  0  0
   -3.4607   28.2415   69.2618 O   0  0  0  0  0  0  0  0  0  0  0  0
   -3.2463   31.8690   68.4848 O   0  0  0  0  0  0  0  0  0  0  0  0
   -0.4601   31.1929   69.0834 O   0  0  0  0  0  0  0  0  0  0  0  0
   -2.7099   25.4957   69.0500 O   0  0  0  0  0  0  0  0  0  0  0  0
  -11.2951   27.7718   64.6683 C   0  0  1  0  0  0  0  0  0  0  0  0
  -10.2510   27.7530   63.5184 C   0  0  1  0  0  0  0  0  0  0  0  0
  -10.9661   27.9202   62.1463 C   0  0  2  0  0  0  0  0  0  0  0  0
  -11.9671   26.7551   61.9498 C   0  0  1  0  0  0  0  0  0  0  0  0
  -13.0414   26.7553   63.0958 C   0  0  0  0  0  0  0  0  0  0  0  0
  -12.3083   26.6049   64.4458 C   0  0  2  0  0  0  0  0  0  0  0  0
  -12.6498   26.9002   60.6417 N   0  0  0  0  0  0  0  0  0  0  0  0
  -13.3178   26.6073   65.5101 N   0  0  0  0  0  0  0  0  0  0  0  0
   -9.3148   28.8381   63.7013 O   0  0  0  0  0  0  0  0  0  0  0  0
   -9.9736   27.9057   61.0962 O   0  0  0  0  0  0  0  0  0  0  0  0
  1  2  1  0  0  0  0
  1 12  1  1  0  0  0
  1 13  1  0  0  0  0
  2  3  1  0  0  0  0
  2 10  1  1  0  0  0
  4  3  1  1  0  0  0
  4  5  1  0  0  0  0
  4 14  1  0  0  0  0
  5  6  1  0  0  0  0
  5 13  1  6  0  0  0
  6  7  1  0  0  0  0
  6 15  1  1  0  0  0
  7  8  1  0  0  0  0
  7 11  1  6  0  0  0
  8 14  1  0  0  0  0
  8 16  1  1  0  0  0
  9 11  1  0  0  0  0
 17 16  1  6  0  0  0
 17 18  1  0  0  0  0
 17 24  1  0  0  0  0
 18 19  1  0  0  0  0
 18 25  1  6  0  0  0
 19 20  1  0  0  0  0
 19 26  1  1  0  0  0
 20 21  1  0  0  0  0
 20 23  1  6  0  0  0
 21 22  1  1  0  0  0
 21 24  1  0  0  0  0
 22 27  1  0  0  0  0
 28 12  1  1  0  0  0
 28 29  1  0  0  0  0
 28 33  1  0  0  0  0
 29 30  1  0  0  0  0
 29 36  1  1  0  0  0
 30 31  1  0  0  0  0
 30 37  1  6  0  0  0
 31 32  1  0  0  0  0
 31 34  1  6  0  0  0
 32 33  1  0  0  0  0
 33 35  1  1  0  0  0
M  END
>  <CHROM.1>
-167.06154213,142.47956873,167.56407287,-60.65408641,176.53640950,-176.00832549
-6.67077233,27.98788633,66.25167045,2.75187433,-0.35067063,-1.24816794

>  <Name>
ligand

>  <RI>
0

>  <Rbt.Current_Directory>
/home/itssahil/PROJECTS/Mol_Feturizer/Test_systems_manuscript/rnas/2g5k

>  <Rbt.Executable>
rbdock ($Id: //depot/dev/client3/rdock/2013.1/src/exe/rbdock.cxx#4 $)

>  <Rbt.Library>
libRbt.so (2013.1, Build901 2013/11/27)

>  <Rbt.Parameter_File>
/export/apps/rDock/src/rDock_2013.1_src/data/scripts/dock_solv.prm

>  <Rbt.Receptor>
prm/pocket_docking_5.prm

>  <SCORE>
-14.3429

>  <SCORE.INTER>
-9.53124

>  <SCORE.INTER.CONST>
1

>  <SCORE.INTER.POLAR>
0

>  <SCORE.INTER.ROT>
6

>  <SCORE.INTER.SOLV>
14.4182

>  <SCORE.INTER.VDW>
-18.7602

>  <SCORE.INTER.norm>
-0.257601

>  <SCORE.INTRA>
-4.81169

>  <SCORE.INTRA.DIHEDRAL>
-8.88357

>  <SCORE.INTRA.DIHEDRAL.0>
11.3972

>  <SCORE.INTRA.POLAR>
0

>  <SCORE.INTRA.POLAR.0>
0

>  <SCORE.INTRA.REPUL>
0

>  <SCORE.INTRA.REPUL.0>
0

>  <SCORE.INTRA.SOLV>
-0.720168

>  <SCORE.INTRA.SOLV.lig_0>
-92.3891

>  <SCORE.INTRA.VDW>
-0.00982295

>  <SCORE.INTRA.VDW.0>
-2.90606

>  <SCORE.INTRA.norm>
-0.130046

>  <SCORE.RESTR>
0

>  <SCORE.RESTR.CAVITY>
0

>  <SCORE.RESTR.norm>
0

>  <SCORE.SYSTEM>
0

>  <SCORE.SYSTEM.CONST>
0

>  <SCORE.SYSTEM.DIHEDRAL>
0

>  <SCORE.SYSTEM.SOLV>
0

>  <SCORE.SYSTEM.norm>
0

>  <SCORE.heavy>
37

>  <SCORE.norm>
-0.387647

>  <RMSD>
9.542

$$$$
ligand
 OpenBabel02271912133D
libRbt.so/2013.1/901 2013/11/27
 37 40  0  0  0  0  0  0  0  0999 V2000
   -8.1319   24.4259   64.7769 C   0  0  1  0  0  0  0  0  0  0  0  0
   -7.2747   23.4488   65.6307 C   0  0  1  0  0  0  0  0  0  0  0  0
   -6.5298   24.1763   66.7662 C   0  0  0  0  0  0  0  0  0  0  0  0
   -5.6434   25.3026   66.1489 C   0  0  1  0  0  0  0  0  0  0  0  0
   -6.5195   26.3097   65.3354 C   0  0  1  0  0  0  0  0  0  0  0  0
   -5.5938   27.4498   64.7125 C   0  0  1  0  0  0  0  0  0  0  0  0
   -4.8530   28.1861   65.8671 C   0  0  1  0  0  0  0  0  0  0  0  0
   -4.0258   27.1319   66.6628 C   0  0  2  0  0  0  0  0  0  0  0  0
   -4.5500   30.5939   64.9611 C   0  0  0  0  0  0  0  0  0  0  0  0
   -8.1137   22.3614   66.1773 N   0  0  0  0  0  0  0  0  0  0  0  0
   -3.9531   29.2665   65.3142 N   0  0  0  0  0  0  0  0  0  0  0  0
   -9.2567   24.9554   65.5053 O   0  0  0  0  0  0  0  0  0  0  0  0
   -7.2536   25.5253   64.2982 O   0  0  0  0  0  0  0  0  0  0  0  0
   -4.8821   26.0631   67.1937 O   0  0  0  0  0  0  0  0  0  0  0  0
   -4.6188   26.8637   63.8599 O   0  0  0  0  0  0  0  0  0  0  0  0
   -3.3453   27.7600   67.7433 O   0  0  0  0  0  0  0  0  0  0  0  0
   -2.6940   26.8335   68.6470 C   0  0  2  0  0  0  0  0  0  0  0  0
   -1.7398   27.5352   69.6422 C   0  0  1  0  0  0  0  0  0  0  0  0
   -0.5206   28.1651   68.8944 C   0  0  2  0  0  0  0  0  0  0  0  0
    0.2367   27.0673   68.1753 C   0  0  1  0  0  0  0  0  0  0  0  0
   -0.7186   26.3811   67.1533 C   0  0  1  0  0  0  0  0  0  0  0  0
   -0.0341   25.2426   66.3993 C   0  0  0  0  0  0  0  0  0  0  0  0
    1.4084   27.6541   67.4812 N   0  0  0  0  0  0  0  0  0  0  0  0
   -1.9059   25.8274   67.8743 O   0  0  0  0  0  0  0  0  0  0  0  0
   -2.5143   28.5208   70.3610 O   0  0  0  0  0  0  0  0  0  0  0  0
    0.3539   28.7932   69.8346 O   0  0  0  0  0  0  0  0  0  0  0  0
    0.9770   25.7714   65.5762 O   0  0  0  0  0  0  0  0  0  0  0  0
  -10.3889   25.7129   64.8462 C   0  0  1  0  0  0  0  0  0  0  0  0
   -9.7940   26.9589   64.1347 C   0  0  1  0  0  0  0  0  0  0  0  0
  -10.9281   27.7710   63.4448 C   0  0  2  0  0  0  0  0  0  0  0  0
  -11.6338   26.8716   62.4001 C   0  0  1  0  0  0  0  0  0  0  0  0
  -12.2533   25.6061   63.0944 C   0  0  0  0  0  0  0  0  0  0  0  0
  -11.1137   24.8267   63.7845 C   0  0  2  0  0  0  0  0  0  0  0  0
  -12.7125   27.6376   61.7308 N   0  0  0  0  0  0  0  0  0  0  0  0
  -11.7003   23.6479   64.4312 N   0  0  0  0  0  0  0  0  0  0  0  0
   -9.1332   27.7982   65.1075 O   0  0  0  0  0  0  0  0  0  0  0  0
  -10.3497   28.9259   62.7970 O   0  0  0  0  0  0  0  0  0  0  0  0
  1  2  1  0  0  0  0
  1 12  1  1  0  0  0
  1 13  1  0  0  0  0
  2  3  1  0  0  0  0
  2 10  1  1  0  0  0
  4  3  1  1  0  0  0
  4  5  1  0  0  0  0
  4 14  1  0  0  0  0
  5  6  1  0  0  0  0
  5 13  1  6  0  0  0
  6  7  1  0  0  0  0
  6 15  1  6  0  0  0
  7  8  1  0  0  0  0
  7 11  1  6  0  0  0
  8 14  1  0  0  0  0
  8 16  1  1  0  0  0
  9 11  1  0  0  0  0
 17 16  1  6  0  0  0
 17 18  1  0  0  0  0
 17 24  1  0  0  0  0
 18 19  1  0  0  0  0
 18 25  1  6  0  0  0
 19 20  1  0  0  0  0
 19 26  1  1  0  0  0
 20 21  1  0  0  0  0
 20 23  1  6  0  0  0
 21 22  1  1  0  0  0
 21 24  1  0  0  0  0
 22 27  1  0  0  0  0
 28 12  1  6  0  0  0
 28 29  1  0  0  0  0
 28 33  1  0  0  0  0
 29 30  1  0  0  0  0
 29 36  1  1  0  0  0
 30 31  1  0  0  0  0
 30 37  1  6  0  0  0
 31 32  1  0  0  0  0
 31 34  1  1  0  0  0
 32 33  1  0  0  0  0
 33 35  1  1  0  0  0
M  END
>  <CHROM.1>
-168.05225279,81.98288406,172.14559816,-59.08052349,168.73719800,-66.59670773
-5.66999920,26.60485255,65.87710717,-3.12477291,-0.42328734,-0.24661807

>  <Name>
ligand

>  <RI>
0

>  <Rbt.Current_Directory>
/home/itssahil/PROJECTS/Mol_Feturizer/Test_systems_manuscript/rnas/2g5k

>  <Rbt.Executable>
rbdock ($Id: //depot/dev/client3/rdock/2013.1/src/exe/rbdock.cxx#4 $)

>  <Rbt.Library>
libRbt.so (2013.1, Build901 2013/11/27)

>  <Rbt.Parameter_File>
/export/apps/rDock/src/rDock_2013.1_src/data/scripts/dock_solv.prm

>  <Rbt.Receptor>
prm/pocket_docking_5.prm

>  <SCORE>
-15.924

>  <SCORE.INTER>
-11.9007

>  <SCORE.INTER.CONST>
1

>  <SCORE.INTER.POLAR>
0

>  <SCORE.INTER.ROT>
6

>  <SCORE.INTER.SOLV>
13.7164

>  <SCORE.INTER.VDW>
-20.1059

>  <SCORE.INTER.norm>
-0.32164

>  <SCORE.INTRA>
-4.02331

>  <SCORE.INTRA.DIHEDRAL>
-9.25993

>  <SCORE.INTRA.DIHEDRAL.0>
11.3972

>  <SCORE.INTRA.POLAR>
0

>  <SCORE.INTRA.POLAR.0>
0

>  <SCORE.INTRA.REPUL>
0

>  <SCORE.INTRA.REPUL.0>
0

>  <SCORE.INTRA.SOLV>
0.304551

>  <SCORE.INTRA.SOLV.lig_0>
-92.3891

>  <SCORE.INTRA.VDW>
0.454383

>  <SCORE.INTRA.VDW.0>
-2.90606

>  <SCORE.INTRA.norm>
-0.108738

>  <SCORE.RESTR>
0

>  <SCORE.RESTR.CAVITY>
0

>  <SCORE.RESTR.norm>
0

>  <SCORE.SYSTEM>
0

>  <SCORE.SYSTEM.CONST>
0

>  <SCORE.SYSTEM.DIHEDRAL>
0

>  <SCORE.SYSTEM.SOLV>
0

>  <SCORE.SYSTEM.norm>
0

>  <SCORE.heavy>
37

>  <SCORE.norm>
-0.430378

>  <RMSD>
9.542

$$$$
ligand
 OpenBabel02271912133D
libRbt.so/2013.1/901 2013/11/27
 37 40  0  0  0  0  0  0  0  0999 V2000
   -8.1012   24.3724   64.8650 C   0  0  1  0  0  0  0  0  0  0  0  0
   -7.2513   23.3598   65.6841 C   0  0  1  0  0  0  0  0  0  0  0  0
   -6.4917   24.0438   66.8367 C   0  0  0  0  0  0  0  0  0  0  0  0
   -5.5951   25.1776   66.2486 C   0  0  1  0  0  0  0  0  0  0  0  0
   -6.4633   26.2192   65.4709 C   0  0  1  0  0  0  0  0  0  0  0  0
   -5.5273   27.3665   64.8774 C   0  0  1  0  0  0  0  0  0  0  0  0
   -4.7715   28.0587   66.0494 C   0  0  1  0  0  0  0  0  0  0  0  0
   -3.9528   26.9712   66.8082 C   0  0  2  0  0  0  0  0  0  0  0  0
   -3.5158   30.2939   66.4200 C   0  0  0  0  0  0  0  0  0  0  0  0
   -8.1005   22.2665   66.2024 N   0  0  0  0  0  0  0  0  0  0  0  0
   -3.8616   29.1445   65.5242 N   0  0  0  0  0  0  0  0  0  0  0  0
   -9.2157   24.8929   65.6155 O   0  0  0  0  0  0  0  0  0  0  0  0
   -7.2123   25.4752   64.4147 O   0  0  0  0  0  0  0  0  0  0  0  0
   -4.8190   25.8971   67.3115 O   0  0  0  0  0  0  0  0  0  0  0  0
   -4.5640   26.7949   64.0019 O   0  0  0  0  0  0  0  0  0  0  0  0
   -3.2590   27.5581   67.9032 O   0  0  0  0  0  0  0  0  0  0  0  0
   -2.4556   26.6209   68.6617 C   0  0  2  0  0  0  0  0  0  0  0  0
   -1.4903   27.3183   69.6492 C   0  0  1  0  0  0  0  0  0  0  0  0
   -0.3977   28.1293   68.8805 C   0  0  2  0  0  0  0  0  0  0  0  0
    0.3940   27.1803   68.0037 C   0  0  1  0  0  0  0  0  0  0  0  0
   -0.5759   26.5006   66.9913 C   0  0  1  0  0  0  0  0  0  0  0  0
    0.1443   25.5074   66.0812 C   0  0  0  0  0  0  0  0  0  0  0  0
    1.4478   27.9390   67.2875 N   0  0  0  0  0  0  0  0  0  0  0  0
   -1.6459   25.7707   67.7386 O   0  0  0  0  0  0  0  0  0  0  0  0
   -2.2891   28.1543   70.5158 O   0  0  0  0  0  0  0  0  0  0  0  0
    0.4906   28.7511   69.8118 O   0  0  0  0  0  0  0  0  0  0  0  0
    0.6465   24.4460   66.8562 O   0  0  0  0  0  0  0  0  0  0  0  0
  -10.3269   25.7087   64.9912 C   0  0  1  0  0  0  0  0  0  0  0  0
   -9.7082   27.0050   64.3998 C   0  0  1  0  0  0  0  0  0  0  0  0
  -10.8203   27.8778   63.7492 C   0  0  2  0  0  0  0  0  0  0  0  0
  -11.5016   27.0710   62.6164 C   0  0  1  0  0  0  0  0  0  0  0  0
  -12.1445   25.7570   63.1884 C   0  0  0  0  0  0  0  0  0  0  0  0
  -11.0268   24.9167   63.8420 C   0  0  2  0  0  0  0  0  0  0  0  0
  -12.5591   27.8958   61.9840 N   0  0  0  0  0  0  0  0  0  0  0  0
  -11.6352   23.6927   64.3745 N   0  0  0  0  0  0  0  0  0  0  0  0
   -9.0702   27.7579   65.4549 O   0  0  0  0  0  0  0  0  0  0  0  0
  -10.2202   29.0781   63.2134 O   0  0  0  0  0  0  0  0  0  0  0  0
  1  2  1  0  0  0  0
  1 12  1  1  0  0  0
  1 13  1  0  0  0  0
  2  3  1  0  0  0  0
  2 10  1  1  0  0  0
  4  3  1  1  0  0  0
  4  5  1  0  0  0  0
  4 14  1  0  0  0  0
  5  6  1  0  0  0  0
  5 13  1  6  0  0  0
  6  7  1  0  0  0  0
  6 15  1  6  0  0  0
  7  8  1  0  0  0  0
  7 11  1  6  0  0  0
  8 14  1  0  0  0  0
  8 16  1  1  0  0  0
  9 11  1  0  0  0  0
 17 16  1  6  0  0  0
 17 18  1  0  0  0  0
 17 24  1  0  0  0  0
 18 19  1  0  0  0  0
 18 25  1  1  0  0  0
 19 20  1  0  0  0  0
 19 26  1  1  0  0  0
 20 21  1  0  0  0  0
 20 23  1  6  0  0  0
 21 22  1  1  0  0  0
 21 24  1  0  0  0  0
 22 27  1  0  0  0  0
 28 12  1  6  0  0  0
 28 29  1  0  0  0  0
 28 33  1  0  0  0  0
 29 30  1  0  0  0  0
 29 36  1  1  0  0  0
 30 31  1  0  0  0  0
 30 37  1  6  0  0  0
 31 32  1  0  0  0  0
 31 34  1  1  0  0  0
 32 33  1  0  0  0  0
 33 35  1  1  0  0  0
M  END
>  <CHROM.1>
-169.41186912,153.55106058,-179.35816155,-61.64606165,167.98259323,64.53817224
-5.55464629,26.53275744,66.04115434,-3.08938283,-0.40913062,-0.13384006

>  <Name>
ligand

>  <RI>
0

>  <Rbt.Current_Directory>
/home/itssahil/PROJECTS/Mol_Feturizer/Test_systems_manuscript/rnas/2g5k

>  <Rbt.Executable>
rbdock ($Id: //depot/dev/client3/rdock/2013.1/src/exe/rbdock.cxx#4 $)

>  <Rbt.Library>
libRbt.so (2013.1, Build901 2013/11/27)

>  <Rbt.Parameter_File>
/export/apps/rDock/src/rDock_2013.1_src/data/scripts/dock_solv.prm

>  <Rbt.Receptor>
prm/pocket_docking_7.prm

>  <SCORE>
-15.5543

>  <SCORE.INTER>
-10.5614

>  <SCORE.INTER.CONST>
1

>  <SCORE.INTER.POLAR>
0

>  <SCORE.INTER.ROT>
6

>  <SCORE.INTER.SOLV>
14.2138

>  <SCORE.INTER.VDW>
-19.3789

>  <SCORE.INTER.norm>
-0.285444

>  <SCORE.INTRA>
-4.99291

>  <SCORE.INTRA.DIHEDRAL>
-9.55202

>  <SCORE.INTRA.DIHEDRAL.0>
11.3972

>  <SCORE.INTRA.POLAR>
0

>  <SCORE.INTRA.POLAR.0>
0

>  <SCORE.INTRA.REPUL>
0

>  <SCORE.INTRA.REPUL.0>
0

>  <SCORE.INTRA.SOLV>
-0.129622

>  <SCORE.INTRA.SOLV.lig_0>
-92.3891

>  <SCORE.INTRA.VDW>
-0.152089

>  <SCORE.INTRA.VDW.0>
-2.90606

>  <SCORE.INTRA.norm>
-0.134944

>  <SCORE.RESTR>
0

>  <SCORE.RESTR.CAVITY>
0

>  <SCORE.RESTR.norm>
0

>  <SCORE.SYSTEM>
0

>  <SCORE.SYSTEM.CONST>
0

>  <SCORE.SYSTEM.DIHEDRAL>
0

>  <SCORE.SYSTEM.SOLV>
0

>  <SCORE.SYSTEM.norm>
0

>  <SCORE.heavy>
37

>  <SCORE.norm>
-0.420388

>  <RMSD>
9.543

$$$$
ligand
 OpenBabel02271912133D
libRbt.so/2013.1/901 2013/11/27
 37 40  0  0  0  0  0  0  0  0999 V2000
   -8.1591   24.3577   64.8781 C   0  0  1  0  0  0  0  0  0  0  0  0
   -7.3227   23.3363   65.7001 C   0  0  1  0  0  0  0  0  0  0  0  0
   -6.5821   24.0078   66.8723 C   0  0  0  0  0  0  0  0  0  0  0  0
   -5.6760   25.1477   66.3111 C   0  0  1  0  0  0  0  0  0  0  0  0
   -6.5314   26.1977   65.5304 C   0  0  1  0  0  0  0  0  0  0  0  0
   -5.5859   27.3512   64.9646 C   0  0  1  0  0  0  0  0  0  0  0  0
   -4.8494   28.0307   66.1562 C   0  0  1  0  0  0  0  0  0  0  0  0
   -4.0432   26.9350   66.9166 C   0  0  2  0  0  0  0  0  0  0  0  0
   -3.7616   30.3584   66.4855 C   0  0  0  0  0  0  0  0  0  0  0  0
   -8.1802   22.2376   66.1927 N   0  0  0  0  0  0  0  0  0  0  0  0
   -3.9311   29.1219   65.6576 N   0  0  0  0  0  0  0  0  0  0  0  0
   -9.2858   24.8704   65.6157 O   0  0  0  0  0  0  0  0  0  0  0  0
   -7.2630   25.4652   64.4542 O   0  0  0  0  0  0  0  0  0  0  0  0
   -4.9175   25.8557   67.3941 O   0  0  0  0  0  0  0  0  0  0  0  0
   -4.6083   26.7888   64.0990 O   0  0  0  0  0  0  0  0  0  0  0  0
   -3.3674   27.5101   68.0291 O   0  0  0  0  0  0  0  0  0  0  0  0
   -2.5345   26.5761   68.7591 C   0  0  2  0  0  0  0  0  0  0  0  0
   -1.5444   27.2771   69.7191 C   0  0  1  0  0  0  0  0  0  0  0  0
   -0.4817   28.0986   68.9203 C   0  0  2  0  0  0  0  0  0  0  0  0
    0.2895   27.1585   68.0162 C   0  0  1  0  0  0  0  0  0  0  0  0
   -0.7061   26.4753   67.0315 C   0  0  1  0  0  0  0  0  0  0  0  0
   -0.0071   25.4906   66.0961 C   0  0  0  0  0  0  0  0  0  0  0  0
    1.3153   27.9273   67.2708 N   0  0  0  0  0  0  0  0  0  0  0  0
   -1.7475   25.7351   67.8084 O   0  0  0  0  0  0  0  0  0  0  0  0
   -2.3221   28.1043   70.6129 O   0  0  0  0  0  0  0  0  0  0  0  0
    0.4303   28.7236   69.8263 O   0  0  0  0  0  0  0  0  0  0  0  0
    0.5582   24.4494   66.8549 O   0  0  0  0  0  0  0  0  0  0  0  0
  -10.3854   25.6950   64.9826 C   0  0  1  0  0  0  0  0  0  0  0  0
   -9.7472   26.9715   64.3693 C   0  0  1  0  0  0  0  0  0  0  0  0
  -10.8468   27.8528   63.7089 C   0  0  2  0  0  0  0  0  0  0  0  0
  -11.5455   27.0403   62.5909 C   0  0  1  0  0  0  0  0  0  0  0  0
  -12.2083   25.7461   63.1852 C   0  0  0  0  0  0  0  0  0  0  0  0
  -11.1024   24.8973   63.8479 C   0  0  2  0  0  0  0  0  0  0  0  0
  -12.5912   27.8729   61.9494 N   0  0  0  0  0  0  0  0  0  0  0  0
  -11.7293   23.6920   64.4013 N   0  0  0  0  0  0  0  0  0  0  0  0
   -9.0929   27.7297   65.4106 O   0  0  0  0  0  0  0  0  0  0  0  0
  -10.2286   29.0344   63.1528 O   0  0  0  0  0  0  0  0  0  0  0  0
  1  2  1  0  0  0  0
  1 12  1  1  0  0  0
  1 13  1  0  0  0  0
  2  3  1  0  0  0  0
  2 10  1  1  0  0  0
  4  3  1  1  0  0  0
  4  5  1  0  0  0  0
  4 14  1  0  0  0  0
  5  6  1  0  0  0  0
  5 13  1  6  0  0  0
  6  7  1  0  0  0  0
  6 15  1  6  0  0  0
  7  8  1  0  0  0  0
  7 11  1  6  0  0  0
  8 14  1  0  0  0  0
  8 16  1  1  0  0  0
  9 11  1  0  0  0  0
 17 16  1  6  0  0  0
 17 18  1  0  0  0  0
 17 24  1  0  0  0  0
 18 19  1  0  0  0  0
 18 25  1  1  0  0  0
 19 20  1  0  0  0  0
 19 26  1  1  0  0  0
 20 21  1  0  0  0  0
 20 23  1  6  0  0  0
 21 22  1  6  0  0  0
 21 24  1  0  0  0  0
 22 27  1  0  0  0  0
 28 12  1  6  0  0  0
 28 29  1  0  0  0  0
 28 33  1  0  0  0  0
 29 30  1  0  0  0  0
 29 36  1  1  0  0  0
 30 31  1  0  0  0  0
 30 37  1  6  0  0  0
 31 32  1  0  0  0  0
 31 34  1  1  0  0  0
 32 33  1  0  0  0  0
 33 35  1  1  0  0  0
M  END
>  <CHROM.1>
-169.52414250,144.50705581,-177.03208564,-59.48234242,165.28010866,62.91847720
-5.63149204,26.50984095,66.07502493,-3.09270452,-0.41713389,-0.14033361

>  <Name>
ligand

>  <RI>
0

>  <Rbt.Current_Directory>
/home/itssahil/PROJECTS/Mol_Feturizer/Test_systems_manuscript/rnas/2g5k

>  <Rbt.Executable>
rbdock ($Id: //depot/dev/client3/rdock/2013.1/src/exe/rbdock.cxx#4 $)

>  <Rbt.Library>
libRbt.so (2013.1, Build901 2013/11/27)

>  <Rbt.Parameter_File>
/export/apps/rDock/src/rDock_2013.1_src/data/scripts/dock_solv.prm

>  <Rbt.Receptor>
prm/pocket_docking_8.prm

>  <SCORE>
-15.6498

>  <SCORE.INTER>
-10.8966

>  <SCORE.INTER.CONST>
1

>  <SCORE.INTER.POLAR>
0

>  <SCORE.INTER.ROT>
6

>  <SCORE.INTER.SOLV>
14.3176

>  <SCORE.INTER.VDW>
-19.6369

>  <SCORE.INTER.norm>
-0.294502

>  <SCORE.INTRA>
-4.75321

>  <SCORE.INTRA.DIHEDRAL>
-8.96937

>  <SCORE.INTRA.DIHEDRAL.0>
11.3972

>  <SCORE.INTRA.POLAR>
0

>  <SCORE.INTRA.POLAR.0>
0

>  <SCORE.INTRA.REPUL>
0

>  <SCORE.INTRA.REPUL.0>
0

>  <SCORE.INTRA.SOLV>
-0.0933998

>  <SCORE.INTRA.SOLV.lig_0>
-92.3891

>  <SCORE.INTRA.VDW>
-0.221826

>  <SCORE.INTRA.VDW.0>
-2.90606

>  <SCORE.INTRA.norm>
-0.128465

>  <SCORE.RESTR>
0

>  <SCORE.RESTR.CAVITY>
0

>  <SCORE.RESTR.norm>
0

>  <SCORE.SYSTEM>
0

>  <SCORE.SYSTEM.CONST>
0

>  <SCORE.SYSTEM.DIHEDRAL>
0

>  <SCORE.SYSTEM.SOLV>
0

>  <SCORE.SYSTEM.norm>
0

>  <SCORE.heavy>
37

>  <SCORE.norm>
-0.422967

>  <RMSD>
9.545

$$$$
ligand
 OpenBabel02271912133D
libRbt.so/2013.1/901 2013/11/27
 37 40  0  0  0  0  0  0  0  0999 V2000
   -3.9915   31.7157   68.4155 C   0  0  1  0  0  0  0  0  0  0  0  0
   -2.5928   32.3644   68.2118 C   0  0  1  0  0  0  0  0  0  0  0  0
   -1.6021   31.3987   67.5342 C   0  0  0  0  0  0  0  0  0  0  0  0
   -1.4950   30.0999   68.3926 C   0  0  1  0  0  0  0  0  0  0  0  0
   -2.8967   29.4256   68.5490 C   0  0  1  0  0  0  0  0  0  0  0  0
   -2.7642   28.1027   69.4305 C   0  0  1  0  0  0  0  0  0  0  0  0
   -1.7694   27.1288   68.7335 C   0  0  1  0  0  0  0  0  0  0  0  0
   -0.4041   27.8628   68.5728 C   0  0  2  0  0  0  0  0  0  0  0  0
   -1.1454   24.6179   68.8617 C   0  0  0  0  0  0  0  0  0  0  0  0
   -2.7076   33.6161   67.4339 N   0  0  0  0  0  0  0  0  0  0  0  0
   -1.6062   25.8668   69.5481 N   0  0  0  0  0  0  0  0  0  0  0  0
   -4.6831   31.4912   67.1714 O   0  0  0  0  0  0  0  0  0  0  0  0
   -3.8133   30.4379   69.1534 O   0  0  0  0  0  0  0  0  0  0  0  0
   -0.5458   29.1024   67.7978 O   0  0  0  0  0  0  0  0  0  0  0  0
   -2.2429   28.4302   70.7120 O   0  0  0  0  0  0  0  0  0  0  0  0
    0.5329   27.0134   67.9205 O   0  0  0  0  0  0  0  0  0  0  0  0
    0.1121   26.5723   66.6061 C   0  0  2  0  0  0  0  0  0  0  0  0
    1.1373   25.6303   65.9315 C   0  0  1  0  0  0  0  0  0  0  0  0
    2.4626   26.3916   65.6058 C   0  0  2  0  0  0  0  0  0  0  0  0
    2.1531   27.5387   64.6653 C   0  0  1  0  0  0  0  0  0  0  0  0
    1.1424   28.5009   65.3583 C   0  0  1  0  0  0  0  0  0  0  0  0
    0.7601   29.6777   64.4626 C   0  0  0  0  0  0  0  0  0  0  0  0
    3.4096   28.2529   64.3336 N   0  0  0  0  0  0  0  0  0  0  0  0
   -0.1010   27.7487   65.7111 O   0  0  0  0  0  0  0  0  0  0  0  0
    1.3487   24.5129   66.8231 O   0  0  0  0  0  0  0  0  0  0  0  0
    3.3874   25.5065   64.9697 O   0  0  0  0  0  0  0  0  0  0  0  0
    0.0899   29.1964   63.3230 O   0  0  0  0  0  0  0  0  0  0  0  0
   -6.1122   30.9996   67.0944 C   0  0  1  0  0  0  0  0  0  0  0  0
   -6.1493   29.5267   67.5863 C   0  0  1  0  0  0  0  0  0  0  0  0
   -7.6043   28.9788   67.5198 C   0  0  2  0  0  0  0  0  0  0  0  0
   -8.5152   29.8452   68.4243 C   0  0  1  0  0  0  0  0  0  0  0  0
   -8.5036   31.3405   67.9436 C   0  0  0  0  0  0  0  0  0  0  0  0
   -7.0499   31.8561   68.0027 C   0  0  2  0  0  0  0  0  0  0  0  0
   -9.9038   29.3278   68.3743 N   0  0  0  0  0  0  0  0  0  0  0  0
   -7.0475   33.2519   67.5513 N   0  0  0  0  0  0  0  0  0  0  0  0
   -5.2982   28.7173   66.7450 O   0  0  0  0  0  0  0  0  0  0  0  0
   -7.6098   27.6078   67.9759 O   0  0  0  0  0  0  0  0  0  0  0  0
  1  2  1  0  0  0  0
  1 12  1  6  0  0  0
  1 13  1  0  0  0  0
  2  3  1  0  0  0  0
  2 10  1  6  0  0  0
  4  3  1  6  0  0  0
  4  5  1  0  0  0  0
  4 14  1  0  0  0  0
  5  6  1  0  0  0  0
  5 13  1  1  0  0  0
  6  7  1  0  0  0  0
  6 15  1  1  0  0  0
  7  8  1  0  0  0  0
  7 11  1  1  0  0  0
  8 14  1  0  0  0  0
  8 16  1  6  0  0  0
  9 11  1  0  0  0  0
 17 16  1  1  0  0  0
 17 18  1  0  0  0  0
 17 24  1  0  0  0  0
 18 19  1  0  0  0  0
 18 25  1  1  0  0  0
 19 20  1  0  0  0  0
 19 26  1  6  0  0  0
 20 21  1  0  0  0  0
 20 23  1  1  0  0  0
 21 22  1  6  0  0  0
 21 24  1  0  0  0  0
 22 27  1  0  0  0  0
 28 12  1  1  0  0  0
 28 29  1  0  0  0  0
 28 33  1  0  0  0  0
 29 30  1  0  0  0  0
 29 36  1  6  0  0  0
 30 31  1  0  0  0  0
 30 37  1  1  0  0  0
 31 32  1  0  0  0  0
 31 34  1  6  0  0  0
 32 33  1  0  0  0  0
 33 35  1  6  0  0  0
M  END
>  <CHROM.1>
-173.78669301,156.85569898,58.87787440,-68.84826341,-178.95197675,63.69408482
-2.43786964,28.86805603,67.32570476,-2.83616879,-0.37125452,2.79263432

>  <Name>
ligand

>  <RI>
0

>  <Rbt.Current_Directory>
/home/itssahil/PROJECTS/Mol_Feturizer/Test_systems_manuscript/rnas/2g5k

>  <Rbt.Executable>
rbdock ($Id: //depot/dev/client3/rdock/2013.1/src/exe/rbdock.cxx#4 $)

>  <Rbt.Library>
libRbt.so (2013.1, Build901 2013/11/27)

>  <Rbt.Parameter_File>
/export/apps/rDock/src/rDock_2013.1_src/data/scripts/dock_solv.prm

>  <Rbt.Receptor>
prm/pocket_docking_4.prm

>  <SCORE>
-13.0342

>  <SCORE.INTER>
-8.35517

>  <SCORE.INTER.CONST>
1

>  <SCORE.INTER.POLAR>
0

>  <SCORE.INTER.ROT>
6

>  <SCORE.INTER.SOLV>
13.927

>  <SCORE.INTER.VDW>
-17.8125

>  <SCORE.INTER.norm>
-0.225815

>  <SCORE.INTRA>
-4.68617

>  <SCORE.INTRA.DIHEDRAL>
-10.3399

>  <SCORE.INTRA.DIHEDRAL.0>
11.3972

>  <SCORE.INTRA.POLAR>
0

>  <SCORE.INTRA.POLAR.0>
0

>  <SCORE.INTRA.REPUL>
0

>  <SCORE.INTRA.REPUL.0>
0

>  <SCORE.INTRA.SOLV>
0.640312

>  <SCORE.INTRA.SOLV.lig_0>
-92.3891

>  <SCORE.INTRA.VDW>
0.163629

>  <SCORE.INTRA.VDW.0>
-2.90606

>  <SCORE.INTRA.norm>
-0.126653

>  <SCORE.RESTR>
0.00716713

>  <SCORE.RESTR.CAVITY>
0.00716713

>  <SCORE.RESTR.norm>
0.000193706

>  <SCORE.SYSTEM>
0

>  <SCORE.SYSTEM.CONST>
0

>  <SCORE.SYSTEM.DIHEDRAL>
0

>  <SCORE.SYSTEM.SOLV>
0

>  <SCORE.SYSTEM.norm>
0

>  <SCORE.heavy>
37

>  <SCORE.norm>
-0.352275

>  <RMSD>
9.564

$$$$
ligand
 OpenBabel02271912133D
libRbt.so/2013.1/901 2013/11/27
 37 40  0  0  0  0  0  0  0  0999 V2000
   -8.1547   24.4148   64.7530 C   0  0  1  0  0  0  0  0  0  0  0  0
   -7.3035   23.4298   65.6037 C   0  0  1  0  0  0  0  0  0  0  0  0
   -6.5628   24.1475   66.7481 C   0  0  0  0  0  0  0  0  0  0  0  0
   -5.6713   25.2766   66.1434 C   0  0  1  0  0  0  0  0  0  0  0  0
   -6.5416   26.2914   65.3332 C   0  0  1  0  0  0  0  0  0  0  0  0
   -5.6108   27.4344   64.7232 C   0  0  1  0  0  0  0  0  0  0  0  0
   -4.8742   28.1606   65.8867 C   0  0  1  0  0  0  0  0  0  0  0  0
   -4.0528   27.0990   66.6785 C   0  0  2  0  0  0  0  0  0  0  0  0
   -3.6408   30.4140   66.2206 C   0  0  0  0  0  0  0  0  0  0  0  0
   -8.1472   22.3400   66.1381 N   0  0  0  0  0  0  0  0  0  0  0  0
   -3.9697   29.2434   65.3462 N   0  0  0  0  0  0  0  0  0  0  0  0
   -9.2821   24.9410   65.4799 O   0  0  0  0  0  0  0  0  0  0  0  0
   -7.2721   25.5160   64.2867 O   0  0  0  0  0  0  0  0  0  0  0  0
   -4.9136   26.0280   67.1974 O   0  0  0  0  0  0  0  0  0  0  0  0
   -4.6327   26.8527   63.8710 O   0  0  0  0  0  0  0  0  0  0  0  0
   -3.3763   27.7178   67.7669 O   0  0  0  0  0  0  0  0  0  0  0  0
   -2.7582   26.7822   68.6844 C   0  0  2  0  0  0  0  0  0  0  0  0
   -1.7545   27.4592   69.6476 C   0  0  1  0  0  0  0  0  0  0  0  0
   -0.5172   28.0082   68.8666 C   0  0  2  0  0  0  0  0  0  0  0  0
    0.1728   26.8562   68.1647 C   0  0  1  0  0  0  0  0  0  0  0  0
   -0.8315   26.1941   67.1744 C   0  0  1  0  0  0  0  0  0  0  0  0
   -0.2168   25.0043   66.4398 C   0  0  0  0  0  0  0  0  0  0  0  0
    1.3614   27.3658   67.4392 N   0  0  0  0  0  0  0  0  0  0  0  0
   -2.0336   25.7189   67.9262 O   0  0  0  0  0  0  0  0  0  0  0  0
   -2.4674   28.5000   70.3522 O   0  0  0  0  0  0  0  0  0  0  0  0
    0.4023   28.6144   69.7778 O   0  0  0  0  0  0  0  0  0  0  0  0
    0.8244   25.4577   65.6094 O   0  0  0  0  0  0  0  0  0  0  0  0
  -10.4155   25.6955   64.8193 C   0  0  1  0  0  0  0  0  0  0  0  0
   -9.8242   26.9482   64.1166 C   0  0  1  0  0  0  0  0  0  0  0  0
  -10.9596   27.7575   63.4254 C   0  0  2  0  0  0  0  0  0  0  0  0
  -11.6556   26.8593   62.3733 C   0  0  1  0  0  0  0  0  0  0  0  0
  -12.2713   25.5871   63.0586 C   0  0  0  0  0  0  0  0  0  0  0  0
  -11.1305   24.8106   63.7500 C   0  0  2  0  0  0  0  0  0  0  0  0
  -12.7355   27.6226   61.7028 N   0  0  0  0  0  0  0  0  0  0  0  0
  -11.7136   23.6254   64.3884 N   0  0  0  0  0  0  0  0  0  0  0  0
   -9.1724   27.7864   65.0964 O   0  0  0  0  0  0  0  0  0  0  0  0
  -10.3846   28.9187   62.7859 O   0  0  0  0  0  0  0  0  0  0  0  0
  1  2  1  0  0  0  0
  1 12  1  1  0  0  0
  1 13  1  0  0  0  0
  2  3  1  0  0  0  0
  2 10  1  1  0  0  0
  4  3  1  1  0  0  0
  4  5  1  0  0  0  0
  4 14  1  0  0  0  0
  5  6  1  0  0  0  0
  5 13  1  6  0  0  0
  6  7  1  0  0  0  0
  6 15  1  6  0  0  0
  7  8  1  0  0  0  0
  7 11  1  6  0  0  0
  8 14  1  0  0  0  0
  8 16  1  1  0  0  0
  9 11  1  0  0  0  0
 17 16  1  6  0  0  0
 17 18  1  0  0  0  0
 17 24  1  0  0  0  0
 18 19  1  0  0  0  0
 18 25  1  6  0  0  0
 19 20  1  0  0  0  0
 19 26  1  1  0  0  0
 20 21  1  0  0  0  0
 20 23  1  6  0  0  0
 21 22  1  1  0  0  0
 21 24  1  0  0  0  0
 22 27  1  0  0  0  0
 28 12  1  6  0  0  0
 28 29  1  0  0  0  0
 28 33  1  0  0  0  0
 29 30  1  0  0  0  0
 29 36  1  1  0  0  0
 30 31  1  0  0  0  0
 30 37  1  6  0  0  0
 31 32  1  0  0  0  0
 31 34  1  1  0  0  0
 32 33  1  0  0  0  0
 33 35  1  1  0  0  0
M  END
>  <CHROM.1>
-167.52497188,153.76189744,170.74901818,-59.43661897,166.01607830,-65.41574188
-5.67887053,26.53684146,65.90680302,-3.09595603,-0.42471131,-0.15887807

>  <Name>
ligand

>  <RI>
0

>  <Rbt.Current_Directory>
/home/itssahil/PROJECTS/Mol_Feturizer/Test_systems_manuscript/rnas/2g5k

>  <Rbt.Executable>
rbdock ($Id: //depot/dev/client3/rdock/2013.1/src/exe/rbdock.cxx#4 $)

>  <Rbt.Library>
libRbt.so (2013.1, Build901 2013/11/27)

>  <Rbt.Parameter_File>
/export/apps/rDock/src/rDock_2013.1_src/data/scripts/dock_solv.prm

>  <Rbt.Receptor>
prm/pocket_docking_5.prm

>  <SCORE>
-15.3417

>  <SCORE.INTER>
-11.5544

>  <SCORE.INTER.CONST>
1

>  <SCORE.INTER.POLAR>
0

>  <SCORE.INTER.ROT>
6

>  <SCORE.INTER.SOLV>
14.1565

>  <SCORE.INTER.VDW>
-20.0217

>  <SCORE.INTER.norm>
-0.31228

>  <SCORE.INTRA>
-3.78732

>  <SCORE.INTRA.DIHEDRAL>
-8.69878

>  <SCORE.INTRA.DIHEDRAL.0>
11.3972

>  <SCORE.INTRA.POLAR>
0

>  <SCORE.INTRA.POLAR.0>
0

>  <SCORE.INTRA.REPUL>
0

>  <SCORE.INTRA.REPUL.0>
0

>  <SCORE.INTRA.SOLV>
0.380046

>  <SCORE.INTRA.SOLV.lig_0>
-92.3891

>  <SCORE.INTRA.VDW>
0.37205

>  <SCORE.INTRA.VDW.0>
-2.90606

>  <SCORE.INTRA.norm>
-0.10236

>  <SCORE.RESTR>
0

>  <SCORE.RESTR.CAVITY>
0

>  <SCORE.RESTR.norm>
0

>  <SCORE.SYSTEM>
0

>  <SCORE.SYSTEM.CONST>
0

>  <SCORE.SYSTEM.DIHEDRAL>
0

>  <SCORE.SYSTEM.SOLV>
0

>  <SCORE.SYSTEM.norm>
0

>  <SCORE.heavy>
37

>  <SCORE.norm>
-0.41464

>  <RMSD>
9.564

$$$$
ligand
 OpenBabel02271912133D
libRbt.so/2013.1/901 2013/11/27
 37 40  0  0  0  0  0  0  0  0999 V2000
   -7.9017   24.0030   65.4408 C   0  0  1  0  0  0  0  0  0  0  0  0
   -7.0385   23.4111   66.5910 C   0  0  1  0  0  0  0  0  0  0  0  0
   -6.4967   24.5071   67.5284 C   0  0  0  0  0  0  0  0  0  0  0  0
   -5.6759   25.5325   66.6857 C   0  0  1  0  0  0  0  0  0  0  0  0
   -6.5651   26.1614   65.5644 C   0  0  1  0  0  0  0  0  0  0  0  0
   -5.7064   27.2037   64.7153 C   0  0  1  0  0  0  0  0  0  0  0  0
   -5.1716   28.3126   65.6683 C   0  0  1  0  0  0  0  0  0  0  0  0
   -4.3238   27.6276   66.7822 C   0  0  2  0  0  0  0  0  0  0  0  0
   -4.3823   30.7536   65.3093 C   0  0  0  0  0  0  0  0  0  0  0  0
   -7.8093   22.4100   67.3584 N   0  0  0  0  0  0  0  0  0  0  0  0
   -4.3392   29.3133   64.9011 N   0  0  0  0  0  0  0  0  0  0  0  0
   -9.1457   24.5566   65.9119 O   0  0  0  0  0  0  0  0  0  0  0  0
   -7.1004   25.0388   64.7378 O   0  0  0  0  0  0  0  0  0  0  0  0
   -5.1119   26.6379   67.5282 O   0  0  0  0  0  0  0  0  0  0  0  0
   -4.5916   26.5431   64.1305 O   0  0  0  0  0  0  0  0  0  0  0  0
   -3.8294   28.6056   67.6900 O   0  0  0  0  0  0  0  0  0  0  0  0
   -3.1869   28.0484   68.8631 C   0  0  2  0  0  0  0  0  0  0  0  0
   -2.2837   29.0689   69.5954 C   0  0  1  0  0  0  0  0  0  0  0  0
   -1.0555   29.4600   68.7118 C   0  0  2  0  0  0  0  0  0  0  0  0
   -0.2484   28.2133   68.4111 C   0  0  1  0  0  0  0  0  0  0  0  0
   -1.1521   27.1987   67.6484 C   0  0  1  0  0  0  0  0  0  0  0  0
   -0.4157   25.8998   67.3265 C   0  0  0  0  0  0  0  0  0  0  0  0
    0.9316   28.5796   67.5912 N   0  0  0  0  0  0  0  0  0  0  0  0
   -2.3494   26.8719   68.4825 O   0  0  0  0  0  0  0  0  0  0  0  0
   -3.1054   30.2089   69.9322 O   0  0  0  0  0  0  0  0  0  0  0  0
   -0.2284   30.3902   69.4143 O   0  0  0  0  0  0  0  0  0  0  0  0
   -1.3044   25.0026   66.7063 O   0  0  0  0  0  0  0  0  0  0  0  0
  -10.2530   25.0133   64.9870 C   0  0  1  0  0  0  0  0  0  0  0  0
  -10.8596   23.7615   64.2959 C   0  0  1  0  0  0  0  0  0  0  0  0
  -12.0031   24.1873   63.3299 C   0  0  2  0  0  0  0  0  0  0  0  0
  -13.1069   24.9130   64.1382 C   0  0  1  0  0  0  0  0  0  0  0  0
  -12.5225   26.1899   64.8418 C   0  0  0  0  0  0  0  0  0  0  0  0
  -11.3811   25.7448   65.7808 C   0  0  2  0  0  0  0  0  0  0  0  0
  -14.2058   25.3174   63.2287 N   0  0  0  0  0  0  0  0  0  0  0  0
  -10.8401   26.9425   66.4326 N   0  0  0  0  0  0  0  0  0  0  0  0
   -9.8306   23.0819   63.5431 O   0  0  0  0  0  0  0  0  0  0  0  0
  -12.5449   23.0071   62.6965 O   0  0  0  0  0  0  0  0  0  0  0  0
  1  2  1  0  0  0  0
  1 12  1  1  0  0  0
  1 13  1  0  0  0  0
  2  3  1  0  0  0  0
  2 10  1  1  0  0  0
  4  3  1  1  0  0  0
  4  5  1  0  0  0  0
  4 14  1  0  0  0  0
  5  6  1  0  0  0  0
  5 13  1  6  0  0  0
  6  7  1  0  0  0  0
  6 15  1  1  0  0  0
  7  8  1  0  0  0  0
  7 11  1  6  0  0  0
  8 14  1  0  0  0  0
  8 16  1  1  0  0  0
  9 11  1  0  0  0  0
 17 16  1  6  0  0  0
 17 18  1  0  0  0  0
 17 24  1  0  0  0  0
 18 19  1  0  0  0  0
 18 25  1  6  0  0  0
 19 20  1  0  0  0  0
 19 26  1  1  0  0  0
 20 21  1  0  0  0  0
 20 23  1  6  0  0  0
 21 22  1  1  0  0  0
 21 24  1  0  0  0  0
 22 27  1  0  0  0  0
 28 12  1  1  0  0  0
 28 29  1  0  0  0  0
 28 33  1  0  0  0  0
 29 30  1  0  0  0  0
 29 36  1  6  0  0  0
 30 31  1  0  0  0  0
 30 37  1  1  0  0  0
 31 32  1  0  0  0  0
 31 34  1  6  0  0  0
 32 33  1  0  0  0  0
 33 35  1  6  0  0  0
M  END
>  <CHROM.1>
-170.91488236,145.11528591,171.82081271,68.56044511,161.89933156,176.79171464
-6.09683184,26.43301919,66.28747560,-2.73600350,-0.31503977,0.13286146

>  <Name>
ligand

>  <RI>
0

>  <Rbt.Current_Directory>
/home/itssahil/PROJECTS/Mol_Feturizer/Test_systems_manuscript/rnas/2g5k

>  <Rbt.Executable>
rbdock ($Id: //depot/dev/client3/rdock/2013.1/src/exe/rbdock.cxx#4 $)

>  <Rbt.Library>
libRbt.so (2013.1, Build901 2013/11/27)

>  <Rbt.Parameter_File>
/export/apps/rDock/src/rDock_2013.1_src/data/scripts/dock_solv.prm

>  <Rbt.Receptor>
prm/pocket_docking_7.prm

>  <SCORE>
-11.9334

>  <SCORE.INTER>
-7.69212

>  <SCORE.INTER.CONST>
1

>  <SCORE.INTER.POLAR>
0

>  <SCORE.INTER.ROT>
6

>  <SCORE.INTER.SOLV>
12.6793

>  <SCORE.INTER.VDW>
-16.9545

>  <SCORE.INTER.norm>
-0.207895

>  <SCORE.INTRA>
-4.24131

>  <SCORE.INTRA.DIHEDRAL>
-7.9962

>  <SCORE.INTRA.DIHEDRAL.0>
11.3972

>  <SCORE.INTRA.POLAR>
0

>  <SCORE.INTRA.POLAR.0>
0

>  <SCORE.INTRA.REPUL>
0

>  <SCORE.INTRA.REPUL.0>
0

>  <SCORE.INTRA.SOLV>
-1.6901

>  <SCORE.INTRA.SOLV.lig_0>
-92.3891

>  <SCORE.INTRA.VDW>
0.601839

>  <SCORE.INTRA.VDW.0>
-2.90606

>  <SCORE.INTRA.norm>
-0.11463

>  <SCORE.RESTR>
0

>  <SCORE.RESTR.CAVITY>
0

>  <SCORE.RESTR.norm>
0

>  <SCORE.SYSTEM>
0

>  <SCORE.SYSTEM.CONST>
0

>  <SCORE.SYSTEM.DIHEDRAL>
0

>  <SCORE.SYSTEM.SOLV>
0

>  <SCORE.SYSTEM.norm>
0

>  <SCORE.heavy>
37

>  <SCORE.norm>
-0.322525

>  <RMSD>
9.565

$$$$
ligand
 OpenBabel02271912133D
libRbt.so/2013.1/901 2013/11/27
 37 40  0  0  0  0  0  0  0  0999 V2000
   -8.1608   24.4468   64.7295 C   0  0  1  0  0  0  0  0  0  0  0  0
   -7.3092   23.4518   65.5681 C   0  0  1  0  0  0  0  0  0  0  0  0
   -6.5540   24.1587   66.7097 C   0  0  0  0  0  0  0  0  0  0  0  0
   -5.6599   25.2847   66.1031 C   0  0  1  0  0  0  0  0  0  0  0  0
   -6.5300   26.3095   65.3054 C   0  0  1  0  0  0  0  0  0  0  0  0
   -5.5965   27.4491   64.6932 C   0  0  1  0  0  0  0  0  0  0  0  0
   -4.8452   28.1644   65.8541 C   0  0  1  0  0  0  0  0  0  0  0  0
   -4.0245   27.0933   66.6336 C   0  0  2  0  0  0  0  0  0  0  0  0
   -2.7216   28.8427   64.5348 C   0  0  0  0  0  0  0  0  0  0  0  0
   -8.1559   22.3651   66.1042 N   0  0  0  0  0  0  0  0  0  0  0  0
   -3.9378   29.2437   65.3113 N   0  0  0  0  0  0  0  0  0  0  0  0
   -9.2784   24.9771   65.4685 O   0  0  0  0  0  0  0  0  0  0  0  0
   -7.2746   25.5444   64.2612 O   0  0  0  0  0  0  0  0  0  0  0  0
   -4.8882   26.0255   67.1544 O   0  0  0  0  0  0  0  0  0  0  0  0
   -4.6297   26.8650   63.8299 O   0  0  0  0  0  0  0  0  0  0  0  0
   -3.3346   27.7019   67.7193 O   0  0  0  0  0  0  0  0  0  0  0  0
   -2.7052   26.7579   68.6202 C   0  0  2  0  0  0  0  0  0  0  0  0
   -1.7130   27.4305   69.5984 C   0  0  1  0  0  0  0  0  0  0  0  0
   -0.4820   28.0115   68.8307 C   0  0  2  0  0  0  0  0  0  0  0  0
    0.2255   26.8828   68.1087 C   0  0  1  0  0  0  0  0  0  0  0  0
   -0.7674   26.2256   67.1037 C   0  0  1  0  0  0  0  0  0  0  0  0
   -0.1346   25.0586   66.3481 C   0  0  0  0  0  0  0  0  0  0  0  0
    1.4082   27.4227   67.3955 N   0  0  0  0  0  0  0  0  0  0  0  0
   -1.9642   25.7194   67.8437 O   0  0  0  0  0  0  0  0  0  0  0  0
   -2.4419   28.4476   70.3210 O   0  0  0  0  0  0  0  0  0  0  0  0
    0.4271   28.6131   69.7552 O   0  0  0  0  0  0  0  0  0  0  0  0
    0.8282   25.5536   65.4496 O   0  0  0  0  0  0  0  0  0  0  0  0
  -10.4075   25.7503   64.8226 C   0  0  1  0  0  0  0  0  0  0  0  0
   -9.8081   27.0079   64.1356 C   0  0  1  0  0  0  0  0  0  0  0  0
  -10.9389   27.8364   63.4599 C   0  0  2  0  0  0  0  0  0  0  0  0
  -11.6460   26.9590   62.3975 C   0  0  1  0  0  0  0  0  0  0  0  0
  -12.2701   25.6824   63.0670 C   0  0  0  0  0  0  0  0  0  0  0  0
  -11.1336   24.8866   63.7434 C   0  0  2  0  0  0  0  0  0  0  0  0
  -12.7216   27.7408   61.7416 N   0  0  0  0  0  0  0  0  0  0  0  0
  -11.7245   23.6975   64.3669 N   0  0  0  0  0  0  0  0  0  0  0  0
   -9.1460   27.8266   65.1249 O   0  0  0  0  0  0  0  0  0  0  0  0
  -10.3563   29.0016   62.8348 O   0  0  0  0  0  0  0  0  0  0  0  0
  1  2  1  0  0  0  0
  1 12  1  1  0  0  0
  1 13  1  0  0  0  0
  2  3  1  0  0  0  0
  2 10  1  1  0  0  0
  4  3  1  1  0  0  0
  4  5  1  0  0  0  0
  4 14  1  0  0  0  0
  5  6  1  0  0  0  0
  5 13  1  6  0  0  0
  6  7  1  0  0  0  0
  6 15  1  6  0  0  0
  7  8  1  0  0  0  0
  7 11  1  6  0  0  0
  8 14  1  0  0  0  0
  8 16  1  1  0  0  0
  9 11  1  0  0  0  0
 17 16  1  6  0  0  0
 17 18  1  0  0  0  0
 17 24  1  0  0  0  0
 18 19  1  0  0  0  0
 18 25  1  6  0  0  0
 19 20  1  0  0  0  0
 19 26  1  1  0  0  0
 20 21  1  0  0  0  0
 20 23  1  6  0  0  0
 21 22  1  1  0  0  0
 21 24  1  0  0  0  0
 22 27  1  0  0  0  0
 28 12  1  6  0  0  0
 28 29  1  0  0  0  0
 28 33  1  0  0  0  0
 29 30  1  0  0  0  0
 29 36  1  1  0  0  0
 30 31  1  0  0  0  0
 30 37  1  6  0  0  0
 31 32  1  0  0  0  0
 31 34  1  1  0  0  0
 32 33  1  0  0  0  0
 33 35  1  1  0  0  0
M  END
>  <CHROM.1>
-167.93353744,-69.53648232,171.26925923,-59.71159704,167.29246391,-70.10521356
-5.63105414,26.52190070,65.83004163,3.12123688,-0.40995543,-0.30234890

>  <Name>
ligand

>  <RI>
0

>  <Rbt.Current_Directory>
/home/itssahil/PROJECTS/Mol_Feturizer/Test_systems_manuscript/rnas/2g5k

>  <Rbt.Executable>
rbdock ($Id: //depot/dev/client3/rdock/2013.1/src/exe/rbdock.cxx#4 $)

>  <Rbt.Library>
libRbt.so (2013.1, Build901 2013/11/27)

>  <Rbt.Parameter_File>
/export/apps/rDock/src/rDock_2013.1_src/data/scripts/dock_solv.prm

>  <Rbt.Receptor>
prm/pocket_docking_5.prm

>  <SCORE>
-14.5295

>  <SCORE.INTER>
-12.0364

>  <SCORE.INTER.CONST>
1

>  <SCORE.INTER.POLAR>
0

>  <SCORE.INTER.ROT>
6

>  <SCORE.INTER.SOLV>
13.7591

>  <SCORE.INTER.VDW>
-20.2106

>  <SCORE.INTER.norm>
-0.325309

>  <SCORE.INTRA>
-2.49302

>  <SCORE.INTRA.DIHEDRAL>
-9.10033

>  <SCORE.INTRA.DIHEDRAL.0>
11.3972

>  <SCORE.INTRA.POLAR>
0

>  <SCORE.INTRA.POLAR.0>
0

>  <SCORE.INTRA.REPUL>
0

>  <SCORE.INTRA.REPUL.0>
0

>  <SCORE.INTRA.SOLV>
0.506105

>  <SCORE.INTRA.SOLV.lig_0>
-92.3891

>  <SCORE.INTRA.VDW>
1.80409

>  <SCORE.INTRA.VDW.0>
-2.90606

>  <SCORE.INTRA.norm>
-0.0673789

>  <SCORE.RESTR>
0

>  <SCORE.RESTR.CAVITY>
0

>  <SCORE.RESTR.norm>
0

>  <SCORE.SYSTEM>
0

>  <SCORE.SYSTEM.CONST>
0

>  <SCORE.SYSTEM.DIHEDRAL>
0

>  <SCORE.SYSTEM.SOLV>
0

>  <SCORE.SYSTEM.norm>
0

>  <SCORE.heavy>
37

>  <SCORE.norm>
-0.392688

>  <RMSD>
9.576

$$$$
ligand
 OpenBabel02271912133D
libRbt.so/2013.1/901 2013/11/27
 37 40  0  0  0  0  0  0  0  0999 V2000
   -5.8031   28.0733   67.5731 C   0  0  1  0  0  0  0  0  0  0  0  0
   -5.2734   29.5333   67.4939 C   0  0  1  0  0  0  0  0  0  0  0  0
   -4.0226   29.6456   66.6015 C   0  0  0  0  0  0  0  0  0  0  0  0
   -2.9234   28.6822   67.1483 C   0  0  1  0  0  0  0  0  0  0  0  0
   -3.4459   27.2091   67.1759 C   0  0  1  0  0  0  0  0  0  0  0  0
   -2.3083   26.2432   67.7393 C   0  0  1  0  0  0  0  0  0  0  0  0
   -1.0524   26.3554   66.8262 C   0  0  1  0  0  0  0  0  0  0  0  0
   -0.5971   27.8457   66.8083 C   0  0  2  0  0  0  0  0  0  0  0  0
    0.9383   24.7683   66.3478 C   0  0  0  0  0  0  0  0  0  0  0  0
   -6.3328   30.4464   67.0152 N   0  0  0  0  0  0  0  0  0  0  0  0
    0.0548   25.4634   67.3374 N   0  0  0  0  0  0  0  0  0  0  0  0
   -6.3548   27.6168   66.3227 O   0  0  0  0  0  0  0  0  0  0  0  0
   -4.6872   27.1919   68.0059 O   0  0  0  0  0  0  0  0  0  0  0  0
   -1.6672   28.7311   66.3303 O   0  0  0  0  0  0  0  0  0  0  0  0
   -1.9423   26.6477   69.0522 O   0  0  0  0  0  0  0  0  0  0  0  0
    0.5407   27.9984   65.9674 O   0  0  0  0  0  0  0  0  0  0  0  0
    1.1594   29.3062   66.0458 C   0  0  2  0  0  0  0  0  0  0  0  0
    2.2335   29.5293   64.9549 C   0  0  1  0  0  0  0  0  0  0  0  0
    3.4564   28.5815   65.1756 C   0  0  2  0  0  0  0  0  0  0  0  0
    4.0644   28.8704   66.5331 C   0  0  1  0  0  0  0  0  0  0  0  0
    2.9891   28.6175   67.6319 C   0  0  1  0  0  0  0  0  0  0  0  0
    3.5188   28.9091   69.0346 C   0  0  0  0  0  0  0  0  0  0  0  0
    5.2395   27.9901   66.7409 N   0  0  0  0  0  0  0  0  0  0  0  0
    1.8032   29.4929   67.3804 O   0  0  0  0  0  0  0  0  0  0  0  0
    1.5980   29.3194   63.6741 O   0  0  0  0  0  0  0  0  0  0  0  0
    4.4410   28.8163   64.1664 O   0  0  0  0  0  0  0  0  0  0  0  0
    2.4883   28.7107   69.9716 O   0  0  0  0  0  0  0  0  0  0  0  0
   -6.7990   26.1900   66.0842 C   0  0  1  0  0  0  0  0  0  0  0  0
   -8.0145   25.8963   67.0056 C   0  0  1  0  0  0  0  0  0  0  0  0
   -8.5024   24.4336   66.7946 C   0  0  2  0  0  0  0  0  0  0  0  0
   -8.9222   24.2465   65.3157 C   0  0  1  0  0  0  0  0  0  0  0  0
   -7.7078   24.5291   64.3604 C   0  0  0  0  0  0  0  0  0  0  0  0
   -7.2318   25.9779   64.5991 C   0  0  2  0  0  0  0  0  0  0  0  0
   -9.3958   22.8575   65.1043 N   0  0  0  0  0  0  0  0  0  0  0  0
   -6.0974   26.2333   63.7047 N   0  0  0  0  0  0  0  0  0  0  0  0
   -7.6253   26.0725   68.3857 O   0  0  0  0  0  0  0  0  0  0  0  0
   -9.6275   24.1849   67.6663 O   0  0  0  0  0  0  0  0  0  0  0  0
  1  2  1  0  0  0  0
  1 12  1  6  0  0  0
  1 13  1  0  0  0  0
  2  3  1  0  0  0  0
  2 10  1  6  0  0  0
  4  3  1  6  0  0  0
  4  5  1  0  0  0  0
  4 14  1  0  0  0  0
  5  6  1  0  0  0  0
  5 13  1  1  0  0  0
  6  7  1  0  0  0  0
  6 15  1  1  0  0  0
  7  8  1  0  0  0  0
  7 11  1  1  0  0  0
  8 14  1  0  0  0  0
  8 16  1  6  0  0  0
  9 11  1  0  0  0  0
 17 16  1  1  0  0  0
 17 18  1  0  0  0  0
 17 24  1  0  0  0  0
 18 19  1  0  0  0  0
 18 25  1  6  0  0  0
 19 20  1  0  0  0  0
 19 26  1  6  0  0  0
 20 21  1  0  0  0  0
 20 23  1  1  0  0  0
 21 22  1  1  0  0  0
 21 24  1  0  0  0  0
 22 27  1  0  0  0  0
 28 12  1  6  0  0  0
 28 29  1  0  0  0  0
 28 33  1  0  0  0  0
 29 30  1  0  0  0  0
 29 36  1  1  0  0  0
 30 31  1  0  0  0  0
 30 37  1  1  0  0  0
 31 32  1  0  0  0  0
 31 34  1  1  0  0  0
 32 33  1  0  0  0  0
 33 35  1  6  0  0  0
M  END
>  <CHROM.1>
173.09479937,143.67492470,-171.08663737,65.64522945,-170.09347283,177.78997602
-2.44183189,27.33913836,66.61504376,2.95528671,-0.20310051,-2.24395459

>  <Name>
ligand

>  <RI>
0

>  <Rbt.Current_Directory>
/home/itssahil/PROJECTS/Mol_Feturizer/Test_systems_manuscript/rnas/2g5k

>  <Rbt.Executable>
rbdock ($Id: //depot/dev/client3/rdock/2013.1/src/exe/rbdock.cxx#4 $)

>  <Rbt.Library>
libRbt.so (2013.1, Build901 2013/11/27)

>  <Rbt.Parameter_File>
/export/apps/rDock/src/rDock_2013.1_src/data/scripts/dock_solv.prm

>  <Rbt.Receptor>
prm/pocket_docking_8.prm

>  <SCORE>
-9.14373

>  <SCORE.INTER>
-3.49987

>  <SCORE.INTER.CONST>
1

>  <SCORE.INTER.POLAR>
0

>  <SCORE.INTER.ROT>
6

>  <SCORE.INTER.SOLV>
14.1075

>  <SCORE.INTER.VDW>
-14.6357

>  <SCORE.INTER.norm>
-0.0945912

>  <SCORE.INTRA>
-5.64386

>  <SCORE.INTRA.DIHEDRAL>
-9.3032

>  <SCORE.INTRA.DIHEDRAL.0>
11.3972

>  <SCORE.INTRA.POLAR>
0

>  <SCORE.INTRA.POLAR.0>
0

>  <SCORE.INTRA.REPUL>
0

>  <SCORE.INTRA.REPUL.0>
0

>  <SCORE.INTRA.SOLV>
-1.92484

>  <SCORE.INTRA.SOLV.lig_0>
-92.3891

>  <SCORE.INTRA.VDW>
-0.0298403

>  <SCORE.INTRA.VDW.0>
-2.90606

>  <SCORE.INTRA.norm>
-0.152537

>  <SCORE.RESTR>
0

>  <SCORE.RESTR.CAVITY>
0

>  <SCORE.RESTR.norm>
0

>  <SCORE.SYSTEM>
0

>  <SCORE.SYSTEM.CONST>
0

>  <SCORE.SYSTEM.DIHEDRAL>
0

>  <SCORE.SYSTEM.SOLV>
0

>  <SCORE.SYSTEM.norm>
0

>  <SCORE.heavy>
37

>  <SCORE.norm>
-0.247128

>  <RMSD>
9.586

$$$$
ligand
 OpenBabel02271912133D
libRbt.so/2013.1/901 2013/11/27
 37 40  0  0  0  0  0  0  0  0999 V2000
   -8.2782   24.3948   66.8439 C   0  0  1  0  0  0  0  0  0  0  0  0
   -7.0162   23.4975   66.9876 C   0  0  1  0  0  0  0  0  0  0  0  0
   -5.9516   24.1406   67.8967 C   0  0  0  0  0  0  0  0  0  0  0  0
   -5.5769   25.5425   67.3227 C   0  0  1  0  0  0  0  0  0  0  0  0
   -6.8420   26.4560   67.2302 C   0  0  1  0  0  0  0  0  0  0  0  0
   -6.4367   27.8815   66.6399 C   0  0  1  0  0  0  0  0  0  0  0  0
   -5.3685   28.5282   67.5697 C   0  0  1  0  0  0  0  0  0  0  0  0
   -4.1486   27.5619   67.6526 C   0  0  2  0  0  0  0  0  0  0  0  0
   -4.4199   30.9017   67.9905 C   0  0  0  0  0  0  0  0  0  0  0  0
   -7.3845   22.1576   67.4919 N   0  0  0  0  0  0  0  0  0  0  0  0
   -4.9478   29.8770   67.0343 N   0  0  0  0  0  0  0  0  0  0  0  0
   -9.0306   24.4908   68.0690 O   0  0  0  0  0  0  0  0  0  0  0  0
   -7.8468   25.7419   66.3873 O   0  0  0  0  0  0  0  0  0  0  0  0
   -4.5414   26.2388   68.1549 O   0  0  0  0  0  0  0  0  0  0  0  0
   -5.8645   27.7209   65.3483 O   0  0  0  0  0  0  0  0  0  0  0  0
   -3.1524   28.1061   68.5108 O   0  0  0  0  0  0  0  0  0  0  0  0
   -2.0761   27.1870   68.8205 C   0  0  2  0  0  0  0  0  0  0  0  0
   -1.0651   27.7663   69.8382 C   0  0  1  0  0  0  0  0  0  0  0  0
   -0.2882   28.9755   69.2243 C   0  0  2  0  0  0  0  0  0  0  0  0
    0.4632   28.5051   67.9954 C   0  0  1  0  0  0  0  0  0  0  0  0
   -0.5599   27.9484   66.9605 C   0  0  1  0  0  0  0  0  0  0  0  0
    0.1231   27.4309   65.6961 C   0  0  0  0  0  0  0  0  0  0  0  0
    1.2211   29.6422   67.4196 N   0  0  0  0  0  0  0  0  0  0  0  0
   -1.3323   26.8260   67.5767 O   0  0  0  0  0  0  0  0  0  0  0  0
   -1.8069   28.1324   71.0229 O   0  0  0  0  0  0  0  0  0  0  0  0
    0.6498   29.4835   70.1758 O   0  0  0  0  0  0  0  0  0  0  0  0
   -0.8540   26.9672   64.7961 O   0  0  0  0  0  0  0  0  0  0  0  0
  -10.2111   25.4209   68.2462 C   0  0  1  0  0  0  0  0  0  0  0  0
   -9.6750   26.8744   68.3599 C   0  0  1  0  0  0  0  0  0  0  0  0
  -10.8594   27.8663   68.5476 C   0  0  2  0  0  0  0  0  0  0  0  0
  -11.8070   27.7627   67.3272 C   0  0  1  0  0  0  0  0  0  0  0  0
  -12.3717   26.3031   67.1929 C   0  0  0  0  0  0  0  0  0  0  0  0
  -11.1796   25.3372   67.0244 C   0  0  2  0  0  0  0  0  0  0  0  0
  -12.9364   28.7092   67.4917 N   0  0  0  0  0  0  0  0  0  0  0  0
  -11.7150   23.9770   66.9011 N   0  0  0  0  0  0  0  0  0  0  0  0
   -8.7889   26.9724   69.4969 O   0  0  0  0  0  0  0  0  0  0  0  0
  -10.3339   29.2078   68.6569 O   0  0  0  0  0  0  0  0  0  0  0  0
  1  2  1  0  0  0  0
  1 12  1  1  0  0  0
  1 13  1  0  0  0  0
  2  3  1  0  0  0  0
  2 10  1  1  0  0  0
  4  3  1  1  0  0  0
  4  5  1  0  0  0  0
  4 14  1  0  0  0  0
  5  6  1  0  0  0  0
  5 13  1  6  0  0  0
  6  7  1  0  0  0  0
  6 15  1  6  0  0  0
  7  8  1  0  0  0  0
  7 11  1  6  0  0  0
  8 14  1  0  0  0  0
  8 16  1  1  0  0  0
  9 11  1  0  0  0  0
 17 16  1  6  0  0  0
 17 18  1  0  0  0  0
 17 24  1  0  0  0  0
 18 19  1  0  0  0  0
 18 25  1  1  0  0  0
 19 20  1  0  0  0  0
 19 26  1  1  0  0  0
 20 21  1  0  0  0  0
 20 23  1  6  0  0  0
 21 22  1  6  0  0  0
 21 24  1  0  0  0  0
 22 27  1  0  0  0  0
 28 12  1  6  0  0  0
 28 29  1  0  0  0  0
 28 33  1  0  0  0  0
 29 30  1  0  0  0  0
 29 36  1  1  0  0  0
 30 31  1  0  0  0  0
 30 37  1  6  0  0  0
 31 32  1  0  0  0  0
 31 34  1  1  0  0  0
 32 33  1  0  0  0  0
 33 35  1  1  0  0  0
M  END
>  <CHROM.1>
172.92246459,154.15745364,170.62938153,-73.32849818,-175.65009439,-178.90967336
-5.68769389,27.06226594,67.73731510,-2.91735573,0.01557763,0.28957975

>  <Name>
ligand

>  <RI>
0

>  <Rbt.Current_Directory>
/home/itssahil/PROJECTS/Mol_Feturizer/Test_systems_manuscript/rnas/2g5k

>  <Rbt.Executable>
rbdock ($Id: //depot/dev/client3/rdock/2013.1/src/exe/rbdock.cxx#4 $)

>  <Rbt.Library>
libRbt.so (2013.1, Build901 2013/11/27)

>  <Rbt.Parameter_File>
/export/apps/rDock/src/rDock_2013.1_src/data/scripts/dock_solv.prm

>  <Rbt.Receptor>
prm/pocket_docking_6.prm

>  <SCORE>
-10.099

>  <SCORE.INTER>
-4.85523

>  <SCORE.INTER.CONST>
1

>  <SCORE.INTER.POLAR>
0

>  <SCORE.INTER.ROT>
6

>  <SCORE.INTER.SOLV>
13.9087

>  <SCORE.INTER.VDW>
-15.4731

>  <SCORE.INTER.norm>
-0.131222

>  <SCORE.INTRA>
-5.24377

>  <SCORE.INTRA.DIHEDRAL>
-9.2838

>  <SCORE.INTRA.DIHEDRAL.0>
11.3972

>  <SCORE.INTRA.POLAR>
0

>  <SCORE.INTRA.POLAR.0>
0

>  <SCORE.INTRA.REPUL>
0

>  <SCORE.INTRA.REPUL.0>
0

>  <SCORE.INTRA.SOLV>
-0.950246

>  <SCORE.INTRA.SOLV.lig_0>
-92.3891

>  <SCORE.INTRA.VDW>
-0.126744

>  <SCORE.INTRA.VDW.0>
-2.90606

>  <SCORE.INTRA.norm>
-0.141723

>  <SCORE.RESTR>
0

>  <SCORE.RESTR.CAVITY>
0

>  <SCORE.RESTR.norm>
0

>  <SCORE.SYSTEM>
0

>  <SCORE.SYSTEM.CONST>
0

>  <SCORE.SYSTEM.DIHEDRAL>
0

>  <SCORE.SYSTEM.SOLV>
0

>  <SCORE.SYSTEM.norm>
0

>  <SCORE.heavy>
37

>  <SCORE.norm>
-0.272946

>  <RMSD>
9.611

$$$$
ligand
 OpenBabel02271912133D
libRbt.so/2013.1/901 2013/11/27
 37 40  0  0  0  0  0  0  0  0999 V2000
   -9.5090   26.3081   65.7366 C   0  0  1  0  0  0  0  0  0  0  0  0
   -9.3832   26.4707   67.2781 C   0  0  1  0  0  0  0  0  0  0  0  0
   -8.4264   27.6157   67.6612 C   0  0  0  0  0  0  0  0  0  0  0  0
   -7.0324   27.3478   67.0129 C   0  0  1  0  0  0  0  0  0  0  0  0
   -7.1596   27.2375   65.4588 C   0  0  1  0  0  0  0  0  0  0  0  0
   -5.7250   26.9620   64.8179 C   0  0  1  0  0  0  0  0  0  0  0  0
   -4.7678   28.1284   65.2015 C   0  0  1  0  0  0  0  0  0  0  0  0
   -4.7063   28.2140   66.7564 C   0  0  2  0  0  0  0  0  0  0  0  0
   -3.1443   28.2360   63.1859 C   0  0  0  0  0  0  0  0  0  0  0  0
  -10.7124   26.6820   67.8896 N   0  0  0  0  0  0  0  0  0  0  0  0
   -3.3916   27.8954   64.6232 N   0  0  0  0  0  0  0  0  0  0  0  0
  -10.1941   27.4146   65.1181 O   0  0  0  0  0  0  0  0  0  0  0  0
   -8.1445   26.1532   65.1680 O   0  0  0  0  0  0  0  0  0  0  0  0
   -6.0385   28.4229   67.3384 O   0  0  0  0  0  0  0  0  0  0  0  0
   -5.1888   25.7545   65.3430 O   0  0  0  0  0  0  0  0  0  0  0  0
   -3.8547   29.2829   67.1530 O   0  0  0  0  0  0  0  0  0  0  0  0
   -3.8093   29.4992   68.5849 C   0  0  2  0  0  0  0  0  0  0  0  0
   -2.8085   30.6057   68.9942 C   0  0  1  0  0  0  0  0  0  0  0  0
   -1.3396   30.1684   68.6886 C   0  0  2  0  0  0  0  0  0  0  0  0
   -1.0284   28.9081   69.4701 C   0  0  1  0  0  0  0  0  0  0  0  0
   -2.0194   27.7871   69.0354 C   0  0  1  0  0  0  0  0  0  0  0  0
   -1.7854   26.4838   69.7969 C   0  0  0  0  0  0  0  0  0  0  0  0
    0.3716   28.4989   69.2027 N   0  0  0  0  0  0  0  0  0  0  0  0
   -3.4232   28.2378   69.2850 O   0  0  0  0  0  0  0  0  0  0  0  0
   -3.1831   31.8094   68.2878 O   0  0  0  0  0  0  0  0  0  0  0  0
   -0.4330   31.1985   69.0890 O   0  0  0  0  0  0  0  0  0  0  0  0
   -2.6309   25.4849   69.2804 O   0  0  0  0  0  0  0  0  0  0  0  0
  -10.4876   27.4836   63.6352 C   0  0  1  0  0  0  0  0  0  0  0  0
  -11.5741   26.4245   63.3025 C   0  0  1  0  0  0  0  0  0  0  0  0
  -11.9042   26.4588   61.7820 C   0  0  2  0  0  0  0  0  0  0  0  0
  -12.4285   27.8671   61.4077 C   0  0  1  0  0  0  0  0  0  0  0  0
  -11.3449   28.9587   61.7260 C   0  0  0  0  0  0  0  0  0  0  0  0
  -11.0224   28.8946   63.2341 C   0  0  2  0  0  0  0  0  0  0  0  0
  -12.7533   27.9096   59.9617 N   0  0  0  0  0  0  0  0  0  0  0  0
  -10.0094   29.9156   63.5227 N   0  0  0  0  0  0  0  0  0  0  0  0
  -11.0875   25.1101   63.6531 O   0  0  0  0  0  0  0  0  0  0  0  0
  -12.9109   25.4617   61.4988 O   0  0  0  0  0  0  0  0  0  0  0  0
  1  2  1  0  0  0  0
  1 12  1  6  0  0  0
  1 13  1  0  0  0  0
  2  3  1  0  0  0  0
  2 10  1  6  0  0  0
  4  3  1  1  0  0  0
  4  5  1  0  0  0  0
  4 14  1  0  0  0  0
  5  6  1  0  0  0  0
  5 13  1  1  0  0  0
  6  7  1  0  0  0  0
  6 15  1  1  0  0  0
  7  8  1  0  0  0  0
  7 11  1  1  0  0  0
  8 14  1  0  0  0  0
  8 16  1  6  0  0  0
  9 11  1  0  0  0  0
 17 16  1  6  0  0  0
 17 18  1  0  0  0  0
 17 24  1  0  0  0  0
 18 19  1  0  0  0  0
 18 25  1  6  0  0  0
 19 20  1  0  0  0  0
 19 26  1  1  0  0  0
 20 21  1  0  0  0  0
 20 23  1  6  0  0  0
 21 22  1  1  0  0  0
 21 24  1  0  0  0  0
 22 27  1  0  0  0  0
 28 12  1  1  0  0  0
 28 29  1  0  0  0  0
 28 33  1  0  0  0  0
 29 30  1  0  0  0  0
 29 36  1  6  0  0  0
 30 31  1  0  0  0  0
 30 37  1  1  0  0  0
 31 32  1  0  0  0  0
 31 34  1  6  0  0  0
 32 33  1  0  0  0  0
 33 35  1  6  0  0  0
M  END
>  <CHROM.1>
-178.00689449,80.62294935,175.90201013,70.01745926,176.32400704,-175.02111064
-6.58498847,27.86305671,65.94209515,2.85082603,-0.50379808,-0.85792730

>  <Name>
ligand

>  <RI>
0

>  <Rbt.Current_Directory>
/home/itssahil/PROJECTS/Mol_Feturizer/Test_systems_manuscript/rnas/2g5k

>  <Rbt.Executable>
rbdock ($Id: //depot/dev/client3/rdock/2013.1/src/exe/rbdock.cxx#4 $)

>  <Rbt.Library>
libRbt.so (2013.1, Build901 2013/11/27)

>  <Rbt.Parameter_File>
/export/apps/rDock/src/rDock_2013.1_src/data/scripts/dock_solv.prm

>  <Rbt.Receptor>
prm/pocket_docking_8.prm

>  <SCORE>
-16.1984

>  <SCORE.INTER>
-10.6892

>  <SCORE.INTER.CONST>
1

>  <SCORE.INTER.POLAR>
0

>  <SCORE.INTER.ROT>
6

>  <SCORE.INTER.SOLV>
14.8267

>  <SCORE.INTER.VDW>
-19.6684

>  <SCORE.INTER.norm>
-0.288898

>  <SCORE.INTRA>
-5.50916

>  <SCORE.INTRA.DIHEDRAL>
-10.2993

>  <SCORE.INTRA.DIHEDRAL.0>
11.3972

>  <SCORE.INTRA.POLAR>
0

>  <SCORE.INTRA.POLAR.0>
0

>  <SCORE.INTRA.REPUL>
0

>  <SCORE.INTRA.REPUL.0>
0

>  <SCORE.INTRA.SOLV>
-1.85772

>  <SCORE.INTRA.SOLV.lig_0>
-92.3891

>  <SCORE.INTRA.VDW>
0.569342

>  <SCORE.INTRA.VDW.0>
-2.90606

>  <SCORE.INTRA.norm>
-0.148896

>  <SCORE.RESTR>
0

>  <SCORE.RESTR.CAVITY>
0

>  <SCORE.RESTR.norm>
0

>  <SCORE.SYSTEM>
0

>  <SCORE.SYSTEM.CONST>
0

>  <SCORE.SYSTEM.DIHEDRAL>
0

>  <SCORE.SYSTEM.SOLV>
0

>  <SCORE.SYSTEM.norm>
0

>  <SCORE.heavy>
37

>  <SCORE.norm>
-0.437794

>  <RMSD>
9.619

$$$$
ligand
 OpenBabel02271912133D
libRbt.so/2013.1/901 2013/11/27
 37 40  0  0  0  0  0  0  0  0999 V2000
   -6.0380   32.3010   66.9352 C   0  0  1  0  0  0  0  0  0  0  0  0
   -5.0534   32.7737   65.8281 C   0  0  1  0  0  0  0  0  0  0  0  0
   -4.1232   31.6383   65.3601 C   0  0  0  0  0  0  0  0  0  0  0  0
   -3.3486   31.0786   66.5938 C   0  0  1  0  0  0  0  0  0  0  0  0
   -4.3448   30.5577   67.6800 C   0  0  1  0  0  0  0  0  0  0  0  0
   -3.5324   29.9927   68.9312 C   0  0  1  0  0  0  0  0  0  0  0  0
   -2.6029   28.8397   68.4511 C   0  0  1  0  0  0  0  0  0  0  0  0
   -1.6581   29.4053   67.3484 C   0  0  2  0  0  0  0  0  0  0  0  0
   -1.8450   26.8143   69.8773 C   0  0  0  0  0  0  0  0  0  0  0  0
   -5.7932   33.3411   64.6809 N   0  0  0  0  0  0  0  0  0  0  0  0
   -1.8043   28.2871   69.6086 N   0  0  0  0  0  0  0  0  0  0  0  0
   -7.0204   31.3702   66.4405 O   0  0  0  0  0  0  0  0  0  0  0  0
   -5.2480   31.6920   68.0372 O   0  0  0  0  0  0  0  0  0  0  0  0
   -2.4173   29.9634   66.2216 O   0  0  0  0  0  0  0  0  0  0  0  0
   -2.7189   31.0218   69.4794 O   0  0  0  0  0  0  0  0  0  0  0  0
   -0.8011   28.3771   66.8654 O   0  0  0  0  0  0  0  0  0  0  0  0
   -1.4972   27.1731   66.4591 C   0  0  2  0  0  0  0  0  0  0  0  0
   -0.5357   26.0211   66.0822 C   0  0  1  0  0  0  0  0  0  0  0  0
    0.2765   26.3728   64.7942 C   0  0  2  0  0  0  0  0  0  0  0  0
   -0.6900   26.6031   63.6502 C   0  0  1  0  0  0  0  0  0  0  0  0
   -1.6387   27.7823   64.0205 C   0  0  1  0  0  0  0  0  0  0  0  0
   -2.6629   28.0645   62.9229 C   0  0  0  0  0  0  0  0  0  0  0  0
    0.0743   26.9156   62.4185 N   0  0  0  0  0  0  0  0  0  0  0  0
   -2.3720   27.4555   65.2821 O   0  0  0  0  0  0  0  0  0  0  0  0
    0.3178   25.7805   67.2231 O   0  0  0  0  0  0  0  0  0  0  0  0
    1.1453   25.2890   64.4569 O   0  0  0  0  0  0  0  0  0  0  0  0
   -3.1093   29.3941   63.0340 O   0  0  0  0  0  0  0  0  0  0  0  0
   -8.3604   31.1467   67.1072 C   0  0  1  0  0  0  0  0  0  0  0  0
   -9.1772   30.1496   66.2403 C   0  0  1  0  0  0  0  0  0  0  0  0
  -10.5681   29.8938   66.8896 C   0  0  2  0  0  0  0  0  0  0  0  0
  -10.3662   29.2978   68.3047 C   0  0  1  0  0  0  0  0  0  0  0  0
   -9.5494   30.2907   69.2071 C   0  0  0  0  0  0  0  0  0  0  0  0
   -8.1825   30.5415   68.5354 C   0  0  2  0  0  0  0  0  0  0  0  0
  -11.6859   29.0432   68.9309 N   0  0  0  0  0  0  0  0  0  0  0  0
   -7.4268   31.4700   69.3831 N   0  0  0  0  0  0  0  0  0  0  0  0
   -9.3646   30.7030   64.9189 O   0  0  0  0  0  0  0  0  0  0  0  0
  -11.3086   28.9697   66.0617 O   0  0  0  0  0  0  0  0  0  0  0  0
  1  2  1  0  0  0  0
  1 12  1  6  0  0  0
  1 13  1  0  0  0  0
  2  3  1  0  0  0  0
  2 10  1  6  0  0  0
  4  3  1  6  0  0  0
  4  5  1  0  0  0  0
  4 14  1  0  0  0  0
  5  6  1  0  0  0  0
  5 13  1  1  0  0  0
  6  7  1  0  0  0  0
  6 15  1  6  0  0  0
  7  8  1  0  0  0  0
  7 11  1  1  0  0  0
  8 14  1  0  0  0  0
  8 16  1  6  0  0  0
  9 11  1  0  0  0  0
 17 16  1  6  0  0  0
 17 18  1  0  0  0  0
 17 24  1  0  0  0  0
 18 19  1  0  0  0  0
 18 25  1  1  0  0  0
 19 20  1  0  0  0  0
 19 26  1  6  0  0  0
 20 21  1  0  0  0  0
 20 23  1  6  0  0  0
 21 22  1  6  0  0  0
 21 24  1  0  0  0  0
 22 27  1  0  0  0  0
 28 12  1  6  0  0  0
 28 29  1  0  0  0  0
 28 33  1  0  0  0  0
 29 30  1  0  0  0  0
 29 36  1  6  0  0  0
 30 31  1  0  0  0  0
 30 37  1  6  0  0  0
 31 32  1  0  0  0  0
 31 34  1  1  0  0  0
 32 33  1  0  0  0  0
 33 35  1  1  0  0  0
M  END
>  <CHROM.1>
-156.58901313,126.48048886,51.54772036,176.29307968,-173.86426531,-156.65690514
-4.42904869,29.32879813,66.58746532,-2.90214073,0.36364134,-1.66706232

>  <Name>
ligand

>  <RI>
0

>  <Rbt.Current_Directory>
/home/itssahil/PROJECTS/Mol_Feturizer/Test_systems_manuscript/rnas/2g5k

>  <Rbt.Executable>
rbdock ($Id: //depot/dev/client3/rdock/2013.1/src/exe/rbdock.cxx#4 $)

>  <Rbt.Library>
libRbt.so (2013.1, Build901 2013/11/27)

>  <Rbt.Parameter_File>
/export/apps/rDock/src/rDock_2013.1_src/data/scripts/dock_solv.prm

>  <Rbt.Receptor>
prm/pocket_docking_4.prm

>  <SCORE>
-9.52527

>  <SCORE.INTER>
-7.75093

>  <SCORE.INTER.CONST>
1

>  <SCORE.INTER.POLAR>
0

>  <SCORE.INTER.ROT>
6

>  <SCORE.INTER.SOLV>
18.7445

>  <SCORE.INTER.VDW>
-19.0154

>  <SCORE.INTER.norm>
-0.209485

>  <SCORE.INTRA>
-1.77434

>  <SCORE.INTRA.DIHEDRAL>
-5.47633

>  <SCORE.INTRA.DIHEDRAL.0>
11.3972

>  <SCORE.INTRA.POLAR>
0

>  <SCORE.INTRA.POLAR.0>
0

>  <SCORE.INTRA.REPUL>
0

>  <SCORE.INTRA.REPUL.0>
0

>  <SCORE.INTRA.SOLV>
2.12077

>  <SCORE.INTRA.SOLV.lig_0>
-92.3891

>  <SCORE.INTRA.VDW>
-0.0965627

>  <SCORE.INTRA.VDW.0>
-2.90606

>  <SCORE.INTRA.norm>
-0.0479551

>  <SCORE.RESTR>
0

>  <SCORE.RESTR.CAVITY>
0

>  <SCORE.RESTR.norm>
0

>  <SCORE.SYSTEM>
0

>  <SCORE.SYSTEM.CONST>
0

>  <SCORE.SYSTEM.DIHEDRAL>
0

>  <SCORE.SYSTEM.SOLV>
0

>  <SCORE.SYSTEM.norm>
0

>  <SCORE.heavy>
37

>  <SCORE.norm>
-0.25744

>  <RMSD>
9.649

$$$$
ligand
 OpenBabel02271912133D
libRbt.so/2013.1/901 2013/11/27
 37 40  0  0  0  0  0  0  0  0999 V2000
   -7.8632   26.8361   64.7407 C   0  0  1  0  0  0  0  0  0  0  0  0
   -7.3673   25.3623   64.7634 C   0  0  1  0  0  0  0  0  0  0  0  0
   -6.1798   25.1679   65.7253 C   0  0  0  0  0  0  0  0  0  0  0  0
   -5.0294   26.1373   65.3105 C   0  0  1  0  0  0  0  0  0  0  0  0
   -5.5212   27.6208   65.3405 C   0  0  1  0  0  0  0  0  0  0  0  0
   -4.3313   28.5929   64.9117 C   0  0  1  0  0  0  0  0  0  0  0  0
   -3.1399   28.3972   65.8946 C   0  0  1  0  0  0  0  0  0  0  0  0
   -2.7149   26.8985   65.8496 C   0  0  2  0  0  0  0  0  0  0  0  0
   -2.0953   30.7643   65.7682 C   0  0  0  0  0  0  0  0  0  0  0  0
   -8.4727   24.4463   65.1160 N   0  0  0  0  0  0  0  0  0  0  0  0
   -1.9851   29.2930   65.5114 N   0  0  0  0  0  0  0  0  0  0  0  0
   -8.4867   27.2286   65.9790 O   0  0  0  0  0  0  0  0  0  0  0  0
   -6.7051   27.7163   64.4354 O   0  0  0  0  0  0  0  0  0  0  0  0
   -3.8303   26.0105   66.2026 O   0  0  0  0  0  0  0  0  0  0  0  0
   -3.8880   28.2601   63.6025 O   0  0  0  0  0  0  0  0  0  0  0  0
   -1.6375   26.6695   66.7506 O   0  0  0  0  0  0  0  0  0  0  0  0
   -0.9575   25.4065   66.5462 C   0  0  2  0  0  0  0  0  0  0  0  0
    0.1180   25.1221   67.6214 C   0  0  1  0  0  0  0  0  0  0  0  0
    1.2966   26.1427   67.5135 C   0  0  2  0  0  0  0  0  0  0  0  0
    1.9273   26.0231   66.1409 C   0  0  1  0  0  0  0  0  0  0  0  0
    0.8493   26.3379   65.0609 C   0  0  1  0  0  0  0  0  0  0  0  0
    1.4022   26.2166   63.6422 C   0  0  0  0  0  0  0  0  0  0  0  0
    3.0612   26.9731   66.0384 N   0  0  0  0  0  0  0  0  0  0  0  0
   -0.2961   25.3877   65.2073 O   0  0  0  0  0  0  0  0  0  0  0  0
   -0.5359   25.1698   68.9091 O   0  0  0  0  0  0  0  0  0  0  0  0
    2.2839   25.8509   68.5050 O   0  0  0  0  0  0  0  0  0  0  0  0
    0.4046   26.5848   62.7210 O   0  0  0  0  0  0  0  0  0  0  0  0
   -9.0934   28.5965   66.2045 C   0  0  1  0  0  0  0  0  0  0  0  0
   -7.9539   29.6508   66.1535 C   0  0  1  0  0  0  0  0  0  0  0  0
   -8.5351   31.0757   66.3853 C   0  0  2  0  0  0  0  0  0  0  0  0
   -9.5726   31.3873   65.2786 C   0  0  1  0  0  0  0  0  0  0  0  0
  -10.7428   30.3401   65.3127 C   0  0  0  0  0  0  0  0  0  0  0  0
  -10.1408   28.9352   65.0973 C   0  0  2  0  0  0  0  0  0  0  0  0
  -10.1284   32.7463   65.4852 N   0  0  0  0  0  0  0  0  0  0  0  0
  -11.2392   27.9635   65.1318 N   0  0  0  0  0  0  0  0  0  0  0  0
   -6.9837   29.3604   67.1839 O   0  0  0  0  0  0  0  0  0  0  0  0
   -7.4555   32.0350   66.3392 O   0  0  0  0  0  0  0  0  0  0  0  0
  1  2  1  0  0  0  0
  1 12  1  1  0  0  0
  1 13  1  0  0  0  0
  2  3  1  0  0  0  0
  2 10  1  1  0  0  0
  4  3  1  1  0  0  0
  4  5  1  0  0  0  0
  4 14  1  0  0  0  0
  5  6  1  0  0  0  0
  5 13  1  6  0  0  0
  6  7  1  0  0  0  0
  6 15  1  6  0  0  0
  7  8  1  0  0  0  0
  7 11  1  6  0  0  0
  8 14  1  0  0  0  0
  8 16  1  1  0  0  0
  9 11  1  0  0  0  0
 17 16  1  1  0  0  0
 17 18  1  0  0  0  0
 17 24  1  0  0  0  0
 18 19  1  0  0  0  0
 18 25  1  1  0  0  0
 19 20  1  0  0  0  0
 19 26  1  1  0  0  0
 20 21  1  0  0  0  0
 20 23  1  1  0  0  0
 21 22  1  6  0  0  0
 21 24  1  0  0  0  0
 22 27  1  0  0  0  0
 28 12  1  6  0  0  0
 28 29  1  0  0  0  0
 28 33  1  0  0  0  0
 29 30  1  0  0  0  0
 29 36  1  1  0  0  0
 30 31  1  0  0  0  0
 30 37  1  6  0  0  0
 31 32  1  0  0  0  0
 31 34  1  1  0  0  0
 32 33  1  0  0  0  0
 33 35  1  1  0  0  0
M  END
>  <CHROM.1>
-178.02936636,72.94568930,-165.50111940,-65.20507008,-174.48141949,-176.73460920
-4.31299413,27.63505728,65.74788280,2.83086462,-0.07409867,0.02506510

>  <Name>
ligand

>  <RI>
0

>  <Rbt.Current_Directory>
/home/itssahil/PROJECTS/Mol_Feturizer/Test_systems_manuscript/rnas/2g5k

>  <Rbt.Executable>
rbdock ($Id: //depot/dev/client3/rdock/2013.1/src/exe/rbdock.cxx#4 $)

>  <Rbt.Library>
libRbt.so (2013.1, Build901 2013/11/27)

>  <Rbt.Parameter_File>
/export/apps/rDock/src/rDock_2013.1_src/data/scripts/dock_solv.prm

>  <Rbt.Receptor>
prm/pocket_docking_3.prm

>  <SCORE>
-6.74236

>  <SCORE.INTER>
-1.02444

>  <SCORE.INTER.CONST>
1

>  <SCORE.INTER.POLAR>
0

>  <SCORE.INTER.ROT>
6

>  <SCORE.INTER.SOLV>
10.1676

>  <SCORE.INTER.VDW>
-11.6722

>  <SCORE.INTER.norm>
-0.0276877

>  <SCORE.INTRA>
-5.71792

>  <SCORE.INTRA.DIHEDRAL>
-9.90351

>  <SCORE.INTRA.DIHEDRAL.0>
11.3972

>  <SCORE.INTRA.POLAR>
0

>  <SCORE.INTRA.POLAR.0>
0

>  <SCORE.INTRA.REPUL>
0

>  <SCORE.INTRA.REPUL.0>
0

>  <SCORE.INTRA.SOLV>
-0.851574

>  <SCORE.INTRA.SOLV.lig_0>
-92.3891

>  <SCORE.INTRA.VDW>
-0.340372

>  <SCORE.INTRA.VDW.0>
-2.90606

>  <SCORE.INTRA.norm>
-0.154538

>  <SCORE.RESTR>
0

>  <SCORE.RESTR.CAVITY>
0

>  <SCORE.RESTR.norm>
0

>  <SCORE.SYSTEM>
0

>  <SCORE.SYSTEM.CONST>
0

>  <SCORE.SYSTEM.DIHEDRAL>
0

>  <SCORE.SYSTEM.SOLV>
0

>  <SCORE.SYSTEM.norm>
0

>  <SCORE.heavy>
37

>  <SCORE.norm>
-0.182226

>  <RMSD>
9.651

$$$$
ligand
 OpenBabel02271912133D
libRbt.so/2013.1/901 2013/11/27
 37 40  0  0  0  0  0  0  0  0999 V2000
   -6.1252   32.5659   66.9465 C   0  0  1  0  0  0  0  0  0  0  0  0
   -5.2417   32.9798   65.7355 C   0  0  1  0  0  0  0  0  0  0  0  0
   -4.3071   31.8402   65.2869 C   0  0  0  0  0  0  0  0  0  0  0  0
   -3.4249   31.4038   66.4978 C   0  0  1  0  0  0  0  0  0  0  0  0
   -4.3196   30.9398   67.6927 C   0  0  1  0  0  0  0  0  0  0  0  0
   -3.3982   30.5007   68.9186 C   0  0  1  0  0  0  0  0  0  0  0  0
   -2.4646   29.3425   68.4594 C   0  0  1  0  0  0  0  0  0  0  0  0
   -1.6239   29.8481   67.2485 C   0  0  2  0  0  0  0  0  0  0  0  0
   -1.6956   27.5150   70.1265 C   0  0  0  0  0  0  0  0  0  0  0  0
   -6.0832   33.4318   64.6073 N   0  0  0  0  0  0  0  0  0  0  0  0
   -1.5642   28.9080   69.5922 N   0  0  0  0  0  0  0  0  0  0  0  0
   -7.1063   31.5691   66.5999 O   0  0  0  0  0  0  0  0  0  0  0  0
   -5.2353   32.0705   68.0291 O   0  0  0  0  0  0  0  0  0  0  0  0
   -2.4830   30.2918   66.1429 O   0  0  0  0  0  0  0  0  0  0  0  0
   -2.5852   31.5944   69.3236 O   0  0  0  0  0  0  0  0  0  0  0  0
   -0.7673   28.8118   66.7825 O   0  0  0  0  0  0  0  0  0  0  0  0
   -1.4469   27.5590   66.5216 C   0  0  2  0  0  0  0  0  0  0  0  0
   -0.4948   26.4554   66.0029 C   0  0  1  0  0  0  0  0  0  0  0  0
    0.0616   26.8197   64.5887 C   0  0  2  0  0  0  0  0  0  0  0  0
   -1.0989   26.9630   63.6250 C   0  0  1  0  0  0  0  0  0  0  0  0
   -2.0412   28.0945   64.1345 C   0  0  1  0  0  0  0  0  0  0  0  0
   -3.2537   28.2876   63.2257 C   0  0  0  0  0  0  0  0  0  0  0  0
   -0.5776   27.2869   62.2751 N   0  0  0  0  0  0  0  0  0  0  0  0
   -2.5260   27.7590   65.5087 O   0  0  0  0  0  0  0  0  0  0  0  0
    0.5547   26.2950   66.9832 O   0  0  0  0  0  0  0  0  0  0  0  0
    0.9251   25.7797   64.1239 O   0  0  0  0  0  0  0  0  0  0  0  0
   -2.8221   28.7311   61.9622 O   0  0  0  0  0  0  0  0  0  0  0  0
   -8.3631   31.3270   67.4073 C   0  0  1  0  0  0  0  0  0  0  0  0
   -9.2223   30.2656   66.6671 C   0  0  1  0  0  0  0  0  0  0  0  0
  -10.5302   29.9886   67.4637 C   0  0  2  0  0  0  0  0  0  0  0  0
  -10.1646   29.4610   68.8730 C   0  0  1  0  0  0  0  0  0  0  0  0
   -9.3015   30.5197   69.6486 C   0  0  0  0  0  0  0  0  0  0  0  0
   -8.0196   30.7899   68.8325 C   0  0  2  0  0  0  0  0  0  0  0  0
  -11.4040   29.1867   69.6392 N   0  0  0  0  0  0  0  0  0  0  0  0
   -7.2202   31.7799   69.5625 N   0  0  0  0  0  0  0  0  0  0  0  0
   -9.5625   30.7552   65.3511 O   0  0  0  0  0  0  0  0  0  0  0  0
  -11.3127   29.0044   66.7516 O   0  0  0  0  0  0  0  0  0  0  0  0
  1  2  1  0  0  0  0
  1 12  1  6  0  0  0
  1 13  1  0  0  0  0
  2  3  1  0  0  0  0
  2 10  1  6  0  0  0
  4  3  1  6  0  0  0
  4  5  1  0  0  0  0
  4 14  1  0  0  0  0
  5  6  1  0  0  0  0
  5 13  1  1  0  0  0
  6  7  1  0  0  0  0
  6 15  1  6  0  0  0
  7  8  1  0  0  0  0
  7 11  1  1  0  0  0
  8 14  1  0  0  0  0
  8 16  1  6  0  0  0
  9 11  1  0  0  0  0
 17 16  1  6  0  0  0
 17 18  1  0  0  0  0
 17 24  1  0  0  0  0
 18 19  1  0  0  0  0
 18 25  1  1  0  0  0
 19 20  1  0  0  0  0
 19 26  1  6  0  0  0
 20 21  1  0  0  0  0
 20 23  1  6  0  0  0
 21 22  1  6  0  0  0
 21 24  1  0  0  0  0
 22 27  1  0  0  0  0
 28 12  1  6  0  0  0
 28 29  1  0  0  0  0
 28 33  1  0  0  0  0
 29 30  1  0  0  0  0
 29 36  1  6  0  0  0
 30 31  1  0  0  0  0
 30 37  1  6  0  0  0
 31 32  1  0  0  0  0
 31 34  1  1  0  0  0
 32 33  1  0  0  0  0
 33 35  1  1  0  0  0
M  END
>  <CHROM.1>
-158.68199020,116.42447264,51.61381841,175.48521218,179.42238770,-64.59303796
-4.46016879,29.62150262,66.65972799,-2.80244172,0.30451888,-1.77082167

>  <Name>
ligand

>  <RI>
0

>  <Rbt.Current_Directory>
/home/itssahil/PROJECTS/Mol_Feturizer/Test_systems_manuscript/rnas/2g5k

>  <Rbt.Executable>
rbdock ($Id: //depot/dev/client3/rdock/2013.1/src/exe/rbdock.cxx#4 $)

>  <Rbt.Library>
libRbt.so (2013.1, Build901 2013/11/27)

>  <Rbt.Parameter_File>
/export/apps/rDock/src/rDock_2013.1_src/data/scripts/dock_solv.prm

>  <Rbt.Receptor>
prm/pocket_docking_4.prm

>  <SCORE>
-10.3053

>  <SCORE.INTER>
-8.4624

>  <SCORE.INTER.CONST>
1

>  <SCORE.INTER.POLAR>
0

>  <SCORE.INTER.ROT>
6

>  <SCORE.INTER.SOLV>
21.7885

>  <SCORE.INTER.VDW>
-20.5044

>  <SCORE.INTER.norm>
-0.228714

>  <SCORE.INTRA>
-1.84285

>  <SCORE.INTRA.DIHEDRAL>
-7.63884

>  <SCORE.INTRA.DIHEDRAL.0>
11.3972

>  <SCORE.INTRA.POLAR>
0

>  <SCORE.INTRA.POLAR.0>
0

>  <SCORE.INTRA.REPUL>
0

>  <SCORE.INTRA.REPUL.0>
0

>  <SCORE.INTRA.SOLV>
2.73236

>  <SCORE.INTRA.SOLV.lig_0>
-92.3891

>  <SCORE.INTRA.VDW>
0.610387

>  <SCORE.INTRA.VDW.0>
-2.90606

>  <SCORE.INTRA.norm>
-0.0498068

>  <SCORE.RESTR>
0

>  <SCORE.RESTR.CAVITY>
0

>  <SCORE.RESTR.norm>
0

>  <SCORE.SYSTEM>
0

>  <SCORE.SYSTEM.CONST>
0

>  <SCORE.SYSTEM.DIHEDRAL>
0

>  <SCORE.SYSTEM.SOLV>
0

>  <SCORE.SYSTEM.norm>
0

>  <SCORE.heavy>
37

>  <SCORE.norm>
-0.27852

>  <RMSD>
9.662

$$$$
ligand
 OpenBabel02271912133D
libRbt.so/2013.1/901 2013/11/27
 37 40  0  0  0  0  0  0  0  0999 V2000
   -5.3298   31.9733   68.1797 C   0  0  1  0  0  0  0  0  0  0  0  0
   -4.1198   32.6572   67.4820 C   0  0  1  0  0  0  0  0  0  0  0  0
   -3.5829   31.8194   66.3060 C   0  0  0  0  0  0  0  0  0  0  0  0
   -3.1961   30.4015   66.8305 C   0  0  1  0  0  0  0  0  0  0  0  0
   -4.4309   29.6999   67.4838 C   0  0  1  0  0  0  0  0  0  0  0  0
   -4.0127   28.2547   68.0141 C   0  0  1  0  0  0  0  0  0  0  0  0
   -3.4810   27.4120   66.8179 C   0  0  1  0  0  0  0  0  0  0  0  0
   -2.2771   28.1730   66.1854 C   0  0  2  0  0  0  0  0  0  0  0  0
   -4.1161   25.0067   67.5402 C   0  0  0  0  0  0  0  0  0  0  0  0
   -4.4817   34.0158   67.0254 N   0  0  0  0  0  0  0  0  0  0  0  0
   -3.0604   26.0378   67.2843 N   0  0  0  0  0  0  0  0  0  0  0  0
   -6.5046   31.9441   67.3458 O   0  0  0  0  0  0  0  0  0  0  0  0
   -4.9299   30.5958   68.5693 O   0  0  0  0  0  0  0  0  0  0  0  0
   -2.6627   29.5189   65.7414 O   0  0  0  0  0  0  0  0  0  0  0  0
   -2.9685   28.3784   68.9710 O   0  0  0  0  0  0  0  0  0  0  0  0
   -1.7703   27.4456   65.0723 O   0  0  0  0  0  0  0  0  0  0  0  0
   -0.5199   27.9607   64.5524 C   0  0  2  0  0  0  0  0  0  0  0  0
    0.1064   27.0437   63.4751 C   0  0  1  0  0  0  0  0  0  0  0  0
    0.5537   25.6809   64.0957 C   0  0  2  0  0  0  0  0  0  0  0  0
    1.5820   25.9460   65.1765 C   0  0  1  0  0  0  0  0  0  0  0  0
    0.9399   26.8462   66.2743 C   0  0  1  0  0  0  0  0  0  0  0  0
    1.9236   27.1794   67.3944 C   0  0  0  0  0  0  0  0  0  0  0  0
    2.0281   24.6557   65.7553 N   0  0  0  0  0  0  0  0  0  0  0  0
    0.4699   28.1253   65.6586 O   0  0  0  0  0  0  0  0  0  0  0  0
   -0.8746   26.8763   62.4274 O   0  0  0  0  0  0  0  0  0  0  0  0
    1.1427   24.8578   63.0865 O   0  0  0  0  0  0  0  0  0  0  0  0
    2.2647   25.9993   68.0803 O   0  0  0  0  0  0  0  0  0  0  0  0
   -7.7584   31.1773   67.7063 C   0  0  1  0  0  0  0  0  0  0  0  0
   -7.5288   29.6788   67.3678 C   0  0  1  0  0  0  0  0  0  0  0  0
   -8.7991   28.8518   67.7206 C   0  0  2  0  0  0  0  0  0  0  0  0
   -9.0955   28.9967   69.2337 C   0  0  1  0  0  0  0  0  0  0  0  0
   -9.3407   30.5035   69.6032 C   0  0  0  0  0  0  0  0  0  0  0  0
   -8.0756   31.3050   69.2298 C   0  0  2  0  0  0  0  0  0  0  0  0
  -10.3005   28.2067   69.5831 N   0  0  0  0  0  0  0  0  0  0  0  0
   -8.3131   32.7105   69.5766 N   0  0  0  0  0  0  0  0  0  0  0  0
   -7.2499   29.5419   65.9568 O   0  0  0  0  0  0  0  0  0  0  0  0
   -8.5617   27.4652   67.3908 O   0  0  0  0  0  0  0  0  0  0  0  0
  1  2  1  0  0  0  0
  1 12  1  6  0  0  0
  1 13  1  0  0  0  0
  2  3  1  0  0  0  0
  2 10  1  6  0  0  0
  4  3  1  6  0  0  0
  4  5  1  0  0  0  0
  4 14  1  0  0  0  0
  5  6  1  0  0  0  0
  5 13  1  1  0  0  0
  6  7  1  0  0  0  0
  6 15  1  1  0  0  0
  7  8  1  0  0  0  0
  7 11  1  1  0  0  0
  8 14  1  0  0  0  0
  8 16  1  6  0  0  0
  9 11  1  0  0  0  0
 17 16  1  1  0  0  0
 17 18  1  0  0  0  0
 17 24  1  0  0  0  0
 18 19  1  0  0  0  0
 18 25  1  6  0  0  0
 19 20  1  0  0  0  0
 19 26  1  6  0  0  0
 20 21  1  0  0  0  0
 20 23  1  1  0  0  0
 21 22  1  1  0  0  0
 21 24  1  0  0  0  0
 22 27  1  0  0  0  0
 28 12  1  1  0  0  0
 28 29  1  0  0  0  0
 28 33  1  0  0  0  0
 29 30  1  0  0  0  0
 29 36  1  6  0  0  0
 30 31  1  0  0  0  0
 30 37  1  1  0  0  0
 31 32  1  0  0  0  0
 31 34  1  6  0  0  0
 32 33  1  0  0  0  0
 33 35  1  6  0  0  0
M  END
>  <CHROM.1>
171.55673246,78.15851977,-170.53682242,-79.32630230,172.09321127,-65.25668646
-3.64642355,28.69409529,66.84572408,-2.68405636,-0.32809568,-3.07645735

>  <Name>
ligand

>  <RI>
0

>  <Rbt.Current_Directory>
/home/itssahil/PROJECTS/Mol_Feturizer/Test_systems_manuscript/rnas/2g5k

>  <Rbt.Executable>
rbdock ($Id: //depot/dev/client3/rdock/2013.1/src/exe/rbdock.cxx#4 $)

>  <Rbt.Library>
libRbt.so (2013.1, Build901 2013/11/27)

>  <Rbt.Parameter_File>
/export/apps/rDock/src/rDock_2013.1_src/data/scripts/dock_solv.prm

>  <Rbt.Receptor>
prm/pocket_docking_4.prm

>  <SCORE>
-8.86161

>  <SCORE.INTER>
-4.80234

>  <SCORE.INTER.CONST>
1

>  <SCORE.INTER.POLAR>
0

>  <SCORE.INTER.ROT>
6

>  <SCORE.INTER.SOLV>
21.8047

>  <SCORE.INTER.VDW>
-18.0698

>  <SCORE.INTER.norm>
-0.129793

>  <SCORE.INTRA>
-4.05927

>  <SCORE.INTRA.DIHEDRAL>
-8.24029

>  <SCORE.INTRA.DIHEDRAL.0>
11.3972

>  <SCORE.INTRA.POLAR>
0

>  <SCORE.INTRA.POLAR.0>
0

>  <SCORE.INTRA.REPUL>
0

>  <SCORE.INTRA.REPUL.0>
0

>  <SCORE.INTRA.SOLV>
0.315258

>  <SCORE.INTRA.SOLV.lig_0>
-92.3891

>  <SCORE.INTRA.VDW>
-0.0967605

>  <SCORE.INTRA.VDW.0>
-2.90606

>  <SCORE.INTRA.norm>
-0.10971

>  <SCORE.RESTR>
0

>  <SCORE.RESTR.CAVITY>
0

>  <SCORE.RESTR.norm>
0

>  <SCORE.SYSTEM>
0

>  <SCORE.SYSTEM.CONST>
0

>  <SCORE.SYSTEM.DIHEDRAL>
0

>  <SCORE.SYSTEM.SOLV>
0

>  <SCORE.SYSTEM.norm>
0

>  <SCORE.heavy>
37

>  <SCORE.norm>
-0.239503

>  <RMSD>
9.671

$$$$
ligand
 OpenBabel02271912133D
libRbt.so/2013.1/901 2013/11/27
 37 40  0  0  0  0  0  0  0  0999 V2000
   -4.6786   31.4791   68.3256 C   0  0  1  0  0  0  0  0  0  0  0  0
   -3.4132   32.3644   68.1423 C   0  0  1  0  0  0  0  0  0  0  0  0
   -2.2607   31.5917   67.4729 C   0  0  0  0  0  0  0  0  0  0  0  0
   -1.9374   30.3262   68.3268 C   0  0  1  0  0  0  0  0  0  0  0  0
   -3.2008   29.4157   68.4627 C   0  0  1  0  0  0  0  0  0  0  0  0
   -2.8484   28.1307   69.3399 C   0  0  1  0  0  0  0  0  0  0  0  0
   -1.6902   27.3509   68.6511 C   0  0  1  0  0  0  0  0  0  0  0  0
   -0.4731   28.3140   68.5107 C   0  0  2  0  0  0  0  0  0  0  0  0
   -1.2042   24.8092   68.7685 C   0  0  0  0  0  0  0  0  0  0  0  0
   -3.7368   33.5816   67.3686 N   0  0  0  0  0  0  0  0  0  0  0  0
   -1.3176   26.1318   69.4620 N   0  0  0  0  0  0  0  0  0  0  0  0
   -5.3058   31.1450   67.0721 O   0  0  0  0  0  0  0  0  0  0  0  0
   -4.2876   30.2475   69.0601 O   0  0  0  0  0  0  0  0  0  0  0  0
   -0.8212   29.5146   67.7395 O   0  0  0  0  0  0  0  0  0  0  0  0
   -2.4075   28.5362   70.6292 O   0  0  0  0  0  0  0  0  0  0  0  0
    0.6058   27.6463   67.8664 O   0  0  0  0  0  0  0  0  0  0  0  0
    0.6210   27.8057   66.4264 C   0  0  2  0  0  0  0  0  0  0  0  0
    0.1842   26.5256   65.6753 C   0  0  1  0  0  0  0  0  0  0  0  0
    1.2233   25.3768   65.8823 C   0  0  2  0  0  0  0  0  0  0  0  0
    2.5680   25.8273   65.3488 C   0  0  1  0  0  0  0  0  0  0  0  0
    3.0189   27.1000   66.1264 C   0  0  1  0  0  0  0  0  0  0  0  0
    4.3619   27.6327   65.6307 C   0  0  0  0  0  0  0  0  0  0  0  0
    3.5547   24.7339   65.5214 N   0  0  0  0  0  0  0  0  0  0  0  0
    1.9919   28.1746   65.9628 O   0  0  0  0  0  0  0  0  0  0  0  0
   -1.1318   26.1712   66.1556 O   0  0  0  0  0  0  0  0  0  0  0  0
    0.8072   24.2111   65.1674 O   0  0  0  0  0  0  0  0  0  0  0  0
    4.2305   28.0552   64.2951 O   0  0  0  0  0  0  0  0  0  0  0  0
   -6.5463   30.2845   66.9691 C   0  0  1  0  0  0  0  0  0  0  0  0
   -6.1485   28.8151   67.2781 C   0  0  1  0  0  0  0  0  0  0  0  0
   -7.3978   27.8924   67.1792 C   0  0  2  0  0  0  0  0  0  0  0  0
   -8.4592   28.3631   68.2040 C   0  0  1  0  0  0  0  0  0  0  0  0
   -8.8870   29.8455   67.9095 C   0  0  0  0  0  0  0  0  0  0  0  0
   -7.6306   30.7378   67.9971 C   0  0  2  0  0  0  0  0  0  0  0  0
   -9.6522   27.4864   68.1238 N   0  0  0  0  0  0  0  0  0  0  0  0
   -8.0381   32.1194   67.7198 N   0  0  0  0  0  0  0  0  0  0  0  0
   -5.1565   28.3749   66.3243 O   0  0  0  0  0  0  0  0  0  0  0  0
   -6.9997   26.5330   67.4643 O   0  0  0  0  0  0  0  0  0  0  0  0
  1  2  1  0  0  0  0
  1 12  1  6  0  0  0
  1 13  1  0  0  0  0
  2  3  1  0  0  0  0
  2 10  1  6  0  0  0
  4  3  1  6  0  0  0
  4  5  1  0  0  0  0
  4 14  1  0  0  0  0
  5  6  1  0  0  0  0
  5 13  1  1  0  0  0
  6  7  1  0  0  0  0
  6 15  1  1  0  0  0
  7  8  1  0  0  0  0
  7 11  1  1  0  0  0
  8 14  1  0  0  0  0
  8 16  1  6  0  0  0
  9 11  1  0  0  0  0
 17 16  1  1  0  0  0
 17 18  1  0  0  0  0
 17 24  1  0  0  0  0
 18 19  1  0  0  0  0
 18 25  1  1  0  0  0
 19 20  1  0  0  0  0
 19 26  1  6  0  0  0
 20 21  1  0  0  0  0
 20 23  1  1  0  0  0
 21 22  1  6  0  0  0
 21 24  1  0  0  0  0
 22 27  1  0  0  0  0
 28 12  1  1  0  0  0
 28 29  1  0  0  0  0
 28 33  1  0  0  0  0
 29 30  1  0  0  0  0
 29 36  1  6  0  0  0
 30 31  1  0  0  0  0
 30 37  1  1  0  0  0
 31 32  1  0  0  0  0
 31 34  1  6  0  0  0
 32 33  1  0  0  0  0
 33 35  1  6  0  0  0
M  END
>  <CHROM.1>
179.44830450,130.65958904,91.76115427,-72.60281088,-106.28720044,64.21180514
-2.45404034,28.42190796,67.35362191,-2.78253044,-0.16857537,-3.04789408

>  <Name>
ligand

>  <RI>
0

>  <Rbt.Current_Directory>
/home/itssahil/PROJECTS/Mol_Feturizer/Test_systems_manuscript/rnas/2g5k

>  <Rbt.Executable>
rbdock ($Id: //depot/dev/client3/rdock/2013.1/src/exe/rbdock.cxx#4 $)

>  <Rbt.Library>
libRbt.so (2013.1, Build901 2013/11/27)

>  <Rbt.Parameter_File>
/export/apps/rDock/src/rDock_2013.1_src/data/scripts/dock_solv.prm

>  <Rbt.Receptor>
prm/pocket_docking_6.prm

>  <SCORE>
-6.60808

>  <SCORE.INTER>
-7.73714

>  <SCORE.INTER.CONST>
1

>  <SCORE.INTER.POLAR>
0

>  <SCORE.INTER.ROT>
6

>  <SCORE.INTER.SOLV>
13.9444

>  <SCORE.INTER.VDW>
-17.4062

>  <SCORE.INTER.norm>
-0.209112

>  <SCORE.INTRA>
1.12907

>  <SCORE.INTRA.DIHEDRAL>
0.7828

>  <SCORE.INTRA.DIHEDRAL.0>
11.3972

>  <SCORE.INTRA.POLAR>
0

>  <SCORE.INTRA.POLAR.0>
0

>  <SCORE.INTRA.REPUL>
0

>  <SCORE.INTRA.REPUL.0>
0

>  <SCORE.INTRA.SOLV>
1.11298

>  <SCORE.INTRA.SOLV.lig_0>
-92.3891

>  <SCORE.INTRA.VDW>
0.181174

>  <SCORE.INTRA.VDW.0>
-2.90606

>  <SCORE.INTRA.norm>
0.0305153

>  <SCORE.RESTR>
0

>  <SCORE.RESTR.CAVITY>
0

>  <SCORE.RESTR.norm>
0

>  <SCORE.SYSTEM>
0

>  <SCORE.SYSTEM.CONST>
0

>  <SCORE.SYSTEM.DIHEDRAL>
0

>  <SCORE.SYSTEM.SOLV>
0

>  <SCORE.SYSTEM.norm>
0

>  <SCORE.heavy>
37

>  <SCORE.norm>
-0.178597

>  <RMSD>
9.680

$$$$
ligand
 OpenBabel02271912133D
libRbt.so/2013.1/901 2013/11/27
 37 40  0  0  0  0  0  0  0  0999 V2000
  -10.0175   26.1138   66.1077 C   0  0  1  0  0  0  0  0  0  0  0  0
   -9.6795   25.9548   67.6173 C   0  0  1  0  0  0  0  0  0  0  0  0
   -8.6310   26.9821   68.0850 C   0  0  0  0  0  0  0  0  0  0  0  0
   -7.3494   26.8315   67.2075 C   0  0  1  0  0  0  0  0  0  0  0  0
   -7.6882   27.0442   65.6963 C   0  0  1  0  0  0  0  0  0  0  0  0
   -6.3657   26.8840   64.8188 C   0  0  1  0  0  0  0  0  0  0  0  0
   -5.3159   27.9321   65.2912 C   0  0  1  0  0  0  0  0  0  0  0  0
   -5.0430   27.6960   66.8073 C   0  0  2  0  0  0  0  0  0  0  0  0
   -3.2759   29.0412   64.1427 C   0  0  0  0  0  0  0  0  0  0  0  0
  -10.9043   26.0566   68.4388 N   0  0  0  0  0  0  0  0  0  0  0  0
   -4.0409   27.8016   64.4910 N   0  0  0  0  0  0  0  0  0  0  0  0
  -10.7304   27.3340   65.8264 O   0  0  0  0  0  0  0  0  0  0  0  0
   -8.7494   26.0579   65.3343 O   0  0  0  0  0  0  0  0  0  0  0  0
   -6.2749   27.8016   67.6001 O   0  0  0  0  0  0  0  0  0  0  0  0
   -5.8172   25.5865   65.0101 O   0  0  0  0  0  0  0  0  0  0  0  0
   -4.1002   28.6477   67.2874 O   0  0  0  0  0  0  0  0  0  0  0  0
   -3.8555   28.5663   68.7131 C   0  0  2  0  0  0  0  0  0  0  0  0
   -2.8114   29.5971   69.2036 C   0  0  1  0  0  0  0  0  0  0  0  0
   -1.3981   29.2804   68.6165 C   0  0  2  0  0  0  0  0  0  0  0  0
   -0.9759   27.8972   69.0686 C   0  0  1  0  0  0  0  0  0  0  0  0
   -2.0138   26.8577   68.5491 C   0  0  1  0  0  0  0  0  0  0  0  0
   -1.6706   25.4341   68.9834 C   0  0  0  0  0  0  0  0  0  0  0  0
    0.3744   27.5980   68.5337 N   0  0  0  0  0  0  0  0  0  0  0  0
   -3.3705   27.2011   69.0760 O   0  0  0  0  0  0  0  0  0  0  0  0
   -3.2858   30.9074   68.8212 O   0  0  0  0  0  0  0  0  0  0  0  0
   -0.4483   30.2353   69.0953 O   0  0  0  0  0  0  0  0  0  0  0  0
   -1.7506   25.3433   70.3851 O   0  0  0  0  0  0  0  0  0  0  0  0
  -11.4114   27.6101   64.5035 C   0  0  1  0  0  0  0  0  0  0  0  0
  -10.3403   27.5480   63.3803 C   0  0  1  0  0  0  0  0  0  0  0  0
  -10.9991   27.8308   61.9991 C   0  0  2  0  0  0  0  0  0  0  0  0
  -12.0892   26.7647   61.7284 C   0  0  1  0  0  0  0  0  0  0  0  0
  -13.1919   26.8110   62.8460 C   0  0  0  0  0  0  0  0  0  0  0  0
  -12.5130   26.5443   64.2063 C   0  0  2  0  0  0  0  0  0  0  0  0
  -12.7194   27.0201   60.4108 N   0  0  0  0  0  0  0  0  0  0  0  0
  -13.5486   26.5905   65.2442 N   0  0  0  0  0  0  0  0  0  0  0  0
   -9.3212   28.5406   63.6324 O   0  0  0  0  0  0  0  0  0  0  0  0
   -9.9818   27.7734   60.9745 O   0  0  0  0  0  0  0  0  0  0  0  0
  1  2  1  0  0  0  0
  1 12  1  1  0  0  0
  1 13  1  0  0  0  0
  2  3  1  0  0  0  0
  2 10  1  1  0  0  0
  4  3  1  1  0  0  0
  4  5  1  0  0  0  0
  4 14  1  0  0  0  0
  5  6  1  0  0  0  0
  5 13  1  6  0  0  0
  6  7  1  0  0  0  0
  6 15  1  1  0  0  0
  7  8  1  0  0  0  0
  7 11  1  6  0  0  0
  8 14  1  0  0  0  0
  8 16  1  1  0  0  0
  9 11  1  0  0  0  0
 17 16  1  6  0  0  0
 17 18  1  0  0  0  0
 17 24  1  0  0  0  0
 18 19  1  0  0  0  0
 18 25  1  6  0  0  0
 19 20  1  0  0  0  0
 19 26  1  1  0  0  0
 20 21  1  0  0  0  0
 20 23  1  6  0  0  0
 21 22  1  1  0  0  0
 21 24  1  0  0  0  0
 22 27  1  0  0  0  0
 28 12  1  1  0  0  0
 28 29  1  0  0  0  0
 28 33  1  0  0  0  0
 29 30  1  0  0  0  0
 29 36  1  1  0  0  0
 30 31  1  0  0  0  0
 30 37  1  6  0  0  0
 31 32  1  0  0  0  0
 31 34  1  6  0  0  0
 32 33  1  0  0  0  0
 33 35  1  1  0  0  0
M  END
>  <CHROM.1>
-167.71495216,143.80318319,175.82053101,-59.24344806,179.12360859,64.52065685
-6.73562216,27.46743549,66.17345102,2.70932263,-0.26666364,-1.25914517

>  <Name>
ligand

>  <RI>
0

>  <Rbt.Current_Directory>
/home/itssahil/PROJECTS/Mol_Feturizer/Test_systems_manuscript/rnas/2g5k

>  <Rbt.Executable>
rbdock ($Id: //depot/dev/client3/rdock/2013.1/src/exe/rbdock.cxx#4 $)

>  <Rbt.Library>
libRbt.so (2013.1, Build901 2013/11/27)

>  <Rbt.Parameter_File>
/export/apps/rDock/src/rDock_2013.1_src/data/scripts/dock_solv.prm

>  <Rbt.Receptor>
prm/pocket_docking_5.prm

>  <SCORE>
-14.463

>  <SCORE.INTER>
-9.35158

>  <SCORE.INTER.CONST>
1

>  <SCORE.INTER.POLAR>
0

>  <SCORE.INTER.ROT>
6

>  <SCORE.INTER.SOLV>
15.3475

>  <SCORE.INTER.VDW>
-18.9502

>  <SCORE.INTER.norm>
-0.252745

>  <SCORE.INTRA>
-5.11146

>  <SCORE.INTRA.DIHEDRAL>
-9.68265

>  <SCORE.INTRA.DIHEDRAL.0>
11.3972

>  <SCORE.INTRA.POLAR>
0

>  <SCORE.INTRA.POLAR.0>
0

>  <SCORE.INTRA.REPUL>
0

>  <SCORE.INTRA.REPUL.0>
0

>  <SCORE.INTRA.SOLV>
-0.183197

>  <SCORE.INTRA.SOLV.lig_0>
-92.3891

>  <SCORE.INTRA.VDW>
-0.178539

>  <SCORE.INTRA.VDW.0>
-2.90606

>  <SCORE.INTRA.norm>
-0.138148

>  <SCORE.RESTR>
0

>  <SCORE.RESTR.CAVITY>
0

>  <SCORE.RESTR.norm>
0

>  <SCORE.SYSTEM>
0

>  <SCORE.SYSTEM.CONST>
0

>  <SCORE.SYSTEM.DIHEDRAL>
0

>  <SCORE.SYSTEM.SOLV>
0

>  <SCORE.SYSTEM.norm>
0

>  <SCORE.heavy>
37

>  <SCORE.norm>
-0.390893

>  <RMSD>
9.681

$$$$
ligand
 OpenBabel02271912133D
libRbt.so/2013.1/901 2013/11/27
 37 40  0  0  0  0  0  0  0  0999 V2000
   -4.1155   31.7705   68.1795 C   0  0  1  0  0  0  0  0  0  0  0  0
   -2.7458   32.4991   68.0715 C   0  0  1  0  0  0  0  0  0  0  0  0
   -1.6504   31.5851   67.4901 C   0  0  0  0  0  0  0  0  0  0  0  0
   -1.5342   30.3074   68.3785 C   0  0  1  0  0  0  0  0  0  0  0  0
   -2.9017   29.5525   68.4396 C   0  0  1  0  0  0  0  0  0  0  0  0
   -2.7604   28.2525   69.3533 C   0  0  1  0  0  0  0  0  0  0  0  0
   -1.6590   27.3304   68.7531 C   0  0  1  0  0  0  0  0  0  0  0  0
   -0.3309   28.1427   68.6838 C   0  0  2  0  0  0  0  0  0  0  0  0
   -1.2369   24.7802   68.9231 C   0  0  0  0  0  0  0  0  0  0  0  0
   -2.8733   33.7305   67.2637 N   0  0  0  0  0  0  0  0  0  0  0  0
   -1.4856   26.0921   69.6013 N   0  0  0  0  0  0  0  0  0  0  0  0
   -4.6941   31.4873   66.8905 O   0  0  0  0  0  0  0  0  0  0  0  0
   -3.9204   30.5163   68.9528 O   0  0  0  0  0  0  0  0  0  0  0  0
   -0.4847   29.3605   67.8771 O   0  0  0  0  0  0  0  0  0  0  0  0
   -2.3605   28.6289   70.6646 O   0  0  0  0  0  0  0  0  0  0  0  0
    0.7023   27.3419   68.1213 O   0  0  0  0  0  0  0  0  0  0  0  0
    0.3306   26.6850   66.8846 C   0  0  2  0  0  0  0  0  0  0  0  0
    1.5016   25.9026   66.2442 C   0  0  1  0  0  0  0  0  0  0  0  0
    2.6260   26.8766   65.7652 C   0  0  2  0  0  0  0  0  0  0  0  0
    2.0480   27.8284   64.7376 C   0  0  1  0  0  0  0  0  0  0  0  0
    0.8876   28.6354   65.3934 C   0  0  1  0  0  0  0  0  0  0  0  0
    0.2341   29.6062   64.4118 C   0  0  0  0  0  0  0  0  0  0  0  0
    3.1146   28.7420   64.2615 N   0  0  0  0  0  0  0  0  0  0  0  0
   -0.1574   27.6898   65.8934 O   0  0  0  0  0  0  0  0  0  0  0  0
    1.9756   24.9545   67.2263 O   0  0  0  0  0  0  0  0  0  0  0  0
    3.6885   26.1335   65.1637 O   0  0  0  0  0  0  0  0  0  0  0  0
    1.1715   30.5837   64.0305 O   0  0  0  0  0  0  0  0  0  0  0  0
   -5.2131   32.5623   65.9605 C   0  0  1  0  0  0  0  0  0  0  0  0
   -5.4970   31.9159   64.5769 C   0  0  1  0  0  0  0  0  0  0  0  0
   -6.0306   32.9905   63.5858 C   0  0  2  0  0  0  0  0  0  0  0  0
   -7.3407   33.5947   64.1486 C   0  0  1  0  0  0  0  0  0  0  0  0
   -7.0809   34.2639   65.5457 C   0  0  0  0  0  0  0  0  0  0  0  0
   -6.5376   33.1840   66.5055 C   0  0  2  0  0  0  0  0  0  0  0  0
   -7.8626   34.6156   63.2085 N   0  0  0  0  0  0  0  0  0  0  0  0
   -6.2964   33.8170   67.8067 N   0  0  0  0  0  0  0  0  0  0  0  0
   -4.2762   31.3497   64.0512 O   0  0  0  0  0  0  0  0  0  0  0  0
   -6.2802   32.3655   62.3072 O   0  0  0  0  0  0  0  0  0  0  0  0
  1  2  1  0  0  0  0
  1 12  1  6  0  0  0
  1 13  1  0  0  0  0
  2  3  1  0  0  0  0
  2 10  1  6  0  0  0
  4  3  1  6  0  0  0
  4  5  1  0  0  0  0
  4 14  1  0  0  0  0
  5  6  1  0  0  0  0
  5 13  1  1  0  0  0
  6  7  1  0  0  0  0
  6 15  1  1  0  0  0
  7  8  1  0  0  0  0
  7 11  1  1  0  0  0
  8 14  1  0  0  0  0
  8 16  1  6  0  0  0
  9 11  1  0  0  0  0
 17 16  1  1  0  0  0
 17 18  1  0  0  0  0
 17 24  1  0  0  0  0
 18 19  1  0  0  0  0
 18 25  1  1  0  0  0
 19 20  1  0  0  0  0
 19 26  1  6  0  0  0
 20 21  1  0  0  0  0
 20 23  1  1  0  0  0
 21 22  1  6  0  0  0
 21 24  1  0  0  0  0
 22 27  1  0  0  0  0
 28 12  1  1  0  0  0
 28 29  1  0  0  0  0
 28 33  1  0  0  0  0
 29 30  1  0  0  0  0
 29 36  1  6  0  0  0
 30 31  1  0  0  0  0
 30 37  1  6  0  0  0
 31 32  1  0  0  0  0
 31 34  1  6  0  0  0
 32 33  1  0  0  0  0
 33 35  1  1  0  0  0
M  END
>  <CHROM.1>
-68.46894752,141.48971585,49.59567571,169.04581876,175.96394500,-64.58190861
-2.09542887,29.84174265,66.57368825,2.70877623,0.60608856,-1.12647463

>  <Name>
ligand

>  <RI>
0

>  <Rbt.Current_Directory>
/home/itssahil/PROJECTS/Mol_Feturizer/Test_systems_manuscript/rnas/2g5k

>  <Rbt.Executable>
rbdock ($Id: //depot/dev/client3/rdock/2013.1/src/exe/rbdock.cxx#4 $)

>  <Rbt.Library>
libRbt.so (2013.1, Build901 2013/11/27)

>  <Rbt.Parameter_File>
/export/apps/rDock/src/rDock_2013.1_src/data/scripts/dock_solv.prm

>  <Rbt.Receptor>
prm/pocket_docking_6.prm

>  <SCORE>
-10.9879

>  <SCORE.INTER>
-9.21536

>  <SCORE.INTER.CONST>
1

>  <SCORE.INTER.POLAR>
0

>  <SCORE.INTER.ROT>
6

>  <SCORE.INTER.SOLV>
15.9784

>  <SCORE.INTER.VDW>
-19.0697

>  <SCORE.INTER.norm>
-0.249064

>  <SCORE.INTRA>
-1.77249

>  <SCORE.INTRA.DIHEDRAL>
-8.90537

>  <SCORE.INTRA.DIHEDRAL.0>
11.3972

>  <SCORE.INTRA.POLAR>
0

>  <SCORE.INTRA.POLAR.0>
0

>  <SCORE.INTRA.REPUL>
0

>  <SCORE.INTRA.REPUL.0>
0

>  <SCORE.INTRA.SOLV>
4.08573

>  <SCORE.INTRA.SOLV.lig_0>
-92.3891

>  <SCORE.INTRA.VDW>
0.637331

>  <SCORE.INTRA.VDW.0>
-2.90606

>  <SCORE.INTRA.norm>
-0.0479051

>  <SCORE.RESTR>
0

>  <SCORE.RESTR.CAVITY>
0

>  <SCORE.RESTR.norm>
0

>  <SCORE.SYSTEM>
0

>  <SCORE.SYSTEM.CONST>
0

>  <SCORE.SYSTEM.DIHEDRAL>
0

>  <SCORE.SYSTEM.SOLV>
0

>  <SCORE.SYSTEM.norm>
0

>  <SCORE.heavy>
37

>  <SCORE.norm>
-0.296969

>  <RMSD>
9.694

$$$$
ligand
 OpenBabel02271912133D
libRbt.so/2013.1/901 2013/11/27
 37 40  0  0  0  0  0  0  0  0999 V2000
   -5.9373   31.9367   66.5990 C   0  0  1  0  0  0  0  0  0  0  0  0
   -4.8007   32.4432   65.6662 C   0  0  1  0  0  0  0  0  0  0  0  0
   -3.8292   31.3134   65.2748 C   0  0  0  0  0  0  0  0  0  0  0  0
   -3.2431   30.6781   66.5741 C   0  0  1  0  0  0  0  0  0  0  0  0
   -4.3888   30.1248   67.4822 C   0  0  1  0  0  0  0  0  0  0  0  0
   -3.7679   29.4826   68.8038 C   0  0  1  0  0  0  0  0  0  0  0  0
   -2.7956   28.3358   68.3995 C   0  0  1  0  0  0  0  0  0  0  0  0
   -1.6978   28.9356   67.4701 C   0  0  2  0  0  0  0  0  0  0  0  0
   -1.9690   26.2277   69.6577 C   0  0  0  0  0  0  0  0  0  0  0  0
   -5.3643   33.0812   64.4577 N   0  0  0  0  0  0  0  0  0  0  0  0
   -2.1750   27.7109   69.6271 N   0  0  0  0  0  0  0  0  0  0  0  0
   -6.8527   31.0516   65.9246 O   0  0  0  0  0  0  0  0  0  0  0  0
   -5.3181   31.2584   67.7677 O   0  0  0  0  0  0  0  0  0  0  0  0
   -2.2837   29.5637   66.2786 O   0  0  0  0  0  0  0  0  0  0  0  0
   -3.0259   30.4666   69.5125 O   0  0  0  0  0  0  0  0  0  0  0  0
   -0.7952   27.9150   67.0593 O   0  0  0  0  0  0  0  0  0  0  0  0
   -1.4409   26.7629   66.4636 C   0  0  2  0  0  0  0  0  0  0  0  0
   -0.4381   25.6623   66.0434 C   0  0  1  0  0  0  0  0  0  0  0  0
    0.4754   26.1578   64.8761 C   0  0  2  0  0  0  0  0  0  0  0  0
   -0.3942   26.5130   63.6872 C   0  0  1  0  0  0  0  0  0  0  0  0
   -1.3840   27.6415   64.1050 C   0  0  1  0  0  0  0  0  0  0  0  0
   -2.3155   28.0431   62.9630 C   0  0  0  0  0  0  0  0  0  0  0  0
    0.4672   26.9632   62.5673 N   0  0  0  0  0  0  0  0  0  0  0  0
   -2.2169   27.1739   65.2556 O   0  0  0  0  0  0  0  0  0  0  0  0
    0.3193   25.2969   67.2185 O   0  0  0  0  0  0  0  0  0  0  0  0
    1.3817   25.1203   64.4948 O   0  0  0  0  0  0  0  0  0  0  0  0
   -3.1861   29.0552   63.4069 O   0  0  0  0  0  0  0  0  0  0  0  0
   -8.1585   30.5887   66.5334 C   0  0  1  0  0  0  0  0  0  0  0  0
   -9.1068   31.8138   66.6453 C   0  0  1  0  0  0  0  0  0  0  0  0
  -10.4642   31.3819   67.2720 C   0  0  2  0  0  0  0  0  0  0  0  0
  -11.1198   30.3058   66.3717 C   0  0  1  0  0  0  0  0  0  0  0  0
  -10.1849   29.0497   66.2478 C   0  0  0  0  0  0  0  0  0  0  0  0
   -8.8411   29.5053   65.6401 C   0  0  2  0  0  0  0  0  0  0  0  0
  -12.4182   29.8915   66.9556 N   0  0  0  0  0  0  0  0  0  0  0  0
   -7.9737   28.3275   65.5290 N   0  0  0  0  0  0  0  0  0  0  0  0
   -8.4958   32.8198   67.4832 O   0  0  0  0  0  0  0  0  0  0  0  0
  -11.3239   32.5391   67.3705 O   0  0  0  0  0  0  0  0  0  0  0  0
  1  2  1  0  0  0  0
  1 12  1  6  0  0  0
  1 13  1  0  0  0  0
  2  3  1  0  0  0  0
  2 10  1  6  0  0  0
  4  3  1  6  0  0  0
  4  5  1  0  0  0  0
  4 14  1  0  0  0  0
  5  6  1  0  0  0  0
  5 13  1  1  0  0  0
  6  7  1  0  0  0  0
  6 15  1  6  0  0  0
  7  8  1  0  0  0  0
  7 11  1  1  0  0  0
  8 14  1  0  0  0  0
  8 16  1  6  0  0  0
  9 11  1  0  0  0  0
 17 16  1  6  0  0  0
 17 18  1  0  0  0  0
 17 24  1  0  0  0  0
 18 19  1  0  0  0  0
 18 25  1  1  0  0  0
 19 20  1  0  0  0  0
 19 26  1  6  0  0  0
 20 21  1  0  0  0  0
 20 23  1  6  0  0  0
 21 22  1  6  0  0  0
 21 24  1  0  0  0  0
 22 27  1  0  0  0  0
 28 12  1  6  0  0  0
 28 29  1  0  0  0  0
 28 33  1  0  0  0  0
 29 30  1  0  0  0  0
 29 36  1  1  0  0  0
 30 31  1  0  0  0  0
 30 37  1  6  0  0  0
 31 32  1  0  0  0  0
 31 34  1  1  0  0  0
 32 33  1  0  0  0  0
 33 35  1  1  0  0  0
M  END
>  <CHROM.1>
-170.24900209,141.38548666,53.20043589,67.59965819,-179.25798387,179.60614858
-4.42560907,29.21443622,66.32854672,-3.00735819,0.45068214,-1.63485777

>  <Name>
ligand

>  <RI>
0

>  <Rbt.Current_Directory>
/home/itssahil/PROJECTS/Mol_Feturizer/Test_systems_manuscript/rnas/2g5k

>  <Rbt.Executable>
rbdock ($Id: //depot/dev/client3/rdock/2013.1/src/exe/rbdock.cxx#4 $)

>  <Rbt.Library>
libRbt.so (2013.1, Build901 2013/11/27)

>  <Rbt.Parameter_File>
/export/apps/rDock/src/rDock_2013.1_src/data/scripts/dock_solv.prm

>  <Rbt.Receptor>
prm/pocket_docking_3.prm

>  <SCORE>
-10.6656

>  <SCORE.INTER>
-6.03318

>  <SCORE.INTER.CONST>
1

>  <SCORE.INTER.POLAR>
0

>  <SCORE.INTER.ROT>
6

>  <SCORE.INTER.SOLV>
14.9271

>  <SCORE.INTER.VDW>
-16.5978

>  <SCORE.INTER.norm>
-0.163059

>  <SCORE.INTRA>
-4.65956

>  <SCORE.INTRA.DIHEDRAL>
-9.53066

>  <SCORE.INTRA.DIHEDRAL.0>
11.3972

>  <SCORE.INTRA.POLAR>
0

>  <SCORE.INTRA.POLAR.0>
0

>  <SCORE.INTRA.REPUL>
0

>  <SCORE.INTRA.REPUL.0>
0

>  <SCORE.INTRA.SOLV>
-0.242863

>  <SCORE.INTRA.SOLV.lig_0>
-92.3891

>  <SCORE.INTRA.VDW>
0.227204

>  <SCORE.INTRA.VDW.0>
-2.90606

>  <SCORE.INTRA.norm>
-0.125934

>  <SCORE.RESTR>
0.0271289

>  <SCORE.RESTR.CAVITY>
0.0271289

>  <SCORE.RESTR.norm>
0.000733214

>  <SCORE.SYSTEM>
0

>  <SCORE.SYSTEM.CONST>
0

>  <SCORE.SYSTEM.DIHEDRAL>
0

>  <SCORE.SYSTEM.SOLV>
0

>  <SCORE.SYSTEM.norm>
0

>  <SCORE.heavy>
37

>  <SCORE.norm>
-0.28826

>  <RMSD>
9.695

$$$$
ligand
 OpenBabel02271912133D
libRbt.so/2013.1/901 2013/11/27
 37 40  0  0  0  0  0  0  0  0999 V2000
   -7.8370   27.1631   64.6979 C   0  0  1  0  0  0  0  0  0  0  0  0
   -7.3160   25.7055   64.5481 C   0  0  1  0  0  0  0  0  0  0  0  0
   -6.1329   25.4159   65.4914 C   0  0  0  0  0  0  0  0  0  0  0  0
   -4.9962   26.4466   65.2077 C   0  0  1  0  0  0  0  0  0  0  0  0
   -5.5137   27.9076   65.4111 C   0  0  1  0  0  0  0  0  0  0  0  0
   -4.3374   28.9434   65.1142 C   0  0  1  0  0  0  0  0  0  0  0  0
   -3.1506   28.6500   66.0782 C   0  0  1  0  0  0  0  0  0  0  0  0
   -2.6995   27.1747   65.8574 C   0  0  2  0  0  0  0  0  0  0  0  0
   -2.1394   31.0278   66.2628 C   0  0  0  0  0  0  0  0  0  0  0  0
   -8.4081   24.7359   64.7769 N   0  0  0  0  0  0  0  0  0  0  0  0
   -2.0085   29.6040   65.8170 N   0  0  0  0  0  0  0  0  0  0  0  0
   -8.4769   27.3934   65.9682 O   0  0  0  0  0  0  0  0  0  0  0  0
   -6.6919   28.0923   64.5123 O   0  0  0  0  0  0  0  0  0  0  0  0
   -3.8022   26.2328   66.0899 O   0  0  0  0  0  0  0  0  0  0  0  0
   -3.8781   28.7780   63.7789 O   0  0  0  0  0  0  0  0  0  0  0  0
   -1.6255   26.8563   66.7350 O   0  0  0  0  0  0  0  0  0  0  0  0
   -0.9939   25.5829   66.4545 C   0  0  2  0  0  0  0  0  0  0  0  0
    0.0604   25.1882   67.5157 C   0  0  1  0  0  0  0  0  0  0  0  0
    1.2791   26.1659   67.4802 C   0  0  2  0  0  0  0  0  0  0  0  0
    1.9162   26.1087   66.1067 C   0  0  1  0  0  0  0  0  0  0  0  0
    0.8607   26.5342   65.0425 C   0  0  1  0  0  0  0  0  0  0  0  0
    1.4205   26.4813   63.6223 C   0  0  0  0  0  0  0  0  0  0  0  0
    3.0875   27.0176   66.0718 N   0  0  0  0  0  0  0  0  0  0  0  0
   -0.3223   25.6229   65.1211 O   0  0  0  0  0  0  0  0  0  0  0  0
   -0.6020   25.1799   68.8000 O   0  0  0  0  0  0  0  0  0  0  0  0
    2.2457   25.7727   68.4571 O   0  0  0  0  0  0  0  0  0  0  0  0
    2.3643   27.5113   63.4556 O   0  0  0  0  0  0  0  0  0  0  0  0
   -9.1246   28.7086   66.3439 C   0  0  1  0  0  0  0  0  0  0  0  0
   -8.0110   29.7848   66.4637 C   0  0  1  0  0  0  0  0  0  0  0  0
   -8.6347   31.1563   66.8535 C   0  0  2  0  0  0  0  0  0  0  0  0
   -9.6459   31.5833   65.7610 C   0  0  1  0  0  0  0  0  0  0  0  0
  -10.7898   30.5155   65.6243 C   0  0  0  0  0  0  0  0  0  0  0  0
  -10.1463   29.1623   65.2539 C   0  0  2  0  0  0  0  0  0  0  0  0
  -10.2418   32.8931   66.1184 N   0  0  0  0  0  0  0  0  0  0  0  0
  -11.2203   28.1709   65.1294 N   0  0  0  0  0  0  0  0  0  0  0  0
   -7.0654   29.3870   67.4809 O   0  0  0  0  0  0  0  0  0  0  0  0
   -7.5788   32.1364   66.9643 O   0  0  0  0  0  0  0  0  0  0  0  0
  1  2  1  0  0  0  0
  1 12  1  1  0  0  0
  1 13  1  0  0  0  0
  2  3  1  0  0  0  0
  2 10  1  1  0  0  0
  4  3  1  1  0  0  0
  4  5  1  0  0  0  0
  4 14  1  0  0  0  0
  5  6  1  0  0  0  0
  5 13  1  6  0  0  0
  6  7  1  0  0  0  0
  6 15  1  6  0  0  0
  7  8  1  0  0  0  0
  7 11  1  6  0  0  0
  8 14  1  0  0  0  0
  8 16  1  1  0  0  0
  9 11  1  0  0  0  0
 17 16  1  1  0  0  0
 17 18  1  0  0  0  0
 17 24  1  0  0  0  0
 18 19  1  0  0  0  0
 18 25  1  1  0  0  0
 19 20  1  0  0  0  0
 19 26  1  1  0  0  0
 20 21  1  0  0  0  0
 20 23  1  1  0  0  0
 21 22  1  6  0  0  0
 21 24  1  0  0  0  0
 22 27  1  0  0  0  0
 28 12  1  6  0  0  0
 28 29  1  0  0  0  0
 28 33  1  0  0  0  0
 29 30  1  0  0  0  0
 29 36  1  1  0  0  0
 30 31  1  0  0  0  0
 30 37  1  6  0  0  0
 31 32  1  0  0  0  0
 31 34  1  1  0  0  0
 32 33  1  0  0  0  0
 33 35  1  1  0  0  0
M  END
>  <CHROM.1>
-177.21728413,73.67842034,-170.39747146,-66.87413352,-173.51520789,-70.03219232
-4.26920666,27.85521475,65.86123139,2.84355653,-0.07202950,0.11889575

>  <Name>
ligand

>  <RI>
0

>  <Rbt.Current_Directory>
/home/itssahil/PROJECTS/Mol_Feturizer/Test_systems_manuscript/rnas/2g5k

>  <Rbt.Executable>
rbdock ($Id: //depot/dev/client3/rdock/2013.1/src/exe/rbdock.cxx#4 $)

>  <Rbt.Library>
libRbt.so (2013.1, Build901 2013/11/27)

>  <Rbt.Parameter_File>
/export/apps/rDock/src/rDock_2013.1_src/data/scripts/dock_solv.prm

>  <Rbt.Receptor>
prm/pocket_docking_3.prm

>  <SCORE>
-5.95224

>  <SCORE.INTER>
-0.842279

>  <SCORE.INTER.CONST>
1

>  <SCORE.INTER.POLAR>
0

>  <SCORE.INTER.ROT>
6

>  <SCORE.INTER.SOLV>
9.29945

>  <SCORE.INTER.VDW>
-11.2613

>  <SCORE.INTER.norm>
-0.0227643

>  <SCORE.INTRA>
-5.11204

>  <SCORE.INTRA.DIHEDRAL>
-9.94288

>  <SCORE.INTRA.DIHEDRAL.0>
11.3972

>  <SCORE.INTRA.POLAR>
0

>  <SCORE.INTRA.POLAR.0>
0

>  <SCORE.INTRA.REPUL>
0

>  <SCORE.INTRA.REPUL.0>
0

>  <SCORE.INTRA.SOLV>
0.0522868

>  <SCORE.INTRA.SOLV.lig_0>
-92.3891

>  <SCORE.INTRA.VDW>
-0.166744

>  <SCORE.INTRA.VDW.0>
-2.90606

>  <SCORE.INTRA.norm>
-0.138163

>  <SCORE.RESTR>
0.00208565

>  <SCORE.RESTR.CAVITY>
0.00208565

>  <SCORE.RESTR.norm>
5.63691e-05

>  <SCORE.SYSTEM>
0

>  <SCORE.SYSTEM.CONST>
0

>  <SCORE.SYSTEM.DIHEDRAL>
0

>  <SCORE.SYSTEM.SOLV>
0

>  <SCORE.SYSTEM.norm>
0

>  <SCORE.heavy>
37

>  <SCORE.norm>
-0.160871

>  <RMSD>
9.718

$$$$
ligand
 OpenBabel02271912133D
libRbt.so/2013.1/901 2013/11/27
 37 40  0  0  0  0  0  0  0  0999 V2000
   -8.0946   24.0524   65.0634 C   0  0  1  0  0  0  0  0  0  0  0  0
   -7.2818   23.2671   66.1316 C   0  0  1  0  0  0  0  0  0  0  0  0
   -6.6936   24.1984   67.2087 C   0  0  0  0  0  0  0  0  0  0  0  0
   -5.8055   25.2772   66.5138 C   0  0  1  0  0  0  0  0  0  0  0  0
   -6.6427   26.0969   65.4790 C   0  0  1  0  0  0  0  0  0  0  0  0
   -5.7157   27.1911   64.7802 C   0  0  1  0  0  0  0  0  0  0  0  0
   -5.1339   28.1335   65.8744 C   0  0  1  0  0  0  0  0  0  0  0  0
   -4.3412   27.2616   66.8942 C   0  0  2  0  0  0  0  0  0  0  0  0
   -4.8085   30.5240   64.9309 C   0  0  0  0  0  0  0  0  0  0  0  0
   -8.1175   22.2194   66.7554 N   0  0  0  0  0  0  0  0  0  0  0  0
   -4.2367   29.1773   65.2511 N   0  0  0  0  0  0  0  0  0  0  0  0
   -9.3127   24.6092   65.5949 O   0  0  0  0  0  0  0  0  0  0  0  0
   -7.2274   25.1244   64.5083 O   0  0  0  0  0  0  0  0  0  0  0  0
   -5.1933   26.2289   67.4982 O   0  0  0  0  0  0  0  0  0  0  0  0
   -4.6310   26.5506   64.1211 O   0  0  0  0  0  0  0  0  0  0  0  0
   -3.8064   28.0826   67.9262 O   0  0  0  0  0  0  0  0  0  0  0  0
   -3.1813   27.3421   69.0032 C   0  0  2  0  0  0  0  0  0  0  0  0
   -2.1975   28.2017   69.8319 C   0  0  1  0  0  0  0  0  0  0  0  0
   -0.9624   28.6201   68.9707 C   0  0  2  0  0  0  0  0  0  0  0  0
   -0.2474   27.3713   68.4961 C   0  0  1  0  0  0  0  0  0  0  0  0
   -1.2318   26.5213   67.6381 C   0  0  1  0  0  0  0  0  0  0  0  0
   -0.5912   25.2281   67.1377 C   0  0  0  0  0  0  0  0  0  0  0  0
    0.9393   27.7603   67.6964 N   0  0  0  0  0  0  0  0  0  0  0  0
   -2.4327   26.1708   68.4572 O   0  0  0  0  0  0  0  0  0  0  0  0
   -2.9336   29.3413   70.3295 O   0  0  0  0  0  0  0  0  0  0  0  0
   -0.0611   29.3991   69.7607 O   0  0  0  0  0  0  0  0  0  0  0  0
    0.4507   25.5400   66.2452 O   0  0  0  0  0  0  0  0  0  0  0  0
  -10.3968   25.2110   64.7273 C   0  0  1  0  0  0  0  0  0  0  0  0
  -11.1972   24.0525   64.0718 C   0  0  1  0  0  0  0  0  0  0  0  0
  -12.3233   24.6287   63.1652 C   0  0  2  0  0  0  0  0  0  0  0  0
  -13.2792   25.4894   64.0276 C   0  0  1  0  0  0  0  0  0  0  0  0
  -12.4968   26.6757   64.6967 C   0  0  0  0  0  0  0  0  0  0  0  0
  -11.3767   26.0808   65.5765 C   0  0  2  0  0  0  0  0  0  0  0  0
  -14.3611   26.0383   63.1752 N   0  0  0  0  0  0  0  0  0  0  0  0
  -10.6503   27.1944   66.1964 N   0  0  0  0  0  0  0  0  0  0  0  0
  -10.3066   23.2470   63.2685 O   0  0  0  0  0  0  0  0  0  0  0  0
  -13.0473   23.5323   62.5638 O   0  0  0  0  0  0  0  0  0  0  0  0
  1  2  1  0  0  0  0
  1 12  1  1  0  0  0
  1 13  1  0  0  0  0
  2  3  1  0  0  0  0
  2 10  1  1  0  0  0
  4  3  1  1  0  0  0
  4  5  1  0  0  0  0
  4 14  1  0  0  0  0
  5  6  1  0  0  0  0
  5 13  1  6  0  0  0
  6  7  1  0  0  0  0
  6 15  1  1  0  0  0
  7  8  1  0  0  0  0
  7 11  1  6  0  0  0
  8 14  1  0  0  0  0
  8 16  1  1  0  0  0
  9 11  1  0  0  0  0
 17 16  1  6  0  0  0
 17 18  1  0  0  0  0
 17 24  1  0  0  0  0
 18 19  1  0  0  0  0
 18 25  1  6  0  0  0
 19 20  1  0  0  0  0
 19 26  1  1  0  0  0
 20 21  1  0  0  0  0
 20 23  1  6  0  0  0
 21 22  1  1  0  0  0
 21 24  1  0  0  0  0
 22 27  1  0  0  0  0
 28 12  1  1  0  0  0
 28 29  1  0  0  0  0
 28 33  1  0  0  0  0
 29 30  1  0  0  0  0
 29 36  1  6  0  0  0
 30 31  1  0  0  0  0
 30 37  1  1  0  0  0
 31 32  1  0  0  0  0
 31 34  1  6  0  0  0
 32 33  1  0  0  0  0
 33 35  1  6  0  0  0
M  END
>  <CHROM.1>
-169.18677660,95.76463161,173.34837085,76.86179589,159.79366207,-65.36744995
-6.14026953,26.26792804,66.20828153,-2.81540678,-0.31720602,0.21182919

>  <Name>
ligand

>  <RI>
0

>  <Rbt.Current_Directory>
/home/itssahil/PROJECTS/Mol_Feturizer/Test_systems_manuscript/rnas/2g5k

>  <Rbt.Executable>
rbdock ($Id: //depot/dev/client3/rdock/2013.1/src/exe/rbdock.cxx#4 $)

>  <Rbt.Library>
libRbt.so (2013.1, Build901 2013/11/27)

>  <Rbt.Parameter_File>
/export/apps/rDock/src/rDock_2013.1_src/data/scripts/dock_solv.prm

>  <Rbt.Receptor>
prm/pocket_docking_6.prm

>  <SCORE>
-11.8864

>  <SCORE.INTER>
-9.20169

>  <SCORE.INTER.CONST>
1

>  <SCORE.INTER.POLAR>
0

>  <SCORE.INTER.ROT>
6

>  <SCORE.INTER.SOLV>
14.2195

>  <SCORE.INTER.VDW>
-18.4743

>  <SCORE.INTER.norm>
-0.248694

>  <SCORE.INTRA>
-2.6847

>  <SCORE.INTRA.DIHEDRAL>
-6.55824

>  <SCORE.INTRA.DIHEDRAL.0>
11.3972

>  <SCORE.INTRA.POLAR>
0

>  <SCORE.INTRA.POLAR.0>
0

>  <SCORE.INTRA.REPUL>
0

>  <SCORE.INTRA.REPUL.0>
0

>  <SCORE.INTRA.SOLV>
-0.477953

>  <SCORE.INTRA.SOLV.lig_0>
-92.3891

>  <SCORE.INTRA.VDW>
0.833392

>  <SCORE.INTRA.VDW.0>
-2.90606

>  <SCORE.INTRA.norm>
-0.0725596

>  <SCORE.RESTR>
0

>  <SCORE.RESTR.CAVITY>
0

>  <SCORE.RESTR.norm>
0

>  <SCORE.SYSTEM>
0

>  <SCORE.SYSTEM.CONST>
0

>  <SCORE.SYSTEM.DIHEDRAL>
0

>  <SCORE.SYSTEM.SOLV>
0

>  <SCORE.SYSTEM.norm>
0

>  <SCORE.heavy>
37

>  <SCORE.norm>
-0.321254

>  <RMSD>
9.770

$$$$
ligand
 OpenBabel02271912133D
libRbt.so/2013.1/901 2013/11/27
 37 40  0  0  0  0  0  0  0  0999 V2000
   -5.8827   30.6806   65.4025 C   0  0  1  0  0  0  0  0  0  0  0  0
   -4.6101   31.2596   64.7215 C   0  0  1  0  0  0  0  0  0  0  0  0
   -3.4685   30.2269   64.6593 C   0  0  0  0  0  0  0  0  0  0  0  0
   -3.1524   29.7352   66.1062 C   0  0  1  0  0  0  0  0  0  0  0  0
   -4.4234   29.1074   66.7649 C   0  0  1  0  0  0  0  0  0  0  0  0
   -4.0782   28.6140   68.2421 C   0  0  1  0  0  0  0  0  0  0  0  0
   -2.9312   27.5638   68.1689 C   0  0  1  0  0  0  0  0  0  0  0  0
   -1.7059   28.2313   67.4747 C   0  0  2  0  0  0  0  0  0  0  0  0
   -1.6791   27.9376   70.4057 C   0  0  0  0  0  0  0  0  0  0  0  0
   -4.9266   31.7616   63.3676 N   0  0  0  0  0  0  0  0  0  0  0  0
   -2.5654   27.0824   69.5535 N   0  0  0  0  0  0  0  0  0  0  0  0
   -6.5198   29.6615   64.6077 O   0  0  0  0  0  0  0  0  0  0  0  0
   -5.4991   30.1427   66.7340 O   0  0  0  0  0  0  0  0  0  0  0  0
   -2.0470   28.7218   66.1329 O   0  0  0  0  0  0  0  0  0  0  0  0
   -3.6264   29.7136   69.0219 O   0  0  0  0  0  0  0  0  0  0  0  0
   -0.6368   27.2980   67.3688 O   0  0  0  0  0  0  0  0  0  0  0  0
   -0.9662   26.1093   66.6086 C   0  0  2  0  0  0  0  0  0  0  0  0
    0.0215   24.9446   66.8565 C   0  0  1  0  0  0  0  0  0  0  0  0
    1.4426   25.2934   66.3076 C   0  0  2  0  0  0  0  0  0  0  0  0
    1.3455   25.5494   64.8173 C   0  0  1  0  0  0  0  0  0  0  0  0
    0.3723   26.7413   64.5722 C   0  0  1  0  0  0  0  0  0  0  0  0
    0.2017   27.0498   63.0860 C   0  0  0  0  0  0  0  0  0  0  0  0
    2.6942   25.8594   64.2846 N   0  0  0  0  0  0  0  0  0  0  0  0
   -0.9693   26.4163   65.1471 O   0  0  0  0  0  0  0  0  0  0  0  0
    0.0293   24.6802   68.2771 O   0  0  0  0  0  0  0  0  0  0  0  0
    2.3327   24.1981   66.5334 O   0  0  0  0  0  0  0  0  0  0  0  0
    1.3882   27.6206   62.5901 O   0  0  0  0  0  0  0  0  0  0  0  0
   -7.8931   29.1064   64.9174 C   0  0  1  0  0  0  0  0  0  0  0  0
   -8.9412   30.2232   64.6585 C   0  0  1  0  0  0  0  0  0  0  0  0
  -10.3715   29.6944   64.9692 C   0  0  2  0  0  0  0  0  0  0  0  0
  -10.6754   28.4831   64.0535 C   0  0  1  0  0  0  0  0  0  0  0  0
   -9.6343   27.3332   64.3009 C   0  0  0  0  0  0  0  0  0  0  0  0
   -8.2241   27.8853   64.0024 C   0  0  2  0  0  0  0  0  0  0  0  0
  -12.0393   27.9749   64.3359 N   0  0  0  0  0  0  0  0  0  0  0  0
   -7.2582   26.8064   64.2370 N   0  0  0  0  0  0  0  0  0  0  0  0
   -8.6580   31.3552   65.5104 O   0  0  0  0  0  0  0  0  0  0  0  0
  -11.3250   30.7528   64.7268 O   0  0  0  0  0  0  0  0  0  0  0  0
  1  2  1  0  0  0  0
  1 12  1  6  0  0  0
  1 13  1  0  0  0  0
  2  3  1  0  0  0  0
  2 10  1  6  0  0  0
  4  3  1  6  0  0  0
  4  5  1  0  0  0  0
  4 14  1  0  0  0  0
  5  6  1  0  0  0  0
  5 13  1  1  0  0  0
  6  7  1  0  0  0  0
  6 15  1  1  0  0  0
  7  8  1  0  0  0  0
  7 11  1  1  0  0  0
  8 14  1  0  0  0  0
  8 16  1  6  0  0  0
  9 11  1  0  0  0  0
 17 16  1  1  0  0  0
 17 18  1  0  0  0  0
 17 24  1  0  0  0  0
 18 19  1  0  0  0  0
 18 25  1  1  0  0  0
 19 20  1  0  0  0  0
 19 26  1  6  0  0  0
 20 21  1  0  0  0  0
 20 23  1  1  0  0  0
 21 22  1  6  0  0  0
 21 24  1  0  0  0  0
 22 27  1  0  0  0  0
 28 12  1  6  0  0  0
 28 29  1  0  0  0  0
 28 33  1  0  0  0  0
 29 30  1  0  0  0  0
 29 36  1  1  0  0  0
 30 31  1  0  0  0  0
 30 37  1  6  0  0  0
 31 32  1  0  0  0  0
 31 34  1  1  0  0  0
 32 33  1  0  0  0  0
 33 35  1  1  0  0  0
M  END
>  <CHROM.1>
-169.10201331,-79.82000206,59.49212630,68.54453534,-162.62581017,-70.91735147
-3.87495015,28.15886555,65.79085169,3.01916052,0.34054765,-1.60168082

>  <Name>
ligand

>  <RI>
0

>  <Rbt.Current_Directory>
/home/itssahil/PROJECTS/Mol_Feturizer/Test_systems_manuscript/rnas/2g5k

>  <Rbt.Executable>
rbdock ($Id: //depot/dev/client3/rdock/2013.1/src/exe/rbdock.cxx#4 $)

>  <Rbt.Library>
libRbt.so (2013.1, Build901 2013/11/27)

>  <Rbt.Parameter_File>
/export/apps/rDock/src/rDock_2013.1_src/data/scripts/dock_solv.prm

>  <Rbt.Receptor>
prm/pocket_docking_6.prm

>  <SCORE>
-10.0689

>  <SCORE.INTER>
-8.08793

>  <SCORE.INTER.CONST>
1

>  <SCORE.INTER.POLAR>
0

>  <SCORE.INTER.ROT>
6

>  <SCORE.INTER.SOLV>
19.7737

>  <SCORE.INTER.VDW>
-19.5832

>  <SCORE.INTER.norm>
-0.218593

>  <SCORE.INTRA>
-1.98096

>  <SCORE.INTRA.DIHEDRAL>
-8.33562

>  <SCORE.INTRA.DIHEDRAL.0>
11.3972

>  <SCORE.INTRA.POLAR>
0

>  <SCORE.INTRA.POLAR.0>
0

>  <SCORE.INTRA.REPUL>
0

>  <SCORE.INTRA.REPUL.0>
0

>  <SCORE.INTRA.SOLV>
0.297812

>  <SCORE.INTRA.SOLV.lig_0>
-92.3891

>  <SCORE.INTRA.VDW>
2.03794

>  <SCORE.INTRA.VDW.0>
-2.90606

>  <SCORE.INTRA.norm>
-0.0535394

>  <SCORE.RESTR>
0

>  <SCORE.RESTR.CAVITY>
0

>  <SCORE.RESTR.norm>
0

>  <SCORE.SYSTEM>
0

>  <SCORE.SYSTEM.CONST>
0

>  <SCORE.SYSTEM.DIHEDRAL>
0

>  <SCORE.SYSTEM.SOLV>
0

>  <SCORE.SYSTEM.norm>
0

>  <SCORE.heavy>
37

>  <SCORE.norm>
-0.272132

>  <RMSD>
9.785

$$$$
ligand
 OpenBabel02271912133D
libRbt.so/2013.1/901 2013/11/27
 37 40  0  0  0  0  0  0  0  0999 V2000
   -6.0422   31.4305   67.4700 C   0  0  1  0  0  0  0  0  0  0  0  0
   -4.9917   32.0995   66.5385 C   0  0  1  0  0  0  0  0  0  0  0  0
   -4.2489   31.0658   65.6708 C   0  0  0  0  0  0  0  0  0  0  0  0
   -3.5759   30.0122   66.6047 C   0  0  1  0  0  0  0  0  0  0  0  0
   -4.6452   29.3073   67.5009 C   0  0  1  0  0  0  0  0  0  0  0  0
   -3.9358   28.2372   68.4476 C   0  0  1  0  0  0  0  0  0  0  0  0
   -3.1963   27.1913   67.5626 C   0  0  1  0  0  0  0  0  0  0  0  0
   -2.1707   27.9510   66.6683 C   0  0  2  0  0  0  0  0  0  0  0  0
   -2.0435   24.8838   67.8010 C   0  0  0  0  0  0  0  0  0  0  0  0
   -5.6294   33.1257   65.6868 N   0  0  0  0  0  0  0  0  0  0  0  0
   -2.4982   26.1667   68.4260 N   0  0  0  0  0  0  0  0  0  0  0  0
   -7.1563   30.8797   66.7408 O   0  0  0  0  0  0  0  0  0  0  0  0
   -5.3612   30.3736   68.2627 O   0  0  0  0  0  0  0  0  0  0  0  0
   -2.8291   28.9645   65.8337 O   0  0  0  0  0  0  0  0  0  0  0  0
   -2.9734   28.8862   69.2684 O   0  0  0  0  0  0  0  0  0  0  0  0
   -1.4833   27.0327   65.8261 O   0  0  0  0  0  0  0  0  0  0  0  0
   -0.2725   27.5673   65.2367 C   0  0  2  0  0  0  0  0  0  0  0  0
    0.3499   26.6228   64.1812 C   0  0  1  0  0  0  0  0  0  0  0  0
    0.8703   25.3087   64.8480 C   0  0  2  0  0  0  0  0  0  0  0  0
    1.9253   25.6629   65.8764 C   0  0  1  0  0  0  0  0  0  0  0  0
    1.2884   26.5910   66.9538 C   0  0  1  0  0  0  0  0  0  0  0  0
    2.2975   27.0133   68.0199 C   0  0  0  0  0  0  0  0  0  0  0  0
    2.4403   24.4190   66.4981 N   0  0  0  0  0  0  0  0  0  0  0  0
    0.7486   27.8210   66.2967 O   0  0  0  0  0  0  0  0  0  0  0  0
   -0.6603   26.3696   63.1795 O   0  0  0  0  0  0  0  0  0  0  0  0
    1.4543   24.4599   63.8573 O   0  0  0  0  0  0  0  0  0  0  0  0
    3.3367   27.7428   67.4139 O   0  0  0  0  0  0  0  0  0  0  0  0
   -8.2669   30.0885   67.3971 C   0  0  1  0  0  0  0  0  0  0  0  0
   -7.7460   28.6512   67.6720 C   0  0  1  0  0  0  0  0  0  0  0  0
   -8.8612   27.7997   68.3451 C   0  0  2  0  0  0  0  0  0  0  0  0
   -9.2685   28.4629   69.6840 C   0  0  1  0  0  0  0  0  0  0  0  0
   -9.8081   29.9168   69.4345 C   0  0  0  0  0  0  0  0  0  0  0  0
   -8.6920   30.7364   68.7526 C   0  0  2  0  0  0  0  0  0  0  0  0
  -10.3263   27.6559   70.3382 N   0  0  0  0  0  0  0  0  0  0  0  0
   -9.2040   32.0916   68.5220 N   0  0  0  0  0  0  0  0  0  0  0  0
   -7.3635   28.0316   66.4242 O   0  0  0  0  0  0  0  0  0  0  0  0
   -8.3538   26.4680   68.5839 O   0  0  0  0  0  0  0  0  0  0  0  0
  1  2  1  0  0  0  0
  1 12  1  6  0  0  0
  1 13  1  0  0  0  0
  2  3  1  0  0  0  0
  2 10  1  6  0  0  0
  4  3  1  6  0  0  0
  4  5  1  0  0  0  0
  4 14  1  0  0  0  0
  5  6  1  0  0  0  0
  5 13  1  1  0  0  0
  6  7  1  0  0  0  0
  6 15  1  1  0  0  0
  7  8  1  0  0  0  0
  7 11  1  1  0  0  0
  8 14  1  0  0  0  0
  8 16  1  6  0  0  0
  9 11  1  0  0  0  0
 17 16  1  1  0  0  0
 17 18  1  0  0  0  0
 17 24  1  0  0  0  0
 18 19  1  0  0  0  0
 18 25  1  6  0  0  0
 19 20  1  0  0  0  0
 19 26  1  6  0  0  0
 20 21  1  0  0  0  0
 20 23  1  1  0  0  0
 21 22  1  1  0  0  0
 21 24  1  0  0  0  0
 22 27  1  0  0  0  0
 28 12  1  1  0  0  0
 28 29  1  0  0  0  0
 28 33  1  0  0  0  0
 29 30  1  0  0  0  0
 29 36  1  6  0  0  0
 30 31  1  0  0  0  0
 30 37  1  1  0  0  0
 31 32  1  0  0  0  0
 31 34  1  6  0  0  0
 32 33  1  0  0  0  0
 33 35  1  6  0  0  0
M  END
>  <CHROM.1>
175.48380679,163.80621378,-163.72723585,-77.83145603,-172.21234750,61.60087819
-3.65020682,28.27195335,67.05549411,-2.87908484,-0.34788492,2.82925677

>  <Name>
ligand

>  <RI>
0

>  <Rbt.Current_Directory>
/home/itssahil/PROJECTS/Mol_Feturizer/Test_systems_manuscript/rnas/2g5k

>  <Rbt.Executable>
rbdock ($Id: //depot/dev/client3/rdock/2013.1/src/exe/rbdock.cxx#4 $)

>  <Rbt.Library>
libRbt.so (2013.1, Build901 2013/11/27)

>  <Rbt.Parameter_File>
/export/apps/rDock/src/rDock_2013.1_src/data/scripts/dock_solv.prm

>  <Rbt.Receptor>
prm/pocket_docking_5.prm

>  <SCORE>
-9.98745

>  <SCORE.INTER>
-5.26217

>  <SCORE.INTER.CONST>
1

>  <SCORE.INTER.POLAR>
0

>  <SCORE.INTER.ROT>
6

>  <SCORE.INTER.SOLV>
19.0961

>  <SCORE.INTER.VDW>
-17.4735

>  <SCORE.INTER.norm>
-0.142221

>  <SCORE.INTRA>
-4.72528

>  <SCORE.INTRA.DIHEDRAL>
-8.07169

>  <SCORE.INTRA.DIHEDRAL.0>
11.3972

>  <SCORE.INTRA.POLAR>
0

>  <SCORE.INTRA.POLAR.0>
0

>  <SCORE.INTRA.REPUL>
0

>  <SCORE.INTRA.REPUL.0>
0

>  <SCORE.INTRA.SOLV>
-0.00230277

>  <SCORE.INTRA.SOLV.lig_0>
-92.3891

>  <SCORE.INTRA.VDW>
-0.688286

>  <SCORE.INTRA.VDW.0>
-2.90606

>  <SCORE.INTRA.norm>
-0.12771

>  <SCORE.RESTR>
0

>  <SCORE.RESTR.CAVITY>
0

>  <SCORE.RESTR.norm>
0

>  <SCORE.SYSTEM>
0

>  <SCORE.SYSTEM.CONST>
0

>  <SCORE.SYSTEM.DIHEDRAL>
0

>  <SCORE.SYSTEM.SOLV>
0

>  <SCORE.SYSTEM.norm>
0

>  <SCORE.heavy>
37

>  <SCORE.norm>
-0.269931

>  <RMSD>
9.787

$$$$
ligand
 OpenBabel02271912133D
libRbt.so/2013.1/901 2013/11/27
 37 40  0  0  0  0  0  0  0  0999 V2000
   -5.9113   29.1691   65.9221 C   0  0  1  0  0  0  0  0  0  0  0  0
   -5.8663   27.6309   65.6977 C   0  0  1  0  0  0  0  0  0  0  0  0
   -4.4314   27.0770   65.7845 C   0  0  0  0  0  0  0  0  0  0  0  0
   -3.5390   27.8193   64.7415 C   0  0  1  0  0  0  0  0  0  0  0  0
   -3.5481   29.3600   65.0059 C   0  0  1  0  0  0  0  0  0  0  0  0
   -2.6323   30.0982   63.9283 C   0  0  1  0  0  0  0  0  0  0  0  0
   -1.1826   29.5397   64.0299 C   0  0  1  0  0  0  0  0  0  0  0  0
   -1.2380   28.0003   63.7931 C   0  0  2  0  0  0  0  0  0  0  0  0
    1.1956   30.1806   63.2274 C   0  0  0  0  0  0  0  0  0  0  0  0
   -6.7465   26.9379   66.6621 N   0  0  0  0  0  0  0  0  0  0  0  0
   -0.2863   30.2061   63.0123 N   0  0  0  0  0  0  0  0  0  0  0  0
   -5.5892   29.5397   67.2768 O   0  0  0  0  0  0  0  0  0  0  0  0
   -4.9712   29.8107   64.9662 O   0  0  0  0  0  0  0  0  0  0  0  0
   -2.1191   27.3366   64.7628 O   0  0  0  0  0  0  0  0  0  0  0  0
   -3.1215   29.8323   62.6202 O   0  0  0  0  0  0  0  0  0  0  0  0
    0.0675   27.4434   63.8965 O   0  0  0  0  0  0  0  0  0  0  0  0
    0.1345   26.0348   63.5641 C   0  0  2  0  0  0  0  0  0  0  0  0
    0.5767   25.1559   64.7581 C   0  0  1  0  0  0  0  0  0  0  0  0
    2.0562   25.4626   65.1572 C   0  0  2  0  0  0  0  0  0  0  0  0
    2.9557   25.1741   63.9724 C   0  0  1  0  0  0  0  0  0  0  0  0
    2.5265   26.0809   62.7803 C   0  0  1  0  0  0  0  0  0  0  0  0
    3.3742   25.8339   61.5338 C   0  0  0  0  0  0  0  0  0  0  0  0
    4.3644   25.4415   64.3502 N   0  0  0  0  0  0  0  0  0  0  0  0
    1.0945   25.8150   62.4413 O   0  0  0  0  0  0  0  0  0  0  0  0
   -0.3482   25.4016   65.8408 O   0  0  0  0  0  0  0  0  0  0  0  0
    2.4470   24.6289   66.2505 O   0  0  0  0  0  0  0  0  0  0  0  0
    4.6855   26.2881   61.7655 O   0  0  0  0  0  0  0  0  0  0  0  0
   -5.6536   30.9639   67.7844 C   0  0  1  0  0  0  0  0  0  0  0  0
   -4.5898   31.8021   67.0239 C   0  0  1  0  0  0  0  0  0  0  0  0
   -4.6193   33.2771   67.5192 C   0  0  2  0  0  0  0  0  0  0  0  0
   -6.0248   33.8726   67.2580 C   0  0  1  0  0  0  0  0  0  0  0  0
   -7.1212   33.0484   68.0233 C   0  0  0  0  0  0  0  0  0  0  0  0
   -7.0617   31.5878   67.5278 C   0  0  2  0  0  0  0  0  0  0  0  0
   -6.0628   35.2810   67.7198 N   0  0  0  0  0  0  0  0  0  0  0  0
   -8.0871   30.8249   68.2479 N   0  0  0  0  0  0  0  0  0  0  0  0
   -3.2780   31.2466   67.2647 O   0  0  0  0  0  0  0  0  0  0  0  0
   -3.6179   34.0323   66.8018 O   0  0  0  0  0  0  0  0  0  0  0  0
  1  2  1  0  0  0  0
  1 12  1  1  0  0  0
  1 13  1  0  0  0  0
  2  3  1  0  0  0  0
  2 10  1  1  0  0  0
  4  3  1  1  0  0  0
  4  5  1  0  0  0  0
  4 14  1  0  0  0  0
  5  6  1  0  0  0  0
  5 13  1  6  0  0  0
  6  7  1  0  0  0  0
  6 15  1  6  0  0  0
  7  8  1  0  0  0  0
  7 11  1  6  0  0  0
  8 14  1  0  0  0  0
  8 16  1  1  0  0  0
  9 11  1  0  0  0  0
 17 16  1  1  0  0  0
 17 18  1  0  0  0  0
 17 24  1  0  0  0  0
 18 19  1  0  0  0  0
 18 25  1  1  0  0  0
 19 20  1  0  0  0  0
 19 26  1  1  0  0  0
 20 21  1  0  0  0  0
 20 23  1  1  0  0  0
 21 22  1  6  0  0  0
 21 24  1  0  0  0  0
 22 27  1  0  0  0  0
 28 12  1  6  0  0  0
 28 29  1  0  0  0  0
 28 33  1  0  0  0  0
 29 30  1  0  0  0  0
 29 36  1  1  0  0  0
 30 31  1  0  0  0  0
 30 37  1  6  0  0  0
 31 32  1  0  0  0  0
 31 34  1  1  0  0  0
 32 33  1  0  0  0  0
 33 35  1  1  0  0  0
M  END
>  <CHROM.1>
-175.64258126,159.38527906,-174.37631264,-64.59365677,-117.03754464,-68.55298295
-2.16632056,28.82306852,65.19332245,2.57477920,0.43335992,-0.02703924

>  <Name>
ligand

>  <RI>
0

>  <Rbt.Current_Directory>
/home/itssahil/PROJECTS/Mol_Feturizer/Test_systems_manuscript/rnas/2g5k

>  <Rbt.Executable>
rbdock ($Id: //depot/dev/client3/rdock/2013.1/src/exe/rbdock.cxx#4 $)

>  <Rbt.Library>
libRbt.so (2013.1, Build901 2013/11/27)

>  <Rbt.Parameter_File>
/export/apps/rDock/src/rDock_2013.1_src/data/scripts/dock_solv.prm

>  <Rbt.Receptor>
prm/pocket_docking_7.prm

>  <SCORE>
-10.602

>  <SCORE.INTER>
-8.70204

>  <SCORE.INTER.CONST>
1

>  <SCORE.INTER.POLAR>
0

>  <SCORE.INTER.ROT>
6

>  <SCORE.INTER.SOLV>
12.0577

>  <SCORE.INTER.VDW>
-17.4206

>  <SCORE.INTER.norm>
-0.23519

>  <SCORE.INTRA>
-1.89995

>  <SCORE.INTRA.DIHEDRAL>
-3.28594

>  <SCORE.INTRA.DIHEDRAL.0>
11.3972

>  <SCORE.INTRA.POLAR>
0

>  <SCORE.INTRA.POLAR.0>
0

>  <SCORE.INTRA.REPUL>
0

>  <SCORE.INTRA.REPUL.0>
0

>  <SCORE.INTRA.SOLV>
0.307771

>  <SCORE.INTRA.SOLV.lig_0>
-92.3891

>  <SCORE.INTRA.VDW>
-0.410863

>  <SCORE.INTRA.VDW.0>
-2.90606

>  <SCORE.INTRA.norm>
-0.0513499

>  <SCORE.RESTR>
0

>  <SCORE.RESTR.CAVITY>
0

>  <SCORE.RESTR.norm>
0

>  <SCORE.SYSTEM>
0

>  <SCORE.SYSTEM.CONST>
0

>  <SCORE.SYSTEM.DIHEDRAL>
0

>  <SCORE.SYSTEM.SOLV>
0

>  <SCORE.SYSTEM.norm>
0

>  <SCORE.heavy>
37

>  <SCORE.norm>
-0.28654

>  <RMSD>
9.787

$$$$
ligand
 OpenBabel02271912133D
libRbt.so/2013.1/901 2013/11/27
 37 40  0  0  0  0  0  0  0  0999 V2000
   -9.8591   26.1470   65.4725 C   0  0  1  0  0  0  0  0  0  0  0  0
   -9.7784   26.2207   67.0238 C   0  0  1  0  0  0  0  0  0  0  0  0
   -8.7632   27.2775   67.4991 C   0  0  0  0  0  0  0  0  0  0  0  0
   -7.3673   26.9506   66.8827 C   0  0  1  0  0  0  0  0  0  0  0  0
   -7.4455   26.9296   65.3216 C   0  0  1  0  0  0  0  0  0  0  0  0
   -6.0099   26.5920   64.7136 C   0  0  1  0  0  0  0  0  0  0  0  0
   -4.9930   27.6700   65.1906 C   0  0  1  0  0  0  0  0  0  0  0  0
   -4.9818   27.6706   66.7490 C   0  0  2  0  0  0  0  0  0  0  0  0
   -3.2349   27.9256   63.3053 C   0  0  0  0  0  0  0  0  0  0  0  0
  -11.1120   26.4889   67.6025 N   0  0  0  0  0  0  0  0  0  0  0  0
   -3.6150   27.3754   64.6454 N   0  0  0  0  0  0  0  0  0  0  0  0
  -10.4478   27.3276   64.8929 O   0  0  0  0  0  0  0  0  0  0  0  0
   -8.4881   25.9305   64.9409 O   0  0  0  0  0  0  0  0  0  0  0  0
   -6.3176   27.9381   67.2980 O   0  0  0  0  0  0  0  0  0  0  0  0
   -5.5730   25.3257   65.1897 O   0  0  0  0  0  0  0  0  0  0  0  0
   -4.0770   28.6579   67.2301 O   0  0  0  0  0  0  0  0  0  0  0  0
   -3.9070   28.6494   68.6690 C   0  0  2  0  0  0  0  0  0  0  0  0
   -2.9260   29.7382   69.1647 C   0  0  1  0  0  0  0  0  0  0  0  0
   -1.4733   29.4466   68.6678 C   0  0  2  0  0  0  0  0  0  0  0  0
   -1.0298   28.1012   69.2055 C   0  0  1  0  0  0  0  0  0  0  0  0
   -2.0027   27.0027   68.6815 C   0  0  1  0  0  0  0  0  0  0  0  0
   -1.6357   25.6132   69.1992 C   0  0  0  0  0  0  0  0  0  0  0  0
    0.3566   27.8271   68.7565 N   0  0  0  0  0  0  0  0  0  0  0  0
   -3.3966   27.3203   69.1200 O   0  0  0  0  0  0  0  0  0  0  0  0
   -3.4229   31.0120   68.6972 O   0  0  0  0  0  0  0  0  0  0  0  0
   -0.5833   30.4556   69.1505 O   0  0  0  0  0  0  0  0  0  0  0  0
   -1.8094   25.5760   70.5948 O   0  0  0  0  0  0  0  0  0  0  0  0
  -10.6824   27.4930   63.4071 C   0  0  1  0  0  0  0  0  0  0  0  0
  -11.7898   26.4939   62.9732 C   0  0  1  0  0  0  0  0  0  0  0  0
  -12.0607   26.6282   61.4466 C   0  0  2  0  0  0  0  0  0  0  0  0
  -12.5236   28.0735   61.1381 C   0  0  1  0  0  0  0  0  0  0  0  0
  -11.4175   29.1060   61.5594 C   0  0  0  0  0  0  0  0  0  0  0  0
  -11.1547   28.9429   63.0716 C   0  0  2  0  0  0  0  0  0  0  0  0
  -12.7917   28.2114   59.6864 N   0  0  0  0  0  0  0  0  0  0  0  0
  -10.1202   29.9091   63.4566 N   0  0  0  0  0  0  0  0  0  0  0  0
  -11.3606   25.1451   63.2624 O   0  0  0  0  0  0  0  0  0  0  0  0
  -13.0883   25.6854   61.0686 O   0  0  0  0  0  0  0  0  0  0  0  0
  1  2  1  0  0  0  0
  1 12  1  6  0  0  0
  1 13  1  0  0  0  0
  2  3  1  0  0  0  0
  2 10  1  1  0  0  0
  4  3  1  1  0  0  0
  4  5  1  0  0  0  0
  4 14  1  0  0  0  0
  5  6  1  0  0  0  0
  5 13  1  1  0  0  0
  6  7  1  0  0  0  0
  6 15  1  1  0  0  0
  7  8  1  0  0  0  0
  7 11  1  6  0  0  0
  8 14  1  0  0  0  0
  8 16  1  6  0  0  0
  9 11  1  0  0  0  0
 17 16  1  6  0  0  0
 17 18  1  0  0  0  0
 17 24  1  0  0  0  0
 18 19  1  0  0  0  0
 18 25  1  6  0  0  0
 19 20  1  0  0  0  0
 19 26  1  1  0  0  0
 20 21  1  0  0  0  0
 20 23  1  6  0  0  0
 21 22  1  1  0  0  0
 21 24  1  0  0  0  0
 22 27  1  0  0  0  0
 28 12  1  1  0  0  0
 28 29  1  0  0  0  0
 28 33  1  0  0  0  0
 29 30  1  0  0  0  0
 29 36  1  6  0  0  0
 30 31  1  0  0  0  0
 30 37  1  1  0  0  0
 31 32  1  0  0  0  0
 31 34  1  6  0  0  0
 32 33  1  0  0  0  0
 33 35  1  6  0  0  0
M  END
>  <CHROM.1>
-178.02283003,88.39064173,-174.61939213,68.14392532,-179.61772836,65.48866846
-6.74197562,27.52666603,65.83467120,2.74674262,-0.42983717,-0.93895335

>  <Name>
ligand

>  <RI>
0

>  <Rbt.Current_Directory>
/home/itssahil/PROJECTS/Mol_Feturizer/Test_systems_manuscript/rnas/2g5k

>  <Rbt.Executable>
rbdock ($Id: //depot/dev/client3/rdock/2013.1/src/exe/rbdock.cxx#4 $)

>  <Rbt.Library>
libRbt.so (2013.1, Build901 2013/11/27)

>  <Rbt.Parameter_File>
/export/apps/rDock/src/rDock_2013.1_src/data/scripts/dock_solv.prm

>  <Rbt.Receptor>
prm/pocket_docking_7.prm

>  <SCORE>
-15.3169

>  <SCORE.INTER>
-9.90663

>  <SCORE.INTER.CONST>
1

>  <SCORE.INTER.POLAR>
0

>  <SCORE.INTER.ROT>
6

>  <SCORE.INTER.SOLV>
15.781

>  <SCORE.INTER.VDW>
-19.4648

>  <SCORE.INTER.norm>
-0.267747

>  <SCORE.INTRA>
-5.4103

>  <SCORE.INTRA.DIHEDRAL>
-10.2162

>  <SCORE.INTRA.DIHEDRAL.0>
11.3972

>  <SCORE.INTRA.POLAR>
0

>  <SCORE.INTRA.POLAR.0>
0

>  <SCORE.INTRA.REPUL>
0

>  <SCORE.INTRA.REPUL.0>
0

>  <SCORE.INTRA.SOLV>
-1.25715

>  <SCORE.INTRA.SOLV.lig_0>
-92.3891

>  <SCORE.INTRA.VDW>
0.326377

>  <SCORE.INTRA.VDW.0>
-2.90606

>  <SCORE.INTRA.norm>
-0.146224

>  <SCORE.RESTR>
0

>  <SCORE.RESTR.CAVITY>
0

>  <SCORE.RESTR.norm>
0

>  <SCORE.SYSTEM>
0

>  <SCORE.SYSTEM.CONST>
0

>  <SCORE.SYSTEM.DIHEDRAL>
0

>  <SCORE.SYSTEM.SOLV>
0

>  <SCORE.SYSTEM.norm>
0

>  <SCORE.heavy>
37

>  <SCORE.norm>
-0.413971

>  <RMSD>
9.789

$$$$
ligand
 OpenBabel02271912133D
libRbt.so/2013.1/901 2013/11/27
 37 40  0  0  0  0  0  0  0  0999 V2000
   -5.9764   27.5368   65.1892 C   0  0  1  0  0  0  0  0  0  0  0  0
   -5.3412   26.3068   65.8977 C   0  0  1  0  0  0  0  0  0  0  0  0
   -3.9476   26.6273   66.4710 C   0  0  0  0  0  0  0  0  0  0  0  0
   -3.0319   27.1404   65.3163 C   0  0  1  0  0  0  0  0  0  0  0  0
   -3.6518   28.4078   64.6432 C   0  0  1  0  0  0  0  0  0  0  0  0
   -2.7013   28.9134   63.4660 C   0  0  1  0  0  0  0  0  0  0  0  0
   -1.2990   29.2444   64.0557 C   0  0  1  0  0  0  0  0  0  0  0  0
   -0.7457   27.9593   64.7420 C   0  0  2  0  0  0  0  0  0  0  0  0
    0.6877   30.7259   63.3018 C   0  0  0  0  0  0  0  0  0  0  0  0
   -6.2335   25.8008   66.9622 N   0  0  0  0  0  0  0  0  0  0  0  0
   -0.3641   29.7142   62.9657 N   0  0  0  0  0  0  0  0  0  0  0  0
   -6.3286   28.5856   66.1123 O   0  0  0  0  0  0  0  0  0  0  0  0
   -5.0184   28.0373   64.1689 O   0  0  0  0  0  0  0  0  0  0  0  0
   -1.6505   27.4771   65.7938 O   0  0  0  0  0  0  0  0  0  0  0  0
   -2.5460   27.8831   62.4988 O   0  0  0  0  0  0  0  0  0  0  0  0
    0.5306   28.2224   65.3138 O   0  0  0  0  0  0  0  0  0  0  0  0
    1.1293   27.0775   65.9695 C   0  0  2  0  0  0  0  0  0  0  0  0
    2.4819   27.4098   66.6428 C   0  0  1  0  0  0  0  0  0  0  0  0
    3.5630   27.7688   65.5730 C   0  0  2  0  0  0  0  0  0  0  0  0
    3.7508   26.5847   64.6463 C   0  0  1  0  0  0  0  0  0  0  0  0
    2.3940   26.2701   63.9479 C   0  0  1  0  0  0  0  0  0  0  0  0
    2.4937   25.0692   63.0093 C   0  0  0  0  0  0  0  0  0  0  0  0
    4.7917   26.9095   63.6413 N   0  0  0  0  0  0  0  0  0  0  0  0
    1.3555   25.9786   64.9837 O   0  0  0  0  0  0  0  0  0  0  0  0
    2.2471   28.4905   67.5729 O   0  0  0  0  0  0  0  0  0  0  0  0
    4.8065   28.0563   66.2166 O   0  0  0  0  0  0  0  0  0  0  0  0
    2.8033   23.9185   63.7573 O   0  0  0  0  0  0  0  0  0  0  0  0
   -6.8638   29.9313   65.6733 C   0  0  1  0  0  0  0  0  0  0  0  0
   -5.7216   30.7004   64.9544 C   0  0  1  0  0  0  0  0  0  0  0  0
   -6.2294   32.0957   64.4884 C   0  0  2  0  0  0  0  0  0  0  0  0
   -7.4144   31.9042   63.5100 C   0  0  1  0  0  0  0  0  0  0  0  0
   -8.5893   31.1356   64.2144 C   0  0  0  0  0  0  0  0  0  0  0  0
   -8.0581   29.7638   64.6816 C   0  0  2  0  0  0  0  0  0  0  0  0
   -7.9023   33.2278   63.0534 N   0  0  0  0  0  0  0  0  0  0  0  0
   -9.1602   29.0533   65.3392 N   0  0  0  0  0  0  0  0  0  0  0  0
   -4.6142   30.8780   65.8652 O   0  0  0  0  0  0  0  0  0  0  0  0
   -5.1479   32.7915   63.8296 O   0  0  0  0  0  0  0  0  0  0  0  0
  1  2  1  0  0  0  0
  1 12  1  1  0  0  0
  1 13  1  0  0  0  0
  2  3  1  0  0  0  0
  2 10  1  1  0  0  0
  4  3  1  1  0  0  0
  4  5  1  0  0  0  0
  4 14  1  0  0  0  0
  5  6  1  0  0  0  0
  5 13  1  6  0  0  0
  6  7  1  0  0  0  0
  6 15  1  6  0  0  0
  7  8  1  0  0  0  0
  7 11  1  6  0  0  0
  8 14  1  0  0  0  0
  8 16  1  1  0  0  0
  9 11  1  0  0  0  0
 17 16  1  6  0  0  0
 17 18  1  0  0  0  0
 17 24  1  0  0  0  0
 18 19  1  0  0  0  0
 18 25  1  1  0  0  0
 19 20  1  0  0  0  0
 19 26  1  1  0  0  0
 20 21  1  0  0  0  0
 20 23  1  6  0  0  0
 21 22  1  6  0  0  0
 21 24  1  0  0  0  0
 22 27  1  0  0  0  0
 28 12  1  6  0  0  0
 28 29  1  0  0  0  0
 28 33  1  0  0  0  0
 29 30  1  0  0  0  0
 29 36  1  1  0  0  0
 30 31  1  0  0  0  0
 30 37  1  6  0  0  0
 31 32  1  0  0  0  0
 31 34  1  1  0  0  0
 32 33  1  0  0  0  0
 33 35  1  1  0  0  0
M  END
>  <CHROM.1>
175.14301854,147.54342164,-179.63238892,-68.72187192,-177.10401236,63.53164235
-2.25170038,28.46710678,64.82943657,2.82135703,0.09459466,-0.32862069

>  <Name>
ligand

>  <RI>
0

>  <Rbt.Current_Directory>
/home/itssahil/PROJECTS/Mol_Feturizer/Test_systems_manuscript/rnas/2g5k

>  <Rbt.Executable>
rbdock ($Id: //depot/dev/client3/rdock/2013.1/src/exe/rbdock.cxx#4 $)

>  <Rbt.Library>
libRbt.so (2013.1, Build901 2013/11/27)

>  <Rbt.Parameter_File>
/export/apps/rDock/src/rDock_2013.1_src/data/scripts/dock_solv.prm

>  <Rbt.Receptor>
prm/pocket_docking_5.prm

>  <SCORE>
-11.4962

>  <SCORE.INTER>
-5.99369

>  <SCORE.INTER.CONST>
1

>  <SCORE.INTER.POLAR>
0

>  <SCORE.INTER.ROT>
6

>  <SCORE.INTER.SOLV>
9.78317

>  <SCORE.INTER.VDW>
-14.8569

>  <SCORE.INTER.norm>
-0.161992

>  <SCORE.INTRA>
-5.50255

>  <SCORE.INTRA.DIHEDRAL>
-10.1096

>  <SCORE.INTRA.DIHEDRAL.0>
11.3972

>  <SCORE.INTRA.POLAR>
0

>  <SCORE.INTRA.POLAR.0>
0

>  <SCORE.INTRA.REPUL>
0

>  <SCORE.INTRA.REPUL.0>
0

>  <SCORE.INTRA.SOLV>
-0.292176

>  <SCORE.INTRA.SOLV.lig_0>
-92.3891

>  <SCORE.INTRA.VDW>
-0.301667

>  <SCORE.INTRA.VDW.0>
-2.90606

>  <SCORE.INTRA.norm>
-0.148718

>  <SCORE.RESTR>
0

>  <SCORE.RESTR.CAVITY>
0

>  <SCORE.RESTR.norm>
0

>  <SCORE.SYSTEM>
0

>  <SCORE.SYSTEM.CONST>
0

>  <SCORE.SYSTEM.DIHEDRAL>
0

>  <SCORE.SYSTEM.SOLV>
0

>  <SCORE.SYSTEM.norm>
0

>  <SCORE.heavy>
37

>  <SCORE.norm>
-0.310709

>  <RMSD>
9.800

$$$$
ligand
 OpenBabel02271912133D
libRbt.so/2013.1/901 2013/11/27
 37 40  0  0  0  0  0  0  0  0999 V2000
   -6.3988   31.6056   67.9990 C   0  0  1  0  0  0  0  0  0  0  0  0
   -5.5046   32.7787   67.5063 C   0  0  1  0  0  0  0  0  0  0  0  0
   -4.2738   32.2778   66.7268 C   0  0  0  0  0  0  0  0  0  0  0  0
   -3.4630   31.3018   67.6352 C   0  0  1  0  0  0  0  0  0  0  0  0
   -4.3540   30.0982   68.0838 C   0  0  1  0  0  0  0  0  0  0  0  0
   -3.5067   29.1156   69.0119 C   0  0  1  0  0  0  0  0  0  0  0  0
   -2.2710   28.6067   68.2132 C   0  0  1  0  0  0  0  0  0  0  0  0
   -1.4403   29.8460   67.7630 C   0  0  2  0  0  0  0  0  0  0  0  0
   -2.0109   26.3653   69.4856 C   0  0  0  0  0  0  0  0  0  0  0  0
   -6.2898   33.7211   66.6813 N   0  0  0  0  0  0  0  0  0  0  0  0
   -1.4339   27.6822   69.0661 N   0  0  0  0  0  0  0  0  0  0  0  0
   -7.0587   30.9211   66.9163 O   0  0  0  0  0  0  0  0  0  0  0  0
   -5.5511   30.6631   68.7751 O   0  0  0  0  0  0  0  0  0  0  0  0
   -2.2431   30.7660   66.9466 O   0  0  0  0  0  0  0  0  0  0  0  0
   -3.0392   29.8196   70.1551 O   0  0  0  0  0  0  0  0  0  0  0  0
   -0.3075   29.4270   67.0104 O   0  0  0  0  0  0  0  0  0  0  0  0
    0.6070   30.5000   66.6764 C   0  0  2  0  0  0  0  0  0  0  0  0
    0.5094   30.9336   65.1946 C   0  0  1  0  0  0  0  0  0  0  0  0
    0.9959   29.7902   64.2468 C   0  0  2  0  0  0  0  0  0  0  0  0
    2.4394   29.4627   64.5710 C   0  0  1  0  0  0  0  0  0  0  0  0
    2.5305   28.9990   66.0558 C   0  0  1  0  0  0  0  0  0  0  0  0
    3.9635   28.6699   66.4699 C   0  0  0  0  0  0  0  0  0  0  0  0
    2.9155   28.3934   63.6606 N   0  0  0  0  0  0  0  0  0  0  0  0
    2.0145   30.0815   66.9491 O   0  0  0  0  0  0  0  0  0  0  0  0
   -0.8631   31.3098   64.9444 O   0  0  0  0  0  0  0  0  0  0  0  0
    0.9116   30.2187   62.8858 O   0  0  0  0  0  0  0  0  0  0  0  0
    4.4234   27.5711   65.7212 O   0  0  0  0  0  0  0  0  0  0  0  0
   -7.9926   29.7485   67.1236 C   0  0  1  0  0  0  0  0  0  0  0  0
   -7.1403   28.5059   67.5007 C   0  0  1  0  0  0  0  0  0  0  0  0
   -8.0637   27.2726   67.7198 C   0  0  2  0  0  0  0  0  0  0  0  0
   -9.0584   27.5800   68.8663 C   0  0  1  0  0  0  0  0  0  0  0  0
   -9.9408   28.8289   68.5074 C   0  0  0  0  0  0  0  0  0  0  0  0
   -9.0033   30.0337   68.2790 C   0  0  2  0  0  0  0  0  0  0  0  0
   -9.9394   26.4084   69.0889 N   0  0  0  0  0  0  0  0  0  0  0  0
   -9.8344   31.1949   67.9433 N   0  0  0  0  0  0  0  0  0  0  0  0
   -6.2101   28.2189   66.4331 O   0  0  0  0  0  0  0  0  0  0  0  0
   -7.2469   26.1310   68.0626 O   0  0  0  0  0  0  0  0  0  0  0  0
  1  2  1  0  0  0  0
  1 12  1  6  0  0  0
  1 13  1  0  0  0  0
  2  3  1  0  0  0  0
  2 10  1  6  0  0  0
  4  3  1  6  0  0  0
  4  5  1  0  0  0  0
  4 14  1  0  0  0  0
  5  6  1  0  0  0  0
  5 13  1  1  0  0  0
  6  7  1  0  0  0  0
  6 15  1  1  0  0  0
  7  8  1  0  0  0  0
  7 11  1  1  0  0  0
  8 14  1  0  0  0  0
  8 16  1  6  0  0  0
  9 11  1  0  0  0  0
 17 16  1  6  0  0  0
 17 18  1  0  0  0  0
 17 24  1  0  0  0  0
 18 19  1  0  0  0  0
 18 25  1  6  0  0  0
 19 20  1  0  0  0  0
 19 26  1  6  0  0  0
 20 21  1  0  0  0  0
 20 23  1  6  0  0  0
 21 22  1  1  0  0  0
 21 24  1  0  0  0  0
 22 27  1  0  0  0  0
 28 12  1  1  0  0  0
 28 29  1  0  0  0  0
 28 33  1  0  0  0  0
 29 30  1  0  0  0  0
 29 36  1  6  0  0  0
 30 31  1  0  0  0  0
 30 37  1  1  0  0  0
 31 32  1  0  0  0  0
 31 34  1  6  0  0  0
 32 33  1  0  0  0  0
 33 35  1  6  0  0  0
M  END
>  <CHROM.1>
-179.60116972,66.19702495,-173.40112756,-73.46899521,-104.86378730,-64.20428529
-3.27322483,29.57690150,67.14697269,3.04061682,-0.22484491,2.74058351

>  <Name>
ligand

>  <RI>
0

>  <Rbt.Current_Directory>
/home/itssahil/PROJECTS/Mol_Feturizer/Test_systems_manuscript/rnas/2g5k

>  <Rbt.Executable>
rbdock ($Id: //depot/dev/client3/rdock/2013.1/src/exe/rbdock.cxx#4 $)

>  <Rbt.Library>
libRbt.so (2013.1, Build901 2013/11/27)

>  <Rbt.Parameter_File>
/export/apps/rDock/src/rDock_2013.1_src/data/scripts/dock_solv.prm

>  <Rbt.Receptor>
prm/pocket_docking_5.prm

>  <SCORE>
-9.17764

>  <SCORE.INTER>
-7.73199

>  <SCORE.INTER.CONST>
1

>  <SCORE.INTER.POLAR>
0

>  <SCORE.INTER.ROT>
6

>  <SCORE.INTER.SOLV>
10.6106

>  <SCORE.INTER.VDW>
-16.2915

>  <SCORE.INTER.norm>
-0.208973

>  <SCORE.INTRA>
-1.44564

>  <SCORE.INTRA.DIHEDRAL>
-4.07468

>  <SCORE.INTRA.DIHEDRAL.0>
11.3972

>  <SCORE.INTRA.POLAR>
0

>  <SCORE.INTRA.POLAR.0>
0

>  <SCORE.INTRA.REPUL>
0

>  <SCORE.INTRA.REPUL.0>
0

>  <SCORE.INTRA.SOLV>
0.542857

>  <SCORE.INTRA.SOLV.lig_0>
-92.3891

>  <SCORE.INTRA.VDW>
0.320266

>  <SCORE.INTRA.VDW.0>
-2.90606

>  <SCORE.INTRA.norm>
-0.0390715

>  <SCORE.RESTR>
0

>  <SCORE.RESTR.CAVITY>
0

>  <SCORE.RESTR.norm>
0

>  <SCORE.SYSTEM>
0

>  <SCORE.SYSTEM.CONST>
0

>  <SCORE.SYSTEM.DIHEDRAL>
0

>  <SCORE.SYSTEM.SOLV>
0

>  <SCORE.SYSTEM.norm>
0

>  <SCORE.heavy>
37

>  <SCORE.norm>
-0.248044

>  <RMSD>
9.803

$$$$
ligand
 OpenBabel02271912133D
libRbt.so/2013.1/901 2013/11/27
 37 40  0  0  0  0  0  0  0  0999 V2000
   -5.9117   27.5843   65.2243 C   0  0  1  0  0  0  0  0  0  0  0  0
   -5.2675   26.3657   65.9444 C   0  0  1  0  0  0  0  0  0  0  0  0
   -3.8750   26.7009   66.5119 C   0  0  0  0  0  0  0  0  0  0  0  0
   -2.9645   27.2080   65.3504 C   0  0  1  0  0  0  0  0  0  0  0  0
   -3.5936   28.4644   64.6654 C   0  0  1  0  0  0  0  0  0  0  0  0
   -2.6485   28.9640   63.4814 C   0  0  1  0  0  0  0  0  0  0  0  0
   -1.2473   29.3099   64.0652 C   0  0  1  0  0  0  0  0  0  0  0  0
   -0.6846   28.0355   64.7638 C   0  0  2  0  0  0  0  0  0  0  0  0
    0.7742   30.7421   63.3084 C   0  0  0  0  0  0  0  0  0  0  0  0
   -6.1547   25.8649   67.0155 N   0  0  0  0  0  0  0  0  0  0  0  0
   -0.3172   29.7744   62.9688 N   0  0  0  0  0  0  0  0  0  0  0  0
   -6.2691   28.6402   66.1373 O   0  0  0  0  0  0  0  0  0  0  0  0
   -4.9587   28.0803   64.1973 O   0  0  0  0  0  0  0  0  0  0  0  0
   -1.5845   27.5584   65.8220 O   0  0  0  0  0  0  0  0  0  0  0  0
   -2.4882   27.9248   62.5245 O   0  0  0  0  0  0  0  0  0  0  0  0
    0.5910   28.3126   65.3305 O   0  0  0  0  0  0  0  0  0  0  0  0
    1.2441   27.1539   65.9051 C   0  0  2  0  0  0  0  0  0  0  0  0
    2.5425   27.5118   66.6663 C   0  0  1  0  0  0  0  0  0  0  0  0
    3.6357   28.0424   65.6836 C   0  0  2  0  0  0  0  0  0  0  0  0
    3.9434   26.9665   64.6620 C   0  0  1  0  0  0  0  0  0  0  0  0
    2.6405   26.6283   63.8773 C   0  0  1  0  0  0  0  0  0  0  0  0
    2.8620   25.5309   62.8381 C   0  0  0  0  0  0  0  0  0  0  0  0
    4.9964   27.4543   63.7388 N   0  0  0  0  0  0  0  0  0  0  0  0
    1.5863   26.1709   64.8341 O   0  0  0  0  0  0  0  0  0  0  0  0
    2.1954   28.4815   67.6798 O   0  0  0  0  0  0  0  0  0  0  0  0
    4.8297   28.3512   66.4063 O   0  0  0  0  0  0  0  0  0  0  0  0
    1.6875   25.3622   62.0821 O   0  0  0  0  0  0  0  0  0  0  0  0
   -6.8252   29.9734   65.6862 C   0  0  1  0  0  0  0  0  0  0  0  0
   -5.7099   30.7325   64.9163 C   0  0  1  0  0  0  0  0  0  0  0  0
   -6.2396   32.1148   64.4363 C   0  0  2  0  0  0  0  0  0  0  0  0
   -7.4528   31.8962   63.4989 C   0  0  1  0  0  0  0  0  0  0  0  0
   -8.6012   31.1371   64.2553 C   0  0  0  0  0  0  0  0  0  0  0  0
   -8.0481   29.7783   64.7353 C   0  0  2  0  0  0  0  0  0  0  0  0
   -7.9620   33.2072   63.0292 N   0  0  0  0  0  0  0  0  0  0  0  0
   -9.1256   29.0766   65.4413 N   0  0  0  0  0  0  0  0  0  0  0  0
   -4.5763   30.9354   65.7887 O   0  0  0  0  0  0  0  0  0  0  0  0
   -5.1827   32.8018   63.7300 O   0  0  0  0  0  0  0  0  0  0  0  0
  1  2  1  0  0  0  0
  1 12  1  1  0  0  0
  1 13  1  0  0  0  0
  2  3  1  0  0  0  0
  2 10  1  1  0  0  0
  4  3  1  1  0  0  0
  4  5  1  0  0  0  0
  4 14  1  0  0  0  0
  5  6  1  0  0  0  0
  5 13  1  6  0  0  0
  6  7  1  0  0  0  0
  6 15  1  6  0  0  0
  7  8  1  0  0  0  0
  7 11  1  6  0  0  0
  8 14  1  0  0  0  0
  8 16  1  1  0  0  0
  9 11  1  0  0  0  0
 17 16  1  6  0  0  0
 17 18  1  0  0  0  0
 17 24  1  0  0  0  0
 18 19  1  0  0  0  0
 18 25  1  1  0  0  0
 19 20  1  0  0  0  0
 19 26  1  1  0  0  0
 20 21  1  0  0  0  0
 20 23  1  6  0  0  0
 21 22  1  6  0  0  0
 21 24  1  0  0  0  0
 22 27  1  0  0  0  0
 28 12  1  6  0  0  0
 28 29  1  0  0  0  0
 28 33  1  0  0  0  0
 29 30  1  0  0  0  0
 29 36  1  1  0  0  0
 30 31  1  0  0  0  0
 30 37  1  6  0  0  0
 31 32  1  0  0  0  0
 31 34  1  1  0  0  0
 32 33  1  0  0  0  0
 33 35  1  1  0  0  0
M  END
>  <CHROM.1>
175.70447461,150.71099094,-175.06101196,-67.31876844,-172.86924121,-174.48584879
-2.22011208,28.61261241,64.78931539,2.87457003,0.11571588,-0.41716735

>  <Name>
ligand

>  <RI>
0

>  <Rbt.Current_Directory>
/home/itssahil/PROJECTS/Mol_Feturizer/Test_systems_manuscript/rnas/2g5k

>  <Rbt.Executable>
rbdock ($Id: //depot/dev/client3/rdock/2013.1/src/exe/rbdock.cxx#4 $)

>  <Rbt.Library>
libRbt.so (2013.1, Build901 2013/11/27)

>  <Rbt.Parameter_File>
/export/apps/rDock/src/rDock_2013.1_src/data/scripts/dock_solv.prm

>  <Rbt.Receptor>
prm/pocket_docking_7.prm

>  <SCORE>
-11.4767

>  <SCORE.INTER>
-5.59569

>  <SCORE.INTER.CONST>
1

>  <SCORE.INTER.POLAR>
0

>  <SCORE.INTER.ROT>
6

>  <SCORE.INTER.SOLV>
10.675

>  <SCORE.INTER.VDW>
-14.8888

>  <SCORE.INTER.norm>
-0.151235

>  <SCORE.INTRA>
-5.88097

>  <SCORE.INTRA.DIHEDRAL>
-9.95206

>  <SCORE.INTRA.DIHEDRAL.0>
11.3972

>  <SCORE.INTRA.POLAR>
0

>  <SCORE.INTRA.POLAR.0>
0

>  <SCORE.INTRA.REPUL>
0

>  <SCORE.INTRA.REPUL.0>
0

>  <SCORE.INTRA.SOLV>
-0.904629

>  <SCORE.INTRA.SOLV.lig_0>
-92.3891

>  <SCORE.INTRA.VDW>
-0.452621

>  <SCORE.INTRA.VDW.0>
-2.90606

>  <SCORE.INTRA.norm>
-0.158945

>  <SCORE.RESTR>
0

>  <SCORE.RESTR.CAVITY>
0

>  <SCORE.RESTR.norm>
0

>  <SCORE.SYSTEM>
0

>  <SCORE.SYSTEM.CONST>
0

>  <SCORE.SYSTEM.DIHEDRAL>
0

>  <SCORE.SYSTEM.SOLV>
0

>  <SCORE.SYSTEM.norm>
0

>  <SCORE.heavy>
37

>  <SCORE.norm>
-0.31018

>  <RMSD>
9.803

$$$$
ligand
 OpenBabel02271912133D
libRbt.so/2013.1/901 2013/11/27
 37 40  0  0  0  0  0  0  0  0999 V2000
  -10.4092   25.9433   65.6830 C   0  0  1  0  0  0  0  0  0  0  0  0
  -10.1078   25.8017   67.2021 C   0  0  1  0  0  0  0  0  0  0  0  0
   -9.0081   26.7761   67.6653 C   0  0  0  0  0  0  0  0  0  0  0  0
   -7.7226   26.5282   66.8160 C   0  0  1  0  0  0  0  0  0  0  0  0
   -8.0216   26.7234   65.2941 C   0  0  1  0  0  0  0  0  0  0  0  0
   -6.6959   26.4635   64.4458 C   0  0  1  0  0  0  0  0  0  0  0  0
   -5.5937   27.4587   64.9133 C   0  0  1  0  0  0  0  0  0  0  0  0
   -5.3620   27.2442   66.4394 C   0  0  2  0  0  0  0  0  0  0  0  0
   -3.3964   28.3931   63.9085 C   0  0  0  0  0  0  0  0  0  0  0  0
  -11.3385   25.9962   67.9976 N   0  0  0  0  0  0  0  0  0  0  0  0
   -4.3150   27.2332   64.1407 N   0  0  0  0  0  0  0  0  0  0  0  0
  -11.0428   27.1964   65.3596 O   0  0  0  0  0  0  0  0  0  0  0  0
   -9.1334   25.7933   64.9354 O   0  0  0  0  0  0  0  0  0  0  0  0
   -6.5991   27.4421   67.2060 O   0  0  0  0  0  0  0  0  0  0  0  0
   -6.2293   25.1408   64.6779 O   0  0  0  0  0  0  0  0  0  0  0  0
   -4.3726   28.1497   66.9149 O   0  0  0  0  0  0  0  0  0  0  0  0
   -4.2260   28.1579   68.3563 C   0  0  2  0  0  0  0  0  0  0  0  0
   -3.3520   29.3287   68.8649 C   0  0  1  0  0  0  0  0  0  0  0  0
   -1.8714   29.1643   68.3924 C   0  0  2  0  0  0  0  0  0  0  0  0
   -1.3212   27.8634   68.9408 C   0  0  1  0  0  0  0  0  0  0  0  0
   -2.1859   26.6836   68.4041 C   0  0  1  0  0  0  0  0  0  0  0  0
   -1.7077   25.3321   68.9315 C   0  0  0  0  0  0  0  0  0  0  0  0
    0.0911   27.7107   68.5152 N   0  0  0  0  0  0  0  0  0  0  0  0
   -3.6091   26.8789   68.8192 O   0  0  0  0  0  0  0  0  0  0  0  0
   -3.9503   30.5538   68.3860 O   0  0  0  0  0  0  0  0  0  0  0  0
   -1.0808   30.2477   68.8867 O   0  0  0  0  0  0  0  0  0  0  0  0
   -1.8240   25.3122   70.3334 O   0  0  0  0  0  0  0  0  0  0  0  0
  -11.7020   27.4722   64.0257 C   0  0  1  0  0  0  0  0  0  0  0  0
  -10.6114   27.4171   62.9211 C   0  0  1  0  0  0  0  0  0  0  0  0
  -11.2474   27.6998   61.5292 C   0  0  2  0  0  0  0  0  0  0  0  0
  -12.3279   26.6293   61.2376 C   0  0  1  0  0  0  0  0  0  0  0  0
  -13.4499   26.6684   62.3361 C   0  0  0  0  0  0  0  0  0  0  0  0
  -12.7935   26.4020   63.7074 C   0  0  2  0  0  0  0  0  0  0  0  0
  -12.9364   26.8845   59.9098 N   0  0  0  0  0  0  0  0  0  0  0  0
  -13.8472   26.4415   64.7273 N   0  0  0  0  0  0  0  0  0  0  0  0
   -9.6013   28.4137   63.1927 O   0  0  0  0  0  0  0  0  0  0  0  0
  -10.2124   27.6490   60.5223 O   0  0  0  0  0  0  0  0  0  0  0  0
  1  2  1  0  0  0  0
  1 12  1  1  0  0  0
  1 13  1  0  0  0  0
  2  3  1  0  0  0  0
  2 10  1  1  0  0  0
  4  3  1  1  0  0  0
  4  5  1  0  0  0  0
  4 14  1  0  0  0  0
  5  6  1  0  0  0  0
  5 13  1  6  0  0  0
  6  7  1  0  0  0  0
  6 15  1  1  0  0  0
  7  8  1  0  0  0  0
  7 11  1  6  0  0  0
  8 14  1  0  0  0  0
  8 16  1  1  0  0  0
  9 11  1  0  0  0  0
 17 16  1  6  0  0  0
 17 18  1  0  0  0  0
 17 24  1  0  0  0  0
 18 19  1  0  0  0  0
 18 25  1  6  0  0  0
 19 20  1  0  0  0  0
 19 26  1  1  0  0  0
 20 21  1  0  0  0  0
 20 23  1  6  0  0  0
 21 22  1  1  0  0  0
 21 24  1  0  0  0  0
 22 27  1  0  0  0  0
 28 12  1  1  0  0  0
 28 29  1  0  0  0  0
 28 33  1  0  0  0  0
 29 30  1  0  0  0  0
 29 36  1  1  0  0  0
 30 31  1  0  0  0  0
 30 37  1  6  0  0  0
 31 32  1  0  0  0  0
 31 34  1  6  0  0  0
 32 33  1  0  0  0  0
 33 35  1  1  0  0  0
M  END
>  <CHROM.1>
-166.71231849,150.45554904,171.61345100,-63.66887419,-168.95973292,61.91849259
-7.05509374,27.23595866,65.81807809,2.67159890,-0.24553395,-1.30362006

>  <Name>
ligand

>  <RI>
0

>  <Rbt.Current_Directory>
/home/itssahil/PROJECTS/Mol_Feturizer/Test_systems_manuscript/rnas/2g5k

>  <Rbt.Executable>
rbdock ($Id: //depot/dev/client3/rdock/2013.1/src/exe/rbdock.cxx#4 $)

>  <Rbt.Library>
libRbt.so (2013.1, Build901 2013/11/27)

>  <Rbt.Parameter_File>
/export/apps/rDock/src/rDock_2013.1_src/data/scripts/dock_solv.prm

>  <Rbt.Receptor>
prm/pocket_docking_7.prm

>  <SCORE>
-14.0177

>  <SCORE.INTER>
-9.29357

>  <SCORE.INTER.CONST>
1

>  <SCORE.INTER.POLAR>
0

>  <SCORE.INTER.ROT>
6

>  <SCORE.INTER.SOLV>
14.821

>  <SCORE.INTER.VDW>
-18.736

>  <SCORE.INTER.norm>
-0.251178

>  <SCORE.INTRA>
-4.7255

>  <SCORE.INTRA.DIHEDRAL>
-8.93444

>  <SCORE.INTRA.DIHEDRAL.0>
11.3972

>  <SCORE.INTRA.POLAR>
0

>  <SCORE.INTRA.POLAR.0>
0

>  <SCORE.INTRA.REPUL>
0

>  <SCORE.INTRA.REPUL.0>
0

>  <SCORE.INTRA.SOLV>
-0.138516

>  <SCORE.INTRA.SOLV.lig_0>
-92.3891

>  <SCORE.INTRA.VDW>
-0.189023

>  <SCORE.INTRA.VDW.0>
-2.90606

>  <SCORE.INTRA.norm>
-0.127716

>  <SCORE.RESTR>
0.00134398

>  <SCORE.RESTR.CAVITY>
0.00134398

>  <SCORE.RESTR.norm>
3.63238e-05

>  <SCORE.SYSTEM>
0

>  <SCORE.SYSTEM.CONST>
0

>  <SCORE.SYSTEM.DIHEDRAL>
0

>  <SCORE.SYSTEM.SOLV>
0

>  <SCORE.SYSTEM.norm>
0

>  <SCORE.heavy>
37

>  <SCORE.norm>
-0.378858

>  <RMSD>
9.806

$$$$
ligand
 OpenBabel02271912133D
libRbt.so/2013.1/901 2013/11/27
 37 40  0  0  0  0  0  0  0  0999 V2000
   -5.8742   27.4736   65.2324 C   0  0  1  0  0  0  0  0  0  0  0  0
   -5.2152   26.2631   65.9528 C   0  0  1  0  0  0  0  0  0  0  0  0
   -3.8270   26.6154   66.5205 C   0  0  0  0  0  0  0  0  0  0  0  0
   -2.9226   27.1333   65.3590 C   0  0  1  0  0  0  0  0  0  0  0  0
   -3.5669   28.3818   64.6736 C   0  0  1  0  0  0  0  0  0  0  0  0
   -2.6277   28.8925   63.4896 C   0  0  1  0  0  0  0  0  0  0  0  0
   -1.2309   29.2557   64.0736 C   0  0  1  0  0  0  0  0  0  0  0  0
   -0.6528   27.9884   64.7725 C   0  0  2  0  0  0  0  0  0  0  0  0
    0.6999   30.7951   63.2909 C   0  0  0  0  0  0  0  0  0  0  0  0
   -6.0964   25.7518   67.0239 N   0  0  0  0  0  0  0  0  0  0  0  0
   -0.3064   29.7312   62.9772 N   0  0  0  0  0  0  0  0  0  0  0  0
   -6.2445   28.5253   66.1451 O   0  0  0  0  0  0  0  0  0  0  0  0
   -4.9271   27.9810   64.2054 O   0  0  0  0  0  0  0  0  0  0  0  0
   -1.5470   27.5006   65.8307 O   0  0  0  0  0  0  0  0  0  0  0  0
   -2.4546   27.8551   62.5330 O   0  0  0  0  0  0  0  0  0  0  0  0
    0.6192   28.2811   65.3393 O   0  0  0  0  0  0  0  0  0  0  0  0
    1.2511   27.1480   65.9843 C   0  0  2  0  0  0  0  0  0  0  0  0
    2.6128   27.5043   66.6263 C   0  0  1  0  0  0  0  0  0  0  0  0
    3.6637   27.8779   65.5316 C   0  0  2  0  0  0  0  0  0  0  0  0
    3.8501   26.6945   64.6039 C   0  0  1  0  0  0  0  0  0  0  0  0
    2.4834   26.3557   63.9369 C   0  0  1  0  0  0  0  0  0  0  0  0
    2.5818   25.1539   62.9993 C   0  0  0  0  0  0  0  0  0  0  0  0
    4.8627   27.0334   63.5750 N   0  0  0  0  0  0  0  0  0  0  0  0
    1.4733   26.0502   64.9964 O   0  0  0  0  0  0  0  0  0  0  0  0
    2.3812   28.5837   67.5588 O   0  0  0  0  0  0  0  0  0  0  0  0
    4.9163   28.1876   66.1465 O   0  0  0  0  0  0  0  0  0  0  0  0
    2.9294   24.0111   63.7426 O   0  0  0  0  0  0  0  0  0  0  0  0
   -6.8085   29.8548   65.6930 C   0  0  1  0  0  0  0  0  0  0  0  0
   -5.6843   30.6394   64.9627 C   0  0  1  0  0  0  0  0  0  0  0  0
   -6.2219   32.0188   64.4830 C   0  0  2  0  0  0  0  0  0  0  0  0
   -7.4052   31.7923   63.5100 C   0  0  1  0  0  0  0  0  0  0  0  0
   -8.5621   31.0074   64.2259 C   0  0  0  0  0  0  0  0  0  0  0  0
   -8.0015   29.6519   64.7064 C   0  0  2  0  0  0  0  0  0  0  0  0
   -7.9215   33.1005   63.0405 N   0  0  0  0  0  0  0  0  0  0  0  0
   -9.0871   28.9260   65.3747 N   0  0  0  0  0  0  0  0  0  0  0  0
   -4.5785   30.8497   65.8684 O   0  0  0  0  0  0  0  0  0  0  0  0
   -5.1567   32.7296   63.8138 O   0  0  0  0  0  0  0  0  0  0  0  0
  1  2  1  0  0  0  0
  1 12  1  1  0  0  0
  1 13  1  0  0  0  0
  2  3  1  0  0  0  0
  2 10  1  1  0  0  0
  4  3  1  1  0  0  0
  4  5  1  0  0  0  0
  4 14  1  0  0  0  0
  5  6  1  0  0  0  0
  5 13  1  6  0  0  0
  6  7  1  0  0  0  0
  6 15  1  6  0  0  0
  7  8  1  0  0  0  0
  7 11  1  6  0  0  0
  8 14  1  0  0  0  0
  8 16  1  1  0  0  0
  9 11  1  0  0  0  0
 17 16  1  6  0  0  0
 17 18  1  0  0  0  0
 17 24  1  0  0  0  0
 18 19  1  0  0  0  0
 18 25  1  1  0  0  0
 19 20  1  0  0  0  0
 19 26  1  1  0  0  0
 20 21  1  0  0  0  0
 20 23  1  6  0  0  0
 21 22  1  6  0  0  0
 21 24  1  0  0  0  0
 22 27  1  0  0  0  0
 28 12  1  6  0  0  0
 28 29  1  0  0  0  0
 28 33  1  0  0  0  0
 29 30  1  0  0  0  0
 29 36  1  1  0  0  0
 30 31  1  0  0  0  0
 30 37  1  6  0  0  0
 31 32  1  0  0  0  0
 31 34  1  1  0  0  0
 32 33  1  0  0  0  0
 33 35  1  1  0  0  0
M  END
>  <CHROM.1>
175.30320364,145.74501985,-178.53675714,-68.78088250,-178.35502468,63.42175409
-2.17292550,28.46824241,64.83814539,2.84159539,0.09515229,-0.34094810

>  <Name>
ligand

>  <RI>
0

>  <Rbt.Current_Directory>
/home/itssahil/PROJECTS/Mol_Feturizer/Test_systems_manuscript/rnas/2g5k

>  <Rbt.Executable>
rbdock ($Id: //depot/dev/client3/rdock/2013.1/src/exe/rbdock.cxx#4 $)

>  <Rbt.Library>
libRbt.so (2013.1, Build901 2013/11/27)

>  <Rbt.Parameter_File>
/export/apps/rDock/src/rDock_2013.1_src/data/scripts/dock_solv.prm

>  <Rbt.Receptor>
prm/pocket_docking_8.prm

>  <SCORE>
-11.4755

>  <SCORE.INTER>
-5.95811

>  <SCORE.INTER.CONST>
1

>  <SCORE.INTER.POLAR>
0

>  <SCORE.INTER.ROT>
6

>  <SCORE.INTER.SOLV>
10.1138

>  <SCORE.INTER.VDW>
-14.9434

>  <SCORE.INTER.norm>
-0.16103

>  <SCORE.INTRA>
-5.51741

>  <SCORE.INTRA.DIHEDRAL>
-10.0774

>  <SCORE.INTRA.DIHEDRAL.0>
11.3972

>  <SCORE.INTRA.POLAR>
0

>  <SCORE.INTRA.POLAR.0>
0

>  <SCORE.INTRA.REPUL>
0

>  <SCORE.INTRA.REPUL.0>
0

>  <SCORE.INTRA.SOLV>
-0.280117

>  <SCORE.INTRA.SOLV.lig_0>
-92.3891

>  <SCORE.INTRA.VDW>
-0.338647

>  <SCORE.INTRA.VDW.0>
-2.90606

>  <SCORE.INTRA.norm>
-0.149119

>  <SCORE.RESTR>
0

>  <SCORE.RESTR.CAVITY>
0

>  <SCORE.RESTR.norm>
0

>  <SCORE.SYSTEM>
0

>  <SCORE.SYSTEM.CONST>
0

>  <SCORE.SYSTEM.DIHEDRAL>
0

>  <SCORE.SYSTEM.SOLV>
0

>  <SCORE.SYSTEM.norm>
0

>  <SCORE.heavy>
37

>  <SCORE.norm>
-0.310149

>  <RMSD>
9.810

$$$$
ligand
 OpenBabel02271912133D
libRbt.so/2013.1/901 2013/11/27
 37 40  0  0  0  0  0  0  0  0999 V2000
   -5.9018   32.4879   66.9970 C   0  0  1  0  0  0  0  0  0  0  0  0
   -5.0645   33.0917   65.8339 C   0  0  1  0  0  0  0  0  0  0  0  0
   -4.4150   31.9993   64.9631 C   0  0  0  0  0  0  0  0  0  0  0  0
   -3.5322   31.0875   65.8712 C   0  0  1  0  0  0  0  0  0  0  0  0
   -4.3917   30.4433   67.0068 C   0  0  1  0  0  0  0  0  0  0  0  0
   -3.4699   29.5182   67.9229 C   0  0  1  0  0  0  0  0  0  0  0  0
   -2.8259   28.4117   67.0371 C   0  0  1  0  0  0  0  0  0  0  0  0
   -2.0124   29.1086   65.9052 C   0  0  2  0  0  0  0  0  0  0  0  0
   -2.5593   26.4715   68.7327 C   0  0  0  0  0  0  0  0  0  0  0  0
   -5.8972   33.9870   65.0031 N   0  0  0  0  0  0  0  0  0  0  0  0
   -1.9319   27.5217   67.8688 N   0  0  0  0  0  0  0  0  0  0  0  0
   -7.0860   31.8112   66.5324 O   0  0  0  0  0  0  0  0  0  0  0  0
   -5.0345   31.5572   67.7658 O   0  0  0  0  0  0  0  0  0  0  0  0
   -2.8618   29.9924   65.0960 O   0  0  0  0  0  0  0  0  0  0  0  0
   -2.4257   30.2962   68.4933 O   0  0  0  0  0  0  0  0  0  0  0  0
   -1.4202   28.1314   65.0571 O   0  0  0  0  0  0  0  0  0  0  0  0
    0.0115   28.2827   64.8946 C   0  0  2  0  0  0  0  0  0  0  0  0
    0.5884   27.3806   63.7779 C   0  0  1  0  0  0  0  0  0  0  0  0
    0.4666   25.8710   64.1633 C   0  0  2  0  0  0  0  0  0  0  0  0
    1.2388   25.6259   65.4438 C   0  0  1  0  0  0  0  0  0  0  0  0
    0.6375   26.5145   66.5737 C   0  0  1  0  0  0  0  0  0  0  0  0
    1.3782   26.3418   67.8984 C   0  0  0  0  0  0  0  0  0  0  0  0
    1.1466   24.1905   65.8044 N   0  0  0  0  0  0  0  0  0  0  0  0
    0.7131   27.9526   66.1710 O   0  0  0  0  0  0  0  0  0  0  0  0
   -0.1198   27.6967   62.5587 O   0  0  0  0  0  0  0  0  0  0  0  0
    1.0194   25.0586   63.1252 O   0  0  0  0  0  0  0  0  0  0  0  0
    2.6352   26.9682   67.8136 O   0  0  0  0  0  0  0  0  0  0  0  0
   -7.6755   30.6017   67.2251 C   0  0  1  0  0  0  0  0  0  0  0  0
   -8.4043   31.0817   68.5101 C   0  0  1  0  0  0  0  0  0  0  0  0
   -9.0238   29.8654   69.2575 C   0  0  2  0  0  0  0  0  0  0  0  0
  -10.0388   29.1594   68.3249 C   0  0  1  0  0  0  0  0  0  0  0  0
   -9.3261   28.6552   67.0192 C   0  0  0  0  0  0  0  0  0  0  0  0
   -8.7064   29.8751   66.3048 C   0  0  2  0  0  0  0  0  0  0  0  0
  -10.6413   28.0022   69.0294 N   0  0  0  0  0  0  0  0  0  0  0  0
   -8.0419   29.3958   65.0879 N   0  0  0  0  0  0  0  0  0  0  0  0
   -7.4593   31.7426   69.3804 O   0  0  0  0  0  0  0  0  0  0  0  0
   -9.6892   30.3378   70.4500 O   0  0  0  0  0  0  0  0  0  0  0  0
  1  2  1  0  0  0  0
  1 12  1  6  0  0  0
  1 13  1  0  0  0  0
  2  3  1  0  0  0  0
  2 10  1  6  0  0  0
  4  3  1  6  0  0  0
  4  5  1  0  0  0  0
  4 14  1  0  0  0  0
  5  6  1  0  0  0  0
  5 13  1  1  0  0  0
  6  7  1  0  0  0  0
  6 15  1  6  0  0  0
  7  8  1  0  0  0  0
  7 11  1  1  0  0  0
  8 14  1  0  0  0  0
  8 16  1  6  0  0  0
  9 11  1  0  0  0  0
 17 16  1  1  0  0  0
 17 18  1  0  0  0  0
 17 24  1  0  0  0  0
 18 19  1  0  0  0  0
 18 25  1  6  0  0  0
 19 20  1  0  0  0  0
 19 26  1  6  0  0  0
 20 21  1  0  0  0  0
 20 23  1  1  0  0  0
 21 22  1  1  0  0  0
 21 24  1  0  0  0  0
 22 27  1  0  0  0  0
 28 12  1  6  0  0  0
 28 29  1  0  0  0  0
 28 33  1  0  0  0  0
 29 30  1  0  0  0  0
 29 36  1  1  0  0  0
 30 31  1  0  0  0  0
 30 37  1  1  0  0  0
 31 32  1  0  0  0  0
 31 34  1  1  0  0  0
 32 33  1  0  0  0  0
 33 35  1  6  0  0  0
M  END
>  <CHROM.1>
147.58459395,77.88506504,-126.01010918,75.52554685,-169.52666493,72.74151547
-3.73994105,29.08845258,66.62445145,-2.94274665,-0.44267345,2.54868711

>  <Name>
ligand

>  <RI>
0

>  <Rbt.Current_Directory>
/home/itssahil/PROJECTS/Mol_Feturizer/Test_systems_manuscript/rnas/2g5k

>  <Rbt.Executable>
rbdock ($Id: //depot/dev/client3/rdock/2013.1/src/exe/rbdock.cxx#4 $)

>  <Rbt.Library>
libRbt.so (2013.1, Build901 2013/11/27)

>  <Rbt.Parameter_File>
/export/apps/rDock/src/rDock_2013.1_src/data/scripts/dock_solv.prm

>  <Rbt.Receptor>
prm/pocket_docking_3.prm

>  <SCORE>
-2.91473

>  <SCORE.INTER>
-3.37884

>  <SCORE.INTER.CONST>
1

>  <SCORE.INTER.POLAR>
0

>  <SCORE.INTER.ROT>
6

>  <SCORE.INTER.SOLV>
15.4708

>  <SCORE.INTER.VDW>
-15.0095

>  <SCORE.INTER.norm>
-0.09132

>  <SCORE.INTRA>
0.366357

>  <SCORE.INTRA.DIHEDRAL>
2.13236

>  <SCORE.INTRA.DIHEDRAL.0>
11.3972

>  <SCORE.INTRA.POLAR>
0

>  <SCORE.INTRA.POLAR.0>
0

>  <SCORE.INTRA.REPUL>
0

>  <SCORE.INTRA.REPUL.0>
0

>  <SCORE.INTRA.SOLV>
0.440935

>  <SCORE.INTRA.SOLV.lig_0>
-92.3891

>  <SCORE.INTRA.VDW>
-0.92029

>  <SCORE.INTRA.VDW.0>
-2.90606

>  <SCORE.INTRA.norm>
0.00990155

>  <SCORE.RESTR>
0.0977503

>  <SCORE.RESTR.CAVITY>
0.0977503

>  <SCORE.RESTR.norm>
0.0026419

>  <SCORE.SYSTEM>
0

>  <SCORE.SYSTEM.CONST>
0

>  <SCORE.SYSTEM.DIHEDRAL>
0

>  <SCORE.SYSTEM.SOLV>
0

>  <SCORE.SYSTEM.norm>
0

>  <SCORE.heavy>
37

>  <SCORE.norm>
-0.0787766

>  <RMSD>
9.821

$$$$
ligand
 OpenBabel02271912133D
libRbt.so/2013.1/901 2013/11/27
 37 40  0  0  0  0  0  0  0  0999 V2000
   -5.8174   31.0351   65.7888 C   0  0  1  0  0  0  0  0  0  0  0  0
   -4.8485   32.0071   65.0575 C   0  0  1  0  0  0  0  0  0  0  0  0
   -3.4277   31.4238   64.9376 C   0  0  0  0  0  0  0  0  0  0  0  0
   -2.9004   31.0801   66.3656 C   0  0  1  0  0  0  0  0  0  0  0  0
   -3.8521   30.0624   67.0742 C   0  0  1  0  0  0  0  0  0  0  0  0
   -3.2956   29.7271   68.5312 C   0  0  1  0  0  0  0  0  0  0  0  0
   -1.8642   29.1292   68.4000 C   0  0  1  0  0  0  0  0  0  0  0  0
   -0.9704   30.1682   67.6582 C   0  0  2  0  0  0  0  0  0  0  0  0
   -1.6815   27.5239   70.4249 C   0  0  0  0  0  0  0  0  0  0  0  0
   -5.3756   32.3612   63.7225 N   0  0  0  0  0  0  0  0  0  0  0  0
   -1.2965   28.8114   69.7637 N   0  0  0  0  0  0  0  0  0  0  0  0
   -6.1040   29.8540   65.0148 O   0  0  0  0  0  0  0  0  0  0  0  0
   -5.2161   30.6699   67.0982 O   0  0  0  0  0  0  0  0  0  0  0  0
   -1.5162   30.5032   66.3364 O   0  0  0  0  0  0  0  0  0  0  0  0
   -3.2112   30.9207   69.2989 O   0  0  0  0  0  0  0  0  0  0  0  0
    0.3466   29.6534   67.4986 O   0  0  0  0  0  0  0  0  0  0  0  0
    0.4094   28.4231   66.7359 C   0  0  2  0  0  0  0  0  0  0  0  0
    1.8068   27.7606   66.7779 C   0  0  1  0  0  0  0  0  0  0  0  0
    2.8653   28.6470   66.0456 C   0  0  2  0  0  0  0  0  0  0  0  0
    2.4455   28.8222   64.6002 C   0  0  1  0  0  0  0  0  0  0  0  0
    1.0507   29.5154   64.5602 C   0  0  1  0  0  0  0  0  0  0  0  0
    0.5440   29.7089   63.1323 C   0  0  0  0  0  0  0  0  0  0  0  0
    3.4568   29.6440   63.8926 N   0  0  0  0  0  0  0  0  0  0  0  0
    0.0583   28.6833   65.3078 O   0  0  0  0  0  0  0  0  0  0  0  0
    2.1387   27.5407   68.1670 O   0  0  0  0  0  0  0  0  0  0  0  0
    4.1435   28.0082   66.0836 O   0  0  0  0  0  0  0  0  0  0  0  0
    1.3498   30.6583   62.4774 O   0  0  0  0  0  0  0  0  0  0  0  0
   -7.3782   29.0520   65.1670 C   0  0  1  0  0  0  0  0  0  0  0  0
   -8.5475   29.8722   64.5566 C   0  0  1  0  0  0  0  0  0  0  0  0
   -9.8818   29.0834   64.6958 C   0  0  2  0  0  0  0  0  0  0  0  0
   -9.7548   27.7343   63.9460 C   0  0  1  0  0  0  0  0  0  0  0  0
   -8.5836   26.8791   64.5492 C   0  0  0  0  0  0  0  0  0  0  0  0
   -7.2756   27.6876   64.4148 C   0  0  2  0  0  0  0  0  0  0  0  0
  -11.0236   26.9765   64.0658 N   0  0  0  0  0  0  0  0  0  0  0  0
   -6.1876   26.8831   64.9813 N   0  0  0  0  0  0  0  0  0  0  0  0
   -8.6660   31.1323   65.2535 O   0  0  0  0  0  0  0  0  0  0  0  0
  -10.9523   29.8698   64.1270 O   0  0  0  0  0  0  0  0  0  0  0  0
  1  2  1  0  0  0  0
  1 12  1  6  0  0  0
  1 13  1  0  0  0  0
  2  3  1  0  0  0  0
  2 10  1  6  0  0  0
  4  3  1  6  0  0  0
  4  5  1  0  0  0  0
  4 14  1  0  0  0  0
  5  6  1  0  0  0  0
  5 13  1  1  0  0  0
  6  7  1  0  0  0  0
  6 15  1  1  0  0  0
  7  8  1  0  0  0  0
  7 11  1  1  0  0  0
  8 14  1  0  0  0  0
  8 16  1  6  0  0  0
  9 11  1  0  0  0  0
 17 16  1  1  0  0  0
 17 18  1  0  0  0  0
 17 24  1  0  0  0  0
 18 19  1  0  0  0  0
 18 25  1  1  0  0  0
 19 20  1  0  0  0  0
 19 26  1  6  0  0  0
 20 21  1  0  0  0  0
 20 23  1  6  0  0  0
 21 22  1  6  0  0  0
 21 24  1  0  0  0  0
 22 27  1  0  0  0  0
 28 12  1  6  0  0  0
 28 29  1  0  0  0  0
 28 33  1  0  0  0  0
 29 30  1  0  0  0  0
 29 36  1  1  0  0  0
 30 31  1  0  0  0  0
 30 37  1  6  0  0  0
 31 32  1  0  0  0  0
 31 34  1  1  0  0  0
 32 33  1  0  0  0  0
 33 35  1  1  0  0  0
M  END
>  <CHROM.1>
-153.76393856,82.12468373,59.93233456,72.08178121,-170.32949163,-68.15178742
-3.17827184,29.40418137,65.86739432,3.00265673,-0.00635905,-1.39242405

>  <Name>
ligand

>  <RI>
0

>  <Rbt.Current_Directory>
/home/itssahil/PROJECTS/Mol_Feturizer/Test_systems_manuscript/rnas/2g5k

>  <Rbt.Executable>
rbdock ($Id: //depot/dev/client3/rdock/2013.1/src/exe/rbdock.cxx#4 $)

>  <Rbt.Library>
libRbt.so (2013.1, Build901 2013/11/27)

>  <Rbt.Parameter_File>
/export/apps/rDock/src/rDock_2013.1_src/data/scripts/dock_solv.prm

>  <Rbt.Receptor>
prm/pocket_docking_5.prm

>  <SCORE>
-8.90212

>  <SCORE.INTER>
-6.33303

>  <SCORE.INTER.CONST>
1

>  <SCORE.INTER.POLAR>
0

>  <SCORE.INTER.ROT>
6

>  <SCORE.INTER.SOLV>
15.1799

>  <SCORE.INTER.VDW>
-16.882

>  <SCORE.INTER.norm>
-0.171163

>  <SCORE.INTRA>
-2.56909

>  <SCORE.INTRA.DIHEDRAL>
-6.72864

>  <SCORE.INTRA.DIHEDRAL.0>
11.3972

>  <SCORE.INTRA.POLAR>
0

>  <SCORE.INTRA.POLAR.0>
0

>  <SCORE.INTRA.REPUL>
0

>  <SCORE.INTRA.REPUL.0>
0

>  <SCORE.INTRA.SOLV>
0.661222

>  <SCORE.INTRA.SOLV.lig_0>
-92.3891

>  <SCORE.INTRA.VDW>
0.464615

>  <SCORE.INTRA.VDW.0>
-2.90606

>  <SCORE.INTRA.norm>
-0.069435

>  <SCORE.RESTR>
0

>  <SCORE.RESTR.CAVITY>
0

>  <SCORE.RESTR.norm>
0

>  <SCORE.SYSTEM>
0

>  <SCORE.SYSTEM.CONST>
0

>  <SCORE.SYSTEM.DIHEDRAL>
0

>  <SCORE.SYSTEM.SOLV>
0

>  <SCORE.SYSTEM.norm>
0

>  <SCORE.heavy>
37

>  <SCORE.norm>
-0.240598

>  <RMSD>
9.821

$$$$
ligand
 OpenBabel02271912133D
libRbt.so/2013.1/901 2013/11/27
 37 40  0  0  0  0  0  0  0  0999 V2000
   -6.9065   31.5722   65.4389 C   0  0  1  0  0  0  0  0  0  0  0  0
   -5.6586   32.3044   64.8685 C   0  0  1  0  0  0  0  0  0  0  0  0
   -4.6983   31.3355   64.1527 C   0  0  0  0  0  0  0  0  0  0  0  0
   -4.2781   30.2113   65.1501 C   0  0  1  0  0  0  0  0  0  0  0  0
   -5.5344   29.4460   65.6789 C   0  0  1  0  0  0  0  0  0  0  0  0
   -5.0822   28.3043   66.6971 C   0  0  1  0  0  0  0  0  0  0  0  0
   -4.1205   27.3246   65.9629 C   0  0  1  0  0  0  0  0  0  0  0  0
   -2.9077   28.1445   65.4285 C   0  0  2  0  0  0  0  0  0  0  0  0
   -4.6184   25.1483   67.2768 C   0  0  0  0  0  0  0  0  0  0  0  0
   -6.0659   33.3949   63.9574 N   0  0  0  0  0  0  0  0  0  0  0  0
   -3.6581   26.2344   66.9012 N   0  0  0  0  0  0  0  0  0  0  0  0
   -7.7815   31.0832   64.4038 O   0  0  0  0  0  0  0  0  0  0  0  0
   -6.4415   30.4553   66.3024 O   0  0  0  0  0  0  0  0  0  0  0  0
   -3.3393   29.2211   64.5274 O   0  0  0  0  0  0  0  0  0  0  0  0
   -4.3791   28.8850   67.7878 O   0  0  0  0  0  0  0  0  0  0  0  0
   -2.0094   27.2891   64.7312 O   0  0  0  0  0  0  0  0  0  0  0  0
   -0.7562   27.9201   64.3702 C   0  0  2  0  0  0  0  0  0  0  0  0
    0.0800   27.0736   63.3813 C   0  0  1  0  0  0  0  0  0  0  0  0
    0.5687   25.7512   64.0556 C   0  0  2  0  0  0  0  0  0  0  0  0
    1.4263   26.0982   65.2557 C   0  0  1  0  0  0  0  0  0  0  0  0
    0.5734   26.9263   66.2629 C   0  0  1  0  0  0  0  0  0  0  0  0
    1.3757   27.3367   67.4963 C   0  0  0  0  0  0  0  0  0  0  0  0
    1.9124   24.8482   65.8882 N   0  0  0  0  0  0  0  0  0  0  0  0
    0.0692   28.1633   65.5909 O   0  0  0  0  0  0  0  0  0  0  0  0
   -0.7437   26.8279   62.2198 O   0  0  0  0  0  0  0  0  0  0  0  0
    1.3510   24.9942   63.1293 O   0  0  0  0  0  0  0  0  0  0  0  0
    0.5350   28.0249   68.3902 O   0  0  0  0  0  0  0  0  0  0  0  0
   -9.0590   30.3235   64.6885 C   0  0  1  0  0  0  0  0  0  0  0  0
   -8.6810   28.9233   65.2446 C   0  0  1  0  0  0  0  0  0  0  0  0
   -9.9693   28.1048   65.5483 C   0  0  2  0  0  0  0  0  0  0  0  0
  -10.8169   28.8629   66.5995 C   0  0  1  0  0  0  0  0  0  0  0  0
  -11.2212   30.2813   66.0592 C   0  0  0  0  0  0  0  0  0  0  0  0
   -9.9292   31.0673   65.7502 C   0  0  2  0  0  0  0  0  0  0  0  0
  -12.0444   28.0884   66.9022 N   0  0  0  0  0  0  0  0  0  0  0  0
  -10.3153   32.3894   65.2452 N   0  0  0  0  0  0  0  0  0  0  0  0
   -7.8883   28.2153   64.2660 O   0  0  0  0  0  0  0  0  0  0  0  0
   -9.5903   26.8067   66.0574 O   0  0  0  0  0  0  0  0  0  0  0  0
  1  2  1  0  0  0  0
  1 12  1  6  0  0  0
  1 13  1  0  0  0  0
  2  3  1  0  0  0  0
  2 10  1  6  0  0  0
  4  3  1  6  0  0  0
  4  5  1  0  0  0  0
  4 14  1  0  0  0  0
  5  6  1  0  0  0  0
  5 13  1  1  0  0  0
  6  7  1  0  0  0  0
  6 15  1  1  0  0  0
  7  8  1  0  0  0  0
  7 11  1  1  0  0  0
  8 14  1  0  0  0  0
  8 16  1  6  0  0  0
  9 11  1  0  0  0  0
 17 16  1  1  0  0  0
 17 18  1  0  0  0  0
 17 24  1  0  0  0  0
 18 19  1  0  0  0  0
 18 25  1  6  0  0  0
 19 20  1  0  0  0  0
 19 26  1  6  0  0  0
 20 21  1  0  0  0  0
 20 23  1  1  0  0  0
 21 22  1  1  0  0  0
 21 24  1  0  0  0  0
 22 27  1  0  0  0  0
 28 12  1  1  0  0  0
 28 29  1  0  0  0  0
 28 33  1  0  0  0  0
 29 30  1  0  0  0  0
 29 36  1  6  0  0  0
 30 31  1  0  0  0  0
 30 37  1  1  0  0  0
 31 32  1  0  0  0  0
 31 34  1  6  0  0  0
 32 33  1  0  0  0  0
 33 35  1  6  0  0  0
M  END
>  <CHROM.1>
179.40625381,73.93390149,-171.27659388,-70.02451273,-168.63249053,-177.30046095
-4.56600326,28.54982065,65.44869072,-2.83969164,-0.15546704,2.79124304

>  <Name>
ligand

>  <RI>
0

>  <Rbt.Current_Directory>
/home/itssahil/PROJECTS/Mol_Feturizer/Test_systems_manuscript/rnas/2g5k

>  <Rbt.Executable>
rbdock ($Id: //depot/dev/client3/rdock/2013.1/src/exe/rbdock.cxx#4 $)

>  <Rbt.Library>
libRbt.so (2013.1, Build901 2013/11/27)

>  <Rbt.Parameter_File>
/export/apps/rDock/src/rDock_2013.1_src/data/scripts/dock_solv.prm

>  <Rbt.Receptor>
prm/pocket_docking_3.prm

>  <SCORE>
-8.01207

>  <SCORE.INTER>
-2.35463

>  <SCORE.INTER.CONST>
1

>  <SCORE.INTER.POLAR>
0

>  <SCORE.INTER.ROT>
6

>  <SCORE.INTER.SOLV>
11.7505

>  <SCORE.INTER.VDW>
-13.0866

>  <SCORE.INTER.norm>
-0.0636386

>  <SCORE.INTRA>
-5.65745

>  <SCORE.INTRA.DIHEDRAL>
-9.70779

>  <SCORE.INTRA.DIHEDRAL.0>
11.3972

>  <SCORE.INTRA.POLAR>
0

>  <SCORE.INTRA.POLAR.0>
0

>  <SCORE.INTRA.REPUL>
0

>  <SCORE.INTRA.REPUL.0>
0

>  <SCORE.INTRA.SOLV>
-0.982265

>  <SCORE.INTRA.SOLV.lig_0>
-92.3891

>  <SCORE.INTRA.VDW>
-0.31242

>  <SCORE.INTRA.VDW.0>
-2.90606

>  <SCORE.INTRA.norm>
-0.152904

>  <SCORE.RESTR>
0

>  <SCORE.RESTR.CAVITY>
0

>  <SCORE.RESTR.norm>
0

>  <SCORE.SYSTEM>
0

>  <SCORE.SYSTEM.CONST>
0

>  <SCORE.SYSTEM.DIHEDRAL>
0

>  <SCORE.SYSTEM.SOLV>
0

>  <SCORE.SYSTEM.norm>
0

>  <SCORE.heavy>
37

>  <SCORE.norm>
-0.216543

>  <RMSD>
9.826

$$$$
ligand
 OpenBabel02271912133D
libRbt.so/2013.1/901 2013/11/27
 37 40  0  0  0  0  0  0  0  0999 V2000
   -9.9841   26.1620   65.4190 C   0  0  1  0  0  0  0  0  0  0  0  0
   -9.8955   26.2588   66.9686 C   0  0  1  0  0  0  0  0  0  0  0  0
   -8.8499   27.2949   67.4231 C   0  0  0  0  0  0  0  0  0  0  0  0
   -7.4659   26.9197   66.8075 C   0  0  1  0  0  0  0  0  0  0  0  0
   -7.5505   26.8754   65.2472 C   0  0  1  0  0  0  0  0  0  0  0  0
   -6.1270   26.4886   64.6400 C   0  0  1  0  0  0  0  0  0  0  0  0
   -5.0791   27.5458   65.0958 C   0  0  1  0  0  0  0  0  0  0  0  0
   -5.0620   27.5716   66.6539 C   0  0  2  0  0  0  0  0  0  0  0  0
   -3.2404   27.8853   63.3028 C   0  0  0  0  0  0  0  0  0  0  0  0
  -11.2190   26.5730   67.5473 N   0  0  0  0  0  0  0  0  0  0  0  0
   -3.7118   27.2046   64.5509 N   0  0  0  0  0  0  0  0  0  0  0  0
  -10.5423   27.3487   64.8220 O   0  0  0  0  0  0  0  0  0  0  0  0
   -8.6215   25.8993   64.8864 O   0  0  0  0  0  0  0  0  0  0  0  0
   -6.3879   27.8847   67.2029 O   0  0  0  0  0  0  0  0  0  0  0  0
   -5.7232   25.2186   65.1354 O   0  0  0  0  0  0  0  0  0  0  0  0
   -4.1286   28.5414   67.1158 O   0  0  0  0  0  0  0  0  0  0  0  0
   -4.0038   28.5982   68.5581 C   0  0  2  0  0  0  0  0  0  0  0  0
   -3.0374   29.7084   69.0345 C   0  0  1  0  0  0  0  0  0  0  0  0
   -1.5702   29.3945   68.5972 C   0  0  2  0  0  0  0  0  0  0  0  0
   -1.1457   28.0749   69.2090 C   0  0  1  0  0  0  0  0  0  0  0  0
   -2.1032   26.9537   68.7052 C   0  0  1  0  0  0  0  0  0  0  0  0
   -1.7547   25.5892   69.2967 C   0  0  0  0  0  0  0  0  0  0  0  0
    0.2538   27.7807   68.8168 N   0  0  0  0  0  0  0  0  0  0  0  0
   -3.5097   27.2909   69.0848 O   0  0  0  0  0  0  0  0  0  0  0  0
   -3.5175   30.9597   68.4943 O   0  0  0  0  0  0  0  0  0  0  0  0
   -0.6943   30.4244   69.0614 O   0  0  0  0  0  0  0  0  0  0  0  0
   -0.5819   25.1046   68.6890 O   0  0  0  0  0  0  0  0  0  0  0  0
  -10.7247   27.5188   63.3294 C   0  0  1  0  0  0  0  0  0  0  0  0
  -11.7857   26.4921   62.8468 C   0  0  1  0  0  0  0  0  0  0  0  0
  -12.0018   26.6303   61.3119 C   0  0  2  0  0  0  0  0  0  0  0  0
  -12.4937   28.0642   60.9952 C   0  0  1  0  0  0  0  0  0  0  0  0
  -11.4344   29.1244   61.4655 C   0  0  0  0  0  0  0  0  0  0  0  0
  -11.2251   28.9572   62.9856 C   0  0  2  0  0  0  0  0  0  0  0  0
  -12.7100   28.2056   59.5352 N   0  0  0  0  0  0  0  0  0  0  0  0
  -10.2341   29.9494   63.4163 N   0  0  0  0  0  0  0  0  0  0  0  0
  -11.3294   25.1537   63.1434 O   0  0  0  0  0  0  0  0  0  0  0  0
  -12.9869   25.6617   60.8885 O   0  0  0  0  0  0  0  0  0  0  0  0
  1  2  1  0  0  0  0
  1 12  1  6  0  0  0
  1 13  1  0  0  0  0
  2  3  1  0  0  0  0
  2 10  1  6  0  0  0
  4  3  1  1  0  0  0
  4  5  1  0  0  0  0
  4 14  1  0  0  0  0
  5  6  1  0  0  0  0
  5 13  1  1  0  0  0
  6  7  1  0  0  0  0
  6 15  1  1  0  0  0
  7  8  1  0  0  0  0
  7 11  1  1  0  0  0
  8 14  1  0  0  0  0
  8 16  1  6  0  0  0
  9 11  1  0  0  0  0
 17 16  1  6  0  0  0
 17 18  1  0  0  0  0
 17 24  1  0  0  0  0
 18 19  1  0  0  0  0
 18 25  1  6  0  0  0
 19 20  1  0  0  0  0
 19 26  1  1  0  0  0
 20 21  1  0  0  0  0
 20 23  1  6  0  0  0
 21 22  1  1  0  0  0
 21 24  1  0  0  0  0
 22 27  1  0  0  0  0
 28 12  1  1  0  0  0
 28 29  1  0  0  0  0
 28 33  1  0  0  0  0
 29 30  1  0  0  0  0
 29 36  1  6  0  0  0
 30 31  1  0  0  0  0
 30 37  1  1  0  0  0
 31 32  1  0  0  0  0
 31 34  1  6  0  0  0
 32 33  1  0  0  0  0
 33 35  1  6  0  0  0
M  END
>  <CHROM.1>
179.34795139,97.52839676,-177.59427211,65.97842600,-177.08594995,-73.41162226
-6.77214891,27.48284720,65.70193588,2.79864958,-0.45365071,-0.82132677

>  <Name>
ligand

>  <RI>
0

>  <Rbt.Current_Directory>
/home/itssahil/PROJECTS/Mol_Feturizer/Test_systems_manuscript/rnas/2g5k

>  <Rbt.Executable>
rbdock ($Id: //depot/dev/client3/rdock/2013.1/src/exe/rbdock.cxx#4 $)

>  <Rbt.Library>
libRbt.so (2013.1, Build901 2013/11/27)

>  <Rbt.Parameter_File>
/export/apps/rDock/src/rDock_2013.1_src/data/scripts/dock_solv.prm

>  <Rbt.Receptor>
prm/pocket_docking_8.prm

>  <SCORE>
-14.6666

>  <SCORE.INTER>
-9.72841

>  <SCORE.INTER.CONST>
1

>  <SCORE.INTER.POLAR>
0

>  <SCORE.INTER.ROT>
6

>  <SCORE.INTER.SOLV>
14.9154

>  <SCORE.INTER.VDW>
-19.0574

>  <SCORE.INTER.norm>
-0.26293

>  <SCORE.INTRA>
-4.93817

>  <SCORE.INTRA.DIHEDRAL>
-9.66207

>  <SCORE.INTRA.DIHEDRAL.0>
11.3972

>  <SCORE.INTRA.POLAR>
0

>  <SCORE.INTRA.POLAR.0>
0

>  <SCORE.INTRA.REPUL>
0

>  <SCORE.INTRA.REPUL.0>
0

>  <SCORE.INTRA.SOLV>
-0.997874

>  <SCORE.INTRA.SOLV.lig_0>
-92.3891

>  <SCORE.INTRA.VDW>
0.391802

>  <SCORE.INTRA.VDW.0>
-2.90606

>  <SCORE.INTRA.norm>
-0.133464

>  <SCORE.RESTR>
0

>  <SCORE.RESTR.CAVITY>
0

>  <SCORE.RESTR.norm>
0

>  <SCORE.SYSTEM>
0

>  <SCORE.SYSTEM.CONST>
0

>  <SCORE.SYSTEM.DIHEDRAL>
0

>  <SCORE.SYSTEM.SOLV>
0

>  <SCORE.SYSTEM.norm>
0

>  <SCORE.heavy>
37

>  <SCORE.norm>
-0.396394

>  <RMSD>
9.828

$$$$
ligand
 OpenBabel02271912133D
libRbt.so/2013.1/901 2013/11/27
 37 40  0  0  0  0  0  0  0  0999 V2000
   -7.5641   24.7948   64.4595 C   0  0  1  0  0  0  0  0  0  0  0  0
   -6.8365   23.8152   65.4236 C   0  0  1  0  0  0  0  0  0  0  0  0
   -6.1112   24.5582   66.5617 C   0  0  0  0  0  0  0  0  0  0  0  0
   -5.1070   25.5782   65.9401 C   0  0  1  0  0  0  0  0  0  0  0  0
   -5.8537   26.5916   65.0133 C   0  0  1  0  0  0  0  0  0  0  0  0
   -4.8090   27.6222   64.3879 C   0  0  1  0  0  0  0  0  0  0  0  0
   -4.0883   28.3753   65.5443 C   0  0  1  0  0  0  0  0  0  0  0  0
   -3.3926   27.3174   66.4529 C   0  0  2  0  0  0  0  0  0  0  0  0
   -3.5503   30.6972   64.5293 C   0  0  0  0  0  0  0  0  0  0  0  0
   -7.7863   22.8262   65.9756 N   0  0  0  0  0  0  0  0  0  0  0  0
   -3.0780   29.3528   64.9904 N   0  0  0  0  0  0  0  0  0  0  0  0
   -8.6894   25.4470   65.0799 O   0  0  0  0  0  0  0  0  0  0  0  0
   -6.5785   25.7973   63.9770 O   0  0  0  0  0  0  0  0  0  0  0  0
   -4.3572   26.3471   66.9871 O   0  0  0  0  0  0  0  0  0  0  0  0
   -3.8294   26.9164   63.6372 O   0  0  0  0  0  0  0  0  0  0  0  0
   -2.7353   27.9625   67.5377 O   0  0  0  0  0  0  0  0  0  0  0  0
   -2.0611   27.0532   68.4421 C   0  0  2  0  0  0  0  0  0  0  0  0
   -1.2955   27.7849   69.5699 C   0  0  1  0  0  0  0  0  0  0  0  0
   -0.0993   28.6059   68.9889 C   0  0  2  0  0  0  0  0  0  0  0  0
    0.8497   27.6598   68.2816 C   0  0  1  0  0  0  0  0  0  0  0  0
    0.0837   26.9453   67.1282 C   0  0  1  0  0  0  0  0  0  0  0  0
    0.9688   25.9531   66.3764 C   0  0  0  0  0  0  0  0  0  0  0  0
    1.9993   28.4285   67.7465 N   0  0  0  0  0  0  0  0  0  0  0  0
   -1.0880   26.2056   67.6905 O   0  0  0  0  0  0  0  0  0  0  0  0
   -2.2478   28.6179   70.2681 O   0  0  0  0  0  0  0  0  0  0  0  0
    0.6015   29.2596   70.0494 O   0  0  0  0  0  0  0  0  0  0  0  0
    1.3878   24.9414   67.2598 O   0  0  0  0  0  0  0  0  0  0  0  0
   -9.9291   24.7076   65.5341 C   0  0  1  0  0  0  0  0  0  0  0  0
  -10.8743   25.7225   66.2338 C   0  0  1  0  0  0  0  0  0  0  0  0
  -12.1641   25.0011   66.7215 C   0  0  2  0  0  0  0  0  0  0  0  0
  -12.8900   24.3794   65.5030 C   0  0  1  0  0  0  0  0  0  0  0  0
  -11.9590   23.3411   64.7803 C   0  0  0  0  0  0  0  0  0  0  0  0
  -10.6813   24.0751   64.3209 C   0  0  2  0  0  0  0  0  0  0  0  0
  -14.1251   23.6949   65.9549 N   0  0  0  0  0  0  0  0  0  0  0  0
   -9.8171   23.0988   63.6486 N   0  0  0  0  0  0  0  0  0  0  0  0
  -10.1978   26.3051   67.3697 O   0  0  0  0  0  0  0  0  0  0  0  0
  -13.0216   25.9644   67.3731 O   0  0  0  0  0  0  0  0  0  0  0  0
  1  2  1  0  0  0  0
  1 12  1  1  0  0  0
  1 13  1  0  0  0  0
  2  3  1  0  0  0  0
  2 10  1  1  0  0  0
  4  3  1  1  0  0  0
  4  5  1  0  0  0  0
  4 14  1  0  0  0  0
  5  6  1  0  0  0  0
  5 13  1  6  0  0  0
  6  7  1  0  0  0  0
  6 15  1  1  0  0  0
  7  8  1  0  0  0  0
  7 11  1  6  0  0  0
  8 14  1  0  0  0  0
  8 16  1  1  0  0  0
  9 11  1  0  0  0  0
 17 16  1  6  0  0  0
 17 18  1  0  0  0  0
 17 24  1  0  0  0  0
 18 19  1  0  0  0  0
 18 25  1  6  0  0  0
 19 20  1  0  0  0  0
 19 26  1  1  0  0  0
 20 21  1  0  0  0  0
 20 23  1  6  0  0  0
 21 22  1  1  0  0  0
 21 24  1  0  0  0  0
 22 27  1  0  0  0  0
 28 12  1  6  0  0  0
 28 29  1  0  0  0  0
 28 33  1  0  0  0  0
 29 30  1  0  0  0  0
 29 36  1  1  0  0  0
 30 31  1  0  0  0  0
 30 37  1  6  0  0  0
 31 32  1  0  0  0  0
 31 34  1  1  0  0  0
 32 33  1  0  0  0  0
 33 35  1  1  0  0  0
M  END
>  <CHROM.1>
-65.47759311,82.33274373,179.81447110,176.32097540,177.06405662,62.30236081
-5.38440337,26.29121098,66.39549891,-2.82861120,0.15050413,1.04718275

>  <Name>
ligand

>  <RI>
0

>  <Rbt.Current_Directory>
/home/itssahil/PROJECTS/Mol_Feturizer/Test_systems_manuscript/rnas/2g5k

>  <Rbt.Executable>
rbdock ($Id: //depot/dev/client3/rdock/2013.1/src/exe/rbdock.cxx#4 $)

>  <Rbt.Library>
libRbt.so (2013.1, Build901 2013/11/27)

>  <Rbt.Parameter_File>
/export/apps/rDock/src/rDock_2013.1_src/data/scripts/dock_solv.prm

>  <Rbt.Receptor>
prm/pocket_docking_7.prm

>  <SCORE>
-12.279

>  <SCORE.INTER>
-9.04603

>  <SCORE.INTER.CONST>
1

>  <SCORE.INTER.POLAR>
0

>  <SCORE.INTER.ROT>
6

>  <SCORE.INTER.SOLV>
15.706

>  <SCORE.INTER.VDW>
-18.866

>  <SCORE.INTER.norm>
-0.244487

>  <SCORE.INTRA>
-3.2345

>  <SCORE.INTRA.DIHEDRAL>
-10.7176

>  <SCORE.INTRA.DIHEDRAL.0>
11.3972

>  <SCORE.INTRA.POLAR>
0

>  <SCORE.INTRA.POLAR.0>
0

>  <SCORE.INTRA.REPUL>
0

>  <SCORE.INTRA.REPUL.0>
0

>  <SCORE.INTRA.SOLV>
3.35887

>  <SCORE.INTRA.SOLV.lig_0>
-92.3891

>  <SCORE.INTRA.VDW>
0.444871

>  <SCORE.INTRA.VDW.0>
-2.90606

>  <SCORE.INTRA.norm>
-0.087419

>  <SCORE.RESTR>
0.00151724

>  <SCORE.RESTR.CAVITY>
0.00151724

>  <SCORE.RESTR.norm>
4.10065e-05

>  <SCORE.SYSTEM>
0

>  <SCORE.SYSTEM.CONST>
0

>  <SCORE.SYSTEM.DIHEDRAL>
0

>  <SCORE.SYSTEM.SOLV>
0

>  <SCORE.SYSTEM.norm>
0

>  <SCORE.heavy>
37

>  <SCORE.norm>
-0.331865

>  <RMSD>
9.841

$$$$
ligand
 OpenBabel02271912133D
libRbt.so/2013.1/901 2013/11/27
 37 40  0  0  0  0  0  0  0  0999 V2000
   -7.8841   24.1041   65.8376 C   0  0  1  0  0  0  0  0  0  0  0  0
   -6.9801   23.2167   66.7398 C   0  0  1  0  0  0  0  0  0  0  0  0
   -6.1933   24.0521   67.7676 C   0  0  0  0  0  0  0  0  0  0  0  0
   -5.3465   25.1206   67.0084 C   0  0  1  0  0  0  0  0  0  0  0  0
   -6.2678   26.0416   66.1444 C   0  0  1  0  0  0  0  0  0  0  0  0
   -5.3821   27.1237   65.3766 C   0  0  1  0  0  0  0  0  0  0  0  0
   -4.5986   27.9695   66.4227 C   0  0  1  0  0  0  0  0  0  0  0  0
   -3.7264   26.9997   67.2756 C   0  0  2  0  0  0  0  0  0  0  0  0
   -4.3883   30.2053   65.1314 C   0  0  0  0  0  0  0  0  0  0  0  0
   -7.7832   22.1805   67.4229 N   0  0  0  0  0  0  0  0  0  0  0  0
   -3.7349   28.9985   65.7313 N   0  0  0  0  0  0  0  0  0  0  0  0
   -8.9810   24.6930   66.5630 O   0  0  0  0  0  0  0  0  0  0  0  0
   -7.0389   25.1588   65.2191 O   0  0  0  0  0  0  0  0  0  0  0  0
   -4.5475   25.9805   67.9422 O   0  0  0  0  0  0  0  0  0  0  0  0
   -4.4398   26.4658   64.5397 O   0  0  0  0  0  0  0  0  0  0  0  0
   -3.0052   27.7306   68.2609 O   0  0  0  0  0  0  0  0  0  0  0  0
   -2.1432   26.9110   69.0882 C   0  0  2  0  0  0  0  0  0  0  0  0
   -1.2702   27.7440   70.0564 C   0  0  1  0  0  0  0  0  0  0  0  0
   -0.2329   28.6071   69.2681 C   0  0  2  0  0  0  0  0  0  0  0  0
    0.6628   27.6872   68.4634 C   0  0  1  0  0  0  0  0  0  0  0  0
   -0.2156   26.8701   67.4693 C   0  0  1  0  0  0  0  0  0  0  0  0
    0.6136   25.8980   66.6322 C   0  0  0  0  0  0  0  0  0  0  0  0
    1.6645   28.4976   67.7295 N   0  0  0  0  0  0  0  0  0  0  0  0
   -1.2370   26.0885   68.2321 O   0  0  0  0  0  0  0  0  0  0  0  0
   -2.1627   28.5504   70.8571 O   0  0  0  0  0  0  0  0  0  0  0  0
    0.5715   29.3550   70.1827 O   0  0  0  0  0  0  0  0  0  0  0  0
   -0.2323   25.2129   65.7408 O   0  0  0  0  0  0  0  0  0  0  0  0
  -10.0905   25.4766   65.8959 C   0  0  1  0  0  0  0  0  0  0  0  0
  -10.9116   24.5017   65.0082 C   0  0  1  0  0  0  0  0  0  0  0  0
  -12.0643   25.2694   64.2984 C   0  0  2  0  0  0  0  0  0  0  0  0
  -12.9927   25.8947   65.3687 C   0  0  1  0  0  0  0  0  0  0  0  0
  -12.1891   26.8933   66.2766 C   0  0  0  0  0  0  0  0  0  0  0  0
  -11.0432   26.1137   66.9562 C   0  0  2  0  0  0  0  0  0  0  0  0
  -14.0995   26.6234   64.7036 N   0  0  0  0  0  0  0  0  0  0  0  0
  -10.2973   27.0530   67.8008 N   0  0  0  0  0  0  0  0  0  0  0  0
  -10.0466   23.9156   64.0105 O   0  0  0  0  0  0  0  0  0  0  0  0
  -12.8073   24.3425   63.4758 O   0  0  0  0  0  0  0  0  0  0  0  0
  1  2  1  0  0  0  0
  1 12  1  1  0  0  0
  1 13  1  0  0  0  0
  2  3  1  0  0  0  0
  2 10  1  1  0  0  0
  4  3  1  1  0  0  0
  4  5  1  0  0  0  0
  4 14  1  0  0  0  0
  5  6  1  0  0  0  0
  5 13  1  6  0  0  0
  6  7  1  0  0  0  0
  6 15  1  6  0  0  0
  7  8  1  0  0  0  0
  7 11  1  6  0  0  0
  8 14  1  0  0  0  0
  8 16  1  1  0  0  0
  9 11  1  0  0  0  0
 17 16  1  6  0  0  0
 17 18  1  0  0  0  0
 17 24  1  0  0  0  0
 18 19  1  0  0  0  0
 18 25  1  6  0  0  0
 19 20  1  0  0  0  0
 19 26  1  1  0  0  0
 20 21  1  0  0  0  0
 20 23  1  6  0  0  0
 21 22  1  1  0  0  0
 21 24  1  0  0  0  0
 22 27  1  0  0  0  0
 28 12  1  1  0  0  0
 28 29  1  0  0  0  0
 28 33  1  0  0  0  0
 29 30  1  0  0  0  0
 29 36  1  6  0  0  0
 30 31  1  0  0  0  0
 30 37  1  1  0  0  0
 31 32  1  0  0  0  0
 31 34  1  6  0  0  0
 32 33  1  0  0  0  0
 33 35  1  1  0  0  0
M  END
>  <CHROM.1>
-173.23623081,74.44831973,-178.85680781,66.70359178,174.42174562,-178.87009142
-5.65525532,26.31536924,66.77680327,-2.84088197,-0.17608976,0.37045341

>  <Name>
ligand

>  <RI>
0

>  <Rbt.Current_Directory>
/home/itssahil/PROJECTS/Mol_Feturizer/Test_systems_manuscript/rnas/2g5k

>  <Rbt.Executable>
rbdock ($Id: //depot/dev/client3/rdock/2013.1/src/exe/rbdock.cxx#4 $)

>  <Rbt.Library>
libRbt.so (2013.1, Build901 2013/11/27)

>  <Rbt.Parameter_File>
/export/apps/rDock/src/rDock_2013.1_src/data/scripts/dock_solv.prm

>  <Rbt.Receptor>
prm/pocket_docking_6.prm

>  <SCORE>
-13.3289

>  <SCORE.INTER>
-7.72313

>  <SCORE.INTER.CONST>
1

>  <SCORE.INTER.POLAR>
0

>  <SCORE.INTER.ROT>
6

>  <SCORE.INTER.SOLV>
12.6963

>  <SCORE.INTER.VDW>
-16.9809

>  <SCORE.INTER.norm>
-0.208733

>  <SCORE.INTRA>
-5.60581

>  <SCORE.INTRA.DIHEDRAL>
-10.5893

>  <SCORE.INTRA.DIHEDRAL.0>
11.3972

>  <SCORE.INTRA.POLAR>
0

>  <SCORE.INTRA.POLAR.0>
0

>  <SCORE.INTRA.REPUL>
0

>  <SCORE.INTRA.REPUL.0>
0

>  <SCORE.INTRA.SOLV>
-1.85554

>  <SCORE.INTRA.SOLV.lig_0>
-92.3891

>  <SCORE.INTRA.VDW>
0.616591

>  <SCORE.INTRA.VDW.0>
-2.90606

>  <SCORE.INTRA.norm>
-0.151508

>  <SCORE.RESTR>
0

>  <SCORE.RESTR.CAVITY>
0

>  <SCORE.RESTR.norm>
0

>  <SCORE.SYSTEM>
0

>  <SCORE.SYSTEM.CONST>
0

>  <SCORE.SYSTEM.DIHEDRAL>
0

>  <SCORE.SYSTEM.SOLV>
0

>  <SCORE.SYSTEM.norm>
0

>  <SCORE.heavy>
37

>  <SCORE.norm>
-0.360242

>  <RMSD>
9.842

$$$$
ligand
 OpenBabel02271912133D
libRbt.so/2013.1/901 2013/11/27
 37 40  0  0  0  0  0  0  0  0999 V2000
   -7.8358   30.3764   66.1572 C   0  0  1  0  0  0  0  0  0  0  0  0
   -7.2046   31.5800   65.4011 C   0  0  1  0  0  0  0  0  0  0  0  0
   -5.8495   31.2154   64.7655 C   0  0  0  0  0  0  0  0  0  0  0  0
   -4.8918   30.6935   65.8816 C   0  0  1  0  0  0  0  0  0  0  0  0
   -5.5104   29.4517   66.6021 C   0  0  1  0  0  0  0  0  0  0  0  0
   -4.5168   28.9366   67.7389 C   0  0  1  0  0  0  0  0  0  0  0  0
   -3.1540   28.5612   67.0866 C   0  0  1  0  0  0  0  0  0  0  0  0
   -2.6020   29.8222   66.3559 C   0  0  2  0  0  0  0  0  0  0  0  0
   -2.4359   26.7718   68.8166 C   0  0  0  0  0  0  0  0  0  0  0  0
   -8.1346   32.0954   64.3742 N   0  0  0  0  0  0  0  0  0  0  0  0
   -2.1792   28.0812   68.1365 N   0  0  0  0  0  0  0  0  0  0  0  0
   -8.2596   29.3254   65.2673 O   0  0  0  0  0  0  0  0  0  0  0  0
   -6.8422   29.8643   67.1369 O   0  0  0  0  0  0  0  0  0  0  0  0
   -3.5445   30.3143   65.3425 O   0  0  0  0  0  0  0  0  0  0  0  0
   -4.2880   29.9750   68.6826 O   0  0  0  0  0  0  0  0  0  0  0  0
   -1.3624   29.5182   65.7267 O   0  0  0  0  0  0  0  0  0  0  0  0
   -0.6835   30.6731   65.1749 C   0  0  2  0  0  0  0  0  0  0  0  0
    0.6563   30.3125   64.4904 C   0  0  1  0  0  0  0  0  0  0  0  0
    1.6960   29.7988   65.5380 C   0  0  2  0  0  0  0  0  0  0  0  0
    1.9426   30.8882   66.5620 C   0  0  1  0  0  0  0  0  0  0  0  0
    0.5971   31.2294   67.2698 C   0  0  1  0  0  0  0  0  0  0  0  0
    0.7566   32.3402   68.3062 C   0  0  0  0  0  0  0  0  0  0  0  0
    2.9453   30.4165   67.5473 N   0  0  0  0  0  0  0  0  0  0  0  0
   -0.4048   31.6704   66.2511 O   0  0  0  0  0  0  0  0  0  0  0  0
    0.3694   29.3292   63.4712 O   0  0  0  0  0  0  0  0  0  0  0  0
    2.9291   29.4872   64.8858 O   0  0  0  0  0  0  0  0  0  0  0  0
    1.0511   33.5496   67.6504 O   0  0  0  0  0  0  0  0  0  0  0  0
   -8.9518   28.0661   65.7419 C   0  0  1  0  0  0  0  0  0  0  0  0
  -10.3989   28.4355   66.1688 C   0  0  1  0  0  0  0  0  0  0  0  0
  -11.1476   27.1661   66.6688 C   0  0  2  0  0  0  0  0  0  0  0  0
  -11.2002   26.1237   65.5248 C   0  0  1  0  0  0  0  0  0  0  0  0
   -9.7480   25.7248   65.0784 C   0  0  0  0  0  0  0  0  0  0  0  0
   -9.0208   27.0005   64.6028 C   0  0  2  0  0  0  0  0  0  0  0  0
  -11.9181   24.9118   65.9877 N   0  0  0  0  0  0  0  0  0  0  0  0
   -7.6658   26.6199   64.1892 N   0  0  0  0  0  0  0  0  0  0  0  0
  -10.3518   29.4097   67.2347 O   0  0  0  0  0  0  0  0  0  0  0  0
  -12.4866   27.5378   67.0650 O   0  0  0  0  0  0  0  0  0  0  0  0
  1  2  1  0  0  0  0
  1 12  1  6  0  0  0
  1 13  1  0  0  0  0
  2  3  1  0  0  0  0
  2 10  1  6  0  0  0
  4  3  1  6  0  0  0
  4  5  1  0  0  0  0
  4 14  1  0  0  0  0
  5  6  1  0  0  0  0
  5 13  1  1  0  0  0
  6  7  1  0  0  0  0
  6 15  1  1  0  0  0
  7  8  1  0  0  0  0
  7 11  1  1  0  0  0
  8 14  1  0  0  0  0
  8 16  1  6  0  0  0
  9 11  1  0  0  0  0
 17 16  1  1  0  0  0
 17 18  1  0  0  0  0
 17 24  1  0  0  0  0
 18 19  1  0  0  0  0
 18 25  1  6  0  0  0
 19 20  1  0  0  0  0
 19 26  1  6  0  0  0
 20 21  1  0  0  0  0
 20 23  1  1  0  0  0
 21 22  1  1  0  0  0
 21 24  1  0  0  0  0
 22 27  1  0  0  0  0
 28 12  1  6  0  0  0
 28 29  1  0  0  0  0
 28 33  1  0  0  0  0
 29 30  1  0  0  0  0
 29 36  1  1  0  0  0
 30 31  1  0  0  0  0
 30 37  1  6  0  0  0
 31 32  1  0  0  0  0
 31 34  1  1  0  0  0
 32 33  1  0  0  0  0
 33 35  1  1  0  0  0
M  END
>  <CHROM.1>
-177.63739719,68.66199978,-172.09410682,72.29682111,-179.66805912,67.88564693
-4.54525342,29.40713951,66.19779052,2.87701982,0.01796583,-3.07333337

>  <Name>
ligand

>  <RI>
0

>  <Rbt.Current_Directory>
/home/itssahil/PROJECTS/Mol_Feturizer/Test_systems_manuscript/rnas/2g5k

>  <Rbt.Executable>
rbdock ($Id: //depot/dev/client3/rdock/2013.1/src/exe/rbdock.cxx#4 $)

>  <Rbt.Library>
libRbt.so (2013.1, Build901 2013/11/27)

>  <Rbt.Parameter_File>
/export/apps/rDock/src/rDock_2013.1_src/data/scripts/dock_solv.prm

>  <Rbt.Receptor>
prm/pocket_docking_6.prm

>  <SCORE>
-7.03648

>  <SCORE.INTER>
-1.88595

>  <SCORE.INTER.CONST>
1

>  <SCORE.INTER.POLAR>
0

>  <SCORE.INTER.ROT>
6

>  <SCORE.INTER.SOLV>
5.16457

>  <SCORE.INTER.VDW>
-10.5788

>  <SCORE.INTER.norm>
-0.0509715

>  <SCORE.INTRA>
-5.15054

>  <SCORE.INTRA.DIHEDRAL>
-10.0233

>  <SCORE.INTRA.DIHEDRAL.0>
11.3972

>  <SCORE.INTRA.POLAR>
0

>  <SCORE.INTRA.POLAR.0>
0

>  <SCORE.INTRA.REPUL>
0

>  <SCORE.INTRA.REPUL.0>
0

>  <SCORE.INTRA.SOLV>
-1.16495

>  <SCORE.INTRA.SOLV.lig_0>
-92.3891

>  <SCORE.INTRA.VDW>
0.443605

>  <SCORE.INTRA.VDW.0>
-2.90606

>  <SCORE.INTRA.norm>
-0.139204

>  <SCORE.RESTR>
0

>  <SCORE.RESTR.CAVITY>
0

>  <SCORE.RESTR.norm>
0

>  <SCORE.SYSTEM>
0

>  <SCORE.SYSTEM.CONST>
0

>  <SCORE.SYSTEM.DIHEDRAL>
0

>  <SCORE.SYSTEM.SOLV>
0

>  <SCORE.SYSTEM.norm>
0

>  <SCORE.heavy>
37

>  <SCORE.norm>
-0.190175

>  <RMSD>
9.843

$$$$
ligand
 OpenBabel02271912133D
libRbt.so/2013.1/901 2013/11/27
 37 40  0  0  0  0  0  0  0  0999 V2000
   -2.5175   32.4950   68.7816 C   0  0  1  0  0  0  0  0  0  0  0  0
   -0.9956   32.7547   68.9685 C   0  0  1  0  0  0  0  0  0  0  0  0
   -0.1375   31.6822   68.2708 C   0  0  0  0  0  0  0  0  0  0  0  0
   -0.5359   30.2781   68.8231 C   0  0  1  0  0  0  0  0  0  0  0  0
   -2.0562   30.0032   68.5847 C   0  0  1  0  0  0  0  0  0  0  0  0
   -2.4413   28.5653   69.1580 C   0  0  1  0  0  0  0  0  0  0  0  0
   -1.5770   27.4873   68.4406 C   0  0  1  0  0  0  0  0  0  0  0  0
   -0.0759   27.8295   68.6820 C   0  0  2  0  0  0  0  0  0  0  0  0
   -2.0262   24.9745   67.9994 C   0  0  0  0  0  0  0  0  0  0  0  0
   -0.6336   34.1027   68.4817 N   0  0  0  0  0  0  0  0  0  0  0  0
   -1.9038   26.1098   68.9685 N   0  0  0  0  0  0  0  0  0  0  0  0
   -2.9479   32.6873   67.4200 O   0  0  0  0  0  0  0  0  0  0  0  0
   -2.8169   31.1116   69.2351 O   0  0  0  0  0  0  0  0  0  0  0  0
    0.2570   29.1730   68.1908 O   0  0  0  0  0  0  0  0  0  0  0  0
   -2.1559   28.5115   70.5497 O   0  0  0  0  0  0  0  0  0  0  0  0
    0.7534   26.8776   68.0255 O   0  0  0  0  0  0  0  0  0  0  0  0
    0.5829   26.8410   66.5871 C   0  0  2  0  0  0  0  0  0  0  0  0
    1.2964   25.6371   65.9277 C   0  0  1  0  0  0  0  0  0  0  0  0
    2.8479   25.7665   66.0641 C   0  0  2  0  0  0  0  0  0  0  0  0
    3.2975   27.0417   65.3801 C   0  0  1  0  0  0  0  0  0  0  0  0
    2.5994   28.2548   66.0647 C   0  0  1  0  0  0  0  0  0  0  0  0
    2.9845   29.5829   65.4158 C   0  0  0  0  0  0  0  0  0  0  0  0
    4.7718   27.1607   65.4859 N   0  0  0  0  0  0  0  0  0  0  0  0
    1.1156   28.0937   65.9727 O   0  0  0  0  0  0  0  0  0  0  0  0
    0.7867   24.4380   66.5526 O   0  0  0  0  0  0  0  0  0  0  0  0
    3.4853   24.6527   65.4347 O   0  0  0  0  0  0  0  0  0  0  0  0
    2.3353   30.6346   66.0880 O   0  0  0  0  0  0  0  0  0  0  0  0
   -4.4004   32.8381   67.0231 C   0  0  1  0  0  0  0  0  0  0  0  0
   -4.4556   33.3744   65.5663 C   0  0  1  0  0  0  0  0  0  0  0  0
   -5.9357   33.5484   65.1180 C   0  0  2  0  0  0  0  0  0  0  0  0
   -6.6522   32.1772   65.1878 C   0  0  1  0  0  0  0  0  0  0  0  0
   -6.6191   31.6145   66.6539 C   0  0  0  0  0  0  0  0  0  0  0  0
   -5.1435   31.4661   67.0816 C   0  0  2  0  0  0  0  0  0  0  0  0
   -8.0623   32.3295   64.7557 N   0  0  0  0  0  0  0  0  0  0  0  0
   -5.1213   30.9417   68.4515 N   0  0  0  0  0  0  0  0  0  0  0  0
   -3.7857   34.6527   65.4989 O   0  0  0  0  0  0  0  0  0  0  0  0
   -5.9587   34.0533   63.7643 O   0  0  0  0  0  0  0  0  0  0  0  0
  1  2  1  0  0  0  0
  1 12  1  6  0  0  0
  1 13  1  0  0  0  0
  2  3  1  0  0  0  0
  2 10  1  6  0  0  0
  4  3  1  6  0  0  0
  4  5  1  0  0  0  0
  4 14  1  0  0  0  0
  5  6  1  0  0  0  0
  5 13  1  1  0  0  0
  6  7  1  0  0  0  0
  6 15  1  1  0  0  0
  7  8  1  0  0  0  0
  7 11  1  1  0  0  0
  8 14  1  0  0  0  0
  8 16  1  6  0  0  0
  9 11  1  0  0  0  0
 17 16  1  1  0  0  0
 17 18  1  0  0  0  0
 17 24  1  0  0  0  0
 18 19  1  0  0  0  0
 18 25  1  1  0  0  0
 19 20  1  0  0  0  0
 19 26  1  6  0  0  0
 20 21  1  0  0  0  0
 20 23  1  1  0  0  0
 21 22  1  6  0  0  0
 21 24  1  0  0  0  0
 22 27  1  0  0  0  0
 28 12  1  6  0  0  0
 28 29  1  0  0  0  0
 28 33  1  0  0  0  0
 29 30  1  0  0  0  0
 29 36  1  1  0  0  0
 30 31  1  0  0  0  0
 30 37  1  6  0  0  0
 31 32  1  0  0  0  0
 31 34  1  1  0  0  0
 32 33  1  0  0  0  0
 33 35  1  1  0  0  0
M  END
>  <CHROM.1>
-164.37372325,137.89600222,61.31002251,166.02167696,-169.61766521,-179.31394423
-1.37330463,29.70374890,67.09391851,-2.44998231,-0.24249579,2.82440038

>  <Name>
ligand

>  <RI>
0

>  <Rbt.Current_Directory>
/home/itssahil/PROJECTS/Mol_Feturizer/Test_systems_manuscript/rnas/2g5k

>  <Rbt.Executable>
rbdock ($Id: //depot/dev/client3/rdock/2013.1/src/exe/rbdock.cxx#4 $)

>  <Rbt.Library>
libRbt.so (2013.1, Build901 2013/11/27)

>  <Rbt.Parameter_File>
/export/apps/rDock/src/rDock_2013.1_src/data/scripts/dock_solv.prm

>  <Rbt.Receptor>
prm/pocket_docking_6.prm

>  <SCORE>
-10.3674

>  <SCORE.INTER>
-7.78301

>  <SCORE.INTER.CONST>
1

>  <SCORE.INTER.POLAR>
0

>  <SCORE.INTER.ROT>
6

>  <SCORE.INTER.SOLV>
14.5787

>  <SCORE.INTER.VDW>
-17.6483

>  <SCORE.INTER.norm>
-0.210352

>  <SCORE.INTRA>
-2.58435

>  <SCORE.INTRA.DIHEDRAL>
-7.81635

>  <SCORE.INTRA.DIHEDRAL.0>
11.3972

>  <SCORE.INTRA.POLAR>
0

>  <SCORE.INTRA.POLAR.0>
0

>  <SCORE.INTRA.REPUL>
0

>  <SCORE.INTRA.REPUL.0>
0

>  <SCORE.INTRA.SOLV>
2.50293

>  <SCORE.INTRA.SOLV.lig_0>
-92.3891

>  <SCORE.INTRA.VDW>
0.0723631

>  <SCORE.INTRA.VDW.0>
-2.90606

>  <SCORE.INTRA.norm>
-0.0698473

>  <SCORE.RESTR>
0

>  <SCORE.RESTR.CAVITY>
0

>  <SCORE.RESTR.norm>
0

>  <SCORE.SYSTEM>
0

>  <SCORE.SYSTEM.CONST>
0

>  <SCORE.SYSTEM.DIHEDRAL>
0

>  <SCORE.SYSTEM.SOLV>
0

>  <SCORE.SYSTEM.norm>
0

>  <SCORE.heavy>
37

>  <SCORE.norm>
-0.280199

>  <RMSD>
9.844

$$$$
ligand
 OpenBabel02271912133D
libRbt.so/2013.1/901 2013/11/27
 37 40  0  0  0  0  0  0  0  0999 V2000
   -8.7378   31.0061   66.5320 C   0  0  1  0  0  0  0  0  0  0  0  0
   -8.2161   31.7190   65.2521 C   0  0  1  0  0  0  0  0  0  0  0  0
   -7.1358   30.8911   64.5303 C   0  0  0  0  0  0  0  0  0  0  0  0
   -5.9681   30.6065   65.5257 C   0  0  1  0  0  0  0  0  0  0  0  0
   -6.4917   29.8437   66.7857 C   0  0  1  0  0  0  0  0  0  0  0  0
   -5.2833   29.5654   67.7892 C   0  0  1  0  0  0  0  0  0  0  0  0
   -4.2014   28.7202   67.0551 C   0  0  1  0  0  0  0  0  0  0  0  0
   -3.7423   29.5105   65.7928 C   0  0  2  0  0  0  0  0  0  0  0  0
   -2.9661   27.1354   68.6900 C   0  0  0  0  0  0  0  0  0  0  0  0
   -9.3334   32.0229   64.3331 N   0  0  0  0  0  0  0  0  0  0  0  0
   -3.0312   28.4477   67.9712 N   0  0  0  0  0  0  0  0  0  0  0  0
   -9.4999   29.8204   66.2326 O   0  0  0  0  0  0  0  0  0  0  0  0
   -7.5725   30.6760   67.3935 O   0  0  0  0  0  0  0  0  0  0  0  0
   -4.8702   29.8003   64.8978 O   0  0  0  0  0  0  0  0  0  0  0  0
   -4.6939   30.7975   68.1839 O   0  0  0  0  0  0  0  0  0  0  0  0
   -2.7641   28.7636   65.0784 O   0  0  0  0  0  0  0  0  0  0  0  0
   -2.2751   29.4238   63.8850 C   0  0  2  0  0  0  0  0  0  0  0  0
   -1.3438   28.5237   63.0390 C   0  0  1  0  0  0  0  0  0  0  0  0
   -0.0159   28.2206   63.8053 C   0  0  2  0  0  0  0  0  0  0  0  0
    0.6931   29.5274   64.0977 C   0  0  1  0  0  0  0  0  0  0  0  0
   -0.2357   30.4205   64.9738 C   0  0  1  0  0  0  0  0  0  0  0  0
    0.4000   31.7717   65.2953 C   0  0  0  0  0  0  0  0  0  0  0  0
    1.9656   29.2467   64.8055 N   0  0  0  0  0  0  0  0  0  0  0  0
   -1.5229   30.6608   64.2515 O   0  0  0  0  0  0  0  0  0  0  0  0
   -2.0801   27.3229   62.7165 O   0  0  0  0  0  0  0  0  0  0  0  0
    0.8340   27.4017   62.9990 O   0  0  0  0  0  0  0  0  0  0  0  0
   -0.4609   32.5031   66.1339 O   0  0  0  0  0  0  0  0  0  0  0  0
  -10.2291   29.0155   67.2863 C   0  0  1  0  0  0  0  0  0  0  0  0
   -9.1767   28.4207   68.2618 C   0  0  1  0  0  0  0  0  0  0  0  0
   -9.8856   27.5797   69.3627 C   0  0  2  0  0  0  0  0  0  0  0  0
  -10.8584   28.4912   70.1507 C   0  0  1  0  0  0  0  0  0  0  0  0
  -11.9405   29.1005   69.1889 C   0  0  0  0  0  0  0  0  0  0  0  0
  -11.2138   29.9153   68.0978 C   0  0  2  0  0  0  0  0  0  0  0  0
  -11.5349   27.7017   71.2078 N   0  0  0  0  0  0  0  0  0  0  0  0
  -12.2306   30.4794   67.2035 N   0  0  0  0  0  0  0  0  0  0  0  0
   -8.2668   27.5716   67.5279 O   0  0  0  0  0  0  0  0  0  0  0  0
   -8.8857   27.0336   70.2514 O   0  0  0  0  0  0  0  0  0  0  0  0
  1  2  1  0  0  0  0
  1 12  1  6  0  0  0
  1 13  1  0  0  0  0
  2  3  1  0  0  0  0
  2 10  1  6  0  0  0
  4  3  1  6  0  0  0
  4  5  1  0  0  0  0
  4 14  1  0  0  0  0
  5  6  1  0  0  0  0
  5 13  1  1  0  0  0
  6  7  1  0  0  0  0
  6 15  1  6  0  0  0
  7  8  1  0  0  0  0
  7 11  1  1  0  0  0
  8 14  1  0  0  0  0
  8 16  1  6  0  0  0
  9 11  1  0  0  0  0
 17 16  1  1  0  0  0
 17 18  1  0  0  0  0
 17 24  1  0  0  0  0
 18 19  1  0  0  0  0
 18 25  1  1  0  0  0
 19 20  1  0  0  0  0
 19 26  1  6  0  0  0
 20 21  1  0  0  0  0
 20 23  1  1  0  0  0
 21 22  1  6  0  0  0
 21 24  1  0  0  0  0
 22 27  1  0  0  0  0
 28 12  1  6  0  0  0
 28 29  1  0  0  0  0
 28 33  1  0  0  0  0
 29 30  1  0  0  0  0
 29 36  1  6  0  0  0
 30 31  1  0  0  0  0
 30 37  1  1  0  0  0
 31 32  1  0  0  0  0
 31 34  1  1  0  0  0
 32 33  1  0  0  0  0
 33 35  1  6  0  0  0
M  END
>  <CHROM.1>
-174.03675700,97.74631766,-179.92042463,-64.17634563,-173.10937634,-177.43502073
-5.42800321,29.44000124,66.38283646,2.83759124,-0.23272729,2.27221378

>  <Name>
ligand

>  <RI>
0

>  <Rbt.Current_Directory>
/home/itssahil/PROJECTS/Mol_Feturizer/Test_systems_manuscript/rnas/2g5k

>  <Rbt.Executable>
rbdock ($Id: //depot/dev/client3/rdock/2013.1/src/exe/rbdock.cxx#4 $)

>  <Rbt.Library>
libRbt.so (2013.1, Build901 2013/11/27)

>  <Rbt.Parameter_File>
/export/apps/rDock/src/rDock_2013.1_src/data/scripts/dock_solv.prm

>  <Rbt.Receptor>
prm/pocket_docking_6.prm

>  <SCORE>
-11.868

>  <SCORE.INTER>
-6.06501

>  <SCORE.INTER.CONST>
1

>  <SCORE.INTER.POLAR>
0

>  <SCORE.INTER.ROT>
6

>  <SCORE.INTER.SOLV>
14.6493

>  <SCORE.INTER.VDW>
-16.5264

>  <SCORE.INTER.norm>
-0.163919

>  <SCORE.INTRA>
-5.80295

>  <SCORE.INTRA.DIHEDRAL>
-10.0067

>  <SCORE.INTRA.DIHEDRAL.0>
11.3972

>  <SCORE.INTRA.POLAR>
0

>  <SCORE.INTRA.POLAR.0>
0

>  <SCORE.INTRA.REPUL>
0

>  <SCORE.INTRA.REPUL.0>
0

>  <SCORE.INTRA.SOLV>
-1.0614

>  <SCORE.INTRA.SOLV.lig_0>
-92.3891

>  <SCORE.INTRA.VDW>
-0.268908

>  <SCORE.INTRA.VDW.0>
-2.90606

>  <SCORE.INTRA.norm>
-0.156836

>  <SCORE.RESTR>
0

>  <SCORE.RESTR.CAVITY>
0

>  <SCORE.RESTR.norm>
0

>  <SCORE.SYSTEM>
0

>  <SCORE.SYSTEM.CONST>
0

>  <SCORE.SYSTEM.DIHEDRAL>
0

>  <SCORE.SYSTEM.SOLV>
0

>  <SCORE.SYSTEM.norm>
0

>  <SCORE.heavy>
37

>  <SCORE.norm>
-0.320755

>  <RMSD>
9.848

$$$$
ligand
 OpenBabel02271912133D
libRbt.so/2013.1/901 2013/11/27
 37 40  0  0  0  0  0  0  0  0999 V2000
   -7.9409   24.0976   65.8819 C   0  0  1  0  0  0  0  0  0  0  0  0
   -7.0225   23.2153   66.7744 C   0  0  1  0  0  0  0  0  0  0  0  0
   -6.2224   24.0561   67.7875 C   0  0  0  0  0  0  0  0  0  0  0  0
   -5.3885   25.1231   67.0120 C   0  0  1  0  0  0  0  0  0  0  0  0
   -6.3238   26.0391   66.1577 C   0  0  1  0  0  0  0  0  0  0  0  0
   -5.4512   27.1196   65.3730 C   0  0  1  0  0  0  0  0  0  0  0  0
   -4.6542   27.9710   66.4044 C   0  0  1  0  0  0  0  0  0  0  0  0
   -3.7681   27.0060   67.2485 C   0  0  2  0  0  0  0  0  0  0  0  0
   -4.4666   30.2018   65.1011 C   0  0  0  0  0  0  0  0  0  0  0  0
   -7.8138   22.1804   67.4731 N   0  0  0  0  0  0  0  0  0  0  0  0
   -3.8025   28.9987   65.6966 N   0  0  0  0  0  0  0  0  0  0  0  0
   -9.0283   24.6875   66.6208 O   0  0  0  0  0  0  0  0  0  0  0  0
   -7.1067   25.1514   65.2472 O   0  0  0  0  0  0  0  0  0  0  0  0
   -4.5777   25.9880   67.9307 O   0  0  0  0  0  0  0  0  0  0  0  0
   -4.5199   26.4601   64.5252 O   0  0  0  0  0  0  0  0  0  0  0  0
   -3.0341   27.7420   68.2204 O   0  0  0  0  0  0  0  0  0  0  0  0
   -2.1839   26.9230   69.0604 C   0  0  2  0  0  0  0  0  0  0  0  0
   -1.3185   27.7571   70.0344 C   0  0  1  0  0  0  0  0  0  0  0  0
   -0.2697   28.6132   69.2536 C   0  0  2  0  0  0  0  0  0  0  0  0
    0.6314   27.6867   68.4627 C   0  0  1  0  0  0  0  0  0  0  0  0
   -0.2392   26.8683   67.4626 C   0  0  1  0  0  0  0  0  0  0  0  0
    0.5956   25.8897   66.6388 C   0  0  0  0  0  0  0  0  0  0  0  0
    1.6438   28.4905   67.7361 N   0  0  0  0  0  0  0  0  0  0  0  0
   -1.2715   26.0936   68.2178 O   0  0  0  0  0  0  0  0  0  0  0  0
   -2.2167   28.5702   70.8219 O   0  0  0  0  0  0  0  0  0  0  0  0
    0.5275   29.3623   70.1737 O   0  0  0  0  0  0  0  0  0  0  0  0
   -0.2523   25.1547   65.7902 O   0  0  0  0  0  0  0  0  0  0  0  0
  -10.1205   25.5106   65.9730 C   0  0  1  0  0  0  0  0  0  0  0  0
  -10.9446   24.5813   65.0403 C   0  0  1  0  0  0  0  0  0  0  0  0
  -12.0797   25.3907   64.3488 C   0  0  2  0  0  0  0  0  0  0  0  0
  -13.0113   25.9869   65.4328 C   0  0  1  0  0  0  0  0  0  0  0  0
  -12.2047   26.9393   66.3865 C   0  0  0  0  0  0  0  0  0  0  0  0
  -11.0762   26.1193   67.0472 C   0  0  2  0  0  0  0  0  0  0  0  0
  -14.1016   26.7550   64.7850 N   0  0  0  0  0  0  0  0  0  0  0  0
  -10.3273   27.0156   67.9347 N   0  0  0  0  0  0  0  0  0  0  0  0
  -10.0766   24.0223   64.0296 O   0  0  0  0  0  0  0  0  0  0  0  0
  -12.8257   24.5059   63.4837 O   0  0  0  0  0  0  0  0  0  0  0  0
  1  2  1  0  0  0  0
  1 12  1  1  0  0  0
  1 13  1  0  0  0  0
  2  3  1  0  0  0  0
  2 10  1  1  0  0  0
  4  3  1  1  0  0  0
  4  5  1  0  0  0  0
  4 14  1  0  0  0  0
  5  6  1  0  0  0  0
  5 13  1  6  0  0  0
  6  7  1  0  0  0  0
  6 15  1  6  0  0  0
  7  8  1  0  0  0  0
  7 11  1  6  0  0  0
  8 14  1  0  0  0  0
  8 16  1  1  0  0  0
  9 11  1  0  0  0  0
 17 16  1  6  0  0  0
 17 18  1  0  0  0  0
 17 24  1  0  0  0  0
 18 19  1  0  0  0  0
 18 25  1  6  0  0  0
 19 20  1  0  0  0  0
 19 26  1  1  0  0  0
 20 21  1  0  0  0  0
 20 23  1  6  0  0  0
 21 22  1  1  0  0  0
 21 24  1  0  0  0  0
 22 27  1  0  0  0  0
 28 12  1  1  0  0  0
 28 29  1  0  0  0  0
 28 33  1  0  0  0  0
 29 30  1  0  0  0  0
 29 36  1  6  0  0  0
 30 31  1  0  0  0  0
 30 37  1  6  0  0  0
 31 32  1  0  0  0  0
 31 34  1  6  0  0  0
 32 33  1  0  0  0  0
 33 35  1  1  0  0  0
M  END
>  <CHROM.1>
-175.62076054,74.42515147,179.68242836,65.86252013,175.64551823,178.11493032
-5.69383876,26.33503976,66.79425347,-2.85128754,-0.17652563,0.35830068

>  <Name>
ligand

>  <RI>
0

>  <Rbt.Current_Directory>
/home/itssahil/PROJECTS/Mol_Feturizer/Test_systems_manuscript/rnas/2g5k

>  <Rbt.Executable>
rbdock ($Id: //depot/dev/client3/rdock/2013.1/src/exe/rbdock.cxx#4 $)

>  <Rbt.Library>
libRbt.so (2013.1, Build901 2013/11/27)

>  <Rbt.Parameter_File>
/export/apps/rDock/src/rDock_2013.1_src/data/scripts/dock_solv.prm

>  <Rbt.Receptor>
prm/pocket_docking_6.prm

>  <SCORE>
-13.3839

>  <SCORE.INTER>
-7.71767

>  <SCORE.INTER.CONST>
1

>  <SCORE.INTER.POLAR>
0

>  <SCORE.INTER.ROT>
6

>  <SCORE.INTER.SOLV>
12.3939

>  <SCORE.INTER.VDW>
-16.8764

>  <SCORE.INTER.norm>
-0.208586

>  <SCORE.INTRA>
-5.66627

>  <SCORE.INTRA.DIHEDRAL>
-10.8279

>  <SCORE.INTRA.DIHEDRAL.0>
11.3972

>  <SCORE.INTRA.POLAR>
0

>  <SCORE.INTRA.POLAR.0>
0

>  <SCORE.INTRA.REPUL>
0

>  <SCORE.INTRA.REPUL.0>
0

>  <SCORE.INTRA.SOLV>
-1.90313

>  <SCORE.INTRA.SOLV.lig_0>
-92.3891

>  <SCORE.INTRA.VDW>
0.699246

>  <SCORE.INTRA.VDW.0>
-2.90606

>  <SCORE.INTRA.norm>
-0.153142

>  <SCORE.RESTR>
0

>  <SCORE.RESTR.CAVITY>
0

>  <SCORE.RESTR.norm>
0

>  <SCORE.SYSTEM>
0

>  <SCORE.SYSTEM.CONST>
0

>  <SCORE.SYSTEM.DIHEDRAL>
0

>  <SCORE.SYSTEM.SOLV>
0

>  <SCORE.SYSTEM.norm>
0

>  <SCORE.heavy>
37

>  <SCORE.norm>
-0.361728

>  <RMSD>
9.849

$$$$
ligand
 OpenBabel02271912133D
libRbt.so/2013.1/901 2013/11/27
 37 40  0  0  0  0  0  0  0  0999 V2000
   -7.9346   24.1012   65.8865 C   0  0  1  0  0  0  0  0  0  0  0  0
   -7.0208   23.2156   66.7803 C   0  0  1  0  0  0  0  0  0  0  0  0
   -6.2177   24.0537   67.7933 C   0  0  0  0  0  0  0  0  0  0  0  0
   -5.3785   25.1163   67.0176 C   0  0  1  0  0  0  0  0  0  0  0  0
   -6.3092   26.0358   66.1619 C   0  0  1  0  0  0  0  0  0  0  0  0
   -5.4313   27.1118   65.3770 C   0  0  1  0  0  0  0  0  0  0  0  0
   -4.6312   27.9604   66.4083 C   0  0  1  0  0  0  0  0  0  0  0  0
   -3.7500   26.9923   67.2537 C   0  0  2  0  0  0  0  0  0  0  0  0
   -4.4228   30.2228   65.1638 C   0  0  0  0  0  0  0  0  0  0  0  0
   -7.8171   22.1848   67.4793 N   0  0  0  0  0  0  0  0  0  0  0  0
   -3.7744   28.9839   65.7002 N   0  0  0  0  0  0  0  0  0  0  0  0
   -9.0199   24.6965   66.6241 O   0  0  0  0  0  0  0  0  0  0  0  0
   -7.0953   25.1508   65.2515 O   0  0  0  0  0  0  0  0  0  0  0  0
   -4.5645   25.9784   67.9362 O   0  0  0  0  0  0  0  0  0  0  0  0
   -4.5023   26.4475   64.5303 O   0  0  0  0  0  0  0  0  0  0  0  0
   -3.0134   27.7257   68.2255 O   0  0  0  0  0  0  0  0  0  0  0  0
   -2.1606   26.9047   69.0608 C   0  0  2  0  0  0  0  0  0  0  0  0
   -1.2963   27.7361   70.0382 C   0  0  1  0  0  0  0  0  0  0  0  0
   -0.2503   28.5985   69.2608 C   0  0  2  0  0  0  0  0  0  0  0  0
    0.6524   27.6781   68.4646 C   0  0  1  0  0  0  0  0  0  0  0  0
   -0.2170   26.8625   67.4612 C   0  0  1  0  0  0  0  0  0  0  0  0
    0.6194   25.8900   66.6319 C   0  0  0  0  0  0  0  0  0  0  0  0
    1.6623   28.4878   67.7412 N   0  0  0  0  0  0  0  0  0  0  0  0
   -1.2468   26.0817   68.2134 O   0  0  0  0  0  0  0  0  0  0  0  0
   -2.1959   28.5432   70.8304 O   0  0  0  0  0  0  0  0  0  0  0  0
    0.5459   29.3450   70.1838 O   0  0  0  0  0  0  0  0  0  0  0  0
   -0.2217   25.1899   65.7477 O   0  0  0  0  0  0  0  0  0  0  0  0
  -10.1074   25.5248   65.9751 C   0  0  1  0  0  0  0  0  0  0  0  0
  -10.9403   24.5975   65.0482 C   0  0  1  0  0  0  0  0  0  0  0  0
  -12.0709   25.4123   64.3555 C   0  0  2  0  0  0  0  0  0  0  0  0
  -12.9958   26.0200   65.4389 C   0  0  1  0  0  0  0  0  0  0  0  0
  -12.1802   26.9706   66.3867 C   0  0  0  0  0  0  0  0  0  0  0  0
  -11.0564   26.1451   67.0486 C   0  0  2  0  0  0  0  0  0  0  0  0
  -14.0818   26.7933   64.7900 N   0  0  0  0  0  0  0  0  0  0  0  0
  -10.2990   27.0398   67.9306 N   0  0  0  0  0  0  0  0  0  0  0  0
  -10.0786   24.0279   64.0381 O   0  0  0  0  0  0  0  0  0  0  0  0
  -12.8253   24.5292   63.4959 O   0  0  0  0  0  0  0  0  0  0  0  0
  1  2  1  0  0  0  0
  1 12  1  1  0  0  0
  1 13  1  0  0  0  0
  2  3  1  0  0  0  0
  2 10  1  1  0  0  0
  4  3  1  1  0  0  0
  4  5  1  0  0  0  0
  4 14  1  0  0  0  0
  5  6  1  0  0  0  0
  5 13  1  6  0  0  0
  6  7  1  0  0  0  0
  6 15  1  6  0  0  0
  7  8  1  0  0  0  0
  7 11  1  6  0  0  0
  8 14  1  0  0  0  0
  8 16  1  1  0  0  0
  9 11  1  0  0  0  0
 17 16  1  6  0  0  0
 17 18  1  0  0  0  0
 17 24  1  0  0  0  0
 18 19  1  0  0  0  0
 18 25  1  6  0  0  0
 19 20  1  0  0  0  0
 19 26  1  1  0  0  0
 20 21  1  0  0  0  0
 20 23  1  6  0  0  0
 21 22  1  1  0  0  0
 21 24  1  0  0  0  0
 22 27  1  0  0  0  0
 28 12  1  1  0  0  0
 28 29  1  0  0  0  0
 28 33  1  0  0  0  0
 29 30  1  0  0  0  0
 29 36  1  6  0  0  0
 30 31  1  0  0  0  0
 30 37  1  6  0  0  0
 31 32  1  0  0  0  0
 31 34  1  6  0  0  0
 32 33  1  0  0  0  0
 33 35  1  1  0  0  0
M  END
>  <CHROM.1>
-175.66911613,77.47954935,-179.92096675,66.19556277,175.85212520,-179.87190678
-5.67718233,26.33717158,66.79865630,-2.85319756,-0.17554028,0.36221591

>  <Name>
ligand

>  <RI>
0

>  <Rbt.Current_Directory>
/home/itssahil/PROJECTS/Mol_Feturizer/Test_systems_manuscript/rnas/2g5k

>  <Rbt.Executable>
rbdock ($Id: //depot/dev/client3/rdock/2013.1/src/exe/rbdock.cxx#4 $)

>  <Rbt.Library>
libRbt.so (2013.1, Build901 2013/11/27)

>  <Rbt.Parameter_File>
/export/apps/rDock/src/rDock_2013.1_src/data/scripts/dock_solv.prm

>  <Rbt.Receptor>
prm/pocket_docking_6.prm

>  <SCORE>
-13.4272

>  <SCORE.INTER>
-7.70737

>  <SCORE.INTER.CONST>
1

>  <SCORE.INTER.POLAR>
0

>  <SCORE.INTER.ROT>
6

>  <SCORE.INTER.SOLV>
12.3795

>  <SCORE.INTER.VDW>
-16.8648

>  <SCORE.INTER.norm>
-0.208307

>  <SCORE.INTRA>
-5.71985

>  <SCORE.INTRA.DIHEDRAL>
-10.7605

>  <SCORE.INTRA.DIHEDRAL.0>
11.3972

>  <SCORE.INTRA.POLAR>
0

>  <SCORE.INTRA.POLAR.0>
0

>  <SCORE.INTRA.REPUL>
0

>  <SCORE.INTRA.REPUL.0>
0

>  <SCORE.INTRA.SOLV>
-1.89926

>  <SCORE.INTRA.SOLV.lig_0>
-92.3891

>  <SCORE.INTRA.VDW>
0.610035

>  <SCORE.INTRA.VDW.0>
-2.90606

>  <SCORE.INTRA.norm>
-0.154591

>  <SCORE.RESTR>
0

>  <SCORE.RESTR.CAVITY>
0

>  <SCORE.RESTR.norm>
0

>  <SCORE.SYSTEM>
0

>  <SCORE.SYSTEM.CONST>
0

>  <SCORE.SYSTEM.DIHEDRAL>
0

>  <SCORE.SYSTEM.SOLV>
0

>  <SCORE.SYSTEM.norm>
0

>  <SCORE.heavy>
37

>  <SCORE.norm>
-0.362898

>  <RMSD>
9.851

$$$$
ligand
 OpenBabel02271912133D
libRbt.so/2013.1/901 2013/11/27
 37 40  0  0  0  0  0  0  0  0999 V2000
   -7.9484   24.1017   65.9000 C   0  0  1  0  0  0  0  0  0  0  0  0
   -7.0210   23.2201   66.7839 C   0  0  1  0  0  0  0  0  0  0  0  0
   -6.2102   24.0618   67.7877 C   0  0  0  0  0  0  0  0  0  0  0  0
   -5.3842   25.1277   67.0024 C   0  0  1  0  0  0  0  0  0  0  0  0
   -6.3281   26.0431   66.1569 C   0  0  1  0  0  0  0  0  0  0  0  0
   -5.4634   27.1226   65.3620 C   0  0  1  0  0  0  0  0  0  0  0  0
   -4.6555   27.9748   66.3841 C   0  0  1  0  0  0  0  0  0  0  0  0
   -3.7609   27.0105   67.2199 C   0  0  2  0  0  0  0  0  0  0  0  0
   -4.1039   30.4548   65.8788 C   0  0  0  0  0  0  0  0  0  0  0  0
   -7.8052   22.1862   67.4919 N   0  0  0  0  0  0  0  0  0  0  0  0
   -3.8109   29.0015   65.6664 N   0  0  0  0  0  0  0  0  0  0  0  0
   -9.0279   24.6927   66.6496 O   0  0  0  0  0  0  0  0  0  0  0  0
   -7.1206   25.1546   65.2556 O   0  0  0  0  0  0  0  0  0  0  0  0
   -4.5636   25.9934   67.9117 O   0  0  0  0  0  0  0  0  0  0  0  0
   -4.5411   26.4619   64.5052 O   0  0  0  0  0  0  0  0  0  0  0  0
   -3.0166   27.7473   68.1834 O   0  0  0  0  0  0  0  0  0  0  0  0
   -2.1806   26.9259   69.0352 C   0  0  2  0  0  0  0  0  0  0  0  0
   -1.3320   27.7573   70.0263 C   0  0  1  0  0  0  0  0  0  0  0  0
   -0.2704   28.6160   69.2660 C   0  0  2  0  0  0  0  0  0  0  0  0
    0.6442   27.6921   68.4877 C   0  0  1  0  0  0  0  0  0  0  0  0
   -0.2090   26.8766   67.4705 C   0  0  1  0  0  0  0  0  0  0  0  0
    0.6400   25.9008   66.6580 C   0  0  0  0  0  0  0  0  0  0  0  0
    1.6686   28.4983   67.7809 N   0  0  0  0  0  0  0  0  0  0  0  0
   -1.2537   26.0994   68.2057 O   0  0  0  0  0  0  0  0  0  0  0  0
   -2.2438   28.5677   70.8009 O   0  0  0  0  0  0  0  0  0  0  0  0
    0.5108   29.3624   70.2018 O   0  0  0  0  0  0  0  0  0  0  0  0
   -0.1827   25.2190   65.7426 O   0  0  0  0  0  0  0  0  0  0  0  0
  -10.0959   25.5609   66.0206 C   0  0  1  0  0  0  0  0  0  0  0  0
  -10.9843   24.6640   65.1156 C   0  0  1  0  0  0  0  0  0  0  0  0
  -12.0969   25.5203   64.4441 C   0  0  2  0  0  0  0  0  0  0  0  0
  -12.9736   26.1674   65.5445 C   0  0  1  0  0  0  0  0  0  0  0  0
  -12.1011   27.0883   66.4707 C   0  0  0  0  0  0  0  0  0  0  0  0
  -10.9964   26.2215   67.1118 C   0  0  2  0  0  0  0  0  0  0  0  0
  -14.0422   26.9806   64.9159 N   0  0  0  0  0  0  0  0  0  0  0  0
  -10.1857   27.0887   67.9736 N   0  0  0  0  0  0  0  0  0  0  0  0
  -10.1676   24.0577   64.0896 O   0  0  0  0  0  0  0  0  0  0  0  0
  -12.9036   24.6647   63.6045 O   0  0  0  0  0  0  0  0  0  0  0  0
  1  2  1  0  0  0  0
  1 12  1  1  0  0  0
  1 13  1  0  0  0  0
  2  3  1  0  0  0  0
  2 10  1  1  0  0  0
  4  3  1  1  0  0  0
  4  5  1  0  0  0  0
  4 14  1  0  0  0  0
  5  6  1  0  0  0  0
  5 13  1  6  0  0  0
  6  7  1  0  0  0  0
  6 15  1  6  0  0  0
  7  8  1  0  0  0  0
  7 11  1  6  0  0  0
  8 14  1  0  0  0  0
  8 16  1  1  0  0  0
  9 11  1  0  0  0  0
 17 16  1  6  0  0  0
 17 18  1  0  0  0  0
 17 24  1  0  0  0  0
 18 19  1  0  0  0  0
 18 25  1  6  0  0  0
 19 20  1  0  0  0  0
 19 26  1  1  0  0  0
 20 21  1  0  0  0  0
 20 23  1  6  0  0  0
 21 22  1  1  0  0  0
 21 24  1  0  0  0  0
 22 27  1  0  0  0  0
 28 12  1  1  0  0  0
 28 29  1  0  0  0  0
 28 33  1  0  0  0  0
 29 30  1  0  0  0  0
 29 36  1  6  0  0  0
 30 31  1  0  0  0  0
 30 37  1  6  0  0  0
 31 32  1  0  0  0  0
 31 34  1  6  0  0  0
 32 33  1  0  0  0  0
 33 35  1  1  0  0  0
M  END
>  <CHROM.1>
-178.13423829,115.54095533,178.37329100,69.07115364,177.22125716,-178.76691815
-5.67442780,26.37851045,66.83650989,-2.85613898,-0.16915561,0.36954132

>  <Name>
ligand

>  <RI>
0

>  <Rbt.Current_Directory>
/home/itssahil/PROJECTS/Mol_Feturizer/Test_systems_manuscript/rnas/2g5k

>  <Rbt.Executable>
rbdock ($Id: //depot/dev/client3/rdock/2013.1/src/exe/rbdock.cxx#4 $)

>  <Rbt.Library>
libRbt.so (2013.1, Build901 2013/11/27)

>  <Rbt.Parameter_File>
/export/apps/rDock/src/rDock_2013.1_src/data/scripts/dock_solv.prm

>  <Rbt.Receptor>
prm/pocket_docking_6.prm

>  <SCORE>
-12.6563

>  <SCORE.INTER>
-7.14774

>  <SCORE.INTER.CONST>
1

>  <SCORE.INTER.POLAR>
0

>  <SCORE.INTER.ROT>
6

>  <SCORE.INTER.SOLV>
12.0793

>  <SCORE.INTER.VDW>
-16.3916

>  <SCORE.INTER.norm>
-0.193182

>  <SCORE.INTRA>
-5.50853

>  <SCORE.INTRA.DIHEDRAL>
-9.70297

>  <SCORE.INTRA.DIHEDRAL.0>
11.3972

>  <SCORE.INTRA.POLAR>
0

>  <SCORE.INTRA.POLAR.0>
0

>  <SCORE.INTRA.REPUL>
0

>  <SCORE.INTRA.REPUL.0>
0

>  <SCORE.INTRA.SOLV>
-1.9047

>  <SCORE.INTRA.SOLV.lig_0>
-92.3891

>  <SCORE.INTRA.VDW>
0.295305

>  <SCORE.INTRA.VDW.0>
-2.90606

>  <SCORE.INTRA.norm>
-0.148879

>  <SCORE.RESTR>
0

>  <SCORE.RESTR.CAVITY>
0

>  <SCORE.RESTR.norm>
0

>  <SCORE.SYSTEM>
0

>  <SCORE.SYSTEM.CONST>
0

>  <SCORE.SYSTEM.DIHEDRAL>
0

>  <SCORE.SYSTEM.SOLV>
0

>  <SCORE.SYSTEM.norm>
0

>  <SCORE.heavy>
37

>  <SCORE.norm>
-0.342061

>  <RMSD>
9.851

$$$$
ligand
 OpenBabel02271912133D
libRbt.so/2013.1/901 2013/11/27
 37 40  0  0  0  0  0  0  0  0999 V2000
   -4.6263   29.6917   65.4591 C   0  0  1  0  0  0  0  0  0  0  0  0
   -4.9184   28.1733   65.6257 C   0  0  1  0  0  0  0  0  0  0  0  0
   -3.6616   27.3866   66.0440 C   0  0  0  0  0  0  0  0  0  0  0  0
   -2.5400   27.6261   64.9858 C   0  0  1  0  0  0  0  0  0  0  0  0
   -2.2158   29.1503   64.8618 C   0  0  1  0  0  0  0  0  0  0  0  0
   -1.0695   29.3719   63.7748 C   0  0  1  0  0  0  0  0  0  0  0  0
    0.1994   28.5818   64.2103 C   0  0  1  0  0  0  0  0  0  0  0  0
   -0.1893   27.0793   64.3514 C   0  0  2  0  0  0  0  0  0  0  0  0
    1.7209   30.1420   62.8098 C   0  0  0  0  0  0  0  0  0  0  0  0
   -6.0105   27.9568   66.5982 N   0  0  0  0  0  0  0  0  0  0  0  0
    1.3052   28.7558   63.1956 N   0  0  0  0  0  0  0  0  0  0  0  0
   -4.3397   30.3404   66.7134 O   0  0  0  0  0  0  0  0  0  0  0  0
   -3.4887   29.8501   64.5157 O   0  0  0  0  0  0  0  0  0  0  0  0
   -1.2760   26.8919   65.3216 O   0  0  0  0  0  0  0  0  0  0  0  0
   -1.4979   28.8680   62.5163 O   0  0  0  0  0  0  0  0  0  0  0  0
    0.9398   26.3201   64.7682 O   0  0  0  0  0  0  0  0  0  0  0  0
    0.8180   24.8982   64.5185 C   0  0  2  0  0  0  0  0  0  0  0  0
    1.3914   24.0349   65.6671 C   0  0  1  0  0  0  0  0  0  0  0  0
    2.9406   24.2104   65.7754 C   0  0  2  0  0  0  0  0  0  0  0  0
    3.5772   23.7800   64.4695 C   0  0  1  0  0  0  0  0  0  0  0  0
    3.0193   24.6699   63.3186 C   0  0  1  0  0  0  0  0  0  0  0  0
    3.5978   24.2830   61.9588 C   0  0  0  0  0  0  0  0  0  0  0  0
    5.0497   23.9226   64.5719 N   0  0  0  0  0  0  0  0  0  0  0  0
    1.5315   24.5329   63.2584 O   0  0  0  0  0  0  0  0  0  0  0  0
    0.7073   24.4207   66.8801 O   0  0  0  0  0  0  0  0  0  0  0  0
    3.4493   23.3926   66.8315 O   0  0  0  0  0  0  0  0  0  0  0  0
    3.1997   25.2301   60.9975 O   0  0  0  0  0  0  0  0  0  0  0  0
   -4.0954   31.8284   66.8404 C   0  0  1  0  0  0  0  0  0  0  0  0
   -2.7735   32.1714   66.1004 C   0  0  1  0  0  0  0  0  0  0  0  0
   -2.4815   33.6961   66.2097 C   0  0  2  0  0  0  0  0  0  0  0  0
   -3.6492   34.4843   65.5667 C   0  0  1  0  0  0  0  0  0  0  0  0
   -4.9993   34.1628   66.3022 C   0  0  0  0  0  0  0  0  0  0  0  0
   -5.2589   32.6451   66.1946 C   0  0  2  0  0  0  0  0  0  0  0  0
   -3.3783   35.9392   65.6587 N   0  0  0  0  0  0  0  0  0  0  0  0
   -6.5201   32.3530   66.8846 N   0  0  0  0  0  0  0  0  0  0  0  0
   -1.6833   31.4351   66.6975 O   0  0  0  0  0  0  0  0  0  0  0  0
   -1.2456   33.9868   65.5197 O   0  0  0  0  0  0  0  0  0  0  0  0
  1  2  1  0  0  0  0
  1 12  1  1  0  0  0
  1 13  1  0  0  0  0
  2  3  1  0  0  0  0
  2 10  1  1  0  0  0
  4  3  1  1  0  0  0
  4  5  1  0  0  0  0
  4 14  1  0  0  0  0
  5  6  1  0  0  0  0
  5 13  1  6  0  0  0
  6  7  1  0  0  0  0
  6 15  1  6  0  0  0
  7  8  1  0  0  0  0
  7 11  1  6  0  0  0
  8 14  1  0  0  0  0
  8 16  1  1  0  0  0
  9 11  1  0  0  0  0
 17 16  1  1  0  0  0
 17 18  1  0  0  0  0
 17 24  1  0  0  0  0
 18 19  1  0  0  0  0
 18 25  1  1  0  0  0
 19 20  1  0  0  0  0
 19 26  1  1  0  0  0
 20 21  1  0  0  0  0
 20 23  1  1  0  0  0
 21 22  1  6  0  0  0
 21 24  1  0  0  0  0
 22 27  1  0  0  0  0
 28 12  1  6  0  0  0
 28 29  1  0  0  0  0
 28 33  1  0  0  0  0
 29 30  1  0  0  0  0
 29 36  1  1  0  0  0
 30 31  1  0  0  0  0
 30 37  1  6  0  0  0
 31 32  1  0  0  0  0
 31 34  1  1  0  0  0
 32 33  1  0  0  0  0
 33 35  1  1  0  0  0
M  END
>  <CHROM.1>
-176.58741599,53.79454136,-161.15108321,-66.36888778,-140.68699327,-172.09122558
-0.99714953,28.51605428,65.01243256,2.36520644,0.46169813,-0.19773293

>  <Name>
ligand

>  <RI>
0

>  <Rbt.Current_Directory>
/home/itssahil/PROJECTS/Mol_Feturizer/Test_systems_manuscript/rnas/2g5k

>  <Rbt.Executable>
rbdock ($Id: //depot/dev/client3/rdock/2013.1/src/exe/rbdock.cxx#4 $)

>  <Rbt.Library>
libRbt.so (2013.1, Build901 2013/11/27)

>  <Rbt.Parameter_File>
/export/apps/rDock/src/rDock_2013.1_src/data/scripts/dock_solv.prm

>  <Rbt.Receptor>
prm/pocket_docking_8.prm

>  <SCORE>
-10.921

>  <SCORE.INTER>
-8.54295

>  <SCORE.INTER.CONST>
1

>  <SCORE.INTER.POLAR>
0

>  <SCORE.INTER.ROT>
6

>  <SCORE.INTER.SOLV>
13.0472

>  <SCORE.INTER.VDW>
-17.6444

>  <SCORE.INTER.norm>
-0.23089

>  <SCORE.INTRA>
-2.37803

>  <SCORE.INTRA.DIHEDRAL>
-3.96067

>  <SCORE.INTRA.DIHEDRAL.0>
11.3972

>  <SCORE.INTRA.POLAR>
0

>  <SCORE.INTRA.POLAR.0>
0

>  <SCORE.INTRA.REPUL>
0

>  <SCORE.INTRA.REPUL.0>
0

>  <SCORE.INTRA.SOLV>
-0.850952

>  <SCORE.INTRA.SOLV.lig_0>
-92.3891

>  <SCORE.INTRA.VDW>
0.0277844

>  <SCORE.INTRA.VDW.0>
-2.90606

>  <SCORE.INTRA.norm>
-0.064271

>  <SCORE.RESTR>
0

>  <SCORE.RESTR.CAVITY>
0

>  <SCORE.RESTR.norm>
0

>  <SCORE.SYSTEM>
0

>  <SCORE.SYSTEM.CONST>
0

>  <SCORE.SYSTEM.DIHEDRAL>
0

>  <SCORE.SYSTEM.SOLV>
0

>  <SCORE.SYSTEM.norm>
0

>  <SCORE.heavy>
37

>  <SCORE.norm>
-0.295161

>  <RMSD>
9.851

$$$$
ligand
 OpenBabel02271912133D
libRbt.so/2013.1/901 2013/11/27
 37 40  0  0  0  0  0  0  0  0999 V2000
   -5.5999   34.0896   65.9801 C   0  0  1  0  0  0  0  0  0  0  0  0
   -4.1319   34.2071   66.4800 C   0  0  1  0  0  0  0  0  0  0  0  0
   -3.2637   33.0275   66.0024 C   0  0  0  0  0  0  0  0  0  0  0  0
   -3.9129   31.6935   66.4865 C   0  0  1  0  0  0  0  0  0  0  0  0
   -5.3701   31.5586   65.9369 C   0  0  1  0  0  0  0  0  0  0  0  0
   -6.0143   30.1906   66.4450 C   0  0  1  0  0  0  0  0  0  0  0  0
   -5.1366   29.0041   65.9496 C   0  0  1  0  0  0  0  0  0  0  0  0
   -3.6916   29.2080   66.4967 C   0  0  2  0  0  0  0  0  0  0  0  0
   -5.4163   26.4476   65.6385 C   0  0  0  0  0  0  0  0  0  0  0  0
   -3.5377   35.4916   66.0533 N   0  0  0  0  0  0  0  0  0  0  0  0
   -5.7082   27.6886   66.4245 N   0  0  0  0  0  0  0  0  0  0  0  0
   -5.7140   34.2653   64.5545 O   0  0  0  0  0  0  0  0  0  0  0  0
   -6.1300   32.7623   66.3882 O   0  0  0  0  0  0  0  0  0  0  0  0
   -3.1252   30.4907   66.0596 O   0  0  0  0  0  0  0  0  0  0  0  0
   -6.0330   30.1679   67.8664 O   0  0  0  0  0  0  0  0  0  0  0  0
   -2.8475   28.1528   66.0506 O   0  0  0  0  0  0  0  0  0  0  0  0
   -1.4753   28.2659   66.5017 C   0  0  2  0  0  0  0  0  0  0  0  0
   -0.6355   27.0035   66.1943 C   0  0  1  0  0  0  0  0  0  0  0  0
   -1.1459   25.7802   67.0221 C   0  0  2  0  0  0  0  0  0  0  0  0
   -1.0306   26.1021   68.4983 C   0  0  1  0  0  0  0  0  0  0  0  0
   -1.8999   27.3568   68.8107 C   0  0  1  0  0  0  0  0  0  0  0  0
   -1.8197   27.7619   70.2813 C   0  0  0  0  0  0  0  0  0  0  0  0
   -1.4923   24.9372   69.2912 N   0  0  0  0  0  0  0  0  0  0  0  0
   -1.4349   28.5065   67.9751 O   0  0  0  0  0  0  0  0  0  0  0  0
   -0.7079   26.7733   64.7696 O   0  0  0  0  0  0  0  0  0  0  0  0
   -0.3462   24.6311   66.7338 O   0  0  0  0  0  0  0  0  0  0  0  0
   -0.5222   28.2253   70.5661 O   0  0  0  0  0  0  0  0  0  0  0  0
   -7.0148   34.0964   63.7999 C   0  0  1  0  0  0  0  0  0  0  0  0
   -7.7461   35.4665   63.7741 C   0  0  1  0  0  0  0  0  0  0  0  0
   -9.0948   35.3367   63.0086 C   0  0  2  0  0  0  0  0  0  0  0  0
   -8.8126   34.8780   61.5566 C   0  0  1  0  0  0  0  0  0  0  0  0
   -8.0802   33.4885   61.5523 C   0  0  0  0  0  0  0  0  0  0  0  0
   -6.7553   33.6380   62.3301 C   0  0  2  0  0  0  0  0  0  0  0  0
  -10.0908   34.7576   60.8149 N   0  0  0  0  0  0  0  0  0  0  0  0
   -6.0785   32.3365   62.3226 N   0  0  0  0  0  0  0  0  0  0  0  0
   -8.0083   35.8971   65.1281 O   0  0  0  0  0  0  0  0  0  0  0  0
   -9.7566   36.6212   63.0047 O   0  0  0  0  0  0  0  0  0  0  0  0
  1  2  1  0  0  0  0
  1 12  1  6  0  0  0
  1 13  1  0  0  0  0
  2  3  1  0  0  0  0
  2 10  1  6  0  0  0
  4  3  1  6  0  0  0
  4  5  1  0  0  0  0
  4 14  1  0  0  0  0
  5  6  1  0  0  0  0
  5 13  1  1  0  0  0
  6  7  1  0  0  0  0
  6 15  1  1  0  0  0
  7  8  1  0  0  0  0
  7 11  1  1  0  0  0
  8 14  1  0  0  0  0
  8 16  1  6  0  0  0
  9 11  1  0  0  0  0
 17 16  1  1  0  0  0
 17 18  1  0  0  0  0
 17 24  1  0  0  0  0
 18 19  1  0  0  0  0
 18 25  1  6  0  0  0
 19 20  1  0  0  0  0
 19 26  1  1  0  0  0
 20 21  1  0  0  0  0
 20 23  1  1  0  0  0
 21 22  1  1  0  0  0
 21 24  1  0  0  0  0
 22 27  1  0  0  0  0
 28 12  1  1  0  0  0
 28 29  1  0  0  0  0
 28 33  1  0  0  0  0
 29 30  1  0  0  0  0
 29 36  1  1  0  0  0
 30 31  1  0  0  0  0
 30 37  1  6  0  0  0
 31 32  1  0  0  0  0
 31 34  1  6  0  0  0
 32 33  1  0  0  0  0
 33 35  1  1  0  0  0
M  END
>  <CHROM.1>
175.25719335,154.33008378,179.43446457,89.20709690,170.96903331,67.57048935
-4.55996193,30.79357927,65.77664855,-2.62153661,0.85914608,-2.72790245

>  <Name>
ligand

>  <RI>
0

>  <Rbt.Current_Directory>
/home/itssahil/PROJECTS/Mol_Feturizer/Test_systems_manuscript/rnas/2g5k

>  <Rbt.Executable>
rbdock ($Id: //depot/dev/client3/rdock/2013.1/src/exe/rbdock.cxx#4 $)

>  <Rbt.Library>
libRbt.so (2013.1, Build901 2013/11/27)

>  <Rbt.Parameter_File>
/export/apps/rDock/src/rDock_2013.1_src/data/scripts/dock_solv.prm

>  <Rbt.Receptor>
prm/pocket_docking_7.prm

>  <SCORE>
-5.81749

>  <SCORE.INTER>
-2.12914

>  <SCORE.INTER.CONST>
1

>  <SCORE.INTER.POLAR>
0

>  <SCORE.INTER.ROT>
6

>  <SCORE.INTER.SOLV>
21.1481

>  <SCORE.INTER.VDW>
-16.0688

>  <SCORE.INTER.norm>
-0.0575445

>  <SCORE.INTRA>
-3.68834

>  <SCORE.INTRA.DIHEDRAL>
-6.73104

>  <SCORE.INTRA.DIHEDRAL.0>
11.3972

>  <SCORE.INTRA.POLAR>
0

>  <SCORE.INTRA.POLAR.0>
0

>  <SCORE.INTRA.REPUL>
0

>  <SCORE.INTRA.REPUL.0>
0

>  <SCORE.INTRA.SOLV>
-0.687292

>  <SCORE.INTRA.SOLV.lig_0>
-92.3891

>  <SCORE.INTRA.VDW>
0.0208252

>  <SCORE.INTRA.VDW.0>
-2.90606

>  <SCORE.INTRA.norm>
-0.0996849

>  <SCORE.RESTR>
0

>  <SCORE.RESTR.CAVITY>
0

>  <SCORE.RESTR.norm>
0

>  <SCORE.SYSTEM>
0

>  <SCORE.SYSTEM.CONST>
0

>  <SCORE.SYSTEM.DIHEDRAL>
0

>  <SCORE.SYSTEM.SOLV>
0

>  <SCORE.SYSTEM.norm>
0

>  <SCORE.heavy>
37

>  <SCORE.norm>
-0.157229

>  <RMSD>
9.856

$$$$
ligand
 OpenBabel02271912133D
libRbt.so/2013.1/901 2013/11/27
 37 40  0  0  0  0  0  0  0  0999 V2000
   -7.9483   24.3198   65.7344 C   0  0  1  0  0  0  0  0  0  0  0  0
   -7.0682   23.4060   66.6339 C   0  0  1  0  0  0  0  0  0  0  0  0
   -6.2616   24.2170   67.6660 C   0  0  0  0  0  0  0  0  0  0  0  0
   -5.3870   25.2667   66.9120 C   0  0  1  0  0  0  0  0  0  0  0  0
   -6.2836   26.2143   66.0508 C   0  0  1  0  0  0  0  0  0  0  0  0
   -5.3699   27.2766   65.2883 C   0  0  1  0  0  0  0  0  0  0  0  0
   -4.5663   28.0980   66.3387 C   0  0  1  0  0  0  0  0  0  0  0  0
   -3.7200   27.1029   67.1886 C   0  0  2  0  0  0  0  0  0  0  0  0
   -3.4042   30.4132   66.3339 C   0  0  0  0  0  0  0  0  0  0  0  0
   -7.8982   22.3878   67.3120 N   0  0  0  0  0  0  0  0  0  0  0  0
   -3.6760   29.1076   65.6524 N   0  0  0  0  0  0  0  0  0  0  0  0
   -9.0307   24.9334   66.4611 O   0  0  0  0  0  0  0  0  0  0  0  0
   -7.0759   25.3552   65.1212 O   0  0  0  0  0  0  0  0  0  0  0  0
   -4.5675   26.1022   67.8501 O   0  0  0  0  0  0  0  0  0  0  0  0
   -4.4436   26.5984   64.4497 O   0  0  0  0  0  0  0  0  0  0  0  0
   -2.9816   27.8112   68.1776 O   0  0  0  0  0  0  0  0  0  0  0  0
   -2.1426   26.9664   69.0032 C   0  0  2  0  0  0  0  0  0  0  0  0
   -1.2803   27.7708   70.0047 C   0  0  1  0  0  0  0  0  0  0  0  0
   -0.2207   28.6403   69.2539 C   0  0  2  0  0  0  0  0  0  0  0  0
    0.6814   27.7288   68.4468 C   0  0  1  0  0  0  0  0  0  0  0  0
   -0.1857   26.9409   67.4197 C   0  0  1  0  0  0  0  0  0  0  0  0
    0.6502   25.9786   66.5779 C   0  0  0  0  0  0  0  0  0  0  0  0
    1.7040   28.5448   67.7487 N   0  0  0  0  0  0  0  0  0  0  0  0
   -1.2282   26.1533   68.1470 O   0  0  0  0  0  0  0  0  0  0  0  0
   -2.1803   28.5689   70.8055 O   0  0  0  0  0  0  0  0  0  0  0  0
    0.5733   29.3613   70.1987 O   0  0  0  0  0  0  0  0  0  0  0  0
   -0.1925   25.2845   65.6905 O   0  0  0  0  0  0  0  0  0  0  0  0
  -10.1319   25.7283   65.7935 C   0  0  1  0  0  0  0  0  0  0  0  0
  -11.0030   24.7502   64.9585 C   0  0  1  0  0  0  0  0  0  0  0  0
  -12.1488   25.5290   64.2497 C   0  0  2  0  0  0  0  0  0  0  0  0
  -13.0321   26.2177   65.3192 C   0  0  1  0  0  0  0  0  0  0  0  0
  -12.1774   27.2206   66.1742 C   0  0  0  0  0  0  0  0  0  0  0  0
  -11.0394   26.4292   66.8532 C   0  0  2  0  0  0  0  0  0  0  0  0
  -14.1322   26.9576   64.6554 N   0  0  0  0  0  0  0  0  0  0  0  0
  -10.2456   27.3725   67.6482 N   0  0  0  0  0  0  0  0  0  0  0  0
  -10.1800   24.1050   63.9615 O   0  0  0  0  0  0  0  0  0  0  0  0
  -12.9387   24.5987   63.4762 O   0  0  0  0  0  0  0  0  0  0  0  0
  1  2  1  0  0  0  0
  1 12  1  1  0  0  0
  1 13  1  0  0  0  0
  2  3  1  0  0  0  0
  2 10  1  1  0  0  0
  4  3  1  1  0  0  0
  4  5  1  0  0  0  0
  4 14  1  0  0  0  0
  5  6  1  0  0  0  0
  5 13  1  6  0  0  0
  6  7  1  0  0  0  0
  6 15  1  6  0  0  0
  7  8  1  0  0  0  0
  7 11  1  6  0  0  0
  8 14  1  0  0  0  0
  8 16  1  1  0  0  0
  9 11  1  0  0  0  0
 17 16  1  6  0  0  0
 17 18  1  0  0  0  0
 17 24  1  0  0  0  0
 18 19  1  0  0  0  0
 18 25  1  6  0  0  0
 19 20  1  0  0  0  0
 19 26  1  1  0  0  0
 20 21  1  0  0  0  0
 20 23  1  6  0  0  0
 21 22  1  1  0  0  0
 21 24  1  0  0  0  0
 22 27  1  0  0  0  0
 28 12  1  1  0  0  0
 28 29  1  0  0  0  0
 28 33  1  0  0  0  0
 29 30  1  0  0  0  0
 29 36  1  6  0  0  0
 30 31  1  0  0  0  0
 30 37  1  1  0  0  0
 31 32  1  0  0  0  0
 31 34  1  6  0  0  0
 32 33  1  0  0  0  0
 33 35  1  6  0  0  0
M  END
>  <CHROM.1>
-172.17831858,147.46770813,-178.91491266,68.55589768,176.11302228,178.98665505
-5.64617566,26.47375755,66.74305875,-2.84213255,-0.16087728,0.44331265

>  <Name>
ligand

>  <RI>
0

>  <Rbt.Current_Directory>
/home/itssahil/PROJECTS/Mol_Feturizer/Test_systems_manuscript/rnas/2g5k

>  <Rbt.Executable>
rbdock ($Id: //depot/dev/client3/rdock/2013.1/src/exe/rbdock.cxx#4 $)

>  <Rbt.Library>
libRbt.so (2013.1, Build901 2013/11/27)

>  <Rbt.Parameter_File>
/export/apps/rDock/src/rDock_2013.1_src/data/scripts/dock_solv.prm

>  <Rbt.Receptor>
prm/pocket_docking_8.prm

>  <SCORE>
-12.7121

>  <SCORE.INTER>
-7.01813

>  <SCORE.INTER.CONST>
1

>  <SCORE.INTER.POLAR>
0

>  <SCORE.INTER.ROT>
6

>  <SCORE.INTER.SOLV>
11.6445

>  <SCORE.INTER.VDW>
-16.1603

>  <SCORE.INTER.norm>
-0.189679

>  <SCORE.INTRA>
-5.69393

>  <SCORE.INTRA.DIHEDRAL>
-9.94414

>  <SCORE.INTRA.DIHEDRAL.0>
11.3972

>  <SCORE.INTRA.POLAR>
0

>  <SCORE.INTRA.POLAR.0>
0

>  <SCORE.INTRA.REPUL>
0

>  <SCORE.INTRA.REPUL.0>
0

>  <SCORE.INTRA.SOLV>
-1.84218

>  <SCORE.INTRA.SOLV.lig_0>
-92.3891

>  <SCORE.INTRA.VDW>
0.199227

>  <SCORE.INTRA.VDW.0>
-2.90606

>  <SCORE.INTRA.norm>
-0.15389

>  <SCORE.RESTR>
0

>  <SCORE.RESTR.CAVITY>
0

>  <SCORE.RESTR.norm>
0

>  <SCORE.SYSTEM>
0

>  <SCORE.SYSTEM.CONST>
0

>  <SCORE.SYSTEM.DIHEDRAL>
0

>  <SCORE.SYSTEM.SOLV>
0

>  <SCORE.SYSTEM.norm>
0

>  <SCORE.heavy>
37

>  <SCORE.norm>
-0.343569

>  <RMSD>
9.863

$$$$
ligand
 OpenBabel02271912133D
libRbt.so/2013.1/901 2013/11/27
 37 40  0  0  0  0  0  0  0  0999 V2000
   -7.7378   24.6796   64.3973 C   0  0  1  0  0  0  0  0  0  0  0  0
   -6.9912   23.6742   65.3195 C   0  0  1  0  0  0  0  0  0  0  0  0
   -6.2968   24.3801   66.4996 C   0  0  0  0  0  0  0  0  0  0  0  0
   -5.3162   25.4566   65.9385 C   0  0  1  0  0  0  0  0  0  0  0  0
   -6.0831   26.4934   65.0549 C   0  0  1  0  0  0  0  0  0  0  0  0
   -5.0624   27.5819   64.4909 C   0  0  1  0  0  0  0  0  0  0  0  0
   -4.3729   28.2969   65.6897 C   0  0  1  0  0  0  0  0  0  0  0  0
   -3.6556   27.2152   66.5524 C   0  0  2  0  0  0  0  0  0  0  0  0
   -3.9054   30.5691   64.5369 C   0  0  0  0  0  0  0  0  0  0  0  0
   -7.9177   22.6335   65.8131 N   0  0  0  0  0  0  0  0  0  0  0  0
   -3.3857   29.3278   65.1942 N   0  0  0  0  0  0  0  0  0  0  0  0
   -8.8861   25.2693   65.0376 O   0  0  0  0  0  0  0  0  0  0  0  0
   -6.7766   25.7313   63.9740 O   0  0  0  0  0  0  0  0  0  0  0  0
   -4.5972   26.1937   67.0291 O   0  0  0  0  0  0  0  0  0  0  0  0
   -4.0571   26.9410   63.7164 O   0  0  0  0  0  0  0  0  0  0  0  0
   -3.0259   27.8241   67.6739 O   0  0  0  0  0  0  0  0  0  0  0  0
   -2.3864   26.8842   68.5721 C   0  0  2  0  0  0  0  0  0  0  0  0
   -1.4294   27.5687   69.5766 C   0  0  1  0  0  0  0  0  0  0  0  0
   -0.2018   28.1937   68.8385 C   0  0  2  0  0  0  0  0  0  0  0  0
    0.5480   27.0949   68.1129 C   0  0  1  0  0  0  0  0  0  0  0  0
   -0.4098   26.4261   67.0818 C   0  0  1  0  0  0  0  0  0  0  0  0
    0.2669   25.2877   66.3208 C   0  0  0  0  0  0  0  0  0  0  0  0
    1.7275   27.6767   67.4279 N   0  0  0  0  0  0  0  0  0  0  0  0
   -1.6048   25.8773   67.7939 O   0  0  0  0  0  0  0  0  0  0  0  0
   -2.1975   28.5554   70.3009 O   0  0  0  0  0  0  0  0  0  0  0  0
    0.6750   28.8058   69.7869 O   0  0  0  0  0  0  0  0  0  0  0  0
    1.2808   25.8148   65.5000 O   0  0  0  0  0  0  0  0  0  0  0  0
  -10.0934   24.4688   65.4755 C   0  0  1  0  0  0  0  0  0  0  0  0
  -11.0419   25.4094   66.2681 C   0  0  1  0  0  0  0  0  0  0  0  0
  -12.2986   24.6233   66.7420 C   0  0  2  0  0  0  0  0  0  0  0  0
  -13.0449   24.0653   65.5051 C   0  0  1  0  0  0  0  0  0  0  0  0
  -12.1106   23.1023   64.6884 C   0  0  0  0  0  0  0  0  0  0  0  0
  -10.8655   23.8989   64.2438 C   0  0  2  0  0  0  0  0  0  0  0  0
  -14.2490   23.3198   65.9443 N   0  0  0  0  0  0  0  0  0  0  0  0
   -9.9980   22.9927   63.4834 N   0  0  0  0  0  0  0  0  0  0  0  0
  -10.3465   25.9327   67.4213 O   0  0  0  0  0  0  0  0  0  0  0  0
  -13.1597   25.5181   67.4807 O   0  0  0  0  0  0  0  0  0  0  0  0
  1  2  1  0  0  0  0
  1 12  1  1  0  0  0
  1 13  1  0  0  0  0
  2  3  1  0  0  0  0
  2 10  1  1  0  0  0
  4  3  1  1  0  0  0
  4  5  1  0  0  0  0
  4 14  1  0  0  0  0
  5  6  1  0  0  0  0
  5 13  1  6  0  0  0
  6  7  1  0  0  0  0
  6 15  1  6  0  0  0
  7  8  1  0  0  0  0
  7 11  1  6  0  0  0
  8 14  1  0  0  0  0
  8 16  1  1  0  0  0
  9 11  1  0  0  0  0
 17 16  1  6  0  0  0
 17 18  1  0  0  0  0
 17 24  1  0  0  0  0
 18 19  1  0  0  0  0
 18 25  1  6  0  0  0
 19 20  1  0  0  0  0
 19 26  1  1  0  0  0
 20 21  1  0  0  0  0
 20 23  1  6  0  0  0
 21 22  1  1  0  0  0
 21 24  1  0  0  0  0
 22 27  1  0  0  0  0
 28 12  1  6  0  0  0
 28 29  1  0  0  0  0
 28 33  1  0  0  0  0
 29 30  1  0  0  0  0
 29 36  1  1  0  0  0
 30 31  1  0  0  0  0
 30 37  1  6  0  0  0
 31 32  1  0  0  0  0
 31 34  1  1  0  0  0
 32 33  1  0  0  0  0
 33 35  1  1  0  0  0
M  END
>  <CHROM.1>
-63.83131040,70.04053119,177.13331857,173.43252855,165.98593544,-66.92509875
-5.60127725,26.08090558,66.32966532,-2.85307417,0.19062771,1.13507575

>  <Name>
ligand

>  <RI>
0

>  <Rbt.Current_Directory>
/home/itssahil/PROJECTS/Mol_Feturizer/Test_systems_manuscript/rnas/2g5k

>  <Rbt.Executable>
rbdock ($Id: //depot/dev/client3/rdock/2013.1/src/exe/rbdock.cxx#4 $)

>  <Rbt.Library>
libRbt.so (2013.1, Build901 2013/11/27)

>  <Rbt.Parameter_File>
/export/apps/rDock/src/rDock_2013.1_src/data/scripts/dock_solv.prm

>  <Rbt.Receptor>
prm/pocket_docking_7.prm

>  <SCORE>
-11.5915

>  <SCORE.INTER>
-9.46746

>  <SCORE.INTER.CONST>
1

>  <SCORE.INTER.POLAR>
0

>  <SCORE.INTER.ROT>
6

>  <SCORE.INTER.SOLV>
16.062

>  <SCORE.INTER.VDW>
-19.2656

>  <SCORE.INTER.norm>
-0.255877

>  <SCORE.INTRA>
-2.12968

>  <SCORE.INTRA.DIHEDRAL>
-9.86065

>  <SCORE.INTRA.DIHEDRAL.0>
11.3972

>  <SCORE.INTRA.POLAR>
0

>  <SCORE.INTRA.POLAR.0>
0

>  <SCORE.INTRA.REPUL>
0

>  <SCORE.INTRA.REPUL.0>
0

>  <SCORE.INTRA.SOLV>
3.75878

>  <SCORE.INTRA.SOLV.lig_0>
-92.3891

>  <SCORE.INTRA.VDW>
0.921254

>  <SCORE.INTRA.VDW.0>
-2.90606

>  <SCORE.INTRA.norm>
-0.057559

>  <SCORE.RESTR>
0.00568198

>  <SCORE.RESTR.CAVITY>
0.00568198

>  <SCORE.RESTR.norm>
0.000153567

>  <SCORE.SYSTEM>
0

>  <SCORE.SYSTEM.CONST>
0

>  <SCORE.SYSTEM.DIHEDRAL>
0

>  <SCORE.SYSTEM.SOLV>
0

>  <SCORE.SYSTEM.norm>
0

>  <SCORE.heavy>
37

>  <SCORE.norm>
-0.313283

>  <RMSD>
9.877

$$$$
ligand
 OpenBabel02271912133D
libRbt.so/2013.1/901 2013/11/27
 37 40  0  0  0  0  0  0  0  0999 V2000
   -9.4346   20.4754   69.2586 C   0  0  1  0  0  0  0  0  0  0  0  0
   -9.9834   20.5779   67.8071 C   0  0  1  0  0  0  0  0  0  0  0  0
   -8.8760   20.9287   66.7951 C   0  0  0  0  0  0  0  0  0  0  0  0
   -8.1979   22.2649   67.2309 C   0  0  1  0  0  0  0  0  0  0  0  0
   -7.6032   22.1371   68.6708 C   0  0  1  0  0  0  0  0  0  0  0  0
   -6.9176   23.5133   69.0960 C   0  0  1  0  0  0  0  0  0  0  0  0
   -5.7938   23.8548   68.0741 C   0  0  1  0  0  0  0  0  0  0  0  0
   -6.4355   23.9354   66.6562 C   0  0  2  0  0  0  0  0  0  0  0  0
   -3.7355   25.4230   67.9531 C   0  0  0  0  0  0  0  0  0  0  0  0
  -10.6610   19.3234   67.4168 N   0  0  0  0  0  0  0  0  0  0  0  0
   -5.1290   25.1624   68.4361 N   0  0  0  0  0  0  0  0  0  0  0  0
   -8.5679   19.3391   69.4430 O   0  0  0  0  0  0  0  0  0  0  0  0
   -8.7186   21.7377   69.5800 O   0  0  0  0  0  0  0  0  0  0  0  0
   -7.1023   22.6780   66.2935 O   0  0  0  0  0  0  0  0  0  0  0  0
   -7.8806   24.5587   69.0650 O   0  0  0  0  0  0  0  0  0  0  0  0
   -5.4374   24.2274   65.6848 O   0  0  0  0  0  0  0  0  0  0  0  0
   -5.8638   25.1654   64.6662 C   0  0  2  0  0  0  0  0  0  0  0  0
   -5.9641   26.6175   65.1905 C   0  0  1  0  0  0  0  0  0  0  0  0
   -7.1072   26.7499   66.2479 C   0  0  2  0  0  0  0  0  0  0  0  0
   -8.4229   26.3668   65.6011 C   0  0  1  0  0  0  0  0  0  0  0  0
   -8.3290   24.8947   65.0995 C   0  0  1  0  0  0  0  0  0  0  0  0
   -9.6138   24.4371   64.4118 C   0  0  0  0  0  0  0  0  0  0  0  0
   -9.5163   26.5113   66.5923 N   0  0  0  0  0  0  0  0  0  0  0  0
   -7.1994   24.7698   64.1276 O   0  0  0  0  0  0  0  0  0  0  0  0
   -4.6712   26.9720   65.7297 O   0  0  0  0  0  0  0  0  0  0  0  0
   -7.1911   28.1014   66.7056 O   0  0  0  0  0  0  0  0  0  0  0  0
   -9.4688   23.1006   63.9969 O   0  0  0  0  0  0  0  0  0  0  0  0
   -8.3105   18.7030   70.7918 C   0  0  1  0  0  0  0  0  0  0  0  0
   -7.8625   19.8154   71.7790 C   0  0  1  0  0  0  0  0  0  0  0  0
   -7.5828   19.2024   73.1817 C   0  0  2  0  0  0  0  0  0  0  0  0
   -8.8762   18.5359   73.7120 C   0  0  1  0  0  0  0  0  0  0  0  0
   -9.3479   17.3992   72.7359 C   0  0  0  0  0  0  0  0  0  0  0  0
   -9.6030   18.0275   71.3494 C   0  0  2  0  0  0  0  0  0  0  0  0
   -8.6234   17.9540   75.0521 N   0  0  0  0  0  0  0  0  0  0  0  0
  -10.0416   16.9599   70.4440 N   0  0  0  0  0  0  0  0  0  0  0  0
   -6.6571   20.4399   71.2848 O   0  0  0  0  0  0  0  0  0  0  0  0
   -7.1625   20.2553   74.0776 O   0  0  0  0  0  0  0  0  0  0  0  0
  1  2  1  0  0  0  0
  1 12  1  6  0  0  0
  1 13  1  0  0  0  0
  2  3  1  0  0  0  0
  2 10  1  6  0  0  0
  4  3  1  6  0  0  0
  4  5  1  0  0  0  0
  4 14  1  0  0  0  0
  5  6  1  0  0  0  0
  5 13  1  1  0  0  0
  6  7  1  0  0  0  0
  6 15  1  6  0  0  0
  7  8  1  0  0  0  0
  7 11  1  1  0  0  0
  8 14  1  0  0  0  0
  8 16  1  6  0  0  0
  9 11  1  0  0  0  0
 17 16  1  1  0  0  0
 17 18  1  0  0  0  0
 17 24  1  0  0  0  0
 18 19  1  0  0  0  0
 18 25  1  1  0  0  0
 19 20  1  0  0  0  0
 19 26  1  6  0  0  0
 20 21  1  0  0  0  0
 20 23  1  1  0  0  0
 21 22  1  6  0  0  0
 21 24  1  0  0  0  0
 22 27  1  0  0  0  0
 28 12  1  6  0  0  0
 28 29  1  0  0  0  0
 28 33  1  0  0  0  0
 29 30  1  0  0  0  0
 29 36  1  6  0  0  0
 30 31  1  0  0  0  0
 30 37  1  1  0  0  0
 31 32  1  0  0  0  0
 31 34  1  1  0  0  0
 32 33  1  0  0  0  0
 33 35  1  6  0  0  0
M  END
>  <CHROM.1>
-156.67370859,156.52873624,-139.73503280,-52.60686864,73.29127569,-179.38273440
-7.75199000,22.50470026,68.35667326,1.84687236,0.79729896,2.19904995

>  <Name>
ligand

>  <RI>
0

>  <Rbt.Current_Directory>
/home/itssahil/PROJECTS/Mol_Feturizer/Test_systems_manuscript/rnas/2g5k

>  <Rbt.Executable>
rbdock ($Id: //depot/dev/client3/rdock/2013.1/src/exe/rbdock.cxx#4 $)

>  <Rbt.Library>
libRbt.so (2013.1, Build901 2013/11/27)

>  <Rbt.Parameter_File>
/export/apps/rDock/src/rDock_2013.1_src/data/scripts/dock_solv.prm

>  <Rbt.Receptor>
prm/blind_docking_80.prm

>  <SCORE>
13.4106

>  <SCORE.INTER>
3.0721

>  <SCORE.INTER.CONST>
1

>  <SCORE.INTER.POLAR>
0

>  <SCORE.INTER.ROT>
6

>  <SCORE.INTER.SOLV>
18.6976

>  <SCORE.INTER.VDW>
-11.7845

>  <SCORE.INTER.norm>
0.0830297

>  <SCORE.INTRA>
2.70553

>  <SCORE.INTRA.DIHEDRAL>
-2.08457

>  <SCORE.INTRA.DIHEDRAL.0>
11.3972

>  <SCORE.INTRA.POLAR>
0

>  <SCORE.INTRA.POLAR.0>
0

>  <SCORE.INTRA.REPUL>
0

>  <SCORE.INTRA.REPUL.0>
0

>  <SCORE.INTRA.SOLV>
3.85735

>  <SCORE.INTRA.SOLV.lig_0>
-92.3891

>  <SCORE.INTRA.VDW>
1.81914

>  <SCORE.INTRA.VDW.0>
-2.90606

>  <SCORE.INTRA.norm>
0.0731224

>  <SCORE.RESTR>
7.633

>  <SCORE.RESTR.CAVITY>
7.633

>  <SCORE.RESTR.norm>
0.206297

>  <SCORE.SYSTEM>
0

>  <SCORE.SYSTEM.CONST>
0

>  <SCORE.SYSTEM.DIHEDRAL>
0

>  <SCORE.SYSTEM.SOLV>
0

>  <SCORE.SYSTEM.norm>
0

>  <SCORE.heavy>
37

>  <SCORE.norm>
0.362449

>  <RMSD>
9.885

$$$$
ligand
 OpenBabel02271912133D
libRbt.so/2013.1/901 2013/11/27
 37 40  0  0  0  0  0  0  0  0999 V2000
   -6.6942   31.9719   65.5172 C   0  0  1  0  0  0  0  0  0  0  0  0
   -5.5198   32.4796   64.6332 C   0  0  1  0  0  0  0  0  0  0  0  0
   -4.6967   31.3179   64.0447 C   0  0  0  0  0  0  0  0  0  0  0  0
   -4.1708   30.4280   65.2138 C   0  0  1  0  0  0  0  0  0  0  0  0
   -5.3603   29.8792   66.0666 C   0  0  1  0  0  0  0  0  0  0  0  0
   -4.8003   28.9750   67.2556 C   0  0  1  0  0  0  0  0  0  0  0  0
   -3.9787   27.7985   66.6518 C   0  0  1  0  0  0  0  0  0  0  0  0
   -2.8315   28.4018   65.7865 C   0  0  2  0  0  0  0  0  0  0  0  0
   -3.1788   25.4743   67.4695 C   0  0  0  0  0  0  0  0  0  0  0  0
   -6.0216   33.3557   63.5534 N   0  0  0  0  0  0  0  0  0  0  0  0
   -3.4184   26.9258   67.7504 N   0  0  0  0  0  0  0  0  0  0  0  0
   -7.7194   31.3123   64.7488 O   0  0  0  0  0  0  0  0  0  0  0  0
   -6.1427   31.0559   66.5496 O   0  0  0  0  0  0  0  0  0  0  0  0
   -3.3564   29.2681   64.7228 O   0  0  0  0  0  0  0  0  0  0  0  0
   -3.9350   29.7466   68.0785 O   0  0  0  0  0  0  0  0  0  0  0  0
   -2.0640   27.3582   65.1974 O   0  0  0  0  0  0  0  0  0  0  0  0
   -0.7402   27.7678   64.7745 C   0  0  2  0  0  0  0  0  0  0  0  0
   -0.0918   26.7736   63.7822 C   0  0  1  0  0  0  0  0  0  0  0  0
    0.2021   25.4051   64.4775 C   0  0  2  0  0  0  0  0  0  0  0  0
    1.1510   25.6353   65.6362 C   0  0  1  0  0  0  0  0  0  0  0  0
    0.4839   26.6146   66.6480 C   0  0  1  0  0  0  0  0  0  0  0  0
    1.3899   26.9171   67.8400 C   0  0  0  0  0  0  0  0  0  0  0  0
    1.4525   24.3378   66.2877 N   0  0  0  0  0  0  0  0  0  0  0  0
    0.1609   27.9014   65.9580 O   0  0  0  0  0  0  0  0  0  0  0  0
   -0.9894   26.6387   62.6579 O   0  0  0  0  0  0  0  0  0  0  0  0
    0.8144   24.5093   63.5470 O   0  0  0  0  0  0  0  0  0  0  0  0
    2.5781   27.5148   67.3813 O   0  0  0  0  0  0  0  0  0  0  0  0
   -8.9513   30.6914   65.3708 C   0  0  1  0  0  0  0  0  0  0  0  0
   -8.5135   29.4348   66.1721 C   0  0  1  0  0  0  0  0  0  0  0  0
   -9.7541   28.7613   66.8271 C   0  0  2  0  0  0  0  0  0  0  0  0
  -10.4331   29.7704   67.7857 C   0  0  1  0  0  0  0  0  0  0  0  0
  -10.8946   31.0494   66.9991 C   0  0  0  0  0  0  0  0  0  0  0  0
   -9.6515   31.6899   66.3458 C   0  0  2  0  0  0  0  0  0  0  0  0
  -11.6133   29.1369   68.4215 N   0  0  0  0  0  0  0  0  0  0  0  0
  -10.0909   32.8821   65.6126 N   0  0  0  0  0  0  0  0  0  0  0  0
   -7.8778   28.4931   65.2798 O   0  0  0  0  0  0  0  0  0  0  0  0
   -9.3208   27.5937   67.5598 O   0  0  0  0  0  0  0  0  0  0  0  0
  1  2  1  0  0  0  0
  1 12  1  6  0  0  0
  1 13  1  0  0  0  0
  2  3  1  0  0  0  0
  2 10  1  6  0  0  0
  4  3  1  6  0  0  0
  4  5  1  0  0  0  0
  4 14  1  0  0  0  0
  5  6  1  0  0  0  0
  5 13  1  1  0  0  0
  6  7  1  0  0  0  0
  6 15  1  1  0  0  0
  7  8  1  0  0  0  0
  7 11  1  1  0  0  0
  8 14  1  0  0  0  0
  8 16  1  6  0  0  0
  9 11  1  0  0  0  0
 17 16  1  1  0  0  0
 17 18  1  0  0  0  0
 17 24  1  0  0  0  0
 18 19  1  0  0  0  0
 18 25  1  6  0  0  0
 19 20  1  0  0  0  0
 19 26  1  6  0  0  0
 20 21  1  0  0  0  0
 20 23  1  1  0  0  0
 21 22  1  1  0  0  0
 21 24  1  0  0  0  0
 22 27  1  0  0  0  0
 28 12  1  1  0  0  0
 28 29  1  0  0  0  0
 28 33  1  0  0  0  0
 29 30  1  0  0  0  0
 29 36  1  6  0  0  0
 30 31  1  0  0  0  0
 30 37  1  1  0  0  0
 31 32  1  0  0  0  0
 31 34  1  6  0  0  0
 32 33  1  0  0  0  0
 33 35  1  6  0  0  0
M  END
>  <CHROM.1>
178.20190886,151.43561189,-159.65036370,-69.54033308,-162.94718148,60.44784994
-4.39590603,28.75872310,65.90156361,-2.82676222,-0.30430176,2.56321300

>  <Name>
ligand

>  <RI>
0

>  <Rbt.Current_Directory>
/home/itssahil/PROJECTS/Mol_Feturizer/Test_systems_manuscript/rnas/2g5k

>  <Rbt.Executable>
rbdock ($Id: //depot/dev/client3/rdock/2013.1/src/exe/rbdock.cxx#4 $)

>  <Rbt.Library>
libRbt.so (2013.1, Build901 2013/11/27)

>  <Rbt.Parameter_File>
/export/apps/rDock/src/rDock_2013.1_src/data/scripts/dock_solv.prm

>  <Rbt.Receptor>
prm/pocket_docking_3.prm

>  <SCORE>
-6.52271

>  <SCORE.INTER>
-2.05414

>  <SCORE.INTER.CONST>
1

>  <SCORE.INTER.POLAR>
0

>  <SCORE.INTER.ROT>
6

>  <SCORE.INTER.SOLV>
14.5651

>  <SCORE.INTER.VDW>
-13.8245

>  <SCORE.INTER.norm>
-0.0555173

>  <SCORE.INTRA>
-4.46857

>  <SCORE.INTRA.DIHEDRAL>
-7.16131

>  <SCORE.INTRA.DIHEDRAL.0>
11.3972

>  <SCORE.INTRA.POLAR>
0

>  <SCORE.INTRA.POLAR.0>
0

>  <SCORE.INTRA.REPUL>
0

>  <SCORE.INTRA.REPUL.0>
0

>  <SCORE.INTRA.SOLV>
-0.0416995

>  <SCORE.INTRA.SOLV.lig_0>
-92.3891

>  <SCORE.INTRA.VDW>
-0.867064

>  <SCORE.INTRA.VDW.0>
-2.90606

>  <SCORE.INTRA.norm>
-0.120772

>  <SCORE.RESTR>
0

>  <SCORE.RESTR.CAVITY>
0

>  <SCORE.RESTR.norm>
0

>  <SCORE.SYSTEM>
0

>  <SCORE.SYSTEM.CONST>
0

>  <SCORE.SYSTEM.DIHEDRAL>
0

>  <SCORE.SYSTEM.SOLV>
0

>  <SCORE.SYSTEM.norm>
0

>  <SCORE.heavy>
37

>  <SCORE.norm>
-0.176289

>  <RMSD>
9.887

$$$$
ligand
 OpenBabel02271912133D
libRbt.so/2013.1/901 2013/11/27
 37 40  0  0  0  0  0  0  0  0999 V2000
   -7.7112   29.4823   66.8414 C   0  0  1  0  0  0  0  0  0  0  0  0
   -7.2894   29.6179   65.3507 C   0  0  1  0  0  0  0  0  0  0  0  0
   -6.1142   28.6867   64.9967 C   0  0  0  0  0  0  0  0  0  0  0  0
   -4.9164   29.0013   65.9462 C   0  0  1  0  0  0  0  0  0  0  0  0
   -5.3337   28.8123   67.4408 C   0  0  1  0  0  0  0  0  0  0  0  0
   -4.0963   29.1406   68.3925 C   0  0  1  0  0  0  0  0  0  0  0  0
   -2.9173   28.1888   68.0349 C   0  0  1  0  0  0  0  0  0  0  0  0
   -2.5675   28.3940   66.5301 C   0  0  2  0  0  0  0  0  0  0  0  0
   -1.6708   27.8980   70.2870 C   0  0  0  0  0  0  0  0  0  0  0  0
   -8.4394   29.3598   64.4585 N   0  0  0  0  0  0  0  0  0  0  0  0
   -1.7189   28.4797   68.9077 N   0  0  0  0  0  0  0  0  0  0  0  0
   -8.3158   28.2068   67.1310 O   0  0  0  0  0  0  0  0  0  0  0  0
   -6.5103   29.6974   67.6904 O   0  0  0  0  0  0  0  0  0  0  0  0
   -3.7262   28.1326   65.6662 O   0  0  0  0  0  0  0  0  0  0  0  0
   -3.6686   30.4795   68.1788 O   0  0  0  0  0  0  0  0  0  0  0  0
   -1.5039   27.5268   66.1537 O   0  0  0  0  0  0  0  0  0  0  0  0
   -1.0331   27.7266   64.7981 C   0  0  2  0  0  0  0  0  0  0  0  0
    0.2882   26.9774   64.5042 C   0  0  1  0  0  0  0  0  0  0  0  0
    1.4643   27.5726   65.3438 C   0  0  2  0  0  0  0  0  0  0  0  0
    1.6354   29.0345   64.9840 C   0  0  1  0  0  0  0  0  0  0  0  0
    0.3129   29.7922   65.3076 C   0  0  1  0  0  0  0  0  0  0  0  0
    0.3962   31.2751   64.9509 C   0  0  0  0  0  0  0  0  0  0  0  0
    2.7645   29.6012   65.7605 N   0  0  0  0  0  0  0  0  0  0  0  0
   -0.8136   29.1807   64.5375 O   0  0  0  0  0  0  0  0  0  0  0  0
    0.0630   25.5782   64.7862 O   0  0  0  0  0  0  0  0  0  0  0  0
    2.6759   26.8760   65.0443 O   0  0  0  0  0  0  0  0  0  0  0  0
    1.1728   31.9428   65.9155 O   0  0  0  0  0  0  0  0  0  0  0  0
   -8.7635   27.7973   68.5173 C   0  0  1  0  0  0  0  0  0  0  0  0
   -9.9820   28.6742   68.9161 C   0  0  1  0  0  0  0  0  0  0  0  0
  -10.4736   28.2875   70.3411 C   0  0  2  0  0  0  0  0  0  0  0  0
  -10.8905   26.7961   70.3473 C   0  0  1  0  0  0  0  0  0  0  0  0
   -9.6731   25.8841   69.9554 C   0  0  0  0  0  0  0  0  0  0  0  0
   -9.1935   26.2966   68.5475 C   0  0  2  0  0  0  0  0  0  0  0  0
  -11.3677   26.4178   71.6992 N   0  0  0  0  0  0  0  0  0  0  0  0
   -8.0564   25.4417   68.1897 N   0  0  0  0  0  0  0  0  0  0  0  0
   -9.5955   30.0663   68.9087 O   0  0  0  0  0  0  0  0  0  0  0  0
  -11.6015   29.1207   70.6896 O   0  0  0  0  0  0  0  0  0  0  0  0
  1  2  1  0  0  0  0
  1 12  1  6  0  0  0
  1 13  1  0  0  0  0
  2  3  1  0  0  0  0
  2 10  1  6  0  0  0
  4  3  1  6  0  0  0
  4  5  1  0  0  0  0
  4 14  1  0  0  0  0
  5  6  1  0  0  0  0
  5 13  1  1  0  0  0
  6  7  1  0  0  0  0
  6 15  1  6  0  0  0
  7  8  1  0  0  0  0
  7 11  1  1  0  0  0
  8 14  1  0  0  0  0
  8 16  1  6  0  0  0
  9 11  1  0  0  0  0
 17 16  1  1  0  0  0
 17 18  1  0  0  0  0
 17 24  1  0  0  0  0
 18 19  1  0  0  0  0
 18 25  1  1  0  0  0
 19 20  1  0  0  0  0
 19 26  1  6  0  0  0
 20 21  1  0  0  0  0
 20 23  1  1  0  0  0
 21 22  1  6  0  0  0
 21 24  1  0  0  0  0
 22 27  1  0  0  0  0
 28 12  1  6  0  0  0
 28 29  1  0  0  0  0
 28 33  1  0  0  0  0
 29 30  1  0  0  0  0
 29 36  1  1  0  0  0
 30 31  1  0  0  0  0
 30 37  1  6  0  0  0
 31 32  1  0  0  0  0
 31 34  1  1  0  0  0
 32 33  1  0  0  0  0
 33 35  1  1  0  0  0
M  END
>  <CHROM.1>
177.42598848,81.66750826,-175.06655474,68.48636856,168.77137462,-75.41316656
-4.47391738,28.43526117,67.13041324,2.87147047,-0.22536956,2.44938211

>  <Name>
ligand

>  <RI>
0

>  <Rbt.Current_Directory>
/home/itssahil/PROJECTS/Mol_Feturizer/Test_systems_manuscript/rnas/2g5k

>  <Rbt.Executable>
rbdock ($Id: //depot/dev/client3/rdock/2013.1/src/exe/rbdock.cxx#4 $)

>  <Rbt.Library>
libRbt.so (2013.1, Build901 2013/11/27)

>  <Rbt.Parameter_File>
/export/apps/rDock/src/rDock_2013.1_src/data/scripts/dock_solv.prm

>  <Rbt.Receptor>
prm/pocket_docking_6.prm

>  <SCORE>
-9.81108

>  <SCORE.INTER>
-5.33577

>  <SCORE.INTER.CONST>
1

>  <SCORE.INTER.POLAR>
0

>  <SCORE.INTER.ROT>
6

>  <SCORE.INTER.SOLV>
18.2181

>  <SCORE.INTER.VDW>
-17.2299

>  <SCORE.INTER.norm>
-0.14421

>  <SCORE.INTRA>
-4.47531

>  <SCORE.INTRA.DIHEDRAL>
-9.09992

>  <SCORE.INTRA.DIHEDRAL.0>
11.3972

>  <SCORE.INTRA.POLAR>
0

>  <SCORE.INTRA.POLAR.0>
0

>  <SCORE.INTRA.REPUL>
0

>  <SCORE.INTRA.REPUL.0>
0

>  <SCORE.INTRA.SOLV>
-0.846166

>  <SCORE.INTRA.SOLV.lig_0>
-92.3891

>  <SCORE.INTRA.VDW>
0.497734

>  <SCORE.INTRA.VDW.0>
-2.90606

>  <SCORE.INTRA.norm>
-0.120954

>  <SCORE.RESTR>
0

>  <SCORE.RESTR.CAVITY>
0

>  <SCORE.RESTR.norm>
0

>  <SCORE.SYSTEM>
0

>  <SCORE.SYSTEM.CONST>
0

>  <SCORE.SYSTEM.DIHEDRAL>
0

>  <SCORE.SYSTEM.SOLV>
0

>  <SCORE.SYSTEM.norm>
0

>  <SCORE.heavy>
37

>  <SCORE.norm>
-0.265164

>  <RMSD>
9.905

$$$$
ligand
 OpenBabel02271912133D
libRbt.so/2013.1/901 2013/11/27
 37 40  0  0  0  0  0  0  0  0999 V2000
   -8.1811   30.4186   67.2622 C   0  0  1  0  0  0  0  0  0  0  0  0
   -7.8446   31.0860   65.8985 C   0  0  1  0  0  0  0  0  0  0  0  0
   -6.8337   30.2564   65.0840 C   0  0  0  0  0  0  0  0  0  0  0  0
   -5.5439   30.0511   65.9380 C   0  0  1  0  0  0  0  0  0  0  0  0
   -5.8829   29.3329   67.2844 C   0  0  1  0  0  0  0  0  0  0  0  0
   -4.5519   29.1354   68.1412 C   0  0  1  0  0  0  0  0  0  0  0  0
   -3.5404   28.2879   67.3150 C   0  0  1  0  0  0  0  0  0  0  0  0
   -3.2664   29.0317   65.9732 C   0  0  2  0  0  0  0  0  0  0  0  0
   -2.2640   27.1794   69.2777 C   0  0  0  0  0  0  0  0  0  0  0  0
   -9.0758   31.3156   65.1132 N   0  0  0  0  0  0  0  0  0  0  0  0
   -2.2582   28.0911   68.0896 N   0  0  0  0  0  0  0  0  0  0  0  0
   -8.9338   29.1994   67.1102 O   0  0  0  0  0  0  0  0  0  0  0  0
   -6.9084   30.1616   67.9857 O   0  0  0  0  0  0  0  0  0  0  0  0
   -4.5048   29.2480   65.2135 O   0  0  0  0  0  0  0  0  0  0  0  0
   -3.9604   30.4005   68.4072 O   0  0  0  0  0  0  0  0  0  0  0  0
   -2.3587   28.2805   65.1752 O   0  0  0  0  0  0  0  0  0  0  0  0
   -2.0556   28.8901   63.8963 C   0  0  2  0  0  0  0  0  0  0  0  0
   -1.0818   28.0435   63.0427 C   0  0  1  0  0  0  0  0  0  0  0  0
    0.3300   27.9777   63.7098 C   0  0  2  0  0  0  0  0  0  0  0  0
    0.8802   29.3837   63.8375 C   0  0  1  0  0  0  0  0  0  0  0  0
   -0.0878   30.2262   64.7211 C   0  0  1  0  0  0  0  0  0  0  0  0
    0.3864   31.6694   64.8809 C   0  0  0  0  0  0  0  0  0  0  0  0
    2.2297   29.3279   64.4496 N   0  0  0  0  0  0  0  0  0  0  0  0
   -1.4476   30.2390   64.0991 O   0  0  0  0  0  0  0  0  0  0  0  0
   -1.6755   26.7363   62.8795 O   0  0  0  0  0  0  0  0  0  0  0  0
    1.2156   27.2047   62.8967 O   0  0  0  0  0  0  0  0  0  0  0  0
   -0.4869   32.3529   65.7466 O   0  0  0  0  0  0  0  0  0  0  0  0
   -9.3774   28.3476   68.2797 C   0  0  1  0  0  0  0  0  0  0  0  0
  -10.3424   29.1894   69.1588 C   0  0  1  0  0  0  0  0  0  0  0  0
  -10.8212   28.3502   70.3788 C   0  0  2  0  0  0  0  0  0  0  0  0
  -11.5602   27.0885   69.8688 C   0  0  1  0  0  0  0  0  0  0  0  0
  -10.6037   26.2127   68.9826 C   0  0  0  0  0  0  0  0  0  0  0  0
  -10.1297   27.0701   67.7899 C   0  0  2  0  0  0  0  0  0  0  0  0
  -12.0275   26.2841   71.0234 N   0  0  0  0  0  0  0  0  0  0  0  0
   -9.2364   26.2459   66.9685 N   0  0  0  0  0  0  0  0  0  0  0  0
   -9.6553   30.3683   69.6337 O   0  0  0  0  0  0  0  0  0  0  0  0
  -11.7109   29.1571   71.1820 O   0  0  0  0  0  0  0  0  0  0  0  0
  1  2  1  0  0  0  0
  1 12  1  6  0  0  0
  1 13  1  0  0  0  0
  2  3  1  0  0  0  0
  2 10  1  6  0  0  0
  4  3  1  6  0  0  0
  4  5  1  0  0  0  0
  4 14  1  0  0  0  0
  5  6  1  0  0  0  0
  5 13  1  1  0  0  0
  6  7  1  0  0  0  0
  6 15  1  6  0  0  0
  7  8  1  0  0  0  0
  7 11  1  1  0  0  0
  8 14  1  0  0  0  0
  8 16  1  6  0  0  0
  9 11  1  0  0  0  0
 17 16  1  1  0  0  0
 17 18  1  0  0  0  0
 17 24  1  0  0  0  0
 18 19  1  0  0  0  0
 18 25  1  1  0  0  0
 19 20  1  0  0  0  0
 19 26  1  6  0  0  0
 20 21  1  0  0  0  0
 20 23  1  1  0  0  0
 21 22  1  6  0  0  0
 21 24  1  0  0  0  0
 22 27  1  0  0  0  0
 28 12  1  6  0  0  0
 28 29  1  0  0  0  0
 28 33  1  0  0  0  0
 29 30  1  0  0  0  0
 29 36  1  1  0  0  0
 30 31  1  0  0  0  0
 30 37  1  1  0  0  0
 31 32  1  0  0  0  0
 31 34  1  1  0  0  0
 32 33  1  0  0  0  0
 33 35  1  6  0  0  0
M  END
>  <CHROM.1>
179.39767026,71.43309857,179.33127132,62.55151974,-179.24709736,-176.72857384
-5.18026967,28.98410561,66.66266398,3.00167055,-0.42410443,2.97630516

>  <Name>
ligand

>  <RI>
0

>  <Rbt.Current_Directory>
/home/itssahil/PROJECTS/Mol_Feturizer/Test_systems_manuscript/rnas/2g5k

>  <Rbt.Executable>
rbdock ($Id: //depot/dev/client3/rdock/2013.1/src/exe/rbdock.cxx#4 $)

>  <Rbt.Library>
libRbt.so (2013.1, Build901 2013/11/27)

>  <Rbt.Parameter_File>
/export/apps/rDock/src/rDock_2013.1_src/data/scripts/dock_solv.prm

>  <Rbt.Receptor>
prm/pocket_docking_7.prm

>  <SCORE>
-13.8212

>  <SCORE.INTER>
-8.02467

>  <SCORE.INTER.CONST>
1

>  <SCORE.INTER.POLAR>
0

>  <SCORE.INTER.ROT>
6

>  <SCORE.INTER.SOLV>
12.8136

>  <SCORE.INTER.VDW>
-17.221

>  <SCORE.INTER.norm>
-0.216883

>  <SCORE.INTRA>
-5.7965

>  <SCORE.INTRA.DIHEDRAL>
-11.1761

>  <SCORE.INTRA.DIHEDRAL.0>
11.3972

>  <SCORE.INTRA.POLAR>
0

>  <SCORE.INTRA.POLAR.0>
0

>  <SCORE.INTRA.REPUL>
0

>  <SCORE.INTRA.REPUL.0>
0

>  <SCORE.INTRA.SOLV>
-1.98678

>  <SCORE.INTRA.SOLV.lig_0>
-92.3891

>  <SCORE.INTRA.VDW>
0.784936

>  <SCORE.INTRA.VDW.0>
-2.90606

>  <SCORE.INTRA.norm>
-0.156662

>  <SCORE.RESTR>
0

>  <SCORE.RESTR.CAVITY>
0

>  <SCORE.RESTR.norm>
0

>  <SCORE.SYSTEM>
0

>  <SCORE.SYSTEM.CONST>
0

>  <SCORE.SYSTEM.DIHEDRAL>
0

>  <SCORE.SYSTEM.SOLV>
0

>  <SCORE.SYSTEM.norm>
0

>  <SCORE.heavy>
37

>  <SCORE.norm>
-0.373545

>  <RMSD>
9.911

$$$$
ligand
 OpenBabel02271912133D
libRbt.so/2013.1/901 2013/11/27
 37 40  0  0  0  0  0  0  0  0999 V2000
   -6.4370   31.6228   68.0353 C   0  0  1  0  0  0  0  0  0  0  0  0
   -5.5553   32.8238   67.5895 C   0  0  1  0  0  0  0  0  0  0  0  0
   -4.3129   32.3662   66.8018 C   0  0  0  0  0  0  0  0  0  0  0  0
   -3.4952   31.3700   67.6816 C   0  0  1  0  0  0  0  0  0  0  0  0
   -4.3730   30.1402   68.0824 C   0  0  1  0  0  0  0  0  0  0  0  0
   -3.5188   29.1373   68.9819 C   0  0  1  0  0  0  0  0  0  0  0  0
   -2.2712   28.6723   68.1748 C   0  0  1  0  0  0  0  0  0  0  0  0
   -1.4542   29.9372   67.7732 C   0  0  2  0  0  0  0  0  0  0  0  0
   -1.9671   26.3705   69.3235 C   0  0  0  0  0  0  0  0  0  0  0  0
   -6.3476   33.7837   66.7920 N   0  0  0  0  0  0  0  0  0  0  0  0
   -1.4275   27.7299   69.0011 N   0  0  0  0  0  0  0  0  0  0  0  0
   -7.0808   30.9675   66.9252 O   0  0  0  0  0  0  0  0  0  0  0  0
   -5.5819   30.6652   68.7844 O   0  0  0  0  0  0  0  0  0  0  0  0
   -2.2638   30.8742   66.9834 O   0  0  0  0  0  0  0  0  0  0  0  0
   -3.0681   29.8074   70.1519 O   0  0  0  0  0  0  0  0  0  0  0  0
   -0.3111   29.5593   67.0145 O   0  0  0  0  0  0  0  0  0  0  0  0
    0.5792   30.6592   66.7037 C   0  0  2  0  0  0  0  0  0  0  0  0
    1.3743   30.4376   65.3953 C   0  0  1  0  0  0  0  0  0  0  0  0
    2.3754   29.2471   65.5471 C   0  0  2  0  0  0  0  0  0  0  0  0
    3.3463   29.5602   66.6675 C   0  0  1  0  0  0  0  0  0  0  0  0
    2.5454   29.7548   67.9898 C   0  0  1  0  0  0  0  0  0  0  0  0
    3.4540   30.0973   69.1689 C   0  0  0  0  0  0  0  0  0  0  0  0
    4.3139   28.4447   66.8033 N   0  0  0  0  0  0  0  0  0  0  0  0
    1.5557   30.8622   67.8153 O   0  0  0  0  0  0  0  0  0  0  0  0
    0.4138   30.2181   64.3383 O   0  0  0  0  0  0  0  0  0  0  0  0
    3.1089   29.0715   64.3329 O   0  0  0  0  0  0  0  0  0  0  0  0
    4.2251   28.9696   69.5049 O   0  0  0  0  0  0  0  0  0  0  0  0
   -7.9457   29.7352   67.0781 C   0  0  1  0  0  0  0  0  0  0  0  0
   -7.0252   28.5318   67.4206 C   0  0  1  0  0  0  0  0  0  0  0  0
   -7.8762   27.2390   67.5833 C   0  0  2  0  0  0  0  0  0  0  0  0
   -8.8991   27.4448   68.7276 C   0  0  1  0  0  0  0  0  0  0  0  0
   -9.8502   28.6521   68.4031 C   0  0  0  0  0  0  0  0  0  0  0  0
   -8.9834   29.9175   68.2304 C   0  0  2  0  0  0  0  0  0  0  0  0
   -9.7115   26.2160   68.8966 N   0  0  0  0  0  0  0  0  0  0  0  0
   -9.8784   31.0394   67.9265 N   0  0  0  0  0  0  0  0  0  0  0  0
   -6.0686   28.3396   66.3551 O   0  0  0  0  0  0  0  0  0  0  0  0
   -6.9968   26.1356   67.8947 O   0  0  0  0  0  0  0  0  0  0  0  0
  1  2  1  0  0  0  0
  1 12  1  6  0  0  0
  1 13  1  0  0  0  0
  2  3  1  0  0  0  0
  2 10  1  6  0  0  0
  4  3  1  6  0  0  0
  4  5  1  0  0  0  0
  4 14  1  0  0  0  0
  5  6  1  0  0  0  0
  5 13  1  1  0  0  0
  6  7  1  0  0  0  0
  6 15  1  1  0  0  0
  7  8  1  0  0  0  0
  7 11  1  1  0  0  0
  8 14  1  0  0  0  0
  8 16  1  6  0  0  0
  9 11  1  0  0  0  0
 17 16  1  1  0  0  0
 17 18  1  0  0  0  0
 17 24  1  0  0  0  0
 18 19  1  0  0  0  0
 18 25  1  6  0  0  0
 19 20  1  0  0  0  0
 19 26  1  6  0  0  0
 20 21  1  0  0  0  0
 20 23  1  1  0  0  0
 21 22  1  1  0  0  0
 21 24  1  0  0  0  0
 22 27  1  0  0  0  0
 28 12  1  1  0  0  0
 28 29  1  0  0  0  0
 28 33  1  0  0  0  0
 29 30  1  0  0  0  0
 29 36  1  6  0  0  0
 30 31  1  0  0  0  0
 30 37  1  1  0  0  0
 31 32  1  0  0  0  0
 31 34  1  6  0  0  0
 32 33  1  0  0  0  0
 33 35  1  6  0  0  0
M  END
>  <CHROM.1>
177.28126993,68.67977139,-174.44294011,-71.30238696,-152.08272079,-69.64711425
-3.06177667,29.61963262,67.58447797,3.08472354,-0.07166894,2.78952370

>  <Name>
ligand

>  <RI>
0

>  <Rbt.Current_Directory>
/home/itssahil/PROJECTS/Mol_Feturizer/Test_systems_manuscript/rnas/2g5k

>  <Rbt.Executable>
rbdock ($Id: //depot/dev/client3/rdock/2013.1/src/exe/rbdock.cxx#4 $)

>  <Rbt.Library>
libRbt.so (2013.1, Build901 2013/11/27)

>  <Rbt.Parameter_File>
/export/apps/rDock/src/rDock_2013.1_src/data/scripts/dock_solv.prm

>  <Rbt.Receptor>
prm/pocket_docking_6.prm

>  <SCORE>
-9.46871

>  <SCORE.INTER>
-5.92193

>  <SCORE.INTER.CONST>
1

>  <SCORE.INTER.POLAR>
0

>  <SCORE.INTER.ROT>
6

>  <SCORE.INTER.SOLV>
10.517

>  <SCORE.INTER.VDW>
-15.0536

>  <SCORE.INTER.norm>
-0.160052

>  <SCORE.INTRA>
-3.54678

>  <SCORE.INTRA.DIHEDRAL>
-6.96896

>  <SCORE.INTRA.DIHEDRAL.0>
11.3972

>  <SCORE.INTRA.POLAR>
0

>  <SCORE.INTRA.POLAR.0>
0

>  <SCORE.INTRA.REPUL>
0

>  <SCORE.INTRA.REPUL.0>
0

>  <SCORE.INTRA.SOLV>
0.0385843

>  <SCORE.INTRA.SOLV.lig_0>
-92.3891

>  <SCORE.INTRA.VDW>
-0.0815918

>  <SCORE.INTRA.VDW.0>
-2.90606

>  <SCORE.INTRA.norm>
-0.095859

>  <SCORE.RESTR>
0

>  <SCORE.RESTR.CAVITY>
0

>  <SCORE.RESTR.norm>
0

>  <SCORE.SYSTEM>
0

>  <SCORE.SYSTEM.CONST>
0

>  <SCORE.SYSTEM.DIHEDRAL>
0

>  <SCORE.SYSTEM.SOLV>
0

>  <SCORE.SYSTEM.norm>
0

>  <SCORE.heavy>
37

>  <SCORE.norm>
-0.255911

>  <RMSD>
9.916

$$$$
ligand
 OpenBabel02271912133D
libRbt.so/2013.1/901 2013/11/27
 37 40  0  0  0  0  0  0  0  0999 V2000
   -6.0324   28.8529   65.8085 C   0  0  1  0  0  0  0  0  0  0  0  0
   -5.9900   27.3417   65.4437 C   0  0  1  0  0  0  0  0  0  0  0  0
   -4.5741   26.7525   65.5900 C   0  0  0  0  0  0  0  0  0  0  0  0
   -3.5914   27.5702   64.6951 C   0  0  1  0  0  0  0  0  0  0  0  0
   -3.6012   29.0794   65.1026 C   0  0  1  0  0  0  0  0  0  0  0  0
   -2.5924   29.8957   64.1748 C   0  0  1  0  0  0  0  0  0  0  0  0
   -1.1630   29.3003   64.3365 C   0  0  1  0  0  0  0  0  0  0  0  0
   -1.2196   27.7912   63.9515 C   0  0  2  0  0  0  0  0  0  0  0  0
    1.2817   29.9479   63.7756 C   0  0  0  0  0  0  0  0  0  0  0  0
   -6.9537   26.5802   66.2663 N   0  0  0  0  0  0  0  0  0  0  0  0
   -0.1794   30.0399   63.4599 N   0  0  0  0  0  0  0  0  0  0  0  0
   -5.8149   29.0888   67.2132 O   0  0  0  0  0  0  0  0  0  0  0  0
   -5.0105   29.5612   64.9942 O   0  0  0  0  0  0  0  0  0  0  0  0
   -2.1842   27.0583   64.7820 O   0  0  0  0  0  0  0  0  0  0  0  0
   -2.9788   29.7632   62.8131 O   0  0  0  0  0  0  0  0  0  0  0  0
    0.0659   27.2001   64.1038 O   0  0  0  0  0  0  0  0  0  0  0  0
    0.1349   25.8204   63.6669 C   0  0  2  0  0  0  0  0  0  0  0  0
    0.5866   24.8564   64.7894 C   0  0  1  0  0  0  0  0  0  0  0  0
    2.0676   25.1372   65.2019 C   0  0  2  0  0  0  0  0  0  0  0  0
    2.9608   24.9408   63.9937 C   0  0  1  0  0  0  0  0  0  0  0  0
    2.5220   25.9326   62.8750 C   0  0  1  0  0  0  0  0  0  0  0  0
    3.3630   25.7819   61.6089 C   0  0  0  0  0  0  0  0  0  0  0  0
    4.3710   25.1838   64.3824 N   0  0  0  0  0  0  0  0  0  0  0  0
    1.0888   25.6881   62.5254 O   0  0  0  0  0  0  0  0  0  0  0  0
   -0.3325   25.0177   65.8927 O   0  0  0  0  0  0  0  0  0  0  0  0
    2.4672   24.2256   66.2277 O   0  0  0  0  0  0  0  0  0  0  0  0
    3.2337   24.4698   61.1179 O   0  0  0  0  0  0  0  0  0  0  0  0
   -6.1406   30.4006   67.8938 C   0  0  1  0  0  0  0  0  0  0  0  0
   -5.3220   31.5256   67.2033 C   0  0  1  0  0  0  0  0  0  0  0  0
   -5.6249   32.8955   67.8767 C   0  0  2  0  0  0  0  0  0  0  0  0
   -7.1365   33.2043   67.7425 C   0  0  1  0  0  0  0  0  0  0  0  0
   -7.9895   32.0853   68.4407 C   0  0  0  0  0  0  0  0  0  0  0  0
   -7.6604   30.7358   67.7678 C   0  0  2  0  0  0  0  0  0  0  0  0
   -7.4359   34.5115   68.3748 N   0  0  0  0  0  0  0  0  0  0  0  0
   -8.4595   29.6966   68.4260 N   0  0  0  0  0  0  0  0  0  0  0  0
   -3.9114   31.2380   67.3256 O   0  0  0  0  0  0  0  0  0  0  0  0
   -4.8474   33.9218   67.2210 O   0  0  0  0  0  0  0  0  0  0  0  0
  1  2  1  0  0  0  0
  1 12  1  1  0  0  0
  1 13  1  0  0  0  0
  2  3  1  0  0  0  0
  2 10  1  1  0  0  0
  4  3  1  1  0  0  0
  4  5  1  0  0  0  0
  4 14  1  0  0  0  0
  5  6  1  0  0  0  0
  5 13  1  6  0  0  0
  6  7  1  0  0  0  0
  6 15  1  6  0  0  0
  7  8  1  0  0  0  0
  7 11  1  6  0  0  0
  8 14  1  0  0  0  0
  8 16  1  1  0  0  0
  9 11  1  0  0  0  0
 17 16  1  1  0  0  0
 17 18  1  0  0  0  0
 17 24  1  0  0  0  0
 18 19  1  0  0  0  0
 18 25  1  1  0  0  0
 19 20  1  0  0  0  0
 19 26  1  1  0  0  0
 20 21  1  0  0  0  0
 20 23  1  1  0  0  0
 21 22  1  6  0  0  0
 21 24  1  0  0  0  0
 22 27  1  0  0  0  0
 28 12  1  6  0  0  0
 28 29  1  0  0  0  0
 28 33  1  0  0  0  0
 29 30  1  0  0  0  0
 29 36  1  1  0  0  0
 30 31  1  0  0  0  0
 30 37  1  6  0  0  0
 31 32  1  0  0  0  0
 31 34  1  1  0  0  0
 32 33  1  0  0  0  0
 33 35  1  1  0  0  0
M  END
>  <CHROM.1>
-164.23763318,160.24903260,-175.36650293,-59.12401340,-121.69478372,59.61878059
-2.45016961,28.43993704,65.30269417,2.59175210,0.42300557,-0.00180211

>  <Name>
ligand

>  <RI>
0

>  <Rbt.Current_Directory>
/home/itssahil/PROJECTS/Mol_Feturizer/Test_systems_manuscript/rnas/2g5k

>  <Rbt.Executable>
rbdock ($Id: //depot/dev/client3/rdock/2013.1/src/exe/rbdock.cxx#4 $)

>  <Rbt.Library>
libRbt.so (2013.1, Build901 2013/11/27)

>  <Rbt.Parameter_File>
/export/apps/rDock/src/rDock_2013.1_src/data/scripts/dock_solv.prm

>  <Rbt.Receptor>
prm/pocket_docking_4.prm

>  <SCORE>
-10.298

>  <SCORE.INTER>
-8.68961

>  <SCORE.INTER.CONST>
1

>  <SCORE.INTER.POLAR>
0

>  <SCORE.INTER.ROT>
6

>  <SCORE.INTER.SOLV>
13.4318

>  <SCORE.INTER.VDW>
-17.8703

>  <SCORE.INTER.norm>
-0.234854

>  <SCORE.INTRA>
-1.60844

>  <SCORE.INTRA.DIHEDRAL>
-2.62353

>  <SCORE.INTRA.DIHEDRAL.0>
11.3972

>  <SCORE.INTRA.POLAR>
0

>  <SCORE.INTRA.POLAR.0>
0

>  <SCORE.INTRA.REPUL>
0

>  <SCORE.INTRA.REPUL.0>
0

>  <SCORE.INTRA.SOLV>
0.292271

>  <SCORE.INTRA.SOLV.lig_0>
-92.3891

>  <SCORE.INTRA.VDW>
-0.442811

>  <SCORE.INTRA.VDW.0>
-2.90606

>  <SCORE.INTRA.norm>
-0.0434714

>  <SCORE.RESTR>
0

>  <SCORE.RESTR.CAVITY>
0

>  <SCORE.RESTR.norm>
0

>  <SCORE.SYSTEM>
0

>  <SCORE.SYSTEM.CONST>
0

>  <SCORE.SYSTEM.DIHEDRAL>
0

>  <SCORE.SYSTEM.SOLV>
0

>  <SCORE.SYSTEM.norm>
0

>  <SCORE.heavy>
37

>  <SCORE.norm>
-0.278326

>  <RMSD>
9.920

$$$$
ligand
 OpenBabel02271912133D
libRbt.so/2013.1/901 2013/11/27
 37 40  0  0  0  0  0  0  0  0999 V2000
   -7.0080   31.2634   66.3370 C   0  0  1  0  0  0  0  0  0  0  0  0
   -5.9526   31.9162   65.3997 C   0  0  1  0  0  0  0  0  0  0  0  0
   -5.0655   30.8635   64.7082 C   0  0  0  0  0  0  0  0  0  0  0  0
   -4.3760   29.9876   65.8003 C   0  0  1  0  0  0  0  0  0  0  0  0
   -5.4446   29.2935   66.7057 C   0  0  1  0  0  0  0  0  0  0  0  0
   -4.7184   28.4061   67.8147 C   0  0  1  0  0  0  0  0  0  0  0  0
   -3.8324   27.3390   67.1074 C   0  0  1  0  0  0  0  0  0  0  0  0
   -2.8120   28.0835   66.1946 C   0  0  2  0  0  0  0  0  0  0  0  0
   -2.0010   27.0936   68.9229 C   0  0  0  0  0  0  0  0  0  0  0  0
   -6.6106   32.7775   64.3946 N   0  0  0  0  0  0  0  0  0  0  0  0
   -3.1153   26.4861   68.1277 N   0  0  0  0  0  0  0  0  0  0  0  0
   -8.0168   30.5347   65.6107 O   0  0  0  0  0  0  0  0  0  0  0  0
   -6.3001   30.3691   67.2900 O   0  0  0  0  0  0  0  0  0  0  0  0
   -3.4908   28.9322   65.2066 O   0  0  0  0  0  0  0  0  0  0  0  0
   -3.8752   29.2285   68.6108 O   0  0  0  0  0  0  0  0  0  0  0  0
   -1.9915   27.1428   65.5114 O   0  0  0  0  0  0  0  0  0  0  0  0
   -0.8446   27.7323   64.8508 C   0  0  2  0  0  0  0  0  0  0  0  0
   -0.1933   26.7837   63.8167 C   0  0  1  0  0  0  0  0  0  0  0  0
    0.4449   25.5442   64.5230 C   0  0  2  0  0  0  0  0  0  0  0  0
    1.5074   26.0225   65.4917 C   0  0  1  0  0  0  0  0  0  0  0  0
    0.8435   26.9549   66.5489 C   0  0  1  0  0  0  0  0  0  0  0  0
    1.8566   27.4998   67.5539 C   0  0  0  0  0  0  0  0  0  0  0  0
    2.1334   24.8504   66.1499 N   0  0  0  0  0  0  0  0  0  0  0  0
    0.1925   28.1097   65.8569 O   0  0  0  0  0  0  0  0  0  0  0  0
   -1.2175   26.4104   62.8682 O   0  0  0  0  0  0  0  0  0  0  0  0
    1.0533   24.6912   63.5507 O   0  0  0  0  0  0  0  0  0  0  0  0
    2.3266   26.4458   68.3586 O   0  0  0  0  0  0  0  0  0  0  0  0
   -9.2113   29.8861   66.2759 C   0  0  1  0  0  0  0  0  0  0  0  0
   -8.6936   28.7949   67.2527 C   0  0  1  0  0  0  0  0  0  0  0  0
   -9.8933   28.0978   67.9576 C   0  0  2  0  0  0  0  0  0  0  0  0
  -10.7008   29.1551   68.7503 C   0  0  1  0  0  0  0  0  0  0  0  0
  -11.2446   30.2680   67.7844 C   0  0  0  0  0  0  0  0  0  0  0  0
  -10.0395   30.9329   67.0858 C   0  0  2  0  0  0  0  0  0  0  0  0
  -11.8432   28.5007   69.4324 N   0  0  0  0  0  0  0  0  0  0  0  0
  -10.5556   31.9695   66.1852 N   0  0  0  0  0  0  0  0  0  0  0  0
   -7.9381   27.8087   66.5152 O   0  0  0  0  0  0  0  0  0  0  0  0
   -9.3854   27.0849   68.8542 O   0  0  0  0  0  0  0  0  0  0  0  0
  1  2  1  0  0  0  0
  1 12  1  6  0  0  0
  1 13  1  0  0  0  0
  2  3  1  0  0  0  0
  2 10  1  6  0  0  0
  4  3  1  6  0  0  0
  4  5  1  0  0  0  0
  4 14  1  0  0  0  0
  5  6  1  0  0  0  0
  5 13  1  1  0  0  0
  6  7  1  0  0  0  0
  6 15  1  1  0  0  0
  7  8  1  0  0  0  0
  7 11  1  1  0  0  0
  8 14  1  0  0  0  0
  8 16  1  6  0  0  0
  9 11  1  0  0  0  0
 17 16  1  1  0  0  0
 17 18  1  0  0  0  0
 17 24  1  0  0  0  0
 18 19  1  0  0  0  0
 18 25  1  6  0  0  0
 19 20  1  0  0  0  0
 19 26  1  6  0  0  0
 20 21  1  0  0  0  0
 20 23  1  1  0  0  0
 21 22  1  1  0  0  0
 21 24  1  0  0  0  0
 22 27  1  0  0  0  0
 28 12  1  1  0  0  0
 28 29  1  0  0  0  0
 28 33  1  0  0  0  0
 29 30  1  0  0  0  0
 29 36  1  6  0  0  0
 30 31  1  0  0  0  0
 30 37  1  1  0  0  0
 31 32  1  0  0  0  0
 31 34  1  6  0  0  0
 32 33  1  0  0  0  0
 33 35  1  6  0  0  0
M  END
>  <CHROM.1>
-175.66227397,-71.16053513,-168.26830864,-62.45203108,-164.46129187,-68.01065207
-4.43254828,28.43545218,66.46799880,-3.03099655,-0.34548874,2.30183450

>  <Name>
ligand

>  <RI>
0

>  <Rbt.Current_Directory>
/home/itssahil/PROJECTS/Mol_Feturizer/Test_systems_manuscript/rnas/2g5k

>  <Rbt.Executable>
rbdock ($Id: //depot/dev/client3/rdock/2013.1/src/exe/rbdock.cxx#4 $)

>  <Rbt.Library>
libRbt.so (2013.1, Build901 2013/11/27)

>  <Rbt.Parameter_File>
/export/apps/rDock/src/rDock_2013.1_src/data/scripts/dock_solv.prm

>  <Rbt.Receptor>
prm/pocket_docking_4.prm

>  <SCORE>
-6.65407

>  <SCORE.INTER>
-3.3642

>  <SCORE.INTER.CONST>
1

>  <SCORE.INTER.POLAR>
0

>  <SCORE.INTER.ROT>
6

>  <SCORE.INTER.SOLV>
11.4383

>  <SCORE.INTER.VDW>
-13.6556

>  <SCORE.INTER.norm>
-0.0909244

>  <SCORE.INTRA>
-3.28987

>  <SCORE.INTRA.DIHEDRAL>
-9.13195

>  <SCORE.INTRA.DIHEDRAL.0>
11.3972

>  <SCORE.INTRA.POLAR>
0

>  <SCORE.INTRA.POLAR.0>
0

>  <SCORE.INTRA.REPUL>
0

>  <SCORE.INTRA.REPUL.0>
0

>  <SCORE.INTRA.SOLV>
0.392764

>  <SCORE.INTRA.SOLV.lig_0>
-92.3891

>  <SCORE.INTRA.VDW>
1.07973

>  <SCORE.INTRA.VDW.0>
-2.90606

>  <SCORE.INTRA.norm>
-0.0889154

>  <SCORE.RESTR>
0

>  <SCORE.RESTR.CAVITY>
0

>  <SCORE.RESTR.norm>
0

>  <SCORE.SYSTEM>
0

>  <SCORE.SYSTEM.CONST>
0

>  <SCORE.SYSTEM.DIHEDRAL>
0

>  <SCORE.SYSTEM.SOLV>
0

>  <SCORE.SYSTEM.norm>
0

>  <SCORE.heavy>
37

>  <SCORE.norm>
-0.17984

>  <RMSD>
9.927

$$$$
ligand
 OpenBabel02271912133D
libRbt.so/2013.1/901 2013/11/27
 37 40  0  0  0  0  0  0  0  0999 V2000
   -7.7220   31.3922   67.4153 C   0  0  1  0  0  0  0  0  0  0  0  0
   -7.1353   32.1918   66.2174 C   0  0  1  0  0  0  0  0  0  0  0  0
   -6.3234   31.2925   65.2658 C   0  0  0  0  0  0  0  0  0  0  0  0
   -5.1898   30.5913   66.0773 C   0  0  1  0  0  0  0  0  0  0  0  0
   -5.7911   29.7477   67.2480 C   0  0  1  0  0  0  0  0  0  0  0  0
   -4.6160   29.0423   68.0642 C   0  0  1  0  0  0  0  0  0  0  0  0
   -3.8074   28.1283   67.0976 C   0  0  1  0  0  0  0  0  0  0  0  0
   -3.2625   29.0126   65.9358 C   0  0  2  0  0  0  0  0  0  0  0  0
   -2.3104   26.0465   67.4657 C   0  0  0  0  0  0  0  0  0  0  0  0
   -8.2105   32.8872   65.4788 N   0  0  0  0  0  0  0  0  0  0  0  0
   -2.6738   27.4522   67.8329 N   0  0  0  0  0  0  0  0  0  0  0  0
   -8.7538   30.4706   67.0124 O   0  0  0  0  0  0  0  0  0  0  0  0
   -6.6099   30.6715   68.0884 O   0  0  0  0  0  0  0  0  0  0  0  0
   -4.3498   29.6924   65.2195 O   0  0  0  0  0  0  0  0  0  0  0  0
   -3.7351   30.0287   68.5860 O   0  0  0  0  0  0  0  0  0  0  0  0
   -2.5308   28.2118   65.0148 O   0  0  0  0  0  0  0  0  0  0  0  0
   -1.9895   28.9510   63.8924 C   0  0  2  0  0  0  0  0  0  0  0  0
   -0.9977   28.1181   63.0462 C   0  0  1  0  0  0  0  0  0  0  0  0
    0.2917   27.7876   63.8650 C   0  0  2  0  0  0  0  0  0  0  0  0
    0.9605   29.0840   64.2748 C   0  0  1  0  0  0  0  0  0  0  0  0
   -0.0302   29.9082   65.1506 C   0  0  1  0  0  0  0  0  0  0  0  0
    0.5630   31.2460   65.5881 C   0  0  0  0  0  0  0  0  0  0  0  0
    2.1974   28.7787   65.0335 N   0  0  0  0  0  0  0  0  0  0  0  0
   -1.2803   30.1739   64.3742 O   0  0  0  0  0  0  0  0  0  0  0  0
   -1.6941   26.9289   62.6114 O   0  0  0  0  0  0  0  0  0  0  0  0
    1.1986   27.0321   63.0588 O   0  0  0  0  0  0  0  0  0  0  0  0
    1.5681   31.0183   66.5459 O   0  0  0  0  0  0  0  0  0  0  0  0
   -9.2502   29.3449   67.8935 C   0  0  1  0  0  0  0  0  0  0  0  0
  -10.0300   29.9649   69.0852 C   0  0  1  0  0  0  0  0  0  0  0  0
  -10.5564   28.8388   70.0215 C   0  0  2  0  0  0  0  0  0  0  0  0
  -11.5000   27.9100   69.2182 C   0  0  1  0  0  0  0  0  0  0  0  0
  -10.7339   27.2614   68.0100 C   0  0  0  0  0  0  0  0  0  0  0  0
  -10.2080   28.3964   67.1057 C   0  0  2  0  0  0  0  0  0  0  0  0
  -12.0137   26.8364   70.1025 N   0  0  0  0  0  0  0  0  0  0  0  0
   -9.4932   27.7828   65.9812 N   0  0  0  0  0  0  0  0  0  0  0  0
   -9.1518   30.8335   69.8346 O   0  0  0  0  0  0  0  0  0  0  0  0
  -11.2713   29.4416   71.1231 O   0  0  0  0  0  0  0  0  0  0  0  0
  1  2  1  0  0  0  0
  1 12  1  6  0  0  0
  1 13  1  0  0  0  0
  2  3  1  0  0  0  0
  2 10  1  6  0  0  0
  4  3  1  6  0  0  0
  4  5  1  0  0  0  0
  4 14  1  0  0  0  0
  5  6  1  0  0  0  0
  5 13  1  1  0  0  0
  6  7  1  0  0  0  0
  6 15  1  6  0  0  0
  7  8  1  0  0  0  0
  7 11  1  1  0  0  0
  8 14  1  0  0  0  0
  8 16  1  6  0  0  0
  9 11  1  0  0  0  0
 17 16  1  1  0  0  0
 17 18  1  0  0  0  0
 17 24  1  0  0  0  0
 18 19  1  0  0  0  0
 18 25  1  1  0  0  0
 19 20  1  0  0  0  0
 19 26  1  6  0  0  0
 20 21  1  0  0  0  0
 20 23  1  1  0  0  0
 21 22  1  6  0  0  0
 21 24  1  0  0  0  0
 22 27  1  0  0  0  0
 28 12  1  6  0  0  0
 28 29  1  0  0  0  0
 28 33  1  0  0  0  0
 29 30  1  0  0  0  0
 29 36  1  1  0  0  0
 30 31  1  0  0  0  0
 30 37  1  1  0  0  0
 31 32  1  0  0  0  0
 31 34  1  1  0  0  0
 32 33  1  0  0  0  0
 33 35  1  6  0  0  0
M  END
>  <CHROM.1>
164.52218664,143.60330486,179.70652867,69.15474566,169.85029425,-71.18137794
-4.99044624,29.25868166,66.58876539,-3.09483291,-0.38641927,-3.11721742

>  <Name>
ligand

>  <RI>
0

>  <Rbt.Current_Directory>
/home/itssahil/PROJECTS/Mol_Feturizer/Test_systems_manuscript/rnas/2g5k

>  <Rbt.Executable>
rbdock ($Id: //depot/dev/client3/rdock/2013.1/src/exe/rbdock.cxx#4 $)

>  <Rbt.Library>
libRbt.so (2013.1, Build901 2013/11/27)

>  <Rbt.Parameter_File>
/export/apps/rDock/src/rDock_2013.1_src/data/scripts/dock_solv.prm

>  <Rbt.Receptor>
prm/pocket_docking_5.prm

>  <SCORE>
-9.35512

>  <SCORE.INTER>
-5.26178

>  <SCORE.INTER.CONST>
1

>  <SCORE.INTER.POLAR>
0

>  <SCORE.INTER.ROT>
6

>  <SCORE.INTER.SOLV>
9.82373

>  <SCORE.INTER.VDW>
-14.3824

>  <SCORE.INTER.norm>
-0.14221

>  <SCORE.INTRA>
-4.10789

>  <SCORE.INTRA.DIHEDRAL>
-8.10779

>  <SCORE.INTRA.DIHEDRAL.0>
11.3972

>  <SCORE.INTRA.POLAR>
0

>  <SCORE.INTRA.POLAR.0>
0

>  <SCORE.INTRA.REPUL>
0

>  <SCORE.INTRA.REPUL.0>
0

>  <SCORE.INTRA.SOLV>
-0.772774

>  <SCORE.INTRA.SOLV.lig_0>
-92.3891

>  <SCORE.INTRA.VDW>
0.332397

>  <SCORE.INTRA.VDW.0>
-2.90606

>  <SCORE.INTRA.norm>
-0.111024

>  <SCORE.RESTR>
0.0145493

>  <SCORE.RESTR.CAVITY>
0.0145493

>  <SCORE.RESTR.norm>
0.000393225

>  <SCORE.SYSTEM>
0

>  <SCORE.SYSTEM.CONST>
0

>  <SCORE.SYSTEM.DIHEDRAL>
0

>  <SCORE.SYSTEM.SOLV>
0

>  <SCORE.SYSTEM.norm>
0

>  <SCORE.heavy>
37

>  <SCORE.norm>
-0.252841

>  <RMSD>
9.932

$$$$
ligand
 OpenBabel02271912133D
libRbt.so/2013.1/901 2013/11/27
 37 40  0  0  0  0  0  0  0  0999 V2000
   -8.0152   26.7100   64.6234 C   0  0  1  0  0  0  0  0  0  0  0  0
   -7.6851   25.7022   65.7608 C   0  0  1  0  0  0  0  0  0  0  0  0
   -6.6244   26.2552   66.7317 C   0  0  0  0  0  0  0  0  0  0  0  0
   -5.3417   26.6233   65.9227 C   0  0  1  0  0  0  0  0  0  0  0  0
   -5.6719   27.6758   64.8151 C   0  0  1  0  0  0  0  0  0  0  0  0
   -4.3484   28.0355   64.0004 C   0  0  1  0  0  0  0  0  0  0  0  0
   -3.2861   28.6027   64.9871 C   0  0  1  0  0  0  0  0  0  0  0  0
   -3.0222   27.5292   66.0856 C   0  0  2  0  0  0  0  0  0  0  0  0
   -2.0759   29.8734   63.0816 C   0  0  0  0  0  0  0  0  0  0  0  0
   -8.9114   25.3261   66.4955 N   0  0  0  0  0  0  0  0  0  0  0  0
   -2.0101   28.9424   64.2529 N   0  0  0  0  0  0  0  0  0  0  0  0
   -8.7103   27.8773   65.1035 O   0  0  0  0  0  0  0  0  0  0  0  0
   -6.7451   27.0952   63.9542 O   0  0  0  0  0  0  0  0  0  0  0  0
   -4.2556   27.1728   66.7991 O   0  0  0  0  0  0  0  0  0  0  0  0
   -3.8183   26.8594   63.4028 O   0  0  0  0  0  0  0  0  0  0  0  0
   -2.0684   28.0147   67.0233 O   0  0  0  0  0  0  0  0  0  0  0  0
   -1.7370   27.0687   68.0695 C   0  0  2  0  0  0  0  0  0  0  0  0
   -0.7376   27.6407   69.1026 C   0  0  1  0  0  0  0  0  0  0  0  0
    0.6575   27.8951   68.4459 C   0  0  2  0  0  0  0  0  0  0  0  0
    1.1966   26.5836   67.9117 C   0  0  1  0  0  0  0  0  0  0  0  0
    0.2023   26.0239   66.8506 C   0  0  1  0  0  0  0  0  0  0  0  0
    0.6644   24.6857   66.2771 C   0  0  0  0  0  0  0  0  0  0  0  0
    2.5308   26.8126   67.3064 N   0  0  0  0  0  0  0  0  0  0  0  0
   -1.1417   25.8333   67.4779 O   0  0  0  0  0  0  0  0  0  0  0  0
   -1.3198   28.8474   69.6441 O   0  0  0  0  0  0  0  0  0  0  0  0
    1.5674   28.4079   69.4217 O   0  0  0  0  0  0  0  0  0  0  0  0
    1.8438   24.8800   65.5350 O   0  0  0  0  0  0  0  0  0  0  0  0
   -9.1911   28.9880   64.1952 C   0  0  1  0  0  0  0  0  0  0  0  0
  -10.5356   28.5473   63.5542 C   0  0  1  0  0  0  0  0  0  0  0  0
  -11.0653   29.6624   62.6067 C   0  0  2  0  0  0  0  0  0  0  0  0
  -11.2866   30.9598   63.4228 C   0  0  1  0  0  0  0  0  0  0  0  0
   -9.9391   31.4339   64.0761 C   0  0  0  0  0  0  0  0  0  0  0  0
   -9.4257   30.3069   64.9973 C   0  0  2  0  0  0  0  0  0  0  0  0
  -11.7984   32.0281   62.5310 N   0  0  0  0  0  0  0  0  0  0  0  0
   -8.1672   30.7567   65.6022 N   0  0  0  0  0  0  0  0  0  0  0  0
  -10.3316   27.3357   62.7942 O   0  0  0  0  0  0  0  0  0  0  0  0
  -12.3113   29.2254   62.0198 O   0  0  0  0  0  0  0  0  0  0  0  0
  1  2  1  0  0  0  0
  1 12  1  1  0  0  0
  1 13  1  0  0  0  0
  2  3  1  0  0  0  0
  2 10  1  1  0  0  0
  4  3  1  1  0  0  0
  4  5  1  0  0  0  0
  4 14  1  0  0  0  0
  5  6  1  0  0  0  0
  5 13  1  6  0  0  0
  6  7  1  0  0  0  0
  6 15  1  1  0  0  0
  7  8  1  0  0  0  0
  7 11  1  6  0  0  0
  8 14  1  0  0  0  0
  8 16  1  1  0  0  0
  9 11  1  0  0  0  0
 17 16  1  6  0  0  0
 17 18  1  0  0  0  0
 17 24  1  0  0  0  0
 18 19  1  0  0  0  0
 18 25  1  6  0  0  0
 19 20  1  0  0  0  0
 19 26  1  1  0  0  0
 20 21  1  0  0  0  0
 20 23  1  6  0  0  0
 21 22  1  1  0  0  0
 21 24  1  0  0  0  0
 22 27  1  0  0  0  0
 28 12  1  1  0  0  0
 28 29  1  0  0  0  0
 28 33  1  0  0  0  0
 29 30  1  0  0  0  0
 29 36  1  6  0  0  0
 30 31  1  0  0  0  0
 30 37  1  1  0  0  0
 31 32  1  0  0  0  0
 31 34  1  6  0  0  0
 32 33  1  0  0  0  0
 33 35  1  6  0  0  0
M  END
>  <CHROM.1>
-177.74345349,55.18946515,-178.70926652,81.15616571,-177.92263951,-66.38356461
-4.90124090,27.88082378,65.53886801,2.91424449,-0.33469287,-0.05781762

>  <Name>
ligand

>  <RI>
0

>  <Rbt.Current_Directory>
/home/itssahil/PROJECTS/Mol_Feturizer/Test_systems_manuscript/rnas/2g5k

>  <Rbt.Executable>
rbdock ($Id: //depot/dev/client3/rdock/2013.1/src/exe/rbdock.cxx#4 $)

>  <Rbt.Library>
libRbt.so (2013.1, Build901 2013/11/27)

>  <Rbt.Parameter_File>
/export/apps/rDock/src/rDock_2013.1_src/data/scripts/dock_solv.prm

>  <Rbt.Receptor>
prm/pocket_docking_4.prm

>  <SCORE>
-10.0258

>  <SCORE.INTER>
-6.09495

>  <SCORE.INTER.CONST>
1

>  <SCORE.INTER.POLAR>
0

>  <SCORE.INTER.ROT>
6

>  <SCORE.INTER.SOLV>
9.54518

>  <SCORE.INTER.VDW>
-14.845

>  <SCORE.INTER.norm>
-0.164728

>  <SCORE.INTRA>
-3.93088

>  <SCORE.INTRA.DIHEDRAL>
-9.15074

>  <SCORE.INTRA.DIHEDRAL.0>
11.3972

>  <SCORE.INTRA.POLAR>
0

>  <SCORE.INTRA.POLAR.0>
0

>  <SCORE.INTRA.REPUL>
0

>  <SCORE.INTRA.REPUL.0>
0

>  <SCORE.INTRA.SOLV>
-0.573234

>  <SCORE.INTRA.SOLV.lig_0>
-92.3891

>  <SCORE.INTRA.VDW>
0.931109

>  <SCORE.INTRA.VDW.0>
-2.90606

>  <SCORE.INTRA.norm>
-0.10624

>  <SCORE.RESTR>
0

>  <SCORE.RESTR.CAVITY>
0

>  <SCORE.RESTR.norm>
0

>  <SCORE.SYSTEM>
0

>  <SCORE.SYSTEM.CONST>
0

>  <SCORE.SYSTEM.DIHEDRAL>
0

>  <SCORE.SYSTEM.SOLV>
0

>  <SCORE.SYSTEM.norm>
0

>  <SCORE.heavy>
37

>  <SCORE.norm>
-0.270968

>  <RMSD>
9.935

$$$$
ligand
 OpenBabel02271912133D
libRbt.so/2013.1/901 2013/11/27
 37 40  0  0  0  0  0  0  0  0999 V2000
   -8.1244   24.0831   65.7714 C   0  0  1  0  0  0  0  0  0  0  0  0
   -7.2340   23.1524   66.6428 C   0  0  1  0  0  0  0  0  0  0  0  0
   -6.4560   23.9375   67.7160 C   0  0  0  0  0  0  0  0  0  0  0  0
   -5.5968   25.0356   67.0152 C   0  0  1  0  0  0  0  0  0  0  0  0
   -6.5049   25.9983   66.1833 C   0  0  1  0  0  0  0  0  0  0  0  0
   -5.6067   27.1102   65.4749 C   0  0  1  0  0  0  0  0  0  0  0  0
   -4.8321   27.9050   66.5668 C   0  0  1  0  0  0  0  0  0  0  0  0
   -3.9732   26.8942   67.3849 C   0  0  2  0  0  0  0  0  0  0  0  0
   -3.5125   30.1256   66.7617 C   0  0  0  0  0  0  0  0  0  0  0  0
   -8.0485   22.0898   67.2695 N   0  0  0  0  0  0  0  0  0  0  0  0
   -3.9570   28.9605   65.9322 N   0  0  0  0  0  0  0  0  0  0  0  0
   -9.2274   24.6432   66.5103 O   0  0  0  0  0  0  0  0  0  0  0  0
   -7.2686   25.1612   65.2106 O   0  0  0  0  0  0  0  0  0  0  0  0
   -4.8054   25.8494   67.9956 O   0  0  0  0  0  0  0  0  0  0  0  0
   -4.6572   26.4869   64.6199 O   0  0  0  0  0  0  0  0  0  0  0  0
   -3.2607   27.5771   68.4102 O   0  0  0  0  0  0  0  0  0  0  0  0
   -2.3337   26.7379   69.1421 C   0  0  2  0  0  0  0  0  0  0  0  0
   -1.3523   27.5499   70.0200 C   0  0  1  0  0  0  0  0  0  0  0  0
   -0.3853   28.3997   69.1340 C   0  0  2  0  0  0  0  0  0  0  0  0
    0.4076   27.4693   68.2387 C   0  0  1  0  0  0  0  0  0  0  0  0
   -0.5816   26.6734   67.3355 C   0  0  1  0  0  0  0  0  0  0  0  0
    0.1410   25.6922   66.4145 C   0  0  0  0  0  0  0  0  0  0  0  0
    1.3439   28.2668   67.4101 N   0  0  0  0  0  0  0  0  0  0  0  0
   -1.5339   25.9050   68.1950 O   0  0  0  0  0  0  0  0  0  0  0  0
   -2.1445   28.3668   70.9106 O   0  0  0  0  0  0  0  0  0  0  0  0
    0.5210   29.1282   69.9653 O   0  0  0  0  0  0  0  0  0  0  0  0
    0.8030   24.7250   67.1928 O   0  0  0  0  0  0  0  0  0  0  0  0
  -10.3045   25.4946   65.8738 C   0  0  1  0  0  0  0  0  0  0  0  0
  -11.1214   24.6014   64.9002 C   0  0  1  0  0  0  0  0  0  0  0  0
  -12.2409   25.4408   64.2189 C   0  0  2  0  0  0  0  0  0  0  0  0
  -13.1839   26.0089   65.3081 C   0  0  1  0  0  0  0  0  0  0  0  0
  -12.3847   26.9245   66.3031 C   0  0  0  0  0  0  0  0  0  0  0  0
  -11.2715   26.0756   66.9532 C   0  0  2  0  0  0  0  0  0  0  0  0
  -14.2595   26.8052   64.6697 N   0  0  0  0  0  0  0  0  0  0  0  0
  -10.5293   26.9377   67.8794 N   0  0  0  0  0  0  0  0  0  0  0  0
  -10.2428   24.0687   63.8846 O   0  0  0  0  0  0  0  0  0  0  0  0
  -12.9804   24.5894   63.3155 O   0  0  0  0  0  0  0  0  0  0  0  0
  1  2  1  0  0  0  0
  1 12  1  1  0  0  0
  1 13  1  0  0  0  0
  2  3  1  0  0  0  0
  2 10  1  1  0  0  0
  4  3  1  1  0  0  0
  4  5  1  0  0  0  0
  4 14  1  0  0  0  0
  5  6  1  0  0  0  0
  5 13  1  6  0  0  0
  6  7  1  0  0  0  0
  6 15  1  6  0  0  0
  7  8  1  0  0  0  0
  7 11  1  6  0  0  0
  8 14  1  0  0  0  0
  8 16  1  1  0  0  0
  9 11  1  0  0  0  0
 17 16  1  6  0  0  0
 17 18  1  0  0  0  0
 17 24  1  0  0  0  0
 18 19  1  0  0  0  0
 18 25  1  1  0  0  0
 19 20  1  0  0  0  0
 19 26  1  1  0  0  0
 20 21  1  0  0  0  0
 20 23  1  6  0  0  0
 21 22  1  6  0  0  0
 21 24  1  0  0  0  0
 22 27  1  0  0  0  0
 28 12  1  1  0  0  0
 28 29  1  0  0  0  0
 28 33  1  0  0  0  0
 29 30  1  0  0  0  0
 29 36  1  6  0  0  0
 30 31  1  0  0  0  0
 30 37  1  6  0  0  0
 31 32  1  0  0  0  0
 31 34  1  6  0  0  0
 32 33  1  0  0  0  0
 33 35  1  1  0  0  0
M  END
>  <CHROM.1>
-175.09390706,158.67972778,-174.33787544,66.66278958,167.03507897,63.28120223
-5.80679061,26.24189352,66.83441100,-2.86943864,-0.19862316,0.34225107

>  <Name>
ligand

>  <RI>
0

>  <Rbt.Current_Directory>
/home/itssahil/PROJECTS/Mol_Feturizer/Test_systems_manuscript/rnas/2g5k

>  <Rbt.Executable>
rbdock ($Id: //depot/dev/client3/rdock/2013.1/src/exe/rbdock.cxx#4 $)

>  <Rbt.Library>
libRbt.so (2013.1, Build901 2013/11/27)

>  <Rbt.Parameter_File>
/export/apps/rDock/src/rDock_2013.1_src/data/scripts/dock_solv.prm

>  <Rbt.Receptor>
prm/pocket_docking_8.prm

>  <SCORE>
-12.8666

>  <SCORE.INTER>
-7.84286

>  <SCORE.INTER.CONST>
1

>  <SCORE.INTER.POLAR>
0

>  <SCORE.INTER.ROT>
6

>  <SCORE.INTER.SOLV>
12.8334

>  <SCORE.INTER.VDW>
-17.1064

>  <SCORE.INTER.norm>
-0.211969

>  <SCORE.INTRA>
-5.02373

>  <SCORE.INTRA.DIHEDRAL>
-9.6945

>  <SCORE.INTRA.DIHEDRAL.0>
11.3972

>  <SCORE.INTRA.POLAR>
0

>  <SCORE.INTRA.POLAR.0>
0

>  <SCORE.INTRA.REPUL>
0

>  <SCORE.INTRA.REPUL.0>
0

>  <SCORE.INTRA.SOLV>
-1.12696

>  <SCORE.INTRA.SOLV.lig_0>
-92.3891

>  <SCORE.INTRA.VDW>
0.386999

>  <SCORE.INTRA.VDW.0>
-2.90606

>  <SCORE.INTRA.norm>
-0.135776

>  <SCORE.RESTR>
0

>  <SCORE.RESTR.CAVITY>
0

>  <SCORE.RESTR.norm>
0

>  <SCORE.SYSTEM>
0

>  <SCORE.SYSTEM.CONST>
0

>  <SCORE.SYSTEM.DIHEDRAL>
0

>  <SCORE.SYSTEM.SOLV>
0

>  <SCORE.SYSTEM.norm>
0

>  <SCORE.heavy>
37

>  <SCORE.norm>
-0.347746

>  <RMSD>
9.935

$$$$
ligand
 OpenBabel02271912133D
libRbt.so/2013.1/901 2013/11/27
 37 40  0  0  0  0  0  0  0  0999 V2000
   -6.1927   31.1496   65.3483 C   0  0  1  0  0  0  0  0  0  0  0  0
   -5.0071   31.7571   64.5458 C   0  0  1  0  0  0  0  0  0  0  0  0
   -4.0544   30.6702   64.0125 C   0  0  0  0  0  0  0  0  0  0  0  0
   -3.5370   29.8182   65.2131 C   0  0  1  0  0  0  0  0  0  0  0  0
   -4.7321   29.1687   65.9835 C   0  0  1  0  0  0  0  0  0  0  0  0
   -4.1808   28.3051   67.2062 C   0  0  1  0  0  0  0  0  0  0  0  0
   -3.2273   27.2035   66.6575 C   0  0  1  0  0  0  0  0  0  0  0  0
   -2.0780   27.9040   65.8720 C   0  0  2  0  0  0  0  0  0  0  0  0
   -2.0660   25.0384   67.4784 C   0  0  0  0  0  0  0  0  0  0  0  0
   -5.5055   32.5967   63.4359 N   0  0  0  0  0  0  0  0  0  0  0  0
   -2.6723   26.3719   67.7902 N   0  0  0  0  0  0  0  0  0  0  0  0
   -7.1069   30.4140   64.5120 O   0  0  0  0  0  0  0  0  0  0  0  0
   -5.6384   30.2745   66.4143 O   0  0  0  0  0  0  0  0  0  0  0  0
   -2.5996   28.7318   64.7765 O   0  0  0  0  0  0  0  0  0  0  0  0
   -3.4383   29.1390   68.0863 O   0  0  0  0  0  0  0  0  0  0  0  0
   -1.1902   26.9303   65.3345 O   0  0  0  0  0  0  0  0  0  0  0  0
    0.1407   27.4338   65.0620 C   0  0  2  0  0  0  0  0  0  0  0  0
    0.6717   27.0079   63.6727 C   0  0  1  0  0  0  0  0  0  0  0  0
    0.8943   25.4623   63.6117 C   0  0  2  0  0  0  0  0  0  0  0  0
    1.9062   25.0685   64.6686 C   0  0  1  0  0  0  0  0  0  0  0  0
    1.3563   25.4727   66.0693 C   0  0  1  0  0  0  0  0  0  0  0  0
    2.3321   25.1283   67.1929 C   0  0  0  0  0  0  0  0  0  0  0  0
    2.1396   23.6056   64.6023 N   0  0  0  0  0  0  0  0  0  0  0  0
    1.0990   26.9455   66.0982 O   0  0  0  0  0  0  0  0  0  0  0  0
   -0.2806   27.4667   62.6874 O   0  0  0  0  0  0  0  0  0  0  0  0
    1.3992   25.0948   62.3259 O   0  0  0  0  0  0  0  0  0  0  0  0
    2.9248   23.8802   66.9279 O   0  0  0  0  0  0  0  0  0  0  0  0
   -8.3979   29.8127   65.0238 C   0  0  1  0  0  0  0  0  0  0  0  0
   -8.0454   28.6432   65.9833 C   0  0  1  0  0  0  0  0  0  0  0  0
   -9.3483   27.9920   66.5313 C   0  0  2  0  0  0  0  0  0  0  0  0
  -10.1647   29.0594   67.3012 C   0  0  1  0  0  0  0  0  0  0  0  0
  -10.5429   30.2517   66.3512 C   0  0  0  0  0  0  0  0  0  0  0  0
   -9.2371   30.8702   65.8081 C   0  0  2  0  0  0  0  0  0  0  0  0
  -11.4059   28.4482   67.8343 N   0  0  0  0  0  0  0  0  0  0  0  0
   -9.5988   31.9814   64.9214 N   0  0  0  0  0  0  0  0  0  0  0  0
   -7.2818   27.6474   65.2674 O   0  0  0  0  0  0  0  0  0  0  0  0
   -8.9930   26.9051   67.4146 O   0  0  0  0  0  0  0  0  0  0  0  0
  1  2  1  0  0  0  0
  1 12  1  6  0  0  0
  1 13  1  0  0  0  0
  2  3  1  0  0  0  0
  2 10  1  6  0  0  0
  4  3  1  6  0  0  0
  4  5  1  0  0  0  0
  4 14  1  0  0  0  0
  5  6  1  0  0  0  0
  5 13  1  1  0  0  0
  6  7  1  0  0  0  0
  6 15  1  1  0  0  0
  7  8  1  0  0  0  0
  7 11  1  1  0  0  0
  8 14  1  0  0  0  0
  8 16  1  6  0  0  0
  9 11  1  0  0  0  0
 17 16  1  1  0  0  0
 17 18  1  0  0  0  0
 17 24  1  0  0  0  0
 18 19  1  0  0  0  0
 18 25  1  6  0  0  0
 19 20  1  0  0  0  0
 19 26  1  6  0  0  0
 20 21  1  0  0  0  0
 20 23  1  1  0  0  0
 21 22  1  1  0  0  0
 21 24  1  0  0  0  0
 22 27  1  0  0  0  0
 28 12  1  1  0  0  0
 28 29  1  0  0  0  0
 28 33  1  0  0  0  0
 29 30  1  0  0  0  0
 29 36  1  6  0  0  0
 30 31  1  0  0  0  0
 30 37  1  1  0  0  0
 31 32  1  0  0  0  0
 31 34  1  6  0  0  0
 32 33  1  0  0  0  0
 33 35  1  6  0  0  0
M  END
>  <CHROM.1>
-175.21175124,162.48436838,-156.83793500,-68.55070870,-133.89742592,-39.65673569
-3.77565923,28.06285007,65.62022471,-2.87340494,-0.32498871,2.47275132

>  <Name>
ligand

>  <RI>
0

>  <Rbt.Current_Directory>
/home/itssahil/PROJECTS/Mol_Feturizer/Test_systems_manuscript/rnas/2g5k

>  <Rbt.Executable>
rbdock ($Id: //depot/dev/client3/rdock/2013.1/src/exe/rbdock.cxx#4 $)

>  <Rbt.Library>
libRbt.so (2013.1, Build901 2013/11/27)

>  <Rbt.Parameter_File>
/export/apps/rDock/src/rDock_2013.1_src/data/scripts/dock_solv.prm

>  <Rbt.Receptor>
prm/pocket_docking_2.prm

>  <SCORE>
2.52959

>  <SCORE.INTER>
0.315455

>  <SCORE.INTER.CONST>
1

>  <SCORE.INTER.POLAR>
0

>  <SCORE.INTER.ROT>
6

>  <SCORE.INTER.SOLV>
17.2431

>  <SCORE.INTER.VDW>
-13.1374

>  <SCORE.INTER.norm>
0.00852581

>  <SCORE.INTRA>
0.298677

>  <SCORE.INTRA.DIHEDRAL>
-0.686493

>  <SCORE.INTRA.DIHEDRAL.0>
11.3972

>  <SCORE.INTRA.POLAR>
0

>  <SCORE.INTRA.POLAR.0>
0

>  <SCORE.INTRA.REPUL>
0

>  <SCORE.INTRA.REPUL.0>
0

>  <SCORE.INTRA.SOLV>
0.511427

>  <SCORE.INTRA.SOLV.lig_0>
-92.3891

>  <SCORE.INTRA.VDW>
0.38621

>  <SCORE.INTRA.VDW.0>
-2.90606

>  <SCORE.INTRA.norm>
0.00807235

>  <SCORE.RESTR>
1.91546

>  <SCORE.RESTR.CAVITY>
1.91546

>  <SCORE.RESTR.norm>
0.0517691

>  <SCORE.SYSTEM>
0

>  <SCORE.SYSTEM.CONST>
0

>  <SCORE.SYSTEM.DIHEDRAL>
0

>  <SCORE.SYSTEM.SOLV>
0

>  <SCORE.SYSTEM.norm>
0

>  <SCORE.heavy>
37

>  <SCORE.norm>
0.0683673

>  <RMSD>
9.946

$$$$
ligand
 OpenBabel02271912133D
libRbt.so/2013.1/901 2013/11/27
 37 40  0  0  0  0  0  0  0  0999 V2000
   -8.6548   31.7782   66.8886 C   0  0  1  0  0  0  0  0  0  0  0  0
   -8.2563   32.1027   68.3564 C   0  0  1  0  0  0  0  0  0  0  0  0
   -6.7278   32.1629   68.5393 C   0  0  0  0  0  0  0  0  0  0  0  0
   -6.1100   30.8053   68.0806 C   0  0  1  0  0  0  0  0  0  0  0  0
   -6.4717   30.5114   66.5885 C   0  0  1  0  0  0  0  0  0  0  0  0
   -5.8324   29.1198   66.1418 C   0  0  1  0  0  0  0  0  0  0  0  0
   -4.2876   29.1930   66.3204 C   0  0  1  0  0  0  0  0  0  0  0  0
   -3.9868   29.5215   67.8138 C   0  0  2  0  0  0  0  0  0  0  0  0
   -3.3493   27.6382   64.4730 C   0  0  0  0  0  0  0  0  0  0  0  0
   -8.8793   33.3686   68.7975 N   0  0  0  0  0  0  0  0  0  0  0  0
   -3.6461   27.8849   65.9201 N   0  0  0  0  0  0  0  0  0  0  0  0
   -8.3435   32.8530   65.9808 O   0  0  0  0  0  0  0  0  0  0  0  0
   -7.9609   30.5292   66.4790 O   0  0  0  0  0  0  0  0  0  0  0  0
   -4.6174   30.7822   68.2266 O   0  0  0  0  0  0  0  0  0  0  0  0
   -6.3277   28.0763   66.9707 O   0  0  0  0  0  0  0  0  0  0  0  0
   -2.5819   29.6174   68.0190 O   0  0  0  0  0  0  0  0  0  0  0  0
   -2.1120   28.9309   69.2053 C   0  0  2  0  0  0  0  0  0  0  0  0
   -0.5723   28.9684   69.3512 C   0  0  1  0  0  0  0  0  0  0  0  0
    0.1149   28.1483   68.2121 C   0  0  2  0  0  0  0  0  0  0  0  0
   -0.3532   26.7093   68.2901 C   0  0  1  0  0  0  0  0  0  0  0  0
   -1.9010   26.6719   68.1144 C   0  0  1  0  0  0  0  0  0  0  0  0
   -2.4569   25.2519   68.2034 C   0  0  0  0  0  0  0  0  0  0  0  0
    0.3117   25.9194   67.2258 N   0  0  0  0  0  0  0  0  0  0  0  0
   -2.5443   27.5016   69.1792 O   0  0  0  0  0  0  0  0  0  0  0  0
   -0.1721   30.3569   69.3487 O   0  0  0  0  0  0  0  0  0  0  0  0
    1.5344   28.1842   68.3764 O   0  0  0  0  0  0  0  0  0  0  0  0
   -3.8448   25.2806   67.9749 O   0  0  0  0  0  0  0  0  0  0  0  0
   -8.4427   32.7225   64.4764 C   0  0  1  0  0  0  0  0  0  0  0  0
   -9.9352   32.5104   64.1019 C   0  0  1  0  0  0  0  0  0  0  0  0
  -10.0826   32.3671   62.5593 C   0  0  2  0  0  0  0  0  0  0  0  0
   -9.5603   33.6556   61.8772 C   0  0  1  0  0  0  0  0  0  0  0  0
   -8.0484   33.8905   62.2322 C   0  0  0  0  0  0  0  0  0  0  0  0
   -7.9252   34.0130   63.7660 C   0  0  2  0  0  0  0  0  0  0  0  0
   -9.7025   33.5334   60.4064 N   0  0  0  0  0  0  0  0  0  0  0  0
   -6.5110   34.2307   64.0892 N   0  0  0  0  0  0  0  0  0  0  0  0
  -10.4249   31.3098   64.7392 O   0  0  0  0  0  0  0  0  0  0  0  0
  -11.4770   32.1649   62.2389 O   0  0  0  0  0  0  0  0  0  0  0  0
  1  2  1  0  0  0  0
  1 12  1  6  0  0  0
  1 13  1  0  0  0  0
  2  3  1  0  0  0  0
  2 10  1  6  0  0  0
  4  3  1  6  0  0  0
  4  5  1  0  0  0  0
  4 14  1  0  0  0  0
  5  6  1  0  0  0  0
  5 13  1  1  0  0  0
  6  7  1  0  0  0  0
  6 15  1  1  0  0  0
  7  8  1  0  0  0  0
  7 11  1  1  0  0  0
  8 14  1  0  0  0  0
  8 16  1  6  0  0  0
  9 11  1  0  0  0  0
 17 16  1  6  0  0  0
 17 18  1  0  0  0  0
 17 24  1  0  0  0  0
 18 19  1  0  0  0  0
 18 25  1  6  0  0  0
 19 20  1  0  0  0  0
 19 26  1  1  0  0  0
 20 21  1  0  0  0  0
 20 23  1  6  0  0  0
 21 22  1  1  0  0  0
 21 24  1  0  0  0  0
 22 27  1  0  0  0  0
 28 12  1  1  0  0  0
 28 29  1  0  0  0  0
 28 33  1  0  0  0  0
 29 30  1  0  0  0  0
 29 36  1  1  0  0  0
 30 31  1  0  0  0  0
 30 37  1  1  0  0  0
 31 32  1  0  0  0  0
 31 34  1  6  0  0  0
 32 33  1  0  0  0  0
 33 35  1  6  0  0  0
M  END
>  <CHROM.1>
170.91975828,83.63539542,-135.09909736,65.46078657,176.02898085,-177.26475309
-5.39019272,30.18890631,66.44119986,2.98425437,0.69118403,-2.03388094

>  <Name>
ligand

>  <RI>
0

>  <Rbt.Current_Directory>
/home/itssahil/PROJECTS/Mol_Feturizer/Test_systems_manuscript/rnas/2g5k

>  <Rbt.Executable>
rbdock ($Id: //depot/dev/client3/rdock/2013.1/src/exe/rbdock.cxx#4 $)

>  <Rbt.Library>
libRbt.so (2013.1, Build901 2013/11/27)

>  <Rbt.Parameter_File>
/export/apps/rDock/src/rDock_2013.1_src/data/scripts/dock_solv.prm

>  <Rbt.Receptor>
prm/pocket_docking_6.prm

>  <SCORE>
-7.75593

>  <SCORE.INTER>
-4.8127

>  <SCORE.INTER.CONST>
1

>  <SCORE.INTER.POLAR>
0

>  <SCORE.INTER.ROT>
6

>  <SCORE.INTER.SOLV>
13.8968

>  <SCORE.INTER.VDW>
-15.4407

>  <SCORE.INTER.norm>
-0.130073

>  <SCORE.INTRA>
-2.94323

>  <SCORE.INTRA.DIHEDRAL>
-4.21176

>  <SCORE.INTRA.DIHEDRAL.0>
11.3972

>  <SCORE.INTRA.POLAR>
0

>  <SCORE.INTRA.POLAR.0>
0

>  <SCORE.INTRA.REPUL>
0

>  <SCORE.INTRA.REPUL.0>
0

>  <SCORE.INTRA.SOLV>
-0.0173565

>  <SCORE.INTRA.SOLV.lig_0>
-92.3891

>  <SCORE.INTRA.VDW>
-0.828677

>  <SCORE.INTRA.VDW.0>
-2.90606

>  <SCORE.INTRA.norm>
-0.0795469

>  <SCORE.RESTR>
0

>  <SCORE.RESTR.CAVITY>
0

>  <SCORE.RESTR.norm>
0

>  <SCORE.SYSTEM>
0

>  <SCORE.SYSTEM.CONST>
0

>  <SCORE.SYSTEM.DIHEDRAL>
0

>  <SCORE.SYSTEM.SOLV>
0

>  <SCORE.SYSTEM.norm>
0

>  <SCORE.heavy>
37

>  <SCORE.norm>
-0.20962

>  <RMSD>
9.946

$$$$
ligand
 OpenBabel02271912133D
libRbt.so/2013.1/901 2013/11/27
 37 40  0  0  0  0  0  0  0  0999 V2000
   -7.1290   31.3701   65.1546 C   0  0  1  0  0  0  0  0  0  0  0  0
   -5.8258   32.1489   64.8176 C   0  0  1  0  0  0  0  0  0  0  0  0
   -4.7831   31.2544   64.1206 C   0  0  0  0  0  0  0  0  0  0  0  0
   -4.4788   30.0266   65.0344 C   0  0  1  0  0  0  0  0  0  0  0  0
   -5.7853   29.2194   65.3260 C   0  0  1  0  0  0  0  0  0  0  0  0
   -5.4515   27.9717   66.2622 C   0  0  1  0  0  0  0  0  0  0  0  0
   -4.4051   27.0683   65.5460 C   0  0  1  0  0  0  0  0  0  0  0  0
   -3.1414   27.9308   65.2497 C   0  0  2  0  0  0  0  0  0  0  0  0
   -5.1001   24.8448   66.6789 C   0  0  0  0  0  0  0  0  0  0  0  0
   -6.1274   33.3339   63.9869 N   0  0  0  0  0  0  0  0  0  0  0  0
   -4.0520   25.8803   66.4102 N   0  0  0  0  0  0  0  0  0  0  0  0
   -7.8731   31.0018   63.9770 O   0  0  0  0  0  0  0  0  0  0  0  0
   -6.7644   30.1636   65.9423 O   0  0  0  0  0  0  0  0  0  0  0  0
   -3.4683   29.1011   64.4245 O   0  0  0  0  0  0  0  0  0  0  0  0
   -4.8852   28.4267   67.4842 O   0  0  0  0  0  0  0  0  0  0  0  0
   -2.1630   27.1476   64.5758 O   0  0  0  0  0  0  0  0  0  0  0  0
   -0.9117   27.8403   64.3443 C   0  0  2  0  0  0  0  0  0  0  0  0
   -0.0227   27.1392   63.2899 C   0  0  1  0  0  0  0  0  0  0  0  0
    0.4704   25.7511   63.8118 C   0  0  2  0  0  0  0  0  0  0  0  0
    1.2770   25.9593   65.0775 C   0  0  1  0  0  0  0  0  0  0  0  0
    0.3711   26.6396   66.1472 C   0  0  1  0  0  0  0  0  0  0  0  0
    1.1200   26.9055   67.4517 C   0  0  0  0  0  0  0  0  0  0  0  0
    1.7675   24.6483   65.5670 N   0  0  0  0  0  0  0  0  0  0  0  0
   -0.1357   27.9424   65.6163 O   0  0  0  0  0  0  0  0  0  0  0  0
   -0.7991   27.0273   62.0764 O   0  0  0  0  0  0  0  0  0  0  0  0
    1.3014   25.1300   62.8286 O   0  0  0  0  0  0  0  0  0  0  0  0
    1.5504   25.6828   67.9986 O   0  0  0  0  0  0  0  0  0  0  0  0
   -9.2015   30.2787   64.0281 C   0  0  1  0  0  0  0  0  0  0  0  0
   -8.9563   28.8443   64.5715 C   0  0  1  0  0  0  0  0  0  0  0  0
  -10.3000   28.0621   64.6370 C   0  0  2  0  0  0  0  0  0  0  0  0
  -11.2767   28.8080   65.5793 C   0  0  1  0  0  0  0  0  0  0  0  0
  -11.5498   30.2608   65.0483 C   0  0  0  0  0  0  0  0  0  0  0  0
  -10.2026   31.0107   64.9767 C   0  0  2  0  0  0  0  0  0  0  0  0
  -12.5590   28.0675   65.6552 N   0  0  0  0  0  0  0  0  0  0  0  0
  -10.4660   32.3652   64.4790 N   0  0  0  0  0  0  0  0  0  0  0  0
   -8.0435   28.1476   63.6947 O   0  0  0  0  0  0  0  0  0  0  0  0
  -10.0434   26.7316   65.1387 O   0  0  0  0  0  0  0  0  0  0  0  0
  1  2  1  0  0  0  0
  1 12  1  6  0  0  0
  1 13  1  0  0  0  0
  2  3  1  0  0  0  0
  2 10  1  6  0  0  0
  4  3  1  6  0  0  0
  4  5  1  0  0  0  0
  4 14  1  0  0  0  0
  5  6  1  0  0  0  0
  5 13  1  1  0  0  0
  6  7  1  0  0  0  0
  6 15  1  1  0  0  0
  7  8  1  0  0  0  0
  7 11  1  1  0  0  0
  8 14  1  0  0  0  0
  8 16  1  6  0  0  0
  9 11  1  0  0  0  0
 17 16  1  1  0  0  0
 17 18  1  0  0  0  0
 17 24  1  0  0  0  0
 18 19  1  0  0  0  0
 18 25  1  6  0  0  0
 19 20  1  0  0  0  0
 19 26  1  6  0  0  0
 20 21  1  0  0  0  0
 20 23  1  1  0  0  0
 21 22  1  1  0  0  0
 21 24  1  0  0  0  0
 22 27  1  0  0  0  0
 28 12  1  1  0  0  0
 28 29  1  0  0  0  0
 28 33  1  0  0  0  0
 29 30  1  0  0  0  0
 29 36  1  6  0  0  0
 30 31  1  0  0  0  0
 30 37  1  1  0  0  0
 31 32  1  0  0  0  0
 31 34  1  6  0  0  0
 32 33  1  0  0  0  0
 33 35  1  6  0  0  0
M  END
>  <CHROM.1>
-177.87217756,66.98751391,-175.75823023,-67.51982048,-164.01609743,-61.63530359
-4.76251043,28.34675031,65.05443573,-2.80338187,-0.08599761,2.82618930

>  <Name>
ligand

>  <RI>
0

>  <Rbt.Current_Directory>
/home/itssahil/PROJECTS/Mol_Feturizer/Test_systems_manuscript/rnas/2g5k

>  <Rbt.Executable>
rbdock ($Id: //depot/dev/client3/rdock/2013.1/src/exe/rbdock.cxx#4 $)

>  <Rbt.Library>
libRbt.so (2013.1, Build901 2013/11/27)

>  <Rbt.Parameter_File>
/export/apps/rDock/src/rDock_2013.1_src/data/scripts/dock_solv.prm

>  <Rbt.Receptor>
prm/pocket_docking_5.prm

>  <SCORE>
-8.38692

>  <SCORE.INTER>
-3.7804

>  <SCORE.INTER.CONST>
1

>  <SCORE.INTER.POLAR>
0

>  <SCORE.INTER.ROT>
6

>  <SCORE.INTER.SOLV>
14.8281

>  <SCORE.INTER.VDW>
-15.063

>  <SCORE.INTER.norm>
-0.102173

>  <SCORE.INTRA>
-4.60652

>  <SCORE.INTRA.DIHEDRAL>
-9.73724

>  <SCORE.INTRA.DIHEDRAL.0>
11.3972

>  <SCORE.INTRA.POLAR>
0

>  <SCORE.INTRA.POLAR.0>
0

>  <SCORE.INTRA.REPUL>
0

>  <SCORE.INTRA.REPUL.0>
0

>  <SCORE.INTRA.SOLV>
0.0868749

>  <SCORE.INTRA.SOLV.lig_0>
-92.3891

>  <SCORE.INTRA.VDW>
0.218665

>  <SCORE.INTRA.VDW.0>
-2.90606

>  <SCORE.INTRA.norm>
-0.1245

>  <SCORE.RESTR>
0

>  <SCORE.RESTR.CAVITY>
0

>  <SCORE.RESTR.norm>
0

>  <SCORE.SYSTEM>
0

>  <SCORE.SYSTEM.CONST>
0

>  <SCORE.SYSTEM.DIHEDRAL>
0

>  <SCORE.SYSTEM.SOLV>
0

>  <SCORE.SYSTEM.norm>
0

>  <SCORE.heavy>
37

>  <SCORE.norm>
-0.226673

>  <RMSD>
9.963

$$$$
ligand
 OpenBabel02271912133D
libRbt.so/2013.1/901 2013/11/27
 37 40  0  0  0  0  0  0  0  0999 V2000
   -6.8378   31.6626   65.3605 C   0  0  1  0  0  0  0  0  0  0  0  0
   -5.5973   32.3440   64.7161 C   0  0  1  0  0  0  0  0  0  0  0  0
   -4.6772   31.3249   64.0174 C   0  0  0  0  0  0  0  0  0  0  0  0
   -4.2433   30.2420   65.0540 C   0  0  1  0  0  0  0  0  0  0  0  0
   -5.4942   29.5257   65.6588 C   0  0  1  0  0  0  0  0  0  0  0  0
   -5.0279   28.4257   66.7158 C   0  0  1  0  0  0  0  0  0  0  0  0
   -4.1072   27.3948   65.9993 C   0  0  1  0  0  0  0  0  0  0  0  0
   -2.8991   28.1663   65.3877 C   0  0  2  0  0  0  0  0  0  0  0  0
   -4.5508   25.2112   67.3205 C   0  0  0  0  0  0  0  0  0  0  0  0
   -6.0160   33.3971   63.7669 N   0  0  0  0  0  0  0  0  0  0  0  0
   -3.6324   26.3424   66.9739 N   0  0  0  0  0  0  0  0  0  0  0  0
   -7.7543   31.1408   64.3786 O   0  0  0  0  0  0  0  0  0  0  0  0
   -6.3634   30.5798   66.2615 O   0  0  0  0  0  0  0  0  0  0  0  0
   -3.3420   29.2064   64.4500 O   0  0  0  0  0  0  0  0  0  0  0  0
   -4.2800   29.0448   67.7543 O   0  0  0  0  0  0  0  0  0  0  0  0
   -2.0384   27.2624   64.7041 O   0  0  0  0  0  0  0  0  0  0  0  0
   -0.6954   27.7671   64.5021 C   0  0  2  0  0  0  0  0  0  0  0  0
    0.1290   26.9046   63.5173 C   0  0  1  0  0  0  0  0  0  0  0  0
    0.4050   25.4873   64.1151 C   0  0  2  0  0  0  0  0  0  0  0  0
    1.1824   25.6406   65.4066 C   0  0  1  0  0  0  0  0  0  0  0  0
    0.3378   26.4855   66.4069 C   0  0  1  0  0  0  0  0  0  0  0  0
    1.0644   26.7056   67.7323 C   0  0  0  0  0  0  0  0  0  0  0  0
    1.4677   24.2985   65.9689 N   0  0  0  0  0  0  0  0  0  0  0  0
    0.0367   27.8199   65.8027 O   0  0  0  0  0  0  0  0  0  0  0  0
   -0.6072   26.8448   62.2753 O   0  0  0  0  0  0  0  0  0  0  0  0
    1.1803   24.7150   63.1955 O   0  0  0  0  0  0  0  0  0  0  0  0
    2.2769   27.3776   67.4921 O   0  0  0  0  0  0  0  0  0  0  0  0
   -9.0901   30.5259   64.7355 C   0  0  1  0  0  0  0  0  0  0  0  0
   -8.8286   29.1934   65.4897 C   0  0  1  0  0  0  0  0  0  0  0  0
  -10.1800   28.5238   65.8733 C   0  0  2  0  0  0  0  0  0  0  0  0
  -10.9804   29.4830   66.7884 C   0  0  1  0  0  0  0  0  0  0  0  0
  -11.2671   30.8376   66.0468 C   0  0  0  0  0  0  0  0  0  0  0  0
   -9.9144   31.4741   65.6625 C   0  0  2  0  0  0  0  0  0  0  0  0
  -12.2679   28.8522   67.1664 N   0  0  0  0  0  0  0  0  0  0  0  0
  -10.1908   32.7372   64.9696 N   0  0  0  0  0  0  0  0  0  0  0  0
   -8.0799   28.2980   64.6382 O   0  0  0  0  0  0  0  0  0  0  0  0
   -9.9088   27.2854   66.5668 O   0  0  0  0  0  0  0  0  0  0  0  0
  1  2  1  0  0  0  0
  1 12  1  6  0  0  0
  1 13  1  0  0  0  0
  2  3  1  0  0  0  0
  2 10  1  6  0  0  0
  4  3  1  6  0  0  0
  4  5  1  0  0  0  0
  4 14  1  0  0  0  0
  5  6  1  0  0  0  0
  5 13  1  1  0  0  0
  6  7  1  0  0  0  0
  6 15  1  1  0  0  0
  7  8  1  0  0  0  0
  7 11  1  1  0  0  0
  8 14  1  0  0  0  0
  8 16  1  6  0  0  0
  9 11  1  0  0  0  0
 17 16  1  1  0  0  0
 17 18  1  0  0  0  0
 17 24  1  0  0  0  0
 18 19  1  0  0  0  0
 18 25  1  6  0  0  0
 19 20  1  0  0  0  0
 19 26  1  6  0  0  0
 20 21  1  0  0  0  0
 20 23  1  1  0  0  0
 21 22  1  1  0  0  0
 21 24  1  0  0  0  0
 22 27  1  0  0  0  0
 28 12  1  1  0  0  0
 28 29  1  0  0  0  0
 28 33  1  0  0  0  0
 29 30  1  0  0  0  0
 29 36  1  6  0  0  0
 30 31  1  0  0  0  0
 30 37  1  1  0  0  0
 31 32  1  0  0  0  0
 31 34  1  6  0  0  0
 32 33  1  0  0  0  0
 33 35  1  6  0  0  0
M  END
>  <CHROM.1>
-175.12479533,80.31137106,-159.96555357,-67.83544491,-168.25899803,59.57821361
-4.56434588,28.57740291,65.47947954,-2.80785747,-0.20800293,2.69569624

>  <Name>
ligand

>  <RI>
0

>  <Rbt.Current_Directory>
/home/itssahil/PROJECTS/Mol_Feturizer/Test_systems_manuscript/rnas/2g5k

>  <Rbt.Executable>
rbdock ($Id: //depot/dev/client3/rdock/2013.1/src/exe/rbdock.cxx#4 $)

>  <Rbt.Library>
libRbt.so (2013.1, Build901 2013/11/27)

>  <Rbt.Parameter_File>
/export/apps/rDock/src/rDock_2013.1_src/data/scripts/dock_solv.prm

>  <Rbt.Receptor>
prm/pocket_docking_3.prm

>  <SCORE>
-7.32954

>  <SCORE.INTER>
-2.62141

>  <SCORE.INTER.CONST>
1

>  <SCORE.INTER.POLAR>
0

>  <SCORE.INTER.ROT>
6

>  <SCORE.INTER.SOLV>
14.3022

>  <SCORE.INTER.VDW>
-14.115

>  <SCORE.INTER.norm>
-0.0708489

>  <SCORE.INTRA>
-4.71276

>  <SCORE.INTRA.DIHEDRAL>
-8.18243

>  <SCORE.INTRA.DIHEDRAL.0>
11.3972

>  <SCORE.INTRA.POLAR>
0

>  <SCORE.INTRA.POLAR.0>
0

>  <SCORE.INTRA.REPUL>
0

>  <SCORE.INTRA.REPUL.0>
0

>  <SCORE.INTRA.SOLV>
-0.148885

>  <SCORE.INTRA.SOLV.lig_0>
-92.3891

>  <SCORE.INTRA.VDW>
-0.547104

>  <SCORE.INTRA.VDW.0>
-2.90606

>  <SCORE.INTRA.norm>
-0.127372

>  <SCORE.RESTR>
0.00462871

>  <SCORE.RESTR.CAVITY>
0.00462871

>  <SCORE.RESTR.norm>
0.0001251

>  <SCORE.SYSTEM>
0

>  <SCORE.SYSTEM.CONST>
0

>  <SCORE.SYSTEM.DIHEDRAL>
0

>  <SCORE.SYSTEM.SOLV>
0

>  <SCORE.SYSTEM.norm>
0

>  <SCORE.heavy>
37

>  <SCORE.norm>
-0.198096

>  <RMSD>
9.967

$$$$
ligand
 OpenBabel02271912133D
libRbt.so/2013.1/901 2013/11/27
 37 40  0  0  0  0  0  0  0  0999 V2000
   -6.7949   31.0365   67.6536 C   0  0  1  0  0  0  0  0  0  0  0  0
   -6.7357   31.2987   66.1219 C   0  0  1  0  0  0  0  0  0  0  0  0
   -5.5849   30.5269   65.4485 C   0  0  0  0  0  0  0  0  0  0  0  0
   -4.2407   30.9237   66.1348 C   0  0  1  0  0  0  0  0  0  0  0  0
   -4.2894   30.6088   67.6652 C   0  0  1  0  0  0  0  0  0  0  0  0
   -2.9077   31.0235   68.3461 C   0  0  1  0  0  0  0  0  0  0  0  0
   -1.7520   30.2319   67.6667 C   0  0  1  0  0  0  0  0  0  0  0  0
   -1.7726   30.5559   66.1424 C   0  0  2  0  0  0  0  0  0  0  0  0
    0.5940   29.5357   68.5164 C   0  0  0  0  0  0  0  0  0  0  0  0
   -8.0263   30.9602   65.4854 N   0  0  0  0  0  0  0  0  0  0  0  0
   -0.4222   30.6094   68.2764 N   0  0  0  0  0  0  0  0  0  0  0  0
   -7.1901   29.6870   67.9686 O   0  0  0  0  0  0  0  0  0  0  0  0
   -5.4606   31.3402   68.2338 O   0  0  0  0  0  0  0  0  0  0  0  0
   -3.0648   30.2116   65.5350 O   0  0  0  0  0  0  0  0  0  0  0  0
   -2.6731   32.4117   68.1485 O   0  0  0  0  0  0  0  0  0  0  0  0
   -0.7413   29.8360   65.4765 O   0  0  0  0  0  0  0  0  0  0  0  0
   -0.5804   30.1931   64.0816 C   0  0  2  0  0  0  0  0  0  0  0  0
   -1.1600   29.1302   63.1184 C   0  0  1  0  0  0  0  0  0  0  0  0
   -0.3471   27.7983   63.2049 C   0  0  2  0  0  0  0  0  0  0  0  0
    1.0934   28.0752   62.8251 C   0  0  1  0  0  0  0  0  0  0  0  0
    1.6834   29.1247   63.8141 C   0  0  1  0  0  0  0  0  0  0  0  0
    3.1327   29.4766   63.4841 C   0  0  0  0  0  0  0  0  0  0  0  0
    1.8669   26.8114   62.8831 N   0  0  0  0  0  0  0  0  0  0  0  0
    0.8664   30.3759   63.7597 O   0  0  0  0  0  0  0  0  0  0  0  0
   -2.5519   28.9494   63.4622 O   0  0  0  0  0  0  0  0  0  0  0  0
   -0.8904   26.8379   62.2962 O   0  0  0  0  0  0  0  0  0  0  0  0
    3.1902   30.0594   62.2049 O   0  0  0  0  0  0  0  0  0  0  0  0
   -8.6124   29.2976   68.3084 C   0  0  1  0  0  0  0  0  0  0  0  0
   -8.6692   27.7546   68.4776 C   0  0  1  0  0  0  0  0  0  0  0  0
  -10.1194   27.3094   68.8251 C   0  0  2  0  0  0  0  0  0  0  0  0
  -10.5558   27.9872   70.1474 C   0  0  1  0  0  0  0  0  0  0  0  0
  -10.5161   29.5507   70.0019 C   0  0  0  0  0  0  0  0  0  0  0  0
   -9.0738   29.9663   69.6418 C   0  0  2  0  0  0  0  0  0  0  0  0
  -11.9345   27.5646   70.4924 N   0  0  0  0  0  0  0  0  0  0  0  0
   -9.0455   31.4267   69.5065 N   0  0  0  0  0  0  0  0  0  0  0  0
   -8.2602   27.1205   67.2456 O   0  0  0  0  0  0  0  0  0  0  0  0
  -10.1458   25.8721   68.9706 O   0  0  0  0  0  0  0  0  0  0  0  0
  1  2  1  0  0  0  0
  1 12  1  6  0  0  0
  1 13  1  0  0  0  0
  2  3  1  0  0  0  0
  2 10  1  6  0  0  0
  4  3  1  6  0  0  0
  4  5  1  0  0  0  0
  4 14  1  0  0  0  0
  5  6  1  0  0  0  0
  5 13  1  1  0  0  0
  6  7  1  0  0  0  0
  6 15  1  6  0  0  0
  7  8  1  0  0  0  0
  7 11  1  1  0  0  0
  8 14  1  0  0  0  0
  8 16  1  6  0  0  0
  9 11  1  0  0  0  0
 17 16  1  1  0  0  0
 17 18  1  0  0  0  0
 17 24  1  0  0  0  0
 18 19  1  0  0  0  0
 18 25  1  1  0  0  0
 19 20  1  0  0  0  0
 19 26  1  6  0  0  0
 20 21  1  0  0  0  0
 20 23  1  1  0  0  0
 21 22  1  6  0  0  0
 21 24  1  0  0  0  0
 22 27  1  0  0  0  0
 28 12  1  1  0  0  0
 28 29  1  0  0  0  0
 28 33  1  0  0  0  0
 29 30  1  0  0  0  0
 29 36  1  6  0  0  0
 30 31  1  0  0  0  0
 30 37  1  1  0  0  0
 31 32  1  0  0  0  0
 31 34  1  6  0  0  0
 32 33  1  0  0  0  0
 33 35  1  6  0  0  0
M  END
>  <CHROM.1>
-96.70410053,140.08929625,-173.08563739,175.64275957,-104.40823493,62.21778635
-4.04986635,29.49119224,66.44481993,-2.86628972,-0.37681551,-2.41599736

>  <Name>
ligand

>  <RI>
0

>  <Rbt.Current_Directory>
/home/itssahil/PROJECTS/Mol_Feturizer/Test_systems_manuscript/rnas/2g5k

>  <Rbt.Executable>
rbdock ($Id: //depot/dev/client3/rdock/2013.1/src/exe/rbdock.cxx#4 $)

>  <Rbt.Library>
libRbt.so (2013.1, Build901 2013/11/27)

>  <Rbt.Parameter_File>
/export/apps/rDock/src/rDock_2013.1_src/data/scripts/dock_solv.prm

>  <Rbt.Receptor>
prm/pocket_docking_7.prm

>  <SCORE>
-6.62663

>  <SCORE.INTER>
-8.01077

>  <SCORE.INTER.CONST>
1

>  <SCORE.INTER.POLAR>
0

>  <SCORE.INTER.ROT>
6

>  <SCORE.INTER.SOLV>
16.9124

>  <SCORE.INTER.VDW>
-18.578

>  <SCORE.INTER.norm>
-0.216507

>  <SCORE.INTRA>
1.38414

>  <SCORE.INTRA.DIHEDRAL>
0.769277

>  <SCORE.INTRA.DIHEDRAL.0>
11.3972

>  <SCORE.INTRA.POLAR>
0

>  <SCORE.INTRA.POLAR.0>
0

>  <SCORE.INTRA.REPUL>
0

>  <SCORE.INTRA.REPUL.0>
0

>  <SCORE.INTRA.SOLV>
1.47616

>  <SCORE.INTRA.SOLV.lig_0>
-92.3891

>  <SCORE.INTRA.VDW>
0.261418

>  <SCORE.INTRA.VDW.0>
-2.90606

>  <SCORE.INTRA.norm>
0.0374092

>  <SCORE.RESTR>
0

>  <SCORE.RESTR.CAVITY>
0

>  <SCORE.RESTR.norm>
0

>  <SCORE.SYSTEM>
0

>  <SCORE.SYSTEM.CONST>
0

>  <SCORE.SYSTEM.DIHEDRAL>
0

>  <SCORE.SYSTEM.SOLV>
0

>  <SCORE.SYSTEM.norm>
0

>  <SCORE.heavy>
37

>  <SCORE.norm>
-0.179098

>  <RMSD>
9.967

$$$$
ligand
 OpenBabel02271912133D
libRbt.so/2013.1/901 2013/11/27
 37 40  0  0  0  0  0  0  0  0999 V2000
   -7.3350   32.0276   64.7257 C   0  0  1  0  0  0  0  0  0  0  0  0
   -6.0740   32.7317   64.1491 C   0  0  1  0  0  0  0  0  0  0  0  0
   -5.0942   31.7286   63.5110 C   0  0  0  0  0  0  0  0  0  0  0  0
   -4.6981   30.6607   64.5777 C   0  0  1  0  0  0  0  0  0  0  0  0
   -5.9665   29.9213   65.1144 C   0  0  1  0  0  0  0  0  0  0  0  0
   -5.5389   28.8370   66.2036 C   0  0  1  0  0  0  0  0  0  0  0  0
   -4.5573   27.8221   65.5478 C   0  0  1  0  0  0  0  0  0  0  0  0
   -3.3323   28.6157   65.0015 C   0  0  2  0  0  0  0  0  0  0  0  0
   -4.9265   25.5336   66.7040 C   0  0  0  0  0  0  0  0  0  0  0  0
   -6.4593   33.7707   63.1707 N   0  0  0  0  0  0  0  0  0  0  0  0
   -4.1175   26.7851   66.5548 N   0  0  0  0  0  0  0  0  0  0  0  0
   -8.1824   31.4814   63.6962 O   0  0  0  0  0  0  0  0  0  0  0  0
   -6.8907   30.9599   65.6594 O   0  0  0  0  0  0  0  0  0  0  0  0
   -3.7422   29.6412   64.0332 O   0  0  0  0  0  0  0  0  0  0  0  0
   -4.8650   29.4773   67.2792 O   0  0  0  0  0  0  0  0  0  0  0  0
   -2.4152   27.7266   64.3742 O   0  0  0  0  0  0  0  0  0  0  0  0
   -1.1231   28.3175   64.0905 C   0  0  2  0  0  0  0  0  0  0  0  0
   -0.1835   27.3641   63.3147 C   0  0  1  0  0  0  0  0  0  0  0  0
    0.2118   26.1345   64.1945 C   0  0  2  0  0  0  0  0  0  0  0  0
    0.9253   26.6272   65.4371 C   0  0  1  0  0  0  0  0  0  0  0  0
   -0.0331   27.5645   66.2313 C   0  0  1  0  0  0  0  0  0  0  0  0
    0.6220   28.1238   67.4927 C   0  0  0  0  0  0  0  0  0  0  0  0
    1.3236   25.4645   66.2669 N   0  0  0  0  0  0  0  0  0  0  0  0
   -0.4448   28.7095   65.3620 O   0  0  0  0  0  0  0  0  0  0  0  0
   -0.8671   26.9767   62.1020 O   0  0  0  0  0  0  0  0  0  0  0  0
    1.0913   25.2770   63.4635 O   0  0  0  0  0  0  0  0  0  0  0  0
   -0.2895   28.9653   68.1563 O   0  0  0  0  0  0  0  0  0  0  0  0
   -9.4997   30.7947   63.9846 C   0  0  1  0  0  0  0  0  0  0  0  0
   -9.2072   29.4871   64.7704 C   0  0  1  0  0  0  0  0  0  0  0  0
  -10.5385   28.7452   65.0852 C   0  0  2  0  0  0  0  0  0  0  0  0
  -11.4435   29.6663   65.9401 C   0  0  1  0  0  0  0  0  0  0  0  0
  -11.7630   30.9946   65.1651 C   0  0  0  0  0  0  0  0  0  0  0  0
  -10.4286   31.7035   64.8501 C   0  0  2  0  0  0  0  0  0  0  0  0
  -12.7129   28.9667   66.2525 N   0  0  0  0  0  0  0  0  0  0  0  0
  -10.7354   32.9416   64.1256 N   0  0  0  0  0  0  0  0  0  0  0  0
   -8.3611   28.6274   63.9752 O   0  0  0  0  0  0  0  0  0  0  0  0
  -10.2382   27.5315   65.8097 O   0  0  0  0  0  0  0  0  0  0  0  0
  1  2  1  0  0  0  0
  1 12  1  6  0  0  0
  1 13  1  0  0  0  0
  2  3  1  0  0  0  0
  2 10  1  6  0  0  0
  4  3  1  6  0  0  0
  4  5  1  0  0  0  0
  4 14  1  0  0  0  0
  5  6  1  0  0  0  0
  5 13  1  1  0  0  0
  6  7  1  0  0  0  0
  6 15  1  1  0  0  0
  7  8  1  0  0  0  0
  7 11  1  1  0  0  0
  8 14  1  0  0  0  0
  8 16  1  6  0  0  0
  9 11  1  0  0  0  0
 17 16  1  1  0  0  0
 17 18  1  0  0  0  0
 17 24  1  0  0  0  0
 18 19  1  0  0  0  0
 18 25  1  6  0  0  0
 19 20  1  0  0  0  0
 19 26  1  6  0  0  0
 20 21  1  0  0  0  0
 20 23  1  1  0  0  0
 21 22  1  1  0  0  0
 21 24  1  0  0  0  0
 22 27  1  0  0  0  0
 28 12  1  1  0  0  0
 28 29  1  0  0  0  0
 28 33  1  0  0  0  0
 29 30  1  0  0  0  0
 29 36  1  6  0  0  0
 30 31  1  0  0  0  0
 30 37  1  1  0  0  0
 31 32  1  0  0  0  0
 31 34  1  6  0  0  0
 32 33  1  0  0  0  0
 33 35  1  6  0  0  0
M  END
>  <CHROM.1>
-177.45915602,89.51955877,-167.49079011,-65.81527834,-175.69175964,179.62602257
-5.03267261,29.07090717,65.03925393,-2.81629267,-0.12005823,2.72482836

>  <Name>
ligand

>  <RI>
0

>  <Rbt.Current_Directory>
/home/itssahil/PROJECTS/Mol_Feturizer/Test_systems_manuscript/rnas/2g5k

>  <Rbt.Executable>
rbdock ($Id: //depot/dev/client3/rdock/2013.1/src/exe/rbdock.cxx#4 $)

>  <Rbt.Library>
libRbt.so (2013.1, Build901 2013/11/27)

>  <Rbt.Parameter_File>
/export/apps/rDock/src/rDock_2013.1_src/data/scripts/dock_solv.prm

>  <Rbt.Receptor>
prm/pocket_docking_4.prm

>  <SCORE>
-8.92822

>  <SCORE.INTER>
-3.11847

>  <SCORE.INTER.CONST>
1

>  <SCORE.INTER.POLAR>
0

>  <SCORE.INTER.ROT>
6

>  <SCORE.INTER.SOLV>
11.7893

>  <SCORE.INTER.VDW>
-13.6088

>  <SCORE.INTER.norm>
-0.0842831

>  <SCORE.INTRA>
-5.80975

>  <SCORE.INTRA.DIHEDRAL>
-9.74511

>  <SCORE.INTRA.DIHEDRAL.0>
11.3972

>  <SCORE.INTRA.POLAR>
0

>  <SCORE.INTRA.POLAR.0>
0

>  <SCORE.INTRA.REPUL>
0

>  <SCORE.INTRA.REPUL.0>
0

>  <SCORE.INTRA.SOLV>
-0.918797

>  <SCORE.INTRA.SOLV.lig_0>
-92.3891

>  <SCORE.INTRA.VDW>
-0.477795

>  <SCORE.INTRA.VDW.0>
-2.90606

>  <SCORE.INTRA.norm>
-0.15702

>  <SCORE.RESTR>
0

>  <SCORE.RESTR.CAVITY>
0

>  <SCORE.RESTR.norm>
0

>  <SCORE.SYSTEM>
0

>  <SCORE.SYSTEM.CONST>
0

>  <SCORE.SYSTEM.DIHEDRAL>
0

>  <SCORE.SYSTEM.SOLV>
0

>  <SCORE.SYSTEM.norm>
0

>  <SCORE.heavy>
37

>  <SCORE.norm>
-0.241303

>  <RMSD>
9.984

$$$$
ligand
 OpenBabel02271912133D
libRbt.so/2013.1/901 2013/11/27
 37 40  0  0  0  0  0  0  0  0999 V2000
   -7.1101   26.8129   64.8393 C   0  0  1  0  0  0  0  0  0  0  0  0
   -6.6056   25.7126   65.8157 C   0  0  1  0  0  0  0  0  0  0  0  0
   -5.4013   26.1896   66.6497 C   0  0  0  0  0  0  0  0  0  0  0  0
   -4.2634   26.6411   65.6820 C   0  0  1  0  0  0  0  0  0  0  0  0
   -4.7630   27.7832   64.7389 C   0  0  1  0  0  0  0  0  0  0  0  0
   -3.5858   28.2273   63.7582 C   0  0  1  0  0  0  0  0  0  0  0  0
   -2.3773   28.7170   64.6088 C   0  0  1  0  0  0  0  0  0  0  0  0
   -1.9446   27.5540   65.5517 C   0  0  2  0  0  0  0  0  0  0  0  0
   -0.2551   30.1496   64.2158 C   0  0  0  0  0  0  0  0  0  0  0  0
   -7.6999   25.2603   66.7007 N   0  0  0  0  0  0  0  0  0  0  0  0
   -1.2341   29.1337   63.7132 N   0  0  0  0  0  0  0  0  0  0  0  0
   -7.7153   27.9259   65.5257 O   0  0  0  0  0  0  0  0  0  0  0  0
   -5.9622   27.2690   64.0126 O   0  0  0  0  0  0  0  0  0  0  0  0
   -3.0491   27.1231   66.4187 O   0  0  0  0  0  0  0  0  0  0  0  0
   -3.1623   27.1141   62.9820 O   0  0  0  0  0  0  0  0  0  0  0  0
   -0.8513   27.9655   66.3642 O   0  0  0  0  0  0  0  0  0  0  0  0
   -0.3703   26.9399   67.2675 C   0  0  2  0  0  0  0  0  0  0  0  0
    0.8627   27.3901   68.0863 C   0  0  1  0  0  0  0  0  0  0  0  0
    2.1001   27.6052   67.1564 C   0  0  2  0  0  0  0  0  0  0  0  0
    2.4224   26.3007   66.4562 C   0  0  1  0  0  0  0  0  0  0  0  0
    1.1893   25.8642   65.6097 C   0  0  1  0  0  0  0  0  0  0  0  0
    1.4263   24.5398   64.8865 C   0  0  0  0  0  0  0  0  0  0  0  0
    3.6097   26.4908   65.5884 N   0  0  0  0  0  0  0  0  0  0  0  0
   -0.0003   25.7115   66.5029 O   0  0  0  0  0  0  0  0  0  0  0  0
    0.4928   28.5922   68.7979 O   0  0  0  0  0  0  0  0  0  0  0  0
    3.2296   28.0050   67.9359 O   0  0  0  0  0  0  0  0  0  0  0  0
    1.6132   23.5183   65.8358 O   0  0  0  0  0  0  0  0  0  0  0  0
   -8.3210   29.1125   64.8079 C   0  0  1  0  0  0  0  0  0  0  0  0
   -9.6341   28.6488   64.1197 C   0  0  1  0  0  0  0  0  0  0  0  0
  -10.2898   29.8410   63.3643 C   0  0  2  0  0  0  0  0  0  0  0  0
  -10.6111   30.9685   64.3762 C   0  0  1  0  0  0  0  0  0  0  0  0
   -9.2980   31.4633   65.0819 C   0  0  0  0  0  0  0  0  0  0  0  0
   -8.6579   30.2619   65.8095 C   0  0  2  0  0  0  0  0  0  0  0  0
  -11.2432   32.1077   63.6685 N   0  0  0  0  0  0  0  0  0  0  0  0
   -7.4323   30.7318   66.4645 N   0  0  0  0  0  0  0  0  0  0  0  0
   -9.3366   27.5954   63.1768 O   0  0  0  0  0  0  0  0  0  0  0  0
  -11.5037   29.3821   62.7290 O   0  0  0  0  0  0  0  0  0  0  0  0
  1  2  1  0  0  0  0
  1 12  1  1  0  0  0
  1 13  1  0  0  0  0
  2  3  1  0  0  0  0
  2 10  1  1  0  0  0
  4  3  1  1  0  0  0
  4  5  1  0  0  0  0
  4 14  1  0  0  0  0
  5  6  1  0  0  0  0
  5 13  1  6  0  0  0
  6  7  1  0  0  0  0
  6 15  1  1  0  0  0
  7  8  1  0  0  0  0
  7 11  1  6  0  0  0
  8 14  1  0  0  0  0
  8 16  1  1  0  0  0
  9 11  1  0  0  0  0
 17 16  1  6  0  0  0
 17 18  1  0  0  0  0
 17 24  1  0  0  0  0
 18 19  1  0  0  0  0
 18 25  1  6  0  0  0
 19 20  1  0  0  0  0
 19 26  1  1  0  0  0
 20 21  1  0  0  0  0
 20 23  1  6  0  0  0
 21 22  1  1  0  0  0
 21 24  1  0  0  0  0
 22 27  1  0  0  0  0
 28 12  1  1  0  0  0
 28 29  1  0  0  0  0
 28 33  1  0  0  0  0
 29 30  1  0  0  0  0
 29 36  1  6  0  0  0
 30 31  1  0  0  0  0
 30 37  1  1  0  0  0
 31 32  1  0  0  0  0
 31 34  1  6  0  0  0
 32 33  1  0  0  0  0
 33 35  1  6  0  0  0
M  END
>  <CHROM.1>
-178.28091109,153.64809372,-179.40905574,70.97270893,177.07758329,63.27219205
-3.89521857,27.83466263,65.38720123,2.90915062,-0.20216448,0.04477801

>  <Name>
ligand

>  <RI>
0

>  <Rbt.Current_Directory>
/home/itssahil/PROJECTS/Mol_Feturizer/Test_systems_manuscript/rnas/2g5k

>  <Rbt.Executable>
rbdock ($Id: //depot/dev/client3/rdock/2013.1/src/exe/rbdock.cxx#4 $)

>  <Rbt.Library>
libRbt.so (2013.1, Build901 2013/11/27)

>  <Rbt.Parameter_File>
/export/apps/rDock/src/rDock_2013.1_src/data/scripts/dock_solv.prm

>  <Rbt.Receptor>
prm/pocket_docking_6.prm

>  <SCORE>
-10.4918

>  <SCORE.INTER>
-5.0633

>  <SCORE.INTER.CONST>
1

>  <SCORE.INTER.POLAR>
0

>  <SCORE.INTER.ROT>
6

>  <SCORE.INTER.SOLV>
9.04122

>  <SCORE.INTER.VDW>
-13.9893

>  <SCORE.INTER.norm>
-0.136846

>  <SCORE.INTRA>
-5.42846

>  <SCORE.INTRA.DIHEDRAL>
-10.1971

>  <SCORE.INTRA.DIHEDRAL.0>
11.3972

>  <SCORE.INTRA.POLAR>
0

>  <SCORE.INTRA.POLAR.0>
0

>  <SCORE.INTRA.REPUL>
0

>  <SCORE.INTRA.REPUL.0>
0

>  <SCORE.INTRA.SOLV>
-1.18726

>  <SCORE.INTRA.SOLV.lig_0>
-92.3891

>  <SCORE.INTRA.VDW>
0.26373

>  <SCORE.INTRA.VDW.0>
-2.90606

>  <SCORE.INTRA.norm>
-0.146715

>  <SCORE.RESTR>
0

>  <SCORE.RESTR.CAVITY>
0

>  <SCORE.RESTR.norm>
0

>  <SCORE.SYSTEM>
0

>  <SCORE.SYSTEM.CONST>
0

>  <SCORE.SYSTEM.DIHEDRAL>
0

>  <SCORE.SYSTEM.SOLV>
0

>  <SCORE.SYSTEM.norm>
0

>  <SCORE.heavy>
37

>  <SCORE.norm>
-0.283561

>  <RMSD>
9.998

$$$$
ligand
 OpenBabel02271912133D
libRbt.so/2013.1/901 2013/11/27
 37 40  0  0  0  0  0  0  0  0999 V2000
   -6.1165   31.8323   65.6672 C   0  0  1  0  0  0  0  0  0  0  0  0
   -5.3353   32.0508   64.3404 C   0  0  1  0  0  0  0  0  0  0  0  0
   -4.3298   30.9155   64.0694 C   0  0  0  0  0  0  0  0  0  0  0  0
   -3.3522   30.8062   65.2809 C   0  0  1  0  0  0  0  0  0  0  0  0
   -4.1412   30.5348   66.6028 C   0  0  1  0  0  0  0  0  0  0  0  0
   -3.1238   30.4289   67.8268 C   0  0  1  0  0  0  0  0  0  0  0  0
   -2.1181   29.2733   67.5493 C   0  0  1  0  0  0  0  0  0  0  0  0
   -1.3874   29.5780   66.2070 C   0  0  2  0  0  0  0  0  0  0  0  0
   -1.5415   28.4362   69.9320 C   0  0  0  0  0  0  0  0  0  0  0  0
   -6.2694   32.1954   63.2038 N   0  0  0  0  0  0  0  0  0  0  0  0
   -1.1268   29.1509   68.6829 N   0  0  0  0  0  0  0  0  0  0  0  0
   -7.0241   30.7154   65.5968 O   0  0  0  0  0  0  0  0  0  0  0  0
   -5.1330   31.6395   66.7648 O   0  0  0  0  0  0  0  0  0  0  0  0
   -2.3370   29.7179   65.0953 O   0  0  0  0  0  0  0  0  0  0  0  0
   -2.3889   31.6400   67.9461 O   0  0  0  0  0  0  0  0  0  0  0  0
   -0.4692   28.5340   65.9033 O   0  0  0  0  0  0  0  0  0  0  0  0
   -1.0916   27.3391   65.3705 C   0  0  2  0  0  0  0  0  0  0  0  0
   -0.9467   26.1169   66.3078 C   0  0  1  0  0  0  0  0  0  0  0  0
    0.5486   25.6768   66.4215 C   0  0  2  0  0  0  0  0  0  0  0  0
    1.0585   25.3053   65.0438 C   0  0  1  0  0  0  0  0  0  0  0  0
    0.9379   26.5463   64.1094 C   0  0  1  0  0  0  0  0  0  0  0  0
    1.4131   26.2466   62.6890 C   0  0  0  0  0  0  0  0  0  0  0  0
    2.4708   24.8651   65.1465 N   0  0  0  0  0  0  0  0  0  0  0  0
   -0.4892   26.9890   64.0495 O   0  0  0  0  0  0  0  0  0  0  0  0
   -1.5116   26.4839   67.5862 O   0  0  0  0  0  0  0  0  0  0  0  0
    0.6558   24.5381   67.2787 O   0  0  0  0  0  0  0  0  0  0  0  0
    2.8084   26.0662   62.6936 O   0  0  0  0  0  0  0  0  0  0  0  0
   -8.2456   30.6947   64.7038 C   0  0  1  0  0  0  0  0  0  0  0  0
   -8.7340   29.2256   64.5780 C   0  0  1  0  0  0  0  0  0  0  0  0
   -9.9903   29.1579   63.6620 C   0  0  2  0  0  0  0  0  0  0  0  0
  -11.1169   30.0222   64.2803 C   0  0  1  0  0  0  0  0  0  0  0  0
  -10.6528   31.5171   64.4112 C   0  0  0  0  0  0  0  0  0  0  0  0
   -9.3980   31.5569   65.3093 C   0  0  2  0  0  0  0  0  0  0  0  0
  -12.3222   29.9597   63.4191 N   0  0  0  0  0  0  0  0  0  0  0  0
   -8.9704   32.9553   65.4255 N   0  0  0  0  0  0  0  0  0  0  0  0
   -7.6834   28.4172   64.0034 O   0  0  0  0  0  0  0  0  0  0  0  0
  -10.4197   27.7823   63.5569 O   0  0  0  0  0  0  0  0  0  0  0  0
  1  2  1  0  0  0  0
  1 12  1  6  0  0  0
  1 13  1  0  0  0  0
  2  3  1  0  0  0  0
  2 10  1  6  0  0  0
  4  3  1  6  0  0  0
  4  5  1  0  0  0  0
  4 14  1  0  0  0  0
  5  6  1  0  0  0  0
  5 13  1  1  0  0  0
  6  7  1  0  0  0  0
  6 15  1  6  0  0  0
  7  8  1  0  0  0  0
  7 11  1  1  0  0  0
  8 14  1  0  0  0  0
  8 16  1  6  0  0  0
  9 11  1  0  0  0  0
 17 16  1  1  0  0  0
 17 18  1  0  0  0  0
 17 24  1  0  0  0  0
 18 19  1  0  0  0  0
 18 25  1  1  0  0  0
 19 20  1  0  0  0  0
 19 26  1  1  0  0  0
 20 21  1  0  0  0  0
 20 23  1  1  0  0  0
 21 22  1  6  0  0  0
 21 24  1  0  0  0  0
 22 27  1  0  0  0  0
 28 12  1  1  0  0  0
 28 29  1  0  0  0  0
 28 33  1  0  0  0  0
 29 30  1  0  0  0  0
 29 36  1  6  0  0  0
 30 31  1  0  0  0  0
 30 37  1  1  0  0  0
 31 32  1  0  0  0  0
 31 34  1  6  0  0  0
 32 33  1  0  0  0  0
 33 35  1  6  0  0  0
M  END
>  <CHROM.1>
-66.64849324,80.00645758,77.53042800,163.87079362,-114.77606734,-69.53198318
-3.94525046,29.01946556,65.43445618,-2.92920153,0.35014735,-2.40053551

>  <Name>
ligand

>  <RI>
0

>  <Rbt.Current_Directory>
/home/itssahil/PROJECTS/Mol_Feturizer/Test_systems_manuscript/rnas/2g5k

>  <Rbt.Executable>
rbdock ($Id: //depot/dev/client3/rdock/2013.1/src/exe/rbdock.cxx#4 $)

>  <Rbt.Library>
libRbt.so (2013.1, Build901 2013/11/27)

>  <Rbt.Parameter_File>
/export/apps/rDock/src/rDock_2013.1_src/data/scripts/dock_solv.prm

>  <Rbt.Receptor>
prm/pocket_docking_3.prm

>  <SCORE>
-1.58082

>  <SCORE.INTER>
-3.81239

>  <SCORE.INTER.CONST>
1

>  <SCORE.INTER.POLAR>
0

>  <SCORE.INTER.ROT>
6

>  <SCORE.INTER.SOLV>
12.5665

>  <SCORE.INTER.VDW>
-14.3304

>  <SCORE.INTER.norm>
-0.103038

>  <SCORE.INTRA>
2.22476

>  <SCORE.INTRA.DIHEDRAL>
-0.854055

>  <SCORE.INTRA.DIHEDRAL.0>
11.3972

>  <SCORE.INTRA.POLAR>
0

>  <SCORE.INTRA.POLAR.0>
0

>  <SCORE.INTRA.REPUL>
0

>  <SCORE.INTRA.REPUL.0>
0

>  <SCORE.INTRA.SOLV>
4.3984

>  <SCORE.INTRA.SOLV.lig_0>
-92.3891

>  <SCORE.INTRA.VDW>
0.452583

>  <SCORE.INTRA.VDW.0>
-2.90606

>  <SCORE.INTRA.norm>
0.0601286

>  <SCORE.RESTR>
0.00680939

>  <SCORE.RESTR.CAVITY>
0.00680939

>  <SCORE.RESTR.norm>
0.000184038

>  <SCORE.SYSTEM>
0

>  <SCORE.SYSTEM.CONST>
0

>  <SCORE.SYSTEM.DIHEDRAL>
0

>  <SCORE.SYSTEM.SOLV>
0

>  <SCORE.SYSTEM.norm>
0

>  <SCORE.heavy>
37

>  <SCORE.norm>
-0.0427249

>  <RMSD>
10.025

$$$$
ligand
 OpenBabel02271912133D
libRbt.so/2013.1/901 2013/11/27
 37 40  0  0  0  0  0  0  0  0999 V2000
   -7.1217   31.7063   68.0217 C   0  0  1  0  0  0  0  0  0  0  0  0
   -6.4594   32.6249   66.9559 C   0  0  1  0  0  0  0  0  0  0  0  0
   -5.4699   31.8522   66.0630 C   0  0  0  0  0  0  0  0  0  0  0  0
   -4.3910   31.1800   66.9682 C   0  0  1  0  0  0  0  0  0  0  0  0
   -5.0609   30.2184   68.0026 C   0  0  1  0  0  0  0  0  0  0  0  0
   -3.9412   29.5447   68.9175 C   0  0  1  0  0  0  0  0  0  0  0  0
   -2.9520   28.7581   68.0084 C   0  0  1  0  0  0  0  0  0  0  0  0
   -2.3421   29.7556   66.9780 C   0  0  2  0  0  0  0  0  0  0  0  0
   -2.0843   26.7331   69.3712 C   0  0  0  0  0  0  0  0  0  0  0  0
   -7.4889   33.2904   66.1299 N   0  0  0  0  0  0  0  0  0  0  0  0
   -1.8658   28.1161   68.8397 N   0  0  0  0  0  0  0  0  0  0  0  0
   -8.0212   30.7430   67.4391 O   0  0  0  0  0  0  0  0  0  0  0  0
   -6.0457   31.0226   68.7860 O   0  0  0  0  0  0  0  0  0  0  0  0
   -3.3850   30.4033   66.1717 O   0  0  0  0  0  0  0  0  0  0  0  0
   -3.2105   30.5536   69.6026 O   0  0  0  0  0  0  0  0  0  0  0  0
   -1.4434   29.0731   66.1111 O   0  0  0  0  0  0  0  0  0  0  0  0
   -0.9797   29.8731   64.9956 C   0  0  2  0  0  0  0  0  0  0  0  0
   -1.2608   29.2131   63.6249 C   0  0  1  0  0  0  0  0  0  0  0  0
   -0.4213   27.9061   63.4537 C   0  0  2  0  0  0  0  0  0  0  0  0
    1.0514   28.2517   63.5423 C   0  0  1  0  0  0  0  0  0  0  0  0
    1.3372   28.8900   64.9346 C   0  0  1  0  0  0  0  0  0  0  0  0
    2.8027   29.2892   65.0958 C   0  0  0  0  0  0  0  0  0  0  0  0
    1.8556   27.0195   63.3585 N   0  0  0  0  0  0  0  0  0  0  0  0
    0.4905   30.1105   65.1072 O   0  0  0  0  0  0  0  0  0  0  0  0
   -2.6828   28.9686   63.5469 O   0  0  0  0  0  0  0  0  0  0  0  0
   -0.6852   27.3234   62.1755 O   0  0  0  0  0  0  0  0  0  0  0  0
    3.5919   28.1293   65.2017 O   0  0  0  0  0  0  0  0  0  0  0  0
   -8.6451   29.6102   68.2249 C   0  0  1  0  0  0  0  0  0  0  0  0
   -9.5944   30.2208   69.2921 C   0  0  1  0  0  0  0  0  0  0  0  0
  -10.2563   29.0871   70.1279 C   0  0  2  0  0  0  0  0  0  0  0  0
  -11.0695   28.1681   69.1832 C   0  0  1  0  0  0  0  0  0  0  0  0
  -10.1314   27.5292   68.0974 C   0  0  0  0  0  0  0  0  0  0  0  0
   -9.4748   28.6714   67.2932 C   0  0  2  0  0  0  0  0  0  0  0  0
  -11.7110   27.0875   69.9700 N   0  0  0  0  0  0  0  0  0  0  0  0
   -8.5999   28.0668   66.2828 N   0  0  0  0  0  0  0  0  0  0  0  0
   -8.8378   31.0803   70.1731 O   0  0  0  0  0  0  0  0  0  0  0  0
  -11.1278   29.6812   71.1155 O   0  0  0  0  0  0  0  0  0  0  0  0
  1  2  1  0  0  0  0
  1 12  1  6  0  0  0
  1 13  1  0  0  0  0
  2  3  1  0  0  0  0
  2 10  1  6  0  0  0
  4  3  1  6  0  0  0
  4  5  1  0  0  0  0
  4 14  1  0  0  0  0
  5  6  1  0  0  0  0
  5 13  1  1  0  0  0
  6  7  1  0  0  0  0
  6 15  1  6  0  0  0
  7  8  1  0  0  0  0
  7 11  1  1  0  0  0
  8 14  1  0  0  0  0
  8 16  1  6  0  0  0
  9 11  1  0  0  0  0
 17 16  1  1  0  0  0
 17 18  1  0  0  0  0
 17 24  1  0  0  0  0
 18 19  1  0  0  0  0
 18 25  1  1  0  0  0
 19 20  1  0  0  0  0
 19 26  1  6  0  0  0
 20 21  1  0  0  0  0
 20 23  1  1  0  0  0
 21 22  1  6  0  0  0
 21 24  1  0  0  0  0
 22 27  1  0  0  0  0
 28 12  1  6  0  0  0
 28 29  1  0  0  0  0
 28 33  1  0  0  0  0
 29 30  1  0  0  0  0
 29 36  1  1  0  0  0
 30 31  1  0  0  0  0
 30 37  1  1  0  0  0
 31 32  1  0  0  0  0
 31 34  1  1  0  0  0
 32 33  1  0  0  0  0
 33 35  1  6  0  0  0
M  END
>  <CHROM.1>
171.20330445,89.83309829,171.25249580,65.33944379,-124.07833579,-70.45734359
-4.43152380,29.45364787,66.95046001,2.88042885,-0.32777960,2.22604547

>  <Name>
ligand

>  <RI>
0

>  <Rbt.Current_Directory>
/home/itssahil/PROJECTS/Mol_Feturizer/Test_systems_manuscript/rnas/2g5k

>  <Rbt.Executable>
rbdock ($Id: //depot/dev/client3/rdock/2013.1/src/exe/rbdock.cxx#4 $)

>  <Rbt.Library>
libRbt.so (2013.1, Build901 2013/11/27)

>  <Rbt.Parameter_File>
/export/apps/rDock/src/rDock_2013.1_src/data/scripts/dock_solv.prm

>  <Rbt.Receptor>
prm/pocket_docking_5.prm

>  <SCORE>
-10.4141

>  <SCORE.INTER>
-9.32893

>  <SCORE.INTER.CONST>
1

>  <SCORE.INTER.POLAR>
0

>  <SCORE.INTER.ROT>
6

>  <SCORE.INTER.SOLV>
12.1637

>  <SCORE.INTER.VDW>
-17.8738

>  <SCORE.INTER.norm>
-0.252133

>  <SCORE.INTRA>
-1.08515

>  <SCORE.INTRA.DIHEDRAL>
-2.3895

>  <SCORE.INTRA.DIHEDRAL.0>
11.3972

>  <SCORE.INTRA.POLAR>
0

>  <SCORE.INTRA.POLAR.0>
0

>  <SCORE.INTRA.REPUL>
0

>  <SCORE.INTRA.REPUL.0>
0

>  <SCORE.INTRA.SOLV>
-0.76361

>  <SCORE.INTRA.SOLV.lig_0>
-92.3891

>  <SCORE.INTRA.VDW>
0.491405

>  <SCORE.INTRA.VDW.0>
-2.90606

>  <SCORE.INTRA.norm>
-0.0293284

>  <SCORE.RESTR>
0

>  <SCORE.RESTR.CAVITY>
0

>  <SCORE.RESTR.norm>
0

>  <SCORE.SYSTEM>
0

>  <SCORE.SYSTEM.CONST>
0

>  <SCORE.SYSTEM.DIHEDRAL>
0

>  <SCORE.SYSTEM.SOLV>
0

>  <SCORE.SYSTEM.norm>
0

>  <SCORE.heavy>
37

>  <SCORE.norm>
-0.281462

>  <RMSD>
10.030

$$$$
ligand
 OpenBabel02271912133D
libRbt.so/2013.1/901 2013/11/27
 37 40  0  0  0  0  0  0  0  0999 V2000
   -7.6254   32.7218   64.7005 C   0  0  1  0  0  0  0  0  0  0  0  0
   -6.5050   33.2515   63.7610 C   0  0  1  0  0  0  0  0  0  0  0  0
   -5.4357   32.1795   63.4768 C   0  0  0  0  0  0  0  0  0  0  0  0
   -4.8405   31.6874   64.8329 C   0  0  1  0  0  0  0  0  0  0  0  0
   -5.9656   31.1087   65.7509 C   0  0  1  0  0  0  0  0  0  0  0  0
   -5.3357   30.6142   67.1305 C   0  0  1  0  0  0  0  0  0  0  0  0
   -4.2639   29.5244   66.8347 C   0  0  1  0  0  0  0  0  0  0  0  0
   -3.1896   30.1440   65.8910 C   0  0  2  0  0  0  0  0  0  0  0  0
   -2.6934   29.9492   68.8506 C   0  0  0  0  0  0  0  0  0  0  0  0
   -7.0808   33.7545   62.4959 N   0  0  0  0  0  0  0  0  0  0  0  0
   -3.6329   29.0404   68.1194 N   0  0  0  0  0  0  0  0  0  0  0  0
   -8.4472   31.7198   64.0705 O   0  0  0  0  0  0  0  0  0  0  0  0
   -6.9899   32.1804   65.9302 O   0  0  0  0  0  0  0  0  0  0  0  0
   -3.7873   30.6365   64.6430 O   0  0  0  0  0  0  0  0  0  0  0  0
   -4.6956   31.7029   67.7833 O   0  0  0  0  0  0  0  0  0  0  0  0
   -2.1971   29.1735   65.5777 O   0  0  0  0  0  0  0  0  0  0  0  0
   -1.1285   29.6744   64.7372 C   0  0  2  0  0  0  0  0  0  0  0  0
   -1.1346   29.0503   63.3216 C   0  0  1  0  0  0  0  0  0  0  0  0
   -0.8050   27.5239   63.3848 C   0  0  2  0  0  0  0  0  0  0  0  0
    0.5684   27.3418   63.9985 C   0  0  1  0  0  0  0  0  0  0  0  0
    0.5636   27.9457   65.4348 C   0  0  1  0  0  0  0  0  0  0  0  0
    1.9247   27.8218   66.1167 C   0  0  0  0  0  0  0  0  0  0  0  0
    0.8980   25.8967   64.0415 N   0  0  0  0  0  0  0  0  0  0  0  0
    0.1968   29.3938   65.3659 O   0  0  0  0  0  0  0  0  0  0  0  0
   -2.4320   29.3101   62.7408 O   0  0  0  0  0  0  0  0  0  0  0  0
   -0.8008   26.9731   62.0658 O   0  0  0  0  0  0  0  0  0  0  0  0
    1.8444   28.3554   67.4160 O   0  0  0  0  0  0  0  0  0  0  0  0
   -9.5774   31.0076   64.7814 C   0  0  1  0  0  0  0  0  0  0  0  0
   -8.9628   30.0452   65.8343 C   0  0  1  0  0  0  0  0  0  0  0  0
  -10.0937   29.2873   66.5883 C   0  0  2  0  0  0  0  0  0  0  0  0
  -11.0052   30.3153   67.3029 C   0  0  1  0  0  0  0  0  0  0  0  0
  -11.6481   31.2975   66.2593 C   0  0  0  0  0  0  0  0  0  0  0  0
  -10.5087   32.0245   65.5139 C   0  0  2  0  0  0  0  0  0  0  0  0
  -12.0831   29.6038   68.0310 N   0  0  0  0  0  0  0  0  0  0  0  0
  -11.1171   32.9384   64.5409 N   0  0  0  0  0  0  0  0  0  0  0  0
   -8.1102   29.0867   65.1697 O   0  0  0  0  0  0  0  0  0  0  0  0
   -9.4958   28.3958   67.5556 O   0  0  0  0  0  0  0  0  0  0  0  0
  1  2  1  0  0  0  0
  1 12  1  6  0  0  0
  1 13  1  0  0  0  0
  2  3  1  0  0  0  0
  2 10  1  6  0  0  0
  4  3  1  6  0  0  0
  4  5  1  0  0  0  0
  4 14  1  0  0  0  0
  5  6  1  0  0  0  0
  5 13  1  1  0  0  0
  6  7  1  0  0  0  0
  6 15  1  6  0  0  0
  7  8  1  0  0  0  0
  7 11  1  1  0  0  0
  8 14  1  0  0  0  0
  8 16  1  6  0  0  0
  9 11  1  0  0  0  0
 17 16  1  1  0  0  0
 17 18  1  0  0  0  0
 17 24  1  0  0  0  0
 18 19  1  0  0  0  0
 18 25  1  1  0  0  0
 19 20  1  0  0  0  0
 19 26  1  6  0  0  0
 20 21  1  0  0  0  0
 20 23  1  1  0  0  0
 21 22  1  6  0  0  0
 21 24  1  0  0  0  0
 22 27  1  0  0  0  0
 28 12  1  1  0  0  0
 28 29  1  0  0  0  0
 28 33  1  0  0  0  0
 29 30  1  0  0  0  0
 29 36  1  6  0  0  0
 30 31  1  0  0  0  0
 30 37  1  1  0  0  0
 31 32  1  0  0  0  0
 31 34  1  6  0  0  0
 32 33  1  0  0  0  0
 33 35  1  6  0  0  0
M  END
>  <CHROM.1>
177.81109200,-71.91056091,-178.05743154,-70.62498430,-112.03846509,-178.63517411
-4.96392699,30.05362687,65.41308409,-3.07611270,-0.29845624,2.07180797

>  <Name>
ligand

>  <RI>
0

>  <Rbt.Current_Directory>
/home/itssahil/PROJECTS/Mol_Feturizer/Test_systems_manuscript/rnas/2g5k

>  <Rbt.Executable>
rbdock ($Id: //depot/dev/client3/rdock/2013.1/src/exe/rbdock.cxx#4 $)

>  <Rbt.Library>
libRbt.so (2013.1, Build901 2013/11/27)

>  <Rbt.Parameter_File>
/export/apps/rDock/src/rDock_2013.1_src/data/scripts/dock_solv.prm

>  <Rbt.Receptor>
prm/pocket_docking_4.prm

>  <SCORE>
-4.57164

>  <SCORE.INTER>
-3.58215

>  <SCORE.INTER.CONST>
1

>  <SCORE.INTER.POLAR>
0

>  <SCORE.INTER.ROT>
6

>  <SCORE.INTER.SOLV>
10.3929

>  <SCORE.INTER.VDW>
-13.4524

>  <SCORE.INTER.norm>
-0.0968148

>  <SCORE.INTRA>
-0.989488

>  <SCORE.INTRA.DIHEDRAL>
-3.77039

>  <SCORE.INTRA.DIHEDRAL.0>
11.3972

>  <SCORE.INTRA.POLAR>
0

>  <SCORE.INTRA.POLAR.0>
0

>  <SCORE.INTRA.REPUL>
0

>  <SCORE.INTRA.REPUL.0>
0

>  <SCORE.INTRA.SOLV>
-0.425992

>  <SCORE.INTRA.SOLV.lig_0>
-92.3891

>  <SCORE.INTRA.VDW>
1.10871

>  <SCORE.INTRA.VDW.0>
-2.90606

>  <SCORE.INTRA.norm>
-0.0267429

>  <SCORE.RESTR>
0

>  <SCORE.RESTR.CAVITY>
0

>  <SCORE.RESTR.norm>
0

>  <SCORE.SYSTEM>
0

>  <SCORE.SYSTEM.CONST>
0

>  <SCORE.SYSTEM.DIHEDRAL>
0

>  <SCORE.SYSTEM.SOLV>
0

>  <SCORE.SYSTEM.norm>
0

>  <SCORE.heavy>
37

>  <SCORE.norm>
-0.123558

>  <RMSD>
10.031

$$$$
ligand
 OpenBabel02271912133D
libRbt.so/2013.1/901 2013/11/27
 37 40  0  0  0  0  0  0  0  0999 V2000
  -10.1342   27.3209   66.2078 C   0  0  1  0  0  0  0  0  0  0  0  0
   -9.8276   27.1172   67.7188 C   0  0  1  0  0  0  0  0  0  0  0  0
   -8.6391   27.9782   68.1874 C   0  0  0  0  0  0  0  0  0  0  0  0
   -7.3919   27.6363   67.3140 C   0  0  1  0  0  0  0  0  0  0  0  0
   -7.6913   27.8932   65.8014 C   0  0  1  0  0  0  0  0  0  0  0  0
   -6.4050   27.5357   64.9281 C   0  0  1  0  0  0  0  0  0  0  0  0
   -5.2121   28.4171   65.4015 C   0  0  1  0  0  0  0  0  0  0  0  0
   -4.9815   28.1469   66.9189 C   0  0  2  0  0  0  0  0  0  0  0  0
   -3.1458   29.2244   64.0640 C   0  0  0  0  0  0  0  0  0  0  0  0
  -11.0258   27.4023   68.5363 N   0  0  0  0  0  0  0  0  0  0  0  0
   -3.9687   28.0962   64.6054 N   0  0  0  0  0  0  0  0  0  0  0  0
  -10.6567   28.6329   65.9217 O   0  0  0  0  0  0  0  0  0  0  0  0
   -8.8865   27.0749   65.4383 O   0  0  0  0  0  0  0  0  0  0  0  0
   -6.1861   28.4367   67.7077 O   0  0  0  0  0  0  0  0  0  0  0  0
   -6.0562   26.1715   65.1239 O   0  0  0  0  0  0  0  0  0  0  0  0
   -3.9088   28.9489   67.3998 O   0  0  0  0  0  0  0  0  0  0  0  0
   -3.6706   28.8213   68.8233 C   0  0  2  0  0  0  0  0  0  0  0  0
   -2.5682   29.7778   69.3363 C   0  0  1  0  0  0  0  0  0  0  0  0
   -1.1754   29.3919   68.7417 C   0  0  2  0  0  0  0  0  0  0  0  0
   -0.8356   27.9765   69.1625 C   0  0  1  0  0  0  0  0  0  0  0  0
   -1.9323   27.0116   68.6202 C   0  0  1  0  0  0  0  0  0  0  0  0
   -1.6736   25.5609   69.0224 C   0  0  0  0  0  0  0  0  0  0  0  0
    0.4953   27.6105   68.6205 N   0  0  0  0  0  0  0  0  0  0  0  0
   -3.2669   27.4223   69.1552 O   0  0  0  0  0  0  0  0  0  0  0  0
   -2.9645   31.1219   68.9835 O   0  0  0  0  0  0  0  0  0  0  0  0
   -0.1716   30.2784   69.2414 O   0  0  0  0  0  0  0  0  0  0  0  0
   -1.7775   25.4401   70.4203 O   0  0  0  0  0  0  0  0  0  0  0  0
  -11.4363   28.9592   64.6663 C   0  0  1  0  0  0  0  0  0  0  0  0
  -11.7913   30.4712   64.6909 C   0  0  1  0  0  0  0  0  0  0  0  0
  -12.5991   30.8499   63.4159 C   0  0  2  0  0  0  0  0  0  0  0  0
  -11.7427   30.5440   62.1624 C   0  0  1  0  0  0  0  0  0  0  0  0
  -11.3758   29.0177   62.1072 C   0  0  0  0  0  0  0  0  0  0  0  0
  -10.5906   28.6627   63.3878 C   0  0  2  0  0  0  0  0  0  0  0  0
  -12.5000   30.9079   60.9407 N   0  0  0  0  0  0  0  0  0  0  0  0
  -10.2531   27.2362   63.3292 N   0  0  0  0  0  0  0  0  0  0  0  0
  -12.5885   30.7588   65.8610 O   0  0  0  0  0  0  0  0  0  0  0  0
  -12.9214   32.2575   63.4666 O   0  0  0  0  0  0  0  0  0  0  0  0
  1  2  1  0  0  0  0
  1 12  1  1  0  0  0
  1 13  1  0  0  0  0
  2  3  1  0  0  0  0
  2 10  1  1  0  0  0
  4  3  1  1  0  0  0
  4  5  1  0  0  0  0
  4 14  1  0  0  0  0
  5  6  1  0  0  0  0
  5 13  1  6  0  0  0
  6  7  1  0  0  0  0
  6 15  1  1  0  0  0
  7  8  1  0  0  0  0
  7 11  1  6  0  0  0
  8 14  1  0  0  0  0
  8 16  1  1  0  0  0
  9 11  1  0  0  0  0
 17 16  1  6  0  0  0
 17 18  1  0  0  0  0
 17 24  1  0  0  0  0
 18 19  1  0  0  0  0
 18 25  1  6  0  0  0
 19 20  1  0  0  0  0
 19 26  1  1  0  0  0
 20 21  1  0  0  0  0
 20 23  1  6  0  0  0
 21 22  1  1  0  0  0
 21 24  1  0  0  0  0
 22 27  1  0  0  0  0
 28 12  1  1  0  0  0
 28 29  1  0  0  0  0
 28 33  1  0  0  0  0
 29 30  1  0  0  0  0
 29 36  1  1  0  0  0
 30 31  1  0  0  0  0
 30 37  1  1  0  0  0
 31 32  1  0  0  0  0
 31 34  1  6  0  0  0
 32 33  1  0  0  0  0
 33 35  1  6  0  0  0
M  END
>  <CHROM.1>
-159.91884532,133.86732403,176.64178048,-178.25088877,-175.87763303,65.28622697
-6.76023648,28.55208805,66.39329251,2.69432253,-0.16442362,-0.92301002

>  <Name>
ligand

>  <RI>
0

>  <Rbt.Current_Directory>
/home/itssahil/PROJECTS/Mol_Feturizer/Test_systems_manuscript/rnas/2g5k

>  <Rbt.Executable>
rbdock ($Id: //depot/dev/client3/rdock/2013.1/src/exe/rbdock.cxx#4 $)

>  <Rbt.Library>
libRbt.so (2013.1, Build901 2013/11/27)

>  <Rbt.Parameter_File>
/export/apps/rDock/src/rDock_2013.1_src/data/scripts/dock_solv.prm

>  <Rbt.Receptor>
prm/pocket_docking_5.prm

>  <SCORE>
-9.33345

>  <SCORE.INTER>
-6.4074

>  <SCORE.INTER.CONST>
1

>  <SCORE.INTER.POLAR>
0

>  <SCORE.INTER.ROT>
6

>  <SCORE.INTER.SOLV>
12.6577

>  <SCORE.INTER.VDW>
-16.0908

>  <SCORE.INTER.norm>
-0.173173

>  <SCORE.INTRA>
-2.92605

>  <SCORE.INTRA.DIHEDRAL>
-8.24469

>  <SCORE.INTRA.DIHEDRAL.0>
11.3972

>  <SCORE.INTRA.POLAR>
0

>  <SCORE.INTRA.POLAR.0>
0

>  <SCORE.INTRA.REPUL>
0

>  <SCORE.INTRA.REPUL.0>
0

>  <SCORE.INTRA.SOLV>
1.27591

>  <SCORE.INTRA.SOLV.lig_0>
-92.3891

>  <SCORE.INTRA.VDW>
0.558335

>  <SCORE.INTRA.VDW.0>
-2.90606

>  <SCORE.INTRA.norm>
-0.0790825

>  <SCORE.RESTR>
0

>  <SCORE.RESTR.CAVITY>
0

>  <SCORE.RESTR.norm>
0

>  <SCORE.SYSTEM>
0

>  <SCORE.SYSTEM.CONST>
0

>  <SCORE.SYSTEM.DIHEDRAL>
0

>  <SCORE.SYSTEM.SOLV>
0

>  <SCORE.SYSTEM.norm>
0

>  <SCORE.heavy>
37

>  <SCORE.norm>
-0.252255

>  <RMSD>
10.038

$$$$
ligand
 OpenBabel02271912133D
libRbt.so/2013.1/901 2013/11/27
 37 40  0  0  0  0  0  0  0  0999 V2000
   -7.2212   26.8561   64.8361 C   0  0  1  0  0  0  0  0  0  0  0  0
   -6.7578   25.7388   65.8136 C   0  0  1  0  0  0  0  0  0  0  0  0
   -5.5353   26.1709   66.6456 C   0  0  0  0  0  0  0  0  0  0  0  0
   -4.3822   26.5775   65.6761 C   0  0  1  0  0  0  0  0  0  0  0  0
   -4.8391   27.7365   64.7318 C   0  0  1  0  0  0  0  0  0  0  0  0
   -3.6469   28.1342   63.7493 C   0  0  1  0  0  0  0  0  0  0  0  0
   -2.4198   28.5789   64.5979 C   0  0  1  0  0  0  0  0  0  0  0  0
   -2.0306   27.4016   65.5420 C   0  0  2  0  0  0  0  0  0  0  0  0
   -0.2963   29.9973   64.1629 C   0  0  0  0  0  0  0  0  0  0  0  0
   -7.8674   25.3296   66.7004 N   0  0  0  0  0  0  0  0  0  0  0  0
   -1.2625   28.9506   63.7005 N   0  0  0  0  0  0  0  0  0  0  0  0
   -7.7830   27.9922   65.5215 O   0  0  0  0  0  0  0  0  0  0  0  0
   -6.0577   27.2672   64.0075 O   0  0  0  0  0  0  0  0  0  0  0  0
   -3.1496   27.0141   66.4108 O   0  0  0  0  0  0  0  0  0  0  0  0
   -3.2668   27.0046   62.9742 O   0  0  0  0  0  0  0  0  0  0  0  0
   -0.9215   27.7724   66.3528 O   0  0  0  0  0  0  0  0  0  0  0  0
   -0.4411   26.7112   67.2143 C   0  0  2  0  0  0  0  0  0  0  0  0
    0.7455   27.1504   68.1045 C   0  0  1  0  0  0  0  0  0  0  0  0
    2.0088   27.4565   67.2370 C   0  0  2  0  0  0  0  0  0  0  0  0
    2.3990   26.2052   66.4767 C   0  0  1  0  0  0  0  0  0  0  0  0
    1.2129   25.7813   65.5597 C   0  0  1  0  0  0  0  0  0  0  0  0
    1.5194   24.5089   64.7721 C   0  0  0  0  0  0  0  0  0  0  0  0
    3.6108   26.4813   65.6678 N   0  0  0  0  0  0  0  0  0  0  0  0
   -0.0033   25.5411   66.3960 O   0  0  0  0  0  0  0  0  0  0  0  0
    0.3107   28.2973   68.8684 O   0  0  0  0  0  0  0  0  0  0  0  0
    3.0952   27.8445   68.0811 O   0  0  0  0  0  0  0  0  0  0  0  0
    2.5225   24.7793   63.8234 O   0  0  0  0  0  0  0  0  0  0  0  0
   -8.3306   29.2064   64.8031 C   0  0  1  0  0  0  0  0  0  0  0  0
   -9.6696   28.8091   64.1235 C   0  0  1  0  0  0  0  0  0  0  0  0
  -10.2671   30.0313   63.3678 C   0  0  2  0  0  0  0  0  0  0  0  0
  -10.5240   31.1769   64.3776 C   0  0  1  0  0  0  0  0  0  0  0  0
   -9.1832   31.6054   65.0746 C   0  0  0  0  0  0  0  0  0  0  0  0
   -8.6020   30.3747   65.8027 C   0  0  2  0  0  0  0  0  0  0  0  0
  -11.1004   32.3452   63.6696 N   0  0  0  0  0  0  0  0  0  0  0  0
   -7.3501   30.7826   66.4495 N   0  0  0  0  0  0  0  0  0  0  0  0
   -9.4322   27.7388   63.1825 O   0  0  0  0  0  0  0  0  0  0  0  0
  -11.5066   29.6339   62.7405 O   0  0  0  0  0  0  0  0  0  0  0  0
  1  2  1  0  0  0  0
  1 12  1  1  0  0  0
  1 13  1  0  0  0  0
  2  3  1  0  0  0  0
  2 10  1  1  0  0  0
  4  3  1  1  0  0  0
  4  5  1  0  0  0  0
  4 14  1  0  0  0  0
  5  6  1  0  0  0  0
  5 13  1  6  0  0  0
  6  7  1  0  0  0  0
  6 15  1  1  0  0  0
  7  8  1  0  0  0  0
  7 11  1  6  0  0  0
  8 14  1  0  0  0  0
  8 16  1  1  0  0  0
  9 11  1  0  0  0  0
 17 16  1  6  0  0  0
 17 18  1  0  0  0  0
 17 24  1  0  0  0  0
 18 19  1  0  0  0  0
 18 25  1  6  0  0  0
 19 20  1  0  0  0  0
 19 26  1  1  0  0  0
 20 21  1  0  0  0  0
 20 23  1  6  0  0  0
 21 22  1  1  0  0  0
 21 24  1  0  0  0  0
 22 27  1  0  0  0  0
 28 12  1  1  0  0  0
 28 29  1  0  0  0  0
 28 33  1  0  0  0  0
 29 30  1  0  0  0  0
 29 36  1  6  0  0  0
 30 31  1  0  0  0  0
 30 37  1  1  0  0  0
 31 32  1  0  0  0  0
 31 34  1  6  0  0  0
 32 33  1  0  0  0  0
 33 35  1  6  0  0  0
M  END
>  <CHROM.1>
-178.95506137,149.57845331,-176.80292805,71.95393962,-178.83035025,-68.31343555
-3.91202045,27.84675909,65.32419933,2.92637423,-0.21873242,0.20008875

>  <Name>
ligand

>  <RI>
0

>  <Rbt.Current_Directory>
/home/itssahil/PROJECTS/Mol_Feturizer/Test_systems_manuscript/rnas/2g5k

>  <Rbt.Executable>
rbdock ($Id: //depot/dev/client3/rdock/2013.1/src/exe/rbdock.cxx#4 $)

>  <Rbt.Library>
libRbt.so (2013.1, Build901 2013/11/27)

>  <Rbt.Parameter_File>
/export/apps/rDock/src/rDock_2013.1_src/data/scripts/dock_solv.prm

>  <Rbt.Receptor>
prm/pocket_docking_4.prm

>  <SCORE>
-9.58878

>  <SCORE.INTER>
-4.4718

>  <SCORE.INTER.CONST>
1

>  <SCORE.INTER.POLAR>
0

>  <SCORE.INTER.ROT>
6

>  <SCORE.INTER.SOLV>
8.44785

>  <SCORE.INTER.VDW>
-13.3971

>  <SCORE.INTER.norm>
-0.120859

>  <SCORE.INTRA>
-5.11698

>  <SCORE.INTRA.DIHEDRAL>
-9.75848

>  <SCORE.INTRA.DIHEDRAL.0>
11.3972

>  <SCORE.INTRA.POLAR>
0

>  <SCORE.INTRA.POLAR.0>
0

>  <SCORE.INTRA.REPUL>
0

>  <SCORE.INTRA.REPUL.0>
0

>  <SCORE.INTRA.SOLV>
-0.803678

>  <SCORE.INTRA.SOLV.lig_0>
-92.3891

>  <SCORE.INTRA.VDW>
0.164098

>  <SCORE.INTRA.VDW.0>
-2.90606

>  <SCORE.INTRA.norm>
-0.138297

>  <SCORE.RESTR>
0

>  <SCORE.RESTR.CAVITY>
0

>  <SCORE.RESTR.norm>
0

>  <SCORE.SYSTEM>
0

>  <SCORE.SYSTEM.CONST>
0

>  <SCORE.SYSTEM.DIHEDRAL>
0

>  <SCORE.SYSTEM.SOLV>
0

>  <SCORE.SYSTEM.norm>
0

>  <SCORE.heavy>
37

>  <SCORE.norm>
-0.259156

>  <RMSD>
10.042

$$$$
ligand
 OpenBabel02271912133D
libRbt.so/2013.1/901 2013/11/27
 37 40  0  0  0  0  0  0  0  0999 V2000
   -9.6319   20.1950   69.3145 C   0  0  1  0  0  0  0  0  0  0  0  0
  -10.1473   20.1816   67.8473 C   0  0  1  0  0  0  0  0  0  0  0  0
   -9.0374   20.5451   66.8426 C   0  0  0  0  0  0  0  0  0  0  0  0
   -8.4552   21.9438   67.2168 C   0  0  1  0  0  0  0  0  0  0  0  0
   -7.8921   21.9341   68.6750 C   0  0  1  0  0  0  0  0  0  0  0  0
   -7.3046   23.3725   69.0365 C   0  0  1  0  0  0  0  0  0  0  0  0
   -6.1774   23.7272   68.0229 C   0  0  1  0  0  0  0  0  0  0  0  0
   -6.7850   23.6881   66.5883 C   0  0  2  0  0  0  0  0  0  0  0  0
   -4.2899   25.4751   67.7183 C   0  0  0  0  0  0  0  0  0  0  0  0
  -10.7353   18.8670   67.5138 N   0  0  0  0  0  0  0  0  0  0  0  0
   -5.6047   25.0924   68.3248 N   0  0  0  0  0  0  0  0  0  0  0  0
   -8.7017   19.1278   69.5833 O   0  0  0  0  0  0  0  0  0  0  0  0
   -9.0042   21.5159   69.5796 O   0  0  0  0  0  0  0  0  0  0  0  0
   -7.3629   22.3728   66.2828 O   0  0  0  0  0  0  0  0  0  0  0  0
   -8.3294   24.3514   68.9238 O   0  0  0  0  0  0  0  0  0  0  0  0
   -5.7816   23.9883   65.6250 O   0  0  0  0  0  0  0  0  0  0  0  0
   -6.2799   24.6743   64.4501 C   0  0  2  0  0  0  0  0  0  0  0  0
   -6.1871   26.2141   64.5687 C   0  0  1  0  0  0  0  0  0  0  0  0
   -7.1465   26.7455   65.6820 C   0  0  2  0  0  0  0  0  0  0  0  0
   -8.5695   26.3626   65.3296 C   0  0  1  0  0  0  0  0  0  0  0  0
   -8.6668   24.8102   65.2388 C   0  0  1  0  0  0  0  0  0  0  0  0
  -10.0714   24.3417   64.8637 C   0  0  0  0  0  0  0  0  0  0  0  0
   -9.4888   26.8828   66.3703 N   0  0  0  0  0  0  0  0  0  0  0  0
   -7.7075   24.3096   64.2067 O   0  0  0  0  0  0  0  0  0  0  0  0
   -4.8046   26.5444   64.8290 O   0  0  0  0  0  0  0  0  0  0  0  0
   -7.0553   28.1697   65.7624 O   0  0  0  0  0  0  0  0  0  0  0  0
  -10.0124   23.0114   64.4097 O   0  0  0  0  0  0  0  0  0  0  0  0
   -8.4248   18.6001   70.9743 C   0  0  1  0  0  0  0  0  0  0  0  0
   -8.0165   19.7957   71.8781 C   0  0  1  0  0  0  0  0  0  0  0  0
   -7.7183   19.2955   73.3212 C   0  0  2  0  0  0  0  0  0  0  0  0
   -8.9891   18.6255   73.8995 C   0  0  1  0  0  0  0  0  0  0  0  0
   -9.4202   17.4057   73.0087 C   0  0  0  0  0  0  0  0  0  0  0  0
   -9.6945   17.9231   71.5805 C   0  0  2  0  0  0  0  0  0  0  0  0
   -8.7187   18.1510   75.2779 N   0  0  0  0  0  0  0  0  0  0  0  0
  -10.0950   16.7784   70.7551 N   0  0  0  0  0  0  0  0  0  0  0  0
   -6.8323   20.4234   71.3389 O   0  0  0  0  0  0  0  0  0  0  0  0
   -7.3355   20.4242   74.1382 O   0  0  0  0  0  0  0  0  0  0  0  0
  1  2  1  0  0  0  0
  1 12  1  6  0  0  0
  1 13  1  0  0  0  0
  2  3  1  0  0  0  0
  2 10  1  6  0  0  0
  4  3  1  6  0  0  0
  4  5  1  0  0  0  0
  4 14  1  0  0  0  0
  5  6  1  0  0  0  0
  5 13  1  1  0  0  0
  6  7  1  0  0  0  0
  6 15  1  6  0  0  0
  7  8  1  0  0  0  0
  7 11  1  1  0  0  0
  8 14  1  0  0  0  0
  8 16  1  6  0  0  0
  9 11  1  0  0  0  0
 17 16  1  1  0  0  0
 17 18  1  0  0  0  0
 17 24  1  0  0  0  0
 18 19  1  0  0  0  0
 18 25  1  1  0  0  0
 19 20  1  0  0  0  0
 19 26  1  6  0  0  0
 20 21  1  0  0  0  0
 20 23  1  1  0  0  0
 21 22  1  6  0  0  0
 21 24  1  0  0  0  0
 22 27  1  0  0  0  0
 28 12  1  6  0  0  0
 28 29  1  0  0  0  0
 28 33  1  0  0  0  0
 29 30  1  0  0  0  0
 29 36  1  6  0  0  0
 30 31  1  0  0  0  0
 30 37  1  1  0  0  0
 31 32  1  0  0  0  0
 31 34  1  1  0  0  0
 32 33  1  0  0  0  0
 33 35  1  6  0  0  0
M  END
>  <CHROM.1>
-157.68008281,163.97816142,-148.17532529,-54.24320877,92.89452606,162.49552555
-7.98615931,22.36241383,68.31912041,1.82882480,0.81791663,2.17642020

>  <Name>
ligand

>  <RI>
0

>  <Rbt.Current_Directory>
/home/itssahil/PROJECTS/Mol_Feturizer/Test_systems_manuscript/rnas/2g5k

>  <Rbt.Executable>
rbdock ($Id: //depot/dev/client3/rdock/2013.1/src/exe/rbdock.cxx#4 $)

>  <Rbt.Library>
libRbt.so (2013.1, Build901 2013/11/27)

>  <Rbt.Parameter_File>
/export/apps/rDock/src/rDock_2013.1_src/data/scripts/dock_solv.prm

>  <Rbt.Receptor>
prm/blind_docking_80.prm

>  <SCORE>
11.1686

>  <SCORE.INTER>
-1.84315

>  <SCORE.INTER.CONST>
1

>  <SCORE.INTER.POLAR>
0

>  <SCORE.INTER.ROT>
6

>  <SCORE.INTER.SOLV>
16.2843

>  <SCORE.INTER.VDW>
-14.2569

>  <SCORE.INTER.norm>
-0.0498149

>  <SCORE.INTRA>
4.52554

>  <SCORE.INTRA.DIHEDRAL>
0.272971

>  <SCORE.INTRA.DIHEDRAL.0>
11.3972

>  <SCORE.INTRA.POLAR>
0

>  <SCORE.INTRA.POLAR.0>
0

>  <SCORE.INTRA.REPUL>
0

>  <SCORE.INTRA.REPUL.0>
0

>  <SCORE.INTRA.SOLV>
3.00379

>  <SCORE.INTRA.SOLV.lig_0>
-92.3891

>  <SCORE.INTRA.VDW>
2.88716

>  <SCORE.INTRA.VDW.0>
-2.90606

>  <SCORE.INTRA.norm>
0.122312

>  <SCORE.RESTR>
8.48618

>  <SCORE.RESTR.CAVITY>
8.48618

>  <SCORE.RESTR.norm>
0.229356

>  <SCORE.SYSTEM>
0

>  <SCORE.SYSTEM.CONST>
0

>  <SCORE.SYSTEM.DIHEDRAL>
0

>  <SCORE.SYSTEM.SOLV>
0

>  <SCORE.SYSTEM.norm>
0

>  <SCORE.heavy>
37

>  <SCORE.norm>
0.301853

>  <RMSD>
10.044

$$$$
ligand
 OpenBabel02271912133D
libRbt.so/2013.1/901 2013/11/27
 37 40  0  0  0  0  0  0  0  0999 V2000
   -7.4431   30.9905   65.0993 C   0  0  1  0  0  0  0  0  0  0  0  0
   -6.9176   32.2280   64.3176 C   0  0  1  0  0  0  0  0  0  0  0  0
   -5.6876   31.8860   63.4554 C   0  0  0  0  0  0  0  0  0  0  0  0
   -4.5748   31.2932   64.3750 C   0  0  1  0  0  0  0  0  0  0  0  0
   -5.0942   30.0194   65.1175 C   0  0  1  0  0  0  0  0  0  0  0  0
   -3.9426   29.4320   66.0521 C   0  0  1  0  0  0  0  0  0  0  0  0
   -2.7078   29.0800   65.1716 C   0  0  1  0  0  0  0  0  0  0  0  0
   -2.2554   30.3743   64.4307 C   0  0  2  0  0  0  0  0  0  0  0  0
   -1.6796   27.1223   66.5209 C   0  0  0  0  0  0  0  0  0  0  0  0
   -7.9891   32.8090   63.4811 N   0  0  0  0  0  0  0  0  0  0  0  0
   -1.5879   28.5327   66.0255 N   0  0  0  0  0  0  0  0  0  0  0  0
   -8.0223   29.9949   64.2335 O   0  0  0  0  0  0  0  0  0  0  0  0
   -6.3164   30.4147   65.8791 O   0  0  0  0  0  0  0  0  0  0  0  0
   -3.3374   30.9314   63.6084 O   0  0  0  0  0  0  0  0  0  0  0  0
   -3.5476   30.4139   67.0014 O   0  0  0  0  0  0  0  0  0  0  0  0
   -1.1372   30.0935   63.5965 O   0  0  0  0  0  0  0  0  0  0  0  0
    0.0663   30.8117   63.9638 C   0  0  2  0  0  0  0  0  0  0  0  0
    1.1172   30.8436   62.8289 C   0  0  1  0  0  0  0  0  0  0  0  0
    1.6725   29.4108   62.5441 C   0  0  2  0  0  0  0  0  0  0  0  0
    2.3226   28.8753   63.8036 C   0  0  1  0  0  0  0  0  0  0  0  0
    1.2551   28.8174   64.9372 C   0  0  1  0  0  0  0  0  0  0  0  0
    1.8388   28.3067   66.2531 C   0  0  0  0  0  0  0  0  0  0  0  0
    2.8719   27.5243   63.5351 N   0  0  0  0  0  0  0  0  0  0  0  0
    0.6946   30.1849   65.1650 O   0  0  0  0  0  0  0  0  0  0  0  0
    0.4833   31.4292   61.6699 O   0  0  0  0  0  0  0  0  0  0  0  0
    2.6517   29.4673   61.5043 O   0  0  0  0  0  0  0  0  0  0  0  0
    2.2158   26.9596   66.1030 O   0  0  0  0  0  0  0  0  0  0  0  0
   -8.9440   28.9012   64.7279 C   0  0  1  0  0  0  0  0  0  0  0  0
   -9.7154   28.3245   63.5093 C   0  0  1  0  0  0  0  0  0  0  0  0
  -10.6805   27.1959   63.9748 C   0  0  2  0  0  0  0  0  0  0  0  0
   -9.8572   26.0668   64.6423 C   0  0  1  0  0  0  0  0  0  0  0  0
   -9.0724   26.6207   65.8851 C   0  0  0  0  0  0  0  0  0  0  0  0
   -8.1353   27.7480   65.4018 C   0  0  2  0  0  0  0  0  0  0  0  0
  -10.7663   24.9818   65.0839 N   0  0  0  0  0  0  0  0  0  0  0  0
   -7.4074   28.2606   66.5677 N   0  0  0  0  0  0  0  0  0  0  0  0
  -10.4824   29.3771   62.8839 O   0  0  0  0  0  0  0  0  0  0  0  0
  -11.3891   26.6819   62.8252 O   0  0  0  0  0  0  0  0  0  0  0  0
  1  2  1  0  0  0  0
  1 12  1  6  0  0  0
  1 13  1  0  0  0  0
  2  3  1  0  0  0  0
  2 10  1  6  0  0  0
  4  3  1  6  0  0  0
  4  5  1  0  0  0  0
  4 14  1  0  0  0  0
  5  6  1  0  0  0  0
  5 13  1  1  0  0  0
  6  7  1  0  0  0  0
  6 15  1  1  0  0  0
  7  8  1  0  0  0  0
  7 11  1  1  0  0  0
  8 14  1  0  0  0  0
  8 16  1  6  0  0  0
  9 11  1  0  0  0  0
 17 16  1  6  0  0  0
 17 18  1  0  0  0  0
 17 24  1  0  0  0  0
 18 19  1  0  0  0  0
 18 25  1  6  0  0  0
 19 20  1  0  0  0  0
 19 26  1  6  0  0  0
 20 21  1  0  0  0  0
 20 23  1  6  0  0  0
 21 22  1  1  0  0  0
 21 24  1  0  0  0  0
 22 27  1  0  0  0  0
 28 12  1  6  0  0  0
 28 29  1  0  0  0  0
 28 33  1  0  0  0  0
 29 30  1  0  0  0  0
 29 36  1  1  0  0  0
 30 31  1  0  0  0  0
 30 37  1  6  0  0  0
 31 32  1  0  0  0  0
 31 34  1  1  0  0  0
 32 33  1  0  0  0  0
 33 35  1  1  0  0  0
M  END
>  <CHROM.1>
-162.04089162,76.48217313,-117.24287691,161.99774219,-162.25245093,-66.36836824
-4.05590519,29.25993689,64.47928720,3.04322159,0.00870202,2.71432446

>  <Name>
ligand

>  <RI>
0

>  <Rbt.Current_Directory>
/home/itssahil/PROJECTS/Mol_Feturizer/Test_systems_manuscript/rnas/2g5k

>  <Rbt.Executable>
rbdock ($Id: //depot/dev/client3/rdock/2013.1/src/exe/rbdock.cxx#4 $)

>  <Rbt.Library>
libRbt.so (2013.1, Build901 2013/11/27)

>  <Rbt.Parameter_File>
/export/apps/rDock/src/rDock_2013.1_src/data/scripts/dock_solv.prm

>  <Rbt.Receptor>
prm/pocket_docking_7.prm

>  <SCORE>
-6.52464

>  <SCORE.INTER>
-7.92421

>  <SCORE.INTER.CONST>
1

>  <SCORE.INTER.POLAR>
0

>  <SCORE.INTER.ROT>
6

>  <SCORE.INTER.SOLV>
12.7694

>  <SCORE.INTER.VDW>
-17.1393

>  <SCORE.INTER.norm>
-0.214168

>  <SCORE.INTRA>
1.39957

>  <SCORE.INTRA.DIHEDRAL>
0.513747

>  <SCORE.INTRA.DIHEDRAL.0>
11.3972

>  <SCORE.INTRA.POLAR>
0

>  <SCORE.INTRA.POLAR.0>
0

>  <SCORE.INTRA.REPUL>
0

>  <SCORE.INTRA.REPUL.0>
0

>  <SCORE.INTRA.SOLV>
3.72072

>  <SCORE.INTRA.SOLV.lig_0>
-92.3891

>  <SCORE.INTRA.VDW>
-0.717658

>  <SCORE.INTRA.VDW.0>
-2.90606

>  <SCORE.INTRA.norm>
0.0378263

>  <SCORE.RESTR>
0

>  <SCORE.RESTR.CAVITY>
0

>  <SCORE.RESTR.norm>
0

>  <SCORE.SYSTEM>
0

>  <SCORE.SYSTEM.CONST>
0

>  <SCORE.SYSTEM.DIHEDRAL>
0

>  <SCORE.SYSTEM.SOLV>
0

>  <SCORE.SYSTEM.norm>
0

>  <SCORE.heavy>
37

>  <SCORE.norm>
-0.176342

>  <RMSD>
10.054

$$$$
ligand
 OpenBabel02271912133D
libRbt.so/2013.1/901 2013/11/27
 37 40  0  0  0  0  0  0  0  0999 V2000
   -7.2681   26.9337   64.9033 C   0  0  1  0  0  0  0  0  0  0  0  0
   -6.8231   25.8345   65.9094 C   0  0  1  0  0  0  0  0  0  0  0  0
   -5.5978   26.2703   66.7353 C   0  0  0  0  0  0  0  0  0  0  0  0
   -4.4360   26.6379   65.7606 C   0  0  1  0  0  0  0  0  0  0  0  0
   -4.8740   27.7796   64.7868 C   0  0  1  0  0  0  0  0  0  0  0  0
   -3.6733   28.1374   63.7994 C   0  0  1  0  0  0  0  0  0  0  0  0
   -2.4433   28.5862   64.6417 C   0  0  1  0  0  0  0  0  0  0  0  0
   -2.0731   27.4272   65.6155 C   0  0  2  0  0  0  0  0  0  0  0  0
   -0.5250   27.8026   63.0871 C   0  0  0  0  0  0  0  0  0  0  0  0
   -7.9412   25.4617   66.8016 N   0  0  0  0  0  0  0  0  0  0  0  0
   -1.2780   28.9206   63.7399 N   0  0  0  0  0  0  0  0  0  0  0  0
   -7.8170   28.0936   65.5589 O   0  0  0  0  0  0  0  0  0  0  0  0
   -6.0963   27.3090   64.0694 O   0  0  0  0  0  0  0  0  0  0  0  0
   -3.2002   27.0758   66.4892 O   0  0  0  0  0  0  0  0  0  0  0  0
   -3.3057   26.9844   63.0534 O   0  0  0  0  0  0  0  0  0  0  0  0
   -0.9620   27.8028   66.4213 O   0  0  0  0  0  0  0  0  0  0  0  0
   -0.4821   26.7480   67.2910 C   0  0  2  0  0  0  0  0  0  0  0  0
    0.6945   27.1982   68.1890 C   0  0  1  0  0  0  0  0  0  0  0  0
    1.9629   27.5085   67.3304 C   0  0  2  0  0  0  0  0  0  0  0  0
    2.3669   26.2565   66.5786 C   0  0  1  0  0  0  0  0  0  0  0  0
    1.1908   25.8216   65.6537 C   0  0  1  0  0  0  0  0  0  0  0  0
    1.5115   24.5479   64.8739 C   0  0  0  0  0  0  0  0  0  0  0  0
    3.5835   26.5368   65.7784 N   0  0  0  0  0  0  0  0  0  0  0  0
   -0.0305   25.5773   66.4811 O   0  0  0  0  0  0  0  0  0  0  0  0
    0.2465   28.3455   68.9446 O   0  0  0  0  0  0  0  0  0  0  0  0
    3.0400   27.9066   68.1817 O   0  0  0  0  0  0  0  0  0  0  0  0
    1.7470   23.4959   65.7779 O   0  0  0  0  0  0  0  0  0  0  0  0
   -8.4428   29.2504   64.8104 C   0  0  1  0  0  0  0  0  0  0  0  0
   -9.7075   28.7291   64.0746 C   0  0  1  0  0  0  0  0  0  0  0  0
  -10.3821   29.8893   63.2866 C   0  0  2  0  0  0  0  0  0  0  0  0
  -10.7892   31.0072   64.2779 C   0  0  1  0  0  0  0  0  0  0  0  0
   -9.5264   31.5598   65.0310 C   0  0  0  0  0  0  0  0  0  0  0  0
   -8.8660   30.3896   65.7907 C   0  0  2  0  0  0  0  0  0  0  0  0
  -11.4398   32.1157   63.5388 N   0  0  0  0  0  0  0  0  0  0  0  0
   -7.6875   30.9133   66.4898 N   0  0  0  0  0  0  0  0  0  0  0  0
   -9.3299   27.6844   63.1508 O   0  0  0  0  0  0  0  0  0  0  0  0
  -11.5501   29.3771   62.6075 O   0  0  0  0  0  0  0  0  0  0  0  0
  1  2  1  0  0  0  0
  1 12  1  1  0  0  0
  1 13  1  0  0  0  0
  2  3  1  0  0  0  0
  2 10  1  1  0  0  0
  4  3  1  1  0  0  0
  4  5  1  0  0  0  0
  4 14  1  0  0  0  0
  5  6  1  0  0  0  0
  5 13  1  6  0  0  0
  6  7  1  0  0  0  0
  6 15  1  1  0  0  0
  7  8  1  0  0  0  0
  7 11  1  6  0  0  0
  8 14  1  0  0  0  0
  8 16  1  1  0  0  0
  9 11  1  0  0  0  0
 17 16  1  6  0  0  0
 17 18  1  0  0  0  0
 17 24  1  0  0  0  0
 18 19  1  0  0  0  0
 18 25  1  6  0  0  0
 19 20  1  0  0  0  0
 19 26  1  1  0  0  0
 20 21  1  0  0  0  0
 20 23  1  6  0  0  0
 21 22  1  1  0  0  0
 21 24  1  0  0  0  0
 22 27  1  0  0  0  0
 28 12  1  1  0  0  0
 28 29  1  0  0  0  0
 28 33  1  0  0  0  0
 29 30  1  0  0  0  0
 29 36  1  6  0  0  0
 30 31  1  0  0  0  0
 30 37  1  1  0  0  0
 31 32  1  0  0  0  0
 31 34  1  6  0  0  0
 32 33  1  0  0  0  0
 33 35  1  6  0  0  0
M  END
>  <CHROM.1>
-174.08033982,-74.23966989,-175.64620805,64.02516887,-178.06400191,60.99943692
-4.01511680,27.75544134,65.39115349,2.97505506,-0.28270378,0.40903303

>  <Name>
ligand

>  <RI>
0

>  <Rbt.Current_Directory>
/home/itssahil/PROJECTS/Mol_Feturizer/Test_systems_manuscript/rnas/2g5k

>  <Rbt.Executable>
rbdock ($Id: //depot/dev/client3/rdock/2013.1/src/exe/rbdock.cxx#4 $)

>  <Rbt.Library>
libRbt.so (2013.1, Build901 2013/11/27)

>  <Rbt.Parameter_File>
/export/apps/rDock/src/rDock_2013.1_src/data/scripts/dock_solv.prm

>  <Rbt.Receptor>
prm/pocket_docking_4.prm

>  <SCORE>
-9.0388

>  <SCORE.INTER>
-4.88581

>  <SCORE.INTER.CONST>
1

>  <SCORE.INTER.POLAR>
0

>  <SCORE.INTER.ROT>
6

>  <SCORE.INTER.SOLV>
9.79581

>  <SCORE.INTER.VDW>
-14.1225

>  <SCORE.INTER.norm>
-0.132049

>  <SCORE.INTRA>
-4.15298

>  <SCORE.INTRA.DIHEDRAL>
-10.834

>  <SCORE.INTRA.DIHEDRAL.0>
11.3972

>  <SCORE.INTRA.POLAR>
0

>  <SCORE.INTRA.POLAR.0>
0

>  <SCORE.INTRA.REPUL>
0

>  <SCORE.INTRA.REPUL.0>
0

>  <SCORE.INTRA.SOLV>
-1.01991

>  <SCORE.INTRA.SOLV.lig_0>
-92.3891

>  <SCORE.INTRA.VDW>
1.77399

>  <SCORE.INTRA.VDW.0>
-2.90606

>  <SCORE.INTRA.norm>
-0.112243

>  <SCORE.RESTR>
0

>  <SCORE.RESTR.CAVITY>
0

>  <SCORE.RESTR.norm>
0

>  <SCORE.SYSTEM>
0

>  <SCORE.SYSTEM.CONST>
0

>  <SCORE.SYSTEM.DIHEDRAL>
0

>  <SCORE.SYSTEM.SOLV>
0

>  <SCORE.SYSTEM.norm>
0

>  <SCORE.heavy>
37

>  <SCORE.norm>
-0.244292

>  <RMSD>
10.063

$$$$
ligand
 OpenBabel02271912133D
libRbt.so/2013.1/901 2013/11/27
 37 40  0  0  0  0  0  0  0  0999 V2000
   -8.8590   24.5542   65.1469 C   0  0  1  0  0  0  0  0  0  0  0  0
   -7.9835   23.4686   65.8350 C   0  0  1  0  0  0  0  0  0  0  0  0
   -7.0185   24.0768   66.8705 C   0  0  0  0  0  0  0  0  0  0  0  0
   -6.1282   25.1466   66.1645 C   0  0  1  0  0  0  0  0  0  0  0  0
   -7.0137   26.2620   65.5201 C   0  0  1  0  0  0  0  0  0  0  0  0
   -6.0843   27.3423   64.8032 C   0  0  1  0  0  0  0  0  0  0  0  0
   -5.1197   27.9587   65.8584 C   0  0  1  0  0  0  0  0  0  0  0  0
   -4.2893   26.8015   66.4910 C   0  0  2  0  0  0  0  0  0  0  0  0
   -4.7307   30.3638   64.9783 C   0  0  0  0  0  0  0  0  0  0  0  0
   -8.8336   22.4365   66.4653 N   0  0  0  0  0  0  0  0  0  0  0  0
   -4.2112   28.9787   65.2127 N   0  0  0  0  0  0  0  0  0  0  0  0
   -9.8130   25.1483   66.0488 O   0  0  0  0  0  0  0  0  0  0  0  0
   -7.9594   25.5919   64.5784 O   0  0  0  0  0  0  0  0  0  0  0  0
   -5.1568   25.7901   67.1089 O   0  0  0  0  0  0  0  0  0  0  0  0
   -5.3011   26.7105   63.7989 O   0  0  0  0  0  0  0  0  0  0  0  0
   -3.4049   27.3188   67.4785 O   0  0  0  0  0  0  0  0  0  0  0  0
   -2.3146   26.4269   67.8176 C   0  0  2  0  0  0  0  0  0  0  0  0
   -1.4936   26.9166   69.0341 C   0  0  1  0  0  0  0  0  0  0  0  0
   -0.7332   28.2395   68.6963 C   0  0  2  0  0  0  0  0  0  0  0  0
    0.2078   27.9841   67.5365 C   0  0  1  0  0  0  0  0  0  0  0  0
   -0.6245   27.5185   66.3044 C   0  0  1  0  0  0  0  0  0  0  0  0
    0.2571   27.2174   65.0938 C   0  0  0  0  0  0  0  0  0  0  0  0
    0.9497   29.2294   67.2242 N   0  0  0  0  0  0  0  0  0  0  0  0
   -1.3872   26.2813   66.6561 O   0  0  0  0  0  0  0  0  0  0  0  0
   -2.4116   27.0755   70.1386 O   0  0  0  0  0  0  0  0  0  0  0  0
    0.0296   28.6636   69.8283 O   0  0  0  0  0  0  0  0  0  0  0  0
   -0.5587   26.9455   63.9803 O   0  0  0  0  0  0  0  0  0  0  0  0
  -10.7924   26.2229   65.6293 C   0  0  1  0  0  0  0  0  0  0  0  0
  -11.7928   25.6033   64.6154 C   0  0  1  0  0  0  0  0  0  0  0  0
  -12.8188   26.6785   64.1538 C   0  0  2  0  0  0  0  0  0  0  0  0
  -13.5958   27.2018   65.3870 C   0  0  1  0  0  0  0  0  0  0  0  0
  -12.6081   27.8427   66.4267 C   0  0  0  0  0  0  0  0  0  0  0  0
  -11.5918   26.7635   66.8568 C   0  0  2  0  0  0  0  0  0  0  0  0
  -14.5819   28.2225   64.9581 N   0  0  0  0  0  0  0  0  0  0  0  0
  -10.6728   27.3700   67.8262 N   0  0  0  0  0  0  0  0  0  0  0  0
  -11.0694   25.1125   63.4651 O   0  0  0  0  0  0  0  0  0  0  0  0
  -13.7321   26.0789   63.2081 O   0  0  0  0  0  0  0  0  0  0  0  0
  1  2  1  0  0  0  0
  1 12  1  1  0  0  0
  1 13  1  0  0  0  0
  2  3  1  0  0  0  0
  2 10  1  1  0  0  0
  4  3  1  1  0  0  0
  4  5  1  0  0  0  0
  4 14  1  0  0  0  0
  5  6  1  0  0  0  0
  5 13  1  6  0  0  0
  6  7  1  0  0  0  0
  6 15  1  6  0  0  0
  7  8  1  0  0  0  0
  7 11  1  6  0  0  0
  8 14  1  0  0  0  0
  8 16  1  1  0  0  0
  9 11  1  0  0  0  0
 17 16  1  6  0  0  0
 17 18  1  0  0  0  0
 17 24  1  0  0  0  0
 18 19  1  0  0  0  0
 18 25  1  1  0  0  0
 19 20  1  0  0  0  0
 19 26  1  1  0  0  0
 20 21  1  0  0  0  0
 20 23  1  6  0  0  0
 21 22  1  6  0  0  0
 21 24  1  0  0  0  0
 22 27  1  0  0  0  0
 28 12  1  1  0  0  0
 28 29  1  0  0  0  0
 28 33  1  0  0  0  0
 29 30  1  0  0  0  0
 29 36  1  6  0  0  0
 30 31  1  0  0  0  0
 30 37  1  6  0  0  0
 31 32  1  0  0  0  0
 31 34  1  6  0  0  0
 32 33  1  0  0  0  0
 33 35  1  1  0  0  0
M  END
>  <CHROM.1>
-179.52680671,81.31210213,-161.44603404,66.32239452,-171.47146200,-173.64358071
-6.26090088,26.69160602,66.13063791,-3.05344100,-0.22115505,-0.20980685

>  <Name>
ligand

>  <RI>
0

>  <Rbt.Current_Directory>
/home/itssahil/PROJECTS/Mol_Feturizer/Test_systems_manuscript/rnas/2g5k

>  <Rbt.Executable>
rbdock ($Id: //depot/dev/client3/rdock/2013.1/src/exe/rbdock.cxx#4 $)

>  <Rbt.Library>
libRbt.so (2013.1, Build901 2013/11/27)

>  <Rbt.Parameter_File>
/export/apps/rDock/src/rDock_2013.1_src/data/scripts/dock_solv.prm

>  <Rbt.Receptor>
prm/pocket_docking_5.prm

>  <SCORE>
-9.05934

>  <SCORE.INTER>
-3.86552

>  <SCORE.INTER.CONST>
1

>  <SCORE.INTER.POLAR>
0

>  <SCORE.INTER.ROT>
6

>  <SCORE.INTER.SOLV>
8.27501

>  <SCORE.INTER.VDW>
-12.9353

>  <SCORE.INTER.norm>
-0.104473

>  <SCORE.INTRA>
-5.19382

>  <SCORE.INTRA.DIHEDRAL>
-8.76721

>  <SCORE.INTRA.DIHEDRAL.0>
11.3972

>  <SCORE.INTRA.POLAR>
0

>  <SCORE.INTRA.POLAR.0>
0

>  <SCORE.INTRA.REPUL>
0

>  <SCORE.INTRA.REPUL.0>
0

>  <SCORE.INTRA.SOLV>
-1.75542

>  <SCORE.INTRA.SOLV.lig_0>
-92.3891

>  <SCORE.INTRA.VDW>
0.0674939

>  <SCORE.INTRA.VDW.0>
-2.90606

>  <SCORE.INTRA.norm>
-0.140374

>  <SCORE.RESTR>
0

>  <SCORE.RESTR.CAVITY>
0

>  <SCORE.RESTR.norm>
0

>  <SCORE.SYSTEM>
0

>  <SCORE.SYSTEM.CONST>
0

>  <SCORE.SYSTEM.DIHEDRAL>
0

>  <SCORE.SYSTEM.SOLV>
0

>  <SCORE.SYSTEM.norm>
0

>  <SCORE.heavy>
37

>  <SCORE.norm>
-0.244847

>  <RMSD>
10.071

$$$$
ligand
 OpenBabel02271912133D
libRbt.so/2013.1/901 2013/11/27
 37 40  0  0  0  0  0  0  0  0999 V2000
   -8.6463   25.7976   65.3907 C   0  0  1  0  0  0  0  0  0  0  0  0
   -7.9599   24.6711   66.2144 C   0  0  1  0  0  0  0  0  0  0  0  0
   -6.8213   25.2148   67.0984 C   0  0  0  0  0  0  0  0  0  0  0  0
   -5.7869   25.9532   66.1929 C   0  0  1  0  0  0  0  0  0  0  0  0
   -6.4740   27.1173   65.4076 C   0  0  1  0  0  0  0  0  0  0  0  0
   -5.4000   27.8560   64.4882 C   0  0  1  0  0  0  0  0  0  0  0  0
   -4.2588   28.4108   65.3903 C   0  0  1  0  0  0  0  0  0  0  0  0
   -3.6348   27.2162   66.1728 C   0  0  2  0  0  0  0  0  0  0  0  0
   -3.5764   30.3789   63.8504 C   0  0  0  0  0  0  0  0  0  0  0  0
   -8.9529   23.9490   67.0376 N   0  0  0  0  0  0  0  0  0  0  0  0
   -3.2123   29.1066   64.5517 N   0  0  0  0  0  0  0  0  0  0  0  0
   -9.3951   26.7093   66.2179 O   0  0  0  0  0  0  0  0  0  0  0  0
   -7.5994   26.5241   64.6255 O   0  0  0  0  0  0  0  0  0  0  0  0
   -4.6416   26.5158   66.9811 O   0  0  0  0  0  0  0  0  0  0  0  0
   -4.8328   26.9280   63.5726 O   0  0  0  0  0  0  0  0  0  0  0  0
   -2.5967   27.6817   67.0275 O   0  0  0  0  0  0  0  0  0  0  0  0
   -2.1736   26.7149   68.0203 C   0  0  2  0  0  0  0  0  0  0  0  0
   -1.2009   27.3122   69.0646 C   0  0  1  0  0  0  0  0  0  0  0  0
    0.1576   27.7050   68.3993 C   0  0  2  0  0  0  0  0  0  0  0  0
    0.7849   26.4663   67.7925 C   0  0  1  0  0  0  0  0  0  0  0  0
   -0.1842   25.8831   66.7209 C   0  0  1  0  0  0  0  0  0  0  0  0
    0.3676   24.6137   66.0748 C   0  0  0  0  0  0  0  0  0  0  0  0
    2.0856   26.8267   67.1784 N   0  0  0  0  0  0  0  0  0  0  0  0
   -1.4972   25.5592   67.3591 O   0  0  0  0  0  0  0  0  0  0  0  0
   -1.8630   28.4428   69.6741 O   0  0  0  0  0  0  0  0  0  0  0  0
    1.0444   28.2391   69.3849 O   0  0  0  0  0  0  0  0  0  0  0  0
    1.3581   24.9613   65.1380 O   0  0  0  0  0  0  0  0  0  0  0  0
  -10.6615   27.3976   65.7570 C   0  0  1  0  0  0  0  0  0  0  0  0
  -11.1328   28.3583   66.8829 C   0  0  1  0  0  0  0  0  0  0  0  0
  -12.4387   29.0862   66.4507 C   0  0  2  0  0  0  0  0  0  0  0  0
  -12.1637   29.9008   65.1626 C   0  0  1  0  0  0  0  0  0  0  0  0
  -11.6931   28.9517   64.0029 C   0  0  0  0  0  0  0  0  0  0  0  0
  -10.4077   28.2298   64.4605 C   0  0  2  0  0  0  0  0  0  0  0  0
  -13.3999   30.6048   64.7451 N   0  0  0  0  0  0  0  0  0  0  0  0
   -9.9757   27.3450   63.3731 N   0  0  0  0  0  0  0  0  0  0  0  0
  -11.3878   27.6004   68.0862 O   0  0  0  0  0  0  0  0  0  0  0  0
  -12.8584   29.9673   67.5163 O   0  0  0  0  0  0  0  0  0  0  0  0
  1  2  1  0  0  0  0
  1 12  1  1  0  0  0
  1 13  1  0  0  0  0
  2  3  1  0  0  0  0
  2 10  1  1  0  0  0
  4  3  1  1  0  0  0
  4  5  1  0  0  0  0
  4 14  1  0  0  0  0
  5  6  1  0  0  0  0
  5 13  1  6  0  0  0
  6  7  1  0  0  0  0
  6 15  1  6  0  0  0
  7  8  1  0  0  0  0
  7 11  1  6  0  0  0
  8 14  1  0  0  0  0
  8 16  1  1  0  0  0
  9 11  1  0  0  0  0
 17 16  1  6  0  0  0
 17 18  1  0  0  0  0
 17 24  1  0  0  0  0
 18 19  1  0  0  0  0
 18 25  1  6  0  0  0
 19 20  1  0  0  0  0
 19 26  1  1  0  0  0
 20 21  1  0  0  0  0
 20 23  1  6  0  0  0
 21 22  1  1  0  0  0
 21 24  1  0  0  0  0
 22 27  1  0  0  0  0
 28 12  1  1  0  0  0
 28 29  1  0  0  0  0
 28 33  1  0  0  0  0
 29 30  1  0  0  0  0
 29 36  1  1  0  0  0
 30 31  1  0  0  0  0
 30 37  1  1  0  0  0
 31 32  1  0  0  0  0
 31 34  1  6  0  0  0
 32 33  1  0  0  0  0
 33 35  1  6  0  0  0
M  END
>  <CHROM.1>
-147.28006635,67.35052414,166.07384797,-176.76515263,-171.43072200,-76.96074760
-5.65845930,27.30409271,66.27368131,-3.04264706,-0.17125366,1.31242475

>  <Name>
ligand

>  <RI>
0

>  <Rbt.Current_Directory>
/home/itssahil/PROJECTS/Mol_Feturizer/Test_systems_manuscript/rnas/2g5k

>  <Rbt.Executable>
rbdock ($Id: //depot/dev/client3/rdock/2013.1/src/exe/rbdock.cxx#4 $)

>  <Rbt.Library>
libRbt.so (2013.1, Build901 2013/11/27)

>  <Rbt.Parameter_File>
/export/apps/rDock/src/rDock_2013.1_src/data/scripts/dock_solv.prm

>  <Rbt.Receptor>
prm/pocket_docking_4.prm

>  <SCORE>
-4.52373

>  <SCORE.INTER>
-3.61727

>  <SCORE.INTER.CONST>
1

>  <SCORE.INTER.POLAR>
0

>  <SCORE.INTER.ROT>
6

>  <SCORE.INTER.SOLV>
9.70961

>  <SCORE.INTER.VDW>
-13.248

>  <SCORE.INTER.norm>
-0.097764

>  <SCORE.INTRA>
-0.906461

>  <SCORE.INTRA.DIHEDRAL>
-4.92714

>  <SCORE.INTRA.DIHEDRAL.0>
11.3972

>  <SCORE.INTRA.POLAR>
0

>  <SCORE.INTRA.POLAR.0>
0

>  <SCORE.INTRA.REPUL>
0

>  <SCORE.INTRA.REPUL.0>
0

>  <SCORE.INTRA.SOLV>
1.02615

>  <SCORE.INTRA.SOLV.lig_0>
-92.3891

>  <SCORE.INTRA.VDW>
1.04403

>  <SCORE.INTRA.VDW.0>
-2.90606

>  <SCORE.INTRA.norm>
-0.024499

>  <SCORE.RESTR>
0

>  <SCORE.RESTR.CAVITY>
0

>  <SCORE.RESTR.norm>
0

>  <SCORE.SYSTEM>
0

>  <SCORE.SYSTEM.CONST>
0

>  <SCORE.SYSTEM.DIHEDRAL>
0

>  <SCORE.SYSTEM.SOLV>
0

>  <SCORE.SYSTEM.norm>
0

>  <SCORE.heavy>
37

>  <SCORE.norm>
-0.122263

>  <RMSD>
10.076

$$$$
ligand
 OpenBabel02271912133D
libRbt.so/2013.1/901 2013/11/27
 37 40  0  0  0  0  0  0  0  0999 V2000
   -7.6241   32.6948   64.7191 C   0  0  1  0  0  0  0  0  0  0  0  0
   -6.5805   33.2561   63.7119 C   0  0  1  0  0  0  0  0  0  0  0  0
   -5.6790   32.1469   63.1371 C   0  0  0  0  0  0  0  0  0  0  0  0
   -4.9742   31.4066   64.3163 C   0  0  1  0  0  0  0  0  0  0  0  0
   -6.0305   30.8006   65.2964 C   0  0  1  0  0  0  0  0  0  0  0  0
   -5.2889   30.0512   66.4935 C   0  0  1  0  0  0  0  0  0  0  0  0
   -4.3883   28.9261   65.9045 C   0  0  1  0  0  0  0  0  0  0  0  0
   -3.3809   29.5807   64.9119 C   0  0  2  0  0  0  0  0  0  0  0  0
   -4.1274   26.8388   67.4163 C   0  0  0  0  0  0  0  0  0  0  0  0
   -7.2534   33.9919   62.6206 N   0  0  0  0  0  0  0  0  0  0  0  0
   -3.6564   28.2012   67.0098 N   0  0  0  0  0  0  0  0  0  0  0  0
   -8.6232   31.8758   64.0809 O   0  0  0  0  0  0  0  0  0  0  0  0
   -6.9009   31.9211   65.7620 O   0  0  0  0  0  0  0  0  0  0  0  0
   -4.0744   30.3056   63.8390 O   0  0  0  0  0  0  0  0  0  0  0  0
   -4.4566   30.9685   67.1914 O   0  0  0  0  0  0  0  0  0  0  0  0
   -2.5477   28.5828   64.3331 O   0  0  0  0  0  0  0  0  0  0  0  0
   -1.6921   29.0732   63.2717 C   0  0  2  0  0  0  0  0  0  0  0  0
   -0.5519   28.0899   62.9160 C   0  0  1  0  0  0  0  0  0  0  0  0
    0.4554   27.9528   64.1030 C   0  0  2  0  0  0  0  0  0  0  0  0
    1.0522   29.3130   64.4020 C   0  0  1  0  0  0  0  0  0  0  0  0
   -0.0953   30.2940   64.7876 C   0  0  1  0  0  0  0  0  0  0  0  0
    0.4235   31.6999   65.0835 C   0  0  0  0  0  0  0  0  0  0  0  0
    2.0261   29.1872   65.5130 N   0  0  0  0  0  0  0  0  0  0  0  0
   -1.0791   30.3772   63.6644 O   0  0  0  0  0  0  0  0  0  0  0  0
   -1.1635   26.8289   62.5640 O   0  0  0  0  0  0  0  0  0  0  0  0
    1.5069   27.0528   63.7460 O   0  0  0  0  0  0  0  0  0  0  0  0
    1.2107   31.6695   66.2492 O   0  0  0  0  0  0  0  0  0  0  0  0
   -9.7223   31.1657   64.8410 C   0  0  1  0  0  0  0  0  0  0  0  0
   -9.0852   29.9994   65.6452 C   0  0  1  0  0  0  0  0  0  0  0  0
  -10.1844   29.2377   66.4411 C   0  0  2  0  0  0  0  0  0  0  0  0
  -10.8749   30.2191   67.4200 C   0  0  1  0  0  0  0  0  0  0  0  0
  -11.5364   31.4060   66.6319 C   0  0  0  0  0  0  0  0  0  0  0  0
  -10.4311   32.1352   65.8387 C   0  0  2  0  0  0  0  0  0  0  0  0
  -11.9201   29.5023   68.1894 N   0  0  0  0  0  0  0  0  0  0  0  0
  -11.0569   33.2406   65.1050 N   0  0  0  0  0  0  0  0  0  0  0  0
   -8.4386   29.0838   64.7336 O   0  0  0  0  0  0  0  0  0  0  0  0
   -9.5672   28.1561   67.1739 O   0  0  0  0  0  0  0  0  0  0  0  0
  1  2  1  0  0  0  0
  1 12  1  6  0  0  0
  1 13  1  0  0  0  0
  2  3  1  0  0  0  0
  2 10  1  6  0  0  0
  4  3  1  6  0  0  0
  4  5  1  0  0  0  0
  4 14  1  0  0  0  0
  5  6  1  0  0  0  0
  5 13  1  1  0  0  0
  6  7  1  0  0  0  0
  6 15  1  6  0  0  0
  7  8  1  0  0  0  0
  7 11  1  1  0  0  0
  8 14  1  0  0  0  0
  8 16  1  6  0  0  0
  9 11  1  0  0  0  0
 17 16  1  1  0  0  0
 17 18  1  0  0  0  0
 17 24  1  0  0  0  0
 18 19  1  0  0  0  0
 18 25  1  1  0  0  0
 19 20  1  0  0  0  0
 19 26  1  6  0  0  0
 20 21  1  0  0  0  0
 20 23  1  1  0  0  0
 21 22  1  6  0  0  0
 21 24  1  0  0  0  0
 22 27  1  0  0  0  0
 28 12  1  1  0  0  0
 28 29  1  0  0  0  0
 28 33  1  0  0  0  0
 29 30  1  0  0  0  0
 29 36  1  6  0  0  0
 30 31  1  0  0  0  0
 30 37  1  1  0  0  0
 31 32  1  0  0  0  0
 31 34  1  6  0  0  0
 32 33  1  0  0  0  0
 33 35  1  6  0  0  0
M  END
>  <CHROM.1>
177.58101780,104.37987413,172.61255127,-70.94825462,164.90129545,-66.72117871
-4.98378302,30.16720170,65.10691694,-3.03652534,-0.21802904,2.66649259

>  <Name>
ligand

>  <RI>
0

>  <Rbt.Current_Directory>
/home/itssahil/PROJECTS/Mol_Feturizer/Test_systems_manuscript/rnas/2g5k

>  <Rbt.Executable>
rbdock ($Id: //depot/dev/client3/rdock/2013.1/src/exe/rbdock.cxx#4 $)

>  <Rbt.Library>
libRbt.so (2013.1, Build901 2013/11/27)

>  <Rbt.Parameter_File>
/export/apps/rDock/src/rDock_2013.1_src/data/scripts/dock_solv.prm

>  <Rbt.Receptor>
prm/pocket_docking_8.prm

>  <SCORE>
-9.78531

>  <SCORE.INTER>
-5.9626

>  <SCORE.INTER.CONST>
1

>  <SCORE.INTER.POLAR>
0

>  <SCORE.INTER.ROT>
6

>  <SCORE.INTER.SOLV>
9.14574

>  <SCORE.INTER.VDW>
-14.6236

>  <SCORE.INTER.norm>
-0.161151

>  <SCORE.INTRA>
-3.82271

>  <SCORE.INTRA.DIHEDRAL>
-8.25483

>  <SCORE.INTRA.DIHEDRAL.0>
11.3972

>  <SCORE.INTRA.POLAR>
0

>  <SCORE.INTRA.POLAR.0>
0

>  <SCORE.INTRA.REPUL>
0

>  <SCORE.INTRA.REPUL.0>
0

>  <SCORE.INTRA.SOLV>
0.138985

>  <SCORE.INTRA.SOLV.lig_0>
-92.3891

>  <SCORE.INTRA.VDW>
0.235216

>  <SCORE.INTRA.VDW.0>
-2.90606

>  <SCORE.INTRA.norm>
-0.103316

>  <SCORE.RESTR>
0

>  <SCORE.RESTR.CAVITY>
0

>  <SCORE.RESTR.norm>
0

>  <SCORE.SYSTEM>
0

>  <SCORE.SYSTEM.CONST>
0

>  <SCORE.SYSTEM.DIHEDRAL>
0

>  <SCORE.SYSTEM.SOLV>
0

>  <SCORE.SYSTEM.norm>
0

>  <SCORE.heavy>
37

>  <SCORE.norm>
-0.264468

>  <RMSD>
10.079

$$$$
ligand
 OpenBabel02271912133D
libRbt.so/2013.1/901 2013/11/27
 37 40  0  0  0  0  0  0  0  0999 V2000
   -9.7832   31.1898   65.4578 C   0  0  1  0  0  0  0  0  0  0  0  0
   -9.5784   31.6669   66.9237 C   0  0  1  0  0  0  0  0  0  0  0  0
   -8.0947   31.9336   67.2416 C   0  0  0  0  0  0  0  0  0  0  0  0
   -7.2758   30.6360   66.9577 C   0  0  1  0  0  0  0  0  0  0  0  0
   -7.4454   30.1921   65.4685 C   0  0  1  0  0  0  0  0  0  0  0  0
   -6.6024   28.8644   65.2014 C   0  0  1  0  0  0  0  0  0  0  0  0
   -5.1037   29.1458   65.5154 C   0  0  1  0  0  0  0  0  0  0  0  0
   -4.9985   29.6163   66.9974 C   0  0  2  0  0  0  0  0  0  0  0  0
   -3.2367   27.9163   64.2066 C   0  0  0  0  0  0  0  0  0  0  0  0
  -10.3898   32.8719   67.1974 N   0  0  0  0  0  0  0  0  0  0  0  0
   -4.2733   27.9043   65.2875 N   0  0  0  0  0  0  0  0  0  0  0  0
   -9.5111   32.2273   64.4957 O   0  0  0  0  0  0  0  0  0  0  0  0
   -8.9070   30.0128   65.2205 O   0  0  0  0  0  0  0  0  0  0  0  0
   -5.8139   30.8131   67.2427 O   0  0  0  0  0  0  0  0  0  0  0  0
   -7.0518   27.8288   66.0655 O   0  0  0  0  0  0  0  0  0  0  0  0
   -3.6435   29.9042   67.3230 O   0  0  0  0  0  0  0  0  0  0  0  0
   -3.4245   30.1975   68.7249 C   0  0  2  0  0  0  0  0  0  0  0  0
   -2.2038   31.1178   68.9628 C   0  0  1  0  0  0  0  0  0  0  0  0
   -0.8753   30.3918   68.5751 C   0  0  2  0  0  0  0  0  0  0  0  0
   -0.7281   29.1469   69.4264 C   0  0  1  0  0  0  0  0  0  0  0  0
   -1.9442   28.2090   69.1635 C   0  0  1  0  0  0  0  0  0  0  0  0
   -1.8822   26.9354   70.0046 C   0  0  0  0  0  0  0  0  0  0  0  0
    0.5417   28.4639   69.0800 N   0  0  0  0  0  0  0  0  0  0  0  0
   -3.2118   28.9323   69.4893 O   0  0  0  0  0  0  0  0  0  0  0  0
   -2.4165   32.3239   68.1958 O   0  0  0  0  0  0  0  0  0  0  0  0
    0.2382   31.2544   68.8179 O   0  0  0  0  0  0  0  0  0  0  0  0
   -2.7284   25.9635   69.4401 O   0  0  0  0  0  0  0  0  0  0  0  0
   -9.4273   31.9752   63.0059 C   0  0  1  0  0  0  0  0  0  0  0  0
  -10.8286   31.5283   62.5065 C   0  0  1  0  0  0  0  0  0  0  0  0
  -10.7863   31.2539   60.9752 C   0  0  2  0  0  0  0  0  0  0  0  0
  -10.3681   32.5502   60.2383 C   0  0  1  0  0  0  0  0  0  0  0  0
   -8.9485   33.0209   60.7182 C   0  0  0  0  0  0  0  0  0  0  0  0
   -9.0110   33.2706   62.2402 C   0  0  2  0  0  0  0  0  0  0  0  0
  -10.3313   32.3026   58.7768 N   0  0  0  0  0  0  0  0  0  0  0  0
   -7.6819   33.7083   62.6805 N   0  0  0  0  0  0  0  0  0  0  0  0
  -11.2214   30.3202   63.1946 O   0  0  0  0  0  0  0  0  0  0  0  0
  -12.0982   30.8345   60.5382 O   0  0  0  0  0  0  0  0  0  0  0  0
  1  2  1  0  0  0  0
  1 12  1  6  0  0  0
  1 13  1  0  0  0  0
  2  3  1  0  0  0  0
  2 10  1  6  0  0  0
  4  3  1  6  0  0  0
  4  5  1  0  0  0  0
  4 14  1  0  0  0  0
  5  6  1  0  0  0  0
  5 13  1  1  0  0  0
  6  7  1  0  0  0  0
  6 15  1  1  0  0  0
  7  8  1  0  0  0  0
  7 11  1  1  0  0  0
  8 14  1  0  0  0  0
  8 16  1  6  0  0  0
  9 11  1  0  0  0  0
 17 16  1  6  0  0  0
 17 18  1  0  0  0  0
 17 24  1  0  0  0  0
 18 19  1  0  0  0  0
 18 25  1  6  0  0  0
 19 20  1  0  0  0  0
 19 26  1  1  0  0  0
 20 21  1  0  0  0  0
 20 23  1  6  0  0  0
 21 22  1  1  0  0  0
 21 24  1  0  0  0  0
 22 27  1  0  0  0  0
 28 12  1  1  0  0  0
 28 29  1  0  0  0  0
 28 33  1  0  0  0  0
 29 30  1  0  0  0  0
 29 36  1  1  0  0  0
 30 31  1  0  0  0  0
 30 37  1  6  0  0  0
 31 32  1  0  0  0  0
 31 34  1  6  0  0  0
 32 33  1  0  0  0  0
 33 35  1  1  0  0  0
M  END
>  <CHROM.1>
170.34437208,115.49334068,-173.08036777,65.04031168,-152.81952549,-161.37794240
-6.22183034,30.41558739,65.74353776,2.76069750,0.61162872,-2.13659781

>  <Name>
ligand

>  <RI>
0

>  <Rbt.Current_Directory>
/home/itssahil/PROJECTS/Mol_Feturizer/Test_systems_manuscript/rnas/2g5k

>  <Rbt.Executable>
rbdock ($Id: //depot/dev/client3/rdock/2013.1/src/exe/rbdock.cxx#4 $)

>  <Rbt.Library>
libRbt.so (2013.1, Build901 2013/11/27)

>  <Rbt.Parameter_File>
/export/apps/rDock/src/rDock_2013.1_src/data/scripts/dock_solv.prm

>  <Rbt.Receptor>
prm/pocket_docking_8.prm

>  <SCORE>
-10.7637

>  <SCORE.INTER>
-7.34322

>  <SCORE.INTER.CONST>
1

>  <SCORE.INTER.POLAR>
0

>  <SCORE.INTER.ROT>
6

>  <SCORE.INTER.SOLV>
11.9001

>  <SCORE.INTER.VDW>
-16.4622

>  <SCORE.INTER.norm>
-0.198466

>  <SCORE.INTRA>
-3.42051

>  <SCORE.INTRA.DIHEDRAL>
-5.13944

>  <SCORE.INTRA.DIHEDRAL.0>
11.3972

>  <SCORE.INTRA.POLAR>
0

>  <SCORE.INTRA.POLAR.0>
0

>  <SCORE.INTRA.REPUL>
0

>  <SCORE.INTRA.REPUL.0>
0

>  <SCORE.INTRA.SOLV>
-1.90497

>  <SCORE.INTRA.SOLV.lig_0>
-92.3891

>  <SCORE.INTRA.VDW>
0.101696

>  <SCORE.INTRA.VDW.0>
-2.90606

>  <SCORE.INTRA.norm>
-0.0924461

>  <SCORE.RESTR>
0

>  <SCORE.RESTR.CAVITY>
0

>  <SCORE.RESTR.norm>
0

>  <SCORE.SYSTEM>
0

>  <SCORE.SYSTEM.CONST>
0

>  <SCORE.SYSTEM.DIHEDRAL>
0

>  <SCORE.SYSTEM.SOLV>
0

>  <SCORE.SYSTEM.norm>
0

>  <SCORE.heavy>
37

>  <SCORE.norm>
-0.290912

>  <RMSD>
10.080

$$$$
ligand
 OpenBabel02271912133D
libRbt.so/2013.1/901 2013/11/27
 37 40  0  0  0  0  0  0  0  0999 V2000
   -7.0188   31.5671   67.6018 C   0  0  1  0  0  0  0  0  0  0  0  0
   -6.4463   32.3564   66.3902 C   0  0  1  0  0  0  0  0  0  0  0  0
   -5.3576   31.5604   65.6456 C   0  0  0  0  0  0  0  0  0  0  0  0
   -4.2260   31.1872   66.6534 C   0  0  1  0  0  0  0  0  0  0  0  0
   -4.8005   30.3495   67.8416 C   0  0  1  0  0  0  0  0  0  0  0  0
   -3.6284   29.9812   68.8590 C   0  0  1  0  0  0  0  0  0  0  0  0
   -2.5380   29.1688   68.1009 C   0  0  1  0  0  0  0  0  0  0  0  0
   -2.0274   30.0353   66.9105 C   0  0  2  0  0  0  0  0  0  0  0  0
   -1.6491   27.8288   70.1319 C   0  0  0  0  0  0  0  0  0  0  0  0
   -7.5296   32.7428   65.4616 N   0  0  0  0  0  0  0  0  0  0  0  0
   -1.4013   28.8130   69.0305 N   0  0  0  0  0  0  0  0  0  0  0  0
   -7.7901   30.4187   67.1987 O   0  0  0  0  0  0  0  0  0  0  0  0
   -5.8861   31.1577   68.4728 O   0  0  0  0  0  0  0  0  0  0  0  0
   -3.1222   30.4061   66.0044 O   0  0  0  0  0  0  0  0  0  0  0  0
   -3.0319   31.1725   69.3553 O   0  0  0  0  0  0  0  0  0  0  0  0
   -1.0396   29.3215   66.1757 O   0  0  0  0  0  0  0  0  0  0  0  0
   -0.3783   30.1115   65.1570 C   0  0  2  0  0  0  0  0  0  0  0  0
    0.7140   29.3211   64.3983 C   0  0  1  0  0  0  0  0  0  0  0  0
    1.9021   28.9619   65.3479 C   0  0  2  0  0  0  0  0  0  0  0  0
    2.5052   30.2428   65.8881 C   0  0  1  0  0  0  0  0  0  0  0  0
    1.4105   31.0231   66.6759 C   0  0  1  0  0  0  0  0  0  0  0  0
    1.9350   32.3437   67.2364 C   0  0  0  0  0  0  0  0  0  0  0  0
    3.6479   29.9111   66.7730 N   0  0  0  0  0  0  0  0  0  0  0  0
    0.2572   31.3158   65.7702 O   0  0  0  0  0  0  0  0  0  0  0  0
    0.0854   28.1484   63.8347 O   0  0  0  0  0  0  0  0  0  0  0  0
    2.9046   28.2468   64.6223 O   0  0  0  0  0  0  0  0  0  0  0  0
    0.9115   32.9801   67.9623 O   0  0  0  0  0  0  0  0  0  0  0  0
   -8.3232   29.3935   68.1758 C   0  0  1  0  0  0  0  0  0  0  0  0
   -9.3873   30.0819   69.0739 C   0  0  1  0  0  0  0  0  0  0  0  0
   -9.9606   29.0610   70.0992 C   0  0  2  0  0  0  0  0  0  0  0  0
  -10.6175   27.8863   69.3333 C   0  0  1  0  0  0  0  0  0  0  0  0
   -9.5604   27.1654   68.4223 C   0  0  0  0  0  0  0  0  0  0  0  0
   -8.9950   28.2000   67.4261 C   0  0  2  0  0  0  0  0  0  0  0  0
  -11.1739   26.9101   70.3007 N   0  0  0  0  0  0  0  0  0  0  0  0
   -8.0081   27.5196   66.5804 N   0  0  0  0  0  0  0  0  0  0  0  0
   -8.7767   31.1796   69.7876 O   0  0  0  0  0  0  0  0  0  0  0  0
  -10.9417   29.7272   70.9248 O   0  0  0  0  0  0  0  0  0  0  0  0
  1  2  1  0  0  0  0
  1 12  1  6  0  0  0
  1 13  1  0  0  0  0
  2  3  1  0  0  0  0
  2 10  1  6  0  0  0
  4  3  1  6  0  0  0
  4  5  1  0  0  0  0
  4 14  1  0  0  0  0
  5  6  1  0  0  0  0
  5 13  1  1  0  0  0
  6  7  1  0  0  0  0
  6 15  1  6  0  0  0
  7  8  1  0  0  0  0
  7 11  1  1  0  0  0
  8 14  1  0  0  0  0
  8 16  1  6  0  0  0
  9 11  1  0  0  0  0
 17 16  1  1  0  0  0
 17 18  1  0  0  0  0
 17 24  1  0  0  0  0
 18 19  1  0  0  0  0
 18 25  1  1  0  0  0
 19 20  1  0  0  0  0
 19 26  1  6  0  0  0
 20 21  1  0  0  0  0
 20 23  1  1  0  0  0
 21 22  1  6  0  0  0
 21 24  1  0  0  0  0
 22 27  1  0  0  0  0
 28 12  1  6  0  0  0
 28 29  1  0  0  0  0
 28 33  1  0  0  0  0
 29 30  1  0  0  0  0
 29 36  1  1  0  0  0
 30 31  1  0  0  0  0
 30 37  1  6  0  0  0
 31 32  1  0  0  0  0
 31 34  1  1  0  0  0
 32 33  1  0  0  0  0
 33 35  1  6  0  0  0
M  END
>  <CHROM.1>
172.74443312,68.54499953,-172.24177143,66.19963437,178.57071390,-178.51401622
-3.94190989,29.95447183,67.39922868,3.03390079,-0.24714810,2.99414291

>  <Name>
ligand

>  <RI>
0

>  <Rbt.Current_Directory>
/home/itssahil/PROJECTS/Mol_Feturizer/Test_systems_manuscript/rnas/2g5k

>  <Rbt.Executable>
rbdock ($Id: //depot/dev/client3/rdock/2013.1/src/exe/rbdock.cxx#4 $)

>  <Rbt.Library>
libRbt.so (2013.1, Build901 2013/11/27)

>  <Rbt.Parameter_File>
/export/apps/rDock/src/rDock_2013.1_src/data/scripts/dock_solv.prm

>  <Rbt.Receptor>
prm/pocket_docking_8.prm

>  <SCORE>
-13.7387

>  <SCORE.INTER>
-8.09049

>  <SCORE.INTER.CONST>
1

>  <SCORE.INTER.POLAR>
0

>  <SCORE.INTER.ROT>
6

>  <SCORE.INTER.SOLV>
11.4732

>  <SCORE.INTER.VDW>
-16.8181

>  <SCORE.INTER.norm>
-0.218662

>  <SCORE.INTRA>
-5.64822

>  <SCORE.INTRA.DIHEDRAL>
-10.5462

>  <SCORE.INTRA.DIHEDRAL.0>
11.3972

>  <SCORE.INTRA.POLAR>
0

>  <SCORE.INTRA.POLAR.0>
0

>  <SCORE.INTRA.REPUL>
0

>  <SCORE.INTRA.REPUL.0>
0

>  <SCORE.INTRA.SOLV>
-1.8118

>  <SCORE.INTRA.SOLV.lig_0>
-92.3891

>  <SCORE.INTRA.VDW>
0.530759

>  <SCORE.INTRA.VDW.0>
-2.90606

>  <SCORE.INTRA.norm>
-0.152655

>  <SCORE.RESTR>
0

>  <SCORE.RESTR.CAVITY>
0

>  <SCORE.RESTR.norm>
0

>  <SCORE.SYSTEM>
0

>  <SCORE.SYSTEM.CONST>
0

>  <SCORE.SYSTEM.DIHEDRAL>
0

>  <SCORE.SYSTEM.SOLV>
0

>  <SCORE.SYSTEM.norm>
0

>  <SCORE.heavy>
37

>  <SCORE.norm>
-0.371317

>  <RMSD>
10.084

$$$$
ligand
 OpenBabel02271912133D
libRbt.so/2013.1/901 2013/11/27
 37 40  0  0  0  0  0  0  0  0999 V2000
   -7.6619   28.8670   65.9854 C   0  0  1  0  0  0  0  0  0  0  0  0
   -6.9445   28.4247   64.6784 C   0  0  1  0  0  0  0  0  0  0  0  0
   -5.7730   27.4646   64.9599 C   0  0  0  0  0  0  0  0  0  0  0  0
   -4.7740   28.1591   65.9371 C   0  0  1  0  0  0  0  0  0  0  0  0
   -5.4905   28.5538   67.2691 C   0  0  1  0  0  0  0  0  0  0  0  0
   -4.4524   29.2630   68.2511 C   0  0  1  0  0  0  0  0  0  0  0  0
   -3.2777   28.2825   68.5380 C   0  0  1  0  0  0  0  0  0  0  0  0
   -2.6242   27.8968   67.1768 C   0  0  2  0  0  0  0  0  0  0  0  0
   -1.4499   28.0514   70.3591 C   0  0  0  0  0  0  0  0  0  0  0  0
   -7.9053   27.8060   63.7408 N   0  0  0  0  0  0  0  0  0  0  0  0
   -2.2639   28.9254   69.4555 N   0  0  0  0  0  0  0  0  0  0  0  0
   -8.3785   27.7872   66.6152 O   0  0  0  0  0  0  0  0  0  0  0  0
   -6.6450   29.4309   66.9113 O   0  0  0  0  0  0  0  0  0  0  0  0
   -3.5993   27.2856   66.2641 O   0  0  0  0  0  0  0  0  0  0  0  0
   -3.9207   30.4254   67.6288 O   0  0  0  0  0  0  0  0  0  0  0  0
   -1.5541   26.9834   67.3905 O   0  0  0  0  0  0  0  0  0  0  0  0
   -0.7161   26.7757   66.2270 C   0  0  2  0  0  0  0  0  0  0  0  0
    0.3346   25.6592   66.4346 C   0  0  1  0  0  0  0  0  0  0  0  0
    1.3834   26.0758   67.5157 C   0  0  2  0  0  0  0  0  0  0  0  0
    2.0875   27.3370   67.0583 C   0  0  1  0  0  0  0  0  0  0  0  0
    1.0309   28.4678   66.8775 C   0  0  1  0  0  0  0  0  0  0  0  0
    1.6603   29.7728   66.3939 C   0  0  0  0  0  0  0  0  0  0  0  0
    3.1004   27.7266   68.0688 N   0  0  0  0  0  0  0  0  0  0  0  0
    0.0046   28.0366   65.8789 O   0  0  0  0  0  0  0  0  0  0  0  0
   -0.3798   24.4559   66.7950 O   0  0  0  0  0  0  0  0  0  0  0  0
    2.3514   25.0368   67.6789 O   0  0  0  0  0  0  0  0  0  0  0  0
    2.2329   29.5708   65.1247 O   0  0  0  0  0  0  0  0  0  0  0  0
   -9.5525   28.0026   67.5454 C   0  0  1  0  0  0  0  0  0  0  0  0
   -9.9741   26.6254   68.1270 C   0  0  1  0  0  0  0  0  0  0  0  0
  -11.1847   26.8009   69.0891 C   0  0  2  0  0  0  0  0  0  0  0  0
  -10.7799   27.7453   70.2478 C   0  0  1  0  0  0  0  0  0  0  0  0
  -10.3566   29.1506   69.6882 C   0  0  0  0  0  0  0  0  0  0  0  0
   -9.1669   28.9493   68.7256 C   0  0  2  0  0  0  0  0  0  0  0  0
  -11.9242   27.9144   71.1754 N   0  0  0  0  0  0  0  0  0  0  0  0
   -8.7787   30.2653   68.2067 N   0  0  0  0  0  0  0  0  0  0  0  0
  -10.3499   25.7422   67.0472 O   0  0  0  0  0  0  0  0  0  0  0  0
  -11.5601   25.5066   69.6103 O   0  0  0  0  0  0  0  0  0  0  0  0
  1  2  1  0  0  0  0
  1 12  1  1  0  0  0
  1 13  1  0  0  0  0
  2  3  1  0  0  0  0
  2 10  1  6  0  0  0
  4  3  1  6  0  0  0
  4  5  1  0  0  0  0
  4 14  1  0  0  0  0
  5  6  1  0  0  0  0
  5 13  1  6  0  0  0
  6  7  1  0  0  0  0
  6 15  1  6  0  0  0
  7  8  1  0  0  0  0
  7 11  1  1  0  0  0
  8 14  1  0  0  0  0
  8 16  1  1  0  0  0
  9 11  1  0  0  0  0
 17 16  1  1  0  0  0
 17 18  1  0  0  0  0
 17 24  1  0  0  0  0
 18 19  1  0  0  0  0
 18 25  1  1  0  0  0
 19 20  1  0  0  0  0
 19 26  1  6  0  0  0
 20 21  1  0  0  0  0
 20 23  1  1  0  0  0
 21 22  1  6  0  0  0
 21 24  1  0  0  0  0
 22 27  1  0  0  0  0
 28 12  1  6  0  0  0
 28 29  1  0  0  0  0
 28 33  1  0  0  0  0
 29 30  1  0  0  0  0
 29 36  1  6  0  0  0
 30 31  1  0  0  0  0
 30 37  1  1  0  0  0
 31 32  1  0  0  0  0
 31 34  1  1  0  0  0
 32 33  1  0  0  0  0
 33 35  1  6  0  0  0
M  END
>  <CHROM.1>
-155.82201380,151.33595375,-168.17036509,-174.74743606,-173.28241879,62.74427151
-4.47497031,27.79756900,67.41247702,3.02827849,-0.06038371,1.85418314

>  <Name>
ligand

>  <RI>
0

>  <Rbt.Current_Directory>
/home/itssahil/PROJECTS/Mol_Feturizer/Test_systems_manuscript/rnas/2g5k

>  <Rbt.Executable>
rbdock ($Id: //depot/dev/client3/rdock/2013.1/src/exe/rbdock.cxx#4 $)

>  <Rbt.Library>
libRbt.so (2013.1, Build901 2013/11/27)

>  <Rbt.Parameter_File>
/export/apps/rDock/src/rDock_2013.1_src/data/scripts/dock_solv.prm

>  <Rbt.Receptor>
prm/pocket_docking_6.prm

>  <SCORE>
-7.43896

>  <SCORE.INTER>
-4.40027

>  <SCORE.INTER.CONST>
1

>  <SCORE.INTER.POLAR>
0

>  <SCORE.INTER.ROT>
6

>  <SCORE.INTER.SOLV>
19.7013

>  <SCORE.INTER.VDW>
-17.1006

>  <SCORE.INTER.norm>
-0.118926

>  <SCORE.INTRA>
-3.0387

>  <SCORE.INTRA.DIHEDRAL>
-7.23824

>  <SCORE.INTRA.DIHEDRAL.0>
11.3972

>  <SCORE.INTRA.POLAR>
0

>  <SCORE.INTRA.POLAR.0>
0

>  <SCORE.INTRA.REPUL>
0

>  <SCORE.INTRA.REPUL.0>
0

>  <SCORE.INTRA.SOLV>
1.18554

>  <SCORE.INTRA.SOLV.lig_0>
-92.3891

>  <SCORE.INTRA.VDW>
-0.0123459

>  <SCORE.INTRA.VDW.0>
-2.90606

>  <SCORE.INTRA.norm>
-0.0821269

>  <SCORE.RESTR>
0

>  <SCORE.RESTR.CAVITY>
0

>  <SCORE.RESTR.norm>
0

>  <SCORE.SYSTEM>
0

>  <SCORE.SYSTEM.CONST>
0

>  <SCORE.SYSTEM.DIHEDRAL>
0

>  <SCORE.SYSTEM.SOLV>
0

>  <SCORE.SYSTEM.norm>
0

>  <SCORE.heavy>
37

>  <SCORE.norm>
-0.201053

>  <RMSD>
10.085

$$$$
ligand
 OpenBabel02271912133D
libRbt.so/2013.1/901 2013/11/27
 37 40  0  0  0  0  0  0  0  0999 V2000
   -7.2789   31.7591   68.3322 C   0  0  1  0  0  0  0  0  0  0  0  0
   -6.6598   32.8328   67.3928 C   0  0  1  0  0  0  0  0  0  0  0  0
   -5.7729   32.2027   66.3021 C   0  0  0  0  0  0  0  0  0  0  0  0
   -4.6588   31.3508   66.9862 C   0  0  1  0  0  0  0  0  0  0  0  0
   -5.2896   30.2406   67.8879 C   0  0  1  0  0  0  0  0  0  0  0  0
   -4.1341   29.3842   68.5780 C   0  0  1  0  0  0  0  0  0  0  0  0
   -3.2493   28.7433   67.4690 C   0  0  1  0  0  0  0  0  0  0  0  0
   -2.6765   29.8898   66.5823 C   0  0  2  0  0  0  0  0  0  0  0  0
   -2.4589   26.6185   68.7224 C   0  0  0  0  0  0  0  0  0  0  0  0
   -7.7191   33.6629   66.7813 N   0  0  0  0  0  0  0  0  0  0  0  0
   -2.1322   27.9339   68.0852 N   0  0  0  0  0  0  0  0  0  0  0  0
   -8.2589   30.9400   67.6652 O   0  0  0  0  0  0  0  0  0  0  0  0
   -6.1787   30.9208   68.8763 O   0  0  0  0  0  0  0  0  0  0  0  0
   -3.7484   30.6992   65.9881 O   0  0  0  0  0  0  0  0  0  0  0  0
   -3.3127   30.2348   69.3672 O   0  0  0  0  0  0  0  0  0  0  0  0
   -1.8743   29.3464   65.5401 O   0  0  0  0  0  0  0  0  0  0  0  0
   -1.3036   30.3425   64.6562 C   0  0  2  0  0  0  0  0  0  0  0  0
   -0.5440   29.7206   63.4605 C   0  0  1  0  0  0  0  0  0  0  0  0
    0.7290   28.9555   63.9469 C   0  0  2  0  0  0  0  0  0  0  0  0
    1.6451   29.9284   64.6612 C   0  0  1  0  0  0  0  0  0  0  0  0
    0.8874   30.5319   65.8817 C   0  0  1  0  0  0  0  0  0  0  0  0
    1.7389   31.5442   66.6455 C   0  0  0  0  0  0  0  0  0  0  0  0
    2.8662   29.2145   65.1065 N   0  0  0  0  0  0  0  0  0  0  0  0
   -0.3549   31.2167   65.4087 O   0  0  0  0  0  0  0  0  0  0  0  0
   -1.4704   28.8598   62.7612 O   0  0  0  0  0  0  0  0  0  0  0  0
    1.4220   28.4036   62.8252 O   0  0  0  0  0  0  0  0  0  0  0  0
    0.9956   32.0574   67.7242 O   0  0  0  0  0  0  0  0  0  0  0  0
   -8.9243   29.7472   68.3167 C   0  0  1  0  0  0  0  0  0  0  0  0
   -9.7501   30.2517   69.5317 C   0  0  1  0  0  0  0  0  0  0  0  0
  -10.4501   29.0530   70.2353 C   0  0  2  0  0  0  0  0  0  0  0  0
  -11.3951   28.3537   69.2271 C   0  0  1  0  0  0  0  0  0  0  0  0
  -10.5840   27.8250   67.9903 C   0  0  0  0  0  0  0  0  0  0  0  0
   -9.8865   29.0276   67.3196 C   0  0  2  0  0  0  0  0  0  0  0  0
  -12.0735   27.2134   69.8888 N   0  0  0  0  0  0  0  0  0  0  0  0
   -9.1306   28.5255   66.1670 N   0  0  0  0  0  0  0  0  0  0  0  0
   -8.8704   30.9064   70.4724 O   0  0  0  0  0  0  0  0  0  0  0  0
  -11.2050   29.5481   71.3635 O   0  0  0  0  0  0  0  0  0  0  0  0
  1  2  1  0  0  0  0
  1 12  1  6  0  0  0
  1 13  1  0  0  0  0
  2  3  1  0  0  0  0
  2 10  1  6  0  0  0
  4  3  1  6  0  0  0
  4  5  1  0  0  0  0
  4 14  1  0  0  0  0
  5  6  1  0  0  0  0
  5 13  1  1  0  0  0
  6  7  1  0  0  0  0
  6 15  1  1  0  0  0
  7  8  1  0  0  0  0
  7 11  1  1  0  0  0
  8 14  1  0  0  0  0
  8 16  1  6  0  0  0
  9 11  1  0  0  0  0
 17 16  1  1  0  0  0
 17 18  1  0  0  0  0
 17 24  1  0  0  0  0
 18 19  1  0  0  0  0
 18 25  1  1  0  0  0
 19 20  1  0  0  0  0
 19 26  1  6  0  0  0
 20 21  1  0  0  0  0
 20 23  1  1  0  0  0
 21 22  1  6  0  0  0
 21 24  1  0  0  0  0
 22 27  1  0  0  0  0
 28 12  1  6  0  0  0
 28 29  1  0  0  0  0
 28 33  1  0  0  0  0
 29 30  1  0  0  0  0
 29 36  1  1  0  0  0
 30 31  1  0  0  0  0
 30 37  1  1  0  0  0
 31 32  1  0  0  0  0
 31 34  1  1  0  0  0
 32 33  1  0  0  0  0
 33 35  1  6  0  0  0
M  END
>  <CHROM.1>
174.58720044,73.38699626,179.64022763,63.25112474,-174.78953757,179.52405260
-4.58048540,29.95134812,67.14183541,-3.03999697,-0.35565498,-2.78455461

>  <Name>
ligand

>  <RI>
0

>  <Rbt.Current_Directory>
/home/itssahil/PROJECTS/Mol_Feturizer/Test_systems_manuscript/rnas/2g5k

>  <Rbt.Executable>
rbdock ($Id: //depot/dev/client3/rdock/2013.1/src/exe/rbdock.cxx#4 $)

>  <Rbt.Library>
libRbt.so (2013.1, Build901 2013/11/27)

>  <Rbt.Parameter_File>
/export/apps/rDock/src/rDock_2013.1_src/data/scripts/dock_solv.prm

>  <Rbt.Receptor>
prm/pocket_docking_6.prm

>  <SCORE>
-14.3699

>  <SCORE.INTER>
-8.61781

>  <SCORE.INTER.CONST>
1

>  <SCORE.INTER.POLAR>
0

>  <SCORE.INTER.ROT>
6

>  <SCORE.INTER.SOLV>
11.734

>  <SCORE.INTER.VDW>
-17.2565

>  <SCORE.INTER.norm>
-0.232914

>  <SCORE.INTRA>
-5.75204

>  <SCORE.INTRA.DIHEDRAL>
-10.8879

>  <SCORE.INTRA.DIHEDRAL.0>
11.3972

>  <SCORE.INTRA.POLAR>
0

>  <SCORE.INTRA.POLAR.0>
0

>  <SCORE.INTRA.REPUL>
0

>  <SCORE.INTRA.REPUL.0>
0

>  <SCORE.INTRA.SOLV>
-1.99975

>  <SCORE.INTRA.SOLV.lig_0>
-92.3891

>  <SCORE.INTRA.VDW>
0.691805

>  <SCORE.INTRA.VDW.0>
-2.90606

>  <SCORE.INTRA.norm>
-0.155461

>  <SCORE.RESTR>
0

>  <SCORE.RESTR.CAVITY>
0

>  <SCORE.RESTR.norm>
0

>  <SCORE.SYSTEM>
0

>  <SCORE.SYSTEM.CONST>
0

>  <SCORE.SYSTEM.DIHEDRAL>
0

>  <SCORE.SYSTEM.SOLV>
0

>  <SCORE.SYSTEM.norm>
0

>  <SCORE.heavy>
37

>  <SCORE.norm>
-0.388374

>  <RMSD>
10.092

$$$$
ligand
 OpenBabel02271912133D
libRbt.so/2013.1/901 2013/11/27
 37 40  0  0  0  0  0  0  0  0999 V2000
   -7.0535   31.7868   68.1638 C   0  0  1  0  0  0  0  0  0  0  0  0
   -6.2507   33.0321   67.6912 C   0  0  1  0  0  0  0  0  0  0  0  0
   -5.0904   32.6484   66.7531 C   0  0  0  0  0  0  0  0  0  0  0  0
   -4.1618   31.6316   67.4874 C   0  0  1  0  0  0  0  0  0  0  0  0
   -4.9650   30.3599   67.9132 C   0  0  1  0  0  0  0  0  0  0  0  0
   -3.9979   29.3364   68.6627 C   0  0  1  0  0  0  0  0  0  0  0  0
   -2.8345   28.9465   67.7044 C   0  0  1  0  0  0  0  0  0  0  0  0
   -2.0925   30.2516   67.2860 C   0  0  2  0  0  0  0  0  0  0  0  0
   -0.9612   28.5109   69.4397 C   0  0  0  0  0  0  0  0  0  0  0  0
   -7.1443   34.0093   67.0343 N   0  0  0  0  0  0  0  0  0  0  0  0
   -1.8870   27.9868   68.3855 N   0  0  0  0  0  0  0  0  0  0  0  0
   -7.7984   31.1711   67.0951 O   0  0  0  0  0  0  0  0  0  0  0  0
   -6.1026   30.8161   68.7662 O   0  0  0  0  0  0  0  0  0  0  0  0
   -3.0021   31.2050   66.6373 O   0  0  0  0  0  0  0  0  0  0  0  0
   -3.4388   29.9587   69.8122 O   0  0  0  0  0  0  0  0  0  0  0  0
   -1.0296   29.9433   66.3915 O   0  0  0  0  0  0  0  0  0  0  0  0
   -0.2342   31.0908   66.0046 C   0  0  2  0  0  0  0  0  0  0  0  0
    0.8701   30.7388   64.9800 C   0  0  1  0  0  0  0  0  0  0  0  0
    1.9459   29.8034   65.6203 C   0  0  2  0  0  0  0  0  0  0  0  0
    2.5765   30.5140   66.8007 C   0  0  1  0  0  0  0  0  0  0  0  0
    1.4667   30.8420   67.8440 C   0  0  1  0  0  0  0  0  0  0  0  0
    2.0196   31.5825   69.0602 C   0  0  0  0  0  0  0  0  0  0  0  0
    3.6145   29.6413   67.4004 N   0  0  0  0  0  0  0  0  0  0  0  0
    0.4175   31.6948   67.2050 O   0  0  0  0  0  0  0  0  0  0  0  0
    0.2229   30.1334   63.8386 O   0  0  0  0  0  0  0  0  0  0  0  0
    2.9627   29.5048   64.6610 O   0  0  0  0  0  0  0  0  0  0  0  0
    2.8186   30.7048   69.8156 O   0  0  0  0  0  0  0  0  0  0  0  0
   -8.8157   30.0733   67.3188 C   0  0  1  0  0  0  0  0  0  0  0  0
   -8.1153   28.9022   68.0608 C   0  0  1  0  0  0  0  0  0  0  0  0
   -9.1276   27.7465   68.3084 C   0  0  2  0  0  0  0  0  0  0  0  0
  -10.2994   28.2741   69.1727 C   0  0  1  0  0  0  0  0  0  0  0  0
  -11.0324   29.4553   68.4414 C   0  0  0  0  0  0  0  0  0  0  0  0
  -10.0060   30.5809   68.1924 C   0  0  2  0  0  0  0  0  0  0  0  0
  -11.2675   27.1789   69.4212 N   0  0  0  0  0  0  0  0  0  0  0  0
  -10.6977   31.6790   67.5085 N   0  0  0  0  0  0  0  0  0  0  0  0
   -7.0203   28.4101   67.2570 O   0  0  0  0  0  0  0  0  0  0  0  0
   -8.4503   26.6692   68.9931 O   0  0  0  0  0  0  0  0  0  0  0  0
  1  2  1  0  0  0  0
  1 12  1  6  0  0  0
  1 13  1  0  0  0  0
  2  3  1  0  0  0  0
  2 10  1  6  0  0  0
  4  3  1  6  0  0  0
  4  5  1  0  0  0  0
  4 14  1  0  0  0  0
  5  6  1  0  0  0  0
  5 13  1  1  0  0  0
  6  7  1  0  0  0  0
  6 15  1  1  0  0  0
  7  8  1  0  0  0  0
  7 11  1  1  0  0  0
  8 14  1  0  0  0  0
  8 16  1  6  0  0  0
  9 11  1  0  0  0  0
 17 16  1  1  0  0  0
 17 18  1  0  0  0  0
 17 24  1  0  0  0  0
 18 19  1  0  0  0  0
 18 25  1  6  0  0  0
 19 20  1  0  0  0  0
 19 26  1  6  0  0  0
 20 21  1  0  0  0  0
 20 23  1  1  0  0  0
 21 22  1  1  0  0  0
 21 24  1  0  0  0  0
 22 27  1  0  0  0  0
 28 12  1  1  0  0  0
 28 29  1  0  0  0  0
 28 33  1  0  0  0  0
 29 30  1  0  0  0  0
 29 36  1  6  0  0  0
 30 31  1  0  0  0  0
 30 37  1  1  0  0  0
 31 32  1  0  0  0  0
 31 34  1  6  0  0  0
 32 33  1  0  0  0  0
 33 35  1  6  0  0  0
M  END
>  <CHROM.1>
-170.81398929,-73.86317941,-176.78255757,-56.56468252,-177.22595255,-69.85039453
-3.82884325,30.17266293,67.59360584,3.02630913,-0.08376530,2.68660231

>  <Name>
ligand

>  <RI>
0

>  <Rbt.Current_Directory>
/home/itssahil/PROJECTS/Mol_Feturizer/Test_systems_manuscript/rnas/2g5k

>  <Rbt.Executable>
rbdock ($Id: //depot/dev/client3/rdock/2013.1/src/exe/rbdock.cxx#4 $)

>  <Rbt.Library>
libRbt.so (2013.1, Build901 2013/11/27)

>  <Rbt.Parameter_File>
/export/apps/rDock/src/rDock_2013.1_src/data/scripts/dock_solv.prm

>  <Rbt.Receptor>
prm/pocket_docking_7.prm

>  <SCORE>
-8.8342

>  <SCORE.INTER>
-5.15955

>  <SCORE.INTER.CONST>
1

>  <SCORE.INTER.POLAR>
0

>  <SCORE.INTER.ROT>
6

>  <SCORE.INTER.SOLV>
9.84274

>  <SCORE.INTER.VDW>
-14.3206

>  <SCORE.INTER.norm>
-0.139447

>  <SCORE.INTRA>
-3.67465

>  <SCORE.INTRA.DIHEDRAL>
-10.3139

>  <SCORE.INTRA.DIHEDRAL.0>
11.3972

>  <SCORE.INTRA.POLAR>
0

>  <SCORE.INTRA.POLAR.0>
0

>  <SCORE.INTRA.REPUL>
0

>  <SCORE.INTRA.REPUL.0>
0

>  <SCORE.INTRA.SOLV>
0.427376

>  <SCORE.INTRA.SOLV.lig_0>
-92.3891

>  <SCORE.INTRA.VDW>
1.26862

>  <SCORE.INTRA.VDW.0>
-2.90606

>  <SCORE.INTRA.norm>
-0.0993149

>  <SCORE.RESTR>
0

>  <SCORE.RESTR.CAVITY>
0

>  <SCORE.RESTR.norm>
0

>  <SCORE.SYSTEM>
0

>  <SCORE.SYSTEM.CONST>
0

>  <SCORE.SYSTEM.DIHEDRAL>
0

>  <SCORE.SYSTEM.SOLV>
0

>  <SCORE.SYSTEM.norm>
0

>  <SCORE.heavy>
37

>  <SCORE.norm>
-0.238762

>  <RMSD>
10.095

$$$$
ligand
 OpenBabel02271912133D
libRbt.so/2013.1/901 2013/11/27
 37 40  0  0  0  0  0  0  0  0999 V2000
   -6.9074   31.6799   67.5986 C   0  0  1  0  0  0  0  0  0  0  0  0
   -6.2893   32.4712   66.4110 C   0  0  1  0  0  0  0  0  0  0  0  0
   -5.1848   31.6695   65.6963 C   0  0  0  0  0  0  0  0  0  0  0  0
   -4.0894   31.2794   66.7370 C   0  0  1  0  0  0  0  0  0  0  0  0
   -4.7093   30.4399   67.9009 C   0  0  1  0  0  0  0  0  0  0  0  0
   -3.5737   30.0542   68.9527 C   0  0  1  0  0  0  0  0  0  0  0  0
   -2.4672   29.2362   68.2244 C   0  0  1  0  0  0  0  0  0  0  0  0
   -1.9109   30.1051   67.0565 C   0  0  2  0  0  0  0  0  0  0  0  0
   -1.6367   27.8270   70.2331 C   0  0  0  0  0  0  0  0  0  0  0  0
   -7.3388   32.8735   65.4509 N   0  0  0  0  0  0  0  0  0  0  0  0
   -1.3641   28.8639   69.1874 N   0  0  0  0  0  0  0  0  0  0  0  0
   -7.6761   30.5413   67.1637 O   0  0  0  0  0  0  0  0  0  0  0  0
   -5.8069   31.2543   68.5025 O   0  0  0  0  0  0  0  0  0  0  0  0
   -2.9728   30.4919   66.1184 O   0  0  0  0  0  0  0  0  0  0  0  0
   -2.9823   31.2367   69.4754 O   0  0  0  0  0  0  0  0  0  0  0  0
   -0.9069   29.3866   66.3489 O   0  0  0  0  0  0  0  0  0  0  0  0
   -0.2585   30.1543   65.3052 C   0  0  2  0  0  0  0  0  0  0  0  0
    0.8091   29.3410   64.5357 C   0  0  1  0  0  0  0  0  0  0  0  0
    2.0128   28.9824   65.4656 C   0  0  2  0  0  0  0  0  0  0  0  0
    2.6409   30.2642   65.9742 C   0  0  1  0  0  0  0  0  0  0  0  0
    1.5714   31.0679   66.7730 C   0  0  1  0  0  0  0  0  0  0  0  0
    2.1217   32.3906   67.3029 C   0  0  0  0  0  0  0  0  0  0  0  0
    3.7982   29.9327   66.8400 N   0  0  0  0  0  0  0  0  0  0  0  0
    0.4027   31.3603   65.8872 O   0  0  0  0  0  0  0  0  0  0  0  0
    0.1562   28.1673   64.0026 O   0  0  0  0  0  0  0  0  0  0  0  0
    2.9922   28.2458   64.7299 O   0  0  0  0  0  0  0  0  0  0  0  0
    1.1199   33.0498   68.0388 O   0  0  0  0  0  0  0  0  0  0  0  0
   -8.2089   29.4895   68.1123 C   0  0  1  0  0  0  0  0  0  0  0  0
   -9.2866   30.1480   69.0165 C   0  0  1  0  0  0  0  0  0  0  0  0
   -9.8600   29.0991   70.0129 C   0  0  2  0  0  0  0  0  0  0  0  0
  -10.5002   27.9369   69.2144 C   0  0  1  0  0  0  0  0  0  0  0  0
   -9.4291   27.2460   68.2964 C   0  0  0  0  0  0  0  0  0  0  0  0
   -8.8639   28.3080   67.3294 C   0  0  2  0  0  0  0  0  0  0  0  0
  -11.0566   26.9340   70.1541 N   0  0  0  0  0  0  0  0  0  0  0  0
   -7.8640   27.6556   66.4770 N   0  0  0  0  0  0  0  0  0  0  0  0
   -8.6915   31.2341   69.7606 O   0  0  0  0  0  0  0  0  0  0  0  0
  -10.8539   29.7378   70.8448 O   0  0  0  0  0  0  0  0  0  0  0  0
  1  2  1  0  0  0  0
  1 12  1  6  0  0  0
  1 13  1  0  0  0  0
  2  3  1  0  0  0  0
  2 10  1  6  0  0  0
  4  3  1  6  0  0  0
  4  5  1  0  0  0  0
  4 14  1  0  0  0  0
  5  6  1  0  0  0  0
  5 13  1  1  0  0  0
  6  7  1  0  0  0  0
  6 15  1  6  0  0  0
  7  8  1  0  0  0  0
  7 11  1  1  0  0  0
  8 14  1  0  0  0  0
  8 16  1  6  0  0  0
  9 11  1  0  0  0  0
 17 16  1  1  0  0  0
 17 18  1  0  0  0  0
 17 24  1  0  0  0  0
 18 19  1  0  0  0  0
 18 25  1  1  0  0  0
 19 20  1  0  0  0  0
 19 26  1  6  0  0  0
 20 21  1  0  0  0  0
 20 23  1  1  0  0  0
 21 22  1  6  0  0  0
 21 24  1  0  0  0  0
 22 27  1  0  0  0  0
 28 12  1  6  0  0  0
 28 29  1  0  0  0  0
 28 33  1  0  0  0  0
 29 30  1  0  0  0  0
 29 36  1  1  0  0  0
 30 31  1  0  0  0  0
 30 37  1  1  0  0  0
 31 32  1  0  0  0  0
 31 34  1  1  0  0  0
 32 33  1  0  0  0  0
 33 35  1  6  0  0  0
M  END
>  <CHROM.1>
170.55795847,71.42934861,-175.57067305,66.80182736,-178.93152161,-178.60263285
-3.82664783,30.01772657,67.44129196,3.04091004,-0.23136487,3.00529988

>  <Name>
ligand

>  <RI>
0

>  <Rbt.Current_Directory>
/home/itssahil/PROJECTS/Mol_Feturizer/Test_systems_manuscript/rnas/2g5k

>  <Rbt.Executable>
rbdock ($Id: //depot/dev/client3/rdock/2013.1/src/exe/rbdock.cxx#4 $)

>  <Rbt.Library>
libRbt.so (2013.1, Build901 2013/11/27)

>  <Rbt.Parameter_File>
/export/apps/rDock/src/rDock_2013.1_src/data/scripts/dock_solv.prm

>  <Rbt.Receptor>
prm/pocket_docking_8.prm

>  <SCORE>
-13.8016

>  <SCORE.INTER>
-8.17479

>  <SCORE.INTER.CONST>
1

>  <SCORE.INTER.POLAR>
0

>  <SCORE.INTER.ROT>
6

>  <SCORE.INTER.SOLV>
11.5524

>  <SCORE.INTER.VDW>
-16.9007

>  <SCORE.INTER.norm>
-0.22094

>  <SCORE.INTRA>
-5.62678

>  <SCORE.INTRA.DIHEDRAL>
-10.4897

>  <SCORE.INTRA.DIHEDRAL.0>
11.3972

>  <SCORE.INTRA.POLAR>
0

>  <SCORE.INTRA.POLAR.0>
0

>  <SCORE.INTRA.REPUL>
0

>  <SCORE.INTRA.REPUL.0>
0

>  <SCORE.INTRA.SOLV>
-1.84778

>  <SCORE.INTRA.SOLV.lig_0>
-92.3891

>  <SCORE.INTRA.VDW>
0.541979

>  <SCORE.INTRA.VDW.0>
-2.90606

>  <SCORE.INTRA.norm>
-0.152075

>  <SCORE.RESTR>
0

>  <SCORE.RESTR.CAVITY>
0

>  <SCORE.RESTR.norm>
0

>  <SCORE.SYSTEM>
0

>  <SCORE.SYSTEM.CONST>
0

>  <SCORE.SYSTEM.DIHEDRAL>
0

>  <SCORE.SYSTEM.SOLV>
0

>  <SCORE.SYSTEM.norm>
0

>  <SCORE.heavy>
37

>  <SCORE.norm>
-0.373016

>  <RMSD>
10.097

$$$$
ligand
 OpenBabel02271912133D
libRbt.so/2013.1/901 2013/11/27
 37 40  0  0  0  0  0  0  0  0999 V2000
   -6.7965   31.1073   65.9759 C   0  0  1  0  0  0  0  0  0  0  0  0
   -5.6526   31.8549   65.2337 C   0  0  1  0  0  0  0  0  0  0  0  0
   -4.7091   30.8829   64.5000 C   0  0  0  0  0  0  0  0  0  0  0  0
   -4.1322   29.8635   65.5312 C   0  0  1  0  0  0  0  0  0  0  0  0
   -5.2865   29.0793   66.2356 C   0  0  1  0  0  0  0  0  0  0  0  0
   -4.6748   28.0456   67.2855 C   0  0  1  0  0  0  0  0  0  0  0  0
   -3.7310   27.0614   66.5343 C   0  0  1  0  0  0  0  0  0  0  0  0
   -2.6237   27.8975   65.8247 C   0  0  2  0  0  0  0  0  0  0  0  0
   -2.1409   26.5699   68.5193 C   0  0  0  0  0  0  0  0  0  0  0  0
   -6.2065   32.8482   64.2893 N   0  0  0  0  0  0  0  0  0  0  0  0
   -3.1197   26.0735   67.5002 N   0  0  0  0  0  0  0  0  0  0  0  0
   -7.7350   30.4945   65.0705 O   0  0  0  0  0  0  0  0  0  0  0  0
   -6.1882   30.0870   66.8693 O   0  0  0  0  0  0  0  0  0  0  0  0
   -3.2000   28.8765   64.8937 O   0  0  0  0  0  0  0  0  0  0  0  0
   -3.9073   28.7455   68.2562 O   0  0  0  0  0  0  0  0  0  0  0  0
   -1.7466   27.0366   65.1072 O   0  0  0  0  0  0  0  0  0  0  0  0
   -0.4121   27.5717   64.9289 C   0  0  2  0  0  0  0  0  0  0  0  0
    0.3610   26.8872   63.7768 C   0  0  1  0  0  0  0  0  0  0  0  0
    0.6577   25.3911   64.1173 C   0  0  2  0  0  0  0  0  0  0  0  0
    1.4954   25.3299   65.3784 C   0  0  1  0  0  0  0  0  0  0  0  0
    0.7028   25.9945   66.5436 C   0  0  1  0  0  0  0  0  0  0  0  0
    1.4918   25.9934   67.8516 C   0  0  0  0  0  0  0  0  0  0  0  0
    1.8001   23.9138   65.6959 N   0  0  0  0  0  0  0  0  0  0  0  0
    0.3805   27.4098   66.1843 O   0  0  0  0  0  0  0  0  0  0  0  0
   -0.4329   27.0324   62.5782 O   0  0  0  0  0  0  0  0  0  0  0  0
    1.3852   24.7845   63.0468 O   0  0  0  0  0  0  0  0  0  0  0  0
    2.5402   26.9274   67.7632 O   0  0  0  0  0  0  0  0  0  0  0  0
   -8.8219   29.5431   65.5216 C   0  0  1  0  0  0  0  0  0  0  0  0
   -9.9223   30.3664   66.2454 C   0  0  1  0  0  0  0  0  0  0  0  0
  -11.0612   29.4234   66.7307 C   0  0  2  0  0  0  0  0  0  0  0  0
  -11.6802   28.7031   65.5075 C   0  0  1  0  0  0  0  0  0  0  0  0
  -10.5898   27.8545   64.7605 C   0  0  0  0  0  0  0  0  0  0  0  0
   -9.4647   28.8074   64.3037 C   0  0  2  0  0  0  0  0  0  0  0  0
  -12.7721   27.8066   65.9573 N   0  0  0  0  0  0  0  0  0  0  0  0
   -8.4503   28.0074   63.6086 N   0  0  0  0  0  0  0  0  0  0  0  0
   -9.3462   31.0410   67.3858 O   0  0  0  0  0  0  0  0  0  0  0  0
  -12.0669   30.2121   67.4049 O   0  0  0  0  0  0  0  0  0  0  0  0
  1  2  1  0  0  0  0
  1 12  1  6  0  0  0
  1 13  1  0  0  0  0
  2  3  1  0  0  0  0
  2 10  1  6  0  0  0
  4  3  1  6  0  0  0
  4  5  1  0  0  0  0
  4 14  1  0  0  0  0
  5  6  1  0  0  0  0
  5 13  1  1  0  0  0
  6  7  1  0  0  0  0
  6 15  1  1  0  0  0
  7  8  1  0  0  0  0
  7 11  1  1  0  0  0
  8 14  1  0  0  0  0
  8 16  1  6  0  0  0
  9 11  1  0  0  0  0
 17 16  1  1  0  0  0
 17 18  1  0  0  0  0
 17 24  1  0  0  0  0
 18 19  1  0  0  0  0
 18 25  1  6  0  0  0
 19 20  1  0  0  0  0
 19 26  1  6  0  0  0
 20 21  1  0  0  0  0
 20 23  1  1  0  0  0
 21 22  1  1  0  0  0
 21 24  1  0  0  0  0
 22 27  1  0  0  0  0
 28 12  1  6  0  0  0
 28 29  1  0  0  0  0
 28 33  1  0  0  0  0
 29 30  1  0  0  0  0
 29 36  1  1  0  0  0
 30 31  1  0  0  0  0
 30 37  1  6  0  0  0
 31 32  1  0  0  0  0
 31 34  1  1  0  0  0
 32 33  1  0  0  0  0
 33 35  1  1  0  0  0
M  END
>  <CHROM.1>
170.82208096,-67.73951228,-153.67721463,73.23150043,-160.41047147,72.16325027
-4.44009277,28.25621441,65.76878508,-2.95863807,-0.27535583,2.24967461

>  <Name>
ligand

>  <RI>
0

>  <Rbt.Current_Directory>
/home/itssahil/PROJECTS/Mol_Feturizer/Test_systems_manuscript/rnas/2g5k

>  <Rbt.Executable>
rbdock ($Id: //depot/dev/client3/rdock/2013.1/src/exe/rbdock.cxx#4 $)

>  <Rbt.Library>
libRbt.so (2013.1, Build901 2013/11/27)

>  <Rbt.Parameter_File>
/export/apps/rDock/src/rDock_2013.1_src/data/scripts/dock_solv.prm

>  <Rbt.Receptor>
prm/pocket_docking_3.prm

>  <SCORE>
-3.67817

>  <SCORE.INTER>
-2.19271

>  <SCORE.INTER.CONST>
1

>  <SCORE.INTER.POLAR>
0

>  <SCORE.INTER.ROT>
6

>  <SCORE.INTER.SOLV>
16.2323

>  <SCORE.INTER.VDW>
-14.4726

>  <SCORE.INTER.norm>
-0.0592624

>  <SCORE.INTRA>
-1.48546

>  <SCORE.INTRA.DIHEDRAL>
-4.92866

>  <SCORE.INTRA.DIHEDRAL.0>
11.3972

>  <SCORE.INTRA.POLAR>
0

>  <SCORE.INTRA.POLAR.0>
0

>  <SCORE.INTRA.REPUL>
0

>  <SCORE.INTRA.REPUL.0>
0

>  <SCORE.INTRA.SOLV>
-0.605046

>  <SCORE.INTRA.SOLV.lig_0>
-92.3891

>  <SCORE.INTRA.VDW>
1.28139

>  <SCORE.INTRA.VDW.0>
-2.90606

>  <SCORE.INTRA.norm>
-0.0401476

>  <SCORE.RESTR>
0

>  <SCORE.RESTR.CAVITY>
0

>  <SCORE.RESTR.norm>
0

>  <SCORE.SYSTEM>
0

>  <SCORE.SYSTEM.CONST>
0

>  <SCORE.SYSTEM.DIHEDRAL>
0

>  <SCORE.SYSTEM.SOLV>
0

>  <SCORE.SYSTEM.norm>
0

>  <SCORE.heavy>
37

>  <SCORE.norm>
-0.09941

>  <RMSD>
10.099

$$$$
ligand
 OpenBabel02271912133D
libRbt.so/2013.1/901 2013/11/27
 37 40  0  0  0  0  0  0  0  0999 V2000
   -6.0716   31.3347   66.8436 C   0  0  1  0  0  0  0  0  0  0  0  0
   -4.9759   31.9256   65.9115 C   0  0  1  0  0  0  0  0  0  0  0  0
   -3.9576   30.8576   65.4689 C   0  0  0  0  0  0  0  0  0  0  0  0
   -3.3208   30.2098   66.7378 C   0  0  1  0  0  0  0  0  0  0  0  0
   -4.4238   29.5725   67.6437 C   0  0  1  0  0  0  0  0  0  0  0  0
   -3.7515   28.9188   68.9342 C   0  0  1  0  0  0  0  0  0  0  0  0
   -2.7319   27.8343   68.4781 C   0  0  1  0  0  0  0  0  0  0  0  0
   -1.6793   28.5164   67.5532 C   0  0  2  0  0  0  0  0  0  0  0  0
   -1.9024   25.7122   69.7106 C   0  0  0  0  0  0  0  0  0  0  0  0
   -5.5890   32.5742   64.7331 N   0  0  0  0  0  0  0  0  0  0  0  0
   -2.0622   27.2009   69.6753 N   0  0  0  0  0  0  0  0  0  0  0  0
   -6.9542   30.4284   66.1537 O   0  0  0  0  0  0  0  0  0  0  0  0
   -5.4018   30.6498   67.9800 O   0  0  0  0  0  0  0  0  0  0  0  0
   -2.3138   29.1534   66.3918 O   0  0  0  0  0  0  0  0  0  0  0  0
   -3.0463   29.9144   69.6642 O   0  0  0  0  0  0  0  0  0  0  0  0
   -0.7354   27.5547   67.0957 O   0  0  0  0  0  0  0  0  0  0  0  0
    0.3063   27.2495   68.0553 C   0  0  2  0  0  0  0  0  0  0  0  0
    1.4185   28.3241   68.0971 C   0  0  1  0  0  0  0  0  0  0  0  0
    2.2170   28.3513   66.7539 C   0  0  2  0  0  0  0  0  0  0  0  0
    2.8510   26.9934   66.5305 C   0  0  1  0  0  0  0  0  0  0  0  0
    1.7268   25.9168   66.4603 C   0  0  1  0  0  0  0  0  0  0  0  0
    2.2874   24.5104   66.2581 C   0  0  0  0  0  0  0  0  0  0  0  0
    3.6292   27.0177   65.2685 N   0  0  0  0  0  0  0  0  0  0  0  0
    0.9379   25.9357   67.7305 O   0  0  0  0  0  0  0  0  0  0  0  0
    0.7850   29.5900   68.3871 O   0  0  0  0  0  0  0  0  0  0  0  0
    3.2477   29.3393   66.8217 O   0  0  0  0  0  0  0  0  0  0  0  0
    1.2231   23.5988   66.1335 O   0  0  0  0  0  0  0  0  0  0  0  0
   -8.1684   29.7993   66.8019 C   0  0  1  0  0  0  0  0  0  0  0  0
   -7.6822   28.7032   67.7893 C   0  0  1  0  0  0  0  0  0  0  0  0
   -8.9028   28.0259   68.4772 C   0  0  2  0  0  0  0  0  0  0  0  0
   -9.7066   29.0971   69.2547 C   0  0  1  0  0  0  0  0  0  0  0  0
  -10.2189   30.2154   68.2778 C   0  0  0  0  0  0  0  0  0  0  0  0
   -8.9934   30.8605   67.5963 C   0  0  2  0  0  0  0  0  0  0  0  0
  -10.8690   28.4616   69.9206 N   0  0  0  0  0  0  0  0  0  0  0  0
   -9.4801   31.9022   66.6853 N   0  0  0  0  0  0  0  0  0  0  0  0
   -6.9300   27.7040   67.0659 O   0  0  0  0  0  0  0  0  0  0  0  0
   -8.4239   27.0079   69.3840 O   0  0  0  0  0  0  0  0  0  0  0  0
  1  2  1  0  0  0  0
  1 12  1  6  0  0  0
  1 13  1  0  0  0  0
  2  3  1  0  0  0  0
  2 10  1  6  0  0  0
  4  3  1  6  0  0  0
  4  5  1  0  0  0  0
  4 14  1  0  0  0  0
  5  6  1  0  0  0  0
  5 13  1  1  0  0  0
  6  7  1  0  0  0  0
  6 15  1  6  0  0  0
  7  8  1  0  0  0  0
  7 11  1  1  0  0  0
  8 14  1  0  0  0  0
  8 16  1  6  0  0  0
  9 11  1  0  0  0  0
 17 16  1  6  0  0  0
 17 18  1  0  0  0  0
 17 24  1  0  0  0  0
 18 19  1  0  0  0  0
 18 25  1  6  0  0  0
 19 20  1  0  0  0  0
 19 26  1  1  0  0  0
 20 21  1  0  0  0  0
 20 23  1  6  0  0  0
 21 22  1  1  0  0  0
 21 24  1  0  0  0  0
 22 27  1  0  0  0  0
 28 12  1  1  0  0  0
 28 29  1  0  0  0  0
 28 33  1  0  0  0  0
 29 30  1  0  0  0  0
 29 36  1  6  0  0  0
 30 31  1  0  0  0  0
 30 37  1  1  0  0  0
 31 32  1  0  0  0  0
 31 34  1  6  0  0  0
 32 33  1  0  0  0  0
 33 35  1  6  0  0  0
M  END
>  <CHROM.1>
-175.14231089,135.62377615,-80.67983134,-73.57809130,-79.10561709,-176.94604828
-3.40198352,28.64371247,67.48391697,-2.92516675,-0.19922367,2.68433334

>  <Name>
ligand

>  <RI>
0

>  <Rbt.Current_Directory>
/home/itssahil/PROJECTS/Mol_Feturizer/Test_systems_manuscript/rnas/2g5k

>  <Rbt.Executable>
rbdock ($Id: //depot/dev/client3/rdock/2013.1/src/exe/rbdock.cxx#4 $)

>  <Rbt.Library>
libRbt.so (2013.1, Build901 2013/11/27)

>  <Rbt.Parameter_File>
/export/apps/rDock/src/rDock_2013.1_src/data/scripts/dock_solv.prm

>  <Rbt.Receptor>
prm/pocket_docking_5.prm

>  <SCORE>
-9.88077

>  <SCORE.INTER>
-6.94904

>  <SCORE.INTER.CONST>
1

>  <SCORE.INTER.POLAR>
0

>  <SCORE.INTER.ROT>
6

>  <SCORE.INTER.SOLV>
14.1376

>  <SCORE.INTER.VDW>
-16.9452

>  <SCORE.INTER.norm>
-0.187812

>  <SCORE.INTRA>
-2.93173

>  <SCORE.INTRA.DIHEDRAL>
-5.77263

>  <SCORE.INTRA.DIHEDRAL.0>
11.3972

>  <SCORE.INTRA.POLAR>
0

>  <SCORE.INTRA.POLAR.0>
0

>  <SCORE.INTRA.REPUL>
0

>  <SCORE.INTRA.REPUL.0>
0

>  <SCORE.INTRA.SOLV>
0.162773

>  <SCORE.INTRA.SOLV.lig_0>
-92.3891

>  <SCORE.INTRA.VDW>
-0.126797

>  <SCORE.INTRA.VDW.0>
-2.90606

>  <SCORE.INTRA.norm>
-0.0792358

>  <SCORE.RESTR>
0

>  <SCORE.RESTR.CAVITY>
0

>  <SCORE.RESTR.norm>
0

>  <SCORE.SYSTEM>
0

>  <SCORE.SYSTEM.CONST>
0

>  <SCORE.SYSTEM.DIHEDRAL>
0

>  <SCORE.SYSTEM.SOLV>
0

>  <SCORE.SYSTEM.norm>
0

>  <SCORE.heavy>
37

>  <SCORE.norm>
-0.267048

>  <RMSD>
10.103

$$$$
ligand
 OpenBabel02271912133D
libRbt.so/2013.1/901 2013/11/27
 37 40  0  0  0  0  0  0  0  0999 V2000
   -6.9731   31.0862   66.1331 C   0  0  1  0  0  0  0  0  0  0  0  0
   -5.8561   31.8576   65.3744 C   0  0  1  0  0  0  0  0  0  0  0  0
   -4.9202   30.9071   64.6035 C   0  0  0  0  0  0  0  0  0  0  0  0
   -4.3070   29.8794   65.6050 C   0  0  1  0  0  0  0  0  0  0  0  0
   -5.4350   29.0718   66.3255 C   0  0  1  0  0  0  0  0  0  0  0  0
   -4.7864   28.0300   67.3446 C   0  0  1  0  0  0  0  0  0  0  0  0
   -3.8505   27.0677   66.5560 C   0  0  1  0  0  0  0  0  0  0  0  0
   -2.7702   27.9266   65.8322 C   0  0  2  0  0  0  0  0  0  0  0  0
   -2.2104   26.5660   68.4974 C   0  0  0  0  0  0  0  0  0  0  0  0
   -6.4440   32.8582   64.4588 N   0  0  0  0  0  0  0  0  0  0  0  0
   -3.2048   26.0727   67.4919 N   0  0  0  0  0  0  0  0  0  0  0  0
   -7.9268   30.4761   65.2418 O   0  0  0  0  0  0  0  0  0  0  0  0
   -6.3318   30.0599   66.9960 O   0  0  0  0  0  0  0  0  0  0  0  0
   -3.3800   28.9125   64.9303 O   0  0  0  0  0  0  0  0  0  0  0  0
   -4.0030   28.7242   68.3067 O   0  0  0  0  0  0  0  0  0  0  0  0
   -1.9016   27.0863   65.0808 O   0  0  0  0  0  0  0  0  0  0  0  0
   -0.5922   27.6579   64.8404 C   0  0  2  0  0  0  0  0  0  0  0  0
    0.1736   26.9472   63.6993 C   0  0  1  0  0  0  0  0  0  0  0  0
    0.5322   25.4796   64.0992 C   0  0  2  0  0  0  0  0  0  0  0  0
    1.4051   25.5061   65.3374 C   0  0  1  0  0  0  0  0  0  0  0  0
    0.6208   26.1968   66.4931 C   0  0  1  0  0  0  0  0  0  0  0  0
    1.4441   26.2837   67.7768 C   0  0  0  0  0  0  0  0  0  0  0  0
    1.7682   24.1176   65.7105 N   0  0  0  0  0  0  0  0  0  0  0  0
    0.2390   27.5819   66.0789 O   0  0  0  0  0  0  0  0  0  0  0  0
   -0.6568   27.0091   62.5183 O   0  0  0  0  0  0  0  0  0  0  0  0
    1.2518   24.8490   63.0373 O   0  0  0  0  0  0  0  0  0  0  0  0
    2.6264   27.0030   67.5234 O   0  0  0  0  0  0  0  0  0  0  0  0
   -8.9795   29.4911   65.7020 C   0  0  1  0  0  0  0  0  0  0  0  0
  -10.0755   30.2737   66.4761 C   0  0  1  0  0  0  0  0  0  0  0  0
  -11.1793   29.2952   66.9722 C   0  0  2  0  0  0  0  0  0  0  0  0
  -11.8184   28.5892   65.7510 C   0  0  1  0  0  0  0  0  0  0  0  0
  -10.7326   27.7817   64.9535 C   0  0  0  0  0  0  0  0  0  0  0  0
   -9.6419   28.7690   64.4865 C   0  0  2  0  0  0  0  0  0  0  0  0
  -12.8773   27.6590   66.2113 N   0  0  0  0  0  0  0  0  0  0  0  0
   -8.6316   28.0073   63.7441 N   0  0  0  0  0  0  0  0  0  0  0  0
   -9.4806   30.9349   67.6146 O   0  0  0  0  0  0  0  0  0  0  0  0
  -12.1813   30.0463   67.6931 O   0  0  0  0  0  0  0  0  0  0  0  0
  1  2  1  0  0  0  0
  1 12  1  6  0  0  0
  1 13  1  0  0  0  0
  2  3  1  0  0  0  0
  2 10  1  6  0  0  0
  4  3  1  6  0  0  0
  4  5  1  0  0  0  0
  4 14  1  0  0  0  0
  5  6  1  0  0  0  0
  5 13  1  1  0  0  0
  6  7  1  0  0  0  0
  6 15  1  1  0  0  0
  7  8  1  0  0  0  0
  7 11  1  1  0  0  0
  8 14  1  0  0  0  0
  8 16  1  6  0  0  0
  9 11  1  0  0  0  0
 17 16  1  1  0  0  0
 17 18  1  0  0  0  0
 17 24  1  0  0  0  0
 18 19  1  0  0  0  0
 18 25  1  6  0  0  0
 19 20  1  0  0  0  0
 19 26  1  6  0  0  0
 20 21  1  0  0  0  0
 20 23  1  1  0  0  0
 21 22  1  1  0  0  0
 21 24  1  0  0  0  0
 22 27  1  0  0  0  0
 28 12  1  6  0  0  0
 28 29  1  0  0  0  0
 28 33  1  0  0  0  0
 29 30  1  0  0  0  0
 29 36  1  1  0  0  0
 30 31  1  0  0  0  0
 30 37  1  6  0  0  0
 31 32  1  0  0  0  0
 31 34  1  1  0  0  0
 32 33  1  0  0  0  0
 33 35  1  1  0  0  0
M  END
>  <CHROM.1>
169.94428487,-67.52558084,-155.59816789,73.39944996,-162.94667921,58.64920661
-4.57531624,28.27031134,65.83683877,-2.87562971,-0.16793307,2.75731659

>  <Name>
ligand

>  <RI>
0

>  <Rbt.Current_Directory>
/home/itssahil/PROJECTS/Mol_Feturizer/Test_systems_manuscript/rnas/2g5k

>  <Rbt.Executable>
rbdock ($Id: //depot/dev/client3/rdock/2013.1/src/exe/rbdock.cxx#4 $)

>  <Rbt.Library>
libRbt.so (2013.1, Build901 2013/11/27)

>  <Rbt.Parameter_File>
/export/apps/rDock/src/rDock_2013.1_src/data/scripts/dock_solv.prm

>  <Rbt.Receptor>
prm/pocket_docking_4.prm

>  <SCORE>
-3.97661

>  <SCORE.INTER>
-2.00496

>  <SCORE.INTER.CONST>
1

>  <SCORE.INTER.POLAR>
0

>  <SCORE.INTER.ROT>
6

>  <SCORE.INTER.SOLV>
14.4935

>  <SCORE.INTER.VDW>
-13.7678

>  <SCORE.INTER.norm>
-0.0541881

>  <SCORE.INTRA>
-1.97165

>  <SCORE.INTRA.DIHEDRAL>
-6.08602

>  <SCORE.INTRA.DIHEDRAL.0>
11.3972

>  <SCORE.INTRA.POLAR>
0

>  <SCORE.INTRA.POLAR.0>
0

>  <SCORE.INTRA.REPUL>
0

>  <SCORE.INTRA.REPUL.0>
0

>  <SCORE.INTRA.SOLV>
-0.494737

>  <SCORE.INTRA.SOLV.lig_0>
-92.3891

>  <SCORE.INTRA.VDW>
1.31873

>  <SCORE.INTRA.VDW.0>
-2.90606

>  <SCORE.INTRA.norm>
-0.0532879

>  <SCORE.RESTR>
0

>  <SCORE.RESTR.CAVITY>
0

>  <SCORE.RESTR.norm>
0

>  <SCORE.SYSTEM>
0

>  <SCORE.SYSTEM.CONST>
0

>  <SCORE.SYSTEM.DIHEDRAL>
0

>  <SCORE.SYSTEM.SOLV>
0

>  <SCORE.SYSTEM.norm>
0

>  <SCORE.heavy>
37

>  <SCORE.norm>
-0.107476

>  <RMSD>
10.106

$$$$
ligand
 OpenBabel02271912133D
libRbt.so/2013.1/901 2013/11/27
 37 40  0  0  0  0  0  0  0  0999 V2000
   -9.5183   28.1317   66.6665 C   0  0  1  0  0  0  0  0  0  0  0  0
   -8.9208   26.7268   66.9627 C   0  0  1  0  0  0  0  0  0  0  0  0
   -7.6799   26.8076   67.8722 C   0  0  0  0  0  0  0  0  0  0  0  0
   -6.6197   27.7342   67.1994 C   0  0  1  0  0  0  0  0  0  0  0  0
   -7.2114   29.1599   66.9525 C   0  0  1  0  0  0  0  0  0  0  0  0
   -6.1126   30.0885   66.2632 C   0  0  1  0  0  0  0  0  0  0  0  0
   -4.8669   30.1727   67.1932 C   0  0  1  0  0  0  0  0  0  0  0  0
   -4.3414   28.7252   67.4325 C   0  0  2  0  0  0  0  0  0  0  0  0
   -3.9142   32.5238   66.6686 C   0  0  0  0  0  0  0  0  0  0  0  0
   -9.9427   25.8419   67.5610 N   0  0  0  0  0  0  0  0  0  0  0  0
   -3.7958   31.0343   66.5661 N   0  0  0  0  0  0  0  0  0  0  0  0
  -10.1102   28.7376   67.8322 O   0  0  0  0  0  0  0  0  0  0  0  0
   -8.4392   28.9947   66.1187 O   0  0  0  0  0  0  0  0  0  0  0  0
   -5.3752   27.8671   68.0260 O   0  0  0  0  0  0  0  0  0  0  0  0
   -5.7076   29.5156   65.0267 O   0  0  0  0  0  0  0  0  0  0  0  0
   -3.2107   28.7530   68.2961 O   0  0  0  0  0  0  0  0  0  0  0  0
   -2.5765   27.4630   68.4774 C   0  0  2  0  0  0  0  0  0  0  0  0
   -1.3378   27.5269   69.4020 C   0  0  1  0  0  0  0  0  0  0  0  0
   -0.1916   28.3581   68.7403 C   0  0  2  0  0  0  0  0  0  0  0  0
    0.2018   27.7007   67.4331 C   0  0  1  0  0  0  0  0  0  0  0  0
   -1.0403   27.6633   66.4931 C   0  0  1  0  0  0  0  0  0  0  0  0
   -0.7313   26.9923   65.1561 C   0  0  0  0  0  0  0  0  0  0  0  0
    1.3047   28.4713   66.8096 N   0  0  0  0  0  0  0  0  0  0  0  0
   -2.1471   26.9095   67.1585 O   0  0  0  0  0  0  0  0  0  0  0  0
   -1.7682   28.0878   70.6622 O   0  0  0  0  0  0  0  0  0  0  0  0
    0.9464   28.3900   69.6047 O   0  0  0  0  0  0  0  0  0  0  0  0
   -0.2614   25.6867   65.3885 O   0  0  0  0  0  0  0  0  0  0  0  0
  -10.8116   30.0782   67.8039 C   0  0  1  0  0  0  0  0  0  0  0  0
   -9.7629   31.1710   67.4592 C   0  0  1  0  0  0  0  0  0  0  0  0
  -10.4430   32.5703   67.4234 C   0  0  2  0  0  0  0  0  0  0  0  0
  -11.5546   32.5673   66.3452 C   0  0  1  0  0  0  0  0  0  0  0  0
  -12.6353   31.4758   66.6738 C   0  0  0  0  0  0  0  0  0  0  0  0
  -11.9352   30.1009   66.7200 C   0  0  2  0  0  0  0  0  0  0  0  0
  -12.2055   33.8987   66.2971 N   0  0  0  0  0  0  0  0  0  0  0  0
  -12.9503   29.0878   67.0286 N   0  0  0  0  0  0  0  0  0  0  0  0
   -8.7237   31.1738   68.4630 O   0  0  0  0  0  0  0  0  0  0  0  0
   -9.4463   33.5675   67.1074 O   0  0  0  0  0  0  0  0  0  0  0  0
  1  2  1  0  0  0  0
  1 12  1  1  0  0  0
  1 13  1  0  0  0  0
  2  3  1  0  0  0  0
  2 10  1  1  0  0  0
  4  3  1  1  0  0  0
  4  5  1  0  0  0  0
  4 14  1  0  0  0  0
  5  6  1  0  0  0  0
  5 13  1  6  0  0  0
  6  7  1  0  0  0  0
  6 15  1  6  0  0  0
  7  8  1  0  0  0  0
  7 11  1  6  0  0  0
  8 14  1  0  0  0  0
  8 16  1  1  0  0  0
  9 11  1  0  0  0  0
 17 16  1  6  0  0  0
 17 18  1  0  0  0  0
 17 24  1  0  0  0  0
 18 19  1  0  0  0  0
 18 25  1  1  0  0  0
 19 20  1  0  0  0  0
 19 26  1  1  0  0  0
 20 21  1  0  0  0  0
 20 23  1  6  0  0  0
 21 22  1  6  0  0  0
 21 24  1  0  0  0  0
 22 27  1  0  0  0  0
 28 12  1  6  0  0  0
 28 29  1  0  0  0  0
 28 33  1  0  0  0  0
 29 30  1  0  0  0  0
 29 36  1  1  0  0  0
 30 31  1  0  0  0  0
 30 37  1  6  0  0  0
 31 32  1  0  0  0  0
 31 34  1  1  0  0  0
 32 33  1  0  0  0  0
 33 35  1  1  0  0  0
M  END
>  <CHROM.1>
-177.39794997,80.33723646,-174.56436049,-65.17881599,179.07726714,57.59121617
-5.99089641,29.17672767,67.28812701,2.85479804,-0.05441532,-0.03546581

>  <Name>
ligand

>  <RI>
0

>  <Rbt.Current_Directory>
/home/itssahil/PROJECTS/Mol_Feturizer/Test_systems_manuscript/rnas/2g5k

>  <Rbt.Executable>
rbdock ($Id: //depot/dev/client3/rdock/2013.1/src/exe/rbdock.cxx#4 $)

>  <Rbt.Library>
libRbt.so (2013.1, Build901 2013/11/27)

>  <Rbt.Parameter_File>
/export/apps/rDock/src/rDock_2013.1_src/data/scripts/dock_solv.prm

>  <Rbt.Receptor>
prm/pocket_docking_4.prm

>  <SCORE>
-8.59957

>  <SCORE.INTER>
-3.01466

>  <SCORE.INTER.CONST>
1

>  <SCORE.INTER.POLAR>
0

>  <SCORE.INTER.ROT>
6

>  <SCORE.INTER.SOLV>
8.89462

>  <SCORE.INTER.VDW>
-12.5746

>  <SCORE.INTER.norm>
-0.0814774

>  <SCORE.INTRA>
-5.58716

>  <SCORE.INTRA.DIHEDRAL>
-10.7168

>  <SCORE.INTRA.DIHEDRAL.0>
11.3972

>  <SCORE.INTRA.POLAR>
0

>  <SCORE.INTRA.POLAR.0>
0

>  <SCORE.INTRA.REPUL>
0

>  <SCORE.INTRA.REPUL.0>
0

>  <SCORE.INTRA.SOLV>
-0.23599

>  <SCORE.INTRA.SOLV.lig_0>
-92.3891

>  <SCORE.INTRA.VDW>
-0.110738

>  <SCORE.INTRA.VDW.0>
-2.90606

>  <SCORE.INTRA.norm>
-0.151004

>  <SCORE.RESTR>
0.00225271

>  <SCORE.RESTR.CAVITY>
0.00225271

>  <SCORE.RESTR.norm>
6.08839e-05

>  <SCORE.SYSTEM>
0

>  <SCORE.SYSTEM.CONST>
0

>  <SCORE.SYSTEM.DIHEDRAL>
0

>  <SCORE.SYSTEM.SOLV>
0

>  <SCORE.SYSTEM.norm>
0

>  <SCORE.heavy>
37

>  <SCORE.norm>
-0.232421

>  <RMSD>
10.116

$$$$
ligand
 OpenBabel02271912133D
libRbt.so/2013.1/901 2013/11/27
 37 40  0  0  0  0  0  0  0  0999 V2000
   -6.8332   28.7910   64.9413 C   0  0  1  0  0  0  0  0  0  0  0  0
   -6.6279   27.4075   64.2614 C   0  0  1  0  0  0  0  0  0  0  0  0
   -5.3238   26.7273   64.7199 C   0  0  0  0  0  0  0  0  0  0  0  0
   -4.1246   27.6797   64.4201 C   0  0  1  0  0  0  0  0  0  0  0  0
   -4.3132   29.0495   65.1491 C   0  0  1  0  0  0  0  0  0  0  0  0
   -3.0783   30.0069   64.8275 C   0  0  1  0  0  0  0  0  0  0  0  0
   -1.7665   29.3164   65.3029 C   0  0  1  0  0  0  0  0  0  0  0  0
   -1.6480   27.9448   64.5726 C   0  0  2  0  0  0  0  0  0  0  0  0
   -0.0771   30.2768   63.5901 C   0  0  0  0  0  0  0  0  0  0  0  0
   -7.7869   26.5256   64.5148 N   0  0  0  0  0  0  0  0  0  0  0  0
   -0.5702   30.1886   65.0015 N   0  0  0  0  0  0  0  0  0  0  0  0
   -7.1006   28.6791   66.3527 O   0  0  0  0  0  0  0  0  0  0  0  0
   -5.6204   29.6163   64.7019 O   0  0  0  0  0  0  0  0  0  0  0  0
   -2.8113   27.0889   64.8397 O   0  0  0  0  0  0  0  0  0  0  0  0
   -2.9875   30.2178   63.4245 O   0  0  0  0  0  0  0  0  0  0  0  0
   -0.4688   27.2682   64.9932 O   0  0  0  0  0  0  0  0  0  0  0  0
   -0.1318   26.1144   64.1842 C   0  0  2  0  0  0  0  0  0  0  0  0
    0.5723   24.9987   64.9923 C   0  0  1  0  0  0  0  0  0  0  0  0
    1.9796   25.4697   65.4821 C   0  0  2  0  0  0  0  0  0  0  0  0
    2.8295   25.8173   64.2767 C   0  0  1  0  0  0  0  0  0  0  0  0
    2.1323   26.9607   63.4803 C   0  0  1  0  0  0  0  0  0  0  0  0
    2.9185   27.3559   62.2317 C   0  0  0  0  0  0  0  0  0  0  0  0
    4.1745   26.2441   64.7323 N   0  0  0  0  0  0  0  0  0  0  0  0
    0.7672   26.5166   63.0615 O   0  0  0  0  0  0  0  0  0  0  0  0
   -0.3010   24.6418   66.0869 O   0  0  0  0  0  0  0  0  0  0  0  0
    2.6167   24.4186   66.2117 O   0  0  0  0  0  0  0  0  0  0  0  0
    3.0539   26.2344   61.3930 O   0  0  0  0  0  0  0  0  0  0  0  0
   -8.4629   28.3334   66.9136 C   0  0  1  0  0  0  0  0  0  0  0  0
   -8.2663   27.6976   68.3171 C   0  0  1  0  0  0  0  0  0  0  0  0
   -9.6465   27.3222   68.9304 C   0  0  2  0  0  0  0  0  0  0  0  0
  -10.5085   28.6019   69.0627 C   0  0  1  0  0  0  0  0  0  0  0  0
  -10.7310   29.2620   67.6548 C   0  0  0  0  0  0  0  0  0  0  0  0
   -9.3497   29.6100   67.0604 C   0  0  2  0  0  0  0  0  0  0  0  0
  -11.8243   28.2574   69.6530 N   0  0  0  0  0  0  0  0  0  0  0  0
   -9.5660   30.2243   65.7459 N   0  0  0  0  0  0  0  0  0  0  0  0
   -7.4604   26.5047   68.1960 O   0  0  0  0  0  0  0  0  0  0  0  0
   -9.4353   26.7282   70.2306 O   0  0  0  0  0  0  0  0  0  0  0  0
  1  2  1  0  0  0  0
  1 12  1  1  0  0  0
  1 13  1  0  0  0  0
  2  3  1  0  0  0  0
  2 10  1  1  0  0  0
  4  3  1  1  0  0  0
  4  5  1  0  0  0  0
  4 14  1  0  0  0  0
  5  6  1  0  0  0  0
  5 13  1  6  0  0  0
  6  7  1  0  0  0  0
  6 15  1  6  0  0  0
  7  8  1  0  0  0  0
  7 11  1  6  0  0  0
  8 14  1  0  0  0  0
  8 16  1  1  0  0  0
  9 11  1  0  0  0  0
 17 16  1  1  0  0  0
 17 18  1  0  0  0  0
 17 24  1  0  0  0  0
 18 19  1  0  0  0  0
 18 25  1  1  0  0  0
 19 20  1  0  0  0  0
 19 26  1  6  0  0  0
 20 21  1  0  0  0  0
 20 23  1  1  0  0  0
 21 22  1  6  0  0  0
 21 24  1  0  0  0  0
 22 27  1  0  0  0  0
 28 12  1  1  0  0  0
 28 29  1  0  0  0  0
 28 33  1  0  0  0  0
 29 30  1  0  0  0  0
 29 36  1  6  0  0  0
 30 31  1  0  0  0  0
 30 37  1  1  0  0  0
 31 32  1  0  0  0  0
 31 34  1  6  0  0  0
 32 33  1  0  0  0  0
 33 35  1  6  0  0  0
M  END
>  <CHROM.1>
-80.11935966,-75.49178806,-168.42680804,155.23910567,-148.32182058,59.15936622
-3.61319859,27.65745168,65.48758789,3.05264012,-0.34192254,2.44218719

>  <Name>
ligand

>  <RI>
0

>  <Rbt.Current_Directory>
/home/itssahil/PROJECTS/Mol_Feturizer/Test_systems_manuscript/rnas/2g5k

>  <Rbt.Executable>
rbdock ($Id: //depot/dev/client3/rdock/2013.1/src/exe/rbdock.cxx#4 $)

>  <Rbt.Library>
libRbt.so (2013.1, Build901 2013/11/27)

>  <Rbt.Parameter_File>
/export/apps/rDock/src/rDock_2013.1_src/data/scripts/dock_solv.prm

>  <Rbt.Receptor>
prm/pocket_docking_5.prm

>  <SCORE>
-4.68669

>  <SCORE.INTER>
-5.54707

>  <SCORE.INTER.CONST>
1

>  <SCORE.INTER.POLAR>
0

>  <SCORE.INTER.ROT>
6

>  <SCORE.INTER.SOLV>
11.3747

>  <SCORE.INTER.VDW>
-15.0896

>  <SCORE.INTER.norm>
-0.149921

>  <SCORE.INTRA>
0.860379

>  <SCORE.INTRA.DIHEDRAL>
-2.18178

>  <SCORE.INTRA.DIHEDRAL.0>
11.3972

>  <SCORE.INTRA.POLAR>
0

>  <SCORE.INTRA.POLAR.0>
0

>  <SCORE.INTRA.REPUL>
0

>  <SCORE.INTRA.REPUL.0>
0

>  <SCORE.INTRA.SOLV>
1.69533

>  <SCORE.INTRA.SOLV.lig_0>
-92.3891

>  <SCORE.INTRA.VDW>
1.10361

>  <SCORE.INTRA.VDW.0>
-2.90606

>  <SCORE.INTRA.norm>
0.0232535

>  <SCORE.RESTR>
0

>  <SCORE.RESTR.CAVITY>
0

>  <SCORE.RESTR.norm>
0

>  <SCORE.SYSTEM>
0

>  <SCORE.SYSTEM.CONST>
0

>  <SCORE.SYSTEM.DIHEDRAL>
0

>  <SCORE.SYSTEM.SOLV>
0

>  <SCORE.SYSTEM.norm>
0

>  <SCORE.heavy>
37

>  <SCORE.norm>
-0.126667

>  <RMSD>
10.123

$$$$
ligand
 OpenBabel02271912133D
libRbt.so/2013.1/901 2013/11/27
 37 40  0  0  0  0  0  0  0  0999 V2000
   -7.2082   31.7061   68.2982 C   0  0  1  0  0  0  0  0  0  0  0  0
   -6.6095   32.7855   67.3521 C   0  0  1  0  0  0  0  0  0  0  0  0
   -5.6751   32.1701   66.2930 C   0  0  0  0  0  0  0  0  0  0  0  0
   -4.5449   31.3744   67.0173 C   0  0  1  0  0  0  0  0  0  0  0  0
   -5.1530   30.2574   67.9262 C   0  0  1  0  0  0  0  0  0  0  0  0
   -3.9815   29.4589   68.6574 C   0  0  1  0  0  0  0  0  0  0  0  0
   -3.0483   28.8324   67.5803 C   0  0  1  0  0  0  0  0  0  0  0  0
   -2.4999   29.9837   66.6845 C   0  0  2  0  0  0  0  0  0  0  0  0
   -2.2383   26.9122   69.1188 C   0  0  0  0  0  0  0  0  0  0  0  0
   -7.6858   33.5628   66.7019 N   0  0  0  0  0  0  0  0  0  0  0  0
   -1.9152   28.0780   68.2359 N   0  0  0  0  0  0  0  0  0  0  0  0
   -8.1411   30.8378   67.6259 O   0  0  0  0  0  0  0  0  0  0  0  0
   -6.0893   30.9209   68.8819 O   0  0  0  0  0  0  0  0  0  0  0  0
   -3.5883   30.7402   66.0518 O   0  0  0  0  0  0  0  0  0  0  0  0
   -3.2109   30.3548   69.4478 O   0  0  0  0  0  0  0  0  0  0  0  0
   -1.6545   29.4526   65.6704 O   0  0  0  0  0  0  0  0  0  0  0  0
   -1.0434   30.4594   64.8265 C   0  0  2  0  0  0  0  0  0  0  0  0
   -0.3767   29.8620   63.5647 C   0  0  1  0  0  0  0  0  0  0  0  0
    0.8523   28.9770   63.9504 C   0  0  2  0  0  0  0  0  0  0  0  0
    1.8642   29.8331   64.6848 C   0  0  1  0  0  0  0  0  0  0  0  0
    1.1990   30.4104   65.9700 C   0  0  1  0  0  0  0  0  0  0  0  0
    2.1512   31.3072   66.7588 C   0  0  0  0  0  0  0  0  0  0  0  0
    3.0438   29.0055   65.0348 N   0  0  0  0  0  0  0  0  0  0  0  0
   -0.0050   31.2124   65.5914 O   0  0  0  0  0  0  0  0  0  0  0  0
   -1.3899   29.1173   62.8527 O   0  0  0  0  0  0  0  0  0  0  0  0
    1.4606   28.4494   62.7695 O   0  0  0  0  0  0  0  0  0  0  0  0
    1.4899   31.7988   67.8991 O   0  0  0  0  0  0  0  0  0  0  0  0
   -8.8128   29.6615   68.3005 C   0  0  1  0  0  0  0  0  0  0  0  0
   -9.6833   30.2001   69.4688 C   0  0  1  0  0  0  0  0  0  0  0  0
  -10.3913   29.0194   70.1944 C   0  0  2  0  0  0  0  0  0  0  0  0
  -11.2949   28.2706   69.1839 C   0  0  1  0  0  0  0  0  0  0  0  0
  -10.4381   27.7068   67.9943 C   0  0  0  0  0  0  0  0  0  0  0  0
   -9.7337   28.8926   67.3012 C   0  0  2  0  0  0  0  0  0  0  0  0
  -11.9806   27.1470   69.8663 N   0  0  0  0  0  0  0  0  0  0  0  0
   -8.9351   28.3578   66.1930 N   0  0  0  0  0  0  0  0  0  0  0  0
   -8.8423   30.9010   70.4115 O   0  0  0  0  0  0  0  0  0  0  0  0
  -11.1880   29.5463   71.2787 O   0  0  0  0  0  0  0  0  0  0  0  0
  1  2  1  0  0  0  0
  1 12  1  6  0  0  0
  1 13  1  0  0  0  0
  2  3  1  0  0  0  0
  2 10  1  6  0  0  0
  4  3  1  6  0  0  0
  4  5  1  0  0  0  0
  4 14  1  0  0  0  0
  5  6  1  0  0  0  0
  5 13  1  1  0  0  0
  6  7  1  0  0  0  0
  6 15  1  1  0  0  0
  7  8  1  0  0  0  0
  7 11  1  1  0  0  0
  8 14  1  0  0  0  0
  8 16  1  6  0  0  0
  9 11  1  0  0  0  0
 17 16  1  1  0  0  0
 17 18  1  0  0  0  0
 17 24  1  0  0  0  0
 18 19  1  0  0  0  0
 18 25  1  1  0  0  0
 19 20  1  0  0  0  0
 19 26  1  6  0  0  0
 20 21  1  0  0  0  0
 20 23  1  1  0  0  0
 21 22  1  6  0  0  0
 21 24  1  0  0  0  0
 22 27  1  0  0  0  0
 28 12  1  6  0  0  0
 28 29  1  0  0  0  0
 28 33  1  0  0  0  0
 29 30  1  0  0  0  0
 29 36  1  1  0  0  0
 30 31  1  0  0  0  0
 30 37  1  1  0  0  0
 31 32  1  0  0  0  0
 31 34  1  1  0  0  0
 32 33  1  0  0  0  0
 33 35  1  6  0  0  0
M  END
>  <CHROM.1>
176.85337607,61.38070817,-177.10083147,62.28736363,-167.96117862,179.73814236
-4.42431186,29.94160426,67.18339312,-2.95775990,-0.30258683,-2.49337529

>  <Name>
ligand

>  <RI>
0

>  <Rbt.Current_Directory>
/home/itssahil/PROJECTS/Mol_Feturizer/Test_systems_manuscript/rnas/2g5k

>  <Rbt.Executable>
rbdock ($Id: //depot/dev/client3/rdock/2013.1/src/exe/rbdock.cxx#4 $)

>  <Rbt.Library>
libRbt.so (2013.1, Build901 2013/11/27)

>  <Rbt.Parameter_File>
/export/apps/rDock/src/rDock_2013.1_src/data/scripts/dock_solv.prm

>  <Rbt.Receptor>
prm/pocket_docking_7.prm

>  <SCORE>
-14.6397

>  <SCORE.INTER>
-9.26502

>  <SCORE.INTER.CONST>
1

>  <SCORE.INTER.POLAR>
0

>  <SCORE.INTER.ROT>
6

>  <SCORE.INTER.SOLV>
11.3648

>  <SCORE.INTER.VDW>
-17.565

>  <SCORE.INTER.norm>
-0.250406

>  <SCORE.INTRA>
-5.39125

>  <SCORE.INTRA.DIHEDRAL>
-10.5507

>  <SCORE.INTRA.DIHEDRAL.0>
11.3972

>  <SCORE.INTRA.POLAR>
0

>  <SCORE.INTRA.POLAR.0>
0

>  <SCORE.INTRA.REPUL>
0

>  <SCORE.INTRA.REPUL.0>
0

>  <SCORE.INTRA.SOLV>
-2.0186

>  <SCORE.INTRA.SOLV.lig_0>
-92.3891

>  <SCORE.INTRA.VDW>
0.893396

>  <SCORE.INTRA.VDW.0>
-2.90606

>  <SCORE.INTRA.norm>
-0.145709

>  <SCORE.RESTR>
0.0166023

>  <SCORE.RESTR.CAVITY>
0.0166023

>  <SCORE.RESTR.norm>
0.000448711

>  <SCORE.SYSTEM>
0

>  <SCORE.SYSTEM.CONST>
0

>  <SCORE.SYSTEM.DIHEDRAL>
0

>  <SCORE.SYSTEM.SOLV>
0

>  <SCORE.SYSTEM.norm>
0

>  <SCORE.heavy>
37

>  <SCORE.norm>
-0.395667

>  <RMSD>
10.123

$$$$
ligand
 OpenBabel02271912133D
libRbt.so/2013.1/901 2013/11/27
 37 40  0  0  0  0  0  0  0  0999 V2000
   -6.0911   27.7272   66.0033 C   0  0  1  0  0  0  0  0  0  0  0  0
   -5.5182   26.3328   66.3854 C   0  0  1  0  0  0  0  0  0  0  0  0
   -4.0167   26.3990   66.7239 C   0  0  0  0  0  0  0  0  0  0  0  0
   -3.2501   27.0025   65.5060 C   0  0  1  0  0  0  0  0  0  0  0  0
   -3.7969   28.4258   65.1610 C   0  0  1  0  0  0  0  0  0  0  0  0
   -3.0014   29.0221   63.9135 C   0  0  1  0  0  0  0  0  0  0  0  0
   -1.4871   29.0948   64.2679 C   0  0  1  0  0  0  0  0  0  0  0  0
   -1.0055   27.6591   64.6357 C   0  0  2  0  0  0  0  0  0  0  0  0
    0.7137   30.0908   63.3326 C   0  0  0  0  0  0  0  0  0  0  0  0
   -6.2763   25.7493   67.5123 N   0  0  0  0  0  0  0  0  0  0  0  0
   -0.6967   29.6426   63.1025 N   0  0  0  0  0  0  0  0  0  0  0  0
   -6.1341   28.6329   67.1232 O   0  0  0  0  0  0  0  0  0  0  0  0
   -5.2621   28.2906   64.9058 O   0  0  0  0  0  0  0  0  0  0  0  0
   -1.7747   27.1024   65.7563 O   0  0  0  0  0  0  0  0  0  0  0  0
   -3.1556   28.1632   62.7911 O   0  0  0  0  0  0  0  0  0  0  0  0
    0.3735   27.6818   64.9865 O   0  0  0  0  0  0  0  0  0  0  0  0
    0.9394   26.3714   65.2350 C   0  0  2  0  0  0  0  0  0  0  0  0
    2.2386   26.4270   66.0732 C   0  0  1  0  0  0  0  0  0  0  0  0
    3.3862   27.1264   65.2756 C   0  0  2  0  0  0  0  0  0  0  0  0
    3.6513   26.3434   64.0058 C   0  0  1  0  0  0  0  0  0  0  0  0
    2.3494   26.3132   63.1502 C   0  0  1  0  0  0  0  0  0  0  0  0
    2.5277   25.5198   61.8572 C   0  0  0  0  0  0  0  0  0  0  0  0
    4.7547   26.9884   63.2538 N   0  0  0  0  0  0  0  0  0  0  0  0
    1.2459   25.6885   63.9427 O   0  0  0  0  0  0  0  0  0  0  0  0
    1.9276   27.1127   67.3065 O   0  0  0  0  0  0  0  0  0  0  0  0
    4.5790   27.1520   66.0628 O   0  0  0  0  0  0  0  0  0  0  0  0
    2.9853   24.2255   62.1650 O   0  0  0  0  0  0  0  0  0  0  0  0
   -6.4787   30.1003   66.9899 C   0  0  1  0  0  0  0  0  0  0  0  0
   -8.0227   30.2318   66.8825 C   0  0  1  0  0  0  0  0  0  0  0  0
   -8.4217   31.7292   66.7396 C   0  0  2  0  0  0  0  0  0  0  0  0
   -7.9255   32.5079   67.9828 C   0  0  1  0  0  0  0  0  0  0  0  0
   -6.3638   32.3993   68.1114 C   0  0  0  0  0  0  0  0  0  0  0  0
   -5.9916   30.9064   68.2352 C   0  0  2  0  0  0  0  0  0  0  0  0
   -8.3065   33.9357   67.8610 N   0  0  0  0  0  0  0  0  0  0  0  0
   -4.5324   30.8135   68.3535 N   0  0  0  0  0  0  0  0  0  0  0  0
   -8.4877   29.5039   65.7243 O   0  0  0  0  0  0  0  0  0  0  0  0
   -9.8598   31.8228   66.6353 O   0  0  0  0  0  0  0  0  0  0  0  0
  1  2  1  0  0  0  0
  1 12  1  1  0  0  0
  1 13  1  0  0  0  0
  2  3  1  0  0  0  0
  2 10  1  1  0  0  0
  4  3  1  1  0  0  0
  4  5  1  0  0  0  0
  4 14  1  0  0  0  0
  5  6  1  0  0  0  0
  5 13  1  6  0  0  0
  6  7  1  0  0  0  0
  6 15  1  6  0  0  0
  7  8  1  0  0  0  0
  7 11  1  6  0  0  0
  8 14  1  0  0  0  0
  8 16  1  1  0  0  0
  9 11  1  0  0  0  0
 17 16  1  6  0  0  0
 17 18  1  0  0  0  0
 17 24  1  0  0  0  0
 18 19  1  0  0  0  0
 18 25  1  1  0  0  0
 19 20  1  0  0  0  0
 19 26  1  1  0  0  0
 20 21  1  0  0  0  0
 20 23  1  6  0  0  0
 21 22  1  6  0  0  0
 21 24  1  0  0  0  0
 22 27  1  0  0  0  0
 28 12  1  1  0  0  0
 28 29  1  0  0  0  0
 28 33  1  0  0  0  0
 29 30  1  0  0  0  0
 29 36  1  6  0  0  0
 30 31  1  0  0  0  0
 30 37  1  1  0  0  0
 31 32  1  0  0  0  0
 31 34  1  6  0  0  0
 32 33  1  0  0  0  0
 33 35  1  6  0  0  0
M  END
>  <CHROM.1>
171.89297389,165.96922181,-175.04738665,79.61253946,-159.76591728,55.19800837
-2.51258967,28.36054252,65.49045658,2.68930875,0.13395182,0.34739734

>  <Name>
ligand

>  <RI>
0

>  <Rbt.Current_Directory>
/home/itssahil/PROJECTS/Mol_Feturizer/Test_systems_manuscript/rnas/2g5k

>  <Rbt.Executable>
rbdock ($Id: //depot/dev/client3/rdock/2013.1/src/exe/rbdock.cxx#4 $)

>  <Rbt.Library>
libRbt.so (2013.1, Build901 2013/11/27)

>  <Rbt.Parameter_File>
/export/apps/rDock/src/rDock_2013.1_src/data/scripts/dock_solv.prm

>  <Rbt.Receptor>
prm/pocket_docking_4.prm

>  <SCORE>
-7.29311

>  <SCORE.INTER>
-3.46061

>  <SCORE.INTER.CONST>
1

>  <SCORE.INTER.POLAR>
0

>  <SCORE.INTER.ROT>
6

>  <SCORE.INTER.SOLV>
12.2142

>  <SCORE.INTER.VDW>
-13.9785

>  <SCORE.INTER.norm>
-0.09353

>  <SCORE.INTRA>
-3.8325

>  <SCORE.INTRA.DIHEDRAL>
-7.11186

>  <SCORE.INTRA.DIHEDRAL.0>
11.3972

>  <SCORE.INTRA.POLAR>
0

>  <SCORE.INTRA.POLAR.0>
0

>  <SCORE.INTRA.REPUL>
0

>  <SCORE.INTRA.REPUL.0>
0

>  <SCORE.INTRA.SOLV>
-0.903894

>  <SCORE.INTRA.SOLV.lig_0>
-92.3891

>  <SCORE.INTRA.VDW>
0.175375

>  <SCORE.INTRA.VDW.0>
-2.90606

>  <SCORE.INTRA.norm>
-0.103581

>  <SCORE.RESTR>
0

>  <SCORE.RESTR.CAVITY>
0

>  <SCORE.RESTR.norm>
0

>  <SCORE.SYSTEM>
0

>  <SCORE.SYSTEM.CONST>
0

>  <SCORE.SYSTEM.DIHEDRAL>
0

>  <SCORE.SYSTEM.SOLV>
0

>  <SCORE.SYSTEM.norm>
0

>  <SCORE.heavy>
37

>  <SCORE.norm>
-0.197111

>  <RMSD>
10.148

$$$$
ligand
 OpenBabel02271912133D
libRbt.so/2013.1/901 2013/11/27
 37 40  0  0  0  0  0  0  0  0999 V2000
   -9.5317   28.3398   66.6152 C   0  0  1  0  0  0  0  0  0  0  0  0
   -8.9540   26.9234   66.8952 C   0  0  1  0  0  0  0  0  0  0  0  0
   -7.7260   26.9745   67.8241 C   0  0  0  0  0  0  0  0  0  0  0  0
   -6.6459   27.9010   67.1836 C   0  0  1  0  0  0  0  0  0  0  0  0
   -7.2184   29.3372   66.9533 C   0  0  1  0  0  0  0  0  0  0  0  0
   -6.0995   30.2657   66.2969 C   0  0  1  0  0  0  0  0  0  0  0  0
   -4.8670   30.3197   67.2465 C   0  0  1  0  0  0  0  0  0  0  0  0
   -4.3608   28.8625   67.4678 C   0  0  2  0  0  0  0  0  0  0  0  0
   -3.8488   32.6653   66.8319 C   0  0  0  0  0  0  0  0  0  0  0  0
   -9.9942   26.0394   67.4625 N   0  0  0  0  0  0  0  0  0  0  0  0
   -3.7774   31.1803   66.6508 N   0  0  0  0  0  0  0  0  0  0  0  0
  -10.1345   28.9316   67.7825 O   0  0  0  0  0  0  0  0  0  0  0  0
   -8.4354   29.2003   66.0987 O   0  0  0  0  0  0  0  0  0  0  0  0
   -5.4126   28.0056   68.0307 O   0  0  0  0  0  0  0  0  0  0  0  0
   -5.6823   29.7102   65.0565 O   0  0  0  0  0  0  0  0  0  0  0  0
   -3.2429   28.8626   68.3483 O   0  0  0  0  0  0  0  0  0  0  0  0
   -2.5874   27.5760   68.4677 C   0  0  2  0  0  0  0  0  0  0  0  0
   -1.3404   27.6194   69.3823 C   0  0  1  0  0  0  0  0  0  0  0  0
   -0.2138   28.4961   68.7463 C   0  0  2  0  0  0  0  0  0  0  0  0
    0.1762   27.9018   67.4082 C   0  0  1  0  0  0  0  0  0  0  0  0
   -1.0746   27.8856   66.4793 C   0  0  1  0  0  0  0  0  0  0  0  0
   -0.7691   27.2777   65.1117 C   0  0  0  0  0  0  0  0  0  0  0  0
    1.2609   28.7157   66.8081 N   0  0  0  0  0  0  0  0  0  0  0  0
   -2.1631   27.0866   67.1220 O   0  0  0  0  0  0  0  0  0  0  0  0
   -1.7664   28.1188   70.6697 O   0  0  0  0  0  0  0  0  0  0  0  0
    0.9323   28.5085   69.6004 O   0  0  0  0  0  0  0  0  0  0  0  0
   -0.3197   25.9552   65.2804 O   0  0  0  0  0  0  0  0  0  0  0  0
  -10.8503   30.2647   67.7604 C   0  0  1  0  0  0  0  0  0  0  0  0
   -9.8153   31.3692   67.4118 C   0  0  1  0  0  0  0  0  0  0  0  0
  -10.5106   32.7611   67.3821 C   0  0  2  0  0  0  0  0  0  0  0  0
  -11.6281   32.7480   66.3100 C   0  0  1  0  0  0  0  0  0  0  0  0
  -12.6951   31.6444   66.6428 C   0  0  0  0  0  0  0  0  0  0  0  0
  -11.9801   30.2771   66.6828 C   0  0  2  0  0  0  0  0  0  0  0  0
  -12.2934   34.0724   66.2677 N   0  0  0  0  0  0  0  0  0  0  0  0
  -12.9826   29.2527   66.9953 N   0  0  0  0  0  0  0  0  0  0  0  0
   -8.7707   31.3814   68.4097 O   0  0  0  0  0  0  0  0  0  0  0  0
   -9.5263   33.7695   67.0622 O   0  0  0  0  0  0  0  0  0  0  0  0
  1  2  1  0  0  0  0
  1 12  1  1  0  0  0
  1 13  1  0  0  0  0
  2  3  1  0  0  0  0
  2 10  1  1  0  0  0
  4  3  1  1  0  0  0
  4  5  1  0  0  0  0
  4 14  1  0  0  0  0
  5  6  1  0  0  0  0
  5 13  1  6  0  0  0
  6  7  1  0  0  0  0
  6 15  1  6  0  0  0
  7  8  1  0  0  0  0
  7 11  1  6  0  0  0
  8 14  1  0  0  0  0
  8 16  1  1  0  0  0
  9 11  1  0  0  0  0
 17 16  1  6  0  0  0
 17 18  1  0  0  0  0
 17 24  1  0  0  0  0
 18 19  1  0  0  0  0
 18 25  1  1  0  0  0
 19 20  1  0  0  0  0
 19 26  1  1  0  0  0
 20 21  1  0  0  0  0
 20 23  1  6  0  0  0
 21 22  1  6  0  0  0
 21 24  1  0  0  0  0
 22 27  1  0  0  0  0
 28 12  1  6  0  0  0
 28 29  1  0  0  0  0
 28 33  1  0  0  0  0
 29 30  1  0  0  0  0
 29 36  1  1  0  0  0
 30 31  1  0  0  0  0
 30 37  1  6  0  0  0
 31 32  1  0  0  0  0
 31 34  1  1  0  0  0
 32 33  1  0  0  0  0
 33 35  1  1  0  0  0
M  END
>  <CHROM.1>
-175.85466542,83.09775955,-171.83854528,-64.58255738,177.51712409,59.54960141
-6.01800162,29.35069324,67.27373102,2.85493704,-0.05899366,-0.03161191

>  <Name>
ligand

>  <RI>
0

>  <Rbt.Current_Directory>
/home/itssahil/PROJECTS/Mol_Feturizer/Test_systems_manuscript/rnas/2g5k

>  <Rbt.Executable>
rbdock ($Id: //depot/dev/client3/rdock/2013.1/src/exe/rbdock.cxx#4 $)

>  <Rbt.Library>
libRbt.so (2013.1, Build901 2013/11/27)

>  <Rbt.Parameter_File>
/export/apps/rDock/src/rDock_2013.1_src/data/scripts/dock_solv.prm

>  <Rbt.Receptor>
prm/pocket_docking_4.prm

>  <SCORE>
-8.57876

>  <SCORE.INTER>
-3.04079

>  <SCORE.INTER.CONST>
1

>  <SCORE.INTER.POLAR>
0

>  <SCORE.INTER.ROT>
6

>  <SCORE.INTER.SOLV>
8.79531

>  <SCORE.INTER.VDW>
-12.559

>  <SCORE.INTER.norm>
-0.0821836

>  <SCORE.INTRA>
-5.53913

>  <SCORE.INTRA.DIHEDRAL>
-10.4312

>  <SCORE.INTRA.DIHEDRAL.0>
11.3972

>  <SCORE.INTRA.POLAR>
0

>  <SCORE.INTRA.POLAR.0>
0

>  <SCORE.INTRA.REPUL>
0

>  <SCORE.INTRA.REPUL.0>
0

>  <SCORE.INTRA.SOLV>
-0.244772

>  <SCORE.INTRA.SOLV.lig_0>
-92.3891

>  <SCORE.INTRA.VDW>
-0.201145

>  <SCORE.INTRA.VDW.0>
-2.90606

>  <SCORE.INTRA.norm>
-0.149706

>  <SCORE.RESTR>
0.00116545

>  <SCORE.RESTR.CAVITY>
0.00116545

>  <SCORE.RESTR.norm>
3.14986e-05

>  <SCORE.SYSTEM>
0

>  <SCORE.SYSTEM.CONST>
0

>  <SCORE.SYSTEM.DIHEDRAL>
0

>  <SCORE.SYSTEM.SOLV>
0

>  <SCORE.SYSTEM.norm>
0

>  <SCORE.heavy>
37

>  <SCORE.norm>
-0.231858

>  <RMSD>
10.159

$$$$
ligand
 OpenBabel02271912133D
libRbt.so/2013.1/901 2013/11/27
 37 40  0  0  0  0  0  0  0  0999 V2000
   -7.3078   32.8534   68.3834 C   0  0  1  0  0  0  0  0  0  0  0  0
   -5.9050   32.2065   68.2035 C   0  0  1  0  0  0  0  0  0  0  0  0
   -5.9385   31.0203   67.2210 C   0  0  0  0  0  0  0  0  0  0  0  0
   -6.9755   29.9713   67.7304 C   0  0  1  0  0  0  0  0  0  0  0  0
   -8.3937   30.6159   67.8589 C   0  0  1  0  0  0  0  0  0  0  0  0
   -9.4361   29.5277   68.3823 C   0  0  1  0  0  0  0  0  0  0  0  0
   -9.4709   28.3378   67.3789 C   0  0  1  0  0  0  0  0  0  0  0  0
   -8.0290   27.7578   67.2640 C   0  0  2  0  0  0  0  0  0  0  0  0
  -11.9035   27.4779   67.6095 C   0  0  0  0  0  0  0  0  0  0  0  0
   -4.9191   33.2154   67.7614 N   0  0  0  0  0  0  0  0  0  0  0  0
  -10.4388   27.2773   67.8491 N   0  0  0  0  0  0  0  0  0  0  0  0
   -7.7591   33.5338   67.1961 O   0  0  0  0  0  0  0  0  0  0  0  0
   -8.2688   31.7891   68.7744 O   0  0  0  0  0  0  0  0  0  0  0  0
   -7.0698   28.7796   66.8245 O   0  0  0  0  0  0  0  0  0  0  0  0
   -9.0174   29.0317   69.6472 O   0  0  0  0  0  0  0  0  0  0  0  0
   -8.0102   26.6765   66.3390 O   0  0  0  0  0  0  0  0  0  0  0  0
   -6.7631   25.9393   66.3204 C   0  0  2  0  0  0  0  0  0  0  0  0
   -6.6388   24.9992   65.0980 C   0  0  1  0  0  0  0  0  0  0  0  0
   -7.6920   23.8470   65.1724 C   0  0  2  0  0  0  0  0  0  0  0  0
   -7.4568   23.0459   66.4369 C   0  0  1  0  0  0  0  0  0  0  0  0
   -7.6107   23.9888   67.6677 C   0  0  1  0  0  0  0  0  0  0  0  0
   -7.3657   23.2590   68.9870 C   0  0  0  0  0  0  0  0  0  0  0  0
   -8.4385   21.9366   66.5037 N   0  0  0  0  0  0  0  0  0  0  0  0
   -6.6329   25.1149   67.5590 O   0  0  0  0  0  0  0  0  0  0  0  0
   -6.7926   25.8105   63.9122 O   0  0  0  0  0  0  0  0  0  0  0  0
   -7.5478   22.9837   64.0424 O   0  0  0  0  0  0  0  0  0  0  0  0
   -7.6558   24.1240   70.0580 O   0  0  0  0  0  0  0  0  0  0  0  0
   -9.0889   34.2506   67.1063 C   0  0  1  0  0  0  0  0  0  0  0  0
   -9.0278   35.5090   68.0149 C   0  0  1  0  0  0  0  0  0  0  0  0
  -10.3805   36.2760   67.9549 C   0  0  2  0  0  0  0  0  0  0  0  0
  -10.6538   36.7105   66.4939 C   0  0  1  0  0  0  0  0  0  0  0  0
  -10.7294   35.4552   65.5528 C   0  0  0  0  0  0  0  0  0  0  0  0
   -9.3846   34.7028   65.6414 C   0  0  2  0  0  0  0  0  0  0  0  0
  -11.9377   37.4490   66.4256 N   0  0  0  0  0  0  0  0  0  0  0  0
   -9.4639   33.5318   64.7613 N   0  0  0  0  0  0  0  0  0  0  0  0
   -8.7707   35.1056   69.3782 O   0  0  0  0  0  0  0  0  0  0  0  0
  -10.2993   37.4364   68.8121 O   0  0  0  0  0  0  0  0  0  0  0  0
  1  2  1  0  0  0  0
  1 12  1  6  0  0  0
  1 13  1  0  0  0  0
  2  3  1  0  0  0  0
  2 10  1  6  0  0  0
  4  3  1  6  0  0  0
  4  5  1  0  0  0  0
  4 14  1  0  0  0  0
  5  6  1  0  0  0  0
  5 13  1  1  0  0  0
  6  7  1  0  0  0  0
  6 15  1  1  0  0  0
  7  8  1  0  0  0  0
  7 11  1  1  0  0  0
  8 14  1  0  0  0  0
  8 16  1  6  0  0  0
  9 11  1  0  0  0  0
 17 16  1  1  0  0  0
 17 18  1  0  0  0  0
 17 24  1  0  0  0  0
 18 19  1  0  0  0  0
 18 25  1  6  0  0  0
 19 20  1  0  0  0  0
 19 26  1  6  0  0  0
 20 21  1  0  0  0  0
 20 23  1  1  0  0  0
 21 22  1  1  0  0  0
 21 24  1  0  0  0  0
 22 27  1  0  0  0  0
 28 12  1  6  0  0  0
 28 29  1  0  0  0  0
 28 33  1  0  0  0  0
 29 30  1  0  0  0  0
 29 36  1  1  0  0  0
 30 31  1  0  0  0  0
 30 37  1  1  0  0  0
 31 32  1  0  0  0  0
 31 34  1  1  0  0  0
 32 33  1  0  0  0  0
 33 35  1  6  0  0  0
M  END
>  <CHROM.1>
-179.81452699,79.71398283,-170.84590582,69.04287789,-166.44088312,-173.88148444
-8.35089659,29.73176207,67.21388477,-1.84004784,0.90614090,-2.86268809

>  <Name>
ligand

>  <RI>
0

>  <Rbt.Current_Directory>
/home/itssahil/PROJECTS/Mol_Feturizer/Test_systems_manuscript/rnas/2g5k

>  <Rbt.Executable>
rbdock ($Id: //depot/dev/client3/rdock/2013.1/src/exe/rbdock.cxx#4 $)

>  <Rbt.Library>
libRbt.so (2013.1, Build901 2013/11/27)

>  <Rbt.Parameter_File>
/export/apps/rDock/src/rDock_2013.1_src/data/scripts/dock_solv.prm

>  <Rbt.Receptor>
prm/pocket_docking_7.prm

>  <SCORE>
-8.96171

>  <SCORE.INTER>
-3.59277

>  <SCORE.INTER.CONST>
1

>  <SCORE.INTER.POLAR>
0

>  <SCORE.INTER.ROT>
6

>  <SCORE.INTER.SOLV>
14.1754

>  <SCORE.INTER.VDW>
-14.7203

>  <SCORE.INTER.norm>
-0.0971019

>  <SCORE.INTRA>
-5.36894

>  <SCORE.INTRA.DIHEDRAL>
-9.26248

>  <SCORE.INTRA.DIHEDRAL.0>
11.3972

>  <SCORE.INTRA.POLAR>
0

>  <SCORE.INTRA.POLAR.0>
0

>  <SCORE.INTRA.REPUL>
0

>  <SCORE.INTRA.REPUL.0>
0

>  <SCORE.INTRA.SOLV>
-1.88244

>  <SCORE.INTRA.SOLV.lig_0>
-92.3891

>  <SCORE.INTRA.VDW>
0.203518

>  <SCORE.INTRA.VDW.0>
-2.90606

>  <SCORE.INTRA.norm>
-0.145106

>  <SCORE.RESTR>
0

>  <SCORE.RESTR.CAVITY>
0

>  <SCORE.RESTR.norm>
0

>  <SCORE.SYSTEM>
0

>  <SCORE.SYSTEM.CONST>
0

>  <SCORE.SYSTEM.DIHEDRAL>
0

>  <SCORE.SYSTEM.SOLV>
0

>  <SCORE.SYSTEM.norm>
0

>  <SCORE.heavy>
37

>  <SCORE.norm>
-0.242208

>  <RMSD>
10.160

$$$$
ligand
 OpenBabel02271912133D
libRbt.so/2013.1/901 2013/11/27
 37 40  0  0  0  0  0  0  0  0999 V2000
   -6.6659   31.0803   66.1340 C   0  0  1  0  0  0  0  0  0  0  0  0
   -5.5671   31.6988   65.2237 C   0  0  1  0  0  0  0  0  0  0  0  0
   -4.6422   30.6227   64.6235 C   0  0  0  0  0  0  0  0  0  0  0  0
   -4.0053   29.7985   65.7855 C   0  0  1  0  0  0  0  0  0  0  0  0
   -5.1156   29.1374   66.6652 C   0  0  1  0  0  0  0  0  0  0  0  0
   -4.4428   28.3025   67.8463 C   0  0  1  0  0  0  0  0  0  0  0  0
   -3.5182   27.2115   67.2309 C   0  0  1  0  0  0  0  0  0  0  0  0
   -2.4559   27.9224   66.3395 C   0  0  2  0  0  0  0  0  0  0  0  0
   -2.2112   25.0999   67.9678 C   0  0  0  0  0  0  0  0  0  0  0  0
   -6.1769   32.5123   64.1506 N   0  0  0  0  0  0  0  0  0  0  0  0
   -2.8502   26.4073   68.3217 N   0  0  0  0  0  0  0  0  0  0  0  0
   -7.6340   30.3152   65.3899 O   0  0  0  0  0  0  0  0  0  0  0  0
   -6.0035   30.2318   67.1589 O   0  0  0  0  0  0  0  0  0  0  0  0
   -3.0873   28.7240   65.2830 O   0  0  0  0  0  0  0  0  0  0  0  0
   -3.6440   29.1633   68.6477 O   0  0  0  0  0  0  0  0  0  0  0  0
   -1.5983   26.9583   65.7394 O   0  0  0  0  0  0  0  0  0  0  0  0
   -0.3920   27.5193   65.1657 C   0  0  2  0  0  0  0  0  0  0  0  0
    0.2975   26.5639   64.1631 C   0  0  1  0  0  0  0  0  0  0  0  0
    0.8480   25.2955   64.8914 C   0  0  2  0  0  0  0  0  0  0  0  0
    1.8574   25.7267   65.9360 C   0  0  1  0  0  0  0  0  0  0  0  0
    1.1534   26.6661   66.9606 C   0  0  1  0  0  0  0  0  0  0  0  0
    2.1132   27.1650   68.0391 C   0  0  0  0  0  0  0  0  0  0  0  0
    2.4011   24.5267   66.6166 N   0  0  0  0  0  0  0  0  0  0  0  0
    0.5865   27.8500   66.2444 O   0  0  0  0  0  0  0  0  0  0  0  0
   -0.6719   26.2361   63.1428 O   0  0  0  0  0  0  0  0  0  0  0  0
    1.4935   24.4362   63.9490 O   0  0  0  0  0  0  0  0  0  0  0  0
    1.4223   28.0195   68.9176 O   0  0  0  0  0  0  0  0  0  0  0  0
   -8.8356   29.6532   66.0286 C   0  0  1  0  0  0  0  0  0  0  0  0
   -9.8560   30.7595   66.4128 C   0  0  1  0  0  0  0  0  0  0  0  0
  -11.1094   30.1208   67.0784 C   0  0  2  0  0  0  0  0  0  0  0  0
  -11.7694   29.1380   66.0801 C   0  0  1  0  0  0  0  0  0  0  0  0
  -10.7611   28.0018   65.6804 C   0  0  0  0  0  0  0  0  0  0  0  0
   -9.5212   28.6597   65.0383 C   0  0  2  0  0  0  0  0  0  0  0  0
  -12.9698   28.5283   66.7012 N   0  0  0  0  0  0  0  0  0  0  0  0
   -8.5845   27.5927   64.6694 N   0  0  0  0  0  0  0  0  0  0  0  0
   -9.2412   31.6787   67.3425 O   0  0  0  0  0  0  0  0  0  0  0  0
  -12.0382   31.1701   67.4311 O   0  0  0  0  0  0  0  0  0  0  0  0
  1  2  1  0  0  0  0
  1 12  1  6  0  0  0
  1 13  1  0  0  0  0
  2  3  1  0  0  0  0
  2 10  1  6  0  0  0
  4  3  1  6  0  0  0
  4  5  1  0  0  0  0
  4 14  1  0  0  0  0
  5  6  1  0  0  0  0
  5 13  1  1  0  0  0
  6  7  1  0  0  0  0
  6 15  1  1  0  0  0
  7  8  1  0  0  0  0
  7 11  1  1  0  0  0
  8 14  1  0  0  0  0
  8 16  1  6  0  0  0
  9 11  1  0  0  0  0
 17 16  1  1  0  0  0
 17 18  1  0  0  0  0
 17 24  1  0  0  0  0
 18 19  1  0  0  0  0
 18 25  1  6  0  0  0
 19 20  1  0  0  0  0
 19 26  1  6  0  0  0
 20 21  1  0  0  0  0
 20 23  1  1  0  0  0
 21 22  1  1  0  0  0
 21 24  1  0  0  0  0
 22 27  1  0  0  0  0
 28 12  1  6  0  0  0
 28 29  1  0  0  0  0
 28 33  1  0  0  0  0
 29 30  1  0  0  0  0
 29 36  1  1  0  0  0
 30 31  1  0  0  0  0
 30 37  1  6  0  0  0
 31 32  1  0  0  0  0
 31 34  1  1  0  0  0
 32 33  1  0  0  0  0
 33 35  1  1  0  0  0
M  END
>  <CHROM.1>
-177.57750389,164.24749474,-165.60840862,72.64731953,-162.36955033,179.17992038
-4.36784650,28.38981870,66.20122590,-2.82571667,0.11679121,-2.75700930

>  <Name>
ligand

>  <RI>
0

>  <Rbt.Current_Directory>
/home/itssahil/PROJECTS/Mol_Feturizer/Test_systems_manuscript/rnas/2g5k

>  <Rbt.Executable>
rbdock ($Id: //depot/dev/client3/rdock/2013.1/src/exe/rbdock.cxx#4 $)

>  <Rbt.Library>
libRbt.so (2013.1, Build901 2013/11/27)

>  <Rbt.Parameter_File>
/export/apps/rDock/src/rDock_2013.1_src/data/scripts/dock_solv.prm

>  <Rbt.Receptor>
prm/pocket_docking_4.prm

>  <SCORE>
-7.22536

>  <SCORE.INTER>
-2.34795

>  <SCORE.INTER.CONST>
1

>  <SCORE.INTER.POLAR>
0

>  <SCORE.INTER.ROT>
6

>  <SCORE.INTER.SOLV>
13.2304

>  <SCORE.INTER.VDW>
-13.5754

>  <SCORE.INTER.norm>
-0.0634582

>  <SCORE.INTRA>
-4.87741

>  <SCORE.INTRA.DIHEDRAL>
-7.97979

>  <SCORE.INTRA.DIHEDRAL.0>
11.3972

>  <SCORE.INTRA.POLAR>
0

>  <SCORE.INTRA.POLAR.0>
0

>  <SCORE.INTRA.REPUL>
0

>  <SCORE.INTRA.REPUL.0>
0

>  <SCORE.INTRA.SOLV>
-1.69456

>  <SCORE.INTRA.SOLV.lig_0>
-92.3891

>  <SCORE.INTRA.VDW>
-0.0402376

>  <SCORE.INTRA.VDW.0>
-2.90606

>  <SCORE.INTRA.norm>
-0.131822

>  <SCORE.RESTR>
0

>  <SCORE.RESTR.CAVITY>
0

>  <SCORE.RESTR.norm>
0

>  <SCORE.SYSTEM>
0

>  <SCORE.SYSTEM.CONST>
0

>  <SCORE.SYSTEM.DIHEDRAL>
0

>  <SCORE.SYSTEM.SOLV>
0

>  <SCORE.SYSTEM.norm>
0

>  <SCORE.heavy>
37

>  <SCORE.norm>
-0.19528

>  <RMSD>
10.162

$$$$
ligand
 OpenBabel02271912133D
libRbt.so/2013.1/901 2013/11/27
 37 40  0  0  0  0  0  0  0  0999 V2000
   -7.2422   31.7532   68.3285 C   0  0  1  0  0  0  0  0  0  0  0  0
   -6.6062   32.8319   67.4063 C   0  0  1  0  0  0  0  0  0  0  0  0
   -5.7099   32.2068   66.3204 C   0  0  0  0  0  0  0  0  0  0  0  0
   -4.6086   31.3426   67.0099 C   0  0  1  0  0  0  0  0  0  0  0  0
   -5.2560   30.2278   67.8939 C   0  0  1  0  0  0  0  0  0  0  0  0
   -4.1134   29.3589   68.5898 C   0  0  1  0  0  0  0  0  0  0  0  0
   -3.2190   28.7232   67.4854 C   0  0  1  0  0  0  0  0  0  0  0  0
   -2.6296   29.8745   66.6161 C   0  0  2  0  0  0  0  0  0  0  0  0
   -2.4705   26.6435   68.8365 C   0  0  0  0  0  0  0  0  0  0  0  0
   -7.6538   33.6733   66.7898 N   0  0  0  0  0  0  0  0  0  0  0  0
   -2.1136   27.9021   68.1075 N   0  0  0  0  0  0  0  0  0  0  0  0
   -8.2187   30.9456   67.6426 O   0  0  0  0  0  0  0  0  0  0  0  0
   -6.1530   30.9040   68.8779 O   0  0  0  0  0  0  0  0  0  0  0  0
   -3.6900   30.6951   66.0166 O   0  0  0  0  0  0  0  0  0  0  0  0
   -3.2968   30.1979   69.3963 O   0  0  0  0  0  0  0  0  0  0  0  0
   -1.8180   29.3361   65.5785 O   0  0  0  0  0  0  0  0  0  0  0  0
   -1.1994   30.3385   64.7348 C   0  0  2  0  0  0  0  0  0  0  0  0
   -0.4910   29.7313   63.5007 C   0  0  1  0  0  0  0  0  0  0  0  0
    0.7400   28.8710   63.9328 C   0  0  2  0  0  0  0  0  0  0  0  0
    1.7196   29.7534   64.6796 C   0  0  1  0  0  0  0  0  0  0  0  0
    1.0123   30.3408   65.9375 C   0  0  1  0  0  0  0  0  0  0  0  0
    1.9302   31.2640   66.7364 C   0  0  0  0  0  0  0  0  0  0  0  0
    2.9014   28.9491   65.0738 N   0  0  0  0  0  0  0  0  0  0  0  0
   -0.1927   31.1188   65.5146 O   0  0  0  0  0  0  0  0  0  0  0  0
   -1.4741   28.9605   62.7744 O   0  0  0  0  0  0  0  0  0  0  0  0
    1.3870   28.3340   62.7768 O   0  0  0  0  0  0  0  0  0  0  0  0
    2.9035   30.4932   67.3983 O   0  0  0  0  0  0  0  0  0  0  0  0
   -8.9052   29.7564   68.2786 C   0  0  1  0  0  0  0  0  0  0  0  0
   -9.7348   30.2618   69.4906 C   0  0  1  0  0  0  0  0  0  0  0  0
  -10.4565   29.0668   70.1783 C   0  0  2  0  0  0  0  0  0  0  0  0
  -11.4017   28.3881   69.1564 C   0  0  1  0  0  0  0  0  0  0  0  0
  -10.5869   27.8587   67.9223 C   0  0  0  0  0  0  0  0  0  0  0  0
   -9.8680   29.0574   67.2675 C   0  0  2  0  0  0  0  0  0  0  0  0
  -12.1007   27.2515   69.8029 N   0  0  0  0  0  0  0  0  0  0  0  0
   -9.1087   28.5548   66.1174 N   0  0  0  0  0  0  0  0  0  0  0  0
   -8.8549   30.8974   70.4441 O   0  0  0  0  0  0  0  0  0  0  0  0
  -11.2146   29.5626   71.3040 O   0  0  0  0  0  0  0  0  0  0  0  0
  1  2  1  0  0  0  0
  1 12  1  6  0  0  0
  1 13  1  0  0  0  0
  2  3  1  0  0  0  0
  2 10  1  6  0  0  0
  4  3  1  6  0  0  0
  4  5  1  0  0  0  0
  4 14  1  0  0  0  0
  5  6  1  0  0  0  0
  5 13  1  1  0  0  0
  6  7  1  0  0  0  0
  6 15  1  1  0  0  0
  7  8  1  0  0  0  0
  7 11  1  1  0  0  0
  8 14  1  0  0  0  0
  8 16  1  6  0  0  0
  9 11  1  0  0  0  0
 17 16  1  1  0  0  0
 17 18  1  0  0  0  0
 17 24  1  0  0  0  0
 18 19  1  0  0  0  0
 18 25  1  1  0  0  0
 19 20  1  0  0  0  0
 19 26  1  6  0  0  0
 20 21  1  0  0  0  0
 20 23  1  1  0  0  0
 21 22  1  6  0  0  0
 21 24  1  0  0  0  0
 22 27  1  0  0  0  0
 28 12  1  6  0  0  0
 28 29  1  0  0  0  0
 28 33  1  0  0  0  0
 29 30  1  0  0  0  0
 29 36  1  1  0  0  0
 30 31  1  0  0  0  0
 30 37  1  1  0  0  0
 31 32  1  0  0  0  0
 31 34  1  1  0  0  0
 32 33  1  0  0  0  0
 33 35  1  6  0  0  0
M  END
>  <CHROM.1>
175.02415771,67.94146750,-178.61411318,62.70693805,-171.81760217,-72.30804993
-4.48604281,29.87743507,67.13489141,3.13153572,-0.34935614,3.12825324

>  <Name>
ligand

>  <RI>
0

>  <Rbt.Current_Directory>
/home/itssahil/PROJECTS/Mol_Feturizer/Test_systems_manuscript/rnas/2g5k

>  <Rbt.Executable>
rbdock ($Id: //depot/dev/client3/rdock/2013.1/src/exe/rbdock.cxx#4 $)

>  <Rbt.Library>
libRbt.so (2013.1, Build901 2013/11/27)

>  <Rbt.Parameter_File>
/export/apps/rDock/src/rDock_2013.1_src/data/scripts/dock_solv.prm

>  <Rbt.Receptor>
prm/pocket_docking_6.prm

>  <SCORE>
-13.6962

>  <SCORE.INTER>
-8.88593

>  <SCORE.INTER.CONST>
1

>  <SCORE.INTER.POLAR>
0

>  <SCORE.INTER.ROT>
6

>  <SCORE.INTER.SOLV>
11.1749

>  <SCORE.INTER.VDW>
-17.2489

>  <SCORE.INTER.norm>
-0.24016

>  <SCORE.INTRA>
-4.82016

>  <SCORE.INTRA.DIHEDRAL>
-10.2914

>  <SCORE.INTRA.DIHEDRAL.0>
11.3972

>  <SCORE.INTRA.POLAR>
0

>  <SCORE.INTRA.POLAR.0>
0

>  <SCORE.INTRA.REPUL>
0

>  <SCORE.INTRA.REPUL.0>
0

>  <SCORE.INTRA.SOLV>
-1.01474

>  <SCORE.INTRA.SOLV.lig_0>
-92.3891

>  <SCORE.INTRA.VDW>
0.832905

>  <SCORE.INTRA.VDW.0>
-2.90606

>  <SCORE.INTRA.norm>
-0.130275

>  <SCORE.RESTR>
0.00987443

>  <SCORE.RESTR.CAVITY>
0.00987443

>  <SCORE.RESTR.norm>
0.000266876

>  <SCORE.SYSTEM>
0

>  <SCORE.SYSTEM.CONST>
0

>  <SCORE.SYSTEM.DIHEDRAL>
0

>  <SCORE.SYSTEM.SOLV>
0

>  <SCORE.SYSTEM.norm>
0

>  <SCORE.heavy>
37

>  <SCORE.norm>
-0.370168

>  <RMSD>
10.162

$$$$
ligand
 OpenBabel02271912133D
libRbt.so/2013.1/901 2013/11/27
 37 40  0  0  0  0  0  0  0  0999 V2000
   -6.5454   31.9056   68.0382 C   0  0  1  0  0  0  0  0  0  0  0  0
   -5.6009   33.0550   67.5850 C   0  0  1  0  0  0  0  0  0  0  0  0
   -4.3778   32.5258   66.8121 C   0  0  0  0  0  0  0  0  0  0  0  0
   -3.6178   31.5002   67.7098 C   0  0  1  0  0  0  0  0  0  0  0  0
   -4.5595   30.3213   68.1182 C   0  0  1  0  0  0  0  0  0  0  0  0
   -3.7634   29.2873   69.0358 C   0  0  1  0  0  0  0  0  0  0  0  0
   -2.5355   28.7503   68.2436 C   0  0  1  0  0  0  0  0  0  0  0  0
   -1.6526   29.9673   67.8336 C   0  0  2  0  0  0  0  0  0  0  0  0
   -2.2497   26.3734   69.2333 C   0  0  0  0  0  0  0  0  0  0  0  0
   -6.3380   34.0442   66.7704 N   0  0  0  0  0  0  0  0  0  0  0  0
   -1.7463   27.7764   69.0873 N   0  0  0  0  0  0  0  0  0  0  0  0
   -7.2138   31.2704   66.9309 O   0  0  0  0  0  0  0  0  0  0  0  0
   -5.7452   30.9151   68.8048 O   0  0  0  0  0  0  0  0  0  0  0  0
   -2.4082   30.9345   67.0267 O   0  0  0  0  0  0  0  0  0  0  0  0
   -3.2875   29.9479   70.2013 O   0  0  0  0  0  0  0  0  0  0  0  0
   -0.5249   29.5229   67.0880 O   0  0  0  0  0  0  0  0  0  0  0  0
    0.5331   30.5067   66.9783 C   0  0  2  0  0  0  0  0  0  0  0  0
    1.6309   30.0985   65.9676 C   0  0  1  0  0  0  0  0  0  0  0  0
    2.4117   28.8419   66.4711 C   0  0  2  0  0  0  0  0  0  0  0  0
    3.0614   29.1662   67.8011 C   0  0  1  0  0  0  0  0  0  0  0  0
    1.9512   29.5493   68.8250 C   0  0  1  0  0  0  0  0  0  0  0  0
    2.5284   29.9136   70.1915 C   0  0  0  0  0  0  0  0  0  0  0  0
    3.8230   27.9854   68.2751 N   0  0  0  0  0  0  0  0  0  0  0  0
    1.1784   30.7205   68.3081 O   0  0  0  0  0  0  0  0  0  0  0  0
    0.9839   29.8718   64.6956 O   0  0  0  0  0  0  0  0  0  0  0  0
    3.4296   28.4933   65.5301 O   0  0  0  0  0  0  0  0  0  0  0  0
    3.4091   31.0015   70.0495 O   0  0  0  0  0  0  0  0  0  0  0  0
   -8.3082   30.2396   67.1040 C   0  0  1  0  0  0  0  0  0  0  0  0
   -7.6999   28.9945   67.8057 C   0  0  1  0  0  0  0  0  0  0  0  0
   -8.7938   27.9048   68.0005 C   0  0  2  0  0  0  0  0  0  0  0  0
   -9.9346   28.4808   68.8751 C   0  0  1  0  0  0  0  0  0  0  0  0
  -10.5747   29.7379   68.1844 C   0  0  0  0  0  0  0  0  0  0  0  0
   -9.4690   30.7967   67.9872 C   0  0  2  0  0  0  0  0  0  0  0  0
  -10.9800   27.4483   69.0735 N   0  0  0  0  0  0  0  0  0  0  0  0
  -10.0742   31.9662   67.3408 N   0  0  0  0  0  0  0  0  0  0  0  0
   -6.6339   28.4570   66.9921 O   0  0  0  0  0  0  0  0  0  0  0  0
   -8.2014   26.7571   68.6483 O   0  0  0  0  0  0  0  0  0  0  0  0
  1  2  1  0  0  0  0
  1 12  1  6  0  0  0
  1 13  1  0  0  0  0
  2  3  1  0  0  0  0
  2 10  1  6  0  0  0
  4  3  1  6  0  0  0
  4  5  1  0  0  0  0
  4 14  1  0  0  0  0
  5  6  1  0  0  0  0
  5 13  1  1  0  0  0
  6  7  1  0  0  0  0
  6 15  1  1  0  0  0
  7  8  1  0  0  0  0
  7 11  1  1  0  0  0
  8 14  1  0  0  0  0
  8 16  1  6  0  0  0
  9 11  1  0  0  0  0
 17 16  1  1  0  0  0
 17 18  1  0  0  0  0
 17 24  1  0  0  0  0
 18 19  1  0  0  0  0
 18 25  1  6  0  0  0
 19 20  1  0  0  0  0
 19 26  1  6  0  0  0
 20 21  1  0  0  0  0
 20 23  1  1  0  0  0
 21 22  1  1  0  0  0
 21 24  1  0  0  0  0
 22 27  1  0  0  0  0
 28 12  1  1  0  0  0
 28 29  1  0  0  0  0
 28 33  1  0  0  0  0
 29 30  1  0  0  0  0
 29 36  1  6  0  0  0
 30 31  1  0  0  0  0
 30 37  1  1  0  0  0
 31 32  1  0  0  0  0
 31 34  1  6  0  0  0
 32 33  1  0  0  0  0
 33 35  1  6  0  0  0
M  END
>  <CHROM.1>
-172.39351326,78.71187980,-163.86081432,-64.03862136,-170.00294331,59.24282089
-3.39713628,29.85340541,67.87824644,-3.12083858,-0.03617447,2.80358211

>  <Name>
ligand

>  <RI>
0

>  <Rbt.Current_Directory>
/home/itssahil/PROJECTS/Mol_Feturizer/Test_systems_manuscript/rnas/2g5k

>  <Rbt.Executable>
rbdock ($Id: //depot/dev/client3/rdock/2013.1/src/exe/rbdock.cxx#4 $)

>  <Rbt.Library>
libRbt.so (2013.1, Build901 2013/11/27)

>  <Rbt.Parameter_File>
/export/apps/rDock/src/rDock_2013.1_src/data/scripts/dock_solv.prm

>  <Rbt.Receptor>
prm/pocket_docking_7.prm

>  <SCORE>
-10.2094

>  <SCORE.INTER>
-5.2401

>  <SCORE.INTER.CONST>
1

>  <SCORE.INTER.POLAR>
0

>  <SCORE.INTER.ROT>
6

>  <SCORE.INTER.SOLV>
12.0708

>  <SCORE.INTER.VDW>
-15.117

>  <SCORE.INTER.norm>
-0.141624

>  <SCORE.INTRA>
-4.96933

>  <SCORE.INTRA.DIHEDRAL>
-9.04569

>  <SCORE.INTRA.DIHEDRAL.0>
11.3972

>  <SCORE.INTRA.POLAR>
0

>  <SCORE.INTRA.POLAR.0>
0

>  <SCORE.INTRA.REPUL>
0

>  <SCORE.INTRA.REPUL.0>
0

>  <SCORE.INTRA.SOLV>
-0.121362

>  <SCORE.INTRA.SOLV.lig_0>
-92.3891

>  <SCORE.INTRA.VDW>
-0.385803

>  <SCORE.INTRA.VDW.0>
-2.90606

>  <SCORE.INTRA.norm>
-0.134306

>  <SCORE.RESTR>
0

>  <SCORE.RESTR.CAVITY>
0

>  <SCORE.RESTR.norm>
0

>  <SCORE.SYSTEM>
0

>  <SCORE.SYSTEM.CONST>
0

>  <SCORE.SYSTEM.DIHEDRAL>
0

>  <SCORE.SYSTEM.SOLV>
0

>  <SCORE.SYSTEM.norm>
0

>  <SCORE.heavy>
37

>  <SCORE.norm>
-0.275931

>  <RMSD>
10.163

$$$$
ligand
 OpenBabel02271912133D
libRbt.so/2013.1/901 2013/11/27
 37 40  0  0  0  0  0  0  0  0999 V2000
   -5.0141   29.8548   64.9251 C   0  0  1  0  0  0  0  0  0  0  0  0
   -5.3333   28.3875   65.3296 C   0  0  1  0  0  0  0  0  0  0  0  0
   -4.0953   27.6610   65.8891 C   0  0  0  0  0  0  0  0  0  0  0  0
   -2.9558   27.7108   64.8240 C   0  0  1  0  0  0  0  0  0  0  0  0
   -2.6050   29.1903   64.4612 C   0  0  1  0  0  0  0  0  0  0  0  0
   -1.4408   29.2173   63.3710 C   0  0  1  0  0  0  0  0  0  0  0  0
   -0.1910   28.4902   63.9482 C   0  0  1  0  0  0  0  0  0  0  0  0
   -0.6062   27.0357   64.3235 C   0  0  2  0  0  0  0  0  0  0  0  0
    1.6982   29.7466   62.6981 C   0  0  0  0  0  0  0  0  0  0  0  0
   -6.4417   28.3461   66.3068 N   0  0  0  0  0  0  0  0  0  0  0  0
    0.9310   28.4826   62.9364 N   0  0  0  0  0  0  0  0  0  0  0  0
   -4.7337   30.6933   66.0628 O   0  0  0  0  0  0  0  0  0  0  0  0
   -3.8615   29.8428   63.9866 O   0  0  0  0  0  0  0  0  0  0  0  0
   -1.7087   27.0227   65.2939 O   0  0  0  0  0  0  0  0  0  0  0  0
   -1.8605   28.5230   62.2035 O   0  0  0  0  0  0  0  0  0  0  0  0
    0.5047   26.3381   64.8751 O   0  0  0  0  0  0  0  0  0  0  0  0
    0.5053   24.9166   64.5947 C   0  0  2  0  0  0  0  0  0  0  0  0
    1.2246   24.0890   65.6861 C   0  0  1  0  0  0  0  0  0  0  0  0
    2.7535   24.4119   65.7124 C   0  0  2  0  0  0  0  0  0  0  0  0
    3.3515   24.0732   64.3620 C   0  0  1  0  0  0  0  0  0  0  0  0
    2.6449   24.9288   63.2681 C   0  0  1  0  0  0  0  0  0  0  0  0
    3.1778   24.6288   61.8684 C   0  0  0  0  0  0  0  0  0  0  0  0
    4.8069   24.3559   64.3859 N   0  0  0  0  0  0  0  0  0  0  0  0
    1.1761   24.6491   63.2874 O   0  0  0  0  0  0  0  0  0  0  0  0
    0.5783   24.3807   66.9452 O   0  0  0  0  0  0  0  0  0  0  0  0
    3.3987   23.6252   66.7163 O   0  0  0  0  0  0  0  0  0  0  0  0
    4.5090   25.0739   61.7721 O   0  0  0  0  0  0  0  0  0  0  0  0
   -4.2744   32.1300   65.9407 C   0  0  1  0  0  0  0  0  0  0  0  0
   -5.4465   32.9702   65.3636 C   0  0  1  0  0  0  0  0  0  0  0  0
   -5.0147   34.4581   65.2175 C   0  0  2  0  0  0  0  0  0  0  0  0
   -4.6227   35.0122   66.6095 C   0  0  1  0  0  0  0  0  0  0  0  0
   -3.4317   34.1855   67.2140 C   0  0  0  0  0  0  0  0  0  0  0  0
   -3.8775   32.7125   67.3339 C   0  0  2  0  0  0  0  0  0  0  0  0
   -4.2158   36.4325   66.4838 N   0  0  0  0  0  0  0  0  0  0  0  0
   -2.7600   31.9474   67.8976 N   0  0  0  0  0  0  0  0  0  0  0  0
   -5.8151   32.4532   64.0658 O   0  0  0  0  0  0  0  0  0  0  0  0
   -6.1189   35.2151   64.6738 O   0  0  0  0  0  0  0  0  0  0  0  0
  1  2  1  0  0  0  0
  1 12  1  1  0  0  0
  1 13  1  0  0  0  0
  2  3  1  0  0  0  0
  2 10  1  1  0  0  0
  4  3  1  1  0  0  0
  4  5  1  0  0  0  0
  4 14  1  0  0  0  0
  5  6  1  0  0  0  0
  5 13  1  6  0  0  0
  6  7  1  0  0  0  0
  6 15  1  6  0  0  0
  7  8  1  0  0  0  0
  7 11  1  6  0  0  0
  8 14  1  0  0  0  0
  8 16  1  1  0  0  0
  9 11  1  0  0  0  0
 17 16  1  1  0  0  0
 17 18  1  0  0  0  0
 17 24  1  0  0  0  0
 18 19  1  0  0  0  0
 18 25  1  1  0  0  0
 19 20  1  0  0  0  0
 19 26  1  1  0  0  0
 20 21  1  0  0  0  0
 20 23  1  1  0  0  0
 21 22  1  6  0  0  0
 21 24  1  0  0  0  0
 22 27  1  0  0  0  0
 28 12  1  1  0  0  0
 28 29  1  0  0  0  0
 28 33  1  0  0  0  0
 29 30  1  0  0  0  0
 29 36  1  6  0  0  0
 30 31  1  0  0  0  0
 30 37  1  1  0  0  0
 31 32  1  0  0  0  0
 31 34  1  6  0  0  0
 32 33  1  0  0  0  0
 33 35  1  6  0  0  0
M  END
>  <CHROM.1>
174.40817850,75.09822708,-148.21609100,67.97680255,-151.62635296,-67.67064377
-1.46483246,28.70344418,64.86425649,2.39611077,0.45613034,-0.25715876

>  <Name>
ligand

>  <RI>
0

>  <Rbt.Current_Directory>
/home/itssahil/PROJECTS/Mol_Feturizer/Test_systems_manuscript/rnas/2g5k

>  <Rbt.Executable>
rbdock ($Id: //depot/dev/client3/rdock/2013.1/src/exe/rbdock.cxx#4 $)

>  <Rbt.Library>
libRbt.so (2013.1, Build901 2013/11/27)

>  <Rbt.Parameter_File>
/export/apps/rDock/src/rDock_2013.1_src/data/scripts/dock_solv.prm

>  <Rbt.Receptor>
prm/pocket_docking_8.prm

>  <SCORE>
-11.3946

>  <SCORE.INTER>
-9.60519

>  <SCORE.INTER.CONST>
1

>  <SCORE.INTER.POLAR>
0

>  <SCORE.INTER.ROT>
6

>  <SCORE.INTER.SOLV>
12.8935

>  <SCORE.INTER.VDW>
-18.3013

>  <SCORE.INTER.norm>
-0.2596

>  <SCORE.INTRA>
-1.78943

>  <SCORE.INTRA.DIHEDRAL>
-3.31085

>  <SCORE.INTRA.DIHEDRAL.0>
11.3972

>  <SCORE.INTRA.POLAR>
0

>  <SCORE.INTRA.POLAR.0>
0

>  <SCORE.INTRA.REPUL>
0

>  <SCORE.INTRA.REPUL.0>
0

>  <SCORE.INTRA.SOLV>
-0.438305

>  <SCORE.INTRA.SOLV.lig_0>
-92.3891

>  <SCORE.INTRA.VDW>
0.0851439

>  <SCORE.INTRA.VDW.0>
-2.90606

>  <SCORE.INTRA.norm>
-0.0483631

>  <SCORE.RESTR>
0

>  <SCORE.RESTR.CAVITY>
0

>  <SCORE.RESTR.norm>
0

>  <SCORE.SYSTEM>
0

>  <SCORE.SYSTEM.CONST>
0

>  <SCORE.SYSTEM.DIHEDRAL>
0

>  <SCORE.SYSTEM.SOLV>
0

>  <SCORE.SYSTEM.norm>
0

>  <SCORE.heavy>
37

>  <SCORE.norm>
-0.307963

>  <RMSD>
10.180

$$$$
ligand
 OpenBabel02271912133D
libRbt.so/2013.1/901 2013/11/27
 37 40  0  0  0  0  0  0  0  0999 V2000
  -10.1822   31.2582   66.7540 C   0  0  1  0  0  0  0  0  0  0  0  0
   -9.6582   32.1795   67.8920 C   0  0  1  0  0  0  0  0  0  0  0  0
   -8.1344   32.3903   67.8081 C   0  0  0  0  0  0  0  0  0  0  0  0
   -7.4288   30.9989   67.8471 C   0  0  1  0  0  0  0  0  0  0  0  0
   -7.9226   30.0975   66.6693 C   0  0  1  0  0  0  0  0  0  0  0  0
   -7.1907   28.6813   66.7298 C   0  0  1  0  0  0  0  0  0  0  0  0
   -5.6527   28.9030   66.6343 C   0  0  1  0  0  0  0  0  0  0  0  0
   -5.2228   29.8333   67.8084 C   0  0  2  0  0  0  0  0  0  0  0  0
   -4.8222   26.7463   65.4641 C   0  0  0  0  0  0  0  0  0  0  0  0
  -10.3611   33.4799   67.8746 N   0  0  0  0  0  0  0  0  0  0  0  0
   -4.9225   27.5820   66.7029 N   0  0  0  0  0  0  0  0  0  0  0  0
  -10.0937   31.8780   65.4561 O   0  0  0  0  0  0  0  0  0  0  0  0
   -9.4077   29.9900   66.7826 O   0  0  0  0  0  0  0  0  0  0  0  0
   -5.9357   31.1168   67.7686 O   0  0  0  0  0  0  0  0  0  0  0  0
   -7.4733   28.0478   67.9708 O   0  0  0  0  0  0  0  0  0  0  0  0
   -3.8224   30.0792   67.7485 O   0  0  0  0  0  0  0  0  0  0  0  0
   -3.2497   30.5295   69.0009 C   0  0  2  0  0  0  0  0  0  0  0  0
   -1.9617   31.3643   68.8071 C   0  0  1  0  0  0  0  0  0  0  0  0
   -0.8095   30.4833   68.2254 C   0  0  2  0  0  0  0  0  0  0  0  0
   -0.5223   29.3495   69.1888 C   0  0  1  0  0  0  0  0  0  0  0  0
   -1.8130   28.4936   69.3601 C   0  0  1  0  0  0  0  0  0  0  0  0
   -1.6123   27.3375   70.3381 C   0  0  0  0  0  0  0  0  0  0  0  0
    0.5855   28.5213   68.6544 N   0  0  0  0  0  0  0  0  0  0  0  0
   -2.9217   29.3589   69.8684 O   0  0  0  0  0  0  0  0  0  0  0  0
   -2.2935   32.4762   67.9458 O   0  0  0  0  0  0  0  0  0  0  0  0
    0.3730   31.2710   68.0699 O   0  0  0  0  0  0  0  0  0  0  0  0
   -2.5001   26.2952   70.0147 O   0  0  0  0  0  0  0  0  0  0  0  0
  -10.7069   31.2803   64.2084 C   0  0  1  0  0  0  0  0  0  0  0  0
  -10.1689   29.8323   64.0451 C   0  0  1  0  0  0  0  0  0  0  0  0
  -10.7732   29.1799   62.7680 C   0  0  2  0  0  0  0  0  0  0  0  0
  -12.3159   29.1427   62.8980 C   0  0  1  0  0  0  0  0  0  0  0  0
  -12.8888   30.5967   63.0560 C   0  0  0  0  0  0  0  0  0  0  0  0
  -12.2636   31.2282   64.3180 C   0  0  2  0  0  0  0  0  0  0  0  0
  -12.9028   28.5162   61.6891 N   0  0  0  0  0  0  0  0  0  0  0  0
  -12.8023   32.5855   64.4576 N   0  0  0  0  0  0  0  0  0  0  0  0
   -8.7294   29.8649   63.9259 O   0  0  0  0  0  0  0  0  0  0  0  0
  -10.2526   27.8385   62.6363 O   0  0  0  0  0  0  0  0  0  0  0  0
  1  2  1  0  0  0  0
  1 12  1  6  0  0  0
  1 13  1  0  0  0  0
  2  3  1  0  0  0  0
  2 10  1  6  0  0  0
  4  3  1  6  0  0  0
  4  5  1  0  0  0  0
  4 14  1  0  0  0  0
  5  6  1  0  0  0  0
  5 13  1  1  0  0  0
  6  7  1  0  0  0  0
  6 15  1  1  0  0  0
  7  8  1  0  0  0  0
  7 11  1  1  0  0  0
  8 14  1  0  0  0  0
  8 16  1  6  0  0  0
  9 11  1  0  0  0  0
 17 16  1  6  0  0  0
 17 18  1  0  0  0  0
 17 24  1  0  0  0  0
 18 19  1  0  0  0  0
 18 25  1  6  0  0  0
 19 20  1  0  0  0  0
 19 26  1  1  0  0  0
 20 21  1  0  0  0  0
 20 23  1  6  0  0  0
 21 22  1  1  0  0  0
 21 24  1  0  0  0  0
 22 27  1  0  0  0  0
 28 12  1  1  0  0  0
 28 29  1  0  0  0  0
 28 33  1  0  0  0  0
 29 30  1  0  0  0  0
 29 36  1  6  0  0  0
 30 31  1  0  0  0  0
 30 37  1  1  0  0  0
 31 32  1  0  0  0  0
 31 34  1  6  0  0  0
 32 33  1  0  0  0  0
 33 35  1  6  0  0  0
M  END
>  <CHROM.1>
-171.31257623,80.76547350,-159.97350207,-54.84960018,-154.49617095,-153.13813391
-6.67153810,29.94966695,66.70237832,3.02142197,0.45153959,-2.65752256

>  <Name>
ligand

>  <RI>
0

>  <Rbt.Current_Directory>
/home/itssahil/PROJECTS/Mol_Feturizer/Test_systems_manuscript/rnas/2g5k

>  <Rbt.Executable>
rbdock ($Id: //depot/dev/client3/rdock/2013.1/src/exe/rbdock.cxx#4 $)

>  <Rbt.Library>
libRbt.so (2013.1, Build901 2013/11/27)

>  <Rbt.Parameter_File>
/export/apps/rDock/src/rDock_2013.1_src/data/scripts/dock_solv.prm

>  <Rbt.Receptor>
prm/pocket_docking_8.prm

>  <SCORE>
-8.70007

>  <SCORE.INTER>
-6.21689

>  <SCORE.INTER.CONST>
1

>  <SCORE.INTER.POLAR>
0

>  <SCORE.INTER.ROT>
6

>  <SCORE.INTER.SOLV>
14.5918

>  <SCORE.INTER.VDW>
-16.6085

>  <SCORE.INTER.norm>
-0.168024

>  <SCORE.INTRA>
-2.48318

>  <SCORE.INTRA.DIHEDRAL>
-3.78007

>  <SCORE.INTRA.DIHEDRAL.0>
11.3972

>  <SCORE.INTRA.POLAR>
0

>  <SCORE.INTRA.POLAR.0>
0

>  <SCORE.INTRA.REPUL>
0

>  <SCORE.INTRA.REPUL.0>
0

>  <SCORE.INTRA.SOLV>
-0.641953

>  <SCORE.INTRA.SOLV.lig_0>
-92.3891

>  <SCORE.INTRA.VDW>
-0.272164

>  <SCORE.INTRA.VDW.0>
-2.90606

>  <SCORE.INTRA.norm>
-0.0671128

>  <SCORE.RESTR>
0

>  <SCORE.RESTR.CAVITY>
0

>  <SCORE.RESTR.norm>
0

>  <SCORE.SYSTEM>
0

>  <SCORE.SYSTEM.CONST>
0

>  <SCORE.SYSTEM.DIHEDRAL>
0

>  <SCORE.SYSTEM.SOLV>
0

>  <SCORE.SYSTEM.norm>
0

>  <SCORE.heavy>
37

>  <SCORE.norm>
-0.235137

>  <RMSD>
10.183

$$$$
ligand
 OpenBabel02271912133D
libRbt.so/2013.1/901 2013/11/27
 37 40  0  0  0  0  0  0  0  0999 V2000
   -6.4240   31.6717   68.1466 C   0  0  1  0  0  0  0  0  0  0  0  0
   -5.6117   32.5621   67.1639 C   0  0  1  0  0  0  0  0  0  0  0  0
   -4.7523   31.7218   66.2001 C   0  0  0  0  0  0  0  0  0  0  0  0
   -3.8051   30.8054   67.0357 C   0  0  1  0  0  0  0  0  0  0  0  0
   -4.6317   29.8768   67.9833 C   0  0  1  0  0  0  0  0  0  0  0  0
   -3.6445   28.9514   68.8282 C   0  0  1  0  0  0  0  0  0  0  0  0
   -2.7875   28.0990   67.8470 C   0  0  1  0  0  0  0  0  0  0  0  0
   -2.0144   29.0723   66.9069 C   0  0  2  0  0  0  0  0  0  0  0  0
   -2.3047   25.8865   69.1049 C   0  0  0  0  0  0  0  0  0  0  0  0
   -6.5120   33.4569   66.4063 N   0  0  0  0  0  0  0  0  0  0  0  0
   -1.8275   27.2177   68.6116 N   0  0  0  0  0  0  0  0  0  0  0  0
   -7.4623   30.9231   67.4849 O   0  0  0  0  0  0  0  0  0  0  0  0
   -5.4803   30.7570   68.8408 O   0  0  0  0  0  0  0  0  0  0  0  0
   -2.9310   29.9500   66.1675 O   0  0  0  0  0  0  0  0  0  0  0  0
   -2.7663   29.7631   69.5970 O   0  0  0  0  0  0  0  0  0  0  0  0
   -1.2302   28.3331   65.9775 O   0  0  0  0  0  0  0  0  0  0  0  0
   -0.1598   29.0982   65.3709 C   0  0  2  0  0  0  0  0  0  0  0  0
    0.3814   28.4509   64.0741 C   0  0  1  0  0  0  0  0  0  0  0  0
    1.0921   27.0939   64.3839 C   0  0  2  0  0  0  0  0  0  0  0  0
    2.2492   27.3486   65.3284 C   0  0  1  0  0  0  0  0  0  0  0  0
    1.6981   27.9741   66.6447 C   0  0  1  0  0  0  0  0  0  0  0  0
    2.8098   28.2830   67.6457 C   0  0  0  0  0  0  0  0  0  0  0  0
    2.9427   26.0684   65.6098 N   0  0  0  0  0  0  0  0  0  0  0  0
    0.9763   29.2451   66.3291 O   0  0  0  0  0  0  0  0  0  0  0  0
   -0.7357   28.2941   63.1711 O   0  0  0  0  0  0  0  0  0  0  0  0
    1.5970   26.5230   63.1747 O   0  0  0  0  0  0  0  0  0  0  0  0
    3.7325   29.1676   67.0578 O   0  0  0  0  0  0  0  0  0  0  0  0
   -8.2795   29.8518   68.1737 C   0  0  1  0  0  0  0  0  0  0  0  0
   -9.1018   30.5195   69.3098 C   0  0  1  0  0  0  0  0  0  0  0  0
   -9.9565   29.4495   70.0490 C   0  0  2  0  0  0  0  0  0  0  0  0
  -10.9232   28.7845   69.0383 C   0  0  1  0  0  0  0  0  0  0  0  0
  -10.1170   28.0927   67.8813 C   0  0  0  0  0  0  0  0  0  0  0  0
   -9.2659   29.1691   67.1744 C   0  0  2  0  0  0  0  0  0  0  0  0
  -11.7482   27.7673   69.7333 N   0  0  0  0  0  0  0  0  0  0  0  0
   -8.5156   28.5152   66.0967 N   0  0  0  0  0  0  0  0  0  0  0  0
   -8.2016   31.1424   70.2527 O   0  0  0  0  0  0  0  0  0  0  0  0
  -10.7054   30.0946   71.1030 O   0  0  0  0  0  0  0  0  0  0  0  0
  1  2  1  0  0  0  0
  1 12  1  6  0  0  0
  1 13  1  0  0  0  0
  2  3  1  0  0  0  0
  2 10  1  6  0  0  0
  4  3  1  6  0  0  0
  4  5  1  0  0  0  0
  4 14  1  0  0  0  0
  5  6  1  0  0  0  0
  5 13  1  1  0  0  0
  6  7  1  0  0  0  0
  6 15  1  6  0  0  0
  7  8  1  0  0  0  0
  7 11  1  1  0  0  0
  8 14  1  0  0  0  0
  8 16  1  6  0  0  0
  9 11  1  0  0  0  0
 17 16  1  1  0  0  0
 17 18  1  0  0  0  0
 17 24  1  0  0  0  0
 18 19  1  0  0  0  0
 18 25  1  6  0  0  0
 19 20  1  0  0  0  0
 19 26  1  6  0  0  0
 20 21  1  0  0  0  0
 20 23  1  1  0  0  0
 21 22  1  1  0  0  0
 21 24  1  0  0  0  0
 22 27  1  0  0  0  0
 28 12  1  6  0  0  0
 28 29  1  0  0  0  0
 28 33  1  0  0  0  0
 29 30  1  0  0  0  0
 29 36  1  1  0  0  0
 30 31  1  0  0  0  0
 30 37  1  1  0  0  0
 31 32  1  0  0  0  0
 31 34  1  1  0  0  0
 32 33  1  0  0  0  0
 33 35  1  6  0  0  0
M  END
>  <CHROM.1>
171.91448813,85.42773692,-160.58447143,63.84830579,-161.76213657,58.44897286
-3.85396838,29.18923727,67.29517658,-3.10675581,-0.34150582,2.68740273

>  <Name>
ligand

>  <RI>
0

>  <Rbt.Current_Directory>
/home/itssahil/PROJECTS/Mol_Feturizer/Test_systems_manuscript/rnas/2g5k

>  <Rbt.Executable>
rbdock ($Id: //depot/dev/client3/rdock/2013.1/src/exe/rbdock.cxx#4 $)

>  <Rbt.Library>
libRbt.so (2013.1, Build901 2013/11/27)

>  <Rbt.Parameter_File>
/export/apps/rDock/src/rDock_2013.1_src/data/scripts/dock_solv.prm

>  <Rbt.Receptor>
prm/pocket_docking_5.prm

>  <SCORE>
-10.073

>  <SCORE.INTER>
-6.11068

>  <SCORE.INTER.CONST>
1

>  <SCORE.INTER.POLAR>
0

>  <SCORE.INTER.ROT>
6

>  <SCORE.INTER.SOLV>
11.5087

>  <SCORE.INTER.VDW>
-15.51

>  <SCORE.INTER.norm>
-0.165154

>  <SCORE.INTRA>
-3.96229

>  <SCORE.INTRA.DIHEDRAL>
-7.28986

>  <SCORE.INTRA.DIHEDRAL.0>
11.3972

>  <SCORE.INTRA.POLAR>
0

>  <SCORE.INTRA.POLAR.0>
0

>  <SCORE.INTRA.REPUL>
0

>  <SCORE.INTRA.REPUL.0>
0

>  <SCORE.INTRA.SOLV>
-1.05716

>  <SCORE.INTRA.SOLV.lig_0>
-92.3891

>  <SCORE.INTRA.VDW>
0.211217

>  <SCORE.INTRA.VDW.0>
-2.90606

>  <SCORE.INTRA.norm>
-0.107089

>  <SCORE.RESTR>
0

>  <SCORE.RESTR.CAVITY>
0

>  <SCORE.RESTR.norm>
0

>  <SCORE.SYSTEM>
0

>  <SCORE.SYSTEM.CONST>
0

>  <SCORE.SYSTEM.DIHEDRAL>
0

>  <SCORE.SYSTEM.SOLV>
0

>  <SCORE.SYSTEM.norm>
0

>  <SCORE.heavy>
37

>  <SCORE.norm>
-0.272243

>  <RMSD>
10.189

$$$$
ligand
 OpenBabel02271912133D
libRbt.so/2013.1/901 2013/11/27
 37 40  0  0  0  0  0  0  0  0999 V2000
   -7.8058   31.6963   64.6143 C   0  0  1  0  0  0  0  0  0  0  0  0
   -6.9448   32.6098   63.6964 C   0  0  1  0  0  0  0  0  0  0  0  0
   -5.5801   31.9751   63.3674 C   0  0  0  0  0  0  0  0  0  0  0  0
   -4.8335   31.6621   64.7015 C   0  0  1  0  0  0  0  0  0  0  0  0
   -5.6827   30.7017   65.5960 C   0  0  1  0  0  0  0  0  0  0  0  0
   -4.9023   30.3972   66.9536 C   0  0  1  0  0  0  0  0  0  0  0  0
   -3.5295   29.7470   66.6123 C   0  0  1  0  0  0  0  0  0  0  0  0
   -2.7423   30.7296   65.6938 C   0  0  2  0  0  0  0  0  0  0  0  0
   -2.5933   28.0336   68.3147 C   0  0  0  0  0  0  0  0  0  0  0  0
   -7.6754   32.9362   62.4535 N   0  0  0  0  0  0  0  0  0  0  0  0
   -2.7530   29.4565   67.8754 N   0  0  0  0  0  0  0  0  0  0  0  0
   -8.2493   30.5001   63.9444 O   0  0  0  0  0  0  0  0  0  0  0  0
   -7.0065   31.3554   65.8202 O   0  0  0  0  0  0  0  0  0  0  0  0
   -3.4898   31.0381   64.4676 O   0  0  0  0  0  0  0  0  0  0  0  0
   -4.6589   31.6125   67.6500 O   0  0  0  0  0  0  0  0  0  0  0  0
   -1.4847   30.1655   65.3401 O   0  0  0  0  0  0  0  0  0  0  0  0
   -0.5067   31.1384   64.8970 C   0  0  2  0  0  0  0  0  0  0  0  0
    0.8235   30.4906   64.4452 C   0  0  1  0  0  0  0  0  0  0  0  0
    1.5573   29.8250   65.6539 C   0  0  2  0  0  0  0  0  0  0  0  0
    1.8535   30.8857   66.6947 C   0  0  1  0  0  0  0  0  0  0  0  0
    0.5101   31.5166   67.1688 C   0  0  1  0  0  0  0  0  0  0  0  0
    0.7245   32.6160   68.2074 C   0  0  0  0  0  0  0  0  0  0  0  0
    2.5699   30.2660   67.8356 N   0  0  0  0  0  0  0  0  0  0  0  0
   -0.2065   32.1047   65.9954 O   0  0  0  0  0  0  0  0  0  0  0  0
    0.5091   29.5420   63.4015 O   0  0  0  0  0  0  0  0  0  0  0  0
    2.7894   29.2477   65.2159 O   0  0  0  0  0  0  0  0  0  0  0  0
    1.0670   32.0309   69.4402 O   0  0  0  0  0  0  0  0  0  0  0  0
   -9.1499   29.4717   64.5936 C   0  0  1  0  0  0  0  0  0  0  0  0
  -10.5987   30.0314   64.6088 C   0  0  1  0  0  0  0  0  0  0  0  0
  -11.5602   29.0040   65.2735 C   0  0  2  0  0  0  0  0  0  0  0  0
  -11.5287   27.6828   64.4661 C   0  0  1  0  0  0  0  0  0  0  0  0
  -10.0748   27.0890   64.4415 C   0  0  0  0  0  0  0  0  0  0  0  0
   -9.1380   28.1308   63.7938 C   0  0  2  0  0  0  0  0  0  0  0  0
  -12.4472   26.6979   65.0864 N   0  0  0  0  0  0  0  0  0  0  0  0
   -7.7828   27.5695   63.7758 N   0  0  0  0  0  0  0  0  0  0  0  0
  -10.6296   31.2653   65.3599 O   0  0  0  0  0  0  0  0  0  0  0  0
  -12.8977   29.5508   65.2806 O   0  0  0  0  0  0  0  0  0  0  0  0
  1  2  1  0  0  0  0
  1 12  1  6  0  0  0
  1 13  1  0  0  0  0
  2  3  1  0  0  0  0
  2 10  1  6  0  0  0
  4  3  1  6  0  0  0
  4  5  1  0  0  0  0
  4 14  1  0  0  0  0
  5  6  1  0  0  0  0
  5 13  1  1  0  0  0
  6  7  1  0  0  0  0
  6 15  1  6  0  0  0
  7  8  1  0  0  0  0
  7 11  1  1  0  0  0
  8 14  1  0  0  0  0
  8 16  1  6  0  0  0
  9 11  1  0  0  0  0
 17 16  1  1  0  0  0
 17 18  1  0  0  0  0
 17 24  1  0  0  0  0
 18 19  1  0  0  0  0
 18 25  1  6  0  0  0
 19 20  1  0  0  0  0
 19 26  1  6  0  0  0
 20 21  1  0  0  0  0
 20 23  1  1  0  0  0
 21 22  1  1  0  0  0
 21 24  1  0  0  0  0
 22 27  1  0  0  0  0
 28 12  1  6  0  0  0
 28 29  1  0  0  0  0
 28 33  1  0  0  0  0
 29 30  1  0  0  0  0
 29 36  1  1  0  0  0
 30 31  1  0  0  0  0
 30 37  1  6  0  0  0
 31 32  1  0  0  0  0
 31 34  1  1  0  0  0
 32 33  1  0  0  0  0
 33 35  1  1  0  0  0
M  END
>  <CHROM.1>
-177.31844499,108.28818961,-159.73260081,76.23701041,-176.82687158,-74.30687647
-4.66351810,30.30512534,65.49809559,3.11705513,0.20603040,2.62044339

>  <Name>
ligand

>  <RI>
0

>  <Rbt.Current_Directory>
/home/itssahil/PROJECTS/Mol_Feturizer/Test_systems_manuscript/rnas/2g5k

>  <Rbt.Executable>
rbdock ($Id: //depot/dev/client3/rdock/2013.1/src/exe/rbdock.cxx#4 $)

>  <Rbt.Library>
libRbt.so (2013.1, Build901 2013/11/27)

>  <Rbt.Parameter_File>
/export/apps/rDock/src/rDock_2013.1_src/data/scripts/dock_solv.prm

>  <Rbt.Receptor>
prm/pocket_docking_6.prm

>  <SCORE>
-7.94373

>  <SCORE.INTER>
-4.12405

>  <SCORE.INTER.CONST>
1

>  <SCORE.INTER.POLAR>
0

>  <SCORE.INTER.ROT>
6

>  <SCORE.INTER.SOLV>
11.5732

>  <SCORE.INTER.VDW>
-14.2071

>  <SCORE.INTER.norm>
-0.111461

>  <SCORE.INTRA>
-3.81968

>  <SCORE.INTRA.DIHEDRAL>
-6.42604

>  <SCORE.INTRA.DIHEDRAL.0>
11.3972

>  <SCORE.INTRA.POLAR>
0

>  <SCORE.INTRA.POLAR.0>
0

>  <SCORE.INTRA.REPUL>
0

>  <SCORE.INTRA.REPUL.0>
0

>  <SCORE.INTRA.SOLV>
-0.595204

>  <SCORE.INTRA.SOLV.lig_0>
-92.3891

>  <SCORE.INTRA.VDW>
-0.309063

>  <SCORE.INTRA.VDW.0>
-2.90606

>  <SCORE.INTRA.norm>
-0.103235

>  <SCORE.RESTR>
0

>  <SCORE.RESTR.CAVITY>
0

>  <SCORE.RESTR.norm>
0

>  <SCORE.SYSTEM>
0

>  <SCORE.SYSTEM.CONST>
0

>  <SCORE.SYSTEM.DIHEDRAL>
0

>  <SCORE.SYSTEM.SOLV>
0

>  <SCORE.SYSTEM.norm>
0

>  <SCORE.heavy>
37

>  <SCORE.norm>
-0.214696

>  <RMSD>
10.194

$$$$
ligand
 OpenBabel02271912133D
libRbt.so/2013.1/901 2013/11/27
 37 40  0  0  0  0  0  0  0  0999 V2000
   -9.5271   28.6409   66.3674 C   0  0  1  0  0  0  0  0  0  0  0  0
   -8.9679   27.1965   66.5074 C   0  0  1  0  0  0  0  0  0  0  0  0
   -7.8057   27.1231   67.5161 C   0  0  0  0  0  0  0  0  0  0  0  0
   -6.6859   28.1141   67.0699 C   0  0  1  0  0  0  0  0  0  0  0  0
   -7.2431   29.5719   66.9818 C   0  0  1  0  0  0  0  0  0  0  0  0
   -6.0835   30.5664   66.5227 C   0  0  1  0  0  0  0  0  0  0  0  0
   -4.9181   30.4933   67.5525 C   0  0  1  0  0  0  0  0  0  0  0  0
   -4.4263   29.0162   67.6246 C   0  0  2  0  0  0  0  0  0  0  0  0
   -2.8713   31.9436   68.1988 C   0  0  0  0  0  0  0  0  0  0  0  0
  -10.0431   26.2566   66.8892 N   0  0  0  0  0  0  0  0  0  0  0  0
   -3.7917   31.4133   67.1430 N   0  0  0  0  0  0  0  0  0  0  0  0
  -10.2082   29.0876   67.5560 O   0  0  0  0  0  0  0  0  0  0  0  0
   -8.3993   29.5509   66.0369 O   0  0  0  0  0  0  0  0  0  0  0  0
   -5.5128   28.1038   68.0045 O   0  0  0  0  0  0  0  0  0  0  0  0
   -5.5826   30.1662   65.2539 O   0  0  0  0  0  0  0  0  0  0  0  0
   -3.3706   28.8990   68.5715 O   0  0  0  0  0  0  0  0  0  0  0  0
   -2.7495   27.5904   68.6018 C   0  0  2  0  0  0  0  0  0  0  0  0
   -1.4590   27.5571   69.4543 C   0  0  1  0  0  0  0  0  0  0  0  0
   -0.3383   28.4295   68.8020 C   0  0  2  0  0  0  0  0  0  0  0  0
   -0.0319   27.8855   67.4214 C   0  0  1  0  0  0  0  0  0  0  0  0
   -1.3261   27.9466   66.5560 C   0  0  1  0  0  0  0  0  0  0  0  0
   -1.1059   27.3926   65.1497 C   0  0  0  0  0  0  0  0  0  0  0  0
    1.0467   28.6947   66.8043 N   0  0  0  0  0  0  0  0  0  0  0  0
   -2.4060   27.1504   67.2165 O   0  0  0  0  0  0  0  0  0  0  0  0
   -1.8067   28.0097   70.7818 O   0  0  0  0  0  0  0  0  0  0  0  0
    0.8476   28.3710   69.5977 O   0  0  0  0  0  0  0  0  0  0  0  0
   -2.3103   27.4671   64.4264 O   0  0  0  0  0  0  0  0  0  0  0  0
  -10.9960   30.3779   67.6247 C   0  0  1  0  0  0  0  0  0  0  0  0
  -10.0204   31.5599   67.3720 C   0  0  1  0  0  0  0  0  0  0  0  0
  -10.7909   32.9104   67.4378 C   0  0  2  0  0  0  0  0  0  0  0  0
  -11.8973   32.9174   66.3542 C   0  0  1  0  0  0  0  0  0  0  0  0
  -12.9047   31.7357   66.5907 C   0  0  0  0  0  0  0  0  0  0  0  0
  -12.1160   30.4099   66.5373 C   0  0  2  0  0  0  0  0  0  0  0  0
  -12.6340   34.2032   66.4027 N   0  0  0  0  0  0  0  0  0  0  0  0
  -13.0631   29.3121   66.7603 N   0  0  0  0  0  0  0  0  0  0  0  0
   -8.9862   31.5537   68.3808 O   0  0  0  0  0  0  0  0  0  0  0  0
   -9.8610   33.9919   67.2061 O   0  0  0  0  0  0  0  0  0  0  0  0
  1  2  1  0  0  0  0
  1 12  1  1  0  0  0
  1 13  1  0  0  0  0
  2  3  1  0  0  0  0
  2 10  1  1  0  0  0
  4  3  1  1  0  0  0
  4  5  1  0  0  0  0
  4 14  1  0  0  0  0
  5  6  1  0  0  0  0
  5 13  1  6  0  0  0
  6  7  1  0  0  0  0
  6 15  1  6  0  0  0
  7  8  1  0  0  0  0
  7 11  1  6  0  0  0
  8 14  1  0  0  0  0
  8 16  1  1  0  0  0
  9 11  1  0  0  0  0
 17 16  1  6  0  0  0
 17 18  1  0  0  0  0
 17 24  1  0  0  0  0
 18 19  1  0  0  0  0
 18 25  1  1  0  0  0
 19 20  1  0  0  0  0
 19 26  1  1  0  0  0
 20 21  1  0  0  0  0
 20 23  1  6  0  0  0
 21 22  1  6  0  0  0
 21 24  1  0  0  0  0
 22 27  1  0  0  0  0
 28 12  1  6  0  0  0
 28 29  1  0  0  0  0
 28 33  1  0  0  0  0
 29 30  1  0  0  0  0
 29 36  1  1  0  0  0
 30 31  1  0  0  0  0
 30 37  1  6  0  0  0
 31 32  1  0  0  0  0
 31 34  1  1  0  0  0
 32 33  1  0  0  0  0
 33 35  1  1  0  0  0
M  END
>  <CHROM.1>
-171.86386028,154.52792291,-173.58449238,-62.44091018,170.12684668,179.56334940
-6.17069567,29.50007375,67.28870207,2.87277081,-0.13048778,0.12945412

>  <Name>
ligand

>  <RI>
0

>  <Rbt.Current_Directory>
/home/itssahil/PROJECTS/Mol_Feturizer/Test_systems_manuscript/rnas/2g5k

>  <Rbt.Executable>
rbdock ($Id: //depot/dev/client3/rdock/2013.1/src/exe/rbdock.cxx#4 $)

>  <Rbt.Library>
libRbt.so (2013.1, Build901 2013/11/27)

>  <Rbt.Parameter_File>
/export/apps/rDock/src/rDock_2013.1_src/data/scripts/dock_solv.prm

>  <Rbt.Receptor>
prm/pocket_docking_4.prm

>  <SCORE>
-9.6284

>  <SCORE.INTER>
-3.92288

>  <SCORE.INTER.CONST>
1

>  <SCORE.INTER.POLAR>
0

>  <SCORE.INTER.ROT>
6

>  <SCORE.INTER.SOLV>
9.52391

>  <SCORE.INTER.VDW>
-13.3899

>  <SCORE.INTER.norm>
-0.106024

>  <SCORE.INTRA>
-5.71778

>  <SCORE.INTRA.DIHEDRAL>
-9.87913

>  <SCORE.INTRA.DIHEDRAL.0>
11.3972

>  <SCORE.INTRA.POLAR>
0

>  <SCORE.INTRA.POLAR.0>
0

>  <SCORE.INTRA.REPUL>
0.00453533

>  <SCORE.INTRA.REPUL.0>
0

>  <SCORE.INTRA.SOLV>
-0.760009

>  <SCORE.INTRA.SOLV.lig_0>
-92.3891

>  <SCORE.INTRA.VDW>
-0.420888

>  <SCORE.INTRA.VDW.0>
-2.90606

>  <SCORE.INTRA.norm>
-0.154535

>  <SCORE.RESTR>
0.0122635

>  <SCORE.RESTR.CAVITY>
0.0122635

>  <SCORE.RESTR.norm>
0.000331447

>  <SCORE.SYSTEM>
0

>  <SCORE.SYSTEM.CONST>
0

>  <SCORE.SYSTEM.DIHEDRAL>
0

>  <SCORE.SYSTEM.SOLV>
0

>  <SCORE.SYSTEM.norm>
0

>  <SCORE.heavy>
37

>  <SCORE.norm>
-0.260227

>  <RMSD>
10.207

$$$$
ligand
 OpenBabel02271912133D
libRbt.so/2013.1/901 2013/11/27
 37 40  0  0  0  0  0  0  0  0999 V2000
   -7.3048   31.7384   68.4128 C   0  0  1  0  0  0  0  0  0  0  0  0
   -6.7287   32.8779   67.5250 C   0  0  1  0  0  0  0  0  0  0  0  0
   -5.7967   32.3365   66.4242 C   0  0  0  0  0  0  0  0  0  0  0  0
   -4.6498   31.5153   67.0917 C   0  0  1  0  0  0  0  0  0  0  0  0
   -5.2353   30.3403   67.9403 C   0  0  1  0  0  0  0  0  0  0  0  0
   -4.0470   29.5165   68.6141 C   0  0  1  0  0  0  0  0  0  0  0  0
   -3.1163   28.9649   67.4946 C   0  0  1  0  0  0  0  0  0  0  0  0
   -2.5908   30.1728   66.6617 C   0  0  2  0  0  0  0  0  0  0  0  0
   -1.4922   26.9489   67.4040 C   0  0  0  0  0  0  0  0  0  0  0  0
   -7.8207   33.6771   66.9300 N   0  0  0  0  0  0  0  0  0  0  0  0
   -1.9677   28.1891   68.0959 N   0  0  0  0  0  0  0  0  0  0  0  0
   -8.2331   30.8980   67.6999 O   0  0  0  0  0  0  0  0  0  0  0  0
   -6.1706   30.9356   68.9406 O   0  0  0  0  0  0  0  0  0  0  0  0
   -3.6946   30.9500   66.0830 O   0  0  0  0  0  0  0  0  0  0  0  0
   -3.2802   30.3756   69.4479 O   0  0  0  0  0  0  0  0  0  0  0  0
   -1.7485   29.7118   65.6114 O   0  0  0  0  0  0  0  0  0  0  0  0
   -1.0343   30.7678   64.9230 C   0  0  2  0  0  0  0  0  0  0  0  0
   -0.3910   30.2938   63.5982 C   0  0  1  0  0  0  0  0  0  0  0  0
    0.7489   29.2602   63.8715 C   0  0  2  0  0  0  0  0  0  0  0  0
    1.8121   29.9154   64.7296 C   0  0  1  0  0  0  0  0  0  0  0  0
    1.1680   30.3662   66.0748 C   0  0  1  0  0  0  0  0  0  0  0  0
    2.1740   31.0594   66.9917 C   0  0  0  0  0  0  0  0  0  0  0  0
    2.9086   28.9476   64.9749 N   0  0  0  0  0  0  0  0  0  0  0  0
    0.0458   31.3148   65.7974 O   0  0  0  0  0  0  0  0  0  0  0  0
   -1.4466   29.7455   62.7778 O   0  0  0  0  0  0  0  0  0  0  0  0
    1.3380   28.8491   62.6358 O   0  0  0  0  0  0  0  0  0  0  0  0
    3.1938   30.1524   67.3334 O   0  0  0  0  0  0  0  0  0  0  0  0
   -8.9100   29.6962   68.3225 C   0  0  1  0  0  0  0  0  0  0  0  0
   -9.7482   30.1822   69.5366 C   0  0  1  0  0  0  0  0  0  0  0  0
  -10.4605   28.9739   70.2107 C   0  0  2  0  0  0  0  0  0  0  0  0
  -11.3960   28.2958   69.1795 C   0  0  1  0  0  0  0  0  0  0  0  0
  -10.5723   27.7860   67.9430 C   0  0  0  0  0  0  0  0  0  0  0  0
   -9.8630   28.9977   67.3018 C   0  0  2  0  0  0  0  0  0  0  0  0
  -12.0859   27.1465   69.8131 N   0  0  0  0  0  0  0  0  0  0  0  0
   -9.0954   28.5133   66.1494 N   0  0  0  0  0  0  0  0  0  0  0  0
   -8.8773   30.8171   70.4988 O   0  0  0  0  0  0  0  0  0  0  0  0
  -11.2267   29.4517   71.3387 O   0  0  0  0  0  0  0  0  0  0  0  0
  1  2  1  0  0  0  0
  1 12  1  6  0  0  0
  1 13  1  0  0  0  0
  2  3  1  0  0  0  0
  2 10  1  6  0  0  0
  4  3  1  6  0  0  0
  4  5  1  0  0  0  0
  4 14  1  0  0  0  0
  5  6  1  0  0  0  0
  5 13  1  1  0  0  0
  6  7  1  0  0  0  0
  6 15  1  1  0  0  0
  7  8  1  0  0  0  0
  7 11  1  1  0  0  0
  8 14  1  0  0  0  0
  8 16  1  6  0  0  0
  9 11  1  0  0  0  0
 17 16  1  1  0  0  0
 17 18  1  0  0  0  0
 17 24  1  0  0  0  0
 18 19  1  0  0  0  0
 18 25  1  6  0  0  0
 19 20  1  0  0  0  0
 19 26  1  6  0  0  0
 20 21  1  0  0  0  0
 20 23  1  1  0  0  0
 21 22  1  1  0  0  0
 21 24  1  0  0  0  0
 22 27  1  0  0  0  0
 28 12  1  6  0  0  0
 28 29  1  0  0  0  0
 28 33  1  0  0  0  0
 29 30  1  0  0  0  0
 29 36  1  1  0  0  0
 30 31  1  0  0  0  0
 30 37  1  1  0  0  0
 31 32  1  0  0  0  0
 31 34  1  1  0  0  0
 32 33  1  0  0  0  0
 33 35  1  6  0  0  0
M  END
>  <CHROM.1>
178.43011684,141.99543241,-170.16282569,60.27211277,-166.73232150,-62.67029956
-4.42436012,29.99418976,67.14421039,2.93257985,-0.27539598,2.54967291

>  <Name>
ligand

>  <RI>
0

>  <Rbt.Current_Directory>
/home/itssahil/PROJECTS/Mol_Feturizer/Test_systems_manuscript/rnas/2g5k

>  <Rbt.Executable>
rbdock ($Id: //depot/dev/client3/rdock/2013.1/src/exe/rbdock.cxx#4 $)

>  <Rbt.Library>
libRbt.so (2013.1, Build901 2013/11/27)

>  <Rbt.Parameter_File>
/export/apps/rDock/src/rDock_2013.1_src/data/scripts/dock_solv.prm

>  <Rbt.Receptor>
prm/pocket_docking_6.prm

>  <SCORE>
-12.1247

>  <SCORE.INTER>
-7.47003

>  <SCORE.INTER.CONST>
1

>  <SCORE.INTER.POLAR>
0

>  <SCORE.INTER.ROT>
6

>  <SCORE.INTER.SOLV>
11.4493

>  <SCORE.INTER.VDW>
-16.3965

>  <SCORE.INTER.norm>
-0.201893

>  <SCORE.INTRA>
-4.65465

>  <SCORE.INTRA.DIHEDRAL>
-9.18016

>  <SCORE.INTRA.DIHEDRAL.0>
11.3972

>  <SCORE.INTRA.POLAR>
0

>  <SCORE.INTRA.POLAR.0>
0

>  <SCORE.INTRA.REPUL>
0

>  <SCORE.INTRA.REPUL.0>
0

>  <SCORE.INTRA.SOLV>
-0.87974

>  <SCORE.INTRA.SOLV.lig_0>
-92.3891

>  <SCORE.INTRA.VDW>
0.375304

>  <SCORE.INTRA.VDW.0>
-2.90606

>  <SCORE.INTRA.norm>
-0.125801

>  <SCORE.RESTR>
0

>  <SCORE.RESTR.CAVITY>
0

>  <SCORE.RESTR.norm>
0

>  <SCORE.SYSTEM>
0

>  <SCORE.SYSTEM.CONST>
0

>  <SCORE.SYSTEM.DIHEDRAL>
0

>  <SCORE.SYSTEM.SOLV>
0

>  <SCORE.SYSTEM.norm>
0

>  <SCORE.heavy>
37

>  <SCORE.norm>
-0.327694

>  <RMSD>
10.207

$$$$
ligand
 OpenBabel02271912133D
libRbt.so/2013.1/901 2013/11/27
 37 40  0  0  0  0  0  0  0  0999 V2000
   -4.8434   29.5270   65.0406 C   0  0  1  0  0  0  0  0  0  0  0  0
   -5.0894   28.0341   65.4002 C   0  0  1  0  0  0  0  0  0  0  0  0
   -3.8045   27.3395   65.8901 C   0  0  0  0  0  0  0  0  0  0  0  0
   -2.7060   27.4747   64.7900 C   0  0  1  0  0  0  0  0  0  0  0  0
   -2.4274   28.9795   64.4715 C   0  0  1  0  0  0  0  0  0  0  0  0
   -1.3042   29.0939   63.3445 C   0  0  1  0  0  0  0  0  0  0  0  0
   -0.0069   28.3985   63.8518 C   0  0  1  0  0  0  0  0  0  0  0  0
   -0.3503   26.9155   64.1859 C   0  0  2  0  0  0  0  0  0  0  0  0
    1.8638   29.7414   62.6655 C   0  0  0  0  0  0  0  0  0  0  0  0
   -6.1603   27.9118   66.4118 N   0  0  0  0  0  0  0  0  0  0  0  0
    1.0784   28.4737   62.8033 N   0  0  0  0  0  0  0  0  0  0  0  0
   -4.5570   30.3347   66.1990 O   0  0  0  0  0  0  0  0  0  0  0  0
   -3.7249   29.5965   64.0642 O   0  0  0  0  0  0  0  0  0  0  0  0
   -1.4166   26.8220   65.1915 O   0  0  0  0  0  0  0  0  0  0  0  0
   -1.7366   28.4255   62.1666 O   0  0  0  0  0  0  0  0  0  0  0  0
    0.8062   26.2447   64.6733 O   0  0  0  0  0  0  0  0  0  0  0  0
    0.9261   24.8737   64.2205 C   0  0  2  0  0  0  0  0  0  0  0  0
    1.7592   23.9938   65.1824 C   0  0  1  0  0  0  0  0  0  0  0  0
    3.2521   24.4556   65.2072 C   0  0  2  0  0  0  0  0  0  0  0  0
    3.8266   24.3396   63.8099 C   0  0  1  0  0  0  0  0  0  0  0  0
    3.0035   25.2487   62.8488 C   0  0  1  0  0  0  0  0  0  0  0  0
    3.5078   25.1708   61.4090 C   0  0  0  0  0  0  0  0  0  0  0  0
    5.2499   24.7551   63.8295 N   0  0  0  0  0  0  0  0  0  0  0  0
    1.5682   24.8299   62.8728 O   0  0  0  0  0  0  0  0  0  0  0  0
    1.1374   24.0696   66.4846 O   0  0  0  0  0  0  0  0  0  0  0  0
    4.0044   23.6195   66.0893 O   0  0  0  0  0  0  0  0  0  0  0  0
    3.3905   23.8474   60.9460 O   0  0  0  0  0  0  0  0  0  0  0  0
   -4.0724   31.7657   66.1126 C   0  0  1  0  0  0  0  0  0  0  0  0
   -5.1955   32.6236   65.4680 C   0  0  1  0  0  0  0  0  0  0  0  0
   -4.7361   34.1063   65.3564 C   0  0  2  0  0  0  0  0  0  0  0  0
   -4.4241   34.6495   66.7727 C   0  0  1  0  0  0  0  0  0  0  0  0
   -3.2839   33.8045   67.4458 C   0  0  0  0  0  0  0  0  0  0  0  0
   -3.7552   32.3372   67.5306 C   0  0  2  0  0  0  0  0  0  0  0  0
   -3.9919   36.0647   66.6795 N   0  0  0  0  0  0  0  0  0  0  0  0
   -2.6849   31.5550   68.1587 N   0  0  0  0  0  0  0  0  0  0  0  0
   -5.4894   32.1170   64.1473 O   0  0  0  0  0  0  0  0  0  0  0  0
   -5.7945   34.8800   64.7490 O   0  0  0  0  0  0  0  0  0  0  0  0
  1  2  1  0  0  0  0
  1 12  1  1  0  0  0
  1 13  1  0  0  0  0
  2  3  1  0  0  0  0
  2 10  1  1  0  0  0
  4  3  1  1  0  0  0
  4  5  1  0  0  0  0
  4 14  1  0  0  0  0
  5  6  1  0  0  0  0
  5 13  1  6  0  0  0
  6  7  1  0  0  0  0
  6 15  1  6  0  0  0
  7  8  1  0  0  0  0
  7 11  1  6  0  0  0
  8 14  1  0  0  0  0
  8 16  1  1  0  0  0
  9 11  1  0  0  0  0
 17 16  1  1  0  0  0
 17 18  1  0  0  0  0
 17 24  1  0  0  0  0
 18 19  1  0  0  0  0
 18 25  1  1  0  0  0
 19 20  1  0  0  0  0
 19 26  1  1  0  0  0
 20 21  1  0  0  0  0
 20 23  1  1  0  0  0
 21 22  1  6  0  0  0
 21 24  1  0  0  0  0
 22 27  1  0  0  0  0
 28 12  1  1  0  0  0
 28 29  1  0  0  0  0
 28 33  1  0  0  0  0
 29 30  1  0  0  0  0
 29 36  1  6  0  0  0
 30 31  1  0  0  0  0
 30 37  1  1  0  0  0
 31 32  1  0  0  0  0
 31 34  1  6  0  0  0
 32 33  1  0  0  0  0
 33 35  1  6  0  0  0
M  END
>  <CHROM.1>
170.25902458,80.16734714,-141.95263023,64.64674747,-154.64170622,60.78594839
-1.22547411,28.51626618,64.74208811,2.42410929,0.47795125,-0.21351411

>  <Name>
ligand

>  <RI>
0

>  <Rbt.Current_Directory>
/home/itssahil/PROJECTS/Mol_Feturizer/Test_systems_manuscript/rnas/2g5k

>  <Rbt.Executable>
rbdock ($Id: //depot/dev/client3/rdock/2013.1/src/exe/rbdock.cxx#4 $)

>  <Rbt.Library>
libRbt.so (2013.1, Build901 2013/11/27)

>  <Rbt.Parameter_File>
/export/apps/rDock/src/rDock_2013.1_src/data/scripts/dock_solv.prm

>  <Rbt.Receptor>
prm/pocket_docking_6.prm

>  <SCORE>
-10.3676

>  <SCORE.INTER>
-8.64524

>  <SCORE.INTER.CONST>
1

>  <SCORE.INTER.POLAR>
0

>  <SCORE.INTER.ROT>
6

>  <SCORE.INTER.SOLV>
13.5908

>  <SCORE.INTER.VDW>
-17.8938

>  <SCORE.INTER.norm>
-0.233655

>  <SCORE.INTRA>
-1.72232

>  <SCORE.INTRA.DIHEDRAL>
-2.71789

>  <SCORE.INTRA.DIHEDRAL.0>
11.3972

>  <SCORE.INTRA.POLAR>
0

>  <SCORE.INTRA.POLAR.0>
0

>  <SCORE.INTRA.REPUL>
0

>  <SCORE.INTRA.REPUL.0>
0

>  <SCORE.INTRA.SOLV>
-0.608065

>  <SCORE.INTRA.SOLV.lig_0>
-92.3891

>  <SCORE.INTRA.VDW>
-0.0593402

>  <SCORE.INTRA.VDW.0>
-2.90606

>  <SCORE.INTRA.norm>
-0.0465492

>  <SCORE.RESTR>
0

>  <SCORE.RESTR.CAVITY>
0

>  <SCORE.RESTR.norm>
0

>  <SCORE.SYSTEM>
0

>  <SCORE.SYSTEM.CONST>
0

>  <SCORE.SYSTEM.DIHEDRAL>
0

>  <SCORE.SYSTEM.SOLV>
0

>  <SCORE.SYSTEM.norm>
0

>  <SCORE.heavy>
37

>  <SCORE.norm>
-0.280204

>  <RMSD>
10.212

$$$$
ligand
 OpenBabel02271912133D
libRbt.so/2013.1/901 2013/11/27
 37 40  0  0  0  0  0  0  0  0999 V2000
   -5.8595   31.9884   68.2075 C   0  0  1  0  0  0  0  0  0  0  0  0
   -5.1836   33.1815   67.4739 C   0  0  1  0  0  0  0  0  0  0  0  0
   -4.2916   32.7117   66.3090 C   0  0  0  0  0  0  0  0  0  0  0  0
   -3.2223   31.7177   66.8602 C   0  0  1  0  0  0  0  0  0  0  0  0
   -3.9103   30.4954   67.5504 C   0  0  1  0  0  0  0  0  0  0  0  0
   -2.8000   29.4945   68.1074 C   0  0  1  0  0  0  0  0  0  0  0  0
   -1.9099   29.0173   66.9226 C   0  0  1  0  0  0  0  0  0  0  0  0
   -1.2792   30.2749   66.2524 C   0  0  2  0  0  0  0  0  0  0  0  0
   -0.5127   26.8595   66.6026 C   0  0  0  0  0  0  0  0  0  0  0  0
   -6.2005   34.1398   66.9915 N   0  0  0  0  0  0  0  0  0  0  0  0
   -0.8347   28.0764   67.4141 N   0  0  0  0  0  0  0  0  0  0  0  0
   -6.8492   31.3285   67.3943 O   0  0  0  0  0  0  0  0  0  0  0  0
   -4.8004   31.0318   68.6227 O   0  0  0  0  0  0  0  0  0  0  0  0
   -2.3097   31.2104   65.7834 O   0  0  0  0  0  0  0  0  0  0  0  0
   -1.9707   30.1707   69.0435 O   0  0  0  0  0  0  0  0  0  0  0  0
   -0.4701   29.8855   65.1484 O   0  0  0  0  0  0  0  0  0  0  0  0
    0.4858   30.8927   64.7348 C   0  0  2  0  0  0  0  0  0  0  0  0
    0.9752   30.6956   63.2805 C   0  0  1  0  0  0  0  0  0  0  0  0
    1.8137   29.3835   63.1482 C   0  0  2  0  0  0  0  0  0  0  0  0
    3.0163   29.4732   64.0657 C   0  0  1  0  0  0  0  0  0  0  0  0
    2.5203   29.6429   65.5329 C   0  0  1  0  0  0  0  0  0  0  0  0
    3.6778   29.7639   66.5223 C   0  0  0  0  0  0  0  0  0  0  0  0
    3.8294   28.2406   63.9294 N   0  0  0  0  0  0  0  0  0  0  0  0
    1.6771   30.8736   65.6353 O   0  0  0  0  0  0  0  0  0  0  0  0
   -0.1923   30.6915   62.4290 O   0  0  0  0  0  0  0  0  0  0  0  0
    2.2677   29.2309   61.8015 O   0  0  0  0  0  0  0  0  0  0  0  0
    3.1641   29.8897   67.8260 O   0  0  0  0  0  0  0  0  0  0  0  0
   -7.6576   30.1418   67.8721 C   0  0  1  0  0  0  0  0  0  0  0  0
   -8.6409   30.6311   68.9706 C   0  0  1  0  0  0  0  0  0  0  0  0
   -9.4920   29.4380   69.4941 C   0  0  2  0  0  0  0  0  0  0  0  0
  -10.2966   28.8330   68.3173 C   0  0  1  0  0  0  0  0  0  0  0  0
   -9.3254   28.3213   67.1939 C   0  0  0  0  0  0  0  0  0  0  0  0
   -8.4819   29.5169   66.7026 C   0  0  2  0  0  0  0  0  0  0  0  0
  -11.1173   27.6989   68.8060 N   0  0  0  0  0  0  0  0  0  0  0  0
   -7.5771   29.0307   65.6551 N   0  0  0  0  0  0  0  0  0  0  0  0
   -7.8920   31.1979   70.0684 O   0  0  0  0  0  0  0  0  0  0  0  0
  -10.3921   29.9182   70.5173 O   0  0  0  0  0  0  0  0  0  0  0  0
  1  2  1  0  0  0  0
  1 12  1  6  0  0  0
  1 13  1  0  0  0  0
  2  3  1  0  0  0  0
  2 10  1  6  0  0  0
  4  3  1  6  0  0  0
  4  5  1  0  0  0  0
  4 14  1  0  0  0  0
  5  6  1  0  0  0  0
  5 13  1  1  0  0  0
  6  7  1  0  0  0  0
  6 15  1  1  0  0  0
  7  8  1  0  0  0  0
  7 11  1  1  0  0  0
  8 14  1  0  0  0  0
  8 16  1  6  0  0  0
  9 11  1  0  0  0  0
 17 16  1  1  0  0  0
 17 18  1  0  0  0  0
 17 24  1  0  0  0  0
 18 19  1  0  0  0  0
 18 25  1  6  0  0  0
 19 20  1  0  0  0  0
 19 26  1  6  0  0  0
 20 21  1  0  0  0  0
 20 23  1  1  0  0  0
 21 22  1  1  0  0  0
 21 24  1  0  0  0  0
 22 27  1  0  0  0  0
 28 12  1  6  0  0  0
 28 29  1  0  0  0  0
 28 33  1  0  0  0  0
 29 30  1  0  0  0  0
 29 36  1  1  0  0  0
 30 31  1  0  0  0  0
 30 37  1  1  0  0  0
 31 32  1  0  0  0  0
 31 34  1  1  0  0  0
 32 33  1  0  0  0  0
 33 35  1  6  0  0  0
M  END
>  <CHROM.1>
-179.71651283,138.59588296,-160.97278442,69.28822313,-159.02323219,-178.94110747
-3.19995943,30.14136750,66.68368539,-3.09251111,-0.34045392,-3.09880718

>  <Name>
ligand

>  <RI>
0

>  <Rbt.Current_Directory>
/home/itssahil/PROJECTS/Mol_Feturizer/Test_systems_manuscript/rnas/2g5k

>  <Rbt.Executable>
rbdock ($Id: //depot/dev/client3/rdock/2013.1/src/exe/rbdock.cxx#4 $)

>  <Rbt.Library>
libRbt.so (2013.1, Build901 2013/11/27)

>  <Rbt.Parameter_File>
/export/apps/rDock/src/rDock_2013.1_src/data/scripts/dock_solv.prm

>  <Rbt.Receptor>
prm/pocket_docking_6.prm

>  <SCORE>
-11.9102

>  <SCORE.INTER>
-7.44249

>  <SCORE.INTER.CONST>
1

>  <SCORE.INTER.POLAR>
0

>  <SCORE.INTER.ROT>
6

>  <SCORE.INTER.SOLV>
11.2505

>  <SCORE.INTER.VDW>
-16.3118

>  <SCORE.INTER.norm>
-0.201148

>  <SCORE.INTRA>
-4.4677

>  <SCORE.INTRA.DIHEDRAL>
-6.40695

>  <SCORE.INTRA.DIHEDRAL.0>
11.3972

>  <SCORE.INTRA.POLAR>
0

>  <SCORE.INTRA.POLAR.0>
0

>  <SCORE.INTRA.REPUL>
0

>  <SCORE.INTRA.REPUL.0>
0

>  <SCORE.INTRA.SOLV>
-1.74325

>  <SCORE.INTRA.SOLV.lig_0>
-92.3891

>  <SCORE.INTRA.VDW>
-0.392593

>  <SCORE.INTRA.VDW.0>
-2.90606

>  <SCORE.INTRA.norm>
-0.120749

>  <SCORE.RESTR>
0

>  <SCORE.RESTR.CAVITY>
0

>  <SCORE.RESTR.norm>
0

>  <SCORE.SYSTEM>
0

>  <SCORE.SYSTEM.CONST>
0

>  <SCORE.SYSTEM.DIHEDRAL>
0

>  <SCORE.SYSTEM.SOLV>
0

>  <SCORE.SYSTEM.norm>
0

>  <SCORE.heavy>
37

>  <SCORE.norm>
-0.321897

>  <RMSD>
10.213

$$$$
ligand
 OpenBabel02271912133D
libRbt.so/2013.1/901 2013/11/27
 37 40  0  0  0  0  0  0  0  0999 V2000
   -4.9212   29.9998   64.8902 C   0  0  1  0  0  0  0  0  0  0  0  0
   -5.2753   28.5621   65.3656 C   0  0  1  0  0  0  0  0  0  0  0  0
   -4.0503   27.8272   65.9425 C   0  0  0  0  0  0  0  0  0  0  0  0
   -2.9246   27.7962   64.8622 C   0  0  1  0  0  0  0  0  0  0  0  0
   -2.5380   29.2471   64.4274 C   0  0  1  0  0  0  0  0  0  0  0  0
   -1.3885   29.1915   63.3227 C   0  0  1  0  0  0  0  0  0  0  0  0
   -0.1516   28.4564   63.9172 C   0  0  1  0  0  0  0  0  0  0  0  0
   -0.6016   27.0329   64.3640 C   0  0  2  0  0  0  0  0  0  0  0  0
    1.8686   29.5450   62.7154 C   0  0  0  0  0  0  0  0  0  0  0  0
   -6.3709   28.5966   66.3574 N   0  0  0  0  0  0  0  0  0  0  0  0
    0.9559   28.3710   62.8929 N   0  0  0  0  0  0  0  0  0  0  0  0
   -4.6021   30.8811   65.9846 O   0  0  0  0  0  0  0  0  0  0  0  0
   -3.7824   29.9126   63.9390 O   0  0  0  0  0  0  0  0  0  0  0  0
   -1.6906   27.0952   65.3476 O   0  0  0  0  0  0  0  0  0  0  0  0
   -1.8433   28.4567   62.1937 O   0  0  0  0  0  0  0  0  0  0  0  0
    0.4970   26.3300   64.9333 O   0  0  0  0  0  0  0  0  0  0  0  0
    0.4986   24.9095   64.6479 C   0  0  2  0  0  0  0  0  0  0  0  0
    1.2383   24.0809   65.7248 C   0  0  1  0  0  0  0  0  0  0  0  0
    2.7661   24.4096   65.7280 C   0  0  2  0  0  0  0  0  0  0  0  0
    3.3439   24.0779   64.3671 C   0  0  1  0  0  0  0  0  0  0  0  0
    2.6169   24.9346   63.2877 C   0  0  1  0  0  0  0  0  0  0  0  0
    3.1286   24.6416   61.8786 C   0  0  0  0  0  0  0  0  0  0  0  0
    4.7985   24.3662   64.3690 N   0  0  0  0  0  0  0  0  0  0  0  0
    1.1496   24.6492   63.3292 O   0  0  0  0  0  0  0  0  0  0  0  0
    0.6109   24.3657   66.9950 O   0  0  0  0  0  0  0  0  0  0  0  0
    3.4302   23.6219   66.7188 O   0  0  0  0  0  0  0  0  0  0  0  0
    4.4536   25.0997   61.7602 O   0  0  0  0  0  0  0  0  0  0  0  0
   -4.2180   32.3326   65.7954 C   0  0  1  0  0  0  0  0  0  0  0  0
   -5.4652   33.1054   65.2854 C   0  0  1  0  0  0  0  0  0  0  0  0
   -5.1124   34.6062   65.0732 C   0  0  2  0  0  0  0  0  0  0  0  0
   -4.6469   35.2139   66.4194 C   0  0  1  0  0  0  0  0  0  0  0  0
   -3.3796   34.4559   66.9549 C   0  0  0  0  0  0  0  0  0  0  0  0
   -3.7488   32.9689   67.1417 C   0  0  2  0  0  0  0  0  0  0  0  0
   -4.3146   36.6465   66.2308 N   0  0  0  0  0  0  0  0  0  0  0  0
   -2.5604   32.2682   67.6404 N   0  0  0  0  0  0  0  0  0  0  0  0
   -5.9023   32.5384   64.0305 O   0  0  0  0  0  0  0  0  0  0  0  0
   -6.2858   35.2998   64.5936 O   0  0  0  0  0  0  0  0  0  0  0  0
  1  2  1  0  0  0  0
  1 12  1  1  0  0  0
  1 13  1  0  0  0  0
  2  3  1  0  0  0  0
  2 10  1  1  0  0  0
  4  3  1  1  0  0  0
  4  5  1  0  0  0  0
  4 14  1  0  0  0  0
  5  6  1  0  0  0  0
  5 13  1  6  0  0  0
  6  7  1  0  0  0  0
  6 15  1  6  0  0  0
  7  8  1  0  0  0  0
  7 11  1  6  0  0  0
  8 14  1  0  0  0  0
  8 16  1  1  0  0  0
  9 11  1  0  0  0  0
 17 16  1  1  0  0  0
 17 18  1  0  0  0  0
 17 24  1  0  0  0  0
 18 19  1  0  0  0  0
 18 25  1  1  0  0  0
 19 20  1  0  0  0  0
 19 26  1  1  0  0  0
 20 21  1  0  0  0  0
 20 23  1  1  0  0  0
 21 22  1  6  0  0  0
 21 24  1  0  0  0  0
 22 27  1  0  0  0  0
 28 12  1  1  0  0  0
 28 29  1  0  0  0  0
 28 33  1  0  0  0  0
 29 30  1  0  0  0  0
 29 36  1  6  0  0  0
 30 31  1  0  0  0  0
 30 37  1  1  0  0  0
 31 32  1  0  0  0  0
 31 34  1  6  0  0  0
 32 33  1  0  0  0  0
 33 35  1  6  0  0  0
M  END
>  <CHROM.1>
179.77237479,82.98495161,-144.57407112,68.18327630,-153.61599803,-68.03839789
-1.44538539,28.77433991,64.82774356,2.38506562,0.45781774,-0.27087669

>  <Name>
ligand

>  <RI>
0

>  <Rbt.Current_Directory>
/home/itssahil/PROJECTS/Mol_Feturizer/Test_systems_manuscript/rnas/2g5k

>  <Rbt.Executable>
rbdock ($Id: //depot/dev/client3/rdock/2013.1/src/exe/rbdock.cxx#4 $)

>  <Rbt.Library>
libRbt.so (2013.1, Build901 2013/11/27)

>  <Rbt.Parameter_File>
/export/apps/rDock/src/rDock_2013.1_src/data/scripts/dock_solv.prm

>  <Rbt.Receptor>
prm/pocket_docking_8.prm

>  <SCORE>
-11.4639

>  <SCORE.INTER>
-9.76784

>  <SCORE.INTER.CONST>
1

>  <SCORE.INTER.POLAR>
0

>  <SCORE.INTER.ROT>
6

>  <SCORE.INTER.SOLV>
12.2276

>  <SCORE.INTER.VDW>
-18.1878

>  <SCORE.INTER.norm>
-0.263996

>  <SCORE.INTRA>
-1.69601

>  <SCORE.INTRA.DIHEDRAL>
-2.92264

>  <SCORE.INTRA.DIHEDRAL.0>
11.3972

>  <SCORE.INTRA.POLAR>
0

>  <SCORE.INTRA.POLAR.0>
0

>  <SCORE.INTRA.REPUL>
0

>  <SCORE.INTRA.REPUL.0>
0

>  <SCORE.INTRA.SOLV>
-0.337354

>  <SCORE.INTRA.SOLV.lig_0>
-92.3891

>  <SCORE.INTRA.VDW>
-0.0660149

>  <SCORE.INTRA.VDW.0>
-2.90606

>  <SCORE.INTRA.norm>
-0.0458381

>  <SCORE.RESTR>
0

>  <SCORE.RESTR.CAVITY>
0

>  <SCORE.RESTR.norm>
0

>  <SCORE.SYSTEM>
0

>  <SCORE.SYSTEM.CONST>
0

>  <SCORE.SYSTEM.DIHEDRAL>
0

>  <SCORE.SYSTEM.SOLV>
0

>  <SCORE.SYSTEM.norm>
0

>  <SCORE.heavy>
37

>  <SCORE.norm>
-0.309834

>  <RMSD>
10.224

$$$$
ligand
 OpenBabel02271912133D
libRbt.so/2013.1/901 2013/11/27
 37 40  0  0  0  0  0  0  0  0999 V2000
   -6.4011   32.2060   68.0774 C   0  0  1  0  0  0  0  0  0  0  0  0
   -5.7537   33.3398   67.2325 C   0  0  1  0  0  0  0  0  0  0  0  0
   -4.8195   32.7841   66.1407 C   0  0  0  0  0  0  0  0  0  0  0  0
   -3.7268   31.8967   66.8142 C   0  0  1  0  0  0  0  0  0  0  0  0
   -4.3842   30.7288   67.6188 C   0  0  1  0  0  0  0  0  0  0  0  0
   -3.2503   29.8368   68.2996 C   0  0  1  0  0  0  0  0  0  0  0  0
   -2.3174   29.2714   67.1888 C   0  0  1  0  0  0  0  0  0  0  0  0
   -1.7188   30.4743   66.3992 C   0  0  2  0  0  0  0  0  0  0  0  0
   -1.1341   26.9802   67.4346 C   0  0  0  0  0  0  0  0  0  0  0  0
   -6.7944   34.2011   66.6322 N   0  0  0  0  0  0  0  0  0  0  0  0
   -1.2193   28.4308   67.7974 N   0  0  0  0  0  0  0  0  0  0  0  0
   -7.3477   31.4254   67.3218 O   0  0  0  0  0  0  0  0  0  0  0  0
   -5.3169   31.3410   68.6115 O   0  0  0  0  0  0  0  0  0  0  0  0
   -2.7726   31.3138   65.8144 O   0  0  0  0  0  0  0  0  0  0  0  0
   -2.4673   30.6404   69.1726 O   0  0  0  0  0  0  0  0  0  0  0  0
   -0.8719   30.0017   65.3579 O   0  0  0  0  0  0  0  0  0  0  0  0
    0.0730   30.9878   64.8743 C   0  0  2  0  0  0  0  0  0  0  0  0
    0.6129   30.6609   63.4619 C   0  0  1  0  0  0  0  0  0  0  0  0
    1.4855   29.3646   63.4857 C   0  0  2  0  0  0  0  0  0  0  0  0
    2.6558   29.5761   64.4246 C   0  0  1  0  0  0  0  0  0  0  0  0
    2.1095   29.8770   65.8524 C   0  0  1  0  0  0  0  0  0  0  0  0
    3.2318   30.1255   66.8583 C   0  0  0  0  0  0  0  0  0  0  0  0
    3.5013   28.3579   64.4357 N   0  0  0  0  0  0  0  0  0  0  0  0
    1.2351   31.0892   65.8069 O   0  0  0  0  0  0  0  0  0  0  0  0
   -0.5265   30.5419   62.5811 O   0  0  0  0  0  0  0  0  0  0  0  0
    1.9855   29.0916   62.1748 O   0  0  0  0  0  0  0  0  0  0  0  0
    2.6731   30.4055   68.1189 O   0  0  0  0  0  0  0  0  0  0  0  0
   -8.0729   30.2248   67.8898 C   0  0  1  0  0  0  0  0  0  0  0  0
   -8.9351   30.6986   69.0918 C   0  0  1  0  0  0  0  0  0  0  0  0
   -9.6974   29.4908   69.7101 C   0  0  2  0  0  0  0  0  0  0  0  0
  -10.6178   28.8657   68.6329 C   0  0  1  0  0  0  0  0  0  0  0  0
   -9.7699   28.3691   67.4074 C   0  0  0  0  0  0  0  0  0  0  0  0
   -9.0115   29.5794   66.8220 C   0  0  2  0  0  0  0  0  0  0  0  0
  -11.3550   27.7175   69.2129 N   0  0  0  0  0  0  0  0  0  0  0  0
   -8.2216   29.1073   65.6796 N   0  0  0  0  0  0  0  0  0  0  0  0
   -8.0783   31.2841   70.0970 O   0  0  0  0  0  0  0  0  0  0  0  0
  -10.4854   29.9569   70.8280 O   0  0  0  0  0  0  0  0  0  0  0  0
  1  2  1  0  0  0  0
  1 12  1  6  0  0  0
  1 13  1  0  0  0  0
  2  3  1  0  0  0  0
  2 10  1  6  0  0  0
  4  3  1  6  0  0  0
  4  5  1  0  0  0  0
  4 14  1  0  0  0  0
  5  6  1  0  0  0  0
  5 13  1  1  0  0  0
  6  7  1  0  0  0  0
  6 15  1  1  0  0  0
  7  8  1  0  0  0  0
  7 11  1  1  0  0  0
  8 14  1  0  0  0  0
  8 16  1  6  0  0  0
  9 11  1  0  0  0  0
 17 16  1  1  0  0  0
 17 18  1  0  0  0  0
 17 24  1  0  0  0  0
 18 19  1  0  0  0  0
 18 25  1  6  0  0  0
 19 20  1  0  0  0  0
 19 26  1  6  0  0  0
 20 21  1  0  0  0  0
 20 23  1  1  0  0  0
 21 22  1  1  0  0  0
 21 24  1  0  0  0  0
 22 27  1  0  0  0  0
 28 12  1  6  0  0  0
 28 29  1  0  0  0  0
 28 33  1  0  0  0  0
 29 30  1  0  0  0  0
 29 36  1  1  0  0  0
 30 31  1  0  0  0  0
 30 37  1  1  0  0  0
 31 32  1  0  0  0  0
 31 34  1  1  0  0  0
 32 33  1  0  0  0  0
 33 35  1  6  0  0  0
M  END
>  <CHROM.1>
177.25589488,118.35538508,-159.81611084,61.52264334,-159.39996728,179.31871687
-3.61690552,30.28133128,66.85183567,2.90091399,-0.22497848,2.22384579

>  <Name>
ligand

>  <RI>
0

>  <Rbt.Current_Directory>
/home/itssahil/PROJECTS/Mol_Feturizer/Test_systems_manuscript/rnas/2g5k

>  <Rbt.Executable>
rbdock ($Id: //depot/dev/client3/rdock/2013.1/src/exe/rbdock.cxx#4 $)

>  <Rbt.Library>
libRbt.so (2013.1, Build901 2013/11/27)

>  <Rbt.Parameter_File>
/export/apps/rDock/src/rDock_2013.1_src/data/scripts/dock_solv.prm

>  <Rbt.Receptor>
prm/pocket_docking_7.prm

>  <SCORE>
-12.1762

>  <SCORE.INTER>
-7.97798

>  <SCORE.INTER.CONST>
1

>  <SCORE.INTER.POLAR>
0

>  <SCORE.INTER.ROT>
6

>  <SCORE.INTER.SOLV>
10.6279

>  <SCORE.INTER.VDW>
-16.4613

>  <SCORE.INTER.norm>
-0.215621

>  <SCORE.INTRA>
-4.1982

>  <SCORE.INTRA.DIHEDRAL>
-6.39627

>  <SCORE.INTRA.DIHEDRAL.0>
11.3972

>  <SCORE.INTRA.POLAR>
0

>  <SCORE.INTRA.POLAR.0>
0

>  <SCORE.INTRA.REPUL>
0

>  <SCORE.INTRA.REPUL.0>
0

>  <SCORE.INTRA.SOLV>
-1.84926

>  <SCORE.INTRA.SOLV.lig_0>
-92.3891

>  <SCORE.INTRA.VDW>
-0.0754408

>  <SCORE.INTRA.VDW.0>
-2.90606

>  <SCORE.INTRA.norm>
-0.113465

>  <SCORE.RESTR>
0

>  <SCORE.RESTR.CAVITY>
0

>  <SCORE.RESTR.norm>
0

>  <SCORE.SYSTEM>
0

>  <SCORE.SYSTEM.CONST>
0

>  <SCORE.SYSTEM.DIHEDRAL>
0

>  <SCORE.SYSTEM.SOLV>
0

>  <SCORE.SYSTEM.norm>
0

>  <SCORE.heavy>
37

>  <SCORE.norm>
-0.329086

>  <RMSD>
10.225

$$$$
ligand
 OpenBabel02271912133D
libRbt.so/2013.1/901 2013/11/27
 37 40  0  0  0  0  0  0  0  0999 V2000
   -7.8339   23.0011   65.2541 C   0  0  1  0  0  0  0  0  0  0  0  0
   -8.8942   23.8424   66.0200 C   0  0  1  0  0  0  0  0  0  0  0  0
   -8.7129   23.7472   67.5469 C   0  0  0  0  0  0  0  0  0  0  0  0
   -8.7786   22.2469   67.9711 C   0  0  1  0  0  0  0  0  0  0  0  0
   -7.6760   21.4176   67.2362 C   0  0  1  0  0  0  0  0  0  0  0  0
   -7.7628   19.8886   67.6827 C   0  0  1  0  0  0  0  0  0  0  0  0
   -7.5686   19.8009   69.2249 C   0  0  1  0  0  0  0  0  0  0  0  0
   -8.6698   20.6708   69.9028 C   0  0  2  0  0  0  0  0  0  0  0  0
   -7.2644   18.0344   71.0950 C   0  0  0  0  0  0  0  0  0  0  0  0
   -8.8542   25.2538   65.5823 N   0  0  0  0  0  0  0  0  0  0  0  0
   -7.6590   18.3658   69.6888 N   0  0  0  0  0  0  0  0  0  0  0  0
   -6.5047   23.5440   65.3755 O   0  0  0  0  0  0  0  0  0  0  0  0
   -7.8793   21.6075   65.7690 O   0  0  0  0  0  0  0  0  0  0  0  0
   -8.6089   22.0669   69.4505 O   0  0  0  0  0  0  0  0  0  0  0  0
   -9.0471   19.3682   67.3650 O   0  0  0  0  0  0  0  0  0  0  0  0
   -8.5179   20.6351   71.3172 O   0  0  0  0  0  0  0  0  0  0  0  0
   -9.7712   20.5946   72.0431 C   0  0  2  0  0  0  0  0  0  0  0  0
   -9.7877   21.5404   73.2672 C   0  0  1  0  0  0  0  0  0  0  0  0
   -8.7715   21.0621   74.3540 C   0  0  2  0  0  0  0  0  0  0  0  0
   -9.1524   19.6662   74.8038 C   0  0  1  0  0  0  0  0  0  0  0  0
   -9.1073   18.7099   73.5745 C   0  0  1  0  0  0  0  0  0  0  0  0
   -9.5022   17.2807   73.9413 C   0  0  0  0  0  0  0  0  0  0  0  0
   -8.2056   19.2137   75.8515 N   0  0  0  0  0  0  0  0  0  0  0  0
  -10.0455   19.2066   72.5213 O   0  0  0  0  0  0  0  0  0  0  0  0
   -9.4956   22.8719   72.7879 O   0  0  0  0  0  0  0  0  0  0  0  0
   -8.8157   21.9410   75.4804 O   0  0  0  0  0  0  0  0  0  0  0  0
   -8.6639   16.8163   74.9714 O   0  0  0  0  0  0  0  0  0  0  0  0
   -6.2166   24.9070   65.9665 C   0  0  1  0  0  0  0  0  0  0  0  0
   -5.0105   24.7739   66.9363 C   0  0  1  0  0  0  0  0  0  0  0  0
   -4.6819   26.1562   67.5712 C   0  0  2  0  0  0  0  0  0  0  0  0
   -4.3280   27.1605   66.4467 C   0  0  1  0  0  0  0  0  0  0  0  0
   -5.5351   27.3214   65.4546 C   0  0  0  0  0  0  0  0  0  0  0  0
   -5.8526   25.9368   64.8508 C   0  0  2  0  0  0  0  0  0  0  0  0
   -4.0059   28.4802   67.0408 N   0  0  0  0  0  0  0  0  0  0  0  0
   -6.9811   26.0954   63.9271 N   0  0  0  0  0  0  0  0  0  0  0  0
   -5.3380   23.8355   67.9849 O   0  0  0  0  0  0  0  0  0  0  0  0
   -3.5625   26.0035   68.4721 O   0  0  0  0  0  0  0  0  0  0  0  0
  1  2  1  0  0  0  0
  1 12  1  1  0  0  0
  1 13  1  0  0  0  0
  2  3  1  0  0  0  0
  2 10  1  6  0  0  0
  4  3  1  1  0  0  0
  4  5  1  0  0  0  0
  4 14  1  0  0  0  0
  5  6  1  0  0  0  0
  5 13  1  6  0  0  0
  6  7  1  0  0  0  0
  6 15  1  1  0  0  0
  7  8  1  0  0  0  0
  7 11  1  1  0  0  0
  8 14  1  0  0  0  0
  8 16  1  1  0  0  0
  9 11  1  0  0  0  0
 17 16  1  1  0  0  0
 17 18  1  0  0  0  0
 17 24  1  0  0  0  0
 18 19  1  0  0  0  0
 18 25  1  6  0  0  0
 19 20  1  0  0  0  0
 19 26  1  1  0  0  0
 20 21  1  0  0  0  0
 20 23  1  1  0  0  0
 21 22  1  1  0  0  0
 21 24  1  0  0  0  0
 22 27  1  0  0  0  0
 28 12  1  6  0  0  0
 28 29  1  0  0  0  0
 28 33  1  0  0  0  0
 29 30  1  0  0  0  0
 29 36  1  1  0  0  0
 30 31  1  0  0  0  0
 30 37  1  1  0  0  0
 31 32  1  0  0  0  0
 31 34  1  1  0  0  0
 32 33  1  0  0  0  0
 33 35  1  6  0  0  0
M  END
>  <CHROM.1>
-10.36282925,169.42677875,-141.75679251,135.27843413,-136.64377933,-56.49021070
-7.65883486,22.20492605,69.36463809,0.85885297,-1.10750396,-1.53328594

>  <Name>
ligand

>  <RI>
0

>  <Rbt.Current_Directory>
/home/itssahil/PROJECTS/Mol_Feturizer/Test_systems_manuscript/rnas/2g5k

>  <Rbt.Executable>
rbdock ($Id: //depot/dev/client3/rdock/2013.1/src/exe/rbdock.cxx#4 $)

>  <Rbt.Library>
libRbt.so (2013.1, Build901 2013/11/27)

>  <Rbt.Parameter_File>
/export/apps/rDock/src/rDock_2013.1_src/data/scripts/dock_solv.prm

>  <Rbt.Receptor>
prm/blind_docking_80.prm

>  <SCORE>
12.9

>  <SCORE.INTER>
-4.12063

>  <SCORE.INTER.CONST>
1

>  <SCORE.INTER.POLAR>
0

>  <SCORE.INTER.ROT>
6

>  <SCORE.INTER.SOLV>
17.8653

>  <SCORE.INTER.VDW>
-16.3022

>  <SCORE.INTER.norm>
-0.111368

>  <SCORE.INTRA>
10.6995

>  <SCORE.INTRA.DIHEDRAL>
12.5366

>  <SCORE.INTRA.DIHEDRAL.0>
11.3972

>  <SCORE.INTRA.POLAR>
0

>  <SCORE.INTRA.POLAR.0>
0

>  <SCORE.INTRA.REPUL>
0

>  <SCORE.INTRA.REPUL.0>
0

>  <SCORE.INTRA.SOLV>
5.9569

>  <SCORE.INTRA.SOLV.lig_0>
-92.3891

>  <SCORE.INTRA.VDW>
1.45279

>  <SCORE.INTRA.VDW.0>
-2.90606

>  <SCORE.INTRA.norm>
0.289176

>  <SCORE.RESTR>
6.32115

>  <SCORE.RESTR.CAVITY>
6.32115

>  <SCORE.RESTR.norm>
0.170842

>  <SCORE.SYSTEM>
0

>  <SCORE.SYSTEM.CONST>
0

>  <SCORE.SYSTEM.DIHEDRAL>
0

>  <SCORE.SYSTEM.SOLV>
0

>  <SCORE.SYSTEM.norm>
0

>  <SCORE.heavy>
37

>  <SCORE.norm>
0.34865

>  <RMSD>
10.231

$$$$
ligand
 OpenBabel02271912133D
libRbt.so/2013.1/901 2013/11/27
 37 40  0  0  0  0  0  0  0  0999 V2000
   -4.4869   32.1133   68.1497 C   0  0  1  0  0  0  0  0  0  0  0  0
   -3.1287   32.7286   67.7078 C   0  0  1  0  0  0  0  0  0  0  0  0
   -2.2966   31.7441   66.8642 C   0  0  0  0  0  0  0  0  0  0  0  0
   -2.0754   30.4360   67.6860 C   0  0  1  0  0  0  0  0  0  0  0  0
   -3.4454   29.7957   68.0819 C   0  0  1  0  0  0  0  0  0  0  0  0
   -3.1958   28.4627   68.9218 C   0  0  1  0  0  0  0  0  0  0  0  0
   -2.3632   27.4700   68.0585 C   0  0  1  0  0  0  0  0  0  0  0  0
   -1.0282   28.1711   67.6649 C   0  0  2  0  0  0  0  0  0  0  0  0
   -2.0542   24.8982   68.0839 C   0  0  0  0  0  0  0  0  0  0  0  0
   -3.3447   33.9892   66.9664 N   0  0  0  0  0  0  0  0  0  0  0  0
   -2.0934   26.1977   68.8274 N   0  0  0  0  0  0  0  0  0  0  0  0
   -5.3902   31.9164   67.0445 O   0  0  0  0  0  0  0  0  0  0  0  0
   -4.2161   30.8254   68.8406 O   0  0  0  0  0  0  0  0  0  0  0  0
   -1.2706   29.4202   66.9312 O   0  0  0  0  0  0  0  0  0  0  0  0
   -2.4509   28.7666   70.0940 O   0  0  0  0  0  0  0  0  0  0  0  0
   -0.2415   27.3039   66.8561 O   0  0  0  0  0  0  0  0  0  0  0  0
    0.7190   26.5149   67.6005 C   0  0  2  0  0  0  0  0  0  0  0  0
    2.0240   27.2878   67.9057 C   0  0  1  0  0  0  0  0  0  0  0  0
    2.8103   27.5940   66.5903 C   0  0  2  0  0  0  0  0  0  0  0  0
    3.1592   26.2860   65.9095 C   0  0  1  0  0  0  0  0  0  0  0  0
    1.8421   25.5227   65.5776 C   0  0  1  0  0  0  0  0  0  0  0  0
    2.1095   24.1768   64.9065 C   0  0  0  0  0  0  0  0  0  0  0  0
    3.9252   26.5672   64.6714 N   0  0  0  0  0  0  0  0  0  0  0  0
    1.0743   25.2810   66.8378 O   0  0  0  0  0  0  0  0  0  0  0  0
    1.6572   28.4889   68.6204 O   0  0  0  0  0  0  0  0  0  0  0  0
    4.0181   28.2937   66.8982 O   0  0  0  0  0  0  0  0  0  0  0  0
    2.8759   23.3713   65.7684 O   0  0  0  0  0  0  0  0  0  0  0  0
   -6.8123   31.4271   67.2132 C   0  0  1  0  0  0  0  0  0  0  0  0
   -6.7680   29.9326   67.6340 C   0  0  1  0  0  0  0  0  0  0  0  0
   -8.2141   29.3867   67.8151 C   0  0  2  0  0  0  0  0  0  0  0  0
   -8.9333   30.2081   68.9134 C   0  0  1  0  0  0  0  0  0  0  0  0
   -9.0003   31.7246   68.5094 C   0  0  0  0  0  0  0  0  0  0  0  0
   -7.5572   32.2385   68.3197 C   0  0  2  0  0  0  0  0  0  0  0  0
  -10.3107   29.6920   69.0998 N   0  0  0  0  0  0  0  0  0  0  0  0
   -7.6285   33.6541   67.9415 N   0  0  0  0  0  0  0  0  0  0  0  0
   -6.0954   29.1649   66.6115 O   0  0  0  0  0  0  0  0  0  0  0  0
   -8.1447   27.9956   68.1997 O   0  0  0  0  0  0  0  0  0  0  0  0
  1  2  1  0  0  0  0
  1 12  1  6  0  0  0
  1 13  1  0  0  0  0
  2  3  1  0  0  0  0
  2 10  1  6  0  0  0
  4  3  1  6  0  0  0
  4  5  1  0  0  0  0
  4 14  1  0  0  0  0
  5  6  1  0  0  0  0
  5 13  1  1  0  0  0
  6  7  1  0  0  0  0
  6 15  1  1  0  0  0
  7  8  1  0  0  0  0
  7 11  1  1  0  0  0
  8 14  1  0  0  0  0
  8 16  1  6  0  0  0
  9 11  1  0  0  0  0
 17 16  1  6  0  0  0
 17 18  1  0  0  0  0
 17 24  1  0  0  0  0
 18 19  1  0  0  0  0
 18 25  1  6  0  0  0
 19 20  1  0  0  0  0
 19 26  1  1  0  0  0
 20 21  1  0  0  0  0
 20 23  1  6  0  0  0
 21 22  1  1  0  0  0
 21 24  1  0  0  0  0
 22 27  1  0  0  0  0
 28 12  1  1  0  0  0
 28 29  1  0  0  0  0
 28 33  1  0  0  0  0
 29 30  1  0  0  0  0
 29 36  1  6  0  0  0
 30 31  1  0  0  0  0
 30 37  1  1  0  0  0
 31 32  1  0  0  0  0
 31 34  1  6  0  0  0
 32 33  1  0  0  0  0
 33 35  1  6  0  0  0
M  END
>  <CHROM.1>
-175.40652516,145.18329750,-93.59740844,-70.39702448,-82.61911518,60.12560355
-2.55678380,28.85052408,67.51956284,-2.66650229,-0.17176089,-3.14044697

>  <Name>
ligand

>  <RI>
0

>  <Rbt.Current_Directory>
/home/itssahil/PROJECTS/Mol_Feturizer/Test_systems_manuscript/rnas/2g5k

>  <Rbt.Executable>
rbdock ($Id: //depot/dev/client3/rdock/2013.1/src/exe/rbdock.cxx#4 $)

>  <Rbt.Library>
libRbt.so (2013.1, Build901 2013/11/27)

>  <Rbt.Parameter_File>
/export/apps/rDock/src/rDock_2013.1_src/data/scripts/dock_solv.prm

>  <Rbt.Receptor>
prm/pocket_docking_8.prm

>  <SCORE>
-11.2583

>  <SCORE.INTER>
-9.24372

>  <SCORE.INTER.CONST>
1

>  <SCORE.INTER.POLAR>
0

>  <SCORE.INTER.ROT>
6

>  <SCORE.INTER.SOLV>
13.5328

>  <SCORE.INTER.VDW>
-18.2734

>  <SCORE.INTER.norm>
-0.24983

>  <SCORE.INTRA>
-2.01461

>  <SCORE.INTRA.DIHEDRAL>
-3.49804

>  <SCORE.INTRA.DIHEDRAL.0>
11.3972

>  <SCORE.INTRA.POLAR>
0

>  <SCORE.INTRA.POLAR.0>
0

>  <SCORE.INTRA.REPUL>
0

>  <SCORE.INTRA.REPUL.0>
0

>  <SCORE.INTRA.SOLV>
0.513775

>  <SCORE.INTRA.SOLV.lig_0>
-92.3891

>  <SCORE.INTRA.VDW>
-0.522471

>  <SCORE.INTRA.VDW.0>
-2.90606

>  <SCORE.INTRA.norm>
-0.0544488

>  <SCORE.RESTR>
0

>  <SCORE.RESTR.CAVITY>
0

>  <SCORE.RESTR.norm>
0

>  <SCORE.SYSTEM>
0

>  <SCORE.SYSTEM.CONST>
0

>  <SCORE.SYSTEM.DIHEDRAL>
0

>  <SCORE.SYSTEM.SOLV>
0

>  <SCORE.SYSTEM.norm>
0

>  <SCORE.heavy>
37

>  <SCORE.norm>
-0.304279

>  <RMSD>
10.239

$$$$
ligand
 OpenBabel02271912133D
libRbt.so/2013.1/901 2013/11/27
 37 40  0  0  0  0  0  0  0  0999 V2000
   -5.9813   27.6116   65.4776 C   0  0  1  0  0  0  0  0  0  0  0  0
   -5.3332   26.2924   65.9856 C   0  0  1  0  0  0  0  0  0  0  0  0
   -3.8838   26.5077   66.4614 C   0  0  0  0  0  0  0  0  0  0  0  0
   -3.0539   27.1227   65.2917 C   0  0  1  0  0  0  0  0  0  0  0  0
   -3.6823   28.4746   64.8215 C   0  0  1  0  0  0  0  0  0  0  0  0
   -2.8202   29.0837   63.6255 C   0  0  1  0  0  0  0  0  0  0  0  0
   -1.3602   29.3073   64.1179 C   0  0  1  0  0  0  0  0  0  0  0  0
   -0.7976   27.9381   64.6053 C   0  0  2  0  0  0  0  0  0  0  0  0
    0.7343   30.6300   63.3606 C   0  0  0  0  0  0  0  0  0  0  0  0
   -6.1473   25.6940   67.0646 N   0  0  0  0  0  0  0  0  0  0  0  0
   -0.5072   29.8714   63.0057 N   0  0  0  0  0  0  0  0  0  0  0  0
   -6.2120   28.5586   66.5389 O   0  0  0  0  0  0  0  0  0  0  0  0
   -5.0981   28.1977   64.4356 O   0  0  0  0  0  0  0  0  0  0  0  0
   -1.6244   27.3652   65.6755 O   0  0  0  0  0  0  0  0  0  0  0  0
   -2.7887   28.1655   62.5406 O   0  0  0  0  0  0  0  0  0  0  0  0
    0.5328   28.0997   65.0839 O   0  0  0  0  0  0  0  0  0  0  0  0
    1.1541   26.8669   65.5234 C   0  0  2  0  0  0  0  0  0  0  0  0
    2.5024   27.0977   66.2461 C   0  0  1  0  0  0  0  0  0  0  0  0
    3.5737   27.6630   65.2586 C   0  0  2  0  0  0  0  0  0  0  0  0
    3.7804   26.6685   64.1343 C   0  0  1  0  0  0  0  0  0  0  0  0
    2.4275   26.4595   63.3902 C   0  0  1  0  0  0  0  0  0  0  0  0
    2.5464   25.4489   62.2510 C   0  0  0  0  0  0  0  0  0  0  0  0
    4.8122   27.1878   63.2044 N   0  0  0  0  0  0  0  0  0  0  0  0
    1.3976   25.9674   64.3563 O   0  0  0  0  0  0  0  0  0  0  0  0
    2.2507   27.9891   67.3551 O   0  0  0  0  0  0  0  0  0  0  0  0
    4.8135   27.8532   65.9440 O   0  0  0  0  0  0  0  0  0  0  0  0
    3.3471   25.9916   61.2294 O   0  0  0  0  0  0  0  0  0  0  0  0
   -6.8097   29.9300   66.3108 C   0  0  1  0  0  0  0  0  0  0  0  0
   -8.2829   29.7507   65.8521 C   0  0  1  0  0  0  0  0  0  0  0  0
   -8.9364   31.1407   65.6019 C   0  0  2  0  0  0  0  0  0  0  0  0
   -8.9039   31.9610   66.9151 C   0  0  1  0  0  0  0  0  0  0  0  0
   -7.4233   32.1655   67.3982 C   0  0  0  0  0  0  0  0  0  0  0  0
   -6.7920   30.7751   67.6236 C   0  0  2  0  0  0  0  0  0  0  0  0
   -9.5307   33.2858   66.6905 N   0  0  0  0  0  0  0  0  0  0  0  0
   -5.4099   30.9747   68.0730 N   0  0  0  0  0  0  0  0  0  0  0  0
   -8.3153   28.9836   64.6282 O   0  0  0  0  0  0  0  0  0  0  0  0
  -10.3017   30.9456   65.1710 O   0  0  0  0  0  0  0  0  0  0  0  0
  1  2  1  0  0  0  0
  1 12  1  1  0  0  0
  1 13  1  0  0  0  0
  2  3  1  0  0  0  0
  2 10  1  1  0  0  0
  4  3  1  1  0  0  0
  4  5  1  0  0  0  0
  4 14  1  0  0  0  0
  5  6  1  0  0  0  0
  5 13  1  6  0  0  0
  6  7  1  0  0  0  0
  6 15  1  6  0  0  0
  7  8  1  0  0  0  0
  7 11  1  6  0  0  0
  8 14  1  0  0  0  0
  8 16  1  1  0  0  0
  9 11  1  0  0  0  0
 17 16  1  6  0  0  0
 17 18  1  0  0  0  0
 17 24  1  0  0  0  0
 18 19  1  0  0  0  0
 18 25  1  1  0  0  0
 19 20  1  0  0  0  0
 19 26  1  1  0  0  0
 20 21  1  0  0  0  0
 20 23  1  6  0  0  0
 21 22  1  6  0  0  0
 21 24  1  0  0  0  0
 22 27  1  0  0  0  0
 28 12  1  1  0  0  0
 28 29  1  0  0  0  0
 28 33  1  0  0  0  0
 29 30  1  0  0  0  0
 29 36  1  6  0  0  0
 30 31  1  0  0  0  0
 30 37  1  1  0  0  0
 31 32  1  0  0  0  0
 31 34  1  6  0  0  0
 32 33  1  0  0  0  0
 33 35  1  6  0  0  0
M  END
>  <CHROM.1>
178.90212313,157.16468168,-178.27585230,66.71913969,-170.72428298,-68.24722556
-2.55672562,28.47169281,65.14507290,2.79853789,0.02130087,0.50195804

>  <Name>
ligand

>  <RI>
0

>  <Rbt.Current_Directory>
/home/itssahil/PROJECTS/Mol_Feturizer/Test_systems_manuscript/rnas/2g5k

>  <Rbt.Executable>
rbdock ($Id: //depot/dev/client3/rdock/2013.1/src/exe/rbdock.cxx#4 $)

>  <Rbt.Library>
libRbt.so (2013.1, Build901 2013/11/27)

>  <Rbt.Parameter_File>
/export/apps/rDock/src/rDock_2013.1_src/data/scripts/dock_solv.prm

>  <Rbt.Receptor>
prm/pocket_docking_6.prm

>  <SCORE>
-8.73708

>  <SCORE.INTER>
-3.61484

>  <SCORE.INTER.CONST>
1

>  <SCORE.INTER.POLAR>
0

>  <SCORE.INTER.ROT>
6

>  <SCORE.INTER.SOLV>
9.04018

>  <SCORE.INTER.VDW>
-13.0233

>  <SCORE.INTER.norm>
-0.0976984

>  <SCORE.INTRA>
-5.12224

>  <SCORE.INTRA.DIHEDRAL>
-10.083

>  <SCORE.INTRA.DIHEDRAL.0>
11.3972

>  <SCORE.INTRA.POLAR>
0

>  <SCORE.INTRA.POLAR.0>
0

>  <SCORE.INTRA.REPUL>
0

>  <SCORE.INTRA.REPUL.0>
0

>  <SCORE.INTRA.SOLV>
-0.920152

>  <SCORE.INTRA.SOLV.lig_0>
-92.3891

>  <SCORE.INTRA.VDW>
0.379316

>  <SCORE.INTRA.VDW.0>
-2.90606

>  <SCORE.INTRA.norm>
-0.138439

>  <SCORE.RESTR>
0

>  <SCORE.RESTR.CAVITY>
0

>  <SCORE.RESTR.norm>
0

>  <SCORE.SYSTEM>
0

>  <SCORE.SYSTEM.CONST>
0

>  <SCORE.SYSTEM.DIHEDRAL>
0

>  <SCORE.SYSTEM.SOLV>
0

>  <SCORE.SYSTEM.norm>
0

>  <SCORE.heavy>
37

>  <SCORE.norm>
-0.236137

>  <RMSD>
10.246

$$$$
ligand
 OpenBabel02271912133D
libRbt.so/2013.1/901 2013/11/27
 37 40  0  0  0  0  0  0  0  0999 V2000
   -6.6459   31.6230   65.6512 C   0  0  1  0  0  0  0  0  0  0  0  0
   -5.4866   32.1719   64.7719 C   0  0  1  0  0  0  0  0  0  0  0  0
   -4.6025   31.0415   64.2115 C   0  0  0  0  0  0  0  0  0  0  0  0
   -4.0488   30.1963   65.4007 C   0  0  1  0  0  0  0  0  0  0  0  0
   -5.2209   29.6051   66.2494 C   0  0  1  0  0  0  0  0  0  0  0  0
   -4.6326   28.7475   67.4590 C   0  0  1  0  0  0  0  0  0  0  0  0
   -3.7491   27.6020   66.8836 C   0  0  1  0  0  0  0  0  0  0  0  0
   -2.6218   28.2454   66.0211 C   0  0  2  0  0  0  0  0  0  0  0  0
   -2.6989   25.3811   67.7052 C   0  0  0  0  0  0  0  0  0  0  0  0
   -6.0167   33.0060   63.6725 N   0  0  0  0  0  0  0  0  0  0  0  0
   -3.1610   26.7744   68.0025 N   0  0  0  0  0  0  0  0  0  0  0  0
   -7.6296   30.9034   64.8826 O   0  0  0  0  0  0  0  0  0  0  0  0
   -6.0637   30.7507   66.7045 O   0  0  0  0  0  0  0  0  0  0  0  0
   -3.1746   29.0688   64.9377 O   0  0  0  0  0  0  0  0  0  0  0  0
   -3.8145   29.5723   68.2786 O   0  0  0  0  0  0  0  0  0  0  0  0
   -1.7989   27.2303   65.4576 O   0  0  0  0  0  0  0  0  0  0  0  0
   -0.5568   27.7229   64.8974 C   0  0  2  0  0  0  0  0  0  0  0  0
    0.0948   26.7253   63.9107 C   0  0  1  0  0  0  0  0  0  0  0  0
    0.5675   25.4348   64.6548 C   0  0  2  0  0  0  0  0  0  0  0  0
    1.5839   25.8196   65.7106 C   0  0  1  0  0  0  0  0  0  0  0  0
    0.9166   26.8020   66.7193 C   0  0  1  0  0  0  0  0  0  0  0  0
    1.8866   27.2573   67.8079 C   0  0  0  0  0  0  0  0  0  0  0  0
    2.0541   24.5975   66.4065 N   0  0  0  0  0  0  0  0  0  0  0  0
    0.4229   28.0092   65.9877 O   0  0  0  0  0  0  0  0  0  0  0  0
   -0.8764   26.4418   62.8790 O   0  0  0  0  0  0  0  0  0  0  0  0
    1.1795   24.5360   63.7270 O   0  0  0  0  0  0  0  0  0  0  0  0
    2.3123   26.1396   68.5488 O   0  0  0  0  0  0  0  0  0  0  0  0
   -8.8737   30.2938   65.4914 C   0  0  1  0  0  0  0  0  0  0  0  0
   -9.7759   31.4450   66.0145 C   0  0  1  0  0  0  0  0  0  0  0  0
  -11.0687   30.8606   66.6540 C   0  0  2  0  0  0  0  0  0  0  0  0
  -11.8413   30.0480   65.5858 C   0  0  1  0  0  0  0  0  0  0  0  0
  -10.9544   28.8699   65.0447 C   0  0  0  0  0  0  0  0  0  0  0  0
   -9.6726   29.4722   64.4309 C   0  0  2  0  0  0  0  0  0  0  0  0
  -13.0795   29.4918   66.1823 N   0  0  0  0  0  0  0  0  0  0  0  0
   -8.8496   28.3662   63.9295 N   0  0  0  0  0  0  0  0  0  0  0  0
   -9.0560   32.2057   67.0097 O   0  0  0  0  0  0  0  0  0  0  0  0
  -11.8858   31.9500   67.1373 O   0  0  0  0  0  0  0  0  0  0  0  0
  1  2  1  0  0  0  0
  1 12  1  6  0  0  0
  1 13  1  0  0  0  0
  2  3  1  0  0  0  0
  2 10  1  6  0  0  0
  4  3  1  6  0  0  0
  4  5  1  0  0  0  0
  4 14  1  0  0  0  0
  5  6  1  0  0  0  0
  5 13  1  1  0  0  0
  6  7  1  0  0  0  0
  6 15  1  1  0  0  0
  7  8  1  0  0  0  0
  7 11  1  1  0  0  0
  8 14  1  0  0  0  0
  8 16  1  6  0  0  0
  9 11  1  0  0  0  0
 17 16  1  1  0  0  0
 17 18  1  0  0  0  0
 17 24  1  0  0  0  0
 18 19  1  0  0  0  0
 18 25  1  6  0  0  0
 19 20  1  0  0  0  0
 19 26  1  6  0  0  0
 20 21  1  0  0  0  0
 20 23  1  1  0  0  0
 21 22  1  1  0  0  0
 21 24  1  0  0  0  0
 22 27  1  0  0  0  0
 28 12  1  6  0  0  0
 28 29  1  0  0  0  0
 28 33  1  0  0  0  0
 29 30  1  0  0  0  0
 29 36  1  1  0  0  0
 30 31  1  0  0  0  0
 30 37  1  6  0  0  0
 31 32  1  0  0  0  0
 31 34  1  1  0  0  0
 32 33  1  0  0  0  0
 33 35  1  1  0  0  0
M  END
>  <CHROM.1>
-178.63132178,158.61813811,-166.65220806,65.79813568,-161.45271156,-61.70004440
-4.46234787,28.75549347,65.82551922,-2.83283185,-0.25999320,2.42984034

>  <Name>
ligand

>  <RI>
0

>  <Rbt.Current_Directory>
/home/itssahil/PROJECTS/Mol_Feturizer/Test_systems_manuscript/rnas/2g5k

>  <Rbt.Executable>
rbdock ($Id: //depot/dev/client3/rdock/2013.1/src/exe/rbdock.cxx#4 $)

>  <Rbt.Library>
libRbt.so (2013.1, Build901 2013/11/27)

>  <Rbt.Parameter_File>
/export/apps/rDock/src/rDock_2013.1_src/data/scripts/dock_solv.prm

>  <Rbt.Receptor>
prm/pocket_docking_3.prm

>  <SCORE>
-6.15574

>  <SCORE.INTER>
-1.85734

>  <SCORE.INTER.CONST>
1

>  <SCORE.INTER.POLAR>
0

>  <SCORE.INTER.ROT>
6

>  <SCORE.INTER.SOLV>
16.6291

>  <SCORE.INTER.VDW>
-14.3813

>  <SCORE.INTER.norm>
-0.0501985

>  <SCORE.INTRA>
-4.29839

>  <SCORE.INTRA.DIHEDRAL>
-8.43195

>  <SCORE.INTRA.DIHEDRAL.0>
11.3972

>  <SCORE.INTRA.POLAR>
0

>  <SCORE.INTRA.POLAR.0>
0

>  <SCORE.INTRA.REPUL>
0

>  <SCORE.INTRA.REPUL.0>
0

>  <SCORE.INTRA.SOLV>
-0.722695

>  <SCORE.INTRA.SOLV.lig_0>
-92.3891

>  <SCORE.INTRA.VDW>
0.278927

>  <SCORE.INTRA.VDW.0>
-2.90606

>  <SCORE.INTRA.norm>
-0.116173

>  <SCORE.RESTR>
0

>  <SCORE.RESTR.CAVITY>
0

>  <SCORE.RESTR.norm>
0

>  <SCORE.SYSTEM>
0

>  <SCORE.SYSTEM.CONST>
0

>  <SCORE.SYSTEM.DIHEDRAL>
0

>  <SCORE.SYSTEM.SOLV>
0

>  <SCORE.SYSTEM.norm>
0

>  <SCORE.heavy>
37

>  <SCORE.norm>
-0.166371

>  <RMSD>
10.250

$$$$
ligand
 OpenBabel02271912133D
libRbt.so/2013.1/901 2013/11/27
 37 40  0  0  0  0  0  0  0  0999 V2000
   -7.2156   31.6315   65.6568 C   0  0  1  0  0  0  0  0  0  0  0  0
   -6.1368   32.3725   64.8168 C   0  0  1  0  0  0  0  0  0  0  0  0
   -5.2345   31.3924   64.0431 C   0  0  0  0  0  0  0  0  0  0  0  0
   -4.5730   30.4070   65.0563 C   0  0  1  0  0  0  0  0  0  0  0  0
   -5.6644   29.6283   65.8602 C   0  0  1  0  0  0  0  0  0  0  0  0
   -4.9667   28.6296   66.8900 C   0  0  1  0  0  0  0  0  0  0  0  0
   -4.0651   27.6369   66.0990 C   0  0  1  0  0  0  0  0  0  0  0  0
   -3.0217   28.4667   65.2920 C   0  0  2  0  0  0  0  0  0  0  0  0
   -4.0729   25.4141   67.4293 C   0  0  0  0  0  0  0  0  0  0  0  0
   -6.7690   33.3343   63.8892 N   0  0  0  0  0  0  0  0  0  0  0  0
   -3.3743   26.6816   67.0440 N   0  0  0  0  0  0  0  0  0  0  0  0
   -8.2074   30.9845   64.8358 O   0  0  0  0  0  0  0  0  0  0  0  0
   -6.5324   30.6419   66.5304 O   0  0  0  0  0  0  0  0  0  0  0  0
   -3.6751   29.4143   64.3796 O   0  0  0  0  0  0  0  0  0  0  0  0
   -4.1420   29.3633   67.7860 O   0  0  0  0  0  0  0  0  0  0  0  0
   -2.1860   27.5974   64.5363 O   0  0  0  0  0  0  0  0  0  0  0  0
   -0.9338   28.1973   64.1224 C   0  0  2  0  0  0  0  0  0  0  0  0
   -0.0892   27.2647   63.2221 C   0  0  1  0  0  0  0  0  0  0  0  0
    0.4021   26.0148   64.0212 C   0  0  2  0  0  0  0  0  0  0  0  0
    1.2523   26.4785   65.1866 C   0  0  1  0  0  0  0  0  0  0  0  0
    0.3910   27.3944   66.1069 C   0  0  1  0  0  0  0  0  0  0  0  0
    1.1855   27.9241   67.2991 C   0  0  0  0  0  0  0  0  0  0  0  0
    1.7410   25.2967   65.9373 N   0  0  0  0  0  0  0  0  0  0  0  0
   -0.1154   28.5595   65.3180 O   0  0  0  0  0  0  0  0  0  0  0  0
   -0.9062   26.9058   62.0856 O   0  0  0  0  0  0  0  0  0  0  0  0
    1.1922   25.1769   63.1746 O   0  0  0  0  0  0  0  0  0  0  0  0
    0.3585   28.7547   68.0772 O   0  0  0  0  0  0  0  0  0  0  0  0
   -9.4039   30.2521   65.4033 C   0  0  1  0  0  0  0  0  0  0  0  0
  -10.3697   31.2997   66.0217 C   0  0  1  0  0  0  0  0  0  0  0  0
  -11.6159   30.5869   66.6221 C   0  0  2  0  0  0  0  0  0  0  0  0
  -12.3490   29.8133   65.4985 C   0  0  1  0  0  0  0  0  0  0  0  0
  -11.3970   28.7393   64.8602 C   0  0  0  0  0  0  0  0  0  0  0  0
  -10.1625   29.4673   64.2869 C   0  0  2  0  0  0  0  0  0  0  0  0
  -13.5431   29.1353   66.0579 N   0  0  0  0  0  0  0  0  0  0  0  0
   -9.2784   28.4579   63.6941 N   0  0  0  0  0  0  0  0  0  0  0  0
   -9.6867   32.0240   67.0688 O   0  0  0  0  0  0  0  0  0  0  0  0
  -12.4934   31.5815   67.1954 O   0  0  0  0  0  0  0  0  0  0  0  0
  1  2  1  0  0  0  0
  1 12  1  6  0  0  0
  1 13  1  0  0  0  0
  2  3  1  0  0  0  0
  2 10  1  6  0  0  0
  4  3  1  6  0  0  0
  4  5  1  0  0  0  0
  4 14  1  0  0  0  0
  5  6  1  0  0  0  0
  5 13  1  1  0  0  0
  6  7  1  0  0  0  0
  6 15  1  1  0  0  0
  7  8  1  0  0  0  0
  7 11  1  1  0  0  0
  8 14  1  0  0  0  0
  8 16  1  6  0  0  0
  9 11  1  0  0  0  0
 17 16  1  1  0  0  0
 17 18  1  0  0  0  0
 17 24  1  0  0  0  0
 18 19  1  0  0  0  0
 18 25  1  6  0  0  0
 19 20  1  0  0  0  0
 19 26  1  6  0  0  0
 20 21  1  0  0  0  0
 20 23  1  1  0  0  0
 21 22  1  1  0  0  0
 21 24  1  0  0  0  0
 22 27  1  0  0  0  0
 28 12  1  6  0  0  0
 28 29  1  0  0  0  0
 28 33  1  0  0  0  0
 29 30  1  0  0  0  0
 29 36  1  1  0  0  0
 30 31  1  0  0  0  0
 30 37  1  6  0  0  0
 31 32  1  0  0  0  0
 31 34  1  1  0  0  0
 32 33  1  0  0  0  0
 33 35  1  1  0  0  0
M  END
>  <CHROM.1>
-176.93340244,87.88451719,-160.23011345,69.81188119,-176.06118012,179.23897869
-4.97644453,28.99373343,65.45595340,-2.80971438,-0.00626498,-2.99439635

>  <Name>
ligand

>  <RI>
0

>  <Rbt.Current_Directory>
/home/itssahil/PROJECTS/Mol_Feturizer/Test_systems_manuscript/rnas/2g5k

>  <Rbt.Executable>
rbdock ($Id: //depot/dev/client3/rdock/2013.1/src/exe/rbdock.cxx#4 $)

>  <Rbt.Library>
libRbt.so (2013.1, Build901 2013/11/27)

>  <Rbt.Parameter_File>
/export/apps/rDock/src/rDock_2013.1_src/data/scripts/dock_solv.prm

>  <Rbt.Receptor>
prm/pocket_docking_4.prm

>  <SCORE>
-7.31201

>  <SCORE.INTER>
-2.0973

>  <SCORE.INTER.CONST>
1

>  <SCORE.INTER.POLAR>
0

>  <SCORE.INTER.ROT>
6

>  <SCORE.INTER.SOLV>
10.5333

>  <SCORE.INTER.VDW>
-12.5093

>  <SCORE.INTER.norm>
-0.0566838

>  <SCORE.INTRA>
-5.21471

>  <SCORE.INTRA.DIHEDRAL>
-8.48516

>  <SCORE.INTRA.DIHEDRAL.0>
11.3972

>  <SCORE.INTRA.POLAR>
0

>  <SCORE.INTRA.POLAR.0>
0

>  <SCORE.INTRA.REPUL>
0

>  <SCORE.INTRA.REPUL.0>
0

>  <SCORE.INTRA.SOLV>
-1.66023

>  <SCORE.INTRA.SOLV.lig_0>
-92.3891

>  <SCORE.INTRA.VDW>
-0.142015

>  <SCORE.INTRA.VDW.0>
-2.90606

>  <SCORE.INTRA.norm>
-0.140938

>  <SCORE.RESTR>
0

>  <SCORE.RESTR.CAVITY>
0

>  <SCORE.RESTR.norm>
0

>  <SCORE.SYSTEM>
0

>  <SCORE.SYSTEM.CONST>
0

>  <SCORE.SYSTEM.DIHEDRAL>
0

>  <SCORE.SYSTEM.SOLV>
0

>  <SCORE.SYSTEM.norm>
0

>  <SCORE.heavy>
37

>  <SCORE.norm>
-0.197622

>  <RMSD>
10.266

$$$$
ligand
 OpenBabel02271912133D
libRbt.so/2013.1/901 2013/11/27
 37 40  0  0  0  0  0  0  0  0999 V2000
   -8.6105   31.0408   67.9458 C   0  0  1  0  0  0  0  0  0  0  0  0
   -7.2383   31.7594   68.0842 C   0  0  1  0  0  0  0  0  0  0  0  0
   -6.3079   31.4606   66.8932 C   0  0  0  0  0  0  0  0  0  0  0  0
   -6.1194   29.9161   66.7742 C   0  0  1  0  0  0  0  0  0  0  0  0
   -7.4987   29.2057   66.5832 C   0  0  1  0  0  0  0  0  0  0  0  0
   -7.2826   27.6295   66.4659 C   0  0  1  0  0  0  0  0  0  0  0  0
   -6.3498   27.3362   65.2544 C   0  0  1  0  0  0  0  0  0  0  0  0
   -5.0073   28.0946   65.4809 C   0  0  2  0  0  0  0  0  0  0  0  0
   -7.1875   24.9945   64.5298 C   0  0  0  0  0  0  0  0  0  0  0  0
   -7.4273   33.2174   68.2387 N   0  0  0  0  0  0  0  0  0  0  0  0
   -6.1094   25.8507   65.1193 N   0  0  0  0  0  0  0  0  0  0  0  0
   -9.4094   31.5766   66.8729 O   0  0  0  0  0  0  0  0  0  0  0  0
   -8.3619   29.5900   67.7395 O   0  0  0  0  0  0  0  0  0  0  0  0
   -5.2228   29.5396   65.6322 O   0  0  0  0  0  0  0  0  0  0  0  0
   -6.6505   27.1431   67.6429 O   0  0  0  0  0  0  0  0  0  0  0  0
   -4.1287   27.8696   64.3844 O   0  0  0  0  0  0  0  0  0  0  0  0
   -2.9527   28.7159   64.3891 C   0  0  2  0  0  0  0  0  0  0  0  0
   -2.0420   28.4862   63.1597 C   0  0  1  0  0  0  0  0  0  0  0  0
   -1.4097   27.0575   63.1945 C   0  0  2  0  0  0  0  0  0  0  0  0
   -0.5814   26.9162   64.4554 C   0  0  1  0  0  0  0  0  0  0  0  0
   -1.5066   27.1197   65.6925 C   0  0  1  0  0  0  0  0  0  0  0  0
   -0.7396   27.0145   67.0092 C   0  0  0  0  0  0  0  0  0  0  0  0
    0.0402   25.5703   64.4849 N   0  0  0  0  0  0  0  0  0  0  0  0
   -2.1453   28.4699   65.6211 O   0  0  0  0  0  0  0  0  0  0  0  0
   -2.8470   28.7038   61.9795 O   0  0  0  0  0  0  0  0  0  0  0  0
   -0.5614   26.8741   62.0588 O   0  0  0  0  0  0  0  0  0  0  0  0
   -1.6499   27.0452   68.0815 O   0  0  0  0  0  0  0  0  0  0  0  0
  -10.5304   30.8063   66.2096 C   0  0  1  0  0  0  0  0  0  0  0  0
  -11.7364   30.7597   67.1874 C   0  0  1  0  0  0  0  0  0  0  0  0
  -12.9139   29.9710   66.5446 C   0  0  2  0  0  0  0  0  0  0  0  0
  -13.3425   30.6766   65.2343 C   0  0  1  0  0  0  0  0  0  0  0  0
  -12.1427   30.7302   64.2219 C   0  0  0  0  0  0  0  0  0  0  0  0
  -10.9830   31.5018   64.8870 C   0  0  2  0  0  0  0  0  0  0  0  0
  -14.4694   29.9374   64.6161 N   0  0  0  0  0  0  0  0  0  0  0  0
   -9.8668   31.5462   63.9362 N   0  0  0  0  0  0  0  0  0  0  0  0
  -11.3378   30.1037   68.4114 O   0  0  0  0  0  0  0  0  0  0  0  0
  -14.0185   29.9372   67.4755 O   0  0  0  0  0  0  0  0  0  0  0  0
  1  2  1  0  0  0  0
  1 12  1  6  0  0  0
  1 13  1  0  0  0  0
  2  3  1  0  0  0  0
  2 10  1  6  0  0  0
  4  3  1  6  0  0  0
  4  5  1  0  0  0  0
  4 14  1  0  0  0  0
  5  6  1  0  0  0  0
  5 13  1  1  0  0  0
  6  7  1  0  0  0  0
  6 15  1  1  0  0  0
  7  8  1  0  0  0  0
  7 11  1  1  0  0  0
  8 14  1  0  0  0  0
  8 16  1  6  0  0  0
  9 11  1  0  0  0  0
 17 16  1  6  0  0  0
 17 18  1  0  0  0  0
 17 24  1  0  0  0  0
 18 19  1  0  0  0  0
 18 25  1  6  0  0  0
 19 20  1  0  0  0  0
 19 26  1  6  0  0  0
 20 21  1  0  0  0  0
 20 23  1  1  0  0  0
 21 22  1  1  0  0  0
 21 24  1  0  0  0  0
 22 27  1  0  0  0  0
 28 12  1  1  0  0  0
 28 29  1  0  0  0  0
 28 33  1  0  0  0  0
 29 30  1  0  0  0  0
 29 36  1  1  0  0  0
 30 31  1  0  0  0  0
 30 37  1  1  0  0  0
 31 32  1  0  0  0  0
 31 34  1  6  0  0  0
 32 33  1  0  0  0  0
 33 35  1  6  0  0  0
M  END
>  <CHROM.1>
158.27418317,76.87150155,169.73311638,73.78262395,-177.90649054,-172.95593587
-6.63536090,29.00774312,65.75119421,-2.82782523,0.19933714,-2.11160596

>  <Name>
ligand

>  <RI>
0

>  <Rbt.Current_Directory>
/home/itssahil/PROJECTS/Mol_Feturizer/Test_systems_manuscript/rnas/2g5k

>  <Rbt.Executable>
rbdock ($Id: //depot/dev/client3/rdock/2013.1/src/exe/rbdock.cxx#4 $)

>  <Rbt.Library>
libRbt.so (2013.1, Build901 2013/11/27)

>  <Rbt.Parameter_File>
/export/apps/rDock/src/rDock_2013.1_src/data/scripts/dock_solv.prm

>  <Rbt.Receptor>
prm/pocket_docking_4.prm

>  <SCORE>
-7.5071

>  <SCORE.INTER>
-3.50444

>  <SCORE.INTER.CONST>
1

>  <SCORE.INTER.POLAR>
0

>  <SCORE.INTER.ROT>
6

>  <SCORE.INTER.SOLV>
13.7099

>  <SCORE.INTER.VDW>
-14.5063

>  <SCORE.INTER.norm>
-0.0947145

>  <SCORE.INTRA>
-4.00267

>  <SCORE.INTRA.DIHEDRAL>
-7.45201

>  <SCORE.INTRA.DIHEDRAL.0>
11.3972

>  <SCORE.INTRA.POLAR>
0

>  <SCORE.INTRA.POLAR.0>
0

>  <SCORE.INTRA.REPUL>
0

>  <SCORE.INTRA.REPUL.0>
0

>  <SCORE.INTRA.SOLV>
-1.67378

>  <SCORE.INTRA.SOLV.lig_0>
-92.3891

>  <SCORE.INTRA.VDW>
0.560229

>  <SCORE.INTRA.VDW.0>
-2.90606

>  <SCORE.INTRA.norm>
-0.10818

>  <SCORE.RESTR>
0

>  <SCORE.RESTR.CAVITY>
0

>  <SCORE.RESTR.norm>
0

>  <SCORE.SYSTEM>
0

>  <SCORE.SYSTEM.CONST>
0

>  <SCORE.SYSTEM.DIHEDRAL>
0

>  <SCORE.SYSTEM.SOLV>
0

>  <SCORE.SYSTEM.norm>
0

>  <SCORE.heavy>
37

>  <SCORE.norm>
-0.202895

>  <RMSD>
10.275

$$$$
ligand
 OpenBabel02271912133D
libRbt.so/2013.1/901 2013/11/27
 37 40  0  0  0  0  0  0  0  0999 V2000
   -6.1609   31.2907   67.8770 C   0  0  1  0  0  0  0  0  0  0  0  0
   -5.5222   31.8636   66.5800 C   0  0  1  0  0  0  0  0  0  0  0  0
   -4.8775   30.7610   65.7186 C   0  0  0  0  0  0  0  0  0  0  0  0
   -3.8154   30.0054   66.5768 C   0  0  1  0  0  0  0  0  0  0  0  0
   -4.4756   29.3881   67.8522 C   0  0  1  0  0  0  0  0  0  0  0  0
   -3.3728   28.6232   68.7145 C   0  0  1  0  0  0  0  0  0  0  0  0
   -2.7339   27.5048   67.8400 C   0  0  1  0  0  0  0  0  0  0  0  0
   -2.1238   28.1709   66.5701 C   0  0  2  0  0  0  0  0  0  0  0  0
   -2.0779   25.6029   69.4719 C   0  0  0  0  0  0  0  0  0  0  0  0
   -6.5242   32.6136   65.7934 N   0  0  0  0  0  0  0  0  0  0  0  0
   -1.6716   26.7655   68.6196 N   0  0  0  0  0  0  0  0  0  0  0  0
   -7.3222   30.4806   67.6100 O   0  0  0  0  0  0  0  0  0  0  0  0
   -5.1284   30.5034   68.6005 O   0  0  0  0  0  0  0  0  0  0  0  0
   -3.1389   28.9097   65.8078 O   0  0  0  0  0  0  0  0  0  0  0  0
   -2.3473   29.5310   69.0959 O   0  0  0  0  0  0  0  0  0  0  0  0
   -1.5440   27.1796   65.7297 O   0  0  0  0  0  0  0  0  0  0  0  0
   -0.3850   27.6384   64.9912 C   0  0  2  0  0  0  0  0  0  0  0  0
    0.0265   26.6706   63.8566 C   0  0  1  0  0  0  0  0  0  0  0  0
    0.5343   25.3126   64.4400 C   0  0  2  0  0  0  0  0  0  0  0  0
    1.7362   25.5755   65.3245 C   0  0  1  0  0  0  0  0  0  0  0  0
    1.3120   26.5277   66.4826 C   0  0  1  0  0  0  0  0  0  0  0  0
    2.4783   26.8612   67.4109 C   0  0  0  0  0  0  0  0  0  0  0  0
    2.2378   24.2888   65.8645 N   0  0  0  0  0  0  0  0  0  0  0  0
    0.7803   27.8029   65.9106 O   0  0  0  0  0  0  0  0  0  0  0  0
   -1.1205   26.5048   62.9934 O   0  0  0  0  0  0  0  0  0  0  0  0
    0.9230   24.4417   63.3753 O   0  0  0  0  0  0  0  0  0  0  0  0
    1.9976   27.5750   68.5239 O   0  0  0  0  0  0  0  0  0  0  0  0
   -8.5692   31.0146   66.9393 C   0  0  1  0  0  0  0  0  0  0  0  0
   -9.5148   29.8185   66.6427 C   0  0  1  0  0  0  0  0  0  0  0  0
  -10.8120   30.3241   65.9473 C   0  0  2  0  0  0  0  0  0  0  0  0
  -11.5313   31.3277   66.8819 C   0  0  1  0  0  0  0  0  0  0  0  0
  -10.5998   32.5538   67.1919 C   0  0  0  0  0  0  0  0  0  0  0  0
   -9.3148   32.0266   67.8654 C   0  0  2  0  0  0  0  0  0  0  0  0
  -12.7733   31.8111   66.2323 N   0  0  0  0  0  0  0  0  0  0  0  0
   -8.4502   33.1769   68.1503 N   0  0  0  0  0  0  0  0  0  0  0  0
   -8.8445   28.8800   65.7726 O   0  0  0  0  0  0  0  0  0  0  0  0
  -11.6698   29.1931   65.6773 O   0  0  0  0  0  0  0  0  0  0  0  0
  1  2  1  0  0  0  0
  1 12  1  6  0  0  0
  1 13  1  0  0  0  0
  2  3  1  0  0  0  0
  2 10  1  6  0  0  0
  4  3  1  6  0  0  0
  4  5  1  0  0  0  0
  4 14  1  0  0  0  0
  5  6  1  0  0  0  0
  5 13  1  1  0  0  0
  6  7  1  0  0  0  0
  6 15  1  6  0  0  0
  7  8  1  0  0  0  0
  7 11  1  1  0  0  0
  8 14  1  0  0  0  0
  8 16  1  6  0  0  0
  9 11  1  0  0  0  0
 17 16  1  1  0  0  0
 17 18  1  0  0  0  0
 17 24  1  0  0  0  0
 18 19  1  0  0  0  0
 18 25  1  6  0  0  0
 19 20  1  0  0  0  0
 19 26  1  6  0  0  0
 20 21  1  0  0  0  0
 20 23  1  1  0  0  0
 21 22  1  1  0  0  0
 21 24  1  0  0  0  0
 22 27  1  0  0  0  0
 28 12  1  1  0  0  0
 28 29  1  0  0  0  0
 28 33  1  0  0  0  0
 29 30  1  0  0  0  0
 29 36  1  6  0  0  0
 30 31  1  0  0  0  0
 30 37  1  1  0  0  0
 31 32  1  0  0  0  0
 31 34  1  6  0  0  0
 32 33  1  0  0  0  0
 33 35  1  6  0  0  0
M  END
>  <CHROM.1>
-61.26407379,87.03591013,-147.57833071,172.12906557,-166.71090099,-172.39248363
-4.12939531,28.84324773,66.61343137,-2.83929232,0.33452971,-2.15641151

>  <Name>
ligand

>  <RI>
0

>  <Rbt.Current_Directory>
/home/itssahil/PROJECTS/Mol_Feturizer/Test_systems_manuscript/rnas/2g5k

>  <Rbt.Executable>
rbdock ($Id: //depot/dev/client3/rdock/2013.1/src/exe/rbdock.cxx#4 $)

>  <Rbt.Library>
libRbt.so (2013.1, Build901 2013/11/27)

>  <Rbt.Parameter_File>
/export/apps/rDock/src/rDock_2013.1_src/data/scripts/dock_solv.prm

>  <Rbt.Receptor>
prm/pocket_docking_3.prm

>  <SCORE>
-5.09514

>  <SCORE.INTER>
-3.61071

>  <SCORE.INTER.CONST>
1

>  <SCORE.INTER.POLAR>
0

>  <SCORE.INTER.ROT>
6

>  <SCORE.INTER.SOLV>
13.2559

>  <SCORE.INTER.VDW>
-14.4258

>  <SCORE.INTER.norm>
-0.0975867

>  <SCORE.INTRA>
-1.48492

>  <SCORE.INTRA.DIHEDRAL>
-5.46799

>  <SCORE.INTRA.DIHEDRAL.0>
11.3972

>  <SCORE.INTRA.POLAR>
0

>  <SCORE.INTRA.POLAR.0>
0

>  <SCORE.INTRA.REPUL>
0

>  <SCORE.INTRA.REPUL.0>
0

>  <SCORE.INTRA.SOLV>
3.54834

>  <SCORE.INTRA.SOLV.lig_0>
-92.3891

>  <SCORE.INTRA.VDW>
-0.525091

>  <SCORE.INTRA.VDW.0>
-2.90606

>  <SCORE.INTRA.norm>
-0.0401329

>  <SCORE.RESTR>
0.000486634

>  <SCORE.RESTR.CAVITY>
0.000486634

>  <SCORE.RESTR.norm>
1.31523e-05

>  <SCORE.SYSTEM>
0

>  <SCORE.SYSTEM.CONST>
0

>  <SCORE.SYSTEM.DIHEDRAL>
0

>  <SCORE.SYSTEM.SOLV>
0

>  <SCORE.SYSTEM.norm>
0

>  <SCORE.heavy>
37

>  <SCORE.norm>
-0.137706

>  <RMSD>
10.283

$$$$
ligand
 OpenBabel02271912133D
libRbt.so/2013.1/901 2013/11/27
 37 40  0  0  0  0  0  0  0  0999 V2000
   -5.9603   30.8815   66.1383 C   0  0  1  0  0  0  0  0  0  0  0  0
   -4.9579   31.5483   65.1538 C   0  0  1  0  0  0  0  0  0  0  0  0
   -4.0787   30.5085   64.4333 C   0  0  0  0  0  0  0  0  0  0  0  0
   -3.3271   29.6548   65.5018 C   0  0  1  0  0  0  0  0  0  0  0  0
   -4.3432   28.9462   66.4553 C   0  0  1  0  0  0  0  0  0  0  0  0
   -3.5540   28.0819   67.5392 C   0  0  1  0  0  0  0  0  0  0  0  0
   -2.6763   27.0277   66.8030 C   0  0  1  0  0  0  0  0  0  0  0  0
   -1.7097   27.7856   65.8440 C   0  0  2  0  0  0  0  0  0  0  0  0
   -1.9659   24.7039   67.7008 C   0  0  0  0  0  0  0  0  0  0  0  0
   -5.6742   32.3886   64.1710 N   0  0  0  0  0  0  0  0  0  0  0  0
   -1.9005   26.1970   67.7985 N   0  0  0  0  0  0  0  0  0  0  0  0
   -6.9831   30.1271   65.4591 O   0  0  0  0  0  0  0  0  0  0  0  0
   -5.1957   30.0087   67.0672 O   0  0  0  0  0  0  0  0  0  0  0  0
   -2.4458   28.6131   64.8792 O   0  0  0  0  0  0  0  0  0  0  0  0
   -2.6957   28.9271   68.2943 O   0  0  0  0  0  0  0  0  0  0  0  0
   -0.8990   26.8565   65.1337 O   0  0  0  0  0  0  0  0  0  0  0  0
    0.4540   27.3171   64.8960 C   0  0  2  0  0  0  0  0  0  0  0  0
    0.9603   26.9856   63.4722 C   0  0  1  0  0  0  0  0  0  0  0  0
    1.1080   25.4418   63.2793 C   0  0  2  0  0  0  0  0  0  0  0  0
    2.1024   24.9119   64.2924 C   0  0  1  0  0  0  0  0  0  0  0  0
    1.5762   25.2219   65.7259 C   0  0  1  0  0  0  0  0  0  0  0  0
    2.5371   24.7372   66.8098 C   0  0  0  0  0  0  0  0  0  0  0  0
    2.2649   23.4505   64.1012 N   0  0  0  0  0  0  0  0  0  0  0  0
    1.3902   26.6975   65.8809 O   0  0  0  0  0  0  0  0  0  0  0  0
    0.0288   27.5712   62.5355 O   0  0  0  0  0  0  0  0  0  0  0  0
    1.5913   25.1608   61.9638 O   0  0  0  0  0  0  0  0  0  0  0  0
    2.0077   25.0511   68.0750 O   0  0  0  0  0  0  0  0  0  0  0  0
   -8.2934   29.7363   66.1075 C   0  0  1  0  0  0  0  0  0  0  0  0
   -9.1582   31.0162   66.2714 C   0  0  1  0  0  0  0  0  0  0  0  0
  -10.5174   30.6592   66.9399 C   0  0  2  0  0  0  0  0  0  0  0  0
  -11.2704   29.6416   66.0480 C   0  0  1  0  0  0  0  0  0  0  0  0
  -10.4213   28.3319   65.8722 C   0  0  0  0  0  0  0  0  0  0  0  0
   -9.0736   28.7129   65.2234 C   0  0  2  0  0  0  0  0  0  0  0  0
  -12.5712   29.2992   66.6719 N   0  0  0  0  0  0  0  0  0  0  0  0
   -8.2865   27.4853   65.0639 N   0  0  0  0  0  0  0  0  0  0  0  0
   -8.4562   31.9677   67.1015 O   0  0  0  0  0  0  0  0  0  0  0  0
  -11.2985   31.8660   67.0863 O   0  0  0  0  0  0  0  0  0  0  0  0
  1  2  1  0  0  0  0
  1 12  1  6  0  0  0
  1 13  1  0  0  0  0
  2  3  1  0  0  0  0
  2 10  1  6  0  0  0
  4  3  1  6  0  0  0
  4  5  1  0  0  0  0
  4 14  1  0  0  0  0
  5  6  1  0  0  0  0
  5 13  1  1  0  0  0
  6  7  1  0  0  0  0
  6 15  1  6  0  0  0
  7  8  1  0  0  0  0
  7 11  1  1  0  0  0
  8 14  1  0  0  0  0
  8 16  1  6  0  0  0
  9 11  1  0  0  0  0
 17 16  1  6  0  0  0
 17 18  1  0  0  0  0
 17 24  1  0  0  0  0
 18 19  1  0  0  0  0
 18 25  1  6  0  0  0
 19 20  1  0  0  0  0
 19 26  1  6  0  0  0
 20 21  1  0  0  0  0
 20 23  1  1  0  0  0
 21 22  1  1  0  0  0
 21 24  1  0  0  0  0
 22 27  1  0  0  0  0
 28 12  1  6  0  0  0
 28 29  1  0  0  0  0
 28 33  1  0  0  0  0
 29 30  1  0  0  0  0
 29 36  1  1  0  0  0
 30 31  1  0  0  0  0
 30 37  1  6  0  0  0
 31 32  1  0  0  0  0
 31 34  1  1  0  0  0
 32 33  1  0  0  0  0
 33 35  1  1  0  0  0
M  END
>  <CHROM.1>
-160.86367453,128.64635881,-144.12177700,71.02691259,-138.21950977,179.77289454
-3.78439601,28.19850306,65.73293275,-2.94981180,-0.38703507,2.29556019

>  <Name>
ligand

>  <RI>
0

>  <Rbt.Current_Directory>
/home/itssahil/PROJECTS/Mol_Feturizer/Test_systems_manuscript/rnas/2g5k

>  <Rbt.Executable>
rbdock ($Id: //depot/dev/client3/rdock/2013.1/src/exe/rbdock.cxx#4 $)

>  <Rbt.Library>
libRbt.so (2013.1, Build901 2013/11/27)

>  <Rbt.Parameter_File>
/export/apps/rDock/src/rDock_2013.1_src/data/scripts/dock_solv.prm

>  <Rbt.Receptor>
prm/pocket_docking_2.prm

>  <SCORE>
3.47725

>  <SCORE.INTER>
1.8247

>  <SCORE.INTER.CONST>
1

>  <SCORE.INTER.POLAR>
0

>  <SCORE.INTER.ROT>
6

>  <SCORE.INTER.SOLV>
15.376

>  <SCORE.INTER.VDW>
-11.5089

>  <SCORE.INTER.norm>
0.0493161

>  <SCORE.INTRA>
0.130502

>  <SCORE.INTRA.DIHEDRAL>
2.35839

>  <SCORE.INTRA.DIHEDRAL.0>
11.3972

>  <SCORE.INTRA.POLAR>
0

>  <SCORE.INTRA.POLAR.0>
0

>  <SCORE.INTRA.REPUL>
0

>  <SCORE.INTRA.REPUL.0>
0

>  <SCORE.INTRA.SOLV>
-0.902225

>  <SCORE.INTRA.SOLV.lig_0>
-92.3891

>  <SCORE.INTRA.VDW>
-0.597582

>  <SCORE.INTRA.VDW.0>
-2.90606

>  <SCORE.INTRA.norm>
0.00352708

>  <SCORE.RESTR>
1.52205

>  <SCORE.RESTR.CAVITY>
1.52205

>  <SCORE.RESTR.norm>
0.0411366

>  <SCORE.SYSTEM>
0

>  <SCORE.SYSTEM.CONST>
0

>  <SCORE.SYSTEM.DIHEDRAL>
0

>  <SCORE.SYSTEM.SOLV>
0

>  <SCORE.SYSTEM.norm>
0

>  <SCORE.heavy>
37

>  <SCORE.norm>
0.0939798

>  <RMSD>
10.294

$$$$
ligand
 OpenBabel02271912133D
libRbt.so/2013.1/901 2013/11/27
 37 40  0  0  0  0  0  0  0  0999 V2000
   -6.1953   31.9527   65.6390 C   0  0  1  0  0  0  0  0  0  0  0  0
   -5.1763   32.3209   64.5234 C   0  0  1  0  0  0  0  0  0  0  0  0
   -4.3986   31.0889   64.0228 C   0  0  0  0  0  0  0  0  0  0  0  0
   -3.6806   30.4177   65.2348 C   0  0  1  0  0  0  0  0  0  0  0  0
   -4.7172   30.0033   66.3290 C   0  0  1  0  0  0  0  0  0  0  0  0
   -3.9621   29.3220   67.5579 C   0  0  1  0  0  0  0  0  0  0  0  0
   -3.1874   28.0727   67.0450 C   0  0  1  0  0  0  0  0  0  0  0  0
   -2.1965   28.5380   65.9358 C   0  0  2  0  0  0  0  0  0  0  0  0
   -2.2950   25.9169   68.1704 C   0  0  0  0  0  0  0  0  0  0  0  0
   -5.8576   32.9940   63.3973 N   0  0  0  0  0  0  0  0  0  0  0  0
   -2.4457   27.4070   68.1806 N   0  0  0  0  0  0  0  0  0  0  0  0
   -7.2911   31.1573   65.1460 O   0  0  0  0  0  0  0  0  0  0  0  0
   -5.4699   31.2330   66.7183 O   0  0  0  0  0  0  0  0  0  0  0  0
   -2.8979   29.2038   64.8303 O   0  0  0  0  0  0  0  0  0  0  0  0
   -3.0212   30.2345   68.1085 O   0  0  0  0  0  0  0  0  0  0  0  0
   -1.4786   27.4214   65.4231 O   0  0  0  0  0  0  0  0  0  0  0  0
   -0.3483   27.7801   64.5905 C   0  0  2  0  0  0  0  0  0  0  0  0
    0.0326   26.6694   63.5832 C   0  0  1  0  0  0  0  0  0  0  0  0
    0.5699   25.4041   64.3265 C   0  0  2  0  0  0  0  0  0  0  0  0
    1.7986   25.7876   65.1261 C   0  0  1  0  0  0  0  0  0  0  0  0
    1.4059   26.8858   66.1592 C   0  0  1  0  0  0  0  0  0  0  0  0
    2.5999   27.3451   66.9940 C   0  0  0  0  0  0  0  0  0  0  0  0
    2.3278   24.5870   65.8171 N   0  0  0  0  0  0  0  0  0  0  0  0
    0.8457   28.0707   65.4392 O   0  0  0  0  0  0  0  0  0  0  0  0
   -1.1412   26.3851   62.7898 O   0  0  0  0  0  0  0  0  0  0  0  0
    0.9297   24.3988   63.3762 O   0  0  0  0  0  0  0  0  0  0  0  0
    3.6991   27.5751   66.1465 O   0  0  0  0  0  0  0  0  0  0  0  0
   -8.4381   30.6950   66.0183 C   0  0  1  0  0  0  0  0  0  0  0  0
   -9.4009   31.8945   66.2354 C   0  0  1  0  0  0  0  0  0  0  0  0
  -10.5965   31.4627   67.1331 C   0  0  2  0  0  0  0  0  0  0  0  0
  -11.3620   30.3090   66.4392 C   0  0  1  0  0  0  0  0  0  0  0  0
  -10.4132   29.0775   66.2148 C   0  0  0  0  0  0  0  0  0  0  0  0
   -9.2284   29.5337   65.3368 C   0  0  2  0  0  0  0  0  0  0  0  0
  -12.5085   29.8938   67.2827 N   0  0  0  0  0  0  0  0  0  0  0  0
   -8.3469   28.3789   65.1331 N   0  0  0  0  0  0  0  0  0  0  0  0
   -8.6878   32.9727   66.8806 O   0  0  0  0  0  0  0  0  0  0  0  0
  -11.4719   32.5963   67.3242 O   0  0  0  0  0  0  0  0  0  0  0  0
  1  2  1  0  0  0  0
  1 12  1  6  0  0  0
  1 13  1  0  0  0  0
  2  3  1  0  0  0  0
  2 10  1  6  0  0  0
  4  3  1  6  0  0  0
  4  5  1  0  0  0  0
  4 14  1  0  0  0  0
  5  6  1  0  0  0  0
  5 13  1  1  0  0  0
  6  7  1  0  0  0  0
  6 15  1  6  0  0  0
  7  8  1  0  0  0  0
  7 11  1  1  0  0  0
  8 14  1  0  0  0  0
  8 16  1  6  0  0  0
  9 11  1  0  0  0  0
 17 16  1  1  0  0  0
 17 18  1  0  0  0  0
 17 24  1  0  0  0  0
 18 19  1  0  0  0  0
 18 25  1  1  0  0  0
 19 20  1  0  0  0  0
 19 26  1  6  0  0  0
 20 21  1  0  0  0  0
 20 23  1  1  0  0  0
 21 22  1  6  0  0  0
 21 24  1  0  0  0  0
 22 27  1  0  0  0  0
 28 12  1  6  0  0  0
 28 29  1  0  0  0  0
 28 33  1  0  0  0  0
 29 30  1  0  0  0  0
 29 36  1  1  0  0  0
 30 31  1  0  0  0  0
 30 37  1  6  0  0  0
 31 32  1  0  0  0  0
 31 34  1  1  0  0  0
 32 33  1  0  0  0  0
 33 35  1  1  0  0  0
M  END
>  <CHROM.1>
-178.38645864,146.18898103,-167.99703882,77.27220917,-155.19169581,46.11850665
-4.06059978,29.04795219,65.80134341,-2.74549754,-0.15708571,2.98505656

>  <Name>
ligand

>  <RI>
0

>  <Rbt.Current_Directory>
/home/itssahil/PROJECTS/Mol_Feturizer/Test_systems_manuscript/rnas/2g5k

>  <Rbt.Executable>
rbdock ($Id: //depot/dev/client3/rdock/2013.1/src/exe/rbdock.cxx#4 $)

>  <Rbt.Library>
libRbt.so (2013.1, Build901 2013/11/27)

>  <Rbt.Parameter_File>
/export/apps/rDock/src/rDock_2013.1_src/data/scripts/dock_solv.prm

>  <Rbt.Receptor>
prm/pocket_docking_3.prm

>  <SCORE>
-4.16331

>  <SCORE.INTER>
-1.11124

>  <SCORE.INTER.CONST>
1

>  <SCORE.INTER.POLAR>
0

>  <SCORE.INTER.ROT>
6

>  <SCORE.INTER.SOLV>
13.5488

>  <SCORE.INTER.VDW>
-12.8571

>  <SCORE.INTER.norm>
-0.0300335

>  <SCORE.INTRA>
-3.16577

>  <SCORE.INTRA.DIHEDRAL>
-5.27754

>  <SCORE.INTRA.DIHEDRAL.0>
11.3972

>  <SCORE.INTRA.POLAR>
0

>  <SCORE.INTRA.POLAR.0>
0

>  <SCORE.INTRA.REPUL>
0

>  <SCORE.INTRA.REPUL.0>
0

>  <SCORE.INTRA.SOLV>
-0.868977

>  <SCORE.INTRA.SOLV.lig_0>
-92.3891

>  <SCORE.INTRA.VDW>
-0.0925084

>  <SCORE.INTRA.VDW.0>
-2.90606

>  <SCORE.INTRA.norm>
-0.0855612

>  <SCORE.RESTR>
0.113699

>  <SCORE.RESTR.CAVITY>
0.113699

>  <SCORE.RESTR.norm>
0.00307295

>  <SCORE.SYSTEM>
0

>  <SCORE.SYSTEM.CONST>
0

>  <SCORE.SYSTEM.DIHEDRAL>
0

>  <SCORE.SYSTEM.SOLV>
0

>  <SCORE.SYSTEM.norm>
0

>  <SCORE.heavy>
37

>  <SCORE.norm>
-0.112522

>  <RMSD>
10.301

$$$$
ligand
 OpenBabel02271912133D
libRbt.so/2013.1/901 2013/11/27
 37 40  0  0  0  0  0  0  0  0999 V2000
   -6.4605   31.9528   66.6480 C   0  0  1  0  0  0  0  0  0  0  0  0
   -5.6154   32.0898   65.3497 C   0  0  1  0  0  0  0  0  0  0  0  0
   -4.7869   30.8228   65.0642 C   0  0  0  0  0  0  0  0  0  0  0  0
   -3.8744   30.5275   66.2952 C   0  0  1  0  0  0  0  0  0  0  0  0
   -4.7351   30.3394   67.5865 C   0  0  1  0  0  0  0  0  0  0  0  0
   -3.7830   30.0409   68.8312 C   0  0  1  0  0  0  0  0  0  0  0  0
   -2.9573   28.7539   68.5384 C   0  0  1  0  0  0  0  0  0  0  0  0
   -2.1485   28.9844   67.2264 C   0  0  2  0  0  0  0  0  0  0  0  0
   -1.8204   27.0172   70.0882 C   0  0  0  0  0  0  0  0  0  0  0  0
   -6.4818   32.4111   64.1959 N   0  0  0  0  0  0  0  0  0  0  0  0
   -2.0308   28.4460   69.6915 N   0  0  0  0  0  0  0  0  0  0  0  0
   -7.5251   30.9909   66.5156 O   0  0  0  0  0  0  0  0  0  0  0  0
   -5.5513   31.5775   67.7624 O   0  0  0  0  0  0  0  0  0  0  0  0
   -3.0318   29.3026   66.0969 O   0  0  0  0  0  0  0  0  0  0  0  0
   -2.8761   31.1208   69.0114 O   0  0  0  0  0  0  0  0  0  0  0  0
   -1.3914   27.8220   66.9092 O   0  0  0  0  0  0  0  0  0  0  0  0
   -0.0589   27.8139   67.4780 C   0  0  2  0  0  0  0  0  0  0  0  0
    0.9149   28.7638   66.7412 C   0  0  1  0  0  0  0  0  0  0  0  0
    1.1843   28.2647   65.2849 C   0  0  2  0  0  0  0  0  0  0  0  0
    1.7962   26.8798   65.3444 C   0  0  1  0  0  0  0  0  0  0  0  0
    0.8014   25.9188   66.0616 C   0  0  1  0  0  0  0  0  0  0  0  0
    1.3559   24.5006   66.1825 C   0  0  0  0  0  0  0  0  0  0  0  0
    2.0755   26.4081   63.9666 N   0  0  0  0  0  0  0  0  0  0  0  0
    0.5118   26.4345   67.4350 O   0  0  0  0  0  0  0  0  0  0  0  0
    0.3336   30.0864   66.7716 O   0  0  0  0  0  0  0  0  0  0  0  0
    2.0975   29.1480   64.6300 O   0  0  0  0  0  0  0  0  0  0  0  0
    1.5086   23.9496   64.8970 O   0  0  0  0  0  0  0  0  0  0  0  0
   -8.6733   30.8849   67.4957 C   0  0  1  0  0  0  0  0  0  0  0  0
   -9.5839   29.7059   67.0557 C   0  0  1  0  0  0  0  0  0  0  0  0
  -10.7831   29.5634   68.0372 C   0  0  2  0  0  0  0  0  0  0  0  0
  -10.2431   29.2907   69.4628 C   0  0  1  0  0  0  0  0  0  0  0  0
   -9.3246   30.4731   69.9374 C   0  0  0  0  0  0  0  0  0  0  0  0
   -8.1532   30.6053   68.9411 C   0  0  2  0  0  0  0  0  0  0  0  0
  -11.3779   29.1459   70.4060 N   0  0  0  0  0  0  0  0  0  0  0  0
   -7.3014   31.7119   69.3904 N   0  0  0  0  0  0  0  0  0  0  0  0
  -10.0868   29.9575   65.7249 O   0  0  0  0  0  0  0  0  0  0  0  0
  -11.6162   28.4658   67.6024 O   0  0  0  0  0  0  0  0  0  0  0  0
  1  2  1  0  0  0  0
  1 12  1  6  0  0  0
  1 13  1  0  0  0  0
  2  3  1  0  0  0  0
  2 10  1  6  0  0  0
  4  3  1  6  0  0  0
  4  5  1  0  0  0  0
  4 14  1  0  0  0  0
  5  6  1  0  0  0  0
  5 13  1  1  0  0  0
  6  7  1  0  0  0  0
  6 15  1  6  0  0  0
  7  8  1  0  0  0  0
  7 11  1  1  0  0  0
  8 14  1  0  0  0  0
  8 16  1  6  0  0  0
  9 11  1  0  0  0  0
 17 16  1  6  0  0  0
 17 18  1  0  0  0  0
 17 24  1  0  0  0  0
 18 19  1  0  0  0  0
 18 25  1  6  0  0  0
 19 20  1  0  0  0  0
 19 26  1  1  0  0  0
 20 21  1  0  0  0  0
 20 23  1  6  0  0  0
 21 22  1  1  0  0  0
 21 24  1  0  0  0  0
 22 27  1  0  0  0  0
 28 12  1  6  0  0  0
 28 29  1  0  0  0  0
 28 33  1  0  0  0  0
 29 30  1  0  0  0  0
 29 36  1  6  0  0  0
 30 31  1  0  0  0  0
 30 37  1  6  0  0  0
 31 32  1  0  0  0  0
 31 34  1  1  0  0  0
 32 33  1  0  0  0  0
 33 35  1  1  0  0  0
M  END
>  <CHROM.1>
-165.79887950,141.75477403,-90.44219380,-177.82602294,-74.96784445,-64.73314407
-4.00850578,29.17315764,67.13692735,-3.01446470,-0.33013723,2.47936134

>  <Name>
ligand

>  <RI>
0

>  <Rbt.Current_Directory>
/home/itssahil/PROJECTS/Mol_Feturizer/Test_systems_manuscript/rnas/2g5k

>  <Rbt.Executable>
rbdock ($Id: //depot/dev/client3/rdock/2013.1/src/exe/rbdock.cxx#4 $)

>  <Rbt.Library>
libRbt.so (2013.1, Build901 2013/11/27)

>  <Rbt.Parameter_File>
/export/apps/rDock/src/rDock_2013.1_src/data/scripts/dock_solv.prm

>  <Rbt.Receptor>
prm/pocket_docking_4.prm

>  <SCORE>
-6.74418

>  <SCORE.INTER>
-7.46329

>  <SCORE.INTER.CONST>
1

>  <SCORE.INTER.POLAR>
0

>  <SCORE.INTER.ROT>
6

>  <SCORE.INTER.SOLV>
16.0871

>  <SCORE.INTER.VDW>
-17.9379

>  <SCORE.INTER.norm>
-0.201711

>  <SCORE.INTRA>
0.719118

>  <SCORE.INTRA.DIHEDRAL>
-4.74853

>  <SCORE.INTRA.DIHEDRAL.0>
11.3972

>  <SCORE.INTRA.POLAR>
0

>  <SCORE.INTRA.POLAR.0>
0

>  <SCORE.INTRA.REPUL>
0

>  <SCORE.INTRA.REPUL.0>
0

>  <SCORE.INTRA.SOLV>
3.2123

>  <SCORE.INTRA.SOLV.lig_0>
-92.3891

>  <SCORE.INTRA.VDW>
1.48723

>  <SCORE.INTRA.VDW.0>
-2.90606

>  <SCORE.INTRA.norm>
0.0194356

>  <SCORE.RESTR>
0

>  <SCORE.RESTR.CAVITY>
0

>  <SCORE.RESTR.norm>
0

>  <SCORE.SYSTEM>
0

>  <SCORE.SYSTEM.CONST>
0

>  <SCORE.SYSTEM.DIHEDRAL>
0

>  <SCORE.SYSTEM.SOLV>
0

>  <SCORE.SYSTEM.norm>
0

>  <SCORE.heavy>
37

>  <SCORE.norm>
-0.182275

>  <RMSD>
10.308

$$$$
ligand
 OpenBabel02271912133D
libRbt.so/2013.1/901 2013/11/27
 37 40  0  0  0  0  0  0  0  0999 V2000
   -4.3794   29.8480   65.3280 C   0  0  1  0  0  0  0  0  0  0  0  0
   -3.3001   30.3971   64.3523 C   0  0  1  0  0  0  0  0  0  0  0  0
   -2.3408   29.2915   63.8719 C   0  0  0  0  0  0  0  0  0  0  0  0
   -1.6789   28.6209   65.1159 C   0  0  1  0  0  0  0  0  0  0  0  0
   -2.7683   28.0257   66.0659 C   0  0  1  0  0  0  0  0  0  0  0  0
   -2.0703   27.3479   67.3300 C   0  0  1  0  0  0  0  0  0  0  0  0
   -1.1108   26.2258   66.8361 C   0  0  1  0  0  0  0  0  0  0  0  0
   -0.0709   26.8676   65.8690 C   0  0  2  0  0  0  0  0  0  0  0  0
   -1.2427   24.8105   69.0017 C   0  0  0  0  0  0  0  0  0  0  0  0
   -3.9346   31.0677   63.1978 N   0  0  0  0  0  0  0  0  0  0  0  0
   -0.4184   25.5683   68.0070 N   0  0  0  0  0  0  0  0  0  0  0  0
   -5.3219   28.9751   64.6753 O   0  0  0  0  0  0  0  0  0  0  0  0
   -3.6913   29.1390   66.4385 O   0  0  0  0  0  0  0  0  0  0  0  0
   -0.7266   27.5275   64.7323 O   0  0  0  0  0  0  0  0  0  0  0  0
   -1.3002   28.3167   68.0297 O   0  0  0  0  0  0  0  0  0  0  0  0
    0.8175   25.8711   65.3765 O   0  0  0  0  0  0  0  0  0  0  0  0
    2.1610   26.3521   65.1255 C   0  0  2  0  0  0  0  0  0  0  0  0
    2.4361   26.6116   63.6254 C   0  0  1  0  0  0  0  0  0  0  0  0
    2.4173   25.2745   62.8165 C   0  0  2  0  0  0  0  0  0  0  0  0
    3.4895   24.3537   63.3627 C   0  0  1  0  0  0  0  0  0  0  0  0
    3.1942   24.0710   64.8662 C   0  0  1  0  0  0  0  0  0  0  0  0
    4.2471   23.1637   65.4997 C   0  0  0  0  0  0  0  0  0  0  0  0
    3.4930   23.0907   62.5855 N   0  0  0  0  0  0  0  0  0  0  0  0
    3.1639   25.3621   65.6200 O   0  0  0  0  0  0  0  0  0  0  0  0
    1.4412   27.5508   63.1603 O   0  0  0  0  0  0  0  0  0  0  0  0
    2.6890   25.5371   61.4380 O   0  0  0  0  0  0  0  0  0  0  0  0
    3.8404   22.8173   66.8013 O   0  0  0  0  0  0  0  0  0  0  0  0
   -6.5798   28.4647   65.3440 C   0  0  1  0  0  0  0  0  0  0  0  0
   -7.4491   29.6872   65.7472 C   0  0  1  0  0  0  0  0  0  0  0  0
   -8.7550   29.2063   66.4439 C   0  0  2  0  0  0  0  0  0  0  0  0
   -9.5525   28.3098   65.4649 C   0  0  1  0  0  0  0  0  0  0  0  0
   -8.6992   27.0591   65.0466 C   0  0  0  0  0  0  0  0  0  0  0  0
   -7.4039   27.5608   64.3737 C   0  0  2  0  0  0  0  0  0  0  0  0
  -10.8032   27.8511   66.1158 N   0  0  0  0  0  0  0  0  0  0  0  0
   -6.6125   26.3875   63.9875 N   0  0  0  0  0  0  0  0  0  0  0  0
   -6.7058   30.5260   66.6589 O   0  0  0  0  0  0  0  0  0  0  0  0
   -9.5410   30.3609   66.8137 O   0  0  0  0  0  0  0  0  0  0  0  0
  1  2  1  0  0  0  0
  1 12  1  6  0  0  0
  1 13  1  0  0  0  0
  2  3  1  0  0  0  0
  2 10  1  6  0  0  0
  4  3  1  6  0  0  0
  4  5  1  0  0  0  0
  4 14  1  0  0  0  0
  5  6  1  0  0  0  0
  5 13  1  1  0  0  0
  6  7  1  0  0  0  0
  6 15  1  6  0  0  0
  7  8  1  0  0  0  0
  7 11  1  1  0  0  0
  8 14  1  0  0  0  0
  8 16  1  6  0  0  0
  9 11  1  0  0  0  0
 17 16  1  6  0  0  0
 17 18  1  0  0  0  0
 17 24  1  0  0  0  0
 18 19  1  0  0  0  0
 18 25  1  6  0  0  0
 19 20  1  0  0  0  0
 19 26  1  6  0  0  0
 20 21  1  0  0  0  0
 20 23  1  6  0  0  0
 21 22  1  1  0  0  0
 21 24  1  0  0  0  0
 22 27  1  0  0  0  0
 28 12  1  6  0  0  0
 28 29  1  0  0  0  0
 28 33  1  0  0  0  0
 29 30  1  0  0  0  0
 29 36  1  1  0  0  0
 30 31  1  0  0  0  0
 30 37  1  6  0  0  0
 31 32  1  0  0  0  0
 31 34  1  1  0  0  0
 32 33  1  0  0  0  0
 33 35  1  1  0  0  0
M  END
>  <CHROM.1>
-171.01045693,64.41267731,-147.46419656,59.70681453,-101.73658559,-172.94988185
-2.20138015,27.22605830,65.29048395,-3.03114943,-0.37401349,2.11440246

>  <Name>
ligand

>  <RI>
0

>  <Rbt.Current_Directory>
/home/itssahil/PROJECTS/Mol_Feturizer/Test_systems_manuscript/rnas/2g5k

>  <Rbt.Executable>
rbdock ($Id: //depot/dev/client3/rdock/2013.1/src/exe/rbdock.cxx#4 $)

>  <Rbt.Library>
libRbt.so (2013.1, Build901 2013/11/27)

>  <Rbt.Parameter_File>
/export/apps/rDock/src/rDock_2013.1_src/data/scripts/dock_solv.prm

>  <Rbt.Receptor>
prm/pocket_docking_3.prm

>  <SCORE>
-4.7402

>  <SCORE.INTER>
-4.00134

>  <SCORE.INTER.CONST>
1

>  <SCORE.INTER.POLAR>
0

>  <SCORE.INTER.ROT>
6

>  <SCORE.INTER.SOLV>
21.0363

>  <SCORE.INTER.VDW>
-17.2797

>  <SCORE.INTER.norm>
-0.108144

>  <SCORE.INTRA>
-0.738856

>  <SCORE.INTRA.DIHEDRAL>
-1.05194

>  <SCORE.INTRA.DIHEDRAL.0>
11.3972

>  <SCORE.INTRA.POLAR>
0

>  <SCORE.INTRA.POLAR.0>
0

>  <SCORE.INTRA.REPUL>
0

>  <SCORE.INTRA.REPUL.0>
0

>  <SCORE.INTRA.SOLV>
-1.47958

>  <SCORE.INTRA.SOLV.lig_0>
-92.3891

>  <SCORE.INTRA.VDW>
0.526903

>  <SCORE.INTRA.VDW.0>
-2.90606

>  <SCORE.INTRA.norm>
-0.0199691

>  <SCORE.RESTR>
0

>  <SCORE.RESTR.CAVITY>
0

>  <SCORE.RESTR.norm>
0

>  <SCORE.SYSTEM>
0

>  <SCORE.SYSTEM.CONST>
0

>  <SCORE.SYSTEM.DIHEDRAL>
0

>  <SCORE.SYSTEM.SOLV>
0

>  <SCORE.SYSTEM.norm>
0

>  <SCORE.heavy>
37

>  <SCORE.norm>
-0.128114

>  <RMSD>
10.309

$$$$
ligand
 OpenBabel02271912133D
libRbt.so/2013.1/901 2013/11/27
 37 40  0  0  0  0  0  0  0  0999 V2000
   -4.6378   31.5026   68.2749 C   0  0  1  0  0  0  0  0  0  0  0  0
   -3.4289   32.2457   67.6387 C   0  0  1  0  0  0  0  0  0  0  0  0
   -2.5462   31.3004   66.8017 C   0  0  0  0  0  0  0  0  0  0  0  0
   -2.0644   30.1246   67.7075 C   0  0  1  0  0  0  0  0  0  0  0  0
   -3.2857   29.3505   68.3016 C   0  0  1  0  0  0  0  0  0  0  0  0
   -2.7705   28.1557   69.2245 C   0  0  1  0  0  0  0  0  0  0  0  0
   -1.8881   27.2004   68.3686 C   0  0  1  0  0  0  0  0  0  0  0  0
   -0.7098   28.0299   67.7752 C   0  0  2  0  0  0  0  0  0  0  0  0
   -1.3153   24.6867   68.6206 C   0  0  0  0  0  0  0  0  0  0  0  0
   -3.8913   33.3837   66.8162 N   0  0  0  0  0  0  0  0  0  0  0  0
   -1.3685   26.0609   69.2137 N   0  0  0  0  0  0  0  0  0  0  0  0
   -5.6023   31.0747   67.2936 O   0  0  0  0  0  0  0  0  0  0  0  0
   -4.1222   30.3399   69.0440 O   0  0  0  0  0  0  0  0  0  0  0  0
   -1.1958   29.1538   66.9640 O   0  0  0  0  0  0  0  0  0  0  0  0
   -1.9714   28.6747   70.2796 O   0  0  0  0  0  0  0  0  0  0  0  0
    0.1145   27.1978   66.9670 O   0  0  0  0  0  0  0  0  0  0  0  0
    1.1674   26.5232   67.6989 C   0  0  2  0  0  0  0  0  0  0  0  0
    2.4632   27.3626   67.7980 C   0  0  1  0  0  0  0  0  0  0  0  0
    3.1170   27.5457   66.3904 C   0  0  2  0  0  0  0  0  0  0  0  0
    3.4547   26.1818   65.8232 C   0  0  1  0  0  0  0  0  0  0  0  0
    2.1440   25.3487   65.6977 C   0  0  1  0  0  0  0  0  0  0  0  0
    2.4028   23.9459   65.1516 C   0  0  0  0  0  0  0  0  0  0  0  0
    4.0960   26.3481   64.4966 N   0  0  0  0  0  0  0  0  0  0  0  0
    1.5013   25.2241   67.0421 O   0  0  0  0  0  0  0  0  0  0  0  0
    2.1149   28.6235   68.4119 O   0  0  0  0  0  0  0  0  0  0  0  0
    4.3192   28.3097   66.5090 O   0  0  0  0  0  0  0  0  0  0  0  0
    3.1804   23.2233   66.0751 O   0  0  0  0  0  0  0  0  0  0  0  0
   -6.6775   30.0492   67.5803 C   0  0  1  0  0  0  0  0  0  0  0  0
   -7.8164   30.7446   68.3754 C   0  0  1  0  0  0  0  0  0  0  0  0
   -8.9447   29.7217   68.6954 C   0  0  2  0  0  0  0  0  0  0  0  0
   -9.5133   29.1609   67.3686 C   0  0  1  0  0  0  0  0  0  0  0  0
   -8.3832   28.4434   66.5468 C   0  0  0  0  0  0  0  0  0  0  0  0
   -7.2697   29.4720   66.2559 C   0  0  2  0  0  0  0  0  0  0  0  0
  -10.5948   28.1897   67.6611 N   0  0  0  0  0  0  0  0  0  0  0  0
   -6.2182   28.7941   65.4898 N   0  0  0  0  0  0  0  0  0  0  0  0
   -7.2872   31.2703   69.6127 O   0  0  0  0  0  0  0  0  0  0  0  0
   -9.9867   30.3914   69.4395 O   0  0  0  0  0  0  0  0  0  0  0  0
  1  2  1  0  0  0  0
  1 12  1  6  0  0  0
  1 13  1  0  0  0  0
  2  3  1  0  0  0  0
  2 10  1  6  0  0  0
  4  3  1  6  0  0  0
  4  5  1  0  0  0  0
  4 14  1  0  0  0  0
  5  6  1  0  0  0  0
  5 13  1  1  0  0  0
  6  7  1  0  0  0  0
  6 15  1  1  0  0  0
  7  8  1  0  0  0  0
  7 11  1  1  0  0  0
  8 14  1  0  0  0  0
  8 16  1  6  0  0  0
  9 11  1  0  0  0  0
 17 16  1  6  0  0  0
 17 18  1  0  0  0  0
 17 24  1  0  0  0  0
 18 19  1  0  0  0  0
 18 25  1  6  0  0  0
 19 20  1  0  0  0  0
 19 26  1  1  0  0  0
 20 21  1  0  0  0  0
 20 23  1  6  0  0  0
 21 22  1  1  0  0  0
 21 24  1  0  0  0  0
 22 27  1  0  0  0  0
 28 12  1  6  0  0  0
 28 29  1  0  0  0  0
 28 33  1  0  0  0  0
 29 30  1  0  0  0  0
 29 36  1  1  0  0  0
 30 31  1  0  0  0  0
 30 37  1  6  0  0  0
 31 32  1  0  0  0  0
 31 34  1  1  0  0  0
 32 33  1  0  0  0  0
 33 35  1  1  0  0  0
M  END
>  <CHROM.1>
164.22891357,140.36964370,-87.99507297,78.15153951,-88.20624664,65.10194923
-2.48175756,28.45388998,67.51642290,-2.75480953,-0.08583476,-3.00748557

>  <Name>
ligand

>  <RI>
0

>  <Rbt.Current_Directory>
/home/itssahil/PROJECTS/Mol_Feturizer/Test_systems_manuscript/rnas/2g5k

>  <Rbt.Executable>
rbdock ($Id: //depot/dev/client3/rdock/2013.1/src/exe/rbdock.cxx#4 $)

>  <Rbt.Library>
libRbt.so (2013.1, Build901 2013/11/27)

>  <Rbt.Parameter_File>
/export/apps/rDock/src/rDock_2013.1_src/data/scripts/dock_solv.prm

>  <Rbt.Receptor>
prm/pocket_docking_8.prm

>  <SCORE>
-10.1539

>  <SCORE.INTER>
-9.29018

>  <SCORE.INTER.CONST>
1

>  <SCORE.INTER.POLAR>
0

>  <SCORE.INTER.ROT>
6

>  <SCORE.INTER.SOLV>
13.4441

>  <SCORE.INTER.VDW>
-18.2748

>  <SCORE.INTER.norm>
-0.251086

>  <SCORE.INTRA>
-0.863697

>  <SCORE.INTRA.DIHEDRAL>
-1.24921

>  <SCORE.INTRA.DIHEDRAL.0>
11.3972

>  <SCORE.INTRA.POLAR>
0

>  <SCORE.INTRA.POLAR.0>
0

>  <SCORE.INTRA.REPUL>
0

>  <SCORE.INTRA.REPUL.0>
0

>  <SCORE.INTRA.SOLV>
-0.0816135

>  <SCORE.INTRA.SOLV.lig_0>
-92.3891

>  <SCORE.INTRA.VDW>
-0.198284

>  <SCORE.INTRA.VDW.0>
-2.90606

>  <SCORE.INTRA.norm>
-0.0233432

>  <SCORE.RESTR>
0

>  <SCORE.RESTR.CAVITY>
0

>  <SCORE.RESTR.norm>
0

>  <SCORE.SYSTEM>
0

>  <SCORE.SYSTEM.CONST>
0

>  <SCORE.SYSTEM.DIHEDRAL>
0

>  <SCORE.SYSTEM.SOLV>
0

>  <SCORE.SYSTEM.norm>
0

>  <SCORE.heavy>
37

>  <SCORE.norm>
-0.274429

>  <RMSD>
10.317

$$$$
ligand
 OpenBabel02271912133D
libRbt.so/2013.1/901 2013/11/27
 37 40  0  0  0  0  0  0  0  0999 V2000
   -4.3898   33.0643   67.9313 C   0  0  1  0  0  0  0  0  0  0  0  0
   -2.9591   33.6541   68.0853 C   0  0  1  0  0  0  0  0  0  0  0  0
   -2.1138   33.4569   66.8125 C   0  0  0  0  0  0  0  0  0  0  0  0
   -2.0563   31.9345   66.4747 C   0  0  1  0  0  0  0  0  0  0  0  0
   -3.4960   31.3607   66.2701 C   0  0  1  0  0  0  0  0  0  0  0  0
   -3.4135   29.8048   65.9282 C   0  0  1  0  0  0  0  0  0  0  0  0
   -2.5664   29.6157   64.6357 C   0  0  1  0  0  0  0  0  0  0  0  0
   -1.1579   30.2346   64.8840 C   0  0  2  0  0  0  0  0  0  0  0  0
   -2.0144   27.7670   62.9071 C   0  0  0  0  0  0  0  0  0  0  0  0
   -3.0222   35.0861   68.4465 N   0  0  0  0  0  0  0  0  0  0  0  0
   -2.4533   28.1500   64.2869 N   0  0  0  0  0  0  0  0  0  0  0  0
   -5.1932   33.8016   66.9893 O   0  0  0  0  0  0  0  0  0  0  0  0
   -4.2692   31.6422   67.5163 O   0  0  0  0  0  0  0  0  0  0  0  0
   -1.2486   31.6563   65.2418 O   0  0  0  0  0  0  0  0  0  0  0  0
   -2.7673   29.1139   66.9894 O   0  0  0  0  0  0  0  0  0  0  0  0
   -0.3536   30.1011   63.7176 O   0  0  0  0  0  0  0  0  0  0  0  0
    0.9676   30.6821   63.8438 C   0  0  2  0  0  0  0  0  0  0  0  0
    1.7919   30.5901   62.5379 C   0  0  1  0  0  0  0  0  0  0  0  0
    2.1266   29.1027   62.1945 C   0  0  2  0  0  0  0  0  0  0  0  0
    2.9325   28.5047   63.3298 C   0  0  1  0  0  0  0  0  0  0  0  0
    2.0889   28.5726   64.6380 C   0  0  1  0  0  0  0  0  0  0  0  0
    2.8428   28.0070   65.8400 C   0  0  0  0  0  0  0  0  0  0  0  0
    3.2732   27.0993   63.0015 N   0  0  0  0  0  0  0  0  0  0  0  0
    1.7315   29.9954   64.9279 O   0  0  0  0  0  0  0  0  0  0  0  0
    1.0256   31.2367   61.4973 O   0  0  0  0  0  0  0  0  0  0  0  0
    2.9008   29.0438   60.9944 O   0  0  0  0  0  0  0  0  0  0  0  0
    3.0784   26.6348   65.6377 O   0  0  0  0  0  0  0  0  0  0  0  0
   -6.6463   33.4835   66.7114 C   0  0  1  0  0  0  0  0  0  0  0  0
   -6.7166   32.1077   65.9938 C   0  0  1  0  0  0  0  0  0  0  0  0
   -8.1975   31.7424   65.6850 C   0  0  2  0  0  0  0  0  0  0  0  0
   -8.9903   31.6696   67.0133 C   0  0  1  0  0  0  0  0  0  0  0  0
   -8.9434   33.0522   67.7572 C   0  0  0  0  0  0  0  0  0  0  0  0
   -7.4660   33.4004   68.0377 C   0  0  2  0  0  0  0  0  0  0  0  0
  -10.4022   31.3150   66.7319 N   0  0  0  0  0  0  0  0  0  0  0  0
   -7.4308   34.6927   68.7309 N   0  0  0  0  0  0  0  0  0  0  0  0
   -5.9756   32.1731   64.7552 O   0  0  0  0  0  0  0  0  0  0  0  0
   -8.2342   30.4638   65.0130 O   0  0  0  0  0  0  0  0  0  0  0  0
  1  2  1  0  0  0  0
  1 12  1  6  0  0  0
  1 13  1  0  0  0  0
  2  3  1  0  0  0  0
  2 10  1  6  0  0  0
  4  3  1  6  0  0  0
  4  5  1  0  0  0  0
  4 14  1  0  0  0  0
  5  6  1  0  0  0  0
  5 13  1  1  0  0  0
  6  7  1  0  0  0  0
  6 15  1  1  0  0  0
  7  8  1  0  0  0  0
  7 11  1  1  0  0  0
  8 14  1  0  0  0  0
  8 16  1  6  0  0  0
  9 11  1  0  0  0  0
 17 16  1  6  0  0  0
 17 18  1  0  0  0  0
 17 24  1  0  0  0  0
 18 19  1  0  0  0  0
 18 25  1  6  0  0  0
 19 20  1  0  0  0  0
 19 26  1  6  0  0  0
 20 21  1  0  0  0  0
 20 23  1  6  0  0  0
 21 22  1  1  0  0  0
 21 24  1  0  0  0  0
 22 27  1  0  0  0  0
 28 12  1  1  0  0  0
 28 29  1  0  0  0  0
 28 33  1  0  0  0  0
 29 30  1  0  0  0  0
 29 36  1  6  0  0  0
 30 31  1  0  0  0  0
 30 37  1  1  0  0  0
 31 32  1  0  0  0  0
 31 34  1  6  0  0  0
 32 33  1  0  0  0  0
 33 35  1  6  0  0  0
M  END
>  <CHROM.1>
-176.54157108,163.43684763,178.46004391,-67.94375365,-176.90740753,-64.32254718
-2.59663771,30.88968121,65.42596382,-2.62350635,-0.03725302,-2.45985517

>  <Name>
ligand

>  <RI>
0

>  <Rbt.Current_Directory>
/home/itssahil/PROJECTS/Mol_Feturizer/Test_systems_manuscript/rnas/2g5k

>  <Rbt.Executable>
rbdock ($Id: //depot/dev/client3/rdock/2013.1/src/exe/rbdock.cxx#4 $)

>  <Rbt.Library>
libRbt.so (2013.1, Build901 2013/11/27)

>  <Rbt.Parameter_File>
/export/apps/rDock/src/rDock_2013.1_src/data/scripts/dock_solv.prm

>  <Rbt.Receptor>
prm/pocket_docking_8.prm

>  <SCORE>
-11.5842

>  <SCORE.INTER>
-6.39417

>  <SCORE.INTER.CONST>
1

>  <SCORE.INTER.POLAR>
0

>  <SCORE.INTER.ROT>
6

>  <SCORE.INTER.SOLV>
13.6051

>  <SCORE.INTER.VDW>
-16.3978

>  <SCORE.INTER.norm>
-0.172815

>  <SCORE.INTRA>
-5.19008

>  <SCORE.INTRA.DIHEDRAL>
-10.6572

>  <SCORE.INTRA.DIHEDRAL.0>
11.3972

>  <SCORE.INTRA.POLAR>
0

>  <SCORE.INTRA.POLAR.0>
0

>  <SCORE.INTRA.REPUL>
0

>  <SCORE.INTRA.REPUL.0>
0

>  <SCORE.INTRA.SOLV>
0.038114

>  <SCORE.INTRA.SOLV.lig_0>
-92.3891

>  <SCORE.INTRA.VDW>
0.119488

>  <SCORE.INTRA.VDW.0>
-2.90606

>  <SCORE.INTRA.norm>
-0.140272

>  <SCORE.RESTR>
0

>  <SCORE.RESTR.CAVITY>
0

>  <SCORE.RESTR.norm>
0

>  <SCORE.SYSTEM>
0

>  <SCORE.SYSTEM.CONST>
0

>  <SCORE.SYSTEM.DIHEDRAL>
0

>  <SCORE.SYSTEM.SOLV>
0

>  <SCORE.SYSTEM.norm>
0

>  <SCORE.heavy>
37

>  <SCORE.norm>
-0.313088

>  <RMSD>
10.361

$$$$
ligand
 OpenBabel02271912133D
libRbt.so/2013.1/901 2013/11/27
 37 40  0  0  0  0  0  0  0  0999 V2000
   -5.9923   30.2112   65.8707 C   0  0  1  0  0  0  0  0  0  0  0  0
   -4.9267   30.9717   65.0314 C   0  0  1  0  0  0  0  0  0  0  0  0
   -3.9281   30.0103   64.3591 C   0  0  0  0  0  0  0  0  0  0  0  0
   -3.2510   29.1345   65.4590 C   0  0  1  0  0  0  0  0  0  0  0  0
   -4.3251   28.3334   66.2641 C   0  0  1  0  0  0  0  0  0  0  0  0
   -3.6118   27.4478   67.3828 C   0  0  1  0  0  0  0  0  0  0  0  0
   -2.6124   26.4727   66.6941 C   0  0  1  0  0  0  0  0  0  0  0  0
   -1.5893   27.3213   65.8806 C   0  0  2  0  0  0  0  0  0  0  0  0
   -2.4696   25.5497   69.1103 C   0  0  0  0  0  0  0  0  0  0  0  0
   -5.5769   31.8312   64.0196 N   0  0  0  0  0  0  0  0  0  0  0  0
   -1.9049   25.6248   67.7252 N   0  0  0  0  0  0  0  0  0  0  0  0
   -6.9014   29.4505   65.0514 O   0  0  0  0  0  0  0  0  0  0  0  0
   -5.2869   29.3243   66.8325 O   0  0  0  0  0  0  0  0  0  0  0  0
   -2.2605   28.1661   64.8841 O   0  0  0  0  0  0  0  0  0  0  0  0
   -2.8784   28.2880   68.2645 O   0  0  0  0  0  0  0  0  0  0  0  0
   -0.6652   26.4668   65.2166 O   0  0  0  0  0  0  0  0  0  0  0  0
    0.6249   27.0766   64.9657 C   0  0  2  0  0  0  0  0  0  0  0  0
    1.0512   26.9919   63.4809 C   0  0  1  0  0  0  0  0  0  0  0  0
    1.3092   25.5093   63.0594 C   0  0  2  0  0  0  0  0  0  0  0  0
    2.4147   24.9372   63.9235 C   0  0  1  0  0  0  0  0  0  0  0  0
    1.9711   24.9974   65.4160 C   0  0  1  0  0  0  0  0  0  0  0  0
    3.0447   24.4570   66.3586 C   0  0  0  0  0  0  0  0  0  0  0  0
    2.6809   23.5369   63.5147 N   0  0  0  0  0  0  0  0  0  0  0  0
    1.6778   26.4145   65.7925 O   0  0  0  0  0  0  0  0  0  0  0  0
    0.0093   27.6142   62.6965 O   0  0  0  0  0  0  0  0  0  0  0  0
    1.7164   25.4575   61.6903 O   0  0  0  0  0  0  0  0  0  0  0  0
    3.3886   23.1490   65.9709 O   0  0  0  0  0  0  0  0  0  0  0  0
   -8.3641   29.2626   65.3907 C   0  0  1  0  0  0  0  0  0  0  0  0
   -9.0481   30.6572   65.3931 C   0  0  1  0  0  0  0  0  0  0  0  0
  -10.5575   30.5101   65.7422 C   0  0  2  0  0  0  0  0  0  0  0  0
  -11.2379   29.6065   64.6845 C   0  0  1  0  0  0  0  0  0  0  0  0
  -10.5708   28.1846   64.6664 C   0  0  0  0  0  0  0  0  0  0  0  0
   -9.0733   28.3573   64.3346 C   0  0  2  0  0  0  0  0  0  0  0  0
  -12.6790   29.4649   65.0032 N   0  0  0  0  0  0  0  0  0  0  0  0
   -8.4576   27.0258   64.3210 N   0  0  0  0  0  0  0  0  0  0  0  0
   -8.4131   31.5024   66.3778 O   0  0  0  0  0  0  0  0  0  0  0  0
  -11.1675   31.8200   65.7439 O   0  0  0  0  0  0  0  0  0  0  0  0
  1  2  1  0  0  0  0
  1 12  1  6  0  0  0
  1 13  1  0  0  0  0
  2  3  1  0  0  0  0
  2 10  1  6  0  0  0
  4  3  1  6  0  0  0
  4  5  1  0  0  0  0
  4 14  1  0  0  0  0
  5  6  1  0  0  0  0
  5 13  1  1  0  0  0
  6  7  1  0  0  0  0
  6 15  1  1  0  0  0
  7  8  1  0  0  0  0
  7 11  1  1  0  0  0
  8 14  1  0  0  0  0
  8 16  1  6  0  0  0
  9 11  1  0  0  0  0
 17 16  1  6  0  0  0
 17 18  1  0  0  0  0
 17 24  1  0  0  0  0
 18 19  1  0  0  0  0
 18 25  1  6  0  0  0
 19 20  1  0  0  0  0
 19 26  1  6  0  0  0
 20 21  1  0  0  0  0
 20 23  1  6  0  0  0
 21 22  1  1  0  0  0
 21 24  1  0  0  0  0
 22 27  1  0  0  0  0
 28 12  1  6  0  0  0
 28 29  1  0  0  0  0
 28 33  1  0  0  0  0
 29 30  1  0  0  0  0
 29 36  1  1  0  0  0
 30 31  1  0  0  0  0
 30 37  1  6  0  0  0
 31 32  1  0  0  0  0
 31 34  1  1  0  0  0
 32 33  1  0  0  0  0
 33 35  1  1  0  0  0
M  END
>  <CHROM.1>
-145.13945531,15.93319542,-153.00467185,62.28203527,-126.58107723,-55.56625175
-3.67742294,27.86056850,65.32302433,3.05260287,0.39534915,-1.23936019

>  <Name>
ligand

>  <RI>
0

>  <Rbt.Current_Directory>
/home/itssahil/PROJECTS/Mol_Feturizer/Test_systems_manuscript/rnas/2g5k

>  <Rbt.Executable>
rbdock ($Id: //depot/dev/client3/rdock/2013.1/src/exe/rbdock.cxx#4 $)

>  <Rbt.Library>
libRbt.so (2013.1, Build901 2013/11/27)

>  <Rbt.Parameter_File>
/export/apps/rDock/src/rDock_2013.1_src/data/scripts/dock_solv.prm

>  <Rbt.Receptor>
prm/pocket_docking_2.prm

>  <SCORE>
6.85613

>  <SCORE.INTER>
-0.410095

>  <SCORE.INTER.CONST>
1

>  <SCORE.INTER.POLAR>
0

>  <SCORE.INTER.ROT>
6

>  <SCORE.INTER.SOLV>
16.7599

>  <SCORE.INTER.VDW>
-13.46

>  <SCORE.INTER.norm>
-0.0110836

>  <SCORE.INTRA>
6.1342

>  <SCORE.INTRA.DIHEDRAL>
4.23666

>  <SCORE.INTRA.DIHEDRAL.0>
11.3972

>  <SCORE.INTRA.POLAR>
0

>  <SCORE.INTRA.POLAR.0>
0

>  <SCORE.INTRA.REPUL>
0

>  <SCORE.INTRA.REPUL.0>
0

>  <SCORE.INTRA.SOLV>
0.506254

>  <SCORE.INTRA.SOLV.lig_0>
-92.3891

>  <SCORE.INTRA.VDW>
3.76275

>  <SCORE.INTRA.VDW.0>
-2.90606

>  <SCORE.INTRA.norm>
0.165789

>  <SCORE.RESTR>
1.13203

>  <SCORE.RESTR.CAVITY>
1.13203

>  <SCORE.RESTR.norm>
0.0305953

>  <SCORE.SYSTEM>
0

>  <SCORE.SYSTEM.CONST>
0

>  <SCORE.SYSTEM.DIHEDRAL>
0

>  <SCORE.SYSTEM.SOLV>
0

>  <SCORE.SYSTEM.norm>
0

>  <SCORE.heavy>
37

>  <SCORE.norm>
0.185301

>  <RMSD>
10.403

$$$$
ligand
 OpenBabel02271912133D
libRbt.so/2013.1/901 2013/11/27
 37 40  0  0  0  0  0  0  0  0999 V2000
  -10.3530   30.9170   65.7016 C   0  0  1  0  0  0  0  0  0  0  0  0
   -9.6276   32.1018   65.0026 C   0  0  1  0  0  0  0  0  0  0  0  0
   -8.4033   31.6324   64.1939 C   0  0  0  0  0  0  0  0  0  0  0  0
   -7.4320   30.8671   65.1458 C   0  0  1  0  0  0  0  0  0  0  0  0
   -8.1537   29.6468   65.8044 C   0  0  1  0  0  0  0  0  0  0  0  0
   -7.1442   28.8812   66.7736 C   0  0  1  0  0  0  0  0  0  0  0  0
   -5.9154   28.4018   65.9465 C   0  0  1  0  0  0  0  0  0  0  0  0
   -5.2575   29.6511   65.2868 C   0  0  2  0  0  0  0  0  0  0  0  0
   -4.9318   26.1854   66.8578 C   0  0  0  0  0  0  0  0  0  0  0  0
  -10.5644   32.8472   64.1354 N   0  0  0  0  0  0  0  0  0  0  0  0
   -4.9273   27.6829   66.8352 N   0  0  0  0  0  0  0  0  0  0  0  0
  -11.0036   30.0369   64.7643 O   0  0  0  0  0  0  0  0  0  0  0  0
   -9.3575   30.1716   66.5155 O   0  0  0  0  0  0  0  0  0  0  0  0
   -6.2086   30.3736   64.4320 O   0  0  0  0  0  0  0  0  0  0  0  0
   -6.6826   29.7688   67.7837 O   0  0  0  0  0  0  0  0  0  0  0  0
   -4.1377   29.2560   64.5026 O   0  0  0  0  0  0  0  0  0  0  0  0
   -3.4993   30.3478   63.7958 C   0  0  2  0  0  0  0  0  0  0  0  0
   -2.3561   29.8755   62.8666 C   0  0  1  0  0  0  0  0  0  0  0  0
   -1.1679   29.2926   63.6978 C   0  0  2  0  0  0  0  0  0  0  0  0
   -0.6388   30.3700   64.6226 C   0  0  1  0  0  0  0  0  0  0  0  0
   -1.7843   30.8237   65.5763 C   0  0  1  0  0  0  0  0  0  0  0  0
   -1.3361   31.9294   66.5302 C   0  0  0  0  0  0  0  0  0  0  0  0
    0.5038   29.8312   65.3992 N   0  0  0  0  0  0  0  0  0  0  0  0
   -2.9352   31.3315   64.7677 O   0  0  0  0  0  0  0  0  0  0  0  0
   -2.9157   28.9070   61.9517 O   0  0  0  0  0  0  0  0  0  0  0  0
   -0.1187   28.8779   62.8201 O   0  0  0  0  0  0  0  0  0  0  0  0
   -2.4052   32.2750   67.3770 O   0  0  0  0  0  0  0  0  0  0  0  0
  -11.5713   28.6883   65.1503 C   0  0  1  0  0  0  0  0  0  0  0  0
  -12.8090   28.9213   66.0595 C   0  0  1  0  0  0  0  0  0  0  0  0
  -13.4234   27.5559   66.4839 C   0  0  2  0  0  0  0  0  0  0  0  0
  -13.8564   26.7779   65.2169 C   0  0  1  0  0  0  0  0  0  0  0  0
  -12.6208   26.5202   64.2819 C   0  0  0  0  0  0  0  0  0  0  0  0
  -12.0194   27.8861   63.8879 C   0  0  2  0  0  0  0  0  0  0  0  0
  -14.4502   25.4773   65.6096 N   0  0  0  0  0  0  0  0  0  0  0  0
  -10.8660   27.6368   63.0164 N   0  0  0  0  0  0  0  0  0  0  0  0
  -12.4073   29.6491   67.2411 O   0  0  0  0  0  0  0  0  0  0  0  0
  -14.5670   27.8006   67.3325 O   0  0  0  0  0  0  0  0  0  0  0  0
  1  2  1  0  0  0  0
  1 12  1  6  0  0  0
  1 13  1  0  0  0  0
  2  3  1  0  0  0  0
  2 10  1  6  0  0  0
  4  3  1  6  0  0  0
  4  5  1  0  0  0  0
  4 14  1  0  0  0  0
  5  6  1  0  0  0  0
  5 13  1  1  0  0  0
  6  7  1  0  0  0  0
  6 15  1  1  0  0  0
  7  8  1  0  0  0  0
  7 11  1  1  0  0  0
  8 14  1  0  0  0  0
  8 16  1  6  0  0  0
  9 11  1  0  0  0  0
 17 16  1  1  0  0  0
 17 18  1  0  0  0  0
 17 24  1  0  0  0  0
 18 19  1  0  0  0  0
 18 25  1  6  0  0  0
 19 20  1  0  0  0  0
 19 26  1  6  0  0  0
 20 21  1  0  0  0  0
 20 23  1  1  0  0  0
 21 22  1  1  0  0  0
 21 24  1  0  0  0  0
 22 27  1  0  0  0  0
 28 12  1  6  0  0  0
 28 29  1  0  0  0  0
 28 33  1  0  0  0  0
 29 30  1  0  0  0  0
 29 36  1  1  0  0  0
 30 31  1  0  0  0  0
 30 37  1  1  0  0  0
 31 32  1  0  0  0  0
 31 34  1  1  0  0  0
 32 33  1  0  0  0  0
 33 35  1  6  0  0  0
M  END
>  <CHROM.1>
169.01245843,99.00741071,177.14732143,68.97887002,-175.51679138,-178.93042112
-7.18756988,29.44798931,65.24034752,3.00414665,-0.12541648,-2.86058476

>  <Name>
ligand

>  <RI>
0

>  <Rbt.Current_Directory>
/home/itssahil/PROJECTS/Mol_Feturizer/Test_systems_manuscript/rnas/2g5k

>  <Rbt.Executable>
rbdock ($Id: //depot/dev/client3/rdock/2013.1/src/exe/rbdock.cxx#4 $)

>  <Rbt.Library>
libRbt.so (2013.1, Build901 2013/11/27)

>  <Rbt.Parameter_File>
/export/apps/rDock/src/rDock_2013.1_src/data/scripts/dock_solv.prm

>  <Rbt.Receptor>
prm/pocket_docking_5.prm

>  <SCORE>
-7.6523

>  <SCORE.INTER>
-2.3415

>  <SCORE.INTER.CONST>
1

>  <SCORE.INTER.POLAR>
0

>  <SCORE.INTER.ROT>
6

>  <SCORE.INTER.SOLV>
8.18269

>  <SCORE.INTER.VDW>
-11.8886

>  <SCORE.INTER.norm>
-0.0632837

>  <SCORE.INTRA>
-5.3108

>  <SCORE.INTRA.DIHEDRAL>
-9.37466

>  <SCORE.INTRA.DIHEDRAL.0>
11.3972

>  <SCORE.INTRA.POLAR>
0

>  <SCORE.INTRA.POLAR.0>
0

>  <SCORE.INTRA.REPUL>
0

>  <SCORE.INTRA.REPUL.0>
0

>  <SCORE.INTRA.SOLV>
-1.93059

>  <SCORE.INTRA.SOLV.lig_0>
-92.3891

>  <SCORE.INTRA.VDW>
0.341827

>  <SCORE.INTRA.VDW.0>
-2.90606

>  <SCORE.INTRA.norm>
-0.143535

>  <SCORE.RESTR>
0

>  <SCORE.RESTR.CAVITY>
0

>  <SCORE.RESTR.norm>
0

>  <SCORE.SYSTEM>
0

>  <SCORE.SYSTEM.CONST>
0

>  <SCORE.SYSTEM.DIHEDRAL>
0

>  <SCORE.SYSTEM.SOLV>
0

>  <SCORE.SYSTEM.norm>
0

>  <SCORE.heavy>
37

>  <SCORE.norm>
-0.206819

>  <RMSD>
10.408

$$$$
ligand
 OpenBabel02271912133D
libRbt.so/2013.1/901 2013/11/27
 37 40  0  0  0  0  0  0  0  0999 V2000
   -6.2648   32.5759   67.0298 C   0  0  1  0  0  0  0  0  0  0  0  0
   -5.8032   32.1651   65.6027 C   0  0  1  0  0  0  0  0  0  0  0  0
   -5.3419   30.6963   65.5461 C   0  0  0  0  0  0  0  0  0  0  0  0
   -4.1966   30.4859   66.5851 C   0  0  1  0  0  0  0  0  0  0  0  0
   -4.6845   30.8514   68.0245 C   0  0  1  0  0  0  0  0  0  0  0  0
   -3.4988   30.6311   69.0687 C   0  0  1  0  0  0  0  0  0  0  0  0
   -3.0458   29.1427   69.0120 C   0  0  1  0  0  0  0  0  0  0  0  0
   -2.6045   28.8251   67.5515 C   0  0  2  0  0  0  0  0  0  0  0  0
   -1.5990   27.4904   70.3858 C   0  0  0  0  0  0  0  0  0  0  0  0
   -6.8788   32.4067   64.6178 N   0  0  0  0  0  0  0  0  0  0  0  0
   -1.9114   28.8977   69.9794 N   0  0  0  0  0  0  0  0  0  0  0  0
   -7.4864   31.9219   67.4253 O   0  0  0  0  0  0  0  0  0  0  0  0
   -5.1703   32.2630   67.9855 O   0  0  0  0  0  0  0  0  0  0  0  0
   -3.6897   29.0743   66.5937 O   0  0  0  0  0  0  0  0  0  0  0  0
   -2.3902   31.4480   68.7153 O   0  0  0  0  0  0  0  0  0  0  0  0
   -2.1993   27.4649   67.4490 O   0  0  0  0  0  0  0  0  0  0  0  0
   -1.5219   27.1442   66.2090 C   0  0  2  0  0  0  0  0  0  0  0  0
   -0.6179   25.8940   66.3238 C   0  0  1  0  0  0  0  0  0  0  0  0
    0.5838   26.1625   67.2862 C   0  0  2  0  0  0  0  0  0  0  0  0
    1.4027   27.3152   66.7416 C   0  0  1  0  0  0  0  0  0  0  0  0
    0.4974   28.5803   66.6538 C   0  0  1  0  0  0  0  0  0  0  0  0
    1.2460   29.7867   66.0902 C   0  0  0  0  0  0  0  0  0  0  0  0
    2.5580   27.5618   67.6379 N   0  0  0  0  0  0  0  0  0  0  0  0
   -0.6755   28.2943   65.7715 O   0  0  0  0  0  0  0  0  0  0  0  0
   -1.4489   24.8001   66.7721 O   0  0  0  0  0  0  0  0  0  0  0  0
    1.4125   25.0005   67.3642 O   0  0  0  0  0  0  0  0  0  0  0  0
    0.3612   30.8755   65.9849 O   0  0  0  0  0  0  0  0  0  0  0  0
   -8.8373   32.2607   66.8335 C   0  0  1  0  0  0  0  0  0  0  0  0
   -9.8670   31.2108   67.3337 C   0  0  1  0  0  0  0  0  0  0  0  0
  -11.2735   31.5204   66.7439 C   0  0  2  0  0  0  0  0  0  0  0  0
  -11.7165   32.9321   67.2013 C   0  0  1  0  0  0  0  0  0  0  0  0
  -10.6962   34.0165   66.7010 C   0  0  0  0  0  0  0  0  0  0  0  0
   -9.3076   33.6796   67.2846 C   0  0  2  0  0  0  0  0  0  0  0  0
  -13.0594   33.2354   66.6508 N   0  0  0  0  0  0  0  0  0  0  0  0
   -8.3609   34.6956   66.8119 N   0  0  0  0  0  0  0  0  0  0  0  0
   -9.4541   29.8927   66.9098 O   0  0  0  0  0  0  0  0  0  0  0  0
  -12.2094   30.5272   67.2188 O   0  0  0  0  0  0  0  0  0  0  0  0
  1  2  1  0  0  0  0
  1 12  1  1  0  0  0
  1 13  1  0  0  0  0
  2  3  1  0  0  0  0
  2 10  1  6  0  0  0
  4  3  1  6  0  0  0
  4  5  1  0  0  0  0
  4 14  1  0  0  0  0
  5  6  1  0  0  0  0
  5 13  1  6  0  0  0
  6  7  1  0  0  0  0
  6 15  1  6  0  0  0
  7  8  1  0  0  0  0
  7 11  1  1  0  0  0
  8 14  1  0  0  0  0
  8 16  1  1  0  0  0
  9 11  1  0  0  0  0
 17 16  1  1  0  0  0
 17 18  1  0  0  0  0
 17 24  1  0  0  0  0
 18 19  1  0  0  0  0
 18 25  1  1  0  0  0
 19 20  1  0  0  0  0
 19 26  1  6  0  0  0
 20 21  1  0  0  0  0
 20 23  1  1  0  0  0
 21 22  1  6  0  0  0
 21 24  1  0  0  0  0
 22 27  1  0  0  0  0
 28 12  1  1  0  0  0
 28 29  1  0  0  0  0
 28 33  1  0  0  0  0
 29 30  1  0  0  0  0
 29 36  1  6  0  0  0
 30 31  1  0  0  0  0
 30 37  1  1  0  0  0
 31 32  1  0  0  0  0
 31 34  1  6  0  0  0
 32 33  1  0  0  0  0
 33 35  1  6  0  0  0
M  END
>  <CHROM.1>
-71.51581578,161.98006031,-168.20571470,171.21649068,157.10540811,177.55351484
-4.49482661,30.00670482,67.14249579,-2.68119791,-0.01800084,3.03656160

>  <Name>
ligand

>  <RI>
0

>  <Rbt.Current_Directory>
/home/itssahil/PROJECTS/Mol_Feturizer/Test_systems_manuscript/rnas/2g5k

>  <Rbt.Executable>
rbdock ($Id: //depot/dev/client3/rdock/2013.1/src/exe/rbdock.cxx#4 $)

>  <Rbt.Library>
libRbt.so (2013.1, Build901 2013/11/27)

>  <Rbt.Parameter_File>
/export/apps/rDock/src/rDock_2013.1_src/data/scripts/dock_solv.prm

>  <Rbt.Receptor>
prm/pocket_docking_6.prm

>  <SCORE>
-7.95658

>  <SCORE.INTER>
-5.48973

>  <SCORE.INTER.CONST>
1

>  <SCORE.INTER.POLAR>
0

>  <SCORE.INTER.ROT>
6

>  <SCORE.INTER.SOLV>
10.8689

>  <SCORE.INTER.VDW>
-14.8828

>  <SCORE.INTER.norm>
-0.148371

>  <SCORE.INTRA>
-2.46685

>  <SCORE.INTRA.DIHEDRAL>
-7.13354

>  <SCORE.INTRA.DIHEDRAL.0>
11.3972

>  <SCORE.INTRA.POLAR>
0

>  <SCORE.INTRA.POLAR.0>
0

>  <SCORE.INTRA.REPUL>
0.000982293

>  <SCORE.INTRA.REPUL.0>
0

>  <SCORE.INTRA.SOLV>
2.27836

>  <SCORE.INTRA.SOLV.lig_0>
-92.3891

>  <SCORE.INTRA.VDW>
-0.044179

>  <SCORE.INTRA.VDW.0>
-2.90606

>  <SCORE.INTRA.norm>
-0.0666717

>  <SCORE.RESTR>
0

>  <SCORE.RESTR.CAVITY>
0

>  <SCORE.RESTR.norm>
0

>  <SCORE.SYSTEM>
0

>  <SCORE.SYSTEM.CONST>
0

>  <SCORE.SYSTEM.DIHEDRAL>
0

>  <SCORE.SYSTEM.SOLV>
0

>  <SCORE.SYSTEM.norm>
0

>  <SCORE.heavy>
37

>  <SCORE.norm>
-0.215043

>  <RMSD>
10.411

$$$$
ligand
 OpenBabel02271912133D
libRbt.so/2013.1/901 2013/11/27
 37 40  0  0  0  0  0  0  0  0999 V2000
   -6.7134   32.9582   67.1985 C   0  0  1  0  0  0  0  0  0  0  0  0
   -5.9787   33.5813   65.9777 C   0  0  1  0  0  0  0  0  0  0  0  0
   -4.9960   32.5888   65.3276 C   0  0  0  0  0  0  0  0  0  0  0  0
   -3.9762   32.1074   66.4063 C   0  0  1  0  0  0  0  0  0  0  0  0
   -4.7194   31.4355   67.6062 C   0  0  1  0  0  0  0  0  0  0  0  0
   -3.6593   30.9533   68.6963 C   0  0  1  0  0  0  0  0  0  0  0  0
   -2.6769   29.9436   68.0336 C   0  0  1  0  0  0  0  0  0  0  0  0
   -1.9923   30.6535   66.8270 C   0  0  2  0  0  0  0  0  0  0  0  0
   -1.9445   28.2650   69.8657 C   0  0  0  0  0  0  0  0  0  0  0  0
   -6.9519   34.0730   64.9795 N   0  0  0  0  0  0  0  0  0  0  0  0
   -1.6463   29.4741   69.0338 N   0  0  0  0  0  0  0  0  0  0  0  0
   -7.6349   31.9182   66.8172 O   0  0  0  0  0  0  0  0  0  0  0  0
   -5.6927   32.4330   68.1427 O   0  0  0  0  0  0  0  0  0  0  0  0
   -2.9802   31.1328   65.8516 O   0  0  0  0  0  0  0  0  0  0  0  0
   -2.9075   32.0674   69.1599 O   0  0  0  0  0  0  0  0  0  0  0  0
   -1.0971   29.7579   66.1777 O   0  0  0  0  0  0  0  0  0  0  0  0
   -0.3128   30.3700   65.1244 C   0  0  2  0  0  0  0  0  0  0  0  0
    0.6471   29.3730   64.4330 C   0  0  1  0  0  0  0  0  0  0  0  0
    1.7574   28.8923   65.4222 C   0  0  2  0  0  0  0  0  0  0  0  0
    2.5503   30.0941   65.8941 C   0  0  1  0  0  0  0  0  0  0  0  0
    1.5863   31.0834   66.6151 C   0  0  1  0  0  0  0  0  0  0  0  0
    2.3077   32.3380   67.1037 C   0  0  0  0  0  0  0  0  0  0  0  0
    3.6206   29.6436   66.8163 N   0  0  0  0  0  0  0  0  0  0  0  0
    0.4997   31.4959   65.6744 O   0  0  0  0  0  0  0  0  0  0  0  0
   -0.1539   28.2802   63.9307 O   0  0  0  0  0  0  0  0  0  0  0  0
    2.6403   27.9855   64.7578 O   0  0  0  0  0  0  0  0  0  0  0  0
    3.2850   31.9747   68.0482 O   0  0  0  0  0  0  0  0  0  0  0  0
   -8.7257   31.4014   67.7299 C   0  0  1  0  0  0  0  0  0  0  0  0
   -9.4373   30.2176   67.0193 C   0  0  1  0  0  0  0  0  0  0  0  0
  -10.5724   29.6570   67.9244 C   0  0  2  0  0  0  0  0  0  0  0  0
   -9.9607   29.1621   69.2583 C   0  0  1  0  0  0  0  0  0  0  0  0
   -9.2411   30.3427   70.0036 C   0  0  0  0  0  0  0  0  0  0  0  0
   -8.1321   30.8922   69.0813 C   0  0  2  0  0  0  0  0  0  0  0  0
  -11.0328   28.6188   70.1266 N   0  0  0  0  0  0  0  0  0  0  0  0
   -7.4661   31.9945   69.7836 N   0  0  0  0  0  0  0  0  0  0  0  0
  -10.0067   30.6769   65.7734 O   0  0  0  0  0  0  0  0  0  0  0  0
  -11.2210   28.5630   67.2385 O   0  0  0  0  0  0  0  0  0  0  0  0
  1  2  1  0  0  0  0
  1 12  1  6  0  0  0
  1 13  1  0  0  0  0
  2  3  1  0  0  0  0
  2 10  1  6  0  0  0
  4  3  1  6  0  0  0
  4  5  1  0  0  0  0
  4 14  1  0  0  0  0
  5  6  1  0  0  0  0
  5 13  1  1  0  0  0
  6  7  1  0  0  0  0
  6 15  1  6  0  0  0
  7  8  1  0  0  0  0
  7 11  1  1  0  0  0
  8 14  1  0  0  0  0
  8 16  1  6  0  0  0
  9 11  1  0  0  0  0
 17 16  1  1  0  0  0
 17 18  1  0  0  0  0
 17 24  1  0  0  0  0
 18 19  1  0  0  0  0
 18 25  1  1  0  0  0
 19 20  1  0  0  0  0
 19 26  1  6  0  0  0
 20 21  1  0  0  0  0
 20 23  1  1  0  0  0
 21 22  1  6  0  0  0
 21 24  1  0  0  0  0
 22 27  1  0  0  0  0
 28 12  1  6  0  0  0
 28 29  1  0  0  0  0
 28 33  1  0  0  0  0
 29 30  1  0  0  0  0
 29 36  1  6  0  0  0
 30 31  1  0  0  0  0
 30 37  1  6  0  0  0
 31 32  1  0  0  0  0
 31 34  1  1  0  0  0
 32 33  1  0  0  0  0
 33 35  1  1  0  0  0
M  END
>  <CHROM.1>
-163.48522142,89.47711935,-174.11194480,-175.63551609,-179.79306153,-62.18160210
-3.82316356,30.70166514,67.11437507,3.06373663,-0.15450720,2.42162890

>  <Name>
ligand

>  <RI>
0

>  <Rbt.Current_Directory>
/home/itssahil/PROJECTS/Mol_Feturizer/Test_systems_manuscript/rnas/2g5k

>  <Rbt.Executable>
rbdock ($Id: //depot/dev/client3/rdock/2013.1/src/exe/rbdock.cxx#4 $)

>  <Rbt.Library>
libRbt.so (2013.1, Build901 2013/11/27)

>  <Rbt.Parameter_File>
/export/apps/rDock/src/rDock_2013.1_src/data/scripts/dock_solv.prm

>  <Rbt.Receptor>
prm/pocket_docking_7.prm

>  <SCORE>
-9.93085

>  <SCORE.INTER>
-7.45992

>  <SCORE.INTER.CONST>
1

>  <SCORE.INTER.POLAR>
0

>  <SCORE.INTER.ROT>
6

>  <SCORE.INTER.SOLV>
14.7578

>  <SCORE.INTER.VDW>
-17.4926

>  <SCORE.INTER.norm>
-0.201619

>  <SCORE.INTRA>
-2.47093

>  <SCORE.INTRA.DIHEDRAL>
-9.23497

>  <SCORE.INTRA.DIHEDRAL.0>
11.3972

>  <SCORE.INTRA.POLAR>
0

>  <SCORE.INTRA.POLAR.0>
0

>  <SCORE.INTRA.REPUL>
0

>  <SCORE.INTRA.REPUL.0>
0

>  <SCORE.INTRA.SOLV>
1.99775

>  <SCORE.INTRA.SOLV.lig_0>
-92.3891

>  <SCORE.INTRA.VDW>
1.14768

>  <SCORE.INTRA.VDW.0>
-2.90606

>  <SCORE.INTRA.norm>
-0.066782

>  <SCORE.RESTR>
0

>  <SCORE.RESTR.CAVITY>
0

>  <SCORE.RESTR.norm>
0

>  <SCORE.SYSTEM>
0

>  <SCORE.SYSTEM.CONST>
0

>  <SCORE.SYSTEM.DIHEDRAL>
0

>  <SCORE.SYSTEM.SOLV>
0

>  <SCORE.SYSTEM.norm>
0

>  <SCORE.heavy>
37

>  <SCORE.norm>
-0.268401

>  <RMSD>
10.413

$$$$
ligand
 OpenBabel02271912133D
libRbt.so/2013.1/901 2013/11/27
 37 40  0  0  0  0  0  0  0  0999 V2000
   -2.6703   30.2573   64.2778 C   0  0  1  0  0  0  0  0  0  0  0  0
   -3.1500   28.7970   64.0417 C   0  0  1  0  0  0  0  0  0  0  0  0
   -2.2052   27.7674   64.6903 C   0  0  0  0  0  0  0  0  0  0  0  0
   -0.7647   27.9791   64.1287 C   0  0  1  0  0  0  0  0  0  0  0  0
   -0.2696   29.4337   64.4160 C   0  0  1  0  0  0  0  0  0  0  0  0
    1.2022   29.6283   63.8323 C   0  0  1  0  0  0  0  0  0  0  0  0
    2.1518   28.5910   64.5002 C   0  0  1  0  0  0  0  0  0  0  0  0
    1.5927   27.1652   64.2117 C   0  0  2  0  0  0  0  0  0  0  0  0
    4.6815   28.0657   64.6875 C   0  0  0  0  0  0  0  0  0  0  0  0
   -4.5305   28.6156   64.5383 N   0  0  0  0  0  0  0  0  0  0  0  0
    3.5558   28.7349   63.9609 N   0  0  0  0  0  0  0  0  0  0  0  0
   -2.7821   30.6597   65.6569 O   0  0  0  0  0  0  0  0  0  0  0  0
   -1.2634   30.3704   63.8118 O   0  0  0  0  0  0  0  0  0  0  0  0
    0.2210   27.0118   64.7137 O   0  0  0  0  0  0  0  0  0  0  0  0
    1.1978   29.3904   62.4306 O   0  0  0  0  0  0  0  0  0  0  0  0
    2.4220   26.1831   64.8223 O   0  0  0  0  0  0  0  0  0  0  0  0
    1.9754   24.8212   64.6101 C   0  0  2  0  0  0  0  0  0  0  0  0
    2.5964   23.8217   65.6145 C   0  0  1  0  0  0  0  0  0  0  0  0
    4.1378   23.6929   65.3909 C   0  0  2  0  0  0  0  0  0  0  0  0
    4.3910   23.1976   63.9814 C   0  0  1  0  0  0  0  0  0  0  0  0
    3.7896   24.2203   62.9714 C   0  0  1  0  0  0  0  0  0  0  0  0
    3.9843   23.7808   61.5215 C   0  0  0  0  0  0  0  0  0  0  0  0
    5.8512   23.0514   63.7685 N   0  0  0  0  0  0  0  0  0  0  0  0
    2.3246   24.3733   63.2289 O   0  0  0  0  0  0  0  0  0  0  0  0
    2.2695   24.2858   66.9434 O   0  0  0  0  0  0  0  0  0  0  0  0
    4.6863   22.7538   66.3184 O   0  0  0  0  0  0  0  0  0  0  0  0
    3.5323   24.7989   60.6621 O   0  0  0  0  0  0  0  0  0  0  0  0
   -2.5291   32.0744   66.1309 C   0  0  1  0  0  0  0  0  0  0  0  0
   -1.0684   32.4576   65.7673 C   0  0  1  0  0  0  0  0  0  0  0  0
   -0.7639   33.9081   66.2416 C   0  0  2  0  0  0  0  0  0  0  0  0
   -1.7402   34.8865   65.5431 C   0  0  1  0  0  0  0  0  0  0  0  0
   -3.2269   34.5273   65.9009 C   0  0  0  0  0  0  0  0  0  0  0  0
   -3.4999   33.0809   65.4363 C   0  0  2  0  0  0  0  0  0  0  0  0
   -1.4546   36.2735   65.9824 N   0  0  0  0  0  0  0  0  0  0  0  0
   -4.8891   32.7528   65.7749 N   0  0  0  0  0  0  0  0  0  0  0  0
   -0.1561   31.5444   66.4163 O   0  0  0  0  0  0  0  0  0  0  0  0
    0.6005   34.2366   65.8975 O   0  0  0  0  0  0  0  0  0  0  0  0
  1  2  1  0  0  0  0
  1 12  1  1  0  0  0
  1 13  1  0  0  0  0
  2  3  1  0  0  0  0
  2 10  1  1  0  0  0
  4  3  1  1  0  0  0
  4  5  1  0  0  0  0
  4 14  1  0  0  0  0
  5  6  1  0  0  0  0
  5 13  1  6  0  0  0
  6  7  1  0  0  0  0
  6 15  1  6  0  0  0
  7  8  1  0  0  0  0
  7 11  1  6  0  0  0
  8 14  1  0  0  0  0
  8 16  1  1  0  0  0
  9 11  1  0  0  0  0
 17 16  1  1  0  0  0
 17 18  1  0  0  0  0
 17 24  1  0  0  0  0
 18 19  1  0  0  0  0
 18 25  1  1  0  0  0
 19 20  1  0  0  0  0
 19 26  1  1  0  0  0
 20 21  1  0  0  0  0
 20 23  1  6  0  0  0
 21 22  1  6  0  0  0
 21 24  1  0  0  0  0
 22 27  1  0  0  0  0
 28 12  1  6  0  0  0
 28 29  1  0  0  0  0
 28 33  1  0  0  0  0
 29 30  1  0  0  0  0
 29 36  1  1  0  0  0
 30 31  1  0  0  0  0
 30 37  1  6  0  0  0
 31 32  1  0  0  0  0
 31 34  1  1  0  0  0
 32 33  1  0  0  0  0
 33 35  1  1  0  0  0
M  END
>  <CHROM.1>
-173.00580749,165.80294152,179.81438201,-59.72104364,-161.94397989,-174.64680460
0.58805524,28.53442077,64.66584509,2.16444766,0.00882140,0.16368875

>  <Name>
ligand

>  <RI>
0

>  <Rbt.Current_Directory>
/home/itssahil/PROJECTS/Mol_Feturizer/Test_systems_manuscript/rnas/2g5k

>  <Rbt.Executable>
rbdock ($Id: //depot/dev/client3/rdock/2013.1/src/exe/rbdock.cxx#4 $)

>  <Rbt.Library>
libRbt.so (2013.1, Build901 2013/11/27)

>  <Rbt.Parameter_File>
/export/apps/rDock/src/rDock_2013.1_src/data/scripts/dock_solv.prm

>  <Rbt.Receptor>
prm/pocket_docking_8.prm

>  <SCORE>
-15.3746

>  <SCORE.INTER>
-10.2192

>  <SCORE.INTER.CONST>
1

>  <SCORE.INTER.POLAR>
0

>  <SCORE.INTER.ROT>
6

>  <SCORE.INTER.SOLV>
13.8143

>  <SCORE.INTER.VDW>
-19.0176

>  <SCORE.INTER.norm>
-0.276195

>  <SCORE.INTRA>
-5.15542

>  <SCORE.INTRA.DIHEDRAL>
-9.36633

>  <SCORE.INTRA.DIHEDRAL.0>
11.3972

>  <SCORE.INTRA.POLAR>
0

>  <SCORE.INTRA.POLAR.0>
0

>  <SCORE.INTRA.REPUL>
0

>  <SCORE.INTRA.REPUL.0>
0

>  <SCORE.INTRA.SOLV>
-0.963853

>  <SCORE.INTRA.SOLV.lig_0>
-92.3891

>  <SCORE.INTRA.VDW>
0.00967323

>  <SCORE.INTRA.VDW.0>
-2.90606

>  <SCORE.INTRA.norm>
-0.139336

>  <SCORE.RESTR>
0

>  <SCORE.RESTR.CAVITY>
0

>  <SCORE.RESTR.norm>
0

>  <SCORE.SYSTEM>
0

>  <SCORE.SYSTEM.CONST>
0

>  <SCORE.SYSTEM.DIHEDRAL>
0

>  <SCORE.SYSTEM.SOLV>
0

>  <SCORE.SYSTEM.norm>
0

>  <SCORE.heavy>
37

>  <SCORE.norm>
-0.41553

>  <RMSD>
10.436

$$$$
ligand
 OpenBabel02271912133D
libRbt.so/2013.1/901 2013/11/27
 37 40  0  0  0  0  0  0  0  0999 V2000
   -4.3412   29.7384   65.1610 C   0  0  1  0  0  0  0  0  0  0  0  0
   -3.1739   30.0654   64.1868 C   0  0  1  0  0  0  0  0  0  0  0  0
   -2.2937   28.8325   63.9067 C   0  0  0  0  0  0  0  0  0  0  0  0
   -1.7514   28.2803   65.2617 C   0  0  1  0  0  0  0  0  0  0  0  0
   -2.9315   27.9051   66.2157 C   0  0  1  0  0  0  0  0  0  0  0  0
   -2.3548   27.3455   67.5938 C   0  0  1  0  0  0  0  0  0  0  0  0
   -1.4752   26.0944   67.3024 C   0  0  1  0  0  0  0  0  0  0  0  0
   -0.3395   26.5173   66.3227 C   0  0  2  0  0  0  0  0  0  0  0  0
   -1.8199   25.2664   69.7326 C   0  0  0  0  0  0  0  0  0  0  0  0
   -3.6932   30.6272   62.9219 N   0  0  0  0  0  0  0  0  0  0  0  0
   -0.8980   25.5430   68.5852 N   0  0  0  0  0  0  0  0  0  0  0  0
   -5.3251   28.8661   64.5717 O   0  0  0  0  0  0  0  0  0  0  0  0
   -3.7699   29.1286   66.3902 O   0  0  0  0  0  0  0  0  0  0  0  0
   -0.8816   27.0726   65.0756 O   0  0  0  0  0  0  0  0  0  0  0  0
   -1.5361   28.3326   68.2074 O   0  0  0  0  0  0  0  0  0  0  0  0
    0.4803   25.3962   66.0127 O   0  0  0  0  0  0  0  0  0  0  0  0
    1.5696   25.1877   66.9449 C   0  0  2  0  0  0  0  0  0  0  0  0
    2.5509   26.3825   66.9996 C   0  0  1  0  0  0  0  0  0  0  0  0
    3.3134   26.5391   65.6444 C   0  0  2  0  0  0  0  0  0  0  0  0
    4.0953   25.2706   65.3700 C   0  0  1  0  0  0  0  0  0  0  0  0
    3.1018   24.0732   65.2870 C   0  0  1  0  0  0  0  0  0  0  0  0
    3.8168   22.7474   65.0336 C   0  0  0  0  0  0  0  0  0  0  0  0
    4.8396   25.4198   64.0962 N   0  0  0  0  0  0  0  0  0  0  0  0
    2.3420   23.9655   66.5705 O   0  0  0  0  0  0  0  0  0  0  0  0
    1.7815   27.5579   67.3378 O   0  0  0  0  0  0  0  0  0  0  0  0
    4.2243   27.6378   65.7239 O   0  0  0  0  0  0  0  0  0  0  0  0
    4.3417   22.7441   63.7283 O   0  0  0  0  0  0  0  0  0  0  0  0
   -6.7273   28.7086   65.1188 C   0  0  1  0  0  0  0  0  0  0  0  0
   -7.4866   30.0474   64.9091 C   0  0  1  0  0  0  0  0  0  0  0  0
   -8.9363   29.9304   65.4627 C   0  0  2  0  0  0  0  0  0  0  0  0
   -9.6771   28.7969   64.7113 C   0  0  1  0  0  0  0  0  0  0  0  0
   -8.9347   27.4275   64.9136 C   0  0  0  0  0  0  0  0  0  0  0  0
   -7.4963   27.5729   64.3727 C   0  0  2  0  0  0  0  0  0  0  0  0
  -11.0628   28.6808   65.2258 N   0  0  0  0  0  0  0  0  0  0  0  0
   -6.8097   26.2912   64.5664 N   0  0  0  0  0  0  0  0  0  0  0  0
   -6.7956   31.1066   65.6076 O   0  0  0  0  0  0  0  0  0  0  0  0
   -9.6175   31.1887   65.2612 O   0  0  0  0  0  0  0  0  0  0  0  0
  1  2  1  0  0  0  0
  1 12  1  6  0  0  0
  1 13  1  0  0  0  0
  2  3  1  0  0  0  0
  2 10  1  6  0  0  0
  4  3  1  6  0  0  0
  4  5  1  0  0  0  0
  4 14  1  0  0  0  0
  5  6  1  0  0  0  0
  5 13  1  1  0  0  0
  6  7  1  0  0  0  0
  6 15  1  6  0  0  0
  7  8  1  0  0  0  0
  7 11  1  1  0  0  0
  8 14  1  0  0  0  0
  8 16  1  6  0  0  0
  9 11  1  0  0  0  0
 17 16  1  6  0  0  0
 17 18  1  0  0  0  0
 17 24  1  0  0  0  0
 18 19  1  0  0  0  0
 18 25  1  6  0  0  0
 19 20  1  0  0  0  0
 19 26  1  1  0  0  0
 20 21  1  0  0  0  0
 20 23  1  6  0  0  0
 21 22  1  1  0  0  0
 21 24  1  0  0  0  0
 22 27  1  0  0  0  0
 28 12  1  6  0  0  0
 28 29  1  0  0  0  0
 28 33  1  0  0  0  0
 29 30  1  0  0  0  0
 29 36  1  1  0  0  0
 30 31  1  0  0  0  0
 30 37  1  6  0  0  0
 31 32  1  0  0  0  0
 31 34  1  1  0  0  0
 32 33  1  0  0  0  0
 33 35  1  1  0  0  0
M  END
>  <CHROM.1>
-161.72536884,51.40052905,-87.66560199,67.41389594,-60.96584077,-69.12522424
-2.21529799,27.35638000,65.69950948,-2.80411455,-0.16415099,2.52832323

>  <Name>
ligand

>  <RI>
0

>  <Rbt.Current_Directory>
/home/itssahil/PROJECTS/Mol_Feturizer/Test_systems_manuscript/rnas/2g5k

>  <Rbt.Executable>
rbdock ($Id: //depot/dev/client3/rdock/2013.1/src/exe/rbdock.cxx#4 $)

>  <Rbt.Library>
libRbt.so (2013.1, Build901 2013/11/27)

>  <Rbt.Parameter_File>
/export/apps/rDock/src/rDock_2013.1_src/data/scripts/dock_solv.prm

>  <Rbt.Receptor>
prm/pocket_docking_3.prm

>  <SCORE>
-6.12478

>  <SCORE.INTER>
-6.0031

>  <SCORE.INTER.CONST>
1

>  <SCORE.INTER.POLAR>
0

>  <SCORE.INTER.ROT>
6

>  <SCORE.INTER.SOLV>
15.3294

>  <SCORE.INTER.VDW>
-16.7119

>  <SCORE.INTER.norm>
-0.162246

>  <SCORE.INTRA>
-0.159487

>  <SCORE.INTRA.DIHEDRAL>
-6.07053

>  <SCORE.INTRA.DIHEDRAL.0>
11.3972

>  <SCORE.INTRA.POLAR>
0

>  <SCORE.INTRA.POLAR.0>
0

>  <SCORE.INTRA.REPUL>
0

>  <SCORE.INTRA.REPUL.0>
0

>  <SCORE.INTRA.SOLV>
0.982514

>  <SCORE.INTRA.SOLV.lig_0>
-92.3891

>  <SCORE.INTRA.VDW>
2.38452

>  <SCORE.INTRA.VDW.0>
-2.90606

>  <SCORE.INTRA.norm>
-0.00431047

>  <SCORE.RESTR>
0.0378145

>  <SCORE.RESTR.CAVITY>
0.0378145

>  <SCORE.RESTR.norm>
0.00102201

>  <SCORE.SYSTEM>
0

>  <SCORE.SYSTEM.CONST>
0

>  <SCORE.SYSTEM.DIHEDRAL>
0

>  <SCORE.SYSTEM.SOLV>
0

>  <SCORE.SYSTEM.norm>
0

>  <SCORE.heavy>
37

>  <SCORE.norm>
-0.165534

>  <RMSD>
10.444

$$$$
ligand
 OpenBabel02271912133D
libRbt.so/2013.1/901 2013/11/27
 37 40  0  0  0  0  0  0  0  0999 V2000
   -7.0983   32.3714   65.1853 C   0  0  1  0  0  0  0  0  0  0  0  0
   -6.0357   32.8847   64.1725 C   0  0  1  0  0  0  0  0  0  0  0  0
   -5.1748   31.7382   63.6088 C   0  0  0  0  0  0  0  0  0  0  0  0
   -4.4965   30.9850   64.7953 C   0  0  1  0  0  0  0  0  0  0  0  0
   -5.5734   30.4272   65.7816 C   0  0  1  0  0  0  0  0  0  0  0  0
   -4.8585   29.6638   66.9861 C   0  0  1  0  0  0  0  0  0  0  0  0
   -3.9992   28.5012   66.4085 C   0  0  1  0  0  0  0  0  0  0  0  0
   -2.9694   29.1093   65.4092 C   0  0  2  0  0  0  0  0  0  0  0  0
   -3.0306   26.2958   67.3617 C   0  0  0  0  0  0  0  0  0  0  0  0
   -6.6823   33.6331   63.0739 N   0  0  0  0  0  0  0  0  0  0  0  0
   -3.2932   27.7617   67.5209 N   0  0  0  0  0  0  0  0  0  0  0  0
   -8.1264   31.5823   64.5555 O   0  0  0  0  0  0  0  0  0  0  0  0
   -6.4029   31.5828   66.2360 O   0  0  0  0  0  0  0  0  0  0  0  0
   -3.6370   29.8477   64.3291 O   0  0  0  0  0  0  0  0  0  0  0  0
   -3.9936   30.5576   67.6747 O   0  0  0  0  0  0  0  0  0  0  0  0
   -2.1728   28.0763   64.8405 O   0  0  0  0  0  0  0  0  0  0  0  0
   -1.0672   28.5596   64.0383 C   0  0  2  0  0  0  0  0  0  0  0  0
   -0.2969   27.4211   63.3285 C   0  0  1  0  0  0  0  0  0  0  0  0
    0.4341   26.5113   64.3679 C   0  0  2  0  0  0  0  0  0  0  0  0
    1.4157   27.3546   65.1561 C   0  0  1  0  0  0  0  0  0  0  0  0
    0.6337   28.4832   65.8927 C   0  0  1  0  0  0  0  0  0  0  0  0
    1.5587   29.3956   66.6959 C   0  0  0  0  0  0  0  0  0  0  0  0
    2.1297   26.4938   66.1298 N   0  0  0  0  0  0  0  0  0  0  0  0
   -0.1024   29.3153   64.8918 O   0  0  0  0  0  0  0  0  0  0  0  0
   -1.2510   26.6873   62.5290 O   0  0  0  0  0  0  0  0  0  0  0  0
    1.1508   25.4775   63.6892 O   0  0  0  0  0  0  0  0  0  0  0  0
    2.4404   30.0529   65.8185 O   0  0  0  0  0  0  0  0  0  0  0  0
   -9.3090   31.0100   65.3064 C   0  0  1  0  0  0  0  0  0  0  0  0
  -10.1886   32.1894   65.8046 C   0  0  1  0  0  0  0  0  0  0  0  0
  -11.4179   31.6440   66.5878 C   0  0  2  0  0  0  0  0  0  0  0  0
  -12.2557   30.7385   65.6516 C   0  0  1  0  0  0  0  0  0  0  0  0
  -11.3922   29.5307   65.1389 C   0  0  0  0  0  0  0  0  0  0  0  0
  -10.1723   30.0959   64.3807 C   0  0  2  0  0  0  0  0  0  0  0  0
  -13.4344   30.2184   66.3854 N   0  0  0  0  0  0  0  0  0  0  0  0
   -9.3709   28.9623   63.9067 N   0  0  0  0  0  0  0  0  0  0  0  0
   -9.4079   33.0365   66.6765 O   0  0  0  0  0  0  0  0  0  0  0  0
  -12.2146   32.7595   67.0446 O   0  0  0  0  0  0  0  0  0  0  0  0
  1  2  1  0  0  0  0
  1 12  1  6  0  0  0
  1 13  1  0  0  0  0
  2  3  1  0  0  0  0
  2 10  1  6  0  0  0
  4  3  1  6  0  0  0
  4  5  1  0  0  0  0
  4 14  1  0  0  0  0
  5  6  1  0  0  0  0
  5 13  1  1  0  0  0
  6  7  1  0  0  0  0
  6 15  1  6  0  0  0
  7  8  1  0  0  0  0
  7 11  1  1  0  0  0
  8 14  1  0  0  0  0
  8 16  1  6  0  0  0
  9 11  1  0  0  0  0
 17 16  1  1  0  0  0
 17 18  1  0  0  0  0
 17 24  1  0  0  0  0
 18 19  1  0  0  0  0
 18 25  1  1  0  0  0
 19 20  1  0  0  0  0
 19 26  1  6  0  0  0
 20 21  1  0  0  0  0
 20 23  1  1  0  0  0
 21 22  1  6  0  0  0
 21 24  1  0  0  0  0
 22 27  1  0  0  0  0
 28 12  1  6  0  0  0
 28 29  1  0  0  0  0
 28 33  1  0  0  0  0
 29 30  1  0  0  0  0
 29 36  1  1  0  0  0
 30 31  1  0  0  0  0
 30 37  1  6  0  0  0
 31 32  1  0  0  0  0
 31 34  1  1  0  0  0
 32 33  1  0  0  0  0
 33 35  1  1  0  0  0
M  END
>  <CHROM.1>
-177.48072167,148.31663692,-172.01161348,65.90632905,-174.75604559,63.08269107
-4.80646575,29.75119012,65.33922585,-2.81229189,-0.04628006,-3.12263853

>  <Name>
ligand

>  <RI>
0

>  <Rbt.Current_Directory>
/home/itssahil/PROJECTS/Mol_Feturizer/Test_systems_manuscript/rnas/2g5k

>  <Rbt.Executable>
rbdock ($Id: //depot/dev/client3/rdock/2013.1/src/exe/rbdock.cxx#4 $)

>  <Rbt.Library>
libRbt.so (2013.1, Build901 2013/11/27)

>  <Rbt.Parameter_File>
/export/apps/rDock/src/rDock_2013.1_src/data/scripts/dock_solv.prm

>  <Rbt.Receptor>
prm/pocket_docking_5.prm

>  <SCORE>
-6.69652

>  <SCORE.INTER>
-1.1151

>  <SCORE.INTER.CONST>
1

>  <SCORE.INTER.POLAR>
0

>  <SCORE.INTER.ROT>
6

>  <SCORE.INTER.SOLV>
10.7044

>  <SCORE.INTER.VDW>
-11.9115

>  <SCORE.INTER.norm>
-0.0301378

>  <SCORE.INTRA>
-5.58143

>  <SCORE.INTRA.DIHEDRAL>
-10.0258

>  <SCORE.INTRA.DIHEDRAL.0>
11.3972

>  <SCORE.INTRA.POLAR>
0

>  <SCORE.INTRA.POLAR.0>
0

>  <SCORE.INTRA.REPUL>
0

>  <SCORE.INTRA.REPUL.0>
0

>  <SCORE.INTRA.SOLV>
-1.24936

>  <SCORE.INTRA.SOLV.lig_0>
-92.3891

>  <SCORE.INTRA.VDW>
0.0561745

>  <SCORE.INTRA.VDW.0>
-2.90606

>  <SCORE.INTRA.norm>
-0.150849

>  <SCORE.RESTR>
0

>  <SCORE.RESTR.CAVITY>
0

>  <SCORE.RESTR.norm>
0

>  <SCORE.SYSTEM>
0

>  <SCORE.SYSTEM.CONST>
0

>  <SCORE.SYSTEM.DIHEDRAL>
0

>  <SCORE.SYSTEM.SOLV>
0

>  <SCORE.SYSTEM.norm>
0

>  <SCORE.heavy>
37

>  <SCORE.norm>
-0.180987

>  <RMSD>
10.447

$$$$
ligand
 OpenBabel02271912133D
libRbt.so/2013.1/901 2013/11/27
 37 40  0  0  0  0  0  0  0  0999 V2000
   -2.7831   30.2442   64.3259 C   0  0  1  0  0  0  0  0  0  0  0  0
   -3.2569   28.7768   64.1240 C   0  0  1  0  0  0  0  0  0  0  0  0
   -2.2991   27.7656   64.7824 C   0  0  0  0  0  0  0  0  0  0  0  0
   -0.8661   27.9742   64.2008 C   0  0  1  0  0  0  0  0  0  0  0  0
   -0.3763   29.4369   64.4538 C   0  0  1  0  0  0  0  0  0  0  0  0
    1.0878   29.6281   63.8501 C   0  0  1  0  0  0  0  0  0  0  0  0
    2.0507   28.6096   64.5279 C   0  0  1  0  0  0  0  0  0  0  0  0
    1.4968   27.1753   64.2739 C   0  0  2  0  0  0  0  0  0  0  0  0
    4.5961   28.1801   64.7444 C   0  0  0  0  0  0  0  0  0  0  0  0
   -4.6308   28.5976   64.6393 N   0  0  0  0  0  0  0  0  0  0  0  0
    3.4479   28.7506   63.9704 N   0  0  0  0  0  0  0  0  0  0  0  0
   -2.8822   30.6732   65.6979 O   0  0  0  0  0  0  0  0  0  0  0  0
   -1.3821   30.3559   63.8422 O   0  0  0  0  0  0  0  0  0  0  0  0
    0.1315   27.0242   64.7939 O   0  0  0  0  0  0  0  0  0  0  0  0
    1.0695   29.3624   62.4536 O   0  0  0  0  0  0  0  0  0  0  0  0
    2.3384   26.2101   64.8946 O   0  0  0  0  0  0  0  0  0  0  0  0
    1.9226   24.8394   64.6767 C   0  0  2  0  0  0  0  0  0  0  0  0
    2.6598   23.8347   65.5934 C   0  0  1  0  0  0  0  0  0  0  0  0
    4.1804   23.7694   65.2384 C   0  0  2  0  0  0  0  0  0  0  0  0
    4.3309   23.3250   63.7976 C   0  0  1  0  0  0  0  0  0  0  0  0
    3.6119   24.3538   62.8744 C   0  0  1  0  0  0  0  0  0  0  0  0
    3.6988   23.9642   61.4000 C   0  0  0  0  0  0  0  0  0  0  0  0
    5.7722   23.2391   63.4595 N   0  0  0  0  0  0  0  0  0  0  0  0
    2.1693   24.4451   63.2575 O   0  0  0  0  0  0  0  0  0  0  0  0
    2.4302   24.2476   66.9590 O   0  0  0  0  0  0  0  0  0  0  0  0
    4.8369   22.8246   66.0866 O   0  0  0  0  0  0  0  0  0  0  0  0
    5.0378   24.0446   60.9757 O   0  0  0  0  0  0  0  0  0  0  0  0
   -2.6329   32.0986   66.1408 C   0  0  1  0  0  0  0  0  0  0  0  0
   -1.1714   32.4756   65.7738 C   0  0  1  0  0  0  0  0  0  0  0  0
   -0.8705   33.9369   66.2165 C   0  0  2  0  0  0  0  0  0  0  0  0
   -1.8458   34.8979   65.4929 C   0  0  1  0  0  0  0  0  0  0  0  0
   -3.3332   34.5446   65.8535 C   0  0  0  0  0  0  0  0  0  0  0  0
   -3.6027   33.0878   65.4205 C   0  0  2  0  0  0  0  0  0  0  0  0
   -1.5637   36.2949   65.9019 N   0  0  0  0  0  0  0  0  0  0  0  0
   -4.9925   32.7654   65.7617 N   0  0  0  0  0  0  0  0  0  0  0  0
   -0.2601   31.5786   66.4462 O   0  0  0  0  0  0  0  0  0  0  0  0
    0.4946   34.2597   65.8698 O   0  0  0  0  0  0  0  0  0  0  0  0
  1  2  1  0  0  0  0
  1 12  1  1  0  0  0
  1 13  1  0  0  0  0
  2  3  1  0  0  0  0
  2 10  1  1  0  0  0
  4  3  1  1  0  0  0
  4  5  1  0  0  0  0
  4 14  1  0  0  0  0
  5  6  1  0  0  0  0
  5 13  1  6  0  0  0
  6  7  1  0  0  0  0
  6 15  1  6  0  0  0
  7  8  1  0  0  0  0
  7 11  1  6  0  0  0
  8 14  1  0  0  0  0
  8 16  1  1  0  0  0
  9 11  1  0  0  0  0
 17 16  1  6  0  0  0
 17 18  1  0  0  0  0
 17 24  1  0  0  0  0
 18 19  1  0  0  0  0
 18 25  1  1  0  0  0
 19 20  1  0  0  0  0
 19 26  1  1  0  0  0
 20 21  1  0  0  0  0
 20 23  1  6  0  0  0
 21 22  1  6  0  0  0
 21 24  1  0  0  0  0
 22 27  1  0  0  0  0
 28 12  1  6  0  0  0
 28 29  1  0  0  0  0
 28 33  1  0  0  0  0
 29 30  1  0  0  0  0
 29 36  1  1  0  0  0
 30 31  1  0  0  0  0
 30 37  1  6  0  0  0
 31 32  1  0  0  0  0
 31 34  1  1  0  0  0
 32 33  1  0  0  0  0
 33 35  1  1  0  0  0
M  END
>  <CHROM.1>
-172.97954555,161.80843768,-178.22182847,-60.61034272,-167.78959536,-66.56919628
0.55179275,28.54231268,64.66622891,2.18342300,0.06207558,0.13782573

>  <Name>
ligand

>  <RI>
0

>  <Rbt.Current_Directory>
/home/itssahil/PROJECTS/Mol_Feturizer/Test_systems_manuscript/rnas/2g5k

>  <Rbt.Executable>
rbdock ($Id: //depot/dev/client3/rdock/2013.1/src/exe/rbdock.cxx#4 $)

>  <Rbt.Library>
libRbt.so (2013.1, Build901 2013/11/27)

>  <Rbt.Parameter_File>
/export/apps/rDock/src/rDock_2013.1_src/data/scripts/dock_solv.prm

>  <Rbt.Receptor>
prm/pocket_docking_7.prm

>  <SCORE>
-14.762

>  <SCORE.INTER>
-9.81017

>  <SCORE.INTER.CONST>
1

>  <SCORE.INTER.POLAR>
0

>  <SCORE.INTER.ROT>
6

>  <SCORE.INTER.SOLV>
11.9992

>  <SCORE.INTER.VDW>
-18.1399

>  <SCORE.INTER.norm>
-0.26514

>  <SCORE.INTRA>
-4.95185

>  <SCORE.INTRA.DIHEDRAL>
-9.98712

>  <SCORE.INTRA.DIHEDRAL.0>
11.3972

>  <SCORE.INTRA.POLAR>
0

>  <SCORE.INTRA.POLAR.0>
0

>  <SCORE.INTRA.REPUL>
0

>  <SCORE.INTRA.REPUL.0>
0

>  <SCORE.INTRA.SOLV>
0.0871396

>  <SCORE.INTRA.SOLV.lig_0>
-92.3891

>  <SCORE.INTRA.VDW>
-0.00186251

>  <SCORE.INTRA.VDW.0>
-2.90606

>  <SCORE.INTRA.norm>
-0.133834

>  <SCORE.RESTR>
0

>  <SCORE.RESTR.CAVITY>
0

>  <SCORE.RESTR.norm>
0

>  <SCORE.SYSTEM>
0

>  <SCORE.SYSTEM.CONST>
0

>  <SCORE.SYSTEM.DIHEDRAL>
0

>  <SCORE.SYSTEM.SOLV>
0

>  <SCORE.SYSTEM.norm>
0

>  <SCORE.heavy>
37

>  <SCORE.norm>
-0.398974

>  <RMSD>
10.466

$$$$
ligand
 OpenBabel02271912133D
libRbt.so/2013.1/901 2013/11/27
 37 40  0  0  0  0  0  0  0  0999 V2000
   -4.1895   31.2457   68.4625 C   0  0  1  0  0  0  0  0  0  0  0  0
   -3.1645   32.3551   68.0924 C   0  0  1  0  0  0  0  0  0  0  0  0
   -2.1137   31.8561   67.0825 C   0  0  0  0  0  0  0  0  0  0  0  0
   -1.3928   30.6070   67.6788 C   0  0  1  0  0  0  0  0  0  0  0  0
   -2.4239   29.4767   67.9997 C   0  0  1  0  0  0  0  0  0  0  0  0
   -1.6665   28.2120   68.6092 C   0  0  1  0  0  0  0  0  0  0  0  0
   -0.6140   27.7084   67.5784 C   0  0  1  0  0  0  0  0  0  0  0  0
    0.3637   28.8823   67.2704 C   0  0  2  0  0  0  0  0  0  0  0  0
   -0.4943   25.1614   68.0356 C   0  0  0  0  0  0  0  0  0  0  0  0
   -3.8579   33.5506   67.5678 N   0  0  0  0  0  0  0  0  0  0  0  0
    0.1359   26.5170   68.1271 N   0  0  0  0  0  0  0  0  0  0  0  0
   -5.0539   30.9023   67.3620 O   0  0  0  0  0  0  0  0  0  0  0  0
   -3.4395   30.0512   68.9317 O   0  0  0  0  0  0  0  0  0  0  0  0
   -0.3498   30.0568   66.7520 O   0  0  0  0  0  0  0  0  0  0  0  0
   -0.9820   28.5892   69.7968 O   0  0  0  0  0  0  0  0  0  0  0  0
    1.3344   28.4709   66.3146 O   0  0  0  0  0  0  0  0  0  0  0  0
    2.3094   29.4919   65.9888 C   0  0  2  0  0  0  0  0  0  0  0  0
    3.0728   29.1970   64.6759 C   0  0  1  0  0  0  0  0  0  0  0  0
    3.9740   27.9294   64.8287 C   0  0  2  0  0  0  0  0  0  0  0  0
    4.9766   28.1690   65.9392 C   0  0  1  0  0  0  0  0  0  0  0  0
    4.2054   28.4376   67.2662 C   0  0  1  0  0  0  0  0  0  0  0  0
    5.1489   28.7121   68.4357 C   0  0  0  0  0  0  0  0  0  0  0  0
    5.8504   26.9788   66.0756 N   0  0  0  0  0  0  0  0  0  0  0  0
    3.3086   29.6213   67.0913 O   0  0  0  0  0  0  0  0  0  0  0  0
    2.0886   29.0502   63.6280 O   0  0  0  0  0  0  0  0  0  0  0  0
    4.6803   27.6860   63.6101 O   0  0  0  0  0  0  0  0  0  0  0  0
    4.3925   28.9417   69.5996 O   0  0  0  0  0  0  0  0  0  0  0  0
   -6.2721   30.0167   67.5096 C   0  0  1  0  0  0  0  0  0  0  0  0
   -7.3974   30.8434   68.1902 C   0  0  1  0  0  0  0  0  0  0  0  0
   -8.6713   29.9669   68.3653 C   0  0  2  0  0  0  0  0  0  0  0  0
   -9.1549   29.4899   66.9736 C   0  0  1  0  0  0  0  0  0  0  0  0
   -8.0381   28.6425   66.2651 C   0  0  0  0  0  0  0  0  0  0  0  0
   -6.7813   29.5263   66.1175 C   0  0  2  0  0  0  0  0  0  0  0  0
  -10.3733   28.6591   67.1274 N   0  0  0  0  0  0  0  0  0  0  0  0
   -5.7432   28.7278   65.4566 N   0  0  0  0  0  0  0  0  0  0  0  0
   -6.9471   31.2912   69.4879 O   0  0  0  0  0  0  0  0  0  0  0  0
   -9.6986   30.7564   69.0051 O   0  0  0  0  0  0  0  0  0  0  0  0
  1  2  1  0  0  0  0
  1 12  1  6  0  0  0
  1 13  1  0  0  0  0
  2  3  1  0  0  0  0
  2 10  1  6  0  0  0
  4  3  1  6  0  0  0
  4  5  1  0  0  0  0
  4 14  1  0  0  0  0
  5  6  1  0  0  0  0
  5 13  1  1  0  0  0
  6  7  1  0  0  0  0
  6 15  1  1  0  0  0
  7  8  1  0  0  0  0
  7 11  1  1  0  0  0
  8 14  1  0  0  0  0
  8 16  1  6  0  0  0
  9 11  1  0  0  0  0
 17 16  1  1  0  0  0
 17 18  1  0  0  0  0
 17 24  1  0  0  0  0
 18 19  1  0  0  0  0
 18 25  1  6  0  0  0
 19 20  1  0  0  0  0
 19 26  1  6  0  0  0
 20 21  1  0  0  0  0
 20 23  1  1  0  0  0
 21 22  1  1  0  0  0
 21 24  1  0  0  0  0
 22 27  1  0  0  0  0
 28 12  1  6  0  0  0
 28 29  1  0  0  0  0
 28 33  1  0  0  0  0
 29 30  1  0  0  0  0
 29 36  1  1  0  0  0
 30 31  1  0  0  0  0
 30 37  1  6  0  0  0
 31 32  1  0  0  0  0
 31 34  1  1  0  0  0
 32 33  1  0  0  0  0
 33 35  1  1  0  0  0
M  END
>  <CHROM.1>
-170.11602203,81.56812054,-178.61892820,75.47357960,-162.69113800,-179.83041714
-1.66179509,29.34209048,67.23628822,-2.93898817,0.03422015,-2.33933317

>  <Name>
ligand

>  <RI>
0

>  <Rbt.Current_Directory>
/home/itssahil/PROJECTS/Mol_Feturizer/Test_systems_manuscript/rnas/2g5k

>  <Rbt.Executable>
rbdock ($Id: //depot/dev/client3/rdock/2013.1/src/exe/rbdock.cxx#4 $)

>  <Rbt.Library>
libRbt.so (2013.1, Build901 2013/11/27)

>  <Rbt.Parameter_File>
/export/apps/rDock/src/rDock_2013.1_src/data/scripts/dock_solv.prm

>  <Rbt.Receptor>
prm/pocket_docking_6.prm

>  <SCORE>
-9.03773

>  <SCORE.INTER>
-4.34259

>  <SCORE.INTER.CONST>
1

>  <SCORE.INTER.POLAR>
0

>  <SCORE.INTER.ROT>
6

>  <SCORE.INTER.SOLV>
13.3796

>  <SCORE.INTER.VDW>
-14.9549

>  <SCORE.INTER.norm>
-0.117367

>  <SCORE.INTRA>
-4.69515

>  <SCORE.INTRA.DIHEDRAL>
-8.03907

>  <SCORE.INTRA.DIHEDRAL.0>
11.3972

>  <SCORE.INTRA.POLAR>
0

>  <SCORE.INTRA.POLAR.0>
0

>  <SCORE.INTRA.REPUL>
0

>  <SCORE.INTRA.REPUL.0>
0

>  <SCORE.INTRA.SOLV>
-1.79088

>  <SCORE.INTRA.SOLV.lig_0>
-92.3891

>  <SCORE.INTRA.VDW>
0.219826

>  <SCORE.INTRA.VDW.0>
-2.90606

>  <SCORE.INTRA.norm>
-0.126896

>  <SCORE.RESTR>
0

>  <SCORE.RESTR.CAVITY>
0

>  <SCORE.RESTR.norm>
0

>  <SCORE.SYSTEM>
0

>  <SCORE.SYSTEM.CONST>
0

>  <SCORE.SYSTEM.DIHEDRAL>
0

>  <SCORE.SYSTEM.SOLV>
0

>  <SCORE.SYSTEM.norm>
0

>  <SCORE.heavy>
37

>  <SCORE.norm>
-0.244263

>  <RMSD>
10.489

$$$$
ligand
 OpenBabel02271912133D
libRbt.so/2013.1/901 2013/11/27
 37 40  0  0  0  0  0  0  0  0999 V2000
   -8.0178   20.6850   71.4272 C   0  0  1  0  0  0  0  0  0  0  0  0
   -7.8628   22.0246   72.2018 C   0  0  1  0  0  0  0  0  0  0  0  0
   -8.3772   23.2258   71.3858 C   0  0  0  0  0  0  0  0  0  0  0  0
   -7.6143   23.2764   70.0254 C   0  0  1  0  0  0  0  0  0  0  0  0
   -7.8179   21.9464   69.2296 C   0  0  1  0  0  0  0  0  0  0  0  0
   -7.0288   22.0194   67.8451 C   0  0  1  0  0  0  0  0  0  0  0  0
   -7.5617   23.2294   67.0231 C   0  0  1  0  0  0  0  0  0  0  0  0
   -7.3659   24.5191   67.8757 C   0  0  2  0  0  0  0  0  0  0  0  0
   -7.6096   23.6289   64.4641 C   0  0  0  0  0  0  0  0  0  0  0  0
   -8.5524   21.9541   73.5074 N   0  0  0  0  0  0  0  0  0  0  0  0
   -6.8266   23.3403   65.7077 N   0  0  0  0  0  0  0  0  0  0  0  0
   -9.3959   20.2965   71.2651 O   0  0  0  0  0  0  0  0  0  0  0  0
   -7.3551   20.8282   70.1045 O   0  0  0  0  0  0  0  0  0  0  0  0
   -8.0595   24.4229   69.1668 O   0  0  0  0  0  0  0  0  0  0  0  0
   -5.6439   22.2241   68.0924 O   0  0  0  0  0  0  0  0  0  0  0  0
   -7.8588   25.6513   67.1683 O   0  0  0  0  0  0  0  0  0  0  0  0
   -7.2190   26.8986   67.5345 C   0  0  2  0  0  0  0  0  0  0  0  0
   -7.3641   27.9902   66.4479 C   0  0  1  0  0  0  0  0  0  0  0  0
   -6.5813   27.5953   65.1542 C   0  0  2  0  0  0  0  0  0  0  0  0
   -5.1144   27.4321   65.4969 C   0  0  1  0  0  0  0  0  0  0  0  0
   -4.9684   26.3125   66.5706 C   0  0  1  0  0  0  0  0  0  0  0  0
   -3.5146   26.1008   66.9885 C   0  0  0  0  0  0  0  0  0  0  0  0
   -4.3609   27.0791   64.2695 N   0  0  0  0  0  0  0  0  0  0  0  0
   -5.7631   26.6777   67.7835 O   0  0  0  0  0  0  0  0  0  0  0  0
   -8.7768   28.1708   66.2034 O   0  0  0  0  0  0  0  0  0  0  0  0
   -6.7167   28.6245   64.1715 O   0  0  0  0  0  0  0  0  0  0  0  0
   -3.4644   25.1711   68.0433 O   0  0  0  0  0  0  0  0  0  0  0  0
   -9.9627   19.0042   71.8116 C   0  0  1  0  0  0  0  0  0  0  0  0
   -9.7227   17.8836   70.7631 C   0  0  1  0  0  0  0  0  0  0  0  0
  -10.2955   16.5339   71.2847 C   0  0  2  0  0  0  0  0  0  0  0  0
   -9.5854   16.1586   72.6088 C   0  0  1  0  0  0  0  0  0  0  0  0
   -9.8190   17.2721   73.6918 C   0  0  0  0  0  0  0  0  0  0  0  0
   -9.2584   18.6026   73.1460 C   0  0  2  0  0  0  0  0  0  0  0  0
  -10.1184   14.8697   73.1119 N   0  0  0  0  0  0  0  0  0  0  0  0
   -9.4815   19.6369   74.1620 N   0  0  0  0  0  0  0  0  0  0  0  0
  -10.3827   18.2331   69.5263 O   0  0  0  0  0  0  0  0  0  0  0  0
  -10.0652   15.5117   70.2898 O   0  0  0  0  0  0  0  0  0  0  0  0
  1  2  1  0  0  0  0
  1 12  1  6  0  0  0
  1 13  1  0  0  0  0
  2  3  1  0  0  0  0
  2 10  1  1  0  0  0
  4  3  1  1  0  0  0
  4  5  1  0  0  0  0
  4 14  1  0  0  0  0
  5  6  1  0  0  0  0
  5 13  1  1  0  0  0
  6  7  1  0  0  0  0
  6 15  1  1  0  0  0
  7  8  1  0  0  0  0
  7 11  1  6  0  0  0
  8 14  1  0  0  0  0
  8 16  1  6  0  0  0
  9 11  1  0  0  0  0
 17 16  1  6  0  0  0
 17 18  1  0  0  0  0
 17 24  1  0  0  0  0
 18 19  1  0  0  0  0
 18 25  1  6  0  0  0
 19 20  1  0  0  0  0
 19 26  1  6  0  0  0
 20 21  1  0  0  0  0
 20 23  1  6  0  0  0
 21 22  1  1  0  0  0
 21 24  1  0  0  0  0
 22 27  1  0  0  0  0
 28 12  1  6  0  0  0
 28 29  1  0  0  0  0
 28 33  1  0  0  0  0
 29 30  1  0  0  0  0
 29 36  1  6  0  0  0
 30 31  1  0  0  0  0
 30 37  1  6  0  0  0
 31 32  1  0  0  0  0
 31 34  1  1  0  0  0
 32 33  1  0  0  0  0
 33 35  1  1  0  0  0
M  END
>  <CHROM.1>
-119.71215836,136.81170539,-153.31077137,-86.41948331,158.82562487,174.55657420
-7.70612747,22.60208946,69.02560607,-2.80698344,-1.23920266,-1.81407939

>  <Name>
ligand

>  <RI>
0

>  <Rbt.Current_Directory>
/home/itssahil/PROJECTS/Mol_Feturizer/Test_systems_manuscript/rnas/2g5k

>  <Rbt.Executable>
rbdock ($Id: //depot/dev/client3/rdock/2013.1/src/exe/rbdock.cxx#4 $)

>  <Rbt.Library>
libRbt.so (2013.1, Build901 2013/11/27)

>  <Rbt.Parameter_File>
/export/apps/rDock/src/rDock_2013.1_src/data/scripts/dock_solv.prm

>  <Rbt.Receptor>
prm/blind_docking_80.prm

>  <SCORE>
21.4101

>  <SCORE.INTER>
5.66714

>  <SCORE.INTER.CONST>
1

>  <SCORE.INTER.POLAR>
0

>  <SCORE.INTER.ROT>
6

>  <SCORE.INTER.SOLV>
21.1909

>  <SCORE.INTER.VDW>
-10.8855

>  <SCORE.INTER.norm>
0.153166

>  <SCORE.INTRA>
3.8723

>  <SCORE.INTRA.DIHEDRAL>
4.79418

>  <SCORE.INTRA.DIHEDRAL.0>
11.3972

>  <SCORE.INTRA.POLAR>
0

>  <SCORE.INTRA.POLAR.0>
0

>  <SCORE.INTRA.REPUL>
0.0178097

>  <SCORE.INTRA.REPUL.0>
0

>  <SCORE.INTRA.SOLV>
3.36127

>  <SCORE.INTRA.SOLV.lig_0>
-92.3891

>  <SCORE.INTRA.VDW>
-0.294471

>  <SCORE.INTRA.VDW.0>
-2.90606

>  <SCORE.INTRA.norm>
0.104657

>  <SCORE.RESTR>
11.8707

>  <SCORE.RESTR.CAVITY>
11.8707

>  <SCORE.RESTR.norm>
0.32083

>  <SCORE.SYSTEM>
0

>  <SCORE.SYSTEM.CONST>
0

>  <SCORE.SYSTEM.DIHEDRAL>
0

>  <SCORE.SYSTEM.SOLV>
0

>  <SCORE.SYSTEM.norm>
0

>  <SCORE.heavy>
37

>  <SCORE.norm>
0.578653

>  <RMSD>
10.491

$$$$
ligand
 OpenBabel02271912133D
libRbt.so/2013.1/901 2013/11/27
 37 40  0  0  0  0  0  0  0  0999 V2000
   -9.6681   31.6286   68.0051 C   0  0  1  0  0  0  0  0  0  0  0  0
   -8.3825   32.2573   68.6137 C   0  0  1  0  0  0  0  0  0  0  0  0
   -7.1629   32.0862   67.6882 C   0  0  0  0  0  0  0  0  0  0  0  0
   -6.9575   30.5667   67.3984 C   0  0  1  0  0  0  0  0  0  0  0  0
   -8.2354   29.9538   66.7390 C   0  0  1  0  0  0  0  0  0  0  0  0
   -8.0042   28.4014   66.4538 C   0  0  1  0  0  0  0  0  0  0  0  0
   -6.7766   28.2385   65.5102 C   0  0  1  0  0  0  0  0  0  0  0  0
   -5.5435   28.8955   66.2004 C   0  0  2  0  0  0  0  0  0  0  0  0
   -6.7489   26.2559   63.8431 C   0  0  0  0  0  0  0  0  0  0  0  0
   -8.5985   33.6863   68.9243 N   0  0  0  0  0  0  0  0  0  0  0  0
   -6.5166   26.7771   65.2278 N   0  0  0  0  0  0  0  0  0  0  0  0
  -10.1392   32.3454   66.8472 O   0  0  0  0  0  0  0  0  0  0  0  0
   -9.3806   30.2112   67.6623 O   0  0  0  0  0  0  0  0  0  0  0  0
   -5.7843   30.3134   66.4990 O   0  0  0  0  0  0  0  0  0  0  0  0
   -7.7218   27.7264   67.6728 O   0  0  0  0  0  0  0  0  0  0  0  0
   -4.3992   28.7866   65.3617 O   0  0  0  0  0  0  0  0  0  0  0  0
   -3.8785   27.4393   65.2482 C   0  0  2  0  0  0  0  0  0  0  0  0
   -3.1381   26.9716   66.5235 C   0  0  1  0  0  0  0  0  0  0  0  0
   -1.8333   27.8025   66.7460 C   0  0  2  0  0  0  0  0  0  0  0  0
   -0.9216   27.6169   65.5501 C   0  0  1  0  0  0  0  0  0  0  0  0
   -1.6590   28.1151   64.2711 C   0  0  1  0  0  0  0  0  0  0  0  0
   -0.8114   27.9407   63.0124 C   0  0  0  0  0  0  0  0  0  0  0  0
    0.3289   28.3848   65.7636 N   0  0  0  0  0  0  0  0  0  0  0  0
   -2.9307   27.3479   64.0976 O   0  0  0  0  0  0  0  0  0  0  0  0
   -4.0625   27.0915   67.6278 O   0  0  0  0  0  0  0  0  0  0  0  0
   -1.1591   27.3428   67.9195 O   0  0  0  0  0  0  0  0  0  0  0  0
   -0.5691   26.5710   62.8008 O   0  0  0  0  0  0  0  0  0  0  0  0
  -11.3371   31.9084   66.0323 C   0  0  1  0  0  0  0  0  0  0  0  0
  -10.9990   30.5517   65.3556 C   0  0  1  0  0  0  0  0  0  0  0  0
  -12.2062   30.0662   64.5020 C   0  0  2  0  0  0  0  0  0  0  0  0
  -13.4395   29.8879   65.4214 C   0  0  1  0  0  0  0  0  0  0  0  0
  -13.8098   31.2487   66.1132 C   0  0  0  0  0  0  0  0  0  0  0  0
  -12.5934   31.7176   66.9396 C   0  0  2  0  0  0  0  0  0  0  0  0
  -14.5950   29.4184   64.6196 N   0  0  0  0  0  0  0  0  0  0  0  0
  -12.9467   32.9888   67.5809 N   0  0  0  0  0  0  0  0  0  0  0  0
   -9.8471   30.7155   64.4991 O   0  0  0  0  0  0  0  0  0  0  0  0
  -11.8638   28.8079   63.8796 O   0  0  0  0  0  0  0  0  0  0  0  0
  1  2  1  0  0  0  0
  1 12  1  6  0  0  0
  1 13  1  0  0  0  0
  2  3  1  0  0  0  0
  2 10  1  6  0  0  0
  4  3  1  6  0  0  0
  4  5  1  0  0  0  0
  4 14  1  0  0  0  0
  5  6  1  0  0  0  0
  5 13  1  1  0  0  0
  6  7  1  0  0  0  0
  6 15  1  1  0  0  0
  7  8  1  0  0  0  0
  7 11  1  1  0  0  0
  8 14  1  0  0  0  0
  8 16  1  6  0  0  0
  9 11  1  0  0  0  0
 17 16  1  1  0  0  0
 17 18  1  0  0  0  0
 17 24  1  0  0  0  0
 18 19  1  0  0  0  0
 18 25  1  1  0  0  0
 19 20  1  0  0  0  0
 19 26  1  1  0  0  0
 20 21  1  0  0  0  0
 20 23  1  1  0  0  0
 21 22  1  6  0  0  0
 21 24  1  0  0  0  0
 22 27  1  0  0  0  0
 28 12  1  1  0  0  0
 28 29  1  0  0  0  0
 28 33  1  0  0  0  0
 29 30  1  0  0  0  0
 29 36  1  6  0  0  0
 30 31  1  0  0  0  0
 30 37  1  1  0  0  0
 31 32  1  0  0  0  0
 31 34  1  6  0  0  0
 32 33  1  0  0  0  0
 33 35  1  6  0  0  0
M  END
>  <CHROM.1>
177.31322750,111.86144977,-70.83324482,-65.61879815,-73.73830382,63.19746229
-7.09374111,29.37352817,66.01554915,-2.83855008,0.19170412,-2.32714132

>  <Name>
ligand

>  <RI>
0

>  <Rbt.Current_Directory>
/home/itssahil/PROJECTS/Mol_Feturizer/Test_systems_manuscript/rnas/2g5k

>  <Rbt.Executable>
rbdock ($Id: //depot/dev/client3/rdock/2013.1/src/exe/rbdock.cxx#4 $)

>  <Rbt.Library>
libRbt.so (2013.1, Build901 2013/11/27)

>  <Rbt.Parameter_File>
/export/apps/rDock/src/rDock_2013.1_src/data/scripts/dock_solv.prm

>  <Rbt.Receptor>
prm/pocket_docking_4.prm

>  <SCORE>
-3.99475

>  <SCORE.INTER>
-0.96321

>  <SCORE.INTER.CONST>
1

>  <SCORE.INTER.POLAR>
0

>  <SCORE.INTER.ROT>
6

>  <SCORE.INTER.SOLV>
12.8838

>  <SCORE.INTER.VDW>
-12.5367

>  <SCORE.INTER.norm>
-0.0260327

>  <SCORE.INTRA>
-3.03154

>  <SCORE.INTRA.DIHEDRAL>
-8.53348

>  <SCORE.INTRA.DIHEDRAL.0>
11.3972

>  <SCORE.INTRA.POLAR>
0

>  <SCORE.INTRA.POLAR.0>
0

>  <SCORE.INTRA.REPUL>
0

>  <SCORE.INTRA.REPUL.0>
0

>  <SCORE.INTRA.SOLV>
1.42131

>  <SCORE.INTRA.SOLV.lig_0>
-92.3891

>  <SCORE.INTRA.VDW>
0.524541

>  <SCORE.INTRA.VDW.0>
-2.90606

>  <SCORE.INTRA.norm>
-0.0819336

>  <SCORE.RESTR>
0

>  <SCORE.RESTR.CAVITY>
0

>  <SCORE.RESTR.norm>
0

>  <SCORE.SYSTEM>
0

>  <SCORE.SYSTEM.CONST>
0

>  <SCORE.SYSTEM.DIHEDRAL>
0

>  <SCORE.SYSTEM.SOLV>
0

>  <SCORE.SYSTEM.norm>
0

>  <SCORE.heavy>
37

>  <SCORE.norm>
-0.107966

>  <RMSD>
10.499

$$$$
ligand
 OpenBabel02271912133D
libRbt.so/2013.1/901 2013/11/27
 37 40  0  0  0  0  0  0  0  0999 V2000
   -4.7939   31.4111   68.3318 C   0  0  1  0  0  0  0  0  0  0  0  0
   -3.6412   32.4257   68.0863 C   0  0  1  0  0  0  0  0  0  0  0  0
   -2.5054   31.8155   67.2431 C   0  0  0  0  0  0  0  0  0  0  0  0
   -1.9772   30.5334   67.9590 C   0  0  1  0  0  0  0  0  0  0  0  0
   -3.1308   29.4971   68.1553 C   0  0  1  0  0  0  0  0  0  0  0  0
   -2.5696   28.1969   68.8897 C   0  0  1  0  0  0  0  0  0  0  0  0
   -1.4296   27.5814   68.0263 C   0  0  1  0  0  0  0  0  0  0  0  0
   -0.3269   28.6658   67.8343 C   0  0  2  0  0  0  0  0  0  0  0  0
   -1.5035   25.0250   68.4385 C   0  0  0  0  0  0  0  0  0  0  0  0
   -4.1565   33.6546   67.4462 N   0  0  0  0  0  0  0  0  0  0  0  0
   -0.8615   26.3530   68.6979 N   0  0  0  0  0  0  0  0  0  0  0  0
   -5.5237   31.1019   67.1284 O   0  0  0  0  0  0  0  0  0  0  0  0
   -4.2150   30.1773   68.9248 O   0  0  0  0  0  0  0  0  0  0  0  0
   -0.8646   29.8755   67.1981 O   0  0  0  0  0  0  0  0  0  0  0  0
   -2.0266   28.5565   70.1535 O   0  0  0  0  0  0  0  0  0  0  0  0
    0.7294   28.1509   67.0318 O   0  0  0  0  0  0  0  0  0  0  0  0
    1.6312   27.2668   67.7421 C   0  0  2  0  0  0  0  0  0  0  0  0
    3.1171   27.6647   67.5770 C   0  0  1  0  0  0  0  0  0  0  0  0
    3.5825   27.4769   66.0970 C   0  0  2  0  0  0  0  0  0  0  0  0
    3.4154   26.0216   65.7093 C   0  0  1  0  0  0  0  0  0  0  0  0
    1.9135   25.6313   65.8491 C   0  0  1  0  0  0  0  0  0  0  0  0
    1.6635   24.1663   65.4963 C   0  0  0  0  0  0  0  0  0  0  0  0
    3.8760   25.8307   64.3128 N   0  0  0  0  0  0  0  0  0  0  0  0
    1.4665   25.8640   67.2570 O   0  0  0  0  0  0  0  0  0  0  0  0
    3.2506   29.0313   68.0272 O   0  0  0  0  0  0  0  0  0  0  0  0
    4.9606   27.8352   65.9722 O   0  0  0  0  0  0  0  0  0  0  0  0
    2.4410   23.3467   66.3348 O   0  0  0  0  0  0  0  0  0  0  0  0
   -6.3612   32.1178   66.3824 C   0  0  1  0  0  0  0  0  0  0  0  0
   -6.5247   31.6337   64.9156 C   0  0  1  0  0  0  0  0  0  0  0  0
   -7.3791   32.6544   64.1094 C   0  0  2  0  0  0  0  0  0  0  0  0
   -8.7754   32.7799   64.7672 C   0  0  1  0  0  0  0  0  0  0  0  0
   -8.6404   33.2770   66.2511 C   0  0  0  0  0  0  0  0  0  0  0  0
   -7.7769   32.2587   67.0256 C   0  0  2  0  0  0  0  0  0  0  0  0
   -9.6013   33.7452   64.0028 N   0  0  0  0  0  0  0  0  0  0  0  0
   -7.6547   32.7306   68.4091 N   0  0  0  0  0  0  0  0  0  0  0  0
   -5.2228   31.5139   64.3009 O   0  0  0  0  0  0  0  0  0  0  0  0
   -7.5104   32.1843   62.7494 O   0  0  0  0  0  0  0  0  0  0  0  0
  1  2  1  0  0  0  0
  1 12  1  6  0  0  0
  1 13  1  0  0  0  0
  2  3  1  0  0  0  0
  2 10  1  6  0  0  0
  4  3  1  6  0  0  0
  4  5  1  0  0  0  0
  4 14  1  0  0  0  0
  5  6  1  0  0  0  0
  5 13  1  1  0  0  0
  6  7  1  0  0  0  0
  6 15  1  1  0  0  0
  7  8  1  0  0  0  0
  7 11  1  1  0  0  0
  8 14  1  0  0  0  0
  8 16  1  6  0  0  0
  9 11  1  0  0  0  0
 17 16  1  6  0  0  0
 17 18  1  0  0  0  0
 17 24  1  0  0  0  0
 18 19  1  0  0  0  0
 18 25  1  6  0  0  0
 19 20  1  0  0  0  0
 19 26  1  1  0  0  0
 20 21  1  0  0  0  0
 20 23  1  6  0  0  0
 21 22  1  1  0  0  0
 21 24  1  0  0  0  0
 22 27  1  0  0  0  0
 28 12  1  1  0  0  0
 28 29  1  0  0  0  0
 28 33  1  0  0  0  0
 29 30  1  0  0  0  0
 29 36  1  6  0  0  0
 30 31  1  0  0  0  0
 30 37  1  6  0  0  0
 31 32  1  0  0  0  0
 31 34  1  6  0  0  0
 32 33  1  0  0  0  0
 33 35  1  1  0  0  0
M  END
>  <CHROM.1>
-65.87698660,87.46567694,-77.62785880,158.05234000,-128.33355735,58.39434851
-2.18825372,29.36874714,66.83365047,3.08407767,0.57615129,-1.60337252

>  <Name>
ligand

>  <RI>
0

>  <Rbt.Current_Directory>
/home/itssahil/PROJECTS/Mol_Feturizer/Test_systems_manuscript/rnas/2g5k

>  <Rbt.Executable>
rbdock ($Id: //depot/dev/client3/rdock/2013.1/src/exe/rbdock.cxx#4 $)

>  <Rbt.Library>
libRbt.so (2013.1, Build901 2013/11/27)

>  <Rbt.Parameter_File>
/export/apps/rDock/src/rDock_2013.1_src/data/scripts/dock_solv.prm

>  <Rbt.Receptor>
prm/pocket_docking_5.prm

>  <SCORE>
-6.91563

>  <SCORE.INTER>
-8.31986

>  <SCORE.INTER.CONST>
1

>  <SCORE.INTER.POLAR>
0

>  <SCORE.INTER.ROT>
6

>  <SCORE.INTER.SOLV>
13.1112

>  <SCORE.INTER.VDW>
-17.517

>  <SCORE.INTER.norm>
-0.224861

>  <SCORE.INTRA>
1.40423

>  <SCORE.INTRA.DIHEDRAL>
-0.261588

>  <SCORE.INTRA.DIHEDRAL.0>
11.3972

>  <SCORE.INTRA.POLAR>
0

>  <SCORE.INTRA.POLAR.0>
0

>  <SCORE.INTRA.REPUL>
0

>  <SCORE.INTRA.REPUL.0>
0

>  <SCORE.INTRA.SOLV>
3.54733

>  <SCORE.INTRA.SOLV.lig_0>
-92.3891

>  <SCORE.INTRA.VDW>
-0.238643

>  <SCORE.INTRA.VDW.0>
-2.90606

>  <SCORE.INTRA.norm>
0.0379521

>  <SCORE.RESTR>
0

>  <SCORE.RESTR.CAVITY>
0

>  <SCORE.RESTR.norm>
0

>  <SCORE.SYSTEM>
0

>  <SCORE.SYSTEM.CONST>
0

>  <SCORE.SYSTEM.DIHEDRAL>
0

>  <SCORE.SYSTEM.SOLV>
0

>  <SCORE.SYSTEM.norm>
0

>  <SCORE.heavy>
37

>  <SCORE.norm>
-0.186909

>  <RMSD>
10.499

$$$$
ligand
 OpenBabel02271912133D
libRbt.so/2013.1/901 2013/11/27
 37 40  0  0  0  0  0  0  0  0999 V2000
   -9.2234   27.9267   65.7907 C   0  0  1  0  0  0  0  0  0  0  0  0
   -9.0350   27.4287   67.2518 C   0  0  1  0  0  0  0  0  0  0  0  0
   -7.6756   27.8572   67.8366 C   0  0  0  0  0  0  0  0  0  0  0  0
   -6.5369   27.3219   66.9136 C   0  0  1  0  0  0  0  0  0  0  0  0
   -6.7040   27.8689   65.4587 C   0  0  1  0  0  0  0  0  0  0  0  0
   -5.5320   27.3082   64.5332 C   0  0  1  0  0  0  0  0  0  0  0  0
   -4.1631   27.7542   65.1256 C   0  0  1  0  0  0  0  0  0  0  0  0
   -4.0659   27.2125   66.5836 C   0  0  2  0  0  0  0  0  0  0  0  0
   -1.7386   27.9947   64.2457 C   0  0  0  0  0  0  0  0  0  0  0  0
  -10.1398   27.9048   68.1109 N   0  0  0  0  0  0  0  0  0  0  0  0
   -3.0250   27.2287   64.2822 N   0  0  0  0  0  0  0  0  0  0  0  0
   -9.3638   29.3584   65.7085 O   0  0  0  0  0  0  0  0  0  0  0  0
   -8.0620   27.4674   64.9848 O   0  0  0  0  0  0  0  0  0  0  0  0
   -5.1746   27.6990   67.4151 O   0  0  0  0  0  0  0  0  0  0  0  0
   -5.5697   25.8871   64.5194 O   0  0  0  0  0  0  0  0  0  0  0  0
   -2.8343   27.6144   67.1725 O   0  0  0  0  0  0  0  0  0  0  0  0
   -2.3645   26.7279   68.2177 C   0  0  2  0  0  0  0  0  0  0  0  0
   -1.4007   27.4237   69.2078 C   0  0  1  0  0  0  0  0  0  0  0  0
   -0.0656   27.8205   68.4991 C   0  0  2  0  0  0  0  0  0  0  0  0
    0.5978   26.5685   67.9621 C   0  0  1  0  0  0  0  0  0  0  0  0
   -0.3633   25.8851   66.9439 C   0  0  1  0  0  0  0  0  0  0  0  0
    0.2253   24.5973   66.3707 C   0  0  0  0  0  0  0  0  0  0  0  0
    1.8770   26.9343   67.3073 N   0  0  0  0  0  0  0  0  0  0  0  0
   -1.6557   25.5568   67.6206 O   0  0  0  0  0  0  0  0  0  0  0  0
   -2.0949   28.5669   69.7548 O   0  0  0  0  0  0  0  0  0  0  0  0
    0.8140   28.4466   69.4358 O   0  0  0  0  0  0  0  0  0  0  0  0
    1.3790   24.9042   65.6262 O   0  0  0  0  0  0  0  0  0  0  0  0
  -10.4691   30.1242   66.4028 C   0  0  1  0  0  0  0  0  0  0  0  0
  -10.1261   31.6381   66.3437 C   0  0  1  0  0  0  0  0  0  0  0  0
  -11.2383   32.4647   67.0519 C   0  0  2  0  0  0  0  0  0  0  0  0
  -12.5892   32.2162   66.3366 C   0  0  1  0  0  0  0  0  0  0  0  0
  -12.9657   30.6921   66.3887 C   0  0  0  0  0  0  0  0  0  0  0  0
  -11.8418   29.8925   65.6960 C   0  0  2  0  0  0  0  0  0  0  0  0
  -13.6560   33.0048   66.9987 N   0  0  0  0  0  0  0  0  0  0  0  0
  -12.2002   28.4710   65.7501 N   0  0  0  0  0  0  0  0  0  0  0  0
   -8.8649   31.8716   67.0087 O   0  0  0  0  0  0  0  0  0  0  0  0
  -10.8924   33.8662   66.9884 O   0  0  0  0  0  0  0  0  0  0  0  0
  1  2  1  0  0  0  0
  1 12  1  1  0  0  0
  1 13  1  0  0  0  0
  2  3  1  0  0  0  0
  2 10  1  1  0  0  0
  4  3  1  1  0  0  0
  4  5  1  0  0  0  0
  4 14  1  0  0  0  0
  5  6  1  0  0  0  0
  5 13  1  6  0  0  0
  6  7  1  0  0  0  0
  6 15  1  1  0  0  0
  7  8  1  0  0  0  0
  7 11  1  6  0  0  0
  8 14  1  0  0  0  0
  8 16  1  1  0  0  0
  9 11  1  0  0  0  0
 17 16  1  6  0  0  0
 17 18  1  0  0  0  0
 17 24  1  0  0  0  0
 18 19  1  0  0  0  0
 18 25  1  6  0  0  0
 19 20  1  0  0  0  0
 19 26  1  1  0  0  0
 20 21  1  0  0  0  0
 20 23  1  6  0  0  0
 21 22  1  1  0  0  0
 21 24  1  0  0  0  0
 22 27  1  0  0  0  0
 28 12  1  6  0  0  0
 28 29  1  0  0  0  0
 28 33  1  0  0  0  0
 29 30  1  0  0  0  0
 29 36  1  1  0  0  0
 30 31  1  0  0  0  0
 30 37  1  6  0  0  0
 31 32  1  0  0  0  0
 31 34  1  1  0  0  0
 32 33  1  0  0  0  0
 33 35  1  1  0  0  0
M  END
>  <CHROM.1>
-59.62530869,151.87379695,-153.55578479,167.97157882,-156.68233245,-64.20143328
-5.79336813,28.35867592,66.70256548,2.89730496,-0.28959871,0.67981138

>  <Name>
ligand

>  <RI>
0

>  <Rbt.Current_Directory>
/home/itssahil/PROJECTS/Mol_Feturizer/Test_systems_manuscript/rnas/2g5k

>  <Rbt.Executable>
rbdock ($Id: //depot/dev/client3/rdock/2013.1/src/exe/rbdock.cxx#4 $)

>  <Rbt.Library>
libRbt.so (2013.1, Build901 2013/11/27)

>  <Rbt.Parameter_File>
/export/apps/rDock/src/rDock_2013.1_src/data/scripts/dock_solv.prm

>  <Rbt.Receptor>
prm/pocket_docking_4.prm

>  <SCORE>
-4.58991

>  <SCORE.INTER>
-3.91756

>  <SCORE.INTER.CONST>
1

>  <SCORE.INTER.POLAR>
0

>  <SCORE.INTER.ROT>
6

>  <SCORE.INTER.SOLV>
10.383

>  <SCORE.INTER.VDW>
-13.6727

>  <SCORE.INTER.norm>
-0.10588

>  <SCORE.INTRA>
-0.732256

>  <SCORE.INTRA.DIHEDRAL>
-4.78638

>  <SCORE.INTRA.DIHEDRAL.0>
11.3972

>  <SCORE.INTRA.POLAR>
0

>  <SCORE.INTRA.POLAR.0>
0

>  <SCORE.INTRA.REPUL>
0

>  <SCORE.INTRA.REPUL.0>
0

>  <SCORE.INTRA.SOLV>
4.06825

>  <SCORE.INTRA.SOLV.lig_0>
-92.3891

>  <SCORE.INTRA.VDW>
-0.373194

>  <SCORE.INTRA.VDW.0>
-2.90606

>  <SCORE.INTRA.norm>
-0.0197907

>  <SCORE.RESTR>
0.0599019

>  <SCORE.RESTR.CAVITY>
0.0599019

>  <SCORE.RESTR.norm>
0.00161897

>  <SCORE.SYSTEM>
0

>  <SCORE.SYSTEM.CONST>
0

>  <SCORE.SYSTEM.DIHEDRAL>
0

>  <SCORE.SYSTEM.SOLV>
0

>  <SCORE.SYSTEM.norm>
0

>  <SCORE.heavy>
37

>  <SCORE.norm>
-0.124052

>  <RMSD>
10.509

$$$$
ligand
 OpenBabel02271912133D
libRbt.so/2013.1/901 2013/11/27
 37 40  0  0  0  0  0  0  0  0999 V2000
   -2.2405   27.6938   68.7055 C   0  0  1  0  0  0  0  0  0  0  0  0
   -1.4039   28.9990   68.8287 C   0  0  1  0  0  0  0  0  0  0  0  0
   -0.6300   29.3126   67.5341 C   0  0  0  0  0  0  0  0  0  0  0  0
    0.2824   28.0962   67.1834 C   0  0  1  0  0  0  0  0  0  0  0  0
   -0.5718   26.7985   67.0100 C   0  0  1  0  0  0  0  0  0  0  0  0
    0.3802   25.5689   66.6544 C   0  0  1  0  0  0  0  0  0  0  0  0
    1.1504   25.8900   65.3400 C   0  0  1  0  0  0  0  0  0  0  0  0
    1.9544   27.2071   65.5582 C   0  0  2  0  0  0  0  0  0  0  0  0
    2.5363   24.6186   63.5586 C   0  0  0  0  0  0  0  0  0  0  0  0
   -2.2685   30.1384   69.2022 N   0  0  0  0  0  0  0  0  0  0  0  0
    2.0756   24.7518   64.9774 N   0  0  0  0  0  0  0  0  0  0  0  0
   -3.3442   27.8291   67.7892 O   0  0  0  0  0  0  0  0  0  0  0  0
   -1.3358   26.5952   68.2769 O   0  0  0  0  0  0  0  0  0  0  0  0
    1.0730   28.3220   65.9290 O   0  0  0  0  0  0  0  0  0  0  0  0
    1.3316   25.3824   67.6941 O   0  0  0  0  0  0  0  0  0  0  0  0
    2.6608   27.5500   64.3715 O   0  0  0  0  0  0  0  0  0  0  0  0
    3.7009   28.5388   64.5704 C   0  0  2  0  0  0  0  0  0  0  0  0
    4.1985   29.1627   63.2450 C   0  0  1  0  0  0  0  0  0  0  0  0
    4.9321   28.0967   62.3688 C   0  0  2  0  0  0  0  0  0  0  0  0
    6.1218   27.5606   63.1391 C   0  0  1  0  0  0  0  0  0  0  0  0
    5.6152   26.9075   64.4599 C   0  0  1  0  0  0  0  0  0  0  0  0
    6.7611   26.3599   65.3085 C   0  0  0  0  0  0  0  0  0  0  0  0
    6.8365   26.5642   62.3054 N   0  0  0  0  0  0  0  0  0  0  0  0
    4.8709   27.9239   65.2656 O   0  0  0  0  0  0  0  0  0  0  0  0
    3.0495   29.7291   62.5763 O   0  0  0  0  0  0  0  0  0  0  0  0
    5.3960   28.6989   61.1584 O   0  0  0  0  0  0  0  0  0  0  0  0
    7.3394   25.2572   64.6535 O   0  0  0  0  0  0  0  0  0  0  0  0
   -4.5013   26.8553   67.7355 C   0  0  1  0  0  0  0  0  0  0  0  0
   -5.6295   27.4842   66.8727 C   0  0  1  0  0  0  0  0  0  0  0  0
   -6.8440   26.5144   66.7941 C   0  0  2  0  0  0  0  0  0  0  0  0
   -6.3887   25.1812   66.1511 C   0  0  1  0  0  0  0  0  0  0  0  0
   -5.2525   24.5178   67.0090 C   0  0  0  0  0  0  0  0  0  0  0  0
   -4.0671   25.5033   67.0863 C   0  0  2  0  0  0  0  0  0  0  0  0
   -7.5402   24.2511   66.0644 N   0  0  0  0  0  0  0  0  0  0  0  0
   -3.0114   24.8773   67.8897 N   0  0  0  0  0  0  0  0  0  0  0  0
   -6.0540   28.7294   67.4699 O   0  0  0  0  0  0  0  0  0  0  0  0
   -7.8798   27.1250   65.9926 O   0  0  0  0  0  0  0  0  0  0  0  0
  1  2  1  0  0  0  0
  1 12  1  6  0  0  0
  1 13  1  0  0  0  0
  2  3  1  0  0  0  0
  2 10  1  6  0  0  0
  4  3  1  6  0  0  0
  4  5  1  0  0  0  0
  4 14  1  0  0  0  0
  5  6  1  0  0  0  0
  5 13  1  1  0  0  0
  6  7  1  0  0  0  0
  6 15  1  1  0  0  0
  7  8  1  0  0  0  0
  7 11  1  1  0  0  0
  8 14  1  0  0  0  0
  8 16  1  6  0  0  0
  9 11  1  0  0  0  0
 17 16  1  6  0  0  0
 17 18  1  0  0  0  0
 17 24  1  0  0  0  0
 18 19  1  0  0  0  0
 18 25  1  6  0  0  0
 19 20  1  0  0  0  0
 19 26  1  6  0  0  0
 20 21  1  0  0  0  0
 20 23  1  6  0  0  0
 21 22  1  1  0  0  0
 21 24  1  0  0  0  0
 22 27  1  0  0  0  0
 28 12  1  6  0  0  0
 28 29  1  0  0  0  0
 28 33  1  0  0  0  0
 29 30  1  0  0  0  0
 29 36  1  1  0  0  0
 30 31  1  0  0  0  0
 30 37  1  6  0  0  0
 31 32  1  0  0  0  0
 31 34  1  1  0  0  0
 32 33  1  0  0  0  0
 33 35  1  1  0  0  0
M  END
>  <CHROM.1>
-164.37580057,158.75299063,-164.47985137,167.50645906,-165.04468903,-68.20243169
0.12647880,27.05540035,65.83675828,-3.07977694,-0.32529452,-2.76913625

>  <Name>
ligand

>  <RI>
0

>  <Rbt.Current_Directory>
/home/itssahil/PROJECTS/Mol_Feturizer/Test_systems_manuscript/rnas/2g5k

>  <Rbt.Executable>
rbdock ($Id: //depot/dev/client3/rdock/2013.1/src/exe/rbdock.cxx#4 $)

>  <Rbt.Library>
libRbt.so (2013.1, Build901 2013/11/27)

>  <Rbt.Parameter_File>
/export/apps/rDock/src/rDock_2013.1_src/data/scripts/dock_solv.prm

>  <Rbt.Receptor>
prm/pocket_docking_5.prm

>  <SCORE>
-8.793

>  <SCORE.INTER>
-6.87293

>  <SCORE.INTER.CONST>
1

>  <SCORE.INTER.POLAR>
0

>  <SCORE.INTER.ROT>
6

>  <SCORE.INTER.SOLV>
15.1594

>  <SCORE.INTER.VDW>
-17.2351

>  <SCORE.INTER.norm>
-0.185755

>  <SCORE.INTRA>
-1.92007

>  <SCORE.INTRA.DIHEDRAL>
-6.74338

>  <SCORE.INTRA.DIHEDRAL.0>
11.3972

>  <SCORE.INTRA.POLAR>
0

>  <SCORE.INTRA.POLAR.0>
0

>  <SCORE.INTRA.REPUL>
0

>  <SCORE.INTRA.REPUL.0>
0

>  <SCORE.INTRA.SOLV>
2.30512

>  <SCORE.INTRA.SOLV.lig_0>
-92.3891

>  <SCORE.INTRA.VDW>
0.299057

>  <SCORE.INTRA.VDW.0>
-2.90606

>  <SCORE.INTRA.norm>
-0.0518939

>  <SCORE.RESTR>
0

>  <SCORE.RESTR.CAVITY>
0

>  <SCORE.RESTR.norm>
0

>  <SCORE.SYSTEM>
0

>  <SCORE.SYSTEM.CONST>
0

>  <SCORE.SYSTEM.DIHEDRAL>
0

>  <SCORE.SYSTEM.SOLV>
0

>  <SCORE.SYSTEM.norm>
0

>  <SCORE.heavy>
37

>  <SCORE.norm>
-0.237649

>  <RMSD>
10.523

$$$$
ligand
 OpenBabel02271912133D
libRbt.so/2013.1/901 2013/11/27
 37 40  0  0  0  0  0  0  0  0999 V2000
   -4.9105   31.4898   68.3175 C   0  0  1  0  0  0  0  0  0  0  0  0
   -3.7472   32.4960   68.0877 C   0  0  1  0  0  0  0  0  0  0  0  0
   -2.6076   31.8797   67.2541 C   0  0  0  0  0  0  0  0  0  0  0  0
   -2.0971   30.5908   67.9707 C   0  0  1  0  0  0  0  0  0  0  0  0
   -3.2610   29.5631   68.1513 C   0  0  1  0  0  0  0  0  0  0  0  0
   -2.7178   28.2559   68.8867 C   0  0  1  0  0  0  0  0  0  0  0  0
   -1.5739   27.6343   68.0328 C   0  0  1  0  0  0  0  0  0  0  0  0
   -0.4606   28.7104   67.8562 C   0  0  2  0  0  0  0  0  0  0  0  0
   -1.6804   25.0791   68.4449 C   0  0  0  0  0  0  0  0  0  0  0  0
   -4.2460   33.7312   67.4468 N   0  0  0  0  0  0  0  0  0  0  0  0
   -1.0226   26.3990   68.7058 N   0  0  0  0  0  0  0  0  0  0  0  0
   -5.6302   31.1907   67.1055 O   0  0  0  0  0  0  0  0  0  0  0  0
   -4.3476   30.2492   68.9119 O   0  0  0  0  0  0  0  0  0  0  0  0
   -0.9821   29.9267   67.2189 O   0  0  0  0  0  0  0  0  0  0  0  0
   -2.1851   28.6066   70.1573 O   0  0  0  0  0  0  0  0  0  0  0  0
    0.5998   28.1899   67.0628 O   0  0  0  0  0  0  0  0  0  0  0  0
    1.4896   27.2995   67.7803 C   0  0  2  0  0  0  0  0  0  0  0  0
    2.9766   27.7084   67.6573 C   0  0  1  0  0  0  0  0  0  0  0  0
    3.4785   27.5471   66.1861 C   0  0  2  0  0  0  0  0  0  0  0  0
    3.3294   26.0975   65.7712 C   0  0  1  0  0  0  0  0  0  0  0  0
    1.8269   25.6965   65.8686 C   0  0  1  0  0  0  0  0  0  0  0  0
    1.5942   24.2361   65.4864 C   0  0  0  0  0  0  0  0  0  0  0  0
    3.8244   25.9318   64.3832 N   0  0  0  0  0  0  0  0  0  0  0  0
    1.3449   25.9038   67.2689 O   0  0  0  0  0  0  0  0  0  0  0  0
    3.0911   29.0682   68.1325 O   0  0  0  0  0  0  0  0  0  0  0  0
    4.8570   27.9152   66.1002 O   0  0  0  0  0  0  0  0  0  0  0  0
    2.3640   23.4078   66.3235 O   0  0  0  0  0  0  0  0  0  0  0  0
   -6.5400   32.1834   66.4151 C   0  0  1  0  0  0  0  0  0  0  0  0
   -6.8719   31.6389   64.9988 C   0  0  1  0  0  0  0  0  0  0  0  0
   -7.8053   32.6341   64.2502 C   0  0  2  0  0  0  0  0  0  0  0  0
   -9.1172   32.8037   65.0554 C   0  0  1  0  0  0  0  0  0  0  0  0
   -8.8117   33.3623   66.4913 C   0  0  0  0  0  0  0  0  0  0  0  0
   -7.8728   32.3680   67.2072 C   0  0  2  0  0  0  0  0  0  0  0  0
  -10.0179   33.7450   64.3476 N   0  0  0  0  0  0  0  0  0  0  0  0
   -7.5915   32.8973   68.5461 N   0  0  0  0  0  0  0  0  0  0  0  0
   -5.6488   31.4779   64.2468 O   0  0  0  0  0  0  0  0  0  0  0  0
   -8.0930   32.1077   62.9356 O   0  0  0  0  0  0  0  0  0  0  0  0
  1  2  1  0  0  0  0
  1 12  1  6  0  0  0
  1 13  1  0  0  0  0
  2  3  1  0  0  0  0
  2 10  1  6  0  0  0
  4  3  1  6  0  0  0
  4  5  1  0  0  0  0
  4 14  1  0  0  0  0
  5  6  1  0  0  0  0
  5 13  1  1  0  0  0
  6  7  1  0  0  0  0
  6 15  1  1  0  0  0
  7  8  1  0  0  0  0
  7 11  1  1  0  0  0
  8 14  1  0  0  0  0
  8 16  1  6  0  0  0
  9 11  1  0  0  0  0
 17 16  1  6  0  0  0
 17 18  1  0  0  0  0
 17 24  1  0  0  0  0
 18 19  1  0  0  0  0
 18 25  1  6  0  0  0
 19 20  1  0  0  0  0
 19 26  1  1  0  0  0
 20 21  1  0  0  0  0
 20 23  1  6  0  0  0
 21 22  1  1  0  0  0
 21 24  1  0  0  0  0
 22 27  1  0  0  0  0
 28 12  1  1  0  0  0
 28 29  1  0  0  0  0
 28 33  1  0  0  0  0
 29 30  1  0  0  0  0
 29 36  1  6  0  0  0
 30 31  1  0  0  0  0
 30 37  1  6  0  0  0
 31 32  1  0  0  0  0
 31 34  1  6  0  0  0
 32 33  1  0  0  0  0
 33 35  1  1  0  0  0
M  END
>  <CHROM.1>
-70.93914041,86.90222627,-77.81728857,167.11906095,-126.94472593,57.95390921
-2.35520873,29.42131794,66.89274451,-3.09382143,0.56610739,-1.78713919

>  <Name>
ligand

>  <RI>
0

>  <Rbt.Current_Directory>
/home/itssahil/PROJECTS/Mol_Feturizer/Test_systems_manuscript/rnas/2g5k

>  <Rbt.Executable>
rbdock ($Id: //depot/dev/client3/rdock/2013.1/src/exe/rbdock.cxx#4 $)

>  <Rbt.Library>
libRbt.so (2013.1, Build901 2013/11/27)

>  <Rbt.Parameter_File>
/export/apps/rDock/src/rDock_2013.1_src/data/scripts/dock_solv.prm

>  <Rbt.Receptor>
prm/pocket_docking_8.prm

>  <SCORE>
-6.75193

>  <SCORE.INTER>
-7.76705

>  <SCORE.INTER.CONST>
1

>  <SCORE.INTER.POLAR>
0

>  <SCORE.INTER.ROT>
6

>  <SCORE.INTER.SOLV>
13.2372

>  <SCORE.INTER.VDW>
-17.1904

>  <SCORE.INTER.norm>
-0.20992

>  <SCORE.INTRA>
1.01511

>  <SCORE.INTRA.DIHEDRAL>
-1.07664

>  <SCORE.INTRA.DIHEDRAL.0>
11.3972

>  <SCORE.INTRA.POLAR>
0

>  <SCORE.INTRA.POLAR.0>
0

>  <SCORE.INTRA.REPUL>
0

>  <SCORE.INTRA.REPUL.0>
0

>  <SCORE.INTRA.SOLV>
3.5499

>  <SCORE.INTRA.SOLV.lig_0>
-92.3891

>  <SCORE.INTRA.VDW>
-0.221515

>  <SCORE.INTRA.VDW.0>
-2.90606

>  <SCORE.INTRA.norm>
0.0274355

>  <SCORE.RESTR>
0

>  <SCORE.RESTR.CAVITY>
0

>  <SCORE.RESTR.norm>
0

>  <SCORE.SYSTEM>
0

>  <SCORE.SYSTEM.CONST>
0

>  <SCORE.SYSTEM.DIHEDRAL>
0

>  <SCORE.SYSTEM.SOLV>
0

>  <SCORE.SYSTEM.norm>
0

>  <SCORE.heavy>
37

>  <SCORE.norm>
-0.182485

>  <RMSD>
10.549

$$$$
ligand
 OpenBabel02271912133D
libRbt.so/2013.1/901 2013/11/27
 37 40  0  0  0  0  0  0  0  0999 V2000
   -4.2598   29.4486   64.8463 C   0  0  1  0  0  0  0  0  0  0  0  0
   -3.9158   28.6810   66.1543 C   0  0  1  0  0  0  0  0  0  0  0  0
   -2.4669   28.9385   66.6102 C   0  0  0  0  0  0  0  0  0  0  0  0
   -1.4953   28.5382   65.4564 C   0  0  1  0  0  0  0  0  0  0  0  0
   -1.8143   29.3518   64.1603 C   0  0  1  0  0  0  0  0  0  0  0  0
   -0.8117   28.9257   62.9949 C   0  0  1  0  0  0  0  0  0  0  0  0
    0.6488   29.1986   63.4601 C   0  0  1  0  0  0  0  0  0  0  0  0
    0.8994   28.3924   64.7700 C   0  0  2  0  0  0  0  0  0  0  0  0
    2.9685   29.4647   62.3383 C   0  0  0  0  0  0  0  0  0  0  0  0
   -4.8660   29.0337   67.2304 N   0  0  0  0  0  0  0  0  0  0  0  0
    1.6307   28.7931   62.3857 N   0  0  0  0  0  0  0  0  0  0  0  0
   -4.3161   30.8752   65.0410 O   0  0  0  0  0  0  0  0  0  0  0  0
   -3.2457   29.1003   63.8170 O   0  0  0  0  0  0  0  0  0  0  0  0
   -0.0577   28.7605   65.8216 O   0  0  0  0  0  0  0  0  0  0  0  0
   -0.9435   27.5345   62.7335 O   0  0  0  0  0  0  0  0  0  0  0  0
    2.2206   28.6282   65.2430 O   0  0  0  0  0  0  0  0  0  0  0  0
    2.6238   27.7525   66.3245 C   0  0  2  0  0  0  0  0  0  0  0  0
    4.1480   27.7850   66.5878 C   0  0  1  0  0  0  0  0  0  0  0  0
    4.9348   27.1847   65.3783 C   0  0  2  0  0  0  0  0  0  0  0  0
    4.5001   25.7478   65.1725 C   0  0  1  0  0  0  0  0  0  0  0  0
    2.9701   25.7204   64.8793 C   0  0  1  0  0  0  0  0  0  0  0  0
    2.4466   24.2992   64.6811 C   0  0  0  0  0  0  0  0  0  0  0  0
    5.2586   25.1639   64.0400 N   0  0  0  0  0  0  0  0  0  0  0  0
    2.2320   26.3437   66.0208 O   0  0  0  0  0  0  0  0  0  0  0  0
    4.5109   29.1581   66.8542 O   0  0  0  0  0  0  0  0  0  0  0  0
    6.3377   27.2108   65.6505 O   0  0  0  0  0  0  0  0  0  0  0  0
    2.6325   23.5653   65.8670 O   0  0  0  0  0  0  0  0  0  0  0  0
   -5.4197   31.5634   65.8147 C   0  0  1  0  0  0  0  0  0  0  0  0
   -6.7164   30.7206   65.6701 C   0  0  1  0  0  0  0  0  0  0  0  0
   -7.8813   31.3966   66.4499 C   0  0  2  0  0  0  0  0  0  0  0  0
   -7.4990   31.4976   67.9472 C   0  0  1  0  0  0  0  0  0  0  0  0
   -6.1938   32.3533   68.1240 C   0  0  0  0  0  0  0  0  0  0  0  0
   -5.0584   31.6731   67.3297 C   0  0  2  0  0  0  0  0  0  0  0  0
   -8.6052   32.1341   68.7019 N   0  0  0  0  0  0  0  0  0  0  0  0
   -3.8441   32.4786   67.4988 N   0  0  0  0  0  0  0  0  0  0  0  0
   -7.0734   30.6234   64.2736 O   0  0  0  0  0  0  0  0  0  0  0  0
   -9.0750   30.5974   66.2941 O   0  0  0  0  0  0  0  0  0  0  0  0
  1  2  1  0  0  0  0
  1 12  1  1  0  0  0
  1 13  1  0  0  0  0
  2  3  1  0  0  0  0
  2 10  1  1  0  0  0
  4  3  1  1  0  0  0
  4  5  1  0  0  0  0
  4 14  1  0  0  0  0
  5  6  1  0  0  0  0
  5 13  1  6  0  0  0
  6  7  1  0  0  0  0
  6 15  1  1  0  0  0
  7  8  1  0  0  0  0
  7 11  1  6  0  0  0
  8 14  1  0  0  0  0
  8 16  1  1  0  0  0
  9 11  1  0  0  0  0
 17 16  1  6  0  0  0
 17 18  1  0  0  0  0
 17 24  1  0  0  0  0
 18 19  1  0  0  0  0
 18 25  1  6  0  0  0
 19 20  1  0  0  0  0
 19 26  1  1  0  0  0
 20 21  1  0  0  0  0
 20 23  1  6  0  0  0
 21 22  1  1  0  0  0
 21 24  1  0  0  0  0
 22 27  1  0  0  0  0
 28 12  1  6  0  0  0
 28 29  1  0  0  0  0
 28 33  1  0  0  0  0
 29 30  1  0  0  0  0
 29 36  1  6  0  0  0
 30 31  1  0  0  0  0
 30 37  1  1  0  0  0
 31 32  1  0  0  0  0
 31 34  1  1  0  0  0
 32 33  1  0  0  0  0
 33 35  1  6  0  0  0
M  END
>  <CHROM.1>
-70.77494196,154.11888750,-170.10153745,-29.75945066,165.99178733,62.47064072
-1.16569870,28.85809087,65.45972410,2.87274341,-0.32450967,1.19829515

>  <Name>
ligand

>  <RI>
0

>  <Rbt.Current_Directory>
/home/itssahil/PROJECTS/Mol_Feturizer/Test_systems_manuscript/rnas/2g5k

>  <Rbt.Executable>
rbdock ($Id: //depot/dev/client3/rdock/2013.1/src/exe/rbdock.cxx#4 $)

>  <Rbt.Library>
libRbt.so (2013.1, Build901 2013/11/27)

>  <Rbt.Parameter_File>
/export/apps/rDock/src/rDock_2013.1_src/data/scripts/dock_solv.prm

>  <Rbt.Receptor>
prm/pocket_docking_6.prm

>  <SCORE>
-3.91714

>  <SCORE.INTER>
-4.87516

>  <SCORE.INTER.CONST>
1

>  <SCORE.INTER.POLAR>
0

>  <SCORE.INTER.ROT>
6

>  <SCORE.INTER.SOLV>
12.4781

>  <SCORE.INTER.VDW>
-15.0095

>  <SCORE.INTER.norm>
-0.131761

>  <SCORE.INTRA>
0.958021

>  <SCORE.INTRA.DIHEDRAL>
-5.26921

>  <SCORE.INTRA.DIHEDRAL.0>
11.3972

>  <SCORE.INTRA.POLAR>
0

>  <SCORE.INTRA.POLAR.0>
0

>  <SCORE.INTRA.REPUL>
0

>  <SCORE.INTRA.REPUL.0>
0

>  <SCORE.INTRA.SOLV>
5.31448

>  <SCORE.INTRA.SOLV.lig_0>
-92.3891

>  <SCORE.INTRA.VDW>
0.935384

>  <SCORE.INTRA.VDW.0>
-2.90606

>  <SCORE.INTRA.norm>
0.0258925

>  <SCORE.RESTR>
0

>  <SCORE.RESTR.CAVITY>
0

>  <SCORE.RESTR.norm>
0

>  <SCORE.SYSTEM>
0

>  <SCORE.SYSTEM.CONST>
0

>  <SCORE.SYSTEM.DIHEDRAL>
0

>  <SCORE.SYSTEM.SOLV>
0

>  <SCORE.SYSTEM.norm>
0

>  <SCORE.heavy>
37

>  <SCORE.norm>
-0.105869

>  <RMSD>
10.573

$$$$
ligand
 OpenBabel02271912133D
libRbt.so/2013.1/901 2013/11/27
 37 40  0  0  0  0  0  0  0  0999 V2000
   -6.9719   23.4771   66.9451 C   0  0  1  0  0  0  0  0  0  0  0  0
   -7.4984   22.1595   66.3084 C   0  0  1  0  0  0  0  0  0  0  0  0
   -8.6922   21.5782   67.0897 C   0  0  0  0  0  0  0  0  0  0  0  0
   -8.2624   21.3486   68.5722 C   0  0  1  0  0  0  0  0  0  0  0  0
   -7.7835   22.6878   69.2208 C   0  0  1  0  0  0  0  0  0  0  0  0
   -7.3477   22.4296   70.7335 C   0  0  1  0  0  0  0  0  0  0  0  0
   -8.5623   21.8519   71.5176 C   0  0  1  0  0  0  0  0  0  0  0  0
   -9.0180   20.5408   70.8091 C   0  0  2  0  0  0  0  0  0  0  0  0
   -9.1729   21.8924   74.0347 C   0  0  0  0  0  0  0  0  0  0  0  0
   -7.8638   22.3752   64.8924 N   0  0  0  0  0  0  0  0  0  0  0  0
   -8.1834   21.5800   72.9547 N   0  0  0  0  0  0  0  0  0  0  0  0
   -7.9045   24.5672   66.8107 O   0  0  0  0  0  0  0  0  0  0  0  0
   -6.6713   23.2188   68.3776 O   0  0  0  0  0  0  0  0  0  0  0  0
   -9.3740   20.7821   69.4047 O   0  0  0  0  0  0  0  0  0  0  0  0
   -6.2962   21.4736   70.7733 O   0  0  0  0  0  0  0  0  0  0  0  0
  -10.1421   19.9870   71.4833 O   0  0  0  0  0  0  0  0  0  0  0  0
   -9.9592   18.6119   71.9014 C   0  0  2  0  0  0  0  0  0  0  0  0
  -10.9925   18.1636   72.9620 C   0  0  1  0  0  0  0  0  0  0  0  0
  -10.7846   18.9376   74.3037 C   0  0  2  0  0  0  0  0  0  0  0  0
   -9.3897   18.6555   74.8237 C   0  0  1  0  0  0  0  0  0  0  0  0
   -8.3503   19.1340   73.7661 C   0  0  1  0  0  0  0  0  0  0  0  0
   -6.9131   18.8635   74.2070 C   0  0  0  0  0  0  0  0  0  0  0  0
   -9.1923   19.3690   76.1086 N   0  0  0  0  0  0  0  0  0  0  0  0
   -8.5920   18.4240   72.4724 O   0  0  0  0  0  0  0  0  0  0  0  0
  -12.3070   18.3767   72.4010 O   0  0  0  0  0  0  0  0  0  0  0  0
  -11.7390   18.4962   75.2718 O   0  0  0  0  0  0  0  0  0  0  0  0
   -6.9071   17.8376   75.1697 O   0  0  0  0  0  0  0  0  0  0  0  0
   -7.5533   25.8819   66.1485 C   0  0  1  0  0  0  0  0  0  0  0  0
   -6.6844   26.7090   67.1353 C   0  0  1  0  0  0  0  0  0  0  0  0
   -6.3028   28.0746   66.4938 C   0  0  2  0  0  0  0  0  0  0  0  0
   -5.5008   27.8188   65.1940 C   0  0  1  0  0  0  0  0  0  0  0  0
   -6.3600   26.9904   64.1729 C   0  0  0  0  0  0  0  0  0  0  0  0
   -6.7396   25.6494   64.8364 C   0  0  2  0  0  0  0  0  0  0  0  0
   -5.1254   29.1139   64.5773 N   0  0  0  0  0  0  0  0  0  0  0  0
   -7.5424   24.8828   63.8775 N   0  0  0  0  0  0  0  0  0  0  0  0
   -7.4302   26.9467   68.3496 O   0  0  0  0  0  0  0  0  0  0  0  0
   -5.5016   28.8255   67.4330 O   0  0  0  0  0  0  0  0  0  0  0  0
  1  2  1  0  0  0  0
  1 12  1  1  0  0  0
  1 13  1  0  0  0  0
  2  3  1  0  0  0  0
  2 10  1  6  0  0  0
  4  3  1  6  0  0  0
  4  5  1  0  0  0  0
  4 14  1  0  0  0  0
  5  6  1  0  0  0  0
  5 13  1  6  0  0  0
  6  7  1  0  0  0  0
  6 15  1  6  0  0  0
  7  8  1  0  0  0  0
  7 11  1  1  0  0  0
  8 14  1  0  0  0  0
  8 16  1  1  0  0  0
  9 11  1  0  0  0  0
 17 16  1  1  0  0  0
 17 18  1  0  0  0  0
 17 24  1  0  0  0  0
 18 19  1  0  0  0  0
 18 25  1  6  0  0  0
 19 20  1  0  0  0  0
 19 26  1  1  0  0  0
 20 21  1  0  0  0  0
 20 23  1  1  0  0  0
 21 22  1  1  0  0  0
 21 24  1  0  0  0  0
 22 27  1  0  0  0  0
 28 12  1  1  0  0  0
 28 29  1  0  0  0  0
 28 33  1  0  0  0  0
 29 30  1  0  0  0  0
 29 36  1  1  0  0  0
 30 31  1  0  0  0  0
 30 37  1  1  0  0  0
 31 32  1  0  0  0  0
 31 34  1  6  0  0  0
 32 33  1  0  0  0  0
 33 35  1  6  0  0  0
M  END
>  <CHROM.1>
-123.40000313,140.41060371,-124.89599698,-76.10341135,163.51358453,22.00529873
-8.11396718,22.33908396,69.82750524,1.03371638,-1.03069807,-1.29249918

>  <Name>
ligand

>  <RI>
0

>  <Rbt.Current_Directory>
/home/itssahil/PROJECTS/Mol_Feturizer/Test_systems_manuscript/rnas/2g5k

>  <Rbt.Executable>
rbdock ($Id: //depot/dev/client3/rdock/2013.1/src/exe/rbdock.cxx#4 $)

>  <Rbt.Library>
libRbt.so (2013.1, Build901 2013/11/27)

>  <Rbt.Parameter_File>
/export/apps/rDock/src/rDock_2013.1_src/data/scripts/dock_solv.prm

>  <Rbt.Receptor>
prm/blind_docking_80.prm

>  <SCORE>
31.4729

>  <SCORE.INTER>
8.72989

>  <SCORE.INTER.CONST>
1

>  <SCORE.INTER.POLAR>
0

>  <SCORE.INTER.ROT>
6

>  <SCORE.INTER.SOLV>
18.7438

>  <SCORE.INTER.VDW>
-8.028

>  <SCORE.INTER.norm>
0.235943

>  <SCORE.INTRA>
11.227

>  <SCORE.INTRA.DIHEDRAL>
9.86302

>  <SCORE.INTRA.DIHEDRAL.0>
11.3972

>  <SCORE.INTRA.POLAR>
0

>  <SCORE.INTRA.POLAR.0>
0

>  <SCORE.INTRA.REPUL>
0

>  <SCORE.INTRA.REPUL.0>
0

>  <SCORE.INTRA.SOLV>
6.72682

>  <SCORE.INTRA.SOLV.lig_0>
-92.3891

>  <SCORE.INTRA.VDW>
2.93203

>  <SCORE.INTRA.VDW.0>
-2.90606

>  <SCORE.INTRA.norm>
0.303431

>  <SCORE.RESTR>
11.5161

>  <SCORE.RESTR.CAVITY>
11.5161

>  <SCORE.RESTR.norm>
0.311246

>  <SCORE.SYSTEM>
0

>  <SCORE.SYSTEM.CONST>
0

>  <SCORE.SYSTEM.DIHEDRAL>
0

>  <SCORE.SYSTEM.SOLV>
0

>  <SCORE.SYSTEM.norm>
0

>  <SCORE.heavy>
37

>  <SCORE.norm>
0.85062

>  <RMSD>
10.612

$$$$
ligand
 OpenBabel02271912133D
libRbt.so/2013.1/901 2013/11/27
 37 40  0  0  0  0  0  0  0  0999 V2000
   -8.8934   30.1398   67.1070 C   0  0  1  0  0  0  0  0  0  0  0  0
   -8.1677   30.5487   68.4202 C   0  0  1  0  0  0  0  0  0  0  0  0
   -6.7296   31.0345   68.1574 C   0  0  0  0  0  0  0  0  0  0  0  0
   -5.9443   29.9102   67.4128 C   0  0  1  0  0  0  0  0  0  0  0  0
   -6.6520   29.5414   66.0686 C   0  0  1  0  0  0  0  0  0  0  0  0
   -5.8344   28.3903   65.3261 C   0  0  1  0  0  0  0  0  0  0  0  0
   -4.3861   28.8933   65.0556 C   0  0  1  0  0  0  0  0  0  0  0  0
   -3.7430   29.2782   66.4219 C   0  0  2  0  0  0  0  0  0  0  0  0
   -2.8264   28.1752   63.1159 C   0  0  0  0  0  0  0  0  0  0  0  0
   -8.9388   31.5837   69.1408 N   0  0  0  0  0  0  0  0  0  0  0  0
   -3.5745   27.8225   64.3645 N   0  0  0  0  0  0  0  0  0  0  0  0
   -9.1700   31.2678   66.2541 O   0  0  0  0  0  0  0  0  0  0  0  0
   -8.0524   29.1406   66.3974 O   0  0  0  0  0  0  0  0  0  0  0  0
   -4.5282   30.3064   67.1173 O   0  0  0  0  0  0  0  0  0  0  0  0
   -5.7585   27.2414   66.1600 O   0  0  0  0  0  0  0  0  0  0  0  0
   -2.4206   29.7633   66.2195 O   0  0  0  0  0  0  0  0  0  0  0  0
   -1.7839   30.2570   67.4237 C   0  0  2  0  0  0  0  0  0  0  0  0
   -0.2536   30.4238   67.2694 C   0  0  1  0  0  0  0  0  0  0  0  0
    0.4417   29.0365   67.0841 C   0  0  2  0  0  0  0  0  0  0  0  0
    0.1590   28.1778   68.3001 C   0  0  1  0  0  0  0  0  0  0  0  0
   -1.3814   27.9878   68.4368 C   0  0  1  0  0  0  0  0  0  0  0  0
   -1.7524   27.1479   69.6576 C   0  0  0  0  0  0  0  0  0  0  0  0
    0.8342   26.8671   68.1419 N   0  0  0  0  0  0  0  0  0  0  0  0
   -2.0399   29.3245   68.5618 O   0  0  0  0  0  0  0  0  0  0  0  0
   -0.0265   31.3078   66.1491 O   0  0  0  0  0  0  0  0  0  0  0  0
    1.8545   29.2141   66.9595 O   0  0  0  0  0  0  0  0  0  0  0  0
   -1.3632   27.8282   70.8260 O   0  0  0  0  0  0  0  0  0  0  0  0
  -10.0645   32.4175   66.6641 C   0  0  1  0  0  0  0  0  0  0  0  0
   -9.8438   33.5878   65.6669 C   0  0  1  0  0  0  0  0  0  0  0  0
  -10.7445   34.7961   66.0551 C   0  0  2  0  0  0  0  0  0  0  0  0
  -12.2291   34.3577   66.0115 C   0  0  1  0  0  0  0  0  0  0  0  0
  -12.4833   33.1792   67.0183 C   0  0  0  0  0  0  0  0  0  0  0  0
  -11.5686   32.0002   66.6236 C   0  0  2  0  0  0  0  0  0  0  0  0
  -13.0978   35.5036   66.3730 N   0  0  0  0  0  0  0  0  0  0  0  0
  -11.8109   30.9049   67.5689 N   0  0  0  0  0  0  0  0  0  0  0  0
   -8.4586   33.9968   65.7046 O   0  0  0  0  0  0  0  0  0  0  0  0
  -10.5156   35.8712   65.1172 O   0  0  0  0  0  0  0  0  0  0  0  0
  1  2  1  0  0  0  0
  1 12  1  6  0  0  0
  1 13  1  0  0  0  0
  2  3  1  0  0  0  0
  2 10  1  6  0  0  0
  4  3  1  6  0  0  0
  4  5  1  0  0  0  0
  4 14  1  0  0  0  0
  5  6  1  0  0  0  0
  5 13  1  1  0  0  0
  6  7  1  0  0  0  0
  6 15  1  1  0  0  0
  7  8  1  0  0  0  0
  7 11  1  1  0  0  0
  8 14  1  0  0  0  0
  8 16  1  6  0  0  0
  9 11  1  0  0  0  0
 17 16  1  6  0  0  0
 17 18  1  0  0  0  0
 17 24  1  0  0  0  0
 18 19  1  0  0  0  0
 18 25  1  6  0  0  0
 19 20  1  0  0  0  0
 19 26  1  1  0  0  0
 20 21  1  0  0  0  0
 20 23  1  6  0  0  0
 21 22  1  1  0  0  0
 21 24  1  0  0  0  0
 22 27  1  0  0  0  0
 28 12  1  6  0  0  0
 28 29  1  0  0  0  0
 28 33  1  0  0  0  0
 29 30  1  0  0  0  0
 29 36  1  1  0  0  0
 30 31  1  0  0  0  0
 30 37  1  6  0  0  0
 31 32  1  0  0  0  0
 31 34  1  1  0  0  0
 32 33  1  0  0  0  0
 33 35  1  1  0  0  0
M  END
>  <CHROM.1>
-61.99217011,129.02915416,174.85146389,165.90610313,164.74237274,63.91495245
-5.66321877,30.45813665,66.86945614,2.73061971,0.15607148,-0.55393149

>  <Name>
ligand

>  <RI>
0

>  <Rbt.Current_Directory>
/home/itssahil/PROJECTS/Mol_Feturizer/Test_systems_manuscript/rnas/2g5k

>  <Rbt.Executable>
rbdock ($Id: //depot/dev/client3/rdock/2013.1/src/exe/rbdock.cxx#4 $)

>  <Rbt.Library>
libRbt.so (2013.1, Build901 2013/11/27)

>  <Rbt.Parameter_File>
/export/apps/rDock/src/rDock_2013.1_src/data/scripts/dock_solv.prm

>  <Rbt.Receptor>
prm/pocket_docking_5.prm

>  <SCORE>
-5.01099

>  <SCORE.INTER>
-2.88211

>  <SCORE.INTER.CONST>
1

>  <SCORE.INTER.POLAR>
0

>  <SCORE.INTER.ROT>
6

>  <SCORE.INTER.SOLV>
11.8348

>  <SCORE.INTER.VDW>
-13.4664

>  <SCORE.INTER.norm>
-0.0778949

>  <SCORE.INTRA>
-2.12985

>  <SCORE.INTRA.DIHEDRAL>
-7.99559

>  <SCORE.INTRA.DIHEDRAL.0>
11.3972

>  <SCORE.INTRA.POLAR>
0

>  <SCORE.INTRA.POLAR.0>
0

>  <SCORE.INTRA.REPUL>
0

>  <SCORE.INTRA.REPUL.0>
0

>  <SCORE.INTRA.SOLV>
2.99693

>  <SCORE.INTRA.SOLV.lig_0>
-92.3891

>  <SCORE.INTRA.VDW>
0.369483

>  <SCORE.INTRA.VDW.0>
-2.90606

>  <SCORE.INTRA.norm>
-0.0575634

>  <SCORE.RESTR>
0.000969929

>  <SCORE.RESTR.CAVITY>
0.000969929

>  <SCORE.RESTR.norm>
2.62143e-05

>  <SCORE.SYSTEM>
0

>  <SCORE.SYSTEM.CONST>
0

>  <SCORE.SYSTEM.DIHEDRAL>
0

>  <SCORE.SYSTEM.SOLV>
0

>  <SCORE.SYSTEM.norm>
0

>  <SCORE.heavy>
37

>  <SCORE.norm>
-0.135432

>  <RMSD>
10.616

$$$$
ligand
 OpenBabel02271912133D
libRbt.so/2013.1/901 2013/11/27
 37 40  0  0  0  0  0  0  0  0999 V2000
   -9.6088   19.3888   69.5613 C   0  0  1  0  0  0  0  0  0  0  0  0
   -9.4691   19.5362   68.0194 C   0  0  1  0  0  0  0  0  0  0  0  0
   -8.3258   20.4936   67.6326 C   0  0  0  0  0  0  0  0  0  0  0  0
   -8.5775   21.8792   68.3050 C   0  0  1  0  0  0  0  0  0  0  0  0
   -8.6647   21.7300   69.8587 C   0  0  1  0  0  0  0  0  0  0  0  0
   -8.9240   23.1563   70.5244 C   0  0  1  0  0  0  0  0  0  0  0  0
   -7.7593   24.1139   70.1367 C   0  0  1  0  0  0  0  0  0  0  0  0
   -7.6972   24.1977   68.5818 C   0  0  2  0  0  0  0  0  0  0  0  0
   -9.0717   26.3467   70.1918 C   0  0  0  0  0  0  0  0  0  0  0  0
   -9.2731   18.2152   67.3856 N   0  0  0  0  0  0  0  0  0  0  0  0
   -7.9772   25.4826   70.7384 N   0  0  0  0  0  0  0  0  0  0  0  0
   -8.4960   18.6901   70.1528 O   0  0  0  0  0  0  0  0  0  0  0  0
   -9.7488   20.7456   70.1518 O   0  0  0  0  0  0  0  0  0  0  0  0
   -7.5031   22.8731   67.9774 O   0  0  0  0  0  0  0  0  0  0  0  0
  -10.1369   23.7052   70.0256 O   0  0  0  0  0  0  0  0  0  0  0  0
   -6.6306   25.0503   68.1812 O   0  0  0  0  0  0  0  0  0  0  0  0
   -5.7176   24.4453   67.2329 C   0  0  2  0  0  0  0  0  0  0  0  0
   -4.7351   25.4651   66.6098 C   0  0  1  0  0  0  0  0  0  0  0  0
   -5.4956   26.4937   65.7120 C   0  0  2  0  0  0  0  0  0  0  0  0
   -6.2034   25.7473   64.5994 C   0  0  1  0  0  0  0  0  0  0  0  0
   -7.2128   24.7411   65.2292 C   0  0  1  0  0  0  0  0  0  0  0  0
   -7.9547   23.9293   64.1691 C   0  0  0  0  0  0  0  0  0  0  0  0
   -6.9095   26.7188   63.7297 N   0  0  0  0  0  0  0  0  0  0  0  0
   -6.4802   23.7948   66.1258 O   0  0  0  0  0  0  0  0  0  0  0  0
   -4.0261   26.1009   67.6966 O   0  0  0  0  0  0  0  0  0  0  0  0
   -4.5670   27.4148   65.1355 O   0  0  0  0  0  0  0  0  0  0  0  0
   -8.8633   23.0601   64.8002 O   0  0  0  0  0  0  0  0  0  0  0  0
   -8.3791   18.4238   71.6379 C   0  0  1  0  0  0  0  0  0  0  0  0
   -8.3594   19.7889   72.3788 C   0  0  1  0  0  0  0  0  0  0  0  0
   -8.2360   19.5609   73.9133 C   0  0  2  0  0  0  0  0  0  0  0  0
   -9.4471   18.7288   74.4023 C   0  0  1  0  0  0  0  0  0  0  0  0
   -9.4868   17.3373   73.6746 C   0  0  0  0  0  0  0  0  0  0  0  0
   -9.5928   17.5890   72.1554 C   0  0  2  0  0  0  0  0  0  0  0  0
   -9.3438   18.5111   75.8653 N   0  0  0  0  0  0  0  0  0  0  0  0
   -9.6280   16.2855   71.4835 N   0  0  0  0  0  0  0  0  0  0  0  0
   -7.2313   20.5675   71.9223 O   0  0  0  0  0  0  0  0  0  0  0  0
   -8.2136   20.8441   74.5772 O   0  0  0  0  0  0  0  0  0  0  0  0
  1  2  1  0  0  0  0
  1 12  1  1  0  0  0
  1 13  1  0  0  0  0
  2  3  1  0  0  0  0
  2 10  1  6  0  0  0
  4  3  1  6  0  0  0
  4  5  1  0  0  0  0
  4 14  1  0  0  0  0
  5  6  1  0  0  0  0
  5 13  1  6  0  0  0
  6  7  1  0  0  0  0
  6 15  1  6  0  0  0
  7  8  1  0  0  0  0
  7 11  1  1  0  0  0
  8 14  1  0  0  0  0
  8 16  1  1  0  0  0
  9 11  1  0  0  0  0
 17 16  1  1  0  0  0
 17 18  1  0  0  0  0
 17 24  1  0  0  0  0
 18 19  1  0  0  0  0
 18 25  1  1  0  0  0
 19 20  1  0  0  0  0
 19 26  1  6  0  0  0
 20 21  1  0  0  0  0
 20 23  1  6  0  0  0
 21 22  1  6  0  0  0
 21 24  1  0  0  0  0
 22 27  1  0  0  0  0
 28 12  1  6  0  0  0
 28 29  1  0  0  0  0
 28 33  1  0  0  0  0
 29 30  1  0  0  0  0
 29 36  1  6  0  0  0
 30 31  1  0  0  0  0
 30 37  1  1  0  0  0
 31 32  1  0  0  0  0
 31 34  1  1  0  0  0
 32 33  1  0  0  0  0
 33 35  1  6  0  0  0
M  END
>  <CHROM.1>
179.44394808,-70.78545586,126.98979572,-60.35477316,168.98532131,-178.99318338
-7.92775916,22.23874075,69.18231291,2.42097940,1.19329851,1.54641130

>  <Name>
ligand

>  <RI>
0

>  <Rbt.Current_Directory>
/home/itssahil/PROJECTS/Mol_Feturizer/Test_systems_manuscript/rnas/2g5k

>  <Rbt.Executable>
rbdock ($Id: //depot/dev/client3/rdock/2013.1/src/exe/rbdock.cxx#4 $)

>  <Rbt.Library>
libRbt.so (2013.1, Build901 2013/11/27)

>  <Rbt.Parameter_File>
/export/apps/rDock/src/rDock_2013.1_src/data/scripts/dock_solv.prm

>  <Rbt.Receptor>
prm/blind_docking_80.prm

>  <SCORE>
35.8319

>  <SCORE.INTER>
25.2255

>  <SCORE.INTER.CONST>
1

>  <SCORE.INTER.POLAR>
0

>  <SCORE.INTER.ROT>
6

>  <SCORE.INTER.SOLV>
25.1047

>  <SCORE.INTER.VDW>
0.848749

>  <SCORE.INTER.norm>
0.68177

>  <SCORE.INTRA>
3.60709

>  <SCORE.INTRA.DIHEDRAL>
-3.76058

>  <SCORE.INTRA.DIHEDRAL.0>
11.3972

>  <SCORE.INTRA.POLAR>
0

>  <SCORE.INTRA.POLAR.0>
0

>  <SCORE.INTRA.REPUL>
0

>  <SCORE.INTRA.REPUL.0>
0

>  <SCORE.INTRA.SOLV>
0.0713885

>  <SCORE.INTRA.SOLV.lig_0>
-92.3891

>  <SCORE.INTRA.VDW>
5.45169

>  <SCORE.INTRA.VDW.0>
-2.90606

>  <SCORE.INTRA.norm>
0.097489

>  <SCORE.RESTR>
6.99936

>  <SCORE.RESTR.CAVITY>
6.99936

>  <SCORE.RESTR.norm>
0.189172

>  <SCORE.SYSTEM>
0

>  <SCORE.SYSTEM.CONST>
0

>  <SCORE.SYSTEM.DIHEDRAL>
0

>  <SCORE.SYSTEM.SOLV>
0

>  <SCORE.SYSTEM.norm>
0

>  <SCORE.heavy>
37

>  <SCORE.norm>
0.968431

>  <RMSD>
10.631

$$$$
ligand
 OpenBabel02271912133D
libRbt.so/2013.1/901 2013/11/27
 37 40  0  0  0  0  0  0  0  0999 V2000
   -8.7343   19.1839   70.4329 C   0  0  1  0  0  0  0  0  0  0  0  0
   -7.3036   19.6453   70.8310 C   0  0  1  0  0  0  0  0  0  0  0  0
   -7.0639   21.1310   70.5011 C   0  0  0  0  0  0  0  0  0  0  0  0
   -7.3200   21.3583   68.9786 C   0  0  1  0  0  0  0  0  0  0  0  0
   -8.7771   20.9408   68.5966 C   0  0  1  0  0  0  0  0  0  0  0  0
   -9.0160   21.1795   67.0375 C   0  0  1  0  0  0  0  0  0  0  0  0
   -8.7815   22.6844   66.7151 C   0  0  1  0  0  0  0  0  0  0  0  0
   -7.3301   23.0527   67.1467 C   0  0  2  0  0  0  0  0  0  0  0  0
   -7.7948   22.9276   64.3323 C   0  0  0  0  0  0  0  0  0  0  0  0
   -7.0536   19.3880   72.2651 N   0  0  0  0  0  0  0  0  0  0  0  0
   -8.9849   22.9477   65.2412 N   0  0  0  0  0  0  0  0  0  0  0  0
   -9.7566   19.7830   71.2529 O   0  0  0  0  0  0  0  0  0  0  0  0
   -8.9522   19.5137   69.0001 O   0  0  0  0  0  0  0  0  0  0  0  0
   -7.1078   22.7869   68.5740 O   0  0  0  0  0  0  0  0  0  0  0  0
   -8.0840   20.4124   66.2864 O   0  0  0  0  0  0  0  0  0  0  0  0
   -7.0781   24.4290   66.8871 O   0  0  0  0  0  0  0  0  0  0  0  0
   -5.9783   24.6640   65.9737 C   0  0  2  0  0  0  0  0  0  0  0  0
   -4.7934   25.4047   66.6377 C   0  0  1  0  0  0  0  0  0  0  0  0
   -5.1989   26.8611   67.0337 C   0  0  2  0  0  0  0  0  0  0  0  0
   -5.6139   27.6133   65.7855 C   0  0  1  0  0  0  0  0  0  0  0  0
   -6.8255   26.8812   65.1345 C   0  0  1  0  0  0  0  0  0  0  0  0
   -7.2923   27.5675   63.8522 C   0  0  0  0  0  0  0  0  0  0  0  0
   -5.9790   29.0035   66.1499 N   0  0  0  0  0  0  0  0  0  0  0  0
   -6.4408   25.4737   64.8071 O   0  0  0  0  0  0  0  0  0  0  0  0
   -4.3775   24.6196   67.7772 O   0  0  0  0  0  0  0  0  0  0  0  0
   -4.0853   27.5301   67.6300 O   0  0  0  0  0  0  0  0  0  0  0  0
   -8.5902   27.1269   63.5347 O   0  0  0  0  0  0  0  0  0  0  0  0
   -9.7510   19.7173   72.7647 C   0  0  1  0  0  0  0  0  0  0  0  0
   -9.1706   18.3412   73.1917 C   0  0  1  0  0  0  0  0  0  0  0  0
   -9.1502   18.2295   74.7438 C   0  0  2  0  0  0  0  0  0  0  0  0
   -8.2662   19.3615   75.3229 C   0  0  1  0  0  0  0  0  0  0  0  0
   -8.8357   20.7668   74.9134 C   0  0  0  0  0  0  0  0  0  0  0  0
   -8.8615   20.8476   73.3722 C   0  0  2  0  0  0  0  0  0  0  0  0
   -8.2335   19.2608   76.8019 N   0  0  0  0  0  0  0  0  0  0  0  0
   -9.3955   22.1617   72.9981 N   0  0  0  0  0  0  0  0  0  0  0  0
   -9.9930   17.2838   72.6504 O   0  0  0  0  0  0  0  0  0  0  0  0
   -8.6129   16.9402   75.1136 O   0  0  0  0  0  0  0  0  0  0  0  0
  1  2  1  0  0  0  0
  1 12  1  1  0  0  0
  1 13  1  0  0  0  0
  2  3  1  0  0  0  0
  2 10  1  1  0  0  0
  4  3  1  1  0  0  0
  4  5  1  0  0  0  0
  4 14  1  0  0  0  0
  5  6  1  0  0  0  0
  5 13  1  6  0  0  0
  6  7  1  0  0  0  0
  6 15  1  6  0  0  0
  7  8  1  0  0  0  0
  7 11  1  6  0  0  0
  8 14  1  0  0  0  0
  8 16  1  1  0  0  0
  9 11  1  0  0  0  0
 17 16  1  1  0  0  0
 17 18  1  0  0  0  0
 17 24  1  0  0  0  0
 18 19  1  0  0  0  0
 18 25  1  1  0  0  0
 19 20  1  0  0  0  0
 19 26  1  6  0  0  0
 20 21  1  0  0  0  0
 20 23  1  1  0  0  0
 21 22  1  6  0  0  0
 21 24  1  0  0  0  0
 22 27  1  0  0  0  0
 28 12  1  6  0  0  0
 28 29  1  0  0  0  0
 28 33  1  0  0  0  0
 29 30  1  0  0  0  0
 29 36  1  6  0  0  0
 30 31  1  0  0  0  0
 30 37  1  6  0  0  0
 31 32  1  0  0  0  0
 31 34  1  1  0  0  0
 32 33  1  0  0  0  0
 33 35  1  1  0  0  0
M  END
>  <CHROM.1>
-53.78668145,-94.43289788,-120.17029731,-35.15678357,-115.50370845,-162.59837829
-7.68562440,22.36079583,69.15157201,1.99296600,1.02462771,1.92867852

>  <Name>
ligand

>  <RI>
0

>  <Rbt.Current_Directory>
/home/itssahil/PROJECTS/Mol_Feturizer/Test_systems_manuscript/rnas/2g5k

>  <Rbt.Executable>
rbdock ($Id: //depot/dev/client3/rdock/2013.1/src/exe/rbdock.cxx#4 $)

>  <Rbt.Library>
libRbt.so (2013.1, Build901 2013/11/27)

>  <Rbt.Parameter_File>
/export/apps/rDock/src/rDock_2013.1_src/data/scripts/dock_solv.prm

>  <Rbt.Receptor>
prm/blind_docking_80.prm

>  <SCORE>
8.83641

>  <SCORE.INTER>
-8.02441

>  <SCORE.INTER.CONST>
1

>  <SCORE.INTER.POLAR>
0

>  <SCORE.INTER.ROT>
6

>  <SCORE.INTER.SOLV>
15.918

>  <SCORE.INTER.VDW>
-18.2556

>  <SCORE.INTER.norm>
-0.216876

>  <SCORE.INTRA>
13.5926

>  <SCORE.INTRA.DIHEDRAL>
7.4794

>  <SCORE.INTRA.DIHEDRAL.0>
11.3972

>  <SCORE.INTRA.POLAR>
0

>  <SCORE.INTRA.POLAR.0>
0

>  <SCORE.INTRA.REPUL>
0

>  <SCORE.INTRA.REPUL.0>
0

>  <SCORE.INTRA.SOLV>
6.83772

>  <SCORE.INTRA.SOLV.lig_0>
-92.3891

>  <SCORE.INTRA.VDW>
6.43406

>  <SCORE.INTRA.VDW.0>
-2.90606

>  <SCORE.INTRA.norm>
0.367368

>  <SCORE.RESTR>
3.26821

>  <SCORE.RESTR.CAVITY>
3.26821

>  <SCORE.RESTR.norm>
0.08833

>  <SCORE.SYSTEM>
0

>  <SCORE.SYSTEM.CONST>
0

>  <SCORE.SYSTEM.DIHEDRAL>
0

>  <SCORE.SYSTEM.SOLV>
0

>  <SCORE.SYSTEM.norm>
0

>  <SCORE.heavy>
37

>  <SCORE.norm>
0.238822

>  <RMSD>
10.666

$$$$
ligand
 OpenBabel02271912133D
libRbt.so/2013.1/901 2013/11/27
 37 40  0  0  0  0  0  0  0  0999 V2000
   -2.2325   26.2340   67.8830 C   0  0  1  0  0  0  0  0  0  0  0  0
   -1.2008   27.1119   68.6469 C   0  0  1  0  0  0  0  0  0  0  0  0
   -0.2045   27.7949   67.6907 C   0  0  0  0  0  0  0  0  0  0  0  0
    0.5143   26.6995   66.8429 C   0  0  1  0  0  0  0  0  0  0  0  0
   -0.5260   25.8551   66.0378 C   0  0  1  0  0  0  0  0  0  0  0  0
    0.2295   24.7417   65.1809 C   0  0  1  0  0  0  0  0  0  0  0  0
    1.2265   25.4409   64.2109 C   0  0  1  0  0  0  0  0  0  0  0  0
    2.2150   26.2932   65.0625 C   0  0  2  0  0  0  0  0  0  0  0  0
    2.7705   24.8763   62.2090 C   0  0  0  0  0  0  0  0  0  0  0  0
   -1.8902   28.1196   69.4802 N   0  0  0  0  0  0  0  0  0  0  0  0
    1.9735   24.4155   63.3903 N   0  0  0  0  0  0  0  0  0  0  0  0
   -3.1498   27.0180   67.0956 O   0  0  0  0  0  0  0  0  0  0  0  0
   -1.4888   25.2773   67.0223 O   0  0  0  0  0  0  0  0  0  0  0  0
    1.5052   27.2849   65.8811 O   0  0  0  0  0  0  0  0  0  0  0  0
    0.9716   23.8920   66.0462 O   0  0  0  0  0  0  0  0  0  0  0  0
    3.1354   26.9677   64.2123 O   0  0  0  0  0  0  0  0  0  0  0  0
    4.3965   27.2907   64.8483 C   0  0  2  0  0  0  0  0  0  0  0  0
    5.3967   27.9751   63.8868 C   0  0  1  0  0  0  0  0  0  0  0  0
    5.8480   26.9909   62.7600 C   0  0  2  0  0  0  0  0  0  0  0  0
    6.5177   25.7892   63.3951 C   0  0  1  0  0  0  0  0  0  0  0  0
    5.4993   25.0851   64.3411 C   0  0  1  0  0  0  0  0  0  0  0  0
    6.1069   23.8709   65.0408 C   0  0  0  0  0  0  0  0  0  0  0  0
    6.9690   24.8605   62.3308 N   0  0  0  0  0  0  0  0  0  0  0  0
    5.0361   26.0519   65.3837 O   0  0  0  0  0  0  0  0  0  0  0  0
    4.7506   29.1558   63.3607 O   0  0  0  0  0  0  0  0  0  0  0  0
    6.7824   27.6394   61.8943 O   0  0  0  0  0  0  0  0  0  0  0  0
    5.1334   23.2707   65.8602 O   0  0  0  0  0  0  0  0  0  0  0  0
   -4.2291   26.4076   66.2281 C   0  0  1  0  0  0  0  0  0  0  0  0
   -5.1147   25.4950   67.1200 C   0  0  1  0  0  0  0  0  0  0  0  0
   -6.2387   24.8420   66.2643 C   0  0  2  0  0  0  0  0  0  0  0  0
   -7.1148   25.9565   65.6408 C   0  0  1  0  0  0  0  0  0  0  0  0
   -6.2451   26.8908   64.7253 C   0  0  0  0  0  0  0  0  0  0  0  0
   -5.1291   27.5131   65.5911 C   0  0  2  0  0  0  0  0  0  0  0  0
   -8.1942   25.3456   64.8284 N   0  0  0  0  0  0  0  0  0  0  0  0
   -4.3212   28.3826   64.7291 N   0  0  0  0  0  0  0  0  0  0  0  0
   -4.2986   24.4558   67.7043 O   0  0  0  0  0  0  0  0  0  0  0  0
   -7.0427   23.9948   67.1151 O   0  0  0  0  0  0  0  0  0  0  0  0
  1  2  1  0  0  0  0
  1 12  1  6  0  0  0
  1 13  1  0  0  0  0
  2  3  1  0  0  0  0
  2 10  1  6  0  0  0
  4  3  1  6  0  0  0
  4  5  1  0  0  0  0
  4 14  1  0  0  0  0
  5  6  1  0  0  0  0
  5 13  1  1  0  0  0
  6  7  1  0  0  0  0
  6 15  1  1  0  0  0
  7  8  1  0  0  0  0
  7 11  1  1  0  0  0
  8 14  1  0  0  0  0
  8 16  1  6  0  0  0
  9 11  1  0  0  0  0
 17 16  1  6  0  0  0
 17 18  1  0  0  0  0
 17 24  1  0  0  0  0
 18 19  1  0  0  0  0
 18 25  1  6  0  0  0
 19 20  1  0  0  0  0
 19 26  1  6  0  0  0
 20 21  1  0  0  0  0
 20 23  1  6  0  0  0
 21 22  1  1  0  0  0
 21 24  1  0  0  0  0
 22 27  1  0  0  0  0
 28 12  1  1  0  0  0
 28 29  1  0  0  0  0
 28 33  1  0  0  0  0
 29 30  1  0  0  0  0
 29 36  1  6  0  0  0
 30 31  1  0  0  0  0
 30 37  1  1  0  0  0
 31 32  1  0  0  0  0
 31 34  1  6  0  0  0
 32 33  1  0  0  0  0
 33 35  1  6  0  0  0
M  END
>  <CHROM.1>
178.33705032,167.65618850,-154.46820235,56.10885429,177.84038500,-179.07018695
0.27157386,26.07481593,65.40179459,-3.04985703,0.23202206,-0.32759307

>  <Name>
ligand

>  <RI>
0

>  <Rbt.Current_Directory>
/home/itssahil/PROJECTS/Mol_Feturizer/Test_systems_manuscript/rnas/2g5k

>  <Rbt.Executable>
rbdock ($Id: //depot/dev/client3/rdock/2013.1/src/exe/rbdock.cxx#4 $)

>  <Rbt.Library>
libRbt.so (2013.1, Build901 2013/11/27)

>  <Rbt.Parameter_File>
/export/apps/rDock/src/rDock_2013.1_src/data/scripts/dock_solv.prm

>  <Rbt.Receptor>
prm/pocket_docking_5.prm

>  <SCORE>
-10.2695

>  <SCORE.INTER>
-5.86423

>  <SCORE.INTER.CONST>
1

>  <SCORE.INTER.POLAR>
0

>  <SCORE.INTER.ROT>
6

>  <SCORE.INTER.SOLV>
16.9994

>  <SCORE.INTER.VDW>
-17.176

>  <SCORE.INTER.norm>
-0.158493

>  <SCORE.INTRA>
-4.40528

>  <SCORE.INTRA.DIHEDRAL>
-8.37563

>  <SCORE.INTRA.DIHEDRAL.0>
11.3972

>  <SCORE.INTRA.POLAR>
0

>  <SCORE.INTRA.POLAR.0>
0

>  <SCORE.INTRA.REPUL>
0.0132335

>  <SCORE.INTRA.REPUL.0>
0

>  <SCORE.INTRA.SOLV>
-0.893085

>  <SCORE.INTRA.SOLV.lig_0>
-92.3891

>  <SCORE.INTRA.VDW>
0.162904

>  <SCORE.INTRA.VDW.0>
-2.90606

>  <SCORE.INTRA.norm>
-0.119062

>  <SCORE.RESTR>
0

>  <SCORE.RESTR.CAVITY>
0

>  <SCORE.RESTR.norm>
0

>  <SCORE.SYSTEM>
0

>  <SCORE.SYSTEM.CONST>
0

>  <SCORE.SYSTEM.DIHEDRAL>
0

>  <SCORE.SYSTEM.SOLV>
0

>  <SCORE.SYSTEM.norm>
0

>  <SCORE.heavy>
37

>  <SCORE.norm>
-0.277555

>  <RMSD>
10.696

$$$$
ligand
 OpenBabel02271912133D
libRbt.so/2013.1/901 2013/11/27
 37 40  0  0  0  0  0  0  0  0999 V2000
   -8.7197   19.1827   70.5563 C   0  0  1  0  0  0  0  0  0  0  0  0
   -7.3104   19.7274   70.9249 C   0  0  1  0  0  0  0  0  0  0  0  0
   -7.1303   21.1969   70.4989 C   0  0  0  0  0  0  0  0  0  0  0  0
   -7.3898   21.3137   68.9645 C   0  0  1  0  0  0  0  0  0  0  0  0
   -8.8273   20.8129   68.6091 C   0  0  1  0  0  0  0  0  0  0  0  0
   -9.0698   20.9393   67.0375 C   0  0  1  0  0  0  0  0  0  0  0  0
   -8.8958   22.4283   66.6176 C   0  0  1  0  0  0  0  0  0  0  0  0
   -7.4622   22.8832   67.0258 C   0  0  2  0  0  0  0  0  0  0  0  0
   -9.1037   23.9638   64.5416 C   0  0  0  0  0  0  0  0  0  0  0  0
   -7.0555   19.5746   72.3730 N   0  0  0  0  0  0  0  0  0  0  0  0
   -9.1042   22.5863   65.1295 N   0  0  0  0  0  0  0  0  0  0  0  0
   -9.7686   19.7917   71.3343 O   0  0  0  0  0  0  0  0  0  0  0  0
   -8.9455   19.4092   69.1047 O   0  0  0  0  0  0  0  0  0  0  0  0
   -7.2346   22.7204   68.4677 O   0  0  0  0  0  0  0  0  0  0  0  0
   -8.1045   20.1637   66.3391 O   0  0  0  0  0  0  0  0  0  0  0  0
   -7.2656   24.2487   66.6771 O   0  0  0  0  0  0  0  0  0  0  0  0
   -6.0606   24.4930   65.9107 C   0  0  2  0  0  0  0  0  0  0  0  0
   -4.8578   24.8988   66.7951 C   0  0  1  0  0  0  0  0  0  0  0  0
   -5.1019   26.2908   67.4623 C   0  0  2  0  0  0  0  0  0  0  0  0
   -5.2892   27.3310   66.3766 C   0  0  1  0  0  0  0  0  0  0  0  0
   -6.5184   26.9351   65.5049 C   0  0  1  0  0  0  0  0  0  0  0  0
   -6.7623   27.9262   64.3685 C   0  0  0  0  0  0  0  0  0  0  0  0
   -5.4993   28.6592   67.0017 N   0  0  0  0  0  0  0  0  0  0  0  0
   -6.2950   25.5798   64.9136 O   0  0  0  0  0  0  0  0  0  0  0  0
   -4.6634   23.8481   67.7679 O   0  0  0  0  0  0  0  0  0  0  0  0
   -3.9724   26.6513   68.2607 O   0  0  0  0  0  0  0  0  0  0  0  0
   -7.8770   27.5088   63.6184 O   0  0  0  0  0  0  0  0  0  0  0  0
   -9.7739   19.8110   72.8474 C   0  0  1  0  0  0  0  0  0  0  0  0
   -9.1021   18.5057   73.3550 C   0  0  1  0  0  0  0  0  0  0  0  0
   -9.0898   18.4826   74.9110 C   0  0  2  0  0  0  0  0  0  0  0  0
   -8.2941   19.7052   75.4309 C   0  0  1  0  0  0  0  0  0  0  0  0
   -8.9574   21.0414   74.9392 C   0  0  0  0  0  0  0  0  0  0  0  0
   -8.9729   21.0340   73.3957 C   0  0  2  0  0  0  0  0  0  0  0  0
   -8.2696   19.6898   76.9133 N   0  0  0  0  0  0  0  0  0  0  0  0
   -9.5947   22.2838   72.9447 N   0  0  0  0  0  0  0  0  0  0  0  0
   -9.8419   17.3638   72.8690 O   0  0  0  0  0  0  0  0  0  0  0  0
   -8.4665   17.2575   75.3563 O   0  0  0  0  0  0  0  0  0  0  0  0
  1  2  1  0  0  0  0
  1 12  1  1  0  0  0
  1 13  1  0  0  0  0
  2  3  1  0  0  0  0
  2 10  1  1  0  0  0
  4  3  1  1  0  0  0
  4  5  1  0  0  0  0
  4 14  1  0  0  0  0
  5  6  1  0  0  0  0
  5 13  1  6  0  0  0
  6  7  1  0  0  0  0
  6 15  1  6  0  0  0
  7  8  1  0  0  0  0
  7 11  1  6  0  0  0
  8 14  1  0  0  0  0
  8 16  1  1  0  0  0
  9 11  1  0  0  0  0
 17 16  1  1  0  0  0
 17 18  1  0  0  0  0
 17 24  1  0  0  0  0
 18 19  1  0  0  0  0
 18 25  1  1  0  0  0
 19 20  1  0  0  0  0
 19 26  1  6  0  0  0
 20 21  1  0  0  0  0
 20 23  1  1  0  0  0
 21 22  1  6  0  0  0
 21 24  1  0  0  0  0
 22 27  1  0  0  0  0
 28 12  1  6  0  0  0
 28 29  1  0  0  0  0
 28 33  1  0  0  0  0
 29 30  1  0  0  0  0
 29 36  1  1  0  0  0
 30 31  1  0  0  0  0
 30 37  1  6  0  0  0
 31 32  1  0  0  0  0
 31 34  1  1  0  0  0
 32 33  1  0  0  0  0
 33 35  1  1  0  0  0
M  END
>  <CHROM.1>
-54.51526415,174.48780131,-128.67992116,-33.02540314,-94.16401638,179.68982464
-7.68770478,22.33908894,69.28297014,1.99573832,1.00599540,1.90997404

>  <Name>
ligand

>  <RI>
0

>  <Rbt.Current_Directory>
/home/itssahil/PROJECTS/Mol_Feturizer/Test_systems_manuscript/rnas/2g5k

>  <Rbt.Executable>
rbdock ($Id: //depot/dev/client3/rdock/2013.1/src/exe/rbdock.cxx#4 $)

>  <Rbt.Library>
libRbt.so (2013.1, Build901 2013/11/27)

>  <Rbt.Parameter_File>
/export/apps/rDock/src/rDock_2013.1_src/data/scripts/dock_solv.prm

>  <Rbt.Receptor>
prm/blind_docking_80.prm

>  <SCORE>
6.52812

>  <SCORE.INTER>
-4.51119

>  <SCORE.INTER.CONST>
1

>  <SCORE.INTER.POLAR>
0

>  <SCORE.INTER.ROT>
6

>  <SCORE.INTER.SOLV>
18.3263

>  <SCORE.INTER.VDW>
-16.7162

>  <SCORE.INTER.norm>
-0.121924

>  <SCORE.INTRA>
8.69445

>  <SCORE.INTRA.DIHEDRAL>
3.00913

>  <SCORE.INTRA.DIHEDRAL.0>
11.3972

>  <SCORE.INTRA.POLAR>
0

>  <SCORE.INTRA.POLAR.0>
0

>  <SCORE.INTRA.REPUL>
0

>  <SCORE.INTRA.REPUL.0>
0

>  <SCORE.INTRA.SOLV>
6.55515

>  <SCORE.INTRA.SOLV.lig_0>
-92.3891

>  <SCORE.INTRA.VDW>
3.91231

>  <SCORE.INTRA.VDW.0>
-2.90606

>  <SCORE.INTRA.norm>
0.234985

>  <SCORE.RESTR>
2.34486

>  <SCORE.RESTR.CAVITY>
2.34486

>  <SCORE.RESTR.norm>
0.0633746

>  <SCORE.SYSTEM>
0

>  <SCORE.SYSTEM.CONST>
0

>  <SCORE.SYSTEM.DIHEDRAL>
0

>  <SCORE.SYSTEM.SOLV>
0

>  <SCORE.SYSTEM.norm>
0

>  <SCORE.heavy>
37

>  <SCORE.norm>
0.176436

>  <RMSD>
10.715

$$$$
ligand
 OpenBabel02271912133D
libRbt.so/2013.1/901 2013/11/27
 37 40  0  0  0  0  0  0  0  0999 V2000
   -8.7361   19.1940   70.6094 C   0  0  1  0  0  0  0  0  0  0  0  0
   -7.3221   19.7348   70.9650 C   0  0  1  0  0  0  0  0  0  0  0  0
   -7.1390   21.2012   70.5297 C   0  0  0  0  0  0  0  0  0  0  0  0
   -7.4090   21.3108   68.9966 C   0  0  1  0  0  0  0  0  0  0  0  0
   -8.8511   20.8140   68.6542 C   0  0  1  0  0  0  0  0  0  0  0  0
   -9.1044   20.9329   67.0837 C   0  0  1  0  0  0  0  0  0  0  0  0
   -8.9273   22.4189   66.6545 C   0  0  1  0  0  0  0  0  0  0  0  0
   -7.4890   22.8701   67.0500 C   0  0  2  0  0  0  0  0  0  0  0  0
   -9.0976   23.9400   64.5646 C   0  0  0  0  0  0  0  0  0  0  0  0
   -7.0574   19.5888   72.4120 N   0  0  0  0  0  0  0  0  0  0  0  0
   -9.1458   22.5697   65.1671 N   0  0  0  0  0  0  0  0  0  0  0  0
   -9.7769   19.8114   71.3916 O   0  0  0  0  0  0  0  0  0  0  0  0
   -8.9715   19.4135   69.1583 O   0  0  0  0  0  0  0  0  0  0  0  0
   -7.2517   22.7141   68.4910 O   0  0  0  0  0  0  0  0  0  0  0  0
   -8.1473   20.1496   66.3827 O   0  0  0  0  0  0  0  0  0  0  0  0
   -7.2894   24.2329   66.6924 O   0  0  0  0  0  0  0  0  0  0  0  0
   -6.0862   24.4688   65.9204 C   0  0  2  0  0  0  0  0  0  0  0  0
   -4.8770   24.8679   66.7990 C   0  0  1  0  0  0  0  0  0  0  0  0
   -5.1093   26.2621   67.4658 C   0  0  2  0  0  0  0  0  0  0  0  0
   -5.2949   27.3024   66.3799 C   0  0  1  0  0  0  0  0  0  0  0  0
   -6.5305   26.9133   65.5140 C   0  0  1  0  0  0  0  0  0  0  0  0
   -6.7733   27.9048   64.3777 C   0  0  0  0  0  0  0  0  0  0  0  0
   -5.4939   28.6325   67.0045 N   0  0  0  0  0  0  0  0  0  0  0  0
   -6.3183   25.5561   64.9232 O   0  0  0  0  0  0  0  0  0  0  0  0
   -4.6849   23.8171   67.7721 O   0  0  0  0  0  0  0  0  0  0  0  0
   -3.9741   26.6164   68.2588 O   0  0  0  0  0  0  0  0  0  0  0  0
   -7.8765   27.4782   63.6158 O   0  0  0  0  0  0  0  0  0  0  0  0
   -9.7758   19.8311   72.9047 C   0  0  1  0  0  0  0  0  0  0  0  0
   -9.1247   18.5145   73.4100 C   0  0  1  0  0  0  0  0  0  0  0  0
   -9.1067   18.4915   74.9659 C   0  0  2  0  0  0  0  0  0  0  0  0
   -8.2877   19.7002   75.4823 C   0  0  1  0  0  0  0  0  0  0  0  0
   -8.9297   21.0476   74.9929 C   0  0  0  0  0  0  0  0  0  0  0  0
   -8.9516   21.0401   73.4495 C   0  0  2  0  0  0  0  0  0  0  0  0
   -8.2576   19.6847   76.9646 N   0  0  0  0  0  0  0  0  0  0  0  0
   -9.5533   22.3004   73.0007 N   0  0  0  0  0  0  0  0  0  0  0  0
   -9.8862   17.3855   72.9273 O   0  0  0  0  0  0  0  0  0  0  0  0
   -8.5029   17.2558   75.4090 O   0  0  0  0  0  0  0  0  0  0  0  0
  1  2  1  0  0  0  0
  1 12  1  1  0  0  0
  1 13  1  0  0  0  0
  2  3  1  0  0  0  0
  2 10  1  1  0  0  0
  4  3  1  1  0  0  0
  4  5  1  0  0  0  0
  4 14  1  0  0  0  0
  5  6  1  0  0  0  0
  5 13  1  6  0  0  0
  6  7  1  0  0  0  0
  6 15  1  6  0  0  0
  7  8  1  0  0  0  0
  7 11  1  6  0  0  0
  8 14  1  0  0  0  0
  8 16  1  1  0  0  0
  9 11  1  0  0  0  0
 17 16  1  1  0  0  0
 17 18  1  0  0  0  0
 17 24  1  0  0  0  0
 18 19  1  0  0  0  0
 18 25  1  1  0  0  0
 19 20  1  0  0  0  0
 19 26  1  6  0  0  0
 20 21  1  0  0  0  0
 20 23  1  1  0  0  0
 21 22  1  6  0  0  0
 21 24  1  0  0  0  0
 22 27  1  0  0  0  0
 28 12  1  6  0  0  0
 28 29  1  0  0  0  0
 28 33  1  0  0  0  0
 29 30  1  0  0  0  0
 29 36  1  1  0  0  0
 30 31  1  0  0  0  0
 30 37  1  6  0  0  0
 31 32  1  0  0  0  0
 31 34  1  1  0  0  0
 32 33  1  0  0  0  0
 33 35  1  1  0  0  0
M  END
>  <CHROM.1>
-54.92438616,176.54280211,-128.90002270,-33.56400599,-93.82537299,178.43998846
-7.70052200,22.33155871,69.31506648,1.98972757,0.99965043,1.91117874

>  <Name>
ligand

>  <RI>
0

>  <Rbt.Current_Directory>
/home/itssahil/PROJECTS/Mol_Feturizer/Test_systems_manuscript/rnas/2g5k

>  <Rbt.Executable>
rbdock ($Id: //depot/dev/client3/rdock/2013.1/src/exe/rbdock.cxx#4 $)

>  <Rbt.Library>
libRbt.so (2013.1, Build901 2013/11/27)

>  <Rbt.Parameter_File>
/export/apps/rDock/src/rDock_2013.1_src/data/scripts/dock_solv.prm

>  <Rbt.Receptor>
prm/blind_docking_80.prm

>  <SCORE>
6.31134

>  <SCORE.INTER>
-4.69304

>  <SCORE.INTER.CONST>
1

>  <SCORE.INTER.POLAR>
0

>  <SCORE.INTER.ROT>
6

>  <SCORE.INTER.SOLV>
18.2533

>  <SCORE.INTER.VDW>
-16.8131

>  <SCORE.INTER.norm>
-0.126839

>  <SCORE.INTRA>
8.60436

>  <SCORE.INTRA.DIHEDRAL>
2.80045

>  <SCORE.INTRA.DIHEDRAL.0>
11.3972

>  <SCORE.INTRA.POLAR>
0

>  <SCORE.INTRA.POLAR.0>
0

>  <SCORE.INTRA.REPUL>
0

>  <SCORE.INTRA.REPUL.0>
0

>  <SCORE.INTRA.SOLV>
6.55433

>  <SCORE.INTRA.SOLV.lig_0>
-92.3891

>  <SCORE.INTRA.VDW>
3.92697

>  <SCORE.INTRA.VDW.0>
-2.90606

>  <SCORE.INTRA.norm>
0.23255

>  <SCORE.RESTR>
2.40003

>  <SCORE.RESTR.CAVITY>
2.40003

>  <SCORE.RESTR.norm>
0.0648655

>  <SCORE.SYSTEM>
0

>  <SCORE.SYSTEM.CONST>
0

>  <SCORE.SYSTEM.DIHEDRAL>
0

>  <SCORE.SYSTEM.SOLV>
0

>  <SCORE.SYSTEM.norm>
0

>  <SCORE.heavy>
37

>  <SCORE.norm>
0.170577

>  <RMSD>
10.737

$$$$
ligand
 OpenBabel02271912133D
libRbt.so/2013.1/901 2013/11/27
 37 40  0  0  0  0  0  0  0  0999 V2000
   -8.7408   19.1989   70.6607 C   0  0  1  0  0  0  0  0  0  0  0  0
   -7.3334   19.7514   71.0250 C   0  0  1  0  0  0  0  0  0  0  0  0
   -7.1554   21.2154   70.5796 C   0  0  0  0  0  0  0  0  0  0  0  0
   -7.4117   21.3110   69.0433 C   0  0  1  0  0  0  0  0  0  0  0  0
   -8.8474   20.8025   68.6915 C   0  0  1  0  0  0  0  0  0  0  0  0
   -9.0867   20.9072   67.1178 C   0  0  1  0  0  0  0  0  0  0  0  0
   -8.9148   22.3908   66.6783 C   0  0  1  0  0  0  0  0  0  0  0  0
   -7.4830   22.8541   67.0834 C   0  0  2  0  0  0  0  0  0  0  0  0
   -9.0814   23.8946   64.5756 C   0  0  0  0  0  0  0  0  0  0  0  0
   -7.0814   19.6187   72.4756 N   0  0  0  0  0  0  0  0  0  0  0  0
   -9.1202   22.5283   65.1877 N   0  0  0  0  0  0  0  0  0  0  0  0
   -9.7926   19.8162   71.4281 O   0  0  0  0  0  0  0  0  0  0  0  0
   -8.9639   19.4054   69.2057 O   0  0  0  0  0  0  0  0  0  0  0  0
   -7.2582   22.7112   68.5279 O   0  0  0  0  0  0  0  0  0  0  0  0
   -8.1183   20.1243   66.4320 O   0  0  0  0  0  0  0  0  0  0  0  0
   -7.2884   24.2152   66.7168 O   0  0  0  0  0  0  0  0  0  0  0  0
   -6.0929   24.4484   65.9322 C   0  0  2  0  0  0  0  0  0  0  0  0
   -4.8750   24.8501   66.7975 C   0  0  1  0  0  0  0  0  0  0  0  0
   -5.1005   26.2465   67.4621 C   0  0  2  0  0  0  0  0  0  0  0  0
   -5.2967   27.2833   66.3746 C   0  0  1  0  0  0  0  0  0  0  0  0
   -6.5408   26.8916   65.5223 C   0  0  1  0  0  0  0  0  0  0  0  0
   -6.7946   27.8795   64.3852 C   0  0  0  0  0  0  0  0  0  0  0  0
   -5.4893   28.6154   66.9969 N   0  0  0  0  0  0  0  0  0  0  0  0
   -6.3346   25.5325   64.9338 O   0  0  0  0  0  0  0  0  0  0  0  0
   -4.6734   23.8024   67.7720 O   0  0  0  0  0  0  0  0  0  0  0  0
   -3.9575   26.6031   68.2427 O   0  0  0  0  0  0  0  0  0  0  0  0
   -7.9132   27.4577   63.6435 O   0  0  0  0  0  0  0  0  0  0  0  0
   -9.8022   19.8543   72.9409 C   0  0  1  0  0  0  0  0  0  0  0  0
   -9.1549   18.5438   73.4667 C   0  0  1  0  0  0  0  0  0  0  0  0
   -9.1478   18.5398   75.0229 C   0  0  2  0  0  0  0  0  0  0  0  0
   -8.3323   19.7546   75.5303 C   0  0  1  0  0  0  0  0  0  0  0  0
   -8.9706   21.0960   75.0200 C   0  0  0  0  0  0  0  0  0  0  0  0
   -8.9816   21.0698   73.4767 C   0  0  2  0  0  0  0  0  0  0  0  0
   -8.3127   19.7571   77.0129 N   0  0  0  0  0  0  0  0  0  0  0  0
   -9.5801   22.3245   73.0084 N   0  0  0  0  0  0  0  0  0  0  0  0
   -9.9131   17.4091   72.9924 O   0  0  0  0  0  0  0  0  0  0  0  0
   -8.5473   17.3095   75.4853 O   0  0  0  0  0  0  0  0  0  0  0  0
  1  2  1  0  0  0  0
  1 12  1  1  0  0  0
  1 13  1  0  0  0  0
  2  3  1  0  0  0  0
  2 10  1  1  0  0  0
  4  3  1  1  0  0  0
  4  5  1  0  0  0  0
  4 14  1  0  0  0  0
  5  6  1  0  0  0  0
  5 13  1  6  0  0  0
  6  7  1  0  0  0  0
  6 15  1  6  0  0  0
  7  8  1  0  0  0  0
  7 11  1  6  0  0  0
  8 14  1  0  0  0  0
  8 16  1  1  0  0  0
  9 11  1  0  0  0  0
 17 16  1  1  0  0  0
 17 18  1  0  0  0  0
 17 24  1  0  0  0  0
 18 19  1  0  0  0  0
 18 25  1  1  0  0  0
 19 20  1  0  0  0  0
 19 26  1  6  0  0  0
 20 21  1  0  0  0  0
 20 23  1  1  0  0  0
 21 22  1  6  0  0  0
 21 24  1  0  0  0  0
 22 27  1  0  0  0  0
 28 12  1  6  0  0  0
 28 29  1  0  0  0  0
 28 33  1  0  0  0  0
 29 30  1  0  0  0  0
 29 36  1  1  0  0  0
 30 31  1  0  0  0  0
 30 37  1  6  0  0  0
 31 32  1  0  0  0  0
 31 34  1  1  0  0  0
 32 33  1  0  0  0  0
 33 35  1  6  0  0  0
M  END
>  <CHROM.1>
-54.59703007,176.24977678,-127.77585858,-34.09963308,-93.68038485,179.00854589
-7.71059238,22.33248960,69.34504018,1.99881096,1.00374535,1.89564166

>  <Name>
ligand

>  <RI>
0

>  <Rbt.Current_Directory>
/home/itssahil/PROJECTS/Mol_Feturizer/Test_systems_manuscript/rnas/2g5k

>  <Rbt.Executable>
rbdock ($Id: //depot/dev/client3/rdock/2013.1/src/exe/rbdock.cxx#4 $)

>  <Rbt.Library>
libRbt.so (2013.1, Build901 2013/11/27)

>  <Rbt.Parameter_File>
/export/apps/rDock/src/rDock_2013.1_src/data/scripts/dock_solv.prm

>  <Rbt.Receptor>
prm/blind_docking_80.prm

>  <SCORE>
6.39573

>  <SCORE.INTER>
-4.63582

>  <SCORE.INTER.CONST>
1

>  <SCORE.INTER.POLAR>
0

>  <SCORE.INTER.ROT>
6

>  <SCORE.INTER.SOLV>
18.034

>  <SCORE.INTER.VDW>
-16.7019

>  <SCORE.INTER.norm>
-0.125292

>  <SCORE.INTRA>
8.66165

>  <SCORE.INTRA.DIHEDRAL>
2.77717

>  <SCORE.INTRA.DIHEDRAL.0>
11.3972

>  <SCORE.INTRA.POLAR>
0

>  <SCORE.INTRA.POLAR.0>
0

>  <SCORE.INTRA.REPUL>
0

>  <SCORE.INTRA.REPUL.0>
0

>  <SCORE.INTRA.SOLV>
6.59734

>  <SCORE.INTRA.SOLV.lig_0>
-92.3891

>  <SCORE.INTRA.VDW>
3.9744

>  <SCORE.INTRA.VDW.0>
-2.90606

>  <SCORE.INTRA.norm>
0.234099

>  <SCORE.RESTR>
2.3699

>  <SCORE.RESTR.CAVITY>
2.3699

>  <SCORE.RESTR.norm>
0.0640513

>  <SCORE.SYSTEM>
0

>  <SCORE.SYSTEM.CONST>
0

>  <SCORE.SYSTEM.DIHEDRAL>
0

>  <SCORE.SYSTEM.SOLV>
0

>  <SCORE.SYSTEM.norm>
0

>  <SCORE.heavy>
37

>  <SCORE.norm>
0.172858

>  <RMSD>
10.759

$$$$
ligand
 OpenBabel02271912133D
libRbt.so/2013.1/901 2013/11/27
 37 40  0  0  0  0  0  0  0  0999 V2000
   -8.7474   19.1533   70.6363 C   0  0  1  0  0  0  0  0  0  0  0  0
   -7.3357   19.6944   71.0010 C   0  0  1  0  0  0  0  0  0  0  0  0
   -7.1504   21.1611   70.5677 C   0  0  0  0  0  0  0  0  0  0  0  0
   -7.4110   21.2716   69.0331 C   0  0  1  0  0  0  0  0  0  0  0  0
   -8.8508   20.7746   68.6815 C   0  0  1  0  0  0  0  0  0  0  0  0
   -9.0945   20.8944   67.1095 C   0  0  1  0  0  0  0  0  0  0  0  0
   -8.9152   22.3807   66.6823 C   0  0  1  0  0  0  0  0  0  0  0  0
   -7.4795   22.8320   67.0869 C   0  0  2  0  0  0  0  0  0  0  0  0
   -9.1129   23.9066   64.5983 C   0  0  0  0  0  0  0  0  0  0  0  0
   -7.0799   19.5476   72.4495 N   0  0  0  0  0  0  0  0  0  0  0  0
   -9.1246   22.5324   65.1937 N   0  0  0  0  0  0  0  0  0  0  0  0
   -9.7932   19.7700   71.4125 O   0  0  0  0  0  0  0  0  0  0  0  0
   -8.9739   19.3737   69.1840 O   0  0  0  0  0  0  0  0  0  0  0  0
   -7.2510   22.6753   68.5293 O   0  0  0  0  0  0  0  0  0  0  0  0
   -8.1328   20.1118   66.4139 O   0  0  0  0  0  0  0  0  0  0  0  0
   -7.2780   24.1952   66.7315 O   0  0  0  0  0  0  0  0  0  0  0  0
   -6.0856   24.4277   65.9420 C   0  0  2  0  0  0  0  0  0  0  0  0
   -4.8665   24.8384   66.8012 C   0  0  1  0  0  0  0  0  0  0  0  0
   -5.0946   26.2379   67.4583 C   0  0  2  0  0  0  0  0  0  0  0  0
   -5.2974   27.2677   66.3654 C   0  0  1  0  0  0  0  0  0  0  0  0
   -6.5428   26.8670   65.5191 C   0  0  1  0  0  0  0  0  0  0  0  0
   -6.8032   27.8473   64.3770 C   0  0  0  0  0  0  0  0  0  0  0  0
   -5.4925   28.6028   66.9805 N   0  0  0  0  0  0  0  0  0  0  0  0
   -6.3339   25.5051   64.9380 O   0  0  0  0  0  0  0  0  0  0  0  0
   -4.6586   23.7970   67.7813 O   0  0  0  0  0  0  0  0  0  0  0  0
   -3.9504   26.6028   68.2334 O   0  0  0  0  0  0  0  0  0  0  0  0
   -7.9326   27.4266   63.6512 O   0  0  0  0  0  0  0  0  0  0  0  0
   -9.7921   19.8048   72.9253 C   0  0  1  0  0  0  0  0  0  0  0  0
   -9.1259   18.5008   73.4435 C   0  0  1  0  0  0  0  0  0  0  0  0
   -9.1074   18.4935   74.9996 C   0  0  2  0  0  0  0  0  0  0  0  0
   -8.3023   19.7166   75.5038 C   0  0  1  0  0  0  0  0  0  0  0  0
   -8.9597   21.0516   75.0011 C   0  0  0  0  0  0  0  0  0  0  0  0
   -8.9817   21.0285   73.4579 C   0  0  2  0  0  0  0  0  0  0  0  0
   -8.2718   19.7162   76.9861 N   0  0  0  0  0  0  0  0  0  0  0  0
   -9.5980   22.2773   72.9966 N   0  0  0  0  0  0  0  0  0  0  0  0
   -9.8745   17.3585   72.9723 O   0  0  0  0  0  0  0  0  0  0  0  0
   -8.4895   17.2693   75.4549 O   0  0  0  0  0  0  0  0  0  0  0  0
  1  2  1  0  0  0  0
  1 12  1  1  0  0  0
  1 13  1  0  0  0  0
  2  3  1  0  0  0  0
  2 10  1  1  0  0  0
  4  3  1  1  0  0  0
  4  5  1  0  0  0  0
  4 14  1  0  0  0  0
  5  6  1  0  0  0  0
  5 13  1  6  0  0  0
  6  7  1  0  0  0  0
  6 15  1  6  0  0  0
  7  8  1  0  0  0  0
  7 11  1  6  0  0  0
  8 14  1  0  0  0  0
  8 16  1  1  0  0  0
  9 11  1  0  0  0  0
 17 16  1  1  0  0  0
 17 18  1  0  0  0  0
 17 24  1  0  0  0  0
 18 19  1  0  0  0  0
 18 25  1  1  0  0  0
 19 20  1  0  0  0  0
 19 26  1  6  0  0  0
 20 21  1  0  0  0  0
 20 23  1  1  0  0  0
 21 22  1  6  0  0  0
 21 24  1  0  0  0  0
 22 27  1  0  0  0  0
 28 12  1  6  0  0  0
 28 29  1  0  0  0  0
 28 33  1  0  0  0  0
 29 30  1  0  0  0  0
 29 36  1  1  0  0  0
 30 31  1  0  0  0  0
 30 37  1  6  0  0  0
 31 32  1  0  0  0  0
 31 34  1  1  0  0  0
 32 33  1  0  0  0  0
 33 35  1  1  0  0  0
M  END
>  <CHROM.1>
-54.08591703,174.77432254,-127.61208674,-33.37716034,-94.71914068,179.73262795
-7.70526469,22.30289982,69.33581246,1.99161493,0.99944560,1.90710884

>  <Name>
ligand

>  <RI>
0

>  <Rbt.Current_Directory>
/home/itssahil/PROJECTS/Mol_Feturizer/Test_systems_manuscript/rnas/2g5k

>  <Rbt.Executable>
rbdock ($Id: //depot/dev/client3/rdock/2013.1/src/exe/rbdock.cxx#4 $)

>  <Rbt.Library>
libRbt.so (2013.1, Build901 2013/11/27)

>  <Rbt.Parameter_File>
/export/apps/rDock/src/rDock_2013.1_src/data/scripts/dock_solv.prm

>  <Rbt.Receptor>
prm/blind_docking_80.prm

>  <SCORE>
6.38801

>  <SCORE.INTER>
-4.92993

>  <SCORE.INTER.CONST>
1

>  <SCORE.INTER.POLAR>
0

>  <SCORE.INTER.ROT>
6

>  <SCORE.INTER.SOLV>
18.0327

>  <SCORE.INTER.VDW>
-16.8975

>  <SCORE.INTER.norm>
-0.133241

>  <SCORE.INTRA>
8.9417

>  <SCORE.INTRA.DIHEDRAL>
3.14939

>  <SCORE.INTRA.DIHEDRAL.0>
11.3972

>  <SCORE.INTRA.POLAR>
0

>  <SCORE.INTRA.POLAR.0>
0

>  <SCORE.INTRA.REPUL>
0

>  <SCORE.INTRA.REPUL.0>
0

>  <SCORE.INTRA.SOLV>
6.60182

>  <SCORE.INTRA.SOLV.lig_0>
-92.3891

>  <SCORE.INTRA.VDW>
4.0661

>  <SCORE.INTRA.VDW.0>
-2.90606

>  <SCORE.INTRA.norm>
0.241668

>  <SCORE.RESTR>
2.37623

>  <SCORE.RESTR.CAVITY>
2.37623

>  <SCORE.RESTR.norm>
0.0642225

>  <SCORE.SYSTEM>
0

>  <SCORE.SYSTEM.CONST>
0

>  <SCORE.SYSTEM.DIHEDRAL>
0

>  <SCORE.SYSTEM.SOLV>
0

>  <SCORE.SYSTEM.norm>
0

>  <SCORE.heavy>
37

>  <SCORE.norm>
0.172649

>  <RMSD>
10.762

$$$$
ligand
 OpenBabel02271912133D
libRbt.so/2013.1/901 2013/11/27
 37 40  0  0  0  0  0  0  0  0999 V2000
   -8.7324   19.2891   70.5002 C   0  0  1  0  0  0  0  0  0  0  0  0
   -7.3109   19.7862   70.8887 C   0  0  1  0  0  0  0  0  0  0  0  0
   -7.0810   21.2534   70.4791 C   0  0  0  0  0  0  0  0  0  0  0  0
   -7.3204   21.3929   68.9434 C   0  0  1  0  0  0  0  0  0  0  0  0
   -8.7688   20.9403   68.5681 C   0  0  1  0  0  0  0  0  0  0  0  0
   -8.9907   21.0892   66.9955 C   0  0  1  0  0  0  0  0  0  0  0  0
   -8.7662   22.5761   66.5921 C   0  0  1  0  0  0  0  0  0  0  0  0
   -7.3237   22.9823   67.0196 C   0  0  2  0  0  0  0  0  0  0  0  0
   -7.7526   23.0242   64.2507 C   0  0  0  0  0  0  0  0  0  0  0  0
   -7.0763   19.6118   72.3377 N   0  0  0  0  0  0  0  0  0  0  0  0
   -8.9539   22.7546   65.1036 N   0  0  0  0  0  0  0  0  0  0  0  0
   -9.7701   19.9228   71.2733 O   0  0  0  0  0  0  0  0  0  0  0  0
   -8.9357   19.5363   69.0487 O   0  0  0  0  0  0  0  0  0  0  0  0
   -7.1165   22.7988   68.4621 O   0  0  0  0  0  0  0  0  0  0  0  0
   -8.0424   20.2908   66.2994 O   0  0  0  0  0  0  0  0  0  0  0  0
   -7.0813   24.3444   66.6864 O   0  0  0  0  0  0  0  0  0  0  0  0
   -6.6113   25.1475   67.7970 C   0  0  2  0  0  0  0  0  0  0  0  0
   -6.7696   26.6664   67.5498 C   0  0  1  0  0  0  0  0  0  0  0  0
   -5.8349   27.1422   66.3912 C   0  0  2  0  0  0  0  0  0  0  0  0
   -4.3965   26.8509   66.7680 C   0  0  1  0  0  0  0  0  0  0  0  0
   -4.2332   25.3171   66.9886 C   0  0  1  0  0  0  0  0  0  0  0  0
   -2.8095   24.9417   67.3952 C   0  0  0  0  0  0  0  0  0  0  0  0
   -3.5012   27.3199   65.6828 N   0  0  0  0  0  0  0  0  0  0  0  0
   -5.1692   24.8652   68.0636 O   0  0  0  0  0  0  0  0  0  0  0  0
   -8.1651   26.9150   67.2690 O   0  0  0  0  0  0  0  0  0  0  0  0
   -5.9866   28.5494   66.1917 O   0  0  0  0  0  0  0  0  0  0  0  0
   -2.5254   25.4936   68.6578 O   0  0  0  0  0  0  0  0  0  0  0  0
   -9.8124   19.8935   72.7857 C   0  0  1  0  0  0  0  0  0  0  0  0
   -9.1895   18.5541   73.2659 C   0  0  1  0  0  0  0  0  0  0  0  0
   -9.2164   18.4805   74.8202 C   0  0  2  0  0  0  0  0  0  0  0  0
   -8.4005   19.6627   75.3989 C   0  0  1  0  0  0  0  0  0  0  0  0
   -9.0145   21.0323   74.9357 C   0  0  0  0  0  0  0  0  0  0  0  0
   -8.9920   21.0751   73.3929 C   0  0  2  0  0  0  0  0  0  0  0  0
   -8.4133   19.5989   76.8802 N   0  0  0  0  0  0  0  0  0  0  0  0
   -9.5679   22.3558   72.9686 N   0  0  0  0  0  0  0  0  0  0  0  0
   -9.9481   17.4498   72.7251 O   0  0  0  0  0  0  0  0  0  0  0  0
   -8.6382   17.2245   75.2397 O   0  0  0  0  0  0  0  0  0  0  0  0
  1  2  1  0  0  0  0
  1 12  1  1  0  0  0
  1 13  1  0  0  0  0
  2  3  1  0  0  0  0
  2 10  1  1  0  0  0
  4  3  1  1  0  0  0
  4  5  1  0  0  0  0
  4 14  1  0  0  0  0
  5  6  1  0  0  0  0
  5 13  1  6  0  0  0
  6  7  1  0  0  0  0
  6 15  1  6  0  0  0
  7  8  1  0  0  0  0
  7 11  1  6  0  0  0
  8 14  1  0  0  0  0
  8 16  1  1  0  0  0
  9 11  1  0  0  0  0
 17 16  1  6  0  0  0
 17 18  1  0  0  0  0
 17 24  1  0  0  0  0
 18 19  1  0  0  0  0
 18 25  1  6  0  0  0
 19 20  1  0  0  0  0
 19 26  1  1  0  0  0
 20 21  1  0  0  0  0
 20 23  1  6  0  0  0
 21 22  1  1  0  0  0
 21 24  1  0  0  0  0
 22 27  1  0  0  0  0
 28 12  1  6  0  0  0
 28 29  1  0  0  0  0
 28 33  1  0  0  0  0
 29 30  1  0  0  0  0
 29 36  1  6  0  0  0
 30 31  1  0  0  0  0
 30 37  1  6  0  0  0
 31 32  1  0  0  0  0
 31 34  1  1  0  0  0
 32 33  1  0  0  0  0
 33 35  1  1  0  0  0
M  END
>  <CHROM.1>
-56.34884399,-108.92284771,126.92180782,-31.86037335,-162.25771255,65.47832204
-7.45589430,22.34111617,69.54971696,2.12942691,0.91588462,1.86035838

>  <Name>
ligand

>  <RI>
0

>  <Rbt.Current_Directory>
/home/itssahil/PROJECTS/Mol_Feturizer/Test_systems_manuscript/rnas/2g5k

>  <Rbt.Executable>
rbdock ($Id: //depot/dev/client3/rdock/2013.1/src/exe/rbdock.cxx#4 $)

>  <Rbt.Library>
libRbt.so (2013.1, Build901 2013/11/27)

>  <Rbt.Parameter_File>
/export/apps/rDock/src/rDock_2013.1_src/data/scripts/dock_solv.prm

>  <Rbt.Receptor>
prm/blind_docking_80.prm

>  <SCORE>
9.99255

>  <SCORE.INTER>
-8.04067

>  <SCORE.INTER.CONST>
1

>  <SCORE.INTER.POLAR>
0

>  <SCORE.INTER.ROT>
6

>  <SCORE.INTER.SOLV>
16.6642

>  <SCORE.INTER.VDW>
-18.5152

>  <SCORE.INTER.norm>
-0.217316

>  <SCORE.INTRA>
12.2027

>  <SCORE.INTRA.DIHEDRAL>
1.53194

>  <SCORE.INTRA.DIHEDRAL.0>
11.3972

>  <SCORE.INTRA.POLAR>
0

>  <SCORE.INTRA.POLAR.0>
0

>  <SCORE.INTRA.REPUL>
0

>  <SCORE.INTRA.REPUL.0>
0

>  <SCORE.INTRA.SOLV>
6.4768

>  <SCORE.INTRA.SOLV.lig_0>
-92.3891

>  <SCORE.INTRA.VDW>
8.19829

>  <SCORE.INTRA.VDW.0>
-2.90606

>  <SCORE.INTRA.norm>
0.329802

>  <SCORE.RESTR>
5.83056

>  <SCORE.RESTR.CAVITY>
5.83056

>  <SCORE.RESTR.norm>
0.157583

>  <SCORE.SYSTEM>
0

>  <SCORE.SYSTEM.CONST>
0

>  <SCORE.SYSTEM.DIHEDRAL>
0

>  <SCORE.SYSTEM.SOLV>
0

>  <SCORE.SYSTEM.norm>
0

>  <SCORE.heavy>
37

>  <SCORE.norm>
0.270069

>  <RMSD>
10.768

$$$$
ligand
 OpenBabel02271912133D
libRbt.so/2013.1/901 2013/11/27
 37 40  0  0  0  0  0  0  0  0999 V2000
   -8.8004   19.2018   70.5406 C   0  0  1  0  0  0  0  0  0  0  0  0
   -7.3430   19.6153   70.8921 C   0  0  1  0  0  0  0  0  0  0  0  0
   -7.0504   21.0787   70.5097 C   0  0  0  0  0  0  0  0  0  0  0  0
   -7.3324   21.2692   68.9867 C   0  0  1  0  0  0  0  0  0  0  0  0
   -8.8140   20.9012   68.6504 C   0  0  1  0  0  0  0  0  0  0  0  0
   -9.0792   21.1010   67.0901 C   0  0  1  0  0  0  0  0  0  0  0  0
   -8.7908   22.5841   66.7146 C   0  0  1  0  0  0  0  0  0  0  0  0
   -7.3158   22.9048   67.1022 C   0  0  2  0  0  0  0  0  0  0  0  0
   -7.8296   22.9188   64.3325 C   0  0  0  0  0  0  0  0  0  0  0  0
   -7.0704   19.3925   72.3278 N   0  0  0  0  0  0  0  0  0  0  0  0
   -9.0176   22.8097   65.2379 N   0  0  0  0  0  0  0  0  0  0  0  0
   -9.7778   19.8682   71.3633 O   0  0  0  0  0  0  0  0  0  0  0  0
   -9.0380   19.4958   69.1031 O   0  0  0  0  0  0  0  0  0  0  0  0
   -7.0714   22.6744   68.5320 O   0  0  0  0  0  0  0  0  0  0  0  0
   -8.1971   20.2728   66.3436 O   0  0  0  0  0  0  0  0  0  0  0  0
   -7.0137   24.2606   66.7932 O   0  0  0  0  0  0  0  0  0  0  0  0
   -5.7484   24.4411   66.1108 C   0  0  2  0  0  0  0  0  0  0  0  0
   -4.7859   25.3856   66.8692 C   0  0  1  0  0  0  0  0  0  0  0  0
   -5.3459   26.8443   66.8988 C   0  0  2  0  0  0  0  0  0  0  0  0
   -5.5040   27.3399   65.4756 C   0  0  1  0  0  0  0  0  0  0  0  0
   -6.4958   26.4036   64.7224 C   0  0  1  0  0  0  0  0  0  0  0  0
   -6.6931   26.8242   63.2672 C   0  0  0  0  0  0  0  0  0  0  0  0
   -6.0141   28.7321   65.4955 N   0  0  0  0  0  0  0  0  0  0  0  0
   -5.9743   25.0023   64.7454 O   0  0  0  0  0  0  0  0  0  0  0  0
   -4.6005   24.8397   68.1942 O   0  0  0  0  0  0  0  0  0  0  0  0
   -4.4336   27.7007   67.5898 O   0  0  0  0  0  0  0  0  0  0  0  0
   -5.4478   26.8330   62.6126 O   0  0  0  0  0  0  0  0  0  0  0  0
   -9.7609   19.8185   72.8757 C   0  0  1  0  0  0  0  0  0  0  0  0
   -9.1714   18.4495   73.3128 C   0  0  1  0  0  0  0  0  0  0  0  0
   -9.1392   18.3544   74.8658 C   0  0  2  0  0  0  0  0  0  0  0  0
   -8.2560   19.4962   75.4265 C   0  0  1  0  0  0  0  0  0  0  0  0
   -8.8347   20.8947   75.0064 C   0  0  0  0  0  0  0  0  0  0  0  0
   -8.8721   20.9591   73.4646 C   0  0  2  0  0  0  0  0  0  0  0  0
   -8.2121   19.4113   76.9061 N   0  0  0  0  0  0  0  0  0  0  0  0
   -9.4146   22.2668   73.0806 N   0  0  0  0  0  0  0  0  0  0  0  0
   -9.9930   17.3829   72.7887 O   0  0  0  0  0  0  0  0  0  0  0  0
   -8.5935   17.0713   75.2452 O   0  0  0  0  0  0  0  0  0  0  0  0
  1  2  1  0  0  0  0
  1 12  1  1  0  0  0
  1 13  1  0  0  0  0
  2  3  1  0  0  0  0
  2 10  1  1  0  0  0
  4  3  1  1  0  0  0
  4  5  1  0  0  0  0
  4 14  1  0  0  0  0
  5  6  1  0  0  0  0
  5 13  1  6  0  0  0
  6  7  1  0  0  0  0
  6 15  1  6  0  0  0
  7  8  1  0  0  0  0
  7 11  1  6  0  0  0
  8 14  1  0  0  0  0
  8 16  1  1  0  0  0
  9 11  1  0  0  0  0
 17 16  1  1  0  0  0
 17 18  1  0  0  0  0
 17 24  1  0  0  0  0
 18 19  1  0  0  0  0
 18 25  1  1  0  0  0
 19 20  1  0  0  0  0
 19 26  1  1  0  0  0
 20 21  1  0  0  0  0
 20 23  1  1  0  0  0
 21 22  1  6  0  0  0
 21 24  1  0  0  0  0
 22 27  1  0  0  0  0
 28 12  1  6  0  0  0
 28 29  1  0  0  0  0
 28 33  1  0  0  0  0
 29 30  1  0  0  0  0
 29 36  1  6  0  0  0
 30 31  1  0  0  0  0
 30 37  1  6  0  0  0
 31 32  1  0  0  0  0
 31 34  1  1  0  0  0
 32 33  1  0  0  0  0
 33 35  1  1  0  0  0
M  END
>  <CHROM.1>
-55.48054448,-103.61597055,-133.95222757,-31.56637542,-122.26074158,57.70324708
-7.57493299,22.30126273,69.12900564,2.08522505,1.04365129,1.79495789

>  <Name>
ligand

>  <RI>
0

>  <Rbt.Current_Directory>
/home/itssahil/PROJECTS/Mol_Feturizer/Test_systems_manuscript/rnas/2g5k

>  <Rbt.Executable>
rbdock ($Id: //depot/dev/client3/rdock/2013.1/src/exe/rbdock.cxx#4 $)

>  <Rbt.Library>
libRbt.so (2013.1, Build901 2013/11/27)

>  <Rbt.Parameter_File>
/export/apps/rDock/src/rDock_2013.1_src/data/scripts/dock_solv.prm

>  <Rbt.Receptor>
prm/blind_docking_80.prm

>  <SCORE>
6.87352

>  <SCORE.INTER>
-9.14934

>  <SCORE.INTER.CONST>
1

>  <SCORE.INTER.POLAR>
0

>  <SCORE.INTER.ROT>
6

>  <SCORE.INTER.SOLV>
17.9659

>  <SCORE.INTER.VDW>
-19.6882

>  <SCORE.INTER.norm>
-0.247279

>  <SCORE.INTRA>
13.7034

>  <SCORE.INTRA.DIHEDRAL>
6.46371

>  <SCORE.INTRA.DIHEDRAL.0>
11.3972

>  <SCORE.INTRA.POLAR>
0

>  <SCORE.INTRA.POLAR.0>
0

>  <SCORE.INTRA.REPUL>
0

>  <SCORE.INTRA.REPUL.0>
0

>  <SCORE.INTRA.SOLV>
7.12577

>  <SCORE.INTRA.SOLV.lig_0>
-92.3891

>  <SCORE.INTRA.VDW>
6.90863

>  <SCORE.INTRA.VDW.0>
-2.90606

>  <SCORE.INTRA.norm>
0.370362

>  <SCORE.RESTR>
2.31949

>  <SCORE.RESTR.CAVITY>
2.31949

>  <SCORE.RESTR.norm>
0.0626888

>  <SCORE.SYSTEM>
0

>  <SCORE.SYSTEM.CONST>
0

>  <SCORE.SYSTEM.DIHEDRAL>
0

>  <SCORE.SYSTEM.SOLV>
0

>  <SCORE.SYSTEM.norm>
0

>  <SCORE.heavy>
37

>  <SCORE.norm>
0.185771

>  <RMSD>
10.770

$$$$
ligand
 OpenBabel02271912133D
libRbt.so/2013.1/901 2013/11/27
 37 40  0  0  0  0  0  0  0  0999 V2000
   -8.7954   19.1269   70.5015 C   0  0  1  0  0  0  0  0  0  0  0  0
   -7.3275   19.5079   70.8458 C   0  0  1  0  0  0  0  0  0  0  0  0
   -7.0159   20.9760   70.4981 C   0  0  0  0  0  0  0  0  0  0  0  0
   -7.3128   21.2109   68.9842 C   0  0  1  0  0  0  0  0  0  0  0  0
   -8.8040   20.8753   68.6566 C   0  0  1  0  0  0  0  0  0  0  0  0
   -9.0845   21.1203   67.1055 C   0  0  1  0  0  0  0  0  0  0  0  0
   -8.7768   22.6081   66.7652 C   0  0  1  0  0  0  0  0  0  0  0  0
   -7.2923   22.8951   67.1429 C   0  0  2  0  0  0  0  0  0  0  0  0
   -7.8431   22.9215   64.3693 C   0  0  0  0  0  0  0  0  0  0  0  0
   -7.0415   19.2431   72.2717 N   0  0  0  0  0  0  0  0  0  0  0  0
   -9.0173   22.8760   65.2979 N   0  0  0  0  0  0  0  0  0  0  0  0
   -9.7521   19.7867   71.3532 O   0  0  0  0  0  0  0  0  0  0  0  0
   -9.0453   19.4623   69.0752 O   0  0  0  0  0  0  0  0  0  0  0  0
   -7.0346   22.6234   68.5632 O   0  0  0  0  0  0  0  0  0  0  0  0
   -8.2248   20.2982   66.3268 O   0  0  0  0  0  0  0  0  0  0  0  0
   -6.9721   24.2536   66.8658 O   0  0  0  0  0  0  0  0  0  0  0  0
   -5.7220   24.4307   66.1551 C   0  0  2  0  0  0  0  0  0  0  0  0
   -4.7451   25.3825   66.8853 C   0  0  1  0  0  0  0  0  0  0  0  0
   -5.3067   26.8406   66.9154 C   0  0  2  0  0  0  0  0  0  0  0  0
   -5.4961   27.3248   65.4922 C   0  0  1  0  0  0  0  0  0  0  0  0
   -6.5022   26.3811   64.7676 C   0  0  1  0  0  0  0  0  0  0  0  0
   -6.7312   26.7900   63.3138 C   0  0  0  0  0  0  0  0  0  0  0  0
   -6.0080   28.7163   65.5121 N   0  0  0  0  0  0  0  0  0  0  0  0
   -5.9779   24.9808   64.7905 O   0  0  0  0  0  0  0  0  0  0  0  0
   -4.5305   24.8474   68.2103 O   0  0  0  0  0  0  0  0  0  0  0  0
   -4.3814   27.7038   67.5802 O   0  0  0  0  0  0  0  0  0  0  0  0
   -5.4943   26.8455   62.6458 O   0  0  0  0  0  0  0  0  0  0  0  0
   -9.7027   19.7183   72.8642 C   0  0  1  0  0  0  0  0  0  0  0  0
   -9.1562   18.3228   73.2724 C   0  0  1  0  0  0  0  0  0  0  0  0
   -9.0924   18.2080   74.8231 C   0  0  2  0  0  0  0  0  0  0  0  0
   -8.1536   19.3086   75.3757 C   0  0  1  0  0  0  0  0  0  0  0  0
   -8.6877   20.7330   74.9846 C   0  0  0  0  0  0  0  0  0  0  0  0
   -8.7577   20.8172   73.4449 C   0  0  2  0  0  0  0  0  0  0  0  0
   -8.0793   19.2045   76.8529 N   0  0  0  0  0  0  0  0  0  0  0  0
   -9.2584   22.1491   73.0881 N   0  0  0  0  0  0  0  0  0  0  0  0
  -10.0297   17.2945   72.7557 O   0  0  0  0  0  0  0  0  0  0  0  0
   -8.5877   16.9007   75.1755 O   0  0  0  0  0  0  0  0  0  0  0  0
  1  2  1  0  0  0  0
  1 12  1  1  0  0  0
  1 13  1  0  0  0  0
  2  3  1  0  0  0  0
  2 10  1  1  0  0  0
  4  3  1  1  0  0  0
  4  5  1  0  0  0  0
  4 14  1  0  0  0  0
  5  6  1  0  0  0  0
  5 13  1  6  0  0  0
  6  7  1  0  0  0  0
  6 15  1  6  0  0  0
  7  8  1  0  0  0  0
  7 11  1  6  0  0  0
  8 14  1  0  0  0  0
  8 16  1  1  0  0  0
  9 11  1  0  0  0  0
 17 16  1  1  0  0  0
 17 18  1  0  0  0  0
 17 24  1  0  0  0  0
 18 19  1  0  0  0  0
 18 25  1  1  0  0  0
 19 20  1  0  0  0  0
 19 26  1  6  0  0  0
 20 21  1  0  0  0  0
 20 23  1  1  0  0  0
 21 22  1  6  0  0  0
 21 24  1  0  0  0  0
 22 27  1  0  0  0  0
 28 12  1  6  0  0  0
 28 29  1  0  0  0  0
 28 33  1  0  0  0  0
 29 30  1  0  0  0  0
 29 36  1  1  0  0  0
 30 31  1  0  0  0  0
 30 37  1  6  0  0  0
 31 32  1  0  0  0  0
 31 34  1  1  0  0  0
 32 33  1  0  0  0  0
 33 35  1  1  0  0  0
M  END
>  <CHROM.1>
-54.28941592,-100.56987820,-133.07482319,-33.53334981,-124.72889556,55.45444524
-7.54636749,22.24510717,69.13065300,2.05956244,1.02633667,1.83716806

>  <Name>
ligand

>  <RI>
0

>  <Rbt.Current_Directory>
/home/itssahil/PROJECTS/Mol_Feturizer/Test_systems_manuscript/rnas/2g5k

>  <Rbt.Executable>
rbdock ($Id: //depot/dev/client3/rdock/2013.1/src/exe/rbdock.cxx#4 $)

>  <Rbt.Library>
libRbt.so (2013.1, Build901 2013/11/27)

>  <Rbt.Parameter_File>
/export/apps/rDock/src/rDock_2013.1_src/data/scripts/dock_solv.prm

>  <Rbt.Receptor>
prm/blind_docking_80.prm

>  <SCORE>
6.62778

>  <SCORE.INTER>
-9.35757

>  <SCORE.INTER.CONST>
1

>  <SCORE.INTER.POLAR>
0

>  <SCORE.INTER.ROT>
6

>  <SCORE.INTER.SOLV>
18.1277

>  <SCORE.INTER.VDW>
-19.8809

>  <SCORE.INTER.norm>
-0.252907

>  <SCORE.INTRA>
13.5642

>  <SCORE.INTRA.DIHEDRAL>
6.15557

>  <SCORE.INTRA.DIHEDRAL.0>
11.3972

>  <SCORE.INTRA.POLAR>
0

>  <SCORE.INTRA.POLAR.0>
0

>  <SCORE.INTRA.REPUL>
0

>  <SCORE.INTRA.REPUL.0>
0

>  <SCORE.INTRA.SOLV>
7.32985

>  <SCORE.INTRA.SOLV.lig_0>
-92.3891

>  <SCORE.INTRA.VDW>
6.82153

>  <SCORE.INTRA.VDW.0>
-2.90606

>  <SCORE.INTRA.norm>
0.366601

>  <SCORE.RESTR>
2.42111

>  <SCORE.RESTR.CAVITY>
2.42111

>  <SCORE.RESTR.norm>
0.0654354

>  <SCORE.SYSTEM>
0

>  <SCORE.SYSTEM.CONST>
0

>  <SCORE.SYSTEM.DIHEDRAL>
0

>  <SCORE.SYSTEM.SOLV>
0

>  <SCORE.SYSTEM.norm>
0

>  <SCORE.heavy>
37

>  <SCORE.norm>
0.179129

>  <RMSD>
10.771

$$$$
ligand
 OpenBabel02271912133D
libRbt.so/2013.1/901 2013/11/27
 37 40  0  0  0  0  0  0  0  0999 V2000
   -8.7994   19.2373   70.5362 C   0  0  1  0  0  0  0  0  0  0  0  0
   -7.3552   19.6946   70.8876 C   0  0  1  0  0  0  0  0  0  0  0  0
   -7.0894   21.1493   70.4556 C   0  0  0  0  0  0  0  0  0  0  0  0
   -7.3585   21.2788   68.9239 C   0  0  1  0  0  0  0  0  0  0  0  0
   -8.8281   20.8670   68.5858 C   0  0  1  0  0  0  0  0  0  0  0  0
   -9.0801   21.0049   67.0167 C   0  0  1  0  0  0  0  0  0  0  0  0
   -8.8191   22.4795   66.5907 C   0  0  1  0  0  0  0  0  0  0  0  0
   -7.3557   22.8457   66.9817 C   0  0  2  0  0  0  0  0  0  0  0  0
   -7.8677   23.0212   64.2430 C   0  0  0  0  0  0  0  0  0  0  0  0
   -7.0939   19.5294   72.3332 N   0  0  0  0  0  0  0  0  0  0  0  0
   -9.0342   22.6469   65.1046 N   0  0  0  0  0  0  0  0  0  0  0  0
   -9.7999   19.9116   71.3241 O   0  0  0  0  0  0  0  0  0  0  0  0
   -9.0272   19.4743   69.0866 O   0  0  0  0  0  0  0  0  0  0  0  0
   -7.1223   22.6721   68.4214 O   0  0  0  0  0  0  0  0  0  0  0  0
   -8.1724   20.1697   66.3097 O   0  0  0  0  0  0  0  0  0  0  0  0
   -7.0790   24.1957   66.6271 O   0  0  0  0  0  0  0  0  0  0  0  0
   -5.7067   24.4296   66.2254 C   0  0  2  0  0  0  0  0  0  0  0  0
   -4.9447   25.3574   67.2010 C   0  0  1  0  0  0  0  0  0  0  0  0
   -5.5383   26.8028   67.1729 C   0  0  2  0  0  0  0  0  0  0  0  0
   -5.4170   27.3575   65.7681 C   0  0  1  0  0  0  0  0  0  0  0  0
   -6.2090   26.4371   64.7917 C   0  0  1  0  0  0  0  0  0  0  0  0
   -6.1176   26.9176   63.3447 C   0  0  0  0  0  0  0  0  0  0  0  0
   -5.9581   28.7378   65.7380 N   0  0  0  0  0  0  0  0  0  0  0  0
   -5.6653   25.0461   64.8658 O   0  0  0  0  0  0  0  0  0  0  0  0
   -5.0179   24.7573   68.5135 O   0  0  0  0  0  0  0  0  0  0  0  0
   -4.8094   27.6447   68.0689 O   0  0  0  0  0  0  0  0  0  0  0  0
   -6.5712   25.8991   62.4867 O   0  0  0  0  0  0  0  0  0  0  0  0
   -9.8134   19.8949   72.8373 C   0  0  1  0  0  0  0  0  0  0  0  0
   -9.2136   18.5446   73.3163 C   0  0  1  0  0  0  0  0  0  0  0  0
   -9.2121   18.4836   74.8713 C   0  0  2  0  0  0  0  0  0  0  0  0
   -8.3570   19.6502   75.4246 C   0  0  1  0  0  0  0  0  0  0  0  0
   -8.9468   21.0306   74.9622 C   0  0  0  0  0  0  0  0  0  0  0  0
   -8.9533   21.0609   73.4189 C   0  0  2  0  0  0  0  0  0  0  0  0
   -8.3424   19.5980   76.9063 N   0  0  0  0  0  0  0  0  0  0  0  0
   -9.5064   22.3519   72.9954 N   0  0  0  0  0  0  0  0  0  0  0  0
  -10.0089   17.4548   72.7992 O   0  0  0  0  0  0  0  0  0  0  0  0
   -8.6561   17.2172   75.2898 O   0  0  0  0  0  0  0  0  0  0  0  0
  1  2  1  0  0  0  0
  1 12  1  1  0  0  0
  1 13  1  0  0  0  0
  2  3  1  0  0  0  0
  2 10  1  1  0  0  0
  4  3  1  1  0  0  0
  4  5  1  0  0  0  0
  4 14  1  0  0  0  0
  5  6  1  0  0  0  0
  5 13  1  6  0  0  0
  6  7  1  0  0  0  0
  6 15  1  6  0  0  0
  7  8  1  0  0  0  0
  7 11  1  6  0  0  0
  8 14  1  0  0  0  0
  8 16  1  1  0  0  0
  9 11  1  0  0  0  0
 17 16  1  1  0  0  0
 17 18  1  0  0  0  0
 17 24  1  0  0  0  0
 18 19  1  0  0  0  0
 18 25  1  1  0  0  0
 19 20  1  0  0  0  0
 19 26  1  1  0  0  0
 20 21  1  0  0  0  0
 20 23  1  1  0  0  0
 21 22  1  6  0  0  0
 21 24  1  0  0  0  0
 22 27  1  0  0  0  0
 28 12  1  6  0  0  0
 28 29  1  0  0  0  0
 28 33  1  0  0  0  0
 29 30  1  0  0  0  0
 29 36  1  6  0  0  0
 30 31  1  0  0  0  0
 30 37  1  6  0  0  0
 31 32  1  0  0  0  0
 31 34  1  1  0  0  0
 32 33  1  0  0  0  0
 33 35  1  1  0  0  0
M  END
>  <CHROM.1>
-56.66651062,-115.68590458,-146.83013158,-31.30066354,-114.54240267,166.24716136
-7.63481809,22.29852974,69.15505522,2.11922983,1.07795312,1.74071989

>  <Name>
ligand

>  <RI>
0

>  <Rbt.Current_Directory>
/home/itssahil/PROJECTS/Mol_Feturizer/Test_systems_manuscript/rnas/2g5k

>  <Rbt.Executable>
rbdock ($Id: //depot/dev/client3/rdock/2013.1/src/exe/rbdock.cxx#4 $)

>  <Rbt.Library>
libRbt.so (2013.1, Build901 2013/11/27)

>  <Rbt.Parameter_File>
/export/apps/rDock/src/rDock_2013.1_src/data/scripts/dock_solv.prm

>  <Rbt.Receptor>
prm/blind_docking_80.prm

>  <SCORE>
9.92788

>  <SCORE.INTER>
-4.67682

>  <SCORE.INTER.CONST>
1

>  <SCORE.INTER.POLAR>
0

>  <SCORE.INTER.ROT>
6

>  <SCORE.INTER.SOLV>
18.9382

>  <SCORE.INTER.VDW>
-17.0306

>  <SCORE.INTER.norm>
-0.1264

>  <SCORE.INTRA>
12.2971

>  <SCORE.INTRA.DIHEDRAL>
5.09829

>  <SCORE.INTRA.DIHEDRAL.0>
11.3972

>  <SCORE.INTRA.POLAR>
0

>  <SCORE.INTRA.POLAR.0>
0

>  <SCORE.INTRA.REPUL>
0

>  <SCORE.INTRA.REPUL.0>
0

>  <SCORE.INTRA.SOLV>
6.34172

>  <SCORE.INTRA.SOLV.lig_0>
-92.3891

>  <SCORE.INTRA.VDW>
6.5771

>  <SCORE.INTRA.VDW.0>
-2.90606

>  <SCORE.INTRA.norm>
0.332354

>  <SCORE.RESTR>
2.3076

>  <SCORE.RESTR.CAVITY>
2.3076

>  <SCORE.RESTR.norm>
0.0623675

>  <SCORE.SYSTEM>
0

>  <SCORE.SYSTEM.CONST>
0

>  <SCORE.SYSTEM.DIHEDRAL>
0

>  <SCORE.SYSTEM.SOLV>
0

>  <SCORE.SYSTEM.norm>
0

>  <SCORE.heavy>
37

>  <SCORE.norm>
0.268321

>  <RMSD>
10.777

$$$$
ligand
 OpenBabel02271912133D
libRbt.so/2013.1/901 2013/11/27
 37 40  0  0  0  0  0  0  0  0999 V2000
   -8.8210   19.0356   70.5461 C   0  0  1  0  0  0  0  0  0  0  0  0
   -7.3201   19.2974   70.8581 C   0  0  1  0  0  0  0  0  0  0  0  0
   -6.9244   20.7637   70.5997 C   0  0  0  0  0  0  0  0  0  0  0  0
   -7.2573   21.1235   69.1181 C   0  0  1  0  0  0  0  0  0  0  0  0
   -8.7778   20.9072   68.8268 C   0  0  1  0  0  0  0  0  0  0  0  0
   -9.0948   21.2787   67.3082 C   0  0  1  0  0  0  0  0  0  0  0  0
   -8.7015   22.7642   67.0588 C   0  0  1  0  0  0  0  0  0  0  0  0
   -7.1892   22.9291   67.3970 C   0  0  2  0  0  0  0  0  0  0  0  0
   -7.9022   22.9338   64.6005 C   0  0  0  0  0  0  0  0  0  0  0  0
   -7.0032   18.9147   72.2503 N   0  0  0  0  0  0  0  0  0  0  0  0
   -8.9744   23.1500   65.6237 N   0  0  0  0  0  0  0  0  0  0  0  0
   -9.7021   19.6929   71.4777 O   0  0  0  0  0  0  0  0  0  0  0  0
   -9.0972   19.4863   69.1569 O   0  0  0  0  0  0  0  0  0  0  0  0
   -6.9012   22.5417   68.7842 O   0  0  0  0  0  0  0  0  0  0  0  0
   -8.3187   20.4609   66.4422 O   0  0  0  0  0  0  0  0  0  0  0  0
   -6.7897   24.2808   67.2011 O   0  0  0  0  0  0  0  0  0  0  0  0
   -5.5836   24.4298   66.4122 C   0  0  2  0  0  0  0  0  0  0  0  0
   -4.5894   25.4471   67.0206 C   0  0  1  0  0  0  0  0  0  0  0  0
   -5.1795   26.8937   66.9817 C   0  0  2  0  0  0  0  0  0  0  0  0
   -5.4553   27.2743   65.5412 C   0  0  1  0  0  0  0  0  0  0  0  0
   -6.4786   26.2651   64.9395 C   0  0  1  0  0  0  0  0  0  0  0  0
   -6.7940   26.5678   63.4759 C   0  0  0  0  0  0  0  0  0  0  0  0
   -5.9949   28.6547   65.4940 N   0  0  0  0  0  0  0  0  0  0  0  0
   -5.9242   24.8792   65.0293 O   0  0  0  0  0  0  0  0  0  0  0  0
   -4.2926   25.0092   68.3653 O   0  0  0  0  0  0  0  0  0  0  0  0
   -4.2384   27.8170   67.5338 O   0  0  0  0  0  0  0  0  0  0  0  0
   -7.6635   27.6716   63.4061 O   0  0  0  0  0  0  0  0  0  0  0  0
   -9.5842   19.5409   72.9787 C   0  0  1  0  0  0  0  0  0  0  0  0
   -9.1527   18.0814   73.2894 C   0  0  1  0  0  0  0  0  0  0  0  0
   -9.0230   17.8798   74.8271 C   0  0  2  0  0  0  0  0  0  0  0  0
   -7.9578   18.8587   75.3797 C   0  0  1  0  0  0  0  0  0  0  0  0
   -8.3735   20.3448   75.0867 C   0  0  0  0  0  0  0  0  0  0  0  0
   -8.5117   20.5159   73.5589 C   0  0  2  0  0  0  0  0  0  0  0  0
   -7.8204   18.6706   76.8440 N   0  0  0  0  0  0  0  0  0  0  0  0
   -8.9011   21.9052   73.2939 N   0  0  0  0  0  0  0  0  0  0  0  0
  -10.1443   17.1665   72.7726 O   0  0  0  0  0  0  0  0  0  0  0  0
   -8.6274   16.5148   75.0887 O   0  0  0  0  0  0  0  0  0  0  0  0
  1  2  1  0  0  0  0
  1 12  1  1  0  0  0
  1 13  1  0  0  0  0
  2  3  1  0  0  0  0
  2 10  1  1  0  0  0
  4  3  1  1  0  0  0
  4  5  1  0  0  0  0
  4 14  1  0  0  0  0
  5  6  1  0  0  0  0
  5 13  1  6  0  0  0
  6  7  1  0  0  0  0
  6 15  1  6  0  0  0
  7  8  1  0  0  0  0
  7 11  1  6  0  0  0
  8 14  1  0  0  0  0
  8 16  1  1  0  0  0
  9 11  1  0  0  0  0
 17 16  1  1  0  0  0
 17 18  1  0  0  0  0
 17 24  1  0  0  0  0
 18 19  1  0  0  0  0
 18 25  1  1  0  0  0
 19 20  1  0  0  0  0
 19 26  1  6  0  0  0
 20 21  1  0  0  0  0
 20 23  1  1  0  0  0
 21 22  1  6  0  0  0
 21 24  1  0  0  0  0
 22 27  1  0  0  0  0
 28 12  1  6  0  0  0
 28 29  1  0  0  0  0
 28 33  1  0  0  0  0
 29 30  1  0  0  0  0
 29 36  1  1  0  0  0
 30 31  1  0  0  0  0
 30 37  1  6  0  0  0
 31 32  1  0  0  0  0
 31 34  1  1  0  0  0
 32 33  1  0  0  0  0
 33 35  1  1  0  0  0
M  END
>  <CHROM.1>
-52.77460947,-88.84575334,-130.83260463,-36.12835356,-134.77043753,-76.23753971
-7.53731047,22.17692117,69.26916336,1.95811379,0.95567748,1.98353860

>  <Name>
ligand

>  <RI>
0

>  <Rbt.Current_Directory>
/home/itssahil/PROJECTS/Mol_Feturizer/Test_systems_manuscript/rnas/2g5k

>  <Rbt.Executable>
rbdock ($Id: //depot/dev/client3/rdock/2013.1/src/exe/rbdock.cxx#4 $)

>  <Rbt.Library>
libRbt.so (2013.1, Build901 2013/11/27)

>  <Rbt.Parameter_File>
/export/apps/rDock/src/rDock_2013.1_src/data/scripts/dock_solv.prm

>  <Rbt.Receptor>
prm/blind_docking_80.prm

>  <SCORE>
6.13236

>  <SCORE.INTER>
-9.55987

>  <SCORE.INTER.CONST>
1

>  <SCORE.INTER.POLAR>
0

>  <SCORE.INTER.ROT>
6

>  <SCORE.INTER.SOLV>
18.1816

>  <SCORE.INTER.VDW>
-20.0338

>  <SCORE.INTER.norm>
-0.258375

>  <SCORE.INTRA>
12.7714

>  <SCORE.INTRA.DIHEDRAL>
5.57743

>  <SCORE.INTRA.DIHEDRAL.0>
11.3972

>  <SCORE.INTRA.POLAR>
0

>  <SCORE.INTRA.POLAR.0>
0

>  <SCORE.INTRA.REPUL>
0

>  <SCORE.INTRA.REPUL.0>
0

>  <SCORE.INTRA.SOLV>
7.89814

>  <SCORE.INTRA.SOLV.lig_0>
-92.3891

>  <SCORE.INTRA.VDW>
6.03366

>  <SCORE.INTRA.VDW.0>
-2.90606

>  <SCORE.INTRA.norm>
0.345174

>  <SCORE.RESTR>
2.92079

>  <SCORE.RESTR.CAVITY>
2.92079

>  <SCORE.RESTR.norm>
0.0789402

>  <SCORE.SYSTEM>
0

>  <SCORE.SYSTEM.CONST>
0

>  <SCORE.SYSTEM.DIHEDRAL>
0

>  <SCORE.SYSTEM.SOLV>
0

>  <SCORE.SYSTEM.norm>
0

>  <SCORE.heavy>
37

>  <SCORE.norm>
0.16574

>  <RMSD>
10.777

$$$$
ligand
 OpenBabel02271912133D
libRbt.so/2013.1/901 2013/11/27
 37 40  0  0  0  0  0  0  0  0999 V2000
   -8.8033   19.0233   70.4930 C   0  0  1  0  0  0  0  0  0  0  0  0
   -7.3236   19.3694   70.8236 C   0  0  1  0  0  0  0  0  0  0  0  0
   -6.9894   20.8387   70.5031 C   0  0  0  0  0  0  0  0  0  0  0  0
   -7.3037   21.1122   68.9993 C   0  0  1  0  0  0  0  0  0  0  0  0
   -8.8056   20.8116   68.6867 C   0  0  1  0  0  0  0  0  0  0  0  0
   -9.1037   21.0957   67.1456 C   0  0  1  0  0  0  0  0  0  0  0  0
   -8.7729   22.5845   66.8331 C   0  0  1  0  0  0  0  0  0  0  0  0
   -7.2779   22.8356   67.1948 C   0  0  2  0  0  0  0  0  0  0  0  0
   -7.8698   22.9201   64.4284 C   0  0  0  0  0  0  0  0  0  0  0  0
   -7.0221   19.0681   72.2391 N   0  0  0  0  0  0  0  0  0  0  0  0
   -9.0296   22.8889   65.3756 N   0  0  0  0  0  0  0  0  0  0  0  0
   -9.7350   19.6821   71.3730 O   0  0  0  0  0  0  0  0  0  0  0  0
   -9.0674   19.3945   69.0782 O   0  0  0  0  0  0  0  0  0  0  0  0
   -7.0050   22.5281   68.6048 O   0  0  0  0  0  0  0  0  0  0  0  0
   -8.2711   20.2750   66.3366 O   0  0  0  0  0  0  0  0  0  0  0  0
   -6.9362   24.1937   66.9423 O   0  0  0  0  0  0  0  0  0  0  0  0
   -5.6867   24.3635   66.2287 C   0  0  2  0  0  0  0  0  0  0  0  0
   -4.7158   25.3357   66.9397 C   0  0  1  0  0  0  0  0  0  0  0  0
   -5.2859   26.7908   66.9399 C   0  0  2  0  0  0  0  0  0  0  0  0
   -5.4772   27.2447   65.5070 C   0  0  1  0  0  0  0  0  0  0  0  0
   -6.4775   26.2807   64.8014 C   0  0  1  0  0  0  0  0  0  0  0  0
   -6.7082   26.6584   63.3395 C   0  0  0  0  0  0  0  0  0  0  0  0
   -5.9972   28.6334   65.4984 N   0  0  0  0  0  0  0  0  0  0  0  0
   -5.9452   24.8842   64.8530 O   0  0  0  0  0  0  0  0  0  0  0  0
   -4.4987   24.8289   68.2755 O   0  0  0  0  0  0  0  0  0  0  0  0
   -4.3659   27.6727   67.5873 O   0  0  0  0  0  0  0  0  0  0  0  0
   -7.7268   27.6260   63.2642 O   0  0  0  0  0  0  0  0  0  0  0  0
   -9.6597   19.5869   72.8814 C   0  0  1  0  0  0  0  0  0  0  0  0
   -9.1553   18.1665   73.2567 C   0  0  1  0  0  0  0  0  0  0  0  0
   -9.0665   18.0238   74.8038 C   0  0  2  0  0  0  0  0  0  0  0  0
   -8.0792   19.0816   75.3557 C   0  0  1  0  0  0  0  0  0  0  0  0
   -8.5700   20.5301   74.9977 C   0  0  0  0  0  0  0  0  0  0  0  0
   -8.6658   20.6422   73.4613 C   0  0  2  0  0  0  0  0  0  0  0  0
   -7.9810   18.9504   76.8293 N   0  0  0  0  0  0  0  0  0  0  0  0
   -9.1257   21.9966   73.1355 N   0  0  0  0  0  0  0  0  0  0  0  0
  -10.0740   17.1781   72.7407 O   0  0  0  0  0  0  0  0  0  0  0  0
   -8.6017   16.6940   75.1256 O   0  0  0  0  0  0  0  0  0  0  0  0
  1  2  1  0  0  0  0
  1 12  1  1  0  0  0
  1 13  1  0  0  0  0
  2  3  1  0  0  0  0
  2 10  1  1  0  0  0
  4  3  1  1  0  0  0
  4  5  1  0  0  0  0
  4 14  1  0  0  0  0
  5  6  1  0  0  0  0
  5 13  1  6  0  0  0
  6  7  1  0  0  0  0
  6 15  1  6  0  0  0
  7  8  1  0  0  0  0
  7 11  1  6  0  0  0
  8 14  1  0  0  0  0
  8 16  1  1  0  0  0
  9 11  1  0  0  0  0
 17 16  1  1  0  0  0
 17 18  1  0  0  0  0
 17 24  1  0  0  0  0
 18 19  1  0  0  0  0
 18 25  1  1  0  0  0
 19 20  1  0  0  0  0
 19 26  1  6  0  0  0
 20 21  1  0  0  0  0
 20 23  1  1  0  0  0
 21 22  1  6  0  0  0
 21 24  1  0  0  0  0
 22 27  1  0  0  0  0
 28 12  1  6  0  0  0
 28 29  1  0  0  0  0
 28 33  1  0  0  0  0
 29 30  1  0  0  0  0
 29 36  1  1  0  0  0
 30 31  1  0  0  0  0
 30 37  1  6  0  0  0
 31 32  1  0  0  0  0
 31 34  1  1  0  0  0
 32 33  1  0  0  0  0
 33 35  1  1  0  0  0
M  END
>  <CHROM.1>
-53.88385176,-99.99280379,-133.65180257,-34.71844416,-127.37273231,-85.97993364
-7.59389251,22.17088137,69.16938636,1.98739252,1.00068500,1.92992047

>  <Name>
ligand

>  <RI>
0

>  <Rbt.Current_Directory>
/home/itssahil/PROJECTS/Mol_Feturizer/Test_systems_manuscript/rnas/2g5k

>  <Rbt.Executable>
rbdock ($Id: //depot/dev/client3/rdock/2013.1/src/exe/rbdock.cxx#4 $)

>  <Rbt.Library>
libRbt.so (2013.1, Build901 2013/11/27)

>  <Rbt.Parameter_File>
/export/apps/rDock/src/rDock_2013.1_src/data/scripts/dock_solv.prm

>  <Rbt.Receptor>
prm/blind_docking_80.prm

>  <SCORE>
7.37451

>  <SCORE.INTER>
-9.47737

>  <SCORE.INTER.CONST>
1

>  <SCORE.INTER.POLAR>
0

>  <SCORE.INTER.ROT>
6

>  <SCORE.INTER.SOLV>
18.2032

>  <SCORE.INTER.VDW>
-19.986

>  <SCORE.INTER.norm>
-0.256145

>  <SCORE.INTRA>
14.3568

>  <SCORE.INTRA.DIHEDRAL>
7.72721

>  <SCORE.INTRA.DIHEDRAL.0>
11.3972

>  <SCORE.INTRA.POLAR>
0

>  <SCORE.INTRA.POLAR.0>
0

>  <SCORE.INTRA.REPUL>
0

>  <SCORE.INTRA.REPUL.0>
0

>  <SCORE.INTRA.SOLV>
7.47471

>  <SCORE.INTRA.SOLV.lig_0>
-92.3891

>  <SCORE.INTRA.VDW>
6.75588

>  <SCORE.INTRA.VDW.0>
-2.90606

>  <SCORE.INTRA.norm>
0.388023

>  <SCORE.RESTR>
2.49505

>  <SCORE.RESTR.CAVITY>
2.49505

>  <SCORE.RESTR.norm>
0.0674337

>  <SCORE.SYSTEM>
0

>  <SCORE.SYSTEM.CONST>
0

>  <SCORE.SYSTEM.DIHEDRAL>
0

>  <SCORE.SYSTEM.SOLV>
0

>  <SCORE.SYSTEM.norm>
0

>  <SCORE.heavy>
37

>  <SCORE.norm>
0.199311

>  <RMSD>
10.778

$$$$
ligand
 OpenBabel02271912133D
libRbt.so/2013.1/901 2013/11/27
 37 40  0  0  0  0  0  0  0  0999 V2000
   -8.7910   19.1077   70.6464 C   0  0  1  0  0  0  0  0  0  0  0  0
   -7.3392   19.5509   70.9842 C   0  0  1  0  0  0  0  0  0  0  0  0
   -7.0670   21.0068   70.5602 C   0  0  0  0  0  0  0  0  0  0  0  0
   -7.3531   21.1503   69.0328 C   0  0  1  0  0  0  0  0  0  0  0  0
   -8.8298   20.7527   68.7091 C   0  0  1  0  0  0  0  0  0  0  0  0
   -9.0992   20.9048   67.1441 C   0  0  1  0  0  0  0  0  0  0  0  0
   -8.8316   22.3805   66.7265 C   0  0  1  0  0  0  0  0  0  0  0  0
   -7.3608   22.7322   67.1029 C   0  0  2  0  0  0  0  0  0  0  0  0
   -9.1071   23.9492   64.6835 C   0  0  0  0  0  0  0  0  0  0  0  0
   -7.0621   19.3725   72.4252 N   0  0  0  0  0  0  0  0  0  0  0  0
   -9.0629   22.5612   65.2444 N   0  0  0  0  0  0  0  0  0  0  0  0
   -9.7767   19.7836   71.4513 O   0  0  0  0  0  0  0  0  0  0  0  0
   -9.0340   19.3578   69.2015 O   0  0  0  0  0  0  0  0  0  0  0  0
   -7.1118   22.5456   68.5384 O   0  0  0  0  0  0  0  0  0  0  0  0
   -8.2066   20.0680   66.4201 O   0  0  0  0  0  0  0  0  0  0  0  0
   -7.0777   24.0828   66.7554 O   0  0  0  0  0  0  0  0  0  0  0  0
   -5.8365   24.2558   66.0282 C   0  0  2  0  0  0  0  0  0  0  0  0
   -4.8310   25.1721   66.7650 C   0  0  1  0  0  0  0  0  0  0  0  0
   -5.3662   26.6385   66.8405 C   0  0  2  0  0  0  0  0  0  0  0  0
   -5.5703   27.1612   65.4330 C   0  0  1  0  0  0  0  0  0  0  0  0
   -6.6048   26.2534   64.7026 C   0  0  1  0  0  0  0  0  0  0  0  0
   -6.8506   26.7022   63.2633 C   0  0  0  0  0  0  0  0  0  0  0  0
   -6.0571   28.5604   65.4958 N   0  0  0  0  0  0  0  0  0  0  0  0
   -6.1052   24.8441   64.6821 O   0  0  0  0  0  0  0  0  0  0  0  0
   -4.6041   24.6006   68.0726 O   0  0  0  0  0  0  0  0  0  0  0  0
   -4.4148   27.4687   67.5104 O   0  0  0  0  0  0  0  0  0  0  0  0
   -7.8360   27.7063   63.2510 O   0  0  0  0  0  0  0  0  0  0  0  0
   -9.7492   19.7894   72.9643 C   0  0  1  0  0  0  0  0  0  0  0  0
   -9.1619   18.4349   73.4473 C   0  0  1  0  0  0  0  0  0  0  0  0
   -9.1190   18.3967   75.0025 C   0  0  2  0  0  0  0  0  0  0  0  0
   -8.2273   19.5546   75.5147 C   0  0  1  0  0  0  0  0  0  0  0  0
   -8.8036   20.9392   75.0475 C   0  0  0  0  0  0  0  0  0  0  0  0
   -8.8517   20.9471   73.5047 C   0  0  2  0  0  0  0  0  0  0  0  0
   -8.1732   19.5239   76.9961 N   0  0  0  0  0  0  0  0  0  0  0  0
   -9.3919   22.2421   73.0768 N   0  0  0  0  0  0  0  0  0  0  0  0
   -9.9914   17.3532   72.9685 O   0  0  0  0  0  0  0  0  0  0  0  0
   -8.5756   17.1262   75.4249 O   0  0  0  0  0  0  0  0  0  0  0  0
  1  2  1  0  0  0  0
  1 12  1  1  0  0  0
  1 13  1  0  0  0  0
  2  3  1  0  0  0  0
  2 10  1  1  0  0  0
  4  3  1  1  0  0  0
  4  5  1  0  0  0  0
  4 14  1  0  0  0  0
  5  6  1  0  0  0  0
  5 13  1  6  0  0  0
  6  7  1  0  0  0  0
  6 15  1  6  0  0  0
  7  8  1  0  0  0  0
  7 11  1  6  0  0  0
  8 14  1  0  0  0  0
  8 16  1  1  0  0  0
  9 11  1  0  0  0  0
 17 16  1  1  0  0  0
 17 18  1  0  0  0  0
 17 24  1  0  0  0  0
 18 19  1  0  0  0  0
 18 25  1  1  0  0  0
 19 20  1  0  0  0  0
 19 26  1  6  0  0  0
 20 21  1  0  0  0  0
 20 23  1  1  0  0  0
 21 22  1  6  0  0  0
 21 24  1  0  0  0  0
 22 27  1  0  0  0  0
 28 12  1  6  0  0  0
 28 29  1  0  0  0  0
 28 33  1  0  0  0  0
 29 30  1  0  0  0  0
 29 36  1  1  0  0  0
 30 31  1  0  0  0  0
 30 37  1  6  0  0  0
 31 32  1  0  0  0  0
 31 34  1  1  0  0  0
 32 33  1  0  0  0  0
 33 35  1  1  0  0  0
M  END
>  <CHROM.1>
-54.79529768,168.83872654,-132.05049635,-32.97217570,-119.71093724,-85.31006965
-7.70410186,22.25637595,69.18959171,1.97133507,1.00364056,1.90405465

>  <Name>
ligand

>  <RI>
0

>  <Rbt.Current_Directory>
/home/itssahil/PROJECTS/Mol_Feturizer/Test_systems_manuscript/rnas/2g5k

>  <Rbt.Executable>
rbdock ($Id: //depot/dev/client3/rdock/2013.1/src/exe/rbdock.cxx#4 $)

>  <Rbt.Library>
libRbt.so (2013.1, Build901 2013/11/27)

>  <Rbt.Parameter_File>
/export/apps/rDock/src/rDock_2013.1_src/data/scripts/dock_solv.prm

>  <Rbt.Receptor>
prm/blind_docking_80.prm

>  <SCORE>
4.63564

>  <SCORE.INTER>
-8.00864

>  <SCORE.INTER.CONST>
1

>  <SCORE.INTER.POLAR>
0

>  <SCORE.INTER.ROT>
6

>  <SCORE.INTER.SOLV>
17.9804

>  <SCORE.INTER.VDW>
-18.9326

>  <SCORE.INTER.norm>
-0.21645

>  <SCORE.INTRA>
10.7174

>  <SCORE.INTRA.DIHEDRAL>
7.56026

>  <SCORE.INTRA.DIHEDRAL.0>
11.3972

>  <SCORE.INTRA.POLAR>
0

>  <SCORE.INTRA.POLAR.0>
0

>  <SCORE.INTRA.REPUL>
0

>  <SCORE.INTRA.REPUL.0>
0

>  <SCORE.INTRA.SOLV>
7.22145

>  <SCORE.INTRA.SOLV.lig_0>
-92.3891

>  <SCORE.INTRA.VDW>
3.32649

>  <SCORE.INTRA.VDW.0>
-2.90606

>  <SCORE.INTRA.norm>
0.289658

>  <SCORE.RESTR>
1.92692

>  <SCORE.RESTR.CAVITY>
1.92692

>  <SCORE.RESTR.norm>
0.0520789

>  <SCORE.SYSTEM>
0

>  <SCORE.SYSTEM.CONST>
0

>  <SCORE.SYSTEM.DIHEDRAL>
0

>  <SCORE.SYSTEM.SOLV>
0

>  <SCORE.SYSTEM.norm>
0

>  <SCORE.heavy>
37

>  <SCORE.norm>
0.125287

>  <RMSD>
10.790

$$$$
ligand
 OpenBabel02271912133D
libRbt.so/2013.1/901 2013/11/27
 37 40  0  0  0  0  0  0  0  0999 V2000
   -8.7710   19.1672   70.6564 C   0  0  1  0  0  0  0  0  0  0  0  0
   -7.3394   19.6527   71.0216 C   0  0  1  0  0  0  0  0  0  0  0  0
   -7.0953   21.1096   70.5843 C   0  0  0  0  0  0  0  0  0  0  0  0
   -7.3491   21.2259   69.0490 C   0  0  1  0  0  0  0  0  0  0  0  0
   -8.8070   20.7854   68.6966 C   0  0  1  0  0  0  0  0  0  0  0  0
   -9.0435   20.9101   67.1239 C   0  0  1  0  0  0  0  0  0  0  0  0
   -8.8046   22.3869   66.6927 C   0  0  1  0  0  0  0  0  0  0  0  0
   -7.3526   22.7819   67.0982 C   0  0  2  0  0  0  0  0  0  0  0  0
   -9.0457   23.9208   64.6191 C   0  0  0  0  0  0  0  0  0  0  0  0
   -7.0917   19.5002   72.4709 N   0  0  0  0  0  0  0  0  0  0  0  0
   -9.0056   22.5423   65.2033 N   0  0  0  0  0  0  0  0  0  0  0  0
   -9.7925   19.8273   71.4291 O   0  0  0  0  0  0  0  0  0  0  0  0
   -8.9864   19.3921   69.2030 O   0  0  0  0  0  0  0  0  0  0  0  0
   -7.1326   22.6205   68.5414 O   0  0  0  0  0  0  0  0  0  0  0  0
   -8.1127   20.0878   66.4321 O   0  0  0  0  0  0  0  0  0  0  0  0
   -7.0966   24.1349   66.7391 O   0  0  0  0  0  0  0  0  0  0  0  0
   -5.8864   24.3194   65.9642 C   0  0  2  0  0  0  0  0  0  0  0  0
   -4.8459   25.2142   66.6785 C   0  0  1  0  0  0  0  0  0  0  0  0
   -5.3698   26.6807   66.8101 C   0  0  2  0  0  0  0  0  0  0  0  0
   -5.6305   27.2366   65.4248 C   0  0  1  0  0  0  0  0  0  0  0  0
   -6.6996   26.3503   64.7183 C   0  0  1  0  0  0  0  0  0  0  0  0
   -7.0036   26.8332   63.3014 C   0  0  0  0  0  0  0  0  0  0  0  0
   -6.1069   28.6361   65.5402 N   0  0  0  0  0  0  0  0  0  0  0  0
   -6.2086   24.9398   64.6444 O   0  0  0  0  0  0  0  0  0  0  0  0
   -4.5669   24.6117   67.9619 O   0  0  0  0  0  0  0  0  0  0  0  0
   -4.3867   27.4912   67.4580 O   0  0  0  0  0  0  0  0  0  0  0  0
   -5.8651   26.6538   62.4945 O   0  0  0  0  0  0  0  0  0  0  0  0
   -9.7984   19.8568   72.9420 C   0  0  1  0  0  0  0  0  0  0  0  0
   -9.1503   18.5431   73.4588 C   0  0  1  0  0  0  0  0  0  0  0  0
   -9.1394   18.5303   75.0149 C   0  0  2  0  0  0  0  0  0  0  0  0
   -8.3222   19.7419   75.5272 C   0  0  1  0  0  0  0  0  0  0  0  0
   -8.9612   21.0864   75.0261 C   0  0  0  0  0  0  0  0  0  0  0  0
   -8.9760   21.0689   73.4827 C   0  0  2  0  0  0  0  0  0  0  0  0
   -8.2989   19.7360   77.0097 N   0  0  0  0  0  0  0  0  0  0  0  0
   -9.5750   22.3266   73.0229 N   0  0  0  0  0  0  0  0  0  0  0  0
   -9.9102   17.4115   72.9799 O   0  0  0  0  0  0  0  0  0  0  0  0
   -8.5383   17.2972   75.4688 O   0  0  0  0  0  0  0  0  0  0  0  0
  1  2  1  0  0  0  0
  1 12  1  1  0  0  0
  1 13  1  0  0  0  0
  2  3  1  0  0  0  0
  2 10  1  1  0  0  0
  4  3  1  1  0  0  0
  4  5  1  0  0  0  0
  4 14  1  0  0  0  0
  5  6  1  0  0  0  0
  5 13  1  6  0  0  0
  6  7  1  0  0  0  0
  6 15  1  6  0  0  0
  7  8  1  0  0  0  0
  7 11  1  6  0  0  0
  8 14  1  0  0  0  0
  8 16  1  1  0  0  0
  9 11  1  0  0  0  0
 17 16  1  1  0  0  0
 17 18  1  0  0  0  0
 17 24  1  0  0  0  0
 18 19  1  0  0  0  0
 18 25  1  1  0  0  0
 19 20  1  0  0  0  0
 19 26  1  6  0  0  0
 20 21  1  0  0  0  0
 20 23  1  1  0  0  0
 21 22  1  6  0  0  0
 21 24  1  0  0  0  0
 22 27  1  0  0  0  0
 28 12  1  6  0  0  0
 28 29  1  0  0  0  0
 28 33  1  0  0  0  0
 29 30  1  0  0  0  0
 29 36  1  1  0  0  0
 30 31  1  0  0  0  0
 30 37  1  6  0  0  0
 31 32  1  0  0  0  0
 31 34  1  1  0  0  0
 32 33  1  0  0  0  0
 33 35  1  1  0  0  0
M  END
>  <CHROM.1>
-54.60481728,170.02858178,-128.30449105,-31.50362349,-118.09706466,66.57845518
-7.66404468,22.29580098,69.15619694,2.03560609,1.02938252,1.81951411

>  <Name>
ligand

>  <RI>
0

>  <Rbt.Current_Directory>
/home/itssahil/PROJECTS/Mol_Feturizer/Test_systems_manuscript/rnas/2g5k

>  <Rbt.Executable>
rbdock ($Id: //depot/dev/client3/rdock/2013.1/src/exe/rbdock.cxx#4 $)

>  <Rbt.Library>
libRbt.so (2013.1, Build901 2013/11/27)

>  <Rbt.Parameter_File>
/export/apps/rDock/src/rDock_2013.1_src/data/scripts/dock_solv.prm

>  <Rbt.Receptor>
prm/blind_docking_80.prm

>  <SCORE>
3.95557

>  <SCORE.INTER>
-8.58035

>  <SCORE.INTER.CONST>
1

>  <SCORE.INTER.POLAR>
0

>  <SCORE.INTER.ROT>
6

>  <SCORE.INTER.SOLV>
17.8783

>  <SCORE.INTER.VDW>
-19.2797

>  <SCORE.INTER.norm>
-0.231901

>  <SCORE.INTRA>
10.7256

>  <SCORE.INTRA.DIHEDRAL>
6.33161

>  <SCORE.INTRA.DIHEDRAL.0>
11.3972

>  <SCORE.INTRA.POLAR>
0

>  <SCORE.INTRA.POLAR.0>
0

>  <SCORE.INTRA.REPUL>
0

>  <SCORE.INTRA.REPUL.0>
0

>  <SCORE.INTRA.SOLV>
6.96194

>  <SCORE.INTRA.SOLV.lig_0>
-92.3891

>  <SCORE.INTRA.VDW>
4.07884

>  <SCORE.INTRA.VDW.0>
-2.90606

>  <SCORE.INTRA.norm>
0.289882

>  <SCORE.RESTR>
1.8103

>  <SCORE.RESTR.CAVITY>
1.8103

>  <SCORE.RESTR.norm>
0.0489271

>  <SCORE.SYSTEM>
0

>  <SCORE.SYSTEM.CONST>
0

>  <SCORE.SYSTEM.DIHEDRAL>
0

>  <SCORE.SYSTEM.SOLV>
0

>  <SCORE.SYSTEM.norm>
0

>  <SCORE.heavy>
37

>  <SCORE.norm>
0.106907

>  <RMSD>
10.798

$$$$
ligand
 OpenBabel02271912133D
libRbt.so/2013.1/901 2013/11/27
 37 40  0  0  0  0  0  0  0  0999 V2000
   -8.7818   19.1660   70.6598 C   0  0  1  0  0  0  0  0  0  0  0  0
   -7.3426   19.6368   71.0143 C   0  0  1  0  0  0  0  0  0  0  0  0
   -7.0888   21.0932   70.5809 C   0  0  0  0  0  0  0  0  0  0  0  0
   -7.3551   21.2181   69.0483 C   0  0  1  0  0  0  0  0  0  0  0  0
   -8.8201   20.7927   68.7071 C   0  0  1  0  0  0  0  0  0  0  0  0
   -9.0693   20.9262   67.1371 C   0  0  1  0  0  0  0  0  0  0  0  0
   -8.8205   22.4025   66.7098 C   0  0  1  0  0  0  0  0  0  0  0  0
   -7.3614   22.7823   67.1040 C   0  0  2  0  0  0  0  0  0  0  0  0
   -9.0906   23.9479   64.6485 C   0  0  0  0  0  0  0  0  0  0  0  0
   -7.0835   19.4759   72.4608 N   0  0  0  0  0  0  0  0  0  0  0  0
   -9.0332   22.5659   65.2230 N   0  0  0  0  0  0  0  0  0  0  0  0
   -9.7902   19.8324   71.4443 O   0  0  0  0  0  0  0  0  0  0  0  0
   -9.0080   19.3990   69.2094 O   0  0  0  0  0  0  0  0  0  0  0  0
   -7.1302   22.6128   68.5446 O   0  0  0  0  0  0  0  0  0  0  0  0
   -8.1524   20.0982   66.4337 O   0  0  0  0  0  0  0  0  0  0  0  0
   -7.0960   24.1343   66.7482 O   0  0  0  0  0  0  0  0  0  0  0  0
   -5.8736   24.3149   65.9916 C   0  0  2  0  0  0  0  0  0  0  0  0
   -4.8442   25.2127   66.7181 C   0  0  1  0  0  0  0  0  0  0  0  0
   -5.3695   26.6800   66.8346 C   0  0  2  0  0  0  0  0  0  0  0  0
   -5.6082   27.2294   65.4428 C   0  0  1  0  0  0  0  0  0  0  0  0
   -6.6663   26.3401   64.7236 C   0  0  1  0  0  0  0  0  0  0  0  0
   -6.9478   26.8165   63.2999 C   0  0  0  0  0  0  0  0  0  0  0  0
   -6.0859   28.6296   65.5441 N   0  0  0  0  0  0  0  0  0  0  0  0
   -6.1747   24.9291   64.6641 O   0  0  0  0  0  0  0  0  0  0  0  0
   -4.5857   24.6161   68.0085 O   0  0  0  0  0  0  0  0  0  0  0  0
   -4.3965   27.4932   67.4941 O   0  0  0  0  0  0  0  0  0  0  0  0
   -5.7856   26.6674   62.5211 O   0  0  0  0  0  0  0  0  0  0  0  0
   -9.7893   19.8450   72.9575 C   0  0  1  0  0  0  0  0  0  0  0  0
   -9.1626   18.5144   73.4568 C   0  0  1  0  0  0  0  0  0  0  0  0
   -9.1455   18.4838   75.0126 C   0  0  2  0  0  0  0  0  0  0  0  0
   -8.3048   19.6749   75.5349 C   0  0  1  0  0  0  0  0  0  0  0  0
   -8.9218   21.0361   75.0515 C   0  0  0  0  0  0  0  0  0  0  0  0
   -8.9433   21.0362   73.5081 C   0  0  2  0  0  0  0  0  0  0  0  0
   -8.2754   19.6520   77.0171 N   0  0  0  0  0  0  0  0  0  0  0  0
   -9.5218   22.3094   73.0650 N   0  0  0  0  0  0  0  0  0  0  0  0
   -9.9444   17.4018   72.9687 O   0  0  0  0  0  0  0  0  0  0  0  0
   -8.5645   17.2353   75.4502 O   0  0  0  0  0  0  0  0  0  0  0  0
  1  2  1  0  0  0  0
  1 12  1  1  0  0  0
  1 13  1  0  0  0  0
  2  3  1  0  0  0  0
  2 10  1  1  0  0  0
  4  3  1  1  0  0  0
  4  5  1  0  0  0  0
  4 14  1  0  0  0  0
  5  6  1  0  0  0  0
  5 13  1  6  0  0  0
  6  7  1  0  0  0  0
  6 15  1  6  0  0  0
  7  8  1  0  0  0  0
  7 11  1  6  0  0  0
  8 14  1  0  0  0  0
  8 16  1  1  0  0  0
  9 11  1  0  0  0  0
 17 16  1  1  0  0  0
 17 18  1  0  0  0  0
 17 24  1  0  0  0  0
 18 19  1  0  0  0  0
 18 25  1  1  0  0  0
 19 20  1  0  0  0  0
 19 26  1  6  0  0  0
 20 21  1  0  0  0  0
 20 23  1  1  0  0  0
 21 22  1  6  0  0  0
 21 24  1  0  0  0  0
 22 27  1  0  0  0  0
 28 12  1  6  0  0  0
 28 29  1  0  0  0  0
 28 33  1  0  0  0  0
 29 30  1  0  0  0  0
 29 36  1  1  0  0  0
 30 31  1  0  0  0  0
 30 37  1  6  0  0  0
 31 32  1  0  0  0  0
 31 34  1  1  0  0  0
 32 33  1  0  0  0  0
 33 35  1  1  0  0  0
M  END
>  <CHROM.1>
-55.17748699,168.92751496,-129.75245493,-31.67819278,-118.38202122,64.97064623
-7.66080038,22.28510847,69.16836750,2.03032647,1.02030829,1.82963393

>  <Name>
ligand

>  <RI>
0

>  <Rbt.Current_Directory>
/home/itssahil/PROJECTS/Mol_Feturizer/Test_systems_manuscript/rnas/2g5k

>  <Rbt.Executable>
rbdock ($Id: //depot/dev/client3/rdock/2013.1/src/exe/rbdock.cxx#4 $)

>  <Rbt.Library>
libRbt.so (2013.1, Build901 2013/11/27)

>  <Rbt.Parameter_File>
/export/apps/rDock/src/rDock_2013.1_src/data/scripts/dock_solv.prm

>  <Rbt.Receptor>
prm/blind_docking_80.prm

>  <SCORE>
3.18515

>  <SCORE.INTER>
-8.9042

>  <SCORE.INTER.CONST>
1

>  <SCORE.INTER.POLAR>
0

>  <SCORE.INTER.ROT>
6

>  <SCORE.INTER.SOLV>
17.811

>  <SCORE.INTER.VDW>
-19.4731

>  <SCORE.INTER.norm>
-0.240654

>  <SCORE.INTRA>
10.1026

>  <SCORE.INTRA.DIHEDRAL>
6.10331

>  <SCORE.INTRA.DIHEDRAL.0>
11.3972

>  <SCORE.INTRA.POLAR>
0

>  <SCORE.INTRA.POLAR.0>
0

>  <SCORE.INTRA.REPUL>
0

>  <SCORE.INTRA.REPUL.0>
0

>  <SCORE.INTRA.SOLV>
6.92501

>  <SCORE.INTRA.SOLV.lig_0>
-92.3891

>  <SCORE.INTRA.VDW>
3.58846

>  <SCORE.INTRA.VDW.0>
-2.90606

>  <SCORE.INTRA.norm>
0.273044

>  <SCORE.RESTR>
1.98674

>  <SCORE.RESTR.CAVITY>
1.98674

>  <SCORE.RESTR.norm>
0.0536956

>  <SCORE.SYSTEM>
0

>  <SCORE.SYSTEM.CONST>
0

>  <SCORE.SYSTEM.DIHEDRAL>
0

>  <SCORE.SYSTEM.SOLV>
0

>  <SCORE.SYSTEM.norm>
0

>  <SCORE.heavy>
37

>  <SCORE.norm>
0.0860851

>  <RMSD>
10.807

$$$$
ligand
 OpenBabel02271912133D
libRbt.so/2013.1/901 2013/11/27
 37 40  0  0  0  0  0  0  0  0999 V2000
   -8.7578   19.1667   70.6610 C   0  0  1  0  0  0  0  0  0  0  0  0
   -7.3214   19.6447   71.0174 C   0  0  1  0  0  0  0  0  0  0  0  0
   -7.0725   21.1005   70.5790 C   0  0  0  0  0  0  0  0  0  0  0  0
   -7.3354   21.2185   69.0453 C   0  0  1  0  0  0  0  0  0  0  0  0
   -8.7977   20.7857   68.7020 C   0  0  1  0  0  0  0  0  0  0  0  0
   -9.0434   20.9121   67.1309 C   0  0  1  0  0  0  0  0  0  0  0  0
   -8.7996   22.3877   66.6985 C   0  0  1  0  0  0  0  0  0  0  0  0
   -7.3431   22.7751   67.0949 C   0  0  2  0  0  0  0  0  0  0  0  0
   -8.9994   23.9210   64.6201 C   0  0  0  0  0  0  0  0  0  0  0  0
   -7.0654   19.4905   72.4651 N   0  0  0  0  0  0  0  0  0  0  0  0
   -9.0092   22.5446   65.2105 N   0  0  0  0  0  0  0  0  0  0  0  0
   -9.7709   19.8319   71.4403 O   0  0  0  0  0  0  0  0  0  0  0  0
   -8.9812   19.3931   69.2091 O   0  0  0  0  0  0  0  0  0  0  0  0
   -7.1149   22.6121   68.5367 O   0  0  0  0  0  0  0  0  0  0  0  0
   -8.1213   20.0852   66.4329 O   0  0  0  0  0  0  0  0  0  0  0  0
   -7.0823   24.1268   66.7346 O   0  0  0  0  0  0  0  0  0  0  0  0
   -5.8598   24.3093   65.9788 C   0  0  2  0  0  0  0  0  0  0  0  0
   -4.8327   25.2097   66.7052 C   0  0  1  0  0  0  0  0  0  0  0  0
   -5.3611   26.6760   66.8202 C   0  0  2  0  0  0  0  0  0  0  0  0
   -5.5998   27.2239   65.4278 C   0  0  1  0  0  0  0  0  0  0  0  0
   -6.6557   26.3319   64.7086 C   0  0  1  0  0  0  0  0  0  0  0  0
   -6.9371   26.8066   63.2843 C   0  0  0  0  0  0  0  0  0  0  0  0
   -6.0804   28.6232   65.5277 N   0  0  0  0  0  0  0  0  0  0  0  0
   -6.1612   24.9219   64.6505 O   0  0  0  0  0  0  0  0  0  0  0  0
   -4.5739   24.6146   67.9963 O   0  0  0  0  0  0  0  0  0  0  0  0
   -4.3902   27.4917   67.4798 O   0  0  0  0  0  0  0  0  0  0  0  0
   -5.7740   26.6592   62.5065 O   0  0  0  0  0  0  0  0  0  0  0  0
   -9.7776   19.8448   72.9535 C   0  0  1  0  0  0  0  0  0  0  0  0
   -9.1724   18.5054   73.4562 C   0  0  1  0  0  0  0  0  0  0  0  0
   -9.1637   18.4750   75.0121 C   0  0  2  0  0  0  0  0  0  0  0  0
   -8.3088   19.6541   75.5385 C   0  0  1  0  0  0  0  0  0  0  0  0
   -8.9040   21.0238   75.0518 C   0  0  0  0  0  0  0  0  0  0  0  0
   -8.9175   21.0239   73.5083 C   0  0  2  0  0  0  0  0  0  0  0  0
   -8.2874   19.6310   77.0208 N   0  0  0  0  0  0  0  0  0  0  0  0
   -9.4756   22.3051   73.0621 N   0  0  0  0  0  0  0  0  0  0  0  0
   -9.9675   17.4040   72.9641 O   0  0  0  0  0  0  0  0  0  0  0  0
   -8.6028   17.2183   75.4527 O   0  0  0  0  0  0  0  0  0  0  0  0
  1  2  1  0  0  0  0
  1 12  1  1  0  0  0
  1 13  1  0  0  0  0
  2  3  1  0  0  0  0
  2 10  1  1  0  0  0
  4  3  1  1  0  0  0
  4  5  1  0  0  0  0
  4 14  1  0  0  0  0
  5  6  1  0  0  0  0
  5 13  1  6  0  0  0
  6  7  1  0  0  0  0
  6 15  1  6  0  0  0
  7  8  1  0  0  0  0
  7 11  1  6  0  0  0
  8 14  1  0  0  0  0
  8 16  1  1  0  0  0
  9 11  1  0  0  0  0
 17 16  1  1  0  0  0
 17 18  1  0  0  0  0
 17 24  1  0  0  0  0
 18 19  1  0  0  0  0
 18 25  1  1  0  0  0
 19 20  1  0  0  0  0
 19 26  1  6  0  0  0
 20 21  1  0  0  0  0
 20 23  1  1  0  0  0
 21 22  1  6  0  0  0
 21 24  1  0  0  0  0
 22 27  1  0  0  0  0
 28 12  1  6  0  0  0
 28 29  1  0  0  0  0
 28 33  1  0  0  0  0
 29 30  1  0  0  0  0
 29 36  1  6  0  0  0
 30 31  1  0  0  0  0
 30 37  1  6  0  0  0
 31 32  1  0  0  0  0
 31 34  1  1  0  0  0
 32 33  1  0  0  0  0
 33 35  1  1  0  0  0
M  END
>  <CHROM.1>
-55.47804299,172.08389627,-129.66550909,-32.56595731,-118.19283769,64.97190939
-7.64689350,22.27829904,69.16138545,2.03580462,1.02411990,1.82282976

>  <Name>
ligand

>  <RI>
0

>  <Rbt.Current_Directory>
/home/itssahil/PROJECTS/Mol_Feturizer/Test_systems_manuscript/rnas/2g5k

>  <Rbt.Executable>
rbdock ($Id: //depot/dev/client3/rdock/2013.1/src/exe/rbdock.cxx#4 $)

>  <Rbt.Library>
libRbt.so (2013.1, Build901 2013/11/27)

>  <Rbt.Parameter_File>
/export/apps/rDock/src/rDock_2013.1_src/data/scripts/dock_solv.prm

>  <Rbt.Receptor>
prm/blind_docking_80.prm

>  <SCORE>
3.76577

>  <SCORE.INTER>
-8.19449

>  <SCORE.INTER.CONST>
1

>  <SCORE.INTER.POLAR>
0

>  <SCORE.INTER.ROT>
6

>  <SCORE.INTER.SOLV>
17.9844

>  <SCORE.INTER.VDW>
-19.0578

>  <SCORE.INTER.norm>
-0.221473

>  <SCORE.INTRA>
10.1109

>  <SCORE.INTRA.DIHEDRAL>
5.88092

>  <SCORE.INTRA.DIHEDRAL.0>
11.3972

>  <SCORE.INTRA.POLAR>
0

>  <SCORE.INTRA.POLAR.0>
0

>  <SCORE.INTRA.REPUL>
0

>  <SCORE.INTRA.REPUL.0>
0

>  <SCORE.INTRA.SOLV>
6.94932

>  <SCORE.INTRA.SOLV.lig_0>
-92.3891

>  <SCORE.INTRA.VDW>
3.69582

>  <SCORE.INTRA.VDW.0>
-2.90606

>  <SCORE.INTRA.norm>
0.273269

>  <SCORE.RESTR>
1.84932

>  <SCORE.RESTR.CAVITY>
1.84932

>  <SCORE.RESTR.norm>
0.0499817

>  <SCORE.SYSTEM>
0

>  <SCORE.SYSTEM.CONST>
0

>  <SCORE.SYSTEM.DIHEDRAL>
0

>  <SCORE.SYSTEM.SOLV>
0

>  <SCORE.SYSTEM.norm>
0

>  <SCORE.heavy>
37

>  <SCORE.norm>
0.101778

>  <RMSD>
10.808

$$$$
ligand
 OpenBabel02271912133D
libRbt.so/2013.1/901 2013/11/27
 37 40  0  0  0  0  0  0  0  0999 V2000
   -8.7844   19.1455   70.6693 C   0  0  1  0  0  0  0  0  0  0  0  0
   -7.3343   19.6024   70.9962 C   0  0  1  0  0  0  0  0  0  0  0  0
   -7.0748   21.0562   70.5574 C   0  0  0  0  0  0  0  0  0  0  0  0
   -7.3688   21.1833   69.0301 C   0  0  1  0  0  0  0  0  0  0  0  0
   -8.8440   20.7719   68.7169 C   0  0  1  0  0  0  0  0  0  0  0  0
   -9.1216   20.9074   67.1519 C   0  0  1  0  0  0  0  0  0  0  0  0
   -8.8668   22.3811   66.7193 C   0  0  1  0  0  0  0  0  0  0  0  0
   -7.3968   22.7470   67.0856 C   0  0  2  0  0  0  0  0  0  0  0  0
   -9.1661   23.9286   64.6635 C   0  0  0  0  0  0  0  0  0  0  0  0
   -7.0494   19.4394   72.4375 N   0  0  0  0  0  0  0  0  0  0  0  0
   -9.1060   22.5462   65.2366 N   0  0  0  0  0  0  0  0  0  0  0  0
   -9.7714   19.8217   71.4724 O   0  0  0  0  0  0  0  0  0  0  0  0
   -9.0358   19.3802   69.2232 O   0  0  0  0  0  0  0  0  0  0  0  0
   -7.1400   22.5757   68.5215 O   0  0  0  0  0  0  0  0  0  0  0  0
   -8.2262   20.0704   66.4315 O   0  0  0  0  0  0  0  0  0  0  0  0
   -7.1252   24.0963   66.7242 O   0  0  0  0  0  0  0  0  0  0  0  0
   -5.9098   24.2662   65.9541 C   0  0  2  0  0  0  0  0  0  0  0  0
   -4.8600   25.1455   66.6741 C   0  0  1  0  0  0  0  0  0  0  0  0
   -5.3647   26.6186   66.8071 C   0  0  2  0  0  0  0  0  0  0  0  0
   -5.6129   27.1808   65.4221 C   0  0  1  0  0  0  0  0  0  0  0  0
   -6.6912   26.3105   64.7098 C   0  0  1  0  0  0  0  0  0  0  0  0
   -6.9835   26.8005   63.2929 C   0  0  0  0  0  0  0  0  0  0  0  0
   -6.0709   28.5864   65.5388 N   0  0  0  0  0  0  0  0  0  0  0  0
   -6.2189   24.8937   64.6345 O   0  0  0  0  0  0  0  0  0  0  0  0
   -4.5938   24.5364   67.9572 O   0  0  0  0  0  0  0  0  0  0  0  0
   -4.3732   27.4144   67.4603 O   0  0  0  0  0  0  0  0  0  0  0  0
   -5.8326   26.6425   62.4992 O   0  0  0  0  0  0  0  0  0  0  0  0
   -9.7435   19.8321   72.9854 C   0  0  1  0  0  0  0  0  0  0  0  0
   -9.1248   18.4928   73.4717 C   0  0  1  0  0  0  0  0  0  0  0  0
   -9.0805   18.4597   75.0270 C   0  0  2  0  0  0  0  0  0  0  0  0
   -8.2157   19.6393   75.5357 C   0  0  1  0  0  0  0  0  0  0  0  0
   -8.8240   21.0089   75.0652 C   0  0  0  0  0  0  0  0  0  0  0  0
   -8.8728   21.0116   73.5224 C   0  0  2  0  0  0  0  0  0  0  0  0
   -8.1604   19.6138   77.0172 N   0  0  0  0  0  0  0  0  0  0  0  0
   -9.4429   22.2927   73.0912 N   0  0  0  0  0  0  0  0  0  0  0  0
   -9.9292   17.3909   72.9961 O   0  0  0  0  0  0  0  0  0  0  0  0
   -8.5078   17.2033   75.4525 O   0  0  0  0  0  0  0  0  0  0  0  0
  1  2  1  0  0  0  0
  1 12  1  1  0  0  0
  1 13  1  0  0  0  0
  2  3  1  0  0  0  0
  2 10  1  1  0  0  0
  4  3  1  1  0  0  0
  4  5  1  0  0  0  0
  4 14  1  0  0  0  0
  5  6  1  0  0  0  0
  5 13  1  6  0  0  0
  6  7  1  0  0  0  0
  6 15  1  6  0  0  0
  7  8  1  0  0  0  0
  7 11  1  6  0  0  0
  8 14  1  0  0  0  0
  8 16  1  1  0  0  0
  9 11  1  0  0  0  0
 17 16  1  1  0  0  0
 17 18  1  0  0  0  0
 17 24  1  0  0  0  0
 18 19  1  0  0  0  0
 18 25  1  1  0  0  0
 19 20  1  0  0  0  0
 19 26  1  6  0  0  0
 20 21  1  0  0  0  0
 20 23  1  1  0  0  0
 21 22  1  6  0  0  0
 21 24  1  0  0  0  0
 22 27  1  0  0  0  0
 28 12  1  6  0  0  0
 28 29  1  0  0  0  0
 28 33  1  0  0  0  0
 29 30  1  0  0  0  0
 29 36  1  1  0  0  0
 30 31  1  0  0  0  0
 30 37  1  6  0  0  0
 31 32  1  0  0  0  0
 31 34  1  1  0  0  0
 32 33  1  0  0  0  0
 33 35  1  1  0  0  0
M  END
>  <CHROM.1>
-55.32406716,168.70173494,-130.24122075,-31.76905652,-117.77492145,64.93418788
-7.65860450,22.25235866,69.16311576,2.00364148,1.00506931,1.85384817

>  <Name>
ligand

>  <RI>
0

>  <Rbt.Current_Directory>
/home/itssahil/PROJECTS/Mol_Feturizer/Test_systems_manuscript/rnas/2g5k

>  <Rbt.Executable>
rbdock ($Id: //depot/dev/client3/rdock/2013.1/src/exe/rbdock.cxx#4 $)

>  <Rbt.Library>
libRbt.so (2013.1, Build901 2013/11/27)

>  <Rbt.Parameter_File>
/export/apps/rDock/src/rDock_2013.1_src/data/scripts/dock_solv.prm

>  <Rbt.Receptor>
prm/blind_docking_80.prm

>  <SCORE>
3.62793

>  <SCORE.INTER>
-8.24923

>  <SCORE.INTER.CONST>
1

>  <SCORE.INTER.POLAR>
0

>  <SCORE.INTER.ROT>
6

>  <SCORE.INTER.SOLV>
18.2487

>  <SCORE.INTER.VDW>
-19.1824

>  <SCORE.INTER.norm>
-0.222952

>  <SCORE.INTRA>
9.91437

>  <SCORE.INTRA.DIHEDRAL>
6.02484

>  <SCORE.INTRA.DIHEDRAL.0>
11.3972

>  <SCORE.INTRA.POLAR>
0

>  <SCORE.INTRA.POLAR.0>
0

>  <SCORE.INTRA.REPUL>
0

>  <SCORE.INTRA.REPUL.0>
0

>  <SCORE.INTRA.SOLV>
6.90856

>  <SCORE.INTRA.SOLV.lig_0>
-92.3891

>  <SCORE.INTRA.VDW>
3.44766

>  <SCORE.INTRA.VDW.0>
-2.90606

>  <SCORE.INTRA.norm>
0.267956

>  <SCORE.RESTR>
1.96279

>  <SCORE.RESTR.CAVITY>
1.96279

>  <SCORE.RESTR.norm>
0.0530483

>  <SCORE.SYSTEM>
0

>  <SCORE.SYSTEM.CONST>
0

>  <SCORE.SYSTEM.DIHEDRAL>
0

>  <SCORE.SYSTEM.SOLV>
0

>  <SCORE.SYSTEM.norm>
0

>  <SCORE.heavy>
37

>  <SCORE.norm>
0.0980521

>  <RMSD>
10.809

$$$$
ligand
 OpenBabel02271912133D
libRbt.so/2013.1/901 2013/11/27
 37 40  0  0  0  0  0  0  0  0999 V2000
   -8.7690   19.1453   70.6866 C   0  0  1  0  0  0  0  0  0  0  0  0
   -7.3268   19.6111   71.0354 C   0  0  1  0  0  0  0  0  0  0  0  0
   -7.0708   21.0677   70.6038 C   0  0  0  0  0  0  0  0  0  0  0  0
   -7.3437   21.1966   69.0728 C   0  0  1  0  0  0  0  0  0  0  0  0
   -8.8114   20.7761   68.7373 C   0  0  1  0  0  0  0  0  0  0  0  0
   -9.0674   20.9136   67.1688 C   0  0  1  0  0  0  0  0  0  0  0  0
   -8.8163   22.3899   66.7434 C   0  0  1  0  0  0  0  0  0  0  0  0
   -7.3543   22.7647   67.1317 C   0  0  2  0  0  0  0  0  0  0  0  0
   -9.0767   23.9400   64.6842 C   0  0  0  0  0  0  0  0  0  0  0  0
   -7.0616   19.4466   72.4804 N   0  0  0  0  0  0  0  0  0  0  0  0
   -9.0353   22.5571   65.2578 N   0  0  0  0  0  0  0  0  0  0  0  0
   -9.7719   19.8130   71.4770 O   0  0  0  0  0  0  0  0  0  0  0  0
   -9.0011   19.3819   69.2376 O   0  0  0  0  0  0  0  0  0  0  0  0
   -7.1170   22.5917   68.5708 O   0  0  0  0  0  0  0  0  0  0  0  0
   -8.1561   20.0843   66.4595 O   0  0  0  0  0  0  0  0  0  0  0  0
   -7.0865   24.1167   66.7774 O   0  0  0  0  0  0  0  0  0  0  0  0
   -5.8735   24.2938   66.0051 C   0  0  2  0  0  0  0  0  0  0  0  0
   -4.8345   25.1932   66.7156 C   0  0  1  0  0  0  0  0  0  0  0  0
   -5.3572   26.6613   66.8337 C   0  0  2  0  0  0  0  0  0  0  0  0
   -5.6128   27.2063   65.4432 C   0  0  1  0  0  0  0  0  0  0  0  0
   -6.6805   26.3154   64.7403 C   0  0  1  0  0  0  0  0  0  0  0  0
   -6.9793   26.7873   63.3186 C   0  0  0  0  0  0  0  0  0  0  0  0
   -6.0881   28.6071   65.5458 N   0  0  0  0  0  0  0  0  0  0  0  0
   -6.1908   24.9038   64.6793 O   0  0  0  0  0  0  0  0  0  0  0  0
   -4.5604   24.6007   68.0047 O   0  0  0  0  0  0  0  0  0  0  0  0
   -4.3755   27.4759   67.4784 O   0  0  0  0  0  0  0  0  0  0  0  0
   -5.8218   26.6514   62.5304 O   0  0  0  0  0  0  0  0  0  0  0  0
   -9.7594   19.8297   72.9901 C   0  0  1  0  0  0  0  0  0  0  0  0
   -9.1525   18.4895   73.4884 C   0  0  1  0  0  0  0  0  0  0  0  0
   -9.1242   18.4628   75.0442 C   0  0  2  0  0  0  0  0  0  0  0  0
   -8.2588   19.6403   75.5568 C   0  0  1  0  0  0  0  0  0  0  0  0
   -8.8554   21.0109   75.0742 C   0  0  0  0  0  0  0  0  0  0  0  0
   -8.8885   21.0072   73.5310 C   0  0  2  0  0  0  0  0  0  0  0  0
   -8.2187   19.6208   77.0388 N   0  0  0  0  0  0  0  0  0  0  0  0
   -9.4478   22.2892   73.0887 N   0  0  0  0  0  0  0  0  0  0  0  0
   -9.9574   17.3896   73.0092 O   0  0  0  0  0  0  0  0  0  0  0  0
   -8.5620   17.2053   75.4808 O   0  0  0  0  0  0  0  0  0  0  0  0
  1  2  1  0  0  0  0
  1 12  1  1  0  0  0
  1 13  1  0  0  0  0
  2  3  1  0  0  0  0
  2 10  1  1  0  0  0
  4  3  1  1  0  0  0
  4  5  1  0  0  0  0
  4 14  1  0  0  0  0
  5  6  1  0  0  0  0
  5 13  1  6  0  0  0
  6  7  1  0  0  0  0
  6 15  1  6  0  0  0
  7  8  1  0  0  0  0
  7 11  1  6  0  0  0
  8 14  1  0  0  0  0
  8 16  1  1  0  0  0
  9 11  1  0  0  0  0
 17 16  1  1  0  0  0
 17 18  1  0  0  0  0
 17 24  1  0  0  0  0
 18 19  1  0  0  0  0
 18 25  1  1  0  0  0
 19 20  1  0  0  0  0
 19 26  1  6  0  0  0
 20 21  1  0  0  0  0
 20 23  1  1  0  0  0
 21 22  1  6  0  0  0
 21 24  1  0  0  0  0
 22 27  1  0  0  0  0
 28 12  1  6  0  0  0
 28 29  1  0  0  0  0
 28 33  1  0  0  0  0
 29 30  1  0  0  0  0
 29 36  1  1  0  0  0
 30 31  1  0  0  0  0
 30 37  1  6  0  0  0
 31 32  1  0  0  0  0
 31 34  1  1  0  0  0
 32 33  1  0  0  0  0
 33 35  1  1  0  0  0
M  END
>  <CHROM.1>
-54.79293406,169.57223654,-129.21209114,-32.73024184,-118.86956704,64.18609642
-7.64853864,22.26457317,69.18949689,2.01978550,1.01487045,1.84002721

>  <Name>
ligand

>  <RI>
0

>  <Rbt.Current_Directory>
/home/itssahil/PROJECTS/Mol_Feturizer/Test_systems_manuscript/rnas/2g5k

>  <Rbt.Executable>
rbdock ($Id: //depot/dev/client3/rdock/2013.1/src/exe/rbdock.cxx#4 $)

>  <Rbt.Library>
libRbt.so (2013.1, Build901 2013/11/27)

>  <Rbt.Parameter_File>
/export/apps/rDock/src/rDock_2013.1_src/data/scripts/dock_solv.prm

>  <Rbt.Receptor>
prm/blind_docking_80.prm

>  <SCORE>
3.30711

>  <SCORE.INTER>
-8.83132

>  <SCORE.INTER.CONST>
1

>  <SCORE.INTER.POLAR>
0

>  <SCORE.INTER.ROT>
6

>  <SCORE.INTER.SOLV>
17.9937

>  <SCORE.INTER.VDW>
-19.4854

>  <SCORE.INTER.norm>
-0.238684

>  <SCORE.INTRA>
10.1382

>  <SCORE.INTRA.DIHEDRAL>
5.9432

>  <SCORE.INTRA.DIHEDRAL.0>
11.3972

>  <SCORE.INTRA.POLAR>
0

>  <SCORE.INTRA.POLAR.0>
0

>  <SCORE.INTRA.REPUL>
0

>  <SCORE.INTRA.REPUL.0>
0

>  <SCORE.INTRA.SOLV>
7.0085

>  <SCORE.INTRA.SOLV.lig_0>
-92.3891

>  <SCORE.INTRA.VDW>
3.66232

>  <SCORE.INTRA.VDW.0>
-2.90606

>  <SCORE.INTRA.norm>
0.274005

>  <SCORE.RESTR>
2.00026

>  <SCORE.RESTR.CAVITY>
2.00026

>  <SCORE.RESTR.norm>
0.054061

>  <SCORE.SYSTEM>
0

>  <SCORE.SYSTEM.CONST>
0

>  <SCORE.SYSTEM.DIHEDRAL>
0

>  <SCORE.SYSTEM.SOLV>
0

>  <SCORE.SYSTEM.norm>
0

>  <SCORE.heavy>
37

>  <SCORE.norm>
0.0893813

>  <RMSD>
10.814

$$$$
ligand
 OpenBabel02271912133D
libRbt.so/2013.1/901 2013/11/27
 37 40  0  0  0  0  0  0  0  0999 V2000
   -8.7700   19.1424   70.6266 C   0  0  1  0  0  0  0  0  0  0  0  0
   -7.3249   19.6020   70.9718 C   0  0  1  0  0  0  0  0  0  0  0  0
   -7.0654   21.0591   70.5444 C   0  0  0  0  0  0  0  0  0  0  0  0
   -7.3433   21.1943   69.0147 C   0  0  1  0  0  0  0  0  0  0  0  0
   -8.8137   20.7801   68.6832 C   0  0  1  0  0  0  0  0  0  0  0  0
   -9.0748   20.9238   67.1160 C   0  0  1  0  0  0  0  0  0  0  0  0
   -8.8200   22.4008   66.6948 C   0  0  1  0  0  0  0  0  0  0  0  0
   -7.3554   22.7692   67.0791 C   0  0  2  0  0  0  0  0  0  0  0  0
   -9.0610   23.9579   64.6387 C   0  0  0  0  0  0  0  0  0  0  0  0
   -7.0551   19.4315   72.4152 N   0  0  0  0  0  0  0  0  0  0  0  0
   -9.0438   22.5739   65.2106 N   0  0  0  0  0  0  0  0  0  0  0  0
   -9.7677   19.8108   71.4229 O   0  0  0  0  0  0  0  0  0  0  0  0
   -9.0064   19.3848   69.1793 O   0  0  0  0  0  0  0  0  0  0  0  0
   -7.1135   22.5903   68.5168 O   0  0  0  0  0  0  0  0  0  0  0  0
   -8.1690   20.0939   66.4006 O   0  0  0  0  0  0  0  0  0  0  0  0
   -7.0842   24.1214   66.7286 O   0  0  0  0  0  0  0  0  0  0  0  0
   -5.8780   24.2960   65.9451 C   0  0  2  0  0  0  0  0  0  0  0  0
   -4.8199   25.1713   66.6576 C   0  0  1  0  0  0  0  0  0  0  0  0
   -5.3230   26.6435   66.8049 C   0  0  2  0  0  0  0  0  0  0  0  0
   -5.5877   27.2136   65.4262 C   0  0  1  0  0  0  0  0  0  0  0  0
   -6.6743   26.3472   64.7218 C   0  0  1  0  0  0  0  0  0  0  0  0
   -6.9835   26.8453   63.3113 C   0  0  0  0  0  0  0  0  0  0  0  0
   -6.0445   28.6184   65.5565 N   0  0  0  0  0  0  0  0  0  0  0  0
   -6.2028   24.9309   64.6329 O   0  0  0  0  0  0  0  0  0  0  0  0
   -4.5384   24.5550   67.9339 O   0  0  0  0  0  0  0  0  0  0  0  0
   -4.3239   27.4357   67.4509 O   0  0  0  0  0  0  0  0  0  0  0  0
   -5.8492   26.6712   62.4974 O   0  0  0  0  0  0  0  0  0  0  0  0
   -9.7664   19.7971   72.9361 C   0  0  1  0  0  0  0  0  0  0  0  0
   -9.1746   18.4420   73.4118 C   0  0  1  0  0  0  0  0  0  0  0  0
   -9.1583   18.3840   74.9669 C   0  0  2  0  0  0  0  0  0  0  0  0
   -8.2868   19.5435   75.5094 C   0  0  1  0  0  0  0  0  0  0  0  0
   -8.8682   20.9285   75.0501 C   0  0  0  0  0  0  0  0  0  0  0  0
   -8.8897   20.9560   73.5069 C   0  0  2  0  0  0  0  0  0  0  0  0
   -8.2581   19.4940   76.9910 N   0  0  0  0  0  0  0  0  0  0  0  0
   -9.4348   22.2514   73.0863 N   0  0  0  0  0  0  0  0  0  0  0  0
   -9.9852   17.3589   72.9048 O   0  0  0  0  0  0  0  0  0  0  0  0
   -8.6101   17.1133   75.3824 O   0  0  0  0  0  0  0  0  0  0  0  0
  1  2  1  0  0  0  0
  1 12  1  1  0  0  0
  1 13  1  0  0  0  0
  2  3  1  0  0  0  0
  2 10  1  1  0  0  0
  4  3  1  1  0  0  0
  4  5  1  0  0  0  0
  4 14  1  0  0  0  0
  5  6  1  0  0  0  0
  5 13  1  6  0  0  0
  6  7  1  0  0  0  0
  6 15  1  6  0  0  0
  7  8  1  0  0  0  0
  7 11  1  6  0  0  0
  8 14  1  0  0  0  0
  8 16  1  1  0  0  0
  9 11  1  0  0  0  0
 17 16  1  1  0  0  0
 17 18  1  0  0  0  0
 17 24  1  0  0  0  0
 18 19  1  0  0  0  0
 18 25  1  1  0  0  0
 19 20  1  0  0  0  0
 19 26  1  6  0  0  0
 20 21  1  0  0  0  0
 20 23  1  1  0  0  0
 21 22  1  6  0  0  0
 21 24  1  0  0  0  0
 22 27  1  0  0  0  0
 28 12  1  6  0  0  0
 28 29  1  0  0  0  0
 28 33  1  0  0  0  0
 29 30  1  0  0  0  0
 29 36  1  6  0  0  0
 30 31  1  0  0  0  0
 30 37  1  6  0  0  0
 31 32  1  0  0  0  0
 31 34  1  1  0  0  0
 32 33  1  0  0  0  0
 33 35  1  1  0  0  0
M  END
>  <CHROM.1>
-56.15766711,170.52166638,-128.83015378,-32.26782849,-118.10595374,65.91324754
-7.65026170,22.24843468,69.14060205,2.01906334,1.00822126,1.84802264

>  <Name>
ligand

>  <RI>
0

>  <Rbt.Current_Directory>
/home/itssahil/PROJECTS/Mol_Feturizer/Test_systems_manuscript/rnas/2g5k

>  <Rbt.Executable>
rbdock ($Id: //depot/dev/client3/rdock/2013.1/src/exe/rbdock.cxx#4 $)

>  <Rbt.Library>
libRbt.so (2013.1, Build901 2013/11/27)

>  <Rbt.Parameter_File>
/export/apps/rDock/src/rDock_2013.1_src/data/scripts/dock_solv.prm

>  <Rbt.Receptor>
prm/blind_docking_80.prm

>  <SCORE>
3.29836

>  <SCORE.INTER>
-8.55781

>  <SCORE.INTER.CONST>
1

>  <SCORE.INTER.POLAR>
0

>  <SCORE.INTER.ROT>
6

>  <SCORE.INTER.SOLV>
17.8819

>  <SCORE.INTER.VDW>
-19.2658

>  <SCORE.INTER.norm>
-0.231292

>  <SCORE.INTRA>
9.828

>  <SCORE.INTRA.DIHEDRAL>
6.03857

>  <SCORE.INTRA.DIHEDRAL.0>
11.3972

>  <SCORE.INTRA.POLAR>
0

>  <SCORE.INTRA.POLAR.0>
0

>  <SCORE.INTRA.REPUL>
0

>  <SCORE.INTRA.REPUL.0>
0

>  <SCORE.INTRA.SOLV>
6.88641

>  <SCORE.INTRA.SOLV.lig_0>
-92.3891

>  <SCORE.INTRA.VDW>
3.36551

>  <SCORE.INTRA.VDW.0>
-2.90606

>  <SCORE.INTRA.norm>
0.265622

>  <SCORE.RESTR>
2.02817

>  <SCORE.RESTR.CAVITY>
2.02817

>  <SCORE.RESTR.norm>
0.0548153

>  <SCORE.SYSTEM>
0

>  <SCORE.SYSTEM.CONST>
0

>  <SCORE.SYSTEM.DIHEDRAL>
0

>  <SCORE.SYSTEM.SOLV>
0

>  <SCORE.SYSTEM.norm>
0

>  <SCORE.heavy>
37

>  <SCORE.norm>
0.0891448

>  <RMSD>
10.814

$$$$
ligand
 OpenBabel02271912133D
libRbt.so/2013.1/901 2013/11/27
 37 40  0  0  0  0  0  0  0  0999 V2000
   -8.8098   19.1026   70.6568 C   0  0  1  0  0  0  0  0  0  0  0  0
   -7.3591   19.5416   71.0050 C   0  0  1  0  0  0  0  0  0  0  0  0
   -7.0791   20.9960   70.5811 C   0  0  0  0  0  0  0  0  0  0  0  0
   -7.3532   21.1384   69.0514 C   0  0  1  0  0  0  0  0  0  0  0  0
   -8.8286   20.7450   68.7170 C   0  0  1  0  0  0  0  0  0  0  0  0
   -9.0857   20.8958   67.1499 C   0  0  1  0  0  0  0  0  0  0  0  0
   -8.8103   22.3701   66.7323 C   0  0  1  0  0  0  0  0  0  0  0  0
   -7.3412   22.7176   67.1194 C   0  0  2  0  0  0  0  0  0  0  0  0
   -9.0049   23.9333   64.6758 C   0  0  0  0  0  0  0  0  0  0  0  0
   -7.0935   19.3642   72.4483 N   0  0  0  0  0  0  0  0  0  0  0  0
   -9.0297   22.5495   65.2483 N   0  0  0  0  0  0  0  0  0  0  0  0
   -9.7994   19.7827   71.4533 O   0  0  0  0  0  0  0  0  0  0  0  0
   -9.0410   19.3514   69.2098 O   0  0  0  0  0  0  0  0  0  0  0  0
   -7.1037   22.5322   68.5569 O   0  0  0  0  0  0  0  0  0  0  0  0
   -8.1903   20.0552   66.4337 O   0  0  0  0  0  0  0  0  0  0  0  0
   -7.0512   24.0668   66.7722 O   0  0  0  0  0  0  0  0  0  0  0  0
   -5.7838   24.2402   66.0918 C   0  0  2  0  0  0  0  0  0  0  0  0
   -4.8192   25.1835   66.8490 C   0  0  1  0  0  0  0  0  0  0  0  0
   -5.3736   26.6444   66.8726 C   0  0  2  0  0  0  0  0  0  0  0  0
   -5.5270   27.1360   65.4476 C   0  0  1  0  0  0  0  0  0  0  0  0
   -6.5209   26.2010   64.6954 C   0  0  1  0  0  0  0  0  0  0  0  0
   -6.7137   26.6176   63.2385 C   0  0  0  0  0  0  0  0  0  0  0  0
   -6.0318   28.5302   65.4619 N   0  0  0  0  0  0  0  0  0  0  0  0
   -6.0049   24.7978   64.7241 O   0  0  0  0  0  0  0  0  0  0  0  0
   -4.6385   24.6413   68.1762 O   0  0  0  0  0  0  0  0  0  0  0  0
   -4.4595   27.4996   67.5628 O   0  0  0  0  0  0  0  0  0  0  0  0
   -7.6901   27.6282   63.1689 O   0  0  0  0  0  0  0  0  0  0  0  0
   -9.7851   19.7878   72.9665 C   0  0  1  0  0  0  0  0  0  0  0  0
   -9.1808   18.4423   73.4538 C   0  0  1  0  0  0  0  0  0  0  0  0
   -9.1508   18.4037   75.0093 C   0  0  2  0  0  0  0  0  0  0  0  0
   -8.2819   19.5751   75.5299 C   0  0  1  0  0  0  0  0  0  0  0  0
   -8.8758   20.9508   75.0586 C   0  0  0  0  0  0  0  0  0  0  0  0
   -8.9106   20.9590   73.5154 C   0  0  2  0  0  0  0  0  0  0  0  0
   -8.2402   19.5442   77.0117 N   0  0  0  0  0  0  0  0  0  0  0  0
   -9.4674   22.2457   73.0836 N   0  0  0  0  0  0  0  0  0  0  0  0
   -9.9889   17.3481   72.9672 O   0  0  0  0  0  0  0  0  0  0  0  0
   -8.5911   17.1416   75.4357 O   0  0  0  0  0  0  0  0  0  0  0  0
  1  2  1  0  0  0  0
  1 12  1  1  0  0  0
  1 13  1  0  0  0  0
  2  3  1  0  0  0  0
  2 10  1  1  0  0  0
  4  3  1  1  0  0  0
  4  5  1  0  0  0  0
  4 14  1  0  0  0  0
  5  6  1  0  0  0  0
  5 13  1  6  0  0  0
  6  7  1  0  0  0  0
  6 15  1  6  0  0  0
  7  8  1  0  0  0  0
  7 11  1  6  0  0  0
  8 14  1  0  0  0  0
  8 16  1  1  0  0  0
  9 11  1  0  0  0  0
 17 16  1  1  0  0  0
 17 18  1  0  0  0  0
 17 24  1  0  0  0  0
 18 19  1  0  0  0  0
 18 25  1  1  0  0  0
 19 20  1  0  0  0  0
 19 26  1  1  0  0  0
 20 21  1  0  0  0  0
 20 23  1  1  0  0  0
 21 22  1  6  0  0  0
 21 24  1  0  0  0  0
 22 27  1  0  0  0  0
 28 12  1  6  0  0  0
 28 29  1  0  0  0  0
 28 33  1  0  0  0  0
 29 30  1  0  0  0  0
 29 36  1  1  0  0  0
 30 31  1  0  0  0  0
 30 37  1  6  0  0  0
 31 32  1  0  0  0  0
 31 34  1  1  0  0  0
 32 33  1  0  0  0  0
 33 35  1  1  0  0  0
M  END
>  <CHROM.1>
-54.94138643,171.51105473,-133.91003248,-31.80602075,-120.54354183,-84.14198359
-7.69747230,22.24771539,69.20341291,1.99396870,1.01278446,1.87941895

>  <Name>
ligand

>  <RI>
0

>  <Rbt.Current_Directory>
/home/itssahil/PROJECTS/Mol_Feturizer/Test_systems_manuscript/rnas/2g5k

>  <Rbt.Executable>
rbdock ($Id: //depot/dev/client3/rdock/2013.1/src/exe/rbdock.cxx#4 $)

>  <Rbt.Library>
libRbt.so (2013.1, Build901 2013/11/27)

>  <Rbt.Parameter_File>
/export/apps/rDock/src/rDock_2013.1_src/data/scripts/dock_solv.prm

>  <Rbt.Receptor>
prm/blind_docking_80.prm

>  <SCORE>
4.54202

>  <SCORE.INTER>
-8.27957

>  <SCORE.INTER.CONST>
1

>  <SCORE.INTER.POLAR>
0

>  <SCORE.INTER.ROT>
6

>  <SCORE.INTER.SOLV>
17.9466

>  <SCORE.INTER.VDW>
-19.1019

>  <SCORE.INTER.norm>
-0.223772

>  <SCORE.INTRA>
10.9644

>  <SCORE.INTRA.DIHEDRAL>
7.35478

>  <SCORE.INTRA.DIHEDRAL.0>
11.3972

>  <SCORE.INTRA.POLAR>
0

>  <SCORE.INTRA.POLAR.0>
0

>  <SCORE.INTRA.REPUL>
0

>  <SCORE.INTRA.REPUL.0>
0

>  <SCORE.INTRA.SOLV>
7.17998

>  <SCORE.INTRA.SOLV.lig_0>
-92.3891

>  <SCORE.INTRA.VDW>
3.69702

>  <SCORE.INTRA.VDW.0>
-2.90606

>  <SCORE.INTRA.norm>
0.296335

>  <SCORE.RESTR>
1.85718

>  <SCORE.RESTR.CAVITY>
1.85718

>  <SCORE.RESTR.norm>
0.0501941

>  <SCORE.SYSTEM>
0

>  <SCORE.SYSTEM.CONST>
0

>  <SCORE.SYSTEM.DIHEDRAL>
0

>  <SCORE.SYSTEM.SOLV>
0

>  <SCORE.SYSTEM.norm>
0

>  <SCORE.heavy>
37

>  <SCORE.norm>
0.122757

>  <RMSD>
10.814

$$$$
ligand
 OpenBabel02271912133D
libRbt.so/2013.1/901 2013/11/27
 37 40  0  0  0  0  0  0  0  0999 V2000
   -8.7799   19.1583   70.6810 C   0  0  1  0  0  0  0  0  0  0  0  0
   -7.3453   19.6364   71.0443 C   0  0  1  0  0  0  0  0  0  0  0  0
   -7.0954   21.0931   70.6098 C   0  0  0  0  0  0  0  0  0  0  0  0
   -7.3518   21.2139   69.0753 C   0  0  1  0  0  0  0  0  0  0  0  0
   -8.8124   20.7810   68.7249 C   0  0  1  0  0  0  0  0  0  0  0  0
   -9.0515   20.9103   67.1530 C   0  0  1  0  0  0  0  0  0  0  0  0
   -8.8066   22.3869   66.7245 C   0  0  1  0  0  0  0  0  0  0  0  0
   -7.3520   22.7743   67.1279 C   0  0  2  0  0  0  0  0  0  0  0  0
   -9.0898   23.9272   64.6611 C   0  0  0  0  0  0  0  0  0  0  0  0
   -7.0954   19.4795   72.4928 N   0  0  0  0  0  0  0  0  0  0  0  0
   -9.0100   22.5466   65.2359 N   0  0  0  0  0  0  0  0  0  0  0  0
   -9.7967   19.8214   71.4572 O   0  0  0  0  0  0  0  0  0  0  0  0
   -8.9972   19.3874   69.2286 O   0  0  0  0  0  0  0  0  0  0  0  0
   -7.1299   22.6087   68.5703 O   0  0  0  0  0  0  0  0  0  0  0  0
   -8.1259   20.0853   66.4574 O   0  0  0  0  0  0  0  0  0  0  0  0
   -7.0905   24.1269   66.7713 O   0  0  0  0  0  0  0  0  0  0  0  0
   -5.8745   24.3090   66.0048 C   0  0  2  0  0  0  0  0  0  0  0  0
   -4.8362   25.1995   66.7276 C   0  0  1  0  0  0  0  0  0  0  0  0
   -5.3565   26.6674   66.8582 C   0  0  2  0  0  0  0  0  0  0  0  0
   -5.6062   27.2263   65.4722 C   0  0  1  0  0  0  0  0  0  0  0  0
   -6.6732   26.3445   64.7570 C   0  0  1  0  0  0  0  0  0  0  0  0
   -6.9662   26.8307   63.3389 C   0  0  0  0  0  0  0  0  0  0  0  0
   -6.0792   28.6271   65.5867 N   0  0  0  0  0  0  0  0  0  0  0  0
   -6.1860   24.9326   64.6840 O   0  0  0  0  0  0  0  0  0  0  0  0
   -4.5676   24.5939   68.0118 O   0  0  0  0  0  0  0  0  0  0  0  0
   -4.3753   27.4738   67.5141 O   0  0  0  0  0  0  0  0  0  0  0  0
   -5.8168   26.6672   62.5442 O   0  0  0  0  0  0  0  0  0  0  0  0
   -9.7988   19.8485   72.9703 C   0  0  1  0  0  0  0  0  0  0  0  0
   -9.1920   18.5140   73.4836 C   0  0  1  0  0  0  0  0  0  0  0  0
   -9.1786   18.4981   75.0397 C   0  0  2  0  0  0  0  0  0  0  0  0
   -8.3221   19.6821   75.5524 C   0  0  1  0  0  0  0  0  0  0  0  0
   -8.9189   21.0472   75.0547 C   0  0  0  0  0  0  0  0  0  0  0  0
   -8.9371   21.0329   73.5113 C   0  0  2  0  0  0  0  0  0  0  0  0
   -8.2962   19.6730   77.0348 N   0  0  0  0  0  0  0  0  0  0  0  0
   -9.4966   22.3098   73.0548 N   0  0  0  0  0  0  0  0  0  0  0  0
   -9.9885   17.4079   73.0044 O   0  0  0  0  0  0  0  0  0  0  0  0
   -8.6163   17.2457   75.4904 O   0  0  0  0  0  0  0  0  0  0  0  0
  1  2  1  0  0  0  0
  1 12  1  1  0  0  0
  1 13  1  0  0  0  0
  2  3  1  0  0  0  0
  2 10  1  1  0  0  0
  4  3  1  1  0  0  0
  4  5  1  0  0  0  0
  4 14  1  0  0  0  0
  5  6  1  0  0  0  0
  5 13  1  6  0  0  0
  6  7  1  0  0  0  0
  6 15  1  6  0  0  0
  7  8  1  0  0  0  0
  7 11  1  6  0  0  0
  8 14  1  0  0  0  0
  8 16  1  1  0  0  0
  9 11  1  0  0  0  0
 17 16  1  1  0  0  0
 17 18  1  0  0  0  0
 17 24  1  0  0  0  0
 18 19  1  0  0  0  0
 18 25  1  1  0  0  0
 19 20  1  0  0  0  0
 19 26  1  6  0  0  0
 20 21  1  0  0  0  0
 20 23  1  1  0  0  0
 21 22  1  6  0  0  0
 21 24  1  0  0  0  0
 22 27  1  0  0  0  0
 28 12  1  6  0  0  0
 28 29  1  0  0  0  0
 28 33  1  0  0  0  0
 29 30  1  0  0  0  0
 29 36  1  1  0  0  0
 30 31  1  0  0  0  0
 30 37  1  6  0  0  0
 31 32  1  0  0  0  0
 31 34  1  1  0  0  0
 32 33  1  0  0  0  0
 33 35  1  1  0  0  0
M  END
>  <CHROM.1>
-54.55486023,168.05032772,-128.84290353,-33.09298765,-118.01623512,65.73379289
-7.66309721,22.28137014,69.18930800,2.03445263,1.02083423,1.82541095

>  <Name>
ligand

>  <RI>
0

>  <Rbt.Current_Directory>
/home/itssahil/PROJECTS/Mol_Feturizer/Test_systems_manuscript/rnas/2g5k

>  <Rbt.Executable>
rbdock ($Id: //depot/dev/client3/rdock/2013.1/src/exe/rbdock.cxx#4 $)

>  <Rbt.Library>
libRbt.so (2013.1, Build901 2013/11/27)

>  <Rbt.Parameter_File>
/export/apps/rDock/src/rDock_2013.1_src/data/scripts/dock_solv.prm

>  <Rbt.Receptor>
prm/blind_docking_80.prm

>  <SCORE>
2.94148

>  <SCORE.INTER>
-9.14696

>  <SCORE.INTER.CONST>
1

>  <SCORE.INTER.POLAR>
0

>  <SCORE.INTER.ROT>
6

>  <SCORE.INTER.SOLV>
17.7055

>  <SCORE.INTER.VDW>
-19.5998

>  <SCORE.INTER.norm>
-0.247215

>  <SCORE.INTRA>
10.0222

>  <SCORE.INTRA.DIHEDRAL>
5.9882

>  <SCORE.INTRA.DIHEDRAL.0>
11.3972

>  <SCORE.INTRA.POLAR>
0

>  <SCORE.INTRA.POLAR.0>
0

>  <SCORE.INTRA.REPUL>
0

>  <SCORE.INTRA.REPUL.0>
0

>  <SCORE.INTRA.SOLV>
7.01237

>  <SCORE.INTRA.SOLV.lig_0>
-92.3891

>  <SCORE.INTRA.VDW>
3.52196

>  <SCORE.INTRA.VDW.0>
-2.90606

>  <SCORE.INTRA.norm>
0.270871

>  <SCORE.RESTR>
2.0662

>  <SCORE.RESTR.CAVITY>
2.0662

>  <SCORE.RESTR.norm>
0.0558432

>  <SCORE.SYSTEM>
0

>  <SCORE.SYSTEM.CONST>
0

>  <SCORE.SYSTEM.DIHEDRAL>
0

>  <SCORE.SYSTEM.SOLV>
0

>  <SCORE.SYSTEM.norm>
0

>  <SCORE.heavy>
37

>  <SCORE.norm>
0.0794995

>  <RMSD>
10.819

$$$$
ligand
 OpenBabel02271912133D
libRbt.so/2013.1/901 2013/11/27
 37 40  0  0  0  0  0  0  0  0999 V2000
   -8.7863   19.1735   70.6911 C   0  0  1  0  0  0  0  0  0  0  0  0
   -7.3481   19.6430   71.0513 C   0  0  1  0  0  0  0  0  0  0  0  0
   -7.0894   21.0972   70.6136 C   0  0  0  0  0  0  0  0  0  0  0  0
   -7.3474   21.2168   69.0792 C   0  0  1  0  0  0  0  0  0  0  0  0
   -8.8114   20.7927   68.7319 C   0  0  1  0  0  0  0  0  0  0  0  0
   -9.0521   20.9206   67.1602 C   0  0  1  0  0  0  0  0  0  0  0  0
   -8.7984   22.3947   66.7285 C   0  0  1  0  0  0  0  0  0  0  0  0
   -7.3407   22.7735   67.1289 C   0  0  2  0  0  0  0  0  0  0  0  0
   -9.0325   23.9320   64.6567 C   0  0  0  0  0  0  0  0  0  0  0  0
   -7.0969   19.4872   72.4997 N   0  0  0  0  0  0  0  0  0  0  0  0
   -9.0031   22.5529   65.2399 N   0  0  0  0  0  0  0  0  0  0  0  0
   -9.7976   19.8447   71.4677 O   0  0  0  0  0  0  0  0  0  0  0  0
   -9.0045   19.4013   69.2386 O   0  0  0  0  0  0  0  0  0  0  0  0
   -7.1173   22.6091   68.5712 O   0  0  0  0  0  0  0  0  0  0  0  0
   -8.1330   20.0882   66.4647 O   0  0  0  0  0  0  0  0  0  0  0  0
   -7.0709   24.1236   66.7692 O   0  0  0  0  0  0  0  0  0  0  0  0
   -5.8503   24.2975   66.0083 C   0  0  2  0  0  0  0  0  0  0  0  0
   -4.8174   25.1980   66.7265 C   0  0  1  0  0  0  0  0  0  0  0  0
   -5.3400   26.6668   66.8356 C   0  0  2  0  0  0  0  0  0  0  0  0
   -5.5815   27.2083   65.4412 C   0  0  1  0  0  0  0  0  0  0  0  0
   -6.6431   26.3165   64.7303 C   0  0  1  0  0  0  0  0  0  0  0  0
   -6.9277   26.7848   63.3045 C   0  0  0  0  0  0  0  0  0  0  0  0
   -6.0566   28.6098   65.5354 N   0  0  0  0  0  0  0  0  0  0  0  0
   -6.1541   24.9043   64.6779 O   0  0  0  0  0  0  0  0  0  0  0  0
   -4.5564   24.6087   68.0198 O   0  0  0  0  0  0  0  0  0  0  0  0
   -4.3638   27.4823   67.4876 O   0  0  0  0  0  0  0  0  0  0  0  0
   -5.7397   26.7342   62.5524 O   0  0  0  0  0  0  0  0  0  0  0  0
   -9.8029   19.8657   72.9808 C   0  0  1  0  0  0  0  0  0  0  0  0
   -9.1835   18.5354   73.4900 C   0  0  1  0  0  0  0  0  0  0  0  0
   -9.1729   18.5134   75.0460 C   0  0  2  0  0  0  0  0  0  0  0  0
   -8.3298   19.7041   75.5652 C   0  0  1  0  0  0  0  0  0  0  0  0
   -8.9395   21.0650   75.0718 C   0  0  0  0  0  0  0  0  0  0  0  0
   -8.9546   21.0566   73.5283 C   0  0  2  0  0  0  0  0  0  0  0  0
   -8.3067   19.6893   77.0476 N   0  0  0  0  0  0  0  0  0  0  0  0
   -9.5263   22.3296   73.0758 N   0  0  0  0  0  0  0  0  0  0  0  0
   -9.9676   17.4232   73.0047 O   0  0  0  0  0  0  0  0  0  0  0  0
   -8.5987   17.2650   75.4929 O   0  0  0  0  0  0  0  0  0  0  0  0
  1  2  1  0  0  0  0
  1 12  1  1  0  0  0
  1 13  1  0  0  0  0
  2  3  1  0  0  0  0
  2 10  1  1  0  0  0
  4  3  1  1  0  0  0
  4  5  1  0  0  0  0
  4 14  1  0  0  0  0
  5  6  1  0  0  0  0
  5 13  1  6  0  0  0
  6  7  1  0  0  0  0
  6 15  1  6  0  0  0
  7  8  1  0  0  0  0
  7 11  1  6  0  0  0
  8 14  1  0  0  0  0
  8 16  1  1  0  0  0
  9 11  1  0  0  0  0
 17 16  1  1  0  0  0
 17 18  1  0  0  0  0
 17 24  1  0  0  0  0
 18 19  1  0  0  0  0
 18 25  1  1  0  0  0
 19 20  1  0  0  0  0
 19 26  1  6  0  0  0
 20 21  1  0  0  0  0
 20 23  1  1  0  0  0
 21 22  1  6  0  0  0
 21 24  1  0  0  0  0
 22 27  1  0  0  0  0
 28 12  1  6  0  0  0
 28 29  1  0  0  0  0
 28 33  1  0  0  0  0
 29 30  1  0  0  0  0
 29 36  1  1  0  0  0
 30 31  1  0  0  0  0
 30 37  1  6  0  0  0
 31 32  1  0  0  0  0
 31 34  1  1  0  0  0
 32 33  1  0  0  0  0
 33 35  1  1  0  0  0
M  END
>  <CHROM.1>
-55.04041851,169.91783548,-129.23737616,-31.87017145,-118.64330530,60.10619416
-7.65258707,22.28815496,69.18941334,2.03900064,1.01944419,1.81882058

>  <Name>
ligand

>  <RI>
0

>  <Rbt.Current_Directory>
/home/itssahil/PROJECTS/Mol_Feturizer/Test_systems_manuscript/rnas/2g5k

>  <Rbt.Executable>
rbdock ($Id: //depot/dev/client3/rdock/2013.1/src/exe/rbdock.cxx#4 $)

>  <Rbt.Library>
libRbt.so (2013.1, Build901 2013/11/27)

>  <Rbt.Parameter_File>
/export/apps/rDock/src/rDock_2013.1_src/data/scripts/dock_solv.prm

>  <Rbt.Receptor>
prm/blind_docking_80.prm

>  <SCORE>
3.31583

>  <SCORE.INTER>
-8.89926

>  <SCORE.INTER.CONST>
1

>  <SCORE.INTER.POLAR>
0

>  <SCORE.INTER.ROT>
6

>  <SCORE.INTER.SOLV>
17.7128

>  <SCORE.INTER.VDW>
-19.4371

>  <SCORE.INTER.norm>
-0.240521

>  <SCORE.INTRA>
10.2799

>  <SCORE.INTRA.DIHEDRAL>
6.01679

>  <SCORE.INTRA.DIHEDRAL.0>
11.3972

>  <SCORE.INTRA.POLAR>
0

>  <SCORE.INTRA.POLAR.0>
0

>  <SCORE.INTRA.REPUL>
0

>  <SCORE.INTRA.REPUL.0>
0

>  <SCORE.INTRA.SOLV>
7.00697

>  <SCORE.INTRA.SOLV.lig_0>
-92.3891

>  <SCORE.INTRA.VDW>
3.76799

>  <SCORE.INTRA.VDW.0>
-2.90606

>  <SCORE.INTRA.norm>
0.277834

>  <SCORE.RESTR>
1.93522

>  <SCORE.RESTR.CAVITY>
1.93522

>  <SCORE.RESTR.norm>
0.0523032

>  <SCORE.SYSTEM>
0

>  <SCORE.SYSTEM.CONST>
0

>  <SCORE.SYSTEM.DIHEDRAL>
0

>  <SCORE.SYSTEM.SOLV>
0

>  <SCORE.SYSTEM.norm>
0

>  <SCORE.heavy>
37

>  <SCORE.norm>
0.089617

>  <RMSD>
10.821

$$$$
ligand
 OpenBabel02271912133D
libRbt.so/2013.1/901 2013/11/27
 37 40  0  0  0  0  0  0  0  0999 V2000
   -7.7867   22.9070   67.9651 C   0  0  1  0  0  0  0  0  0  0  0  0
   -8.0206   23.6843   69.2916 C   0  0  1  0  0  0  0  0  0  0  0  0
   -7.3114   23.0157   70.4847 C   0  0  0  0  0  0  0  0  0  0  0  0
   -7.8085   21.5415   70.6067 C   0  0  1  0  0  0  0  0  0  0  0  0
   -7.5227   20.7527   69.2878 C   0  0  1  0  0  0  0  0  0  0  0  0
   -8.0401   19.2508   69.4340 C   0  0  1  0  0  0  0  0  0  0  0  0
   -7.3112   18.5800   70.6351 C   0  0  1  0  0  0  0  0  0  0  0  0
   -7.6017   19.4249   71.9121 C   0  0  2  0  0  0  0  0  0  0  0  0
   -9.1708   16.9176   71.3342 C   0  0  0  0  0  0  0  0  0  0  0  0
   -7.5862   25.0906   69.1547 N   0  0  0  0  0  0  0  0  0  0  0  0
   -7.7866   17.1572   70.8149 N   0  0  0  0  0  0  0  0  0  0  0  0
   -6.4213   22.9859   67.5115 O   0  0  0  0  0  0  0  0  0  0  0  0
   -8.1883   21.4912   68.1735 O   0  0  0  0  0  0  0  0  0  0  0  0
   -7.1620   20.8168   71.7497 O   0  0  0  0  0  0  0  0  0  0  0  0
   -9.4362   19.2483   69.7024 O   0  0  0  0  0  0  0  0  0  0  0  0
   -6.9367   18.8570   73.0347 O   0  0  0  0  0  0  0  0  0  0  0  0
   -7.0966   19.6149   74.2591 C   0  0  2  0  0  0  0  0  0  0  0  0
   -7.6789   18.7703   75.4171 C   0  0  1  0  0  0  0  0  0  0  0  0
   -9.1503   18.3431   75.1094 C   0  0  2  0  0  0  0  0  0  0  0  0
   -9.9972   19.5870   74.9315 C   0  0  1  0  0  0  0  0  0  0  0  0
   -9.4257   20.4215   73.7463 C   0  0  1  0  0  0  0  0  0  0  0  0
  -10.2140   21.7092   73.5152 C   0  0  0  0  0  0  0  0  0  0  0  0
  -11.4001   19.1899   74.6611 N   0  0  0  0  0  0  0  0  0  0  0  0
   -8.0019   20.7803   74.0296 O   0  0  0  0  0  0  0  0  0  0  0  0
   -6.8040   17.6359   75.6064 O   0  0  0  0  0  0  0  0  0  0  0  0
   -9.6718   17.5783   76.1985 O   0  0  0  0  0  0  0  0  0  0  0  0
   -9.5058   22.5344   72.6225 O   0  0  0  0  0  0  0  0  0  0  0  0
   -5.9108   24.0855   66.6059 C   0  0  1  0  0  0  0  0  0  0  0  0
   -7.0931   24.5870   65.7320 C   0  0  1  0  0  0  0  0  0  0  0  0
   -6.6097   25.7193   64.7801 C   0  0  2  0  0  0  0  0  0  0  0  0
   -6.0620   26.8950   65.6262 C   0  0  1  0  0  0  0  0  0  0  0  0
   -4.8578   26.4177   66.5147 C   0  0  0  0  0  0  0  0  0  0  0  0
   -5.3568   25.2853   67.4374 C   0  0  2  0  0  0  0  0  0  0  0  0
   -5.6047   27.9835   64.7294 N   0  0  0  0  0  0  0  0  0  0  0  0
   -4.2267   24.8445   68.2623 N   0  0  0  0  0  0  0  0  0  0  0  0
   -7.6068   23.4908   64.9435 O   0  0  0  0  0  0  0  0  0  0  0  0
   -7.7251   26.1627   63.9756 O   0  0  0  0  0  0  0  0  0  0  0  0
  1  2  1  0  0  0  0
  1 12  1  1  0  0  0
  1 13  1  0  0  0  0
  2  3  1  0  0  0  0
  2 10  1  6  0  0  0
  4  3  1  6  0  0  0
  4  5  1  0  0  0  0
  4 14  1  0  0  0  0
  5  6  1  0  0  0  0
  5 13  1  6  0  0  0
  6  7  1  0  0  0  0
  6 15  1  1  0  0  0
  7  8  1  0  0  0  0
  7 11  1  1  0  0  0
  8 14  1  0  0  0  0
  8 16  1  1  0  0  0
  9 11  1  0  0  0  0
 17 16  1  6  0  0  0
 17 18  1  0  0  0  0
 17 24  1  0  0  0  0
 18 19  1  0  0  0  0
 18 25  1  6  0  0  0
 19 20  1  0  0  0  0
 19 26  1  1  0  0  0
 20 21  1  0  0  0  0
 20 23  1  6  0  0  0
 21 22  1  1  0  0  0
 21 24  1  0  0  0  0
 22 27  1  0  0  0  0
 28 12  1  1  0  0  0
 28 29  1  0  0  0  0
 28 33  1  0  0  0  0
 29 30  1  0  0  0  0
 29 36  1  6  0  0  0
 30 31  1  0  0  0  0
 30 37  1  1  0  0  0
 31 32  1  0  0  0  0
 31 34  1  6  0  0  0
 32 33  1  0  0  0  0
 33 35  1  6  0  0  0
M  END
>  <CHROM.1>
-89.10440932,-71.13296945,177.14561268,-28.36354584,124.31390757,168.57054578
-7.69630471,21.67499799,70.28772110,0.39698551,-1.33450488,-2.04779086

>  <Name>
ligand

>  <RI>
0

>  <Rbt.Current_Directory>
/home/itssahil/PROJECTS/Mol_Feturizer/Test_systems_manuscript/rnas/2g5k

>  <Rbt.Executable>
rbdock ($Id: //depot/dev/client3/rdock/2013.1/src/exe/rbdock.cxx#4 $)

>  <Rbt.Library>
libRbt.so (2013.1, Build901 2013/11/27)

>  <Rbt.Parameter_File>
/export/apps/rDock/src/rDock_2013.1_src/data/scripts/dock_solv.prm

>  <Rbt.Receptor>
prm/blind_docking_80.prm

>  <SCORE>
4.07708

>  <SCORE.INTER>
-9.69009

>  <SCORE.INTER.CONST>
1

>  <SCORE.INTER.POLAR>
0

>  <SCORE.INTER.ROT>
6

>  <SCORE.INTER.SOLV>
22.6879

>  <SCORE.INTER.VDW>
-21.6227

>  <SCORE.INTER.norm>
-0.261894

>  <SCORE.INTRA>
8.74151

>  <SCORE.INTRA.DIHEDRAL>
3.66601

>  <SCORE.INTRA.DIHEDRAL.0>
11.3972

>  <SCORE.INTRA.POLAR>
0

>  <SCORE.INTRA.POLAR.0>
0

>  <SCORE.INTRA.REPUL>
0

>  <SCORE.INTRA.REPUL.0>
0

>  <SCORE.INTRA.SOLV>
4.69529

>  <SCORE.INTRA.SOLV.lig_0>
-92.3891

>  <SCORE.INTRA.VDW>
4.56086

>  <SCORE.INTRA.VDW.0>
-2.90606

>  <SCORE.INTRA.norm>
0.236257

>  <SCORE.RESTR>
5.02566

>  <SCORE.RESTR.CAVITY>
5.02566

>  <SCORE.RESTR.norm>
0.135829

>  <SCORE.SYSTEM>
0

>  <SCORE.SYSTEM.CONST>
0

>  <SCORE.SYSTEM.DIHEDRAL>
0

>  <SCORE.SYSTEM.SOLV>
0

>  <SCORE.SYSTEM.norm>
0

>  <SCORE.heavy>
37

>  <SCORE.norm>
0.110191

>  <RMSD>
10.909

$$$$
ligand
 OpenBabel02271912133D
libRbt.so/2013.1/901 2013/11/27
 37 40  0  0  0  0  0  0  0  0999 V2000
   -8.9751   19.0181   70.3206 C   0  0  1  0  0  0  0  0  0  0  0  0
   -7.4424   19.0140   70.5838 C   0  0  1  0  0  0  0  0  0  0  0  0
   -6.8428   20.4318   70.5230 C   0  0  0  0  0  0  0  0  0  0  0  0
   -7.1682   21.0590   69.1316 C   0  0  1  0  0  0  0  0  0  0  0  0
   -8.7129   21.1073   68.8967 C   0  0  1  0  0  0  0  0  0  0  0  0
   -9.0222   21.7494   67.4696 C   0  0  1  0  0  0  0  0  0  0  0  0
   -8.4218   23.1850   67.4206 C   0  0  1  0  0  0  0  0  0  0  0  0
   -6.8912   23.0803   67.6947 C   0  0  2  0  0  0  0  0  0  0  0  0
   -9.9662   23.5160   65.3674 C   0  0  0  0  0  0  0  0  0  0  0  0
   -7.1391   18.3804   71.8845 N   0  0  0  0  0  0  0  0  0  0  0  0
   -8.6825   23.8220   66.0756 N   0  0  0  0  0  0  0  0  0  0  0  0
   -9.7173   19.6419   71.3866 O   0  0  0  0  0  0  0  0  0  0  0  0
   -9.2280   19.7120   69.0307 O   0  0  0  0  0  0  0  0  0  0  0  0
   -6.6174   22.4470   68.9914 O   0  0  0  0  0  0  0  0  0  0  0  0
   -8.4053   20.9735   66.4505 O   0  0  0  0  0  0  0  0  0  0  0  0
   -6.3028   24.3759   67.6786 O   0  0  0  0  0  0  0  0  0  0  0  0
   -5.2034   24.5115   66.7447 C   0  0  2  0  0  0  0  0  0  0  0  0
   -4.2177   25.6378   67.1363 C   0  0  1  0  0  0  0  0  0  0  0  0
   -4.9028   27.0385   67.0315 C   0  0  2  0  0  0  0  0  0  0  0  0
   -5.3600   27.2573   65.6035 C   0  0  1  0  0  0  0  0  0  0  0  0
   -6.3743   26.1381   65.2212 C   0  0  1  0  0  0  0  0  0  0  0  0
   -6.8683   26.2749   63.7823 C   0  0  0  0  0  0  0  0  0  0  0  0
   -5.9915   28.5942   65.4908 N   0  0  0  0  0  0  0  0  0  0  0  0
   -5.7230   24.8008   65.3748 O   0  0  0  0  0  0  0  0  0  0  0  0
   -3.7463   25.3537   68.4724 O   0  0  0  0  0  0  0  0  0  0  0  0
   -3.9697   28.0629   67.3823 O   0  0  0  0  0  0  0  0  0  0  0  0
   -7.6219   27.4566   63.6596 O   0  0  0  0  0  0  0  0  0  0  0  0
   -9.2658   19.6260   72.8308 C   0  0  1  0  0  0  0  0  0  0  0  0
   -9.7112   20.9569   73.4965 C   0  0  1  0  0  0  0  0  0  0  0  0
   -9.2623   20.9842   74.9864 C   0  0  2  0  0  0  0  0  0  0  0  0
   -9.9115   19.7937   75.7344 C   0  0  1  0  0  0  0  0  0  0  0  0
   -9.4707   18.4322   75.0867 C   0  0  0  0  0  0  0  0  0  0  0  0
   -9.9116   18.4354   73.6075 C   0  0  2  0  0  0  0  0  0  0  0  0
   -9.4963   19.8135   77.1576 N   0  0  0  0  0  0  0  0  0  0  0  0
   -9.4953   17.1620   73.0099 N   0  0  0  0  0  0  0  0  0  0  0  0
   -9.1082   22.0689   72.7986 O   0  0  0  0  0  0  0  0  0  0  0  0
   -9.6827   22.2330   75.5793 O   0  0  0  0  0  0  0  0  0  0  0  0
  1  2  1  0  0  0  0
  1 12  1  1  0  0  0
  1 13  1  0  0  0  0
  2  3  1  0  0  0  0
  2 10  1  1  0  0  0
  4  3  1  1  0  0  0
  4  5  1  0  0  0  0
  4 14  1  0  0  0  0
  5  6  1  0  0  0  0
  5 13  1  6  0  0  0
  6  7  1  0  0  0  0
  6 15  1  6  0  0  0
  7  8  1  0  0  0  0
  7 11  1  6  0  0  0
  8 14  1  0  0  0  0
  8 16  1  1  0  0  0
  9 11  1  0  0  0  0
 17 16  1  1  0  0  0
 17 18  1  0  0  0  0
 17 24  1  0  0  0  0
 18 19  1  0  0  0  0
 18 25  1  1  0  0  0
 19 20  1  0  0  0  0
 19 26  1  6  0  0  0
 20 21  1  0  0  0  0
 20 23  1  1  0  0  0
 21 22  1  6  0  0  0
 21 24  1  0  0  0  0
 22 27  1  0  0  0  0
 28 12  1  6  0  0  0
 28 29  1  0  0  0  0
 28 33  1  0  0  0  0
 29 30  1  0  0  0  0
 29 36  1  6  0  0  0
 30 31  1  0  0  0  0
 30 37  1  1  0  0  0
 31 32  1  0  0  0  0
 31 34  1  1  0  0  0
 32 33  1  0  0  0  0
 33 35  1  6  0  0  0
M  END
>  <CHROM.1>
-30.48755217,34.85348012,-124.50892673,146.64620986,-155.39796058,-65.82462062
-7.68545815,22.53638183,69.39386711,2.19646515,1.03530667,1.70681767

>  <Name>
ligand

>  <RI>
0

>  <Rbt.Current_Directory>
/home/itssahil/PROJECTS/Mol_Feturizer/Test_systems_manuscript/rnas/2g5k

>  <Rbt.Executable>
rbdock ($Id: //depot/dev/client3/rdock/2013.1/src/exe/rbdock.cxx#4 $)

>  <Rbt.Library>
libRbt.so (2013.1, Build901 2013/11/27)

>  <Rbt.Parameter_File>
/export/apps/rDock/src/rDock_2013.1_src/data/scripts/dock_solv.prm

>  <Rbt.Receptor>
prm/blind_docking_80.prm

>  <SCORE>
12.7398

>  <SCORE.INTER>
-2.90478

>  <SCORE.INTER.CONST>
1

>  <SCORE.INTER.POLAR>
0

>  <SCORE.INTER.ROT>
6

>  <SCORE.INTER.SOLV>
15.9997

>  <SCORE.INTER.VDW>
-14.8698

>  <SCORE.INTER.norm>
-0.0785076

>  <SCORE.INTRA>
7.94789

>  <SCORE.INTRA.DIHEDRAL>
6.58672

>  <SCORE.INTRA.DIHEDRAL.0>
11.3972

>  <SCORE.INTRA.POLAR>
0

>  <SCORE.INTRA.POLAR.0>
0

>  <SCORE.INTRA.REPUL>
0

>  <SCORE.INTRA.REPUL.0>
0

>  <SCORE.INTRA.SOLV>
5.91157

>  <SCORE.INTRA.SOLV.lig_0>
-92.3891

>  <SCORE.INTRA.VDW>
1.69874

>  <SCORE.INTRA.VDW.0>
-2.90606

>  <SCORE.INTRA.norm>
0.214808

>  <SCORE.RESTR>
7.69666

>  <SCORE.RESTR.CAVITY>
7.69666

>  <SCORE.RESTR.norm>
0.208018

>  <SCORE.SYSTEM>
0

>  <SCORE.SYSTEM.CONST>
0

>  <SCORE.SYSTEM.DIHEDRAL>
0

>  <SCORE.SYSTEM.SOLV>
0

>  <SCORE.SYSTEM.norm>
0

>  <SCORE.heavy>
37

>  <SCORE.norm>
0.344318

>  <RMSD>
10.916

$$$$
ligand
 OpenBabel02271912133D
libRbt.so/2013.1/901 2013/11/27
 37 40  0  0  0  0  0  0  0  0999 V2000
   -1.8143   26.9602   67.2194 C   0  0  1  0  0  0  0  0  0  0  0  0
   -1.5641   25.4610   67.5487 C   0  0  1  0  0  0  0  0  0  0  0  0
   -0.0856   25.0689   67.3647 C   0  0  0  0  0  0  0  0  0  0  0  0
    0.3464   25.3984   65.9018 C   0  0  1  0  0  0  0  0  0  0  0  0
    0.1405   26.9174   65.5953 C   0  0  1  0  0  0  0  0  0  0  0  0
    0.5861   27.2310   64.0960 C   0  0  1  0  0  0  0  0  0  0  0  0
    2.0833   26.8413   63.9219 C   0  0  1  0  0  0  0  0  0  0  0  0
    2.2353   25.3305   64.2726 C   0  0  2  0  0  0  0  0  0  0  0  0
    3.9673   27.4931   62.2679 C   0  0  0  0  0  0  0  0  0  0  0  0
   -2.0145   25.1471   68.9212 N   0  0  0  0  0  0  0  0  0  0  0  0
    2.5391   27.1110   62.5069 N   0  0  0  0  0  0  0  0  0  0  0  0
   -1.2065   27.8460   68.1797 O   0  0  0  0  0  0  0  0  0  0  0  0
   -1.2960   27.2336   65.8534 O   0  0  0  0  0  0  0  0  0  0  0  0
    1.7804   25.0455   65.6398 O   0  0  0  0  0  0  0  0  0  0  0  0
   -0.1856   26.4498   63.1929 O   0  0  0  0  0  0  0  0  0  0  0  0
    3.5962   24.9345   64.1453 O   0  0  0  0  0  0  0  0  0  0  0  0
    3.7794   23.5101   63.9533 C   0  0  2  0  0  0  0  0  0  0  0  0
    5.2006   23.0305   64.3321 C   0  0  1  0  0  0  0  0  0  0  0  0
    6.2673   23.6258   63.3574 C   0  0  2  0  0  0  0  0  0  0  0  0
    5.9529   23.1715   61.9465 C   0  0  1  0  0  0  0  0  0  0  0  0
    4.5326   23.6802   61.5571 C   0  0  1  0  0  0  0  0  0  0  0  0
    4.1294   23.2429   60.1502 C   0  0  0  0  0  0  0  0  0  0  0  0
    6.9739   23.7143   61.0181 N   0  0  0  0  0  0  0  0  0  0  0  0
    3.5279   23.1455   62.5270 O   0  0  0  0  0  0  0  0  0  0  0  0
    5.4341   23.4145   65.7054 O   0  0  0  0  0  0  0  0  0  0  0  0
    7.5689   23.1569   63.7168 O   0  0  0  0  0  0  0  0  0  0  0  0
    4.2339   21.8435   60.0501 O   0  0  0  0  0  0  0  0  0  0  0  0
   -1.0912   29.3405   67.9720 C   0  0  1  0  0  0  0  0  0  0  0  0
   -2.4841   29.9783   68.2282 C   0  0  1  0  0  0  0  0  0  0  0  0
   -2.4113   31.5190   68.0211 C   0  0  2  0  0  0  0  0  0  0  0  0
   -1.3829   32.1167   69.0127 C   0  0  1  0  0  0  0  0  0  0  0  0
    0.0390   31.4950   68.7701 C   0  0  0  0  0  0  0  0  0  0  0  0
   -0.0618   29.9671   68.9648 C   0  0  2  0  0  0  0  0  0  0  0  0
   -1.3102   33.5863   68.8294 N   0  0  0  0  0  0  0  0  0  0  0  0
    1.2691   29.3943   68.7353 N   0  0  0  0  0  0  0  0  0  0  0  0
   -3.4455   29.4201   67.3054 O   0  0  0  0  0  0  0  0  0  0  0  0
   -3.7190   32.0858   68.2589 O   0  0  0  0  0  0  0  0  0  0  0  0
  1  2  1  0  0  0  0
  1 12  1  1  0  0  0
  1 13  1  0  0  0  0
  2  3  1  0  0  0  0
  2 10  1  1  0  0  0
  4  3  1  1  0  0  0
  4  5  1  0  0  0  0
  4 14  1  0  0  0  0
  5  6  1  0  0  0  0
  5 13  1  6  0  0  0
  6  7  1  0  0  0  0
  6 15  1  6  0  0  0
  7  8  1  0  0  0  0
  7 11  1  6  0  0  0
  8 14  1  0  0  0  0
  8 16  1  1  0  0  0
  9 11  1  0  0  0  0
 17 16  1  6  0  0  0
 17 18  1  0  0  0  0
 17 24  1  0  0  0  0
 18 19  1  0  0  0  0
 18 25  1  1  0  0  0
 19 20  1  0  0  0  0
 19 26  1  1  0  0  0
 20 21  1  0  0  0  0
 20 23  1  6  0  0  0
 21 22  1  6  0  0  0
 21 24  1  0  0  0  0
 22 27  1  0  0  0  0
 28 12  1  1  0  0  0
 28 29  1  0  0  0  0
 28 33  1  0  0  0  0
 29 30  1  0  0  0  0
 29 36  1  6  0  0  0
 30 31  1  0  0  0  0
 30 37  1  1  0  0  0
 31 32  1  0  0  0  0
 31 34  1  6  0  0  0
 32 33  1  0  0  0  0
 33 35  1  6  0  0  0
M  END
>  <CHROM.1>
169.10877339,148.84939202,-158.06894554,76.29013933,-158.81436978,55.14938091
1.42327797,26.58663370,65.34749293,2.39988776,0.59495820,0.16889401

>  <Name>
ligand

>  <RI>
0

>  <Rbt.Current_Directory>
/home/itssahil/PROJECTS/Mol_Feturizer/Test_systems_manuscript/rnas/2g5k

>  <Rbt.Executable>
rbdock ($Id: //depot/dev/client3/rdock/2013.1/src/exe/rbdock.cxx#4 $)

>  <Rbt.Library>
libRbt.so (2013.1, Build901 2013/11/27)

>  <Rbt.Parameter_File>
/export/apps/rDock/src/rDock_2013.1_src/data/scripts/dock_solv.prm

>  <Rbt.Receptor>
prm/pocket_docking_7.prm

>  <SCORE>
-10.0805

>  <SCORE.INTER>
-6.84872

>  <SCORE.INTER.CONST>
1

>  <SCORE.INTER.POLAR>
0

>  <SCORE.INTER.ROT>
6

>  <SCORE.INTER.SOLV>
15.5938

>  <SCORE.INTER.VDW>
-17.3638

>  <SCORE.INTER.norm>
-0.1851

>  <SCORE.INTRA>
-3.23176

>  <SCORE.INTRA.DIHEDRAL>
-4.73486

>  <SCORE.INTRA.DIHEDRAL.0>
11.3972

>  <SCORE.INTRA.POLAR>
0

>  <SCORE.INTRA.POLAR.0>
0

>  <SCORE.INTRA.REPUL>
0

>  <SCORE.INTRA.REPUL.0>
0

>  <SCORE.INTRA.SOLV>
-0.735365

>  <SCORE.INTRA.SOLV.lig_0>
-92.3891

>  <SCORE.INTRA.VDW>
-0.496644

>  <SCORE.INTRA.VDW.0>
-2.90606

>  <SCORE.INTRA.norm>
-0.0873448

>  <SCORE.RESTR>
0

>  <SCORE.RESTR.CAVITY>
0

>  <SCORE.RESTR.norm>
0

>  <SCORE.SYSTEM>
0

>  <SCORE.SYSTEM.CONST>
0

>  <SCORE.SYSTEM.DIHEDRAL>
0

>  <SCORE.SYSTEM.SOLV>
0

>  <SCORE.SYSTEM.norm>
0

>  <SCORE.heavy>
37

>  <SCORE.norm>
-0.272445

>  <RMSD>
10.978

$$$$
ligand
 OpenBabel02271912133D
libRbt.so/2013.1/901 2013/11/27
 37 40  0  0  0  0  0  0  0  0999 V2000
   -9.0118   18.9778   70.4360 C   0  0  1  0  0  0  0  0  0  0  0  0
   -7.4604   19.0758   70.4807 C   0  0  1  0  0  0  0  0  0  0  0  0
   -6.9666   20.5171   70.2526 C   0  0  0  0  0  0  0  0  0  0  0  0
   -7.5188   21.0303   68.8862 C   0  0  1  0  0  0  0  0  0  0  0  0
   -9.0810   20.9775   68.8685 C   0  0  1  0  0  0  0  0  0  0  0  0
   -9.6232   21.5040   67.4636 C   0  0  1  0  0  0  0  0  0  0  0  0
   -9.1280   22.9639   67.2460 C   0  0  1  0  0  0  0  0  0  0  0  0
   -7.5708   22.9623   67.3078 C   0  0  2  0  0  0  0  0  0  0  0  0
   -8.7820   23.2417   64.6938 C   0  0  0  0  0  0  0  0  0  0  0  0
   -6.9420   18.5490   71.7610 N   0  0  0  0  0  0  0  0  0  0  0  0
   -9.6106   23.4935   65.9158 N   0  0  0  0  0  0  0  0  0  0  0  0
   -9.6395   19.6302   71.5571 O   0  0  0  0  0  0  0  0  0  0  0  0
   -9.4827   19.5682   69.1558 O   0  0  0  0  0  0  0  0  0  0  0  0
   -7.0822   22.4339   68.5881 O   0  0  0  0  0  0  0  0  0  0  0  0
   -9.1033   20.6963   66.4155 O   0  0  0  0  0  0  0  0  0  0  0  0
   -7.0741   24.2843   67.1325 O   0  0  0  0  0  0  0  0  0  0  0  0
   -5.8762   24.3603   66.3210 C   0  0  2  0  0  0  0  0  0  0  0  0
   -4.7976   25.2891   66.9272 C   0  0  1  0  0  0  0  0  0  0  0  0
   -5.2798   26.7757   66.9282 C   0  0  2  0  0  0  0  0  0  0  0  0
   -5.5552   27.2048   65.5013 C   0  0  1  0  0  0  0  0  0  0  0  0
   -6.6621   26.2860   64.9026 C   0  0  1  0  0  0  0  0  0  0  0  0
   -6.9833   26.6409   63.4521 C   0  0  0  0  0  0  0  0  0  0  0  0
   -5.9921   28.6219   65.4916 N   0  0  0  0  0  0  0  0  0  0  0  0
   -6.2100   24.8616   64.9544 O   0  0  0  0  0  0  0  0  0  0  0  0
   -4.5073   24.8033   68.2568 O   0  0  0  0  0  0  0  0  0  0  0  0
   -4.2622   27.6159   67.4774 O   0  0  0  0  0  0  0  0  0  0  0  0
   -5.8014   26.5984   62.6901 O   0  0  0  0  0  0  0  0  0  0  0  0
   -9.1341   19.5057   72.9780 C   0  0  1  0  0  0  0  0  0  0  0  0
   -9.5211   20.7973   73.7491 C   0  0  1  0  0  0  0  0  0  0  0  0
   -9.0155   20.7128   75.2185 C   0  0  2  0  0  0  0  0  0  0  0  0
   -9.6649   19.4885   75.9095 C   0  0  1  0  0  0  0  0  0  0  0  0
   -9.2825   18.1652   75.1545 C   0  0  0  0  0  0  0  0  0  0  0  0
   -9.7789   18.2791   73.6975 C   0  0  2  0  0  0  0  0  0  0  0  0
   -9.1957   19.4018   77.3133 N   0  0  0  0  0  0  0  0  0  0  0  0
   -9.4170   17.0408   72.9993 N   0  0  0  0  0  0  0  0  0  0  0  0
   -8.9179   21.9410   73.1045 O   0  0  0  0  0  0  0  0  0  0  0  0
   -9.3823   21.9271   75.9105 O   0  0  0  0  0  0  0  0  0  0  0  0
  1  2  1  0  0  0  0
  1 12  1  1  0  0  0
  1 13  1  0  0  0  0
  2  3  1  0  0  0  0
  2 10  1  1  0  0  0
  4  3  1  1  0  0  0
  4  5  1  0  0  0  0
  4 14  1  0  0  0  0
  5  6  1  0  0  0  0
  5 13  1  6  0  0  0
  6  7  1  0  0  0  0
  6 15  1  6  0  0  0
  7  8  1  0  0  0  0
  7 11  1  6  0  0  0
  8 14  1  0  0  0  0
  8 16  1  1  0  0  0
  9 11  1  0  0  0  0
 17 16  1  1  0  0  0
 17 18  1  0  0  0  0
 17 24  1  0  0  0  0
 18 19  1  0  0  0  0
 18 25  1  1  0  0  0
 19 20  1  0  0  0  0
 19 26  1  6  0  0  0
 20 21  1  0  0  0  0
 20 23  1  1  0  0  0
 21 22  1  6  0  0  0
 21 24  1  0  0  0  0
 22 27  1  0  0  0  0
 28 12  1  6  0  0  0
 28 29  1  0  0  0  0
 28 33  1  0  0  0  0
 29 30  1  0  0  0  0
 29 36  1  6  0  0  0
 30 31  1  0  0  0  0
 30 37  1  1  0  0  0
 31 32  1  0  0  0  0
 31 34  1  1  0  0  0
 32 33  1  0  0  0  0
 33 35  1  6  0  0  0
M  END
>  <CHROM.1>
-42.98492627,-87.43738699,-140.73793779,151.65445799,-134.95968386,55.45236234
-7.80059208,22.37168595,69.28195985,2.13146263,1.05236628,1.72067675

>  <Name>
ligand

>  <RI>
0

>  <Rbt.Current_Directory>
/home/itssahil/PROJECTS/Mol_Feturizer/Test_systems_manuscript/rnas/2g5k

>  <Rbt.Executable>
rbdock ($Id: //depot/dev/client3/rdock/2013.1/src/exe/rbdock.cxx#4 $)

>  <Rbt.Library>
libRbt.so (2013.1, Build901 2013/11/27)

>  <Rbt.Parameter_File>
/export/apps/rDock/src/rDock_2013.1_src/data/scripts/dock_solv.prm

>  <Rbt.Receptor>
prm/blind_docking_80.prm

>  <SCORE>
9.37482

>  <SCORE.INTER>
-3.83485

>  <SCORE.INTER.CONST>
1

>  <SCORE.INTER.POLAR>
0

>  <SCORE.INTER.ROT>
6

>  <SCORE.INTER.SOLV>
17.0168

>  <SCORE.INTER.VDW>
-15.8288

>  <SCORE.INTER.norm>
-0.103645

>  <SCORE.INTRA>
6.71656

>  <SCORE.INTRA.DIHEDRAL>
5.24357

>  <SCORE.INTRA.DIHEDRAL.0>
11.3972

>  <SCORE.INTRA.POLAR>
0

>  <SCORE.INTRA.POLAR.0>
0

>  <SCORE.INTRA.REPUL>
0

>  <SCORE.INTRA.REPUL.0>
0

>  <SCORE.INTRA.SOLV>
4.57416

>  <SCORE.INTRA.SOLV.lig_0>
-92.3891

>  <SCORE.INTRA.VDW>
1.8077

>  <SCORE.INTRA.VDW.0>
-2.90606

>  <SCORE.INTRA.norm>
0.181529

>  <SCORE.RESTR>
6.49311

>  <SCORE.RESTR.CAVITY>
6.49311

>  <SCORE.RESTR.norm>
0.175489

>  <SCORE.SYSTEM>
0

>  <SCORE.SYSTEM.CONST>
0

>  <SCORE.SYSTEM.DIHEDRAL>
0

>  <SCORE.SYSTEM.SOLV>
0

>  <SCORE.SYSTEM.norm>
0

>  <SCORE.heavy>
37

>  <SCORE.norm>
0.253374

>  <RMSD>
10.990

$$$$
ligand
 OpenBabel02271912133D
libRbt.so/2013.1/901 2013/11/27
 37 40  0  0  0  0  0  0  0  0999 V2000
   -2.0538   29.8776   63.0580 C   0  0  1  0  0  0  0  0  0  0  0  0
   -2.4514   28.3893   62.8447 C   0  0  1  0  0  0  0  0  0  0  0  0
   -1.5210   27.4284   63.6091 C   0  0  0  0  0  0  0  0  0  0  0  0
   -0.0494   27.6831   63.1568 C   0  0  1  0  0  0  0  0  0  0  0  0
    0.3596   29.1682   63.4226 C   0  0  1  0  0  0  0  0  0  0  0  0
    1.8650   29.4063   62.9515 C   0  0  1  0  0  0  0  0  0  0  0  0
    2.7989   28.4386   63.7359 C   0  0  1  0  0  0  0  0  0  0  0  0
    2.3252   26.9793   63.4626 C   0  0  2  0  0  0  0  0  0  0  0  0
    4.6552   29.9468   62.7412 C   0  0  0  0  0  0  0  0  0  0  0  0
   -3.8592   28.1652   63.2358 N   0  0  0  0  0  0  0  0  0  0  0  0
    4.2352   28.6248   63.3057 N   0  0  0  0  0  0  0  0  0  0  0  0
   -2.2951   30.3265   64.4059 O   0  0  0  0  0  0  0  0  0  0  0  0
   -0.6193   30.0359   62.7023 O   0  0  0  0  0  0  0  0  0  0  0  0
    0.9244   26.7837   63.8587 O   0  0  0  0  0  0  0  0  0  0  0  0
    1.9855   29.1156   61.5651 O   0  0  0  0  0  0  0  0  0  0  0  0
    3.1416   26.0591   64.1780 O   0  0  0  0  0  0  0  0  0  0  0  0
    2.7644   24.6722   63.9955 C   0  0  2  0  0  0  0  0  0  0  0  0
    3.2787   23.7551   65.1304 C   0  0  1  0  0  0  0  0  0  0  0  0
    4.8390   23.6687   65.1123 C   0  0  2  0  0  0  0  0  0  0  0  0
    5.2852   23.1022   63.7797 C   0  0  1  0  0  0  0  0  0  0  0  0
    4.7905   24.0428   62.6403 C   0  0  1  0  0  0  0  0  0  0  0  0
    5.1823   23.5276   61.2567 C   0  0  0  0  0  0  0  0  0  0  0  0
    6.7642   22.9961   63.7631 N   0  0  0  0  0  0  0  0  0  0  0  0
    3.3008   24.1580   62.7000 O   0  0  0  0  0  0  0  0  0  0  0  0
    2.7706   24.2832   66.3758 O   0  0  0  0  0  0  0  0  0  0  0  0
    5.2896   22.8049   66.1582 O   0  0  0  0  0  0  0  0  0  0  0  0
    4.5368   22.3006   61.0172 O   0  0  0  0  0  0  0  0  0  0  0  0
   -3.6765   30.4056   65.0185 C   0  0  1  0  0  0  0  0  0  0  0  0
   -3.5206   30.5999   66.5517 C   0  0  1  0  0  0  0  0  0  0  0  0
   -4.9217   30.6828   67.2239 C   0  0  2  0  0  0  0  0  0  0  0  0
   -5.6995   31.8834   66.6308 C   0  0  1  0  0  0  0  0  0  0  0  0
   -5.8797   31.7087   65.0802 C   0  0  0  0  0  0  0  0  0  0  0  0
   -4.4792   31.6127   64.4384 C   0  0  2  0  0  0  0  0  0  0  0  0
   -7.0344   31.9766   67.2693 N   0  0  0  0  0  0  0  0  0  0  0  0
   -4.6562   31.4484   62.9915 N   0  0  0  0  0  0  0  0  0  0  0  0
   -2.7931   29.4817   67.1065 O   0  0  0  0  0  0  0  0  0  0  0  0
   -4.7484   30.8569   68.6478 O   0  0  0  0  0  0  0  0  0  0  0  0
  1  2  1  0  0  0  0
  1 12  1  1  0  0  0
  1 13  1  0  0  0  0
  2  3  1  0  0  0  0
  2 10  1  1  0  0  0
  4  3  1  1  0  0  0
  4  5  1  0  0  0  0
  4 14  1  0  0  0  0
  5  6  1  0  0  0  0
  5 13  1  6  0  0  0
  6  7  1  0  0  0  0
  6 15  1  6  0  0  0
  7  8  1  0  0  0  0
  7 11  1  6  0  0  0
  8 14  1  0  0  0  0
  8 16  1  1  0  0  0
  9 11  1  0  0  0  0
 17 16  1  1  0  0  0
 17 18  1  0  0  0  0
 17 24  1  0  0  0  0
 18 19  1  0  0  0  0
 18 25  1  1  0  0  0
 19 20  1  0  0  0  0
 19 26  1  1  0  0  0
 20 21  1  0  0  0  0
 20 23  1  1  0  0  0
 21 22  1  6  0  0  0
 21 24  1  0  0  0  0
 22 27  1  0  0  0  0
 28 12  1  6  0  0  0
 28 29  1  0  0  0  0
 28 33  1  0  0  0  0
 29 30  1  0  0  0  0
 29 36  1  1  0  0  0
 30 31  1  0  0  0  0
 30 37  1  1  0  0  0
 31 32  1  0  0  0  0
 31 34  1  1  0  0  0
 32 33  1  0  0  0  0
 33 35  1  6  0  0  0
M  END
>  <CHROM.1>
-64.05900289,25.66329704,179.35071361,166.79246095,-158.79039200,64.15521356
0.33932082,27.70553995,64.19586626,-2.91118662,-0.62365073,2.25771996

>  <Name>
ligand

>  <RI>
0

>  <Rbt.Current_Directory>
/home/itssahil/PROJECTS/Mol_Feturizer/Test_systems_manuscript/rnas/2g5k

>  <Rbt.Executable>
rbdock ($Id: //depot/dev/client3/rdock/2013.1/src/exe/rbdock.cxx#4 $)

>  <Rbt.Library>
libRbt.so (2013.1, Build901 2013/11/27)

>  <Rbt.Parameter_File>
/export/apps/rDock/src/rDock_2013.1_src/data/scripts/dock_solv.prm

>  <Rbt.Receptor>
prm/pocket_docking_6.prm

>  <SCORE>
-9.87882

>  <SCORE.INTER>
-10.0163

>  <SCORE.INTER.CONST>
1

>  <SCORE.INTER.POLAR>
0

>  <SCORE.INTER.ROT>
6

>  <SCORE.INTER.SOLV>
22.0078

>  <SCORE.INTER.VDW>
-21.6135

>  <SCORE.INTER.norm>
-0.270711

>  <SCORE.INTRA>
0.137479

>  <SCORE.INTRA.DIHEDRAL>
-7.65203

>  <SCORE.INTRA.DIHEDRAL.0>
11.3972

>  <SCORE.INTRA.POLAR>
0

>  <SCORE.INTRA.POLAR.0>
0

>  <SCORE.INTRA.REPUL>
0

>  <SCORE.INTRA.REPUL.0>
0

>  <SCORE.INTRA.SOLV>
2.8735

>  <SCORE.INTRA.SOLV.lig_0>
-92.3891

>  <SCORE.INTRA.VDW>
2.52674

>  <SCORE.INTRA.VDW.0>
-2.90606

>  <SCORE.INTRA.norm>
0.00371566

>  <SCORE.RESTR>
0

>  <SCORE.RESTR.CAVITY>
0

>  <SCORE.RESTR.norm>
0

>  <SCORE.SYSTEM>
0

>  <SCORE.SYSTEM.CONST>
0

>  <SCORE.SYSTEM.DIHEDRAL>
0

>  <SCORE.SYSTEM.SOLV>
0

>  <SCORE.SYSTEM.norm>
0

>  <SCORE.heavy>
37

>  <SCORE.norm>
-0.266995

>  <RMSD>
11.003

$$$$
ligand
 OpenBabel02271912133D
libRbt.so/2013.1/901 2013/11/27
 37 40  0  0  0  0  0  0  0  0999 V2000
   -8.8984   18.9711   70.4709 C   0  0  1  0  0  0  0  0  0  0  0  0
   -7.3573   19.0078   70.6760 C   0  0  1  0  0  0  0  0  0  0  0  0
   -6.8014   20.4433   70.6159 C   0  0  0  0  0  0  0  0  0  0  0  0
   -7.1976   21.0820   69.2483 C   0  0  1  0  0  0  0  0  0  0  0  0
   -8.7509   21.0886   69.0727 C   0  0  1  0  0  0  0  0  0  0  0  0
   -9.1327   21.7432   67.6690 C   0  0  1  0  0  0  0  0  0  0  0  0
   -8.5760   23.1963   67.6210 C   0  0  1  0  0  0  0  0  0  0  0  0
   -7.0337   23.1323   67.8354 C   0  0  2  0  0  0  0  0  0  0  0  0
  -10.1911   23.4876   65.6167 C   0  0  0  0  0  0  0  0  0  0  0  0
   -6.9865   18.3635   71.9537 N   0  0  0  0  0  0  0  0  0  0  0  0
   -8.9061   23.8460   66.2974 N   0  0  0  0  0  0  0  0  0  0  0  0
   -9.6170   19.5564   71.5743 O   0  0  0  0  0  0  0  0  0  0  0  0
   -9.2202   19.6770   69.2031 O   0  0  0  0  0  0  0  0  0  0  0  0
   -6.6925   22.4875   69.1102 O   0  0  0  0  0  0  0  0  0  0  0  0
   -8.5332   21.0014   66.6147 O   0  0  0  0  0  0  0  0  0  0  0  0
   -6.4838   24.4447   67.8183 O   0  0  0  0  0  0  0  0  0  0  0  0
   -5.4299   24.6287   66.8412 C   0  0  2  0  0  0  0  0  0  0  0  0
   -5.0875   26.1180   66.5997 C   0  0  1  0  0  0  0  0  0  0  0  0
   -6.2847   26.8620   65.9249 C   0  0  2  0  0  0  0  0  0  0  0  0
   -6.5869   26.2032   64.5943 C   0  0  1  0  0  0  0  0  0  0  0  0
   -6.9591   24.7108   64.8430 C   0  0  1  0  0  0  0  0  0  0  0  0
   -7.2575   23.9667   63.5428 C   0  0  0  0  0  0  0  0  0  0  0  0
   -7.7078   26.9177   63.9372 N   0  0  0  0  0  0  0  0  0  0  0  0
   -5.8262   24.0226   65.5350 O   0  0  0  0  0  0  0  0  0  0  0  0
   -4.7319   26.6918   67.8773 O   0  0  0  0  0  0  0  0  0  0  0  0
   -5.9400   28.2305   65.6976 O   0  0  0  0  0  0  0  0  0  0  0  0
   -7.5630   22.6247   63.8343 O   0  0  0  0  0  0  0  0  0  0  0  0
   -9.1543   19.4560   73.0116 C   0  0  1  0  0  0  0  0  0  0  0  0
   -9.5333   20.7745   73.7400 C   0  0  1  0  0  0  0  0  0  0  0  0
   -9.0709   20.7152   75.2248 C   0  0  2  0  0  0  0  0  0  0  0  0
   -9.7668   19.5228   75.9263 C   0  0  1  0  0  0  0  0  0  0  0  0
   -9.3935   18.1732   75.2146 C   0  0  0  0  0  0  0  0  0  0  0  0
   -9.8465   18.2620   73.7417 C   0  0  2  0  0  0  0  0  0  0  0  0
   -9.3389   19.4606   77.3446 N   0  0  0  0  0  0  0  0  0  0  0  0
   -9.4933   16.9992   73.0841 N   0  0  0  0  0  0  0  0  0  0  0  0
   -8.8867   21.8884   73.0855 O   0  0  0  0  0  0  0  0  0  0  0  0
   -9.4293   21.9539   75.8767 O   0  0  0  0  0  0  0  0  0  0  0  0
  1  2  1  0  0  0  0
  1 12  1  1  0  0  0
  1 13  1  0  0  0  0
  2  3  1  0  0  0  0
  2 10  1  1  0  0  0
  4  3  1  1  0  0  0
  4  5  1  0  0  0  0
  4 14  1  0  0  0  0
  5  6  1  0  0  0  0
  5 13  1  6  0  0  0
  6  7  1  0  0  0  0
  6 15  1  6  0  0  0
  7  8  1  0  0  0  0
  7 11  1  6  0  0  0
  8 14  1  0  0  0  0
  8 16  1  1  0  0  0
  9 11  1  0  0  0  0
 17 16  1  1  0  0  0
 17 18  1  0  0  0  0
 17 24  1  0  0  0  0
 18 19  1  0  0  0  0
 18 25  1  1  0  0  0
 19 20  1  0  0  0  0
 19 26  1  6  0  0  0
 20 21  1  0  0  0  0
 20 23  1  1  0  0  0
 21 22  1  6  0  0  0
 21 24  1  0  0  0  0
 22 27  1  0  0  0  0
 28 12  1  6  0  0  0
 28 29  1  0  0  0  0
 28 33  1  0  0  0  0
 29 30  1  0  0  0  0
 29 36  1  6  0  0  0
 30 31  1  0  0  0  0
 30 37  1  1  0  0  0
 31 32  1  0  0  0  0
 31 34  1  1  0  0  0
 32 33  1  0  0  0  0
 33 35  1  6  0  0  0
M  END
>  <CHROM.1>
-34.48099257,33.35483336,-124.20318227,145.35225672,166.10144285,179.00743560
-7.92517447,22.19274084,69.33455572,2.19995504,1.17749593,1.57640413

>  <Name>
ligand

>  <RI>
0

>  <Rbt.Current_Directory>
/home/itssahil/PROJECTS/Mol_Feturizer/Test_systems_manuscript/rnas/2g5k

>  <Rbt.Executable>
rbdock ($Id: //depot/dev/client3/rdock/2013.1/src/exe/rbdock.cxx#4 $)

>  <Rbt.Library>
libRbt.so (2013.1, Build901 2013/11/27)

>  <Rbt.Parameter_File>
/export/apps/rDock/src/rDock_2013.1_src/data/scripts/dock_solv.prm

>  <Rbt.Receptor>
prm/blind_docking_80.prm

>  <SCORE>
13.4066

>  <SCORE.INTER>
-2.03541

>  <SCORE.INTER.CONST>
1

>  <SCORE.INTER.POLAR>
0

>  <SCORE.INTER.ROT>
6

>  <SCORE.INTER.SOLV>
18.2244

>  <SCORE.INTER.VDW>
-15.0317

>  <SCORE.INTER.norm>
-0.055011

>  <SCORE.INTRA>
8.02164

>  <SCORE.INTRA.DIHEDRAL>
4.34196

>  <SCORE.INTRA.DIHEDRAL.0>
11.3972

>  <SCORE.INTRA.POLAR>
0

>  <SCORE.INTRA.POLAR.0>
0

>  <SCORE.INTRA.REPUL>
0

>  <SCORE.INTRA.REPUL.0>
0

>  <SCORE.INTRA.SOLV>
6.9705

>  <SCORE.INTRA.SOLV.lig_0>
-92.3891

>  <SCORE.INTRA.VDW>
2.36541

>  <SCORE.INTRA.VDW.0>
-2.90606

>  <SCORE.INTRA.norm>
0.216801

>  <SCORE.RESTR>
7.42041

>  <SCORE.RESTR.CAVITY>
7.42041

>  <SCORE.RESTR.norm>
0.200552

>  <SCORE.SYSTEM>
0

>  <SCORE.SYSTEM.CONST>
0

>  <SCORE.SYSTEM.DIHEDRAL>
0

>  <SCORE.SYSTEM.SOLV>
0

>  <SCORE.SYSTEM.norm>
0

>  <SCORE.heavy>
37

>  <SCORE.norm>
0.362342

>  <RMSD>
11.008

$$$$
ligand
 OpenBabel02271912133D
libRbt.so/2013.1/901 2013/11/27
 37 40  0  0  0  0  0  0  0  0999 V2000
   -8.8901   18.9861   70.4967 C   0  0  1  0  0  0  0  0  0  0  0  0
   -7.3498   19.0348   70.7056 C   0  0  1  0  0  0  0  0  0  0  0  0
   -6.8044   20.4743   70.6434 C   0  0  0  0  0  0  0  0  0  0  0  0
   -7.2019   21.1067   69.2733 C   0  0  1  0  0  0  0  0  0  0  0  0
   -8.7548   21.1013   69.0937 C   0  0  1  0  0  0  0  0  0  0  0  0
   -9.1379   21.7496   67.6874 C   0  0  1  0  0  0  0  0  0  0  0  0
   -8.5919   23.2067   67.6373 C   0  0  1  0  0  0  0  0  0  0  0  0
   -7.0497   23.1547   67.8558 C   0  0  2  0  0  0  0  0  0  0  0  0
  -10.1733   23.4353   65.5983 C   0  0  0  0  0  0  0  0  0  0  0  0
   -6.9775   18.3964   71.9858 N   0  0  0  0  0  0  0  0  0  0  0  0
   -8.9234   23.8507   66.3114 N   0  0  0  0  0  0  0  0  0  0  0  0
   -9.6158   19.5687   71.5968 O   0  0  0  0  0  0  0  0  0  0  0  0
   -9.2139   19.6865   69.2263 O   0  0  0  0  0  0  0  0  0  0  0  0
   -6.7070   22.5156   69.1330 O   0  0  0  0  0  0  0  0  0  0  0  0
   -8.5302   21.0097   66.6365 O   0  0  0  0  0  0  0  0  0  0  0  0
   -6.5095   24.4711   67.8369 O   0  0  0  0  0  0  0  0  0  0  0  0
   -5.4510   24.6592   66.8656 C   0  0  2  0  0  0  0  0  0  0  0  0
   -5.1151   26.1499   66.6238 C   0  0  1  0  0  0  0  0  0  0  0  0
   -6.3123   26.8867   65.9410 C   0  0  2  0  0  0  0  0  0  0  0  0
   -6.6034   26.2242   64.6097 C   0  0  1  0  0  0  0  0  0  0  0  0
   -6.9692   24.7303   64.8586 C   0  0  1  0  0  0  0  0  0  0  0  0
   -7.2562   23.9827   63.5578 C   0  0  0  0  0  0  0  0  0  0  0  0
   -7.7243   26.9319   63.9451 N   0  0  0  0  0  0  0  0  0  0  0  0
   -5.8366   24.0491   65.5581 O   0  0  0  0  0  0  0  0  0  0  0  0
   -4.7699   26.7275   67.9025 O   0  0  0  0  0  0  0  0  0  0  0  0
   -5.9735   28.2566   65.7136 O   0  0  0  0  0  0  0  0  0  0  0  0
   -7.5336   22.6342   63.8476 O   0  0  0  0  0  0  0  0  0  0  0  0
   -9.1582   19.4717   73.0359 C   0  0  1  0  0  0  0  0  0  0  0  0
   -9.5377   20.7928   73.7594 C   0  0  1  0  0  0  0  0  0  0  0  0
   -9.0804   20.7370   75.2459 C   0  0  2  0  0  0  0  0  0  0  0  0
   -9.7806   19.5477   75.9484 C   0  0  1  0  0  0  0  0  0  0  0  0
   -9.4071   18.1955   75.2418 C   0  0  0  0  0  0  0  0  0  0  0  0
   -9.8549   18.2809   73.7671 C   0  0  2  0  0  0  0  0  0  0  0  0
   -9.3577   19.4888   77.3683 N   0  0  0  0  0  0  0  0  0  0  0  0
   -9.5015   17.0156   73.1143 N   0  0  0  0  0  0  0  0  0  0  0  0
   -8.8870   21.9038   73.1039 O   0  0  0  0  0  0  0  0  0  0  0  0
   -9.4391   21.9781   75.8930 O   0  0  0  0  0  0  0  0  0  0  0  0
  1  2  1  0  0  0  0
  1 12  1  1  0  0  0
  1 13  1  0  0  0  0
  2  3  1  0  0  0  0
  2 10  1  1  0  0  0
  4  3  1  1  0  0  0
  4  5  1  0  0  0  0
  4 14  1  0  0  0  0
  5  6  1  0  0  0  0
  5 13  1  6  0  0  0
  6  7  1  0  0  0  0
  6 15  1  6  0  0  0
  7  8  1  0  0  0  0
  7 11  1  6  0  0  0
  8 14  1  0  0  0  0
  8 16  1  1  0  0  0
  9 11  1  0  0  0  0
 17 16  1  1  0  0  0
 17 18  1  0  0  0  0
 17 24  1  0  0  0  0
 18 19  1  0  0  0  0
 18 25  1  1  0  0  0
 19 20  1  0  0  0  0
 19 26  1  6  0  0  0
 20 21  1  0  0  0  0
 20 23  1  1  0  0  0
 21 22  1  6  0  0  0
 21 24  1  0  0  0  0
 22 27  1  0  0  0  0
 28 12  1  6  0  0  0
 28 29  1  0  0  0  0
 28 33  1  0  0  0  0
 29 30  1  0  0  0  0
 29 36  1  6  0  0  0
 30 31  1  0  0  0  0
 30 37  1  1  0  0  0
 31 32  1  0  0  0  0
 31 34  1  1  0  0  0
 32 33  1  0  0  0  0
 33 35  1  6  0  0  0
M  END
>  <CHROM.1>
-34.67121250,30.61178523,-124.42661847,144.95978304,166.29135338,177.99779422
-7.93354968,22.21102646,69.35456137,2.20602121,1.18240005,1.56878297

>  <Name>
ligand

>  <RI>
0

>  <Rbt.Current_Directory>
/home/itssahil/PROJECTS/Mol_Feturizer/Test_systems_manuscript/rnas/2g5k

>  <Rbt.Executable>
rbdock ($Id: //depot/dev/client3/rdock/2013.1/src/exe/rbdock.cxx#4 $)

>  <Rbt.Library>
libRbt.so (2013.1, Build901 2013/11/27)

>  <Rbt.Parameter_File>
/export/apps/rDock/src/rDock_2013.1_src/data/scripts/dock_solv.prm

>  <Rbt.Receptor>
prm/blind_docking_80.prm

>  <SCORE>
12.8467

>  <SCORE.INTER>
-2.86254

>  <SCORE.INTER.CONST>
1

>  <SCORE.INTER.POLAR>
0

>  <SCORE.INTER.ROT>
6

>  <SCORE.INTER.SOLV>
18.1064

>  <SCORE.INTER.VDW>
-15.5438

>  <SCORE.INTER.norm>
-0.0773658

>  <SCORE.INTRA>
8.17197

>  <SCORE.INTRA.DIHEDRAL>
4.44194

>  <SCORE.INTRA.DIHEDRAL.0>
11.3972

>  <SCORE.INTRA.POLAR>
0

>  <SCORE.INTRA.POLAR.0>
0

>  <SCORE.INTRA.REPUL>
0

>  <SCORE.INTRA.REPUL.0>
0

>  <SCORE.INTRA.SOLV>
6.89703

>  <SCORE.INTRA.SOLV.lig_0>
-92.3891

>  <SCORE.INTRA.VDW>
2.50249

>  <SCORE.INTRA.VDW.0>
-2.90606

>  <SCORE.INTRA.norm>
0.220864

>  <SCORE.RESTR>
7.53724

>  <SCORE.RESTR.CAVITY>
7.53724

>  <SCORE.RESTR.norm>
0.203709

>  <SCORE.SYSTEM>
0

>  <SCORE.SYSTEM.CONST>
0

>  <SCORE.SYSTEM.DIHEDRAL>
0

>  <SCORE.SYSTEM.SOLV>
0

>  <SCORE.SYSTEM.norm>
0

>  <SCORE.heavy>
37

>  <SCORE.norm>
0.347208

>  <RMSD>
11.008

$$$$
ligand
 OpenBabel02271912133D
libRbt.so/2013.1/901 2013/11/27
 37 40  0  0  0  0  0  0  0  0999 V2000
   -8.7350   18.9115   70.8564 C   0  0  1  0  0  0  0  0  0  0  0  0
   -7.2510   19.1694   71.2433 C   0  0  1  0  0  0  0  0  0  0  0  0
   -6.8580   20.6487   71.0687 C   0  0  0  0  0  0  0  0  0  0  0  0
   -7.1316   21.0734   69.5922 C   0  0  1  0  0  0  0  0  0  0  0  0
   -8.6365   20.8600   69.2272 C   0  0  1  0  0  0  0  0  0  0  0  0
   -8.8928   21.2981   67.7149 C   0  0  1  0  0  0  0  0  0  0  0  0
   -8.5027   22.7963   67.5500 C   0  0  1  0  0  0  0  0  0  0  0  0
   -7.0074   22.9561   67.9591 C   0  0  2  0  0  0  0  0  0  0  0  0
  -10.0923   23.1482   65.5351 C   0  0  0  0  0  0  0  0  0  0  0  0
   -6.9894   18.7257   72.6289 N   0  0  0  0  0  0  0  0  0  0  0  0
   -8.7185   23.2453   66.1236 N   0  0  0  0  0  0  0  0  0  0  0  0
   -9.6603   19.5193   71.7787 O   0  0  0  0  0  0  0  0  0  0  0  0
   -8.9567   19.4232   69.4787 O   0  0  0  0  0  0  0  0  0  0  0  0
   -6.7745   22.5079   69.3382 O   0  0  0  0  0  0  0  0  0  0  0  0
   -8.0736   20.5262   66.8464 O   0  0  0  0  0  0  0  0  0  0  0  0
   -6.6123   24.3182   67.8418 O   0  0  0  0  0  0  0  0  0  0  0  0
   -5.5302   24.5386   66.9038 C   0  0  2  0  0  0  0  0  0  0  0  0
   -5.1880   26.0363   66.7220 C   0  0  1  0  0  0  0  0  0  0  0  0
   -6.3679   26.7976   66.0359 C   0  0  2  0  0  0  0  0  0  0  0  0
   -6.6263   26.1818   64.6757 C   0  0  1  0  0  0  0  0  0  0  0  0
   -6.9985   24.6805   64.8638 C   0  0  1  0  0  0  0  0  0  0  0  0
   -7.2535   23.9787   63.5313 C   0  0  0  0  0  0  0  0  0  0  0  0
   -7.7303   26.9132   64.0086 N   0  0  0  0  0  0  0  0  0  0  0  0
   -5.8836   23.9744   65.5670 O   0  0  0  0  0  0  0  0  0  0  0  0
   -4.8742   26.5691   68.0281 O   0  0  0  0  0  0  0  0  0  0  0  0
   -6.0232   28.1741   65.8643 O   0  0  0  0  0  0  0  0  0  0  0  0
   -7.4913   22.6116   63.7635 O   0  0  0  0  0  0  0  0  0  0  0  0
   -9.6042   19.2999   73.2749 C   0  0  1  0  0  0  0  0  0  0  0  0
   -9.1721   17.8311   73.5374 C   0  0  1  0  0  0  0  0  0  0  0  0
   -9.1051   17.5605   75.0684 C   0  0  2  0  0  0  0  0  0  0  0  0
   -8.0735   18.5214   75.7094 C   0  0  1  0  0  0  0  0  0  0  0  0
   -8.4907   20.0161   75.4666 C   0  0  0  0  0  0  0  0  0  0  0  0
   -8.5663   20.2557   73.9436 C   0  0  2  0  0  0  0  0  0  0  0  0
   -7.9958   18.2677   77.1682 N   0  0  0  0  0  0  0  0  0  0  0  0
   -8.9576   21.6525   73.7254 N   0  0  0  0  0  0  0  0  0  0  0  0
  -10.1323   16.9332   72.9381 O   0  0  0  0  0  0  0  0  0  0  0  0
   -8.7078   16.1882   75.2845 O   0  0  0  0  0  0  0  0  0  0  0  0
  1  2  1  0  0  0  0
  1 12  1  1  0  0  0
  1 13  1  0  0  0  0
  2  3  1  0  0  0  0
  2 10  1  1  0  0  0
  4  3  1  1  0  0  0
  4  5  1  0  0  0  0
  4 14  1  0  0  0  0
  5  6  1  0  0  0  0
  5 13  1  6  0  0  0
  6  7  1  0  0  0  0
  6 15  1  6  0  0  0
  7  8  1  0  0  0  0
  7 11  1  6  0  0  0
  8 14  1  0  0  0  0
  8 16  1  1  0  0  0
  9 11  1  0  0  0  0
 17 16  1  1  0  0  0
 17 18  1  0  0  0  0
 17 24  1  0  0  0  0
 18 19  1  0  0  0  0
 18 25  1  1  0  0  0
 19 20  1  0  0  0  0
 19 26  1  6  0  0  0
 20 21  1  0  0  0  0
 20 23  1  1  0  0  0
 21 22  1  6  0  0  0
 21 24  1  0  0  0  0
 22 27  1  0  0  0  0
 28 12  1  6  0  0  0
 28 29  1  0  0  0  0
 28 33  1  0  0  0  0
 29 30  1  0  0  0  0
 29 36  1  6  0  0  0
 30 31  1  0  0  0  0
 30 37  1  6  0  0  0
 31 32  1  0  0  0  0
 31 34  1  1  0  0  0
 32 33  1  0  0  0  0
 33 35  1  1  0  0  0
M  END
>  <CHROM.1>
-52.76411228,59.23415885,-119.51780176,-36.10110478,175.96766167,175.91589529
-7.77184897,21.79656388,69.43940639,1.91532618,1.03790316,1.93737104

>  <Name>
ligand

>  <RI>
0

>  <Rbt.Current_Directory>
/home/itssahil/PROJECTS/Mol_Feturizer/Test_systems_manuscript/rnas/2g5k

>  <Rbt.Executable>
rbdock ($Id: //depot/dev/client3/rdock/2013.1/src/exe/rbdock.cxx#4 $)

>  <Rbt.Library>
libRbt.so (2013.1, Build901 2013/11/27)

>  <Rbt.Parameter_File>
/export/apps/rDock/src/rDock_2013.1_src/data/scripts/dock_solv.prm

>  <Rbt.Receptor>
prm/blind_docking_80.prm

>  <SCORE>
6.99534

>  <SCORE.INTER>
-5.79267

>  <SCORE.INTER.CONST>
1

>  <SCORE.INTER.POLAR>
0

>  <SCORE.INTER.ROT>
6

>  <SCORE.INTER.SOLV>
19.1489

>  <SCORE.INTER.VDW>
-17.8447

>  <SCORE.INTER.norm>
-0.156559

>  <SCORE.INTRA>
8.5033

>  <SCORE.INTRA.DIHEDRAL>
-1.34345

>  <SCORE.INTRA.DIHEDRAL.0>
11.3972

>  <SCORE.INTRA.POLAR>
0

>  <SCORE.INTRA.POLAR.0>
0

>  <SCORE.INTRA.REPUL>
0

>  <SCORE.INTRA.REPUL.0>
0

>  <SCORE.INTRA.SOLV>
9.14096

>  <SCORE.INTRA.SOLV.lig_0>
-92.3891

>  <SCORE.INTRA.VDW>
4.60455

>  <SCORE.INTRA.VDW.0>
-2.90606

>  <SCORE.INTRA.norm>
0.229819

>  <SCORE.RESTR>
4.28471

>  <SCORE.RESTR.CAVITY>
4.28471

>  <SCORE.RESTR.norm>
0.115803

>  <SCORE.SYSTEM>
0

>  <SCORE.SYSTEM.CONST>
0

>  <SCORE.SYSTEM.DIHEDRAL>
0

>  <SCORE.SYSTEM.SOLV>
0

>  <SCORE.SYSTEM.norm>
0

>  <SCORE.heavy>
37

>  <SCORE.norm>
0.189063

>  <RMSD>
11.024

$$$$
ligand
 OpenBabel02271912133D
libRbt.so/2013.1/901 2013/11/27
 37 40  0  0  0  0  0  0  0  0999 V2000
   -2.5255   29.5400   63.1129 C   0  0  1  0  0  0  0  0  0  0  0  0
   -2.6530   28.0756   62.6053 C   0  0  1  0  0  0  0  0  0  0  0  0
   -1.7790   27.1040   63.4212 C   0  0  0  0  0  0  0  0  0  0  0  0
   -0.2964   27.5875   63.3632 C   0  0  1  0  0  0  0  0  0  0  0  0
   -0.1686   29.0413   63.9234 C   0  0  1  0  0  0  0  0  0  0  0  0
    1.3530   29.5153   63.8528 C   0  0  1  0  0  0  0  0  0  0  0  0
    2.2270   28.5342   64.6879 C   0  0  1  0  0  0  0  0  0  0  0  0
    2.0345   27.1001   64.1090 C   0  0  2  0  0  0  0  0  0  0  0  0
    4.4420   29.0791   65.9157 C   0  0  0  0  0  0  0  0  0  0  0  0
   -4.0652   27.6392   62.6235 N   0  0  0  0  0  0  0  0  0  0  0  0
    3.6805   28.9430   64.6332 N   0  0  0  0  0  0  0  0  0  0  0  0
   -3.1085   29.7256   64.4174 O   0  0  0  0  0  0  0  0  0  0  0  0
   -1.0856   29.9087   63.1256 O   0  0  0  0  0  0  0  0  0  0  0  0
    0.6240   26.6916   64.1376 O   0  0  0  0  0  0  0  0  0  0  0  0
    1.8050   29.4782   62.5054 O   0  0  0  0  0  0  0  0  0  0  0  0
    2.8030   26.1647   64.8570 O   0  0  0  0  0  0  0  0  0  0  0  0
    2.5227   24.7804   64.5337 C   0  0  2  0  0  0  0  0  0  0  0  0
    3.2047   23.7867   65.5037 C   0  0  1  0  0  0  0  0  0  0  0  0
    4.7595   23.8427   65.3558 C   0  0  2  0  0  0  0  0  0  0  0  0
    5.1322   23.4779   63.9332 C   0  0  1  0  0  0  0  0  0  0  0  0
    4.4673   24.4971   62.9601 C   0  0  1  0  0  0  0  0  0  0  0  0
    4.7775   24.1841   61.4975 C   0  0  0  0  0  0  0  0  0  0  0  0
    6.6079   23.5071   63.7905 N   0  0  0  0  0  0  0  0  0  0  0  0
    2.9840   24.4711   63.1473 O   0  0  0  0  0  0  0  0  0  0  0  0
    2.7662   24.1182   66.8401 O   0  0  0  0  0  0  0  0  0  0  0  0
    5.3663   22.9064   66.2493 O   0  0  0  0  0  0  0  0  0  0  0  0
    6.1511   24.3765   61.2618 O   0  0  0  0  0  0  0  0  0  0  0  0
   -3.4991   31.0809   64.9657 C   0  0  1  0  0  0  0  0  0  0  0  0
   -4.8612   31.4873   64.3391 C   0  0  1  0  0  0  0  0  0  0  0  0
   -5.2997   32.8811   64.8746 C   0  0  2  0  0  0  0  0  0  0  0  0
   -5.4437   32.8113   66.4149 C   0  0  1  0  0  0  0  0  0  0  0  0
   -4.0766   32.4103   67.0764 C   0  0  0  0  0  0  0  0  0  0  0  0
   -3.6547   31.0343   66.5186 C   0  0  2  0  0  0  0  0  0  0  0  0
   -5.8683   34.1329   66.9360 N   0  0  0  0  0  0  0  0  0  0  0  0
   -2.3774   30.6679   67.1399 N   0  0  0  0  0  0  0  0  0  0  0  0
   -4.7293   31.5508   62.9018 O   0  0  0  0  0  0  0  0  0  0  0  0
   -6.5639   33.2376   64.2725 O   0  0  0  0  0  0  0  0  0  0  0  0
  1  2  1  0  0  0  0
  1 12  1  1  0  0  0
  1 13  1  0  0  0  0
  2  3  1  0  0  0  0
  2 10  1  1  0  0  0
  4  3  1  1  0  0  0
  4  5  1  0  0  0  0
  4 14  1  0  0  0  0
  5  6  1  0  0  0  0
  5 13  1  6  0  0  0
  6  7  1  0  0  0  0
  6 15  1  6  0  0  0
  7  8  1  0  0  0  0
  7 11  1  6  0  0  0
  8 14  1  0  0  0  0
  8 16  1  1  0  0  0
  9 11  1  0  0  0  0
 17 16  1  1  0  0  0
 17 18  1  0  0  0  0
 17 24  1  0  0  0  0
 18 19  1  0  0  0  0
 18 25  1  1  0  0  0
 19 20  1  0  0  0  0
 19 26  1  1  0  0  0
 20 21  1  0  0  0  0
 20 23  1  1  0  0  0
 21 22  1  6  0  0  0
 21 24  1  0  0  0  0
 22 27  1  0  0  0  0
 28 12  1  6  0  0  0
 28 29  1  0  0  0  0
 28 33  1  0  0  0  0
 29 30  1  0  0  0  0
 29 36  1  6  0  0  0
 30 31  1  0  0  0  0
 30 37  1  6  0  0  0
 31 32  1  0  0  0  0
 31 34  1  1  0  0  0
 32 33  1  0  0  0  0
 33 35  1  1  0  0  0
M  END
>  <CHROM.1>
-160.95540251,129.19190948,170.51893840,79.18878326,-171.16848378,-66.58668543
0.19136599,28.06592589,64.35803055,2.78768092,-0.59505025,1.11863363

>  <Name>
ligand

>  <RI>
0

>  <Rbt.Current_Directory>
/home/itssahil/PROJECTS/Mol_Feturizer/Test_systems_manuscript/rnas/2g5k

>  <Rbt.Executable>
rbdock ($Id: //depot/dev/client3/rdock/2013.1/src/exe/rbdock.cxx#4 $)

>  <Rbt.Library>
libRbt.so (2013.1, Build901 2013/11/27)

>  <Rbt.Parameter_File>
/export/apps/rDock/src/rDock_2013.1_src/data/scripts/dock_solv.prm

>  <Rbt.Receptor>
prm/pocket_docking_7.prm

>  <SCORE>
-12.9932

>  <SCORE.INTER>
-10.249

>  <SCORE.INTER.CONST>
1

>  <SCORE.INTER.POLAR>
0

>  <SCORE.INTER.ROT>
6

>  <SCORE.INTER.SOLV>
18.1578

>  <SCORE.INTER.VDW>
-20.4852

>  <SCORE.INTER.norm>
-0.277

>  <SCORE.INTRA>
-2.74419

>  <SCORE.INTRA.DIHEDRAL>
-5.95299

>  <SCORE.INTRA.DIHEDRAL.0>
11.3972

>  <SCORE.INTRA.POLAR>
0

>  <SCORE.INTRA.POLAR.0>
0

>  <SCORE.INTRA.REPUL>
0

>  <SCORE.INTRA.REPUL.0>
0

>  <SCORE.INTRA.SOLV>
-0.329302

>  <SCORE.INTRA.SOLV.lig_0>
-92.3891

>  <SCORE.INTRA.VDW>
0.396955

>  <SCORE.INTRA.VDW.0>
-2.90606

>  <SCORE.INTRA.norm>
-0.0741673

>  <SCORE.RESTR>
0

>  <SCORE.RESTR.CAVITY>
0

>  <SCORE.RESTR.norm>
0

>  <SCORE.SYSTEM>
0

>  <SCORE.SYSTEM.CONST>
0

>  <SCORE.SYSTEM.DIHEDRAL>
0

>  <SCORE.SYSTEM.SOLV>
0

>  <SCORE.SYSTEM.norm>
0

>  <SCORE.heavy>
37

>  <SCORE.norm>
-0.351167

>  <RMSD>
11.039

$$$$
ligand
 OpenBabel02271912133D
libRbt.so/2013.1/901 2013/11/27
 37 40  0  0  0  0  0  0  0  0999 V2000
   -8.7217   18.8902   70.8769 C   0  0  1  0  0  0  0  0  0  0  0  0
   -7.2356   19.1467   71.2563 C   0  0  1  0  0  0  0  0  0  0  0  0
   -6.8403   20.6245   71.0733 C   0  0  0  0  0  0  0  0  0  0  0  0
   -7.1192   21.0431   69.5961 C   0  0  1  0  0  0  0  0  0  0  0  0
   -8.6261   20.8310   69.2385 C   0  0  1  0  0  0  0  0  0  0  0  0
   -8.8879   21.2629   67.7253 C   0  0  1  0  0  0  0  0  0  0  0  0
   -8.4954   22.7595   67.5519 C   0  0  1  0  0  0  0  0  0  0  0  0
   -6.9981   22.9181   67.9539 C   0  0  2  0  0  0  0  0  0  0  0  0
  -10.1073   23.1860   65.5694 C   0  0  0  0  0  0  0  0  0  0  0  0
   -6.9690   18.7089   72.6428 N   0  0  0  0  0  0  0  0  0  0  0  0
   -8.7163   23.2025   66.1244 N   0  0  0  0  0  0  0  0  0  0  0  0
   -9.6419   19.5041   71.8003 O   0  0  0  0  0  0  0  0  0  0  0  0
   -8.9482   19.3961   69.4978 O   0  0  0  0  0  0  0  0  0  0  0  0
   -6.7603   22.4756   69.3341 O   0  0  0  0  0  0  0  0  0  0  0  0
   -8.0740   20.4854   66.8568 O   0  0  0  0  0  0  0  0  0  0  0  0
   -6.6007   24.2788   67.8288 O   0  0  0  0  0  0  0  0  0  0  0  0
   -5.5212   24.4925   66.8864 C   0  0  2  0  0  0  0  0  0  0  0  0
   -5.1664   25.9877   66.7078 C   0  0  1  0  0  0  0  0  0  0  0  0
   -6.3426   26.7618   66.0298 C   0  0  2  0  0  0  0  0  0  0  0  0
   -6.6130   26.1528   64.6689 C   0  0  1  0  0  0  0  0  0  0  0  0
   -6.9979   24.6544   64.8539 C   0  0  1  0  0  0  0  0  0  0  0  0
   -7.2656   23.9592   63.5203 C   0  0  0  0  0  0  0  0  0  0  0  0
   -7.7136   26.8963   64.0095 N   0  0  0  0  0  0  0  0  0  0  0  0
   -5.8860   23.9359   65.5494 O   0  0  0  0  0  0  0  0  0  0  0  0
   -4.8415   26.5133   68.0140 O   0  0  0  0  0  0  0  0  0  0  0  0
   -5.9863   28.1357   65.8610 O   0  0  0  0  0  0  0  0  0  0  0  0
   -7.5155   22.5938   63.7494 O   0  0  0  0  0  0  0  0  0  0  0  0
   -9.5878   19.2811   73.2961 C   0  0  1  0  0  0  0  0  0  0  0  0
   -9.1663   17.8088   73.5556 C   0  0  1  0  0  0  0  0  0  0  0  0
   -9.1018   17.5345   75.0861 C   0  0  2  0  0  0  0  0  0  0  0  0
   -8.0636   18.4867   75.7294 C   0  0  1  0  0  0  0  0  0  0  0  0
   -8.4701   19.9849   75.4896 C   0  0  0  0  0  0  0  0  0  0  0  0
   -8.5435   20.2281   73.9671 C   0  0  2  0  0  0  0  0  0  0  0  0
   -7.9883   18.2295   77.1877 N   0  0  0  0  0  0  0  0  0  0  0  0
   -8.9247   21.6282   73.7518 N   0  0  0  0  0  0  0  0  0  0  0  0
  -10.1326   16.9189   72.9541 O   0  0  0  0  0  0  0  0  0  0  0  0
   -8.7143   16.1590   75.2995 O   0  0  0  0  0  0  0  0  0  0  0  0
  1  2  1  0  0  0  0
  1 12  1  1  0  0  0
  1 13  1  0  0  0  0
  2  3  1  0  0  0  0
  2 10  1  1  0  0  0
  4  3  1  1  0  0  0
  4  5  1  0  0  0  0
  4 14  1  0  0  0  0
  5  6  1  0  0  0  0
  5 13  1  6  0  0  0
  6  7  1  0  0  0  0
  6 15  1  6  0  0  0
  7  8  1  0  0  0  0
  7 11  1  6  0  0  0
  8 14  1  0  0  0  0
  8 16  1  1  0  0  0
  9 11  1  0  0  0  0
 17 16  1  1  0  0  0
 17 18  1  0  0  0  0
 17 24  1  0  0  0  0
 18 19  1  0  0  0  0
 18 25  1  1  0  0  0
 19 20  1  0  0  0  0
 19 26  1  6  0  0  0
 20 21  1  0  0  0  0
 20 23  1  1  0  0  0
 21 22  1  6  0  0  0
 21 24  1  0  0  0  0
 22 27  1  0  0  0  0
 28 12  1  6  0  0  0
 28 29  1  0  0  0  0
 28 33  1  0  0  0  0
 29 30  1  0  0  0  0
 29 36  1  6  0  0  0
 30 31  1  0  0  0  0
 30 37  1  6  0  0  0
 31 32  1  0  0  0  0
 31 34  1  1  0  0  0
 32 33  1  0  0  0  0
 33 35  1  1  0  0  0
M  END
>  <CHROM.1>
-53.35301324,62.99823123,-119.58176128,-36.01131416,176.59077743,175.95673606
-7.76177570,21.76817283,69.44549229,1.91045714,1.03122721,1.94071386

>  <Name>
ligand

>  <RI>
0

>  <Rbt.Current_Directory>
/home/itssahil/PROJECTS/Mol_Feturizer/Test_systems_manuscript/rnas/2g5k

>  <Rbt.Executable>
rbdock ($Id: //depot/dev/client3/rdock/2013.1/src/exe/rbdock.cxx#4 $)

>  <Rbt.Library>
libRbt.so (2013.1, Build901 2013/11/27)

>  <Rbt.Parameter_File>
/export/apps/rDock/src/rDock_2013.1_src/data/scripts/dock_solv.prm

>  <Rbt.Receptor>
prm/blind_docking_80.prm

>  <SCORE>
7.15408

>  <SCORE.INTER>
-5.12514

>  <SCORE.INTER.CONST>
1

>  <SCORE.INTER.POLAR>
0

>  <SCORE.INTER.ROT>
6

>  <SCORE.INTER.SOLV>
19.3719

>  <SCORE.INTER.VDW>
-17.4741

>  <SCORE.INTER.norm>
-0.138517

>  <SCORE.INTRA>
8.02765

>  <SCORE.INTRA.DIHEDRAL>
-1.38347

>  <SCORE.INTRA.DIHEDRAL.0>
11.3972

>  <SCORE.INTRA.POLAR>
0

>  <SCORE.INTRA.POLAR.0>
0

>  <SCORE.INTRA.REPUL>
0

>  <SCORE.INTRA.REPUL.0>
0

>  <SCORE.INTRA.SOLV>
9.03587

>  <SCORE.INTRA.SOLV.lig_0>
-92.3891

>  <SCORE.INTRA.VDW>
4.20145

>  <SCORE.INTRA.VDW.0>
-2.90606

>  <SCORE.INTRA.norm>
0.216963

>  <SCORE.RESTR>
4.25158

>  <SCORE.RESTR.CAVITY>
4.25158

>  <SCORE.RESTR.norm>
0.114907

>  <SCORE.SYSTEM>
0

>  <SCORE.SYSTEM.CONST>
0

>  <SCORE.SYSTEM.DIHEDRAL>
0

>  <SCORE.SYSTEM.SOLV>
0

>  <SCORE.SYSTEM.norm>
0

>  <SCORE.heavy>
37

>  <SCORE.norm>
0.193354

>  <RMSD>
11.041

$$$$
ligand
 OpenBabel02271912133D
libRbt.so/2013.1/901 2013/11/27
 37 40  0  0  0  0  0  0  0  0999 V2000
   -1.9669   26.8613   66.8342 C   0  0  1  0  0  0  0  0  0  0  0  0
   -1.6525   25.3839   67.2042 C   0  0  1  0  0  0  0  0  0  0  0  0
   -0.1489   25.0682   67.0908 C   0  0  0  0  0  0  0  0  0  0  0  0
    0.3280   25.3938   65.6411 C   0  0  1  0  0  0  0  0  0  0  0  0
    0.0559   26.8939   65.2954 C   0  0  1  0  0  0  0  0  0  0  0  0
    0.5488   27.2037   63.8102 C   0  0  1  0  0  0  0  0  0  0  0  0
    2.0706   26.8916   63.7075 C   0  0  1  0  0  0  0  0  0  0  0  0
    2.2867   25.3976   64.0950 C   0  0  2  0  0  0  0  0  0  0  0  0
    3.1982   28.4865   62.0059 C   0  0  0  0  0  0  0  0  0  0  0  0
   -2.1448   25.0711   68.5625 N   0  0  0  0  0  0  0  0  0  0  0  0
    2.5724   27.1597   62.3078 N   0  0  0  0  0  0  0  0  0  0  0  0
   -1.4488   27.7956   67.8011 O   0  0  0  0  0  0  0  0  0  0  0  0
   -1.4050   27.1373   65.4861 O   0  0  0  0  0  0  0  0  0  0  0  0
    1.7886   25.1134   65.4472 O   0  0  0  0  0  0  0  0  0  0  0  0
   -0.1408   26.3662   62.8914 O   0  0  0  0  0  0  0  0  0  0  0  0
    3.6708   25.0728   64.0334 O   0  0  0  0  0  0  0  0  0  0  0  0
    3.9411   23.6495   64.0115 C   0  0  2  0  0  0  0  0  0  0  0  0
    5.4175   23.3131   64.3284 C   0  0  1  0  0  0  0  0  0  0  0  0
    6.3625   23.8369   63.1993 C   0  0  2  0  0  0  0  0  0  0  0  0
    5.9767   23.1792   61.8899 C   0  0  1  0  0  0  0  0  0  0  0  0
    4.4983   23.5430   61.5587 C   0  0  1  0  0  0  0  0  0  0  0  0
    4.0233   22.8972   60.2585 C   0  0  0  0  0  0  0  0  0  0  0  0
    6.8835   23.6544   60.8171 N   0  0  0  0  0  0  0  0  0  0  0  0
    3.6102   23.0824   62.6701 O   0  0  0  0  0  0  0  0  0  0  0  0
    5.7251   23.8913   65.6165 O   0  0  0  0  0  0  0  0  0  0  0  0
    7.7177   23.5013   63.5057 O   0  0  0  0  0  0  0  0  0  0  0  0
    4.7103   23.4738   59.1746 O   0  0  0  0  0  0  0  0  0  0  0  0
   -1.6463   29.2922   67.6963 C   0  0  1  0  0  0  0  0  0  0  0  0
   -3.1306   29.6131   68.0230 C   0  0  1  0  0  0  0  0  0  0  0  0
   -3.3791   31.1461   67.9229 C   0  0  2  0  0  0  0  0  0  0  0  0
   -2.4614   31.8766   68.9340 C   0  0  1  0  0  0  0  0  0  0  0  0
   -0.9517   31.5764   68.6214 C   0  0  0  0  0  0  0  0  0  0  0  0
   -0.7335   30.0510   68.7106 C   0  0  2  0  0  0  0  0  0  0  0  0
   -2.6948   33.3386   68.8526 N   0  0  0  0  0  0  0  0  0  0  0  0
    0.6777   29.7790   68.4162 N   0  0  0  0  0  0  0  0  0  0  0  0
   -3.9884   28.9306   67.0820 O   0  0  0  0  0  0  0  0  0  0  0  0
   -4.7661   31.4163   68.2247 O   0  0  0  0  0  0  0  0  0  0  0  0
  1  2  1  0  0  0  0
  1 12  1  1  0  0  0
  1 13  1  0  0  0  0
  2  3  1  0  0  0  0
  2 10  1  1  0  0  0
  4  3  1  1  0  0  0
  4  5  1  0  0  0  0
  4 14  1  0  0  0  0
  5  6  1  0  0  0  0
  5 13  1  6  0  0  0
  6  7  1  0  0  0  0
  6 15  1  6  0  0  0
  7  8  1  0  0  0  0
  7 11  1  6  0  0  0
  8 14  1  0  0  0  0
  8 16  1  1  0  0  0
  9 11  1  0  0  0  0
 17 16  1  6  0  0  0
 17 18  1  0  0  0  0
 17 24  1  0  0  0  0
 18 19  1  0  0  0  0
 18 25  1  1  0  0  0
 19 20  1  0  0  0  0
 19 26  1  1  0  0  0
 20 21  1  0  0  0  0
 20 23  1  6  0  0  0
 21 22  1  6  0  0  0
 21 24  1  0  0  0  0
 22 27  1  0  0  0  0
 28 12  1  1  0  0  0
 28 29  1  0  0  0  0
 28 33  1  0  0  0  0
 29 30  1  0  0  0  0
 29 36  1  6  0  0  0
 30 31  1  0  0  0  0
 30 37  1  1  0  0  0
 31 32  1  0  0  0  0
 31 34  1  6  0  0  0
 32 33  1  0  0  0  0
 33 35  1  6  0  0  0
M  END
>  <CHROM.1>
-178.43617658,95.24953871,-163.85072019,72.34993734,-164.44950244,-67.90694235
1.19325137,26.63239309,65.14738795,2.78662043,0.77747334,-0.33745755

>  <Name>
ligand

>  <RI>
0

>  <Rbt.Current_Directory>
/home/itssahil/PROJECTS/Mol_Feturizer/Test_systems_manuscript/rnas/2g5k

>  <Rbt.Executable>
rbdock ($Id: //depot/dev/client3/rdock/2013.1/src/exe/rbdock.cxx#4 $)

>  <Rbt.Library>
libRbt.so (2013.1, Build901 2013/11/27)

>  <Rbt.Parameter_File>
/export/apps/rDock/src/rDock_2013.1_src/data/scripts/dock_solv.prm

>  <Rbt.Receptor>
prm/pocket_docking_8.prm

>  <SCORE>
-10.4419

>  <SCORE.INTER>
-6.51885

>  <SCORE.INTER.CONST>
1

>  <SCORE.INTER.POLAR>
0

>  <SCORE.INTER.ROT>
6

>  <SCORE.INTER.SOLV>
17.8955

>  <SCORE.INTER.VDW>
-17.9111

>  <SCORE.INTER.norm>
-0.176185

>  <SCORE.INTRA>
-3.92309

>  <SCORE.INTRA.DIHEDRAL>
-7.30564

>  <SCORE.INTRA.DIHEDRAL.0>
11.3972

>  <SCORE.INTRA.POLAR>
0

>  <SCORE.INTRA.POLAR.0>
0

>  <SCORE.INTRA.REPUL>
0

>  <SCORE.INTRA.REPUL.0>
0

>  <SCORE.INTRA.SOLV>
-0.703617

>  <SCORE.INTRA.SOLV.lig_0>
-92.3891

>  <SCORE.INTRA.VDW>
0.0815368

>  <SCORE.INTRA.VDW.0>
-2.90606

>  <SCORE.INTRA.norm>
-0.10603

>  <SCORE.RESTR>
0

>  <SCORE.RESTR.CAVITY>
0

>  <SCORE.RESTR.norm>
0

>  <SCORE.SYSTEM>
0

>  <SCORE.SYSTEM.CONST>
0

>  <SCORE.SYSTEM.DIHEDRAL>
0

>  <SCORE.SYSTEM.SOLV>
0

>  <SCORE.SYSTEM.norm>
0

>  <SCORE.heavy>
37

>  <SCORE.norm>
-0.282215

>  <RMSD>
11.042

$$$$
ligand
 OpenBabel02271912133D
libRbt.so/2013.1/901 2013/11/27
 37 40  0  0  0  0  0  0  0  0999 V2000
   -9.0092   20.0315   71.7242 C   0  0  1  0  0  0  0  0  0  0  0  0
   -7.7700   19.4236   71.0078 C   0  0  1  0  0  0  0  0  0  0  0  0
   -6.7133   20.4941   70.6749 C   0  0  0  0  0  0  0  0  0  0  0  0
   -7.3757   21.6030   69.7992 C   0  0  1  0  0  0  0  0  0  0  0  0
   -8.5886   22.2450   70.5477 C   0  0  1  0  0  0  0  0  0  0  0  0
   -9.2509   23.3730   69.6346 C   0  0  1  0  0  0  0  0  0  0  0  0
   -8.1793   24.4552   69.3115 C   0  0  1  0  0  0  0  0  0  0  0  0
   -6.9824   23.7556   68.5997 C   0  0  2  0  0  0  0  0  0  0  0  0
   -7.9342   26.7394   68.1145 C   0  0  0  0  0  0  0  0  0  0  0  0
   -7.1733   18.3455   71.8244 N   0  0  0  0  0  0  0  0  0  0  0  0
   -8.7665   25.5360   68.4342 N   0  0  0  0  0  0  0  0  0  0  0  0
   -8.7063   20.4959   73.0542 O   0  0  0  0  0  0  0  0  0  0  0  0
   -9.5361   21.1425   70.8890 O   0  0  0  0  0  0  0  0  0  0  0  0
   -6.4090   22.6890   69.4309 O   0  0  0  0  0  0  0  0  0  0  0  0
   -9.6904   22.8015   68.4092 O   0  0  0  0  0  0  0  0  0  0  0  0
   -5.9673   24.7075   68.3023 O   0  0  0  0  0  0  0  0  0  0  0  0
   -5.1189   24.3349   67.1885 C   0  0  2  0  0  0  0  0  0  0  0  0
   -4.4560   25.5536   66.5039 C   0  0  1  0  0  0  0  0  0  0  0  0
   -5.5280   26.4506   65.8049 C   0  0  2  0  0  0  0  0  0  0  0  0
   -6.2505   25.6285   64.7570 C   0  0  1  0  0  0  0  0  0  0  0  0
   -6.9409   24.4176   65.4532 C   0  0  1  0  0  0  0  0  0  0  0  0
   -7.6758   23.5225   64.4573 C   0  0  0  0  0  0  0  0  0  0  0  0
   -7.2546   26.4792   64.0736 N   0  0  0  0  0  0  0  0  0  0  0  0
   -5.9116   23.5957   66.1611 O   0  0  0  0  0  0  0  0  0  0  0  0
   -3.7158   26.2687   67.5181 O   0  0  0  0  0  0  0  0  0  0  0  0
   -4.8915   27.5601   65.1669 O   0  0  0  0  0  0  0  0  0  0  0  0
   -8.9150   24.1053   64.1345 O   0  0  0  0  0  0  0  0  0  0  0  0
   -9.0729   19.7264   74.3045 C   0  0  1  0  0  0  0  0  0  0  0  0
   -8.6055   18.2557   74.1277 C   0  0  1  0  0  0  0  0  0  0  0  0
   -8.9674   17.4254   75.3932 C   0  0  2  0  0  0  0  0  0  0  0  0
   -8.2617   18.0437   76.6253 C   0  0  1  0  0  0  0  0  0  0  0  0
   -8.7232   19.5307   76.8335 C   0  0  0  0  0  0  0  0  0  0  0  0
   -8.3690   20.3294   75.5610 C   0  0  2  0  0  0  0  0  0  0  0  0
   -8.5938   17.2561   77.8369 N   0  0  0  0  0  0  0  0  0  0  0  0
   -8.8041   21.7157   75.7628 N   0  0  0  0  0  0  0  0  0  0  0  0
   -9.2612   17.6779   72.9773 O   0  0  0  0  0  0  0  0  0  0  0  0
   -8.5282   16.0624   75.2005 O   0  0  0  0  0  0  0  0  0  0  0  0
  1  2  1  0  0  0  0
  1 12  1  1  0  0  0
  1 13  1  0  0  0  0
  2  3  1  0  0  0  0
  2 10  1  1  0  0  0
  4  3  1  1  0  0  0
  4  5  1  0  0  0  0
  4 14  1  0  0  0  0
  5  6  1  0  0  0  0
  5 13  1  6  0  0  0
  6  7  1  0  0  0  0
  6 15  1  6  0  0  0
  7  8  1  0  0  0  0
  7 11  1  6  0  0  0
  8 14  1  0  0  0  0
  8 16  1  1  0  0  0
  9 11  1  0  0  0  0
 17 16  1  1  0  0  0
 17 18  1  0  0  0  0
 17 24  1  0  0  0  0
 18 19  1  0  0  0  0
 18 25  1  1  0  0  0
 19 20  1  0  0  0  0
 19 26  1  6  0  0  0
 20 21  1  0  0  0  0
 20 23  1  1  0  0  0
 21 22  1  6  0  0  0
 21 24  1  0  0  0  0
 22 27  1  0  0  0  0
 28 12  1  6  0  0  0
 28 29  1  0  0  0  0
 28 33  1  0  0  0  0
 29 30  1  0  0  0  0
 29 36  1  6  0  0  0
 30 31  1  0  0  0  0
 30 37  1  6  0  0  0
 31 32  1  0  0  0  0
 31 34  1  1  0  0  0
 32 33  1  0  0  0  0
 33 35  1  1  0  0  0
M  END
>  <CHROM.1>
-102.31219856,174.30808481,-154.85740720,49.16890947,155.67784968,-79.52568596
-7.61234205,22.23435779,70.10071436,1.93571025,0.99941955,1.91449263

>  <Name>
ligand

>  <RI>
0

>  <Rbt.Current_Directory>
/home/itssahil/PROJECTS/Mol_Feturizer/Test_systems_manuscript/rnas/2g5k

>  <Rbt.Executable>
rbdock ($Id: //depot/dev/client3/rdock/2013.1/src/exe/rbdock.cxx#4 $)

>  <Rbt.Library>
libRbt.so (2013.1, Build901 2013/11/27)

>  <Rbt.Parameter_File>
/export/apps/rDock/src/rDock_2013.1_src/data/scripts/dock_solv.prm

>  <Rbt.Receptor>
prm/blind_docking_80.prm

>  <SCORE>
9.4816

>  <SCORE.INTER>
-3.51021

>  <SCORE.INTER.CONST>
1

>  <SCORE.INTER.POLAR>
0

>  <SCORE.INTER.ROT>
6

>  <SCORE.INTER.SOLV>
21.0194

>  <SCORE.INTER.VDW>
-16.9466

>  <SCORE.INTER.norm>
-0.0948705

>  <SCORE.INTRA>
5.07392

>  <SCORE.INTRA.DIHEDRAL>
1.45905

>  <SCORE.INTRA.DIHEDRAL.0>
11.3972

>  <SCORE.INTRA.POLAR>
0

>  <SCORE.INTRA.POLAR.0>
0

>  <SCORE.INTRA.REPUL>
0

>  <SCORE.INTRA.REPUL.0>
0

>  <SCORE.INTRA.SOLV>
3.67388

>  <SCORE.INTRA.SOLV.lig_0>
-92.3891

>  <SCORE.INTRA.VDW>
2.50746

>  <SCORE.INTRA.VDW.0>
-2.90606

>  <SCORE.INTRA.norm>
0.137133

>  <SCORE.RESTR>
7.91789

>  <SCORE.RESTR.CAVITY>
7.91789

>  <SCORE.RESTR.norm>
0.213997

>  <SCORE.SYSTEM>
0

>  <SCORE.SYSTEM.CONST>
0

>  <SCORE.SYSTEM.DIHEDRAL>
0

>  <SCORE.SYSTEM.SOLV>
0

>  <SCORE.SYSTEM.norm>
0

>  <SCORE.heavy>
37

>  <SCORE.norm>
0.25626

>  <RMSD>
11.052

$$$$
ligand
 OpenBabel02271912133D
libRbt.so/2013.1/901 2013/11/27
 37 40  0  0  0  0  0  0  0  0999 V2000
   -7.6007   22.9801   66.9801 C   0  0  1  0  0  0  0  0  0  0  0  0
   -8.3145   23.8477   68.0554 C   0  0  1  0  0  0  0  0  0  0  0  0
   -7.9751   23.3879   69.4861 C   0  0  0  0  0  0  0  0  0  0  0  0
   -8.3596   21.8832   69.6380 C   0  0  1  0  0  0  0  0  0  0  0  0
   -7.5983   21.0111   68.5875 C   0  0  1  0  0  0  0  0  0  0  0  0
   -8.0075   19.4789   68.7595 C   0  0  1  0  0  0  0  0  0  0  0  0
   -7.6519   19.0201   70.2041 C   0  0  1  0  0  0  0  0  0  0  0  0
   -8.4087   19.9428   71.2063 C   0  0  2  0  0  0  0  0  0  0  0  0
   -9.3954   17.2607   70.9624 C   0  0  0  0  0  0  0  0  0  0  0  0
   -7.9786   25.2764   67.8788 N   0  0  0  0  0  0  0  0  0  0  0  0
   -8.0389   17.5743   70.4105 N   0  0  0  0  0  0  0  0  0  0  0  0
   -6.1736   23.1793   66.9673 O   0  0  0  0  0  0  0  0  0  0  0  0
   -7.9279   21.5529   67.2355 O   0  0  0  0  0  0  0  0  0  0  0  0
   -8.0583   21.3555   71.0093 O   0  0  0  0  0  0  0  0  0  0  0  0
   -9.4101   19.3336   68.5785 O   0  0  0  0  0  0  0  0  0  0  0  0
   -8.0966   19.5704   72.5438 O   0  0  0  0  0  0  0  0  0  0  0  0
   -9.2532   19.4604   73.4095 C   0  0  2  0  0  0  0  0  0  0  0  0
   -9.3082   20.5727   74.4834 C   0  0  1  0  0  0  0  0  0  0  0  0
   -8.1307   20.4236   75.5001 C   0  0  2  0  0  0  0  0  0  0  0  0
   -8.2365   19.0743   76.1814 C   0  0  1  0  0  0  0  0  0  0  0  0
   -8.1522   17.9552   75.1006 C   0  0  1  0  0  0  0  0  0  0  0  0
   -8.2741   16.5583   75.7066 C   0  0  0  0  0  0  0  0  0  0  0  0
   -7.1350   18.9341   77.1642 N   0  0  0  0  0  0  0  0  0  0  0  0
   -9.2529   18.1389   74.1052 O   0  0  0  0  0  0  0  0  0  0  0  0
   -9.2820   21.8416   73.7923 O   0  0  0  0  0  0  0  0  0  0  0  0
   -8.2111   21.4512   76.4903 O   0  0  0  0  0  0  0  0  0  0  0  0
   -7.1281   16.2830   76.4750 O   0  0  0  0  0  0  0  0  0  0  0  0
   -5.5022   24.3192   66.2326 C   0  0  1  0  0  0  0  0  0  0  0  0
   -6.5110   24.8983   65.2031 C   0  0  1  0  0  0  0  0  0  0  0  0
   -5.8580   26.0742   64.4203 C   0  0  2  0  0  0  0  0  0  0  0  0
   -5.4496   27.1847   65.4194 C   0  0  1  0  0  0  0  0  0  0  0  0
   -4.4215   26.6284   66.4685 C   0  0  0  0  0  0  0  0  0  0  0  0
   -5.0848   25.4545   67.2199 C   0  0  2  0  0  0  0  0  0  0  0  0
   -4.8323   28.3143   64.6836 N   0  0  0  0  0  0  0  0  0  0  0  0
   -4.1184   24.9400   68.1962 N   0  0  0  0  0  0  0  0  0  0  0  0
   -6.8948   23.8629   64.2715 O   0  0  0  0  0  0  0  0  0  0  0  0
   -6.8134   26.5897   63.4668 O   0  0  0  0  0  0  0  0  0  0  0  0
  1  2  1  0  0  0  0
  1 12  1  1  0  0  0
  1 13  1  0  0  0  0
  2  3  1  0  0  0  0
  2 10  1  1  0  0  0
  4  3  1  1  0  0  0
  4  5  1  0  0  0  0
  4 14  1  0  0  0  0
  5  6  1  0  0  0  0
  5 13  1  6  0  0  0
  6  7  1  0  0  0  0
  6 15  1  1  0  0  0
  7  8  1  0  0  0  0
  7 11  1  6  0  0  0
  8 14  1  0  0  0  0
  8 16  1  1  0  0  0
  9 11  1  0  0  0  0
 17 16  1  1  0  0  0
 17 18  1  0  0  0  0
 17 24  1  0  0  0  0
 18 19  1  0  0  0  0
 18 25  1  6  0  0  0
 19 20  1  0  0  0  0
 19 26  1  1  0  0  0
 20 21  1  0  0  0  0
 20 23  1  1  0  0  0
 21 22  1  1  0  0  0
 21 24  1  0  0  0  0
 22 27  1  0  0  0  0
 28 12  1  1  0  0  0
 28 29  1  0  0  0  0
 28 33  1  0  0  0  0
 29 30  1  0  0  0  0
 29 36  1  6  0  0  0
 30 31  1  0  0  0  0
 30 37  1  6  0  0  0
 31 32  1  0  0  0  0
 31 34  1  6  0  0  0
 32 33  1  0  0  0  0
 33 35  1  1  0  0  0
M  END
>  <CHROM.1>
-83.23264401,-91.93806518,-133.20652812,-17.34494143,-110.77149461,-68.59363772
-7.50435766,21.73397122,70.09370449,1.00791322,-1.19550138,-1.45452391

>  <Name>
ligand

>  <RI>
0

>  <Rbt.Current_Directory>
/home/itssahil/PROJECTS/Mol_Feturizer/Test_systems_manuscript/rnas/2g5k

>  <Rbt.Executable>
rbdock ($Id: //depot/dev/client3/rdock/2013.1/src/exe/rbdock.cxx#4 $)

>  <Rbt.Library>
libRbt.so (2013.1, Build901 2013/11/27)

>  <Rbt.Parameter_File>
/export/apps/rDock/src/rDock_2013.1_src/data/scripts/dock_solv.prm

>  <Rbt.Receptor>
prm/blind_docking_80.prm

>  <SCORE>
7.62249

>  <SCORE.INTER>
-6.92306

>  <SCORE.INTER.CONST>
1

>  <SCORE.INTER.POLAR>
0

>  <SCORE.INTER.ROT>
6

>  <SCORE.INTER.SOLV>
23.966

>  <SCORE.INTER.VDW>
-20.204

>  <SCORE.INTER.norm>
-0.18711

>  <SCORE.INTRA>
10.0837

>  <SCORE.INTRA.DIHEDRAL>
10.8329

>  <SCORE.INTRA.DIHEDRAL.0>
11.3972

>  <SCORE.INTRA.POLAR>
0

>  <SCORE.INTRA.POLAR.0>
0

>  <SCORE.INTRA.REPUL>
0

>  <SCORE.INTRA.REPUL.0>
0

>  <SCORE.INTRA.SOLV>
4.64663

>  <SCORE.INTRA.SOLV.lig_0>
-92.3891

>  <SCORE.INTRA.VDW>
2.34395

>  <SCORE.INTRA.VDW.0>
-2.90606

>  <SCORE.INTRA.norm>
0.272533

>  <SCORE.RESTR>
4.46183

>  <SCORE.RESTR.CAVITY>
4.46183

>  <SCORE.RESTR.norm>
0.12059

>  <SCORE.SYSTEM>
0

>  <SCORE.SYSTEM.CONST>
0

>  <SCORE.SYSTEM.DIHEDRAL>
0

>  <SCORE.SYSTEM.SOLV>
0

>  <SCORE.SYSTEM.norm>
0

>  <SCORE.heavy>
37

>  <SCORE.norm>
0.206013

>  <RMSD>
11.087

$$$$
ligand
 OpenBabel02271912133D
libRbt.so/2013.1/901 2013/11/27
 37 40  0  0  0  0  0  0  0  0999 V2000
  -10.5200   28.9373   66.8400 C   0  0  1  0  0  0  0  0  0  0  0  0
  -10.1172   28.9497   68.3420 C   0  0  1  0  0  0  0  0  0  0  0  0
   -8.8627   29.8072   68.5958 C   0  0  0  0  0  0  0  0  0  0  0  0
   -7.6958   29.2704   67.7095 C   0  0  1  0  0  0  0  0  0  0  0  0
   -8.0893   29.3100   66.1972 C   0  0  1  0  0  0  0  0  0  0  0  0
   -6.8842   28.7558   65.3110 C   0  0  1  0  0  0  0  0  0  0  0  0
   -5.6241   29.6339   65.5660 C   0  0  1  0  0  0  0  0  0  0  0  0
   -5.2993   29.5856   67.0894 C   0  0  2  0  0  0  0  0  0  0  0  0
   -3.4199   30.1091   64.2909 C   0  0  0  0  0  0  0  0  0  0  0  0
  -11.2416   29.4192   69.1789 N   0  0  0  0  0  0  0  0  0  0  0  0
   -4.4546   29.1299   64.7530 N   0  0  0  0  0  0  0  0  0  0  0  0
  -11.0044   30.2166   66.3870 O   0  0  0  0  0  0  0  0  0  0  0  0
   -9.3412   28.5111   66.0413 O   0  0  0  0  0  0  0  0  0  0  0  0
   -6.4319   30.0558   67.8978 O   0  0  0  0  0  0  0  0  0  0  0  0
   -6.5816   27.4205   65.6939 O   0  0  0  0  0  0  0  0  0  0  0  0
   -4.1620   30.3929   67.3718 O   0  0  0  0  0  0  0  0  0  0  0  0
   -3.8367   30.4796   68.7810 C   0  0  2  0  0  0  0  0  0  0  0  0
   -2.6545   31.4355   69.0673 C   0  0  1  0  0  0  0  0  0  0  0  0
   -1.3262   30.8741   68.4650 C   0  0  2  0  0  0  0  0  0  0  0  0
   -1.0331   29.5256   69.0909 C   0  0  1  0  0  0  0  0  0  0  0  0
   -2.2120   28.5565   68.7768 C   0  0  1  0  0  0  0  0  0  0  0  0
   -2.0029   27.1753   69.3948 C   0  0  0  0  0  0  0  0  0  0  0  0
    0.2380   28.9961   68.5407 N   0  0  0  0  0  0  0  0  0  0  0  0
   -3.4851   29.1291   69.3131 O   0  0  0  0  0  0  0  0  0  0  0  0
   -3.0030   32.7281   68.5233 O   0  0  0  0  0  0  0  0  0  0  0  0
   -0.2467   31.7650   68.7552 O   0  0  0  0  0  0  0  0  0  0  0  0
   -1.8413   27.3078   70.7861 O   0  0  0  0  0  0  0  0  0  0  0  0
  -12.3498   30.7825   66.7866 C   0  0  1  0  0  0  0  0  0  0  0  0
  -12.3813   32.2867   66.4002 C   0  0  1  0  0  0  0  0  0  0  0  0
  -13.7502   32.9108   66.7982 C   0  0  2  0  0  0  0  0  0  0  0  0
  -14.8844   32.1654   66.0523 C   0  0  1  0  0  0  0  0  0  0  0  0
  -14.8816   30.6411   66.4316 C   0  0  0  0  0  0  0  0  0  0  0  0
  -13.5102   30.0487   66.0431 C   0  0  2  0  0  0  0  0  0  0  0  0
  -16.1939   32.7565   66.4186 N   0  0  0  0  0  0  0  0  0  0  0  0
  -13.5153   28.6262   66.4016 N   0  0  0  0  0  0  0  0  0  0  0  0
  -11.3224   32.9834   67.0935 O   0  0  0  0  0  0  0  0  0  0  0  0
  -13.7509   34.3092   66.4344 O   0  0  0  0  0  0  0  0  0  0  0  0
  1  2  1  0  0  0  0
  1 12  1  6  0  0  0
  1 13  1  0  0  0  0
  2  3  1  0  0  0  0
  2 10  1  1  0  0  0
  4  3  1  1  0  0  0
  4  5  1  0  0  0  0
  4 14  1  0  0  0  0
  5  6  1  0  0  0  0
  5 13  1  1  0  0  0
  6  7  1  0  0  0  0
  6 15  1  1  0  0  0
  7  8  1  0  0  0  0
  7 11  1  6  0  0  0
  8 14  1  0  0  0  0
  8 16  1  6  0  0  0
  9 11  1  0  0  0  0
 17 16  1  6  0  0  0
 17 18  1  0  0  0  0
 17 24  1  0  0  0  0
 18 19  1  0  0  0  0
 18 25  1  6  0  0  0
 19 20  1  0  0  0  0
 19 26  1  1  0  0  0
 20 21  1  0  0  0  0
 20 23  1  6  0  0  0
 21 22  1  1  0  0  0
 21 24  1  0  0  0  0
 22 27  1  0  0  0  0
 28 12  1  6  0  0  0
 28 29  1  0  0  0  0
 28 33  1  0  0  0  0
 29 30  1  0  0  0  0
 29 36  1  1  0  0  0
 30 31  1  0  0  0  0
 30 37  1  6  0  0  0
 31 32  1  0  0  0  0
 31 34  1  1  0  0  0
 32 33  1  0  0  0  0
 33 35  1  1  0  0  0
M  END
>  <CHROM.1>
-72.07351896,149.71381251,176.16105628,166.57684085,-176.25890464,57.50211641
-7.44490403,30.14505237,67.35145312,3.01568255,-0.18262735,0.14341800

>  <Name>
ligand

>  <RI>
0

>  <Rbt.Current_Directory>
/home/itssahil/PROJECTS/Mol_Feturizer/Test_systems_manuscript/rnas/2g5k

>  <Rbt.Executable>
rbdock ($Id: //depot/dev/client3/rdock/2013.1/src/exe/rbdock.cxx#4 $)

>  <Rbt.Library>
libRbt.so (2013.1, Build901 2013/11/27)

>  <Rbt.Parameter_File>
/export/apps/rDock/src/rDock_2013.1_src/data/scripts/dock_solv.prm

>  <Rbt.Receptor>
prm/pocket_docking_8.prm

>  <SCORE>
-10.9568

>  <SCORE.INTER>
-7.64862

>  <SCORE.INTER.CONST>
1

>  <SCORE.INTER.POLAR>
0

>  <SCORE.INTER.ROT>
6

>  <SCORE.INTER.SOLV>
12.7059

>  <SCORE.INTER.VDW>
-16.9344

>  <SCORE.INTER.norm>
-0.20672

>  <SCORE.INTRA>
-3.30818

>  <SCORE.INTRA.DIHEDRAL>
-9.04042

>  <SCORE.INTRA.DIHEDRAL.0>
11.3972

>  <SCORE.INTRA.POLAR>
0

>  <SCORE.INTRA.POLAR.0>
0

>  <SCORE.INTRA.REPUL>
0

>  <SCORE.INTRA.REPUL.0>
0

>  <SCORE.INTRA.SOLV>
2.20168

>  <SCORE.INTRA.SOLV.lig_0>
-92.3891

>  <SCORE.INTRA.VDW>
0.111192

>  <SCORE.INTRA.VDW.0>
-2.90606

>  <SCORE.INTRA.norm>
-0.0894103

>  <SCORE.RESTR>
0

>  <SCORE.RESTR.CAVITY>
0

>  <SCORE.RESTR.norm>
0

>  <SCORE.SYSTEM>
0

>  <SCORE.SYSTEM.CONST>
0

>  <SCORE.SYSTEM.DIHEDRAL>
0

>  <SCORE.SYSTEM.SOLV>
0

>  <SCORE.SYSTEM.norm>
0

>  <SCORE.heavy>
37

>  <SCORE.norm>
-0.29613

>  <RMSD>
11.088

$$$$
ligand
 OpenBabel02271912133D
libRbt.so/2013.1/901 2013/11/27
 37 40  0  0  0  0  0  0  0  0999 V2000
   -7.9171   23.3919   67.4990 C   0  0  1  0  0  0  0  0  0  0  0  0
   -8.2002   24.2130   68.7890 C   0  0  1  0  0  0  0  0  0  0  0  0
   -7.7752   23.4544   70.0607 C   0  0  0  0  0  0  0  0  0  0  0  0
   -8.5142   22.0805   70.1005 C   0  0  1  0  0  0  0  0  0  0  0  0
   -8.1832   21.2397   68.8249 C   0  0  1  0  0  0  0  0  0  0  0  0
   -8.9498   19.8420   68.8856 C   0  0  1  0  0  0  0  0  0  0  0  0
   -8.5069   19.0782   70.1679 C   0  0  1  0  0  0  0  0  0  0  0  0
   -8.8278   19.9745   71.4017 C   0  0  2  0  0  0  0  0  0  0  0  0
   -8.7832   16.7685   71.3079 C   0  0  0  0  0  0  0  0  0  0  0  0
   -7.5314   25.5298   68.7254 N   0  0  0  0  0  0  0  0  0  0  0  0
   -9.2243   17.7523   70.2683 N   0  0  0  0  0  0  0  0  0  0  0  0
   -6.5082   23.2453   67.2352 O   0  0  0  0  0  0  0  0  0  0  0  0
   -8.5650   22.0614   67.6379 O   0  0  0  0  0  0  0  0  0  0  0  0
   -8.1526   21.2759   71.3135 O   0  0  0  0  0  0  0  0  0  0  0  0
  -10.3515   20.0666   68.9626 O   0  0  0  0  0  0  0  0  0  0  0  0
   -8.4203   19.3215   72.5986 O   0  0  0  0  0  0  0  0  0  0  0  0
   -9.4898   19.1262   73.5562 C   0  0  2  0  0  0  0  0  0  0  0  0
   -9.7147   20.3575   74.4655 C   0  0  1  0  0  0  0  0  0  0  0  0
   -8.4847   20.5907   75.4009 C   0  0  2  0  0  0  0  0  0  0  0  0
   -8.2875   19.3651   76.2698 C   0  0  1  0  0  0  0  0  0  0  0  0
   -8.0329   18.1317   75.3524 C   0  0  1  0  0  0  0  0  0  0  0  0
   -7.8455   16.8455   76.1548 C   0  0  0  0  0  0  0  0  0  0  0  0
   -7.1352   19.5875   77.1763 N   0  0  0  0  0  0  0  0  0  0  0  0
   -9.1936   17.9498   74.4274 O   0  0  0  0  0  0  0  0  0  0  0  0
   -9.9742   21.4884   73.6043 O   0  0  0  0  0  0  0  0  0  0  0  0
   -8.7215   21.7223   76.2414 O   0  0  0  0  0  0  0  0  0  0  0  0
   -8.3572   15.7602   75.4201 O   0  0  0  0  0  0  0  0  0  0  0  0
   -5.7072   24.2450   66.4294 C   0  0  1  0  0  0  0  0  0  0  0  0
   -6.6294   24.8350   65.3274 C   0  0  1  0  0  0  0  0  0  0  0  0
   -5.8421   25.8682   64.4703 C   0  0  2  0  0  0  0  0  0  0  0  0
   -5.3408   27.0115   65.3867 C   0  0  1  0  0  0  0  0  0  0  0  0
   -4.3975   26.4437   66.5069 C   0  0  0  0  0  0  0  0  0  0  0  0
   -5.1942   25.4110   67.3322 C   0  0  2  0  0  0  0  0  0  0  0  0
   -4.5948   28.0064   64.5791 N   0  0  0  0  0  0  0  0  0  0  0  0
   -4.3064   24.8848   68.3747 N   0  0  0  0  0  0  0  0  0  0  0  0
   -7.0998   23.7693   64.4728 O   0  0  0  0  0  0  0  0  0  0  0  0
   -6.7193   26.3962   63.4507 O   0  0  0  0  0  0  0  0  0  0  0  0
  1  2  1  0  0  0  0
  1 12  1  1  0  0  0
  1 13  1  0  0  0  0
  2  3  1  0  0  0  0
  2 10  1  6  0  0  0
  4  3  1  6  0  0  0
  4  5  1  0  0  0  0
  4 14  1  0  0  0  0
  5  6  1  0  0  0  0
  5 13  1  6  0  0  0
  6  7  1  0  0  0  0
  6 15  1  1  0  0  0
  7  8  1  0  0  0  0
  7 11  1  1  0  0  0
  8 14  1  0  0  0  0
  8 16  1  1  0  0  0
  9 11  1  0  0  0  0
 17 16  1  6  0  0  0
 17 18  1  0  0  0  0
 17 24  1  0  0  0  0
 18 19  1  0  0  0  0
 18 25  1  6  0  0  0
 19 20  1  0  0  0  0
 19 26  1  1  0  0  0
 20 21  1  0  0  0  0
 20 23  1  1  0  0  0
 21 22  1  1  0  0  0
 21 24  1  0  0  0  0
 22 27  1  0  0  0  0
 28 12  1  1  0  0  0
 28 29  1  0  0  0  0
 28 33  1  0  0  0  0
 29 30  1  0  0  0  0
 29 36  1  6  0  0  0
 30 31  1  0  0  0  0
 30 37  1  6  0  0  0
 31 32  1  0  0  0  0
 31 34  1  6  0  0  0
 32 33  1  0  0  0  0
 33 35  1  1  0  0  0
M  END
>  <CHROM.1>
-88.44628965,170.34872070,-122.28379747,-33.59764147,-85.20380232,147.11045587
-7.74371464,21.76984963,70.24211079,1.02675834,-1.12085050,-1.41220598

>  <Name>
ligand

>  <RI>
0

>  <Rbt.Current_Directory>
/home/itssahil/PROJECTS/Mol_Feturizer/Test_systems_manuscript/rnas/2g5k

>  <Rbt.Executable>
rbdock ($Id: //depot/dev/client3/rdock/2013.1/src/exe/rbdock.cxx#4 $)

>  <Rbt.Library>
libRbt.so (2013.1, Build901 2013/11/27)

>  <Rbt.Parameter_File>
/export/apps/rDock/src/rDock_2013.1_src/data/scripts/dock_solv.prm

>  <Rbt.Receptor>
prm/blind_docking_80.prm

>  <SCORE>
14.5831

>  <SCORE.INTER>
1.00148

>  <SCORE.INTER.CONST>
1

>  <SCORE.INTER.POLAR>
0

>  <SCORE.INTER.ROT>
6

>  <SCORE.INTER.SOLV>
23.3499

>  <SCORE.INTER.VDW>
-14.7156

>  <SCORE.INTER.norm>
0.0270669

>  <SCORE.INTRA>
7.19953

>  <SCORE.INTRA.DIHEDRAL>
7.8007

>  <SCORE.INTRA.DIHEDRAL.0>
11.3972

>  <SCORE.INTRA.POLAR>
0

>  <SCORE.INTRA.POLAR.0>
0

>  <SCORE.INTRA.REPUL>
0

>  <SCORE.INTRA.REPUL.0>
0

>  <SCORE.INTRA.SOLV>
4.09911

>  <SCORE.INTRA.SOLV.lig_0>
-92.3891

>  <SCORE.INTRA.VDW>
1.24963

>  <SCORE.INTRA.VDW.0>
-2.90606

>  <SCORE.INTRA.norm>
0.194582

>  <SCORE.RESTR>
6.38209

>  <SCORE.RESTR.CAVITY>
6.38209

>  <SCORE.RESTR.norm>
0.172489

>  <SCORE.SYSTEM>
0

>  <SCORE.SYSTEM.CONST>
0

>  <SCORE.SYSTEM.DIHEDRAL>
0

>  <SCORE.SYSTEM.SOLV>
0

>  <SCORE.SYSTEM.norm>
0

>  <SCORE.heavy>
37

>  <SCORE.norm>
0.394138

>  <RMSD>
11.113

$$$$
ligand
 OpenBabel02271912133D
libRbt.so/2013.1/901 2013/11/27
 37 40  0  0  0  0  0  0  0  0999 V2000
   -9.0005   18.6116   70.5771 C   0  0  1  0  0  0  0  0  0  0  0  0
   -7.4608   18.8026   70.4708 C   0  0  1  0  0  0  0  0  0  0  0  0
   -7.0838   20.2453   70.0836 C   0  0  0  0  0  0  0  0  0  0  0  0
   -7.7851   20.6070   68.7373 C   0  0  1  0  0  0  0  0  0  0  0  0
   -9.3362   20.4627   68.8678 C   0  0  1  0  0  0  0  0  0  0  0  0
  -10.0317   20.8349   67.4813 C   0  0  1  0  0  0  0  0  0  0  0  0
   -9.6537   22.2970   67.1029 C   0  0  1  0  0  0  0  0  0  0  0  0
   -8.1002   22.3907   67.0209 C   0  0  2  0  0  0  0  0  0  0  0  0
   -9.9956   24.0366   65.2142 C   0  0  0  0  0  0  0  0  0  0  0  0
   -6.7997   18.4180   71.7358 N   0  0  0  0  0  0  0  0  0  0  0  0
  -10.2837   22.6821   65.7848 N   0  0  0  0  0  0  0  0  0  0  0  0
   -9.5694   19.3201   71.6955 O   0  0  0  0  0  0  0  0  0  0  0  0
   -9.6185   19.0622   69.3027 O   0  0  0  0  0  0  0  0  0  0  0  0
   -7.4686   22.0028   68.2889 O   0  0  0  0  0  0  0  0  0  0  0  0
   -9.5534   19.9719   66.4577 O   0  0  0  0  0  0  0  0  0  0  0  0
   -7.7080   23.7194   66.6955 O   0  0  0  0  0  0  0  0  0  0  0  0
   -6.4493   23.8038   65.9829 C   0  0  2  0  0  0  0  0  0  0  0  0
   -5.2775   24.2593   66.8845 C   0  0  1  0  0  0  0  0  0  0  0  0
   -5.4793   25.7355   67.3561 C   0  0  2  0  0  0  0  0  0  0  0  0
   -5.5448   26.6364   66.1395 C   0  0  1  0  0  0  0  0  0  0  0  0
   -6.7431   26.1935   65.2475 C   0  0  1  0  0  0  0  0  0  0  0  0
   -6.8650   27.0420   63.9832 C   0  0  0  0  0  0  0  0  0  0  0  0
   -5.7140   28.0423   66.5796 N   0  0  0  0  0  0  0  0  0  0  0  0
   -6.5642   24.7644   64.8452 O   0  0  0  0  0  0  0  0  0  0  0  0
   -5.1992   23.3333   67.9911 O   0  0  0  0  0  0  0  0  0  0  0  0
   -4.3784   26.1389   68.1736 O   0  0  0  0  0  0  0  0  0  0  0  0
   -8.2224   27.1643   63.6341 O   0  0  0  0  0  0  0  0  0  0  0  0
   -8.9981   19.2553   73.0953 C   0  0  1  0  0  0  0  0  0  0  0  0
   -9.2276   20.6302   73.7807 C   0  0  1  0  0  0  0  0  0  0  0  0
   -8.6499   20.6087   75.2256 C   0  0  2  0  0  0  0  0  0  0  0  0
   -9.3637   19.5028   76.0416 C   0  0  1  0  0  0  0  0  0  0  0  0
   -9.1407   18.0981   75.3749 C   0  0  0  0  0  0  0  0  0  0  0  0
   -9.7060   18.1490   73.9396 C   0  0  2  0  0  0  0  0  0  0  0  0
   -8.8261   19.4776   77.4231 N   0  0  0  0  0  0  0  0  0  0  0  0
   -9.4927   16.8347   73.3238 N   0  0  0  0  0  0  0  0  0  0  0  0
   -8.5642   21.6635   73.0195 O   0  0  0  0  0  0  0  0  0  0  0  0
   -8.8704   21.8990   75.8374 O   0  0  0  0  0  0  0  0  0  0  0  0
  1  2  1  0  0  0  0
  1 12  1  1  0  0  0
  1 13  1  0  0  0  0
  2  3  1  0  0  0  0
  2 10  1  1  0  0  0
  4  3  1  1  0  0  0
  4  5  1  0  0  0  0
  4 14  1  0  0  0  0
  5  6  1  0  0  0  0
  5 13  1  6  0  0  0
  6  7  1  0  0  0  0
  6 15  1  6  0  0  0
  7  8  1  0  0  0  0
  7 11  1  6  0  0  0
  8 14  1  0  0  0  0
  8 16  1  1  0  0  0
  9 11  1  0  0  0  0
 17 16  1  1  0  0  0
 17 18  1  0  0  0  0
 17 24  1  0  0  0  0
 18 19  1  0  0  0  0
 18 25  1  1  0  0  0
 19 20  1  0  0  0  0
 19 26  1  1  0  0  0
 20 21  1  0  0  0  0
 20 23  1  1  0  0  0
 21 22  1  6  0  0  0
 21 24  1  0  0  0  0
 22 27  1  0  0  0  0
 28 12  1  6  0  0  0
 28 29  1  0  0  0  0
 28 33  1  0  0  0  0
 29 30  1  0  0  0  0
 29 36  1  6  0  0  0
 30 31  1  0  0  0  0
 30 37  1  1  0  0  0
 31 32  1  0  0  0  0
 31 34  1  1  0  0  0
 32 33  1  0  0  0  0
 33 35  1  6  0  0  0
M  END
>  <CHROM.1>
-48.15344281,-177.54057709,-151.73970110,146.69233712,-103.21732937,-147.19239657
-8.01304191,22.00577208,69.39829218,1.94033492,0.99706670,1.89473821

>  <Name>
ligand

>  <RI>
0

>  <Rbt.Current_Directory>
/home/itssahil/PROJECTS/Mol_Feturizer/Test_systems_manuscript/rnas/2g5k

>  <Rbt.Executable>
rbdock ($Id: //depot/dev/client3/rdock/2013.1/src/exe/rbdock.cxx#4 $)

>  <Rbt.Library>
libRbt.so (2013.1, Build901 2013/11/27)

>  <Rbt.Parameter_File>
/export/apps/rDock/src/rDock_2013.1_src/data/scripts/dock_solv.prm

>  <Rbt.Receptor>
prm/blind_docking_80.prm

>  <SCORE>
11.4999

>  <SCORE.INTER>
-1.79257

>  <SCORE.INTER.CONST>
1

>  <SCORE.INTER.POLAR>
0

>  <SCORE.INTER.ROT>
6

>  <SCORE.INTER.SOLV>
18.4953

>  <SCORE.INTER.VDW>
-14.9601

>  <SCORE.INTER.norm>
-0.0484478

>  <SCORE.INTRA>
5.74691

>  <SCORE.INTRA.DIHEDRAL>
5.7065

>  <SCORE.INTRA.DIHEDRAL.0>
11.3972

>  <SCORE.INTRA.POLAR>
0

>  <SCORE.INTRA.POLAR.0>
0

>  <SCORE.INTRA.REPUL>
0

>  <SCORE.INTRA.REPUL.0>
0

>  <SCORE.INTRA.SOLV>
3.35446

>  <SCORE.INTRA.SOLV.lig_0>
-92.3891

>  <SCORE.INTRA.VDW>
1.21643

>  <SCORE.INTRA.VDW.0>
-2.90606

>  <SCORE.INTRA.norm>
0.155322

>  <SCORE.RESTR>
7.54554

>  <SCORE.RESTR.CAVITY>
7.54554

>  <SCORE.RESTR.norm>
0.203933

>  <SCORE.SYSTEM>
0

>  <SCORE.SYSTEM.CONST>
0

>  <SCORE.SYSTEM.DIHEDRAL>
0

>  <SCORE.SYSTEM.SOLV>
0

>  <SCORE.SYSTEM.norm>
0

>  <SCORE.heavy>
37

>  <SCORE.norm>
0.310808

>  <RMSD>
11.114

$$$$
ligand
 OpenBabel02271912133D
libRbt.so/2013.1/901 2013/11/27
 37 40  0  0  0  0  0  0  0  0999 V2000
   -7.6281   22.9730   67.0654 C   0  0  1  0  0  0  0  0  0  0  0  0
   -8.3125   23.8324   68.1661 C   0  0  1  0  0  0  0  0  0  0  0  0
   -7.9488   23.3505   69.5835 C   0  0  0  0  0  0  0  0  0  0  0  0
   -8.3438   21.8473   69.7231 C   0  0  1  0  0  0  0  0  0  0  0  0
   -7.6114   20.9828   68.6462 C   0  0  1  0  0  0  0  0  0  0  0  0
   -8.0309   19.4520   68.8061 C   0  0  1  0  0  0  0  0  0  0  0  0
   -7.6508   18.9708   70.2371 C   0  0  1  0  0  0  0  0  0  0  0  0
   -8.3792   19.8866   71.2664 C   0  0  2  0  0  0  0  0  0  0  0  0
   -9.4015   17.2163   70.9903 C   0  0  0  0  0  0  0  0  0  0  0  0
   -7.9673   25.2603   68.0017 N   0  0  0  0  0  0  0  0  0  0  0  0
   -8.0466   17.5258   70.4320 N   0  0  0  0  0  0  0  0  0  0  0  0
   -6.1998   23.1599   67.0266 O   0  0  0  0  0  0  0  0  0  0  0  0
   -7.9630   21.5455   67.3084 O   0  0  0  0  0  0  0  0  0  0  0  0
   -8.0201   21.2987   71.0810 O   0  0  0  0  0  0  0  0  0  0  0  0
   -9.4381   19.3214   68.6513 O   0  0  0  0  0  0  0  0  0  0  0  0
   -8.0439   19.4936   72.5923 O   0  0  0  0  0  0  0  0  0  0  0  0
   -9.1891   19.3243   73.4635 C   0  0  2  0  0  0  0  0  0  0  0  0
   -9.3223   20.4576   74.5082 C   0  0  1  0  0  0  0  0  0  0  0  0
   -8.1365   20.4192   75.5254 C   0  0  2  0  0  0  0  0  0  0  0  0
   -8.1454   19.0841   76.2419 C   0  0  1  0  0  0  0  0  0  0  0  0
   -7.9824   17.9459   75.1904 C   0  0  1  0  0  0  0  0  0  0  0  0
   -8.0041   16.5603   75.8329 C   0  0  0  0  0  0  0  0  0  0  0  0
   -7.0360   19.0484   77.2252 N   0  0  0  0  0  0  0  0  0  0  0  0
   -9.0942   18.0248   74.1934 O   0  0  0  0  0  0  0  0  0  0  0  0
   -9.3870   21.7065   73.7844 O   0  0  0  0  0  0  0  0  0  0  0  0
   -8.2891   21.4641   76.4888 O   0  0  0  0  0  0  0  0  0  0  0  0
   -6.7577   16.3068   76.4342 O   0  0  0  0  0  0  0  0  0  0  0  0
   -5.5307   24.2797   66.2596 C   0  0  1  0  0  0  0  0  0  0  0  0
   -6.5516   24.8492   65.2368 C   0  0  1  0  0  0  0  0  0  0  0  0
   -5.9014   26.0043   64.4214 C   0  0  2  0  0  0  0  0  0  0  0  0
   -5.4659   27.1292   65.3926 C   0  0  1  0  0  0  0  0  0  0  0  0
   -4.4251   26.5826   66.4343 C   0  0  0  0  0  0  0  0  0  0  0  0
   -5.0862   25.4290   67.2184 C   0  0  2  0  0  0  0  0  0  0  0  0
   -4.8510   28.2392   64.6256 N   0  0  0  0  0  0  0  0  0  0  0  0
   -4.1079   24.9235   68.1877 N   0  0  0  0  0  0  0  0  0  0  0  0
   -6.9608   23.8006   64.3311 O   0  0  0  0  0  0  0  0  0  0  0  0
   -6.8683   26.5112   63.4747 O   0  0  0  0  0  0  0  0  0  0  0  0
  1  2  1  0  0  0  0
  1 12  1  1  0  0  0
  1 13  1  0  0  0  0
  2  3  1  0  0  0  0
  2 10  1  1  0  0  0
  4  3  1  1  0  0  0
  4  5  1  0  0  0  0
  4 14  1  0  0  0  0
  5  6  1  0  0  0  0
  5 13  1  6  0  0  0
  6  7  1  0  0  0  0
  6 15  1  1  0  0  0
  7  8  1  0  0  0  0
  7 11  1  6  0  0  0
  8 14  1  0  0  0  0
  8 16  1  1  0  0  0
  9 11  1  0  0  0  0
 17 16  1  1  0  0  0
 17 18  1  0  0  0  0
 17 24  1  0  0  0  0
 18 19  1  0  0  0  0
 18 25  1  6  0  0  0
 19 20  1  0  0  0  0
 19 26  1  1  0  0  0
 20 21  1  0  0  0  0
 20 23  1  1  0  0  0
 21 22  1  1  0  0  0
 21 24  1  0  0  0  0
 22 27  1  0  0  0  0
 28 12  1  1  0  0  0
 28 29  1  0  0  0  0
 28 33  1  0  0  0  0
 29 30  1  0  0  0  0
 29 36  1  6  0  0  0
 30 31  1  0  0  0  0
 30 37  1  6  0  0  0
 31 32  1  0  0  0  0
 31 34  1  6  0  0  0
 32 33  1  0  0  0  0
 33 35  1  1  0  0  0
M  END
>  <CHROM.1>
-85.12146770,-91.16131213,-130.60022618,-17.23185737,-107.18252666,-77.51628368
-7.48329571,21.69564972,70.13546635,1.04475034,-1.19204263,-1.42126337

>  <Name>
ligand

>  <RI>
0

>  <Rbt.Current_Directory>
/home/itssahil/PROJECTS/Mol_Feturizer/Test_systems_manuscript/rnas/2g5k

>  <Rbt.Executable>
rbdock ($Id: //depot/dev/client3/rdock/2013.1/src/exe/rbdock.cxx#4 $)

>  <Rbt.Library>
libRbt.so (2013.1, Build901 2013/11/27)

>  <Rbt.Parameter_File>
/export/apps/rDock/src/rDock_2013.1_src/data/scripts/dock_solv.prm

>  <Rbt.Receptor>
prm/blind_docking_80.prm

>  <SCORE>
7.70404

>  <SCORE.INTER>
-7.13066

>  <SCORE.INTER.CONST>
1

>  <SCORE.INTER.POLAR>
0

>  <SCORE.INTER.ROT>
6

>  <SCORE.INTER.SOLV>
25.0113

>  <SCORE.INTER.VDW>
-20.6909

>  <SCORE.INTER.norm>
-0.19272

>  <SCORE.INTRA>
10.3606

>  <SCORE.INTRA.DIHEDRAL>
11.8493

>  <SCORE.INTRA.DIHEDRAL.0>
11.3972

>  <SCORE.INTRA.POLAR>
0

>  <SCORE.INTRA.POLAR.0>
0

>  <SCORE.INTRA.REPUL>
0

>  <SCORE.INTRA.REPUL.0>
0

>  <SCORE.INTRA.SOLV>
4.37953

>  <SCORE.INTRA.SOLV.lig_0>
-92.3891

>  <SCORE.INTRA.VDW>
2.24625

>  <SCORE.INTRA.VDW.0>
-2.90606

>  <SCORE.INTRA.norm>
0.280018

>  <SCORE.RESTR>
4.47405

>  <SCORE.RESTR.CAVITY>
4.47405

>  <SCORE.RESTR.norm>
0.12092

>  <SCORE.SYSTEM>
0

>  <SCORE.SYSTEM.CONST>
0

>  <SCORE.SYSTEM.DIHEDRAL>
0

>  <SCORE.SYSTEM.SOLV>
0

>  <SCORE.SYSTEM.norm>
0

>  <SCORE.heavy>
37

>  <SCORE.norm>
0.208217

>  <RMSD>
11.126

$$$$
ligand
 OpenBabel02271912133D
libRbt.so/2013.1/901 2013/11/27
 37 40  0  0  0  0  0  0  0  0999 V2000
   -7.6672   23.0159   67.1206 C   0  0  1  0  0  0  0  0  0  0  0  0
   -8.3143   23.8757   68.2434 C   0  0  1  0  0  0  0  0  0  0  0  0
   -7.9372   23.3684   69.6483 C   0  0  0  0  0  0  0  0  0  0  0  0
   -8.3621   21.8723   69.7763 C   0  0  1  0  0  0  0  0  0  0  0  0
   -7.6669   21.0059   68.6765 C   0  0  1  0  0  0  0  0  0  0  0  0
   -8.1165   19.4826   68.8248 C   0  0  1  0  0  0  0  0  0  0  0  0
   -7.7228   18.9754   70.2430 C   0  0  1  0  0  0  0  0  0  0  0  0
   -8.4137   19.8935   71.2958 C   0  0  2  0  0  0  0  0  0  0  0  0
   -9.5137   17.2491   70.9662 C   0  0  0  0  0  0  0  0  0  0  0  0
   -7.9411   25.2979   68.0906 N   0  0  0  0  0  0  0  0  0  0  0  0
   -8.1464   17.5368   70.4270 N   0  0  0  0  0  0  0  0  0  0  0  0
   -6.2362   23.1726   67.0597 O   0  0  0  0  0  0  0  0  0  0  0  0
   -8.0288   21.5929   67.3519 O   0  0  0  0  0  0  0  0  0  0  0  0
   -8.0274   21.2998   71.1216 O   0  0  0  0  0  0  0  0  0  0  0  0
   -9.5286   19.3841   68.6925 O   0  0  0  0  0  0  0  0  0  0  0  0
   -8.0646   19.4767   72.6109 O   0  0  0  0  0  0  0  0  0  0  0  0
   -9.1993   19.3103   73.4964 C   0  0  2  0  0  0  0  0  0  0  0  0
   -9.3314   20.4573   74.5261 C   0  0  1  0  0  0  0  0  0  0  0  0
   -8.1348   20.4436   75.5312 C   0  0  2  0  0  0  0  0  0  0  0  0
   -8.1248   19.1189   76.2668 C   0  0  1  0  0  0  0  0  0  0  0  0
   -7.9630   17.9671   75.2300 C   0  0  1  0  0  0  0  0  0  0  0  0
   -7.9661   16.5907   75.8924 C   0  0  0  0  0  0  0  0  0  0  0  0
   -7.0050   19.1067   77.2388 N   0  0  0  0  0  0  0  0  0  0  0  0
   -9.0856   18.0222   74.2437 O   0  0  0  0  0  0  0  0  0  0  0  0
   -9.4143   21.6951   73.7852 O   0  0  0  0  0  0  0  0  0  0  0  0
   -8.2864   21.5008   76.4812 O   0  0  0  0  0  0  0  0  0  0  0  0
   -6.6940   16.3329   76.4353 O   0  0  0  0  0  0  0  0  0  0  0  0
   -5.5557   24.2800   66.2846 C   0  0  1  0  0  0  0  0  0  0  0  0
   -6.5743   24.8600   65.2653 C   0  0  1  0  0  0  0  0  0  0  0  0
   -5.9126   26.0028   64.4418 C   0  0  2  0  0  0  0  0  0  0  0  0
   -5.4557   27.1250   65.4063 C   0  0  1  0  0  0  0  0  0  0  0  0
   -4.4168   26.5677   66.4442 C   0  0  0  0  0  0  0  0  0  0  0  0
   -5.0896   25.4265   67.2364 C   0  0  2  0  0  0  0  0  0  0  0  0
   -4.8296   28.2233   64.6315 N   0  0  0  0  0  0  0  0  0  0  0  0
   -4.1130   24.9109   68.2021 N   0  0  0  0  0  0  0  0  0  0  0  0
   -7.0033   23.8138   64.3661 O   0  0  0  0  0  0  0  0  0  0  0  0
   -6.8775   26.5197   63.4987 O   0  0  0  0  0  0  0  0  0  0  0  0
  1  2  1  0  0  0  0
  1 12  1  1  0  0  0
  1 13  1  0  0  0  0
  2  3  1  0  0  0  0
  2 10  1  1  0  0  0
  4  3  1  1  0  0  0
  4  5  1  0  0  0  0
  4 14  1  0  0  0  0
  5  6  1  0  0  0  0
  5 13  1  6  0  0  0
  6  7  1  0  0  0  0
  6 15  1  1  0  0  0
  7  8  1  0  0  0  0
  7 11  1  1  0  0  0
  8 14  1  0  0  0  0
  8 16  1  1  0  0  0
  9 11  1  0  0  0  0
 17 16  1  1  0  0  0
 17 18  1  0  0  0  0
 17 24  1  0  0  0  0
 18 19  1  0  0  0  0
 18 25  1  6  0  0  0
 19 20  1  0  0  0  0
 19 26  1  1  0  0  0
 20 21  1  0  0  0  0
 20 23  1  1  0  0  0
 21 22  1  1  0  0  0
 21 24  1  0  0  0  0
 22 27  1  0  0  0  0
 28 12  1  1  0  0  0
 28 29  1  0  0  0  0
 28 33  1  0  0  0  0
 29 30  1  0  0  0  0
 29 36  1  6  0  0  0
 30 31  1  0  0  0  0
 30 37  1  6  0  0  0
 31 32  1  0  0  0  0
 31 34  1  6  0  0  0
 32 33  1  0  0  0  0
 33 35  1  1  0  0  0
M  END
>  <CHROM.1>
-85.70358158,-89.34597986,-130.11665948,-18.02345380,-105.08544550,-79.97804377
-7.50088531,21.71108472,70.16240431,1.07458791,-1.17120270,-1.38956121

>  <Name>
ligand

>  <RI>
0

>  <Rbt.Current_Directory>
/home/itssahil/PROJECTS/Mol_Feturizer/Test_systems_manuscript/rnas/2g5k

>  <Rbt.Executable>
rbdock ($Id: //depot/dev/client3/rdock/2013.1/src/exe/rbdock.cxx#4 $)

>  <Rbt.Library>
libRbt.so (2013.1, Build901 2013/11/27)

>  <Rbt.Parameter_File>
/export/apps/rDock/src/rDock_2013.1_src/data/scripts/dock_solv.prm

>  <Rbt.Receptor>
prm/blind_docking_80.prm

>  <SCORE>
7.49402

>  <SCORE.INTER>
-7.3104

>  <SCORE.INTER.CONST>
1

>  <SCORE.INTER.POLAR>
0

>  <SCORE.INTER.ROT>
6

>  <SCORE.INTER.SOLV>
24.9259

>  <SCORE.INTER.VDW>
-20.7822

>  <SCORE.INTER.norm>
-0.197578

>  <SCORE.INTRA>
10.1625

>  <SCORE.INTRA.DIHEDRAL>
11.8463

>  <SCORE.INTRA.DIHEDRAL.0>
11.3972

>  <SCORE.INTRA.POLAR>
0

>  <SCORE.INTRA.POLAR.0>
0

>  <SCORE.INTRA.REPUL>
0

>  <SCORE.INTRA.REPUL.0>
0

>  <SCORE.INTRA.SOLV>
4.33313

>  <SCORE.INTRA.SOLV.lig_0>
-92.3891

>  <SCORE.INTRA.VDW>
2.0728

>  <SCORE.INTRA.VDW.0>
-2.90606

>  <SCORE.INTRA.norm>
0.274663

>  <SCORE.RESTR>
4.64188

>  <SCORE.RESTR.CAVITY>
4.64188

>  <SCORE.RESTR.norm>
0.125456

>  <SCORE.SYSTEM>
0

>  <SCORE.SYSTEM.CONST>
0

>  <SCORE.SYSTEM.DIHEDRAL>
0

>  <SCORE.SYSTEM.SOLV>
0

>  <SCORE.SYSTEM.norm>
0

>  <SCORE.heavy>
37

>  <SCORE.norm>
0.202541

>  <RMSD>
11.131

$$$$
ligand
 OpenBabel02271912133D
libRbt.so/2013.1/901 2013/11/27
 37 40  0  0  0  0  0  0  0  0999 V2000
   -7.6287   22.9642   67.4063 C   0  0  1  0  0  0  0  0  0  0  0  0
   -8.3681   23.7679   68.5135 C   0  0  1  0  0  0  0  0  0  0  0  0
   -8.0258   23.2544   69.9251 C   0  0  0  0  0  0  0  0  0  0  0  0
   -8.3765   21.7361   70.0094 C   0  0  1  0  0  0  0  0  0  0  0  0
   -7.5898   20.9279   68.9271 C   0  0  1  0  0  0  0  0  0  0  0  0
   -7.9645   19.3808   69.0301 C   0  0  1  0  0  0  0  0  0  0  0  0
   -7.6063   18.8680   70.4558 C   0  0  1  0  0  0  0  0  0  0  0  0
   -8.3895   19.7290   71.4921 C   0  0  2  0  0  0  0  0  0  0  0  0
   -9.3260   17.0380   71.0915 C   0  0  0  0  0  0  0  0  0  0  0  0
   -8.0641   25.2102   68.4009 N   0  0  0  0  0  0  0  0  0  0  0  0
   -7.9611   17.4062   70.5970 N   0  0  0  0  0  0  0  0  0  0  0  0
   -6.2066   23.1961   67.4112 O   0  0  0  0  0  0  0  0  0  0  0  0
   -7.9245   21.5202   67.5977 O   0  0  0  0  0  0  0  0  0  0  0  0
   -8.0706   21.1565   71.3585 O   0  0  0  0  0  0  0  0  0  0  0  0
   -9.3625   19.2117   68.8341 O   0  0  0  0  0  0  0  0  0  0  0  0
   -8.0761   19.3062   72.8142 O   0  0  0  0  0  0  0  0  0  0  0  0
   -9.2367   19.0940   73.6551 C   0  0  2  0  0  0  0  0  0  0  0  0
   -9.6328   20.3532   74.4619 C   0  0  1  0  0  0  0  0  0  0  0  0
   -8.5339   20.7082   75.5148 C   0  0  2  0  0  0  0  0  0  0  0  0
   -8.3710   19.5422   76.4686 C   0  0  1  0  0  0  0  0  0  0  0  0
   -7.9443   18.2822   75.6573 C   0  0  1  0  0  0  0  0  0  0  0  0
   -7.7802   17.0519   76.5475 C   0  0  0  0  0  0  0  0  0  0  0  0
   -7.3452   19.8801   77.4848 N   0  0  0  0  0  0  0  0  0  0  0  0
   -8.9786   17.9832   74.6195 O   0  0  0  0  0  0  0  0  0  0  0  0
   -9.8531   21.4215   73.5140 O   0  0  0  0  0  0  0  0  0  0  0  0
   -8.9284   21.8639   76.2576 O   0  0  0  0  0  0  0  0  0  0  0  0
   -7.7655   15.8960   75.7455 O   0  0  0  0  0  0  0  0  0  0  0  0
   -5.5350   24.2471   66.5542 C   0  0  1  0  0  0  0  0  0  0  0  0
   -6.5598   24.7440   65.4980 C   0  0  1  0  0  0  0  0  0  0  0  0
   -5.9073   25.8266   64.5902 C   0  0  2  0  0  0  0  0  0  0  0  0
   -5.4550   27.0199   65.4675 C   0  0  1  0  0  0  0  0  0  0  0  0
   -4.4099   26.5471   66.5407 C   0  0  0  0  0  0  0  0  0  0  0  0
   -5.0735   25.4637   67.4172 C   0  0  2  0  0  0  0  0  0  0  0  0
   -4.8377   28.0615   64.6118 N   0  0  0  0  0  0  0  0  0  0  0  0
   -4.0913   25.0268   68.4154 N   0  0  0  0  0  0  0  0  0  0  0  0
   -6.9847   23.6316   64.6799 O   0  0  0  0  0  0  0  0  0  0  0  0
   -6.8780   26.2665   63.6143 O   0  0  0  0  0  0  0  0  0  0  0  0
  1  2  1  0  0  0  0
  1 12  1  1  0  0  0
  1 13  1  0  0  0  0
  2  3  1  0  0  0  0
  2 10  1  1  0  0  0
  4  3  1  1  0  0  0
  4  5  1  0  0  0  0
  4 14  1  0  0  0  0
  5  6  1  0  0  0  0
  5 13  1  6  0  0  0
  6  7  1  0  0  0  0
  6 15  1  1  0  0  0
  7  8  1  0  0  0  0
  7 11  1  6  0  0  0
  8 14  1  0  0  0  0
  8 16  1  1  0  0  0
  9 11  1  0  0  0  0
 17 16  1  1  0  0  0
 17 18  1  0  0  0  0
 17 24  1  0  0  0  0
 18 19  1  0  0  0  0
 18 25  1  6  0  0  0
 19 20  1  0  0  0  0
 19 26  1  1  0  0  0
 20 21  1  0  0  0  0
 20 23  1  1  0  0  0
 21 22  1  1  0  0  0
 21 24  1  0  0  0  0
 22 27  1  0  0  0  0
 28 12  1  1  0  0  0
 28 29  1  0  0  0  0
 28 33  1  0  0  0  0
 29 30  1  0  0  0  0
 29 36  1  6  0  0  0
 30 31  1  0  0  0  0
 30 37  1  6  0  0  0
 31 32  1  0  0  0  0
 31 34  1  6  0  0  0
 32 33  1  0  0  0  0
 33 35  1  1  0  0  0
M  END
>  <CHROM.1>
-93.34122905,-90.31718940,-131.45620961,-12.84874191,-91.93080268,163.79086761
-7.56823345,21.67459853,70.32324061,0.82703355,-1.25290439,-1.64876963

>  <Name>
ligand

>  <RI>
0

>  <Rbt.Current_Directory>
/home/itssahil/PROJECTS/Mol_Feturizer/Test_systems_manuscript/rnas/2g5k

>  <Rbt.Executable>
rbdock ($Id: //depot/dev/client3/rdock/2013.1/src/exe/rbdock.cxx#4 $)

>  <Rbt.Library>
libRbt.so (2013.1, Build901 2013/11/27)

>  <Rbt.Parameter_File>
/export/apps/rDock/src/rDock_2013.1_src/data/scripts/dock_solv.prm

>  <Rbt.Receptor>
prm/blind_docking_80.prm

>  <SCORE>
7.37934

>  <SCORE.INTER>
-7.46837

>  <SCORE.INTER.CONST>
1

>  <SCORE.INTER.POLAR>
0

>  <SCORE.INTER.ROT>
6

>  <SCORE.INTER.SOLV>
24.5282

>  <SCORE.INTER.VDW>
-20.755

>  <SCORE.INTER.norm>
-0.201848

>  <SCORE.INTRA>
9.42015

>  <SCORE.INTRA.DIHEDRAL>
11.2603

>  <SCORE.INTRA.DIHEDRAL.0>
11.3972

>  <SCORE.INTRA.POLAR>
0

>  <SCORE.INTRA.POLAR.0>
0

>  <SCORE.INTRA.REPUL>
0

>  <SCORE.INTRA.REPUL.0>
0

>  <SCORE.INTRA.SOLV>
2.53069

>  <SCORE.INTRA.SOLV.lig_0>
-92.3891

>  <SCORE.INTRA.VDW>
2.52467

>  <SCORE.INTRA.VDW.0>
-2.90606

>  <SCORE.INTRA.norm>
0.254599

>  <SCORE.RESTR>
5.42757

>  <SCORE.RESTR.CAVITY>
5.42757

>  <SCORE.RESTR.norm>
0.146691

>  <SCORE.SYSTEM>
0

>  <SCORE.SYSTEM.CONST>
0

>  <SCORE.SYSTEM.DIHEDRAL>
0

>  <SCORE.SYSTEM.SOLV>
0

>  <SCORE.SYSTEM.norm>
0

>  <SCORE.heavy>
37

>  <SCORE.norm>
0.199442

>  <RMSD>
11.139

$$$$
ligand
 OpenBabel02271912133D
libRbt.so/2013.1/901 2013/11/27
 37 40  0  0  0  0  0  0  0  0999 V2000
   -2.7143   29.5724   63.3132 C   0  0  1  0  0  0  0  0  0  0  0  0
   -2.6980   28.1822   62.6165 C   0  0  1  0  0  0  0  0  0  0  0  0
   -1.7276   27.2034   63.3048 C   0  0  0  0  0  0  0  0  0  0  0  0
   -0.3008   27.8352   63.3230 C   0  0  1  0  0  0  0  0  0  0  0  0
   -0.3155   29.2080   64.0705 C   0  0  1  0  0  0  0  0  0  0  0  0
    1.1509   29.8360   64.0753 C   0  0  1  0  0  0  0  0  0  0  0  0
    2.1224   28.8452   64.7812 C   0  0  1  0  0  0  0  0  0  0  0  0
    2.0708   27.4878   64.0173 C   0  0  2  0  0  0  0  0  0  0  0  0
    4.4221   29.0795   65.9505 C   0  0  0  0  0  0  0  0  0  0  0  0
   -4.0596   27.6091   62.5656 N   0  0  0  0  0  0  0  0  0  0  0  0
    3.5277   29.4000   64.7927 N   0  0  0  0  0  0  0  0  0  0  0  0
   -3.3065   29.5259   64.6260 O   0  0  0  0  0  0  0  0  0  0  0  0
   -1.3183   30.0775   63.3860 O   0  0  0  0  0  0  0  0  0  0  0  0
    0.7081   26.9410   63.9804 O   0  0  0  0  0  0  0  0  0  0  0  0
    1.5977   30.0216   62.7384 O   0  0  0  0  0  0  0  0  0  0  0  0
    2.9322   26.5431   64.6421 O   0  0  0  0  0  0  0  0  0  0  0  0
    3.0212   25.2763   63.9447 C   0  0  2  0  0  0  0  0  0  0  0  0
    3.7018   24.1723   64.7883 C   0  0  1  0  0  0  0  0  0  0  0  0
    5.2076   24.5094   65.0355 C   0  0  2  0  0  0  0  0  0  0  0  0
    5.9142   24.6154   63.6992 C   0  0  1  0  0  0  0  0  0  0  0  0
    5.2452   25.7471   62.8629 C   0  0  1  0  0  0  0  0  0  0  0  0
    5.8883   25.9035   61.4863 C   0  0  0  0  0  0  0  0  0  0  0  0
    7.3490   24.9132   63.9260 N   0  0  0  0  0  0  0  0  0  0  0  0
    3.7938   25.4386   62.6770 O   0  0  0  0  0  0  0  0  0  0  0  0
    2.9557   24.0483   66.0196 O   0  0  0  0  0  0  0  0  0  0  0  0
    5.8185   23.4693   65.8023 O   0  0  0  0  0  0  0  0  0  0  0  0
    7.2016   26.3847   61.6384 O   0  0  0  0  0  0  0  0  0  0  0  0
   -3.8800   30.7421   65.3203 C   0  0  1  0  0  0  0  0  0  0  0  0
   -5.0996   31.2435   64.4994 C   0  0  1  0  0  0  0  0  0  0  0  0
   -5.7192   32.4993   65.1782 C   0  0  2  0  0  0  0  0  0  0  0  0
   -6.1813   32.1275   66.6088 C   0  0  1  0  0  0  0  0  0  0  0  0
   -4.9646   31.6245   67.4654 C   0  0  0  0  0  0  0  0  0  0  0  0
   -4.3574   30.3904   66.7647 C   0  0  2  0  0  0  0  0  0  0  0  0
   -6.7803   33.3154   67.2633 N   0  0  0  0  0  0  0  0  0  0  0  0
   -3.2216   29.9278   67.5697 N   0  0  0  0  0  0  0  0  0  0  0  0
   -4.6707   31.5888   63.1636 O   0  0  0  0  0  0  0  0  0  0  0  0
   -6.8457   32.9485   64.3927 O   0  0  0  0  0  0  0  0  0  0  0  0
  1  2  1  0  0  0  0
  1 12  1  1  0  0  0
  1 13  1  0  0  0  0
  2  3  1  0  0  0  0
  2 10  1  1  0  0  0
  4  3  1  1  0  0  0
  4  5  1  0  0  0  0
  4 14  1  0  0  0  0
  5  6  1  0  0  0  0
  5 13  1  6  0  0  0
  6  7  1  0  0  0  0
  6 15  1  6  0  0  0
  7  8  1  0  0  0  0
  7 11  1  6  0  0  0
  8 14  1  0  0  0  0
  8 16  1  1  0  0  0
  9 11  1  0  0  0  0
 17 16  1  1  0  0  0
 17 18  1  0  0  0  0
 17 24  1  0  0  0  0
 18 19  1  0  0  0  0
 18 25  1  1  0  0  0
 19 20  1  0  0  0  0
 19 26  1  1  0  0  0
 20 21  1  0  0  0  0
 20 23  1  1  0  0  0
 21 22  1  6  0  0  0
 21 24  1  0  0  0  0
 22 27  1  0  0  0  0
 28 12  1  6  0  0  0
 28 29  1  0  0  0  0
 28 33  1  0  0  0  0
 29 30  1  0  0  0  0
 29 36  1  6  0  0  0
 30 31  1  0  0  0  0
 30 37  1  6  0  0  0
 31 32  1  0  0  0  0
 31 34  1  1  0  0  0
 32 33  1  0  0  0  0
 33 35  1  1  0  0  0
M  END
>  <CHROM.1>
-158.30023375,147.30355405,-175.91554376,64.52439283,-167.37006022,-67.45467414
0.22039711,28.31370380,64.36892373,3.11782027,-0.54100737,1.75914827

>  <Name>
ligand

>  <RI>
0

>  <Rbt.Current_Directory>
/home/itssahil/PROJECTS/Mol_Feturizer/Test_systems_manuscript/rnas/2g5k

>  <Rbt.Executable>
rbdock ($Id: //depot/dev/client3/rdock/2013.1/src/exe/rbdock.cxx#4 $)

>  <Rbt.Library>
libRbt.so (2013.1, Build901 2013/11/27)

>  <Rbt.Parameter_File>
/export/apps/rDock/src/rDock_2013.1_src/data/scripts/dock_solv.prm

>  <Rbt.Receptor>
prm/pocket_docking_6.prm

>  <SCORE>
-11.3131

>  <SCORE.INTER>
-7.63709

>  <SCORE.INTER.CONST>
1

>  <SCORE.INTER.POLAR>
0

>  <SCORE.INTER.ROT>
6

>  <SCORE.INTER.SOLV>
15.5974

>  <SCORE.INTER.VDW>
-17.8905

>  <SCORE.INTER.norm>
-0.206408

>  <SCORE.INTRA>
-3.67605

>  <SCORE.INTRA.DIHEDRAL>
-7.45865

>  <SCORE.INTRA.DIHEDRAL.0>
11.3972

>  <SCORE.INTRA.POLAR>
0

>  <SCORE.INTRA.POLAR.0>
0

>  <SCORE.INTRA.REPUL>
0

>  <SCORE.INTRA.REPUL.0>
0

>  <SCORE.INTRA.SOLV>
-0.554043

>  <SCORE.INTRA.SOLV.lig_0>
-92.3891

>  <SCORE.INTRA.VDW>
0.330295

>  <SCORE.INTRA.VDW.0>
-2.90606

>  <SCORE.INTRA.norm>
-0.0993528

>  <SCORE.RESTR>
0

>  <SCORE.RESTR.CAVITY>
0

>  <SCORE.RESTR.norm>
0

>  <SCORE.SYSTEM>
0

>  <SCORE.SYSTEM.CONST>
0

>  <SCORE.SYSTEM.DIHEDRAL>
0

>  <SCORE.SYSTEM.SOLV>
0

>  <SCORE.SYSTEM.norm>
0

>  <SCORE.heavy>
37

>  <SCORE.norm>
-0.305761

>  <RMSD>
11.166

$$$$
ligand
 OpenBabel02271912133D
libRbt.so/2013.1/901 2013/11/27
 37 40  0  0  0  0  0  0  0  0999 V2000
   -2.3591   29.6413   63.0577 C   0  0  1  0  0  0  0  0  0  0  0  0
   -2.5090   28.2065   62.4770 C   0  0  1  0  0  0  0  0  0  0  0  0
   -1.6500   27.1818   63.2422 C   0  0  0  0  0  0  0  0  0  0  0  0
   -0.1602   27.6449   63.2076 C   0  0  1  0  0  0  0  0  0  0  0  0
   -0.0102   29.0664   63.8404 C   0  0  1  0  0  0  0  0  0  0  0  0
    1.5184   29.5200   63.7928 C   0  0  1  0  0  0  0  0  0  0  0  0
    2.3773   28.4848   64.5766 C   0  0  1  0  0  0  0  0  0  0  0  0
    2.1630   27.0849   63.9262 C   0  0  2  0  0  0  0  0  0  0  0  0
    4.4637   29.4414   65.7776 C   0  0  0  0  0  0  0  0  0  0  0  0
   -3.9277   27.7914   62.4742 N   0  0  0  0  0  0  0  0  0  0  0  0
    3.8369   28.8736   64.5416 N   0  0  0  0  0  0  0  0  0  0  0  0
   -2.9394   29.7698   64.3704 O   0  0  0  0  0  0  0  0  0  0  0  0
   -0.9138   29.9869   63.0880 O   0  0  0  0  0  0  0  0  0  0  0  0
    0.7463   26.6970   63.9352 O   0  0  0  0  0  0  0  0  0  0  0  0
    1.9699   29.5441   62.4449 O   0  0  0  0  0  0  0  0  0  0  0  0
    2.9170   26.1013   64.6255 O   0  0  0  0  0  0  0  0  0  0  0  0
    2.9871   24.8221   63.9486 C   0  0  2  0  0  0  0  0  0  0  0  0
    3.1941   23.6376   64.9220 C   0  0  1  0  0  0  0  0  0  0  0  0
    4.5975   23.7170   65.6049 C   0  0  2  0  0  0  0  0  0  0  0  0
    5.6692   23.6693   64.5348 C   0  0  1  0  0  0  0  0  0  0  0  0
    5.4757   24.8793   63.5724 C   0  0  1  0  0  0  0  0  0  0  0  0
    6.5080   24.8912   62.4467 C   0  0  0  0  0  0  0  0  0  0  0  0
    7.0049   23.7217   65.1765 N   0  0  0  0  0  0  0  0  0  0  0  0
    4.1106   24.8202   62.9647 O   0  0  0  0  0  0  0  0  0  0  0  0
    2.1126   23.6719   65.8798 O   0  0  0  0  0  0  0  0  0  0  0  0
    4.7721   22.6055   66.4865 O   0  0  0  0  0  0  0  0  0  0  0  0
    7.7781   25.1716   62.9831 O   0  0  0  0  0  0  0  0  0  0  0  0
   -3.4559   31.0800   64.9240 C   0  0  1  0  0  0  0  0  0  0  0  0
   -4.8166   31.3949   64.2443 C   0  0  1  0  0  0  0  0  0  0  0  0
   -5.3832   32.7403   64.7835 C   0  0  2  0  0  0  0  0  0  0  0  0
   -5.5879   32.6281   66.3144 C   0  0  1  0  0  0  0  0  0  0  0  0
   -4.2241   32.3182   67.0294 C   0  0  0  0  0  0  0  0  0  0  0  0
   -3.6745   30.9898   66.4673 C   0  0  2  0  0  0  0  0  0  0  0  0
   -6.1346   33.9027   66.8387 N   0  0  0  0  0  0  0  0  0  0  0  0
   -2.4009   30.7084   67.1387 N   0  0  0  0  0  0  0  0  0  0  0  0
   -4.6280   31.4978   62.8156 O   0  0  0  0  0  0  0  0  0  0  0  0
   -6.6438   33.0124   64.1317 O   0  0  0  0  0  0  0  0  0  0  0  0
  1  2  1  0  0  0  0
  1 12  1  1  0  0  0
  1 13  1  0  0  0  0
  2  3  1  0  0  0  0
  2 10  1  1  0  0  0
  4  3  1  1  0  0  0
  4  5  1  0  0  0  0
  4 14  1  0  0  0  0
  5  6  1  0  0  0  0
  5 13  1  6  0  0  0
  6  7  1  0  0  0  0
  6 15  1  6  0  0  0
  7  8  1  0  0  0  0
  7 11  1  6  0  0  0
  8 14  1  0  0  0  0
  8 16  1  1  0  0  0
  9 11  1  0  0  0  0
 17 16  1  1  0  0  0
 17 18  1  0  0  0  0
 17 24  1  0  0  0  0
 18 19  1  0  0  0  0
 18 25  1  1  0  0  0
 19 20  1  0  0  0  0
 19 26  1  1  0  0  0
 20 21  1  0  0  0  0
 20 23  1  1  0  0  0
 21 22  1  6  0  0  0
 21 24  1  0  0  0  0
 22 27  1  0  0  0  0
 28 12  1  6  0  0  0
 28 29  1  0  0  0  0
 28 33  1  0  0  0  0
 29 30  1  0  0  0  0
 29 36  1  6  0  0  0
 30 31  1  0  0  0  0
 30 37  1  6  0  0  0
 31 32  1  0  0  0  0
 31 34  1  1  0  0  0
 32 33  1  0  0  0  0
 33 35  1  1  0  0  0
M  END
>  <CHROM.1>
-153.66739807,105.93389913,-168.81095604,75.40664688,-153.18930168,-68.69102762
0.38540017,28.10863605,64.38033318,2.54377984,-0.21366899,0.37995711

>  <Name>
ligand

>  <RI>
0

>  <Rbt.Current_Directory>
/home/itssahil/PROJECTS/Mol_Feturizer/Test_systems_manuscript/rnas/2g5k

>  <Rbt.Executable>
rbdock ($Id: //depot/dev/client3/rdock/2013.1/src/exe/rbdock.cxx#4 $)

>  <Rbt.Library>
libRbt.so (2013.1, Build901 2013/11/27)

>  <Rbt.Parameter_File>
/export/apps/rDock/src/rDock_2013.1_src/data/scripts/dock_solv.prm

>  <Rbt.Receptor>
prm/pocket_docking_6.prm

>  <SCORE>
-11.0762

>  <SCORE.INTER>
-9.85449

>  <SCORE.INTER.CONST>
1

>  <SCORE.INTER.POLAR>
0

>  <SCORE.INTER.ROT>
6

>  <SCORE.INTER.SOLV>
20.647

>  <SCORE.INTER.VDW>
-21.052

>  <SCORE.INTER.norm>
-0.266338

>  <SCORE.INTRA>
-1.22166

>  <SCORE.INTRA.DIHEDRAL>
-2.43841

>  <SCORE.INTRA.DIHEDRAL.0>
11.3972

>  <SCORE.INTRA.POLAR>
0

>  <SCORE.INTRA.POLAR.0>
0

>  <SCORE.INTRA.REPUL>
0

>  <SCORE.INTRA.REPUL.0>
0

>  <SCORE.INTRA.SOLV>
-0.101258

>  <SCORE.INTRA.SOLV.lig_0>
-92.3891

>  <SCORE.INTRA.VDW>
0.0481718

>  <SCORE.INTRA.VDW.0>
-2.90606

>  <SCORE.INTRA.norm>
-0.0330178

>  <SCORE.RESTR>
0

>  <SCORE.RESTR.CAVITY>
0

>  <SCORE.RESTR.norm>
0

>  <SCORE.SYSTEM>
0

>  <SCORE.SYSTEM.CONST>
0

>  <SCORE.SYSTEM.DIHEDRAL>
0

>  <SCORE.SYSTEM.SOLV>
0

>  <SCORE.SYSTEM.norm>
0

>  <SCORE.heavy>
37

>  <SCORE.norm>
-0.299355

>  <RMSD>
11.180

$$$$
ligand
 OpenBabel02271912133D
libRbt.so/2013.1/901 2013/11/27
 37 40  0  0  0  0  0  0  0  0999 V2000
   -2.3182   29.4947   63.3618 C   0  0  1  0  0  0  0  0  0  0  0  0
   -2.5878   28.1229   62.6806 C   0  0  1  0  0  0  0  0  0  0  0  0
   -1.6581   27.0188   63.2191 C   0  0  0  0  0  0  0  0  0  0  0  0
   -0.1759   27.4617   63.0140 C   0  0  1  0  0  0  0  0  0  0  0  0
    0.1009   28.8153   63.7453 C   0  0  1  0  0  0  0  0  0  0  0  0
    1.6194   29.2495   63.5210 C   0  0  1  0  0  0  0  0  0  0  0  0
    2.5515   28.1332   64.0768 C   0  0  1  0  0  0  0  0  0  0  0  0
    2.2091   26.8036   63.3394 C   0  0  2  0  0  0  0  0  0  0  0  0
    5.0582   27.7080   64.5728 C   0  0  0  0  0  0  0  0  0  0  0  0
   -4.0037   27.7302   62.8430 N   0  0  0  0  0  0  0  0  0  0  0  0
    4.0017   28.5027   63.8689 N   0  0  0  0  0  0  0  0  0  0  0  0
   -2.7038   29.5078   64.7501 O   0  0  0  0  0  0  0  0  0  0  0  0
   -0.8741   29.8152   63.2164 O   0  0  0  0  0  0  0  0  0  0  0  0
    0.7978   26.4369   63.5155 O   0  0  0  0  0  0  0  0  0  0  0  0
    1.8769   29.3934   62.1302 O   0  0  0  0  0  0  0  0  0  0  0  0
    3.0268   25.7481   63.8316 O   0  0  0  0  0  0  0  0  0  0  0  0
    2.8271   24.4835   63.1534 C   0  0  2  0  0  0  0  0  0  0  0  0
    3.8011   23.3824   63.6356 C   0  0  1  0  0  0  0  0  0  0  0  0
    5.2729   23.7295   63.2413 C   0  0  2  0  0  0  0  0  0  0  0  0
    5.3647   23.8434   61.7331 C   0  0  1  0  0  0  0  0  0  0  0  0
    4.4041   24.9722   61.2528 C   0  0  1  0  0  0  0  0  0  0  0  0
    4.4213   25.1361   59.7342 C   0  0  0  0  0  0  0  0  0  0  0  0
    6.7637   24.1507   61.3493 N   0  0  0  0  0  0  0  0  0  0  0  0
    3.0070   24.6541   61.6806 O   0  0  0  0  0  0  0  0  0  0  0  0
    3.6301   23.2505   65.0644 O   0  0  0  0  0  0  0  0  0  0  0  0
    6.1514   22.6919   63.6827 O   0  0  0  0  0  0  0  0  0  0  0  0
    4.0105   23.9329   59.1318 O   0  0  0  0  0  0  0  0  0  0  0  0
   -4.1021   29.8468   65.2189 C   0  0  1  0  0  0  0  0  0  0  0  0
   -4.6360   31.0214   64.3540 C   0  0  1  0  0  0  0  0  0  0  0  0
   -6.0745   31.4059   64.8066 C   0  0  2  0  0  0  0  0  0  0  0  0
   -7.0050   30.1796   64.6374 C   0  0  1  0  0  0  0  0  0  0  0  0
   -6.4930   28.9776   65.5093 C   0  0  0  0  0  0  0  0  0  0  0  0
   -5.0608   28.6255   65.0539 C   0  0  2  0  0  0  0  0  0  0  0  0
   -8.3809   30.5365   65.0592 N   0  0  0  0  0  0  0  0  0  0  0  0
   -4.5897   27.5037   65.8733 N   0  0  0  0  0  0  0  0  0  0  0  0
   -3.7678   32.1658   64.5088 O   0  0  0  0  0  0  0  0  0  0  0  0
   -6.5442   32.5029   63.9918 O   0  0  0  0  0  0  0  0  0  0  0  0
  1  2  1  0  0  0  0
  1 12  1  1  0  0  0
  1 13  1  0  0  0  0
  2  3  1  0  0  0  0
  2 10  1  1  0  0  0
  4  3  1  1  0  0  0
  4  5  1  0  0  0  0
  4 14  1  0  0  0  0
  5  6  1  0  0  0  0
  5 13  1  6  0  0  0
  6  7  1  0  0  0  0
  6 15  1  6  0  0  0
  7  8  1  0  0  0  0
  7 11  1  6  0  0  0
  8 14  1  0  0  0  0
  8 16  1  1  0  0  0
  9 11  1  0  0  0  0
 17 16  1  1  0  0  0
 17 18  1  0  0  0  0
 17 24  1  0  0  0  0
 18 19  1  0  0  0  0
 18 25  1  1  0  0  0
 19 20  1  0  0  0  0
 19 26  1  6  0  0  0
 20 21  1  0  0  0  0
 20 23  1  1  0  0  0
 21 22  1  6  0  0  0
 21 24  1  0  0  0  0
 22 27  1  0  0  0  0
 28 12  1  6  0  0  0
 28 29  1  0  0  0  0
 28 33  1  0  0  0  0
 29 30  1  0  0  0  0
 29 36  1  1  0  0  0
 30 31  1  0  0  0  0
 30 37  1  6  0  0  0
 31 32  1  0  0  0  0
 31 34  1  1  0  0  0
 32 33  1  0  0  0  0
 33 35  1  1  0  0  0
M  END
>  <CHROM.1>
-87.25218203,167.70390363,-176.94747861,-39.82356916,175.71648641,60.35110550
0.04754275,27.47223950,63.45766219,-2.64418382,-0.23713592,3.09538089

>  <Name>
ligand

>  <RI>
0

>  <Rbt.Current_Directory>
/home/itssahil/PROJECTS/Mol_Feturizer/Test_systems_manuscript/rnas/2g5k

>  <Rbt.Executable>
rbdock ($Id: //depot/dev/client3/rdock/2013.1/src/exe/rbdock.cxx#4 $)

>  <Rbt.Library>
libRbt.so (2013.1, Build901 2013/11/27)

>  <Rbt.Parameter_File>
/export/apps/rDock/src/rDock_2013.1_src/data/scripts/dock_solv.prm

>  <Rbt.Receptor>
prm/pocket_docking_5.prm

>  <SCORE>
-7.85527

>  <SCORE.INTER>
-8.44607

>  <SCORE.INTER.CONST>
1

>  <SCORE.INTER.POLAR>
0

>  <SCORE.INTER.ROT>
6

>  <SCORE.INTER.SOLV>
15.2414

>  <SCORE.INTER.VDW>
-18.3112

>  <SCORE.INTER.norm>
-0.228272

>  <SCORE.INTRA>
0.5908

>  <SCORE.INTRA.DIHEDRAL>
-6.19655

>  <SCORE.INTRA.DIHEDRAL.0>
11.3972

>  <SCORE.INTRA.POLAR>
0

>  <SCORE.INTRA.POLAR.0>
0

>  <SCORE.INTRA.REPUL>
0

>  <SCORE.INTRA.REPUL.0>
0

>  <SCORE.INTRA.SOLV>
4.4975

>  <SCORE.INTRA.SOLV.lig_0>
-92.3891

>  <SCORE.INTRA.VDW>
1.44032

>  <SCORE.INTRA.VDW.0>
-2.90606

>  <SCORE.INTRA.norm>
0.0159676

>  <SCORE.RESTR>
0

>  <SCORE.RESTR.CAVITY>
0

>  <SCORE.RESTR.norm>
0

>  <SCORE.SYSTEM>
0

>  <SCORE.SYSTEM.CONST>
0

>  <SCORE.SYSTEM.DIHEDRAL>
0

>  <SCORE.SYSTEM.SOLV>
0

>  <SCORE.SYSTEM.norm>
0

>  <SCORE.heavy>
37

>  <SCORE.norm>
-0.212305

>  <RMSD>
11.184

$$$$
ligand
 OpenBabel02271912133D
libRbt.so/2013.1/901 2013/11/27
 37 40  0  0  0  0  0  0  0  0999 V2000
   -7.6224   23.1057   67.4948 C   0  0  1  0  0  0  0  0  0  0  0  0
   -8.1390   23.9270   68.7103 C   0  0  1  0  0  0  0  0  0  0  0  0
   -7.6923   23.3151   70.0517 C   0  0  0  0  0  0  0  0  0  0  0  0
   -8.1903   21.8379   70.1242 C   0  0  1  0  0  0  0  0  0  0  0  0
   -7.6245   21.0063   68.9276 C   0  0  1  0  0  0  0  0  0  0  0  0
   -8.1473   19.5020   69.0206 C   0  0  1  0  0  0  0  0  0  0  0  0
   -7.6831   18.8885   70.3740 C   0  0  1  0  0  0  0  0  0  0  0  0
   -8.2450   19.7745   71.5264 C   0  0  2  0  0  0  0  0  0  0  0  0
   -9.5596   17.2219   71.0155 C   0  0  0  0  0  0  0  0  0  0  0  0
   -7.6984   25.3347   68.6127 N   0  0  0  0  0  0  0  0  0  0  0  0
   -8.1726   17.4652   70.5054 N   0  0  0  0  0  0  0  0  0  0  0  0
   -6.1927   23.1916   67.3371 O   0  0  0  0  0  0  0  0  0  0  0  0
   -8.0459   21.6918   67.6696 O   0  0  0  0  0  0  0  0  0  0  0  0
   -7.7937   21.1670   71.4057 O   0  0  0  0  0  0  0  0  0  0  0  0
   -9.5685   19.4851   68.9879 O   0  0  0  0  0  0  0  0  0  0  0  0
   -7.8275   19.2598   72.7857 O   0  0  0  0  0  0  0  0  0  0  0  0
   -8.9200   18.9304   73.6786 C   0  0  2  0  0  0  0  0  0  0  0  0
   -9.2922   20.0940   74.6278 C   0  0  1  0  0  0  0  0  0  0  0  0
   -8.1319   20.3848   75.6335 C   0  0  2  0  0  0  0  0  0  0  0  0
   -7.8710   19.1401   76.4574 C   0  0  1  0  0  0  0  0  0  0  0  0
   -7.4686   17.9773   75.5015 C   0  0  1  0  0  0  0  0  0  0  0  0
   -7.2091   16.6747   76.2559 C   0  0  0  0  0  0  0  0  0  0  0  0
   -6.7858   19.4150   77.4299 N   0  0  0  0  0  0  0  0  0  0  0  0
   -8.5648   17.7430   74.5118 O   0  0  0  0  0  0  0  0  0  0  0  0
   -9.6074   21.2388   73.8043 O   0  0  0  0  0  0  0  0  0  0  0  0
   -8.5043   21.4514   76.5092 O   0  0  0  0  0  0  0  0  0  0  0  0
   -8.3525   16.3330   77.0010 O   0  0  0  0  0  0  0  0  0  0  0  0
   -5.5134   24.2526   66.4988 C   0  0  1  0  0  0  0  0  0  0  0  0
   -6.5225   24.7487   65.4271 C   0  0  1  0  0  0  0  0  0  0  0  0
   -5.8616   25.8414   64.5378 C   0  0  2  0  0  0  0  0  0  0  0  0
   -5.4337   27.0325   65.4303 C   0  0  1  0  0  0  0  0  0  0  0  0
   -4.4049   26.5606   66.5193 C   0  0  0  0  0  0  0  0  0  0  0  0
   -5.0764   25.4672   67.3772 C   0  0  2  0  0  0  0  0  0  0  0  0
   -4.8087   28.0837   64.5921 N   0  0  0  0  0  0  0  0  0  0  0  0
   -4.1092   25.0312   68.3904 N   0  0  0  0  0  0  0  0  0  0  0  0
   -6.9245   23.6383   64.5948 O   0  0  0  0  0  0  0  0  0  0  0  0
   -6.8176   26.2804   63.5472 O   0  0  0  0  0  0  0  0  0  0  0  0
  1  2  1  0  0  0  0
  1 12  1  1  0  0  0
  1 13  1  0  0  0  0
  2  3  1  0  0  0  0
  2 10  1  6  0  0  0
  4  3  1  1  0  0  0
  4  5  1  0  0  0  0
  4 14  1  0  0  0  0
  5  6  1  0  0  0  0
  5 13  1  6  0  0  0
  6  7  1  0  0  0  0
  6 15  1  1  0  0  0
  7  8  1  0  0  0  0
  7 11  1  1  0  0  0
  8 14  1  0  0  0  0
  8 16  1  1  0  0  0
  9 11  1  0  0  0  0
 17 16  1  1  0  0  0
 17 18  1  0  0  0  0
 17 24  1  0  0  0  0
 18 19  1  0  0  0  0
 18 25  1  6  0  0  0
 19 20  1  0  0  0  0
 19 26  1  1  0  0  0
 20 21  1  0  0  0  0
 20 23  1  1  0  0  0
 21 22  1  1  0  0  0
 21 24  1  0  0  0  0
 22 27  1  0  0  0  0
 28 12  1  1  0  0  0
 28 29  1  0  0  0  0
 28 33  1  0  0  0  0
 29 30  1  0  0  0  0
 29 36  1  6  0  0  0
 30 31  1  0  0  0  0
 30 37  1  6  0  0  0
 31 32  1  0  0  0  0
 31 34  1  6  0  0  0
 32 33  1  0  0  0  0
 33 35  1  1  0  0  0
M  END
>  <CHROM.1>
-90.12465971,-84.04491910,-122.32724191,-24.55591251,-92.89180466,56.82281815
-7.44563573,21.64730341,70.37439665,1.07748338,-1.15672515,-1.38673316

>  <Name>
ligand

>  <RI>
0

>  <Rbt.Current_Directory>
/home/itssahil/PROJECTS/Mol_Feturizer/Test_systems_manuscript/rnas/2g5k

>  <Rbt.Executable>
rbdock ($Id: //depot/dev/client3/rdock/2013.1/src/exe/rbdock.cxx#4 $)

>  <Rbt.Library>
libRbt.so (2013.1, Build901 2013/11/27)

>  <Rbt.Parameter_File>
/export/apps/rDock/src/rDock_2013.1_src/data/scripts/dock_solv.prm

>  <Rbt.Receptor>
prm/blind_docking_80.prm

>  <SCORE>
4.44896

>  <SCORE.INTER>
-8.67199

>  <SCORE.INTER.CONST>
1

>  <SCORE.INTER.POLAR>
0

>  <SCORE.INTER.ROT>
6

>  <SCORE.INTER.SOLV>
25.4099

>  <SCORE.INTER.VDW>
-21.8513

>  <SCORE.INTER.norm>
-0.234378

>  <SCORE.INTRA>
8.32173

>  <SCORE.INTRA.DIHEDRAL>
8.58551

>  <SCORE.INTRA.DIHEDRAL.0>
11.3972

>  <SCORE.INTRA.POLAR>
0

>  <SCORE.INTRA.POLAR.0>
0

>  <SCORE.INTRA.REPUL>
0

>  <SCORE.INTRA.REPUL.0>
0

>  <SCORE.INTRA.SOLV>
4.14885

>  <SCORE.INTRA.SOLV.lig_0>
-92.3891

>  <SCORE.INTRA.VDW>
1.95455

>  <SCORE.INTRA.VDW.0>
-2.90606

>  <SCORE.INTRA.norm>
0.224912

>  <SCORE.RESTR>
4.79922

>  <SCORE.RESTR.CAVITY>
4.79922

>  <SCORE.RESTR.norm>
0.129709

>  <SCORE.SYSTEM>
0

>  <SCORE.SYSTEM.CONST>
0

>  <SCORE.SYSTEM.DIHEDRAL>
0

>  <SCORE.SYSTEM.SOLV>
0

>  <SCORE.SYSTEM.norm>
0

>  <SCORE.heavy>
37

>  <SCORE.norm>
0.120242

>  <RMSD>
11.200

$$$$
ligand
 OpenBabel02271912133D
libRbt.so/2013.1/901 2013/11/27
 37 40  0  0  0  0  0  0  0  0999 V2000
   -7.7703   22.9697   67.8414 C   0  0  1  0  0  0  0  0  0  0  0  0
   -8.0043   23.7709   69.1536 C   0  0  1  0  0  0  0  0  0  0  0  0
   -7.3230   23.1059   70.3648 C   0  0  0  0  0  0  0  0  0  0  0  0
   -7.8511   21.6439   70.5021 C   0  0  1  0  0  0  0  0  0  0  0  0
   -7.5656   20.8301   69.1983 C   0  0  1  0  0  0  0  0  0  0  0  0
   -8.1149   19.3412   69.3599 C   0  0  1  0  0  0  0  0  0  0  0  0
   -7.4141   18.6737   70.5794 C   0  0  1  0  0  0  0  0  0  0  0  0
   -7.7026   19.5429   71.8403 C   0  0  2  0  0  0  0  0  0  0  0  0
   -9.3111   17.0594   71.2903 C   0  0  0  0  0  0  0  0  0  0  0  0
   -7.5399   25.1661   69.0017 N   0  0  0  0  0  0  0  0  0  0  0  0
   -7.9202   17.2635   70.7738 N   0  0  0  0  0  0  0  0  0  0  0  0
   -6.3983   23.0146   67.4035 O   0  0  0  0  0  0  0  0  0  0  0  0
   -8.2028   21.5654   68.0654 O   0  0  0  0  0  0  0  0  0  0  0  0
   -7.2330   20.9232   71.6632 O   0  0  0  0  0  0  0  0  0  0  0  0
   -9.5139   19.3706   69.6111 O   0  0  0  0  0  0  0  0  0  0  0  0
   -7.0626   18.9784   72.9791 O   0  0  0  0  0  0  0  0  0  0  0  0
   -7.4044   19.6273   74.2285 C   0  0  2  0  0  0  0  0  0  0  0  0
   -7.0057   18.7922   75.4683 C   0  0  1  0  0  0  0  0  0  0  0  0
   -7.8474   17.4778   75.5483 C   0  0  2  0  0  0  0  0  0  0  0  0
   -9.3157   17.8388   75.6478 C   0  0  1  0  0  0  0  0  0  0  0  0
   -9.7215   18.6553   74.3844 C   0  0  1  0  0  0  0  0  0  0  0  0
  -11.1887   19.0789   74.4187 C   0  0  0  0  0  0  0  0  0  0  0  0
  -10.1198   16.5968   75.7465 N   0  0  0  0  0  0  0  0  0  0  0  0
   -8.8743   19.8840   74.2911 O   0  0  0  0  0  0  0  0  0  0  0  0
   -5.5871   18.5331   75.3763 O   0  0  0  0  0  0  0  0  0  0  0  0
   -7.4732   16.7314   76.7084 O   0  0  0  0  0  0  0  0  0  0  0  0
  -11.4773   19.8492   73.2773 O   0  0  0  0  0  0  0  0  0  0  0  0
   -5.8405   24.1226   66.5368 C   0  0  1  0  0  0  0  0  0  0  0  0
   -6.9747   24.6329   65.6063 C   0  0  1  0  0  0  0  0  0  0  0  0
   -6.4416   25.7741   64.6923 C   0  0  2  0  0  0  0  0  0  0  0  0
   -5.9398   26.9414   65.5776 C   0  0  1  0  0  0  0  0  0  0  0  0
   -4.7844   26.4551   66.5242 C   0  0  0  0  0  0  0  0  0  0  0  0
   -5.3315   25.3141   67.4081 C   0  0  2  0  0  0  0  0  0  0  0  0
   -5.4356   28.0384   64.7168 N   0  0  0  0  0  0  0  0  0  0  0  0
   -4.2468   24.8650   68.2876 N   0  0  0  0  0  0  0  0  0  0  0  0
   -7.4457   23.5446   64.7811 O   0  0  0  0  0  0  0  0  0  0  0  0
   -7.5127   26.2257   63.8340 O   0  0  0  0  0  0  0  0  0  0  0  0
  1  2  1  0  0  0  0
  1 12  1  1  0  0  0
  1 13  1  0  0  0  0
  2  3  1  0  0  0  0
  2 10  1  6  0  0  0
  4  3  1  6  0  0  0
  4  5  1  0  0  0  0
  4 14  1  0  0  0  0
  5  6  1  0  0  0  0
  5 13  1  6  0  0  0
  6  7  1  0  0  0  0
  6 15  1  1  0  0  0
  7  8  1  0  0  0  0
  7 11  1  1  0  0  0
  8 14  1  0  0  0  0
  8 16  1  1  0  0  0
  9 11  1  0  0  0  0
 17 16  1  6  0  0  0
 17 18  1  0  0  0  0
 17 24  1  0  0  0  0
 18 19  1  0  0  0  0
 18 25  1  6  0  0  0
 19 20  1  0  0  0  0
 19 26  1  1  0  0  0
 20 21  1  0  0  0  0
 20 23  1  6  0  0  0
 21 22  1  1  0  0  0
 21 24  1  0  0  0  0
 22 27  1  0  0  0  0
 28 12  1  1  0  0  0
 28 29  1  0  0  0  0
 28 33  1  0  0  0  0
 29 30  1  0  0  0  0
 29 36  1  6  0  0  0
 30 31  1  0  0  0  0
 30 37  1  6  0  0  0
 31 32  1  0  0  0  0
 31 34  1  6  0  0  0
 32 33  1  0  0  0  0
 33 35  1  1  0  0  0
M  END
>  <CHROM.1>
-86.38599985,-71.62581889,-172.99992416,-31.75107081,165.05105542,177.94576413
-7.61291498,21.37248238,70.36506669,1.30421691,-0.73003509,-1.04349602

>  <Name>
ligand

>  <RI>
0

>  <Rbt.Current_Directory>
/home/itssahil/PROJECTS/Mol_Feturizer/Test_systems_manuscript/rnas/2g5k

>  <Rbt.Executable>
rbdock ($Id: //depot/dev/client3/rdock/2013.1/src/exe/rbdock.cxx#4 $)

>  <Rbt.Library>
libRbt.so (2013.1, Build901 2013/11/27)

>  <Rbt.Parameter_File>
/export/apps/rDock/src/rDock_2013.1_src/data/scripts/dock_solv.prm

>  <Rbt.Receptor>
prm/blind_docking_80.prm

>  <SCORE>
-4.49181

>  <SCORE.INTER>
-12.5885

>  <SCORE.INTER.CONST>
1

>  <SCORE.INTER.POLAR>
0

>  <SCORE.INTER.ROT>
6

>  <SCORE.INTER.SOLV>
23.2057

>  <SCORE.INTER.VDW>
-23.7276

>  <SCORE.INTER.norm>
-0.340229

>  <SCORE.INTRA>
2.08639

>  <SCORE.INTRA.DIHEDRAL>
-3.76629

>  <SCORE.INTRA.DIHEDRAL.0>
11.3972

>  <SCORE.INTRA.POLAR>
0

>  <SCORE.INTRA.POLAR.0>
0

>  <SCORE.INTRA.REPUL>
0.00799108

>  <SCORE.INTRA.REPUL.0>
0

>  <SCORE.INTRA.SOLV>
4.05137

>  <SCORE.INTRA.SOLV.lig_0>
-92.3891

>  <SCORE.INTRA.VDW>
1.9039

>  <SCORE.INTRA.VDW.0>
-2.90606

>  <SCORE.INTRA.norm>
0.0563889

>  <SCORE.RESTR>
6.01027

>  <SCORE.RESTR.CAVITY>
6.01027

>  <SCORE.RESTR.norm>
0.16244

>  <SCORE.SYSTEM>
0

>  <SCORE.SYSTEM.CONST>
0

>  <SCORE.SYSTEM.DIHEDRAL>
0

>  <SCORE.SYSTEM.SOLV>
0

>  <SCORE.SYSTEM.norm>
0

>  <SCORE.heavy>
37

>  <SCORE.norm>
-0.1214

>  <RMSD>
11.348

$$$$
ligand
 OpenBabel02271912133D
libRbt.so/2013.1/901 2013/11/27
 37 40  0  0  0  0  0  0  0  0999 V2000
   -9.5603   19.3574   71.5674 C   0  0  1  0  0  0  0  0  0  0  0  0
   -8.4535   18.7272   70.6750 C   0  0  1  0  0  0  0  0  0  0  0  0
   -7.2916   19.7061   70.4194 C   0  0  0  0  0  0  0  0  0  0  0  0
   -7.8597   21.0060   69.7691 C   0  0  1  0  0  0  0  0  0  0  0  0
   -8.9342   21.6616   70.6961 C   0  0  1  0  0  0  0  0  0  0  0  0
   -9.5020   22.9860   70.0118 C   0  0  1  0  0  0  0  0  0  0  0  0
   -8.3233   23.9731   69.7664 C   0  0  1  0  0  0  0  0  0  0  0  0
   -7.2699   23.2572   68.8684 C   0  0  2  0  0  0  0  0  0  0  0  0
   -9.0569   26.4508   69.9495 C   0  0  0  0  0  0  0  0  0  0  0  0
   -7.9501   17.4743   71.2766 N   0  0  0  0  0  0  0  0  0  0  0  0
   -8.8207   25.2370   69.1045 N   0  0  0  0  0  0  0  0  0  0  0  0
   -9.1213   19.5730   72.9228 O   0  0  0  0  0  0  0  0  0  0  0  0
   -9.9915   20.6373   70.9468 O   0  0  0  0  0  0  0  0  0  0  0  0
   -6.7871   22.0160   69.4879 O   0  0  0  0  0  0  0  0  0  0  0  0
  -10.0834   22.6651   68.7547 O   0  0  0  0  0  0  0  0  0  0  0  0
   -6.1621   24.1191   68.6338 O   0  0  0  0  0  0  0  0  0  0  0  0
   -5.3659   23.7536   67.4798 C   0  0  2  0  0  0  0  0  0  0  0  0
   -4.4708   24.9106   66.9764 C   0  0  1  0  0  0  0  0  0  0  0  0
   -5.3389   26.0803   66.4102 C   0  0  2  0  0  0  0  0  0  0  0  0
   -6.1708   25.5614   65.2549 C   0  0  1  0  0  0  0  0  0  0  0  0
   -7.0919   24.4154   65.7708 C   0  0  1  0  0  0  0  0  0  0  0  0
   -7.9509   23.8206   64.6566 C   0  0  0  0  0  0  0  0  0  0  0  0
   -6.9813   26.6710   64.6976 N   0  0  0  0  0  0  0  0  0  0  0  0
   -6.2520   23.3256   66.3565 O   0  0  0  0  0  0  0  0  0  0  0  0
   -3.6402   25.3269   68.0832 O   0  0  0  0  0  0  0  0  0  0  0  0
   -4.4912   27.1295   65.9373 O   0  0  0  0  0  0  0  0  0  0  0  0
   -7.1264   23.1206   63.7568 O   0  0  0  0  0  0  0  0  0  0  0  0
   -8.5775   18.4692   73.8036 C   0  0  1  0  0  0  0  0  0  0  0  0
   -8.2090   19.0815   75.1828 C   0  0  1  0  0  0  0  0  0  0  0  0
   -7.6403   17.9781   76.1213 C   0  0  2  0  0  0  0  0  0  0  0  0
   -8.7115   16.8771   76.3182 C   0  0  1  0  0  0  0  0  0  0  0  0
   -9.0973   16.2335   74.9383 C   0  0  0  0  0  0  0  0  0  0  0  0
   -9.6426   17.3483   74.0204 C   0  0  2  0  0  0  0  0  0  0  0  0
   -8.1831   15.8230   77.2171 N   0  0  0  0  0  0  0  0  0  0  0  0
   -9.9991   16.7396   72.7342 N   0  0  0  0  0  0  0  0  0  0  0  0
   -7.2112   20.1105   75.0008 O   0  0  0  0  0  0  0  0  0  0  0  0
   -7.3003   18.5743   77.3928 O   0  0  0  0  0  0  0  0  0  0  0  0
  1  2  1  0  0  0  0
  1 12  1  1  0  0  0
  1 13  1  0  0  0  0
  2  3  1  0  0  0  0
  2 10  1  1  0  0  0
  4  3  1  1  0  0  0
  4  5  1  0  0  0  0
  4 14  1  0  0  0  0
  5  6  1  0  0  0  0
  5 13  1  6  0  0  0
  6  7  1  0  0  0  0
  6 15  1  6  0  0  0
  7  8  1  0  0  0  0
  7 11  1  6  0  0  0
  8 14  1  0  0  0  0
  8 16  1  1  0  0  0
  9 11  1  0  0  0  0
 17 16  1  1  0  0  0
 17 18  1  0  0  0  0
 17 24  1  0  0  0  0
 18 19  1  0  0  0  0
 18 25  1  1  0  0  0
 19 20  1  0  0  0  0
 19 26  1  6  0  0  0
 20 21  1  0  0  0  0
 20 23  1  1  0  0  0
 21 22  1  6  0  0  0
 21 24  1  0  0  0  0
 22 27  1  0  0  0  0
 28 12  1  6  0  0  0
 28 29  1  0  0  0  0
 28 33  1  0  0  0  0
 29 30  1  0  0  0  0
 29 36  1  6  0  0  0
 30 31  1  0  0  0  0
 30 37  1  1  0  0  0
 31 32  1  0  0  0  0
 31 34  1  1  0  0  0
 32 33  1  0  0  0  0
 33 35  1  6  0  0  0
M  END
>  <CHROM.1>
-56.40381093,99.57686907,-160.07792923,179.87056106,161.65547407,68.72988099
-7.66997508,21.67346118,70.26586121,1.86880010,0.85237771,2.05385923

>  <Name>
ligand

>  <RI>
0

>  <Rbt.Current_Directory>
/home/itssahil/PROJECTS/Mol_Feturizer/Test_systems_manuscript/rnas/2g5k

>  <Rbt.Executable>
rbdock ($Id: //depot/dev/client3/rdock/2013.1/src/exe/rbdock.cxx#4 $)

>  <Rbt.Library>
libRbt.so (2013.1, Build901 2013/11/27)

>  <Rbt.Parameter_File>
/export/apps/rDock/src/rDock_2013.1_src/data/scripts/dock_solv.prm

>  <Rbt.Receptor>
prm/blind_docking_80.prm

>  <SCORE>
4.1477

>  <SCORE.INTER>
-4.46632

>  <SCORE.INTER.CONST>
1

>  <SCORE.INTER.POLAR>
0

>  <SCORE.INTER.ROT>
6

>  <SCORE.INTER.SOLV>
19.3212

>  <SCORE.INTER.VDW>
-17.0179

>  <SCORE.INTER.norm>
-0.120711

>  <SCORE.INTRA>
-0.449601

>  <SCORE.INTRA.DIHEDRAL>
-6.82223

>  <SCORE.INTRA.DIHEDRAL.0>
11.3972

>  <SCORE.INTRA.POLAR>
0

>  <SCORE.INTRA.POLAR.0>
0

>  <SCORE.INTRA.REPUL>
0

>  <SCORE.INTRA.REPUL.0>
0

>  <SCORE.INTRA.SOLV>
4.79407

>  <SCORE.INTRA.SOLV.lig_0>
-92.3891

>  <SCORE.INTRA.VDW>
0.564482

>  <SCORE.INTRA.VDW.0>
-2.90606

>  <SCORE.INTRA.norm>
-0.0121514

>  <SCORE.RESTR>
9.06362

>  <SCORE.RESTR.CAVITY>
9.06362

>  <SCORE.RESTR.norm>
0.244963

>  <SCORE.SYSTEM>
0

>  <SCORE.SYSTEM.CONST>
0

>  <SCORE.SYSTEM.DIHEDRAL>
0

>  <SCORE.SYSTEM.SOLV>
0

>  <SCORE.SYSTEM.norm>
0

>  <SCORE.heavy>
37

>  <SCORE.norm>
0.1121

>  <RMSD>
11.361

$$$$
ligand
 OpenBabel02271912133D
libRbt.so/2013.1/901 2013/11/27
 37 40  0  0  0  0  0  0  0  0999 V2000
   -7.6235   22.8636   67.3424 C   0  0  1  0  0  0  0  0  0  0  0  0
   -8.4389   23.7181   68.3541 C   0  0  1  0  0  0  0  0  0  0  0  0
   -8.1359   23.3290   69.8137 C   0  0  0  0  0  0  0  0  0  0  0  0
   -8.4306   21.8083   70.0029 C   0  0  1  0  0  0  0  0  0  0  0  0
   -7.5688   20.9532   69.0182 C   0  0  1  0  0  0  0  0  0  0  0  0
   -7.8873   19.4042   69.2274 C   0  0  1  0  0  0  0  0  0  0  0  0
   -7.5689   19.0175   70.7015 C   0  0  1  0  0  0  0  0  0  0  0  0
   -8.4273   19.9218   71.6364 C   0  0  2  0  0  0  0  0  0  0  0  0
   -9.2883   17.1471   71.2072 C   0  0  0  0  0  0  0  0  0  0  0  0
   -8.1866   25.1590   68.1409 N   0  0  0  0  0  0  0  0  0  0  0  0
   -7.8723   17.5572   70.9428 N   0  0  0  0  0  0  0  0  0  0  0  0
   -6.2129   23.1545   67.3838 O   0  0  0  0  0  0  0  0  0  0  0  0
   -7.8707   21.4274   67.6347 O   0  0  0  0  0  0  0  0  0  0  0  0
   -8.1587   21.3470   71.4040 O   0  0  0  0  0  0  0  0  0  0  0  0
   -9.2682   19.1621   68.9916 O   0  0  0  0  0  0  0  0  0  0  0  0
   -8.1530   19.6149   72.9986 O   0  0  0  0  0  0  0  0  0  0  0  0
   -9.3346   19.5311   73.8328 C   0  0  2  0  0  0  0  0  0  0  0  0
   -9.1534   20.2255   75.2033 C   0  0  1  0  0  0  0  0  0  0  0  0
   -8.0932   19.4747   76.0719 C   0  0  2  0  0  0  0  0  0  0  0  0
   -8.5608   18.0512   76.2980 C   0  0  1  0  0  0  0  0  0  0  0  0
   -8.7151   17.3454   74.9175 C   0  0  1  0  0  0  0  0  0  0  0  0
   -9.2071   15.9061   75.0579 C   0  0  0  0  0  0  0  0  0  0  0  0
   -7.5704   17.3382   77.1404 N   0  0  0  0  0  0  0  0  0  0  0  0
   -9.6932   18.1020   74.0768 O   0  0  0  0  0  0  0  0  0  0  0  0
   -8.7824   21.5982   74.9460 O   0  0  0  0  0  0  0  0  0  0  0  0
   -7.9543   20.1242   77.3376 O   0  0  0  0  0  0  0  0  0  0  0  0
   -8.2721   15.1656   75.8041 O   0  0  0  0  0  0  0  0  0  0  0  0
   -5.5644   24.2353   66.5463 C   0  0  1  0  0  0  0  0  0  0  0  0
   -6.5976   24.7241   65.4944 C   0  0  1  0  0  0  0  0  0  0  0  0
   -5.9688   25.8368   64.6065 C   0  0  2  0  0  0  0  0  0  0  0  0
   -5.5486   27.0264   65.5045 C   0  0  1  0  0  0  0  0  0  0  0  0
   -4.4958   26.5620   66.5737 C   0  0  0  0  0  0  0  0  0  0  0  0
   -5.1356   25.4487   67.4303 C   0  0  2  0  0  0  0  0  0  0  0  0
   -4.9541   28.0965   64.6678 N   0  0  0  0  0  0  0  0  0  0  0  0
   -4.1462   25.0198   68.4249 N   0  0  0  0  0  0  0  0  0  0  0  0
   -6.9926   23.6150   64.6570 O   0  0  0  0  0  0  0  0  0  0  0  0
   -6.9467   26.2686   63.6343 O   0  0  0  0  0  0  0  0  0  0  0  0
  1  2  1  0  0  0  0
  1 12  1  1  0  0  0
  1 13  1  0  0  0  0
  2  3  1  0  0  0  0
  2 10  1  1  0  0  0
  4  3  1  1  0  0  0
  4  5  1  0  0  0  0
  4 14  1  0  0  0  0
  5  6  1  0  0  0  0
  5 13  1  6  0  0  0
  6  7  1  0  0  0  0
  6 15  1  1  0  0  0
  7  8  1  0  0  0  0
  7 11  1  6  0  0  0
  8 14  1  0  0  0  0
  8 16  1  1  0  0  0
  9 11  1  0  0  0  0
 17 16  1  6  0  0  0
 17 18  1  0  0  0  0
 17 24  1  0  0  0  0
 18 19  1  0  0  0  0
 18 25  1  6  0  0  0
 19 20  1  0  0  0  0
 19 26  1  1  0  0  0
 20 21  1  0  0  0  0
 20 23  1  1  0  0  0
 21 22  1  1  0  0  0
 21 24  1  0  0  0  0
 22 27  1  0  0  0  0
 28 12  1  1  0  0  0
 28 29  1  0  0  0  0
 28 33  1  0  0  0  0
 29 30  1  0  0  0  0
 29 36  1  6  0  0  0
 30 31  1  0  0  0  0
 30 37  1  6  0  0  0
 31 32  1  0  0  0  0
 31 34  1  6  0  0  0
 32 33  1  0  0  0  0
 33 35  1  1  0  0  0
M  END
>  <CHROM.1>
-88.67475718,-81.07850469,-136.41380542,-11.07446660,-137.01829512,-61.12516074
-7.61100955,21.45165300,70.37988546,0.92023109,-1.21926089,-1.51067764

>  <Name>
ligand

>  <RI>
0

>  <Rbt.Current_Directory>
/home/itssahil/PROJECTS/Mol_Feturizer/Test_systems_manuscript/rnas/2g5k

>  <Rbt.Executable>
rbdock ($Id: //depot/dev/client3/rdock/2013.1/src/exe/rbdock.cxx#4 $)

>  <Rbt.Library>
libRbt.so (2013.1, Build901 2013/11/27)

>  <Rbt.Parameter_File>
/export/apps/rDock/src/rDock_2013.1_src/data/scripts/dock_solv.prm

>  <Rbt.Receptor>
prm/blind_docking_80.prm

>  <SCORE>
8.89242

>  <SCORE.INTER>
-5.44056

>  <SCORE.INTER.CONST>
1

>  <SCORE.INTER.POLAR>
0

>  <SCORE.INTER.ROT>
6

>  <SCORE.INTER.SOLV>
21.5142

>  <SCORE.INTER.VDW>
-18.3984

>  <SCORE.INTER.norm>
-0.147042

>  <SCORE.INTRA>
9.57352

>  <SCORE.INTRA.DIHEDRAL>
10.6969

>  <SCORE.INTRA.DIHEDRAL.0>
11.3972

>  <SCORE.INTRA.POLAR>
0

>  <SCORE.INTRA.POLAR.0>
0

>  <SCORE.INTRA.REPUL>
0

>  <SCORE.INTRA.REPUL.0>
0

>  <SCORE.INTRA.SOLV>
4.06415

>  <SCORE.INTRA.SOLV.lig_0>
-92.3891

>  <SCORE.INTRA.VDW>
2.19301

>  <SCORE.INTRA.VDW.0>
-2.90606

>  <SCORE.INTRA.norm>
0.258744

>  <SCORE.RESTR>
4.75945

>  <SCORE.RESTR.CAVITY>
4.75945

>  <SCORE.RESTR.norm>
0.128634

>  <SCORE.SYSTEM>
0

>  <SCORE.SYSTEM.CONST>
0

>  <SCORE.SYSTEM.DIHEDRAL>
0

>  <SCORE.SYSTEM.SOLV>
0

>  <SCORE.SYSTEM.norm>
0

>  <SCORE.heavy>
37

>  <SCORE.norm>
0.240336

>  <RMSD>
11.436

$$$$
ligand
 OpenBabel02271912133D
libRbt.so/2013.1/901 2013/11/27
 37 40  0  0  0  0  0  0  0  0999 V2000
   -1.0602   26.5451   66.2329 C   0  0  1  0  0  0  0  0  0  0  0  0
   -0.3181   25.5043   67.1187 C   0  0  1  0  0  0  0  0  0  0  0  0
    1.2083   25.7124   67.0972 C   0  0  0  0  0  0  0  0  0  0  0  0
    1.7069   25.6445   65.6200 C   0  0  1  0  0  0  0  0  0  0  0  0
    0.9942   26.7282   64.7475 C   0  0  1  0  0  0  0  0  0  0  0  0
    1.5169   26.6394   63.2429 C   0  0  1  0  0  0  0  0  0  0  0  0
    3.0579   26.8607   63.2295 C   0  0  1  0  0  0  0  0  0  0  0  0
    3.7114   25.7777   64.1398 C   0  0  2  0  0  0  0  0  0  0  0  0
    4.4705   27.8695   61.3067 C   0  0  0  0  0  0  0  0  0  0  0  0
   -0.8253   25.5456   68.5066 N   0  0  0  0  0  0  0  0  0  0  0  0
    3.5933   26.7693   61.8197 N   0  0  0  0  0  0  0  0  0  0  0  0
   -0.9892   27.8798   66.7713 O   0  0  0  0  0  0  0  0  0  0  0  0
   -0.4767   26.4998   64.8666 O   0  0  0  0  0  0  0  0  0  0  0  0
    3.1900   25.8395   65.5115 O   0  0  0  0  0  0  0  0  0  0  0  0
    1.2479   25.3462   62.7171 O   0  0  0  0  0  0  0  0  0  0  0  0
    5.1230   25.9547   64.1724 O   0  0  0  0  0  0  0  0  0  0  0  0
    5.8270   24.9356   64.9242 C   0  0  2  0  0  0  0  0  0  0  0  0
    7.3630   25.0218   64.7611 C   0  0  1  0  0  0  0  0  0  0  0  0
    7.7866   24.6887   63.2941 C   0  0  2  0  0  0  0  0  0  0  0  0
    7.3327   23.2827   62.9578 C   0  0  1  0  0  0  0  0  0  0  0  0
    5.7826   23.2063   63.0952 C   0  0  1  0  0  0  0  0  0  0  0  0
    5.2454   21.8086   62.7932 C   0  0  0  0  0  0  0  0  0  0  0  0
    7.7506   22.9509   61.5743 N   0  0  0  0  0  0  0  0  0  0  0  0
    5.3863   23.5767   64.4887 O   0  0  0  0  0  0  0  0  0  0  0  0
    7.7659   26.3501   65.1628 O   0  0  0  0  0  0  0  0  0  0  0  0
    9.2089   24.7592   63.1715 O   0  0  0  0  0  0  0  0  0  0  0  0
    3.8771   21.7563   63.1162 O   0  0  0  0  0  0  0  0  0  0  0  0
   -1.9084   28.9998   66.3346 C   0  0  1  0  0  0  0  0  0  0  0  0
   -1.8735   29.0840   64.7840 C   0  0  1  0  0  0  0  0  0  0  0  0
   -2.8050   30.2291   64.2911 C   0  0  2  0  0  0  0  0  0  0  0  0
   -4.2536   29.9416   64.7571 C   0  0  1  0  0  0  0  0  0  0  0  0
   -4.3201   29.8598   66.3243 C   0  0  0  0  0  0  0  0  0  0  0  0
   -3.3773   28.7298   66.7899 C   0  0  2  0  0  0  0  0  0  0  0  0
   -5.1521   31.0232   64.2868 N   0  0  0  0  0  0  0  0  0  0  0  0
   -3.4441   28.6609   68.2537 N   0  0  0  0  0  0  0  0  0  0  0  0
   -0.5222   29.3500   64.3473 O   0  0  0  0  0  0  0  0  0  0  0  0
   -2.7493   30.2899   62.8485 O   0  0  0  0  0  0  0  0  0  0  0  0
  1  2  1  0  0  0  0
  1 12  1  1  0  0  0
  1 13  1  0  0  0  0
  2  3  1  0  0  0  0
  2 10  1  1  0  0  0
  4  3  1  1  0  0  0
  4  5  1  0  0  0  0
  4 14  1  0  0  0  0
  5  6  1  0  0  0  0
  5 13  1  6  0  0  0
  6  7  1  0  0  0  0
  6 15  1  1  0  0  0
  7  8  1  0  0  0  0
  7 11  1  6  0  0  0
  8 14  1  0  0  0  0
  8 16  1  1  0  0  0
  9 11  1  0  0  0  0
 17 16  1  6  0  0  0
 17 18  1  0  0  0  0
 17 24  1  0  0  0  0
 18 19  1  0  0  0  0
 18 25  1  6  0  0  0
 19 20  1  0  0  0  0
 19 26  1  1  0  0  0
 20 21  1  0  0  0  0
 20 23  1  6  0  0  0
 21 22  1  1  0  0  0
 21 24  1  0  0  0  0
 22 27  1  0  0  0  0
 28 12  1  6  0  0  0
 28 29  1  0  0  0  0
 28 33  1  0  0  0  0
 29 30  1  0  0  0  0
 29 36  1  1  0  0  0
 30 31  1  0  0  0  0
 30 37  1  6  0  0  0
 31 32  1  0  0  0  0
 31 34  1  1  0  0  0
 32 33  1  0  0  0  0
 33 35  1  1  0  0  0
M  END
>  <CHROM.1>
-163.13877796,129.16110521,-176.05735969,-51.54095669,170.98066569,171.73603800
1.91601151,26.46185664,64.55677829,3.03174323,0.50531998,-0.91590744

>  <Name>
ligand

>  <RI>
0

>  <Rbt.Current_Directory>
/home/itssahil/PROJECTS/Mol_Feturizer/Test_systems_manuscript/rnas/2g5k

>  <Rbt.Executable>
rbdock ($Id: //depot/dev/client3/rdock/2013.1/src/exe/rbdock.cxx#4 $)

>  <Rbt.Library>
libRbt.so (2013.1, Build901 2013/11/27)

>  <Rbt.Parameter_File>
/export/apps/rDock/src/rDock_2013.1_src/data/scripts/dock_solv.prm

>  <Rbt.Receptor>
prm/pocket_docking_8.prm

>  <SCORE>
-8.3167

>  <SCORE.INTER>
-3.93336

>  <SCORE.INTER.CONST>
1

>  <SCORE.INTER.POLAR>
0

>  <SCORE.INTER.ROT>
6

>  <SCORE.INTER.SOLV>
14.3844

>  <SCORE.INTER.VDW>
-15.017

>  <SCORE.INTER.norm>
-0.106307

>  <SCORE.INTRA>
-4.38334

>  <SCORE.INTRA.DIHEDRAL>
-7.8582

>  <SCORE.INTRA.DIHEDRAL.0>
11.3972

>  <SCORE.INTRA.POLAR>
0

>  <SCORE.INTRA.POLAR.0>
0

>  <SCORE.INTRA.REPUL>
0

>  <SCORE.INTRA.REPUL.0>
0

>  <SCORE.INTRA.SOLV>
-0.530713

>  <SCORE.INTRA.SOLV.lig_0>
-92.3891

>  <SCORE.INTRA.VDW>
-0.188886

>  <SCORE.INTRA.VDW.0>
-2.90606

>  <SCORE.INTRA.norm>
-0.118469

>  <SCORE.RESTR>
0

>  <SCORE.RESTR.CAVITY>
0

>  <SCORE.RESTR.norm>
0

>  <SCORE.SYSTEM>
0

>  <SCORE.SYSTEM.CONST>
0

>  <SCORE.SYSTEM.DIHEDRAL>
0

>  <SCORE.SYSTEM.SOLV>
0

>  <SCORE.SYSTEM.norm>
0

>  <SCORE.heavy>
37

>  <SCORE.norm>
-0.224776

>  <RMSD>
11.462

$$$$
ligand
 OpenBabel02271912133D
libRbt.so/2013.1/901 2013/11/27
 37 40  0  0  0  0  0  0  0  0999 V2000
   -7.8011   22.9603   67.9068 C   0  0  1  0  0  0  0  0  0  0  0  0
   -8.0281   23.7545   69.2245 C   0  0  1  0  0  0  0  0  0  0  0  0
   -7.3370   23.0852   70.4277 C   0  0  0  0  0  0  0  0  0  0  0  0
   -7.8606   21.6212   70.5613 C   0  0  1  0  0  0  0  0  0  0  0  0
   -7.5818   20.8147   69.2516 C   0  0  1  0  0  0  0  0  0  0  0  0
   -8.1263   19.3236   69.4096 C   0  0  1  0  0  0  0  0  0  0  0  0
   -7.4156   18.6519   70.6210 C   0  0  1  0  0  0  0  0  0  0  0  0
   -7.6978   19.5141   71.8882 C   0  0  2  0  0  0  0  0  0  0  0  0
   -9.2976   17.0292   71.3528 C   0  0  0  0  0  0  0  0  0  0  0  0
   -7.5683   25.1516   69.0763 N   0  0  0  0  0  0  0  0  0  0  0  0
   -7.9169   17.2394   70.8119 N   0  0  0  0  0  0  0  0  0  0  0  0
   -6.4322   23.0109   67.4598 O   0  0  0  0  0  0  0  0  0  0  0  0
   -8.2285   21.5539   68.1267 O   0  0  0  0  0  0  0  0  0  0  0  0
   -7.2328   20.8965   71.7147 O   0  0  0  0  0  0  0  0  0  0  0  0
   -9.5236   19.3482   69.6705 O   0  0  0  0  0  0  0  0  0  0  0  0
   -7.0486   18.9456   73.0197 O   0  0  0  0  0  0  0  0  0  0  0  0
   -7.3693   19.5992   74.2724 C   0  0  2  0  0  0  0  0  0  0  0  0
   -6.9562   18.7655   75.5084 C   0  0  1  0  0  0  0  0  0  0  0  0
   -7.8023   17.4550   75.6040 C   0  0  2  0  0  0  0  0  0  0  0  0
   -9.2673   17.8226   75.7241 C   0  0  1  0  0  0  0  0  0  0  0  0
   -9.6881   18.6377   74.4646 C   0  0  1  0  0  0  0  0  0  0  0  0
  -11.1527   19.0678   74.5192 C   0  0  0  0  0  0  0  0  0  0  0  0
  -10.0753   16.5844   75.8378 N   0  0  0  0  0  0  0  0  0  0  0  0
   -8.8370   19.8625   74.3558 O   0  0  0  0  0  0  0  0  0  0  0  0
   -5.5402   18.5000   75.3963 O   0  0  0  0  0  0  0  0  0  0  0  0
   -7.4144   16.7099   76.7605 O   0  0  0  0  0  0  0  0  0  0  0  0
  -11.9741   17.9258   74.4935 O   0  0  0  0  0  0  0  0  0  0  0  0
   -5.8892   24.1115   66.5745 C   0  0  1  0  0  0  0  0  0  0  0  0
   -7.0439   24.6274   65.6727 C   0  0  1  0  0  0  0  0  0  0  0  0
   -6.5266   25.7612   64.7406 C   0  0  2  0  0  0  0  0  0  0  0  0
   -5.9924   26.9277   65.6080 C   0  0  1  0  0  0  0  0  0  0  0  0
   -4.8160   26.4357   66.5252 C   0  0  0  0  0  0  0  0  0  0  0  0
   -5.3481   25.3021   67.4275 C   0  0  2  0  0  0  0  0  0  0  0  0
   -5.5030   28.0177   64.7300 N   0  0  0  0  0  0  0  0  0  0  0  0
   -4.2438   24.8476   68.2795 N   0  0  0  0  0  0  0  0  0  0  0  0
   -7.5451   23.5399   64.8643 O   0  0  0  0  0  0  0  0  0  0  0  0
   -7.6167   26.2181   63.9095 O   0  0  0  0  0  0  0  0  0  0  0  0
  1  2  1  0  0  0  0
  1 12  1  1  0  0  0
  1 13  1  0  0  0  0
  2  3  1  0  0  0  0
  2 10  1  6  0  0  0
  4  3  1  6  0  0  0
  4  5  1  0  0  0  0
  4 14  1  0  0  0  0
  5  6  1  0  0  0  0
  5 13  1  6  0  0  0
  6  7  1  0  0  0  0
  6 15  1  1  0  0  0
  7  8  1  0  0  0  0
  7 11  1  1  0  0  0
  8 14  1  0  0  0  0
  8 16  1  1  0  0  0
  9 11  1  0  0  0  0
 17 16  1  6  0  0  0
 17 18  1  0  0  0  0
 17 24  1  0  0  0  0
 18 19  1  0  0  0  0
 18 25  1  6  0  0  0
 19 20  1  0  0  0  0
 19 26  1  1  0  0  0
 20 21  1  0  0  0  0
 20 23  1  6  0  0  0
 21 22  1  1  0  0  0
 21 24  1  0  0  0  0
 22 27  1  0  0  0  0
 28 12  1  1  0  0  0
 28 29  1  0  0  0  0
 28 33  1  0  0  0  0
 29 30  1  0  0  0  0
 29 36  1  6  0  0  0
 30 31  1  0  0  0  0
 30 37  1  1  0  0  0
 31 32  1  0  0  0  0
 31 34  1  6  0  0  0
 32 33  1  0  0  0  0
 33 35  1  1  0  0  0
M  END
>  <CHROM.1>
-87.51470755,-72.37615183,-173.80421436,-30.13971785,165.33934508,-64.45081331
-7.63635262,21.29611456,70.45318032,1.30701905,-0.70632458,-1.03326588

>  <Name>
ligand

>  <RI>
0

>  <Rbt.Current_Directory>
/home/itssahil/PROJECTS/Mol_Feturizer/Test_systems_manuscript/rnas/2g5k

>  <Rbt.Executable>
rbdock ($Id: //depot/dev/client3/rdock/2013.1/src/exe/rbdock.cxx#4 $)

>  <Rbt.Library>
libRbt.so (2013.1, Build901 2013/11/27)

>  <Rbt.Parameter_File>
/export/apps/rDock/src/rDock_2013.1_src/data/scripts/dock_solv.prm

>  <Rbt.Receptor>
prm/blind_docking_80.prm

>  <SCORE>
-3.37654

>  <SCORE.INTER>
-12.3002

>  <SCORE.INTER.CONST>
1

>  <SCORE.INTER.POLAR>
0

>  <SCORE.INTER.ROT>
6

>  <SCORE.INTER.SOLV>
23.3202

>  <SCORE.INTER.VDW>
-23.5735

>  <SCORE.INTER.norm>
-0.332437

>  <SCORE.INTRA>
2.91382

>  <SCORE.INTRA.DIHEDRAL>
-3.27346

>  <SCORE.INTRA.DIHEDRAL.0>
11.3972

>  <SCORE.INTRA.POLAR>
0

>  <SCORE.INTRA.POLAR.0>
0

>  <SCORE.INTRA.REPUL>
0

>  <SCORE.INTRA.REPUL.0>
0

>  <SCORE.INTRA.SOLV>
4.81463

>  <SCORE.INTRA.SOLV.lig_0>
-92.3891

>  <SCORE.INTRA.VDW>
2.14323

>  <SCORE.INTRA.VDW.0>
-2.90606

>  <SCORE.INTRA.norm>
0.0787518

>  <SCORE.RESTR>
6.0098

>  <SCORE.RESTR.CAVITY>
6.0098

>  <SCORE.RESTR.norm>
0.162427

>  <SCORE.SYSTEM>
0

>  <SCORE.SYSTEM.CONST>
0

>  <SCORE.SYSTEM.DIHEDRAL>
0

>  <SCORE.SYSTEM.SOLV>
0

>  <SCORE.SYSTEM.norm>
0

>  <SCORE.heavy>
37

>  <SCORE.norm>
-0.0912578

>  <RMSD>
11.466

$$$$
ligand
 OpenBabel02271912133D
libRbt.so/2013.1/901 2013/11/27
 37 40  0  0  0  0  0  0  0  0999 V2000
   -8.0666   23.0820   68.5999 C   0  0  1  0  0  0  0  0  0  0  0  0
   -8.3388   23.7318   69.9863 C   0  0  1  0  0  0  0  0  0  0  0  0
   -7.5922   23.0047   71.1209 C   0  0  0  0  0  0  0  0  0  0  0  0
   -8.0094   21.5009   71.1180 C   0  0  1  0  0  0  0  0  0  0  0  0
   -7.6847   20.8417   69.7383 C   0  0  1  0  0  0  0  0  0  0  0  0
   -8.1207   19.3073   69.7571 C   0  0  1  0  0  0  0  0  0  0  0  0
   -7.3543   18.5783   70.8995 C   0  0  1  0  0  0  0  0  0  0  0  0
   -7.6867   19.2965   72.2421 C   0  0  2  0  0  0  0  0  0  0  0  0
   -9.1514   16.7708   71.3619 C   0  0  0  0  0  0  0  0  0  0  0  0
   -7.9805   25.1659   69.9686 N   0  0  0  0  0  0  0  0  0  0  0  0
   -7.7525   17.1220   70.9585 N   0  0  0  0  0  0  0  0  0  0  0  0
   -6.7083   23.2715   68.1577 O   0  0  0  0  0  0  0  0  0  0  0  0
   -8.3913   21.6342   68.6882 O   0  0  0  0  0  0  0  0  0  0  0  0
   -7.3225   20.7187   72.1977 O   0  0  0  0  0  0  0  0  0  0  0  0
   -9.5141   19.2076   70.0212 O   0  0  0  0  0  0  0  0  0  0  0  0
   -6.9898   18.6731   73.3147 O   0  0  0  0  0  0  0  0  0  0  0  0
   -7.0350   19.4168   74.5573 C   0  0  2  0  0  0  0  0  0  0  0  0
   -7.0845   18.5018   75.8039 C   0  0  1  0  0  0  0  0  0  0  0  0
   -8.4282   17.7057   75.8570 C   0  0  2  0  0  0  0  0  0  0  0  0
   -9.5803   18.6879   75.9198 C   0  0  1  0  0  0  0  0  0  0  0  0
   -9.5449   19.5892   74.6493 C   0  0  1  0  0  0  0  0  0  0  0  0
  -10.6663   20.6264   74.6470 C   0  0  0  0  0  0  0  0  0  0  0  0
  -10.8585   17.9397   75.9929 N   0  0  0  0  0  0  0  0  0  0  0  0
   -8.2344   20.3063   74.5826 O   0  0  0  0  0  0  0  0  0  0  0  0
   -5.9313   17.6330   75.7477 O   0  0  0  0  0  0  0  0  0  0  0  0
   -8.4579   16.8803   77.0237 O   0  0  0  0  0  0  0  0  0  0  0  0
  -10.4992   21.4898   73.5489 O   0  0  0  0  0  0  0  0  0  0  0  0
   -6.3486   23.7724   66.7758 C   0  0  1  0  0  0  0  0  0  0  0  0
   -7.5204   23.4348   65.8135 C   0  0  1  0  0  0  0  0  0  0  0  0
   -7.1894   23.9306   64.3760 C   0  0  2  0  0  0  0  0  0  0  0  0
   -6.9741   25.4639   64.4045 C   0  0  1  0  0  0  0  0  0  0  0  0
   -5.7874   25.8339   65.3647 C   0  0  0  0  0  0  0  0  0  0  0  0
   -6.1307   25.3184   66.7785 C   0  0  2  0  0  0  0  0  0  0  0  0
   -6.6649   25.9490   63.0379 N   0  0  0  0  0  0  0  0  0  0  0  0
   -5.0176   25.6665   67.6683 N   0  0  0  0  0  0  0  0  0  0  0  0
   -7.7242   22.0047   65.7873 O   0  0  0  0  0  0  0  0  0  0  0  0
   -8.2907   23.5992   63.5012 O   0  0  0  0  0  0  0  0  0  0  0  0
  1  2  1  0  0  0  0
  1 12  1  1  0  0  0
  1 13  1  0  0  0  0
  2  3  1  0  0  0  0
  2 10  1  6  0  0  0
  4  3  1  6  0  0  0
  4  5  1  0  0  0  0
  4 14  1  0  0  0  0
  5  6  1  0  0  0  0
  5 13  1  6  0  0  0
  6  7  1  0  0  0  0
  6 15  1  1  0  0  0
  7  8  1  0  0  0  0
  7 11  1  1  0  0  0
  8 14  1  0  0  0  0
  8 16  1  1  0  0  0
  9 11  1  0  0  0  0
 17 16  1  6  0  0  0
 17 18  1  0  0  0  0
 17 24  1  0  0  0  0
 18 19  1  0  0  0  0
 18 25  1  6  0  0  0
 19 20  1  0  0  0  0
 19 26  1  1  0  0  0
 20 21  1  0  0  0  0
 20 23  1  6  0  0  0
 21 22  1  1  0  0  0
 21 24  1  0  0  0  0
 22 27  1  0  0  0  0
 28 12  1  1  0  0  0
 28 29  1  0  0  0  0
 28 33  1  0  0  0  0
 29 30  1  0  0  0  0
 29 36  1  6  0  0  0
 30 31  1  0  0  0  0
 30 37  1  6  0  0  0
 31 32  1  0  0  0  0
 31 34  1  6  0  0  0
 32 33  1  0  0  0  0
 33 35  1  1  0  0  0
M  END
>  <CHROM.1>
-131.03609229,-66.93453845,169.04809957,-24.64682175,145.38589245,174.12270301
-7.86837578,21.19224022,70.57006564,-0.68631586,1.38990337,1.27172543

>  <Name>
ligand

>  <RI>
0

>  <Rbt.Current_Directory>
/home/itssahil/PROJECTS/Mol_Feturizer/Test_systems_manuscript/rnas/2g5k

>  <Rbt.Executable>
rbdock ($Id: //depot/dev/client3/rdock/2013.1/src/exe/rbdock.cxx#4 $)

>  <Rbt.Library>
libRbt.so (2013.1, Build901 2013/11/27)

>  <Rbt.Parameter_File>
/export/apps/rDock/src/rDock_2013.1_src/data/scripts/dock_solv.prm

>  <Rbt.Receptor>
prm/blind_docking_80.prm

>  <SCORE>
2.19341

>  <SCORE.INTER>
-9.53269

>  <SCORE.INTER.CONST>
1

>  <SCORE.INTER.POLAR>
0

>  <SCORE.INTER.ROT>
6

>  <SCORE.INTER.SOLV>
28.9805

>  <SCORE.INTER.VDW>
-23.6153

>  <SCORE.INTER.norm>
-0.25764

>  <SCORE.INTRA>
6.18712

>  <SCORE.INTRA.DIHEDRAL>
5.02729

>  <SCORE.INTRA.DIHEDRAL.0>
11.3972

>  <SCORE.INTRA.POLAR>
0

>  <SCORE.INTRA.POLAR.0>
0

>  <SCORE.INTRA.REPUL>
0

>  <SCORE.INTRA.REPUL.0>
0

>  <SCORE.INTRA.SOLV>
0.967758

>  <SCORE.INTRA.SOLV.lig_0>
-92.3891

>  <SCORE.INTRA.VDW>
3.1896

>  <SCORE.INTRA.VDW.0>
-2.90606

>  <SCORE.INTRA.norm>
0.167219

>  <SCORE.RESTR>
5.53898

>  <SCORE.RESTR.CAVITY>
5.53898

>  <SCORE.RESTR.norm>
0.149702

>  <SCORE.SYSTEM>
0

>  <SCORE.SYSTEM.CONST>
0

>  <SCORE.SYSTEM.DIHEDRAL>
0

>  <SCORE.SYSTEM.SOLV>
0

>  <SCORE.SYSTEM.norm>
0

>  <SCORE.heavy>
37

>  <SCORE.norm>
0.0592815

>  <RMSD>
11.469

$$$$
ligand
 OpenBabel02271912133D
libRbt.so/2013.1/901 2013/11/27
 37 40  0  0  0  0  0  0  0  0999 V2000
   -8.0728   23.1332   68.5953 C   0  0  1  0  0  0  0  0  0  0  0  0
   -8.3786   23.7716   69.9800 C   0  0  1  0  0  0  0  0  0  0  0  0
   -7.6487   23.0435   71.1248 C   0  0  0  0  0  0  0  0  0  0  0  0
   -8.0525   21.5363   71.1040 C   0  0  1  0  0  0  0  0  0  0  0  0
   -7.6943   20.8889   69.7270 C   0  0  1  0  0  0  0  0  0  0  0  0
   -8.1171   19.3507   69.7273 C   0  0  1  0  0  0  0  0  0  0  0  0
   -7.3675   18.6210   70.8803 C   0  0  1  0  0  0  0  0  0  0  0  0
   -7.7333   19.3275   72.2203 C   0  0  2  0  0  0  0  0  0  0  0  0
   -9.1446   16.7928   71.3389 C   0  0  0  0  0  0  0  0  0  0  0  0
   -8.0327   25.2088   69.9787 N   0  0  0  0  0  0  0  0  0  0  0  0
   -7.7540   17.1609   70.9219 N   0  0  0  0  0  0  0  0  0  0  0  0
   -6.7077   23.3373   68.1819 O   0  0  0  0  0  0  0  0  0  0  0  0
   -8.3865   21.6821   68.6679 O   0  0  0  0  0  0  0  0  0  0  0  0
   -7.3807   20.7531   72.1924 O   0  0  0  0  0  0  0  0  0  0  0  0
   -9.5146   19.2373   69.9624 O   0  0  0  0  0  0  0  0  0  0  0  0
   -7.0526   18.7031   73.3029 O   0  0  0  0  0  0  0  0  0  0  0  0
   -7.0907   19.4604   74.5375 C   0  0  2  0  0  0  0  0  0  0  0  0
   -7.0352   18.5619   75.7957 C   0  0  1  0  0  0  0  0  0  0  0  0
   -8.3265   17.6895   75.9140 C   0  0  2  0  0  0  0  0  0  0  0  0
   -9.5309   18.6036   76.0132 C   0  0  1  0  0  0  0  0  0  0  0  0
   -9.6006   19.4874   74.7318 C   0  0  1  0  0  0  0  0  0  0  0  0
  -10.7802   20.4572   74.7641 C   0  0  0  0  0  0  0  0  0  0  0  0
  -10.7587   17.7832   76.1483 N   0  0  0  0  0  0  0  0  0  0  0  0
   -8.3383   20.2787   74.6022 O   0  0  0  0  0  0  0  0  0  0  0  0
   -5.8361   17.7611   75.7017 O   0  0  0  0  0  0  0  0  0  0  0  0
   -8.2597   16.8805   77.0905 O   0  0  0  0  0  0  0  0  0  0  0  0
  -10.4791   21.5275   75.6262 O   0  0  0  0  0  0  0  0  0  0  0  0
   -6.3224   23.8025   66.7944 C   0  0  1  0  0  0  0  0  0  0  0  0
   -7.4866   23.4617   65.8241 C   0  0  1  0  0  0  0  0  0  0  0  0
   -7.1294   23.9210   64.3807 C   0  0  2  0  0  0  0  0  0  0  0  0
   -6.8910   25.4512   64.3790 C   0  0  1  0  0  0  0  0  0  0  0  0
   -5.7113   25.8241   65.3466 C   0  0  0  0  0  0  0  0  0  0  0  0
   -6.0808   25.3448   66.7666 C   0  0  2  0  0  0  0  0  0  0  0  0
   -6.5567   25.9016   63.0065 N   0  0  0  0  0  0  0  0  0  0  0  0
   -4.9742   25.6954   67.6634 N   0  0  0  0  0  0  0  0  0  0  0  0
   -7.7119   22.0346   65.8261 O   0  0  0  0  0  0  0  0  0  0  0  0
   -8.2241   23.5871   63.4987 O   0  0  0  0  0  0  0  0  0  0  0  0
  1  2  1  0  0  0  0
  1 12  1  1  0  0  0
  1 13  1  0  0  0  0
  2  3  1  0  0  0  0
  2 10  1  6  0  0  0
  4  3  1  6  0  0  0
  4  5  1  0  0  0  0
  4 14  1  0  0  0  0
  5  6  1  0  0  0  0
  5 13  1  6  0  0  0
  6  7  1  0  0  0  0
  6 15  1  1  0  0  0
  7  8  1  0  0  0  0
  7 11  1  1  0  0  0
  8 14  1  0  0  0  0
  8 16  1  1  0  0  0
  9 11  1  0  0  0  0
 17 16  1  6  0  0  0
 17 18  1  0  0  0  0
 17 24  1  0  0  0  0
 18 19  1  0  0  0  0
 18 25  1  6  0  0  0
 19 20  1  0  0  0  0
 19 26  1  1  0  0  0
 20 21  1  0  0  0  0
 20 23  1  6  0  0  0
 21 22  1  1  0  0  0
 21 24  1  0  0  0  0
 22 27  1  0  0  0  0
 28 12  1  1  0  0  0
 28 29  1  0  0  0  0
 28 33  1  0  0  0  0
 29 30  1  0  0  0  0
 29 36  1  6  0  0  0
 30 31  1  0  0  0  0
 30 37  1  6  0  0  0
 31 32  1  0  0  0  0
 31 34  1  6  0  0  0
 32 33  1  0  0  0  0
 33 35  1  1  0  0  0
M  END
>  <CHROM.1>
-133.32563858,-68.95016090,167.05482384,-22.40749893,150.49969709,76.31880463
-7.85553179,21.20402795,70.64048261,-0.31781106,1.41647177,0.88442673

>  <Name>
ligand

>  <RI>
0

>  <Rbt.Current_Directory>
/home/itssahil/PROJECTS/Mol_Feturizer/Test_systems_manuscript/rnas/2g5k

>  <Rbt.Executable>
rbdock ($Id: //depot/dev/client3/rdock/2013.1/src/exe/rbdock.cxx#4 $)

>  <Rbt.Library>
libRbt.so (2013.1, Build901 2013/11/27)

>  <Rbt.Parameter_File>
/export/apps/rDock/src/rDock_2013.1_src/data/scripts/dock_solv.prm

>  <Rbt.Receptor>
prm/blind_docking_80.prm

>  <SCORE>
2.0356

>  <SCORE.INTER>
-10.5008

>  <SCORE.INTER.CONST>
1

>  <SCORE.INTER.POLAR>
0

>  <SCORE.INTER.ROT>
6

>  <SCORE.INTER.SOLV>
29.266

>  <SCORE.INTER.VDW>
-24.3559

>  <SCORE.INTER.norm>
-0.283805

>  <SCORE.INTRA>
6.43037

>  <SCORE.INTRA.DIHEDRAL>
5.24729

>  <SCORE.INTRA.DIHEDRAL.0>
11.3972

>  <SCORE.INTRA.POLAR>
0

>  <SCORE.INTRA.POLAR.0>
0

>  <SCORE.INTRA.REPUL>
0

>  <SCORE.INTRA.REPUL.0>
0

>  <SCORE.INTRA.SOLV>
0.777937

>  <SCORE.INTRA.SOLV.lig_0>
-92.3891

>  <SCORE.INTRA.VDW>
3.41775

>  <SCORE.INTRA.VDW.0>
-2.90606

>  <SCORE.INTRA.norm>
0.173794

>  <SCORE.RESTR>
6.10603

>  <SCORE.RESTR.CAVITY>
6.10603

>  <SCORE.RESTR.norm>
0.165028

>  <SCORE.SYSTEM>
0

>  <SCORE.SYSTEM.CONST>
0

>  <SCORE.SYSTEM.DIHEDRAL>
0

>  <SCORE.SYSTEM.SOLV>
0

>  <SCORE.SYSTEM.norm>
0

>  <SCORE.heavy>
37

>  <SCORE.norm>
0.0550162

>  <RMSD>
11.497

$$$$
ligand
 OpenBabel02271912133D
libRbt.so/2013.1/901 2013/11/27
 37 40  0  0  0  0  0  0  0  0999 V2000
    0.1031   27.2970   67.0972 C   0  0  1  0  0  0  0  0  0  0  0  0
    0.1203   25.7439   67.0180 C   0  0  1  0  0  0  0  0  0  0  0  0
    1.5540   25.1863   66.9349 C   0  0  0  0  0  0  0  0  0  0  0  0
    2.2703   25.8158   65.6997 C   0  0  1  0  0  0  0  0  0  0  0  0
    2.2948   27.3748   65.8123 C   0  0  1  0  0  0  0  0  0  0  0  0
    3.0290   27.9965   64.5399 C   0  0  1  0  0  0  0  0  0  0  0  0
    4.4796   27.4357   64.4694 C   0  0  1  0  0  0  0  0  0  0  0  0
    4.3957   25.8814   64.3938 C   0  0  2  0  0  0  0  0  0  0  0  0
    4.8308   27.4943   61.9036 C   0  0  0  0  0  0  0  0  0  0  0  0
   -0.5965   25.1558   68.1694 N   0  0  0  0  0  0  0  0  0  0  0  0
    5.2041   27.9920   63.2659 N   0  0  0  0  0  0  0  0  0  0  0  0
    0.6294   27.7928   68.3435 O   0  0  0  0  0  0  0  0  0  0  0  0
    0.8806   27.8341   65.9499 O   0  0  0  0  0  0  0  0  0  0  0  0
    3.6787   25.3230   65.5476 O   0  0  0  0  0  0  0  0  0  0  0  0
    2.3443   27.6112   63.3550 O   0  0  0  0  0  0  0  0  0  0  0  0
    5.7041   25.3237   64.3473 O   0  0  0  0  0  0  0  0  0  0  0  0
    5.7257   23.8756   64.3058 C   0  0  2  0  0  0  0  0  0  0  0  0
    7.1576   23.2984   64.2058 C   0  0  1  0  0  0  0  0  0  0  0  0
    7.8127   23.6688   62.8362 C   0  0  2  0  0  0  0  0  0  0  0  0
    6.9698   23.0942   61.7158 C   0  0  1  0  0  0  0  0  0  0  0  0
    5.5363   23.6988   61.8016 C   0  0  1  0  0  0  0  0  0  0  0  0
    4.6136   23.1505   60.7148 C   0  0  0  0  0  0  0  0  0  0  0  0
    7.5971   23.4225   60.4129 N   0  0  0  0  0  0  0  0  0  0  0  0
    4.9400   23.3815   63.1357 O   0  0  0  0  0  0  0  0  0  0  0  0
    7.9078   23.8077   65.3309 O   0  0  0  0  0  0  0  0  0  0  0  0
    9.1272   23.1124   62.7604 O   0  0  0  0  0  0  0  0  0  0  0  0
    3.3807   23.8262   60.7668 O   0  0  0  0  0  0  0  0  0  0  0  0
    0.7287   29.2662   68.6739 C   0  0  1  0  0  0  0  0  0  0  0  0
    1.8337   29.8937   67.7806 C   0  0  1  0  0  0  0  0  0  0  0  0
    1.9721   31.4123   68.0915 C   0  0  2  0  0  0  0  0  0  0  0  0
    0.6215   32.1143   67.8065 C   0  0  1  0  0  0  0  0  0  0  0  0
   -0.5143   31.5046   68.7040 C   0  0  0  0  0  0  0  0  0  0  0  0
   -0.6215   29.9971   68.3901 C   0  0  2  0  0  0  0  0  0  0  0  0
    0.7435   33.5640   68.0926 N   0  0  0  0  0  0  0  0  0  0  0  0
   -1.6828   29.4352   69.2327 N   0  0  0  0  0  0  0  0  0  0  0  0
    3.0942   29.2384   68.0436 O   0  0  0  0  0  0  0  0  0  0  0  0
    3.0089   31.9693   67.2532 O   0  0  0  0  0  0  0  0  0  0  0  0
  1  2  1  0  0  0  0
  1 12  1  1  0  0  0
  1 13  1  0  0  0  0
  2  3  1  0  0  0  0
  2 10  1  1  0  0  0
  4  3  1  1  0  0  0
  4  5  1  0  0  0  0
  4 14  1  0  0  0  0
  5  6  1  0  0  0  0
  5 13  1  6  0  0  0
  6  7  1  0  0  0  0
  6 15  1  6  0  0  0
  7  8  1  0  0  0  0
  7 11  1  6  0  0  0
  8 14  1  0  0  0  0
  8 16  1  1  0  0  0
  9 11  1  0  0  0  0
 17 16  1  6  0  0  0
 17 18  1  0  0  0  0
 17 24  1  0  0  0  0
 18 19  1  0  0  0  0
 18 25  1  1  0  0  0
 19 20  1  0  0  0  0
 19 26  1  1  0  0  0
 20 21  1  0  0  0  0
 20 23  1  6  0  0  0
 21 22  1  6  0  0  0
 21 24  1  0  0  0  0
 22 27  1  0  0  0  0
 28 12  1  6  0  0  0
 28 29  1  0  0  0  0
 28 33  1  0  0  0  0
 29 30  1  0  0  0  0
 29 36  1  1  0  0  0
 30 31  1  0  0  0  0
 30 37  1  6  0  0  0
 31 32  1  0  0  0  0
 31 34  1  1  0  0  0
 32 33  1  0  0  0  0
 33 35  1  1  0  0  0
M  END
>  <CHROM.1>
179.81684580,-72.95797624,178.68644889,-70.05655572,177.99181462,-174.42719739
3.30517159,26.83969340,65.29308387,2.32432575,0.57210517,0.25323586

>  <Name>
ligand

>  <RI>
0

>  <Rbt.Current_Directory>
/home/itssahil/PROJECTS/Mol_Feturizer/Test_systems_manuscript/rnas/2g5k

>  <Rbt.Executable>
rbdock ($Id: //depot/dev/client3/rdock/2013.1/src/exe/rbdock.cxx#4 $)

>  <Rbt.Library>
libRbt.so (2013.1, Build901 2013/11/27)

>  <Rbt.Parameter_File>
/export/apps/rDock/src/rDock_2013.1_src/data/scripts/dock_solv.prm

>  <Rbt.Receptor>
prm/pocket_docking_8.prm

>  <SCORE>
-7.23041

>  <SCORE.INTER>
-2.68122

>  <SCORE.INTER.CONST>
1

>  <SCORE.INTER.POLAR>
0

>  <SCORE.INTER.ROT>
6

>  <SCORE.INTER.SOLV>
10.6953

>  <SCORE.INTER.VDW>
-12.9526

>  <SCORE.INTER.norm>
-0.0724655

>  <SCORE.INTRA>
-4.54919

>  <SCORE.INTRA.DIHEDRAL>
-10.5967

>  <SCORE.INTRA.DIHEDRAL.0>
11.3972

>  <SCORE.INTRA.POLAR>
0

>  <SCORE.INTRA.POLAR.0>
0

>  <SCORE.INTRA.REPUL>
0

>  <SCORE.INTRA.REPUL.0>
0

>  <SCORE.INTRA.SOLV>
-0.642468

>  <SCORE.INTRA.SOLV.lig_0>
-92.3891

>  <SCORE.INTRA.VDW>
1.07041

>  <SCORE.INTRA.VDW.0>
-2.90606

>  <SCORE.INTRA.norm>
-0.122951

>  <SCORE.RESTR>
0

>  <SCORE.RESTR.CAVITY>
0

>  <SCORE.RESTR.norm>
0

>  <SCORE.SYSTEM>
0

>  <SCORE.SYSTEM.CONST>
0

>  <SCORE.SYSTEM.DIHEDRAL>
0

>  <SCORE.SYSTEM.SOLV>
0

>  <SCORE.SYSTEM.norm>
0

>  <SCORE.heavy>
37

>  <SCORE.norm>
-0.195417

>  <RMSD>
11.527

$$$$
ligand
 OpenBabel02271912133D
libRbt.so/2013.1/901 2013/11/27
 37 40  0  0  0  0  0  0  0  0999 V2000
    0.0917   30.7839   64.9431 C   0  0  1  0  0  0  0  0  0  0  0  0
   -0.4011   29.3726   65.3717 C   0  0  1  0  0  0  0  0  0  0  0  0
    0.7697   28.3990   65.6056 C   0  0  0  0  0  0  0  0  0  0  0  0
    1.6281   28.3190   64.3048 C   0  0  1  0  0  0  0  0  0  0  0  0
    2.1629   29.7337   63.9096 C   0  0  1  0  0  0  0  0  0  0  0  0
    3.0348   29.6287   62.5779 C   0  0  1  0  0  0  0  0  0  0  0  0
    4.2208   28.6513   62.8263 C   0  0  1  0  0  0  0  0  0  0  0  0
    3.6321   27.2717   63.2493 C   0  0  2  0  0  0  0  0  0  0  0  0
    5.9970   29.6263   61.2124 C   0  0  0  0  0  0  0  0  0  0  0  0
   -1.2480   29.4614   66.5801 N   0  0  0  0  0  0  0  0  0  0  0  0
    5.0635   28.5143   61.5797 N   0  0  0  0  0  0  0  0  0  0  0  0
    0.7755   31.4768   66.0054 O   0  0  0  0  0  0  0  0  0  0  0  0
    0.9793   30.6321   63.7606 O   0  0  0  0  0  0  0  0  0  0  0  0
    2.7948   27.3878   64.4504 O   0  0  0  0  0  0  0  0  0  0  0  0
    2.2386   29.1043   61.5232 O   0  0  0  0  0  0  0  0  0  0  0  0
    4.6852   26.3497   63.5061 O   0  0  0  0  0  0  0  0  0  0  0  0
    4.2332   24.9999   63.7757 C   0  0  2  0  0  0  0  0  0  0  0  0
    5.3710   24.0707   64.2610 C   0  0  1  0  0  0  0  0  0  0  0  0
    6.4209   23.8374   63.1271 C   0  0  2  0  0  0  0  0  0  0  0  0
    5.7305   23.1943   61.9415 C   0  0  1  0  0  0  0  0  0  0  0  0
    4.6038   24.1449   61.4370 C   0  0  1  0  0  0  0  0  0  0  0  0
    3.8413   23.5566   60.2514 C   0  0  0  0  0  0  0  0  0  0  0  0
    6.7250   22.9492   60.8692 N   0  0  0  0  0  0  0  0  0  0  0  0
    3.6337   24.4014   62.5457 O   0  0  0  0  0  0  0  0  0  0  0  0
    5.9540   24.6789   65.4349 O   0  0  0  0  0  0  0  0  0  0  0  0
    7.4527   22.9647   63.5928 O   0  0  0  0  0  0  0  0  0  0  0  0
    4.7080   23.4482   59.1484 O   0  0  0  0  0  0  0  0  0  0  0  0
    0.0562   32.1461   67.1564 C   0  0  1  0  0  0  0  0  0  0  0  0
    1.1195   32.6466   68.1721 C   0  0  1  0  0  0  0  0  0  0  0  0
    0.4206   33.3401   69.3773 C   0  0  2  0  0  0  0  0  0  0  0  0
   -0.4040   34.5453   68.8616 C   0  0  1  0  0  0  0  0  0  0  0  0
   -1.4945   34.0664   67.8375 C   0  0  0  0  0  0  0  0  0  0  0  0
   -0.7795   33.3684   66.6610 C   0  0  2  0  0  0  0  0  0  0  0  0
   -1.0692   35.2186   70.0028 N   0  0  0  0  0  0  0  0  0  0  0  0
   -1.8043   32.9232   65.7104 N   0  0  0  0  0  0  0  0  0  0  0  0
    1.8912   31.5238   68.6527 O   0  0  0  0  0  0  0  0  0  0  0  0
    1.4298   33.7899   70.3084 O   0  0  0  0  0  0  0  0  0  0  0  0
  1  2  1  0  0  0  0
  1 12  1  1  0  0  0
  1 13  1  0  0  0  0
  2  3  1  0  0  0  0
  2 10  1  1  0  0  0
  4  3  1  1  0  0  0
  4  5  1  0  0  0  0
  4 14  1  0  0  0  0
  5  6  1  0  0  0  0
  5 13  1  6  0  0  0
  6  7  1  0  0  0  0
  6 15  1  6  0  0  0
  7  8  1  0  0  0  0
  7 11  1  6  0  0  0
  8 14  1  0  0  0  0
  8 16  1  1  0  0  0
  9 11  1  0  0  0  0
 17 16  1  6  0  0  0
 17 18  1  0  0  0  0
 17 24  1  0  0  0  0
 18 19  1  0  0  0  0
 18 25  1  1  0  0  0
 19 20  1  0  0  0  0
 19 26  1  1  0  0  0
 20 21  1  0  0  0  0
 20 23  1  6  0  0  0
 21 22  1  6  0  0  0
 21 24  1  0  0  0  0
 22 27  1  0  0  0  0
 28 12  1  6  0  0  0
 28 29  1  0  0  0  0
 28 33  1  0  0  0  0
 29 30  1  0  0  0  0
 29 36  1  1  0  0  0
 30 31  1  0  0  0  0
 30 37  1  1  0  0  0
 31 32  1  0  0  0  0
 31 34  1  1  0  0  0
 32 33  1  0  0  0  0
 33 35  1  6  0  0  0
M  END
>  <CHROM.1>
-77.36036408,75.92476153,-174.09963342,173.88047822,-171.24626234,-65.43355355
2.59607801,28.62331833,64.58877830,2.38394978,-0.87501595,1.27777460

>  <Name>
ligand

>  <RI>
0

>  <Rbt.Current_Directory>
/home/itssahil/PROJECTS/Mol_Feturizer/Test_systems_manuscript/rnas/2g5k

>  <Rbt.Executable>
rbdock ($Id: //depot/dev/client3/rdock/2013.1/src/exe/rbdock.cxx#4 $)

>  <Rbt.Library>
libRbt.so (2013.1, Build901 2013/11/27)

>  <Rbt.Parameter_File>
/export/apps/rDock/src/rDock_2013.1_src/data/scripts/dock_solv.prm

>  <Rbt.Receptor>
prm/pocket_docking_8.prm

>  <SCORE>
-7.21119

>  <SCORE.INTER>
-4.40924

>  <SCORE.INTER.CONST>
1

>  <SCORE.INTER.POLAR>
0

>  <SCORE.INTER.ROT>
6

>  <SCORE.INTER.SOLV>
12.1453

>  <SCORE.INTER.VDW>
-14.5879

>  <SCORE.INTER.norm>
-0.119169

>  <SCORE.INTRA>
-2.80195

>  <SCORE.INTRA.DIHEDRAL>
-8.94957

>  <SCORE.INTRA.DIHEDRAL.0>
11.3972

>  <SCORE.INTRA.POLAR>
0

>  <SCORE.INTRA.POLAR.0>
0

>  <SCORE.INTRA.REPUL>
0

>  <SCORE.INTRA.REPUL.0>
0

>  <SCORE.INTRA.SOLV>
2.55548

>  <SCORE.INTRA.SOLV.lig_0>
-92.3891

>  <SCORE.INTRA.VDW>
0.395099

>  <SCORE.INTRA.VDW.0>
-2.90606

>  <SCORE.INTRA.norm>
-0.0757283

>  <SCORE.RESTR>
0

>  <SCORE.RESTR.CAVITY>
0

>  <SCORE.RESTR.norm>
0

>  <SCORE.SYSTEM>
0

>  <SCORE.SYSTEM.CONST>
0

>  <SCORE.SYSTEM.DIHEDRAL>
0

>  <SCORE.SYSTEM.SOLV>
0

>  <SCORE.SYSTEM.norm>
0

>  <SCORE.heavy>
37

>  <SCORE.norm>
-0.194897

>  <RMSD>
11.624

$$$$
ligand
 OpenBabel02271912133D
libRbt.so/2013.1/901 2013/11/27
 37 40  0  0  0  0  0  0  0  0999 V2000
    0.3612   29.6196   63.9169 C   0  0  1  0  0  0  0  0  0  0  0  0
   -0.4530   28.3684   63.4808 C   0  0  1  0  0  0  0  0  0  0  0  0
    0.3609   27.0691   63.6318 C   0  0  0  0  0  0  0  0  0  0  0  0
    1.6755   27.1967   62.8008 C   0  0  1  0  0  0  0  0  0  0  0  0
    2.5133   28.4263   63.2802 C   0  0  1  0  0  0  0  0  0  0  0  0
    3.8500   28.5386   62.4169 C   0  0  1  0  0  0  0  0  0  0  0  0
    4.6706   27.2261   62.5833 C   0  0  1  0  0  0  0  0  0  0  0  0
    3.7775   26.0341   62.1248 C   0  0  2  0  0  0  0  0  0  0  0  0
    7.2082   27.7251   62.4343 C   0  0  0  0  0  0  0  0  0  0  0  0
   -1.7165   28.2777   64.2428 N   0  0  0  0  0  0  0  0  0  0  0  0
    5.9404   27.2889   61.7669 N   0  0  0  0  0  0  0  0  0  0  0  0
    0.6083   29.6511   65.3362 O   0  0  0  0  0  0  0  0  0  0  0  0
    1.6415   29.6330   63.1620 O   0  0  0  0  0  0  0  0  0  0  0  0
    2.5293   25.9672   62.8960 O   0  0  0  0  0  0  0  0  0  0  0  0
    3.5219   28.6876   61.0417 O   0  0  0  0  0  0  0  0  0  0  0  0
    4.4833   24.8081   62.2786 O   0  0  0  0  0  0  0  0  0  0  0  0
    3.7286   23.6395   61.8737 C   0  0  2  0  0  0  0  0  0  0  0  0
    4.3061   22.3231   62.4457 C   0  0  1  0  0  0  0  0  0  0  0  0
    5.7141   22.0225   61.8380 C   0  0  2  0  0  0  0  0  0  0  0  0
    5.5835   21.8916   60.3341 C   0  0  1  0  0  0  0  0  0  0  0  0
    5.0287   23.2285   59.7574 C   0  0  1  0  0  0  0  0  0  0  0  0
    4.8459   23.1707   58.2419 C   0  0  0  0  0  0  0  0  0  0  0  0
    6.9122   21.5842   59.7519 N   0  0  0  0  0  0  0  0  0  0  0  0
    3.7053   23.5312   60.3843 O   0  0  0  0  0  0  0  0  0  0  0  0
    4.3441   22.4574   63.8839 O   0  0  0  0  0  0  0  0  0  0  0  0
    6.2201   20.7955   62.3685 O   0  0  0  0  0  0  0  0  0  0  0  0
    6.1045   23.0443   57.6261 O   0  0  0  0  0  0  0  0  0  0  0  0
    1.3333   30.7860   66.0264 C   0  0  1  0  0  0  0  0  0  0  0  0
    0.4282   32.0473   65.9743 C   0  0  1  0  0  0  0  0  0  0  0  0
    1.1393   33.2430   66.6718 C   0  0  2  0  0  0  0  0  0  0  0  0
    1.4216   32.8744   68.1492 C   0  0  1  0  0  0  0  0  0  0  0  0
    2.3435   31.6054   68.2319 C   0  0  0  0  0  0  0  0  0  0  0  0
    1.6254   30.4389   67.5204 C   0  0  2  0  0  0  0  0  0  0  0  0
    2.0931   34.0097   68.8263 N   0  0  0  0  0  0  0  0  0  0  0  0
    2.4929   29.2587   67.6008 N   0  0  0  0  0  0  0  0  0  0  0  0
    0.1620   32.3913   64.5966 O   0  0  0  0  0  0  0  0  0  0  0  0
    0.2803   34.4029   66.6039 O   0  0  0  0  0  0  0  0  0  0  0  0
  1  2  1  0  0  0  0
  1 12  1  1  0  0  0
  1 13  1  0  0  0  0
  2  3  1  0  0  0  0
  2 10  1  1  0  0  0
  4  3  1  1  0  0  0
  4  5  1  0  0  0  0
  4 14  1  0  0  0  0
  5  6  1  0  0  0  0
  5 13  1  6  0  0  0
  6  7  1  0  0  0  0
  6 15  1  6  0  0  0
  7  8  1  0  0  0  0
  7 11  1  6  0  0  0
  8 14  1  0  0  0  0
  8 16  1  1  0  0  0
  9 11  1  0  0  0  0
 17 16  1  6  0  0  0
 17 18  1  0  0  0  0
 17 24  1  0  0  0  0
 18 19  1  0  0  0  0
 18 25  1  1  0  0  0
 19 20  1  0  0  0  0
 19 26  1  1  0  0  0
 20 21  1  0  0  0  0
 20 23  1  6  0  0  0
 21 22  1  6  0  0  0
 21 24  1  0  0  0  0
 22 27  1  0  0  0  0
 28 12  1  1  0  0  0
 28 29  1  0  0  0  0
 28 33  1  0  0  0  0
 29 30  1  0  0  0  0
 29 36  1  6  0  0  0
 30 31  1  0  0  0  0
 30 37  1  1  0  0  0
 31 32  1  0  0  0  0
 31 34  1  6  0  0  0
 32 33  1  0  0  0  0
 33 35  1  6  0  0  0
M  END
>  <CHROM.1>
-177.65142305,95.54395783,-179.92411956,68.77472187,-161.90872978,-65.79313207
3.01282626,27.35941571,63.37229727,2.02201092,-0.53692470,0.81776214

>  <Name>
ligand

>  <RI>
0

>  <Rbt.Current_Directory>
/home/itssahil/PROJECTS/Mol_Feturizer/Test_systems_manuscript/rnas/2g5k

>  <Rbt.Executable>
rbdock ($Id: //depot/dev/client3/rdock/2013.1/src/exe/rbdock.cxx#4 $)

>  <Rbt.Library>
libRbt.so (2013.1, Build901 2013/11/27)

>  <Rbt.Parameter_File>
/export/apps/rDock/src/rDock_2013.1_src/data/scripts/dock_solv.prm

>  <Rbt.Receptor>
prm/pocket_docking_8.prm

>  <SCORE>
-12.431

>  <SCORE.INTER>
-8.10639

>  <SCORE.INTER.CONST>
1

>  <SCORE.INTER.POLAR>
0

>  <SCORE.INTER.ROT>
6

>  <SCORE.INTER.SOLV>
10.5289

>  <SCORE.INTER.VDW>
-16.5139

>  <SCORE.INTER.norm>
-0.219092

>  <SCORE.INTRA>
-4.32462

>  <SCORE.INTRA.DIHEDRAL>
-8.57246

>  <SCORE.INTRA.DIHEDRAL.0>
11.3972

>  <SCORE.INTRA.POLAR>
0

>  <SCORE.INTRA.POLAR.0>
0

>  <SCORE.INTRA.REPUL>
0

>  <SCORE.INTRA.REPUL.0>
0

>  <SCORE.INTRA.SOLV>
-0.918674

>  <SCORE.INTRA.SOLV.lig_0>
-92.3891

>  <SCORE.INTRA.VDW>
0.420952

>  <SCORE.INTRA.VDW.0>
-2.90606

>  <SCORE.INTRA.norm>
-0.116882

>  <SCORE.RESTR>
0

>  <SCORE.RESTR.CAVITY>
0

>  <SCORE.RESTR.norm>
0

>  <SCORE.SYSTEM>
0

>  <SCORE.SYSTEM.CONST>
0

>  <SCORE.SYSTEM.DIHEDRAL>
0

>  <SCORE.SYSTEM.SOLV>
0

>  <SCORE.SYSTEM.norm>
0

>  <SCORE.heavy>
37

>  <SCORE.norm>
-0.335973

>  <RMSD>
11.879

$$$$
ligand
 OpenBabel02271912133D
libRbt.so/2013.1/901 2013/11/27
 37 40  0  0  0  0  0  0  0  0999 V2000
   -8.0674   23.0602   68.5630 C   0  0  1  0  0  0  0  0  0  0  0  0
   -8.3824   23.7298   69.9308 C   0  0  1  0  0  0  0  0  0  0  0  0
   -7.6675   23.0223   71.0978 C   0  0  0  0  0  0  0  0  0  0  0  0
   -8.0799   21.5173   71.1052 C   0  0  1  0  0  0  0  0  0  0  0  0
   -7.7125   20.8386   69.7458 C   0  0  1  0  0  0  0  0  0  0  0  0
   -8.1441   19.3031   69.7749 C   0  0  1  0  0  0  0  0  0  0  0  0
   -7.4096   18.5940   70.9503 C   0  0  1  0  0  0  0  0  0  0  0  0
   -7.7838   19.3311   72.2714 C   0  0  2  0  0  0  0  0  0  0  0  0
   -9.2254   16.7883   71.3410 C   0  0  0  0  0  0  0  0  0  0  0  0
   -8.0282   25.1647   69.9021 N   0  0  0  0  0  0  0  0  0  0  0  0
   -7.8050   17.1374   71.0194 N   0  0  0  0  0  0  0  0  0  0  0  0
   -6.6973   23.2479   68.1583 O   0  0  0  0  0  0  0  0  0  0  0  0
   -8.3902   21.6128   68.6635 O   0  0  0  0  0  0  0  0  0  0  0  0
   -7.4227   20.7537   72.2164 O   0  0  0  0  0  0  0  0  0  0  0  0
   -9.5444   19.2025   69.9991 O   0  0  0  0  0  0  0  0  0  0  0  0
   -7.1170   18.7262   73.3734 O   0  0  0  0  0  0  0  0  0  0  0  0
   -7.5462   19.2219   74.6654 C   0  0  2  0  0  0  0  0  0  0  0  0
   -6.9735   18.4006   75.8448 C   0  0  1  0  0  0  0  0  0  0  0  0
   -7.5556   16.9503   75.8477 C   0  0  2  0  0  0  0  0  0  0  0  0
   -9.0629   17.0250   75.9844 C   0  0  1  0  0  0  0  0  0  0  0  0
   -9.6396   17.8283   74.7802 C   0  0  1  0  0  0  0  0  0  0  0  0
  -11.1588   17.9687   74.8558 C   0  0  0  0  0  0  0  0  0  0  0  0
   -9.6211   15.6515   76.0103 N   0  0  0  0  0  0  0  0  0  0  0  0
   -9.0365   19.1965   74.7584 O   0  0  0  0  0  0  0  0  0  0  0  0
   -5.5337   18.4160   75.7227 O   0  0  0  0  0  0  0  0  0  0  0  0
   -7.0251   16.2163   76.9536 O   0  0  0  0  0  0  0  0  0  0  0  0
  -11.7579   16.7567   74.4665 O   0  0  0  0  0  0  0  0  0  0  0  0
   -6.3003   23.7971   66.8052 C   0  0  1  0  0  0  0  0  0  0  0  0
   -7.4561   23.5168   65.8060 C   0  0  1  0  0  0  0  0  0  0  0  0
   -7.0868   24.0636   64.3966 C   0  0  2  0  0  0  0  0  0  0  0  0
   -6.8487   25.5909   64.4907 C   0  0  1  0  0  0  0  0  0  0  0  0
   -5.6773   25.9034   65.4894 C   0  0  0  0  0  0  0  0  0  0  0  0
   -6.0588   25.3381   66.8741 C   0  0  2  0  0  0  0  0  0  0  0  0
   -6.5028   26.1246   63.1513 N   0  0  0  0  0  0  0  0  0  0  0  0
   -4.9599   25.6327   67.8001 N   0  0  0  0  0  0  0  0  0  0  0  0
   -7.6812   22.0923   65.7186 O   0  0  0  0  0  0  0  0  0  0  0  0
   -8.1739   23.7848   63.4865 O   0  0  0  0  0  0  0  0  0  0  0  0
  1  2  1  0  0  0  0
  1 12  1  1  0  0  0
  1 13  1  0  0  0  0
  2  3  1  0  0  0  0
  2 10  1  6  0  0  0
  4  3  1  6  0  0  0
  4  5  1  0  0  0  0
  4 14  1  0  0  0  0
  5  6  1  0  0  0  0
  5 13  1  6  0  0  0
  6  7  1  0  0  0  0
  6 15  1  1  0  0  0
  7  8  1  0  0  0  0
  7 11  1  1  0  0  0
  8 14  1  0  0  0  0
  8 16  1  1  0  0  0
  9 11  1  0  0  0  0
 17 16  1  6  0  0  0
 17 18  1  0  0  0  0
 17 24  1  0  0  0  0
 18 19  1  0  0  0  0
 18 25  1  6  0  0  0
 19 20  1  0  0  0  0
 19 26  1  1  0  0  0
 20 21  1  0  0  0  0
 20 23  1  6  0  0  0
 21 22  1  1  0  0  0
 21 24  1  0  0  0  0
 22 27  1  0  0  0  0
 28 12  1  1  0  0  0
 28 29  1  0  0  0  0
 28 33  1  0  0  0  0
 29 30  1  0  0  0  0
 29 36  1  6  0  0  0
 30 31  1  0  0  0  0
 30 37  1  6  0  0  0
 31 32  1  0  0  0  0
 31 34  1  6  0  0  0
 32 33  1  0  0  0  0
 33 35  1  1  0  0  0
M  END
>  <CHROM.1>
-127.76293606,-64.88583643,-171.80667759,-24.50515496,171.01698388,-76.94806219
-7.83159821,20.80129941,70.62739076,1.34646590,-0.88163735,-1.08844476

>  <Name>
ligand

>  <RI>
0

>  <Rbt.Current_Directory>
/home/itssahil/PROJECTS/Mol_Feturizer/Test_systems_manuscript/rnas/2g5k

>  <Rbt.Executable>
rbdock ($Id: //depot/dev/client3/rdock/2013.1/src/exe/rbdock.cxx#4 $)

>  <Rbt.Library>
libRbt.so (2013.1, Build901 2013/11/27)

>  <Rbt.Parameter_File>
/export/apps/rDock/src/rDock_2013.1_src/data/scripts/dock_solv.prm

>  <Rbt.Receptor>
prm/blind_docking_80.prm

>  <SCORE>
0.228764

>  <SCORE.INTER>
-9.99729

>  <SCORE.INTER.CONST>
1

>  <SCORE.INTER.POLAR>
0

>  <SCORE.INTER.ROT>
6

>  <SCORE.INTER.SOLV>
29.9364

>  <SCORE.INTER.VDW>
-24.2437

>  <SCORE.INTER.norm>
-0.270197

>  <SCORE.INTRA>
3.92147

>  <SCORE.INTRA.DIHEDRAL>
1.855

>  <SCORE.INTRA.DIHEDRAL.0>
11.3972

>  <SCORE.INTRA.POLAR>
0

>  <SCORE.INTRA.POLAR.0>
0

>  <SCORE.INTRA.REPUL>
0

>  <SCORE.INTRA.REPUL.0>
0

>  <SCORE.INTRA.SOLV>
1.55771

>  <SCORE.INTRA.SOLV.lig_0>
-92.3891

>  <SCORE.INTRA.VDW>
2.21511

>  <SCORE.INTRA.VDW.0>
-2.90606

>  <SCORE.INTRA.norm>
0.105986

>  <SCORE.RESTR>
6.30458

>  <SCORE.RESTR.CAVITY>
6.30458

>  <SCORE.RESTR.norm>
0.170394

>  <SCORE.SYSTEM>
0

>  <SCORE.SYSTEM.CONST>
0

>  <SCORE.SYSTEM.DIHEDRAL>
0

>  <SCORE.SYSTEM.SOLV>
0

>  <SCORE.SYSTEM.norm>
0

>  <SCORE.heavy>
37

>  <SCORE.norm>
0.00618281

>  <RMSD>
11.935

$$$$
