@<TRIPOS>MOLECULE
2g5k_rdock.pdb
 426 474 0 0 0
SMALL
GASTEIGER

@<TRIPOS>ATOM
      1  P          8.1050   30.7410   64.4460 P.3     2  U2          0.1280
      2  C5'        6.0190   32.4060   64.6430 C.3     2  U2          0.1795
      3  O5'        7.0500   31.8190   63.8280 O.3     2  U2         -0.3259
      4  C4'        5.7920   33.8390   64.2280 C.3     2  U2          0.1772
      5  O4'        7.0090   34.5840   64.4640 O.3     2  U2         -0.3307
      6  C3'        5.5120   34.0330   62.7430 C.3     2  U2          0.1860
      7  O3'        4.1140   33.9800   62.4490 O.3     2  U2         -0.3112
      8  C2'        5.9830   35.4660   62.4900 C.3     2  U2          0.2309
      9  O2'        4.9730   36.4260   62.7290 O.3     2  U2         -0.2156
     10  C1'        7.0930   35.6390   63.5310 C.3     2  U2          0.2420
     11  N1         8.4610   35.7110   63.0020 N.ar    2  U2         -0.2534
     12  C2         8.8110   36.8680   62.3390 C.ar    2  U2          0.3546
     13  O2         8.0240   37.7790   62.1520 O.2     2  U2         -0.2443
     14  N3        10.1120   36.9180   61.9040 N.ar    2  U2         -0.1530
     15  C4        11.0720   35.9360   62.0560 C.ar    2  U2          0.2846
     16  O4        12.2060   36.1190   61.6130 O.2     2  U2         -0.2650
     17  C5        10.6220   34.7620   62.7390 C.ar    2  U2          0.0814
     18  C6         9.3620   34.6900   63.1740 C.ar    2  U2          0.0870
     19  OP1        8.9160   31.4960   65.4890 O.3     2  U2         -0.1955
     20  OP2        7.2660   29.6210   65.0470 O.co2   2  U2         -0.7863
     21  P          3.0430   33.7180   63.6280 P.3     3  G3          0.2141
     22  C5'        1.1760   35.1350   62.4780 C.3     3  G3          0.1812
     23  O5'        1.6500   33.8520   62.8750 O.3     3  G3         -0.3114
     24  C4'        0.6970   35.1070   61.0440 C.3     3  G3          0.1773
     25  O4'        1.7980   34.7940   60.1550 O.3     3  G3         -0.3307
     26  C3'       -0.3430   34.0490   60.7370 C.3     3  G3          0.1860
     27  O3'       -1.6190   34.5420   61.0970 O.3     3  G3         -0.3112
     28  C2'       -0.1950   33.8820   59.2350 C.3     3  G3          0.2309
     29  O2'       -0.8360   34.9220   58.5340 O.3     3  G3         -0.2156
     30  C1'        1.3200   34.0190   59.0700 C.3     3  G3          0.2408
     31  N1         1.7530   29.4000   57.0020 N.ar    3  G3         -0.1709
     32  C2         0.8050   30.3660   56.7820 C.ar    3  G3          0.2606
     33  N2        -0.1350   30.0700   55.8790 N.pl3   3  G3         -0.0859
     34  N3         0.7800   31.5350   57.4020 N.ar    3  G3         -0.1918
     35  C4         1.7890   31.6560   58.2850 C.ar    3  G3          0.1723
     36  C5         2.7810   30.7470   58.5910 C.ar    3  G3          0.1748
     37  C6         2.8110   29.5080   57.9030 C.ar    3  G3          0.3023
     38  O6         3.6380   28.5860   58.0060 O.2     3  G3         -0.2633
     39  N7         3.6210   31.2460   59.5750 N.ar    3  G3         -0.2173
     40  C8         3.1410   32.4320   59.8370 C.ar    3  G3          0.1817
     41  N9         2.0440   32.7530   59.0720 N.ar    3  G3         -0.2693
     42  OP1        3.1290   34.8550   64.5760 O.3     3  G3         -0.4373
     43  OP2        3.2010   32.3350   64.1360 O.co2   3  G3         -0.5172
     44  P         -2.5790   33.6490   62.0190 P.3     4  C4          0.2141
     45  C5'       -4.1710   33.0370   60.0440 C.3     4  C4          0.1812
     46  O5'       -3.1990   32.6090   60.9880 O.3     4  C4         -0.3114
     47  C4'       -4.4690   31.9360   59.0630 C.3     4  C4          0.1773
     48  O4'       -3.2400   31.5670   58.3820 O.3     4  C4         -0.3307
     49  C3'       -4.9210   30.6140   59.6560 C.3     4  C4          0.1860
     50  O3'       -6.2970   30.6160   60.0290 O.3     4  C4         -0.3112
     51  C2'       -4.6480   29.6680   58.4980 C.3     4  C4          0.2309
     52  O2'       -5.6260   29.7910   57.4850 O.3     4  C4         -0.2156
     53  C1'       -3.3130   30.2100   57.9850 C.3     4  C4          0.2420
     54  N1        -2.1530   29.4870   58.5300 N.ar    4  C4         -0.2535
     55  C2        -1.8710   28.2160   58.0200 C.ar    4  C4          0.3532
     56  O2        -2.6280   27.7400   57.1510 O.2     4  C4         -0.2443
     57  N3        -0.7940   27.5310   58.4880 N.ar    4  C4         -0.1739
     58  C4        -0.0250   28.0680   59.4400 C.ar    4  C4          0.1759
     59  N4         1.0260   27.3540   59.8780 N.pl3   4  C4         -0.1070
     60  C5        -0.2970   29.3560   59.9880 C.ar    4  C4          0.0566
     61  C6        -1.3640   30.0270   59.5060 C.ar    4  C4          0.0850
     62  OP1       -3.6820   34.5370   62.4710 O.2     4  C4         -0.5172
     63  OP2       -1.7600   32.9120   63.0280 O.co2   4  C4         -0.4373
     64  P         -6.8440   29.4860   61.0390 P.3     5  G5          0.2141
     65  C5'       -7.7030   28.0530   59.0140 C.3     5  G5          0.1812
     66  O5'       -6.8510   28.1680   60.1480 O.3     5  G5         -0.3114
     67  C4'       -7.4220   26.7600   58.3030 C.3     5  G5          0.1773
     68  O4'       -6.0330   26.7600   57.8790 O.3     5  G5         -0.3307
     69  C3'       -7.4920   25.5390   59.1960 C.3     5  G5          0.1860
     70  O3'       -8.8240   25.1060   59.4010 O.3     5  G5         -0.3112
     71  C2'       -6.6480   24.5430   58.4220 C.3     5  G5          0.2309
     72  O2'       -7.3240   24.0210   57.2970 O.3     5  G5         -0.2156
     73  C1'       -5.5060   25.4430   57.9590 C.3     5  G5          0.2408
     74  N1        -1.5960   22.8320   59.8670 N.ar    5  G5         -0.1709
     75  C2        -2.4860   22.4740   58.8880 C.ar    5  G5          0.2606
     76  N2        -2.3070   21.2600   58.3500 N.pl3   5  G5         -0.0859
     77  N3        -3.4750   23.2490   58.4660 N.ar    5  G5         -0.1918
     78  C4        -3.4910   24.4350   59.1070 C.ar    5  G5          0.1723
     79  C5        -2.6480   24.8890   60.0990 C.ar    5  G5          0.1748
     80  C6        -1.6010   24.0430   60.5500 C.ar    5  G5          0.3023
     81  O6        -0.7540   24.2590   61.4320 O.2     5  G5         -0.2633
     82  N7        -3.0110   26.1650   60.5070 N.ar    5  G5         -0.2173
     83  C8        -4.0500   26.4590   59.7690 C.ar    5  G5          0.1817
     84  N9        -4.3960   25.4520   58.9010 N.ar    5  G5         -0.2693
     85  OP1       -8.2500   29.8140   61.3770 O.2     5  G5         -0.5172
     86  OP2       -5.8650   29.2530   62.1290 O.co2   5  G5         -0.4373
     87  P         -9.2200   24.4610   60.8110 P.3     6  U6          0.2141
     88  C5'       -8.2880   22.1450   59.9700 C.3     6  U6          0.1812
     89  O5'       -8.2390   23.2060   60.9290 O.3     6  U6         -0.3114
     90  C4'       -7.2270   21.1090   60.2690 C.3     6  U6          0.1773
     91  O4'       -5.9060   21.6930   60.1280 O.3     6  U6         -0.3307
     92  C3'       -7.2280   20.5380   61.6760 C.3     6  U6          0.1860
     93  O3'       -8.1640   19.4710   61.7710 O.3     6  U6         -0.3112
     94  C2'       -5.8010   20.0120   61.8160 C.3     6  U6          0.2309
     95  O2'       -5.6350   18.7190   61.2820 O.3     6  U6         -0.2156
     96  C1'       -5.0000   21.0270   60.9920 C.3     6  U6          0.2420
     97  N1        -4.3270   22.0260   61.8340 N.ar    6  U6         -0.2534
     98  C2        -3.1820   21.6300   62.5030 C.ar    6  U6          0.3546
     99  O2        -2.6870   20.5180   62.3690 O.2     6  U6         -0.2443
    100  N3        -2.6360   22.5800   63.3320 N.ar    6  U6         -0.1530
    101  C4        -3.1070   23.8590   63.5520 C.ar    6  U6          0.2846
    102  O4        -2.5940   24.5460   64.4430 O.2     6  U6         -0.2650
    103  C5        -4.2700   24.2070   62.7870 C.ar    6  U6          0.0814
    104  C6        -4.8260   23.3020   61.9760 C.ar    6  U6          0.0870
    105  OP1      -10.6140   23.9750   60.7000 O.2     6  U6         -0.5172
    106  OP2       -8.8690   25.4220   61.8820 O.co2   6  U6         -0.4373
    107  P         -9.3810   19.5560   62.8180 P.3     7  C7          0.2141
    108  C5'       -8.9360   17.8280   64.7040 C.3     7  C7          0.1812
    109  O5'       -9.4350   18.0910   63.4150 O.3     7  C7         -0.3114
    110  C4'       -7.6900   17.0000   64.6130 C.3     7  C7          0.1773
    111  O4'       -6.6590   17.7410   63.9160 O.3     7  C7         -0.3307
    112  C3'       -7.0860   16.7140   65.9680 C.3     7  C7          0.1860
    113  O3'       -7.7040   15.5730   66.5170 O.3     7  C7         -0.3112
    114  C2'       -5.6290   16.4630   65.6360 C.3     7  C7          0.2309
    115  O2'       -5.4520   15.1570   65.1420 O.3     7  C7         -0.2156
    116  C1'       -5.4010   17.5000   64.5360 C.3     7  C7          0.2420
    117  N1        -4.8870   18.7800   65.0490 N.ar    7  C7         -0.2535
    118  C2        -3.6020   18.8250   65.6000 C.ar    7  C7          0.3532
    119  O2        -2.9330   17.7800   65.6480 O.2     7  C7         -0.2443
    120  N3        -3.1240   20.0070   66.0630 N.ar    7  C7         -0.1739
    121  C4        -3.8770   21.1110   65.9780 C.ar    7  C7          0.1759
    122  N4        -3.3720   22.2540   66.4350 N.pl3   7  C7         -0.1070
    123  C5        -5.1830   21.0910   65.4210 C.ar    7  C7          0.0566
    124  C6        -5.6470   19.9150   64.9790 C.ar    7  C7          0.0850
    125  OP1      -10.6390   19.7670   62.0560 O.2     7  C7         -0.5172
    126  OP2       -9.0290   20.4850   63.9200 O.co2   7  C7         -0.4373
    127  P         -8.2810   15.6430   68.0000 P.3     8  G8          0.2141
    128  C5'       -6.0320   14.6990   68.9840 C.3     8  G8          0.1812
    129  O5'       -6.9810   15.7620   68.9180 O.3     8  G8         -0.3114
    130  C4'       -4.7830   15.1400   69.7220 C.3     8  G8          0.1773
    131  O4'       -4.0570   16.1340   68.9500 O.3     8  G8         -0.3307
    132  C3'       -4.9790   15.8120   71.0720 C.3     8  G8          0.1860
    133  O3'       -5.2010   14.8530   72.1000 O.3     8  G8         -0.3112
    134  C2'       -3.6400   16.5150   71.2670 C.3     8  G8          0.2309
    135  O2'       -2.6420   15.6450   71.7640 O.3     8  G8         -0.2156
    136  C1'       -3.2990   16.9470   69.8340 C.3     8  G8          0.2408
    137  N1        -1.8180   21.7470   70.5610 N.ar    8  G8         -0.1709
    138  C2        -1.1810   20.5770   70.8880 C.ar    8  G8          0.2606
    139  N2        -0.0030   20.7060   71.5120 N.pl3   8  G8         -0.0859
    140  N3        -1.6610   19.3710   70.6210 N.ar    8  G8         -0.1918
    141  C4        -2.8470   19.4300   69.9770 C.ar    8  G8          0.1723
    142  C5        -3.5620   20.5440   69.5910 C.ar    8  G8          0.1748
    143  C6        -3.0380   21.8360   69.9010 C.ar    8  G8          0.3023
    144  O6        -3.5280   22.9480   69.6660 O.2     8  G8         -0.2633
    145  N7        -4.7330   20.1760   68.9430 N.ar    8  G8         -0.2173
    146  C8        -4.7170   18.8690   68.9600 C.ar    8  G8          0.1817
    147  N9        -3.6110   18.3530   69.5870 N.ar    8  G8         -0.2693
    148  OP1       -8.9620   14.3480   68.2550 O.3     8  G8         -0.4373
    149  OP2       -9.0370   16.9080   68.0960 O.co2   8  G8         -0.5172
    150  P         -5.8800   15.3070   73.4860 P.3     9  C9          0.2141
    151  C5'       -3.5890   15.4440   74.7730 C.3     9  C9          0.1812
    152  O5'       -4.7300   16.1160   74.2410 O.3     9  C9         -0.3114
    153  C4'       -2.6030   16.4390   75.3500 C.3     9  C9          0.1773
    154  O4'       -2.1220   17.3190   74.2970 O.3     9  C9         -0.3307
    155  C3'       -3.1330   17.3960   76.4070 C.3     9  C9          0.1860
    156  O3'       -3.1440   16.7990   77.6990 O.3     9  C9         -0.3112
    157  C2'       -2.1160   18.5290   76.3420 C.3     9  C9          0.2309
    158  O2'       -0.9220   18.2380   77.0440 O.3     9  C9         -0.2156
    159  C1'       -1.8310   18.5980   74.8410 C.3     9  C9          0.2420
    160  N1        -2.6650   19.5990   74.1590 N.ar    9  C9         -0.2535
    161  C2        -2.3030   20.9480   74.2430 C.ar    9  C9          0.3532
    162  O2        -1.2860   21.2570   74.8830 O.2     9  C9         -0.2443
    163  N3        -3.0680   21.8780   73.6280 N.ar    9  C9         -0.1739
    164  C4        -4.1540   21.5040   72.9490 C.ar    9  C9          0.1759
    165  N4        -4.8830   22.4550   72.3590 N.pl3   9  C9         -0.1070
    166  C5        -4.5430   20.1380   72.8450 C.ar    9  C9          0.0566
    167  C6        -3.7770   19.2270   73.4590 C.ar    9  C9          0.0850
    168  OP1       -6.1540   14.0620   74.2430 O.3     9  C9         -0.4373
    169  OP2       -6.9920   16.2430   73.1940 O.co2   9  C9         -0.5172
    170  P         -4.0910   17.4080   78.8490 P.3    10  U10         0.2141
    171  C5'       -2.4140   19.2400   79.6990 C.3    10  U10         0.1812
    172  O5'       -3.6100   18.9200   78.9960 O.3    10  U10        -0.3114
    173  C4'       -2.2610   20.7380   79.8230 C.3    10  U10         0.1773
    174  O4'       -2.1320   21.3220   78.4990 O.3    10  U10        -0.3307
    175  C3'       -3.4380   21.4790   80.4330 C.3    10  U10         0.1860
    176  O3'       -3.3990   21.4310   81.8550 O.3    10  U10        -0.3112
    177  C2'       -3.2270   22.8930   79.9070 C.3    10  U10         0.2309
    178  O2'       -2.2520   23.6160   80.6310 O.3    10  U10        -0.2156
    179  C1'       -2.7150   22.6150   78.4920 C.3    10  U10         0.2420
    180  N1        -3.7880   22.6370   77.4870 N.ar   10  U10        -0.2534
    181  C2        -4.2250   23.8700   77.0450 C.ar   10  U10         0.3546
    182  O2        -3.7550   24.9210   77.4460 O.2    10  U10        -0.2443
    183  N3        -5.2340   23.8280   76.1170 N.ar   10  U10        -0.1530
    184  C4        -5.8360   22.7030   75.5980 C.ar   10  U10         0.2846
    185  O4        -6.7410   22.8280   74.7710 O.2    10  U10        -0.2650
    186  C5        -5.3250   21.4670   76.1020 C.ar   10  U10         0.0814
    187  C6        -4.3420   21.4760   77.0060 C.ar   10  U10         0.0870
    188  OP1       -3.7570   16.7010   80.1090 O.3    10  U10        -0.4373
    189  OP2       -5.4940   17.4100   78.3590 O.co2  10  U10        -0.5172
    190  P         -4.7330   21.7370   82.6980 P.3    11  C11         0.2141
    191  C5'       -4.1530   24.2840   82.8860 C.3    11  C11         0.1813
    192  O5'       -5.0280   23.2740   82.3970 O.3    11  C11        -0.3114
    193  C4'       -4.6180   25.6490   82.4410 C.3    11  C11         0.1801
    194  O4'       -4.5720   25.7240   80.9940 O.3    11  C11        -0.3306
    195  C3'       -6.0570   26.0090   82.7690 C.3    11  C11         0.2161
    196  O3'       -6.1870   26.4810   84.1070 O.3    11  C11        -0.2175
    197  C2'       -6.3550   27.1110   81.7570 C.3    11  C11         0.2338
    198  O2'       -5.8970   28.3890   82.1530 O.3    11  C11        -0.2155
    199  C1'       -5.5580   26.6370   80.5410 C.3    11  C11         0.2421
    200  N1        -6.4000   25.9750   79.5380 N.ar   11  C11        -0.2535
    201  C2        -7.1200   26.7740   78.6480 C.ar   11  C11         0.3532
    202  O2        -7.0230   28.0050   78.7440 O.2    11  C11        -0.2443
    203  N3        -7.9010   26.1900   77.7110 N.ar   11  C11        -0.1739
    204  C4        -7.9750   24.8580   77.6440 C.ar   11  C11         0.1759
    205  N4        -8.7550   24.3240   76.7000 N.pl3  11  C11        -0.1070
    206  C5        -7.2530   24.0150   78.5420 C.ar   11  C11         0.0566
    207  C6        -6.4850   24.6120   79.4670 C.ar   11  C11         0.0850
    208  OP1       -4.3770   21.6080   84.1350 O.3    11  C11        -0.4373
    209  OP2       -5.8440   20.9220   82.1440 O.co2  11  C11        -0.5172
    210  P        -15.9860   30.1640   70.1670 P.3    37  G37         0.1280
    211  C5'      -15.3020   31.8790   72.0240 C.3    37  G37         0.1795
    212  O5'      -15.0070   30.6860   71.3090 O.3    37  G37        -0.3259
    213  C4'      -14.3100   32.0800   73.1420 C.3    37  G37         0.1772
    214  O4'      -14.4360   31.0050   74.1110 O.3    37  G37        -0.3307
    215  C3'      -12.8480   32.0140   72.7380 C.3    37  G37         0.1860
    216  O3'      -12.4130   33.2410   72.1590 O.3    37  G37        -0.3112
    217  C2'      -12.1690   31.7250   74.0720 C.3    37  G37         0.2309
    218  O2'      -12.0250   32.8780   74.8770 O.3    37  G37        -0.2156
    219  C1'      -13.1730   30.7660   74.7200 C.3    37  G37         0.2408
    220  N1        -9.9180   27.0540   75.9050 N.ar   37  G37        -0.1709
    221  C2        -9.9750   28.3440   76.3670 C.ar   37  G37         0.2606
    222  N2        -9.0240   28.6950   77.2420 N.pl3  37  G37        -0.0859
    223  N3       -10.8930   29.2260   75.9960 N.ar   37  G37        -0.1918
    224  C4       -11.7640   28.7010   75.1090 C.ar   37  G37         0.1723
    225  C5       -11.7990   27.4230   74.5860 C.ar   37  G37         0.1748
    226  C6       -10.8070   26.4900   74.9920 C.ar   37  G37         0.3023
    227  O6       -10.6640   25.3110   74.6380 O.2    37  G37        -0.2633
    228  N7       -12.8620   27.2790   73.7050 N.ar   37  G37        -0.2173
    229  C8       -13.4380   28.4520   73.7000 C.ar   37  G37         0.1817
    230  N9       -12.8160   29.3650   74.5200 N.ar   37  G37        -0.2693
    231  OP1      -16.1280   31.2250   69.1370 O.3    37  G37        -0.1955
    232  OP2      -15.5470   28.8000   69.7670 O.co2  37  G37        -0.7863
    233  P        -11.3320   33.2170   70.9670 P.3    38  A38         0.2141
    234  C5'       -9.4460   33.6210   72.7380 C.3    38  A38         0.1812
    235  O5'       -9.9710   32.8050   71.6950 O.3    38  A38        -0.3114
    236  C4'       -8.3310   32.9170   73.4840 C.3    38  A38         0.1773
    237  O4'       -8.8060   31.6870   74.0870 O.3    38  A38        -0.3307
    238  C3'       -7.1100   32.4500   72.7100 C.3    38  A38         0.1860
    239  O3'       -6.2370   33.5370   72.4250 O.3    38  A38        -0.3112
    240  C2'       -6.4620   31.4910   73.7100 C.3    38  A38         0.2309
    241  O2'       -5.6880   32.1500   74.6950 O.3    38  A38        -0.2156
    242  C1'       -7.6870   30.8620   74.3790 C.3    38  A38         0.2408
    243  N1        -6.1990   25.9590   74.7220 N.ar   38  A38        -0.2040
    244  C2        -5.7380   27.0820   75.2790 C.ar   38  A38         0.2016
    245  N3        -6.1820   28.3390   75.1430 N.ar   38  A38        -0.2048
    246  C4        -7.2370   28.3860   74.3050 C.ar   38  A38         0.1692
    247  C5        -7.8190   27.3170   73.6530 C.ar   38  A38         0.1518
    248  C6        -7.2640   26.0410   73.8880 C.ar   38  A38         0.1919
    249  N6        -7.7320   24.9180   73.3410 N.pl3  38  A38        -0.1054
    250  N7        -8.8840   27.7460   72.8660 N.ar   38  A38        -0.2193
    251  C8        -8.9200   29.0430   73.0640 C.ar   38  A38         0.1816
    252  N9        -7.9510   29.4980   73.9260 N.ar   38  A38        -0.2693
    253  OP1      -11.1910   34.6080   70.4670 O.3    38  A38        -0.4373
    254  OP2      -11.7270   32.1380   70.0250 O.co2  38  A38        -0.5172
    255  P         -4.9720   33.3170   71.4540 P.3    39  A39         0.2141
    256  C5'       -2.3960   33.2880   71.9970 C.3    39  A39         0.1812
    257  O5'       -3.7210   33.6290   72.3910 O.3    39  A39        -0.3114
    258  C4'       -1.4840   33.2890   73.2040 C.3    39  A39         0.1773
    259  O4'       -1.5640   34.6010   73.8170 O.3    39  A39        -0.3307
    260  C3'       -1.8830   32.3120   74.3050 C.3    39  A39         0.1860
    261  O3'       -1.2100   31.0560   74.1830 O.3    39  A39        -0.3112
    262  C2'       -1.3520   32.9950   75.5600 C.3    39  A39         0.2309
    263  O2'        0.0190   32.7290   75.7770 O.3    39  A39        -0.2156
    264  C1'       -1.5500   34.4750   75.2250 C.3    39  A39         0.2408
    265  N1        -3.7430   37.6370   78.6350 N.ar   39  A39        -0.2040
    266  C2        -2.4610   37.3260   78.3930 C.ar   39  A39         0.2016
    267  N3        -1.9530   36.4940   77.4870 N.ar   39  A39        -0.2048
    268  C4        -2.9350   35.9340   76.7580 C.ar   39  A39         0.1692
    269  C5        -4.2940   36.1550   76.8870 C.ar   39  A39         0.1518
    270  C6        -4.7040   37.0540   77.8830 C.ar   39  A39         0.1919
    271  N6        -5.9830   37.3590   78.1250 N.pl3  39  A39        -0.1054
    272  N7        -5.0040   35.4040   75.9610 N.ar   39  A39        -0.2193
    273  C8        -4.0740   34.7550   75.3050 C.ar   39  A39         0.1816
    274  N9        -2.8000   35.0270   75.7360 N.ar   39  A39        -0.2693
    275  OP1       -5.0530   34.3550   70.3930 O.2    39  A39        -0.5172
    276  OP2       -4.9100   31.8790   71.0790 O.co2  39  A39        -0.4373
    277  P         -0.4500   30.6720   72.8180 P.3    40  A40         0.2141
    278  C5'        0.4340   28.5530   74.1120 C.3    40  A40         0.1812
    279  O5'       -0.1990   29.1070   72.9580 O.3    40  A40        -0.3114
    280  C4'       -0.1940   27.2200   74.4430 C.3    40  A40         0.1773
    281  O4'       -1.5450   27.4520   74.9100 O.3    40  A40        -0.3307
    282  C3'       -0.3220   26.2970   73.2380 C.3    40  A40         0.1860
    283  O3'        0.8230   25.4540   73.1320 O.3    40  A40        -0.3112
    284  C2'       -1.5980   25.5160   73.5290 C.3    40  A40         0.2309
    285  O2'       -1.3980   24.3840   74.3510 O.3    40  A40        -0.2156
    286  C1'       -2.4340   26.5630   74.2690 C.3    40  A40         0.2408
    287  N1        -5.9100   26.6220   70.4510 N.ar   40  A40        -0.2040
    288  C2        -5.1760   25.6300   70.9730 C.ar   40  A40         0.2016
    289  N3        -4.2700   25.6750   71.9480 N.ar   40  A40        -0.2048
    290  C4        -4.1390   26.9300   72.4120 C.ar   40  A40         0.1692
    291  C5        -4.8230   28.0520   71.9740 C.ar   40  A40         0.1518
    292  C6        -5.7550   27.8700   70.9450 C.ar   40  A40         0.1919
    293  N6        -6.4940   28.8590   70.4340 N.pl3  40  A40        -0.1054
    294  N7        -4.4200   29.1770   72.6770 N.ar   40  A40        -0.2193
    295  C8        -3.5220   28.7180   73.5180 C.ar   40  A40         0.1816
    296  N9        -3.3180   27.3660   73.4270 N.ar   40  A40        -0.2693
    297  OP1        0.8730   31.3450   72.8150 O.3    40  A40        -0.4373
    298  OP2       -1.3820   30.8790   71.6820 O.co2  40  A40        -0.5172
    299  P          1.2980   24.9310   71.6890 P.3    41  A41         0.2141
    300  C5'        3.6620   26.0680   71.8360 C.3    41  A41         0.1812
    301  O5'        2.8890   24.8690   71.8020 O.3    41  A41        -0.3114
    302  C4'        5.1150   25.7660   72.1440 C.3    41  A41         0.1773
    303  O4'        5.2230   25.1570   73.4540 O.3    41  A41        -0.3307
    304  C3'        5.8310   24.7820   71.2320 C.3    41  A41         0.1860
    305  O3'        6.3280   25.4390   70.0720 O.3    41  A41        -0.3112
    306  C2'        7.0070   24.3400   72.0970 C.3    41  A41         0.2309
    307  O2'        8.0920   25.2450   72.0310 O.3    41  A41        -0.2156
    308  C1'        6.3980   24.3670   73.5020 C.3    41  A41         0.2408
    309  N1         7.9370   20.4940   76.4950 N.ar   41  A41        -0.2040
    310  C2         8.4950   21.6690   76.1800 C.ar   41  A41         0.2016
    311  N3         8.0350   22.6360   75.3890 N.ar   41  A41        -0.2048
    312  C4         6.8380   22.3000   74.8760 C.ar   41  A41         0.1692
    313  C5         6.1360   21.1310   75.1040 C.ar   41  A41         0.1518
    314  C6         6.7330   20.1870   75.9630 C.ar   41  A41         0.1919
    315  N6         6.1780   19.0140   76.2760 N.pl3  41  A41        -0.1054
    316  N7         4.9350   21.1360   74.4070 N.ar   41  A41        -0.2193
    317  C8         4.9370   22.2890   73.7830 C.ar   41  A41         0.1816
    318  N9         6.0580   23.0440   74.0220 N.ar   41  A41        -0.2693
    319  OP1        0.9400   25.9920   70.7090 O.2    41  A41        -0.5172
    320  OP2        0.7830   23.5500   71.5000 O.co2  41  A41        -0.4373
    321  P          6.0970   24.7910   68.6200 P.3    42  G42         0.2141
    322  C5'        6.7920   22.3520   69.3400 C.3    42  G42         0.1812
    323  O5'        5.7790   23.2550   68.9040 O.3    42  G42        -0.3114
    324  C4'        6.2130   20.9660   69.4960 C.3    42  G42         0.1773
    325  O4'        5.0070   21.0700   70.3030 O.3    42  G42        -0.3307
    326  C3'        5.7280   20.2990   68.2180 C.3    42  G42         0.1860
    327  O3'        6.7780   19.6390   67.5150 O.3    42  G42        -0.3112
    328  C2'        4.7020   19.3100   68.7510 C.3    42  G42         0.2309
    329  O2'        5.2880   18.1580   69.3210 O.3    42  G42        -0.2156
    330  C1'        4.0340   20.1420   69.8430 C.3    42  G42         0.2408
    331  N1        -0.4320   19.9140   67.4150 N.ar   42  G42        -0.1709
    332  C2         0.4080   18.8930   67.7820 C.ar   42  G42         0.2606
    333  N2         0.0120   17.6540   67.4480 N.pl3  42  G42        -0.0859
    334  N3         1.5500   19.0730   68.4290 N.ar   42  G42        -0.1918
    335  C4         1.7830   20.3770   68.6940 C.ar   42  G42         0.1723
    336  C5         1.0020   21.4680   68.3800 C.ar   42  G42         0.1748
    337  C6        -0.2110   21.2620   67.6750 C.ar   42  G42         0.3023
    338  O6        -1.0260   22.1040   67.2900 O.2    42  G42        -0.2633
    339  N7         1.5900   22.6420   68.8310 N.ar   42  G42        -0.2173
    340  C8         2.7030   22.2520   69.3920 C.ar   42  G42         0.1817
    341  N9         2.8880   20.8930   69.3370 N.ar   42  G42        -0.2693
    342  OP1        7.3850   24.8710   67.8870 O.2    42  G42        -0.5172
    343  OP2        4.8810   25.4180   68.0410 O.co2  42  G42        -0.4373
    344  P          6.6450   19.4060   65.9260 P.3    43  U43         0.2141
    345  C5'        5.2310   17.1990   66.1170 C.3    43  U43         0.1812
    346  O5'        5.2930   18.5770   65.7660 O.3    43  U43        -0.3114
    347  C4'        4.1200   16.5190   65.3560 C.3    43  U43         0.1773
    348  O4'        2.8390   17.0340   65.8000 O.3    43  U43        -0.3307
    349  C3'        4.1040   16.7840   63.8620 C.3    43  U43         0.1860
    350  O3'        5.0020   15.9270   63.1750 O.3    43  U43        -0.3112
    351  C2'        2.6600   16.4730   63.4980 C.3    43  U43         0.2309
    352  O2'        2.4390   15.0860   63.3780 O.3    43  U43        -0.2156
    353  C1'        1.9180   17.0150   64.7200 C.3    43  U43         0.2420
    354  N1         1.3960   18.3760   64.5340 N.ar   43  U43        -0.2534
    355  C2         0.2230   18.5270   63.8130 C.ar   43  U43         0.3546
    356  O2        -0.3650   17.5910   63.3050 O.2    43  U43        -0.2443
    357  N3        -0.2300   19.8180   63.7040 N.ar   43  U43        -0.1530
    358  C4         0.3630   20.9510   64.2210 C.ar   43  U43         0.2846
    359  O4        -0.1510   22.0540   64.0120 O.2    43  U43        -0.2650
    360  C5         1.5800   20.7110   64.9390 C.ar   43  U43         0.0814
    361  C6         2.0420   19.4630   65.0670 C.ar   43  U43         0.0870
    362  OP1        7.7660   18.5340   65.4920 O.3    43  U43        -0.4373
    363  OP2        6.4490   20.7230   65.2690 O.co2  43  U43        -0.5172
    364  P          5.6350   16.4040   61.7800 P.3    44  C44         0.2141
    365  C5'        3.7120   15.3780   60.3370 C.3    44  C44         0.1812
    366  O5'        4.3770   16.5380   60.8120 O.3    44  C44        -0.3114
    367  C4'        2.4750   15.7580   59.5680 C.3    44  C44         0.1773
    368  O4'        1.5630   16.4740   60.4390 O.3    44  C44        -0.3307
    369  C3'        2.6590   16.7450   58.4340 C.3    44  C44         0.1860
    370  O3'        3.1770   16.1490   57.2650 O.3    44  C44        -0.3112
    371  C2'        1.2300   17.2070   58.2100 C.3    44  C44         0.2309
    372  O2'        0.4600   16.2310   57.5360 O.3    44  C44        -0.2156
    373  C1'        0.7500   17.3400   59.6540 C.3    44  C44         0.2420
    374  N1         0.8940   18.7150   60.1520 N.ar   44  C44        -0.2535
    375  C2        -0.1140   19.6350   59.8590 C.ar   44  C44         0.3532
    376  O2        -1.0630   19.2680   59.1610 O.2    44  C44        -0.2443
    377  N3        -0.0250   20.8970   60.3360 N.ar   44  C44        -0.1739
    378  C4         1.0320   21.2570   61.0750 C.ar   44  C44         0.1759
    379  N4         1.0720   22.5170   61.5450 N.pl3  44  C44        -0.1070
    380  C5         2.0930   20.3420   61.3710 C.ar   44  C44         0.0566
    381  C6         1.9810   19.0930   60.8940 C.ar   44  C44         0.0850
    382  OP1        6.5100   15.3120   61.2710 O.2    44  C44        -0.5172
    383  OP2        6.1970   17.7600   62.0000 O.co2  44  C44        -0.4373
    384  P          3.9930   17.0540   56.2290 P.3    45  G45         0.2141
    385  C5'        1.9510   17.6540   54.7120 C.3    45  G45         0.1812
    386  O5'        2.9120   18.0810   55.6640 O.3    45  G45        -0.3114
    387  C4'        0.9440   18.7490   54.4250 C.3    45  G45         0.1773
    388  O4'        0.3770   19.2400   55.6700 O.3    45  G45        -0.3307
    389  C3'        1.4410   20.0330   53.7850 C.3    45  G45         0.1860
    390  O3'        1.6460   19.9090   52.3930 O.3    45  G45        -0.3112
    391  C2'        0.2710   20.9640   54.0480 C.3    45  G45         0.2309
    392  O2'       -0.8170   20.7290   53.1790 O.3    45  G45        -0.2156
    393  C1'       -0.0970   20.5650   55.4730 C.3    45  G45         0.2408
    394  N1        -0.1510   25.2090   57.4480 N.ar   45  G45        -0.1709
    395  C2        -0.9240   24.6690   56.4480 C.ar   45  G45         0.2606
    396  N2        -1.8520   25.4740   55.9110 N.pl3  45  G45        -0.0859
    397  N3        -0.7980   23.4290   56.0070 N.ar   45  G45        -0.1918
    398  C4         0.1840   22.7620   56.6510 C.ar   45  G45         0.1723
    399  C5         1.0170   23.2080   57.6510 C.ar   45  G45         0.1748
    400  C6         0.8600   24.5360   58.1270 C.ar   45  G45         0.3023
    401  O6         1.4780   25.1070   59.0310 O.2    45  G45        -0.2633
    402  N7         1.9040   22.2100   58.0360 N.ar   45  G45        -0.2173
    403  C8         1.5870   21.1880   57.2800 C.ar   45  G45         0.1817
    404  N9         0.5430   21.4560   56.4300 N.ar   45  G45        -0.2693
    405  OP1        4.4250   16.1610   55.1200 O.2    45  G45        -0.5172
    406  OP2        5.0090   17.8100   57.0150 O.co2  45  G45        -0.4373
    407  P          2.6130   20.9500   51.6480 P.3    46  C46         0.2141
    408  C5'        0.6400   22.5590   51.0370 C.3    46  C46         0.1813
    409  O5'        1.8480   22.3430   51.7650 O.3    46  C46        -0.3114
    410  C4'        0.0620   23.9180   51.3490 C.3    46  C46         0.1801
    411  O4'       -0.1120   24.0460   52.7840 O.3    46  C46        -0.3306
    412  C3'        0.9160   25.1210   50.9990 C.3    46  C46         0.2161
    413  O3'        0.9110   25.4040   49.6020 O.3    46  C46        -0.2175
    414  C2'        0.3010   26.1980   51.8830 C.3    46  C46         0.2338
    415  O2'       -0.9410   26.6480   51.3900 O.3    46  C46        -0.2155
    416  C1'        0.0290   25.4070   53.1590 C.3    46  C46         0.2421
    417  N1         1.1100   25.5090   54.1470 N.ar   46  C46        -0.2535
    418  C2         1.2020   26.6690   54.9140 C.ar   46  C46         0.3532
    419  O2         0.3690   27.5690   54.7330 O.2    46  C46        -0.2443
    420  N3         2.1880   26.7810   55.8360 N.ar   46  C46        -0.1739
    421  C4         3.0530   25.7800   56.0070 C.ar   46  C46         0.1759
    422  N4         3.9980   25.9200   56.9430 N.pl3  46  C46        -0.1070
    423  C5         2.9870   24.5840   55.2320 C.ar   46  C46         0.0566
    424  C6         2.0090   24.4920   54.3200 C.ar   46  C46         0.0850
    425  OP1        2.6360   20.5580   50.2100 O.2    46  C46        -0.5172
    426  OP2        3.8760   21.0100   52.4180 O.co2  46  C46        -0.4373
@<TRIPOS>BOND
     1   413   412    1
     2   425   407    2
     3   412   410    1
     4   412   414    1
     5   408   410    1
     6   408   409    1
     7   410   411    1
     8   415   414    1
     9   407   409    1
    10   407   390    1
    11   407   426    1
    12   414   416    1
    13   390   389    1
    14   411   416    1
    15   416   417    1
    16   392   391    1
    17   389   391    1
    18   389   387    1
    19   391   393    1
    20   417   424   ar
    21   417   418   ar
    22   424   423   ar
    23   387   385    1
    24   387   388    1
    25   385   386    1
    26   419   418    2
    27   418   420   ar
    28   405   384    2
    29   423   421   ar
    30   393   388    1
    31   393   404    1
    32   386   384    1
    33   420   421   ar
    34    33    32    1
    35   396   395    1
    36   421   422    1
    37   397   395   ar
    38   397   398   ar
    39   384   406    1
    40   384   370    1
    41   404   398   ar
    42   404   403   ar
    43   395   394   ar
    44   398   399   ar
    45    32    31   ar
    46    32    34   ar
    47    31    37   ar
    48    56    55    2
    49   370   369    1
    50   403   402   ar
    51    72    71    1
    52    34    35   ar
    53   394   400   ar
    54    52    51    1
    55   372   371    1
    56   399   402   ar
    57   399   400   ar
    58    68    73    1
    59    68    67    1
    60    37    38    2
    61    37    36   ar
    62    73    71    1
    63    73    84    1
    64    53    48    1
    65    53    51    1
    66    53    54    1
    67    55    57   ar
    68    55    54   ar
    69   400   401    2
    70   371   369    1
    71   371   373    1
    72    35    36   ar
    73    35    41   ar
    74    67    65    1
    75    67    69    1
    76    76    75    1
    77    48    47    1
    78    71    69    1
    79   369   367    1
    80    77    75   ar
    81    77    78   ar
    82    57    58   ar
    83    51    49    1
    84    54    61   ar
    85    29    28    1
    86    36    39   ar
    87    75    74   ar
    88    84    78   ar
    89    84    83   ar
    90    65    66    1
    91    47    49    1
    92    47    45    1
    93    30    41    1
    94    30    28    1
    95    30    25    1
    96    41    40   ar
    97    78    79   ar
    98   376   375    2
    99    69    70    1
   100    28    26    1
   101    70    87    1
   102    58    59    1
   103    58    60   ar
   104    61    60   ar
   105   367   365    1
   106   367   368    1
   107    39    40   ar
   108   373   374    1
   109   373   368    1
   110    49    50    1
   111    83    82   ar
   112   375   374   ar
   113   375   377   ar
   114    74    80   ar
   115    88    90    1
   116    88    89    1
   117    50    64    1
   118    45    46    1
   119    79    82   ar
   120    79    80   ar
   121    91    90    1
   122    91    96    1
   123    66    64    1
   124   374   381   ar
   125    25    24    1
   126    90    92    1
   127   377   378   ar
   128   365   366    1
   129    80    81    2
   130   105    87    2
   131    26    24    1
   132    26    27    1
   133    87    89    1
   134    87   106    1
   135   366   364    1
   136   381   380   ar
   137    46    44    1
   138    96    94    1
   139    96    97    1
   140    64    85    2
   141    64    86    1
   142    24    22    1
   143   378   380   ar
   144   378   379    1
   145    27    44    1
   146   382   364    2
   147    95    94    1
   148    16    15    2
   149    92    93    1
   150    92    94    1
   151    93   107    1
   152   364   383    1
   153   364   350    1
   154    97   104   ar
   155    97    98   ar
   156    14    15   ar
   157    14    12   ar
   158   104   103   ar
   159    44    62    2
   160    44    63    1
   161   125   107    2
   162    15    17   ar
   163    13    12    2
   164    12    11   ar
   165    99    98    2
   166     7     6    1
   167     7    21    1
   168    22    23    1
   169     8     9    1
   170     8     6    1
   171     8    10    1
   172    98   100   ar
   173    17    18   ar
   174     6     4    1
   175   103   101   ar
   176   107   109    1
   177   107   126    1
   178    23    21    1
   179    11    18   ar
   180    11    10    1
   181   350   349    1
   182   356   355    2
   183   100   101   ar
   184   352   351    1
   185   109   108    1
   186   351   349    1
   187   351   353    1
   188    10     5    1
   189   101   102    2
   190    21    43    2
   191    21    42    1
   192   357   355   ar
   193   357   358   ar
   194   355   354   ar
   195     3     1    1
   196     3     2    1
   197   349   347    1
   198   111   116    1
   199   111   110    1
   200   359   358    2
   201   358   360   ar
   202     4     5    1
   203     4     2    1
   204     1    20    1
   205     1    19    1
   206   354   353    1
   207   354   361   ar
   208   116   117    1
   209   116   114    1
   210   110   108    1
   211   110   112    1
   212   353   348    1
   213   360   361   ar
   214   124   117   ar
   215   124   123   ar
   216   117   118   ar
   217   115   114    1
   218   363   344    2
   219   347   348    1
   220   347   345    1
   221   123   121   ar
   222   362   344    1
   223   118   119    2
   224   118   120   ar
   225   114   112    1
   226   346   344    1
   227   346   345    1
   228   344   327    1
   229   112   113    1
   230   121   120   ar
   231   121   122    1
   232   113   127    1
   233   338   337    2
   234   331   337   ar
   235   331   332   ar
   236   333   332    1
   237   327   326    1
   238   337   336   ar
   239   332   334   ar
   240   342   321    2
   241   127   149    2
   242   127   148    1
   243   127   129    1
   244   343   321    1
   245   326   328    1
   246   326   324    1
   247   336   335   ar
   248   336   339   ar
   249   334   335   ar
   250   321   323    1
   251   321   305    1
   252   335   341   ar
   253   328   329    1
   254   328   330    1
   255   339   340   ar
   256   323   322    1
   257   129   128    1
   258   145   146   ar
   259   145   142   ar
   260   131   130    1
   261   131   136    1
   262   146   147   ar
   263   128   130    1
   264   231   210    1
   265   341   340   ar
   266   341   330    1
   267   322   324    1
   268   324   325    1
   269   147   136    1
   270   147   141   ar
   271   142   143   ar
   272   142   141   ar
   273   144   143    2
   274   130   132    1
   275   232   210    1
   276   136   134    1
   277   330   325    1
   278   143   137   ar
   279   141   140   ar
   280   254   233    2
   281   305   304    1
   282   210   212    1
   283   275   255    2
   284   293   292    1
   285   287   292   ar
   286   287   288   ar
   287   253   233    1
   288   137   138   ar
   289   140   138   ar
   290   319   299    2
   291   138   139    1
   292   292   291   ar
   293   233   235    1
   294   233   216    1
   295   288   289   ar
   296   132   134    1
   297   132   133    1
   298   276   255    1
   299   304   306    1
   300   304   302    1
   301   134   135    1
   302   212   211    1
   303   255   257    1
   304   255   239    1
   305   320   299    1
   306   298   277    2
   307   299   301    1
   308   299   283    1
   309   235   234    1
   310   301   300    1
   311   300   302    1
   312   289   290   ar
   313   291   290   ar
   314   291   294   ar
   315   256   257    1
   316   256   258    1
   317   211   213    1
   318   307   306    1
   319   306   308    1
   320   133   150    1
   321   302   303    1
   322   216   215    1
   323   165   164    1
   324   290   296   ar
   325   239   238    1
   326   294   295   ar
   327   238   236    1
   328   238   240    1
   329   215   213    1
   330   215   217    1
   331   234   236    1
   332   297   277    1
   333   277   279    1
   334   277   261    1
   335   166   164   ar
   336   166   167   ar
   337   250   251   ar
   338   250   247   ar
   339   164   163   ar
   340   279   278    1
   341   251   252   ar
   342   283   282    1
   343   213   214    1
   344   169   150    2
   345   258   259    1
   346   258   260    1
   347   282   284    1
   348   282   280    1
   349   249   248    1
   350   296   295   ar
   351   296   286    1
   352   303   308    1
   353   167   160   ar
   354   236   237    1
   355   150   152    1
   356   150   168    1
   357   308   318    1
   358   284   286    1
   359   284   285    1
   360   163   161   ar
   361   247   248   ar
   362   247   246   ar
   363   229   228   ar
   364   229   230   ar
   365   228   225   ar
   366   240   242    1
   367   240   241    1
   368   317   318   ar
   369   317   316   ar
   370   259   264    1
   371   248   243   ar
   372   252   246   ar
   373   252   242    1
   374   318   312   ar
   375   217   219    1
   376   217   218    1
   377   237   242    1
   378   214   219    1
   379   278   280    1
   380   160   161   ar
   381   160   159    1
   382   261   260    1
   383   152   151    1
   384   161   162    2
   385   286   281    1
   386   154   159    1
   387   154   153    1
   388   260   262    1
   389   246   245   ar
   390   316   313   ar
   391   280   281    1
   392   230   219    1
   393   230   224   ar
   394   225   226   ar
   395   225   224   ar
   396   227   226    2
   397   243   244   ar
   398   185   184    2
   399   151   153    1
   400   159   157    1
   401   312   313   ar
   402   312   311   ar
   403   226   220   ar
   404   313   314   ar
   405   224   223   ar
   406   245   244   ar
   407   264   262    1
   408   264   274    1
   409   273   274   ar
   410   273   272   ar
   411   153   155    1
   412   311   310   ar
   413   262   263    1
   414   184   186   ar
   415   184   183   ar
   416   274   268   ar
   417   220   221   ar
   418   272   269   ar
   419   314   315    1
   420   314   309   ar
   421   223   221   ar
   422   186   187   ar
   423   183   181   ar
   424   310   309   ar
   425   157   155    1
   426   157   158    1
   427   221   222    1
   428   155   156    1
   429   205   204    1
   430   268   269   ar
   431   268   267   ar
   432   269   270   ar
   433   187   180   ar
   434   181   182    2
   435   181   180   ar
   436   267   266   ar
   437   180   179    1
   438   204   203   ar
   439   204   206   ar
   440   156   170    1
   441   203   201   ar
   442   270   271    1
   443   270   265   ar
   444   189   170    2
   445   266   265   ar
   446   179   174    1
   447   179   177    1
   448   174   173    1
   449   206   207   ar
   450   201   202    2
   451   201   200   ar
   452   170   172    1
   453   170   188    1
   454   172   171    1
   455   207   200   ar
   456   200   199    1
   457   171   173    1
   458   173   175    1
   459   177   175    1
   460   177   178    1
   461   175   176    1
   462   199   194    1
   463   199   197    1
   464   194   193    1
   465   197   198    1
   466   197   195    1
   467   176   190    1
   468   209   190    2
   469   192   190    1
   470   192   191    1
   471   193   195    1
   472   193   191    1
   473   190   208    1
   474   195   196    1
