ligand
  PyMOL2.2          3D                             0

 10 11  0  0  0  0  0  0  0  0999 V2000
  -30.4010   16.7860  -14.6280 N   0  0  0  0  0  0  0  0  0  0  0  0
  -31.1870   17.8650  -14.5150 C   0  0  0  0  0  0  0  0  0  0  0  0
  -31.5360   18.7500  -15.4480 N   0  0  0  0  0  0  0  0  0  0  0  0
  -30.9790   18.4410  -16.6300 C   0  0  0  0  0  0  0  0  0  0  0  0
  -30.1490   17.3690  -16.9010 C   0  0  0  0  0  0  0  0  0  0  0  0
  -29.8560   16.5020  -15.8290 C   0  0  0  0  0  0  0  0  0  0  0  0
  -29.0700   15.4270  -15.9460 N   0  0  0  0  0  0  0  0  0  0  0  0
  -29.7680   17.3690  -18.2320 N   0  0  0  0  0  0  0  0  0  0  0  0
  -30.3640   18.4270  -18.7300 C   0  0  0  0  0  0  0  0  0  0  0  0
  -31.1110   19.1200  -17.8180 N   0  0  0  0  0  0  0  0  0  0  0  0
  1  2  4  0  0  0  0
  2  3  4  0  0  0  0
  3  4  4  0  0  0  0
  4  5  4  0  0  0  0
  5  6  4  0  0  0  0
  1  6  4  0  0  0  0
  6  7  1  0  0  0  0
  5  8  4  0  0  0  0
  8  9  4  0  0  0  0
  4 10  4  0  0  0  0
  9 10  4  0  0  0  0
M  END
$$$$
