ligand
 OpenBabel11021811513D
libRbt.so/2013.1/901 2013/11/27
 10 11  0  0  0  0  0  0  0  0999 V2000
  -30.1494   16.9174  -14.7149 N   0  0  0  0  0  0  0  0  0  0  0  0
  -31.1169   17.8306  -14.5579 C   0  0  0  0  0  0  0  0  0  0  0  0
  -31.6433   18.6586  -15.4594 N   0  0  0  0  0  0  0  0  0  0  0  0
  -31.0662   18.4857  -16.6594 C   0  0  0  0  0  0  0  0  0  0  0  0
  -30.0603   17.5912  -16.9750 C   0  0  0  0  0  0  0  0  0  0  0  0
  -29.5891   16.7673  -15.9330 C   0  0  0  0  0  0  0  0  0  0  0  0
  -28.6224   15.8581  -16.0940 N   0  0  0  0  0  0  0  0  0  0  0  0
  -29.7162   17.6932  -18.3121 N   0  0  0  0  0  0  0  0  0  0  0  0
  -30.5071   18.6354  -18.7697 C   0  0  0  0  0  0  0  0  0  0  0  0
  -31.3474   19.1573  -17.8255 N   0  0  0  0  0  0  0  0  0  0  0  0
  1  2  2  0  0  0  0
  1  6  1  0  0  0  0
  2  3  1  0  0  0  0
  3  4  2  0  0  0  0
  4  5  1  0  0  0  0
  4 10  1  0  0  0  0
  5  6  2  0  0  0  0
  5  8  1  0  0  0  0
  6  7  1  0  0  0  0
  8  9  1  0  0  0  0
  9 10  2  0  0  0  0
M  END
>  <CHROM.1>
-30.37521732,17.75162165,-16.52634427,1.22422851,-0.75748506,1.89468950

>  <Name>
ligand

>  <RI>
0

>  <Rbt.Current_Directory>
/home/itssahil/PROJECTS/Mol_Feturizer/New_Systems/rnas/4TZX

>  <Rbt.Executable>
rbdock ($Id: //depot/dev/client3/rdock/2013.1/src/exe/rbdock.cxx#4 $)

>  <Rbt.Library>
libRbt.so (2013.1, Build901 2013/11/27)

>  <Rbt.Parameter_File>
/export/apps/rDock/src/rDock_2013.1_src/data/scripts/dock_solv.prm

>  <Rbt.Receptor>
prm/pocket_docking_7.prm

>  <SCORE>
-14.2082

>  <SCORE.INTER>
-14.2082

>  <SCORE.INTER.CONST>
1

>  <SCORE.INTER.POLAR>
0

>  <SCORE.INTER.ROT>
0

>  <SCORE.INTER.SOLV>
6.85373

>  <SCORE.INTER.VDW>
-15.3567

>  <SCORE.INTER.norm>
-1.42082

>  <SCORE.INTRA>
0

>  <SCORE.INTRA.DIHEDRAL>
0

>  <SCORE.INTRA.DIHEDRAL.0>
0

>  <SCORE.INTRA.POLAR>
0

>  <SCORE.INTRA.POLAR.0>
0

>  <SCORE.INTRA.REPUL>
0

>  <SCORE.INTRA.REPUL.0>
0

>  <SCORE.INTRA.SOLV>
0

>  <SCORE.INTRA.SOLV.lig_0>
-23.8949

>  <SCORE.INTRA.VDW>
0

>  <SCORE.INTRA.VDW.0>
0

>  <SCORE.INTRA.norm>
0

>  <SCORE.RESTR>
0

>  <SCORE.RESTR.CAVITY>
0

>  <SCORE.RESTR.norm>
0

>  <SCORE.SYSTEM>
0

>  <SCORE.SYSTEM.CONST>
0

>  <SCORE.SYSTEM.DIHEDRAL>
0

>  <SCORE.SYSTEM.SOLV>
0

>  <SCORE.SYSTEM.norm>
0

>  <SCORE.heavy>
10

>  <SCORE.norm>
-1.42082

>  <RMSD>
0.314

$$$$
ligand
 OpenBabel11021811513D
libRbt.so/2013.1/901 2013/11/27
 10 11  0  0  0  0  0  0  0  0999 V2000
  -30.1782   16.9084  -14.7254 N   0  0  0  0  0  0  0  0  0  0  0  0
  -31.1522   17.8158  -14.5748 C   0  0  0  0  0  0  0  0  0  0  0  0
  -31.6726   18.6456  -15.4782 N   0  0  0  0  0  0  0  0  0  0  0  0
  -31.0810   18.4817  -16.6724 C   0  0  0  0  0  0  0  0  0  0  0  0
  -30.0670   17.5939  -16.9810 C   0  0  0  0  0  0  0  0  0  0  0  0
  -29.6034   16.7672  -15.9377 C   0  0  0  0  0  0  0  0  0  0  0  0
  -28.6302   15.8638  -16.0922 N   0  0  0  0  0  0  0  0  0  0  0  0
  -29.7083   17.7044  -18.3136 N   0  0  0  0  0  0  0  0  0  0  0  0
  -30.4988   18.6448  -18.7754 C   0  0  0  0  0  0  0  0  0  0  0  0
  -31.3524   19.1576  -17.8382 N   0  0  0  0  0  0  0  0  0  0  0  0
  1  2  2  0  0  0  0
  1  6  1  0  0  0  0
  2  3  1  0  0  0  0
  3  4  2  0  0  0  0
  4  5  1  0  0  0  0
  4 10  1  0  0  0  0
  5  6  2  0  0  0  0
  5  8  1  0  0  0  0
  6  7  1  0  0  0  0
  8  9  1  0  0  0  0
  9 10  2  0  0  0  0
M  END
>  <CHROM.1>
-30.38780359,17.75046169,-16.53510211,1.23664112,-0.74892915,1.90815737

>  <Name>
ligand

>  <RI>
0

>  <Rbt.Current_Directory>
/home/itssahil/PROJECTS/Mol_Feturizer/New_Systems/rnas/4TZX

>  <Rbt.Executable>
rbdock ($Id: //depot/dev/client3/rdock/2013.1/src/exe/rbdock.cxx#4 $)

>  <Rbt.Library>
libRbt.so (2013.1, Build901 2013/11/27)

>  <Rbt.Parameter_File>
/export/apps/rDock/src/rDock_2013.1_src/data/scripts/dock_solv.prm

>  <Rbt.Receptor>
prm/pocket_docking_3.prm

>  <SCORE>
-14.2355

>  <SCORE.INTER>
-14.2355

>  <SCORE.INTER.CONST>
1

>  <SCORE.INTER.POLAR>
0

>  <SCORE.INTER.ROT>
0

>  <SCORE.INTER.SOLV>
6.85854

>  <SCORE.INTER.VDW>
-15.3765

>  <SCORE.INTER.norm>
-1.42355

>  <SCORE.INTRA>
0

>  <SCORE.INTRA.DIHEDRAL>
0

>  <SCORE.INTRA.DIHEDRAL.0>
0

>  <SCORE.INTRA.POLAR>
0

>  <SCORE.INTRA.POLAR.0>
0

>  <SCORE.INTRA.REPUL>
0

>  <SCORE.INTRA.REPUL.0>
0

>  <SCORE.INTRA.SOLV>
0

>  <SCORE.INTRA.SOLV.lig_0>
-23.8949

>  <SCORE.INTRA.VDW>
0

>  <SCORE.INTRA.VDW.0>
0

>  <SCORE.INTRA.norm>
0

>  <SCORE.RESTR>
0

>  <SCORE.RESTR.CAVITY>
0

>  <SCORE.RESTR.norm>
0

>  <SCORE.SYSTEM>
0

>  <SCORE.SYSTEM.CONST>
0

>  <SCORE.SYSTEM.DIHEDRAL>
0

>  <SCORE.SYSTEM.SOLV>
0

>  <SCORE.SYSTEM.norm>
0

>  <SCORE.heavy>
10

>  <SCORE.norm>
-1.42355

>  <RMSD>
0.315

$$$$
ligand
 OpenBabel11021811513D
libRbt.so/2013.1/901 2013/11/27
 10 11  0  0  0  0  0  0  0  0999 V2000
  -30.1861   16.9177  -14.7263 N   0  0  0  0  0  0  0  0  0  0  0  0
  -31.1629   17.8227  -14.5788 C   0  0  0  0  0  0  0  0  0  0  0  0
  -31.6876   18.6461  -15.4856 N   0  0  0  0  0  0  0  0  0  0  0  0
  -31.0973   18.4781  -16.6798 C   0  0  0  0  0  0  0  0  0  0  0  0
  -30.0808   17.5922  -16.9855 C   0  0  0  0  0  0  0  0  0  0  0  0
  -29.6128   16.7724  -15.9388 C   0  0  0  0  0  0  0  0  0  0  0  0
  -28.6368   15.8715  -16.0903 N   0  0  0  0  0  0  0  0  0  0  0  0
  -29.7246   17.6971  -18.3192 N   0  0  0  0  0  0  0  0  0  0  0  0
  -30.5190   18.6324  -18.7846 C   0  0  0  0  0  0  0  0  0  0  0  0
  -31.3729   19.1471  -17.8487 N   0  0  0  0  0  0  0  0  0  0  0  0
  1  2  2  0  0  0  0
  1  6  1  0  0  0  0
  2  3  1  0  0  0  0
  3  4  2  0  0  0  0
  4  5  1  0  0  0  0
  4 10  1  0  0  0  0
  5  6  2  0  0  0  0
  5  8  1  0  0  0  0
  6  7  1  0  0  0  0
  8  9  1  0  0  0  0
  9 10  2  0  0  0  0
M  END
>  <CHROM.1>
-30.40144177,17.74990665,-16.53994732,1.23309810,-0.74626242,1.90066403

>  <Name>
ligand

>  <RI>
0

>  <Rbt.Current_Directory>
/home/itssahil/PROJECTS/Mol_Feturizer/New_Systems/rnas/4TZX

>  <Rbt.Executable>
rbdock ($Id: //depot/dev/client3/rdock/2013.1/src/exe/rbdock.cxx#4 $)

>  <Rbt.Library>
libRbt.so (2013.1, Build901 2013/11/27)

>  <Rbt.Parameter_File>
/export/apps/rDock/src/rDock_2013.1_src/data/scripts/dock_solv.prm

>  <Rbt.Receptor>
prm/blind_docking_100.prm

>  <SCORE>
-14.1953

>  <SCORE.INTER>
-14.1953

>  <SCORE.INTER.CONST>
1

>  <SCORE.INTER.POLAR>
0

>  <SCORE.INTER.ROT>
0

>  <SCORE.INTER.SOLV>
6.85857

>  <SCORE.INTER.VDW>
-15.3497

>  <SCORE.INTER.norm>
-1.41953

>  <SCORE.INTRA>
0

>  <SCORE.INTRA.DIHEDRAL>
0

>  <SCORE.INTRA.DIHEDRAL.0>
0

>  <SCORE.INTRA.POLAR>
0

>  <SCORE.INTRA.POLAR.0>
0

>  <SCORE.INTRA.REPUL>
0

>  <SCORE.INTRA.REPUL.0>
0

>  <SCORE.INTRA.SOLV>
0

>  <SCORE.INTRA.SOLV.lig_0>
-23.8949

>  <SCORE.INTRA.VDW>
0

>  <SCORE.INTRA.VDW.0>
0

>  <SCORE.INTRA.norm>
0

>  <SCORE.RESTR>
0

>  <SCORE.RESTR.CAVITY>
0

>  <SCORE.RESTR.norm>
0

>  <SCORE.SYSTEM>
0

>  <SCORE.SYSTEM.CONST>
0

>  <SCORE.SYSTEM.DIHEDRAL>
0

>  <SCORE.SYSTEM.SOLV>
0

>  <SCORE.SYSTEM.norm>
0

>  <SCORE.heavy>
10

>  <SCORE.norm>
-1.41953

>  <RMSD>
0.316

$$$$
ligand
 OpenBabel11021811513D
libRbt.so/2013.1/901 2013/11/27
 10 11  0  0  0  0  0  0  0  0999 V2000
  -30.1360   16.8680  -14.7103 N   0  0  0  0  0  0  0  0  0  0  0  0
  -31.1192   17.7608  -14.5341 C   0  0  0  0  0  0  0  0  0  0  0  0
  -31.6681   18.5901  -15.4210 N   0  0  0  0  0  0  0  0  0  0  0  0
  -31.0974   18.4433  -16.6274 C   0  0  0  0  0  0  0  0  0  0  0  0
  -30.0774   17.5720  -16.9622 C   0  0  0  0  0  0  0  0  0  0  0  0
  -29.5827   16.7439  -15.9344 C   0  0  0  0  0  0  0  0  0  0  0  0
  -28.6004   15.8552  -16.1145 N   0  0  0  0  0  0  0  0  0  0  0  0
  -29.7458   17.6974  -18.3005 N   0  0  0  0  0  0  0  0  0  0  0  0
  -30.5578   18.6302  -18.7399 C   0  0  0  0  0  0  0  0  0  0  0  0
  -31.4003   19.1242  -17.7826 N   0  0  0  0  0  0  0  0  0  0  0  0
  1  2  2  0  0  0  0
  1  6  1  0  0  0  0
  2  3  1  0  0  0  0
  3  4  2  0  0  0  0
  4  5  1  0  0  0  0
  4 10  1  0  0  0  0
  5  6  2  0  0  0  0
  5  8  1  0  0  0  0
  6  7  1  0  0  0  0
  8  9  1  0  0  0  0
  9 10  2  0  0  0  0
M  END
>  <CHROM.1>
-30.39173495,17.72071153,-16.50909839,1.20598208,-0.74215329,1.89500795

>  <Name>
ligand

>  <RI>
0

>  <Rbt.Current_Directory>
/home/itssahil/PROJECTS/Mol_Feturizer/New_Systems/rnas/4TZX

>  <Rbt.Executable>
rbdock ($Id: //depot/dev/client3/rdock/2013.1/src/exe/rbdock.cxx#4 $)

>  <Rbt.Library>
libRbt.so (2013.1, Build901 2013/11/27)

>  <Rbt.Parameter_File>
/export/apps/rDock/src/rDock_2013.1_src/data/scripts/dock_solv.prm

>  <Rbt.Receptor>
prm/pocket_docking_4.prm

>  <SCORE>
-14.2589

>  <SCORE.INTER>
-14.2589

>  <SCORE.INTER.CONST>
1

>  <SCORE.INTER.POLAR>
0

>  <SCORE.INTER.ROT>
0

>  <SCORE.INTER.SOLV>
6.81015

>  <SCORE.INTER.VDW>
-15.376

>  <SCORE.INTER.norm>
-1.42589

>  <SCORE.INTRA>
0

>  <SCORE.INTRA.DIHEDRAL>
0

>  <SCORE.INTRA.DIHEDRAL.0>
0

>  <SCORE.INTRA.POLAR>
0

>  <SCORE.INTRA.POLAR.0>
0

>  <SCORE.INTRA.REPUL>
0

>  <SCORE.INTRA.REPUL.0>
0

>  <SCORE.INTRA.SOLV>
0

>  <SCORE.INTRA.SOLV.lig_0>
-23.8949

>  <SCORE.INTRA.VDW>
0

>  <SCORE.INTRA.VDW.0>
0

>  <SCORE.INTRA.norm>
0

>  <SCORE.RESTR>
0

>  <SCORE.RESTR.CAVITY>
0

>  <SCORE.RESTR.norm>
0

>  <SCORE.SYSTEM>
0

>  <SCORE.SYSTEM.CONST>
0

>  <SCORE.SYSTEM.DIHEDRAL>
0

>  <SCORE.SYSTEM.SOLV>
0

>  <SCORE.SYSTEM.norm>
0

>  <SCORE.heavy>
10

>  <SCORE.norm>
-1.42589

>  <RMSD>
0.326

$$$$
ligand
 OpenBabel11021811513D
libRbt.so/2013.1/901 2013/11/27
 10 11  0  0  0  0  0  0  0  0999 V2000
  -30.1267   16.8728  -14.7089 N   0  0  0  0  0  0  0  0  0  0  0  0
  -31.1080   17.7672  -14.5301 C   0  0  0  0  0  0  0  0  0  0  0  0
  -31.6590   18.5962  -15.4159 N   0  0  0  0  0  0  0  0  0  0  0  0
  -31.0931   18.4471  -16.6244 C   0  0  0  0  0  0  0  0  0  0  0  0
  -30.0757   17.5739  -16.9619 C   0  0  0  0  0  0  0  0  0  0  0  0
  -29.5782   16.7464  -15.9350 C   0  0  0  0  0  0  0  0  0  0  0  0
  -28.5978   15.8561  -16.1176 N   0  0  0  0  0  0  0  0  0  0  0  0
  -29.7490   17.6971  -18.3016 N   0  0  0  0  0  0  0  0  0  0  0  0
  -30.5613   18.6306  -18.7391 C   0  0  0  0  0  0  0  0  0  0  0  0
  -31.3994   19.1269  -17.7793 N   0  0  0  0  0  0  0  0  0  0  0  0
  1  2  2  0  0  0  0
  1  6  1  0  0  0  0
  2  3  1  0  0  0  0
  3  4  2  0  0  0  0
  4  5  1  0  0  0  0
  4 10  1  0  0  0  0
  5  6  2  0  0  0  0
  5  8  1  0  0  0  0
  6  7  1  0  0  0  0
  8  9  1  0  0  0  0
  9 10  2  0  0  0  0
M  END
>  <CHROM.1>
-30.38803439,17.72363823,-16.50778407,1.20169876,-0.74470720,1.89083568

>  <Name>
ligand

>  <RI>
0

>  <Rbt.Current_Directory>
/home/itssahil/PROJECTS/Mol_Feturizer/New_Systems/rnas/4TZX

>  <Rbt.Executable>
rbdock ($Id: //depot/dev/client3/rdock/2013.1/src/exe/rbdock.cxx#4 $)

>  <Rbt.Library>
libRbt.so (2013.1, Build901 2013/11/27)

>  <Rbt.Parameter_File>
/export/apps/rDock/src/rDock_2013.1_src/data/scripts/dock_solv.prm

>  <Rbt.Receptor>
prm/pocket_docking_3.prm

>  <SCORE>
-14.2595

>  <SCORE.INTER>
-14.2595

>  <SCORE.INTER.CONST>
1

>  <SCORE.INTER.POLAR>
0

>  <SCORE.INTER.ROT>
0

>  <SCORE.INTER.SOLV>
6.80924

>  <SCORE.INTER.VDW>
-15.3761

>  <SCORE.INTER.norm>
-1.42595

>  <SCORE.INTRA>
0

>  <SCORE.INTRA.DIHEDRAL>
0

>  <SCORE.INTRA.DIHEDRAL.0>
0

>  <SCORE.INTRA.POLAR>
0

>  <SCORE.INTRA.POLAR.0>
0

>  <SCORE.INTRA.REPUL>
0

>  <SCORE.INTRA.REPUL.0>
0

>  <SCORE.INTRA.SOLV>
0

>  <SCORE.INTRA.SOLV.lig_0>
-23.8949

>  <SCORE.INTRA.VDW>
0

>  <SCORE.INTRA.VDW.0>
0

>  <SCORE.INTRA.norm>
0

>  <SCORE.RESTR>
0

>  <SCORE.RESTR.CAVITY>
0

>  <SCORE.RESTR.norm>
0

>  <SCORE.SYSTEM>
0

>  <SCORE.SYSTEM.CONST>
0

>  <SCORE.SYSTEM.DIHEDRAL>
0

>  <SCORE.SYSTEM.SOLV>
0

>  <SCORE.SYSTEM.norm>
0

>  <SCORE.heavy>
10

>  <SCORE.norm>
-1.42595

>  <RMSD>
0.327

$$$$
ligand
 OpenBabel11021811513D
libRbt.so/2013.1/901 2013/11/27
 10 11  0  0  0  0  0  0  0  0999 V2000
  -30.1386   16.8688  -14.7101 N   0  0  0  0  0  0  0  0  0  0  0  0
  -31.1231   17.7602  -14.5346 C   0  0  0  0  0  0  0  0  0  0  0  0
  -31.6718   18.5895  -15.4217 N   0  0  0  0  0  0  0  0  0  0  0  0
  -31.0992   18.4442  -16.6274 C   0  0  0  0  0  0  0  0  0  0  0  0
  -30.0777   17.5744  -16.9613 C   0  0  0  0  0  0  0  0  0  0  0  0
  -29.5834   16.7462  -15.9335 C   0  0  0  0  0  0  0  0  0  0  0  0
  -28.5997   15.8588  -16.1128 N   0  0  0  0  0  0  0  0  0  0  0  0
  -29.7444   17.7011  -18.2991 N   0  0  0  0  0  0  0  0  0  0  0  0
  -30.5569   18.6333  -18.7390 C   0  0  0  0  0  0  0  0  0  0  0  0
  -31.4013   19.1255  -17.7826 N   0  0  0  0  0  0  0  0  0  0  0  0
  1  2  2  0  0  0  0
  1  6  1  0  0  0  0
  2  3  1  0  0  0  0
  3  4  2  0  0  0  0
  4  5  1  0  0  0  0
  4 10  1  0  0  0  0
  5  6  2  0  0  0  0
  5  8  1  0  0  0  0
  6  7  1  0  0  0  0
  8  9  1  0  0  0  0
  9 10  2  0  0  0  0
M  END
>  <CHROM.1>
-30.39281766,17.72242656,-16.50859145,1.20725301,-0.74054262,1.89656728

>  <Name>
ligand

>  <RI>
0

>  <Rbt.Current_Directory>
/home/itssahil/PROJECTS/Mol_Feturizer/New_Systems/rnas/4TZX

>  <Rbt.Executable>
rbdock ($Id: //depot/dev/client3/rdock/2013.1/src/exe/rbdock.cxx#4 $)

>  <Rbt.Library>
libRbt.so (2013.1, Build901 2013/11/27)

>  <Rbt.Parameter_File>
/export/apps/rDock/src/rDock_2013.1_src/data/scripts/dock_solv.prm

>  <Rbt.Receptor>
prm/pocket_docking_5.prm

>  <SCORE>
-14.2579

>  <SCORE.INTER>
-14.2579

>  <SCORE.INTER.CONST>
1

>  <SCORE.INTER.POLAR>
0

>  <SCORE.INTER.ROT>
0

>  <SCORE.INTER.SOLV>
6.80563

>  <SCORE.INTER.VDW>
-15.3738

>  <SCORE.INTER.norm>
-1.42579

>  <SCORE.INTRA>
0

>  <SCORE.INTRA.DIHEDRAL>
0

>  <SCORE.INTRA.DIHEDRAL.0>
0

>  <SCORE.INTRA.POLAR>
0

>  <SCORE.INTRA.POLAR.0>
0

>  <SCORE.INTRA.REPUL>
0

>  <SCORE.INTRA.REPUL.0>
0

>  <SCORE.INTRA.SOLV>
0

>  <SCORE.INTRA.SOLV.lig_0>
-23.8949

>  <SCORE.INTRA.VDW>
0

>  <SCORE.INTRA.VDW.0>
0

>  <SCORE.INTRA.norm>
0

>  <SCORE.RESTR>
0

>  <SCORE.RESTR.CAVITY>
0

>  <SCORE.RESTR.norm>
0

>  <SCORE.SYSTEM>
0

>  <SCORE.SYSTEM.CONST>
0

>  <SCORE.SYSTEM.DIHEDRAL>
0

>  <SCORE.SYSTEM.SOLV>
0

>  <SCORE.SYSTEM.norm>
0

>  <SCORE.heavy>
10

>  <SCORE.norm>
-1.42579

>  <RMSD>
0.327

$$$$
ligand
 OpenBabel11021811513D
libRbt.so/2013.1/901 2013/11/27
 10 11  0  0  0  0  0  0  0  0999 V2000
  -30.1412   16.8724  -14.7097 N   0  0  0  0  0  0  0  0  0  0  0  0
  -31.1242   17.7651  -14.5322 C   0  0  0  0  0  0  0  0  0  0  0  0
  -31.6729   18.5957  -15.4180 N   0  0  0  0  0  0  0  0  0  0  0  0
  -31.1023   18.4504  -16.6246 C   0  0  0  0  0  0  0  0  0  0  0  0
  -30.0825   17.5794  -16.9606 C   0  0  0  0  0  0  0  0  0  0  0  0
  -29.5879   16.7498  -15.9340 C   0  0  0  0  0  0  0  0  0  0  0  0
  -28.6058   15.8611  -16.1152 N   0  0  0  0  0  0  0  0  0  0  0  0
  -29.7510   17.7065  -18.2987 N   0  0  0  0  0  0  0  0  0  0  0  0
  -30.5627   18.6401  -18.7368 C   0  0  0  0  0  0  0  0  0  0  0  0
  -31.4051   19.1329  -17.7789 N   0  0  0  0  0  0  0  0  0  0  0  0
  1  2  2  0  0  0  0
  1  6  1  0  0  0  0
  2  3  1  0  0  0  0
  3  4  2  0  0  0  0
  4  5  1  0  0  0  0
  4 10  1  0  0  0  0
  5  6  2  0  0  0  0
  5  8  1  0  0  0  0
  6  7  1  0  0  0  0
  8  9  1  0  0  0  0
  9 10  2  0  0  0  0
M  END
>  <CHROM.1>
-30.39677434,17.72753832,-16.50728833,1.20602922,-0.74237809,1.89637835

>  <Name>
ligand

>  <RI>
0

>  <Rbt.Current_Directory>
/home/itssahil/PROJECTS/Mol_Feturizer/New_Systems/rnas/4TZX

>  <Rbt.Executable>
rbdock ($Id: //depot/dev/client3/rdock/2013.1/src/exe/rbdock.cxx#4 $)

>  <Rbt.Library>
libRbt.so (2013.1, Build901 2013/11/27)

>  <Rbt.Parameter_File>
/export/apps/rDock/src/rDock_2013.1_src/data/scripts/dock_solv.prm

>  <Rbt.Receptor>
prm/pocket_docking_4.prm

>  <SCORE>
-14.2544

>  <SCORE.INTER>
-14.2544

>  <SCORE.INTER.CONST>
1

>  <SCORE.INTER.POLAR>
0

>  <SCORE.INTER.ROT>
0

>  <SCORE.INTER.SOLV>
6.81753

>  <SCORE.INTER.VDW>
-15.3754

>  <SCORE.INTER.norm>
-1.42544

>  <SCORE.INTRA>
0

>  <SCORE.INTRA.DIHEDRAL>
0

>  <SCORE.INTRA.DIHEDRAL.0>
0

>  <SCORE.INTRA.POLAR>
0

>  <SCORE.INTRA.POLAR.0>
0

>  <SCORE.INTRA.REPUL>
0

>  <SCORE.INTRA.REPUL.0>
0

>  <SCORE.INTRA.SOLV>
0

>  <SCORE.INTRA.SOLV.lig_0>
-23.8949

>  <SCORE.INTRA.VDW>
0

>  <SCORE.INTRA.VDW.0>
0

>  <SCORE.INTRA.norm>
0

>  <SCORE.RESTR>
0

>  <SCORE.RESTR.CAVITY>
0

>  <SCORE.RESTR.norm>
0

>  <SCORE.SYSTEM>
0

>  <SCORE.SYSTEM.CONST>
0

>  <SCORE.SYSTEM.DIHEDRAL>
0

>  <SCORE.SYSTEM.SOLV>
0

>  <SCORE.SYSTEM.norm>
0

>  <SCORE.heavy>
10

>  <SCORE.norm>
-1.42544

>  <RMSD>
0.328

$$$$
ligand
 OpenBabel11021811513D
libRbt.so/2013.1/901 2013/11/27
 10 11  0  0  0  0  0  0  0  0999 V2000
  -30.1342   16.8698  -14.7105 N   0  0  0  0  0  0  0  0  0  0  0  0
  -31.1179   17.7619  -14.5337 C   0  0  0  0  0  0  0  0  0  0  0  0
  -31.6676   18.5911  -15.4201 N   0  0  0  0  0  0  0  0  0  0  0  0
  -31.0972   18.4450  -16.6268 C   0  0  0  0  0  0  0  0  0  0  0  0
  -30.0769   17.5744  -16.9622 C   0  0  0  0  0  0  0  0  0  0  0  0
  -29.5813   16.7463  -15.9348 C   0  0  0  0  0  0  0  0  0  0  0  0
  -28.5985   15.8582  -16.1154 N   0  0  0  0  0  0  0  0  0  0  0  0
  -29.7459   17.7003  -18.3005 N   0  0  0  0  0  0  0  0  0  0  0  0
  -30.5585   18.6328  -18.7394 C   0  0  0  0  0  0  0  0  0  0  0  0
  -31.4009   19.1260  -17.7817 N   0  0  0  0  0  0  0  0  0  0  0  0
  1  2  2  0  0  0  0
  1  6  1  0  0  0  0
  2  3  1  0  0  0  0
  3  4  2  0  0  0  0
  4  5  1  0  0  0  0
  4 10  1  0  0  0  0
  5  6  2  0  0  0  0
  5  8  1  0  0  0  0
  6  7  1  0  0  0  0
  8  9  1  0  0  0  0
  9 10  2  0  0  0  0
M  END
>  <CHROM.1>
-30.39111289,17.72280658,-16.50891901,1.20525936,-0.74171466,1.89478374

>  <Name>
ligand

>  <RI>
0

>  <Rbt.Current_Directory>
/home/itssahil/PROJECTS/Mol_Feturizer/New_Systems/rnas/4TZX

>  <Rbt.Executable>
rbdock ($Id: //depot/dev/client3/rdock/2013.1/src/exe/rbdock.cxx#4 $)

>  <Rbt.Library>
libRbt.so (2013.1, Build901 2013/11/27)

>  <Rbt.Parameter_File>
/export/apps/rDock/src/rDock_2013.1_src/data/scripts/dock_solv.prm

>  <Rbt.Receptor>
prm/pocket_docking_7.prm

>  <SCORE>
-14.2591

>  <SCORE.INTER>
-14.2591

>  <SCORE.INTER.CONST>
1

>  <SCORE.INTER.POLAR>
0

>  <SCORE.INTER.ROT>
0

>  <SCORE.INTER.SOLV>
6.80567

>  <SCORE.INTER.VDW>
-15.3747

>  <SCORE.INTER.norm>
-1.42591

>  <SCORE.INTRA>
0

>  <SCORE.INTRA.DIHEDRAL>
0

>  <SCORE.INTRA.DIHEDRAL.0>
0

>  <SCORE.INTRA.POLAR>
0

>  <SCORE.INTRA.POLAR.0>
0

>  <SCORE.INTRA.REPUL>
0

>  <SCORE.INTRA.REPUL.0>
0

>  <SCORE.INTRA.SOLV>
0

>  <SCORE.INTRA.SOLV.lig_0>
-23.8949

>  <SCORE.INTRA.VDW>
0

>  <SCORE.INTRA.VDW.0>
0

>  <SCORE.INTRA.norm>
0

>  <SCORE.RESTR>
0

>  <SCORE.RESTR.CAVITY>
0

>  <SCORE.RESTR.norm>
0

>  <SCORE.SYSTEM>
0

>  <SCORE.SYSTEM.CONST>
0

>  <SCORE.SYSTEM.DIHEDRAL>
0

>  <SCORE.SYSTEM.SOLV>
0

>  <SCORE.SYSTEM.norm>
0

>  <SCORE.heavy>
10

>  <SCORE.norm>
-1.42591

>  <RMSD>
0.328

$$$$
ligand
 OpenBabel11021811513D
libRbt.so/2013.1/901 2013/11/27
 10 11  0  0  0  0  0  0  0  0999 V2000
  -30.1492   16.8681  -14.7103 N   0  0  0  0  0  0  0  0  0  0  0  0
  -31.1384   17.7554  -14.5397 C   0  0  0  0  0  0  0  0  0  0  0  0
  -31.6855   18.5830  -15.4292 N   0  0  0  0  0  0  0  0  0  0  0  0
  -31.1056   18.4410  -16.6319 C   0  0  0  0  0  0  0  0  0  0  0  0
  -30.0788   17.5755  -16.9607 C   0  0  0  0  0  0  0  0  0  0  0  0
  -29.5867   16.7487  -15.9307 C   0  0  0  0  0  0  0  0  0  0  0  0
  -28.5985   15.8654  -16.1051 N   0  0  0  0  0  0  0  0  0  0  0  0
  -29.7386   17.7046  -18.2965 N   0  0  0  0  0  0  0  0  0  0  0  0
  -30.5524   18.6337  -18.7403 C   0  0  0  0  0  0  0  0  0  0  0  0
  -31.4041   19.1218  -17.7882 N   0  0  0  0  0  0  0  0  0  0  0  0
  1  2  2  0  0  0  0
  1  6  1  0  0  0  0
  2  3  1  0  0  0  0
  3  4  2  0  0  0  0
  4  5  1  0  0  0  0
  4 10  1  0  0  0  0
  5  6  2  0  0  0  0
  5  8  1  0  0  0  0
  6  7  1  0  0  0  0
  8  9  1  0  0  0  0
  9 10  2  0  0  0  0
M  END
>  <CHROM.1>
-30.39699621,17.72196944,-16.50961662,1.21255767,-0.73489716,1.90080767

>  <Name>
ligand

>  <RI>
0

>  <Rbt.Current_Directory>
/home/itssahil/PROJECTS/Mol_Feturizer/New_Systems/rnas/4TZX

>  <Rbt.Executable>
rbdock ($Id: //depot/dev/client3/rdock/2013.1/src/exe/rbdock.cxx#4 $)

>  <Rbt.Library>
libRbt.so (2013.1, Build901 2013/11/27)

>  <Rbt.Parameter_File>
/export/apps/rDock/src/rDock_2013.1_src/data/scripts/dock_solv.prm

>  <Rbt.Receptor>
prm/pocket_docking_7.prm

>  <SCORE>
-14.2532

>  <SCORE.INTER>
-14.2532

>  <SCORE.INTER.CONST>
1

>  <SCORE.INTER.POLAR>
0

>  <SCORE.INTER.ROT>
0

>  <SCORE.INTER.SOLV>
6.79577

>  <SCORE.INTER.VDW>
-15.3674

>  <SCORE.INTER.norm>
-1.42532

>  <SCORE.INTRA>
0

>  <SCORE.INTRA.DIHEDRAL>
0

>  <SCORE.INTRA.DIHEDRAL.0>
0

>  <SCORE.INTRA.POLAR>
0

>  <SCORE.INTRA.POLAR.0>
0

>  <SCORE.INTRA.REPUL>
0

>  <SCORE.INTRA.REPUL.0>
0

>  <SCORE.INTRA.SOLV>
0

>  <SCORE.INTRA.SOLV.lig_0>
-23.8949

>  <SCORE.INTRA.VDW>
0

>  <SCORE.INTRA.VDW.0>
0

>  <SCORE.INTRA.norm>
0

>  <SCORE.RESTR>
0

>  <SCORE.RESTR.CAVITY>
0

>  <SCORE.RESTR.norm>
0

>  <SCORE.SYSTEM>
0

>  <SCORE.SYSTEM.CONST>
0

>  <SCORE.SYSTEM.DIHEDRAL>
0

>  <SCORE.SYSTEM.SOLV>
0

>  <SCORE.SYSTEM.norm>
0

>  <SCORE.heavy>
10

>  <SCORE.norm>
-1.42532

>  <RMSD>
0.328

$$$$
ligand
 OpenBabel11021811513D
libRbt.so/2013.1/901 2013/11/27
 10 11  0  0  0  0  0  0  0  0999 V2000
  -30.1484   16.8629  -14.7175 N   0  0  0  0  0  0  0  0  0  0  0  0
  -31.1347   17.7520  -14.5405 C   0  0  0  0  0  0  0  0  0  0  0  0
  -31.6829   18.5839  -15.4254 N   0  0  0  0  0  0  0  0  0  0  0  0
  -31.1076   18.4444  -16.6305 C   0  0  0  0  0  0  0  0  0  0  0  0
  -30.0841   17.5775  -16.9658 C   0  0  0  0  0  0  0  0  0  0  0  0
  -29.5905   16.7461  -15.9402 C   0  0  0  0  0  0  0  0  0  0  0  0
  -28.6051   15.8610  -16.1210 N   0  0  0  0  0  0  0  0  0  0  0  0
  -29.7483   17.7101  -18.3024 N   0  0  0  0  0  0  0  0  0  0  0  0
  -30.5614   18.6426  -18.7402 C   0  0  0  0  0  0  0  0  0  0  0  0
  -31.4085   19.1298  -17.7836 N   0  0  0  0  0  0  0  0  0  0  0  0
  1  2  2  0  0  0  0
  1  6  1  0  0  0  0
  2  3  1  0  0  0  0
  3  4  2  0  0  0  0
  4  5  1  0  0  0  0
  4 10  1  0  0  0  0
  5  6  2  0  0  0  0
  5  8  1  0  0  0  0
  6  7  1  0  0  0  0
  8  9  1  0  0  0  0
  9 10  2  0  0  0  0
M  END
>  <CHROM.1>
-30.40034528,17.72323033,-16.51311613,1.20914879,-0.73837964,1.90179622

>  <Name>
ligand

>  <RI>
0

>  <Rbt.Current_Directory>
/home/itssahil/PROJECTS/Mol_Feturizer/New_Systems/rnas/4TZX

>  <Rbt.Executable>
rbdock ($Id: //depot/dev/client3/rdock/2013.1/src/exe/rbdock.cxx#4 $)

>  <Rbt.Library>
libRbt.so (2013.1, Build901 2013/11/27)

>  <Rbt.Parameter_File>
/export/apps/rDock/src/rDock_2013.1_src/data/scripts/dock_solv.prm

>  <Rbt.Receptor>
prm/blind_docking_80.prm

>  <SCORE>
-14.2516

>  <SCORE.INTER>
-14.2516

>  <SCORE.INTER.CONST>
1

>  <SCORE.INTER.POLAR>
0

>  <SCORE.INTER.ROT>
0

>  <SCORE.INTER.SOLV>
6.82295

>  <SCORE.INTER.VDW>
-15.3754

>  <SCORE.INTER.norm>
-1.42516

>  <SCORE.INTRA>
0

>  <SCORE.INTRA.DIHEDRAL>
0

>  <SCORE.INTRA.DIHEDRAL.0>
0

>  <SCORE.INTRA.POLAR>
0

>  <SCORE.INTRA.POLAR.0>
0

>  <SCORE.INTRA.REPUL>
0

>  <SCORE.INTRA.REPUL.0>
0

>  <SCORE.INTRA.SOLV>
0

>  <SCORE.INTRA.SOLV.lig_0>
-23.8949

>  <SCORE.INTRA.VDW>
0

>  <SCORE.INTRA.VDW.0>
0

>  <SCORE.INTRA.norm>
0

>  <SCORE.RESTR>
0

>  <SCORE.RESTR.CAVITY>
0

>  <SCORE.RESTR.norm>
0

>  <SCORE.SYSTEM>
0

>  <SCORE.SYSTEM.CONST>
0

>  <SCORE.SYSTEM.DIHEDRAL>
0

>  <SCORE.SYSTEM.SOLV>
0

>  <SCORE.SYSTEM.norm>
0

>  <SCORE.heavy>
10

>  <SCORE.norm>
-1.42516

>  <RMSD>
0.330

$$$$
ligand
 OpenBabel11021811513D
libRbt.so/2013.1/901 2013/11/27
 10 11  0  0  0  0  0  0  0  0999 V2000
  -30.1362   16.8709  -14.7045 N   0  0  0  0  0  0  0  0  0  0  0  0
  -31.1244   17.7587  -14.5311 C   0  0  0  0  0  0  0  0  0  0  0  0
  -31.6735   18.5868  -15.4190 N   0  0  0  0  0  0  0  0  0  0  0  0
  -31.0968   18.4448  -16.6232 C   0  0  0  0  0  0  0  0  0  0  0  0
  -30.0712   17.5790  -16.9549 C   0  0  0  0  0  0  0  0  0  0  0  0
  -29.5769   16.7516  -15.9264 C   0  0  0  0  0  0  0  0  0  0  0  0
  -28.5896   15.8679  -16.1037 N   0  0  0  0  0  0  0  0  0  0  0  0
  -29.7344   17.7083  -18.2916 N   0  0  0  0  0  0  0  0  0  0  0  0
  -30.5490   18.6379  -18.7329 C   0  0  0  0  0  0  0  0  0  0  0  0
  -31.3980   19.1262  -17.7785 N   0  0  0  0  0  0  0  0  0  0  0  0
  1  2  2  0  0  0  0
  1  6  1  0  0  0  0
  2  3  1  0  0  0  0
  3  4  2  0  0  0  0
  4  5  1  0  0  0  0
  4 10  1  0  0  0  0
  5  6  2  0  0  0  0
  5  8  1  0  0  0  0
  6  7  1  0  0  0  0
  8  9  1  0  0  0  0
  9 10  2  0  0  0  0
M  END
>  <CHROM.1>
-30.38820318,17.72545856,-16.50296723,1.20945458,-0.73619977,1.89902525

>  <Name>
ligand

>  <RI>
0

>  <Rbt.Current_Directory>
/home/itssahil/PROJECTS/Mol_Feturizer/New_Systems/rnas/4TZX

>  <Rbt.Executable>
rbdock ($Id: //depot/dev/client3/rdock/2013.1/src/exe/rbdock.cxx#4 $)

>  <Rbt.Library>
libRbt.so (2013.1, Build901 2013/11/27)

>  <Rbt.Parameter_File>
/export/apps/rDock/src/rDock_2013.1_src/data/scripts/dock_solv.prm

>  <Rbt.Receptor>
prm/blind_docking_60.prm

>  <SCORE>
-14.2559

>  <SCORE.INTER>
-14.2559

>  <SCORE.INTER.CONST>
1

>  <SCORE.INTER.POLAR>
0

>  <SCORE.INTER.ROT>
0

>  <SCORE.INTER.SOLV>
6.77757

>  <SCORE.INTER.VDW>
-15.3631

>  <SCORE.INTER.norm>
-1.42559

>  <SCORE.INTRA>
0

>  <SCORE.INTRA.DIHEDRAL>
0

>  <SCORE.INTRA.DIHEDRAL.0>
0

>  <SCORE.INTRA.POLAR>
0

>  <SCORE.INTRA.POLAR.0>
0

>  <SCORE.INTRA.REPUL>
0

>  <SCORE.INTRA.REPUL.0>
0

>  <SCORE.INTRA.SOLV>
0

>  <SCORE.INTRA.SOLV.lig_0>
-23.8949

>  <SCORE.INTRA.VDW>
0

>  <SCORE.INTRA.VDW.0>
0

>  <SCORE.INTRA.norm>
0

>  <SCORE.RESTR>
0

>  <SCORE.RESTR.CAVITY>
0

>  <SCORE.RESTR.norm>
0

>  <SCORE.SYSTEM>
0

>  <SCORE.SYSTEM.CONST>
0

>  <SCORE.SYSTEM.DIHEDRAL>
0

>  <SCORE.SYSTEM.SOLV>
0

>  <SCORE.SYSTEM.norm>
0

>  <SCORE.heavy>
10

>  <SCORE.norm>
-1.42559

>  <RMSD>
0.331

$$$$
ligand
 OpenBabel11021811513D
libRbt.so/2013.1/901 2013/11/27
 10 11  0  0  0  0  0  0  0  0999 V2000
  -30.1355   16.8795  -14.7068 N   0  0  0  0  0  0  0  0  0  0  0  0
  -31.1229   17.7683  -14.5337 C   0  0  0  0  0  0  0  0  0  0  0  0
  -31.6743   18.5933  -15.4229 N   0  0  0  0  0  0  0  0  0  0  0  0
  -31.1014   18.4465  -16.6284 C   0  0  0  0  0  0  0  0  0  0  0  0
  -30.0772   17.5790  -16.9600 C   0  0  0  0  0  0  0  0  0  0  0  0
  -29.5801   16.7553  -15.9299 C   0  0  0  0  0  0  0  0  0  0  0  0
  -28.5937   15.8705  -16.1069 N   0  0  0  0  0  0  0  0  0  0  0  0
  -29.7445   17.7031  -18.2982 N   0  0  0  0  0  0  0  0  0  0  0  0
  -30.5600   18.6314  -18.7405 C   0  0  0  0  0  0  0  0  0  0  0  0
  -31.4058   19.1237  -17.7854 N   0  0  0  0  0  0  0  0  0  0  0  0
  1  2  2  0  0  0  0
  1  6  1  0  0  0  0
  2  3  1  0  0  0  0
  3  4  2  0  0  0  0
  4  5  1  0  0  0  0
  4 10  1  0  0  0  0
  5  6  2  0  0  0  0
  5  8  1  0  0  0  0
  6  7  1  0  0  0  0
  8  9  1  0  0  0  0
  9 10  2  0  0  0  0
M  END
>  <CHROM.1>
-30.39272998,17.72731817,-16.50764832,1.20569902,-0.73757891,1.89273298

>  <Name>
ligand

>  <RI>
0

>  <Rbt.Current_Directory>
/home/itssahil/PROJECTS/Mol_Feturizer/New_Systems/rnas/4TZX

>  <Rbt.Executable>
rbdock ($Id: //depot/dev/client3/rdock/2013.1/src/exe/rbdock.cxx#4 $)

>  <Rbt.Library>
libRbt.so (2013.1, Build901 2013/11/27)

>  <Rbt.Parameter_File>
/export/apps/rDock/src/rDock_2013.1_src/data/scripts/dock_solv.prm

>  <Rbt.Receptor>
prm/pocket_docking_3.prm

>  <SCORE>
-14.2553

>  <SCORE.INTER>
-14.2553

>  <SCORE.INTER.CONST>
1

>  <SCORE.INTER.POLAR>
0

>  <SCORE.INTER.ROT>
0

>  <SCORE.INTER.SOLV>
6.78574

>  <SCORE.INTER.VDW>
-15.3655

>  <SCORE.INTER.norm>
-1.42553

>  <SCORE.INTRA>
0

>  <SCORE.INTRA.DIHEDRAL>
0

>  <SCORE.INTRA.DIHEDRAL.0>
0

>  <SCORE.INTRA.POLAR>
0

>  <SCORE.INTRA.POLAR.0>
0

>  <SCORE.INTRA.REPUL>
0

>  <SCORE.INTRA.REPUL.0>
0

>  <SCORE.INTRA.SOLV>
0

>  <SCORE.INTRA.SOLV.lig_0>
-23.8949

>  <SCORE.INTRA.VDW>
0

>  <SCORE.INTRA.VDW.0>
0

>  <SCORE.INTRA.norm>
0

>  <SCORE.RESTR>
0

>  <SCORE.RESTR.CAVITY>
0

>  <SCORE.RESTR.norm>
0

>  <SCORE.SYSTEM>
0

>  <SCORE.SYSTEM.CONST>
0

>  <SCORE.SYSTEM.DIHEDRAL>
0

>  <SCORE.SYSTEM.SOLV>
0

>  <SCORE.SYSTEM.norm>
0

>  <SCORE.heavy>
10

>  <SCORE.norm>
-1.42553

>  <RMSD>
0.331

$$$$
ligand
 OpenBabel11021811513D
libRbt.so/2013.1/901 2013/11/27
 10 11  0  0  0  0  0  0  0  0999 V2000
  -30.1319   16.8764  -14.7034 N   0  0  0  0  0  0  0  0  0  0  0  0
  -31.1189   17.7655  -14.5294 C   0  0  0  0  0  0  0  0  0  0  0  0
  -31.6694   18.5922  -15.4175 N   0  0  0  0  0  0  0  0  0  0  0  0
  -31.0960   18.4471  -16.6229 C   0  0  0  0  0  0  0  0  0  0  0  0
  -30.0721   17.5796  -16.9555 C   0  0  0  0  0  0  0  0  0  0  0  0
  -29.5759   16.7540  -15.9265 C   0  0  0  0  0  0  0  0  0  0  0  0
  -28.5899   15.8690  -16.1044 N   0  0  0  0  0  0  0  0  0  0  0  0
  -29.7386   17.7057  -18.2932 N   0  0  0  0  0  0  0  0  0  0  0  0
  -30.5535   18.6352  -18.7345 C   0  0  0  0  0  0  0  0  0  0  0  0
  -31.3995   19.1263  -17.7790 N   0  0  0  0  0  0  0  0  0  0  0  0
  1  2  2  0  0  0  0
  1  6  1  0  0  0  0
  2  3  1  0  0  0  0
  3  4  2  0  0  0  0
  4  5  1  0  0  0  0
  4 10  1  0  0  0  0
  5  6  2  0  0  0  0
  5  8  1  0  0  0  0
  6  7  1  0  0  0  0
  8  9  1  0  0  0  0
  9 10  2  0  0  0  0
M  END
>  <CHROM.1>
-30.38777092,17.72733173,-16.50301293,1.20656489,-0.73789673,1.89494141

>  <Name>
ligand

>  <RI>
0

>  <Rbt.Current_Directory>
/home/itssahil/PROJECTS/Mol_Feturizer/New_Systems/rnas/4TZX

>  <Rbt.Executable>
rbdock ($Id: //depot/dev/client3/rdock/2013.1/src/exe/rbdock.cxx#4 $)

>  <Rbt.Library>
libRbt.so (2013.1, Build901 2013/11/27)

>  <Rbt.Parameter_File>
/export/apps/rDock/src/rDock_2013.1_src/data/scripts/dock_solv.prm

>  <Rbt.Receptor>
prm/pocket_docking_8.prm

>  <SCORE>
-14.2563

>  <SCORE.INTER>
-14.2563

>  <SCORE.INTER.CONST>
1

>  <SCORE.INTER.POLAR>
0

>  <SCORE.INTER.ROT>
0

>  <SCORE.INTER.SOLV>
6.779

>  <SCORE.INTER.VDW>
-15.3639

>  <SCORE.INTER.norm>
-1.42563

>  <SCORE.INTRA>
0

>  <SCORE.INTRA.DIHEDRAL>
0

>  <SCORE.INTRA.DIHEDRAL.0>
0

>  <SCORE.INTRA.POLAR>
0

>  <SCORE.INTRA.POLAR.0>
0

>  <SCORE.INTRA.REPUL>
0

>  <SCORE.INTRA.REPUL.0>
0

>  <SCORE.INTRA.SOLV>
0

>  <SCORE.INTRA.SOLV.lig_0>
-23.8949

>  <SCORE.INTRA.VDW>
0

>  <SCORE.INTRA.VDW.0>
0

>  <SCORE.INTRA.norm>
0

>  <SCORE.RESTR>
0

>  <SCORE.RESTR.CAVITY>
0

>  <SCORE.RESTR.norm>
0

>  <SCORE.SYSTEM>
0

>  <SCORE.SYSTEM.CONST>
0

>  <SCORE.SYSTEM.DIHEDRAL>
0

>  <SCORE.SYSTEM.SOLV>
0

>  <SCORE.SYSTEM.norm>
0

>  <SCORE.heavy>
10

>  <SCORE.norm>
-1.42563

>  <RMSD>
0.331

$$$$
ligand
 OpenBabel11021811513D
libRbt.so/2013.1/901 2013/11/27
 10 11  0  0  0  0  0  0  0  0999 V2000
  -30.1296   16.8750  -14.7038 N   0  0  0  0  0  0  0  0  0  0  0  0
  -31.1172   17.7634  -14.5301 C   0  0  0  0  0  0  0  0  0  0  0  0
  -31.6680   18.5898  -15.4185 N   0  0  0  0  0  0  0  0  0  0  0  0
  -31.0941   18.4451  -16.6237 C   0  0  0  0  0  0  0  0  0  0  0  0
  -30.0695   17.5783  -16.9559 C   0  0  0  0  0  0  0  0  0  0  0  0
  -29.5731   16.7529  -15.9267 C   0  0  0  0  0  0  0  0  0  0  0  0
  -28.5865   15.8686  -16.1043 N   0  0  0  0  0  0  0  0  0  0  0  0
  -29.7356   17.7046  -18.2935 N   0  0  0  0  0  0  0  0  0  0  0  0
  -30.5509   18.6336  -18.7350 C   0  0  0  0  0  0  0  0  0  0  0  0
  -31.3976   19.1241  -17.7798 N   0  0  0  0  0  0  0  0  0  0  0  0
  1  2  2  0  0  0  0
  1  6  1  0  0  0  0
  2  3  1  0  0  0  0
  3  4  2  0  0  0  0
  4  5  1  0  0  0  0
  4 10  1  0  0  0  0
  5  6  2  0  0  0  0
  5  8  1  0  0  0  0
  6  7  1  0  0  0  0
  8  9  1  0  0  0  0
  9 10  2  0  0  0  0
M  END
>  <CHROM.1>
-30.38539330,17.72578857,-16.50350147,1.20673560,-0.73719231,1.89507468

>  <Name>
ligand

>  <RI>
0

>  <Rbt.Current_Directory>
/home/itssahil/PROJECTS/Mol_Feturizer/New_Systems/rnas/4TZX

>  <Rbt.Executable>
rbdock ($Id: //depot/dev/client3/rdock/2013.1/src/exe/rbdock.cxx#4 $)

>  <Rbt.Library>
libRbt.so (2013.1, Build901 2013/11/27)

>  <Rbt.Parameter_File>
/export/apps/rDock/src/rDock_2013.1_src/data/scripts/dock_solv.prm

>  <Rbt.Receptor>
prm/pocket_docking_8.prm

>  <SCORE>
-14.2572

>  <SCORE.INTER>
-14.2572

>  <SCORE.INTER.CONST>
1

>  <SCORE.INTER.POLAR>
0

>  <SCORE.INTER.ROT>
0

>  <SCORE.INTER.SOLV>
6.77406

>  <SCORE.INTER.VDW>
-15.3628

>  <SCORE.INTER.norm>
-1.42572

>  <SCORE.INTRA>
0

>  <SCORE.INTRA.DIHEDRAL>
0

>  <SCORE.INTRA.DIHEDRAL.0>
0

>  <SCORE.INTRA.POLAR>
0

>  <SCORE.INTRA.POLAR.0>
0

>  <SCORE.INTRA.REPUL>
0

>  <SCORE.INTRA.REPUL.0>
0

>  <SCORE.INTRA.SOLV>
0

>  <SCORE.INTRA.SOLV.lig_0>
-23.8949

>  <SCORE.INTRA.VDW>
0

>  <SCORE.INTRA.VDW.0>
0

>  <SCORE.INTRA.norm>
0

>  <SCORE.RESTR>
0

>  <SCORE.RESTR.CAVITY>
0

>  <SCORE.RESTR.norm>
0

>  <SCORE.SYSTEM>
0

>  <SCORE.SYSTEM.CONST>
0

>  <SCORE.SYSTEM.DIHEDRAL>
0

>  <SCORE.SYSTEM.SOLV>
0

>  <SCORE.SYSTEM.norm>
0

>  <SCORE.heavy>
10

>  <SCORE.norm>
-1.42572

>  <RMSD>
0.331

$$$$
ligand
 OpenBabel11021811513D
libRbt.so/2013.1/901 2013/11/27
 10 11  0  0  0  0  0  0  0  0999 V2000
  -30.1612   16.8603  -14.7097 N   0  0  0  0  0  0  0  0  0  0  0  0
  -31.1649   17.7321  -14.5441 C   0  0  0  0  0  0  0  0  0  0  0  0
  -31.7236   18.5477  -15.4375 N   0  0  0  0  0  0  0  0  0  0  0  0
  -31.1393   18.4108  -16.6386 C   0  0  0  0  0  0  0  0  0  0  0  0
  -30.0979   17.5610  -16.9625 C   0  0  0  0  0  0  0  0  0  0  0  0
  -29.5946   16.7458  -15.9287 C   0  0  0  0  0  0  0  0  0  0  0  0
  -28.5919   15.8780  -16.0982 N   0  0  0  0  0  0  0  0  0  0  0  0
  -29.7573   17.6909  -18.2981 N   0  0  0  0  0  0  0  0  0  0  0  0
  -30.5853   18.6052  -18.7466 C   0  0  0  0  0  0  0  0  0  0  0  0
  -31.4465   19.0827  -17.7979 N   0  0  0  0  0  0  0  0  0  0  0  0
  1  2  2  0  0  0  0
  1  6  1  0  0  0  0
  2  3  1  0  0  0  0
  3  4  2  0  0  0  0
  4  5  1  0  0  0  0
  4 10  1  0  0  0  0
  5  6  2  0  0  0  0
  5  8  1  0  0  0  0
  6  7  1  0  0  0  0
  8  9  1  0  0  0  0
  9 10  2  0  0  0  0
M  END
>  <CHROM.1>
-30.41933981,17.70382092,-16.51253224,1.20799317,-0.71897960,1.89428511

>  <Name>
ligand

>  <RI>
0

>  <Rbt.Current_Directory>
/home/itssahil/PROJECTS/Mol_Feturizer/New_Systems/rnas/4TZX

>  <Rbt.Executable>
rbdock ($Id: //depot/dev/client3/rdock/2013.1/src/exe/rbdock.cxx#4 $)

>  <Rbt.Library>
libRbt.so (2013.1, Build901 2013/11/27)

>  <Rbt.Parameter_File>
/export/apps/rDock/src/rDock_2013.1_src/data/scripts/dock_solv.prm

>  <Rbt.Receptor>
prm/pocket_docking_6.prm

>  <SCORE>
-14.2618

>  <SCORE.INTER>
-14.2618

>  <SCORE.INTER.CONST>
1

>  <SCORE.INTER.POLAR>
0

>  <SCORE.INTER.ROT>
0

>  <SCORE.INTER.SOLV>
6.76793

>  <SCORE.INTER.VDW>
-15.3639

>  <SCORE.INTER.norm>
-1.42618

>  <SCORE.INTRA>
0

>  <SCORE.INTRA.DIHEDRAL>
0

>  <SCORE.INTRA.DIHEDRAL.0>
0

>  <SCORE.INTRA.POLAR>
0

>  <SCORE.INTRA.POLAR.0>
0

>  <SCORE.INTRA.REPUL>
0

>  <SCORE.INTRA.REPUL.0>
0

>  <SCORE.INTRA.SOLV>
0

>  <SCORE.INTRA.SOLV.lig_0>
-23.8949

>  <SCORE.INTRA.VDW>
0

>  <SCORE.INTRA.VDW.0>
0

>  <SCORE.INTRA.norm>
0

>  <SCORE.RESTR>
0

>  <SCORE.RESTR.CAVITY>
0

>  <SCORE.RESTR.norm>
0

>  <SCORE.SYSTEM>
0

>  <SCORE.SYSTEM.CONST>
0

>  <SCORE.SYSTEM.DIHEDRAL>
0

>  <SCORE.SYSTEM.SOLV>
0

>  <SCORE.SYSTEM.norm>
0

>  <SCORE.heavy>
10

>  <SCORE.norm>
-1.42618

>  <RMSD>
0.336

$$$$
ligand
 OpenBabel11021811513D
libRbt.so/2013.1/901 2013/11/27
 10 11  0  0  0  0  0  0  0  0999 V2000
  -30.1596   16.9230  -14.7089 N   0  0  0  0  0  0  0  0  0  0  0  0
  -31.1491   17.8122  -14.5504 C   0  0  0  0  0  0  0  0  0  0  0  0
  -31.6951   18.6290  -15.4505 N   0  0  0  0  0  0  0  0  0  0  0  0
  -31.1136   18.4725  -16.6506 C   0  0  0  0  0  0  0  0  0  0  0  0
  -30.0862   17.6033  -16.9676 C   0  0  0  0  0  0  0  0  0  0  0  0
  -29.5955   16.7890  -15.9271 C   0  0  0  0  0  0  0  0  0  0  0  0
  -28.6069   15.9038  -16.0895 N   0  0  0  0  0  0  0  0  0  0  0  0
  -29.7442   17.7163  -18.3044 N   0  0  0  0  0  0  0  0  0  0  0  0
  -30.5576   18.6399  -18.7604 C   0  0  0  0  0  0  0  0  0  0  0  0
  -31.4106   19.1394  -17.8155 N   0  0  0  0  0  0  0  0  0  0  0  0
  1  2  2  0  0  0  0
  1  6  1  0  0  0  0
  2  3  1  0  0  0  0
  3  4  2  0  0  0  0
  4  5  1  0  0  0  0
  4 10  1  0  0  0  0
  5  6  2  0  0  0  0
  5  8  1  0  0  0  0
  6  7  1  0  0  0  0
  8  9  1  0  0  0  0
  9 10  2  0  0  0  0
M  END
>  <CHROM.1>
-30.40504169,17.75513657,-16.51876126,1.21422877,-0.73436287,1.88988705

>  <Name>
ligand

>  <RI>
0

>  <Rbt.Current_Directory>
/home/itssahil/PROJECTS/Mol_Feturizer/New_Systems/rnas/4TZX

>  <Rbt.Executable>
rbdock ($Id: //depot/dev/client3/rdock/2013.1/src/exe/rbdock.cxx#4 $)

>  <Rbt.Library>
libRbt.so (2013.1, Build901 2013/11/27)

>  <Rbt.Parameter_File>
/export/apps/rDock/src/rDock_2013.1_src/data/scripts/dock_solv.prm

>  <Rbt.Receptor>
prm/pocket_docking_8.prm

>  <SCORE>
-14.1972

>  <SCORE.INTER>
-14.1972

>  <SCORE.INTER.CONST>
1

>  <SCORE.INTER.POLAR>
0

>  <SCORE.INTER.ROT>
0

>  <SCORE.INTER.SOLV>
6.7817

>  <SCORE.INTER.VDW>
-15.3254

>  <SCORE.INTER.norm>
-1.41972

>  <SCORE.INTRA>
0

>  <SCORE.INTRA.DIHEDRAL>
0

>  <SCORE.INTRA.DIHEDRAL.0>
0

>  <SCORE.INTRA.POLAR>
0

>  <SCORE.INTRA.POLAR.0>
0

>  <SCORE.INTRA.REPUL>
0

>  <SCORE.INTRA.REPUL.0>
0

>  <SCORE.INTRA.SOLV>
0

>  <SCORE.INTRA.SOLV.lig_0>
-23.8949

>  <SCORE.INTRA.VDW>
0

>  <SCORE.INTRA.VDW.0>
0

>  <SCORE.INTRA.norm>
0

>  <SCORE.RESTR>
0

>  <SCORE.RESTR.CAVITY>
0

>  <SCORE.RESTR.norm>
0

>  <SCORE.SYSTEM>
0

>  <SCORE.SYSTEM.CONST>
0

>  <SCORE.SYSTEM.DIHEDRAL>
0

>  <SCORE.SYSTEM.SOLV>
0

>  <SCORE.SYSTEM.norm>
0

>  <SCORE.heavy>
10

>  <SCORE.norm>
-1.41972

>  <RMSD>
0.337

$$$$
ligand
 OpenBabel11021811513D
libRbt.so/2013.1/901 2013/11/27
 10 11  0  0  0  0  0  0  0  0999 V2000
  -30.0996   16.8786  -14.7464 N   0  0  0  0  0  0  0  0  0  0  0  0
  -31.0775   17.7775  -14.5715 C   0  0  0  0  0  0  0  0  0  0  0  0
  -31.6202   18.6100  -15.4592 N   0  0  0  0  0  0  0  0  0  0  0  0
  -31.0490   18.4593  -16.6650 C   0  0  0  0  0  0  0  0  0  0  0  0
  -30.0341   17.5816  -16.9984 C   0  0  0  0  0  0  0  0  0  0  0  0
  -29.5457   16.7507  -15.9699 C   0  0  0  0  0  0  0  0  0  0  0  0
  -28.5687   15.8559  -16.1486 N   0  0  0  0  0  0  0  0  0  0  0  0
  -29.7003   17.7046  -18.3364 N   0  0  0  0  0  0  0  0  0  0  0  0
  -30.5060   18.6424  -18.7769 C   0  0  0  0  0  0  0  0  0  0  0  0
  -31.3464   19.1418  -17.8207 N   0  0  0  0  0  0  0  0  0  0  0  0
  1  2  2  0  0  0  0
  1  6  1  0  0  0  0
  2  3  1  0  0  0  0
  3  4  2  0  0  0  0
  4  5  1  0  0  0  0
  4 10  1  0  0  0  0
  5  6  2  0  0  0  0
  5  8  1  0  0  0  0
  6  7  1  0  0  0  0
  8  9  1  0  0  0  0
  9 10  2  0  0  0  0
M  END
>  <CHROM.1>
-30.34802798,17.73239135,-16.54569083,1.21011205,-0.74768709,1.89755820

>  <Name>
ligand

>  <RI>
0

>  <Rbt.Current_Directory>
/home/itssahil/PROJECTS/Mol_Feturizer/New_Systems/rnas/4TZX

>  <Rbt.Executable>
rbdock ($Id: //depot/dev/client3/rdock/2013.1/src/exe/rbdock.cxx#4 $)

>  <Rbt.Library>
libRbt.so (2013.1, Build901 2013/11/27)

>  <Rbt.Parameter_File>
/export/apps/rDock/src/rDock_2013.1_src/data/scripts/dock_solv.prm

>  <Rbt.Receptor>
prm/blind_docking_100.prm

>  <SCORE>
-14.2193

>  <SCORE.INTER>
-14.2193

>  <SCORE.INTER.CONST>
1

>  <SCORE.INTER.POLAR>
0

>  <SCORE.INTER.ROT>
0

>  <SCORE.INTER.SOLV>
6.82461

>  <SCORE.INTER.VDW>
-15.3544

>  <SCORE.INTER.norm>
-1.42193

>  <SCORE.INTRA>
0

>  <SCORE.INTRA.DIHEDRAL>
0

>  <SCORE.INTRA.DIHEDRAL.0>
0

>  <SCORE.INTRA.POLAR>
0

>  <SCORE.INTRA.POLAR.0>
0

>  <SCORE.INTRA.REPUL>
0

>  <SCORE.INTRA.REPUL.0>
0

>  <SCORE.INTRA.SOLV>
0

>  <SCORE.INTRA.SOLV.lig_0>
-23.8949

>  <SCORE.INTRA.VDW>
0

>  <SCORE.INTRA.VDW.0>
0

>  <SCORE.INTRA.norm>
0

>  <SCORE.RESTR>
0

>  <SCORE.RESTR.CAVITY>
0

>  <SCORE.RESTR.norm>
0

>  <SCORE.SYSTEM>
0

>  <SCORE.SYSTEM.CONST>
0

>  <SCORE.SYSTEM.DIHEDRAL>
0

>  <SCORE.SYSTEM.SOLV>
0

>  <SCORE.SYSTEM.norm>
0

>  <SCORE.heavy>
10

>  <SCORE.norm>
-1.42193

>  <RMSD>
0.338

$$$$
ligand
 OpenBabel11021811513D
libRbt.so/2013.1/901 2013/11/27
 10 11  0  0  0  0  0  0  0  0999 V2000
  -30.1785   16.8469  -14.7177 N   0  0  0  0  0  0  0  0  0  0  0  0
  -31.1859   17.7149  -14.5550 C   0  0  0  0  0  0  0  0  0  0  0  0
  -31.7388   18.5353  -15.4476 N   0  0  0  0  0  0  0  0  0  0  0  0
  -31.1434   18.4084  -16.6444 C   0  0  0  0  0  0  0  0  0  0  0  0
  -30.0970   17.5635  -16.9649 C   0  0  0  0  0  0  0  0  0  0  0  0
  -29.6007   16.7423  -15.9323 C   0  0  0  0  0  0  0  0  0  0  0  0
  -28.5943   15.8783  -16.0989 N   0  0  0  0  0  0  0  0  0  0  0  0
  -29.7448   17.7036  -18.2964 N   0  0  0  0  0  0  0  0  0  0  0  0
  -30.5711   18.6189  -18.7459 C   0  0  0  0  0  0  0  0  0  0  0  0
  -31.4420   19.0876  -17.8016 N   0  0  0  0  0  0  0  0  0  0  0  0
  1  2  2  0  0  0  0
  1  6  1  0  0  0  0
  2  3  1  0  0  0  0
  3  4  2  0  0  0  0
  4  5  1  0  0  0  0
  4 10  1  0  0  0  0
  5  6  2  0  0  0  0
  5  8  1  0  0  0  0
  6  7  1  0  0  0  0
  8  9  1  0  0  0  0
  9 10  2  0  0  0  0
M  END
>  <CHROM.1>
-30.42274841,17.70233174,-16.51679632,1.21808969,-0.71363860,1.90793710

>  <Name>
ligand

>  <RI>
0

>  <Rbt.Current_Directory>
/home/itssahil/PROJECTS/Mol_Feturizer/New_Systems/rnas/4TZX

>  <Rbt.Executable>
rbdock ($Id: //depot/dev/client3/rdock/2013.1/src/exe/rbdock.cxx#4 $)

>  <Rbt.Library>
libRbt.so (2013.1, Build901 2013/11/27)

>  <Rbt.Parameter_File>
/export/apps/rDock/src/rDock_2013.1_src/data/scripts/dock_solv.prm

>  <Rbt.Receptor>
prm/pocket_docking_4.prm

>  <SCORE>
-14.2604

>  <SCORE.INTER>
-14.2604

>  <SCORE.INTER.CONST>
1

>  <SCORE.INTER.POLAR>
0

>  <SCORE.INTER.ROT>
0

>  <SCORE.INTER.SOLV>
6.77326

>  <SCORE.INTER.VDW>
-15.3647

>  <SCORE.INTER.norm>
-1.42604

>  <SCORE.INTRA>
0

>  <SCORE.INTRA.DIHEDRAL>
0

>  <SCORE.INTRA.DIHEDRAL.0>
0

>  <SCORE.INTRA.POLAR>
0

>  <SCORE.INTRA.POLAR.0>
0

>  <SCORE.INTRA.REPUL>
0

>  <SCORE.INTRA.REPUL.0>
0

>  <SCORE.INTRA.SOLV>
0

>  <SCORE.INTRA.SOLV.lig_0>
-23.8949

>  <SCORE.INTRA.VDW>
0

>  <SCORE.INTRA.VDW.0>
0

>  <SCORE.INTRA.norm>
0

>  <SCORE.RESTR>
0

>  <SCORE.RESTR.CAVITY>
0

>  <SCORE.RESTR.norm>
0

>  <SCORE.SYSTEM>
0

>  <SCORE.SYSTEM.CONST>
0

>  <SCORE.SYSTEM.DIHEDRAL>
0

>  <SCORE.SYSTEM.SOLV>
0

>  <SCORE.SYSTEM.norm>
0

>  <SCORE.heavy>
10

>  <SCORE.norm>
-1.42604

>  <RMSD>
0.338

$$$$
ligand
 OpenBabel11021811513D
libRbt.so/2013.1/901 2013/11/27
 10 11  0  0  0  0  0  0  0  0999 V2000
  -30.1722   16.8494  -14.7209 N   0  0  0  0  0  0  0  0  0  0  0  0
  -31.1784   17.7184  -14.5565 C   0  0  0  0  0  0  0  0  0  0  0  0
  -31.7336   18.5376  -15.4488 N   0  0  0  0  0  0  0  0  0  0  0  0
  -31.1422   18.4081  -16.6473 C   0  0  0  0  0  0  0  0  0  0  0  0
  -30.0975   17.5618  -16.9696 C   0  0  0  0  0  0  0  0  0  0  0  0
  -29.5984   16.7422  -15.9372 C   0  0  0  0  0  0  0  0  0  0  0  0
  -28.5932   15.8772  -16.1055 N   0  0  0  0  0  0  0  0  0  0  0  0
  -29.7495   17.6992  -18.3026 N   0  0  0  0  0  0  0  0  0  0  0  0
  -30.5766   18.6143  -18.7511 C   0  0  0  0  0  0  0  0  0  0  0  0
  -31.4441   19.0854  -17.8048 N   0  0  0  0  0  0  0  0  0  0  0  0
  1  2  2  0  0  0  0
  1  6  1  0  0  0  0
  2  3  1  0  0  0  0
  3  4  2  0  0  0  0
  4  5  1  0  0  0  0
  4 10  1  0  0  0  0
  5  6  2  0  0  0  0
  5  8  1  0  0  0  0
  6  7  1  0  0  0  0
  8  9  1  0  0  0  0
  9 10  2  0  0  0  0
M  END
>  <CHROM.1>
-30.42168348,17.70173363,-16.52074654,1.21432372,-0.71540342,1.90363313

>  <Name>
ligand

>  <RI>
0

>  <Rbt.Current_Directory>
/home/itssahil/PROJECTS/Mol_Feturizer/New_Systems/rnas/4TZX

>  <Rbt.Executable>
rbdock ($Id: //depot/dev/client3/rdock/2013.1/src/exe/rbdock.cxx#4 $)

>  <Rbt.Library>
libRbt.so (2013.1, Build901 2013/11/27)

>  <Rbt.Parameter_File>
/export/apps/rDock/src/rDock_2013.1_src/data/scripts/dock_solv.prm

>  <Rbt.Receptor>
prm/pocket_docking_8.prm

>  <SCORE>
-14.2634

>  <SCORE.INTER>
-14.2634

>  <SCORE.INTER.CONST>
1

>  <SCORE.INTER.POLAR>
0

>  <SCORE.INTER.ROT>
0

>  <SCORE.INTER.SOLV>
6.77693

>  <SCORE.INTER.VDW>
-15.3679

>  <SCORE.INTER.norm>
-1.42634

>  <SCORE.INTRA>
0

>  <SCORE.INTRA.DIHEDRAL>
0

>  <SCORE.INTRA.DIHEDRAL.0>
0

>  <SCORE.INTRA.POLAR>
0

>  <SCORE.INTRA.POLAR.0>
0

>  <SCORE.INTRA.REPUL>
0

>  <SCORE.INTRA.REPUL.0>
0

>  <SCORE.INTRA.SOLV>
0

>  <SCORE.INTRA.SOLV.lig_0>
-23.8949

>  <SCORE.INTRA.VDW>
0

>  <SCORE.INTRA.VDW.0>
0

>  <SCORE.INTRA.norm>
0

>  <SCORE.RESTR>
0

>  <SCORE.RESTR.CAVITY>
0

>  <SCORE.RESTR.norm>
0

>  <SCORE.SYSTEM>
0

>  <SCORE.SYSTEM.CONST>
0

>  <SCORE.SYSTEM.DIHEDRAL>
0

>  <SCORE.SYSTEM.SOLV>
0

>  <SCORE.SYSTEM.norm>
0

>  <SCORE.heavy>
10

>  <SCORE.norm>
-1.42634

>  <RMSD>
0.338

$$$$
ligand
 OpenBabel11021811513D
libRbt.so/2013.1/901 2013/11/27
 10 11  0  0  0  0  0  0  0  0999 V2000
  -30.1737   16.8530  -14.7166 N   0  0  0  0  0  0  0  0  0  0  0  0
  -31.1820   17.7202  -14.5554 C   0  0  0  0  0  0  0  0  0  0  0  0
  -31.7366   18.5375  -15.4498 N   0  0  0  0  0  0  0  0  0  0  0  0
  -31.1419   18.4082  -16.6466 C   0  0  0  0  0  0  0  0  0  0  0  0
  -30.0947   17.5638  -16.9657 C   0  0  0  0  0  0  0  0  0  0  0  0
  -29.5966   16.7460  -15.9314 C   0  0  0  0  0  0  0  0  0  0  0  0
  -28.5892   15.8829  -16.0964 N   0  0  0  0  0  0  0  0  0  0  0  0
  -29.7437   17.7008  -18.2979 N   0  0  0  0  0  0  0  0  0  0  0  0
  -30.5715   18.6139  -18.7492 C   0  0  0  0  0  0  0  0  0  0  0  0
  -31.4423   19.0840  -17.8055 N   0  0  0  0  0  0  0  0  0  0  0  0
  1  2  2  0  0  0  0
  1  6  1  0  0  0  0
  2  3  1  0  0  0  0
  3  4  2  0  0  0  0
  4  5  1  0  0  0  0
  4 10  1  0  0  0  0
  5  6  2  0  0  0  0
  5  8  1  0  0  0  0
  6  7  1  0  0  0  0
  8  9  1  0  0  0  0
  9 10  2  0  0  0  0
M  END
>  <CHROM.1>
-30.42030476,17.70340955,-16.51775391,1.21659042,-0.71269247,1.90430141

>  <Name>
ligand

>  <RI>
0

>  <Rbt.Current_Directory>
/home/itssahil/PROJECTS/Mol_Feturizer/New_Systems/rnas/4TZX

>  <Rbt.Executable>
rbdock ($Id: //depot/dev/client3/rdock/2013.1/src/exe/rbdock.cxx#4 $)

>  <Rbt.Library>
libRbt.so (2013.1, Build901 2013/11/27)

>  <Rbt.Parameter_File>
/export/apps/rDock/src/rDock_2013.1_src/data/scripts/dock_solv.prm

>  <Rbt.Receptor>
prm/pocket_docking_5.prm

>  <SCORE>
-14.263

>  <SCORE.INTER>
-14.263

>  <SCORE.INTER.CONST>
1

>  <SCORE.INTER.POLAR>
0

>  <SCORE.INTER.ROT>
0

>  <SCORE.INTER.SOLV>
6.76048

>  <SCORE.INTER.VDW>
-15.3621

>  <SCORE.INTER.norm>
-1.4263

>  <SCORE.INTRA>
0

>  <SCORE.INTRA.DIHEDRAL>
0

>  <SCORE.INTRA.DIHEDRAL.0>
0

>  <SCORE.INTRA.POLAR>
0

>  <SCORE.INTRA.POLAR.0>
0

>  <SCORE.INTRA.REPUL>
0

>  <SCORE.INTRA.REPUL.0>
0

>  <SCORE.INTRA.SOLV>
0

>  <SCORE.INTRA.SOLV.lig_0>
-23.8949

>  <SCORE.INTRA.VDW>
0

>  <SCORE.INTRA.VDW.0>
0

>  <SCORE.INTRA.norm>
0

>  <SCORE.RESTR>
0

>  <SCORE.RESTR.CAVITY>
0

>  <SCORE.RESTR.norm>
0

>  <SCORE.SYSTEM>
0

>  <SCORE.SYSTEM.CONST>
0

>  <SCORE.SYSTEM.DIHEDRAL>
0

>  <SCORE.SYSTEM.SOLV>
0

>  <SCORE.SYSTEM.norm>
0

>  <SCORE.heavy>
10

>  <SCORE.norm>
-1.4263

>  <RMSD>
0.339

$$$$
ligand
 OpenBabel11021811513D
libRbt.so/2013.1/901 2013/11/27
 10 11  0  0  0  0  0  0  0  0999 V2000
  -30.1517   16.8722  -14.7068 N   0  0  0  0  0  0  0  0  0  0  0  0
  -31.1571   17.7423  -14.5428 C   0  0  0  0  0  0  0  0  0  0  0  0
  -31.7206   18.5516  -15.4389 N   0  0  0  0  0  0  0  0  0  0  0  0
  -31.1394   18.4098  -16.6410 C   0  0  0  0  0  0  0  0  0  0  0  0
  -30.0969   17.5608  -16.9635 C   0  0  0  0  0  0  0  0  0  0  0  0
  -29.5884   16.7525  -15.9268 C   0  0  0  0  0  0  0  0  0  0  0  0
  -28.5840   15.8864  -16.0946 N   0  0  0  0  0  0  0  0  0  0  0  0
  -29.7606   17.6843  -18.3008 N   0  0  0  0  0  0  0  0  0  0  0  0
  -30.5922   18.5941  -18.7517 C   0  0  0  0  0  0  0  0  0  0  0  0
  -31.4519   19.0747  -17.8030 N   0  0  0  0  0  0  0  0  0  0  0  0
  1  2  2  0  0  0  0
  1  6  1  0  0  0  0
  2  3  1  0  0  0  0
  3  4  2  0  0  0  0
  4  5  1  0  0  0  0
  4 10  1  0  0  0  0
  5  6  2  0  0  0  0
  5  8  1  0  0  0  0
  6  7  1  0  0  0  0
  8  9  1  0  0  0  0
  9 10  2  0  0  0  0
M  END
>  <CHROM.1>
-30.41734888,17.70527167,-16.51328432,1.20316010,-0.71751965,1.88571409

>  <Name>
ligand

>  <RI>
0

>  <Rbt.Current_Directory>
/home/itssahil/PROJECTS/Mol_Feturizer/New_Systems/rnas/4TZX

>  <Rbt.Executable>
rbdock ($Id: //depot/dev/client3/rdock/2013.1/src/exe/rbdock.cxx#4 $)

>  <Rbt.Library>
libRbt.so (2013.1, Build901 2013/11/27)

>  <Rbt.Parameter_File>
/export/apps/rDock/src/rDock_2013.1_src/data/scripts/dock_solv.prm

>  <Rbt.Receptor>
prm/pocket_docking_7.prm

>  <SCORE>
-14.2587

>  <SCORE.INTER>
-14.2587

>  <SCORE.INTER.CONST>
1

>  <SCORE.INTER.POLAR>
0

>  <SCORE.INTER.ROT>
0

>  <SCORE.INTER.SOLV>
6.7502

>  <SCORE.INTER.VDW>
-15.3559

>  <SCORE.INTER.norm>
-1.42587

>  <SCORE.INTRA>
0

>  <SCORE.INTRA.DIHEDRAL>
0

>  <SCORE.INTRA.DIHEDRAL.0>
0

>  <SCORE.INTRA.POLAR>
0

>  <SCORE.INTRA.POLAR.0>
0

>  <SCORE.INTRA.REPUL>
0

>  <SCORE.INTRA.REPUL.0>
0

>  <SCORE.INTRA.SOLV>
0

>  <SCORE.INTRA.SOLV.lig_0>
-23.8949

>  <SCORE.INTRA.VDW>
0

>  <SCORE.INTRA.VDW.0>
0

>  <SCORE.INTRA.norm>
0

>  <SCORE.RESTR>
0

>  <SCORE.RESTR.CAVITY>
0

>  <SCORE.RESTR.norm>
0

>  <SCORE.SYSTEM>
0

>  <SCORE.SYSTEM.CONST>
0

>  <SCORE.SYSTEM.DIHEDRAL>
0

>  <SCORE.SYSTEM.SOLV>
0

>  <SCORE.SYSTEM.norm>
0

>  <SCORE.heavy>
10

>  <SCORE.norm>
-1.42587

>  <RMSD>
0.340

$$$$
ligand
 OpenBabel11021811513D
libRbt.so/2013.1/901 2013/11/27
 10 11  0  0  0  0  0  0  0  0999 V2000
  -30.1735   16.8528  -14.7142 N   0  0  0  0  0  0  0  0  0  0  0  0
  -31.1827   17.7190  -14.5526 C   0  0  0  0  0  0  0  0  0  0  0  0
  -31.7371   18.5372  -15.4463 N   0  0  0  0  0  0  0  0  0  0  0  0
  -31.1415   18.4099  -16.6429 C   0  0  0  0  0  0  0  0  0  0  0  0
  -30.0933   17.5667  -16.9623 C   0  0  0  0  0  0  0  0  0  0  0  0
  -29.5955   16.7479  -15.9287 C   0  0  0  0  0  0  0  0  0  0  0  0
  -28.5873   15.8857  -16.0941 N   0  0  0  0  0  0  0  0  0  0  0  0
  -29.7414   17.7058  -18.2940 N   0  0  0  0  0  0  0  0  0  0  0  0
  -30.5695   18.6189  -18.7447 C   0  0  0  0  0  0  0  0  0  0  0  0
  -31.4415   19.0871  -17.8010 N   0  0  0  0  0  0  0  0  0  0  0  0
  1  2  2  0  0  0  0
  1  6  1  0  0  0  0
  2  3  1  0  0  0  0
  3  4  2  0  0  0  0
  4  5  1  0  0  0  0
  4 10  1  0  0  0  0
  5  6  2  0  0  0  0
  5  8  1  0  0  0  0
  6  7  1  0  0  0  0
  8  9  1  0  0  0  0
  9 10  2  0  0  0  0
M  END
>  <CHROM.1>
-30.41941397,17.70547069,-16.51436556,1.21723111,-0.71173997,1.90608750

>  <Name>
ligand

>  <RI>
0

>  <Rbt.Current_Directory>
/home/itssahil/PROJECTS/Mol_Feturizer/New_Systems/rnas/4TZX

>  <Rbt.Executable>
rbdock ($Id: //depot/dev/client3/rdock/2013.1/src/exe/rbdock.cxx#4 $)

>  <Rbt.Library>
libRbt.so (2013.1, Build901 2013/11/27)

>  <Rbt.Parameter_File>
/export/apps/rDock/src/rDock_2013.1_src/data/scripts/dock_solv.prm

>  <Rbt.Receptor>
prm/pocket_docking_7.prm

>  <SCORE>
-14.2608

>  <SCORE.INTER>
-14.2608

>  <SCORE.INTER.CONST>
1

>  <SCORE.INTER.POLAR>
0

>  <SCORE.INTER.ROT>
0

>  <SCORE.INTER.SOLV>
6.75611

>  <SCORE.INTER.VDW>
-15.3592

>  <SCORE.INTER.norm>
-1.42608

>  <SCORE.INTRA>
0

>  <SCORE.INTRA.DIHEDRAL>
0

>  <SCORE.INTRA.DIHEDRAL.0>
0

>  <SCORE.INTRA.POLAR>
0

>  <SCORE.INTRA.POLAR.0>
0

>  <SCORE.INTRA.REPUL>
0

>  <SCORE.INTRA.REPUL.0>
0

>  <SCORE.INTRA.SOLV>
0

>  <SCORE.INTRA.SOLV.lig_0>
-23.8949

>  <SCORE.INTRA.VDW>
0

>  <SCORE.INTRA.VDW.0>
0

>  <SCORE.INTRA.norm>
0

>  <SCORE.RESTR>
0

>  <SCORE.RESTR.CAVITY>
0

>  <SCORE.RESTR.norm>
0

>  <SCORE.SYSTEM>
0

>  <SCORE.SYSTEM.CONST>
0

>  <SCORE.SYSTEM.DIHEDRAL>
0

>  <SCORE.SYSTEM.SOLV>
0

>  <SCORE.SYSTEM.norm>
0

>  <SCORE.heavy>
10

>  <SCORE.norm>
-1.42608

>  <RMSD>
0.340

$$$$
ligand
 OpenBabel11021811513D
libRbt.so/2013.1/901 2013/11/27
 10 11  0  0  0  0  0  0  0  0999 V2000
  -30.1663   16.8543  -14.7210 N   0  0  0  0  0  0  0  0  0  0  0  0
  -31.1739   17.7218  -14.5566 C   0  0  0  0  0  0  0  0  0  0  0  0
  -31.7320   18.5382  -15.4495 N   0  0  0  0  0  0  0  0  0  0  0  0
  -31.1422   18.4075  -16.6487 C   0  0  0  0  0  0  0  0  0  0  0  0
  -30.0964   17.5627  -16.9711 C   0  0  0  0  0  0  0  0  0  0  0  0
  -29.5942   16.7459  -15.9380 C   0  0  0  0  0  0  0  0  0  0  0  0
  -28.5876   15.8825  -16.1062 N   0  0  0  0  0  0  0  0  0  0  0  0
  -29.7508   17.6983  -18.3049 N   0  0  0  0  0  0  0  0  0  0  0  0
  -30.5803   18.6110  -18.7537 C   0  0  0  0  0  0  0  0  0  0  0  0
  -31.4473   19.0822  -17.8070 N   0  0  0  0  0  0  0  0  0  0  0  0
  1  2  2  0  0  0  0
  1  6  1  0  0  0  0
  2  3  1  0  0  0  0
  3  4  2  0  0  0  0
  4  5  1  0  0  0  0
  4 10  1  0  0  0  0
  5  6  2  0  0  0  0
  5  8  1  0  0  0  0
  6  7  1  0  0  0  0
  8  9  1  0  0  0  0
  9 10  2  0  0  0  0
M  END
>  <CHROM.1>
-30.42016748,17.70280365,-16.52198185,1.21154690,-0.71412994,1.89994664

>  <Name>
ligand

>  <RI>
0

>  <Rbt.Current_Directory>
/home/itssahil/PROJECTS/Mol_Feturizer/New_Systems/rnas/4TZX

>  <Rbt.Executable>
rbdock ($Id: //depot/dev/client3/rdock/2013.1/src/exe/rbdock.cxx#4 $)

>  <Rbt.Library>
libRbt.so (2013.1, Build901 2013/11/27)

>  <Rbt.Parameter_File>
/export/apps/rDock/src/rDock_2013.1_src/data/scripts/dock_solv.prm

>  <Rbt.Receptor>
prm/pocket_docking_4.prm

>  <SCORE>
-14.2622

>  <SCORE.INTER>
-14.2622

>  <SCORE.INTER.CONST>
1

>  <SCORE.INTER.POLAR>
0

>  <SCORE.INTER.ROT>
0

>  <SCORE.INTER.SOLV>
6.76828

>  <SCORE.INTER.VDW>
-15.3643

>  <SCORE.INTER.norm>
-1.42622

>  <SCORE.INTRA>
0

>  <SCORE.INTRA.DIHEDRAL>
0

>  <SCORE.INTRA.DIHEDRAL.0>
0

>  <SCORE.INTRA.POLAR>
0

>  <SCORE.INTRA.POLAR.0>
0

>  <SCORE.INTRA.REPUL>
0

>  <SCORE.INTRA.REPUL.0>
0

>  <SCORE.INTRA.SOLV>
0

>  <SCORE.INTRA.SOLV.lig_0>
-23.8949

>  <SCORE.INTRA.VDW>
0

>  <SCORE.INTRA.VDW.0>
0

>  <SCORE.INTRA.norm>
0

>  <SCORE.RESTR>
0

>  <SCORE.RESTR.CAVITY>
0

>  <SCORE.RESTR.norm>
0

>  <SCORE.SYSTEM>
0

>  <SCORE.SYSTEM.CONST>
0

>  <SCORE.SYSTEM.DIHEDRAL>
0

>  <SCORE.SYSTEM.SOLV>
0

>  <SCORE.SYSTEM.norm>
0

>  <SCORE.heavy>
10

>  <SCORE.norm>
-1.42622

>  <RMSD>
0.341

$$$$
ligand
 OpenBabel11021811513D
libRbt.so/2013.1/901 2013/11/27
 10 11  0  0  0  0  0  0  0  0999 V2000
  -30.1952   16.9205  -14.7993 N   0  0  0  0  0  0  0  0  0  0  0  0
  -31.1929   17.8056  -14.6729 C   0  0  0  0  0  0  0  0  0  0  0  0
  -31.7231   18.6092  -15.5941 N   0  0  0  0  0  0  0  0  0  0  0  0
  -31.1140   18.4429  -16.7790 C   0  0  0  0  0  0  0  0  0  0  0  0
  -30.0749   17.5762  -17.0633 C   0  0  0  0  0  0  0  0  0  0  0  0
  -29.6031   16.7763  -16.0030 C   0  0  0  0  0  0  0  0  0  0  0  0
  -28.6062   15.8952  -16.1334 N   0  0  0  0  0  0  0  0  0  0  0  0
  -29.7037   17.6764  -18.3933 N   0  0  0  0  0  0  0  0  0  0  0  0
  -30.5118   18.5902  -18.8776 C   0  0  0  0  0  0  0  0  0  0  0  0
  -31.3886   19.0951  -17.9576 N   0  0  0  0  0  0  0  0  0  0  0  0
  1  2  2  0  0  0  0
  1  6  1  0  0  0  0
  2  3  1  0  0  0  0
  3  4  2  0  0  0  0
  4  5  1  0  0  0  0
  4 10  1  0  0  0  0
  5  6  2  0  0  0  0
  5  8  1  0  0  0  0
  6  7  1  0  0  0  0
  8  9  1  0  0  0  0
  9 10  2  0  0  0  0
M  END
>  <CHROM.1>
-30.40460602,17.73113164,-16.62337396,1.24024849,-0.72184913,1.89609532

>  <Name>
ligand

>  <RI>
0

>  <Rbt.Current_Directory>
/home/itssahil/PROJECTS/Mol_Feturizer/New_Systems/rnas/4TZX

>  <Rbt.Executable>
rbdock ($Id: //depot/dev/client3/rdock/2013.1/src/exe/rbdock.cxx#4 $)

>  <Rbt.Library>
libRbt.so (2013.1, Build901 2013/11/27)

>  <Rbt.Parameter_File>
/export/apps/rDock/src/rDock_2013.1_src/data/scripts/dock_solv.prm

>  <Rbt.Receptor>
prm/pocket_docking_4.prm

>  <SCORE>
-14.1708

>  <SCORE.INTER>
-14.1708

>  <SCORE.INTER.CONST>
1

>  <SCORE.INTER.POLAR>
0

>  <SCORE.INTER.ROT>
0

>  <SCORE.INTER.SOLV>
6.8212

>  <SCORE.INTER.VDW>
-15.3209

>  <SCORE.INTER.norm>
-1.41708

>  <SCORE.INTRA>
0

>  <SCORE.INTRA.DIHEDRAL>
0

>  <SCORE.INTRA.DIHEDRAL.0>
0

>  <SCORE.INTRA.POLAR>
0

>  <SCORE.INTRA.POLAR.0>
0

>  <SCORE.INTRA.REPUL>
0

>  <SCORE.INTRA.REPUL.0>
0

>  <SCORE.INTRA.SOLV>
0

>  <SCORE.INTRA.SOLV.lig_0>
-23.8949

>  <SCORE.INTRA.VDW>
0

>  <SCORE.INTRA.VDW.0>
0

>  <SCORE.INTRA.norm>
0

>  <SCORE.RESTR>
0

>  <SCORE.RESTR.CAVITY>
0

>  <SCORE.RESTR.norm>
0

>  <SCORE.SYSTEM>
0

>  <SCORE.SYSTEM.CONST>
0

>  <SCORE.SYSTEM.DIHEDRAL>
0

>  <SCORE.SYSTEM.SOLV>
0

>  <SCORE.SYSTEM.norm>
0

>  <SCORE.heavy>
10

>  <SCORE.norm>
-1.41708

>  <RMSD>
0.352

$$$$
ligand
 OpenBabel11021811513D
libRbt.so/2013.1/901 2013/11/27
 10 11  0  0  0  0  0  0  0  0999 V2000
  -30.2478   16.8512  -14.7343 N   0  0  0  0  0  0  0  0  0  0  0  0
  -31.2752   17.6999  -14.5968 C   0  0  0  0  0  0  0  0  0  0  0  0
  -31.8173   18.5144  -15.5013 N   0  0  0  0  0  0  0  0  0  0  0  0
  -31.1858   18.4040  -16.6811 C   0  0  0  0  0  0  0  0  0  0  0  0
  -30.1153   17.5800  -16.9752 C   0  0  0  0  0  0  0  0  0  0  0  0
  -29.6337   16.7630  -15.9324 C   0  0  0  0  0  0  0  0  0  0  0  0
  -28.6073   15.9183  -16.0738 N   0  0  0  0  0  0  0  0  0  0  0  0
  -29.7279   17.7328  -18.2955 N   0  0  0  0  0  0  0  0  0  0  0  0
  -30.5577   18.6351  -18.7645 C   0  0  0  0  0  0  0  0  0  0  0  0
  -31.4637   19.0833  -17.8435 N   0  0  0  0  0  0  0  0  0  0  0  0
  1  2  2  0  0  0  0
  1  6  1  0  0  0  0
  2  3  1  0  0  0  0
  3  4  2  0  0  0  0
  4  5  1  0  0  0  0
  4 10  1  0  0  0  0
  5  6  2  0  0  0  0
  5  8  1  0  0  0  0
  6  7  1  0  0  0  0
  8  9  1  0  0  0  0
  9 10  2  0  0  0  0
M  END
>  <CHROM.1>
-30.45624174,17.71066902,-16.53598281,1.24504984,-0.68668625,1.92984590

>  <Name>
ligand

>  <RI>
0

>  <Rbt.Current_Directory>
/home/itssahil/PROJECTS/Mol_Feturizer/New_Systems/rnas/4TZX

>  <Rbt.Executable>
rbdock ($Id: //depot/dev/client3/rdock/2013.1/src/exe/rbdock.cxx#4 $)

>  <Rbt.Library>
libRbt.so (2013.1, Build901 2013/11/27)

>  <Rbt.Parameter_File>
/export/apps/rDock/src/rDock_2013.1_src/data/scripts/dock_solv.prm

>  <Rbt.Receptor>
prm/pocket_docking_4.prm

>  <SCORE>
-14.2317

>  <SCORE.INTER>
-14.2317

>  <SCORE.INTER.CONST>
1

>  <SCORE.INTER.POLAR>
0

>  <SCORE.INTER.ROT>
0

>  <SCORE.INTER.SOLV>
6.76079

>  <SCORE.INTER.VDW>
-15.3414

>  <SCORE.INTER.norm>
-1.42317

>  <SCORE.INTRA>
0

>  <SCORE.INTRA.DIHEDRAL>
0

>  <SCORE.INTRA.DIHEDRAL.0>
0

>  <SCORE.INTRA.POLAR>
0

>  <SCORE.INTRA.POLAR.0>
0

>  <SCORE.INTRA.REPUL>
0

>  <SCORE.INTRA.REPUL.0>
0

>  <SCORE.INTRA.SOLV>
0

>  <SCORE.INTRA.SOLV.lig_0>
-23.8949

>  <SCORE.INTRA.VDW>
0

>  <SCORE.INTRA.VDW.0>
0

>  <SCORE.INTRA.norm>
0

>  <SCORE.RESTR>
0

>  <SCORE.RESTR.CAVITY>
0

>  <SCORE.RESTR.norm>
0

>  <SCORE.SYSTEM>
0

>  <SCORE.SYSTEM.CONST>
0

>  <SCORE.SYSTEM.DIHEDRAL>
0

>  <SCORE.SYSTEM.SOLV>
0

>  <SCORE.SYSTEM.norm>
0

>  <SCORE.heavy>
10

>  <SCORE.norm>
-1.42317

>  <RMSD>
0.355

$$$$
ligand
 OpenBabel11021811513D
libRbt.so/2013.1/901 2013/11/27
 10 11  0  0  0  0  0  0  0  0999 V2000
  -30.1346   16.8759  -14.7518 N   0  0  0  0  0  0  0  0  0  0  0  0
  -31.1426   17.7428  -14.5869 C   0  0  0  0  0  0  0  0  0  0  0  0
  -31.7053   18.5550  -15.4809 N   0  0  0  0  0  0  0  0  0  0  0  0
  -31.1200   18.4203  -16.6819 C   0  0  0  0  0  0  0  0  0  0  0  0
  -30.0744   17.5754  -17.0050 C   0  0  0  0  0  0  0  0  0  0  0  0
  -29.5672   16.7634  -15.9706 C   0  0  0  0  0  0  0  0  0  0  0  0
  -28.5602   15.9005  -16.1394 N   0  0  0  0  0  0  0  0  0  0  0  0
  -29.7343   17.7061  -18.3407 N   0  0  0  0  0  0  0  0  0  0  0  0
  -30.5666   18.6160  -18.7899 C   0  0  0  0  0  0  0  0  0  0  0  0
  -31.4304   19.0899  -17.8416 N   0  0  0  0  0  0  0  0  0  0  0  0
  1  2  2  0  0  0  0
  1  6  1  0  0  0  0
  2  3  1  0  0  0  0
  3  4  2  0  0  0  0
  4  5  1  0  0  0  0
  4 10  1  0  0  0  0
  5  6  2  0  0  0  0
  5  8  1  0  0  0  0
  6  7  1  0  0  0  0
  8  9  1  0  0  0  0
  9 10  2  0  0  0  0
M  END
>  <CHROM.1>
-30.39661848,17.71694910,-16.55519922,1.20610521,-0.71422493,1.89240927

>  <Name>
ligand

>  <RI>
0

>  <Rbt.Current_Directory>
/home/itssahil/PROJECTS/Mol_Feturizer/New_Systems/rnas/4TZX

>  <Rbt.Executable>
rbdock ($Id: //depot/dev/client3/rdock/2013.1/src/exe/rbdock.cxx#4 $)

>  <Rbt.Library>
libRbt.so (2013.1, Build901 2013/11/27)

>  <Rbt.Parameter_File>
/export/apps/rDock/src/rDock_2013.1_src/data/scripts/dock_solv.prm

>  <Rbt.Receptor>
prm/pocket_docking_4.prm

>  <SCORE>
-14.2203

>  <SCORE.INTER>
-14.2203

>  <SCORE.INTER.CONST>
1

>  <SCORE.INTER.POLAR>
0

>  <SCORE.INTER.ROT>
0

>  <SCORE.INTER.SOLV>
6.76553

>  <SCORE.INTER.VDW>
-15.3354

>  <SCORE.INTER.norm>
-1.42203

>  <SCORE.INTRA>
0

>  <SCORE.INTRA.DIHEDRAL>
0

>  <SCORE.INTRA.DIHEDRAL.0>
0

>  <SCORE.INTRA.POLAR>
0

>  <SCORE.INTRA.POLAR.0>
0

>  <SCORE.INTRA.REPUL>
0

>  <SCORE.INTRA.REPUL.0>
0

>  <SCORE.INTRA.SOLV>
0

>  <SCORE.INTRA.SOLV.lig_0>
-23.8949

>  <SCORE.INTRA.VDW>
0

>  <SCORE.INTRA.VDW.0>
0

>  <SCORE.INTRA.norm>
0

>  <SCORE.RESTR>
0

>  <SCORE.RESTR.CAVITY>
0

>  <SCORE.RESTR.norm>
0

>  <SCORE.SYSTEM>
0

>  <SCORE.SYSTEM.CONST>
0

>  <SCORE.SYSTEM.DIHEDRAL>
0

>  <SCORE.SYSTEM.SOLV>
0

>  <SCORE.SYSTEM.norm>
0

>  <SCORE.heavy>
10

>  <SCORE.norm>
-1.42203

>  <RMSD>
0.356

$$$$
ligand
 OpenBabel11021811513D
libRbt.so/2013.1/901 2013/11/27
 10 11  0  0  0  0  0  0  0  0999 V2000
  -30.1483   16.8638  -14.7798 N   0  0  0  0  0  0  0  0  0  0  0  0
  -31.1523   17.7358  -14.6168 C   0  0  0  0  0  0  0  0  0  0  0  0
  -31.7022   18.5582  -15.5094 N   0  0  0  0  0  0  0  0  0  0  0  0
  -31.1077   18.4288  -16.7063 C   0  0  0  0  0  0  0  0  0  0  0  0
  -30.0647   17.5798  -17.0271 C   0  0  0  0  0  0  0  0  0  0  0  0
  -29.5713   16.7568  -15.9946 C   0  0  0  0  0  0  0  0  0  0  0  0
  -28.5683   15.8889  -16.1614 N   0  0  0  0  0  0  0  0  0  0  0  0
  -29.7124   17.7183  -18.3588 N   0  0  0  0  0  0  0  0  0  0  0  0
  -30.5352   18.6368  -18.8081 C   0  0  0  0  0  0  0  0  0  0  0  0
  -31.4040   19.1090  -17.8636 N   0  0  0  0  0  0  0  0  0  0  0  0
  1  2  2  0  0  0  0
  1  6  1  0  0  0  0
  2  3  1  0  0  0  0
  3  4  2  0  0  0  0
  4  5  1  0  0  0  0
  4 10  1  0  0  0  0
  5  6  2  0  0  0  0
  5  8  1  0  0  0  0
  6  7  1  0  0  0  0
  8  9  1  0  0  0  0
  9 10  2  0  0  0  0
M  END
>  <CHROM.1>
-30.38977712,17.71993124,-16.57889415,1.21939617,-0.71744697,1.90865014

>  <Name>
ligand

>  <RI>
0

>  <Rbt.Current_Directory>
/home/itssahil/PROJECTS/Mol_Feturizer/New_Systems/rnas/4TZX

>  <Rbt.Executable>
rbdock ($Id: //depot/dev/client3/rdock/2013.1/src/exe/rbdock.cxx#4 $)

>  <Rbt.Library>
libRbt.so (2013.1, Build901 2013/11/27)

>  <Rbt.Parameter_File>
/export/apps/rDock/src/rDock_2013.1_src/data/scripts/dock_solv.prm

>  <Rbt.Receptor>
prm/blind_docking_80.prm

>  <SCORE>
-14.1982

>  <SCORE.INTER>
-14.1982

>  <SCORE.INTER.CONST>
1

>  <SCORE.INTER.POLAR>
0

>  <SCORE.INTER.ROT>
0

>  <SCORE.INTER.SOLV>
6.80664

>  <SCORE.INTER.VDW>
-15.3343

>  <SCORE.INTER.norm>
-1.41982

>  <SCORE.INTRA>
0

>  <SCORE.INTRA.DIHEDRAL>
0

>  <SCORE.INTRA.DIHEDRAL.0>
0

>  <SCORE.INTRA.POLAR>
0

>  <SCORE.INTRA.POLAR.0>
0

>  <SCORE.INTRA.REPUL>
0

>  <SCORE.INTRA.REPUL.0>
0

>  <SCORE.INTRA.SOLV>
0

>  <SCORE.INTRA.SOLV.lig_0>
-23.8949

>  <SCORE.INTRA.VDW>
0

>  <SCORE.INTRA.VDW.0>
0

>  <SCORE.INTRA.norm>
0

>  <SCORE.RESTR>
0

>  <SCORE.RESTR.CAVITY>
0

>  <SCORE.RESTR.norm>
0

>  <SCORE.SYSTEM>
0

>  <SCORE.SYSTEM.CONST>
0

>  <SCORE.SYSTEM.DIHEDRAL>
0

>  <SCORE.SYSTEM.SOLV>
0

>  <SCORE.SYSTEM.norm>
0

>  <SCORE.heavy>
10

>  <SCORE.norm>
-1.41982

>  <RMSD>
0.357

$$$$
ligand
 OpenBabel11021811513D
libRbt.so/2013.1/901 2013/11/27
 10 11  0  0  0  0  0  0  0  0999 V2000
  -30.1392   16.8820  -14.7511 N   0  0  0  0  0  0  0  0  0  0  0  0
  -31.1393   17.7558  -14.5750 C   0  0  0  0  0  0  0  0  0  0  0  0
  -31.7018   18.5766  -15.4611 N   0  0  0  0  0  0  0  0  0  0  0  0
  -31.1261   18.4431  -16.6668 C   0  0  0  0  0  0  0  0  0  0  0  0
  -30.0894   17.5918  -17.0013 C   0  0  0  0  0  0  0  0  0  0  0  0
  -29.5812   16.7709  -15.9744 C   0  0  0  0  0  0  0  0  0  0  0  0
  -28.5822   15.9011  -16.1543 N   0  0  0  0  0  0  0  0  0  0  0  0
  -29.7576   17.7262  -18.3387 N   0  0  0  0  0  0  0  0  0  0  0  0
  -30.5860   18.6446  -18.7777 C   0  0  0  0  0  0  0  0  0  0  0  0
  -31.4394   19.1207  -17.8211 N   0  0  0  0  0  0  0  0  0  0  0  0
  1  2  2  0  0  0  0
  1  6  1  0  0  0  0
  2  3  1  0  0  0  0
  3  4  2  0  0  0  0
  4  5  1  0  0  0  0
  4 10  1  0  0  0  0
  5  6  2  0  0  0  0
  5  8  1  0  0  0  0
  6  7  1  0  0  0  0
  8  9  1  0  0  0  0
  9 10  2  0  0  0  0
M  END
>  <CHROM.1>
-30.40730780,17.73361485,-16.54856645,1.20049061,-0.72380724,1.89345935

>  <Name>
ligand

>  <RI>
0

>  <Rbt.Current_Directory>
/home/itssahil/PROJECTS/Mol_Feturizer/New_Systems/rnas/4TZX

>  <Rbt.Executable>
rbdock ($Id: //depot/dev/client3/rdock/2013.1/src/exe/rbdock.cxx#4 $)

>  <Rbt.Library>
libRbt.so (2013.1, Build901 2013/11/27)

>  <Rbt.Parameter_File>
/export/apps/rDock/src/rDock_2013.1_src/data/scripts/dock_solv.prm

>  <Rbt.Receptor>
prm/blind_docking_80.prm

>  <SCORE>
-14.171

>  <SCORE.INTER>
-14.171

>  <SCORE.INTER.CONST>
1

>  <SCORE.INTER.POLAR>
0

>  <SCORE.INTER.ROT>
0

>  <SCORE.INTER.SOLV>
6.81387

>  <SCORE.INTER.VDW>
-15.3186

>  <SCORE.INTER.norm>
-1.4171

>  <SCORE.INTRA>
0

>  <SCORE.INTRA.DIHEDRAL>
0

>  <SCORE.INTRA.DIHEDRAL.0>
0

>  <SCORE.INTRA.POLAR>
0

>  <SCORE.INTRA.POLAR.0>
0

>  <SCORE.INTRA.REPUL>
0

>  <SCORE.INTRA.REPUL.0>
0

>  <SCORE.INTRA.SOLV>
0

>  <SCORE.INTRA.SOLV.lig_0>
-23.8949

>  <SCORE.INTRA.VDW>
0

>  <SCORE.INTRA.VDW.0>
0

>  <SCORE.INTRA.norm>
0

>  <SCORE.RESTR>
0

>  <SCORE.RESTR.CAVITY>
0

>  <SCORE.RESTR.norm>
0

>  <SCORE.SYSTEM>
0

>  <SCORE.SYSTEM.CONST>
0

>  <SCORE.SYSTEM.DIHEDRAL>
0

>  <SCORE.SYSTEM.SOLV>
0

>  <SCORE.SYSTEM.norm>
0

>  <SCORE.heavy>
10

>  <SCORE.norm>
-1.4171

>  <RMSD>
0.357

$$$$
ligand
 OpenBabel11021811513D
libRbt.so/2013.1/901 2013/11/27
 10 11  0  0  0  0  0  0  0  0999 V2000
  -30.1430   16.8772  -14.7610 N   0  0  0  0  0  0  0  0  0  0  0  0
  -31.1503   17.7448  -14.5950 C   0  0  0  0  0  0  0  0  0  0  0  0
  -31.7133   18.5574  -15.4885 N   0  0  0  0  0  0  0  0  0  0  0  0
  -31.1294   18.4222  -16.6900 C   0  0  0  0  0  0  0  0  0  0  0  0
  -30.0847   17.5766  -17.0143 C   0  0  0  0  0  0  0  0  0  0  0  0
  -29.5770   16.7643  -15.9804 C   0  0  0  0  0  0  0  0  0  0  0  0
  -28.5707   15.9007  -16.1502 N   0  0  0  0  0  0  0  0  0  0  0  0
  -29.7459   17.7071  -18.3503 N   0  0  0  0  0  0  0  0  0  0  0  0
  -30.5782   18.6175  -18.7987 C   0  0  0  0  0  0  0  0  0  0  0  0
  -31.4406   19.0920  -17.8495 N   0  0  0  0  0  0  0  0  0  0  0  0
  1  2  2  0  0  0  0
  1  6  1  0  0  0  0
  2  3  1  0  0  0  0
  3  4  2  0  0  0  0
  4  5  1  0  0  0  0
  4 10  1  0  0  0  0
  5  6  2  0  0  0  0
  5  8  1  0  0  0  0
  6  7  1  0  0  0  0
  8  9  1  0  0  0  0
  9 10  2  0  0  0  0
M  END
>  <CHROM.1>
-30.40636467,17.71839106,-16.56409956,1.20505920,-0.71520726,1.89168810

>  <Name>
ligand

>  <RI>
0

>  <Rbt.Current_Directory>
/home/itssahil/PROJECTS/Mol_Feturizer/New_Systems/rnas/4TZX

>  <Rbt.Executable>
rbdock ($Id: //depot/dev/client3/rdock/2013.1/src/exe/rbdock.cxx#4 $)

>  <Rbt.Library>
libRbt.so (2013.1, Build901 2013/11/27)

>  <Rbt.Parameter_File>
/export/apps/rDock/src/rDock_2013.1_src/data/scripts/dock_solv.prm

>  <Rbt.Receptor>
prm/pocket_docking_3.prm

>  <SCORE>
-14.2162

>  <SCORE.INTER>
-14.2162

>  <SCORE.INTER.CONST>
1

>  <SCORE.INTER.POLAR>
0

>  <SCORE.INTER.ROT>
0

>  <SCORE.INTER.SOLV>
6.79161

>  <SCORE.INTER.VDW>
-15.3413

>  <SCORE.INTER.norm>
-1.42162

>  <SCORE.INTRA>
0

>  <SCORE.INTRA.DIHEDRAL>
0

>  <SCORE.INTRA.DIHEDRAL.0>
0

>  <SCORE.INTRA.POLAR>
0

>  <SCORE.INTRA.POLAR.0>
0

>  <SCORE.INTRA.REPUL>
0

>  <SCORE.INTRA.REPUL.0>
0

>  <SCORE.INTRA.SOLV>
0

>  <SCORE.INTRA.SOLV.lig_0>
-23.8949

>  <SCORE.INTRA.VDW>
0

>  <SCORE.INTRA.VDW.0>
0

>  <SCORE.INTRA.norm>
0

>  <SCORE.RESTR>
0

>  <SCORE.RESTR.CAVITY>
0

>  <SCORE.RESTR.norm>
0

>  <SCORE.SYSTEM>
0

>  <SCORE.SYSTEM.CONST>
0

>  <SCORE.SYSTEM.DIHEDRAL>
0

>  <SCORE.SYSTEM.SOLV>
0

>  <SCORE.SYSTEM.norm>
0

>  <SCORE.heavy>
10

>  <SCORE.norm>
-1.42162

>  <RMSD>
0.358

$$$$
ligand
 OpenBabel11021811513D
libRbt.so/2013.1/901 2013/11/27
 10 11  0  0  0  0  0  0  0  0999 V2000
  -30.1407   16.8801  -14.7532 N   0  0  0  0  0  0  0  0  0  0  0  0
  -31.1526   17.7435  -14.5936 C   0  0  0  0  0  0  0  0  0  0  0  0
  -31.7153   18.5517  -15.4912 N   0  0  0  0  0  0  0  0  0  0  0  0
  -31.1253   18.4167  -16.6898 C   0  0  0  0  0  0  0  0  0  0  0  0
  -30.0754   17.5753  -17.0076 C   0  0  0  0  0  0  0  0  0  0  0  0
  -29.5686   16.7673  -15.9698 C   0  0  0  0  0  0  0  0  0  0  0  0
  -28.5577   15.9080  -16.1333 N   0  0  0  0  0  0  0  0  0  0  0  0
  -29.7311   17.7045  -18.3423 N   0  0  0  0  0  0  0  0  0  0  0  0
  -30.5654   18.6103  -18.7963 C   0  0  0  0  0  0  0  0  0  0  0  0
  -31.4343   19.0828  -17.8520 N   0  0  0  0  0  0  0  0  0  0  0  0
  1  2  2  0  0  0  0
  1  6  1  0  0  0  0
  2  3  1  0  0  0  0
  3  4  2  0  0  0  0
  4  5  1  0  0  0  0
  4 10  1  0  0  0  0
  5  6  2  0  0  0  0
  5  8  1  0  0  0  0
  6  7  1  0  0  0  0
  8  9  1  0  0  0  0
  9 10  2  0  0  0  0
M  END
>  <CHROM.1>
-30.39967631,17.71646261,-16.55918357,1.20885061,-0.70947719,1.89214281

>  <Name>
ligand

>  <RI>
0

>  <Rbt.Current_Directory>
/home/itssahil/PROJECTS/Mol_Feturizer/New_Systems/rnas/4TZX

>  <Rbt.Executable>
rbdock ($Id: //depot/dev/client3/rdock/2013.1/src/exe/rbdock.cxx#4 $)

>  <Rbt.Library>
libRbt.so (2013.1, Build901 2013/11/27)

>  <Rbt.Parameter_File>
/export/apps/rDock/src/rDock_2013.1_src/data/scripts/dock_solv.prm

>  <Rbt.Receptor>
prm/pocket_docking_3.prm

>  <SCORE>
-14.218

>  <SCORE.INTER>
-14.218

>  <SCORE.INTER.CONST>
1

>  <SCORE.INTER.POLAR>
0

>  <SCORE.INTER.ROT>
0

>  <SCORE.INTER.SOLV>
6.75173

>  <SCORE.INTER.VDW>
-15.3292

>  <SCORE.INTER.norm>
-1.4218

>  <SCORE.INTRA>
0

>  <SCORE.INTRA.DIHEDRAL>
0

>  <SCORE.INTRA.DIHEDRAL.0>
0

>  <SCORE.INTRA.POLAR>
0

>  <SCORE.INTRA.POLAR.0>
0

>  <SCORE.INTRA.REPUL>
0

>  <SCORE.INTRA.REPUL.0>
0

>  <SCORE.INTRA.SOLV>
0

>  <SCORE.INTRA.SOLV.lig_0>
-23.8949

>  <SCORE.INTRA.VDW>
0

>  <SCORE.INTRA.VDW.0>
0

>  <SCORE.INTRA.norm>
0

>  <SCORE.RESTR>
0

>  <SCORE.RESTR.CAVITY>
0

>  <SCORE.RESTR.norm>
0

>  <SCORE.SYSTEM>
0

>  <SCORE.SYSTEM.CONST>
0

>  <SCORE.SYSTEM.DIHEDRAL>
0

>  <SCORE.SYSTEM.SOLV>
0

>  <SCORE.SYSTEM.norm>
0

>  <SCORE.heavy>
10

>  <SCORE.norm>
-1.4218

>  <RMSD>
0.359

$$$$
ligand
 OpenBabel11021811513D
libRbt.so/2013.1/901 2013/11/27
 10 11  0  0  0  0  0  0  0  0999 V2000
  -30.1221   16.8758  -14.7392 N   0  0  0  0  0  0  0  0  0  0  0  0
  -31.1182   17.7521  -14.5524 C   0  0  0  0  0  0  0  0  0  0  0  0
  -31.6806   18.5823  -15.4298 N   0  0  0  0  0  0  0  0  0  0  0  0
  -31.1096   18.4565  -16.6385 C   0  0  0  0  0  0  0  0  0  0  0  0
  -30.0773   17.6040  -16.9837 C   0  0  0  0  0  0  0  0  0  0  0  0
  -29.5688   16.7727  -15.9653 C   0  0  0  0  0  0  0  0  0  0  0  0
  -28.5737   15.9005  -16.1559 N   0  0  0  0  0  0  0  0  0  0  0  0
  -29.7496   17.7481  -18.3211 N   0  0  0  0  0  0  0  0  0  0  0  0
  -30.5760   18.6734  -18.7496 C   0  0  0  0  0  0  0  0  0  0  0  0
  -31.4242   19.1448  -17.7862 N   0  0  0  0  0  0  0  0  0  0  0  0
  1  2  2  0  0  0  0
  1  6  1  0  0  0  0
  2  3  1  0  0  0  0
  3  4  2  0  0  0  0
  4  5  1  0  0  0  0
  4 10  1  0  0  0  0
  5  6  2  0  0  0  0
  5  8  1  0  0  0  0
  6  7  1  0  0  0  0
  8  9  1  0  0  0  0
  9 10  2  0  0  0  0
M  END
>  <CHROM.1>
-30.39311064,17.74329627,-16.52865494,1.19775577,-0.72857995,1.89988503

>  <Name>
ligand

>  <RI>
0

>  <Rbt.Current_Directory>
/home/itssahil/PROJECTS/Mol_Feturizer/New_Systems/rnas/4TZX

>  <Rbt.Executable>
rbdock ($Id: //depot/dev/client3/rdock/2013.1/src/exe/rbdock.cxx#4 $)

>  <Rbt.Library>
libRbt.so (2013.1, Build901 2013/11/27)

>  <Rbt.Parameter_File>
/export/apps/rDock/src/rDock_2013.1_src/data/scripts/dock_solv.prm

>  <Rbt.Receptor>
prm/pocket_docking_7.prm

>  <SCORE>
-14.2288

>  <SCORE.INTER>
-14.2288

>  <SCORE.INTER.CONST>
1

>  <SCORE.INTER.POLAR>
0

>  <SCORE.INTER.ROT>
0

>  <SCORE.INTER.SOLV>
6.80868

>  <SCORE.INTER.VDW>
-15.3554

>  <SCORE.INTER.norm>
-1.42288

>  <SCORE.INTRA>
0

>  <SCORE.INTRA.DIHEDRAL>
0

>  <SCORE.INTRA.DIHEDRAL.0>
0

>  <SCORE.INTRA.POLAR>
0

>  <SCORE.INTRA.POLAR.0>
0

>  <SCORE.INTRA.REPUL>
0

>  <SCORE.INTRA.REPUL.0>
0

>  <SCORE.INTRA.SOLV>
0

>  <SCORE.INTRA.SOLV.lig_0>
-23.8949

>  <SCORE.INTRA.VDW>
0

>  <SCORE.INTRA.VDW.0>
0

>  <SCORE.INTRA.norm>
0

>  <SCORE.RESTR>
0

>  <SCORE.RESTR.CAVITY>
0

>  <SCORE.RESTR.norm>
0

>  <SCORE.SYSTEM>
0

>  <SCORE.SYSTEM.CONST>
0

>  <SCORE.SYSTEM.DIHEDRAL>
0

>  <SCORE.SYSTEM.SOLV>
0

>  <SCORE.SYSTEM.norm>
0

>  <SCORE.heavy>
10

>  <SCORE.norm>
-1.42288

>  <RMSD>
0.360

$$$$
ligand
 OpenBabel11021811513D
libRbt.so/2013.1/901 2013/11/27
 10 11  0  0  0  0  0  0  0  0999 V2000
  -30.1827   16.8969  -14.8022 N   0  0  0  0  0  0  0  0  0  0  0  0
  -31.1891   17.7699  -14.6614 C   0  0  0  0  0  0  0  0  0  0  0  0
  -31.7275   18.5829  -15.5695 N   0  0  0  0  0  0  0  0  0  0  0  0
  -31.1170   18.4418  -16.7571 C   0  0  0  0  0  0  0  0  0  0  0  0
  -30.0695   17.5902  -17.0553 C   0  0  0  0  0  0  0  0  0  0  0  0
  -29.5895   16.7780  -16.0081 C   0  0  0  0  0  0  0  0  0  0  0  0
  -28.5840   15.9091  -16.1527 N   0  0  0  0  0  0  0  0  0  0  0  0
  -29.6996   17.7156  -18.3835 N   0  0  0  0  0  0  0  0  0  0  0  0
  -30.5168   18.6290  -18.8530 C   0  0  0  0  0  0  0  0  0  0  0  0
  -31.3983   19.1102  -17.9249 N   0  0  0  0  0  0  0  0  0  0  0  0
  1  2  2  0  0  0  0
  1  6  1  0  0  0  0
  2  3  1  0  0  0  0
  3  4  2  0  0  0  0
  4  5  1  0  0  0  0
  4 10  1  0  0  0  0
  5  6  2  0  0  0  0
  5  8  1  0  0  0  0
  6  7  1  0  0  0  0
  8  9  1  0  0  0  0
  9 10  2  0  0  0  0
M  END
>  <CHROM.1>
-30.40057893,17.73473224,-16.61294114,1.23578829,-0.71252636,1.90930585

>  <Name>
ligand

>  <RI>
0

>  <Rbt.Current_Directory>
/home/itssahil/PROJECTS/Mol_Feturizer/New_Systems/rnas/4TZX

>  <Rbt.Executable>
rbdock ($Id: //depot/dev/client3/rdock/2013.1/src/exe/rbdock.cxx#4 $)

>  <Rbt.Library>
libRbt.so (2013.1, Build901 2013/11/27)

>  <Rbt.Parameter_File>
/export/apps/rDock/src/rDock_2013.1_src/data/scripts/dock_solv.prm

>  <Rbt.Receptor>
prm/pocket_docking_6.prm

>  <SCORE>
-14.2012

>  <SCORE.INTER>
-14.2012

>  <SCORE.INTER.CONST>
1

>  <SCORE.INTER.POLAR>
0

>  <SCORE.INTER.ROT>
0

>  <SCORE.INTER.SOLV>
6.81027

>  <SCORE.INTER.VDW>
-15.3376

>  <SCORE.INTER.norm>
-1.42012

>  <SCORE.INTRA>
0

>  <SCORE.INTRA.DIHEDRAL>
0

>  <SCORE.INTRA.DIHEDRAL.0>
0

>  <SCORE.INTRA.POLAR>
0

>  <SCORE.INTRA.POLAR.0>
0

>  <SCORE.INTRA.REPUL>
0

>  <SCORE.INTRA.REPUL.0>
0

>  <SCORE.INTRA.SOLV>
0

>  <SCORE.INTRA.SOLV.lig_0>
-23.8949

>  <SCORE.INTRA.VDW>
0

>  <SCORE.INTRA.VDW.0>
0

>  <SCORE.INTRA.norm>
0

>  <SCORE.RESTR>
0

>  <SCORE.RESTR.CAVITY>
0

>  <SCORE.RESTR.norm>
0

>  <SCORE.SYSTEM>
0

>  <SCORE.SYSTEM.CONST>
0

>  <SCORE.SYSTEM.DIHEDRAL>
0

>  <SCORE.SYSTEM.SOLV>
0

>  <SCORE.SYSTEM.norm>
0

>  <SCORE.heavy>
10

>  <SCORE.norm>
-1.42012

>  <RMSD>
0.364

$$$$
ligand
 OpenBabel11021811513D
libRbt.so/2013.1/901 2013/11/27
 10 11  0  0  0  0  0  0  0  0999 V2000
  -30.1238   17.0171  -14.8215 N   0  0  0  0  0  0  0  0  0  0  0  0
  -31.0561   17.9680  -14.6756 C   0  0  0  0  0  0  0  0  0  0  0  0
  -31.5637   18.7926  -15.5909 N   0  0  0  0  0  0  0  0  0  0  0  0
  -31.0081   18.5704  -16.7929 C   0  0  0  0  0  0  0  0  0  0  0  0
  -30.0388   17.6330  -17.0982 C   0  0  0  0  0  0  0  0  0  0  0  0
  -29.5844   16.8178  -16.0420 C   0  0  0  0  0  0  0  0  0  0  0  0
  -28.6528   15.8708  -16.1919 N   0  0  0  0  0  0  0  0  0  0  0  0
  -29.7078   17.6906  -18.4413 N   0  0  0  0  0  0  0  0  0  0  0  0
  -30.4702   18.6494  -18.9125 C   0  0  0  0  0  0  0  0  0  0  0  0
  -31.2796   19.2236  -17.9717 N   0  0  0  0  0  0  0  0  0  0  0  0
  1  2  2  0  0  0  0
  1  6  1  0  0  0  0
  2  3  1  0  0  0  0
  3  4  2  0  0  0  0
  4  5  1  0  0  0  0
  4 10  1  0  0  0  0
  5  6  2  0  0  0  0
  5  8  1  0  0  0  0
  6  7  1  0  0  0  0
  8  9  1  0  0  0  0
  9 10  2  0  0  0  0
M  END
>  <CHROM.1>
-30.34214793,17.81532693,-16.64998518,1.22364259,-0.79529683,1.87014309

>  <Name>
ligand

>  <RI>
0

>  <Rbt.Current_Directory>
/home/itssahil/PROJECTS/Mol_Feturizer/New_Systems/rnas/4TZX

>  <Rbt.Executable>
rbdock ($Id: //depot/dev/client3/rdock/2013.1/src/exe/rbdock.cxx#4 $)

>  <Rbt.Library>
libRbt.so (2013.1, Build901 2013/11/27)

>  <Rbt.Parameter_File>
/export/apps/rDock/src/rDock_2013.1_src/data/scripts/dock_solv.prm

>  <Rbt.Receptor>
prm/pocket_docking_4.prm

>  <SCORE>
-14.1712

>  <SCORE.INTER>
-14.1712

>  <SCORE.INTER.CONST>
1

>  <SCORE.INTER.POLAR>
0

>  <SCORE.INTER.ROT>
0

>  <SCORE.INTER.SOLV>
7.10357

>  <SCORE.INTER.VDW>
-15.4153

>  <SCORE.INTER.norm>
-1.41712

>  <SCORE.INTRA>
0

>  <SCORE.INTRA.DIHEDRAL>
0

>  <SCORE.INTRA.DIHEDRAL.0>
0

>  <SCORE.INTRA.POLAR>
0

>  <SCORE.INTRA.POLAR.0>
0

>  <SCORE.INTRA.REPUL>
0

>  <SCORE.INTRA.REPUL.0>
0

>  <SCORE.INTRA.SOLV>
0

>  <SCORE.INTRA.SOLV.lig_0>
-23.8949

>  <SCORE.INTRA.VDW>
0

>  <SCORE.INTRA.VDW.0>
0

>  <SCORE.INTRA.norm>
0

>  <SCORE.RESTR>
0

>  <SCORE.RESTR.CAVITY>
0

>  <SCORE.RESTR.norm>
0

>  <SCORE.SYSTEM>
0

>  <SCORE.SYSTEM.CONST>
0

>  <SCORE.SYSTEM.DIHEDRAL>
0

>  <SCORE.SYSTEM.SOLV>
0

>  <SCORE.SYSTEM.norm>
0

>  <SCORE.heavy>
10

>  <SCORE.norm>
-1.41712

>  <RMSD>
0.370

$$$$
ligand
 OpenBabel11021811513D
libRbt.so/2013.1/901 2013/11/27
 10 11  0  0  0  0  0  0  0  0999 V2000
  -30.1368   17.0234  -14.8207 N   0  0  0  0  0  0  0  0  0  0  0  0
  -31.0844   17.9612  -14.6893 C   0  0  0  0  0  0  0  0  0  0  0  0
  -31.5953   18.7729  -15.6144 N   0  0  0  0  0  0  0  0  0  0  0  0
  -31.0249   18.5520  -16.8096 C   0  0  0  0  0  0  0  0  0  0  0  0
  -30.0388   17.6274  -17.1001 C   0  0  0  0  0  0  0  0  0  0  0  0
  -29.5827   16.8251  -16.0347 C   0  0  0  0  0  0  0  0  0  0  0  0
  -28.6358   15.8912  -16.1701 N   0  0  0  0  0  0  0  0  0  0  0  0
  -29.6958   17.6820  -18.4403 N   0  0  0  0  0  0  0  0  0  0  0  0
  -30.4677   18.6267  -18.9245 C   0  0  0  0  0  0  0  0  0  0  0  0
  -31.2945   19.1942  -17.9948 N   0  0  0  0  0  0  0  0  0  0  0  0
  1  2  2  0  0  0  0
  1  6  1  0  0  0  0
  2  3  1  0  0  0  0
  3  4  2  0  0  0  0
  4  5  1  0  0  0  0
  4 10  1  0  0  0  0
  5  6  2  0  0  0  0
  5  8  1  0  0  0  0
  6  7  1  0  0  0  0
  8  9  1  0  0  0  0
  9 10  2  0  0  0  0
M  END
>  <CHROM.1>
-30.34922352,17.80771367,-16.65587429,1.23050790,-0.77827734,1.86913880

>  <Name>
ligand

>  <RI>
0

>  <Rbt.Current_Directory>
/home/itssahil/PROJECTS/Mol_Feturizer/New_Systems/rnas/4TZX

>  <Rbt.Executable>
rbdock ($Id: //depot/dev/client3/rdock/2013.1/src/exe/rbdock.cxx#4 $)

>  <Rbt.Library>
libRbt.so (2013.1, Build901 2013/11/27)

>  <Rbt.Parameter_File>
/export/apps/rDock/src/rDock_2013.1_src/data/scripts/dock_solv.prm

>  <Rbt.Receptor>
prm/pocket_docking_5.prm

>  <SCORE>
-14.1788

>  <SCORE.INTER>
-14.1788

>  <SCORE.INTER.CONST>
1

>  <SCORE.INTER.POLAR>
0

>  <SCORE.INTER.ROT>
0

>  <SCORE.INTER.SOLV>
6.99223

>  <SCORE.INTER.VDW>
-15.3833

>  <SCORE.INTER.norm>
-1.41788

>  <SCORE.INTRA>
0

>  <SCORE.INTRA.DIHEDRAL>
0

>  <SCORE.INTRA.DIHEDRAL.0>
0

>  <SCORE.INTRA.POLAR>
0

>  <SCORE.INTRA.POLAR.0>
0

>  <SCORE.INTRA.REPUL>
0

>  <SCORE.INTRA.REPUL.0>
0

>  <SCORE.INTRA.SOLV>
0

>  <SCORE.INTRA.SOLV.lig_0>
-23.8949

>  <SCORE.INTRA.VDW>
0

>  <SCORE.INTRA.VDW.0>
0

>  <SCORE.INTRA.norm>
0

>  <SCORE.RESTR>
0

>  <SCORE.RESTR.CAVITY>
0

>  <SCORE.RESTR.norm>
0

>  <SCORE.SYSTEM>
0

>  <SCORE.SYSTEM.CONST>
0

>  <SCORE.SYSTEM.DIHEDRAL>
0

>  <SCORE.SYSTEM.SOLV>
0

>  <SCORE.SYSTEM.norm>
0

>  <SCORE.heavy>
10

>  <SCORE.norm>
-1.41788

>  <RMSD>
0.373

$$$$
ligand
 OpenBabel11021811513D
libRbt.so/2013.1/901 2013/11/27
 10 11  0  0  0  0  0  0  0  0999 V2000
  -30.1198   16.8866  -14.7300 N   0  0  0  0  0  0  0  0  0  0  0  0
  -31.1408   17.7365  -14.5571 C   0  0  0  0  0  0  0  0  0  0  0  0
  -31.7260   18.5368  -15.4474 N   0  0  0  0  0  0  0  0  0  0  0  0
  -31.1503   18.4092  -16.6537 C   0  0  0  0  0  0  0  0  0  0  0  0
  -30.0936   17.5816  -16.9852 C   0  0  0  0  0  0  0  0  0  0  0  0
  -29.5624   16.7808  -15.9540 C   0  0  0  0  0  0  0  0  0  0  0  0
  -28.5425   15.9349  -16.1307 N   0  0  0  0  0  0  0  0  0  0  0  0
  -29.7687   17.7148  -18.3244 N   0  0  0  0  0  0  0  0  0  0  0  0
  -30.6209   18.6093  -18.7675 C   0  0  0  0  0  0  0  0  0  0  0  0
  -31.4834   19.0706  -17.8119 N   0  0  0  0  0  0  0  0  0  0  0  0
  1  2  2  0  0  0  0
  1  6  1  0  0  0  0
  2  3  1  0  0  0  0
  3  4  2  0  0  0  0
  4  5  1  0  0  0  0
  4 10  1  0  0  0  0
  5  6  2  0  0  0  0
  5  8  1  0  0  0  0
  6  7  1  0  0  0  0
  8  9  1  0  0  0  0
  9 10  2  0  0  0  0
M  END
>  <CHROM.1>
-30.41372054,17.71862856,-16.53257968,1.18690370,-0.70097000,1.87759028

>  <Name>
ligand

>  <RI>
0

>  <Rbt.Current_Directory>
/home/itssahil/PROJECTS/Mol_Feturizer/New_Systems/rnas/4TZX

>  <Rbt.Executable>
rbdock ($Id: //depot/dev/client3/rdock/2013.1/src/exe/rbdock.cxx#4 $)

>  <Rbt.Library>
libRbt.so (2013.1, Build901 2013/11/27)

>  <Rbt.Parameter_File>
/export/apps/rDock/src/rDock_2013.1_src/data/scripts/dock_solv.prm

>  <Rbt.Receptor>
prm/pocket_docking_6.prm

>  <SCORE>
-14.2331

>  <SCORE.INTER>
-14.2331

>  <SCORE.INTER.CONST>
1

>  <SCORE.INTER.POLAR>
0

>  <SCORE.INTER.ROT>
0

>  <SCORE.INTER.SOLV>
6.71709

>  <SCORE.INTER.VDW>
-15.3277

>  <SCORE.INTER.norm>
-1.42331

>  <SCORE.INTRA>
0

>  <SCORE.INTRA.DIHEDRAL>
0

>  <SCORE.INTRA.DIHEDRAL.0>
0

>  <SCORE.INTRA.POLAR>
0

>  <SCORE.INTRA.POLAR.0>
0

>  <SCORE.INTRA.REPUL>
0

>  <SCORE.INTRA.REPUL.0>
0

>  <SCORE.INTRA.SOLV>
0

>  <SCORE.INTRA.SOLV.lig_0>
-23.8949

>  <SCORE.INTRA.VDW>
0

>  <SCORE.INTRA.VDW.0>
0

>  <SCORE.INTRA.norm>
0

>  <SCORE.RESTR>
0

>  <SCORE.RESTR.CAVITY>
0

>  <SCORE.RESTR.norm>
0

>  <SCORE.SYSTEM>
0

>  <SCORE.SYSTEM.CONST>
0

>  <SCORE.SYSTEM.DIHEDRAL>
0

>  <SCORE.SYSTEM.SOLV>
0

>  <SCORE.SYSTEM.norm>
0

>  <SCORE.heavy>
10

>  <SCORE.norm>
-1.42331

>  <RMSD>
0.375

$$$$
ligand
 OpenBabel11021811513D
libRbt.so/2013.1/901 2013/11/27
 10 11  0  0  0  0  0  0  0  0999 V2000
  -30.1619   16.8701  -14.7598 N   0  0  0  0  0  0  0  0  0  0  0  0
  -31.1931   17.7114  -14.6062 C   0  0  0  0  0  0  0  0  0  0  0  0
  -31.7646   18.5109  -15.5060 N   0  0  0  0  0  0  0  0  0  0  0  0
  -31.1614   18.3928  -16.6997 C   0  0  0  0  0  0  0  0  0  0  0  0
  -30.0912   17.5747  -17.0111 C   0  0  0  0  0  0  0  0  0  0  0  0
  -29.5768   16.7737  -15.9716 C   0  0  0  0  0  0  0  0  0  0  0  0
  -28.5467   15.9364  -16.1291 N   0  0  0  0  0  0  0  0  0  0  0  0
  -29.7379   17.7161  -18.3422 N   0  0  0  0  0  0  0  0  0  0  0  0
  -30.5871   18.6058  -18.8005 C   0  0  0  0  0  0  0  0  0  0  0  0
  -31.4740   19.0565  -17.8623 N   0  0  0  0  0  0  0  0  0  0  0  0
  1  2  2  0  0  0  0
  1  6  1  0  0  0  0
  2  3  1  0  0  0  0
  3  4  2  0  0  0  0
  4  5  1  0  0  0  0
  4 10  1  0  0  0  0
  5  6  2  0  0  0  0
  5  8  1  0  0  0  0
  6  7  1  0  0  0  0
  8  9  1  0  0  0  0
  9 10  2  0  0  0  0
M  END
>  <CHROM.1>
-30.42238280,17.70742254,-16.56508228,1.21111914,-0.68675546,1.89718569

>  <Name>
ligand

>  <RI>
0

>  <Rbt.Current_Directory>
/home/itssahil/PROJECTS/Mol_Feturizer/New_Systems/rnas/4TZX

>  <Rbt.Executable>
rbdock ($Id: //depot/dev/client3/rdock/2013.1/src/exe/rbdock.cxx#4 $)

>  <Rbt.Library>
libRbt.so (2013.1, Build901 2013/11/27)

>  <Rbt.Parameter_File>
/export/apps/rDock/src/rDock_2013.1_src/data/scripts/dock_solv.prm

>  <Rbt.Receptor>
prm/pocket_docking_6.prm

>  <SCORE>
-14.2178

>  <SCORE.INTER>
-14.2178

>  <SCORE.INTER.CONST>
1

>  <SCORE.INTER.POLAR>
0

>  <SCORE.INTER.ROT>
0

>  <SCORE.INTER.SOLV>
6.71595

>  <SCORE.INTER.VDW>
-15.3172

>  <SCORE.INTER.norm>
-1.42178

>  <SCORE.INTRA>
0

>  <SCORE.INTRA.DIHEDRAL>
0

>  <SCORE.INTRA.DIHEDRAL.0>
0

>  <SCORE.INTRA.POLAR>
0

>  <SCORE.INTRA.POLAR.0>
0

>  <SCORE.INTRA.REPUL>
0

>  <SCORE.INTRA.REPUL.0>
0

>  <SCORE.INTRA.SOLV>
0

>  <SCORE.INTRA.SOLV.lig_0>
-23.8949

>  <SCORE.INTRA.VDW>
0

>  <SCORE.INTRA.VDW.0>
0

>  <SCORE.INTRA.norm>
0

>  <SCORE.RESTR>
0

>  <SCORE.RESTR.CAVITY>
0

>  <SCORE.RESTR.norm>
0

>  <SCORE.SYSTEM>
0

>  <SCORE.SYSTEM.CONST>
0

>  <SCORE.SYSTEM.DIHEDRAL>
0

>  <SCORE.SYSTEM.SOLV>
0

>  <SCORE.SYSTEM.norm>
0

>  <SCORE.heavy>
10

>  <SCORE.norm>
-1.42178

>  <RMSD>
0.377

$$$$
ligand
 OpenBabel11021811513D
libRbt.so/2013.1/901 2013/11/27
 10 11  0  0  0  0  0  0  0  0999 V2000
  -30.2331   17.0219  -14.8932 N   0  0  0  0  0  0  0  0  0  0  0  0
  -31.0689   18.0581  -14.7427 C   0  0  0  0  0  0  0  0  0  0  0  0
  -31.4885   18.9364  -15.6526 N   0  0  0  0  0  0  0  0  0  0  0  0
  -30.9506   18.6716  -16.8540 C   0  0  0  0  0  0  0  0  0  0  0  0
  -30.0757   17.6468  -17.1636 C   0  0  0  0  0  0  0  0  0  0  0  0
  -29.7089   16.7818  -16.1129 C   0  0  0  0  0  0  0  0  0  0  0  0
  -28.8734   15.7497  -16.2674 N   0  0  0  0  0  0  0  0  0  0  0  0
  -29.7333   17.6836  -18.5045 N   0  0  0  0  0  0  0  0  0  0  0  0
  -30.3958   18.7165  -18.9703 C   0  0  0  0  0  0  0  0  0  0  0  0
  -31.1505   19.3586  -18.0279 N   0  0  0  0  0  0  0  0  0  0  0  0
  1  2  2  0  0  0  0
  1  6  1  0  0  0  0
  2  3  1  0  0  0  0
  3  4  2  0  0  0  0
  4  5  1  0  0  0  0
  4 10  1  0  0  0  0
  5  6  2  0  0  0  0
  5  8  1  0  0  0  0
  6  7  1  0  0  0  0
  8  9  1  0  0  0  0
  9 10  2  0  0  0  0
M  END
>  <CHROM.1>
-30.36234164,17.85386757,-16.71510492,1.27760293,-0.88638182,1.91953010

>  <Name>
ligand

>  <RI>
0

>  <Rbt.Current_Directory>
/home/itssahil/PROJECTS/Mol_Feturizer/New_Systems/rnas/4TZX

>  <Rbt.Executable>
rbdock ($Id: //depot/dev/client3/rdock/2013.1/src/exe/rbdock.cxx#4 $)

>  <Rbt.Library>
libRbt.so (2013.1, Build901 2013/11/27)

>  <Rbt.Parameter_File>
/export/apps/rDock/src/rDock_2013.1_src/data/scripts/dock_solv.prm

>  <Rbt.Receptor>
prm/pocket_docking_6.prm

>  <SCORE>
-14.3487

>  <SCORE.INTER>
-14.3487

>  <SCORE.INTER.CONST>
1

>  <SCORE.INTER.POLAR>
0

>  <SCORE.INTER.ROT>
0

>  <SCORE.INTER.SOLV>
7.94845

>  <SCORE.INTER.VDW>
-15.8153

>  <SCORE.INTER.norm>
-1.43487

>  <SCORE.INTRA>
0

>  <SCORE.INTRA.DIHEDRAL>
0

>  <SCORE.INTRA.DIHEDRAL.0>
0

>  <SCORE.INTRA.POLAR>
0

>  <SCORE.INTRA.POLAR.0>
0

>  <SCORE.INTRA.REPUL>
0

>  <SCORE.INTRA.REPUL.0>
0

>  <SCORE.INTRA.SOLV>
0

>  <SCORE.INTRA.SOLV.lig_0>
-23.8949

>  <SCORE.INTRA.VDW>
0

>  <SCORE.INTRA.VDW.0>
0

>  <SCORE.INTRA.norm>
0

>  <SCORE.RESTR>
0

>  <SCORE.RESTR.CAVITY>
0

>  <SCORE.RESTR.norm>
0

>  <SCORE.SYSTEM>
0

>  <SCORE.SYSTEM.CONST>
0

>  <SCORE.SYSTEM.DIHEDRAL>
0

>  <SCORE.SYSTEM.SOLV>
0

>  <SCORE.SYSTEM.norm>
0

>  <SCORE.heavy>
10

>  <SCORE.norm>
-1.43487

>  <RMSD>
0.379

$$$$
ligand
 OpenBabel11021811513D
libRbt.so/2013.1/901 2013/11/27
 10 11  0  0  0  0  0  0  0  0999 V2000
  -30.2128   17.0151  -14.8993 N   0  0  0  0  0  0  0  0  0  0  0  0
  -31.0469   18.0513  -14.7399 C   0  0  0  0  0  0  0  0  0  0  0  0
  -31.4732   18.9319  -15.6445 N   0  0  0  0  0  0  0  0  0  0  0  0
  -30.9450   18.6695  -16.8508 C   0  0  0  0  0  0  0  0  0  0  0  0
  -30.0732   17.6449  -17.1695 C   0  0  0  0  0  0  0  0  0  0  0  0
  -29.6985   16.7774  -16.1237 C   0  0  0  0  0  0  0  0  0  0  0  0
  -28.8648   15.7452  -16.2870 N   0  0  0  0  0  0  0  0  0  0  0  0
  -29.7414   17.6845  -18.5130 N   0  0  0  0  0  0  0  0  0  0  0  0
  -30.4071   18.7187  -18.9713 C   0  0  0  0  0  0  0  0  0  0  0  0
  -31.1539   19.3591  -18.0215 N   0  0  0  0  0  0  0  0  0  0  0  0
  1  2  2  0  0  0  0
  1  6  1  0  0  0  0
  2  3  1  0  0  0  0
  3  4  2  0  0  0  0
  4  5  1  0  0  0  0
  4 10  1  0  0  0  0
  5  6  2  0  0  0  0
  5  8  1  0  0  0  0
  6  7  1  0  0  0  0
  8  9  1  0  0  0  0
  9 10  2  0  0  0  0
M  END
>  <CHROM.1>
-30.35610714,17.85111724,-16.71828602,1.26600368,-0.88956432,1.91271705

>  <Name>
ligand

>  <RI>
0

>  <Rbt.Current_Directory>
/home/itssahil/PROJECTS/Mol_Feturizer/New_Systems/rnas/4TZX

>  <Rbt.Executable>
rbdock ($Id: //depot/dev/client3/rdock/2013.1/src/exe/rbdock.cxx#4 $)

>  <Rbt.Library>
libRbt.so (2013.1, Build901 2013/11/27)

>  <Rbt.Parameter_File>
/export/apps/rDock/src/rDock_2013.1_src/data/scripts/dock_solv.prm

>  <Rbt.Receptor>
prm/blind_docking_60.prm

>  <SCORE>
-14.3843

>  <SCORE.INTER>
-14.3843

>  <SCORE.INTER.CONST>
1

>  <SCORE.INTER.POLAR>
0

>  <SCORE.INTER.ROT>
0

>  <SCORE.INTER.SOLV>
7.95283

>  <SCORE.INTER.VDW>
-15.8405

>  <SCORE.INTER.norm>
-1.43843

>  <SCORE.INTRA>
0

>  <SCORE.INTRA.DIHEDRAL>
0

>  <SCORE.INTRA.DIHEDRAL.0>
0

>  <SCORE.INTRA.POLAR>
0

>  <SCORE.INTRA.POLAR.0>
0

>  <SCORE.INTRA.REPUL>
0

>  <SCORE.INTRA.REPUL.0>
0

>  <SCORE.INTRA.SOLV>
0

>  <SCORE.INTRA.SOLV.lig_0>
-23.8949

>  <SCORE.INTRA.VDW>
0

>  <SCORE.INTRA.VDW.0>
0

>  <SCORE.INTRA.norm>
0

>  <SCORE.RESTR>
0

>  <SCORE.RESTR.CAVITY>
0

>  <SCORE.RESTR.norm>
0

>  <SCORE.SYSTEM>
0

>  <SCORE.SYSTEM.CONST>
0

>  <SCORE.SYSTEM.DIHEDRAL>
0

>  <SCORE.SYSTEM.SOLV>
0

>  <SCORE.SYSTEM.norm>
0

>  <SCORE.heavy>
10

>  <SCORE.norm>
-1.43843

>  <RMSD>
0.383

$$$$
ligand
 OpenBabel11021811513D
libRbt.so/2013.1/901 2013/11/27
 10 11  0  0  0  0  0  0  0  0999 V2000
  -30.1999   17.0121  -14.8995 N   0  0  0  0  0  0  0  0  0  0  0  0
  -31.0325   18.0489  -14.7362 C   0  0  0  0  0  0  0  0  0  0  0  0
  -31.4617   18.9303  -15.6386 N   0  0  0  0  0  0  0  0  0  0  0  0
  -30.9385   18.6682  -16.8471 C   0  0  0  0  0  0  0  0  0  0  0  0
  -30.0687   17.6431  -17.1699 C   0  0  0  0  0  0  0  0  0  0  0  0
  -29.6906   16.7747  -16.1260 C   0  0  0  0  0  0  0  0  0  0  0  0
  -28.8583   15.7420  -16.2933 N   0  0  0  0  0  0  0  0  0  0  0  0
  -29.7422   17.6833  -18.5147 N   0  0  0  0  0  0  0  0  0  0  0  0
  -30.4088   18.7183  -18.9697 C   0  0  0  0  0  0  0  0  0  0  0  0
  -31.1513   19.3587  -18.0165 N   0  0  0  0  0  0  0  0  0  0  0  0
  1  2  2  0  0  0  0
  1  6  1  0  0  0  0
  2  3  1  0  0  0  0
  3  4  2  0  0  0  0
  4  5  1  0  0  0  0
  4 10  1  0  0  0  0
  5  6  2  0  0  0  0
  5  8  1  0  0  0  0
  6  7  1  0  0  0  0
  8  9  1  0  0  0  0
  9 10  2  0  0  0  0
M  END
>  <CHROM.1>
-30.34968223,17.84931518,-16.71742243,1.26054330,-0.89161916,1.90908906

>  <Name>
ligand

>  <RI>
0

>  <Rbt.Current_Directory>
/home/itssahil/PROJECTS/Mol_Feturizer/New_Systems/rnas/4TZX

>  <Rbt.Executable>
rbdock ($Id: //depot/dev/client3/rdock/2013.1/src/exe/rbdock.cxx#4 $)

>  <Rbt.Library>
libRbt.so (2013.1, Build901 2013/11/27)

>  <Rbt.Parameter_File>
/export/apps/rDock/src/rDock_2013.1_src/data/scripts/dock_solv.prm

>  <Rbt.Receptor>
prm/pocket_docking_5.prm

>  <SCORE>
-14.3842

>  <SCORE.INTER>
-14.3842

>  <SCORE.INTER.CONST>
1

>  <SCORE.INTER.POLAR>
0

>  <SCORE.INTER.ROT>
0

>  <SCORE.INTER.SOLV>
7.95008

>  <SCORE.INTER.VDW>
-15.8395

>  <SCORE.INTER.norm>
-1.43842

>  <SCORE.INTRA>
0

>  <SCORE.INTRA.DIHEDRAL>
0

>  <SCORE.INTRA.DIHEDRAL.0>
0

>  <SCORE.INTRA.POLAR>
0

>  <SCORE.INTRA.POLAR.0>
0

>  <SCORE.INTRA.REPUL>
0

>  <SCORE.INTRA.REPUL.0>
0

>  <SCORE.INTRA.SOLV>
0

>  <SCORE.INTRA.SOLV.lig_0>
-23.8949

>  <SCORE.INTRA.VDW>
0

>  <SCORE.INTRA.VDW.0>
0

>  <SCORE.INTRA.norm>
0

>  <SCORE.RESTR>
0

>  <SCORE.RESTR.CAVITY>
0

>  <SCORE.RESTR.norm>
0

>  <SCORE.SYSTEM>
0

>  <SCORE.SYSTEM.CONST>
0

>  <SCORE.SYSTEM.DIHEDRAL>
0

>  <SCORE.SYSTEM.SOLV>
0

>  <SCORE.SYSTEM.norm>
0

>  <SCORE.heavy>
10

>  <SCORE.norm>
-1.43842

>  <RMSD>
0.384

$$$$
ligand
 OpenBabel11021811513D
libRbt.so/2013.1/901 2013/11/27
 10 11  0  0  0  0  0  0  0  0999 V2000
  -30.1847   17.0391  -14.8809 N   0  0  0  0  0  0  0  0  0  0  0  0
  -31.0320   18.0655  -14.7281 C   0  0  0  0  0  0  0  0  0  0  0  0
  -31.4703   18.9341  -15.6386 N   0  0  0  0  0  0  0  0  0  0  0  0
  -30.9394   18.6703  -16.8433 C   0  0  0  0  0  0  0  0  0  0  0  0
  -30.0545   17.6549  -17.1555 C   0  0  0  0  0  0  0  0  0  0  0  0
  -29.6680   16.7996  -16.1039 C   0  0  0  0  0  0  0  0  0  0  0  0
  -28.8211   15.7772  -16.2607 N   0  0  0  0  0  0  0  0  0  0  0  0
  -29.7240   17.6895  -18.4995 N   0  0  0  0  0  0  0  0  0  0  0  0
  -30.4033   18.7118  -18.9644 C   0  0  0  0  0  0  0  0  0  0  0  0
  -31.1578   19.3490  -18.0186 N   0  0  0  0  0  0  0  0  0  0  0  0
  1  2  2  0  0  0  0
  1  6  1  0  0  0  0
  2  3  1  0  0  0  0
  3  4  2  0  0  0  0
  4  5  1  0  0  0  0
  4 10  1  0  0  0  0
  5  6  2  0  0  0  0
  5  8  1  0  0  0  0
  6  7  1  0  0  0  0
  8  9  1  0  0  0  0
  9 10  2  0  0  0  0
M  END
>  <CHROM.1>
-30.33984382,17.86054794,-16.70554719,1.25839568,-0.87752031,1.89993692

>  <Name>
ligand

>  <RI>
0

>  <Rbt.Current_Directory>
/home/itssahil/PROJECTS/Mol_Feturizer/New_Systems/rnas/4TZX

>  <Rbt.Executable>
rbdock ($Id: //depot/dev/client3/rdock/2013.1/src/exe/rbdock.cxx#4 $)

>  <Rbt.Library>
libRbt.so (2013.1, Build901 2013/11/27)

>  <Rbt.Parameter_File>
/export/apps/rDock/src/rDock_2013.1_src/data/scripts/dock_solv.prm

>  <Rbt.Receptor>
prm/pocket_docking_5.prm

>  <SCORE>
-14.3666

>  <SCORE.INTER>
-14.3711

>  <SCORE.INTER.CONST>
1

>  <SCORE.INTER.POLAR>
0

>  <SCORE.INTER.ROT>
0

>  <SCORE.INTER.SOLV>
7.77974

>  <SCORE.INTER.VDW>
-15.774

>  <SCORE.INTER.norm>
-1.43711

>  <SCORE.INTRA>
0

>  <SCORE.INTRA.DIHEDRAL>
0

>  <SCORE.INTRA.DIHEDRAL.0>
0

>  <SCORE.INTRA.POLAR>
0

>  <SCORE.INTRA.POLAR.0>
0

>  <SCORE.INTRA.REPUL>
0

>  <SCORE.INTRA.REPUL.0>
0

>  <SCORE.INTRA.SOLV>
0

>  <SCORE.INTRA.SOLV.lig_0>
-23.8949

>  <SCORE.INTRA.VDW>
0

>  <SCORE.INTRA.VDW.0>
0

>  <SCORE.INTRA.norm>
0

>  <SCORE.RESTR>
0.00449447

>  <SCORE.RESTR.CAVITY>
0.00449447

>  <SCORE.RESTR.norm>
0.000449447

>  <SCORE.SYSTEM>
0

>  <SCORE.SYSTEM.CONST>
0

>  <SCORE.SYSTEM.DIHEDRAL>
0

>  <SCORE.SYSTEM.SOLV>
0

>  <SCORE.SYSTEM.norm>
0

>  <SCORE.heavy>
10

>  <SCORE.norm>
-1.43666

>  <RMSD>
0.388

$$$$
ligand
 OpenBabel11021811513D
libRbt.so/2013.1/901 2013/11/27
 10 11  0  0  0  0  0  0  0  0999 V2000
  -30.1864   17.0483  -14.8780 N   0  0  0  0  0  0  0  0  0  0  0  0
  -31.0357   18.0717  -14.7162 C   0  0  0  0  0  0  0  0  0  0  0  0
  -31.4838   18.9409  -15.6213 N   0  0  0  0  0  0  0  0  0  0  0  0
  -30.9616   18.6814  -16.8307 C   0  0  0  0  0  0  0  0  0  0  0  0
  -30.0760   17.6695  -17.1521 C   0  0  0  0  0  0  0  0  0  0  0  0
  -29.6786   16.8131  -16.1055 C   0  0  0  0  0  0  0  0  0  0  0  0
  -28.8297   15.7938  -16.2712 N   0  0  0  0  0  0  0  0  0  0  0  0
  -29.7562   17.7081  -18.4986 N   0  0  0  0  0  0  0  0  0  0  0  0
  -30.4423   18.7292  -18.9559 C   0  0  0  0  0  0  0  0  0  0  0  0
  -31.1914   19.3620  -18.0028 N   0  0  0  0  0  0  0  0  0  0  0  0
  1  2  2  0  0  0  0
  1  6  1  0  0  0  0
  2  3  1  0  0  0  0
  3  4  2  0  0  0  0
  4  5  1  0  0  0  0
  4 10  1  0  0  0  0
  5  6  2  0  0  0  0
  5  8  1  0  0  0  0
  6  7  1  0  0  0  0
  8  9  1  0  0  0  0
  9 10  2  0  0  0  0
M  END
>  <CHROM.1>
-30.35843889,17.87326909,-16.69947966,1.24517448,-0.87704486,1.89196655

>  <Name>
ligand

>  <RI>
0

>  <Rbt.Current_Directory>
/home/itssahil/PROJECTS/Mol_Feturizer/New_Systems/rnas/4TZX

>  <Rbt.Executable>
rbdock ($Id: //depot/dev/client3/rdock/2013.1/src/exe/rbdock.cxx#4 $)

>  <Rbt.Library>
libRbt.so (2013.1, Build901 2013/11/27)

>  <Rbt.Parameter_File>
/export/apps/rDock/src/rDock_2013.1_src/data/scripts/dock_solv.prm

>  <Rbt.Receptor>
prm/blind_docking_100.prm

>  <SCORE>
-14.3473

>  <SCORE.INTER>
-14.3485

>  <SCORE.INTER.CONST>
1

>  <SCORE.INTER.POLAR>
0

>  <SCORE.INTER.ROT>
0

>  <SCORE.INTER.SOLV>
7.77331

>  <SCORE.INTER.VDW>
-15.7568

>  <SCORE.INTER.norm>
-1.43485

>  <SCORE.INTRA>
0

>  <SCORE.INTRA.DIHEDRAL>
0

>  <SCORE.INTRA.DIHEDRAL.0>
0

>  <SCORE.INTRA.POLAR>
0

>  <SCORE.INTRA.POLAR.0>
0

>  <SCORE.INTRA.REPUL>
0

>  <SCORE.INTRA.REPUL.0>
0

>  <SCORE.INTRA.SOLV>
0

>  <SCORE.INTRA.SOLV.lig_0>
-23.8949

>  <SCORE.INTRA.VDW>
0

>  <SCORE.INTRA.VDW.0>
0

>  <SCORE.INTRA.norm>
0

>  <SCORE.RESTR>
0.00117854

>  <SCORE.RESTR.CAVITY>
0.00117854

>  <SCORE.RESTR.norm>
0.000117854

>  <SCORE.SYSTEM>
0

>  <SCORE.SYSTEM.CONST>
0

>  <SCORE.SYSTEM.DIHEDRAL>
0

>  <SCORE.SYSTEM.SOLV>
0

>  <SCORE.SYSTEM.norm>
0

>  <SCORE.heavy>
10

>  <SCORE.norm>
-1.43473

>  <RMSD>
0.393

$$$$
ligand
 OpenBabel11021811513D
libRbt.so/2013.1/901 2013/11/27
 10 11  0  0  0  0  0  0  0  0999 V2000
  -30.1966   17.0566  -14.8876 N   0  0  0  0  0  0  0  0  0  0  0  0
  -31.0537   18.0770  -14.7497 C   0  0  0  0  0  0  0  0  0  0  0  0
  -31.4950   18.9322  -15.6713 N   0  0  0  0  0  0  0  0  0  0  0  0
  -30.9558   18.6605  -16.8706 C   0  0  0  0  0  0  0  0  0  0  0  0
  -30.0605   17.6497  -17.1678 C   0  0  0  0  0  0  0  0  0  0  0  0
  -29.6718   16.8089  -16.1055 C   0  0  0  0  0  0  0  0  0  0  0  0
  -28.8152   15.7924  -16.2474 N   0  0  0  0  0  0  0  0  0  0  0  0
  -29.7237   17.6732  -18.5105 N   0  0  0  0  0  0  0  0  0  0  0  0
  -30.4096   18.6846  -18.9894 C   0  0  0  0  0  0  0  0  0  0  0  0
  -31.1743   19.3250  -18.0540 N   0  0  0  0  0  0  0  0  0  0  0  0
  1  2  2  0  0  0  0
  1  6  1  0  0  0  0
  2  3  1  0  0  0  0
  3  4  2  0  0  0  0
  4  5  1  0  0  0  0
  4 10  1  0  0  0  0
  5  6  2  0  0  0  0
  5  8  1  0  0  0  0
  6  7  1  0  0  0  0
  8  9  1  0  0  0  0
  9 10  2  0  0  0  0
M  END
>  <CHROM.1>
-30.34991196,17.85756483,-16.72143349,1.26127858,-0.86762838,1.89168091

>  <Name>
ligand

>  <RI>
0

>  <Rbt.Current_Directory>
/home/itssahil/PROJECTS/Mol_Feturizer/New_Systems/rnas/4TZX

>  <Rbt.Executable>
rbdock ($Id: //depot/dev/client3/rdock/2013.1/src/exe/rbdock.cxx#4 $)

>  <Rbt.Library>
libRbt.so (2013.1, Build901 2013/11/27)

>  <Rbt.Parameter_File>
/export/apps/rDock/src/rDock_2013.1_src/data/scripts/dock_solv.prm

>  <Rbt.Receptor>
prm/blind_docking_80.prm

>  <SCORE>
-14.3343

>  <SCORE.INTER>
-14.3343

>  <SCORE.INTER.CONST>
1

>  <SCORE.INTER.POLAR>
0

>  <SCORE.INTER.ROT>
0

>  <SCORE.INTER.SOLV>
7.72759

>  <SCORE.INTER.VDW>
-15.7321

>  <SCORE.INTER.norm>
-1.43343

>  <SCORE.INTRA>
0

>  <SCORE.INTRA.DIHEDRAL>
0

>  <SCORE.INTRA.DIHEDRAL.0>
0

>  <SCORE.INTRA.POLAR>
0

>  <SCORE.INTRA.POLAR.0>
0

>  <SCORE.INTRA.REPUL>
0

>  <SCORE.INTRA.REPUL.0>
0

>  <SCORE.INTRA.SOLV>
0

>  <SCORE.INTRA.SOLV.lig_0>
-23.8949

>  <SCORE.INTRA.VDW>
0

>  <SCORE.INTRA.VDW.0>
0

>  <SCORE.INTRA.norm>
0

>  <SCORE.RESTR>
0

>  <SCORE.RESTR.CAVITY>
0

>  <SCORE.RESTR.norm>
0

>  <SCORE.SYSTEM>
0

>  <SCORE.SYSTEM.CONST>
0

>  <SCORE.SYSTEM.DIHEDRAL>
0

>  <SCORE.SYSTEM.SOLV>
0

>  <SCORE.SYSTEM.norm>
0

>  <SCORE.heavy>
10

>  <SCORE.norm>
-1.43343

>  <RMSD>
0.394

$$$$
ligand
 OpenBabel11021811513D
libRbt.so/2013.1/901 2013/11/27
 10 11  0  0  0  0  0  0  0  0999 V2000
  -30.1625   17.0252  -14.9126 N   0  0  0  0  0  0  0  0  0  0  0  0
  -31.0283   18.0374  -14.7685 C   0  0  0  0  0  0  0  0  0  0  0  0
  -31.4926   18.8816  -15.6890 N   0  0  0  0  0  0  0  0  0  0  0  0
  -30.9687   18.6074  -16.8945 C   0  0  0  0  0  0  0  0  0  0  0  0
  -30.0672   17.6042  -17.1985 C   0  0  0  0  0  0  0  0  0  0  0  0
  -29.6535   16.7748  -16.1366 C   0  0  0  0  0  0  0  0  0  0  0  0
  -28.7883   15.7665  -16.2847 N   0  0  0  0  0  0  0  0  0  0  0  0
  -29.7509   17.6221  -18.5463 N   0  0  0  0  0  0  0  0  0  0  0  0
  -30.4547   18.6229  -19.0214 C   0  0  0  0  0  0  0  0  0  0  0  0
  -31.2121   19.2615  -18.0788 N   0  0  0  0  0  0  0  0  0  0  0  0
  1  2  2  0  0  0  0
  1  6  1  0  0  0  0
  2  3  1  0  0  0  0
  3  4  2  0  0  0  0
  4  5  1  0  0  0  0
  4 10  1  0  0  0  0
  5  6  2  0  0  0  0
  5  8  1  0  0  0  0
  6  7  1  0  0  0  0
  8  9  1  0  0  0  0
  9 10  2  0  0  0  0
M  END
>  <CHROM.1>
-30.35201647,17.81200429,-16.74919141,1.23410162,-0.86203465,1.86426658

>  <Name>
ligand

>  <RI>
0

>  <Rbt.Current_Directory>
/home/itssahil/PROJECTS/Mol_Feturizer/New_Systems/rnas/4TZX

>  <Rbt.Executable>
rbdock ($Id: //depot/dev/client3/rdock/2013.1/src/exe/rbdock.cxx#4 $)

>  <Rbt.Library>
libRbt.so (2013.1, Build901 2013/11/27)

>  <Rbt.Parameter_File>
/export/apps/rDock/src/rDock_2013.1_src/data/scripts/dock_solv.prm

>  <Rbt.Receptor>
prm/pocket_docking_4.prm

>  <SCORE>
-14.321

>  <SCORE.INTER>
-14.321

>  <SCORE.INTER.CONST>
1

>  <SCORE.INTER.POLAR>
0

>  <SCORE.INTER.ROT>
0

>  <SCORE.INTER.SOLV>
7.7294

>  <SCORE.INTER.VDW>
-15.7238

>  <SCORE.INTER.norm>
-1.4321

>  <SCORE.INTRA>
0

>  <SCORE.INTRA.DIHEDRAL>
0

>  <SCORE.INTRA.DIHEDRAL.0>
0

>  <SCORE.INTRA.POLAR>
0

>  <SCORE.INTRA.POLAR.0>
0

>  <SCORE.INTRA.REPUL>
0

>  <SCORE.INTRA.REPUL.0>
0

>  <SCORE.INTRA.SOLV>
0

>  <SCORE.INTRA.SOLV.lig_0>
-23.8949

>  <SCORE.INTRA.VDW>
0

>  <SCORE.INTRA.VDW.0>
0

>  <SCORE.INTRA.norm>
0

>  <SCORE.RESTR>
0

>  <SCORE.RESTR.CAVITY>
0

>  <SCORE.RESTR.norm>
0

>  <SCORE.SYSTEM>
0

>  <SCORE.SYSTEM.CONST>
0

>  <SCORE.SYSTEM.DIHEDRAL>
0

>  <SCORE.SYSTEM.SOLV>
0

>  <SCORE.SYSTEM.norm>
0

>  <SCORE.heavy>
10

>  <SCORE.norm>
-1.4321

>  <RMSD>
0.394

$$$$
ligand
 OpenBabel11021811513D
libRbt.so/2013.1/901 2013/11/27
 10 11  0  0  0  0  0  0  0  0999 V2000
  -30.2209   16.9898  -14.9303 N   0  0  0  0  0  0  0  0  0  0  0  0
  -31.0384   18.0368  -14.7562 C   0  0  0  0  0  0  0  0  0  0  0  0
  -31.4573   18.9317  -15.6501 N   0  0  0  0  0  0  0  0  0  0  0  0
  -30.9408   18.6724  -16.8620 C   0  0  0  0  0  0  0  0  0  0  0  0
  -30.0863   17.6380  -17.1956 C   0  0  0  0  0  0  0  0  0  0  0  0
  -29.7180   16.7556  -16.1600 C   0  0  0  0  0  0  0  0  0  0  0  0
  -28.9008   15.7127  -16.3380 N   0  0  0  0  0  0  0  0  0  0  0  0
  -29.7625   17.6848  -18.5409 N   0  0  0  0  0  0  0  0  0  0  0  0
  -30.4156   18.7328  -18.9855 C   0  0  0  0  0  0  0  0  0  0  0  0
  -31.1467   19.3757  -18.0252 N   0  0  0  0  0  0  0  0  0  0  0  0
  1  2  2  0  0  0  0
  1  6  1  0  0  0  0
  2  3  1  0  0  0  0
  3  4  2  0  0  0  0
  4  5  1  0  0  0  0
  4 10  1  0  0  0  0
  5  6  2  0  0  0  0
  5  8  1  0  0  0  0
  6  7  1  0  0  0  0
  8  9  1  0  0  0  0
  9 10  2  0  0  0  0
M  END
>  <CHROM.1>
-30.36327052,17.84427350,-16.74073688,1.26441355,-0.90573158,1.92048365

>  <Name>
ligand

>  <RI>
0

>  <Rbt.Current_Directory>
/home/itssahil/PROJECTS/Mol_Feturizer/New_Systems/rnas/4TZX

>  <Rbt.Executable>
rbdock ($Id: //depot/dev/client3/rdock/2013.1/src/exe/rbdock.cxx#4 $)

>  <Rbt.Library>
libRbt.so (2013.1, Build901 2013/11/27)

>  <Rbt.Parameter_File>
/export/apps/rDock/src/rDock_2013.1_src/data/scripts/dock_solv.prm

>  <Rbt.Receptor>
prm/pocket_docking_4.prm

>  <SCORE>
-14.3774

>  <SCORE.INTER>
-14.3774

>  <SCORE.INTER.CONST>
1

>  <SCORE.INTER.POLAR>
0

>  <SCORE.INTER.ROT>
0

>  <SCORE.INTER.SOLV>
8.18109

>  <SCORE.INTER.VDW>
-15.9119

>  <SCORE.INTER.norm>
-1.43774

>  <SCORE.INTRA>
0

>  <SCORE.INTRA.DIHEDRAL>
0

>  <SCORE.INTRA.DIHEDRAL.0>
0

>  <SCORE.INTRA.POLAR>
0

>  <SCORE.INTRA.POLAR.0>
0

>  <SCORE.INTRA.REPUL>
0

>  <SCORE.INTRA.REPUL.0>
0

>  <SCORE.INTRA.SOLV>
0

>  <SCORE.INTRA.SOLV.lig_0>
-23.8949

>  <SCORE.INTRA.VDW>
0

>  <SCORE.INTRA.VDW.0>
0

>  <SCORE.INTRA.norm>
0

>  <SCORE.RESTR>
4.90638e-07

>  <SCORE.RESTR.CAVITY>
4.90638e-07

>  <SCORE.RESTR.norm>
4.90638e-08

>  <SCORE.SYSTEM>
0

>  <SCORE.SYSTEM.CONST>
0

>  <SCORE.SYSTEM.DIHEDRAL>
0

>  <SCORE.SYSTEM.SOLV>
0

>  <SCORE.SYSTEM.norm>
0

>  <SCORE.heavy>
10

>  <SCORE.norm>
-1.43774

>  <RMSD>
0.394

$$$$
ligand
 OpenBabel11021811513D
libRbt.so/2013.1/901 2013/11/27
 10 11  0  0  0  0  0  0  0  0999 V2000
  -30.2362   16.9904  -14.9427 N   0  0  0  0  0  0  0  0  0  0  0  0
  -31.0438   18.0474  -14.7835 C   0  0  0  0  0  0  0  0  0  0  0  0
  -31.4453   18.9400  -15.6877 N   0  0  0  0  0  0  0  0  0  0  0  0
  -30.9211   18.6660  -16.8931 C   0  0  0  0  0  0  0  0  0  0  0  0
  -30.0750   17.6200  -17.2115 C   0  0  0  0  0  0  0  0  0  0  0  0
  -29.7252   16.7415  -16.1662 C   0  0  0  0  0  0  0  0  0  0  0  0
  -28.9179   15.6886  -16.3293 N   0  0  0  0  0  0  0  0  0  0  0  0
  -29.7392   17.6532  -18.5542 N   0  0  0  0  0  0  0  0  0  0  0  0
  -30.3770   18.7048  -19.0123 C   0  0  0  0  0  0  0  0  0  0  0  0
  -31.1094   19.3627  -18.0632 N   0  0  0  0  0  0  0  0  0  0  0  0
  1  2  2  0  0  0  0
  1  6  1  0  0  0  0
  2  3  1  0  0  0  0
  3  4  2  0  0  0  0
  4  5  1  0  0  0  0
  4 10  1  0  0  0  0
  5  6  2  0  0  0  0
  5  8  1  0  0  0  0
  6  7  1  0  0  0  0
  8  9  1  0  0  0  0
  9 10  2  0  0  0  0
M  END
>  <CHROM.1>
-30.35369604,17.83266276,-16.76061670,1.28375435,-0.91283331,1.92826476

>  <Name>
ligand

>  <RI>
0

>  <Rbt.Current_Directory>
/home/itssahil/PROJECTS/Mol_Feturizer/New_Systems/rnas/4TZX

>  <Rbt.Executable>
rbdock ($Id: //depot/dev/client3/rdock/2013.1/src/exe/rbdock.cxx#4 $)

>  <Rbt.Library>
libRbt.so (2013.1, Build901 2013/11/27)

>  <Rbt.Parameter_File>
/export/apps/rDock/src/rDock_2013.1_src/data/scripts/dock_solv.prm

>  <Rbt.Receptor>
prm/blind_docking_60.prm

>  <SCORE>
-14.3729

>  <SCORE.INTER>
-14.3729

>  <SCORE.INTER.CONST>
1

>  <SCORE.INTER.POLAR>
0

>  <SCORE.INTER.ROT>
0

>  <SCORE.INTER.SOLV>
8.2645

>  <SCORE.INTER.VDW>
-15.9368

>  <SCORE.INTER.norm>
-1.43729

>  <SCORE.INTRA>
0

>  <SCORE.INTRA.DIHEDRAL>
0

>  <SCORE.INTRA.DIHEDRAL.0>
0

>  <SCORE.INTRA.POLAR>
0

>  <SCORE.INTRA.POLAR.0>
0

>  <SCORE.INTRA.REPUL>
0

>  <SCORE.INTRA.REPUL.0>
0

>  <SCORE.INTRA.SOLV>
0

>  <SCORE.INTRA.SOLV.lig_0>
-23.8949

>  <SCORE.INTRA.VDW>
0

>  <SCORE.INTRA.VDW.0>
0

>  <SCORE.INTRA.norm>
0

>  <SCORE.RESTR>
0

>  <SCORE.RESTR.CAVITY>
0

>  <SCORE.RESTR.norm>
0

>  <SCORE.SYSTEM>
0

>  <SCORE.SYSTEM.CONST>
0

>  <SCORE.SYSTEM.DIHEDRAL>
0

>  <SCORE.SYSTEM.SOLV>
0

>  <SCORE.SYSTEM.norm>
0

>  <SCORE.heavy>
10

>  <SCORE.norm>
-1.43729

>  <RMSD>
0.396

$$$$
ligand
 OpenBabel11021811513D
libRbt.so/2013.1/901 2013/11/27
 10 11  0  0  0  0  0  0  0  0999 V2000
  -30.2103   17.0218  -14.9188 N   0  0  0  0  0  0  0  0  0  0  0  0
  -31.0495   18.0551  -14.7675 C   0  0  0  0  0  0  0  0  0  0  0  0
  -31.4797   18.9268  -15.6789 N   0  0  0  0  0  0  0  0  0  0  0  0
  -30.9496   18.6580  -16.8829 C   0  0  0  0  0  0  0  0  0  0  0  0
  -30.0726   17.6353  -17.1936 C   0  0  0  0  0  0  0  0  0  0  0  0
  -29.6942   16.7775  -16.1411 C   0  0  0  0  0  0  0  0  0  0  0  0
  -28.8554   15.7482  -16.2963 N   0  0  0  0  0  0  0  0  0  0  0  0
  -29.7403   17.6665  -18.5372 N   0  0  0  0  0  0  0  0  0  0  0  0
  -30.4108   18.6939  -19.0034 C   0  0  0  0  0  0  0  0  0  0  0  0
  -31.1612   19.3378  -18.0588 N   0  0  0  0  0  0  0  0  0  0  0  0
  1  2  2  0  0  0  0
  1  6  1  0  0  0  0
  2  3  1  0  0  0  0
  3  4  2  0  0  0  0
  4  5  1  0  0  0  0
  4 10  1  0  0  0  0
  5  6  2  0  0  0  0
  5  8  1  0  0  0  0
  6  7  1  0  0  0  0
  8  9  1  0  0  0  0
  9 10  2  0  0  0  0
M  END
>  <CHROM.1>
-30.35675223,17.84350289,-16.74402233,1.26420794,-0.88479323,1.90385955

>  <Name>
ligand

>  <RI>
0

>  <Rbt.Current_Directory>
/home/itssahil/PROJECTS/Mol_Feturizer/New_Systems/rnas/4TZX

>  <Rbt.Executable>
rbdock ($Id: //depot/dev/client3/rdock/2013.1/src/exe/rbdock.cxx#4 $)

>  <Rbt.Library>
libRbt.so (2013.1, Build901 2013/11/27)

>  <Rbt.Parameter_File>
/export/apps/rDock/src/rDock_2013.1_src/data/scripts/dock_solv.prm

>  <Rbt.Receptor>
prm/blind_docking_80.prm

>  <SCORE>
-14.3865

>  <SCORE.INTER>
-14.3865

>  <SCORE.INTER.CONST>
1

>  <SCORE.INTER.POLAR>
0

>  <SCORE.INTER.ROT>
0

>  <SCORE.INTER.SOLV>
7.94029

>  <SCORE.INTER.VDW>
-15.8378

>  <SCORE.INTER.norm>
-1.43865

>  <SCORE.INTRA>
0

>  <SCORE.INTRA.DIHEDRAL>
0

>  <SCORE.INTRA.DIHEDRAL.0>
0

>  <SCORE.INTRA.POLAR>
0

>  <SCORE.INTRA.POLAR.0>
0

>  <SCORE.INTRA.REPUL>
0

>  <SCORE.INTRA.REPUL.0>
0

>  <SCORE.INTRA.SOLV>
0

>  <SCORE.INTRA.SOLV.lig_0>
-23.8949

>  <SCORE.INTRA.VDW>
0

>  <SCORE.INTRA.VDW.0>
0

>  <SCORE.INTRA.norm>
0

>  <SCORE.RESTR>
0

>  <SCORE.RESTR.CAVITY>
0

>  <SCORE.RESTR.norm>
0

>  <SCORE.SYSTEM>
0

>  <SCORE.SYSTEM.CONST>
0

>  <SCORE.SYSTEM.DIHEDRAL>
0

>  <SCORE.SYSTEM.SOLV>
0

>  <SCORE.SYSTEM.norm>
0

>  <SCORE.heavy>
10

>  <SCORE.norm>
-1.43865

>  <RMSD>
0.396

$$$$
ligand
 OpenBabel11021811513D
libRbt.so/2013.1/901 2013/11/27
 10 11  0  0  0  0  0  0  0  0999 V2000
  -30.2225   17.0254  -14.9206 N   0  0  0  0  0  0  0  0  0  0  0  0
  -31.0630   18.0584  -14.7745 C   0  0  0  0  0  0  0  0  0  0  0  0
  -31.4904   18.9280  -15.6892 N   0  0  0  0  0  0  0  0  0  0  0  0
  -30.9556   18.6572  -16.8906 C   0  0  0  0  0  0  0  0  0  0  0  0
  -30.0767   17.6345  -17.1960 C   0  0  0  0  0  0  0  0  0  0  0  0
  -29.7017   16.7790  -16.1405 C   0  0  0  0  0  0  0  0  0  0  0  0
  -28.8616   15.7500  -16.2906 N   0  0  0  0  0  0  0  0  0  0  0  0
  -29.7395   17.6633  -18.5385 N   0  0  0  0  0  0  0  0  0  0  0  0
  -30.4089   18.6894  -19.0093 C   0  0  0  0  0  0  0  0  0  0  0  0
  -31.1633   19.3346  -18.0687 N   0  0  0  0  0  0  0  0  0  0  0  0
  1  2  2  0  0  0  0
  1  6  1  0  0  0  0
  2  3  1  0  0  0  0
  3  4  2  0  0  0  0
  4  5  1  0  0  0  0
  4 10  1  0  0  0  0
  5  6  2  0  0  0  0
  5  8  1  0  0  0  0
  6  7  1  0  0  0  0
  8  9  1  0  0  0  0
  9 10  2  0  0  0  0
M  END
>  <CHROM.1>
-30.36273724,17.84340988,-16.74798620,1.26939067,-0.88292997,1.90590333

>  <Name>
ligand

>  <RI>
0

>  <Rbt.Current_Directory>
/home/itssahil/PROJECTS/Mol_Feturizer/New_Systems/rnas/4TZX

>  <Rbt.Executable>
rbdock ($Id: //depot/dev/client3/rdock/2013.1/src/exe/rbdock.cxx#4 $)

>  <Rbt.Library>
libRbt.so (2013.1, Build901 2013/11/27)

>  <Rbt.Parameter_File>
/export/apps/rDock/src/rDock_2013.1_src/data/scripts/dock_solv.prm

>  <Rbt.Receptor>
prm/pocket_docking_3.prm

>  <SCORE>
-14.3834

>  <SCORE.INTER>
-14.3834

>  <SCORE.INTER.CONST>
1

>  <SCORE.INTER.POLAR>
0

>  <SCORE.INTER.ROT>
0

>  <SCORE.INTER.SOLV>
7.94663

>  <SCORE.INTER.VDW>
-15.8378

>  <SCORE.INTER.norm>
-1.43834

>  <SCORE.INTRA>
0

>  <SCORE.INTRA.DIHEDRAL>
0

>  <SCORE.INTRA.DIHEDRAL.0>
0

>  <SCORE.INTRA.POLAR>
0

>  <SCORE.INTRA.POLAR.0>
0

>  <SCORE.INTRA.REPUL>
0

>  <SCORE.INTRA.REPUL.0>
0

>  <SCORE.INTRA.SOLV>
0

>  <SCORE.INTRA.SOLV.lig_0>
-23.8949

>  <SCORE.INTRA.VDW>
0

>  <SCORE.INTRA.VDW.0>
0

>  <SCORE.INTRA.norm>
0

>  <SCORE.RESTR>
0

>  <SCORE.RESTR.CAVITY>
0

>  <SCORE.RESTR.norm>
0

>  <SCORE.SYSTEM>
0

>  <SCORE.SYSTEM.CONST>
0

>  <SCORE.SYSTEM.DIHEDRAL>
0

>  <SCORE.SYSTEM.SOLV>
0

>  <SCORE.SYSTEM.norm>
0

>  <SCORE.heavy>
10

>  <SCORE.norm>
-1.43834

>  <RMSD>
0.396

$$$$
ligand
 OpenBabel11021811513D
libRbt.so/2013.1/901 2013/11/27
 10 11  0  0  0  0  0  0  0  0999 V2000
  -30.1678   16.8903  -14.7462 N   0  0  0  0  0  0  0  0  0  0  0  0
  -31.2048   17.7223  -14.5812 C   0  0  0  0  0  0  0  0  0  0  0  0
  -31.7911   18.5193  -15.4737 N   0  0  0  0  0  0  0  0  0  0  0  0
  -31.1973   18.4097  -16.6730 C   0  0  0  0  0  0  0  0  0  0  0  0
  -30.1229   17.6018  -16.9961 C   0  0  0  0  0  0  0  0  0  0  0  0
  -29.5925   16.8024  -15.9634 C   0  0  0  0  0  0  0  0  0  0  0  0
  -28.5566   15.9745  -16.1322 N   0  0  0  0  0  0  0  0  0  0  0  0
  -29.7825   17.7499  -18.3298 N   0  0  0  0  0  0  0  0  0  0  0  0
  -30.6432   18.6335  -18.7781 C   0  0  0  0  0  0  0  0  0  0  0  0
  -31.5258   19.0739  -17.8310 N   0  0  0  0  0  0  0  0  0  0  0  0
  1  2  2  0  0  0  0
  1  6  1  0  0  0  0
  2  3  1  0  0  0  0
  3  4  2  0  0  0  0
  4  5  1  0  0  0  0
  4 10  1  0  0  0  0
  5  6  2  0  0  0  0
  5  8  1  0  0  0  0
  6  7  1  0  0  0  0
  8  9  1  0  0  0  0
  9 10  2  0  0  0  0
M  END
>  <CHROM.1>
-30.45125344,17.73038247,-16.54680560,1.19690561,-0.68133534,1.89101440

>  <Name>
ligand

>  <RI>
0

>  <Rbt.Current_Directory>
/home/itssahil/PROJECTS/Mol_Feturizer/New_Systems/rnas/4TZX

>  <Rbt.Executable>
rbdock ($Id: //depot/dev/client3/rdock/2013.1/src/exe/rbdock.cxx#4 $)

>  <Rbt.Library>
libRbt.so (2013.1, Build901 2013/11/27)

>  <Rbt.Parameter_File>
/export/apps/rDock/src/rDock_2013.1_src/data/scripts/dock_solv.prm

>  <Rbt.Receptor>
prm/pocket_docking_6.prm

>  <SCORE>
-14.1914

>  <SCORE.INTER>
-14.1914

>  <SCORE.INTER.CONST>
1

>  <SCORE.INTER.POLAR>
0

>  <SCORE.INTER.ROT>
0

>  <SCORE.INTER.SOLV>
6.71725

>  <SCORE.INTER.VDW>
-15.3

>  <SCORE.INTER.norm>
-1.41914

>  <SCORE.INTRA>
0

>  <SCORE.INTRA.DIHEDRAL>
0

>  <SCORE.INTRA.DIHEDRAL.0>
0

>  <SCORE.INTRA.POLAR>
0

>  <SCORE.INTRA.POLAR.0>
0

>  <SCORE.INTRA.REPUL>
0

>  <SCORE.INTRA.REPUL.0>
0

>  <SCORE.INTRA.SOLV>
0

>  <SCORE.INTRA.SOLV.lig_0>
-23.8949

>  <SCORE.INTRA.VDW>
0

>  <SCORE.INTRA.VDW.0>
0

>  <SCORE.INTRA.norm>
0

>  <SCORE.RESTR>
0

>  <SCORE.RESTR.CAVITY>
0

>  <SCORE.RESTR.norm>
0

>  <SCORE.SYSTEM>
0

>  <SCORE.SYSTEM.CONST>
0

>  <SCORE.SYSTEM.DIHEDRAL>
0

>  <SCORE.SYSTEM.SOLV>
0

>  <SCORE.SYSTEM.norm>
0

>  <SCORE.heavy>
10

>  <SCORE.norm>
-1.41914

>  <RMSD>
0.396

$$$$
ligand
 OpenBabel11021811513D
libRbt.so/2013.1/901 2013/11/27
 10 11  0  0  0  0  0  0  0  0999 V2000
  -30.2174   16.9855  -14.9453 N   0  0  0  0  0  0  0  0  0  0  0  0
  -31.0379   18.0333  -14.7907 C   0  0  0  0  0  0  0  0  0  0  0  0
  -31.4497   18.9173  -15.6987 N   0  0  0  0  0  0  0  0  0  0  0  0
  -30.9215   18.6450  -16.9027 C   0  0  0  0  0  0  0  0  0  0  0  0
  -30.0626   17.6080  -17.2165 C   0  0  0  0  0  0  0  0  0  0  0  0
  -29.7028   16.7380  -16.1676 C   0  0  0  0  0  0  0  0  0  0  0  0
  -28.8826   15.6943  -16.3261 N   0  0  0  0  0  0  0  0  0  0  0  0
  -29.7264   17.6400  -18.5591 N   0  0  0  0  0  0  0  0  0  0  0  0
  -30.3767   18.6820  -19.0217 C   0  0  0  0  0  0  0  0  0  0  0  0
  -31.1175   19.3347  -18.0756 N   0  0  0  0  0  0  0  0  0  0  0  0
  1  2  2  0  0  0  0
  1  6  1  0  0  0  0
  2  3  1  0  0  0  0
  3  4  2  0  0  0  0
  4  5  1  0  0  0  0
  4 10  1  0  0  0  0
  5  6  2  0  0  0  0
  5  8  1  0  0  0  0
  6  7  1  0  0  0  0
  8  9  1  0  0  0  0
  9 10  2  0  0  0  0
M  END
>  <CHROM.1>
-30.34408495,17.81908301,-16.76660463,1.27777560,-0.90128164,1.91958824

>  <Name>
ligand

>  <RI>
0

>  <Rbt.Current_Directory>
/home/itssahil/PROJECTS/Mol_Feturizer/New_Systems/rnas/4TZX

>  <Rbt.Executable>
rbdock ($Id: //depot/dev/client3/rdock/2013.1/src/exe/rbdock.cxx#4 $)

>  <Rbt.Library>
libRbt.so (2013.1, Build901 2013/11/27)

>  <Rbt.Parameter_File>
/export/apps/rDock/src/rDock_2013.1_src/data/scripts/dock_solv.prm

>  <Rbt.Receptor>
prm/blind_docking_100.prm

>  <SCORE>
-14.3722

>  <SCORE.INTER>
-14.3722

>  <SCORE.INTER.CONST>
1

>  <SCORE.INTER.POLAR>
0

>  <SCORE.INTER.ROT>
0

>  <SCORE.INTER.SOLV>
8.15486

>  <SCORE.INTER.VDW>
-15.8998

>  <SCORE.INTER.norm>
-1.43722

>  <SCORE.INTRA>
0

>  <SCORE.INTRA.DIHEDRAL>
0

>  <SCORE.INTRA.DIHEDRAL.0>
0

>  <SCORE.INTRA.POLAR>
0

>  <SCORE.INTRA.POLAR.0>
0

>  <SCORE.INTRA.REPUL>
0

>  <SCORE.INTRA.REPUL.0>
0

>  <SCORE.INTRA.SOLV>
0

>  <SCORE.INTRA.SOLV.lig_0>
-23.8949

>  <SCORE.INTRA.VDW>
0

>  <SCORE.INTRA.VDW.0>
0

>  <SCORE.INTRA.norm>
0

>  <SCORE.RESTR>
0

>  <SCORE.RESTR.CAVITY>
0

>  <SCORE.RESTR.norm>
0

>  <SCORE.SYSTEM>
0

>  <SCORE.SYSTEM.CONST>
0

>  <SCORE.SYSTEM.DIHEDRAL>
0

>  <SCORE.SYSTEM.SOLV>
0

>  <SCORE.SYSTEM.norm>
0

>  <SCORE.heavy>
10

>  <SCORE.norm>
-1.43722

>  <RMSD>
0.397

$$$$
ligand
 OpenBabel11021811513D
libRbt.so/2013.1/901 2013/11/27
 10 11  0  0  0  0  0  0  0  0999 V2000
  -30.1930   17.0204  -14.9168 N   0  0  0  0  0  0  0  0  0  0  0  0
  -31.0318   18.0535  -14.7622 C   0  0  0  0  0  0  0  0  0  0  0  0
  -31.4660   18.9249  -15.6720 N   0  0  0  0  0  0  0  0  0  0  0  0
  -30.9407   18.6561  -16.8781 C   0  0  0  0  0  0  0  0  0  0  0  0
  -30.0647   17.6336  -17.1922 C   0  0  0  0  0  0  0  0  0  0  0  0
  -29.6818   16.7760  -16.1412 C   0  0  0  0  0  0  0  0  0  0  0  0
  -28.8434   15.7469  -16.2997 N   0  0  0  0  0  0  0  0  0  0  0  0
  -29.7380   17.6647  -18.5372 N   0  0  0  0  0  0  0  0  0  0  0  0
  -30.4106   18.6919  -19.0009 C   0  0  0  0  0  0  0  0  0  0  0  0
  -31.1573   19.3357  -18.0533 N   0  0  0  0  0  0  0  0  0  0  0  0
  1  2  2  0  0  0  0
  1  6  1  0  0  0  0
  2  3  1  0  0  0  0
  3  4  2  0  0  0  0
  4  5  1  0  0  0  0
  4 10  1  0  0  0  0
  5  6  2  0  0  0  0
  5  8  1  0  0  0  0
  6  7  1  0  0  0  0
  8  9  1  0  0  0  0
  9 10  2  0  0  0  0
M  END
>  <CHROM.1>
-30.34712323,17.84178257,-16.74157974,1.25792029,-0.88587786,1.89884599

>  <Name>
ligand

>  <RI>
0

>  <Rbt.Current_Directory>
/home/itssahil/PROJECTS/Mol_Feturizer/New_Systems/rnas/4TZX

>  <Rbt.Executable>
rbdock ($Id: //depot/dev/client3/rdock/2013.1/src/exe/rbdock.cxx#4 $)

>  <Rbt.Library>
libRbt.so (2013.1, Build901 2013/11/27)

>  <Rbt.Parameter_File>
/export/apps/rDock/src/rDock_2013.1_src/data/scripts/dock_solv.prm

>  <Rbt.Receptor>
prm/pocket_docking_7.prm

>  <SCORE>
-14.3872

>  <SCORE.INTER>
-14.3872

>  <SCORE.INTER.CONST>
1

>  <SCORE.INTER.POLAR>
0

>  <SCORE.INTER.ROT>
0

>  <SCORE.INTER.SOLV>
7.91615

>  <SCORE.INTER.VDW>
-15.8302

>  <SCORE.INTER.norm>
-1.43872

>  <SCORE.INTRA>
0

>  <SCORE.INTRA.DIHEDRAL>
0

>  <SCORE.INTRA.DIHEDRAL.0>
0

>  <SCORE.INTRA.POLAR>
0

>  <SCORE.INTRA.POLAR.0>
0

>  <SCORE.INTRA.REPUL>
0

>  <SCORE.INTRA.REPUL.0>
0

>  <SCORE.INTRA.SOLV>
0

>  <SCORE.INTRA.SOLV.lig_0>
-23.8949

>  <SCORE.INTRA.VDW>
0

>  <SCORE.INTRA.VDW.0>
0

>  <SCORE.INTRA.norm>
0

>  <SCORE.RESTR>
0

>  <SCORE.RESTR.CAVITY>
0

>  <SCORE.RESTR.norm>
0

>  <SCORE.SYSTEM>
0

>  <SCORE.SYSTEM.CONST>
0

>  <SCORE.SYSTEM.DIHEDRAL>
0

>  <SCORE.SYSTEM.SOLV>
0

>  <SCORE.SYSTEM.norm>
0

>  <SCORE.heavy>
10

>  <SCORE.norm>
-1.43872

>  <RMSD>
0.397

$$$$
ligand
 OpenBabel11021811513D
libRbt.so/2013.1/901 2013/11/27
 10 11  0  0  0  0  0  0  0  0999 V2000
  -30.2129   17.0317  -14.9154 N   0  0  0  0  0  0  0  0  0  0  0  0
  -31.0510   18.0663  -14.7670 C   0  0  0  0  0  0  0  0  0  0  0  0
  -31.4806   18.9356  -15.6809 N   0  0  0  0  0  0  0  0  0  0  0  0
  -30.9511   18.6627  -16.8842 C   0  0  0  0  0  0  0  0  0  0  0  0
  -30.0751   17.6383  -17.1920 C   0  0  0  0  0  0  0  0  0  0  0  0
  -29.6973   16.7832  -16.1371 C   0  0  0  0  0  0  0  0  0  0  0  0
  -28.8596   15.7527  -16.2895 N   0  0  0  0  0  0  0  0  0  0  0  0
  -29.7432   17.6651  -18.5358 N   0  0  0  0  0  0  0  0  0  0  0  0
  -30.4128   18.6919  -19.0050 C   0  0  0  0  0  0  0  0  0  0  0  0
  -31.1623   19.3393  -18.0621 N   0  0  0  0  0  0  0  0  0  0  0  0
  1  2  2  0  0  0  0
  1  6  1  0  0  0  0
  2  3  1  0  0  0  0
  3  4  2  0  0  0  0
  4  5  1  0  0  0  0
  4 10  1  0  0  0  0
  5  6  2  0  0  0  0
  5  8  1  0  0  0  0
  6  7  1  0  0  0  0
  8  9  1  0  0  0  0
  9 10  2  0  0  0  0
M  END
>  <CHROM.1>
-30.35898773,17.84809887,-16.74303548,1.26431533,-0.88580348,1.90096930

>  <Name>
ligand

>  <RI>
0

>  <Rbt.Current_Directory>
/home/itssahil/PROJECTS/Mol_Feturizer/New_Systems/rnas/4TZX

>  <Rbt.Executable>
rbdock ($Id: //depot/dev/client3/rdock/2013.1/src/exe/rbdock.cxx#4 $)

>  <Rbt.Library>
libRbt.so (2013.1, Build901 2013/11/27)

>  <Rbt.Parameter_File>
/export/apps/rDock/src/rDock_2013.1_src/data/scripts/dock_solv.prm

>  <Rbt.Receptor>
prm/pocket_docking_8.prm

>  <SCORE>
-14.3808

>  <SCORE.INTER>
-14.3808

>  <SCORE.INTER.CONST>
1

>  <SCORE.INTER.POLAR>
0

>  <SCORE.INTER.ROT>
0

>  <SCORE.INTER.SOLV>
7.93627

>  <SCORE.INTER.VDW>
-15.8326

>  <SCORE.INTER.norm>
-1.43808

>  <SCORE.INTRA>
0

>  <SCORE.INTRA.DIHEDRAL>
0

>  <SCORE.INTRA.DIHEDRAL.0>
0

>  <SCORE.INTRA.POLAR>
0

>  <SCORE.INTRA.POLAR.0>
0

>  <SCORE.INTRA.REPUL>
0

>  <SCORE.INTRA.REPUL.0>
0

>  <SCORE.INTRA.SOLV>
0

>  <SCORE.INTRA.SOLV.lig_0>
-23.8949

>  <SCORE.INTRA.VDW>
0

>  <SCORE.INTRA.VDW.0>
0

>  <SCORE.INTRA.norm>
0

>  <SCORE.RESTR>
0

>  <SCORE.RESTR.CAVITY>
0

>  <SCORE.RESTR.norm>
0

>  <SCORE.SYSTEM>
0

>  <SCORE.SYSTEM.CONST>
0

>  <SCORE.SYSTEM.DIHEDRAL>
0

>  <SCORE.SYSTEM.SOLV>
0

>  <SCORE.SYSTEM.norm>
0

>  <SCORE.heavy>
10

>  <SCORE.norm>
-1.43808

>  <RMSD>
0.397

$$$$
ligand
 OpenBabel11021811513D
libRbt.so/2013.1/901 2013/11/27
 10 11  0  0  0  0  0  0  0  0999 V2000
  -30.2246   16.9903  -14.9458 N   0  0  0  0  0  0  0  0  0  0  0  0
  -31.0471   18.0357  -14.7865 C   0  0  0  0  0  0  0  0  0  0  0  0
  -31.4649   18.9198  -15.6917 N   0  0  0  0  0  0  0  0  0  0  0  0
  -30.9411   18.6503  -16.8982 C   0  0  0  0  0  0  0  0  0  0  0  0
  -30.0808   17.6160  -17.2169 C   0  0  0  0  0  0  0  0  0  0  0  0
  -29.7143   16.7456  -16.1705 C   0  0  0  0  0  0  0  0  0  0  0  0
  -28.8921   15.7042  -16.3337 N   0  0  0  0  0  0  0  0  0  0  0  0
  -29.7502   17.6505  -18.5608 N   0  0  0  0  0  0  0  0  0  0  0  0
  -30.4051   18.6913  -19.0194 C   0  0  0  0  0  0  0  0  0  0  0  0
  -31.1438   19.3409  -18.0695 N   0  0  0  0  0  0  0  0  0  0  0  0
  1  2  2  0  0  0  0
  1  6  1  0  0  0  0
  2  3  1  0  0  0  0
  3  4  2  0  0  0  0
  4  5  1  0  0  0  0
  4 10  1  0  0  0  0
  5  6  2  0  0  0  0
  5  8  1  0  0  0  0
  6  7  1  0  0  0  0
  8  9  1  0  0  0  0
  9 10  2  0  0  0  0
M  END
>  <CHROM.1>
-30.36093541,17.82576033,-16.76554538,1.27007158,-0.90022070,1.91478685

>  <Name>
ligand

>  <RI>
0

>  <Rbt.Current_Directory>
/home/itssahil/PROJECTS/Mol_Feturizer/New_Systems/rnas/4TZX

>  <Rbt.Executable>
rbdock ($Id: //depot/dev/client3/rdock/2013.1/src/exe/rbdock.cxx#4 $)

>  <Rbt.Library>
libRbt.so (2013.1, Build901 2013/11/27)

>  <Rbt.Parameter_File>
/export/apps/rDock/src/rDock_2013.1_src/data/scripts/dock_solv.prm

>  <Rbt.Receptor>
prm/blind_docking_100.prm

>  <SCORE>
-14.3433

>  <SCORE.INTER>
-14.3433

>  <SCORE.INTER.CONST>
1

>  <SCORE.INTER.POLAR>
0

>  <SCORE.INTER.ROT>
0

>  <SCORE.INTER.SOLV>
8.16962

>  <SCORE.INTER.VDW>
-15.8854

>  <SCORE.INTER.norm>
-1.43433

>  <SCORE.INTRA>
0

>  <SCORE.INTRA.DIHEDRAL>
0

>  <SCORE.INTRA.DIHEDRAL.0>
0

>  <SCORE.INTRA.POLAR>
0

>  <SCORE.INTRA.POLAR.0>
0

>  <SCORE.INTRA.REPUL>
0

>  <SCORE.INTRA.REPUL.0>
0

>  <SCORE.INTRA.SOLV>
0

>  <SCORE.INTRA.SOLV.lig_0>
-23.8949

>  <SCORE.INTRA.VDW>
0

>  <SCORE.INTRA.VDW.0>
0

>  <SCORE.INTRA.norm>
0

>  <SCORE.RESTR>
0

>  <SCORE.RESTR.CAVITY>
0

>  <SCORE.RESTR.norm>
0

>  <SCORE.SYSTEM>
0

>  <SCORE.SYSTEM.CONST>
0

>  <SCORE.SYSTEM.DIHEDRAL>
0

>  <SCORE.SYSTEM.SOLV>
0

>  <SCORE.SYSTEM.norm>
0

>  <SCORE.heavy>
10

>  <SCORE.norm>
-1.43433

>  <RMSD>
0.398

$$$$
ligand
 OpenBabel11021811513D
libRbt.so/2013.1/901 2013/11/27
 10 11  0  0  0  0  0  0  0  0999 V2000
  -30.1881   17.0270  -14.9141 N   0  0  0  0  0  0  0  0  0  0  0  0
  -31.0299   18.0575  -14.7584 C   0  0  0  0  0  0  0  0  0  0  0  0
  -31.4697   18.9263  -15.6680 N   0  0  0  0  0  0  0  0  0  0  0  0
  -30.9472   18.6574  -16.8754 C   0  0  0  0  0  0  0  0  0  0  0  0
  -30.0689   17.6374  -17.1908 C   0  0  0  0  0  0  0  0  0  0  0  0
  -29.6800   16.7825  -16.1397 C   0  0  0  0  0  0  0  0  0  0  0  0
  -28.8386   15.7560  -16.2994 N   0  0  0  0  0  0  0  0  0  0  0  0
  -29.7464   17.6676  -18.5368 N   0  0  0  0  0  0  0  0  0  0  0  0
  -30.4238   18.6920  -18.9998 C   0  0  0  0  0  0  0  0  0  0  0  0
  -31.1696   19.3347  -18.0508 N   0  0  0  0  0  0  0  0  0  0  0  0
  1  2  2  0  0  0  0
  1  6  1  0  0  0  0
  2  3  1  0  0  0  0
  3  4  2  0  0  0  0
  4  5  1  0  0  0  0
  4 10  1  0  0  0  0
  5  6  2  0  0  0  0
  5  8  1  0  0  0  0
  6  7  1  0  0  0  0
  8  9  1  0  0  0  0
  9 10  2  0  0  0  0
M  END
>  <CHROM.1>
-30.35055742,17.84528407,-16.73951341,1.25170728,-0.88375666,1.89264392

>  <Name>
ligand

>  <RI>
0

>  <Rbt.Current_Directory>
/home/itssahil/PROJECTS/Mol_Feturizer/New_Systems/rnas/4TZX

>  <Rbt.Executable>
rbdock ($Id: //depot/dev/client3/rdock/2013.1/src/exe/rbdock.cxx#4 $)

>  <Rbt.Library>
libRbt.so (2013.1, Build901 2013/11/27)

>  <Rbt.Parameter_File>
/export/apps/rDock/src/rDock_2013.1_src/data/scripts/dock_solv.prm

>  <Rbt.Receptor>
prm/pocket_docking_3.prm

>  <SCORE>
-14.3838

>  <SCORE.INTER>
-14.3838

>  <SCORE.INTER.CONST>
1

>  <SCORE.INTER.POLAR>
0

>  <SCORE.INTER.ROT>
0

>  <SCORE.INTER.SOLV>
7.88814

>  <SCORE.INTER.VDW>
-15.8186

>  <SCORE.INTER.norm>
-1.43838

>  <SCORE.INTRA>
0

>  <SCORE.INTRA.DIHEDRAL>
0

>  <SCORE.INTRA.DIHEDRAL.0>
0

>  <SCORE.INTRA.POLAR>
0

>  <SCORE.INTRA.POLAR.0>
0

>  <SCORE.INTRA.REPUL>
0

>  <SCORE.INTRA.REPUL.0>
0

>  <SCORE.INTRA.SOLV>
0

>  <SCORE.INTRA.SOLV.lig_0>
-23.8949

>  <SCORE.INTRA.VDW>
0

>  <SCORE.INTRA.VDW.0>
0

>  <SCORE.INTRA.norm>
0

>  <SCORE.RESTR>
0

>  <SCORE.RESTR.CAVITY>
0

>  <SCORE.RESTR.norm>
0

>  <SCORE.SYSTEM>
0

>  <SCORE.SYSTEM.CONST>
0

>  <SCORE.SYSTEM.DIHEDRAL>
0

>  <SCORE.SYSTEM.SOLV>
0

>  <SCORE.SYSTEM.norm>
0

>  <SCORE.heavy>
10

>  <SCORE.norm>
-1.43838

>  <RMSD>
0.398

$$$$
ligand
 OpenBabel11021811513D
libRbt.so/2013.1/901 2013/11/27
 10 11  0  0  0  0  0  0  0  0999 V2000
  -30.2340   16.9917  -14.9461 N   0  0  0  0  0  0  0  0  0  0  0  0
  -31.0437   18.0471  -14.7876 C   0  0  0  0  0  0  0  0  0  0  0  0
  -31.4488   18.9370  -15.6929 N   0  0  0  0  0  0  0  0  0  0  0  0
  -30.9260   18.6619  -16.8986 C   0  0  0  0  0  0  0  0  0  0  0  0
  -30.0781   17.6171  -17.2164 C   0  0  0  0  0  0  0  0  0  0  0  0
  -29.7245   16.7415  -16.1700 C   0  0  0  0  0  0  0  0  0  0  0  0
  -28.9149   15.6901  -16.3323 N   0  0  0  0  0  0  0  0  0  0  0  0
  -29.7445   17.6484  -18.5597 N   0  0  0  0  0  0  0  0  0  0  0  0
  -30.3856   18.6977  -19.0188 C   0  0  0  0  0  0  0  0  0  0  0  0
  -31.1179   19.3557  -18.0698 N   0  0  0  0  0  0  0  0  0  0  0  0
  1  2  2  0  0  0  0
  1  6  1  0  0  0  0
  2  3  1  0  0  0  0
  3  4  2  0  0  0  0
  4  5  1  0  0  0  0
  4 10  1  0  0  0  0
  5  6  2  0  0  0  0
  5  8  1  0  0  0  0
  6  7  1  0  0  0  0
  8  9  1  0  0  0  0
  9 10  2  0  0  0  0
M  END
>  <CHROM.1>
-30.35645241,17.83006251,-16.76545355,1.27984783,-0.91125097,1.92318919

>  <Name>
ligand

>  <RI>
0

>  <Rbt.Current_Directory>
/home/itssahil/PROJECTS/Mol_Feturizer/New_Systems/rnas/4TZX

>  <Rbt.Executable>
rbdock ($Id: //depot/dev/client3/rdock/2013.1/src/exe/rbdock.cxx#4 $)

>  <Rbt.Library>
libRbt.so (2013.1, Build901 2013/11/27)

>  <Rbt.Parameter_File>
/export/apps/rDock/src/rDock_2013.1_src/data/scripts/dock_solv.prm

>  <Rbt.Receptor>
prm/pocket_docking_4.prm

>  <SCORE>
-14.3749

>  <SCORE.INTER>
-14.3749

>  <SCORE.INTER.CONST>
1

>  <SCORE.INTER.POLAR>
0

>  <SCORE.INTER.ROT>
0

>  <SCORE.INTER.SOLV>
8.25701

>  <SCORE.INTER.VDW>
-15.9356

>  <SCORE.INTER.norm>
-1.43749

>  <SCORE.INTRA>
0

>  <SCORE.INTRA.DIHEDRAL>
0

>  <SCORE.INTRA.DIHEDRAL.0>
0

>  <SCORE.INTRA.POLAR>
0

>  <SCORE.INTRA.POLAR.0>
0

>  <SCORE.INTRA.REPUL>
0

>  <SCORE.INTRA.REPUL.0>
0

>  <SCORE.INTRA.SOLV>
0

>  <SCORE.INTRA.SOLV.lig_0>
-23.8949

>  <SCORE.INTRA.VDW>
0

>  <SCORE.INTRA.VDW.0>
0

>  <SCORE.INTRA.norm>
0

>  <SCORE.RESTR>
0

>  <SCORE.RESTR.CAVITY>
0

>  <SCORE.RESTR.norm>
0

>  <SCORE.SYSTEM>
0

>  <SCORE.SYSTEM.CONST>
0

>  <SCORE.SYSTEM.DIHEDRAL>
0

>  <SCORE.SYSTEM.SOLV>
0

>  <SCORE.SYSTEM.norm>
0

>  <SCORE.heavy>
10

>  <SCORE.norm>
-1.43749

>  <RMSD>
0.398

$$$$
ligand
 OpenBabel11021811513D
libRbt.so/2013.1/901 2013/11/27
 10 11  0  0  0  0  0  0  0  0999 V2000
  -30.2203   17.0235  -14.9231 N   0  0  0  0  0  0  0  0  0  0  0  0
  -31.0591   18.0574  -14.7742 C   0  0  0  0  0  0  0  0  0  0  0  0
  -31.4867   18.9289  -15.6870 N   0  0  0  0  0  0  0  0  0  0  0  0
  -30.9541   18.6592  -16.8896 C   0  0  0  0  0  0  0  0  0  0  0  0
  -30.0770   17.6358  -17.1978 C   0  0  0  0  0  0  0  0  0  0  0  0
  -29.7016   16.7783  -16.1441 C   0  0  0  0  0  0  0  0  0  0  0  0
  -28.8631   15.7484  -16.2970 N   0  0  0  0  0  0  0  0  0  0  0  0
  -29.7417   17.6661  -18.5407 N   0  0  0  0  0  0  0  0  0  0  0  0
  -30.4105   18.6938  -19.0090 C   0  0  0  0  0  0  0  0  0  0  0  0
  -31.1626   19.3386  -18.0664 N   0  0  0  0  0  0  0  0  0  0  0  0
  1  2  2  0  0  0  0
  1  6  1  0  0  0  0
  2  3  1  0  0  0  0
  3  4  2  0  0  0  0
  4  5  1  0  0  0  0
  4 10  1  0  0  0  0
  5  6  2  0  0  0  0
  5  8  1  0  0  0  0
  6  7  1  0  0  0  0
  8  9  1  0  0  0  0
  9 10  2  0  0  0  0
M  END
>  <CHROM.1>
-30.36208671,17.84442213,-16.74904108,1.26786895,-0.88465643,1.90621364

>  <Name>
ligand

>  <RI>
0

>  <Rbt.Current_Directory>
/home/itssahil/PROJECTS/Mol_Feturizer/New_Systems/rnas/4TZX

>  <Rbt.Executable>
rbdock ($Id: //depot/dev/client3/rdock/2013.1/src/exe/rbdock.cxx#4 $)

>  <Rbt.Library>
libRbt.so (2013.1, Build901 2013/11/27)

>  <Rbt.Parameter_File>
/export/apps/rDock/src/rDock_2013.1_src/data/scripts/dock_solv.prm

>  <Rbt.Receptor>
prm/pocket_docking_5.prm

>  <SCORE>
-14.3835

>  <SCORE.INTER>
-14.3835

>  <SCORE.INTER.CONST>
1

>  <SCORE.INTER.POLAR>
0

>  <SCORE.INTER.ROT>
0

>  <SCORE.INTER.SOLV>
7.96342

>  <SCORE.INTER.VDW>
-15.8435

>  <SCORE.INTER.norm>
-1.43835

>  <SCORE.INTRA>
0

>  <SCORE.INTRA.DIHEDRAL>
0

>  <SCORE.INTRA.DIHEDRAL.0>
0

>  <SCORE.INTRA.POLAR>
0

>  <SCORE.INTRA.POLAR.0>
0

>  <SCORE.INTRA.REPUL>
0

>  <SCORE.INTRA.REPUL.0>
0

>  <SCORE.INTRA.SOLV>
0

>  <SCORE.INTRA.SOLV.lig_0>
-23.8949

>  <SCORE.INTRA.VDW>
0

>  <SCORE.INTRA.VDW.0>
0

>  <SCORE.INTRA.norm>
0

>  <SCORE.RESTR>
0

>  <SCORE.RESTR.CAVITY>
0

>  <SCORE.RESTR.norm>
0

>  <SCORE.SYSTEM>
0

>  <SCORE.SYSTEM.CONST>
0

>  <SCORE.SYSTEM.DIHEDRAL>
0

>  <SCORE.SYSTEM.SOLV>
0

>  <SCORE.SYSTEM.norm>
0

>  <SCORE.heavy>
10

>  <SCORE.norm>
-1.43835

>  <RMSD>
0.398

$$$$
ligand
 OpenBabel11021811513D
libRbt.so/2013.1/901 2013/11/27
 10 11  0  0  0  0  0  0  0  0999 V2000
  -30.2116   17.0264  -14.9184 N   0  0  0  0  0  0  0  0  0  0  0  0
  -31.0525   18.0583  -14.7670 C   0  0  0  0  0  0  0  0  0  0  0  0
  -31.4853   18.9284  -15.6786 N   0  0  0  0  0  0  0  0  0  0  0  0
  -30.9562   18.6596  -16.8830 C   0  0  0  0  0  0  0  0  0  0  0  0
  -30.0777   17.6382  -17.1939 C   0  0  0  0  0  0  0  0  0  0  0  0
  -29.6966   16.7820  -16.1411 C   0  0  0  0  0  0  0  0  0  0  0  0
  -28.8561   15.7541  -16.2965 N   0  0  0  0  0  0  0  0  0  0  0  0
  -29.7471   17.6689  -18.5379 N   0  0  0  0  0  0  0  0  0  0  0  0
  -30.4200   18.6948  -19.0042 C   0  0  0  0  0  0  0  0  0  0  0  0
  -31.1704   19.3381  -18.0592 N   0  0  0  0  0  0  0  0  0  0  0  0
  1  2  2  0  0  0  0
  1  6  1  0  0  0  0
  2  3  1  0  0  0  0
  3  4  2  0  0  0  0
  4  5  1  0  0  0  0
  4 10  1  0  0  0  0
  5  6  2  0  0  0  0
  5  8  1  0  0  0  0
  6  7  1  0  0  0  0
  8  9  1  0  0  0  0
  9 10  2  0  0  0  0
M  END
>  <CHROM.1>
-30.36172762,17.84630161,-16.74415722,1.26147039,-0.88349184,1.90091250

>  <Name>
ligand

>  <RI>
0

>  <Rbt.Current_Directory>
/home/itssahil/PROJECTS/Mol_Feturizer/New_Systems/rnas/4TZX

>  <Rbt.Executable>
rbdock ($Id: //depot/dev/client3/rdock/2013.1/src/exe/rbdock.cxx#4 $)

>  <Rbt.Library>
libRbt.so (2013.1, Build901 2013/11/27)

>  <Rbt.Parameter_File>
/export/apps/rDock/src/rDock_2013.1_src/data/scripts/dock_solv.prm

>  <Rbt.Receptor>
prm/pocket_docking_5.prm

>  <SCORE>
-14.3835

>  <SCORE.INTER>
-14.3835

>  <SCORE.INTER.CONST>
1

>  <SCORE.INTER.POLAR>
0

>  <SCORE.INTER.ROT>
0

>  <SCORE.INTER.SOLV>
7.93096

>  <SCORE.INTER.VDW>
-15.8327

>  <SCORE.INTER.norm>
-1.43835

>  <SCORE.INTRA>
0

>  <SCORE.INTRA.DIHEDRAL>
0

>  <SCORE.INTRA.DIHEDRAL.0>
0

>  <SCORE.INTRA.POLAR>
0

>  <SCORE.INTRA.POLAR.0>
0

>  <SCORE.INTRA.REPUL>
0

>  <SCORE.INTRA.REPUL.0>
0

>  <SCORE.INTRA.SOLV>
0

>  <SCORE.INTRA.SOLV.lig_0>
-23.8949

>  <SCORE.INTRA.VDW>
0

>  <SCORE.INTRA.VDW.0>
0

>  <SCORE.INTRA.norm>
0

>  <SCORE.RESTR>
0

>  <SCORE.RESTR.CAVITY>
0

>  <SCORE.RESTR.norm>
0

>  <SCORE.SYSTEM>
0

>  <SCORE.SYSTEM.CONST>
0

>  <SCORE.SYSTEM.DIHEDRAL>
0

>  <SCORE.SYSTEM.SOLV>
0

>  <SCORE.SYSTEM.norm>
0

>  <SCORE.heavy>
10

>  <SCORE.norm>
-1.43835

>  <RMSD>
0.398

$$$$
ligand
 OpenBabel11021811513D
libRbt.so/2013.1/901 2013/11/27
 10 11  0  0  0  0  0  0  0  0999 V2000
  -30.1947   17.0231  -14.9178 N   0  0  0  0  0  0  0  0  0  0  0  0
  -31.0345   18.0557  -14.7650 C   0  0  0  0  0  0  0  0  0  0  0  0
  -31.4685   18.9259  -15.6761 N   0  0  0  0  0  0  0  0  0  0  0  0
  -30.9419   18.6562  -16.8814 C   0  0  0  0  0  0  0  0  0  0  0  0
  -30.0648   17.6340  -17.1937 C   0  0  0  0  0  0  0  0  0  0  0  0
  -29.6823   16.7778  -16.1414 C   0  0  0  0  0  0  0  0  0  0  0  0
  -28.8429   15.7492  -16.2981 N   0  0  0  0  0  0  0  0  0  0  0  0
  -29.7369   17.6640  -18.5384 N   0  0  0  0  0  0  0  0  0  0  0  0
  -30.4099   18.6902  -19.0037 C   0  0  0  0  0  0  0  0  0  0  0  0
  -31.1579   19.3344  -18.0575 N   0  0  0  0  0  0  0  0  0  0  0  0
  1  2  2  0  0  0  0
  1  6  1  0  0  0  0
  2  3  1  0  0  0  0
  3  4  2  0  0  0  0
  4  5  1  0  0  0  0
  4 10  1  0  0  0  0
  5  6  2  0  0  0  0
  5  8  1  0  0  0  0
  6  7  1  0  0  0  0
  8  9  1  0  0  0  0
  9 10  2  0  0  0  0
M  END
>  <CHROM.1>
-30.34780230,17.84248985,-16.74348529,1.25893075,-0.88486639,1.89860588

>  <Name>
ligand

>  <RI>
0

>  <Rbt.Current_Directory>
/home/itssahil/PROJECTS/Mol_Feturizer/New_Systems/rnas/4TZX

>  <Rbt.Executable>
rbdock ($Id: //depot/dev/client3/rdock/2013.1/src/exe/rbdock.cxx#4 $)

>  <Rbt.Library>
libRbt.so (2013.1, Build901 2013/11/27)

>  <Rbt.Parameter_File>
/export/apps/rDock/src/rDock_2013.1_src/data/scripts/dock_solv.prm

>  <Rbt.Receptor>
prm/pocket_docking_6.prm

>  <SCORE>
-14.3866

>  <SCORE.INTER>
-14.3866

>  <SCORE.INTER.CONST>
1

>  <SCORE.INTER.POLAR>
0

>  <SCORE.INTER.ROT>
0

>  <SCORE.INTER.SOLV>
7.91111

>  <SCORE.INTER.VDW>
-15.8281

>  <SCORE.INTER.norm>
-1.43866

>  <SCORE.INTRA>
0

>  <SCORE.INTRA.DIHEDRAL>
0

>  <SCORE.INTRA.DIHEDRAL.0>
0

>  <SCORE.INTRA.POLAR>
0

>  <SCORE.INTRA.POLAR.0>
0

>  <SCORE.INTRA.REPUL>
0

>  <SCORE.INTRA.REPUL.0>
0

>  <SCORE.INTRA.SOLV>
0

>  <SCORE.INTRA.SOLV.lig_0>
-23.8949

>  <SCORE.INTRA.VDW>
0

>  <SCORE.INTRA.VDW.0>
0

>  <SCORE.INTRA.norm>
0

>  <SCORE.RESTR>
0

>  <SCORE.RESTR.CAVITY>
0

>  <SCORE.RESTR.norm>
0

>  <SCORE.SYSTEM>
0

>  <SCORE.SYSTEM.CONST>
0

>  <SCORE.SYSTEM.DIHEDRAL>
0

>  <SCORE.SYSTEM.SOLV>
0

>  <SCORE.SYSTEM.norm>
0

>  <SCORE.heavy>
10

>  <SCORE.norm>
-1.43866

>  <RMSD>
0.398

$$$$
ligand
 OpenBabel11021811513D
libRbt.so/2013.1/901 2013/11/27
 10 11  0  0  0  0  0  0  0  0999 V2000
  -30.2676   16.9771  -14.9560 N   0  0  0  0  0  0  0  0  0  0  0  0
  -31.0601   18.0449  -14.7928 C   0  0  0  0  0  0  0  0  0  0  0  0
  -31.4470   18.9478  -15.6931 N   0  0  0  0  0  0  0  0  0  0  0  0
  -30.9247   18.6724  -16.8990 C   0  0  0  0  0  0  0  0  0  0  0  0
  -30.0933   17.6158  -17.2213 C   0  0  0  0  0  0  0  0  0  0  0  0
  -29.7581   16.7270  -16.1799 C   0  0  0  0  0  0  0  0  0  0  0  0
  -28.9658   15.6634  -16.3470 N   0  0  0  0  0  0  0  0  0  0  0  0
  -29.7546   17.6510  -18.5633 N   0  0  0  0  0  0  0  0  0  0  0  0
  -30.3763   18.7140  -19.0170 C   0  0  0  0  0  0  0  0  0  0  0  0
  -31.1008   19.3776  -18.0659 N   0  0  0  0  0  0  0  0  0  0  0  0
  1  2  2  0  0  0  0
  1  6  1  0  0  0  0
  2  3  1  0  0  0  0
  3  4  2  0  0  0  0
  4  5  1  0  0  0  0
  4 10  1  0  0  0  0
  5  6  2  0  0  0  0
  5  8  1  0  0  0  0
  6  7  1  0  0  0  0
  8  9  1  0  0  0  0
  9 10  2  0  0  0  0
M  END
>  <CHROM.1>
-30.36961645,17.83022832,-16.76983203,1.29494001,-0.92575118,1.94224676

>  <Name>
ligand

>  <RI>
0

>  <Rbt.Current_Directory>
/home/itssahil/PROJECTS/Mol_Feturizer/New_Systems/rnas/4TZX

>  <Rbt.Executable>
rbdock ($Id: //depot/dev/client3/rdock/2013.1/src/exe/rbdock.cxx#4 $)

>  <Rbt.Library>
libRbt.so (2013.1, Build901 2013/11/27)

>  <Rbt.Parameter_File>
/export/apps/rDock/src/rDock_2013.1_src/data/scripts/dock_solv.prm

>  <Rbt.Receptor>
prm/pocket_docking_7.prm

>  <SCORE>
-14.339

>  <SCORE.INTER>
-14.339

>  <SCORE.INTER.CONST>
1

>  <SCORE.INTER.POLAR>
0

>  <SCORE.INTER.ROT>
0

>  <SCORE.INTER.SOLV>
8.45549

>  <SCORE.INTER.VDW>
-15.9778

>  <SCORE.INTER.norm>
-1.4339

>  <SCORE.INTRA>
0

>  <SCORE.INTRA.DIHEDRAL>
0

>  <SCORE.INTRA.DIHEDRAL.0>
0

>  <SCORE.INTRA.POLAR>
0

>  <SCORE.INTRA.POLAR.0>
0

>  <SCORE.INTRA.REPUL>
0

>  <SCORE.INTRA.REPUL.0>
0

>  <SCORE.INTRA.SOLV>
0

>  <SCORE.INTRA.SOLV.lig_0>
-23.8949

>  <SCORE.INTRA.VDW>
0

>  <SCORE.INTRA.VDW.0>
0

>  <SCORE.INTRA.norm>
0

>  <SCORE.RESTR>
0

>  <SCORE.RESTR.CAVITY>
0

>  <SCORE.RESTR.norm>
0

>  <SCORE.SYSTEM>
0

>  <SCORE.SYSTEM.CONST>
0

>  <SCORE.SYSTEM.DIHEDRAL>
0

>  <SCORE.SYSTEM.SOLV>
0

>  <SCORE.SYSTEM.norm>
0

>  <SCORE.heavy>
10

>  <SCORE.norm>
-1.4339

>  <RMSD>
0.398

$$$$
ligand
 OpenBabel11021811513D
libRbt.so/2013.1/901 2013/11/27
 10 11  0  0  0  0  0  0  0  0999 V2000
  -30.2344   16.9941  -14.9478 N   0  0  0  0  0  0  0  0  0  0  0  0
  -31.0402   18.0523  -14.7876 C   0  0  0  0  0  0  0  0  0  0  0  0
  -31.4469   18.9416  -15.6928 N   0  0  0  0  0  0  0  0  0  0  0  0
  -30.9306   18.6625  -16.9004 C   0  0  0  0  0  0  0  0  0  0  0  0
  -30.0874   17.6146  -17.2201 C   0  0  0  0  0  0  0  0  0  0  0  0
  -29.7315   16.7400  -16.1736 C   0  0  0  0  0  0  0  0  0  0  0  0
  -28.9259   15.6858  -16.3378 N   0  0  0  0  0  0  0  0  0  0  0  0
  -29.7601   17.6423  -18.5651 N   0  0  0  0  0  0  0  0  0  0  0  0
  -30.4002   18.6925  -19.0232 C   0  0  0  0  0  0  0  0  0  0  0  0
  -31.1260   19.3547  -18.0720 N   0  0  0  0  0  0  0  0  0  0  0  0
  1  2  2  0  0  0  0
  1  6  1  0  0  0  0
  2  3  1  0  0  0  0
  3  4  2  0  0  0  0
  4  5  1  0  0  0  0
  4 10  1  0  0  0  0
  5  6  2  0  0  0  0
  5  8  1  0  0  0  0
  6  7  1  0  0  0  0
  8  9  1  0  0  0  0
  9 10  2  0  0  0  0
M  END
>  <CHROM.1>
-30.36296161,17.82925835,-16.76828684,1.27425025,-0.91572065,1.91678246

>  <Name>
ligand

>  <RI>
0

>  <Rbt.Current_Directory>
/home/itssahil/PROJECTS/Mol_Feturizer/New_Systems/rnas/4TZX

>  <Rbt.Executable>
rbdock ($Id: //depot/dev/client3/rdock/2013.1/src/exe/rbdock.cxx#4 $)

>  <Rbt.Library>
libRbt.so (2013.1, Build901 2013/11/27)

>  <Rbt.Parameter_File>
/export/apps/rDock/src/rDock_2013.1_src/data/scripts/dock_solv.prm

>  <Rbt.Receptor>
prm/blind_docking_80.prm

>  <SCORE>
-14.3708

>  <SCORE.INTER>
-14.3708

>  <SCORE.INTER.CONST>
1

>  <SCORE.INTER.POLAR>
0

>  <SCORE.INTER.ROT>
0

>  <SCORE.INTER.SOLV>
8.2977

>  <SCORE.INTER.VDW>
-15.9465

>  <SCORE.INTER.norm>
-1.43708

>  <SCORE.INTRA>
0

>  <SCORE.INTRA.DIHEDRAL>
0

>  <SCORE.INTRA.DIHEDRAL.0>
0

>  <SCORE.INTRA.POLAR>
0

>  <SCORE.INTRA.POLAR.0>
0

>  <SCORE.INTRA.REPUL>
0

>  <SCORE.INTRA.REPUL.0>
0

>  <SCORE.INTRA.SOLV>
0

>  <SCORE.INTRA.SOLV.lig_0>
-23.8949

>  <SCORE.INTRA.VDW>
0

>  <SCORE.INTRA.VDW.0>
0

>  <SCORE.INTRA.norm>
0

>  <SCORE.RESTR>
0

>  <SCORE.RESTR.CAVITY>
0

>  <SCORE.RESTR.norm>
0

>  <SCORE.SYSTEM>
0

>  <SCORE.SYSTEM.CONST>
0

>  <SCORE.SYSTEM.DIHEDRAL>
0

>  <SCORE.SYSTEM.SOLV>
0

>  <SCORE.SYSTEM.norm>
0

>  <SCORE.heavy>
10

>  <SCORE.norm>
-1.43708

>  <RMSD>
0.399

$$$$
ligand
 OpenBabel11021811513D
libRbt.so/2013.1/901 2013/11/27
 10 11  0  0  0  0  0  0  0  0999 V2000
  -30.2352   16.9897  -14.9482 N   0  0  0  0  0  0  0  0  0  0  0  0
  -31.0438   18.0460  -14.7904 C   0  0  0  0  0  0  0  0  0  0  0  0
  -31.4466   18.9368  -15.6959 N   0  0  0  0  0  0  0  0  0  0  0  0
  -30.9225   18.6616  -16.9010 C   0  0  0  0  0  0  0  0  0  0  0  0
  -30.0754   17.6159  -17.2181 C   0  0  0  0  0  0  0  0  0  0  0  0
  -29.7243   16.7394  -16.1716 C   0  0  0  0  0  0  0  0  0  0  0  0
  -28.9159   15.6871  -16.3333 N   0  0  0  0  0  0  0  0  0  0  0  0
  -29.7400   17.6474  -18.5609 N   0  0  0  0  0  0  0  0  0  0  0  0
  -30.3791   18.6977  -19.0204 C   0  0  0  0  0  0  0  0  0  0  0  0
  -31.1119   19.3562  -18.0721 N   0  0  0  0  0  0  0  0  0  0  0  0
  1  2  2  0  0  0  0
  1  6  1  0  0  0  0
  2  3  1  0  0  0  0
  3  4  2  0  0  0  0
  4  5  1  0  0  0  0
  4 10  1  0  0  0  0
  5  6  2  0  0  0  0
  5  8  1  0  0  0  0
  6  7  1  0  0  0  0
  8  9  1  0  0  0  0
  9 10  2  0  0  0  0
M  END
>  <CHROM.1>
-30.35413932,17.82900659,-16.76742366,1.28264411,-0.91196546,1.92584035

>  <Name>
ligand

>  <RI>
0

>  <Rbt.Current_Directory>
/home/itssahil/PROJECTS/Mol_Feturizer/New_Systems/rnas/4TZX

>  <Rbt.Executable>
rbdock ($Id: //depot/dev/client3/rdock/2013.1/src/exe/rbdock.cxx#4 $)

>  <Rbt.Library>
libRbt.so (2013.1, Build901 2013/11/27)

>  <Rbt.Parameter_File>
/export/apps/rDock/src/rDock_2013.1_src/data/scripts/dock_solv.prm

>  <Rbt.Receptor>
prm/pocket_docking_4.prm

>  <SCORE>
-14.374

>  <SCORE.INTER>
-14.374

>  <SCORE.INTER.CONST>
1

>  <SCORE.INTER.POLAR>
0

>  <SCORE.INTER.ROT>
0

>  <SCORE.INTER.SOLV>
8.26768

>  <SCORE.INTER.VDW>
-15.9385

>  <SCORE.INTER.norm>
-1.4374

>  <SCORE.INTRA>
0

>  <SCORE.INTRA.DIHEDRAL>
0

>  <SCORE.INTRA.DIHEDRAL.0>
0

>  <SCORE.INTRA.POLAR>
0

>  <SCORE.INTRA.POLAR.0>
0

>  <SCORE.INTRA.REPUL>
0

>  <SCORE.INTRA.REPUL.0>
0

>  <SCORE.INTRA.SOLV>
0

>  <SCORE.INTRA.SOLV.lig_0>
-23.8949

>  <SCORE.INTRA.VDW>
0

>  <SCORE.INTRA.VDW.0>
0

>  <SCORE.INTRA.norm>
0

>  <SCORE.RESTR>
0

>  <SCORE.RESTR.CAVITY>
0

>  <SCORE.RESTR.norm>
0

>  <SCORE.SYSTEM>
0

>  <SCORE.SYSTEM.CONST>
0

>  <SCORE.SYSTEM.DIHEDRAL>
0

>  <SCORE.SYSTEM.SOLV>
0

>  <SCORE.SYSTEM.norm>
0

>  <SCORE.heavy>
10

>  <SCORE.norm>
-1.4374

>  <RMSD>
0.399

$$$$
ligand
 OpenBabel11021811513D
libRbt.so/2013.1/901 2013/11/27
 10 11  0  0  0  0  0  0  0  0999 V2000
  -30.2051   17.0273  -14.9181 N   0  0  0  0  0  0  0  0  0  0  0  0
  -31.0465   18.0584  -14.7643 C   0  0  0  0  0  0  0  0  0  0  0  0
  -31.4822   18.9286  -15.6745 N   0  0  0  0  0  0  0  0  0  0  0  0
  -30.9554   18.6608  -16.8802 C   0  0  0  0  0  0  0  0  0  0  0  0
  -30.0767   17.6404  -17.1935 C   0  0  0  0  0  0  0  0  0  0  0  0
  -29.6925   16.7840  -16.1421 C   0  0  0  0  0  0  0  0  0  0  0  0
  -28.8515   15.7569  -16.2999 N   0  0  0  0  0  0  0  0  0  0  0  0
  -29.7492   17.6721  -18.5383 N   0  0  0  0  0  0  0  0  0  0  0  0
  -30.4240   18.6976  -19.0026 C   0  0  0  0  0  0  0  0  0  0  0  0
  -31.1729   19.3398  -18.0556 N   0  0  0  0  0  0  0  0  0  0  0  0
  1  2  2  0  0  0  0
  1  6  1  0  0  0  0
  2  3  1  0  0  0  0
  3  4  2  0  0  0  0
  4  5  1  0  0  0  0
  4 10  1  0  0  0  0
  5  6  2  0  0  0  0
  5  8  1  0  0  0  0
  6  7  1  0  0  0  0
  8  9  1  0  0  0  0
  9 10  2  0  0  0  0
M  END
>  <CHROM.1>
-30.35995379,17.84803359,-16.74307529,1.25772469,-0.88336321,1.89853401

>  <Name>
ligand

>  <RI>
0

>  <Rbt.Current_Directory>
/home/itssahil/PROJECTS/Mol_Feturizer/New_Systems/rnas/4TZX

>  <Rbt.Executable>
rbdock ($Id: //depot/dev/client3/rdock/2013.1/src/exe/rbdock.cxx#4 $)

>  <Rbt.Library>
libRbt.so (2013.1, Build901 2013/11/27)

>  <Rbt.Parameter_File>
/export/apps/rDock/src/rDock_2013.1_src/data/scripts/dock_solv.prm

>  <Rbt.Receptor>
prm/pocket_docking_4.prm

>  <SCORE>
-14.3838

>  <SCORE.INTER>
-14.3838

>  <SCORE.INTER.CONST>
1

>  <SCORE.INTER.POLAR>
0

>  <SCORE.INTER.ROT>
0

>  <SCORE.INTER.SOLV>
7.91801

>  <SCORE.INTER.VDW>
-15.8285

>  <SCORE.INTER.norm>
-1.43838

>  <SCORE.INTRA>
0

>  <SCORE.INTRA.DIHEDRAL>
0

>  <SCORE.INTRA.DIHEDRAL.0>
0

>  <SCORE.INTRA.POLAR>
0

>  <SCORE.INTRA.POLAR.0>
0

>  <SCORE.INTRA.REPUL>
0

>  <SCORE.INTRA.REPUL.0>
0

>  <SCORE.INTRA.SOLV>
0

>  <SCORE.INTRA.SOLV.lig_0>
-23.8949

>  <SCORE.INTRA.VDW>
0

>  <SCORE.INTRA.VDW.0>
0

>  <SCORE.INTRA.norm>
0

>  <SCORE.RESTR>
0

>  <SCORE.RESTR.CAVITY>
0

>  <SCORE.RESTR.norm>
0

>  <SCORE.SYSTEM>
0

>  <SCORE.SYSTEM.CONST>
0

>  <SCORE.SYSTEM.DIHEDRAL>
0

>  <SCORE.SYSTEM.SOLV>
0

>  <SCORE.SYSTEM.norm>
0

>  <SCORE.heavy>
10

>  <SCORE.norm>
-1.43838

>  <RMSD>
0.399

$$$$
ligand
 OpenBabel11021811513D
libRbt.so/2013.1/901 2013/11/27
 10 11  0  0  0  0  0  0  0  0999 V2000
  -30.2033   17.0243  -14.9205 N   0  0  0  0  0  0  0  0  0  0  0  0
  -31.0435   18.0566  -14.7683 C   0  0  0  0  0  0  0  0  0  0  0  0
  -31.4768   18.9269  -15.6796 N   0  0  0  0  0  0  0  0  0  0  0  0
  -30.9489   18.6578  -16.8845 C   0  0  0  0  0  0  0  0  0  0  0  0
  -30.0712   17.6360  -17.1961 C   0  0  0  0  0  0  0  0  0  0  0  0
  -29.6895   16.7796  -16.1437 C   0  0  0  0  0  0  0  0  0  0  0  0
  -28.8496   15.7513  -16.2999 N   0  0  0  0  0  0  0  0  0  0  0  0
  -29.7418   17.6665  -18.5405 N   0  0  0  0  0  0  0  0  0  0  0  0
  -30.4146   18.6927  -19.0062 C   0  0  0  0  0  0  0  0  0  0  0  0
  -31.1639   19.3364  -18.0605 N   0  0  0  0  0  0  0  0  0  0  0  0
  1  2  2  0  0  0  0
  1  6  1  0  0  0  0
  2  3  1  0  0  0  0
  3  4  2  0  0  0  0
  4  5  1  0  0  0  0
  4 10  1  0  0  0  0
  5  6  2  0  0  0  0
  5  8  1  0  0  0  0
  6  7  1  0  0  0  0
  8  9  1  0  0  0  0
  9 10  2  0  0  0  0
M  END
>  <CHROM.1>
-30.35470755,17.84425729,-16.74616625,1.26034813,-0.88421870,1.90002881

>  <Name>
ligand

>  <RI>
0

>  <Rbt.Current_Directory>
/home/itssahil/PROJECTS/Mol_Feturizer/New_Systems/rnas/4TZX

>  <Rbt.Executable>
rbdock ($Id: //depot/dev/client3/rdock/2013.1/src/exe/rbdock.cxx#4 $)

>  <Rbt.Library>
libRbt.so (2013.1, Build901 2013/11/27)

>  <Rbt.Parameter_File>
/export/apps/rDock/src/rDock_2013.1_src/data/scripts/dock_solv.prm

>  <Rbt.Receptor>
prm/pocket_docking_7.prm

>  <SCORE>
-14.3869

>  <SCORE.INTER>
-14.3869

>  <SCORE.INTER.CONST>
1

>  <SCORE.INTER.POLAR>
0

>  <SCORE.INTER.ROT>
0

>  <SCORE.INTER.SOLV>
7.92492

>  <SCORE.INTER.VDW>
-15.8329

>  <SCORE.INTER.norm>
-1.43869

>  <SCORE.INTRA>
0

>  <SCORE.INTRA.DIHEDRAL>
0

>  <SCORE.INTRA.DIHEDRAL.0>
0

>  <SCORE.INTRA.POLAR>
0

>  <SCORE.INTRA.POLAR.0>
0

>  <SCORE.INTRA.REPUL>
0

>  <SCORE.INTRA.REPUL.0>
0

>  <SCORE.INTRA.SOLV>
0

>  <SCORE.INTRA.SOLV.lig_0>
-23.8949

>  <SCORE.INTRA.VDW>
0

>  <SCORE.INTRA.VDW.0>
0

>  <SCORE.INTRA.norm>
0

>  <SCORE.RESTR>
0

>  <SCORE.RESTR.CAVITY>
0

>  <SCORE.RESTR.norm>
0

>  <SCORE.SYSTEM>
0

>  <SCORE.SYSTEM.CONST>
0

>  <SCORE.SYSTEM.DIHEDRAL>
0

>  <SCORE.SYSTEM.SOLV>
0

>  <SCORE.SYSTEM.norm>
0

>  <SCORE.heavy>
10

>  <SCORE.norm>
-1.43869

>  <RMSD>
0.399

$$$$
ligand
 OpenBabel11021811513D
libRbt.so/2013.1/901 2013/11/27
 10 11  0  0  0  0  0  0  0  0999 V2000
  -30.2383   17.0001  -14.9440 N   0  0  0  0  0  0  0  0  0  0  0  0
  -31.0496   18.0552  -14.7914 C   0  0  0  0  0  0  0  0  0  0  0  0
  -31.4526   18.9419  -15.7007 N   0  0  0  0  0  0  0  0  0  0  0  0
  -30.9256   18.6636  -16.9039 C   0  0  0  0  0  0  0  0  0  0  0  0
  -30.0756   17.6187  -17.2157 C   0  0  0  0  0  0  0  0  0  0  0  0
  -29.7246   16.7466  -16.1654 C   0  0  0  0  0  0  0  0  0  0  0  0
  -28.9135   15.6956  -16.3220 N   0  0  0  0  0  0  0  0  0  0  0  0
  -29.7378   17.6462  -18.5580 N   0  0  0  0  0  0  0  0  0  0  0  0
  -30.3783   18.6934  -19.0224 C   0  0  0  0  0  0  0  0  0  0  0  0
  -31.1144   19.3536  -18.0778 N   0  0  0  0  0  0  0  0  0  0  0  0
  1  2  2  0  0  0  0
  1  6  1  0  0  0  0
  2  3  1  0  0  0  0
  3  4  2  0  0  0  0
  4  5  1  0  0  0  0
  4 10  1  0  0  0  0
  5  6  2  0  0  0  0
  5  8  1  0  0  0  0
  6  7  1  0  0  0  0
  8  9  1  0  0  0  0
  9 10  2  0  0  0  0
M  END
>  <CHROM.1>
-30.35567815,17.83273054,-16.76632695,1.28425151,-0.90922903,1.92358589

>  <Name>
ligand

>  <RI>
0

>  <Rbt.Current_Directory>
/home/itssahil/PROJECTS/Mol_Feturizer/New_Systems/rnas/4TZX

>  <Rbt.Executable>
rbdock ($Id: //depot/dev/client3/rdock/2013.1/src/exe/rbdock.cxx#4 $)

>  <Rbt.Library>
libRbt.so (2013.1, Build901 2013/11/27)

>  <Rbt.Parameter_File>
/export/apps/rDock/src/rDock_2013.1_src/data/scripts/dock_solv.prm

>  <Rbt.Receptor>
prm/pocket_docking_7.prm

>  <SCORE>
-14.3715

>  <SCORE.INTER>
-14.3715

>  <SCORE.INTER.CONST>
1

>  <SCORE.INTER.POLAR>
0

>  <SCORE.INTER.ROT>
0

>  <SCORE.INTER.SOLV>
8.23282

>  <SCORE.INTER.VDW>
-15.9253

>  <SCORE.INTER.norm>
-1.43715

>  <SCORE.INTRA>
0

>  <SCORE.INTRA.DIHEDRAL>
0

>  <SCORE.INTRA.DIHEDRAL.0>
0

>  <SCORE.INTRA.POLAR>
0

>  <SCORE.INTRA.POLAR.0>
0

>  <SCORE.INTRA.REPUL>
0

>  <SCORE.INTRA.REPUL.0>
0

>  <SCORE.INTRA.SOLV>
0

>  <SCORE.INTRA.SOLV.lig_0>
-23.8949

>  <SCORE.INTRA.VDW>
0

>  <SCORE.INTRA.VDW.0>
0

>  <SCORE.INTRA.norm>
0

>  <SCORE.RESTR>
0

>  <SCORE.RESTR.CAVITY>
0

>  <SCORE.RESTR.norm>
0

>  <SCORE.SYSTEM>
0

>  <SCORE.SYSTEM.CONST>
0

>  <SCORE.SYSTEM.DIHEDRAL>
0

>  <SCORE.SYSTEM.SOLV>
0

>  <SCORE.SYSTEM.norm>
0

>  <SCORE.heavy>
10

>  <SCORE.norm>
-1.43715

>  <RMSD>
0.400

$$$$
ligand
 OpenBabel11021811513D
libRbt.so/2013.1/901 2013/11/27
 10 11  0  0  0  0  0  0  0  0999 V2000
  -30.2172   16.9967  -14.9428 N   0  0  0  0  0  0  0  0  0  0  0  0
  -31.0361   18.0456  -14.7875 C   0  0  0  0  0  0  0  0  0  0  0  0
  -31.4492   18.9290  -15.6954 N   0  0  0  0  0  0  0  0  0  0  0  0
  -30.9244   18.6546  -16.9005 C   0  0  0  0  0  0  0  0  0  0  0  0
  -30.0675   17.6162  -17.2152 C   0  0  0  0  0  0  0  0  0  0  0  0
  -29.7060   16.7471  -16.1661 C   0  0  0  0  0  0  0  0  0  0  0  0
  -28.8874   15.7023  -16.3253 N   0  0  0  0  0  0  0  0  0  0  0  0
  -29.7346   17.6462  -18.5587 N   0  0  0  0  0  0  0  0  0  0  0  0
  -30.3849   18.6883  -19.0209 C   0  0  0  0  0  0  0  0  0  0  0  0
  -31.1226   19.3430  -18.0738 N   0  0  0  0  0  0  0  0  0  0  0  0
  1  2  2  0  0  0  0
  1  6  1  0  0  0  0
  2  3  1  0  0  0  0
  3  4  2  0  0  0  0
  4  5  1  0  0  0  0
  4 10  1  0  0  0  0
  5  6  2  0  0  0  0
  5  8  1  0  0  0  0
  6  7  1  0  0  0  0
  8  9  1  0  0  0  0
  9 10  2  0  0  0  0
M  END
>  <CHROM.1>
-30.34754262,17.82820517,-16.76482019,1.27455461,-0.90319834,1.91581823

>  <Name>
ligand

>  <RI>
0

>  <Rbt.Current_Directory>
/home/itssahil/PROJECTS/Mol_Feturizer/New_Systems/rnas/4TZX

>  <Rbt.Executable>
rbdock ($Id: //depot/dev/client3/rdock/2013.1/src/exe/rbdock.cxx#4 $)

>  <Rbt.Library>
libRbt.so (2013.1, Build901 2013/11/27)

>  <Rbt.Parameter_File>
/export/apps/rDock/src/rDock_2013.1_src/data/scripts/dock_solv.prm

>  <Rbt.Receptor>
prm/pocket_docking_7.prm

>  <SCORE>
-14.3748

>  <SCORE.INTER>
-14.3748

>  <SCORE.INTER.CONST>
1

>  <SCORE.INTER.POLAR>
0

>  <SCORE.INTER.ROT>
0

>  <SCORE.INTER.SOLV>
8.15475

>  <SCORE.INTER.VDW>
-15.9014

>  <SCORE.INTER.norm>
-1.43748

>  <SCORE.INTRA>
0

>  <SCORE.INTRA.DIHEDRAL>
0

>  <SCORE.INTRA.DIHEDRAL.0>
0

>  <SCORE.INTRA.POLAR>
0

>  <SCORE.INTRA.POLAR.0>
0

>  <SCORE.INTRA.REPUL>
0

>  <SCORE.INTRA.REPUL.0>
0

>  <SCORE.INTRA.SOLV>
0

>  <SCORE.INTRA.SOLV.lig_0>
-23.8949

>  <SCORE.INTRA.VDW>
0

>  <SCORE.INTRA.VDW.0>
0

>  <SCORE.INTRA.norm>
0

>  <SCORE.RESTR>
0

>  <SCORE.RESTR.CAVITY>
0

>  <SCORE.RESTR.norm>
0

>  <SCORE.SYSTEM>
0

>  <SCORE.SYSTEM.CONST>
0

>  <SCORE.SYSTEM.DIHEDRAL>
0

>  <SCORE.SYSTEM.SOLV>
0

>  <SCORE.SYSTEM.norm>
0

>  <SCORE.heavy>
10

>  <SCORE.norm>
-1.43748

>  <RMSD>
0.400

$$$$
ligand
 OpenBabel11021811513D
libRbt.so/2013.1/901 2013/11/27
 10 11  0  0  0  0  0  0  0  0999 V2000
  -30.1900   17.0249  -14.9184 N   0  0  0  0  0  0  0  0  0  0  0  0
  -31.0308   18.0560  -14.7618 C   0  0  0  0  0  0  0  0  0  0  0  0
  -31.4698   18.9260  -15.6706 N   0  0  0  0  0  0  0  0  0  0  0  0
  -30.9474   18.6579  -16.8782 C   0  0  0  0  0  0  0  0  0  0  0  0
  -30.0699   17.6374  -17.1944 C   0  0  0  0  0  0  0  0  0  0  0  0
  -29.6818   16.7812  -16.1441 C   0  0  0  0  0  0  0  0  0  0  0  0
  -28.8413   15.7542  -16.3047 N   0  0  0  0  0  0  0  0  0  0  0  0
  -29.7472   17.6687  -18.5404 N   0  0  0  0  0  0  0  0  0  0  0  0
  -30.4236   18.6941  -19.0025 C   0  0  0  0  0  0  0  0  0  0  0  0
  -31.1691   19.3365  -18.0530 N   0  0  0  0  0  0  0  0  0  0  0  0
  1  2  2  0  0  0  0
  1  6  1  0  0  0  0
  2  3  1  0  0  0  0
  3  4  2  0  0  0  0
  4  5  1  0  0  0  0
  4 10  1  0  0  0  0
  5  6  2  0  0  0  0
  5  8  1  0  0  0  0
  6  7  1  0  0  0  0
  8  9  1  0  0  0  0
  9 10  2  0  0  0  0
M  END
>  <CHROM.1>
-30.35144544,17.84514383,-16.74301249,1.25231479,-0.88450874,1.89408499

>  <Name>
ligand

>  <RI>
0

>  <Rbt.Current_Directory>
/home/itssahil/PROJECTS/Mol_Feturizer/New_Systems/rnas/4TZX

>  <Rbt.Executable>
rbdock ($Id: //depot/dev/client3/rdock/2013.1/src/exe/rbdock.cxx#4 $)

>  <Rbt.Library>
libRbt.so (2013.1, Build901 2013/11/27)

>  <Rbt.Parameter_File>
/export/apps/rDock/src/rDock_2013.1_src/data/scripts/dock_solv.prm

>  <Rbt.Receptor>
prm/pocket_docking_8.prm

>  <SCORE>
-14.386

>  <SCORE.INTER>
-14.386

>  <SCORE.INTER.CONST>
1

>  <SCORE.INTER.POLAR>
0

>  <SCORE.INTER.ROT>
0

>  <SCORE.INTER.SOLV>
7.903

>  <SCORE.INTER.VDW>
-15.825

>  <SCORE.INTER.norm>
-1.4386

>  <SCORE.INTRA>
0

>  <SCORE.INTRA.DIHEDRAL>
0

>  <SCORE.INTRA.DIHEDRAL.0>
0

>  <SCORE.INTRA.POLAR>
0

>  <SCORE.INTRA.POLAR.0>
0

>  <SCORE.INTRA.REPUL>
0

>  <SCORE.INTRA.REPUL.0>
0

>  <SCORE.INTRA.SOLV>
0

>  <SCORE.INTRA.SOLV.lig_0>
-23.8949

>  <SCORE.INTRA.VDW>
0

>  <SCORE.INTRA.VDW.0>
0

>  <SCORE.INTRA.norm>
0

>  <SCORE.RESTR>
0

>  <SCORE.RESTR.CAVITY>
0

>  <SCORE.RESTR.norm>
0

>  <SCORE.SYSTEM>
0

>  <SCORE.SYSTEM.CONST>
0

>  <SCORE.SYSTEM.DIHEDRAL>
0

>  <SCORE.SYSTEM.SOLV>
0

>  <SCORE.SYSTEM.norm>
0

>  <SCORE.heavy>
10

>  <SCORE.norm>
-1.4386

>  <RMSD>
0.400

$$$$
ligand
 OpenBabel11021811513D
libRbt.so/2013.1/901 2013/11/27
 10 11  0  0  0  0  0  0  0  0999 V2000
  -30.2168   16.9872  -14.9508 N   0  0  0  0  0  0  0  0  0  0  0  0
  -31.0327   18.0376  -14.7903 C   0  0  0  0  0  0  0  0  0  0  0  0
  -31.4477   18.9233  -15.6952 N   0  0  0  0  0  0  0  0  0  0  0  0
  -30.9287   18.6496  -16.9029 C   0  0  0  0  0  0  0  0  0  0  0  0
  -30.0755   17.6099  -17.2229 C   0  0  0  0  0  0  0  0  0  0  0  0
  -29.7113   16.7383  -16.1767 C   0  0  0  0  0  0  0  0  0  0  0  0
  -28.8957   15.6920  -16.3411 N   0  0  0  0  0  0  0  0  0  0  0  0
  -29.7484   17.6411  -18.5678 N   0  0  0  0  0  0  0  0  0  0  0  0
  -30.3983   18.6854  -19.0256 C   0  0  0  0  0  0  0  0  0  0  0  0
  -31.1305   19.3403  -18.0743 N   0  0  0  0  0  0  0  0  0  0  0  0
  1  2  2  0  0  0  0
  1  6  1  0  0  0  0
  2  3  1  0  0  0  0
  3  4  2  0  0  0  0
  4  5  1  0  0  0  0
  4 10  1  0  0  0  0
  5  6  2  0  0  0  0
  5  8  1  0  0  0  0
  6  7  1  0  0  0  0
  8  9  1  0  0  0  0
  9 10  2  0  0  0  0
M  END
>  <CHROM.1>
-30.35313181,17.82174286,-16.77099454,1.26916827,-0.90671465,1.91311783

>  <Name>
ligand

>  <RI>
0

>  <Rbt.Current_Directory>
/home/itssahil/PROJECTS/Mol_Feturizer/New_Systems/rnas/4TZX

>  <Rbt.Executable>
rbdock ($Id: //depot/dev/client3/rdock/2013.1/src/exe/rbdock.cxx#4 $)

>  <Rbt.Library>
libRbt.so (2013.1, Build901 2013/11/27)

>  <Rbt.Parameter_File>
/export/apps/rDock/src/rDock_2013.1_src/data/scripts/dock_solv.prm

>  <Rbt.Receptor>
prm/blind_docking_100.prm

>  <SCORE>
-14.3754

>  <SCORE.INTER>
-14.3754

>  <SCORE.INTER.CONST>
1

>  <SCORE.INTER.POLAR>
0

>  <SCORE.INTER.ROT>
0

>  <SCORE.INTER.SOLV>
8.21251

>  <SCORE.INTER.VDW>
-15.9211

>  <SCORE.INTER.norm>
-1.43754

>  <SCORE.INTRA>
0

>  <SCORE.INTRA.DIHEDRAL>
0

>  <SCORE.INTRA.DIHEDRAL.0>
0

>  <SCORE.INTRA.POLAR>
0

>  <SCORE.INTRA.POLAR.0>
0

>  <SCORE.INTRA.REPUL>
0

>  <SCORE.INTRA.REPUL.0>
0

>  <SCORE.INTRA.SOLV>
0

>  <SCORE.INTRA.SOLV.lig_0>
-23.8949

>  <SCORE.INTRA.VDW>
0

>  <SCORE.INTRA.VDW.0>
0

>  <SCORE.INTRA.norm>
0

>  <SCORE.RESTR>
0

>  <SCORE.RESTR.CAVITY>
0

>  <SCORE.RESTR.norm>
0

>  <SCORE.SYSTEM>
0

>  <SCORE.SYSTEM.CONST>
0

>  <SCORE.SYSTEM.DIHEDRAL>
0

>  <SCORE.SYSTEM.SOLV>
0

>  <SCORE.SYSTEM.norm>
0

>  <SCORE.heavy>
10

>  <SCORE.norm>
-1.43754

>  <RMSD>
0.401

$$$$
ligand
 OpenBabel11021811513D
libRbt.so/2013.1/901 2013/11/27
 10 11  0  0  0  0  0  0  0  0999 V2000
  -30.2337   16.9898  -14.9512 N   0  0  0  0  0  0  0  0  0  0  0  0
  -31.0464   18.0432  -14.7941 C   0  0  0  0  0  0  0  0  0  0  0  0
  -31.4524   18.9319  -15.7002 N   0  0  0  0  0  0  0  0  0  0  0  0
  -30.9272   18.6578  -16.9051 C   0  0  0  0  0  0  0  0  0  0  0  0
  -30.0762   17.6152  -17.2214 C   0  0  0  0  0  0  0  0  0  0  0  0
  -29.7219   16.7407  -16.1743 C   0  0  0  0  0  0  0  0  0  0  0  0
  -28.9095   15.6913  -16.3353 N   0  0  0  0  0  0  0  0  0  0  0  0
  -29.7408   17.6470  -18.5643 N   0  0  0  0  0  0  0  0  0  0  0  0
  -30.3838   18.6946  -19.0245 C   0  0  0  0  0  0  0  0  0  0  0  0
  -31.1192   19.3510  -18.0767 N   0  0  0  0  0  0  0  0  0  0  0  0
  1  2  2  0  0  0  0
  1  6  1  0  0  0  0
  2  3  1  0  0  0  0
  3  4  2  0  0  0  0
  4  5  1  0  0  0  0
  4 10  1  0  0  0  0
  5  6  2  0  0  0  0
  5  8  1  0  0  0  0
  6  7  1  0  0  0  0
  8  9  1  0  0  0  0
  9 10  2  0  0  0  0
M  END
>  <CHROM.1>
-30.35573853,17.82749932,-16.77094126,1.28061789,-0.90839531,1.92358457

>  <Name>
ligand

>  <RI>
0

>  <Rbt.Current_Directory>
/home/itssahil/PROJECTS/Mol_Feturizer/New_Systems/rnas/4TZX

>  <Rbt.Executable>
rbdock ($Id: //depot/dev/client3/rdock/2013.1/src/exe/rbdock.cxx#4 $)

>  <Rbt.Library>
libRbt.so (2013.1, Build901 2013/11/27)

>  <Rbt.Parameter_File>
/export/apps/rDock/src/rDock_2013.1_src/data/scripts/dock_solv.prm

>  <Rbt.Receptor>
prm/blind_docking_80.prm

>  <SCORE>
-14.3759

>  <SCORE.INTER>
-14.3759

>  <SCORE.INTER.CONST>
1

>  <SCORE.INTER.POLAR>
0

>  <SCORE.INTER.ROT>
0

>  <SCORE.INTER.SOLV>
8.24623

>  <SCORE.INTER.VDW>
-15.9327

>  <SCORE.INTER.norm>
-1.43759

>  <SCORE.INTRA>
0

>  <SCORE.INTRA.DIHEDRAL>
0

>  <SCORE.INTRA.DIHEDRAL.0>
0

>  <SCORE.INTRA.POLAR>
0

>  <SCORE.INTRA.POLAR.0>
0

>  <SCORE.INTRA.REPUL>
0

>  <SCORE.INTRA.REPUL.0>
0

>  <SCORE.INTRA.SOLV>
0

>  <SCORE.INTRA.SOLV.lig_0>
-23.8949

>  <SCORE.INTRA.VDW>
0

>  <SCORE.INTRA.VDW.0>
0

>  <SCORE.INTRA.norm>
0

>  <SCORE.RESTR>
0

>  <SCORE.RESTR.CAVITY>
0

>  <SCORE.RESTR.norm>
0

>  <SCORE.SYSTEM>
0

>  <SCORE.SYSTEM.CONST>
0

>  <SCORE.SYSTEM.DIHEDRAL>
0

>  <SCORE.SYSTEM.SOLV>
0

>  <SCORE.SYSTEM.norm>
0

>  <SCORE.heavy>
10

>  <SCORE.norm>
-1.43759

>  <RMSD>
0.401

$$$$
ligand
 OpenBabel11021811513D
libRbt.so/2013.1/901 2013/11/27
 10 11  0  0  0  0  0  0  0  0999 V2000
  -30.2432   16.9683  -14.9628 N   0  0  0  0  0  0  0  0  0  0  0  0
  -31.0462   18.0276  -14.7959 C   0  0  0  0  0  0  0  0  0  0  0  0
  -31.4467   18.9265  -15.6943 N   0  0  0  0  0  0  0  0  0  0  0  0
  -30.9269   18.6568  -16.9025 C   0  0  0  0  0  0  0  0  0  0  0  0
  -30.0858   17.6091  -17.2287 C   0  0  0  0  0  0  0  0  0  0  0  0
  -29.7366   16.7238  -16.1890 C   0  0  0  0  0  0  0  0  0  0  0  0
  -28.9339   15.6685  -16.3598 N   0  0  0  0  0  0  0  0  0  0  0  0
  -29.7535   17.6480  -18.5722 N   0  0  0  0  0  0  0  0  0  0  0  0
  -30.3884   18.7045  -19.0230 C   0  0  0  0  0  0  0  0  0  0  0  0
  -31.1156   19.3603  -18.0684 N   0  0  0  0  0  0  0  0  0  0  0  0
  1  2  2  0  0  0  0
  1  6  1  0  0  0  0
  2  3  1  0  0  0  0
  3  4  2  0  0  0  0
  4  5  1  0  0  0  0
  4 10  1  0  0  0  0
  5  6  2  0  0  0  0
  5  8  1  0  0  0  0
  6  7  1  0  0  0  0
  8  9  1  0  0  0  0
  9 10  2  0  0  0  0
M  END
>  <CHROM.1>
-30.36238202,17.82051506,-16.77596561,1.28179131,-0.91750092,1.93191873

>  <Name>
ligand

>  <RI>
0

>  <Rbt.Current_Directory>
/home/itssahil/PROJECTS/Mol_Feturizer/New_Systems/rnas/4TZX

>  <Rbt.Executable>
rbdock ($Id: //depot/dev/client3/rdock/2013.1/src/exe/rbdock.cxx#4 $)

>  <Rbt.Library>
libRbt.so (2013.1, Build901 2013/11/27)

>  <Rbt.Parameter_File>
/export/apps/rDock/src/rDock_2013.1_src/data/scripts/dock_solv.prm

>  <Rbt.Receptor>
prm/pocket_docking_3.prm

>  <SCORE>
-14.3446

>  <SCORE.INTER>
-14.3446

>  <SCORE.INTER.CONST>
1

>  <SCORE.INTER.POLAR>
0

>  <SCORE.INTER.ROT>
0

>  <SCORE.INTER.SOLV>
8.37875

>  <SCORE.INTER.VDW>
-15.956

>  <SCORE.INTER.norm>
-1.43446

>  <SCORE.INTRA>
0

>  <SCORE.INTRA.DIHEDRAL>
0

>  <SCORE.INTRA.DIHEDRAL.0>
0

>  <SCORE.INTRA.POLAR>
0

>  <SCORE.INTRA.POLAR.0>
0

>  <SCORE.INTRA.REPUL>
0

>  <SCORE.INTRA.REPUL.0>
0

>  <SCORE.INTRA.SOLV>
0

>  <SCORE.INTRA.SOLV.lig_0>
-23.8949

>  <SCORE.INTRA.VDW>
0

>  <SCORE.INTRA.VDW.0>
0

>  <SCORE.INTRA.norm>
0

>  <SCORE.RESTR>
0

>  <SCORE.RESTR.CAVITY>
0

>  <SCORE.RESTR.norm>
0

>  <SCORE.SYSTEM>
0

>  <SCORE.SYSTEM.CONST>
0

>  <SCORE.SYSTEM.DIHEDRAL>
0

>  <SCORE.SYSTEM.SOLV>
0

>  <SCORE.SYSTEM.norm>
0

>  <SCORE.heavy>
10

>  <SCORE.norm>
-1.43446

>  <RMSD>
0.401

$$$$
ligand
 OpenBabel11021811513D
libRbt.so/2013.1/901 2013/11/27
 10 11  0  0  0  0  0  0  0  0999 V2000
  -30.2261   16.9857  -14.9538 N   0  0  0  0  0  0  0  0  0  0  0  0
  -31.0368   18.0399  -14.7921 C   0  0  0  0  0  0  0  0  0  0  0  0
  -31.4472   18.9290  -15.6958 N   0  0  0  0  0  0  0  0  0  0  0  0
  -30.9292   18.6543  -16.9038 C   0  0  0  0  0  0  0  0  0  0  0  0
  -30.0811   17.6108  -17.2249 C   0  0  0  0  0  0  0  0  0  0  0  0
  -29.7216   16.7360  -16.1798 C   0  0  0  0  0  0  0  0  0  0  0  0
  -28.9111   15.6859  -16.3455 N   0  0  0  0  0  0  0  0  0  0  0  0
  -29.7534   17.6423  -18.5697 N   0  0  0  0  0  0  0  0  0  0  0  0
  -30.3981   18.6904  -19.0262 C   0  0  0  0  0  0  0  0  0  0  0  0
  -31.1273   19.3476  -18.0742 N   0  0  0  0  0  0  0  0  0  0  0  0
  1  2  2  0  0  0  0
  1  6  1  0  0  0  0
  2  3  1  0  0  0  0
  3  4  2  0  0  0  0
  4  5  1  0  0  0  0
  4 10  1  0  0  0  0
  5  6  2  0  0  0  0
  5  8  1  0  0  0  0
  6  7  1  0  0  0  0
  8  9  1  0  0  0  0
  9 10  2  0  0  0  0
M  END
>  <CHROM.1>
-30.35780215,17.82344888,-16.77283798,1.27231037,-0.91129664,1.91698182

>  <Name>
ligand

>  <RI>
0

>  <Rbt.Current_Directory>
/home/itssahil/PROJECTS/Mol_Feturizer/New_Systems/rnas/4TZX

>  <Rbt.Executable>
rbdock ($Id: //depot/dev/client3/rdock/2013.1/src/exe/rbdock.cxx#4 $)

>  <Rbt.Library>
libRbt.so (2013.1, Build901 2013/11/27)

>  <Rbt.Parameter_File>
/export/apps/rDock/src/rDock_2013.1_src/data/scripts/dock_solv.prm

>  <Rbt.Receptor>
prm/pocket_docking_4.prm

>  <SCORE>
-14.3752

>  <SCORE.INTER>
-14.3752

>  <SCORE.INTER.CONST>
1

>  <SCORE.INTER.POLAR>
0

>  <SCORE.INTER.ROT>
0

>  <SCORE.INTER.SOLV>
8.26987

>  <SCORE.INTER.VDW>
-15.9401

>  <SCORE.INTER.norm>
-1.43752

>  <SCORE.INTRA>
0

>  <SCORE.INTRA.DIHEDRAL>
0

>  <SCORE.INTRA.DIHEDRAL.0>
0

>  <SCORE.INTRA.POLAR>
0

>  <SCORE.INTRA.POLAR.0>
0

>  <SCORE.INTRA.REPUL>
0

>  <SCORE.INTRA.REPUL.0>
0

>  <SCORE.INTRA.SOLV>
0

>  <SCORE.INTRA.SOLV.lig_0>
-23.8949

>  <SCORE.INTRA.VDW>
0

>  <SCORE.INTRA.VDW.0>
0

>  <SCORE.INTRA.norm>
0

>  <SCORE.RESTR>
0

>  <SCORE.RESTR.CAVITY>
0

>  <SCORE.RESTR.norm>
0

>  <SCORE.SYSTEM>
0

>  <SCORE.SYSTEM.CONST>
0

>  <SCORE.SYSTEM.DIHEDRAL>
0

>  <SCORE.SYSTEM.SOLV>
0

>  <SCORE.SYSTEM.norm>
0

>  <SCORE.heavy>
10

>  <SCORE.norm>
-1.43752

>  <RMSD>
0.401

$$$$
ligand
 OpenBabel11021811513D
libRbt.so/2013.1/901 2013/11/27
 10 11  0  0  0  0  0  0  0  0999 V2000
  -30.2269   16.9935  -14.9488 N   0  0  0  0  0  0  0  0  0  0  0  0
  -31.0402   18.0465  -14.7916 C   0  0  0  0  0  0  0  0  0  0  0  0
  -31.4503   18.9323  -15.6986 N   0  0  0  0  0  0  0  0  0  0  0  0
  -30.9289   18.6557  -16.9046 C   0  0  0  0  0  0  0  0  0  0  0  0
  -30.0778   17.6132  -17.2212 C   0  0  0  0  0  0  0  0  0  0  0  0
  -29.7189   16.7418  -16.1730 C   0  0  0  0  0  0  0  0  0  0  0  0
  -28.9059   15.6929  -16.3340 N   0  0  0  0  0  0  0  0  0  0  0  0
  -29.7471   17.6419  -18.5652 N   0  0  0  0  0  0  0  0  0  0  0  0
  -30.3928   18.6876  -19.0259 C   0  0  0  0  0  0  0  0  0  0  0  0
  -31.1257   19.3456  -18.0773 N   0  0  0  0  0  0  0  0  0  0  0  0
  1  2  2  0  0  0  0
  1  6  1  0  0  0  0
  2  3  1  0  0  0  0
  3  4  2  0  0  0  0
  4  5  1  0  0  0  0
  4 10  1  0  0  0  0
  5  6  2  0  0  0  0
  5  8  1  0  0  0  0
  6  7  1  0  0  0  0
  8  9  1  0  0  0  0
  9 10  2  0  0  0  0
M  END
>  <CHROM.1>
-30.35604815,17.82636969,-16.77024587,1.27475421,-0.90851041,1.91636737

>  <Name>
ligand

>  <RI>
0

>  <Rbt.Current_Directory>
/home/itssahil/PROJECTS/Mol_Feturizer/New_Systems/rnas/4TZX

>  <Rbt.Executable>
rbdock ($Id: //depot/dev/client3/rdock/2013.1/src/exe/rbdock.cxx#4 $)

>  <Rbt.Library>
libRbt.so (2013.1, Build901 2013/11/27)

>  <Rbt.Parameter_File>
/export/apps/rDock/src/rDock_2013.1_src/data/scripts/dock_solv.prm

>  <Rbt.Receptor>
prm/pocket_docking_4.prm

>  <SCORE>
-14.374

>  <SCORE.INTER>
-14.374

>  <SCORE.INTER.CONST>
1

>  <SCORE.INTER.POLAR>
0

>  <SCORE.INTER.ROT>
0

>  <SCORE.INTER.SOLV>
8.23035

>  <SCORE.INTER.VDW>
-15.9261

>  <SCORE.INTER.norm>
-1.4374

>  <SCORE.INTRA>
0

>  <SCORE.INTRA.DIHEDRAL>
0

>  <SCORE.INTRA.DIHEDRAL.0>
0

>  <SCORE.INTRA.POLAR>
0

>  <SCORE.INTRA.POLAR.0>
0

>  <SCORE.INTRA.REPUL>
0

>  <SCORE.INTRA.REPUL.0>
0

>  <SCORE.INTRA.SOLV>
0

>  <SCORE.INTRA.SOLV.lig_0>
-23.8949

>  <SCORE.INTRA.VDW>
0

>  <SCORE.INTRA.VDW.0>
0

>  <SCORE.INTRA.norm>
0

>  <SCORE.RESTR>
0

>  <SCORE.RESTR.CAVITY>
0

>  <SCORE.RESTR.norm>
0

>  <SCORE.SYSTEM>
0

>  <SCORE.SYSTEM.CONST>
0

>  <SCORE.SYSTEM.DIHEDRAL>
0

>  <SCORE.SYSTEM.SOLV>
0

>  <SCORE.SYSTEM.norm>
0

>  <SCORE.heavy>
10

>  <SCORE.norm>
-1.4374

>  <RMSD>
0.401

$$$$
ligand
 OpenBabel11021811513D
libRbt.so/2013.1/901 2013/11/27
 10 11  0  0  0  0  0  0  0  0999 V2000
  -30.1795   17.0266  -14.9176 N   0  0  0  0  0  0  0  0  0  0  0  0
  -31.0223   18.0563  -14.7614 C   0  0  0  0  0  0  0  0  0  0  0  0
  -31.4649   18.9235  -15.6711 N   0  0  0  0  0  0  0  0  0  0  0  0
  -30.9444   18.6541  -16.8791 C   0  0  0  0  0  0  0  0  0  0  0  0
  -30.0652   17.6349  -17.1951 C   0  0  0  0  0  0  0  0  0  0  0  0
  -29.6733   16.7816  -16.1439 C   0  0  0  0  0  0  0  0  0  0  0  0
  -28.8309   15.7560  -16.3041 N   0  0  0  0  0  0  0  0  0  0  0  0
  -29.7453   17.6642  -18.5418 N   0  0  0  0  0  0  0  0  0  0  0  0
  -30.4249   18.6872  -19.0046 C   0  0  0  0  0  0  0  0  0  0  0  0
  -31.1698   19.3299  -18.0548 N   0  0  0  0  0  0  0  0  0  0  0  0
  1  2  2  0  0  0  0
  1  6  1  0  0  0  0
  2  3  1  0  0  0  0
  3  4  2  0  0  0  0
  4  5  1  0  0  0  0
  4 10  1  0  0  0  0
  5  6  2  0  0  0  0
  5  8  1  0  0  0  0
  6  7  1  0  0  0  0
  8  9  1  0  0  0  0
  9 10  2  0  0  0  0
M  END
>  <CHROM.1>
-30.34639097,17.84289730,-16.74355927,1.24830486,-0.88308993,1.88900984

>  <Name>
ligand

>  <RI>
0

>  <Rbt.Current_Directory>
/home/itssahil/PROJECTS/Mol_Feturizer/New_Systems/rnas/4TZX

>  <Rbt.Executable>
rbdock ($Id: //depot/dev/client3/rdock/2013.1/src/exe/rbdock.cxx#4 $)

>  <Rbt.Library>
libRbt.so (2013.1, Build901 2013/11/27)

>  <Rbt.Parameter_File>
/export/apps/rDock/src/rDock_2013.1_src/data/scripts/dock_solv.prm

>  <Rbt.Receptor>
prm/pocket_docking_5.prm

>  <SCORE>
-14.3841

>  <SCORE.INTER>
-14.3841

>  <SCORE.INTER.CONST>
1

>  <SCORE.INTER.POLAR>
0

>  <SCORE.INTER.ROT>
0

>  <SCORE.INTER.SOLV>
7.87551

>  <SCORE.INTER.VDW>
-15.8146

>  <SCORE.INTER.norm>
-1.43841

>  <SCORE.INTRA>
0

>  <SCORE.INTRA.DIHEDRAL>
0

>  <SCORE.INTRA.DIHEDRAL.0>
0

>  <SCORE.INTRA.POLAR>
0

>  <SCORE.INTRA.POLAR.0>
0

>  <SCORE.INTRA.REPUL>
0

>  <SCORE.INTRA.REPUL.0>
0

>  <SCORE.INTRA.SOLV>
0

>  <SCORE.INTRA.SOLV.lig_0>
-23.8949

>  <SCORE.INTRA.VDW>
0

>  <SCORE.INTRA.VDW.0>
0

>  <SCORE.INTRA.norm>
0

>  <SCORE.RESTR>
0

>  <SCORE.RESTR.CAVITY>
0

>  <SCORE.RESTR.norm>
0

>  <SCORE.SYSTEM>
0

>  <SCORE.SYSTEM.CONST>
0

>  <SCORE.SYSTEM.DIHEDRAL>
0

>  <SCORE.SYSTEM.SOLV>
0

>  <SCORE.SYSTEM.norm>
0

>  <SCORE.heavy>
10

>  <SCORE.norm>
-1.43841

>  <RMSD>
0.401

$$$$
ligand
 OpenBabel11021811513D
libRbt.so/2013.1/901 2013/11/27
 10 11  0  0  0  0  0  0  0  0999 V2000
  -30.1850   17.0236  -14.9185 N   0  0  0  0  0  0  0  0  0  0  0  0
  -31.0239   18.0562  -14.7616 C   0  0  0  0  0  0  0  0  0  0  0  0
  -31.4615   18.9270  -15.6703 N   0  0  0  0  0  0  0  0  0  0  0  0
  -30.9401   18.6579  -16.8781 C   0  0  0  0  0  0  0  0  0  0  0  0
  -30.0645   17.6358  -17.1946 C   0  0  0  0  0  0  0  0  0  0  0  0
  -29.6777   16.7789  -16.1445 C   0  0  0  0  0  0  0  0  0  0  0  0
  -28.8392   15.7503  -16.3053 N   0  0  0  0  0  0  0  0  0  0  0  0
  -29.7422   17.6665  -18.5407 N   0  0  0  0  0  0  0  0  0  0  0  0
  -30.4170   18.6932  -19.0026 C   0  0  0  0  0  0  0  0  0  0  0  0
  -31.1609   19.3369  -18.0528 N   0  0  0  0  0  0  0  0  0  0  0  0
  1  2  2  0  0  0  0
  1  6  1  0  0  0  0
  2  3  1  0  0  0  0
  3  4  2  0  0  0  0
  4  5  1  0  0  0  0
  4 10  1  0  0  0  0
  5  6  2  0  0  0  0
  5  8  1  0  0  0  0
  6  7  1  0  0  0  0
  8  9  1  0  0  0  0
  9 10  2  0  0  0  0
M  END
>  <CHROM.1>
-30.34556942,17.84406520,-16.74311420,1.25272605,-0.88638230,1.89440224

>  <Name>
ligand

>  <RI>
0

>  <Rbt.Current_Directory>
/home/itssahil/PROJECTS/Mol_Feturizer/New_Systems/rnas/4TZX

>  <Rbt.Executable>
rbdock ($Id: //depot/dev/client3/rdock/2013.1/src/exe/rbdock.cxx#4 $)

>  <Rbt.Library>
libRbt.so (2013.1, Build901 2013/11/27)

>  <Rbt.Parameter_File>
/export/apps/rDock/src/rDock_2013.1_src/data/scripts/dock_solv.prm

>  <Rbt.Receptor>
prm/pocket_docking_7.prm

>  <SCORE>
-14.3862

>  <SCORE.INTER>
-14.3862

>  <SCORE.INTER.CONST>
1

>  <SCORE.INTER.POLAR>
0

>  <SCORE.INTER.ROT>
0

>  <SCORE.INTER.SOLV>
7.90642

>  <SCORE.INTER.VDW>
-15.8263

>  <SCORE.INTER.norm>
-1.43862

>  <SCORE.INTRA>
0

>  <SCORE.INTRA.DIHEDRAL>
0

>  <SCORE.INTRA.DIHEDRAL.0>
0

>  <SCORE.INTRA.POLAR>
0

>  <SCORE.INTRA.POLAR.0>
0

>  <SCORE.INTRA.REPUL>
0

>  <SCORE.INTRA.REPUL.0>
0

>  <SCORE.INTRA.SOLV>
0

>  <SCORE.INTRA.SOLV.lig_0>
-23.8949

>  <SCORE.INTRA.VDW>
0

>  <SCORE.INTRA.VDW.0>
0

>  <SCORE.INTRA.norm>
0

>  <SCORE.RESTR>
0

>  <SCORE.RESTR.CAVITY>
0

>  <SCORE.RESTR.norm>
0

>  <SCORE.SYSTEM>
0

>  <SCORE.SYSTEM.CONST>
0

>  <SCORE.SYSTEM.DIHEDRAL>
0

>  <SCORE.SYSTEM.SOLV>
0

>  <SCORE.SYSTEM.norm>
0

>  <SCORE.heavy>
10

>  <SCORE.norm>
-1.43862

>  <RMSD>
0.401

$$$$
ligand
 OpenBabel11021811513D
libRbt.so/2013.1/901 2013/11/27
 10 11  0  0  0  0  0  0  0  0999 V2000
  -30.1975   17.0220  -14.9225 N   0  0  0  0  0  0  0  0  0  0  0  0
  -31.0374   18.0542  -14.7675 C   0  0  0  0  0  0  0  0  0  0  0  0
  -31.4729   18.9252  -15.6771 N   0  0  0  0  0  0  0  0  0  0  0  0
  -30.9478   18.6570  -16.8834 C   0  0  0  0  0  0  0  0  0  0  0  0
  -30.0709   17.6355  -17.1980 C   0  0  0  0  0  0  0  0  0  0  0  0
  -29.6866   16.7783  -16.1471 C   0  0  0  0  0  0  0  0  0  0  0  0
  -28.8471   15.7501  -16.3061 N   0  0  0  0  0  0  0  0  0  0  0  0
  -29.7447   17.6670  -18.5431 N   0  0  0  0  0  0  0  0  0  0  0  0
  -30.4187   18.6935  -19.0064 C   0  0  0  0  0  0  0  0  0  0  0  0
  -31.1657   19.3365  -18.0584 N   0  0  0  0  0  0  0  0  0  0  0  0
  1  2  2  0  0  0  0
  1  6  1  0  0  0  0
  2  3  1  0  0  0  0
  3  4  2  0  0  0  0
  4  5  1  0  0  0  0
  4 10  1  0  0  0  0
  5  6  2  0  0  0  0
  5  8  1  0  0  0  0
  6  7  1  0  0  0  0
  8  9  1  0  0  0  0
  9 10  2  0  0  0  0
M  END
>  <CHROM.1>
-30.35329221,17.84336639,-16.74716497,1.25675188,-0.88497706,1.89801311

>  <Name>
ligand

>  <RI>
0

>  <Rbt.Current_Directory>
/home/itssahil/PROJECTS/Mol_Feturizer/New_Systems/rnas/4TZX

>  <Rbt.Executable>
rbdock ($Id: //depot/dev/client3/rdock/2013.1/src/exe/rbdock.cxx#4 $)

>  <Rbt.Library>
libRbt.so (2013.1, Build901 2013/11/27)

>  <Rbt.Parameter_File>
/export/apps/rDock/src/rDock_2013.1_src/data/scripts/dock_solv.prm

>  <Rbt.Receptor>
prm/pocket_docking_7.prm

>  <SCORE>
-14.3869

>  <SCORE.INTER>
-14.3869

>  <SCORE.INTER.CONST>
1

>  <SCORE.INTER.POLAR>
0

>  <SCORE.INTER.ROT>
0

>  <SCORE.INTER.SOLV>
7.92867

>  <SCORE.INTER.VDW>
-15.8342

>  <SCORE.INTER.norm>
-1.43869

>  <SCORE.INTRA>
0

>  <SCORE.INTRA.DIHEDRAL>
0

>  <SCORE.INTRA.DIHEDRAL.0>
0

>  <SCORE.INTRA.POLAR>
0

>  <SCORE.INTRA.POLAR.0>
0

>  <SCORE.INTRA.REPUL>
0

>  <SCORE.INTRA.REPUL.0>
0

>  <SCORE.INTRA.SOLV>
0

>  <SCORE.INTRA.SOLV.lig_0>
-23.8949

>  <SCORE.INTRA.VDW>
0

>  <SCORE.INTRA.VDW.0>
0

>  <SCORE.INTRA.norm>
0

>  <SCORE.RESTR>
0

>  <SCORE.RESTR.CAVITY>
0

>  <SCORE.RESTR.norm>
0

>  <SCORE.SYSTEM>
0

>  <SCORE.SYSTEM.CONST>
0

>  <SCORE.SYSTEM.DIHEDRAL>
0

>  <SCORE.SYSTEM.SOLV>
0

>  <SCORE.SYSTEM.norm>
0

>  <SCORE.heavy>
10

>  <SCORE.norm>
-1.43869

>  <RMSD>
0.401

$$$$
ligand
 OpenBabel11021811513D
libRbt.so/2013.1/901 2013/11/27
 10 11  0  0  0  0  0  0  0  0999 V2000
  -30.1887   17.0251  -14.9188 N   0  0  0  0  0  0  0  0  0  0  0  0
  -31.0301   18.0556  -14.7610 C   0  0  0  0  0  0  0  0  0  0  0  0
  -31.4699   18.9260  -15.6690 N   0  0  0  0  0  0  0  0  0  0  0  0
  -30.9477   18.6593  -16.8769 C   0  0  0  0  0  0  0  0  0  0  0  0
  -30.0697   17.6395  -17.1943 C   0  0  0  0  0  0  0  0  0  0  0  0
  -29.6808   16.7827  -16.1449 C   0  0  0  0  0  0  0  0  0  0  0  0
  -28.8398   15.7562  -16.3066 N   0  0  0  0  0  0  0  0  0  0  0  0
  -29.7475   17.6722  -18.5404 N   0  0  0  0  0  0  0  0  0  0  0  0
  -30.4247   18.6976  -19.0014 C   0  0  0  0  0  0  0  0  0  0  0  0
  -31.1702   19.3387  -18.0511 N   0  0  0  0  0  0  0  0  0  0  0  0
  1  2  2  0  0  0  0
  1  6  1  0  0  0  0
  2  3  1  0  0  0  0
  3  4  2  0  0  0  0
  4  5  1  0  0  0  0
  4 10  1  0  0  0  0
  5  6  2  0  0  0  0
  5  8  1  0  0  0  0
  6  7  1  0  0  0  0
  8  9  1  0  0  0  0
  9 10  2  0  0  0  0
M  END
>  <CHROM.1>
-30.35125989,17.84671895,-16.74265538,1.25154659,-0.88408021,1.89433739

>  <Name>
ligand

>  <RI>
0

>  <Rbt.Current_Directory>
/home/itssahil/PROJECTS/Mol_Feturizer/New_Systems/rnas/4TZX

>  <Rbt.Executable>
rbdock ($Id: //depot/dev/client3/rdock/2013.1/src/exe/rbdock.cxx#4 $)

>  <Rbt.Library>
libRbt.so (2013.1, Build901 2013/11/27)

>  <Rbt.Parameter_File>
/export/apps/rDock/src/rDock_2013.1_src/data/scripts/dock_solv.prm

>  <Rbt.Receptor>
prm/pocket_docking_8.prm

>  <SCORE>
-14.3863

>  <SCORE.INTER>
-14.3867

>  <SCORE.INTER.CONST>
1

>  <SCORE.INTER.POLAR>
0

>  <SCORE.INTER.ROT>
0

>  <SCORE.INTER.SOLV>
7.89801

>  <SCORE.INTER.VDW>
-15.8238

>  <SCORE.INTER.norm>
-1.43867

>  <SCORE.INTRA>
0

>  <SCORE.INTRA.DIHEDRAL>
0

>  <SCORE.INTRA.DIHEDRAL.0>
0

>  <SCORE.INTRA.POLAR>
0

>  <SCORE.INTRA.POLAR.0>
0

>  <SCORE.INTRA.REPUL>
0

>  <SCORE.INTRA.REPUL.0>
0

>  <SCORE.INTRA.SOLV>
0

>  <SCORE.INTRA.SOLV.lig_0>
-23.8949

>  <SCORE.INTRA.VDW>
0

>  <SCORE.INTRA.VDW.0>
0

>  <SCORE.INTRA.norm>
0

>  <SCORE.RESTR>
0.000324175

>  <SCORE.RESTR.CAVITY>
0.000324175

>  <SCORE.RESTR.norm>
3.24175e-05

>  <SCORE.SYSTEM>
0

>  <SCORE.SYSTEM.CONST>
0

>  <SCORE.SYSTEM.DIHEDRAL>
0

>  <SCORE.SYSTEM.SOLV>
0

>  <SCORE.SYSTEM.norm>
0

>  <SCORE.heavy>
10

>  <SCORE.norm>
-1.43863

>  <RMSD>
0.401

$$$$
ligand
 OpenBabel11021811513D
libRbt.so/2013.1/901 2013/11/27
 10 11  0  0  0  0  0  0  0  0999 V2000
  -30.1994   17.0270  -14.9212 N   0  0  0  0  0  0  0  0  0  0  0  0
  -31.0415   18.0578  -14.7686 C   0  0  0  0  0  0  0  0  0  0  0  0
  -31.4786   18.9259  -15.6800 N   0  0  0  0  0  0  0  0  0  0  0  0
  -30.9527   18.6562  -16.8857 C   0  0  0  0  0  0  0  0  0  0  0  0
  -30.0735   17.6359  -17.1979 C   0  0  0  0  0  0  0  0  0  0  0  0
  -29.6878   16.7817  -16.1451 C   0  0  0  0  0  0  0  0  0  0  0  0
  -28.8461   15.7549  -16.3017 N   0  0  0  0  0  0  0  0  0  0  0  0
  -29.7472   17.6652  -18.5430 N   0  0  0  0  0  0  0  0  0  0  0  0
  -30.4231   18.6893  -19.0086 C   0  0  0  0  0  0  0  0  0  0  0  0
  -31.1717   19.3328  -18.0622 N   0  0  0  0  0  0  0  0  0  0  0  0
  1  2  2  0  0  0  0
  1  6  1  0  0  0  0
  2  3  1  0  0  0  0
  3  4  2  0  0  0  0
  4  5  1  0  0  0  0
  4 10  1  0  0  0  0
  5  6  2  0  0  0  0
  5  8  1  0  0  0  0
  6  7  1  0  0  0  0
  8  9  1  0  0  0  0
  9 10  2  0  0  0  0
M  END
>  <CHROM.1>
-30.35651598,17.84412248,-16.74758017,1.25605229,-0.88296335,1.89533617

>  <Name>
ligand

>  <RI>
0

>  <Rbt.Current_Directory>
/home/itssahil/PROJECTS/Mol_Feturizer/New_Systems/rnas/4TZX

>  <Rbt.Executable>
rbdock ($Id: //depot/dev/client3/rdock/2013.1/src/exe/rbdock.cxx#4 $)

>  <Rbt.Library>
libRbt.so (2013.1, Build901 2013/11/27)

>  <Rbt.Parameter_File>
/export/apps/rDock/src/rDock_2013.1_src/data/scripts/dock_solv.prm

>  <Rbt.Receptor>
prm/pocket_docking_8.prm

>  <SCORE>
-14.3849

>  <SCORE.INTER>
-14.3849

>  <SCORE.INTER.CONST>
1

>  <SCORE.INTER.POLAR>
0

>  <SCORE.INTER.ROT>
0

>  <SCORE.INTER.SOLV>
7.91132

>  <SCORE.INTER.VDW>
-15.827

>  <SCORE.INTER.norm>
-1.43849

>  <SCORE.INTRA>
0

>  <SCORE.INTRA.DIHEDRAL>
0

>  <SCORE.INTRA.DIHEDRAL.0>
0

>  <SCORE.INTRA.POLAR>
0

>  <SCORE.INTRA.POLAR.0>
0

>  <SCORE.INTRA.REPUL>
0

>  <SCORE.INTRA.REPUL.0>
0

>  <SCORE.INTRA.SOLV>
0

>  <SCORE.INTRA.SOLV.lig_0>
-23.8949

>  <SCORE.INTRA.VDW>
0

>  <SCORE.INTRA.VDW.0>
0

>  <SCORE.INTRA.norm>
0

>  <SCORE.RESTR>
0

>  <SCORE.RESTR.CAVITY>
0

>  <SCORE.RESTR.norm>
0

>  <SCORE.SYSTEM>
0

>  <SCORE.SYSTEM.CONST>
0

>  <SCORE.SYSTEM.DIHEDRAL>
0

>  <SCORE.SYSTEM.SOLV>
0

>  <SCORE.SYSTEM.norm>
0

>  <SCORE.heavy>
10

>  <SCORE.norm>
-1.43849

>  <RMSD>
0.401

$$$$
ligand
 OpenBabel11021811513D
libRbt.so/2013.1/901 2013/11/27
 10 11  0  0  0  0  0  0  0  0999 V2000
  -30.1953   17.0262  -14.9211 N   0  0  0  0  0  0  0  0  0  0  0  0
  -31.0372   18.0567  -14.7663 C   0  0  0  0  0  0  0  0  0  0  0  0
  -31.4753   18.9259  -15.6763 N   0  0  0  0  0  0  0  0  0  0  0  0
  -30.9508   18.6576  -16.8829 C   0  0  0  0  0  0  0  0  0  0  0  0
  -30.0719   17.6376  -17.1972 C   0  0  0  0  0  0  0  0  0  0  0  0
  -29.6850   16.7823  -16.1459 C   0  0  0  0  0  0  0  0  0  0  0  0
  -28.8434   15.7557  -16.3046 N   0  0  0  0  0  0  0  0  0  0  0  0
  -29.7471   17.6685  -18.5427 N   0  0  0  0  0  0  0  0  0  0  0  0
  -30.4236   18.6932  -19.0064 C   0  0  0  0  0  0  0  0  0  0  0  0
  -31.1711   19.3355  -18.0584 N   0  0  0  0  0  0  0  0  0  0  0  0
  1  2  2  0  0  0  0
  1  6  1  0  0  0  0
  2  3  1  0  0  0  0
  3  4  2  0  0  0  0
  4  5  1  0  0  0  0
  4 10  1  0  0  0  0
  5  6  2  0  0  0  0
  5  8  1  0  0  0  0
  6  7  1  0  0  0  0
  8  9  1  0  0  0  0
  9 10  2  0  0  0  0
M  END
>  <CHROM.1>
-30.35441509,17.84536244,-16.74635994,1.25437156,-0.88328038,1.89518152

>  <Name>
ligand

>  <RI>
0

>  <Rbt.Current_Directory>
/home/itssahil/PROJECTS/Mol_Feturizer/New_Systems/rnas/4TZX

>  <Rbt.Executable>
rbdock ($Id: //depot/dev/client3/rdock/2013.1/src/exe/rbdock.cxx#4 $)

>  <Rbt.Library>
libRbt.so (2013.1, Build901 2013/11/27)

>  <Rbt.Parameter_File>
/export/apps/rDock/src/rDock_2013.1_src/data/scripts/dock_solv.prm

>  <Rbt.Receptor>
prm/blind_docking_100.prm

>  <SCORE>
-14.3863

>  <SCORE.INTER>
-14.3863

>  <SCORE.INTER.CONST>
1

>  <SCORE.INTER.POLAR>
0

>  <SCORE.INTER.ROT>
0

>  <SCORE.INTER.SOLV>
7.90634

>  <SCORE.INTER.VDW>
-15.8263

>  <SCORE.INTER.norm>
-1.43863

>  <SCORE.INTRA>
0

>  <SCORE.INTRA.DIHEDRAL>
0

>  <SCORE.INTRA.DIHEDRAL.0>
0

>  <SCORE.INTRA.POLAR>
0

>  <SCORE.INTRA.POLAR.0>
0

>  <SCORE.INTRA.REPUL>
0

>  <SCORE.INTRA.REPUL.0>
0

>  <SCORE.INTRA.SOLV>
0

>  <SCORE.INTRA.SOLV.lig_0>
-23.8949

>  <SCORE.INTRA.VDW>
0

>  <SCORE.INTRA.VDW.0>
0

>  <SCORE.INTRA.norm>
0

>  <SCORE.RESTR>
0

>  <SCORE.RESTR.CAVITY>
0

>  <SCORE.RESTR.norm>
0

>  <SCORE.SYSTEM>
0

>  <SCORE.SYSTEM.CONST>
0

>  <SCORE.SYSTEM.DIHEDRAL>
0

>  <SCORE.SYSTEM.SOLV>
0

>  <SCORE.SYSTEM.norm>
0

>  <SCORE.heavy>
10

>  <SCORE.norm>
-1.43863

>  <RMSD>
0.402

$$$$
ligand
 OpenBabel11021811513D
libRbt.so/2013.1/901 2013/11/27
 10 11  0  0  0  0  0  0  0  0999 V2000
  -30.2273   17.0238  -14.9338 N   0  0  0  0  0  0  0  0  0  0  0  0
  -31.0667   18.0581  -14.7904 C   0  0  0  0  0  0  0  0  0  0  0  0
  -31.4930   18.9258  -15.7074 N   0  0  0  0  0  0  0  0  0  0  0  0
  -30.9583   18.6513  -16.9081 C   0  0  0  0  0  0  0  0  0  0  0  0
  -30.0804   17.6270  -17.2107 C   0  0  0  0  0  0  0  0  0  0  0  0
  -29.7065   16.7737  -16.1529 C   0  0  0  0  0  0  0  0  0  0  0  0
  -28.8675   15.7435  -16.3002 N   0  0  0  0  0  0  0  0  0  0  0  0
  -29.7429   17.6520  -18.5532 N   0  0  0  0  0  0  0  0  0  0  0  0
  -30.4112   18.6776  -19.0267 C   0  0  0  0  0  0  0  0  0  0  0  0
  -31.1650   19.3260  -18.0879 N   0  0  0  0  0  0  0  0  0  0  0  0
  1  2  2  0  0  0  0
  1  6  1  0  0  0  0
  2  3  1  0  0  0  0
  3  4  2  0  0  0  0
  4  5  1  0  0  0  0
  4 10  1  0  0  0  0
  5  6  2  0  0  0  0
  5  8  1  0  0  0  0
  6  7  1  0  0  0  0
  8  9  1  0  0  0  0
  9 10  2  0  0  0  0
M  END
>  <CHROM.1>
-30.36630517,17.83730043,-16.76323860,1.27021948,-0.88387253,1.90400882

>  <Name>
ligand

>  <RI>
0

>  <Rbt.Current_Directory>
/home/itssahil/PROJECTS/Mol_Feturizer/New_Systems/rnas/4TZX

>  <Rbt.Executable>
rbdock ($Id: //depot/dev/client3/rdock/2013.1/src/exe/rbdock.cxx#4 $)

>  <Rbt.Library>
libRbt.so (2013.1, Build901 2013/11/27)

>  <Rbt.Parameter_File>
/export/apps/rDock/src/rDock_2013.1_src/data/scripts/dock_solv.prm

>  <Rbt.Receptor>
prm/blind_docking_100.prm

>  <SCORE>
-14.3742

>  <SCORE.INTER>
-14.3742

>  <SCORE.INTER.CONST>
1

>  <SCORE.INTER.POLAR>
0

>  <SCORE.INTER.ROT>
0

>  <SCORE.INTER.SOLV>
7.99107

>  <SCORE.INTER.VDW>
-15.8465

>  <SCORE.INTER.norm>
-1.43742

>  <SCORE.INTRA>
0

>  <SCORE.INTRA.DIHEDRAL>
0

>  <SCORE.INTRA.DIHEDRAL.0>
0

>  <SCORE.INTRA.POLAR>
0

>  <SCORE.INTRA.POLAR.0>
0

>  <SCORE.INTRA.REPUL>
0

>  <SCORE.INTRA.REPUL.0>
0

>  <SCORE.INTRA.SOLV>
0

>  <SCORE.INTRA.SOLV.lig_0>
-23.8949

>  <SCORE.INTRA.VDW>
0

>  <SCORE.INTRA.VDW.0>
0

>  <SCORE.INTRA.norm>
0

>  <SCORE.RESTR>
0

>  <SCORE.RESTR.CAVITY>
0

>  <SCORE.RESTR.norm>
0

>  <SCORE.SYSTEM>
0

>  <SCORE.SYSTEM.CONST>
0

>  <SCORE.SYSTEM.DIHEDRAL>
0

>  <SCORE.SYSTEM.SOLV>
0

>  <SCORE.SYSTEM.norm>
0

>  <SCORE.heavy>
10

>  <SCORE.norm>
-1.43742

>  <RMSD>
0.402

$$$$
ligand
 OpenBabel11021811513D
libRbt.so/2013.1/901 2013/11/27
 10 11  0  0  0  0  0  0  0  0999 V2000
  -30.1971   17.0252  -14.9290 N   0  0  0  0  0  0  0  0  0  0  0  0
  -31.0160   18.0737  -14.7722 C   0  0  0  0  0  0  0  0  0  0  0  0
  -31.4438   18.9477  -15.6826 N   0  0  0  0  0  0  0  0  0  0  0  0
  -30.9352   18.6630  -16.8922 C   0  0  0  0  0  0  0  0  0  0  0  0
  -30.0804   17.6235  -17.2090 C   0  0  0  0  0  0  0  0  0  0  0  0
  -29.7024   16.7651  -16.1569 C   0  0  0  0  0  0  0  0  0  0  0  0
  -28.8837   15.7206  -16.3178 N   0  0  0  0  0  0  0  0  0  0  0  0
  -29.7665   17.6414  -18.5573 N   0  0  0  0  0  0  0  0  0  0  0  0
  -30.4255   18.6778  -19.0202 C   0  0  0  0  0  0  0  0  0  0  0  0
  -31.1514   19.3399  -18.0690 N   0  0  0  0  0  0  0  0  0  0  0  0
  1  2  2  0  0  0  0
  1  6  1  0  0  0  0
  2  3  1  0  0  0  0
  3  4  2  0  0  0  0
  4  5  1  0  0  0  0
  4 10  1  0  0  0  0
  5  6  2  0  0  0  0
  5  8  1  0  0  0  0
  6  7  1  0  0  0  0
  8  9  1  0  0  0  0
  9 10  2  0  0  0  0
M  END
>  <CHROM.1>
-30.35469771,17.83913097,-16.75682359,1.25200955,-0.90566818,1.88865698

>  <Name>
ligand

>  <RI>
0

>  <Rbt.Current_Directory>
/home/itssahil/PROJECTS/Mol_Feturizer/New_Systems/rnas/4TZX

>  <Rbt.Executable>
rbdock ($Id: //depot/dev/client3/rdock/2013.1/src/exe/rbdock.cxx#4 $)

>  <Rbt.Library>
libRbt.so (2013.1, Build901 2013/11/27)

>  <Rbt.Parameter_File>
/export/apps/rDock/src/rDock_2013.1_src/data/scripts/dock_solv.prm

>  <Rbt.Receptor>
prm/blind_docking_100.prm

>  <SCORE>
-14.3541

>  <SCORE.INTER>
-14.3541

>  <SCORE.INTER.CONST>
1

>  <SCORE.INTER.POLAR>
0

>  <SCORE.INTER.ROT>
0

>  <SCORE.INTER.SOLV>
8.09859

>  <SCORE.INTER.VDW>
-15.8689

>  <SCORE.INTER.norm>
-1.43541

>  <SCORE.INTRA>
0

>  <SCORE.INTRA.DIHEDRAL>
0

>  <SCORE.INTRA.DIHEDRAL.0>
0

>  <SCORE.INTRA.POLAR>
0

>  <SCORE.INTRA.POLAR.0>
0

>  <SCORE.INTRA.REPUL>
0

>  <SCORE.INTRA.REPUL.0>
0

>  <SCORE.INTRA.SOLV>
0

>  <SCORE.INTRA.SOLV.lig_0>
-23.8949

>  <SCORE.INTRA.VDW>
0

>  <SCORE.INTRA.VDW.0>
0

>  <SCORE.INTRA.norm>
0

>  <SCORE.RESTR>
0

>  <SCORE.RESTR.CAVITY>
0

>  <SCORE.RESTR.norm>
0

>  <SCORE.SYSTEM>
0

>  <SCORE.SYSTEM.CONST>
0

>  <SCORE.SYSTEM.DIHEDRAL>
0

>  <SCORE.SYSTEM.SOLV>
0

>  <SCORE.SYSTEM.norm>
0

>  <SCORE.heavy>
10

>  <SCORE.norm>
-1.43541

>  <RMSD>
0.402

$$$$
ligand
 OpenBabel11021811513D
libRbt.so/2013.1/901 2013/11/27
 10 11  0  0  0  0  0  0  0  0999 V2000
  -30.2443   16.9900  -14.9546 N   0  0  0  0  0  0  0  0  0  0  0  0
  -31.0549   18.0455  -14.8009 C   0  0  0  0  0  0  0  0  0  0  0  0
  -31.4564   18.9340  -15.7090 N   0  0  0  0  0  0  0  0  0  0  0  0
  -30.9287   18.6573  -16.9123 C   0  0  0  0  0  0  0  0  0  0  0  0
  -30.0792   17.6123  -17.2251 C   0  0  0  0  0  0  0  0  0  0  0  0
  -29.7297   16.7382  -16.1760 C   0  0  0  0  0  0  0  0  0  0  0  0
  -28.9194   15.6868  -16.3337 N   0  0  0  0  0  0  0  0  0  0  0  0
  -29.7402   17.6419  -18.5671 N   0  0  0  0  0  0  0  0  0  0  0  0
  -30.3796   18.6903  -19.0302 C   0  0  0  0  0  0  0  0  0  0  0  0
  -31.1159   19.3496  -18.0851 N   0  0  0  0  0  0  0  0  0  0  0  0
  1  2  2  0  0  0  0
  1  6  1  0  0  0  0
  2  3  1  0  0  0  0
  3  4  2  0  0  0  0
  4  5  1  0  0  0  0
  4 10  1  0  0  0  0
  5  6  2  0  0  0  0
  5  8  1  0  0  0  0
  6  7  1  0  0  0  0
  8  9  1  0  0  0  0
  9 10  2  0  0  0  0
M  END
>  <CHROM.1>
-30.35948526,17.82582347,-16.77559283,1.28599240,-0.90965518,1.92666890

>  <Name>
ligand

>  <RI>
0

>  <Rbt.Current_Directory>
/home/itssahil/PROJECTS/Mol_Feturizer/New_Systems/rnas/4TZX

>  <Rbt.Executable>
rbdock ($Id: //depot/dev/client3/rdock/2013.1/src/exe/rbdock.cxx#4 $)

>  <Rbt.Library>
libRbt.so (2013.1, Build901 2013/11/27)

>  <Rbt.Parameter_File>
/export/apps/rDock/src/rDock_2013.1_src/data/scripts/dock_solv.prm

>  <Rbt.Receptor>
prm/blind_docking_60.prm

>  <SCORE>
-14.3729

>  <SCORE.INTER>
-14.3729

>  <SCORE.INTER.CONST>
1

>  <SCORE.INTER.POLAR>
0

>  <SCORE.INTER.ROT>
0

>  <SCORE.INTER.SOLV>
8.2794

>  <SCORE.INTER.VDW>
-15.9417

>  <SCORE.INTER.norm>
-1.43729

>  <SCORE.INTRA>
0

>  <SCORE.INTRA.DIHEDRAL>
0

>  <SCORE.INTRA.DIHEDRAL.0>
0

>  <SCORE.INTRA.POLAR>
0

>  <SCORE.INTRA.POLAR.0>
0

>  <SCORE.INTRA.REPUL>
0

>  <SCORE.INTRA.REPUL.0>
0

>  <SCORE.INTRA.SOLV>
0

>  <SCORE.INTRA.SOLV.lig_0>
-23.8949

>  <SCORE.INTRA.VDW>
0

>  <SCORE.INTRA.VDW.0>
0

>  <SCORE.INTRA.norm>
0

>  <SCORE.RESTR>
0

>  <SCORE.RESTR.CAVITY>
0

>  <SCORE.RESTR.norm>
0

>  <SCORE.SYSTEM>
0

>  <SCORE.SYSTEM.CONST>
0

>  <SCORE.SYSTEM.DIHEDRAL>
0

>  <SCORE.SYSTEM.SOLV>
0

>  <SCORE.SYSTEM.norm>
0

>  <SCORE.heavy>
10

>  <SCORE.norm>
-1.43729

>  <RMSD>
0.402

$$$$
ligand
 OpenBabel11021811513D
libRbt.so/2013.1/901 2013/11/27
 10 11  0  0  0  0  0  0  0  0999 V2000
  -30.2490   16.9507  -14.9754 N   0  0  0  0  0  0  0  0  0  0  0  0
  -31.0479   18.0122  -14.8031 C   0  0  0  0  0  0  0  0  0  0  0  0
  -31.4468   18.9159  -15.6975 N   0  0  0  0  0  0  0  0  0  0  0  0
  -30.9301   18.6488  -16.9077 C   0  0  0  0  0  0  0  0  0  0  0  0
  -30.0934   17.5993  -17.2393 C   0  0  0  0  0  0  0  0  0  0  0  0
  -29.7455   16.7089  -16.2035 C   0  0  0  0  0  0  0  0  0  0  0  0
  -28.9469   15.6514  -16.3797 N   0  0  0  0  0  0  0  0  0  0  0  0
  -29.7634   17.6420  -18.5832 N   0  0  0  0  0  0  0  0  0  0  0  0
  -30.3954   18.7024  -19.0289 C   0  0  0  0  0  0  0  0  0  0  0  0
  -31.1185   19.3572  -18.0706 N   0  0  0  0  0  0  0  0  0  0  0  0
  1  2  2  0  0  0  0
  1  6  1  0  0  0  0
  2  3  1  0  0  0  0
  3  4  2  0  0  0  0
  4  5  1  0  0  0  0
  4 10  1  0  0  0  0
  5  6  2  0  0  0  0
  5  8  1  0  0  0  0
  6  7  1  0  0  0  0
  8  9  1  0  0  0  0
  9 10  2  0  0  0  0
M  END
>  <CHROM.1>
-30.36842093,17.81001422,-16.78524499,1.28106352,-0.92149441,1.93504235

>  <Name>
ligand

>  <RI>
0

>  <Rbt.Current_Directory>
/home/itssahil/PROJECTS/Mol_Feturizer/New_Systems/rnas/4TZX

>  <Rbt.Executable>
rbdock ($Id: //depot/dev/client3/rdock/2013.1/src/exe/rbdock.cxx#4 $)

>  <Rbt.Library>
libRbt.so (2013.1, Build901 2013/11/27)

>  <Rbt.Parameter_File>
/export/apps/rDock/src/rDock_2013.1_src/data/scripts/dock_solv.prm

>  <Rbt.Receptor>
prm/blind_docking_60.prm

>  <SCORE>
-14.3459

>  <SCORE.INTER>
-14.3459

>  <SCORE.INTER.CONST>
1

>  <SCORE.INTER.POLAR>
0

>  <SCORE.INTER.ROT>
0

>  <SCORE.INTER.SOLV>
8.46343

>  <SCORE.INTER.VDW>
-15.9851

>  <SCORE.INTER.norm>
-1.43459

>  <SCORE.INTRA>
0

>  <SCORE.INTRA.DIHEDRAL>
0

>  <SCORE.INTRA.DIHEDRAL.0>
0

>  <SCORE.INTRA.POLAR>
0

>  <SCORE.INTRA.POLAR.0>
0

>  <SCORE.INTRA.REPUL>
0

>  <SCORE.INTRA.REPUL.0>
0

>  <SCORE.INTRA.SOLV>
0

>  <SCORE.INTRA.SOLV.lig_0>
-23.8949

>  <SCORE.INTRA.VDW>
0

>  <SCORE.INTRA.VDW.0>
0

>  <SCORE.INTRA.norm>
0

>  <SCORE.RESTR>
0

>  <SCORE.RESTR.CAVITY>
0

>  <SCORE.RESTR.norm>
0

>  <SCORE.SYSTEM>
0

>  <SCORE.SYSTEM.CONST>
0

>  <SCORE.SYSTEM.DIHEDRAL>
0

>  <SCORE.SYSTEM.SOLV>
0

>  <SCORE.SYSTEM.norm>
0

>  <SCORE.heavy>
10

>  <SCORE.norm>
-1.43459

>  <RMSD>
0.402

$$$$
ligand
 OpenBabel11021811513D
libRbt.so/2013.1/901 2013/11/27
 10 11  0  0  0  0  0  0  0  0999 V2000
  -30.1895   17.0371  -14.9145 N   0  0  0  0  0  0  0  0  0  0  0  0
  -31.0381   18.0634  -14.7682 C   0  0  0  0  0  0  0  0  0  0  0  0
  -31.4785   18.9249  -15.6844 N   0  0  0  0  0  0  0  0  0  0  0  0
  -30.9485   18.6531  -16.8878 C   0  0  0  0  0  0  0  0  0  0  0  0
  -30.0625   17.6367  -17.1936 C   0  0  0  0  0  0  0  0  0  0  0  0
  -29.6738   16.7895  -16.1363 C   0  0  0  0  0  0  0  0  0  0  0  0
  -28.8256   15.7672  -16.2866 N   0  0  0  0  0  0  0  0  0  0  0  0
  -29.7335   17.6621  -18.5382 N   0  0  0  0  0  0  0  0  0  0  0  0
  -30.4147   18.6801  -19.0097 C   0  0  0  0  0  0  0  0  0  0  0  0
  -31.1691   19.3231  -18.0677 N   0  0  0  0  0  0  0  0  0  0  0  0
  1  2  2  0  0  0  0
  1  6  1  0  0  0  0
  2  3  1  0  0  0  0
  3  4  2  0  0  0  0
  4  5  1  0  0  0  0
  4 10  1  0  0  0  0
  5  6  2  0  0  0  0
  5  8  1  0  0  0  0
  6  7  1  0  0  0  0
  8  9  1  0  0  0  0
  9 10  2  0  0  0  0
M  END
>  <CHROM.1>
-30.34767826,17.84521349,-16.74484098,1.25613316,-0.87653688,1.89099198

>  <Name>
ligand

>  <RI>
0

>  <Rbt.Current_Directory>
/home/itssahil/PROJECTS/Mol_Feturizer/New_Systems/rnas/4TZX

>  <Rbt.Executable>
rbdock ($Id: //depot/dev/client3/rdock/2013.1/src/exe/rbdock.cxx#4 $)

>  <Rbt.Library>
libRbt.so (2013.1, Build901 2013/11/27)

>  <Rbt.Parameter_File>
/export/apps/rDock/src/rDock_2013.1_src/data/scripts/dock_solv.prm

>  <Rbt.Receptor>
prm/blind_docking_80.prm

>  <SCORE>
-14.3811

>  <SCORE.INTER>
-14.3813

>  <SCORE.INTER.CONST>
1

>  <SCORE.INTER.POLAR>
0

>  <SCORE.INTER.ROT>
0

>  <SCORE.INTER.SOLV>
7.83269

>  <SCORE.INTER.VDW>
-15.7984

>  <SCORE.INTER.norm>
-1.43813

>  <SCORE.INTRA>
0

>  <SCORE.INTRA.DIHEDRAL>
0

>  <SCORE.INTRA.DIHEDRAL.0>
0

>  <SCORE.INTRA.POLAR>
0

>  <SCORE.INTRA.POLAR.0>
0

>  <SCORE.INTRA.REPUL>
0

>  <SCORE.INTRA.REPUL.0>
0

>  <SCORE.INTRA.SOLV>
0

>  <SCORE.INTRA.SOLV.lig_0>
-23.8949

>  <SCORE.INTRA.VDW>
0

>  <SCORE.INTRA.VDW.0>
0

>  <SCORE.INTRA.norm>
0

>  <SCORE.RESTR>
0.000149256

>  <SCORE.RESTR.CAVITY>
0.000149256

>  <SCORE.RESTR.norm>
1.49256e-05

>  <SCORE.SYSTEM>
0

>  <SCORE.SYSTEM.CONST>
0

>  <SCORE.SYSTEM.DIHEDRAL>
0

>  <SCORE.SYSTEM.SOLV>
0

>  <SCORE.SYSTEM.norm>
0

>  <SCORE.heavy>
10

>  <SCORE.norm>
-1.43811

>  <RMSD>
0.402

$$$$
ligand
 OpenBabel11021811513D
libRbt.so/2013.1/901 2013/11/27
 10 11  0  0  0  0  0  0  0  0999 V2000
  -30.2262   16.9891  -14.9520 N   0  0  0  0  0  0  0  0  0  0  0  0
  -31.0395   18.0416  -14.7919 C   0  0  0  0  0  0  0  0  0  0  0  0
  -31.4498   18.9299  -15.6964 N   0  0  0  0  0  0  0  0  0  0  0  0
  -30.9287   18.6565  -16.9033 C   0  0  0  0  0  0  0  0  0  0  0  0
  -30.0776   17.6148  -17.2228 C   0  0  0  0  0  0  0  0  0  0  0  0
  -29.7185   16.7406  -16.1770 C   0  0  0  0  0  0  0  0  0  0  0  0
  -28.9055   15.6922  -16.3411 N   0  0  0  0  0  0  0  0  0  0  0  0
  -29.7472   17.6471  -18.5669 N   0  0  0  0  0  0  0  0  0  0  0  0
  -30.3931   18.6939  -19.0247 C   0  0  0  0  0  0  0  0  0  0  0  0
  -31.1257   19.3495  -18.0741 N   0  0  0  0  0  0  0  0  0  0  0  0
  1  2  2  0  0  0  0
  1  6  1  0  0  0  0
  2  3  1  0  0  0  0
  3  4  2  0  0  0  0
  4  5  1  0  0  0  0
  4 10  1  0  0  0  0
  5  6  2  0  0  0  0
  5  8  1  0  0  0  0
  6  7  1  0  0  0  0
  8  9  1  0  0  0  0
  9 10  2  0  0  0  0
M  END
>  <CHROM.1>
-30.35580233,17.82676908,-16.77126178,1.27440507,-0.90859054,1.91874547

>  <Name>
ligand

>  <RI>
0

>  <Rbt.Current_Directory>
/home/itssahil/PROJECTS/Mol_Feturizer/New_Systems/rnas/4TZX

>  <Rbt.Executable>
rbdock ($Id: //depot/dev/client3/rdock/2013.1/src/exe/rbdock.cxx#4 $)

>  <Rbt.Library>
libRbt.so (2013.1, Build901 2013/11/27)

>  <Rbt.Parameter_File>
/export/apps/rDock/src/rDock_2013.1_src/data/scripts/dock_solv.prm

>  <Rbt.Receptor>
prm/pocket_docking_3.prm

>  <SCORE>
-14.3768

>  <SCORE.INTER>
-14.3768

>  <SCORE.INTER.CONST>
1

>  <SCORE.INTER.POLAR>
0

>  <SCORE.INTER.ROT>
0

>  <SCORE.INTER.SOLV>
8.24063

>  <SCORE.INTER.VDW>
-15.9314

>  <SCORE.INTER.norm>
-1.43768

>  <SCORE.INTRA>
0

>  <SCORE.INTRA.DIHEDRAL>
0

>  <SCORE.INTRA.DIHEDRAL.0>
0

>  <SCORE.INTRA.POLAR>
0

>  <SCORE.INTRA.POLAR.0>
0

>  <SCORE.INTRA.REPUL>
0

>  <SCORE.INTRA.REPUL.0>
0

>  <SCORE.INTRA.SOLV>
0

>  <SCORE.INTRA.SOLV.lig_0>
-23.8949

>  <SCORE.INTRA.VDW>
0

>  <SCORE.INTRA.VDW.0>
0

>  <SCORE.INTRA.norm>
0

>  <SCORE.RESTR>
0

>  <SCORE.RESTR.CAVITY>
0

>  <SCORE.RESTR.norm>
0

>  <SCORE.SYSTEM>
0

>  <SCORE.SYSTEM.CONST>
0

>  <SCORE.SYSTEM.DIHEDRAL>
0

>  <SCORE.SYSTEM.SOLV>
0

>  <SCORE.SYSTEM.norm>
0

>  <SCORE.heavy>
10

>  <SCORE.norm>
-1.43768

>  <RMSD>
0.402

$$$$
ligand
 OpenBabel11021811513D
libRbt.so/2013.1/901 2013/11/27
 10 11  0  0  0  0  0  0  0  0999 V2000
  -30.1903   17.0258  -14.9205 N   0  0  0  0  0  0  0  0  0  0  0  0
  -31.0323   18.0561  -14.7646 C   0  0  0  0  0  0  0  0  0  0  0  0
  -31.4722   18.9250  -15.6740 N   0  0  0  0  0  0  0  0  0  0  0  0
  -30.9494   18.6568  -16.8813 C   0  0  0  0  0  0  0  0  0  0  0  0
  -30.0706   17.6371  -17.1969 C   0  0  0  0  0  0  0  0  0  0  0  0
  -29.6817   16.7820  -16.1461 C   0  0  0  0  0  0  0  0  0  0  0  0
  -28.8401   15.7557  -16.3059 N   0  0  0  0  0  0  0  0  0  0  0  0
  -29.7478   17.6680  -18.5428 N   0  0  0  0  0  0  0  0  0  0  0  0
  -30.4254   18.6924  -19.0056 C   0  0  0  0  0  0  0  0  0  0  0  0
  -31.1717   19.3345  -18.0565 N   0  0  0  0  0  0  0  0  0  0  0  0
  1  2  2  0  0  0  0
  1  6  1  0  0  0  0
  2  3  1  0  0  0  0
  3  4  2  0  0  0  0
  4  5  1  0  0  0  0
  4 10  1  0  0  0  0
  5  6  2  0  0  0  0
  5  8  1  0  0  0  0
  6  7  1  0  0  0  0
  8  9  1  0  0  0  0
  9 10  2  0  0  0  0
M  END
>  <CHROM.1>
-30.35248417,17.84478076,-16.74561895,1.25192798,-0.88341457,1.89321442

>  <Name>
ligand

>  <RI>
0

>  <Rbt.Current_Directory>
/home/itssahil/PROJECTS/Mol_Feturizer/New_Systems/rnas/4TZX

>  <Rbt.Executable>
rbdock ($Id: //depot/dev/client3/rdock/2013.1/src/exe/rbdock.cxx#4 $)

>  <Rbt.Library>
libRbt.so (2013.1, Build901 2013/11/27)

>  <Rbt.Parameter_File>
/export/apps/rDock/src/rDock_2013.1_src/data/scripts/dock_solv.prm

>  <Rbt.Receptor>
prm/pocket_docking_3.prm

>  <SCORE>
-14.386

>  <SCORE.INTER>
-14.386

>  <SCORE.INTER.CONST>
1

>  <SCORE.INTER.POLAR>
0

>  <SCORE.INTER.ROT>
0

>  <SCORE.INTER.SOLV>
7.89928

>  <SCORE.INTER.VDW>
-15.8238

>  <SCORE.INTER.norm>
-1.4386

>  <SCORE.INTRA>
0

>  <SCORE.INTRA.DIHEDRAL>
0

>  <SCORE.INTRA.DIHEDRAL.0>
0

>  <SCORE.INTRA.POLAR>
0

>  <SCORE.INTRA.POLAR.0>
0

>  <SCORE.INTRA.REPUL>
0

>  <SCORE.INTRA.REPUL.0>
0

>  <SCORE.INTRA.SOLV>
0

>  <SCORE.INTRA.SOLV.lig_0>
-23.8949

>  <SCORE.INTRA.VDW>
0

>  <SCORE.INTRA.VDW.0>
0

>  <SCORE.INTRA.norm>
0

>  <SCORE.RESTR>
0

>  <SCORE.RESTR.CAVITY>
0

>  <SCORE.RESTR.norm>
0

>  <SCORE.SYSTEM>
0

>  <SCORE.SYSTEM.CONST>
0

>  <SCORE.SYSTEM.DIHEDRAL>
0

>  <SCORE.SYSTEM.SOLV>
0

>  <SCORE.SYSTEM.norm>
0

>  <SCORE.heavy>
10

>  <SCORE.norm>
-1.4386

>  <RMSD>
0.402

$$$$
ligand
 OpenBabel11021811513D
libRbt.so/2013.1/901 2013/11/27
 10 11  0  0  0  0  0  0  0  0999 V2000
  -30.2580   16.9932  -14.9507 N   0  0  0  0  0  0  0  0  0  0  0  0
  -31.0569   18.0569  -14.7923 C   0  0  0  0  0  0  0  0  0  0  0  0
  -31.4489   18.9537  -15.6966 N   0  0  0  0  0  0  0  0  0  0  0  0
  -30.9246   18.6763  -16.9011 C   0  0  0  0  0  0  0  0  0  0  0  0
  -30.0868   17.6233  -17.2187 C   0  0  0  0  0  0  0  0  0  0  0  0
  -29.7466   16.7410  -16.1734 C   0  0  0  0  0  0  0  0  0  0  0  0
  -28.9479   15.6814  -16.3358 N   0  0  0  0  0  0  0  0  0  0  0  0
  -29.7479   17.6548  -18.5606 N   0  0  0  0  0  0  0  0  0  0  0  0
  -30.3758   18.7122  -19.0191 C   0  0  0  0  0  0  0  0  0  0  0  0
  -31.1045   19.3755  -18.0710 N   0  0  0  0  0  0  0  0  0  0  0  0
  1  2  2  0  0  0  0
  1  6  1  0  0  0  0
  2  3  1  0  0  0  0
  3  4  2  0  0  0  0
  4  5  1  0  0  0  0
  4 10  1  0  0  0  0
  5  6  2  0  0  0  0
  5  8  1  0  0  0  0
  6  7  1  0  0  0  0
  8  9  1  0  0  0  0
  9 10  2  0  0  0  0
M  END
>  <CHROM.1>
-30.36454003,17.83802424,-16.76817529,1.29186383,-0.92006749,1.93554859

>  <Name>
ligand

>  <RI>
0

>  <Rbt.Current_Directory>
/home/itssahil/PROJECTS/Mol_Feturizer/New_Systems/rnas/4TZX

>  <Rbt.Executable>
rbdock ($Id: //depot/dev/client3/rdock/2013.1/src/exe/rbdock.cxx#4 $)

>  <Rbt.Library>
libRbt.so (2013.1, Build901 2013/11/27)

>  <Rbt.Parameter_File>
/export/apps/rDock/src/rDock_2013.1_src/data/scripts/dock_solv.prm

>  <Rbt.Receptor>
prm/pocket_docking_3.prm

>  <SCORE>
-14.3704

>  <SCORE.INTER>
-14.3704

>  <SCORE.INTER.CONST>
1

>  <SCORE.INTER.POLAR>
0

>  <SCORE.INTER.ROT>
0

>  <SCORE.INTER.SOLV>
8.36786

>  <SCORE.INTER.VDW>
-15.9696

>  <SCORE.INTER.norm>
-1.43704

>  <SCORE.INTRA>
0

>  <SCORE.INTRA.DIHEDRAL>
0

>  <SCORE.INTRA.DIHEDRAL.0>
0

>  <SCORE.INTRA.POLAR>
0

>  <SCORE.INTRA.POLAR.0>
0

>  <SCORE.INTRA.REPUL>
0

>  <SCORE.INTRA.REPUL.0>
0

>  <SCORE.INTRA.SOLV>
0

>  <SCORE.INTRA.SOLV.lig_0>
-23.8949

>  <SCORE.INTRA.VDW>
0

>  <SCORE.INTRA.VDW.0>
0

>  <SCORE.INTRA.norm>
0

>  <SCORE.RESTR>
0

>  <SCORE.RESTR.CAVITY>
0

>  <SCORE.RESTR.norm>
0

>  <SCORE.SYSTEM>
0

>  <SCORE.SYSTEM.CONST>
0

>  <SCORE.SYSTEM.DIHEDRAL>
0

>  <SCORE.SYSTEM.SOLV>
0

>  <SCORE.SYSTEM.norm>
0

>  <SCORE.heavy>
10

>  <SCORE.norm>
-1.43704

>  <RMSD>
0.402

$$$$
ligand
 OpenBabel11021811513D
libRbt.so/2013.1/901 2013/11/27
 10 11  0  0  0  0  0  0  0  0999 V2000
  -30.1776   17.0208  -14.9206 N   0  0  0  0  0  0  0  0  0  0  0  0
  -31.0176   18.0520  -14.7598 C   0  0  0  0  0  0  0  0  0  0  0  0
  -31.4594   18.9232  -15.6661 N   0  0  0  0  0  0  0  0  0  0  0  0
  -30.9413   18.6565  -16.8757 C   0  0  0  0  0  0  0  0  0  0  0  0
  -30.0652   17.6361  -17.1963 C   0  0  0  0  0  0  0  0  0  0  0  0
  -29.6738   16.7785  -16.1484 C   0  0  0  0  0  0  0  0  0  0  0  0
  -28.8342   15.7513  -16.3132 N   0  0  0  0  0  0  0  0  0  0  0  0
  -29.7471   17.6690  -18.5433 N   0  0  0  0  0  0  0  0  0  0  0  0
  -30.4249   18.6951  -19.0018 C   0  0  0  0  0  0  0  0  0  0  0  0
  -31.1668   19.3366  -18.0489 N   0  0  0  0  0  0  0  0  0  0  0  0
  1  2  2  0  0  0  0
  1  6  1  0  0  0  0
  2  3  1  0  0  0  0
  3  4  2  0  0  0  0
  4  5  1  0  0  0  0
  4 10  1  0  0  0  0
  5  6  2  0  0  0  0
  5  8  1  0  0  0  0
  6  7  1  0  0  0  0
  8  9  1  0  0  0  0
  9 10  2  0  0  0  0
M  END
>  <CHROM.1>
-30.34514246,17.84334143,-16.74365748,1.24730133,-0.88592096,1.89144619

>  <Name>
ligand

>  <RI>
0

>  <Rbt.Current_Directory>
/home/itssahil/PROJECTS/Mol_Feturizer/New_Systems/rnas/4TZX

>  <Rbt.Executable>
rbdock ($Id: //depot/dev/client3/rdock/2013.1/src/exe/rbdock.cxx#4 $)

>  <Rbt.Library>
libRbt.so (2013.1, Build901 2013/11/27)

>  <Rbt.Parameter_File>
/export/apps/rDock/src/rDock_2013.1_src/data/scripts/dock_solv.prm

>  <Rbt.Receptor>
prm/pocket_docking_4.prm

>  <SCORE>
-14.3866

>  <SCORE.INTER>
-14.3866

>  <SCORE.INTER.CONST>
1

>  <SCORE.INTER.POLAR>
0

>  <SCORE.INTER.ROT>
0

>  <SCORE.INTER.SOLV>
7.89977

>  <SCORE.INTER.VDW>
-15.8243

>  <SCORE.INTER.norm>
-1.43866

>  <SCORE.INTRA>
0

>  <SCORE.INTRA.DIHEDRAL>
0

>  <SCORE.INTRA.DIHEDRAL.0>
0

>  <SCORE.INTRA.POLAR>
0

>  <SCORE.INTRA.POLAR.0>
0

>  <SCORE.INTRA.REPUL>
0

>  <SCORE.INTRA.REPUL.0>
0

>  <SCORE.INTRA.SOLV>
0

>  <SCORE.INTRA.SOLV.lig_0>
-23.8949

>  <SCORE.INTRA.VDW>
0

>  <SCORE.INTRA.VDW.0>
0

>  <SCORE.INTRA.norm>
0

>  <SCORE.RESTR>
0

>  <SCORE.RESTR.CAVITY>
0

>  <SCORE.RESTR.norm>
0

>  <SCORE.SYSTEM>
0

>  <SCORE.SYSTEM.CONST>
0

>  <SCORE.SYSTEM.DIHEDRAL>
0

>  <SCORE.SYSTEM.SOLV>
0

>  <SCORE.SYSTEM.norm>
0

>  <SCORE.heavy>
10

>  <SCORE.norm>
-1.43866

>  <RMSD>
0.402

$$$$
ligand
 OpenBabel11021811513D
libRbt.so/2013.1/901 2013/11/27
 10 11  0  0  0  0  0  0  0  0999 V2000
  -30.1840   17.0259  -14.9192 N   0  0  0  0  0  0  0  0  0  0  0  0
  -31.0257   18.0565  -14.7633 C   0  0  0  0  0  0  0  0  0  0  0  0
  -31.4657   18.9252  -15.6729 N   0  0  0  0  0  0  0  0  0  0  0  0
  -30.9436   18.6563  -16.8803 C   0  0  0  0  0  0  0  0  0  0  0  0
  -30.0653   17.6362  -17.1959 C   0  0  0  0  0  0  0  0  0  0  0  0
  -29.6761   16.7814  -16.1449 C   0  0  0  0  0  0  0  0  0  0  0  0
  -28.8348   15.7548  -16.3047 N   0  0  0  0  0  0  0  0  0  0  0  0
  -29.7431   17.6664  -18.5420 N   0  0  0  0  0  0  0  0  0  0  0  0
  -30.4206   18.6908  -19.0049 C   0  0  0  0  0  0  0  0  0  0  0  0
  -31.1662   19.3335  -18.0557 N   0  0  0  0  0  0  0  0  0  0  0  0
  1  2  2  0  0  0  0
  1  6  1  0  0  0  0
  2  3  1  0  0  0  0
  3  4  2  0  0  0  0
  4  5  1  0  0  0  0
  4 10  1  0  0  0  0
  5  6  2  0  0  0  0
  5  8  1  0  0  0  0
  6  7  1  0  0  0  0
  8  9  1  0  0  0  0
  9 10  2  0  0  0  0
M  END
>  <CHROM.1>
-30.34684309,17.84414363,-16.74460114,1.25134479,-0.88383967,1.89232644

>  <Name>
ligand

>  <RI>
0

>  <Rbt.Current_Directory>
/home/itssahil/PROJECTS/Mol_Feturizer/New_Systems/rnas/4TZX

>  <Rbt.Executable>
rbdock ($Id: //depot/dev/client3/rdock/2013.1/src/exe/rbdock.cxx#4 $)

>  <Rbt.Library>
libRbt.so (2013.1, Build901 2013/11/27)

>  <Rbt.Parameter_File>
/export/apps/rDock/src/rDock_2013.1_src/data/scripts/dock_solv.prm

>  <Rbt.Receptor>
prm/pocket_docking_4.prm

>  <SCORE>
-14.3861

>  <SCORE.INTER>
-14.3861

>  <SCORE.INTER.CONST>
1

>  <SCORE.INTER.POLAR>
0

>  <SCORE.INTER.ROT>
0

>  <SCORE.INTER.SOLV>
7.88828

>  <SCORE.INTER.VDW>
-15.8202

>  <SCORE.INTER.norm>
-1.43861

>  <SCORE.INTRA>
0

>  <SCORE.INTRA.DIHEDRAL>
0

>  <SCORE.INTRA.DIHEDRAL.0>
0

>  <SCORE.INTRA.POLAR>
0

>  <SCORE.INTRA.POLAR.0>
0

>  <SCORE.INTRA.REPUL>
0

>  <SCORE.INTRA.REPUL.0>
0

>  <SCORE.INTRA.SOLV>
0

>  <SCORE.INTRA.SOLV.lig_0>
-23.8949

>  <SCORE.INTRA.VDW>
0

>  <SCORE.INTRA.VDW.0>
0

>  <SCORE.INTRA.norm>
0

>  <SCORE.RESTR>
0

>  <SCORE.RESTR.CAVITY>
0

>  <SCORE.RESTR.norm>
0

>  <SCORE.SYSTEM>
0

>  <SCORE.SYSTEM.CONST>
0

>  <SCORE.SYSTEM.DIHEDRAL>
0

>  <SCORE.SYSTEM.SOLV>
0

>  <SCORE.SYSTEM.norm>
0

>  <SCORE.heavy>
10

>  <SCORE.norm>
-1.43861

>  <RMSD>
0.402

$$$$
ligand
 OpenBabel11021811513D
libRbt.so/2013.1/901 2013/11/27
 10 11  0  0  0  0  0  0  0  0999 V2000
  -30.1939   17.0235  -14.9223 N   0  0  0  0  0  0  0  0  0  0  0  0
  -31.0340   18.0552  -14.7656 C   0  0  0  0  0  0  0  0  0  0  0  0
  -31.4717   18.9261  -15.6742 N   0  0  0  0  0  0  0  0  0  0  0  0
  -30.9489   18.6583  -16.8816 C   0  0  0  0  0  0  0  0  0  0  0  0
  -30.0719   17.6373  -17.1979 C   0  0  0  0  0  0  0  0  0  0  0  0
  -29.6852   16.7801  -16.1480 C   0  0  0  0  0  0  0  0  0  0  0  0
  -28.8455   15.7524  -16.3086 N   0  0  0  0  0  0  0  0  0  0  0  0
  -29.7484   17.6691  -18.5437 N   0  0  0  0  0  0  0  0  0  0  0  0
  -30.4238   18.6953  -19.0056 C   0  0  0  0  0  0  0  0  0  0  0  0
  -31.1693   19.3377  -18.0561 N   0  0  0  0  0  0  0  0  0  0  0  0
  1  2  2  0  0  0  0
  1  6  1  0  0  0  0
  2  3  1  0  0  0  0
  3  4  2  0  0  0  0
  4  5  1  0  0  0  0
  4 10  1  0  0  0  0
  5  6  2  0  0  0  0
  5  8  1  0  0  0  0
  6  7  1  0  0  0  0
  8  9  1  0  0  0  0
  9 10  2  0  0  0  0
M  END
>  <CHROM.1>
-30.35362156,17.84493133,-16.74658459,1.25361917,-0.88509181,1.89569293

>  <Name>
ligand

>  <RI>
0

>  <Rbt.Current_Directory>
/home/itssahil/PROJECTS/Mol_Feturizer/New_Systems/rnas/4TZX

>  <Rbt.Executable>
rbdock ($Id: //depot/dev/client3/rdock/2013.1/src/exe/rbdock.cxx#4 $)

>  <Rbt.Library>
libRbt.so (2013.1, Build901 2013/11/27)

>  <Rbt.Parameter_File>
/export/apps/rDock/src/rDock_2013.1_src/data/scripts/dock_solv.prm

>  <Rbt.Receptor>
prm/pocket_docking_6.prm

>  <SCORE>
-14.3856

>  <SCORE.INTER>
-14.3856

>  <SCORE.INTER.CONST>
1

>  <SCORE.INTER.POLAR>
0

>  <SCORE.INTER.ROT>
0

>  <SCORE.INTER.SOLV>
7.92342

>  <SCORE.INTER.VDW>
-15.8315

>  <SCORE.INTER.norm>
-1.43856

>  <SCORE.INTRA>
0

>  <SCORE.INTRA.DIHEDRAL>
0

>  <SCORE.INTRA.DIHEDRAL.0>
0

>  <SCORE.INTRA.POLAR>
0

>  <SCORE.INTRA.POLAR.0>
0

>  <SCORE.INTRA.REPUL>
0

>  <SCORE.INTRA.REPUL.0>
0

>  <SCORE.INTRA.SOLV>
0

>  <SCORE.INTRA.SOLV.lig_0>
-23.8949

>  <SCORE.INTRA.VDW>
0

>  <SCORE.INTRA.VDW.0>
0

>  <SCORE.INTRA.norm>
0

>  <SCORE.RESTR>
0

>  <SCORE.RESTR.CAVITY>
0

>  <SCORE.RESTR.norm>
0

>  <SCORE.SYSTEM>
0

>  <SCORE.SYSTEM.CONST>
0

>  <SCORE.SYSTEM.DIHEDRAL>
0

>  <SCORE.SYSTEM.SOLV>
0

>  <SCORE.SYSTEM.norm>
0

>  <SCORE.heavy>
10

>  <SCORE.norm>
-1.43856

>  <RMSD>
0.402

$$$$
ligand
 OpenBabel11021811513D
libRbt.so/2013.1/901 2013/11/27
 10 11  0  0  0  0  0  0  0  0999 V2000
  -30.2654   16.9523  -14.9740 N   0  0  0  0  0  0  0  0  0  0  0  0
  -31.0594   18.0177  -14.8031 C   0  0  0  0  0  0  0  0  0  0  0  0
  -31.4492   18.9255  -15.6973 N   0  0  0  0  0  0  0  0  0  0  0  0
  -30.9283   18.6583  -16.9056 C   0  0  0  0  0  0  0  0  0  0  0  0
  -30.0956   17.6050  -17.2356 C   0  0  0  0  0  0  0  0  0  0  0  0
  -29.7574   16.7105  -16.2002 C   0  0  0  0  0  0  0  0  0  0  0  0
  -28.9636   15.6491  -16.3750 N   0  0  0  0  0  0  0  0  0  0  0  0
  -29.7591   17.6489  -18.5778 N   0  0  0  0  0  0  0  0  0  0  0  0
  -30.3832   18.7137  -19.0242 C   0  0  0  0  0  0  0  0  0  0  0  0
  -31.1073   19.3703  -18.0679 N   0  0  0  0  0  0  0  0  0  0  0  0
  1  2  2  0  0  0  0
  1  6  1  0  0  0  0
  2  3  1  0  0  0  0
  3  4  2  0  0  0  0
  4  5  1  0  0  0  0
  4 10  1  0  0  0  0
  5  6  2  0  0  0  0
  5  8  1  0  0  0  0
  6  7  1  0  0  0  0
  8  9  1  0  0  0  0
  9 10  2  0  0  0  0
M  END
>  <CHROM.1>
-30.37164024,17.81624819,-16.78242475,1.29160266,-0.92480098,1.94568521

>  <Name>
ligand

>  <RI>
0

>  <Rbt.Current_Directory>
/home/itssahil/PROJECTS/Mol_Feturizer/New_Systems/rnas/4TZX

>  <Rbt.Executable>
rbdock ($Id: //depot/dev/client3/rdock/2013.1/src/exe/rbdock.cxx#4 $)

>  <Rbt.Library>
libRbt.so (2013.1, Build901 2013/11/27)

>  <Rbt.Parameter_File>
/export/apps/rDock/src/rDock_2013.1_src/data/scripts/dock_solv.prm

>  <Rbt.Receptor>
prm/pocket_docking_7.prm

>  <SCORE>
-14.3471

>  <SCORE.INTER>
-14.3471

>  <SCORE.INTER.CONST>
1

>  <SCORE.INTER.POLAR>
0

>  <SCORE.INTER.ROT>
0

>  <SCORE.INTER.SOLV>
8.50771

>  <SCORE.INTER.VDW>
-16.0006

>  <SCORE.INTER.norm>
-1.43471

>  <SCORE.INTRA>
0

>  <SCORE.INTRA.DIHEDRAL>
0

>  <SCORE.INTRA.DIHEDRAL.0>
0

>  <SCORE.INTRA.POLAR>
0

>  <SCORE.INTRA.POLAR.0>
0

>  <SCORE.INTRA.REPUL>
0

>  <SCORE.INTRA.REPUL.0>
0

>  <SCORE.INTRA.SOLV>
0

>  <SCORE.INTRA.SOLV.lig_0>
-23.8949

>  <SCORE.INTRA.VDW>
0

>  <SCORE.INTRA.VDW.0>
0

>  <SCORE.INTRA.norm>
0

>  <SCORE.RESTR>
0

>  <SCORE.RESTR.CAVITY>
0

>  <SCORE.RESTR.norm>
0

>  <SCORE.SYSTEM>
0

>  <SCORE.SYSTEM.CONST>
0

>  <SCORE.SYSTEM.DIHEDRAL>
0

>  <SCORE.SYSTEM.SOLV>
0

>  <SCORE.SYSTEM.norm>
0

>  <SCORE.heavy>
10

>  <SCORE.norm>
-1.43471

>  <RMSD>
0.402

$$$$
ligand
 OpenBabel11021811513D
libRbt.so/2013.1/901 2013/11/27
 10 11  0  0  0  0  0  0  0  0999 V2000
  -30.2312   16.9895  -14.9520 N   0  0  0  0  0  0  0  0  0  0  0  0
  -31.0429   18.0434  -14.7927 C   0  0  0  0  0  0  0  0  0  0  0  0
  -31.4507   18.9324  -15.6976 N   0  0  0  0  0  0  0  0  0  0  0  0
  -30.9285   18.6583  -16.9039 C   0  0  0  0  0  0  0  0  0  0  0  0
  -30.0788   17.6152  -17.2225 C   0  0  0  0  0  0  0  0  0  0  0  0
  -29.7224   16.7404  -16.1764 C   0  0  0  0  0  0  0  0  0  0  0  0
  -28.9110   15.6906  -16.3395 N   0  0  0  0  0  0  0  0  0  0  0  0
  -29.7467   17.6472  -18.5661 N   0  0  0  0  0  0  0  0  0  0  0  0
  -30.3903   18.6951  -19.0246 C   0  0  0  0  0  0  0  0  0  0  0  0
  -31.1230   19.3518  -18.0748 N   0  0  0  0  0  0  0  0  0  0  0  0
  1  2  2  0  0  0  0
  1  6  1  0  0  0  0
  2  3  1  0  0  0  0
  3  4  2  0  0  0  0
  4  5  1  0  0  0  0
  4 10  1  0  0  0  0
  5  6  2  0  0  0  0
  5  8  1  0  0  0  0
  6  7  1  0  0  0  0
  8  9  1  0  0  0  0
  9 10  2  0  0  0  0
M  END
>  <CHROM.1>
-30.35718402,17.82763071,-16.77125238,1.27719794,-0.90972677,1.92107552

>  <Name>
ligand

>  <RI>
0

>  <Rbt.Current_Directory>
/home/itssahil/PROJECTS/Mol_Feturizer/New_Systems/rnas/4TZX

>  <Rbt.Executable>
rbdock ($Id: //depot/dev/client3/rdock/2013.1/src/exe/rbdock.cxx#4 $)

>  <Rbt.Library>
libRbt.so (2013.1, Build901 2013/11/27)

>  <Rbt.Parameter_File>
/export/apps/rDock/src/rDock_2013.1_src/data/scripts/dock_solv.prm

>  <Rbt.Receptor>
prm/pocket_docking_7.prm

>  <SCORE>
-14.3764

>  <SCORE.INTER>
-14.3764

>  <SCORE.INTER.CONST>
1

>  <SCORE.INTER.POLAR>
0

>  <SCORE.INTER.ROT>
0

>  <SCORE.INTER.SOLV>
8.25612

>  <SCORE.INTER.VDW>
-15.9363

>  <SCORE.INTER.norm>
-1.43764

>  <SCORE.INTRA>
0

>  <SCORE.INTRA.DIHEDRAL>
0

>  <SCORE.INTRA.DIHEDRAL.0>
0

>  <SCORE.INTRA.POLAR>
0

>  <SCORE.INTRA.POLAR.0>
0

>  <SCORE.INTRA.REPUL>
0

>  <SCORE.INTRA.REPUL.0>
0

>  <SCORE.INTRA.SOLV>
0

>  <SCORE.INTRA.SOLV.lig_0>
-23.8949

>  <SCORE.INTRA.VDW>
0

>  <SCORE.INTRA.VDW.0>
0

>  <SCORE.INTRA.norm>
0

>  <SCORE.RESTR>
0

>  <SCORE.RESTR.CAVITY>
0

>  <SCORE.RESTR.norm>
0

>  <SCORE.SYSTEM>
0

>  <SCORE.SYSTEM.CONST>
0

>  <SCORE.SYSTEM.DIHEDRAL>
0

>  <SCORE.SYSTEM.SOLV>
0

>  <SCORE.SYSTEM.norm>
0

>  <SCORE.heavy>
10

>  <SCORE.norm>
-1.43764

>  <RMSD>
0.402

$$$$
ligand
 OpenBabel11021811513D
libRbt.so/2013.1/901 2013/11/27
 10 11  0  0  0  0  0  0  0  0999 V2000
  -30.2715   16.9468  -14.9788 N   0  0  0  0  0  0  0  0  0  0  0  0
  -31.0660   18.0121  -14.8095 C   0  0  0  0  0  0  0  0  0  0  0  0
  -31.4530   18.9205  -15.7042 N   0  0  0  0  0  0  0  0  0  0  0  0
  -30.9283   18.6543  -16.9111 C   0  0  0  0  0  0  0  0  0  0  0  0
  -30.0946   17.6013  -17.2393 C   0  0  0  0  0  0  0  0  0  0  0  0
  -29.7596   16.7060  -16.2036 C   0  0  0  0  0  0  0  0  0  0  0  0
  -28.9652   15.6448  -16.3767 N   0  0  0  0  0  0  0  0  0  0  0  0
  -29.7538   17.6463  -18.5804 N   0  0  0  0  0  0  0  0  0  0  0  0
  -30.3766   18.7114  -19.0279 C   0  0  0  0  0  0  0  0  0  0  0  0
  -31.1037   19.3673  -18.0734 N   0  0  0  0  0  0  0  0  0  0  0  0
  1  2  2  0  0  0  0
  1  6  1  0  0  0  0
  2  3  1  0  0  0  0
  3  4  2  0  0  0  0
  4  5  1  0  0  0  0
  4 10  1  0  0  0  0
  5  6  2  0  0  0  0
  5  8  1  0  0  0  0
  6  7  1  0  0  0  0
  8  9  1  0  0  0  0
  9 10  2  0  0  0  0
M  END
>  <CHROM.1>
-30.37204919,17.81219702,-16.78682816,1.29642777,-0.92360191,1.95031720

>  <Name>
ligand

>  <RI>
0

>  <Rbt.Current_Directory>
/home/itssahil/PROJECTS/Mol_Feturizer/New_Systems/rnas/4TZX

>  <Rbt.Executable>
rbdock ($Id: //depot/dev/client3/rdock/2013.1/src/exe/rbdock.cxx#4 $)

>  <Rbt.Library>
libRbt.so (2013.1, Build901 2013/11/27)

>  <Rbt.Parameter_File>
/export/apps/rDock/src/rDock_2013.1_src/data/scripts/dock_solv.prm

>  <Rbt.Receptor>
prm/pocket_docking_8.prm

>  <SCORE>
-14.3457

>  <SCORE.INTER>
-14.3458

>  <SCORE.INTER.CONST>
1

>  <SCORE.INTER.POLAR>
0

>  <SCORE.INTER.ROT>
0

>  <SCORE.INTER.SOLV>
8.52331

>  <SCORE.INTER.VDW>
-16.005

>  <SCORE.INTER.norm>
-1.43458

>  <SCORE.INTRA>
0

>  <SCORE.INTRA.DIHEDRAL>
0

>  <SCORE.INTRA.DIHEDRAL.0>
0

>  <SCORE.INTRA.POLAR>
0

>  <SCORE.INTRA.POLAR.0>
0

>  <SCORE.INTRA.REPUL>
0

>  <SCORE.INTRA.REPUL.0>
0

>  <SCORE.INTRA.SOLV>
0

>  <SCORE.INTRA.SOLV.lig_0>
-23.8949

>  <SCORE.INTRA.VDW>
0

>  <SCORE.INTRA.VDW.0>
0

>  <SCORE.INTRA.norm>
0

>  <SCORE.RESTR>
5.90456e-05

>  <SCORE.RESTR.CAVITY>
5.90456e-05

>  <SCORE.RESTR.norm>
5.90456e-06

>  <SCORE.SYSTEM>
0

>  <SCORE.SYSTEM.CONST>
0

>  <SCORE.SYSTEM.DIHEDRAL>
0

>  <SCORE.SYSTEM.SOLV>
0

>  <SCORE.SYSTEM.norm>
0

>  <SCORE.heavy>
10

>  <SCORE.norm>
-1.43457

>  <RMSD>
0.402

$$$$
ligand
 OpenBabel11021811513D
libRbt.so/2013.1/901 2013/11/27
 10 11  0  0  0  0  0  0  0  0999 V2000
  -30.2355   16.9874  -14.9526 N   0  0  0  0  0  0  0  0  0  0  0  0
  -31.0429   18.0444  -14.7924 C   0  0  0  0  0  0  0  0  0  0  0  0
  -31.4462   18.9365  -15.6963 N   0  0  0  0  0  0  0  0  0  0  0  0
  -30.9242   18.6621  -16.9025 C   0  0  0  0  0  0  0  0  0  0  0  0
  -30.0785   17.6160  -17.2220 C   0  0  0  0  0  0  0  0  0  0  0  0
  -29.7267   16.7380  -16.1769 C   0  0  0  0  0  0  0  0  0  0  0  0
  -28.9195   15.6852  -16.3410 N   0  0  0  0  0  0  0  0  0  0  0  0
  -29.7451   17.6486  -18.5653 N   0  0  0  0  0  0  0  0  0  0  0  0
  -30.3839   18.7000  -19.0227 C   0  0  0  0  0  0  0  0  0  0  0  0
  -31.1147   19.3582  -18.0725 N   0  0  0  0  0  0  0  0  0  0  0  0
  1  2  2  0  0  0  0
  1  6  1  0  0  0  0
  2  3  1  0  0  0  0
  3  4  2  0  0  0  0
  4  5  1  0  0  0  0
  4 10  1  0  0  0  0
  5  6  2  0  0  0  0
  5  8  1  0  0  0  0
  6  7  1  0  0  0  0
  8  9  1  0  0  0  0
  9 10  2  0  0  0  0
M  END
>  <CHROM.1>
-30.35637143,17.82886830,-16.77066093,1.28087319,-0.91334470,1.92552200

>  <Name>
ligand

>  <RI>
0

>  <Rbt.Current_Directory>
/home/itssahil/PROJECTS/Mol_Feturizer/New_Systems/rnas/4TZX

>  <Rbt.Executable>
rbdock ($Id: //depot/dev/client3/rdock/2013.1/src/exe/rbdock.cxx#4 $)

>  <Rbt.Library>
libRbt.so (2013.1, Build901 2013/11/27)

>  <Rbt.Parameter_File>
/export/apps/rDock/src/rDock_2013.1_src/data/scripts/dock_solv.prm

>  <Rbt.Receptor>
prm/pocket_docking_8.prm

>  <SCORE>
-14.3756

>  <SCORE.INTER>
-14.3756

>  <SCORE.INTER.CONST>
1

>  <SCORE.INTER.POLAR>
0

>  <SCORE.INTER.ROT>
0

>  <SCORE.INTER.SOLV>
8.29083

>  <SCORE.INTER.VDW>
-15.9473

>  <SCORE.INTER.norm>
-1.43756

>  <SCORE.INTRA>
0

>  <SCORE.INTRA.DIHEDRAL>
0

>  <SCORE.INTRA.DIHEDRAL.0>
0

>  <SCORE.INTRA.POLAR>
0

>  <SCORE.INTRA.POLAR.0>
0

>  <SCORE.INTRA.REPUL>
0

>  <SCORE.INTRA.REPUL.0>
0

>  <SCORE.INTRA.SOLV>
0

>  <SCORE.INTRA.SOLV.lig_0>
-23.8949

>  <SCORE.INTRA.VDW>
0

>  <SCORE.INTRA.VDW.0>
0

>  <SCORE.INTRA.norm>
0

>  <SCORE.RESTR>
0

>  <SCORE.RESTR.CAVITY>
0

>  <SCORE.RESTR.norm>
0

>  <SCORE.SYSTEM>
0

>  <SCORE.SYSTEM.CONST>
0

>  <SCORE.SYSTEM.DIHEDRAL>
0

>  <SCORE.SYSTEM.SOLV>
0

>  <SCORE.SYSTEM.norm>
0

>  <SCORE.heavy>
10

>  <SCORE.norm>
-1.43756

>  <RMSD>
0.402

$$$$
ligand
 OpenBabel11021811513D
libRbt.so/2013.1/901 2013/11/27
 10 11  0  0  0  0  0  0  0  0999 V2000
  -30.1679   17.0259  -14.9185 N   0  0  0  0  0  0  0  0  0  0  0  0
  -31.0090   18.0560  -14.7570 C   0  0  0  0  0  0  0  0  0  0  0  0
  -31.4566   18.9236  -15.6640 N   0  0  0  0  0  0  0  0  0  0  0  0
  -30.9436   18.6541  -16.8751 C   0  0  0  0  0  0  0  0  0  0  0  0
  -30.0670   17.6343  -17.1966 C   0  0  0  0  0  0  0  0  0  0  0  0
  -29.6692   16.7807  -16.1478 C   0  0  0  0  0  0  0  0  0  0  0  0
  -28.8285   15.7546  -16.3133 N   0  0  0  0  0  0  0  0  0  0  0  0
  -29.7552   17.6636  -18.5451 N   0  0  0  0  0  0  0  0  0  0  0  0
  -30.4370   18.6871  -19.0037 C   0  0  0  0  0  0  0  0  0  0  0  0
  -31.1758   19.3301  -18.0494 N   0  0  0  0  0  0  0  0  0  0  0  0
  1  2  2  0  0  0  0
  1  6  1  0  0  0  0
  2  3  1  0  0  0  0
  3  4  2  0  0  0  0
  4  5  1  0  0  0  0
  4 10  1  0  0  0  0
  5  6  2  0  0  0  0
  5  8  1  0  0  0  0
  6  7  1  0  0  0  0
  8  9  1  0  0  0  0
  9 10  2  0  0  0  0
M  END
>  <CHROM.1>
-30.34529821,17.84244910,-16.74329243,1.23947750,-0.88556705,1.88227542

>  <Name>
ligand

>  <RI>
0

>  <Rbt.Current_Directory>
/home/itssahil/PROJECTS/Mol_Feturizer/New_Systems/rnas/4TZX

>  <Rbt.Executable>
rbdock ($Id: //depot/dev/client3/rdock/2013.1/src/exe/rbdock.cxx#4 $)

>  <Rbt.Library>
libRbt.so (2013.1, Build901 2013/11/27)

>  <Rbt.Parameter_File>
/export/apps/rDock/src/rDock_2013.1_src/data/scripts/dock_solv.prm

>  <Rbt.Receptor>
prm/blind_docking_60.prm

>  <SCORE>
-14.379

>  <SCORE.INTER>
-14.379

>  <SCORE.INTER.CONST>
1

>  <SCORE.INTER.POLAR>
0

>  <SCORE.INTER.ROT>
0

>  <SCORE.INTER.SOLV>
7.87814

>  <SCORE.INTER.VDW>
-15.812

>  <SCORE.INTER.norm>
-1.4379

>  <SCORE.INTRA>
0

>  <SCORE.INTRA.DIHEDRAL>
0

>  <SCORE.INTRA.DIHEDRAL.0>
0

>  <SCORE.INTRA.POLAR>
0

>  <SCORE.INTRA.POLAR.0>
0

>  <SCORE.INTRA.REPUL>
0

>  <SCORE.INTRA.REPUL.0>
0

>  <SCORE.INTRA.SOLV>
0

>  <SCORE.INTRA.SOLV.lig_0>
-23.8949

>  <SCORE.INTRA.VDW>
0

>  <SCORE.INTRA.VDW.0>
0

>  <SCORE.INTRA.norm>
0

>  <SCORE.RESTR>
0

>  <SCORE.RESTR.CAVITY>
0

>  <SCORE.RESTR.norm>
0

>  <SCORE.SYSTEM>
0

>  <SCORE.SYSTEM.CONST>
0

>  <SCORE.SYSTEM.DIHEDRAL>
0

>  <SCORE.SYSTEM.SOLV>
0

>  <SCORE.SYSTEM.norm>
0

>  <SCORE.heavy>
10

>  <SCORE.norm>
-1.4379

>  <RMSD>
0.403

$$$$
ligand
 OpenBabel11021811513D
libRbt.so/2013.1/901 2013/11/27
 10 11  0  0  0  0  0  0  0  0999 V2000
  -30.1808   17.0285  -14.9169 N   0  0  0  0  0  0  0  0  0  0  0  0
  -31.0228   18.0582  -14.7568 C   0  0  0  0  0  0  0  0  0  0  0  0
  -31.4674   18.9271  -15.6639 N   0  0  0  0  0  0  0  0  0  0  0  0
  -30.9501   18.6595  -16.8737 C   0  0  0  0  0  0  0  0  0  0  0  0
  -30.0723   17.6405  -17.1937 C   0  0  0  0  0  0  0  0  0  0  0  0
  -29.6779   16.7853  -16.1449 C   0  0  0  0  0  0  0  0  0  0  0  0
  -28.8364   15.7596  -16.3090 N   0  0  0  0  0  0  0  0  0  0  0  0
  -29.7558   17.6719  -18.5411 N   0  0  0  0  0  0  0  0  0  0  0  0
  -30.4362   18.6960  -19.0005 C   0  0  0  0  0  0  0  0  0  0  0  0
  -31.1784   19.3374  -18.0477 N   0  0  0  0  0  0  0  0  0  0  0  0
  1  2  2  0  0  0  0
  1  6  1  0  0  0  0
  2  3  1  0  0  0  0
  3  4  2  0  0  0  0
  4  5  1  0  0  0  0
  4 10  1  0  0  0  0
  5  6  2  0  0  0  0
  5  8  1  0  0  0  0
  6  7  1  0  0  0  0
  8  9  1  0  0  0  0
  9 10  2  0  0  0  0
M  END
>  <CHROM.1>
-30.35213316,17.84785626,-16.74107270,1.24458162,-0.88429538,1.88778548

>  <Name>
ligand

>  <RI>
0

>  <Rbt.Current_Directory>
/home/itssahil/PROJECTS/Mol_Feturizer/New_Systems/rnas/4TZX

>  <Rbt.Executable>
rbdock ($Id: //depot/dev/client3/rdock/2013.1/src/exe/rbdock.cxx#4 $)

>  <Rbt.Library>
libRbt.so (2013.1, Build901 2013/11/27)

>  <Rbt.Parameter_File>
/export/apps/rDock/src/rDock_2013.1_src/data/scripts/dock_solv.prm

>  <Rbt.Receptor>
prm/blind_docking_80.prm

>  <SCORE>
-14.3807

>  <SCORE.INTER>
-14.3807

>  <SCORE.INTER.CONST>
1

>  <SCORE.INTER.POLAR>
0

>  <SCORE.INTER.ROT>
0

>  <SCORE.INTER.SOLV>
7.88495

>  <SCORE.INTER.VDW>
-15.8155

>  <SCORE.INTER.norm>
-1.43807

>  <SCORE.INTRA>
0

>  <SCORE.INTRA.DIHEDRAL>
0

>  <SCORE.INTRA.DIHEDRAL.0>
0

>  <SCORE.INTRA.POLAR>
0

>  <SCORE.INTRA.POLAR.0>
0

>  <SCORE.INTRA.REPUL>
0

>  <SCORE.INTRA.REPUL.0>
0

>  <SCORE.INTRA.SOLV>
0

>  <SCORE.INTRA.SOLV.lig_0>
-23.8949

>  <SCORE.INTRA.VDW>
0

>  <SCORE.INTRA.VDW.0>
0

>  <SCORE.INTRA.norm>
0

>  <SCORE.RESTR>
0

>  <SCORE.RESTR.CAVITY>
0

>  <SCORE.RESTR.norm>
0

>  <SCORE.SYSTEM>
0

>  <SCORE.SYSTEM.CONST>
0

>  <SCORE.SYSTEM.DIHEDRAL>
0

>  <SCORE.SYSTEM.SOLV>
0

>  <SCORE.SYSTEM.norm>
0

>  <SCORE.heavy>
10

>  <SCORE.norm>
-1.43807

>  <RMSD>
0.403

$$$$
ligand
 OpenBabel11021811513D
libRbt.so/2013.1/901 2013/11/27
 10 11  0  0  0  0  0  0  0  0999 V2000
  -30.2157   16.9824  -14.9548 N   0  0  0  0  0  0  0  0  0  0  0  0
  -31.0314   18.0324  -14.7913 C   0  0  0  0  0  0  0  0  0  0  0  0
  -31.4461   18.9209  -15.6936 N   0  0  0  0  0  0  0  0  0  0  0  0
  -30.9268   18.6507  -16.9020 C   0  0  0  0  0  0  0  0  0  0  0  0
  -30.0736   17.6118  -17.2249 C   0  0  0  0  0  0  0  0  0  0  0  0
  -29.7099   16.7371  -16.1812 C   0  0  0  0  0  0  0  0  0  0  0  0
  -28.8945   15.6911  -16.3485 N   0  0  0  0  0  0  0  0  0  0  0  0
  -29.7462   17.6470  -18.5696 N   0  0  0  0  0  0  0  0  0  0  0  0
  -30.3959   18.6928  -19.0245 C   0  0  0  0  0  0  0  0  0  0  0  0
  -31.1282   19.3449  -18.0714 N   0  0  0  0  0  0  0  0  0  0  0  0
  1  2  2  0  0  0  0
  1  6  1  0  0  0  0
  2  3  1  0  0  0  0
  3  4  2  0  0  0  0
  4  5  1  0  0  0  0
  4 10  1  0  0  0  0
  5  6  2  0  0  0  0
  5  8  1  0  0  0  0
  6  7  1  0  0  0  0
  8  9  1  0  0  0  0
  9 10  2  0  0  0  0
M  END
>  <CHROM.1>
-30.35140655,17.82237446,-16.77245285,1.26965197,-0.90677461,1.91649224

>  <Name>
ligand

>  <RI>
0

>  <Rbt.Current_Directory>
/home/itssahil/PROJECTS/Mol_Feturizer/New_Systems/rnas/4TZX

>  <Rbt.Executable>
rbdock ($Id: //depot/dev/client3/rdock/2013.1/src/exe/rbdock.cxx#4 $)

>  <Rbt.Library>
libRbt.so (2013.1, Build901 2013/11/27)

>  <Rbt.Parameter_File>
/export/apps/rDock/src/rDock_2013.1_src/data/scripts/dock_solv.prm

>  <Rbt.Receptor>
prm/blind_docking_80.prm

>  <SCORE>
-14.3785

>  <SCORE.INTER>
-14.3785

>  <SCORE.INTER.CONST>
1

>  <SCORE.INTER.POLAR>
0

>  <SCORE.INTER.ROT>
0

>  <SCORE.INTER.SOLV>
8.22186

>  <SCORE.INTER.VDW>
-15.9263

>  <SCORE.INTER.norm>
-1.43785

>  <SCORE.INTRA>
0

>  <SCORE.INTRA.DIHEDRAL>
0

>  <SCORE.INTRA.DIHEDRAL.0>
0

>  <SCORE.INTRA.POLAR>
0

>  <SCORE.INTRA.POLAR.0>
0

>  <SCORE.INTRA.REPUL>
0

>  <SCORE.INTRA.REPUL.0>
0

>  <SCORE.INTRA.SOLV>
0

>  <SCORE.INTRA.SOLV.lig_0>
-23.8949

>  <SCORE.INTRA.VDW>
0

>  <SCORE.INTRA.VDW.0>
0

>  <SCORE.INTRA.norm>
0

>  <SCORE.RESTR>
0

>  <SCORE.RESTR.CAVITY>
0

>  <SCORE.RESTR.norm>
0

>  <SCORE.SYSTEM>
0

>  <SCORE.SYSTEM.CONST>
0

>  <SCORE.SYSTEM.DIHEDRAL>
0

>  <SCORE.SYSTEM.SOLV>
0

>  <SCORE.SYSTEM.norm>
0

>  <SCORE.heavy>
10

>  <SCORE.norm>
-1.43785

>  <RMSD>
0.403

$$$$
ligand
 OpenBabel11021811513D
libRbt.so/2013.1/901 2013/11/27
 10 11  0  0  0  0  0  0  0  0999 V2000
  -30.2296   16.9996  -14.9480 N   0  0  0  0  0  0  0  0  0  0  0  0
  -31.0454   18.0510  -14.7940 C   0  0  0  0  0  0  0  0  0  0  0  0
  -31.4545   18.9355  -15.7027 N   0  0  0  0  0  0  0  0  0  0  0  0
  -30.9290   18.6592  -16.9070 C   0  0  0  0  0  0  0  0  0  0  0  0
  -30.0749   17.6181  -17.2204 C   0  0  0  0  0  0  0  0  0  0  0  0
  -29.7175   16.7481  -16.1706 C   0  0  0  0  0  0  0  0  0  0  0  0
  -28.9019   15.7007  -16.3286 N   0  0  0  0  0  0  0  0  0  0  0  0
  -29.7402   17.6467  -18.5634 N   0  0  0  0  0  0  0  0  0  0  0  0
  -30.3866   18.6908  -19.0267 C   0  0  0  0  0  0  0  0  0  0  0  0
  -31.1236   19.3480  -18.0807 N   0  0  0  0  0  0  0  0  0  0  0  0
  1  2  2  0  0  0  0
  1  6  1  0  0  0  0
  2  3  1  0  0  0  0
  3  4  2  0  0  0  0
  4  5  1  0  0  0  0
  4 10  1  0  0  0  0
  5  6  2  0  0  0  0
  5  8  1  0  0  0  0
  6  7  1  0  0  0  0
  8  9  1  0  0  0  0
  9 10  2  0  0  0  0
M  END
>  <CHROM.1>
-30.35492892,17.83103892,-16.77041534,1.27827113,-0.90566831,1.91852751

>  <Name>
ligand

>  <RI>
0

>  <Rbt.Current_Directory>
/home/itssahil/PROJECTS/Mol_Feturizer/New_Systems/rnas/4TZX

>  <Rbt.Executable>
rbdock ($Id: //depot/dev/client3/rdock/2013.1/src/exe/rbdock.cxx#4 $)

>  <Rbt.Library>
libRbt.so (2013.1, Build901 2013/11/27)

>  <Rbt.Parameter_File>
/export/apps/rDock/src/rDock_2013.1_src/data/scripts/dock_solv.prm

>  <Rbt.Receptor>
prm/pocket_docking_5.prm

>  <SCORE>
-14.3743

>  <SCORE.INTER>
-14.3743

>  <SCORE.INTER.CONST>
1

>  <SCORE.INTER.POLAR>
0

>  <SCORE.INTER.ROT>
0

>  <SCORE.INTER.SOLV>
8.20267

>  <SCORE.INTER.VDW>
-15.9171

>  <SCORE.INTER.norm>
-1.43743

>  <SCORE.INTRA>
0

>  <SCORE.INTRA.DIHEDRAL>
0

>  <SCORE.INTRA.DIHEDRAL.0>
0

>  <SCORE.INTRA.POLAR>
0

>  <SCORE.INTRA.POLAR.0>
0

>  <SCORE.INTRA.REPUL>
0

>  <SCORE.INTRA.REPUL.0>
0

>  <SCORE.INTRA.SOLV>
0

>  <SCORE.INTRA.SOLV.lig_0>
-23.8949

>  <SCORE.INTRA.VDW>
0

>  <SCORE.INTRA.VDW.0>
0

>  <SCORE.INTRA.norm>
0

>  <SCORE.RESTR>
0

>  <SCORE.RESTR.CAVITY>
0

>  <SCORE.RESTR.norm>
0

>  <SCORE.SYSTEM>
0

>  <SCORE.SYSTEM.CONST>
0

>  <SCORE.SYSTEM.DIHEDRAL>
0

>  <SCORE.SYSTEM.SOLV>
0

>  <SCORE.SYSTEM.norm>
0

>  <SCORE.heavy>
10

>  <SCORE.norm>
-1.43743

>  <RMSD>
0.403

$$$$
ligand
 OpenBabel11021811513D
libRbt.so/2013.1/901 2013/11/27
 10 11  0  0  0  0  0  0  0  0999 V2000
  -30.2049   17.0303  -14.9219 N   0  0  0  0  0  0  0  0  0  0  0  0
  -31.0482   18.0601  -14.7698 C   0  0  0  0  0  0  0  0  0  0  0  0
  -31.4853   18.9281  -15.6815 N   0  0  0  0  0  0  0  0  0  0  0  0
  -30.9580   18.6593  -16.8867 C   0  0  0  0  0  0  0  0  0  0  0  0
  -30.0774   17.6400  -17.1983 C   0  0  0  0  0  0  0  0  0  0  0  0
  -29.6918   16.7859  -16.1454 C   0  0  0  0  0  0  0  0  0  0  0  0
  -28.8488   15.7601  -16.3015 N   0  0  0  0  0  0  0  0  0  0  0  0
  -29.7498   17.6700  -18.5431 N   0  0  0  0  0  0  0  0  0  0  0  0
  -30.4264   18.6936  -19.0091 C   0  0  0  0  0  0  0  0  0  0  0  0
  -31.1765   19.3359  -18.0632 N   0  0  0  0  0  0  0  0  0  0  0  0
  1  2  2  0  0  0  0
  1  6  1  0  0  0  0
  2  3  1  0  0  0  0
  3  4  2  0  0  0  0
  4  5  1  0  0  0  0
  4 10  1  0  0  0  0
  5  6  2  0  0  0  0
  5  8  1  0  0  0  0
  6  7  1  0  0  0  0
  8  9  1  0  0  0  0
  9 10  2  0  0  0  0
M  END
>  <CHROM.1>
-30.36106465,17.84777857,-16.74823349,1.25696696,-0.88161726,1.89632382

>  <Name>
ligand

>  <RI>
0

>  <Rbt.Current_Directory>
/home/itssahil/PROJECTS/Mol_Feturizer/New_Systems/rnas/4TZX

>  <Rbt.Executable>
rbdock ($Id: //depot/dev/client3/rdock/2013.1/src/exe/rbdock.cxx#4 $)

>  <Rbt.Library>
libRbt.so (2013.1, Build901 2013/11/27)

>  <Rbt.Parameter_File>
/export/apps/rDock/src/rDock_2013.1_src/data/scripts/dock_solv.prm

>  <Rbt.Receptor>
prm/pocket_docking_5.prm

>  <SCORE>
-14.3829

>  <SCORE.INTER>
-14.3829

>  <SCORE.INTER.CONST>
1

>  <SCORE.INTER.POLAR>
0

>  <SCORE.INTER.ROT>
0

>  <SCORE.INTER.SOLV>
7.90943

>  <SCORE.INTER.VDW>
-15.8251

>  <SCORE.INTER.norm>
-1.43829

>  <SCORE.INTRA>
0

>  <SCORE.INTRA.DIHEDRAL>
0

>  <SCORE.INTRA.DIHEDRAL.0>
0

>  <SCORE.INTRA.POLAR>
0

>  <SCORE.INTRA.POLAR.0>
0

>  <SCORE.INTRA.REPUL>
0

>  <SCORE.INTRA.REPUL.0>
0

>  <SCORE.INTRA.SOLV>
0

>  <SCORE.INTRA.SOLV.lig_0>
-23.8949

>  <SCORE.INTRA.VDW>
0

>  <SCORE.INTRA.VDW.0>
0

>  <SCORE.INTRA.norm>
0

>  <SCORE.RESTR>
0

>  <SCORE.RESTR.CAVITY>
0

>  <SCORE.RESTR.norm>
0

>  <SCORE.SYSTEM>
0

>  <SCORE.SYSTEM.CONST>
0

>  <SCORE.SYSTEM.DIHEDRAL>
0

>  <SCORE.SYSTEM.SOLV>
0

>  <SCORE.SYSTEM.norm>
0

>  <SCORE.heavy>
10

>  <SCORE.norm>
-1.43829

>  <RMSD>
0.403

$$$$
ligand
 OpenBabel11021811513D
libRbt.so/2013.1/901 2013/11/27
 10 11  0  0  0  0  0  0  0  0999 V2000
  -30.2157   16.9840  -14.9551 N   0  0  0  0  0  0  0  0  0  0  0  0
  -31.0323   18.0337  -14.7932 C   0  0  0  0  0  0  0  0  0  0  0  0
  -31.4476   18.9207  -15.6967 N   0  0  0  0  0  0  0  0  0  0  0  0
  -30.9279   18.6494  -16.9046 C   0  0  0  0  0  0  0  0  0  0  0  0
  -30.0738   17.6107  -17.2260 C   0  0  0  0  0  0  0  0  0  0  0  0
  -29.7096   16.7376  -16.1812 C   0  0  0  0  0  0  0  0  0  0  0  0
  -28.8933   15.6920  -16.3470 N   0  0  0  0  0  0  0  0  0  0  0  0
  -29.7462   17.6445  -18.5707 N   0  0  0  0  0  0  0  0  0  0  0  0
  -30.3966   18.6892  -19.0270 C   0  0  0  0  0  0  0  0  0  0  0  0
  -31.1296   19.3419  -18.0749 N   0  0  0  0  0  0  0  0  0  0  0  0
  1  2  2  0  0  0  0
  1  6  1  0  0  0  0
  2  3  1  0  0  0  0
  3  4  2  0  0  0  0
  4  5  1  0  0  0  0
  4 10  1  0  0  0  0
  5  6  2  0  0  0  0
  5  8  1  0  0  0  0
  6  7  1  0  0  0  0
  8  9  1  0  0  0  0
  9 10  2  0  0  0  0
M  END
>  <CHROM.1>
-30.35182046,17.82164358,-16.77391379,1.26947669,-0.90597647,1.91507944

>  <Name>
ligand

>  <RI>
0

>  <Rbt.Current_Directory>
/home/itssahil/PROJECTS/Mol_Feturizer/New_Systems/rnas/4TZX

>  <Rbt.Executable>
rbdock ($Id: //depot/dev/client3/rdock/2013.1/src/exe/rbdock.cxx#4 $)

>  <Rbt.Library>
libRbt.so (2013.1, Build901 2013/11/27)

>  <Rbt.Parameter_File>
/export/apps/rDock/src/rDock_2013.1_src/data/scripts/dock_solv.prm

>  <Rbt.Receptor>
prm/blind_docking_100.prm

>  <SCORE>
-14.3775

>  <SCORE.INTER>
-14.3775

>  <SCORE.INTER.CONST>
1

>  <SCORE.INTER.POLAR>
0

>  <SCORE.INTER.ROT>
0

>  <SCORE.INTER.SOLV>
8.21526

>  <SCORE.INTER.VDW>
-15.9234

>  <SCORE.INTER.norm>
-1.43775

>  <SCORE.INTRA>
0

>  <SCORE.INTRA.DIHEDRAL>
0

>  <SCORE.INTRA.DIHEDRAL.0>
0

>  <SCORE.INTRA.POLAR>
0

>  <SCORE.INTRA.POLAR.0>
0

>  <SCORE.INTRA.REPUL>
0

>  <SCORE.INTRA.REPUL.0>
0

>  <SCORE.INTRA.SOLV>
0

>  <SCORE.INTRA.SOLV.lig_0>
-23.8949

>  <SCORE.INTRA.VDW>
0

>  <SCORE.INTRA.VDW.0>
0

>  <SCORE.INTRA.norm>
0

>  <SCORE.RESTR>
0

>  <SCORE.RESTR.CAVITY>
0

>  <SCORE.RESTR.norm>
0

>  <SCORE.SYSTEM>
0

>  <SCORE.SYSTEM.CONST>
0

>  <SCORE.SYSTEM.DIHEDRAL>
0

>  <SCORE.SYSTEM.SOLV>
0

>  <SCORE.SYSTEM.norm>
0

>  <SCORE.heavy>
10

>  <SCORE.norm>
-1.43775

>  <RMSD>
0.404

$$$$
ligand
 OpenBabel11021811513D
libRbt.so/2013.1/901 2013/11/27
 10 11  0  0  0  0  0  0  0  0999 V2000
  -30.2590   16.9558  -14.9748 N   0  0  0  0  0  0  0  0  0  0  0  0
  -31.0542   18.0204  -14.8047 C   0  0  0  0  0  0  0  0  0  0  0  0
  -31.4463   18.9262  -15.6998 N   0  0  0  0  0  0  0  0  0  0  0  0
  -30.9265   18.6578  -16.9084 C   0  0  0  0  0  0  0  0  0  0  0  0
  -30.0928   17.6052  -17.2377 C   0  0  0  0  0  0  0  0  0  0  0  0
  -29.7521   16.7128  -16.2013 C   0  0  0  0  0  0  0  0  0  0  0  0
  -28.9570   15.6523  -16.3753 N   0  0  0  0  0  0  0  0  0  0  0  0
  -29.7579   17.6474  -18.5804 N   0  0  0  0  0  0  0  0  0  0  0  0
  -30.3840   18.7106  -19.0277 C   0  0  0  0  0  0  0  0  0  0  0  0
  -31.1079   19.3678  -18.0715 N   0  0  0  0  0  0  0  0  0  0  0  0
  1  2  2  0  0  0  0
  1  6  1  0  0  0  0
  2  3  1  0  0  0  0
  3  4  2  0  0  0  0
  4  5  1  0  0  0  0
  4 10  1  0  0  0  0
  5  6  2  0  0  0  0
  5  8  1  0  0  0  0
  6  7  1  0  0  0  0
  8  9  1  0  0  0  0
  9 10  2  0  0  0  0
M  END
>  <CHROM.1>
-30.36855115,17.81674868,-16.78450028,1.28889305,-0.92394177,1.94192160

>  <Name>
ligand

>  <RI>
0

>  <Rbt.Current_Directory>
/home/itssahil/PROJECTS/Mol_Feturizer/New_Systems/rnas/4TZX

>  <Rbt.Executable>
rbdock ($Id: //depot/dev/client3/rdock/2013.1/src/exe/rbdock.cxx#4 $)

>  <Rbt.Library>
libRbt.so (2013.1, Build901 2013/11/27)

>  <Rbt.Parameter_File>
/export/apps/rDock/src/rDock_2013.1_src/data/scripts/dock_solv.prm

>  <Rbt.Receptor>
prm/blind_docking_80.prm

>  <SCORE>
-14.3466

>  <SCORE.INTER>
-14.3466

>  <SCORE.INTER.CONST>
1

>  <SCORE.INTER.POLAR>
0

>  <SCORE.INTER.ROT>
0

>  <SCORE.INTER.SOLV>
8.48718

>  <SCORE.INTER.VDW>
-15.9935

>  <SCORE.INTER.norm>
-1.43466

>  <SCORE.INTRA>
0

>  <SCORE.INTRA.DIHEDRAL>
0

>  <SCORE.INTRA.DIHEDRAL.0>
0

>  <SCORE.INTRA.POLAR>
0

>  <SCORE.INTRA.POLAR.0>
0

>  <SCORE.INTRA.REPUL>
0

>  <SCORE.INTRA.REPUL.0>
0

>  <SCORE.INTRA.SOLV>
0

>  <SCORE.INTRA.SOLV.lig_0>
-23.8949

>  <SCORE.INTRA.VDW>
0

>  <SCORE.INTRA.VDW.0>
0

>  <SCORE.INTRA.norm>
0

>  <SCORE.RESTR>
0

>  <SCORE.RESTR.CAVITY>
0

>  <SCORE.RESTR.norm>
0

>  <SCORE.SYSTEM>
0

>  <SCORE.SYSTEM.CONST>
0

>  <SCORE.SYSTEM.DIHEDRAL>
0

>  <SCORE.SYSTEM.SOLV>
0

>  <SCORE.SYSTEM.norm>
0

>  <SCORE.heavy>
10

>  <SCORE.norm>
-1.43466

>  <RMSD>
0.404

$$$$
ligand
 OpenBabel11021811513D
libRbt.so/2013.1/901 2013/11/27
 10 11  0  0  0  0  0  0  0  0999 V2000
  -30.1885   17.0327  -14.9201 N   0  0  0  0  0  0  0  0  0  0  0  0
  -31.0330   18.0615  -14.7685 C   0  0  0  0  0  0  0  0  0  0  0  0
  -31.4746   18.9258  -15.6815 N   0  0  0  0  0  0  0  0  0  0  0  0
  -30.9508   18.6540  -16.8876 C   0  0  0  0  0  0  0  0  0  0  0  0
  -30.0696   17.6352  -17.1989 C   0  0  0  0  0  0  0  0  0  0  0  0
  -29.6790   16.7852  -16.1445 C   0  0  0  0  0  0  0  0  0  0  0  0
  -28.8349   15.7603  -16.3001 N   0  0  0  0  0  0  0  0  0  0  0  0
  -29.7464   17.6615  -18.5448 N   0  0  0  0  0  0  0  0  0  0  0  0
  -30.4263   18.6824  -19.0119 C   0  0  0  0  0  0  0  0  0  0  0  0
  -31.1744   19.3265  -18.0656 N   0  0  0  0  0  0  0  0  0  0  0  0
  1  2  2  0  0  0  0
  1  6  1  0  0  0  0
  2  3  1  0  0  0  0
  3  4  2  0  0  0  0
  4  5  1  0  0  0  0
  4 10  1  0  0  0  0
  5  6  2  0  0  0  0
  5  8  1  0  0  0  0
  6  7  1  0  0  0  0
  8  9  1  0  0  0  0
  9 10  2  0  0  0  0
M  END
>  <CHROM.1>
-30.35207670,17.84397875,-16.74852362,1.25120178,-0.88107277,1.88867233

>  <Name>
ligand

>  <RI>
0

>  <Rbt.Current_Directory>
/home/itssahil/PROJECTS/Mol_Feturizer/New_Systems/rnas/4TZX

>  <Rbt.Executable>
rbdock ($Id: //depot/dev/client3/rdock/2013.1/src/exe/rbdock.cxx#4 $)

>  <Rbt.Library>
libRbt.so (2013.1, Build901 2013/11/27)

>  <Rbt.Parameter_File>
/export/apps/rDock/src/rDock_2013.1_src/data/scripts/dock_solv.prm

>  <Rbt.Receptor>
prm/pocket_docking_3.prm

>  <SCORE>
-14.3814

>  <SCORE.INTER>
-14.3814

>  <SCORE.INTER.CONST>
1

>  <SCORE.INTER.POLAR>
0

>  <SCORE.INTER.ROT>
0

>  <SCORE.INTER.SOLV>
7.8762

>  <SCORE.INTER.VDW>
-15.813

>  <SCORE.INTER.norm>
-1.43814

>  <SCORE.INTRA>
0

>  <SCORE.INTRA.DIHEDRAL>
0

>  <SCORE.INTRA.DIHEDRAL.0>
0

>  <SCORE.INTRA.POLAR>
0

>  <SCORE.INTRA.POLAR.0>
0

>  <SCORE.INTRA.REPUL>
0

>  <SCORE.INTRA.REPUL.0>
0

>  <SCORE.INTRA.SOLV>
0

>  <SCORE.INTRA.SOLV.lig_0>
-23.8949

>  <SCORE.INTRA.VDW>
0

>  <SCORE.INTRA.VDW.0>
0

>  <SCORE.INTRA.norm>
0

>  <SCORE.RESTR>
0

>  <SCORE.RESTR.CAVITY>
0

>  <SCORE.RESTR.norm>
0

>  <SCORE.SYSTEM>
0

>  <SCORE.SYSTEM.CONST>
0

>  <SCORE.SYSTEM.DIHEDRAL>
0

>  <SCORE.SYSTEM.SOLV>
0

>  <SCORE.SYSTEM.norm>
0

>  <SCORE.heavy>
10

>  <SCORE.norm>
-1.43814

>  <RMSD>
0.404

$$$$
ligand
 OpenBabel11021811513D
libRbt.so/2013.1/901 2013/11/27
 10 11  0  0  0  0  0  0  0  0999 V2000
  -30.1878   17.0261  -14.9223 N   0  0  0  0  0  0  0  0  0  0  0  0
  -31.0291   18.0563  -14.7623 C   0  0  0  0  0  0  0  0  0  0  0  0
  -31.4716   18.9267  -15.6691 N   0  0  0  0  0  0  0  0  0  0  0  0
  -30.9526   18.6601  -16.8784 C   0  0  0  0  0  0  0  0  0  0  0  0
  -30.0750   17.6407  -17.1982 C   0  0  0  0  0  0  0  0  0  0  0  0
  -29.6831   16.7839  -16.1498 C   0  0  0  0  0  0  0  0  0  0  0  0
  -28.8422   15.7577  -16.3138 N   0  0  0  0  0  0  0  0  0  0  0  0
  -29.7564   17.6735  -18.5450 N   0  0  0  0  0  0  0  0  0  0  0  0
  -30.4351   18.6987  -19.0042 C   0  0  0  0  0  0  0  0  0  0  0  0
  -31.1784   19.3396  -18.0519 N   0  0  0  0  0  0  0  0  0  0  0  0
  1  2  2  0  0  0  0
  1  6  1  0  0  0  0
  2  3  1  0  0  0  0
  3  4  2  0  0  0  0
  4  5  1  0  0  0  0
  4 10  1  0  0  0  0
  5  6  2  0  0  0  0
  5  8  1  0  0  0  0
  6  7  1  0  0  0  0
  8  9  1  0  0  0  0
  9 10  2  0  0  0  0
M  END
>  <CHROM.1>
-30.35546817,17.84776934,-16.74573734,1.24741632,-0.88461842,1.89118276

>  <Name>
ligand

>  <RI>
0

>  <Rbt.Current_Directory>
/home/itssahil/PROJECTS/Mol_Feturizer/New_Systems/rnas/4TZX

>  <Rbt.Executable>
rbdock ($Id: //depot/dev/client3/rdock/2013.1/src/exe/rbdock.cxx#4 $)

>  <Rbt.Library>
libRbt.so (2013.1, Build901 2013/11/27)

>  <Rbt.Parameter_File>
/export/apps/rDock/src/rDock_2013.1_src/data/scripts/dock_solv.prm

>  <Rbt.Receptor>
prm/pocket_docking_3.prm

>  <SCORE>
-14.3814

>  <SCORE.INTER>
-14.3814

>  <SCORE.INTER.CONST>
1

>  <SCORE.INTER.POLAR>
0

>  <SCORE.INTER.ROT>
0

>  <SCORE.INTER.SOLV>
7.9116

>  <SCORE.INTER.VDW>
-15.8248

>  <SCORE.INTER.norm>
-1.43814

>  <SCORE.INTRA>
0

>  <SCORE.INTRA.DIHEDRAL>
0

>  <SCORE.INTRA.DIHEDRAL.0>
0

>  <SCORE.INTRA.POLAR>
0

>  <SCORE.INTRA.POLAR.0>
0

>  <SCORE.INTRA.REPUL>
0

>  <SCORE.INTRA.REPUL.0>
0

>  <SCORE.INTRA.SOLV>
0

>  <SCORE.INTRA.SOLV.lig_0>
-23.8949

>  <SCORE.INTRA.VDW>
0

>  <SCORE.INTRA.VDW.0>
0

>  <SCORE.INTRA.norm>
0

>  <SCORE.RESTR>
0

>  <SCORE.RESTR.CAVITY>
0

>  <SCORE.RESTR.norm>
0

>  <SCORE.SYSTEM>
0

>  <SCORE.SYSTEM.CONST>
0

>  <SCORE.SYSTEM.DIHEDRAL>
0

>  <SCORE.SYSTEM.SOLV>
0

>  <SCORE.SYSTEM.norm>
0

>  <SCORE.heavy>
10

>  <SCORE.norm>
-1.43814

>  <RMSD>
0.404

$$$$
ligand
 OpenBabel11021811513D
libRbt.so/2013.1/901 2013/11/27
 10 11  0  0  0  0  0  0  0  0999 V2000
  -30.1833   17.0308  -14.9180 N   0  0  0  0  0  0  0  0  0  0  0  0
  -31.0275   18.0591  -14.7605 C   0  0  0  0  0  0  0  0  0  0  0  0
  -31.4720   18.9262  -15.6693 N   0  0  0  0  0  0  0  0  0  0  0  0
  -30.9520   18.6584  -16.8779 C   0  0  0  0  0  0  0  0  0  0  0  0
  -30.0716   17.6407  -17.1952 C   0  0  0  0  0  0  0  0  0  0  0  0
  -29.6776   16.7873  -16.1448 C   0  0  0  0  0  0  0  0  0  0  0  0
  -28.8339   15.7630  -16.3063 N   0  0  0  0  0  0  0  0  0  0  0  0
  -29.7527   17.6713  -18.5421 N   0  0  0  0  0  0  0  0  0  0  0  0
  -30.4341   18.6936  -19.0037 C   0  0  0  0  0  0  0  0  0  0  0  0
  -31.1793   19.3346  -18.0530 N   0  0  0  0  0  0  0  0  0  0  0  0
  1  2  2  0  0  0  0
  1  6  1  0  0  0  0
  2  3  1  0  0  0  0
  3  4  2  0  0  0  0
  4  5  1  0  0  0  0
  4 10  1  0  0  0  0
  5  6  2  0  0  0  0
  5  8  1  0  0  0  0
  6  7  1  0  0  0  0
  8  9  1  0  0  0  0
  9 10  2  0  0  0  0
M  END
>  <CHROM.1>
-30.35269656,17.84795998,-16.74329811,1.24646057,-0.88194733,1.88821836

>  <Name>
ligand

>  <RI>
0

>  <Rbt.Current_Directory>
/home/itssahil/PROJECTS/Mol_Feturizer/New_Systems/rnas/4TZX

>  <Rbt.Executable>
rbdock ($Id: //depot/dev/client3/rdock/2013.1/src/exe/rbdock.cxx#4 $)

>  <Rbt.Library>
libRbt.so (2013.1, Build901 2013/11/27)

>  <Rbt.Parameter_File>
/export/apps/rDock/src/rDock_2013.1_src/data/scripts/dock_solv.prm

>  <Rbt.Receptor>
prm/pocket_docking_5.prm

>  <SCORE>
-14.3818

>  <SCORE.INTER>
-14.3818

>  <SCORE.INTER.CONST>
1

>  <SCORE.INTER.POLAR>
0

>  <SCORE.INTER.ROT>
0

>  <SCORE.INTER.SOLV>
7.87258

>  <SCORE.INTER.VDW>
-15.8121

>  <SCORE.INTER.norm>
-1.43818

>  <SCORE.INTRA>
0

>  <SCORE.INTRA.DIHEDRAL>
0

>  <SCORE.INTRA.DIHEDRAL.0>
0

>  <SCORE.INTRA.POLAR>
0

>  <SCORE.INTRA.POLAR.0>
0

>  <SCORE.INTRA.REPUL>
0

>  <SCORE.INTRA.REPUL.0>
0

>  <SCORE.INTRA.SOLV>
0

>  <SCORE.INTRA.SOLV.lig_0>
-23.8949

>  <SCORE.INTRA.VDW>
0

>  <SCORE.INTRA.VDW.0>
0

>  <SCORE.INTRA.norm>
0

>  <SCORE.RESTR>
0

>  <SCORE.RESTR.CAVITY>
0

>  <SCORE.RESTR.norm>
0

>  <SCORE.SYSTEM>
0

>  <SCORE.SYSTEM.CONST>
0

>  <SCORE.SYSTEM.DIHEDRAL>
0

>  <SCORE.SYSTEM.SOLV>
0

>  <SCORE.SYSTEM.norm>
0

>  <SCORE.heavy>
10

>  <SCORE.norm>
-1.43818

>  <RMSD>
0.404

$$$$
ligand
 OpenBabel11021811513D
libRbt.so/2013.1/901 2013/11/27
 10 11  0  0  0  0  0  0  0  0999 V2000
  -30.2100   17.0033  -14.9422 N   0  0  0  0  0  0  0  0  0  0  0  0
  -31.0400   18.0425  -14.7813 C   0  0  0  0  0  0  0  0  0  0  0  0
  -31.4681   18.9221  -15.6861 N   0  0  0  0  0  0  0  0  0  0  0  0
  -30.9466   18.6549  -16.8942 C   0  0  0  0  0  0  0  0  0  0  0  0
  -30.0796   17.6268  -17.2146 C   0  0  0  0  0  0  0  0  0  0  0  0
  -29.7025   16.7608  -16.1684 C   0  0  0  0  0  0  0  0  0  0  0  0
  -28.8728   15.7256  -16.3332 N   0  0  0  0  0  0  0  0  0  0  0  0
  -29.7543   17.6620  -18.5599 N   0  0  0  0  0  0  0  0  0  0  0  0
  -30.4190   18.6971  -19.0175 C   0  0  0  0  0  0  0  0  0  0  0  0
  -31.1591   19.3423  -18.0657 N   0  0  0  0  0  0  0  0  0  0  0  0
  1  2  2  0  0  0  0
  1  6  1  0  0  0  0
  2  3  1  0  0  0  0
  3  4  2  0  0  0  0
  4  5  1  0  0  0  0
  4 10  1  0  0  0  0
  5  6  2  0  0  0  0
  5  8  1  0  0  0  0
  6  7  1  0  0  0  0
  8  9  1  0  0  0  0
  9 10  2  0  0  0  0
M  END
>  <CHROM.1>
-30.35965101,17.83509315,-16.76254703,1.26029313,-0.89415337,1.90572715

>  <Name>
ligand

>  <RI>
0

>  <Rbt.Current_Directory>
/home/itssahil/PROJECTS/Mol_Feturizer/New_Systems/rnas/4TZX

>  <Rbt.Executable>
rbdock ($Id: //depot/dev/client3/rdock/2013.1/src/exe/rbdock.cxx#4 $)

>  <Rbt.Library>
libRbt.so (2013.1, Build901 2013/11/27)

>  <Rbt.Parameter_File>
/export/apps/rDock/src/rDock_2013.1_src/data/scripts/dock_solv.prm

>  <Rbt.Receptor>
prm/pocket_docking_6.prm

>  <SCORE>
-14.3435

>  <SCORE.INTER>
-14.3435

>  <SCORE.INTER.CONST>
1

>  <SCORE.INTER.POLAR>
0

>  <SCORE.INTER.ROT>
0

>  <SCORE.INTER.SOLV>
8.08179

>  <SCORE.INTER.VDW>
-15.8563

>  <SCORE.INTER.norm>
-1.43435

>  <SCORE.INTRA>
0

>  <SCORE.INTRA.DIHEDRAL>
0

>  <SCORE.INTRA.DIHEDRAL.0>
0

>  <SCORE.INTRA.POLAR>
0

>  <SCORE.INTRA.POLAR.0>
0

>  <SCORE.INTRA.REPUL>
0

>  <SCORE.INTRA.REPUL.0>
0

>  <SCORE.INTRA.SOLV>
0

>  <SCORE.INTRA.SOLV.lig_0>
-23.8949

>  <SCORE.INTRA.VDW>
0

>  <SCORE.INTRA.VDW.0>
0

>  <SCORE.INTRA.norm>
0

>  <SCORE.RESTR>
0

>  <SCORE.RESTR.CAVITY>
0

>  <SCORE.RESTR.norm>
0

>  <SCORE.SYSTEM>
0

>  <SCORE.SYSTEM.CONST>
0

>  <SCORE.SYSTEM.DIHEDRAL>
0

>  <SCORE.SYSTEM.SOLV>
0

>  <SCORE.SYSTEM.norm>
0

>  <SCORE.heavy>
10

>  <SCORE.norm>
-1.43435

>  <RMSD>
0.404

$$$$
ligand
 OpenBabel11021811513D
libRbt.so/2013.1/901 2013/11/27
 10 11  0  0  0  0  0  0  0  0999 V2000
  -30.2282   16.9895  -14.9530 N   0  0  0  0  0  0  0  0  0  0  0  0
  -31.0378   18.0444  -14.7898 C   0  0  0  0  0  0  0  0  0  0  0  0
  -31.4469   18.9354  -15.6921 N   0  0  0  0  0  0  0  0  0  0  0  0
  -30.9288   18.6624  -16.9003 C   0  0  0  0  0  0  0  0  0  0  0  0
  -30.0816   17.6185  -17.2230 C   0  0  0  0  0  0  0  0  0  0  0  0
  -29.7235   16.7414  -16.1793 C   0  0  0  0  0  0  0  0  0  0  0  0
  -28.9141   15.6907  -16.3465 N   0  0  0  0  0  0  0  0  0  0  0  0
  -29.7534   17.6520  -18.5676 N   0  0  0  0  0  0  0  0  0  0  0  0
  -30.3968   18.7016  -19.0226 C   0  0  0  0  0  0  0  0  0  0  0  0
  -31.1256   19.3579  -18.0696 N   0  0  0  0  0  0  0  0  0  0  0  0
  1  2  2  0  0  0  0
  1  6  1  0  0  0  0
  2  3  1  0  0  0  0
  3  4  2  0  0  0  0
  4  5  1  0  0  0  0
  4 10  1  0  0  0  0
  5  6  2  0  0  0  0
  5  8  1  0  0  0  0
  6  7  1  0  0  0  0
  8  9  1  0  0  0  0
  9 10  2  0  0  0  0
M  END
>  <CHROM.1>
-30.35829007,17.83060673,-16.77066477,1.27349704,-0.91220659,1.91967741

>  <Name>
ligand

>  <RI>
0

>  <Rbt.Current_Directory>
/home/itssahil/PROJECTS/Mol_Feturizer/New_Systems/rnas/4TZX

>  <Rbt.Executable>
rbdock ($Id: //depot/dev/client3/rdock/2013.1/src/exe/rbdock.cxx#4 $)

>  <Rbt.Library>
libRbt.so (2013.1, Build901 2013/11/27)

>  <Rbt.Parameter_File>
/export/apps/rDock/src/rDock_2013.1_src/data/scripts/dock_solv.prm

>  <Rbt.Receptor>
prm/pocket_docking_7.prm

>  <SCORE>
-14.3765

>  <SCORE.INTER>
-14.3765

>  <SCORE.INTER.CONST>
1

>  <SCORE.INTER.POLAR>
0

>  <SCORE.INTER.ROT>
0

>  <SCORE.INTER.SOLV>
8.2734

>  <SCORE.INTER.VDW>
-15.9421

>  <SCORE.INTER.norm>
-1.43765

>  <SCORE.INTRA>
0

>  <SCORE.INTRA.DIHEDRAL>
0

>  <SCORE.INTRA.DIHEDRAL.0>
0

>  <SCORE.INTRA.POLAR>
0

>  <SCORE.INTRA.POLAR.0>
0

>  <SCORE.INTRA.REPUL>
0

>  <SCORE.INTRA.REPUL.0>
0

>  <SCORE.INTRA.SOLV>
0

>  <SCORE.INTRA.SOLV.lig_0>
-23.8949

>  <SCORE.INTRA.VDW>
0

>  <SCORE.INTRA.VDW.0>
0

>  <SCORE.INTRA.norm>
0

>  <SCORE.RESTR>
0

>  <SCORE.RESTR.CAVITY>
0

>  <SCORE.RESTR.norm>
0

>  <SCORE.SYSTEM>
0

>  <SCORE.SYSTEM.CONST>
0

>  <SCORE.SYSTEM.DIHEDRAL>
0

>  <SCORE.SYSTEM.SOLV>
0

>  <SCORE.SYSTEM.norm>
0

>  <SCORE.heavy>
10

>  <SCORE.norm>
-1.43765

>  <RMSD>
0.404

$$$$
ligand
 OpenBabel11021811513D
libRbt.so/2013.1/901 2013/11/27
 10 11  0  0  0  0  0  0  0  0999 V2000
  -30.1700   17.0221  -14.9206 N   0  0  0  0  0  0  0  0  0  0  0  0
  -31.0104   18.0528  -14.7588 C   0  0  0  0  0  0  0  0  0  0  0  0
  -31.4549   18.9229  -15.6647 N   0  0  0  0  0  0  0  0  0  0  0  0
  -30.9394   18.6555  -16.8753 C   0  0  0  0  0  0  0  0  0  0  0  0
  -30.0632   17.6356  -17.1970 C   0  0  0  0  0  0  0  0  0  0  0  0
  -29.6688   16.7791  -16.1494 C   0  0  0  0  0  0  0  0  0  0  0  0
  -28.8288   15.7524  -16.3152 N   0  0  0  0  0  0  0  0  0  0  0  0
  -29.7482   17.6675  -18.5448 N   0  0  0  0  0  0  0  0  0  0  0  0
  -30.4278   18.6928  -19.0026 C   0  0  0  0  0  0  0  0  0  0  0  0
  -31.1681   19.3345  -18.0486 N   0  0  0  0  0  0  0  0  0  0  0  0
  1  2  2  0  0  0  0
  1  6  1  0  0  0  0
  2  3  1  0  0  0  0
  3  4  2  0  0  0  0
  4  5  1  0  0  0  0
  4 10  1  0  0  0  0
  5  6  2  0  0  0  0
  5  8  1  0  0  0  0
  6  7  1  0  0  0  0
  8  9  1  0  0  0  0
  9 10  2  0  0  0  0
M  END
>  <CHROM.1>
-30.34227643,17.84295731,-16.74394113,1.24349943,-0.88590446,1.88766793

>  <Name>
ligand

>  <RI>
0

>  <Rbt.Current_Directory>
/home/itssahil/PROJECTS/Mol_Feturizer/New_Systems/rnas/4TZX

>  <Rbt.Executable>
rbdock ($Id: //depot/dev/client3/rdock/2013.1/src/exe/rbdock.cxx#4 $)

>  <Rbt.Library>
libRbt.so (2013.1, Build901 2013/11/27)

>  <Rbt.Parameter_File>
/export/apps/rDock/src/rDock_2013.1_src/data/scripts/dock_solv.prm

>  <Rbt.Receptor>
prm/pocket_docking_7.prm

>  <SCORE>
-14.3851

>  <SCORE.INTER>
-14.3851

>  <SCORE.INTER.CONST>
1

>  <SCORE.INTER.POLAR>
0

>  <SCORE.INTER.ROT>
0

>  <SCORE.INTER.SOLV>
7.88551

>  <SCORE.INTER.VDW>
-15.8186

>  <SCORE.INTER.norm>
-1.43851

>  <SCORE.INTRA>
0

>  <SCORE.INTRA.DIHEDRAL>
0

>  <SCORE.INTRA.DIHEDRAL.0>
0

>  <SCORE.INTRA.POLAR>
0

>  <SCORE.INTRA.POLAR.0>
0

>  <SCORE.INTRA.REPUL>
0

>  <SCORE.INTRA.REPUL.0>
0

>  <SCORE.INTRA.SOLV>
0

>  <SCORE.INTRA.SOLV.lig_0>
-23.8949

>  <SCORE.INTRA.VDW>
0

>  <SCORE.INTRA.VDW.0>
0

>  <SCORE.INTRA.norm>
0

>  <SCORE.RESTR>
0

>  <SCORE.RESTR.CAVITY>
0

>  <SCORE.RESTR.norm>
0

>  <SCORE.SYSTEM>
0

>  <SCORE.SYSTEM.CONST>
0

>  <SCORE.SYSTEM.DIHEDRAL>
0

>  <SCORE.SYSTEM.SOLV>
0

>  <SCORE.SYSTEM.norm>
0

>  <SCORE.heavy>
10

>  <SCORE.norm>
-1.43851

>  <RMSD>
0.404

$$$$
ligand
 OpenBabel11021811513D
libRbt.so/2013.1/901 2013/11/27
 10 11  0  0  0  0  0  0  0  0999 V2000
  -30.2200   17.0262  -14.9346 N   0  0  0  0  0  0  0  0  0  0  0  0
  -31.0617   18.0589  -14.7940 C   0  0  0  0  0  0  0  0  0  0  0  0
  -31.4902   18.9230  -15.7133 N   0  0  0  0  0  0  0  0  0  0  0  0
  -30.9551   18.6464  -16.9133 C   0  0  0  0  0  0  0  0  0  0  0  0
  -30.0749   17.6232  -17.2133 C   0  0  0  0  0  0  0  0  0  0  0  0
  -29.6989   16.7739  -16.1531 C   0  0  0  0  0  0  0  0  0  0  0  0
  -28.8574   15.7452  -16.2977 N   0  0  0  0  0  0  0  0  0  0  0  0
  -29.7377   17.6453  -18.5558 N   0  0  0  0  0  0  0  0  0  0  0  0
  -30.4084   18.6680  -19.0321 C   0  0  0  0  0  0  0  0  0  0  0  0
  -31.1636   19.3172  -18.0950 N   0  0  0  0  0  0  0  0  0  0  0  0
  1  2  2  0  0  0  0
  1  6  1  0  0  0  0
  2  3  1  0  0  0  0
  3  4  2  0  0  0  0
  4  5  1  0  0  0  0
  4 10  1  0  0  0  0
  5  6  2  0  0  0  0
  5  8  1  0  0  0  0
  6  7  1  0  0  0  0
  8  9  1  0  0  0  0
  9 10  2  0  0  0  0
M  END
>  <CHROM.1>
-30.36120956,17.83417338,-16.76631652,1.26874631,-0.88171885,1.90005473

>  <Name>
ligand

>  <RI>
0

>  <Rbt.Current_Directory>
/home/itssahil/PROJECTS/Mol_Feturizer/New_Systems/rnas/4TZX

>  <Rbt.Executable>
rbdock ($Id: //depot/dev/client3/rdock/2013.1/src/exe/rbdock.cxx#4 $)

>  <Rbt.Library>
libRbt.so (2013.1, Build901 2013/11/27)

>  <Rbt.Parameter_File>
/export/apps/rDock/src/rDock_2013.1_src/data/scripts/dock_solv.prm

>  <Rbt.Receptor>
prm/pocket_docking_8.prm

>  <SCORE>
-14.3741

>  <SCORE.INTER>
-14.3741

>  <SCORE.INTER.CONST>
1

>  <SCORE.INTER.POLAR>
0

>  <SCORE.INTER.ROT>
0

>  <SCORE.INTER.SOLV>
7.95823

>  <SCORE.INTER.VDW>
-15.8355

>  <SCORE.INTER.norm>
-1.43741

>  <SCORE.INTRA>
0

>  <SCORE.INTRA.DIHEDRAL>
0

>  <SCORE.INTRA.DIHEDRAL.0>
0

>  <SCORE.INTRA.POLAR>
0

>  <SCORE.INTRA.POLAR.0>
0

>  <SCORE.INTRA.REPUL>
0

>  <SCORE.INTRA.REPUL.0>
0

>  <SCORE.INTRA.SOLV>
0

>  <SCORE.INTRA.SOLV.lig_0>
-23.8949

>  <SCORE.INTRA.VDW>
0

>  <SCORE.INTRA.VDW.0>
0

>  <SCORE.INTRA.norm>
0

>  <SCORE.RESTR>
0

>  <SCORE.RESTR.CAVITY>
0

>  <SCORE.RESTR.norm>
0

>  <SCORE.SYSTEM>
0

>  <SCORE.SYSTEM.CONST>
0

>  <SCORE.SYSTEM.DIHEDRAL>
0

>  <SCORE.SYSTEM.SOLV>
0

>  <SCORE.SYSTEM.norm>
0

>  <SCORE.heavy>
10

>  <SCORE.norm>
-1.43741

>  <RMSD>
0.404

$$$$
ligand
 OpenBabel11021811513D
libRbt.so/2013.1/901 2013/11/27
 10 11  0  0  0  0  0  0  0  0999 V2000
  -30.1817   17.0331  -14.9174 N   0  0  0  0  0  0  0  0  0  0  0  0
  -31.0268   18.0616  -14.7662 C   0  0  0  0  0  0  0  0  0  0  0  0
  -31.4684   18.9258  -15.6793 N   0  0  0  0  0  0  0  0  0  0  0  0
  -30.9438   18.6543  -16.8852 C   0  0  0  0  0  0  0  0  0  0  0  0
  -30.0619   17.6359  -17.1961 C   0  0  0  0  0  0  0  0  0  0  0  0
  -29.6715   16.7860  -16.1416 C   0  0  0  0  0  0  0  0  0  0  0  0
  -28.8268   15.7615  -16.2968 N   0  0  0  0  0  0  0  0  0  0  0  0
  -29.7381   17.6625  -18.5419 N   0  0  0  0  0  0  0  0  0  0  0  0
  -30.4182   18.6831  -19.0092 C   0  0  0  0  0  0  0  0  0  0  0  0
  -31.1671   19.3268  -18.0632 N   0  0  0  0  0  0  0  0  0  0  0  0
  1  2  2  0  0  0  0
  1  6  1  0  0  0  0
  2  3  1  0  0  0  0
  3  4  2  0  0  0  0
  4  5  1  0  0  0  0
  4 10  1  0  0  0  0
  5  6  2  0  0  0  0
  5  8  1  0  0  0  0
  6  7  1  0  0  0  0
  8  9  1  0  0  0  0
  9 10  2  0  0  0  0
M  END
>  <CHROM.1>
-30.34476415,17.84453935,-16.74585243,1.25173929,-0.88045984,1.88916552

>  <Name>
ligand

>  <RI>
0

>  <Rbt.Current_Directory>
/home/itssahil/PROJECTS/Mol_Feturizer/New_Systems/rnas/4TZX

>  <Rbt.Executable>
rbdock ($Id: //depot/dev/client3/rdock/2013.1/src/exe/rbdock.cxx#4 $)

>  <Rbt.Library>
libRbt.so (2013.1, Build901 2013/11/27)

>  <Rbt.Parameter_File>
/export/apps/rDock/src/rDock_2013.1_src/data/scripts/dock_solv.prm

>  <Rbt.Receptor>
prm/pocket_docking_8.prm

>  <SCORE>
-14.3827

>  <SCORE.INTER>
-14.3827

>  <SCORE.INTER.CONST>
1

>  <SCORE.INTER.POLAR>
0

>  <SCORE.INTER.ROT>
0

>  <SCORE.INTER.SOLV>
7.85362

>  <SCORE.INTER.VDW>
-15.8063

>  <SCORE.INTER.norm>
-1.43827

>  <SCORE.INTRA>
0

>  <SCORE.INTRA.DIHEDRAL>
0

>  <SCORE.INTRA.DIHEDRAL.0>
0

>  <SCORE.INTRA.POLAR>
0

>  <SCORE.INTRA.POLAR.0>
0

>  <SCORE.INTRA.REPUL>
0

>  <SCORE.INTRA.REPUL.0>
0

>  <SCORE.INTRA.SOLV>
0

>  <SCORE.INTRA.SOLV.lig_0>
-23.8949

>  <SCORE.INTRA.VDW>
0

>  <SCORE.INTRA.VDW.0>
0

>  <SCORE.INTRA.norm>
0

>  <SCORE.RESTR>
0

>  <SCORE.RESTR.CAVITY>
0

>  <SCORE.RESTR.norm>
0

>  <SCORE.SYSTEM>
0

>  <SCORE.SYSTEM.CONST>
0

>  <SCORE.SYSTEM.DIHEDRAL>
0

>  <SCORE.SYSTEM.SOLV>
0

>  <SCORE.SYSTEM.norm>
0

>  <SCORE.heavy>
10

>  <SCORE.norm>
-1.43827

>  <RMSD>
0.404

$$$$
ligand
 OpenBabel11021811513D
libRbt.so/2013.1/901 2013/11/27
 10 11  0  0  0  0  0  0  0  0999 V2000
  -30.1961   17.0012  -14.9452 N   0  0  0  0  0  0  0  0  0  0  0  0
  -31.0235   18.0433  -14.7891 C   0  0  0  0  0  0  0  0  0  0  0  0
  -31.4497   18.9194  -15.6980 N   0  0  0  0  0  0  0  0  0  0  0  0
  -30.9294   18.6451  -16.9051 C   0  0  0  0  0  0  0  0  0  0  0  0
  -30.0650   17.6133  -17.2208 C   0  0  0  0  0  0  0  0  0  0  0  0
  -29.6896   16.7515  -16.1705 C   0  0  0  0  0  0  0  0  0  0  0  0
  -28.8625   15.7135  -16.3305 N   0  0  0  0  0  0  0  0  0  0  0  0
  -29.7402   17.6411  -18.5663 N   0  0  0  0  0  0  0  0  0  0  0  0
  -30.4025   18.6755  -19.0287 C   0  0  0  0  0  0  0  0  0  0  0  0
  -31.1406   19.3272  -18.0798 N   0  0  0  0  0  0  0  0  0  0  0  0
  1  2  2  0  0  0  0
  1  6  1  0  0  0  0
  2  3  1  0  0  0  0
  3  4  2  0  0  0  0
  4  5  1  0  0  0  0
  4 10  1  0  0  0  0
  5  6  2  0  0  0  0
  5  8  1  0  0  0  0
  6  7  1  0  0  0  0
  8  9  1  0  0  0  0
  9 10  2  0  0  0  0
M  END
>  <CHROM.1>
-30.34437146,17.82447771,-16.76959402,1.26098655,-0.89659604,1.90136959

>  <Name>
ligand

>  <RI>
0

>  <Rbt.Current_Directory>
/home/itssahil/PROJECTS/Mol_Feturizer/New_Systems/rnas/4TZX

>  <Rbt.Executable>
rbdock ($Id: //depot/dev/client3/rdock/2013.1/src/exe/rbdock.cxx#4 $)

>  <Rbt.Library>
libRbt.so (2013.1, Build901 2013/11/27)

>  <Rbt.Parameter_File>
/export/apps/rDock/src/rDock_2013.1_src/data/scripts/dock_solv.prm

>  <Rbt.Receptor>
prm/pocket_docking_3.prm

>  <SCORE>
-14.3749

>  <SCORE.INTER>
-14.3749

>  <SCORE.INTER.CONST>
1

>  <SCORE.INTER.POLAR>
0

>  <SCORE.INTER.ROT>
0

>  <SCORE.INTER.SOLV>
8.07403

>  <SCORE.INTER.VDW>
-15.8746

>  <SCORE.INTER.norm>
-1.43749

>  <SCORE.INTRA>
0

>  <SCORE.INTRA.DIHEDRAL>
0

>  <SCORE.INTRA.DIHEDRAL.0>
0

>  <SCORE.INTRA.POLAR>
0

>  <SCORE.INTRA.POLAR.0>
0

>  <SCORE.INTRA.REPUL>
0

>  <SCORE.INTRA.REPUL.0>
0

>  <SCORE.INTRA.SOLV>
0

>  <SCORE.INTRA.SOLV.lig_0>
-23.8949

>  <SCORE.INTRA.VDW>
0

>  <SCORE.INTRA.VDW.0>
0

>  <SCORE.INTRA.norm>
0

>  <SCORE.RESTR>
0

>  <SCORE.RESTR.CAVITY>
0

>  <SCORE.RESTR.norm>
0

>  <SCORE.SYSTEM>
0

>  <SCORE.SYSTEM.CONST>
0

>  <SCORE.SYSTEM.DIHEDRAL>
0

>  <SCORE.SYSTEM.SOLV>
0

>  <SCORE.SYSTEM.norm>
0

>  <SCORE.heavy>
10

>  <SCORE.norm>
-1.43749

>  <RMSD>
0.405

$$$$
ligand
 OpenBabel11021811513D
libRbt.so/2013.1/901 2013/11/27
 10 11  0  0  0  0  0  0  0  0999 V2000
  -30.2285   16.9862  -14.9571 N   0  0  0  0  0  0  0  0  0  0  0  0
  -31.0388   18.0406  -14.7946 C   0  0  0  0  0  0  0  0  0  0  0  0
  -31.4471   18.9318  -15.6972 N   0  0  0  0  0  0  0  0  0  0  0  0
  -30.9274   18.6593  -16.9048 C   0  0  0  0  0  0  0  0  0  0  0  0
  -30.0793   17.6159  -17.2268 C   0  0  0  0  0  0  0  0  0  0  0  0
  -29.7221   16.7387  -16.1829 C   0  0  0  0  0  0  0  0  0  0  0  0
  -28.9121   15.6884  -16.3494 N   0  0  0  0  0  0  0  0  0  0  0  0
  -29.7495   17.6499  -18.5709 N   0  0  0  0  0  0  0  0  0  0  0  0
  -30.3927   18.6994  -19.0264 C   0  0  0  0  0  0  0  0  0  0  0  0
  -31.1231   19.3551  -18.0742 N   0  0  0  0  0  0  0  0  0  0  0  0
  1  2  2  0  0  0  0
  1  6  1  0  0  0  0
  2  3  1  0  0  0  0
  3  4  2  0  0  0  0
  4  5  1  0  0  0  0
  4 10  1  0  0  0  0
  5  6  2  0  0  0  0
  5  8  1  0  0  0  0
  6  7  1  0  0  0  0
  8  9  1  0  0  0  0
  9 10  2  0  0  0  0
M  END
>  <CHROM.1>
-30.35668923,17.82778080,-16.77469026,1.27516128,-0.91133816,1.92128601

>  <Name>
ligand

>  <RI>
0

>  <Rbt.Current_Directory>
/home/itssahil/PROJECTS/Mol_Feturizer/New_Systems/rnas/4TZX

>  <Rbt.Executable>
rbdock ($Id: //depot/dev/client3/rdock/2013.1/src/exe/rbdock.cxx#4 $)

>  <Rbt.Library>
libRbt.so (2013.1, Build901 2013/11/27)

>  <Rbt.Parameter_File>
/export/apps/rDock/src/rDock_2013.1_src/data/scripts/dock_solv.prm

>  <Rbt.Receptor>
prm/pocket_docking_5.prm

>  <SCORE>
-14.3776

>  <SCORE.INTER>
-14.3776

>  <SCORE.INTER.CONST>
1

>  <SCORE.INTER.POLAR>
0

>  <SCORE.INTER.ROT>
0

>  <SCORE.INTER.SOLV>
8.27677

>  <SCORE.INTER.VDW>
-15.944

>  <SCORE.INTER.norm>
-1.43776

>  <SCORE.INTRA>
0

>  <SCORE.INTRA.DIHEDRAL>
0

>  <SCORE.INTRA.DIHEDRAL.0>
0

>  <SCORE.INTRA.POLAR>
0

>  <SCORE.INTRA.POLAR.0>
0

>  <SCORE.INTRA.REPUL>
0

>  <SCORE.INTRA.REPUL.0>
0

>  <SCORE.INTRA.SOLV>
0

>  <SCORE.INTRA.SOLV.lig_0>
-23.8949

>  <SCORE.INTRA.VDW>
0

>  <SCORE.INTRA.VDW.0>
0

>  <SCORE.INTRA.norm>
0

>  <SCORE.RESTR>
8.0152e-07

>  <SCORE.RESTR.CAVITY>
8.0152e-07

>  <SCORE.RESTR.norm>
8.0152e-08

>  <SCORE.SYSTEM>
0

>  <SCORE.SYSTEM.CONST>
0

>  <SCORE.SYSTEM.DIHEDRAL>
0

>  <SCORE.SYSTEM.SOLV>
0

>  <SCORE.SYSTEM.norm>
0

>  <SCORE.heavy>
10

>  <SCORE.norm>
-1.43776

>  <RMSD>
0.405

$$$$
ligand
 OpenBabel11021811513D
libRbt.so/2013.1/901 2013/11/27
 10 11  0  0  0  0  0  0  0  0999 V2000
  -30.1826   17.0274  -14.9224 N   0  0  0  0  0  0  0  0  0  0  0  0
  -31.0246   18.0574  -14.7646 C   0  0  0  0  0  0  0  0  0  0  0  0
  -31.4670   18.9260  -15.6732 N   0  0  0  0  0  0  0  0  0  0  0  0
  -30.9472   18.6576  -16.8817 C   0  0  0  0  0  0  0  0  0  0  0  0
  -30.0689   17.6381  -17.1992 C   0  0  0  0  0  0  0  0  0  0  0  0
  -29.6771   16.7834  -16.1491 C   0  0  0  0  0  0  0  0  0  0  0  0
  -28.8355   15.7573  -16.3108 N   0  0  0  0  0  0  0  0  0  0  0  0
  -29.7495   17.6687  -18.5460 N   0  0  0  0  0  0  0  0  0  0  0  0
  -30.4286   18.6927  -19.0073 C   0  0  0  0  0  0  0  0  0  0  0  0
  -31.1727   19.3348  -18.0566 N   0  0  0  0  0  0  0  0  0  0  0  0
  1  2  2  0  0  0  0
  1  6  1  0  0  0  0
  2  3  1  0  0  0  0
  3  4  2  0  0  0  0
  4  5  1  0  0  0  0
  4 10  1  0  0  0  0
  5  6  2  0  0  0  0
  5  8  1  0  0  0  0
  6  7  1  0  0  0  0
  8  9  1  0  0  0  0
  9 10  2  0  0  0  0
M  END
>  <CHROM.1>
-30.34969250,17.84577641,-16.74730789,1.24799296,-0.88390258,1.88987942

>  <Name>
ligand

>  <RI>
0

>  <Rbt.Current_Directory>
/home/itssahil/PROJECTS/Mol_Feturizer/New_Systems/rnas/4TZX

>  <Rbt.Executable>
rbdock ($Id: //depot/dev/client3/rdock/2013.1/src/exe/rbdock.cxx#4 $)

>  <Rbt.Library>
libRbt.so (2013.1, Build901 2013/11/27)

>  <Rbt.Parameter_File>
/export/apps/rDock/src/rDock_2013.1_src/data/scripts/dock_solv.prm

>  <Rbt.Receptor>
prm/pocket_docking_5.prm

>  <SCORE>
-14.3851

>  <SCORE.INTER>
-14.3851

>  <SCORE.INTER.CONST>
1

>  <SCORE.INTER.POLAR>
0

>  <SCORE.INTER.ROT>
0

>  <SCORE.INTER.SOLV>
7.89129

>  <SCORE.INTER.VDW>
-15.8205

>  <SCORE.INTER.norm>
-1.43851

>  <SCORE.INTRA>
0

>  <SCORE.INTRA.DIHEDRAL>
0

>  <SCORE.INTRA.DIHEDRAL.0>
0

>  <SCORE.INTRA.POLAR>
0

>  <SCORE.INTRA.POLAR.0>
0

>  <SCORE.INTRA.REPUL>
0

>  <SCORE.INTRA.REPUL.0>
0

>  <SCORE.INTRA.SOLV>
0

>  <SCORE.INTRA.SOLV.lig_0>
-23.8949

>  <SCORE.INTRA.VDW>
0

>  <SCORE.INTRA.VDW.0>
0

>  <SCORE.INTRA.norm>
0

>  <SCORE.RESTR>
0

>  <SCORE.RESTR.CAVITY>
0

>  <SCORE.RESTR.norm>
0

>  <SCORE.SYSTEM>
0

>  <SCORE.SYSTEM.CONST>
0

>  <SCORE.SYSTEM.DIHEDRAL>
0

>  <SCORE.SYSTEM.SOLV>
0

>  <SCORE.SYSTEM.norm>
0

>  <SCORE.heavy>
10

>  <SCORE.norm>
-1.43851

>  <RMSD>
0.405

$$$$
ligand
 OpenBabel11021811513D
libRbt.so/2013.1/901 2013/11/27
 10 11  0  0  0  0  0  0  0  0999 V2000
  -30.1826   17.0254  -14.9235 N   0  0  0  0  0  0  0  0  0  0  0  0
  -31.0247   18.0553  -14.7649 C   0  0  0  0  0  0  0  0  0  0  0  0
  -31.4674   18.9243  -15.6729 N   0  0  0  0  0  0  0  0  0  0  0  0
  -30.9479   18.6566  -16.8817 C   0  0  0  0  0  0  0  0  0  0  0  0
  -30.0696   17.6373  -17.2000 C   0  0  0  0  0  0  0  0  0  0  0  0
  -29.6774   16.7821  -16.1505 C   0  0  0  0  0  0  0  0  0  0  0  0
  -28.8358   15.7562  -16.3130 N   0  0  0  0  0  0  0  0  0  0  0  0
  -29.7506   17.6686  -18.5469 N   0  0  0  0  0  0  0  0  0  0  0  0
  -30.4299   18.6928  -19.0075 C   0  0  0  0  0  0  0  0  0  0  0  0
  -31.1738   19.3344  -18.0562 N   0  0  0  0  0  0  0  0  0  0  0  0
  1  2  2  0  0  0  0
  1  6  1  0  0  0  0
  2  3  1  0  0  0  0
  3  4  2  0  0  0  0
  4  5  1  0  0  0  0
  4 10  1  0  0  0  0
  5  6  2  0  0  0  0
  5  8  1  0  0  0  0
  6  7  1  0  0  0  0
  8  9  1  0  0  0  0
  9 10  2  0  0  0  0
M  END
>  <CHROM.1>
-30.35031706,17.84473826,-16.74793991,1.24751004,-0.88391226,1.89003253

>  <Name>
ligand

>  <RI>
0

>  <Rbt.Current_Directory>
/home/itssahil/PROJECTS/Mol_Feturizer/New_Systems/rnas/4TZX

>  <Rbt.Executable>
rbdock ($Id: //depot/dev/client3/rdock/2013.1/src/exe/rbdock.cxx#4 $)

>  <Rbt.Library>
libRbt.so (2013.1, Build901 2013/11/27)

>  <Rbt.Parameter_File>
/export/apps/rDock/src/rDock_2013.1_src/data/scripts/dock_solv.prm

>  <Rbt.Receptor>
prm/pocket_docking_5.prm

>  <SCORE>
-14.3852

>  <SCORE.INTER>
-14.3852

>  <SCORE.INTER.CONST>
1

>  <SCORE.INTER.POLAR>
0

>  <SCORE.INTER.ROT>
0

>  <SCORE.INTER.SOLV>
7.89661

>  <SCORE.INTER.VDW>
-15.8223

>  <SCORE.INTER.norm>
-1.43852

>  <SCORE.INTRA>
0

>  <SCORE.INTRA.DIHEDRAL>
0

>  <SCORE.INTRA.DIHEDRAL.0>
0

>  <SCORE.INTRA.POLAR>
0

>  <SCORE.INTRA.POLAR.0>
0

>  <SCORE.INTRA.REPUL>
0

>  <SCORE.INTRA.REPUL.0>
0

>  <SCORE.INTRA.SOLV>
0

>  <SCORE.INTRA.SOLV.lig_0>
-23.8949

>  <SCORE.INTRA.VDW>
0

>  <SCORE.INTRA.VDW.0>
0

>  <SCORE.INTRA.norm>
0

>  <SCORE.RESTR>
0

>  <SCORE.RESTR.CAVITY>
0

>  <SCORE.RESTR.norm>
0

>  <SCORE.SYSTEM>
0

>  <SCORE.SYSTEM.CONST>
0

>  <SCORE.SYSTEM.DIHEDRAL>
0

>  <SCORE.SYSTEM.SOLV>
0

>  <SCORE.SYSTEM.norm>
0

>  <SCORE.heavy>
10

>  <SCORE.norm>
-1.43852

>  <RMSD>
0.405

$$$$
ligand
 OpenBabel11021811513D
libRbt.so/2013.1/901 2013/11/27
 10 11  0  0  0  0  0  0  0  0999 V2000
  -30.2769   16.9672  -14.9721 N   0  0  0  0  0  0  0  0  0  0  0  0
  -31.0703   18.0345  -14.8096 C   0  0  0  0  0  0  0  0  0  0  0  0
  -31.4545   18.9388  -15.7097 N   0  0  0  0  0  0  0  0  0  0  0  0
  -30.9281   18.6657  -16.9143 C   0  0  0  0  0  0  0  0  0  0  0  0
  -30.0954   17.6099  -17.2357 C   0  0  0  0  0  0  0  0  0  0  0  0
  -29.7633   16.7194  -16.1948 C   0  0  0  0  0  0  0  0  0  0  0  0
  -28.9701   15.6563  -16.3611 N   0  0  0  0  0  0  0  0  0  0  0  0
  -29.7523   17.6475  -18.5765 N   0  0  0  0  0  0  0  0  0  0  0  0
  -30.3728   18.7112  -19.0304 C   0  0  0  0  0  0  0  0  0  0  0  0
  -31.1006   19.3729  -18.0805 N   0  0  0  0  0  0  0  0  0  0  0  0
  1  2  2  0  0  0  0
  1  6  1  0  0  0  0
  2  3  1  0  0  0  0
  3  4  2  0  0  0  0
  4  5  1  0  0  0  0
  4 10  1  0  0  0  0
  5  6  2  0  0  0  0
  5  8  1  0  0  0  0
  6  7  1  0  0  0  0
  8  9  1  0  0  0  0
  9 10  2  0  0  0  0
M  END
>  <CHROM.1>
-30.37326202,17.82346697,-16.78475256,1.29983467,-0.92427522,1.94789509

>  <Name>
ligand

>  <RI>
0

>  <Rbt.Current_Directory>
/home/itssahil/PROJECTS/Mol_Feturizer/New_Systems/rnas/4TZX

>  <Rbt.Executable>
rbdock ($Id: //depot/dev/client3/rdock/2013.1/src/exe/rbdock.cxx#4 $)

>  <Rbt.Library>
libRbt.so (2013.1, Build901 2013/11/27)

>  <Rbt.Parameter_File>
/export/apps/rDock/src/rDock_2013.1_src/data/scripts/dock_solv.prm

>  <Rbt.Receptor>
prm/pocket_docking_6.prm

>  <SCORE>
-14.3418

>  <SCORE.INTER>
-14.3418

>  <SCORE.INTER.CONST>
1

>  <SCORE.INTER.POLAR>
0

>  <SCORE.INTER.ROT>
0

>  <SCORE.INTER.SOLV>
8.50022

>  <SCORE.INTER.VDW>
-15.9946

>  <SCORE.INTER.norm>
-1.43418

>  <SCORE.INTRA>
0

>  <SCORE.INTRA.DIHEDRAL>
0

>  <SCORE.INTRA.DIHEDRAL.0>
0

>  <SCORE.INTRA.POLAR>
0

>  <SCORE.INTRA.POLAR.0>
0

>  <SCORE.INTRA.REPUL>
0

>  <SCORE.INTRA.REPUL.0>
0

>  <SCORE.INTRA.SOLV>
0

>  <SCORE.INTRA.SOLV.lig_0>
-23.8949

>  <SCORE.INTRA.VDW>
0

>  <SCORE.INTRA.VDW.0>
0

>  <SCORE.INTRA.norm>
0

>  <SCORE.RESTR>
0

>  <SCORE.RESTR.CAVITY>
0

>  <SCORE.RESTR.norm>
0

>  <SCORE.SYSTEM>
0

>  <SCORE.SYSTEM.CONST>
0

>  <SCORE.SYSTEM.DIHEDRAL>
0

>  <SCORE.SYSTEM.SOLV>
0

>  <SCORE.SYSTEM.norm>
0

>  <SCORE.heavy>
10

>  <SCORE.norm>
-1.43418

>  <RMSD>
0.405

$$$$
ligand
 OpenBabel11021811513D
libRbt.so/2013.1/901 2013/11/27
 10 11  0  0  0  0  0  0  0  0999 V2000
  -30.1971   16.9942  -14.9489 N   0  0  0  0  0  0  0  0  0  0  0  0
  -31.0224   18.0376  -14.7907 C   0  0  0  0  0  0  0  0  0  0  0  0
  -31.4475   18.9160  -15.6980 N   0  0  0  0  0  0  0  0  0  0  0  0
  -30.9284   18.6426  -16.9057 C   0  0  0  0  0  0  0  0  0  0  0  0
  -30.0662   17.6097  -17.2236 C   0  0  0  0  0  0  0  0  0  0  0  0
  -29.6919   16.7455  -16.1749 C   0  0  0  0  0  0  0  0  0  0  0  0
  -28.8669   15.7061  -16.3371 N   0  0  0  0  0  0  0  0  0  0  0  0
  -29.7421   17.6389  -18.5693 N   0  0  0  0  0  0  0  0  0  0  0  0
  -30.4027   18.6754  -19.0296 C   0  0  0  0  0  0  0  0  0  0  0  0
  -31.1390   19.3270  -18.0792 N   0  0  0  0  0  0  0  0  0  0  0  0
  1  2  2  0  0  0  0
  1  6  1  0  0  0  0
  2  3  1  0  0  0  0
  3  4  2  0  0  0  0
  4  5  1  0  0  0  0
  4 10  1  0  0  0  0
  5  6  2  0  0  0  0
  5  8  1  0  0  0  0
  6  7  1  0  0  0  0
  8  9  1  0  0  0  0
  9 10  2  0  0  0  0
M  END
>  <CHROM.1>
-30.34490843,17.82063530,-16.77192832,1.26111309,-0.89860219,1.90306233

>  <Name>
ligand

>  <RI>
0

>  <Rbt.Current_Directory>
/home/itssahil/PROJECTS/Mol_Feturizer/New_Systems/rnas/4TZX

>  <Rbt.Executable>
rbdock ($Id: //depot/dev/client3/rdock/2013.1/src/exe/rbdock.cxx#4 $)

>  <Rbt.Library>
libRbt.so (2013.1, Build901 2013/11/27)

>  <Rbt.Parameter_File>
/export/apps/rDock/src/rDock_2013.1_src/data/scripts/dock_solv.prm

>  <Rbt.Receptor>
prm/pocket_docking_6.prm

>  <SCORE>
-14.3744

>  <SCORE.INTER>
-14.3744

>  <SCORE.INTER.CONST>
1

>  <SCORE.INTER.POLAR>
0

>  <SCORE.INTER.ROT>
0

>  <SCORE.INTER.SOLV>
8.10637

>  <SCORE.INTER.VDW>
-15.885

>  <SCORE.INTER.norm>
-1.43744

>  <SCORE.INTRA>
0

>  <SCORE.INTRA.DIHEDRAL>
0

>  <SCORE.INTRA.DIHEDRAL.0>
0

>  <SCORE.INTRA.POLAR>
0

>  <SCORE.INTRA.POLAR.0>
0

>  <SCORE.INTRA.REPUL>
0

>  <SCORE.INTRA.REPUL.0>
0

>  <SCORE.INTRA.SOLV>
0

>  <SCORE.INTRA.SOLV.lig_0>
-23.8949

>  <SCORE.INTRA.VDW>
0

>  <SCORE.INTRA.VDW.0>
0

>  <SCORE.INTRA.norm>
0

>  <SCORE.RESTR>
0

>  <SCORE.RESTR.CAVITY>
0

>  <SCORE.RESTR.norm>
0

>  <SCORE.SYSTEM>
0

>  <SCORE.SYSTEM.CONST>
0

>  <SCORE.SYSTEM.DIHEDRAL>
0

>  <SCORE.SYSTEM.SOLV>
0

>  <SCORE.SYSTEM.norm>
0

>  <SCORE.heavy>
10

>  <SCORE.norm>
-1.43744

>  <RMSD>
0.405

$$$$
ligand
 OpenBabel11021811513D
libRbt.so/2013.1/901 2013/11/27
 10 11  0  0  0  0  0  0  0  0999 V2000
  -30.2049   16.9846  -14.9549 N   0  0  0  0  0  0  0  0  0  0  0  0
  -31.0266   18.0302  -14.7928 C   0  0  0  0  0  0  0  0  0  0  0  0
  -31.4477   18.9142  -15.6965 N   0  0  0  0  0  0  0  0  0  0  0  0
  -30.9285   18.6443  -16.9050 C   0  0  0  0  0  0  0  0  0  0  0  0
  -30.0696   17.6097  -17.2267 C   0  0  0  0  0  0  0  0  0  0  0  0
  -29.6994   16.7395  -16.1815 C   0  0  0  0  0  0  0  0  0  0  0  0
  -28.8780   15.6980  -16.3476 N   0  0  0  0  0  0  0  0  0  0  0  0
  -29.7442   17.6438  -18.5719 N   0  0  0  0  0  0  0  0  0  0  0  0
  -30.4007   18.6847  -19.0283 C   0  0  0  0  0  0  0  0  0  0  0  0
  -31.1355   19.3347  -18.0756 N   0  0  0  0  0  0  0  0  0  0  0  0
  1  2  2  0  0  0  0
  1  6  1  0  0  0  0
  2  3  1  0  0  0  0
  3  4  2  0  0  0  0
  4  5  1  0  0  0  0
  4 10  1  0  0  0  0
  5  6  2  0  0  0  0
  5  8  1  0  0  0  0
  6  7  1  0  0  0  0
  8  9  1  0  0  0  0
  9 10  2  0  0  0  0
M  END
>  <CHROM.1>
-30.34801718,17.81967718,-16.77435925,1.26438061,-0.90169229,1.91008250

>  <Name>
ligand

>  <RI>
0

>  <Rbt.Current_Directory>
/home/itssahil/PROJECTS/Mol_Feturizer/New_Systems/rnas/4TZX

>  <Rbt.Executable>
rbdock ($Id: //depot/dev/client3/rdock/2013.1/src/exe/rbdock.cxx#4 $)

>  <Rbt.Library>
libRbt.so (2013.1, Build901 2013/11/27)

>  <Rbt.Parameter_File>
/export/apps/rDock/src/rDock_2013.1_src/data/scripts/dock_solv.prm

>  <Rbt.Receptor>
prm/pocket_docking_6.prm

>  <SCORE>
-14.3778

>  <SCORE.INTER>
-14.3778

>  <SCORE.INTER.CONST>
1

>  <SCORE.INTER.POLAR>
0

>  <SCORE.INTER.ROT>
0

>  <SCORE.INTER.SOLV>
8.16452

>  <SCORE.INTER.VDW>
-15.9067

>  <SCORE.INTER.norm>
-1.43778

>  <SCORE.INTRA>
0

>  <SCORE.INTRA.DIHEDRAL>
0

>  <SCORE.INTRA.DIHEDRAL.0>
0

>  <SCORE.INTRA.POLAR>
0

>  <SCORE.INTRA.POLAR.0>
0

>  <SCORE.INTRA.REPUL>
0

>  <SCORE.INTRA.REPUL.0>
0

>  <SCORE.INTRA.SOLV>
0

>  <SCORE.INTRA.SOLV.lig_0>
-23.8949

>  <SCORE.INTRA.VDW>
0

>  <SCORE.INTRA.VDW.0>
0

>  <SCORE.INTRA.norm>
0

>  <SCORE.RESTR>
0

>  <SCORE.RESTR.CAVITY>
0

>  <SCORE.RESTR.norm>
0

>  <SCORE.SYSTEM>
0

>  <SCORE.SYSTEM.CONST>
0

>  <SCORE.SYSTEM.DIHEDRAL>
0

>  <SCORE.SYSTEM.SOLV>
0

>  <SCORE.SYSTEM.norm>
0

>  <SCORE.heavy>
10

>  <SCORE.norm>
-1.43778

>  <RMSD>
0.405

$$$$
ligand
 OpenBabel11021811513D
libRbt.so/2013.1/901 2013/11/27
 10 11  0  0  0  0  0  0  0  0999 V2000
  -30.1982   17.0001  -14.9457 N   0  0  0  0  0  0  0  0  0  0  0  0
  -31.0219   18.0448  -14.7873 C   0  0  0  0  0  0  0  0  0  0  0  0
  -31.4457   18.9239  -15.6945 N   0  0  0  0  0  0  0  0  0  0  0  0
  -30.9272   18.6497  -16.9023 C   0  0  0  0  0  0  0  0  0  0  0  0
  -30.0665   17.6154  -17.2203 C   0  0  0  0  0  0  0  0  0  0  0  0
  -29.6935   16.7506  -16.1716 C   0  0  0  0  0  0  0  0  0  0  0  0
  -28.8701   15.7100  -16.3339 N   0  0  0  0  0  0  0  0  0  0  0  0
  -29.7425   17.6442  -18.5660 N   0  0  0  0  0  0  0  0  0  0  0  0
  -30.4015   18.6818  -19.0263 C   0  0  0  0  0  0  0  0  0  0  0  0
  -31.1368   19.3345  -18.0758 N   0  0  0  0  0  0  0  0  0  0  0  0
  1  2  2  0  0  0  0
  1  6  1  0  0  0  0
  2  3  1  0  0  0  0
  3  4  2  0  0  0  0
  4  5  1  0  0  0  0
  4 10  1  0  0  0  0
  5  6  2  0  0  0  0
  5  8  1  0  0  0  0
  6  7  1  0  0  0  0
  8  9  1  0  0  0  0
  9 10  2  0  0  0  0
M  END
>  <CHROM.1>
-30.34488751,17.82683185,-16.76859828,1.26179888,-0.90009886,1.90363272

>  <Name>
ligand

>  <RI>
0

>  <Rbt.Current_Directory>
/home/itssahil/PROJECTS/Mol_Feturizer/New_Systems/rnas/4TZX

>  <Rbt.Executable>
rbdock ($Id: //depot/dev/client3/rdock/2013.1/src/exe/rbdock.cxx#4 $)

>  <Rbt.Library>
libRbt.so (2013.1, Build901 2013/11/27)

>  <Rbt.Parameter_File>
/export/apps/rDock/src/rDock_2013.1_src/data/scripts/dock_solv.prm

>  <Rbt.Receptor>
prm/pocket_docking_8.prm

>  <SCORE>
-14.375

>  <SCORE.INTER>
-14.375

>  <SCORE.INTER.CONST>
1

>  <SCORE.INTER.POLAR>
0

>  <SCORE.INTER.ROT>
0

>  <SCORE.INTER.SOLV>
8.10591

>  <SCORE.INTER.VDW>
-15.8853

>  <SCORE.INTER.norm>
-1.4375

>  <SCORE.INTRA>
0

>  <SCORE.INTRA.DIHEDRAL>
0

>  <SCORE.INTRA.DIHEDRAL.0>
0

>  <SCORE.INTRA.POLAR>
0

>  <SCORE.INTRA.POLAR.0>
0

>  <SCORE.INTRA.REPUL>
0

>  <SCORE.INTRA.REPUL.0>
0

>  <SCORE.INTRA.SOLV>
0

>  <SCORE.INTRA.SOLV.lig_0>
-23.8949

>  <SCORE.INTRA.VDW>
0

>  <SCORE.INTRA.VDW.0>
0

>  <SCORE.INTRA.norm>
0

>  <SCORE.RESTR>
0

>  <SCORE.RESTR.CAVITY>
0

>  <SCORE.RESTR.norm>
0

>  <SCORE.SYSTEM>
0

>  <SCORE.SYSTEM.CONST>
0

>  <SCORE.SYSTEM.DIHEDRAL>
0

>  <SCORE.SYSTEM.SOLV>
0

>  <SCORE.SYSTEM.norm>
0

>  <SCORE.heavy>
10

>  <SCORE.norm>
-1.4375

>  <RMSD>
0.405

$$$$
ligand
 OpenBabel11021811513D
libRbt.so/2013.1/901 2013/11/27
 10 11  0  0  0  0  0  0  0  0999 V2000
  -30.2245   17.0516  -14.9174 N   0  0  0  0  0  0  0  0  0  0  0  0
  -31.0468   18.1003  -14.7805 C   0  0  0  0  0  0  0  0  0  0  0  0
  -31.4582   18.9697  -15.7027 N   0  0  0  0  0  0  0  0  0  0  0  0
  -30.9275   18.6796  -16.9015 C   0  0  0  0  0  0  0  0  0  0  0  0
  -30.0665   17.6391  -17.1977 C   0  0  0  0  0  0  0  0  0  0  0  0
  -29.7073   16.7860  -16.1348 C   0  0  0  0  0  0  0  0  0  0  0  0
  -28.8853   15.7412  -16.2757 N   0  0  0  0  0  0  0  0  0  0  0  0
  -29.7280   17.6509  -18.5401 N   0  0  0  0  0  0  0  0  0  0  0  0
  -30.3790   18.6846  -19.0198 C   0  0  0  0  0  0  0  0  0  0  0  0
  -31.1225   19.3507  -18.0853 N   0  0  0  0  0  0  0  0  0  0  0  0
  1  2  2  0  0  0  0
  1  6  1  0  0  0  0
  2  3  1  0  0  0  0
  3  4  2  0  0  0  0
  4  5  1  0  0  0  0
  4 10  1  0  0  0  0
  5  6  2  0  0  0  0
  5  8  1  0  0  0  0
  6  7  1  0  0  0  0
  8  9  1  0  0  0  0
  9 10  2  0  0  0  0
M  END
>  <CHROM.1>
-30.34910606,17.85672946,-16.75161918,1.27965891,-0.89926014,1.90561552

>  <Name>
ligand

>  <RI>
0

>  <Rbt.Current_Directory>
/home/itssahil/PROJECTS/Mol_Feturizer/New_Systems/rnas/4TZX

>  <Rbt.Executable>
rbdock ($Id: //depot/dev/client3/rdock/2013.1/src/exe/rbdock.cxx#4 $)

>  <Rbt.Library>
libRbt.so (2013.1, Build901 2013/11/27)

>  <Rbt.Parameter_File>
/export/apps/rDock/src/rDock_2013.1_src/data/scripts/dock_solv.prm

>  <Rbt.Receptor>
prm/pocket_docking_8.prm

>  <SCORE>
-14.3567

>  <SCORE.INTER>
-14.3567

>  <SCORE.INTER.CONST>
1

>  <SCORE.INTER.POLAR>
0

>  <SCORE.INTER.ROT>
0

>  <SCORE.INTER.SOLV>
8.01905

>  <SCORE.INTER.VDW>
-15.8441

>  <SCORE.INTER.norm>
-1.43567

>  <SCORE.INTRA>
0

>  <SCORE.INTRA.DIHEDRAL>
0

>  <SCORE.INTRA.DIHEDRAL.0>
0

>  <SCORE.INTRA.POLAR>
0

>  <SCORE.INTRA.POLAR.0>
0

>  <SCORE.INTRA.REPUL>
0

>  <SCORE.INTRA.REPUL.0>
0

>  <SCORE.INTRA.SOLV>
0

>  <SCORE.INTRA.SOLV.lig_0>
-23.8949

>  <SCORE.INTRA.VDW>
0

>  <SCORE.INTRA.VDW.0>
0

>  <SCORE.INTRA.norm>
0

>  <SCORE.RESTR>
0

>  <SCORE.RESTR.CAVITY>
0

>  <SCORE.RESTR.norm>
0

>  <SCORE.SYSTEM>
0

>  <SCORE.SYSTEM.CONST>
0

>  <SCORE.SYSTEM.DIHEDRAL>
0

>  <SCORE.SYSTEM.SOLV>
0

>  <SCORE.SYSTEM.norm>
0

>  <SCORE.heavy>
10

>  <SCORE.norm>
-1.43567

>  <RMSD>
0.405

$$$$
ligand
 OpenBabel11021811513D
libRbt.so/2013.1/901 2013/11/27
 10 11  0  0  0  0  0  0  0  0999 V2000
  -30.2195   16.9920  -14.9538 N   0  0  0  0  0  0  0  0  0  0  0  0
  -31.0351   18.0425  -14.7922 C   0  0  0  0  0  0  0  0  0  0  0  0
  -31.4497   18.9294  -15.6960 N   0  0  0  0  0  0  0  0  0  0  0  0
  -30.9305   18.6571  -16.9040 C   0  0  0  0  0  0  0  0  0  0  0  0
  -30.0774   17.6176  -17.2250 C   0  0  0  0  0  0  0  0  0  0  0  0
  -29.7138   16.7446  -16.1799 C   0  0  0  0  0  0  0  0  0  0  0  0
  -28.8984   15.6982  -16.3454 N   0  0  0  0  0  0  0  0  0  0  0  0
  -29.7500   17.6505  -18.5698 N   0  0  0  0  0  0  0  0  0  0  0  0
  -30.3996   18.6955  -19.0265 C   0  0  0  0  0  0  0  0  0  0  0  0
  -31.1318   19.3493  -18.0745 N   0  0  0  0  0  0  0  0  0  0  0  0
  1  2  2  0  0  0  0
  1  6  1  0  0  0  0
  2  3  1  0  0  0  0
  3  4  2  0  0  0  0
  4  5  1  0  0  0  0
  4 10  1  0  0  0  0
  5  6  2  0  0  0  0
  5  8  1  0  0  0  0
  6  7  1  0  0  0  0
  8  9  1  0  0  0  0
  9 10  2  0  0  0  0
M  END
>  <CHROM.1>
-30.35515777,17.82895453,-16.77296404,1.26968858,-0.90687275,1.91480329

>  <Name>
ligand

>  <RI>
0

>  <Rbt.Current_Directory>
/home/itssahil/PROJECTS/Mol_Feturizer/New_Systems/rnas/4TZX

>  <Rbt.Executable>
rbdock ($Id: //depot/dev/client3/rdock/2013.1/src/exe/rbdock.cxx#4 $)

>  <Rbt.Library>
libRbt.so (2013.1, Build901 2013/11/27)

>  <Rbt.Parameter_File>
/export/apps/rDock/src/rDock_2013.1_src/data/scripts/dock_solv.prm

>  <Rbt.Receptor>
prm/blind_docking_100.prm

>  <SCORE>
-14.3774

>  <SCORE.INTER>
-14.3774

>  <SCORE.INTER.CONST>
1

>  <SCORE.INTER.POLAR>
0

>  <SCORE.INTER.ROT>
0

>  <SCORE.INTER.SOLV>
8.21831

>  <SCORE.INTER.VDW>
-15.9243

>  <SCORE.INTER.norm>
-1.43774

>  <SCORE.INTRA>
0

>  <SCORE.INTRA.DIHEDRAL>
0

>  <SCORE.INTRA.DIHEDRAL.0>
0

>  <SCORE.INTRA.POLAR>
0

>  <SCORE.INTRA.POLAR.0>
0

>  <SCORE.INTRA.REPUL>
0

>  <SCORE.INTRA.REPUL.0>
0

>  <SCORE.INTRA.SOLV>
0

>  <SCORE.INTRA.SOLV.lig_0>
-23.8949

>  <SCORE.INTRA.VDW>
0

>  <SCORE.INTRA.VDW.0>
0

>  <SCORE.INTRA.norm>
0

>  <SCORE.RESTR>
0

>  <SCORE.RESTR.CAVITY>
0

>  <SCORE.RESTR.norm>
0

>  <SCORE.SYSTEM>
0

>  <SCORE.SYSTEM.CONST>
0

>  <SCORE.SYSTEM.DIHEDRAL>
0

>  <SCORE.SYSTEM.SOLV>
0

>  <SCORE.SYSTEM.norm>
0

>  <SCORE.heavy>
10

>  <SCORE.norm>
-1.43774

>  <RMSD>
0.406

$$$$
ligand
 OpenBabel11021811513D
libRbt.so/2013.1/901 2013/11/27
 10 11  0  0  0  0  0  0  0  0999 V2000
  -30.2560   16.9591  -14.9776 N   0  0  0  0  0  0  0  0  0  0  0  0
  -31.0609   18.0177  -14.8145 C   0  0  0  0  0  0  0  0  0  0  0  0
  -31.4587   18.9156  -15.7150 N   0  0  0  0  0  0  0  0  0  0  0  0
  -30.9338   18.6458  -16.9211 C   0  0  0  0  0  0  0  0  0  0  0  0
  -30.0902   17.5989  -17.2433 C   0  0  0  0  0  0  0  0  0  0  0  0
  -29.7442   16.7145  -16.2017 C   0  0  0  0  0  0  0  0  0  0  0  0
  -28.9396   15.6601  -16.3687 N   0  0  0  0  0  0  0  0  0  0  0  0
  -29.7526   17.6374  -18.5854 N   0  0  0  0  0  0  0  0  0  0  0  0
  -30.3869   18.6930  -19.0393 C   0  0  0  0  0  0  0  0  0  0  0  0
  -31.1186   19.3484  -18.0881 N   0  0  0  0  0  0  0  0  0  0  0  0
  1  2  2  0  0  0  0
  1  6  1  0  0  0  0
  2  3  1  0  0  0  0
  3  4  2  0  0  0  0
  4  5  1  0  0  0  0
  4 10  1  0  0  0  0
  5  6  2  0  0  0  0
  5  8  1  0  0  0  0
  6  7  1  0  0  0  0
  8  9  1  0  0  0  0
  9 10  2  0  0  0  0
M  END
>  <CHROM.1>
-30.36885742,17.81023501,-16.79175225,1.28730745,-0.91502247,1.93575139

>  <Name>
ligand

>  <RI>
0

>  <Rbt.Current_Directory>
/home/itssahil/PROJECTS/Mol_Feturizer/New_Systems/rnas/4TZX

>  <Rbt.Executable>
rbdock ($Id: //depot/dev/client3/rdock/2013.1/src/exe/rbdock.cxx#4 $)

>  <Rbt.Library>
libRbt.so (2013.1, Build901 2013/11/27)

>  <Rbt.Parameter_File>
/export/apps/rDock/src/rDock_2013.1_src/data/scripts/dock_solv.prm

>  <Rbt.Receptor>
prm/blind_docking_100.prm

>  <SCORE>
-14.3412

>  <SCORE.INTER>
-14.3412

>  <SCORE.INTER.CONST>
1

>  <SCORE.INTER.POLAR>
0

>  <SCORE.INTER.ROT>
0

>  <SCORE.INTER.SOLV>
8.42116

>  <SCORE.INTER.VDW>
-15.9679

>  <SCORE.INTER.norm>
-1.43412

>  <SCORE.INTRA>
0

>  <SCORE.INTRA.DIHEDRAL>
0

>  <SCORE.INTRA.DIHEDRAL.0>
0

>  <SCORE.INTRA.POLAR>
0

>  <SCORE.INTRA.POLAR.0>
0

>  <SCORE.INTRA.REPUL>
0

>  <SCORE.INTRA.REPUL.0>
0

>  <SCORE.INTRA.SOLV>
0

>  <SCORE.INTRA.SOLV.lig_0>
-23.8949

>  <SCORE.INTRA.VDW>
0

>  <SCORE.INTRA.VDW.0>
0

>  <SCORE.INTRA.norm>
0

>  <SCORE.RESTR>
0

>  <SCORE.RESTR.CAVITY>
0

>  <SCORE.RESTR.norm>
0

>  <SCORE.SYSTEM>
0

>  <SCORE.SYSTEM.CONST>
0

>  <SCORE.SYSTEM.DIHEDRAL>
0

>  <SCORE.SYSTEM.SOLV>
0

>  <SCORE.SYSTEM.norm>
0

>  <SCORE.heavy>
10

>  <SCORE.norm>
-1.43412

>  <RMSD>
0.406

$$$$
ligand
 OpenBabel11021811513D
libRbt.so/2013.1/901 2013/11/27
 10 11  0  0  0  0  0  0  0  0999 V2000
  -30.2112   17.0010  -14.9476 N   0  0  0  0  0  0  0  0  0  0  0  0
  -31.0297   18.0494  -14.7875 C   0  0  0  0  0  0  0  0  0  0  0  0
  -31.4480   18.9330  -15.6930 N   0  0  0  0  0  0  0  0  0  0  0  0
  -30.9295   18.6593  -16.9009 C   0  0  0  0  0  0  0  0  0  0  0  0
  -30.0739   17.6214  -17.2206 C   0  0  0  0  0  0  0  0  0  0  0  0
  -29.7064   16.7520  -16.1737 C   0  0  0  0  0  0  0  0  0  0  0  0
  -28.8882   15.7076  -16.3378 N   0  0  0  0  0  0  0  0  0  0  0  0
  -29.7482   17.6519  -18.5658 N   0  0  0  0  0  0  0  0  0  0  0  0
  -30.4014   18.6940  -19.0242 C   0  0  0  0  0  0  0  0  0  0  0  0
  -31.1344   19.3480  -18.0728 N   0  0  0  0  0  0  0  0  0  0  0  0
  1  2  2  0  0  0  0
  1  6  1  0  0  0  0
  2  3  1  0  0  0  0
  3  4  2  0  0  0  0
  4  5  1  0  0  0  0
  4 10  1  0  0  0  0
  5  6  2  0  0  0  0
  5  8  1  0  0  0  0
  6  7  1  0  0  0  0
  8  9  1  0  0  0  0
  9 10  2  0  0  0  0
M  END
>  <CHROM.1>
-30.35164080,17.83305954,-16.76862917,1.26615746,-0.90457717,1.90958859

>  <Name>
ligand

>  <RI>
0

>  <Rbt.Current_Directory>
/home/itssahil/PROJECTS/Mol_Feturizer/New_Systems/rnas/4TZX

>  <Rbt.Executable>
rbdock ($Id: //depot/dev/client3/rdock/2013.1/src/exe/rbdock.cxx#4 $)

>  <Rbt.Library>
libRbt.so (2013.1, Build901 2013/11/27)

>  <Rbt.Parameter_File>
/export/apps/rDock/src/rDock_2013.1_src/data/scripts/dock_solv.prm

>  <Rbt.Receptor>
prm/blind_docking_80.prm

>  <SCORE>
-14.3759

>  <SCORE.INTER>
-14.3759

>  <SCORE.INTER.CONST>
1

>  <SCORE.INTER.POLAR>
0

>  <SCORE.INTER.ROT>
0

>  <SCORE.INTER.SOLV>
8.16542

>  <SCORE.INTER.VDW>
-15.9057

>  <SCORE.INTER.norm>
-1.43759

>  <SCORE.INTRA>
0

>  <SCORE.INTRA.DIHEDRAL>
0

>  <SCORE.INTRA.DIHEDRAL.0>
0

>  <SCORE.INTRA.POLAR>
0

>  <SCORE.INTRA.POLAR.0>
0

>  <SCORE.INTRA.REPUL>
0

>  <SCORE.INTRA.REPUL.0>
0

>  <SCORE.INTRA.SOLV>
0

>  <SCORE.INTRA.SOLV.lig_0>
-23.8949

>  <SCORE.INTRA.VDW>
0

>  <SCORE.INTRA.VDW.0>
0

>  <SCORE.INTRA.norm>
0

>  <SCORE.RESTR>
0

>  <SCORE.RESTR.CAVITY>
0

>  <SCORE.RESTR.norm>
0

>  <SCORE.SYSTEM>
0

>  <SCORE.SYSTEM.CONST>
0

>  <SCORE.SYSTEM.DIHEDRAL>
0

>  <SCORE.SYSTEM.SOLV>
0

>  <SCORE.SYSTEM.norm>
0

>  <SCORE.heavy>
10

>  <SCORE.norm>
-1.43759

>  <RMSD>
0.406

$$$$
ligand
 OpenBabel11021811513D
libRbt.so/2013.1/901 2013/11/27
 10 11  0  0  0  0  0  0  0  0999 V2000
  -30.2199   16.9835  -14.9585 N   0  0  0  0  0  0  0  0  0  0  0  0
  -31.0327   18.0355  -14.7934 C   0  0  0  0  0  0  0  0  0  0  0  0
  -31.4466   18.9254  -15.6946 N   0  0  0  0  0  0  0  0  0  0  0  0
  -30.9300   18.6544  -16.9040 C   0  0  0  0  0  0  0  0  0  0  0  0
  -30.0799   17.6134  -17.2286 C   0  0  0  0  0  0  0  0  0  0  0  0
  -29.7168   16.7374  -16.1859 C   0  0  0  0  0  0  0  0  0  0  0  0
  -28.9042   15.6894  -16.3549 N   0  0  0  0  0  0  0  0  0  0  0  0
  -29.7546   17.6484  -18.5739 N   0  0  0  0  0  0  0  0  0  0  0  0
  -30.4023   18.6959  -19.0273 C   0  0  0  0  0  0  0  0  0  0  0  0
  -31.1315   19.3496  -18.0727 N   0  0  0  0  0  0  0  0  0  0  0  0
  1  2  2  0  0  0  0
  1  6  1  0  0  0  0
  2  3  1  0  0  0  0
  3  4  2  0  0  0  0
  4  5  1  0  0  0  0
  4 10  1  0  0  0  0
  5  6  2  0  0  0  0
  5  8  1  0  0  0  0
  6  7  1  0  0  0  0
  8  9  1  0  0  0  0
  9 10  2  0  0  0  0
M  END
>  <CHROM.1>
-30.35643801,17.82455276,-16.77565058,1.26856103,-0.90970393,1.91601596

>  <Name>
ligand

>  <RI>
0

>  <Rbt.Current_Directory>
/home/itssahil/PROJECTS/Mol_Feturizer/New_Systems/rnas/4TZX

>  <Rbt.Executable>
rbdock ($Id: //depot/dev/client3/rdock/2013.1/src/exe/rbdock.cxx#4 $)

>  <Rbt.Library>
libRbt.so (2013.1, Build901 2013/11/27)

>  <Rbt.Parameter_File>
/export/apps/rDock/src/rDock_2013.1_src/data/scripts/dock_solv.prm

>  <Rbt.Receptor>
prm/blind_docking_80.prm

>  <SCORE>
-14.3777

>  <SCORE.INTER>
-14.3777

>  <SCORE.INTER.CONST>
1

>  <SCORE.INTER.POLAR>
0

>  <SCORE.INTER.ROT>
0

>  <SCORE.INTER.SOLV>
8.25934

>  <SCORE.INTER.VDW>
-15.9382

>  <SCORE.INTER.norm>
-1.43777

>  <SCORE.INTRA>
0

>  <SCORE.INTRA.DIHEDRAL>
0

>  <SCORE.INTRA.DIHEDRAL.0>
0

>  <SCORE.INTRA.POLAR>
0

>  <SCORE.INTRA.POLAR.0>
0

>  <SCORE.INTRA.REPUL>
0

>  <SCORE.INTRA.REPUL.0>
0

>  <SCORE.INTRA.SOLV>
0

>  <SCORE.INTRA.SOLV.lig_0>
-23.8949

>  <SCORE.INTRA.VDW>
0

>  <SCORE.INTRA.VDW.0>
0

>  <SCORE.INTRA.norm>
0

>  <SCORE.RESTR>
0

>  <SCORE.RESTR.CAVITY>
0

>  <SCORE.RESTR.norm>
0

>  <SCORE.SYSTEM>
0

>  <SCORE.SYSTEM.CONST>
0

>  <SCORE.SYSTEM.DIHEDRAL>
0

>  <SCORE.SYSTEM.SOLV>
0

>  <SCORE.SYSTEM.norm>
0

>  <SCORE.heavy>
10

>  <SCORE.norm>
-1.43777

>  <RMSD>
0.406

$$$$
ligand
 OpenBabel11021811513D
libRbt.so/2013.1/901 2013/11/27
 10 11  0  0  0  0  0  0  0  0999 V2000
  -30.2010   17.0093  -14.9401 N   0  0  0  0  0  0  0  0  0  0  0  0
  -31.0246   18.0543  -14.7832 C   0  0  0  0  0  0  0  0  0  0  0  0
  -31.4473   18.9330  -15.6913 N   0  0  0  0  0  0  0  0  0  0  0  0
  -30.9276   18.6580  -16.8984 C   0  0  0  0  0  0  0  0  0  0  0  0
  -30.0670   17.6233  -17.2150 C   0  0  0  0  0  0  0  0  0  0  0  0
  -29.6952   16.7590  -16.1655 C   0  0  0  0  0  0  0  0  0  0  0  0
  -28.8720   15.7180  -16.3264 N   0  0  0  0  0  0  0  0  0  0  0  0
  -29.7417   17.6512  -18.5604 N   0  0  0  0  0  0  0  0  0  0  0  0
  -30.4000   18.6887  -19.0219 C   0  0  0  0  0  0  0  0  0  0  0  0
  -31.1359   19.3421  -18.0725 N   0  0  0  0  0  0  0  0  0  0  0  0
  1  2  2  0  0  0  0
  1  6  1  0  0  0  0
  2  3  1  0  0  0  0
  3  4  2  0  0  0  0
  4  5  1  0  0  0  0
  4 10  1  0  0  0  0
  5  6  2  0  0  0  0
  5  8  1  0  0  0  0
  6  7  1  0  0  0  0
  8  9  1  0  0  0  0
  9 10  2  0  0  0  0
M  END
>  <CHROM.1>
-30.34573237,17.83503883,-16.76367789,1.26337299,-0.90006359,1.90428812

>  <Name>
ligand

>  <RI>
0

>  <Rbt.Current_Directory>
/home/itssahil/PROJECTS/Mol_Feturizer/New_Systems/rnas/4TZX

>  <Rbt.Executable>
rbdock ($Id: //depot/dev/client3/rdock/2013.1/src/exe/rbdock.cxx#4 $)

>  <Rbt.Library>
libRbt.so (2013.1, Build901 2013/11/27)

>  <Rbt.Parameter_File>
/export/apps/rDock/src/rDock_2013.1_src/data/scripts/dock_solv.prm

>  <Rbt.Receptor>
prm/pocket_docking_4.prm

>  <SCORE>
-14.3752

>  <SCORE.INTER>
-14.3752

>  <SCORE.INTER.CONST>
1

>  <SCORE.INTER.POLAR>
0

>  <SCORE.INTER.ROT>
0

>  <SCORE.INTER.SOLV>
8.08864

>  <SCORE.INTER.VDW>
-15.8797

>  <SCORE.INTER.norm>
-1.43752

>  <SCORE.INTRA>
0

>  <SCORE.INTRA.DIHEDRAL>
0

>  <SCORE.INTRA.DIHEDRAL.0>
0

>  <SCORE.INTRA.POLAR>
0

>  <SCORE.INTRA.POLAR.0>
0

>  <SCORE.INTRA.REPUL>
0

>  <SCORE.INTRA.REPUL.0>
0

>  <SCORE.INTRA.SOLV>
0

>  <SCORE.INTRA.SOLV.lig_0>
-23.8949

>  <SCORE.INTRA.VDW>
0

>  <SCORE.INTRA.VDW.0>
0

>  <SCORE.INTRA.norm>
0

>  <SCORE.RESTR>
0

>  <SCORE.RESTR.CAVITY>
0

>  <SCORE.RESTR.norm>
0

>  <SCORE.SYSTEM>
0

>  <SCORE.SYSTEM.CONST>
0

>  <SCORE.SYSTEM.DIHEDRAL>
0

>  <SCORE.SYSTEM.SOLV>
0

>  <SCORE.SYSTEM.norm>
0

>  <SCORE.heavy>
10

>  <SCORE.norm>
-1.43752

>  <RMSD>
0.406

$$$$
ligand
 OpenBabel11021811513D
libRbt.so/2013.1/901 2013/11/27
 10 11  0  0  0  0  0  0  0  0999 V2000
  -30.1936   17.0340  -14.9221 N   0  0  0  0  0  0  0  0  0  0  0  0
  -31.0355   18.0648  -14.7690 C   0  0  0  0  0  0  0  0  0  0  0  0
  -31.4744   18.9319  -15.6805 N   0  0  0  0  0  0  0  0  0  0  0  0
  -30.9507   18.6611  -16.8869 C   0  0  0  0  0  0  0  0  0  0  0  0
  -30.0720   17.6405  -17.1997 C   0  0  0  0  0  0  0  0  0  0  0  0
  -29.6842   16.7875  -16.1468 C   0  0  0  0  0  0  0  0  0  0  0  0
  -28.8426   15.7607  -16.3039 N   0  0  0  0  0  0  0  0  0  0  0  0
  -29.7481   17.6685  -18.5454 N   0  0  0  0  0  0  0  0  0  0  0  0
  -30.4251   18.6921  -19.0108 C   0  0  0  0  0  0  0  0  0  0  0  0
  -31.1720   19.3363  -18.0637 N   0  0  0  0  0  0  0  0  0  0  0  0
  1  2  2  0  0  0  0
  1  6  1  0  0  0  0
  2  3  1  0  0  0  0
  3  4  2  0  0  0  0
  4  5  1  0  0  0  0
  4 10  1  0  0  0  0
  5  6  2  0  0  0  0
  5  8  1  0  0  0  0
  6  7  1  0  0  0  0
  8  9  1  0  0  0  0
  9 10  2  0  0  0  0
M  END
>  <CHROM.1>
-30.35417332,17.84917547,-16.74904964,1.25320227,-0.88340958,1.89211269

>  <Name>
ligand

>  <RI>
0

>  <Rbt.Current_Directory>
/home/itssahil/PROJECTS/Mol_Feturizer/New_Systems/rnas/4TZX

>  <Rbt.Executable>
rbdock ($Id: //depot/dev/client3/rdock/2013.1/src/exe/rbdock.cxx#4 $)

>  <Rbt.Library>
libRbt.so (2013.1, Build901 2013/11/27)

>  <Rbt.Parameter_File>
/export/apps/rDock/src/rDock_2013.1_src/data/scripts/dock_solv.prm

>  <Rbt.Receptor>
prm/pocket_docking_4.prm

>  <SCORE>
-14.3824

>  <SCORE.INTER>
-14.3824

>  <SCORE.INTER.CONST>
1

>  <SCORE.INTER.POLAR>
0

>  <SCORE.INTER.ROT>
0

>  <SCORE.INTER.SOLV>
7.89853

>  <SCORE.INTER.VDW>
-15.8211

>  <SCORE.INTER.norm>
-1.43824

>  <SCORE.INTRA>
0

>  <SCORE.INTRA.DIHEDRAL>
0

>  <SCORE.INTRA.DIHEDRAL.0>
0

>  <SCORE.INTRA.POLAR>
0

>  <SCORE.INTRA.POLAR.0>
0

>  <SCORE.INTRA.REPUL>
0

>  <SCORE.INTRA.REPUL.0>
0

>  <SCORE.INTRA.SOLV>
0

>  <SCORE.INTRA.SOLV.lig_0>
-23.8949

>  <SCORE.INTRA.VDW>
0

>  <SCORE.INTRA.VDW.0>
0

>  <SCORE.INTRA.norm>
0

>  <SCORE.RESTR>
4.04177e-05

>  <SCORE.RESTR.CAVITY>
4.04177e-05

>  <SCORE.RESTR.norm>
4.04177e-06

>  <SCORE.SYSTEM>
0

>  <SCORE.SYSTEM.CONST>
0

>  <SCORE.SYSTEM.DIHEDRAL>
0

>  <SCORE.SYSTEM.SOLV>
0

>  <SCORE.SYSTEM.norm>
0

>  <SCORE.heavy>
10

>  <SCORE.norm>
-1.43824

>  <RMSD>
0.406

$$$$
ligand
 OpenBabel11021811513D
libRbt.so/2013.1/901 2013/11/27
 10 11  0  0  0  0  0  0  0  0999 V2000
  -30.2027   17.0034  -14.9458 N   0  0  0  0  0  0  0  0  0  0  0  0
  -31.0265   18.0482  -14.7885 C   0  0  0  0  0  0  0  0  0  0  0  0
  -31.4494   18.9271  -15.6963 N   0  0  0  0  0  0  0  0  0  0  0  0
  -30.9296   18.6526  -16.9036 C   0  0  0  0  0  0  0  0  0  0  0  0
  -30.0687   17.6182  -17.2204 C   0  0  0  0  0  0  0  0  0  0  0  0
  -29.6967   16.7537  -16.1712 C   0  0  0  0  0  0  0  0  0  0  0  0
  -28.8732   15.7130  -16.3324 N   0  0  0  0  0  0  0  0  0  0  0  0
  -29.7433   17.6467  -18.5658 N   0  0  0  0  0  0  0  0  0  0  0  0
  -30.4018   18.6842  -19.0270 C   0  0  0  0  0  0  0  0  0  0  0  0
  -31.1380   19.3371  -18.0774 N   0  0  0  0  0  0  0  0  0  0  0  0
  1  2  2  0  0  0  0
  1  6  1  0  0  0  0
  2  3  1  0  0  0  0
  3  4  2  0  0  0  0
  4  5  1  0  0  0  0
  4 10  1  0  0  0  0
  5  6  2  0  0  0  0
  5  8  1  0  0  0  0
  6  7  1  0  0  0  0
  8  9  1  0  0  0  0
  9 10  2  0  0  0  0
M  END
>  <CHROM.1>
-30.34749810,17.82975199,-16.76906417,1.26331990,-0.89980653,1.90459364

>  <Name>
ligand

>  <RI>
0

>  <Rbt.Current_Directory>
/home/itssahil/PROJECTS/Mol_Feturizer/New_Systems/rnas/4TZX

>  <Rbt.Executable>
rbdock ($Id: //depot/dev/client3/rdock/2013.1/src/exe/rbdock.cxx#4 $)

>  <Rbt.Library>
libRbt.so (2013.1, Build901 2013/11/27)

>  <Rbt.Parameter_File>
/export/apps/rDock/src/rDock_2013.1_src/data/scripts/dock_solv.prm

>  <Rbt.Receptor>
prm/pocket_docking_5.prm

>  <SCORE>
-14.3757

>  <SCORE.INTER>
-14.3757

>  <SCORE.INTER.CONST>
1

>  <SCORE.INTER.POLAR>
0

>  <SCORE.INTER.ROT>
0

>  <SCORE.INTER.SOLV>
8.10831

>  <SCORE.INTER.VDW>
-15.8865

>  <SCORE.INTER.norm>
-1.43757

>  <SCORE.INTRA>
0

>  <SCORE.INTRA.DIHEDRAL>
0

>  <SCORE.INTRA.DIHEDRAL.0>
0

>  <SCORE.INTRA.POLAR>
0

>  <SCORE.INTRA.POLAR.0>
0

>  <SCORE.INTRA.REPUL>
0

>  <SCORE.INTRA.REPUL.0>
0

>  <SCORE.INTRA.SOLV>
0

>  <SCORE.INTRA.SOLV.lig_0>
-23.8949

>  <SCORE.INTRA.VDW>
0

>  <SCORE.INTRA.VDW.0>
0

>  <SCORE.INTRA.norm>
0

>  <SCORE.RESTR>
0

>  <SCORE.RESTR.CAVITY>
0

>  <SCORE.RESTR.norm>
0

>  <SCORE.SYSTEM>
0

>  <SCORE.SYSTEM.CONST>
0

>  <SCORE.SYSTEM.DIHEDRAL>
0

>  <SCORE.SYSTEM.SOLV>
0

>  <SCORE.SYSTEM.norm>
0

>  <SCORE.heavy>
10

>  <SCORE.norm>
-1.43757

>  <RMSD>
0.406

$$$$
ligand
 OpenBabel11021811513D
libRbt.so/2013.1/901 2013/11/27
 10 11  0  0  0  0  0  0  0  0999 V2000
  -30.2494   16.9609  -14.9753 N   0  0  0  0  0  0  0  0  0  0  0  0
  -31.0500   18.0216  -14.8057 C   0  0  0  0  0  0  0  0  0  0  0  0
  -31.4501   18.9225  -15.7023 N   0  0  0  0  0  0  0  0  0  0  0  0
  -30.9327   18.6535  -16.9117 C   0  0  0  0  0  0  0  0  0  0  0  0
  -30.0942   17.6045  -17.2407 C   0  0  0  0  0  0  0  0  0  0  0  0
  -29.7452   16.7171  -16.2027 C   0  0  0  0  0  0  0  0  0  0  0  0
  -28.9448   15.6605  -16.3762 N   0  0  0  0  0  0  0  0  0  0  0  0
  -29.7639   17.6446  -18.5845 N   0  0  0  0  0  0  0  0  0  0  0  0
  -30.3974   18.7030  -19.0329 C   0  0  0  0  0  0  0  0  0  0  0  0
  -31.1218   19.3589  -18.0764 N   0  0  0  0  0  0  0  0  0  0  0  0
  1  2  2  0  0  0  0
  1  6  1  0  0  0  0
  2  3  1  0  0  0  0
  3  4  2  0  0  0  0
  4  5  1  0  0  0  0
  4 10  1  0  0  0  0
  5  6  2  0  0  0  0
  5  8  1  0  0  0  0
  6  7  1  0  0  0  0
  8  9  1  0  0  0  0
  9 10  2  0  0  0  0
M  END
>  <CHROM.1>
-30.36965706,17.81587424,-16.78717140,1.28058066,-0.91989920,1.93233018

>  <Name>
ligand

>  <RI>
0

>  <Rbt.Current_Directory>
/home/itssahil/PROJECTS/Mol_Feturizer/New_Systems/rnas/4TZX

>  <Rbt.Executable>
rbdock ($Id: //depot/dev/client3/rdock/2013.1/src/exe/rbdock.cxx#4 $)

>  <Rbt.Library>
libRbt.so (2013.1, Build901 2013/11/27)

>  <Rbt.Parameter_File>
/export/apps/rDock/src/rDock_2013.1_src/data/scripts/dock_solv.prm

>  <Rbt.Receptor>
prm/pocket_docking_5.prm

>  <SCORE>
-14.3445

>  <SCORE.INTER>
-14.3445

>  <SCORE.INTER.CONST>
1

>  <SCORE.INTER.POLAR>
0

>  <SCORE.INTER.ROT>
0

>  <SCORE.INTER.SOLV>
8.44156

>  <SCORE.INTER.VDW>
-15.9769

>  <SCORE.INTER.norm>
-1.43445

>  <SCORE.INTRA>
0

>  <SCORE.INTRA.DIHEDRAL>
0

>  <SCORE.INTRA.DIHEDRAL.0>
0

>  <SCORE.INTRA.POLAR>
0

>  <SCORE.INTRA.POLAR.0>
0

>  <SCORE.INTRA.REPUL>
0

>  <SCORE.INTRA.REPUL.0>
0

>  <SCORE.INTRA.SOLV>
0

>  <SCORE.INTRA.SOLV.lig_0>
-23.8949

>  <SCORE.INTRA.VDW>
0

>  <SCORE.INTRA.VDW.0>
0

>  <SCORE.INTRA.norm>
0

>  <SCORE.RESTR>
0

>  <SCORE.RESTR.CAVITY>
0

>  <SCORE.RESTR.norm>
0

>  <SCORE.SYSTEM>
0

>  <SCORE.SYSTEM.CONST>
0

>  <SCORE.SYSTEM.DIHEDRAL>
0

>  <SCORE.SYSTEM.SOLV>
0

>  <SCORE.SYSTEM.norm>
0

>  <SCORE.heavy>
10

>  <SCORE.norm>
-1.43445

>  <RMSD>
0.406

$$$$
ligand
 OpenBabel11021811513D
libRbt.so/2013.1/901 2013/11/27
 10 11  0  0  0  0  0  0  0  0999 V2000
  -30.2334   16.9924  -14.9560 N   0  0  0  0  0  0  0  0  0  0  0  0
  -31.0403   18.0498  -14.7963 C   0  0  0  0  0  0  0  0  0  0  0  0
  -31.4448   18.9406  -15.7009 N   0  0  0  0  0  0  0  0  0  0  0  0
  -30.9247   18.6642  -16.9075 C   0  0  0  0  0  0  0  0  0  0  0  0
  -30.0797   17.6174  -17.2266 C   0  0  0  0  0  0  0  0  0  0  0  0
  -29.7265   16.7410  -16.1808 C   0  0  0  0  0  0  0  0  0  0  0  0
  -28.9198   15.6877  -16.3445 N   0  0  0  0  0  0  0  0  0  0  0  0
  -29.7484   17.6480  -18.5705 N   0  0  0  0  0  0  0  0  0  0  0  0
  -30.3876   18.6987  -19.0285 C   0  0  0  0  0  0  0  0  0  0  0  0
  -31.1168   19.3586  -18.0783 N   0  0  0  0  0  0  0  0  0  0  0  0
  1  2  2  0  0  0  0
  1  6  1  0  0  0  0
  2  3  1  0  0  0  0
  3  4  2  0  0  0  0
  4  5  1  0  0  0  0
  4 10  1  0  0  0  0
  5  6  2  0  0  0  0
  5  8  1  0  0  0  0
  6  7  1  0  0  0  0
  8  9  1  0  0  0  0
  9 10  2  0  0  0  0
M  END
>  <CHROM.1>
-30.35686765,17.83106356,-16.77523807,1.27866009,-0.91408686,1.92223950

>  <Name>
ligand

>  <RI>
0

>  <Rbt.Current_Directory>
/home/itssahil/PROJECTS/Mol_Feturizer/New_Systems/rnas/4TZX

>  <Rbt.Executable>
rbdock ($Id: //depot/dev/client3/rdock/2013.1/src/exe/rbdock.cxx#4 $)

>  <Rbt.Library>
libRbt.so (2013.1, Build901 2013/11/27)

>  <Rbt.Parameter_File>
/export/apps/rDock/src/rDock_2013.1_src/data/scripts/dock_solv.prm

>  <Rbt.Receptor>
prm/pocket_docking_7.prm

>  <SCORE>
-14.3745

>  <SCORE.INTER>
-14.3745

>  <SCORE.INTER.CONST>
1

>  <SCORE.INTER.POLAR>
0

>  <SCORE.INTER.ROT>
0

>  <SCORE.INTER.SOLV>
8.29408

>  <SCORE.INTER.VDW>
-15.9477

>  <SCORE.INTER.norm>
-1.43745

>  <SCORE.INTRA>
0

>  <SCORE.INTRA.DIHEDRAL>
0

>  <SCORE.INTRA.DIHEDRAL.0>
0

>  <SCORE.INTRA.POLAR>
0

>  <SCORE.INTRA.POLAR.0>
0

>  <SCORE.INTRA.REPUL>
0

>  <SCORE.INTRA.REPUL.0>
0

>  <SCORE.INTRA.SOLV>
0

>  <SCORE.INTRA.SOLV.lig_0>
-23.8949

>  <SCORE.INTRA.VDW>
0

>  <SCORE.INTRA.VDW.0>
0

>  <SCORE.INTRA.norm>
0

>  <SCORE.RESTR>
0

>  <SCORE.RESTR.CAVITY>
0

>  <SCORE.RESTR.norm>
0

>  <SCORE.SYSTEM>
0

>  <SCORE.SYSTEM.CONST>
0

>  <SCORE.SYSTEM.DIHEDRAL>
0

>  <SCORE.SYSTEM.SOLV>
0

>  <SCORE.SYSTEM.norm>
0

>  <SCORE.heavy>
10

>  <SCORE.norm>
-1.43745

>  <RMSD>
0.406

$$$$
ligand
 OpenBabel11021811513D
libRbt.so/2013.1/901 2013/11/27
 10 11  0  0  0  0  0  0  0  0999 V2000
  -30.2458   16.9538  -14.9768 N   0  0  0  0  0  0  0  0  0  0  0  0
  -31.0463   18.0139  -14.8027 C   0  0  0  0  0  0  0  0  0  0  0  0
  -31.4470   18.9181  -15.6956 N   0  0  0  0  0  0  0  0  0  0  0  0
  -30.9305   18.6535  -16.9064 C   0  0  0  0  0  0  0  0  0  0  0  0
  -30.0923   17.6057  -17.2399 C   0  0  0  0  0  0  0  0  0  0  0  0
  -29.7425   16.7145  -16.2054 C   0  0  0  0  0  0  0  0  0  0  0  0
  -28.9423   15.6585  -16.3834 N   0  0  0  0  0  0  0  0  0  0  0  0
  -29.7630   17.6508  -18.5838 N   0  0  0  0  0  0  0  0  0  0  0  0
  -30.3969   18.7108  -19.0279 C   0  0  0  0  0  0  0  0  0  0  0  0
  -31.1206   19.3632  -18.0683 N   0  0  0  0  0  0  0  0  0  0  0  0
  1  2  2  0  0  0  0
  1  6  1  0  0  0  0
  2  3  1  0  0  0  0
  3  4  2  0  0  0  0
  4  5  1  0  0  0  0
  4 10  1  0  0  0  0
  5  6  2  0  0  0  0
  5  8  1  0  0  0  0
  6  7  1  0  0  0  0
  8  9  1  0  0  0  0
  9 10  2  0  0  0  0
M  END
>  <CHROM.1>
-30.36742755,17.81542462,-16.78539252,1.27939276,-0.92018048,1.93506257

>  <Name>
ligand

>  <RI>
0

>  <Rbt.Current_Directory>
/home/itssahil/PROJECTS/Mol_Feturizer/New_Systems/rnas/4TZX

>  <Rbt.Executable>
rbdock ($Id: //depot/dev/client3/rdock/2013.1/src/exe/rbdock.cxx#4 $)

>  <Rbt.Library>
libRbt.so (2013.1, Build901 2013/11/27)

>  <Rbt.Parameter_File>
/export/apps/rDock/src/rDock_2013.1_src/data/scripts/dock_solv.prm

>  <Rbt.Receptor>
prm/pocket_docking_7.prm

>  <SCORE>
-14.3477

>  <SCORE.INTER>
-14.3477

>  <SCORE.INTER.CONST>
1

>  <SCORE.INTER.POLAR>
0

>  <SCORE.INTER.ROT>
0

>  <SCORE.INTER.SOLV>
8.44682

>  <SCORE.INTER.VDW>
-15.9807

>  <SCORE.INTER.norm>
-1.43477

>  <SCORE.INTRA>
0

>  <SCORE.INTRA.DIHEDRAL>
0

>  <SCORE.INTRA.DIHEDRAL.0>
0

>  <SCORE.INTRA.POLAR>
0

>  <SCORE.INTRA.POLAR.0>
0

>  <SCORE.INTRA.REPUL>
0

>  <SCORE.INTRA.REPUL.0>
0

>  <SCORE.INTRA.SOLV>
0

>  <SCORE.INTRA.SOLV.lig_0>
-23.8949

>  <SCORE.INTRA.VDW>
0

>  <SCORE.INTRA.VDW.0>
0

>  <SCORE.INTRA.norm>
0

>  <SCORE.RESTR>
0

>  <SCORE.RESTR.CAVITY>
0

>  <SCORE.RESTR.norm>
0

>  <SCORE.SYSTEM>
0

>  <SCORE.SYSTEM.CONST>
0

>  <SCORE.SYSTEM.DIHEDRAL>
0

>  <SCORE.SYSTEM.SOLV>
0

>  <SCORE.SYSTEM.norm>
0

>  <SCORE.heavy>
10

>  <SCORE.norm>
-1.43477

>  <RMSD>
0.406

$$$$
ligand
 OpenBabel11021811513D
libRbt.so/2013.1/901 2013/11/27
 10 11  0  0  0  0  0  0  0  0999 V2000
  -30.1992   16.9872  -14.9550 N   0  0  0  0  0  0  0  0  0  0  0  0
  -31.0228   18.0320  -14.7972 C   0  0  0  0  0  0  0  0  0  0  0  0
  -31.4447   18.9120  -15.7044 N   0  0  0  0  0  0  0  0  0  0  0  0
  -30.9241   18.6387  -16.9116 C   0  0  0  0  0  0  0  0  0  0  0  0
  -30.0633   17.6043  -17.2289 C   0  0  0  0  0  0  0  0  0  0  0  0
  -29.6924   16.7386  -16.1803 C   0  0  0  0  0  0  0  0  0  0  0  0
  -28.8691   15.6978  -16.3420 N   0  0  0  0  0  0  0  0  0  0  0  0
  -29.7369   17.6342  -18.5740 N   0  0  0  0  0  0  0  0  0  0  0  0
  -30.3948   18.6723  -19.0346 C   0  0  0  0  0  0  0  0  0  0  0  0
  -31.1315   19.3244  -18.0848 N   0  0  0  0  0  0  0  0  0  0  0  0
  1  2  2  0  0  0  0
  1  6  1  0  0  0  0
  2  3  1  0  0  0  0
  3  4  2  0  0  0  0
  4  5  1  0  0  0  0
  4 10  1  0  0  0  0
  5  6  2  0  0  0  0
  5  8  1  0  0  0  0
  6  7  1  0  0  0  0
  8  9  1  0  0  0  0
  9 10  2  0  0  0  0
M  END
>  <CHROM.1>
-30.34237919,17.81547779,-16.77749498,1.26460107,-0.89985388,1.90664333

>  <Name>
ligand

>  <RI>
0

>  <Rbt.Current_Directory>
/home/itssahil/PROJECTS/Mol_Feturizer/New_Systems/rnas/4TZX

>  <Rbt.Executable>
rbdock ($Id: //depot/dev/client3/rdock/2013.1/src/exe/rbdock.cxx#4 $)

>  <Rbt.Library>
libRbt.so (2013.1, Build901 2013/11/27)

>  <Rbt.Parameter_File>
/export/apps/rDock/src/rDock_2013.1_src/data/scripts/dock_solv.prm

>  <Rbt.Receptor>
prm/pocket_docking_7.prm

>  <SCORE>
-14.3713

>  <SCORE.INTER>
-14.3713

>  <SCORE.INTER.CONST>
1

>  <SCORE.INTER.POLAR>
0

>  <SCORE.INTER.ROT>
0

>  <SCORE.INTER.SOLV>
8.13439

>  <SCORE.INTER.VDW>
-15.8923

>  <SCORE.INTER.norm>
-1.43713

>  <SCORE.INTRA>
0

>  <SCORE.INTRA.DIHEDRAL>
0

>  <SCORE.INTRA.DIHEDRAL.0>
0

>  <SCORE.INTRA.POLAR>
0

>  <SCORE.INTRA.POLAR.0>
0

>  <SCORE.INTRA.REPUL>
0

>  <SCORE.INTRA.REPUL.0>
0

>  <SCORE.INTRA.SOLV>
0

>  <SCORE.INTRA.SOLV.lig_0>
-23.8949

>  <SCORE.INTRA.VDW>
0

>  <SCORE.INTRA.VDW.0>
0

>  <SCORE.INTRA.norm>
0

>  <SCORE.RESTR>
0

>  <SCORE.RESTR.CAVITY>
0

>  <SCORE.RESTR.norm>
0

>  <SCORE.SYSTEM>
0

>  <SCORE.SYSTEM.CONST>
0

>  <SCORE.SYSTEM.DIHEDRAL>
0

>  <SCORE.SYSTEM.SOLV>
0

>  <SCORE.SYSTEM.norm>
0

>  <SCORE.heavy>
10

>  <SCORE.norm>
-1.43713

>  <RMSD>
0.406

$$$$
ligand
 OpenBabel11021811513D
libRbt.so/2013.1/901 2013/11/27
 10 11  0  0  0  0  0  0  0  0999 V2000
  -30.2847   16.9615  -14.9858 N   0  0  0  0  0  0  0  0  0  0  0  0
  -31.0816   18.0285  -14.8403 C   0  0  0  0  0  0  0  0  0  0  0  0
  -31.4662   18.9191  -15.7538 N   0  0  0  0  0  0  0  0  0  0  0  0
  -30.9359   18.6308  -16.9532 C   0  0  0  0  0  0  0  0  0  0  0  0
  -30.0992   17.5731  -17.2577 C   0  0  0  0  0  0  0  0  0  0  0  0
  -29.7672   16.6982  -16.2036 C   0  0  0  0  0  0  0  0  0  0  0  0
  -28.9705   15.6352  -16.3532 N   0  0  0  0  0  0  0  0  0  0  0  0
  -29.7527   17.5931  -18.5980 N   0  0  0  0  0  0  0  0  0  0  0  0
  -30.3752   18.6485  -19.0683 C   0  0  0  0  0  0  0  0  0  0  0  0
  -31.1075   19.3212  -18.1295 N   0  0  0  0  0  0  0  0  0  0  0  0
  1  2  2  0  0  0  0
  1  6  1  0  0  0  0
  2  3  1  0  0  0  0
  3  4  2  0  0  0  0
  4  5  1  0  0  0  0
  4 10  1  0  0  0  0
  5  6  2  0  0  0  0
  5  8  1  0  0  0  0
  6  7  1  0  0  0  0
  8  9  1  0  0  0  0
  9 10  2  0  0  0  0
M  END
>  <CHROM.1>
-30.37886536,17.79211426,-16.81046842,1.30202387,-0.92057334,1.93573177

>  <Name>
ligand

>  <RI>
0

>  <Rbt.Current_Directory>
/home/itssahil/PROJECTS/Mol_Feturizer/New_Systems/rnas/4TZX

>  <Rbt.Executable>
rbdock ($Id: //depot/dev/client3/rdock/2013.1/src/exe/rbdock.cxx#4 $)

>  <Rbt.Library>
libRbt.so (2013.1, Build901 2013/11/27)

>  <Rbt.Parameter_File>
/export/apps/rDock/src/rDock_2013.1_src/data/scripts/dock_solv.prm

>  <Rbt.Receptor>
prm/pocket_docking_7.prm

>  <SCORE>
-14.333

>  <SCORE.INTER>
-14.333

>  <SCORE.INTER.CONST>
1

>  <SCORE.INTER.POLAR>
0

>  <SCORE.INTER.ROT>
0

>  <SCORE.INTER.SOLV>
8.53788

>  <SCORE.INTER.VDW>
-16.0013

>  <SCORE.INTER.norm>
-1.4333

>  <SCORE.INTRA>
0

>  <SCORE.INTRA.DIHEDRAL>
0

>  <SCORE.INTRA.DIHEDRAL.0>
0

>  <SCORE.INTRA.POLAR>
0

>  <SCORE.INTRA.POLAR.0>
0

>  <SCORE.INTRA.REPUL>
0

>  <SCORE.INTRA.REPUL.0>
0

>  <SCORE.INTRA.SOLV>
0

>  <SCORE.INTRA.SOLV.lig_0>
-23.8949

>  <SCORE.INTRA.VDW>
0

>  <SCORE.INTRA.VDW.0>
0

>  <SCORE.INTRA.norm>
0

>  <SCORE.RESTR>
0

>  <SCORE.RESTR.CAVITY>
0

>  <SCORE.RESTR.norm>
0

>  <SCORE.SYSTEM>
0

>  <SCORE.SYSTEM.CONST>
0

>  <SCORE.SYSTEM.DIHEDRAL>
0

>  <SCORE.SYSTEM.SOLV>
0

>  <SCORE.SYSTEM.norm>
0

>  <SCORE.heavy>
10

>  <SCORE.norm>
-1.4333

>  <RMSD>
0.406

$$$$
ligand
 OpenBabel11021811513D
libRbt.so/2013.1/901 2013/11/27
 10 11  0  0  0  0  0  0  0  0999 V2000
  -30.2235   16.9831  -14.9597 N   0  0  0  0  0  0  0  0  0  0  0  0
  -31.0347   18.0364  -14.7942 C   0  0  0  0  0  0  0  0  0  0  0  0
  -31.4463   18.9279  -15.6950 N   0  0  0  0  0  0  0  0  0  0  0  0
  -30.9292   18.6571  -16.9042 C   0  0  0  0  0  0  0  0  0  0  0  0
  -30.0807   17.6150  -17.2291 C   0  0  0  0  0  0  0  0  0  0  0  0
  -29.7199   16.7373  -16.1869 C   0  0  0  0  0  0  0  0  0  0  0  0
  -28.9090   15.6881  -16.3563 N   0  0  0  0  0  0  0  0  0  0  0  0
  -29.7542   17.6506  -18.5741 N   0  0  0  0  0  0  0  0  0  0  0  0
  -30.3998   18.6997  -19.0270 C   0  0  0  0  0  0  0  0  0  0  0  0
  -31.1286   19.3536  -18.0724 N   0  0  0  0  0  0  0  0  0  0  0  0
  1  2  2  0  0  0  0
  1  6  1  0  0  0  0
  2  3  1  0  0  0  0
  3  4  2  0  0  0  0
  4  5  1  0  0  0  0
  4 10  1  0  0  0  0
  5  6  2  0  0  0  0
  5  8  1  0  0  0  0
  6  7  1  0  0  0  0
  8  9  1  0  0  0  0
  9 10  2  0  0  0  0
M  END
>  <CHROM.1>
-30.35721578,17.82611178,-16.77618095,1.27073055,-0.91104861,1.91865909

>  <Name>
ligand

>  <RI>
0

>  <Rbt.Current_Directory>
/home/itssahil/PROJECTS/Mol_Feturizer/New_Systems/rnas/4TZX

>  <Rbt.Executable>
rbdock ($Id: //depot/dev/client3/rdock/2013.1/src/exe/rbdock.cxx#4 $)

>  <Rbt.Library>
libRbt.so (2013.1, Build901 2013/11/27)

>  <Rbt.Parameter_File>
/export/apps/rDock/src/rDock_2013.1_src/data/scripts/dock_solv.prm

>  <Rbt.Receptor>
prm/blind_docking_100.prm

>  <SCORE>
-14.3782

>  <SCORE.INTER>
-14.3782

>  <SCORE.INTER.CONST>
1

>  <SCORE.INTER.POLAR>
0

>  <SCORE.INTER.ROT>
0

>  <SCORE.INTER.SOLV>
8.277

>  <SCORE.INTER.VDW>
-15.9445

>  <SCORE.INTER.norm>
-1.43782

>  <SCORE.INTRA>
0

>  <SCORE.INTRA.DIHEDRAL>
0

>  <SCORE.INTRA.DIHEDRAL.0>
0

>  <SCORE.INTRA.POLAR>
0

>  <SCORE.INTRA.POLAR.0>
0

>  <SCORE.INTRA.REPUL>
0

>  <SCORE.INTRA.REPUL.0>
0

>  <SCORE.INTRA.SOLV>
0

>  <SCORE.INTRA.SOLV.lig_0>
-23.8949

>  <SCORE.INTRA.VDW>
0

>  <SCORE.INTRA.VDW.0>
0

>  <SCORE.INTRA.norm>
0

>  <SCORE.RESTR>
0

>  <SCORE.RESTR.CAVITY>
0

>  <SCORE.RESTR.norm>
0

>  <SCORE.SYSTEM>
0

>  <SCORE.SYSTEM.CONST>
0

>  <SCORE.SYSTEM.DIHEDRAL>
0

>  <SCORE.SYSTEM.SOLV>
0

>  <SCORE.SYSTEM.norm>
0

>  <SCORE.heavy>
10

>  <SCORE.norm>
-1.43782

>  <RMSD>
0.407

$$$$
ligand
 OpenBabel11021811513D
libRbt.so/2013.1/901 2013/11/27
 10 11  0  0  0  0  0  0  0  0999 V2000
  -30.2079   16.9930  -14.9525 N   0  0  0  0  0  0  0  0  0  0  0  0
  -31.0270   18.0404  -14.7895 C   0  0  0  0  0  0  0  0  0  0  0  0
  -31.4472   18.9253  -15.6928 N   0  0  0  0  0  0  0  0  0  0  0  0
  -30.9300   18.6541  -16.9019 C   0  0  0  0  0  0  0  0  0  0  0  0
  -30.0739   17.6176  -17.2245 C   0  0  0  0  0  0  0  0  0  0  0  0
  -29.7043   16.7466  -16.1797 C   0  0  0  0  0  0  0  0  0  0  0  0
  -28.8855   15.7032  -16.3466 N   0  0  0  0  0  0  0  0  0  0  0  0
  -29.7499   17.6508  -18.5701 N   0  0  0  0  0  0  0  0  0  0  0  0
  -30.4045   18.6931  -19.0258 C   0  0  0  0  0  0  0  0  0  0  0  0
  -31.1369   19.3448  -18.0724 N   0  0  0  0  0  0  0  0  0  0  0  0
  1  2  2  0  0  0  0
  1  6  1  0  0  0  0
  2  3  1  0  0  0  0
  3  4  2  0  0  0  0
  4  5  1  0  0  0  0
  4 10  1  0  0  0  0
  5  6  2  0  0  0  0
  5  8  1  0  0  0  0
  6  7  1  0  0  0  0
  8  9  1  0  0  0  0
  9 10  2  0  0  0  0
M  END
>  <CHROM.1>
-30.35124054,17.82819423,-16.77184369,1.26382245,-0.90419717,1.90955659

>  <Name>
ligand

>  <RI>
0

>  <Rbt.Current_Directory>
/home/itssahil/PROJECTS/Mol_Feturizer/New_Systems/rnas/4TZX

>  <Rbt.Executable>
rbdock ($Id: //depot/dev/client3/rdock/2013.1/src/exe/rbdock.cxx#4 $)

>  <Rbt.Library>
libRbt.so (2013.1, Build901 2013/11/27)

>  <Rbt.Parameter_File>
/export/apps/rDock/src/rDock_2013.1_src/data/scripts/dock_solv.prm

>  <Rbt.Receptor>
prm/blind_docking_100.prm

>  <SCORE>
-14.3776

>  <SCORE.INTER>
-14.3776

>  <SCORE.INTER.CONST>
1

>  <SCORE.INTER.POLAR>
0

>  <SCORE.INTER.ROT>
0

>  <SCORE.INTER.SOLV>
8.17622

>  <SCORE.INTER.VDW>
-15.9105

>  <SCORE.INTER.norm>
-1.43776

>  <SCORE.INTRA>
0

>  <SCORE.INTRA.DIHEDRAL>
0

>  <SCORE.INTRA.DIHEDRAL.0>
0

>  <SCORE.INTRA.POLAR>
0

>  <SCORE.INTRA.POLAR.0>
0

>  <SCORE.INTRA.REPUL>
0

>  <SCORE.INTRA.REPUL.0>
0

>  <SCORE.INTRA.SOLV>
0

>  <SCORE.INTRA.SOLV.lig_0>
-23.8949

>  <SCORE.INTRA.VDW>
0

>  <SCORE.INTRA.VDW.0>
0

>  <SCORE.INTRA.norm>
0

>  <SCORE.RESTR>
0

>  <SCORE.RESTR.CAVITY>
0

>  <SCORE.RESTR.norm>
0

>  <SCORE.SYSTEM>
0

>  <SCORE.SYSTEM.CONST>
0

>  <SCORE.SYSTEM.DIHEDRAL>
0

>  <SCORE.SYSTEM.SOLV>
0

>  <SCORE.SYSTEM.norm>
0

>  <SCORE.heavy>
10

>  <SCORE.norm>
-1.43776

>  <RMSD>
0.407

$$$$
ligand
 OpenBabel11021811513D
libRbt.so/2013.1/901 2013/11/27
 10 11  0  0  0  0  0  0  0  0999 V2000
  -30.2057   17.0256  -14.9350 N   0  0  0  0  0  0  0  0  0  0  0  0
  -31.0452   18.0592  -14.7876 C   0  0  0  0  0  0  0  0  0  0  0  0
  -31.4774   18.9260  -15.7027 N   0  0  0  0  0  0  0  0  0  0  0  0
  -30.9492   18.6513  -16.9062 C   0  0  0  0  0  0  0  0  0  0  0  0
  -30.0722   17.6275  -17.2131 C   0  0  0  0  0  0  0  0  0  0  0  0
  -29.6916   16.7752  -16.1569 C   0  0  0  0  0  0  0  0  0  0  0  0
  -28.8525   15.7456  -16.3084 N   0  0  0  0  0  0  0  0  0  0  0  0
  -29.7423   17.6520  -18.5575 N   0  0  0  0  0  0  0  0  0  0  0  0
  -30.4140   18.6767  -19.0278 C   0  0  0  0  0  0  0  0  0  0  0  0
  -31.1631   19.3250  -18.0852 N   0  0  0  0  0  0  0  0  0  0  0  0
  1  2  2  0  0  0  0
  1  6  1  0  0  0  0
  2  3  1  0  0  0  0
  3  4  2  0  0  0  0
  4  5  1  0  0  0  0
  4 10  1  0  0  0  0
  5  6  2  0  0  0  0
  5  8  1  0  0  0  0
  6  7  1  0  0  0  0
  8  9  1  0  0  0  0
  9 10  2  0  0  0  0
M  END
>  <CHROM.1>
-30.35569965,17.83786723,-16.76417248,1.26137001,-0.88487110,1.89656472

>  <Name>
ligand

>  <RI>
0

>  <Rbt.Current_Directory>
/home/itssahil/PROJECTS/Mol_Feturizer/New_Systems/rnas/4TZX

>  <Rbt.Executable>
rbdock ($Id: //depot/dev/client3/rdock/2013.1/src/exe/rbdock.cxx#4 $)

>  <Rbt.Library>
libRbt.so (2013.1, Build901 2013/11/27)

>  <Rbt.Parameter_File>
/export/apps/rDock/src/rDock_2013.1_src/data/scripts/dock_solv.prm

>  <Rbt.Receptor>
prm/blind_docking_60.prm

>  <SCORE>
-14.3777

>  <SCORE.INTER>
-14.3777

>  <SCORE.INTER.CONST>
1

>  <SCORE.INTER.POLAR>
0

>  <SCORE.INTER.ROT>
0

>  <SCORE.INTER.SOLV>
7.96023

>  <SCORE.INTER.VDW>
-15.8385

>  <SCORE.INTER.norm>
-1.43777

>  <SCORE.INTRA>
0

>  <SCORE.INTRA.DIHEDRAL>
0

>  <SCORE.INTRA.DIHEDRAL.0>
0

>  <SCORE.INTRA.POLAR>
0

>  <SCORE.INTRA.POLAR.0>
0

>  <SCORE.INTRA.REPUL>
0

>  <SCORE.INTRA.REPUL.0>
0

>  <SCORE.INTRA.SOLV>
0

>  <SCORE.INTRA.SOLV.lig_0>
-23.8949

>  <SCORE.INTRA.VDW>
0

>  <SCORE.INTRA.VDW.0>
0

>  <SCORE.INTRA.norm>
0

>  <SCORE.RESTR>
0

>  <SCORE.RESTR.CAVITY>
0

>  <SCORE.RESTR.norm>
0

>  <SCORE.SYSTEM>
0

>  <SCORE.SYSTEM.CONST>
0

>  <SCORE.SYSTEM.DIHEDRAL>
0

>  <SCORE.SYSTEM.SOLV>
0

>  <SCORE.SYSTEM.norm>
0

>  <SCORE.heavy>
10

>  <SCORE.norm>
-1.43777

>  <RMSD>
0.407

$$$$
ligand
 OpenBabel11021811513D
libRbt.so/2013.1/901 2013/11/27
 10 11  0  0  0  0  0  0  0  0999 V2000
  -30.2148   16.9965  -14.9542 N   0  0  0  0  0  0  0  0  0  0  0  0
  -31.0359   18.0435  -14.7983 C   0  0  0  0  0  0  0  0  0  0  0  0
  -31.4537   18.9244  -15.7065 N   0  0  0  0  0  0  0  0  0  0  0  0
  -30.9314   18.6495  -16.9125 C   0  0  0  0  0  0  0  0  0  0  0  0
  -30.0727   17.6129  -17.2279 C   0  0  0  0  0  0  0  0  0  0  0  0
  -29.7061   16.7463  -16.1784 C   0  0  0  0  0  0  0  0  0  0  0  0
  -28.8853   15.7033  -16.3383 N   0  0  0  0  0  0  0  0  0  0  0  0
  -29.7435   17.6416  -18.5724 N   0  0  0  0  0  0  0  0  0  0  0  0
  -30.3977   18.6814  -19.0344 C   0  0  0  0  0  0  0  0  0  0  0  0
  -31.1345   19.3356  -18.0863 N   0  0  0  0  0  0  0  0  0  0  0  0
  1  2  2  0  0  0  0
  1  6  1  0  0  0  0
  2  3  1  0  0  0  0
  3  4  2  0  0  0  0
  4  5  1  0  0  0  0
  4 10  1  0  0  0  0
  5  6  2  0  0  0  0
  5  8  1  0  0  0  0
  6  7  1  0  0  0  0
  8  9  1  0  0  0  0
  9 10  2  0  0  0  0
M  END
>  <CHROM.1>
-30.35209210,17.82480817,-16.77713650,1.26910257,-0.90167388,1.91000940

>  <Name>
ligand

>  <RI>
0

>  <Rbt.Current_Directory>
/home/itssahil/PROJECTS/Mol_Feturizer/New_Systems/rnas/4TZX

>  <Rbt.Executable>
rbdock ($Id: //depot/dev/client3/rdock/2013.1/src/exe/rbdock.cxx#4 $)

>  <Rbt.Library>
libRbt.so (2013.1, Build901 2013/11/27)

>  <Rbt.Parameter_File>
/export/apps/rDock/src/rDock_2013.1_src/data/scripts/dock_solv.prm

>  <Rbt.Receptor>
prm/blind_docking_60.prm

>  <SCORE>
-14.3745

>  <SCORE.INTER>
-14.3745

>  <SCORE.INTER.CONST>
1

>  <SCORE.INTER.POLAR>
0

>  <SCORE.INTER.ROT>
0

>  <SCORE.INTER.SOLV>
8.16604

>  <SCORE.INTER.VDW>
-15.905

>  <SCORE.INTER.norm>
-1.43745

>  <SCORE.INTRA>
0

>  <SCORE.INTRA.DIHEDRAL>
0

>  <SCORE.INTRA.DIHEDRAL.0>
0

>  <SCORE.INTRA.POLAR>
0

>  <SCORE.INTRA.POLAR.0>
0

>  <SCORE.INTRA.REPUL>
0

>  <SCORE.INTRA.REPUL.0>
0

>  <SCORE.INTRA.SOLV>
0

>  <SCORE.INTRA.SOLV.lig_0>
-23.8949

>  <SCORE.INTRA.VDW>
0

>  <SCORE.INTRA.VDW.0>
0

>  <SCORE.INTRA.norm>
0

>  <SCORE.RESTR>
0

>  <SCORE.RESTR.CAVITY>
0

>  <SCORE.RESTR.norm>
0

>  <SCORE.SYSTEM>
0

>  <SCORE.SYSTEM.CONST>
0

>  <SCORE.SYSTEM.DIHEDRAL>
0

>  <SCORE.SYSTEM.SOLV>
0

>  <SCORE.SYSTEM.norm>
0

>  <SCORE.heavy>
10

>  <SCORE.norm>
-1.43745

>  <RMSD>
0.407

$$$$
ligand
 OpenBabel11021811513D
libRbt.so/2013.1/901 2013/11/27
 10 11  0  0  0  0  0  0  0  0999 V2000
  -30.1837   17.0272  -14.9256 N   0  0  0  0  0  0  0  0  0  0  0  0
  -31.0245   18.0579  -14.7659 C   0  0  0  0  0  0  0  0  0  0  0  0
  -31.4674   18.9275  -15.6732 N   0  0  0  0  0  0  0  0  0  0  0  0
  -30.9496   18.6595  -16.8827 C   0  0  0  0  0  0  0  0  0  0  0  0
  -30.0727   17.6394  -17.2022 C   0  0  0  0  0  0  0  0  0  0  0  0
  -29.6802   16.7836  -16.1533 C   0  0  0  0  0  0  0  0  0  0  0  0
  -28.8398   15.7569  -16.3170 N   0  0  0  0  0  0  0  0  0  0  0  0
  -29.7552   17.6707  -18.5494 N   0  0  0  0  0  0  0  0  0  0  0  0
  -30.4340   18.6957  -19.0090 C   0  0  0  0  0  0  0  0  0  0  0  0
  -31.1761   19.3378  -18.0567 N   0  0  0  0  0  0  0  0  0  0  0  0
  1  2  2  0  0  0  0
  1  6  1  0  0  0  0
  2  3  1  0  0  0  0
  3  4  2  0  0  0  0
  4  5  1  0  0  0  0
  4 10  1  0  0  0  0
  5  6  2  0  0  0  0
  5  8  1  0  0  0  0
  6  7  1  0  0  0  0
  8  9  1  0  0  0  0
  9 10  2  0  0  0  0
M  END
>  <CHROM.1>
-30.35265394,17.84705707,-16.74972504,1.24631111,-0.88522940,1.88931675

>  <Name>
ligand

>  <RI>
0

>  <Rbt.Current_Directory>
/home/itssahil/PROJECTS/Mol_Feturizer/New_Systems/rnas/4TZX

>  <Rbt.Executable>
rbdock ($Id: //depot/dev/client3/rdock/2013.1/src/exe/rbdock.cxx#4 $)

>  <Rbt.Library>
libRbt.so (2013.1, Build901 2013/11/27)

>  <Rbt.Parameter_File>
/export/apps/rDock/src/rDock_2013.1_src/data/scripts/dock_solv.prm

>  <Rbt.Receptor>
prm/pocket_docking_4.prm

>  <SCORE>
-14.3813

>  <SCORE.INTER>
-14.3813

>  <SCORE.INTER.CONST>
1

>  <SCORE.INTER.POLAR>
0

>  <SCORE.INTER.ROT>
0

>  <SCORE.INTER.SOLV>
7.91295

>  <SCORE.INTER.VDW>
-15.8252

>  <SCORE.INTER.norm>
-1.43813

>  <SCORE.INTRA>
0

>  <SCORE.INTRA.DIHEDRAL>
0

>  <SCORE.INTRA.DIHEDRAL.0>
0

>  <SCORE.INTRA.POLAR>
0

>  <SCORE.INTRA.POLAR.0>
0

>  <SCORE.INTRA.REPUL>
0

>  <SCORE.INTRA.REPUL.0>
0

>  <SCORE.INTRA.SOLV>
0

>  <SCORE.INTRA.SOLV.lig_0>
-23.8949

>  <SCORE.INTRA.VDW>
0

>  <SCORE.INTRA.VDW.0>
0

>  <SCORE.INTRA.norm>
0

>  <SCORE.RESTR>
0

>  <SCORE.RESTR.CAVITY>
0

>  <SCORE.RESTR.norm>
0

>  <SCORE.SYSTEM>
0

>  <SCORE.SYSTEM.CONST>
0

>  <SCORE.SYSTEM.DIHEDRAL>
0

>  <SCORE.SYSTEM.SOLV>
0

>  <SCORE.SYSTEM.norm>
0

>  <SCORE.heavy>
10

>  <SCORE.norm>
-1.43813

>  <RMSD>
0.407

$$$$
ligand
 OpenBabel11021811513D
libRbt.so/2013.1/901 2013/11/27
 10 11  0  0  0  0  0  0  0  0999 V2000
  -30.2511   16.9918  -14.9591 N   0  0  0  0  0  0  0  0  0  0  0  0
  -31.0494   18.0554  -14.7972 C   0  0  0  0  0  0  0  0  0  0  0  0
  -31.4459   18.9517  -15.7000 N   0  0  0  0  0  0  0  0  0  0  0  0
  -30.9273   18.6740  -16.9069 C   0  0  0  0  0  0  0  0  0  0  0  0
  -30.0908   17.6210  -17.2281 C   0  0  0  0  0  0  0  0  0  0  0  0
  -29.7455   16.7392  -16.1841 C   0  0  0  0  0  0  0  0  0  0  0  0
  -28.9474   15.6796  -16.3499 N   0  0  0  0  0  0  0  0  0  0  0  0
  -29.7583   17.6521  -18.5716 N   0  0  0  0  0  0  0  0  0  0  0  0
  -30.3886   18.7092  -19.0275 C   0  0  0  0  0  0  0  0  0  0  0  0
  -31.1129   19.3727  -18.0761 N   0  0  0  0  0  0  0  0  0  0  0  0
  1  2  2  0  0  0  0
  1  6  1  0  0  0  0
  2  3  1  0  0  0  0
  3  4  2  0  0  0  0
  4  5  1  0  0  0  0
  4 10  1  0  0  0  0
  5  6  2  0  0  0  0
  5  8  1  0  0  0  0
  6  7  1  0  0  0  0
  8  9  1  0  0  0  0
  9 10  2  0  0  0  0
M  END
>  <CHROM.1>
-30.36644360,17.83583549,-16.77630853,1.28439454,-0.92158872,1.92922816

>  <Name>
ligand

>  <RI>
0

>  <Rbt.Current_Directory>
/home/itssahil/PROJECTS/Mol_Feturizer/New_Systems/rnas/4TZX

>  <Rbt.Executable>
rbdock ($Id: //depot/dev/client3/rdock/2013.1/src/exe/rbdock.cxx#4 $)

>  <Rbt.Library>
libRbt.so (2013.1, Build901 2013/11/27)

>  <Rbt.Parameter_File>
/export/apps/rDock/src/rDock_2013.1_src/data/scripts/dock_solv.prm

>  <Rbt.Receptor>
prm/pocket_docking_4.prm

>  <SCORE>
-14.3728

>  <SCORE.INTER>
-14.3728

>  <SCORE.INTER.CONST>
1

>  <SCORE.INTER.POLAR>
0

>  <SCORE.INTER.ROT>
0

>  <SCORE.INTER.SOLV>
8.38734

>  <SCORE.INTER.VDW>
-15.9776

>  <SCORE.INTER.norm>
-1.43728

>  <SCORE.INTRA>
0

>  <SCORE.INTRA.DIHEDRAL>
0

>  <SCORE.INTRA.DIHEDRAL.0>
0

>  <SCORE.INTRA.POLAR>
0

>  <SCORE.INTRA.POLAR.0>
0

>  <SCORE.INTRA.REPUL>
0

>  <SCORE.INTRA.REPUL.0>
0

>  <SCORE.INTRA.SOLV>
0

>  <SCORE.INTRA.SOLV.lig_0>
-23.8949

>  <SCORE.INTRA.VDW>
0

>  <SCORE.INTRA.VDW.0>
0

>  <SCORE.INTRA.norm>
0

>  <SCORE.RESTR>
0

>  <SCORE.RESTR.CAVITY>
0

>  <SCORE.RESTR.norm>
0

>  <SCORE.SYSTEM>
0

>  <SCORE.SYSTEM.CONST>
0

>  <SCORE.SYSTEM.DIHEDRAL>
0

>  <SCORE.SYSTEM.SOLV>
0

>  <SCORE.SYSTEM.norm>
0

>  <SCORE.heavy>
10

>  <SCORE.norm>
-1.43728

>  <RMSD>
0.407

$$$$
ligand
 OpenBabel11021811513D
libRbt.so/2013.1/901 2013/11/27
 10 11  0  0  0  0  0  0  0  0999 V2000
  -30.2340   16.9915  -14.9581 N   0  0  0  0  0  0  0  0  0  0  0  0
  -31.0420   18.0481  -14.7976 C   0  0  0  0  0  0  0  0  0  0  0  0
  -31.4480   18.9387  -15.7017 N   0  0  0  0  0  0  0  0  0  0  0  0
  -30.9284   18.6630  -16.9088 C   0  0  0  0  0  0  0  0  0  0  0  0
  -30.0827   17.6171  -17.2287 C   0  0  0  0  0  0  0  0  0  0  0  0
  -29.7279   16.7408  -16.1833 C   0  0  0  0  0  0  0  0  0  0  0  0
  -28.9202   15.6883  -16.3478 N   0  0  0  0  0  0  0  0  0  0  0  0
  -29.7524   17.6482  -18.5729 N   0  0  0  0  0  0  0  0  0  0  0  0
  -30.3930   18.6984  -19.0302 C   0  0  0  0  0  0  0  0  0  0  0  0
  -31.1221   19.3573  -18.0793 N   0  0  0  0  0  0  0  0  0  0  0  0
  1  2  2  0  0  0  0
  1  6  1  0  0  0  0
  2  3  1  0  0  0  0
  3  4  2  0  0  0  0
  4  5  1  0  0  0  0
  4 10  1  0  0  0  0
  5  6  2  0  0  0  0
  5  8  1  0  0  0  0
  6  7  1  0  0  0  0
  8  9  1  0  0  0  0
  9 10  2  0  0  0  0
M  END
>  <CHROM.1>
-30.35972599,17.83038016,-16.77709610,1.27696258,-0.91340810,1.92106589

>  <Name>
ligand

>  <RI>
0

>  <Rbt.Current_Directory>
/home/itssahil/PROJECTS/Mol_Feturizer/New_Systems/rnas/4TZX

>  <Rbt.Executable>
rbdock ($Id: //depot/dev/client3/rdock/2013.1/src/exe/rbdock.cxx#4 $)

>  <Rbt.Library>
libRbt.so (2013.1, Build901 2013/11/27)

>  <Rbt.Parameter_File>
/export/apps/rDock/src/rDock_2013.1_src/data/scripts/dock_solv.prm

>  <Rbt.Receptor>
prm/pocket_docking_4.prm

>  <SCORE>
-14.3752

>  <SCORE.INTER>
-14.3752

>  <SCORE.INTER.CONST>
1

>  <SCORE.INTER.POLAR>
0

>  <SCORE.INTER.ROT>
0

>  <SCORE.INTER.SOLV>
8.29765

>  <SCORE.INTER.VDW>
-15.9493

>  <SCORE.INTER.norm>
-1.43752

>  <SCORE.INTRA>
0

>  <SCORE.INTRA.DIHEDRAL>
0

>  <SCORE.INTRA.DIHEDRAL.0>
0

>  <SCORE.INTRA.POLAR>
0

>  <SCORE.INTRA.POLAR.0>
0

>  <SCORE.INTRA.REPUL>
0

>  <SCORE.INTRA.REPUL.0>
0

>  <SCORE.INTRA.SOLV>
0

>  <SCORE.INTRA.SOLV.lig_0>
-23.8949

>  <SCORE.INTRA.VDW>
0

>  <SCORE.INTRA.VDW.0>
0

>  <SCORE.INTRA.norm>
0

>  <SCORE.RESTR>
0

>  <SCORE.RESTR.CAVITY>
0

>  <SCORE.RESTR.norm>
0

>  <SCORE.SYSTEM>
0

>  <SCORE.SYSTEM.CONST>
0

>  <SCORE.SYSTEM.DIHEDRAL>
0

>  <SCORE.SYSTEM.SOLV>
0

>  <SCORE.SYSTEM.norm>
0

>  <SCORE.heavy>
10

>  <SCORE.norm>
-1.43752

>  <RMSD>
0.407

$$$$
ligand
 OpenBabel11021811513D
libRbt.so/2013.1/901 2013/11/27
 10 11  0  0  0  0  0  0  0  0999 V2000
  -30.1593   17.0339  -14.9156 N   0  0  0  0  0  0  0  0  0  0  0  0
  -31.0064   18.0595  -14.7567 C   0  0  0  0  0  0  0  0  0  0  0  0
  -31.4580   18.9231  -15.6655 N   0  0  0  0  0  0  0  0  0  0  0  0
  -30.9422   18.6544  -16.8758 C   0  0  0  0  0  0  0  0  0  0  0  0
  -30.0596   17.6390  -17.1946 C   0  0  0  0  0  0  0  0  0  0  0  0
  -29.6581   16.7894  -16.1441 C   0  0  0  0  0  0  0  0  0  0  0  0
  -28.8115   15.7677  -16.3069 N   0  0  0  0  0  0  0  0  0  0  0  0
  -29.7466   17.6678  -18.5429 N   0  0  0  0  0  0  0  0  0  0  0  0
  -30.4337   18.6867  -19.0039 C   0  0  0  0  0  0  0  0  0  0  0  0
  -31.1770   19.3272  -18.0514 N   0  0  0  0  0  0  0  0  0  0  0  0
  1  2  2  0  0  0  0
  1  6  1  0  0  0  0
  2  3  1  0  0  0  0
  3  4  2  0  0  0  0
  4  5  1  0  0  0  0
  4 10  1  0  0  0  0
  5  6  2  0  0  0  0
  5  8  1  0  0  0  0
  6  7  1  0  0  0  0
  8  9  1  0  0  0  0
  9 10  2  0  0  0  0
M  END
>  <CHROM.1>
-30.33951270,17.84634885,-16.74195841,1.23829354,-0.87993280,1.87969597

>  <Name>
ligand

>  <RI>
0

>  <Rbt.Current_Directory>
/home/itssahil/PROJECTS/Mol_Feturizer/New_Systems/rnas/4TZX

>  <Rbt.Executable>
rbdock ($Id: //depot/dev/client3/rdock/2013.1/src/exe/rbdock.cxx#4 $)

>  <Rbt.Library>
libRbt.so (2013.1, Build901 2013/11/27)

>  <Rbt.Parameter_File>
/export/apps/rDock/src/rDock_2013.1_src/data/scripts/dock_solv.prm

>  <Rbt.Receptor>
prm/pocket_docking_5.prm

>  <SCORE>
-14.3796

>  <SCORE.INTER>
-14.3796

>  <SCORE.INTER.CONST>
1

>  <SCORE.INTER.POLAR>
0

>  <SCORE.INTER.ROT>
0

>  <SCORE.INTER.SOLV>
7.81381

>  <SCORE.INTER.VDW>
-15.791

>  <SCORE.INTER.norm>
-1.43796

>  <SCORE.INTRA>
0

>  <SCORE.INTRA.DIHEDRAL>
0

>  <SCORE.INTRA.DIHEDRAL.0>
0

>  <SCORE.INTRA.POLAR>
0

>  <SCORE.INTRA.POLAR.0>
0

>  <SCORE.INTRA.REPUL>
0

>  <SCORE.INTRA.REPUL.0>
0

>  <SCORE.INTRA.SOLV>
0

>  <SCORE.INTRA.SOLV.lig_0>
-23.8949

>  <SCORE.INTRA.VDW>
0

>  <SCORE.INTRA.VDW.0>
0

>  <SCORE.INTRA.norm>
0

>  <SCORE.RESTR>
0

>  <SCORE.RESTR.CAVITY>
0

>  <SCORE.RESTR.norm>
0

>  <SCORE.SYSTEM>
0

>  <SCORE.SYSTEM.CONST>
0

>  <SCORE.SYSTEM.DIHEDRAL>
0

>  <SCORE.SYSTEM.SOLV>
0

>  <SCORE.SYSTEM.norm>
0

>  <SCORE.heavy>
10

>  <SCORE.norm>
-1.43796

>  <RMSD>
0.407

$$$$
ligand
 OpenBabel11021811513D
libRbt.so/2013.1/901 2013/11/27
 10 11  0  0  0  0  0  0  0  0999 V2000
  -30.1759   17.0305  -14.9223 N   0  0  0  0  0  0  0  0  0  0  0  0
  -31.0199   18.0586  -14.7631 C   0  0  0  0  0  0  0  0  0  0  0  0
  -31.4675   18.9248  -15.6714 N   0  0  0  0  0  0  0  0  0  0  0  0
  -30.9512   18.6560  -16.8813 C   0  0  0  0  0  0  0  0  0  0  0  0
  -30.0714   17.6382  -17.2003 C   0  0  0  0  0  0  0  0  0  0  0  0
  -29.6739   16.7860  -16.1504 C   0  0  0  0  0  0  0  0  0  0  0  0
  -28.8303   15.7618  -16.3135 N   0  0  0  0  0  0  0  0  0  0  0  0
  -29.7567   17.6677  -18.5482 N   0  0  0  0  0  0  0  0  0  0  0  0
  -30.4399   18.6893  -19.0087 C   0  0  0  0  0  0  0  0  0  0  0  0
  -31.1824   19.3310  -18.0563 N   0  0  0  0  0  0  0  0  0  0  0  0
  1  2  2  0  0  0  0
  1  6  1  0  0  0  0
  2  3  1  0  0  0  0
  3  4  2  0  0  0  0
  4  5  1  0  0  0  0
  4 10  1  0  0  0  0
  5  6  2  0  0  0  0
  5  8  1  0  0  0  0
  6  7  1  0  0  0  0
  8  9  1  0  0  0  0
  9 10  2  0  0  0  0
M  END
>  <CHROM.1>
-30.35119670,17.84584931,-16.74778062,1.24165572,-0.88257812,1.88356237

>  <Name>
ligand

>  <RI>
0

>  <Rbt.Current_Directory>
/home/itssahil/PROJECTS/Mol_Feturizer/New_Systems/rnas/4TZX

>  <Rbt.Executable>
rbdock ($Id: //depot/dev/client3/rdock/2013.1/src/exe/rbdock.cxx#4 $)

>  <Rbt.Library>
libRbt.so (2013.1, Build901 2013/11/27)

>  <Rbt.Parameter_File>
/export/apps/rDock/src/rDock_2013.1_src/data/scripts/dock_solv.prm

>  <Rbt.Receptor>
prm/pocket_docking_5.prm

>  <SCORE>
-14.3799

>  <SCORE.INTER>
-14.3799

>  <SCORE.INTER.CONST>
1

>  <SCORE.INTER.POLAR>
0

>  <SCORE.INTER.ROT>
0

>  <SCORE.INTER.SOLV>
7.87291

>  <SCORE.INTER.VDW>
-15.8109

>  <SCORE.INTER.norm>
-1.43799

>  <SCORE.INTRA>
0

>  <SCORE.INTRA.DIHEDRAL>
0

>  <SCORE.INTRA.DIHEDRAL.0>
0

>  <SCORE.INTRA.POLAR>
0

>  <SCORE.INTRA.POLAR.0>
0

>  <SCORE.INTRA.REPUL>
0

>  <SCORE.INTRA.REPUL.0>
0

>  <SCORE.INTRA.SOLV>
0

>  <SCORE.INTRA.SOLV.lig_0>
-23.8949

>  <SCORE.INTRA.VDW>
0

>  <SCORE.INTRA.VDW.0>
0

>  <SCORE.INTRA.norm>
0

>  <SCORE.RESTR>
0

>  <SCORE.RESTR.CAVITY>
0

>  <SCORE.RESTR.norm>
0

>  <SCORE.SYSTEM>
0

>  <SCORE.SYSTEM.CONST>
0

>  <SCORE.SYSTEM.DIHEDRAL>
0

>  <SCORE.SYSTEM.SOLV>
0

>  <SCORE.SYSTEM.norm>
0

>  <SCORE.heavy>
10

>  <SCORE.norm>
-1.43799

>  <RMSD>
0.407

$$$$
ligand
 OpenBabel11021811513D
libRbt.so/2013.1/901 2013/11/27
 10 11  0  0  0  0  0  0  0  0999 V2000
  -30.2005   16.9982  -14.9492 N   0  0  0  0  0  0  0  0  0  0  0  0
  -31.0227   18.0437  -14.7887 C   0  0  0  0  0  0  0  0  0  0  0  0
  -31.4469   18.9241  -15.6945 N   0  0  0  0  0  0  0  0  0  0  0  0
  -30.9305   18.6503  -16.9033 C   0  0  0  0  0  0  0  0  0  0  0  0
  -30.0715   17.6153  -17.2235 C   0  0  0  0  0  0  0  0  0  0  0  0
  -29.6979   16.7492  -16.1761 C   0  0  0  0  0  0  0  0  0  0  0  0
  -28.8760   15.7077  -16.3406 N   0  0  0  0  0  0  0  0  0  0  0  0
  -29.7495   17.6449  -18.5696 N   0  0  0  0  0  0  0  0  0  0  0  0
  -30.4080   18.6836  -19.0280 C   0  0  0  0  0  0  0  0  0  0  0  0
  -31.1411   19.3363  -18.0759 N   0  0  0  0  0  0  0  0  0  0  0  0
  1  2  2  0  0  0  0
  1  6  1  0  0  0  0
  2  3  1  0  0  0  0
  3  4  2  0  0  0  0
  4  5  1  0  0  0  0
  4 10  1  0  0  0  0
  5  6  2  0  0  0  0
  5  8  1  0  0  0  0
  6  7  1  0  0  0  0
  8  9  1  0  0  0  0
  9 10  2  0  0  0  0
M  END
>  <CHROM.1>
-30.34897763,17.82664268,-16.77119796,1.26010827,-0.90170132,1.90316182

>  <Name>
ligand

>  <RI>
0

>  <Rbt.Current_Directory>
/home/itssahil/PROJECTS/Mol_Feturizer/New_Systems/rnas/4TZX

>  <Rbt.Executable>
rbdock ($Id: //depot/dev/client3/rdock/2013.1/src/exe/rbdock.cxx#4 $)

>  <Rbt.Library>
libRbt.so (2013.1, Build901 2013/11/27)

>  <Rbt.Parameter_File>
/export/apps/rDock/src/rDock_2013.1_src/data/scripts/dock_solv.prm

>  <Rbt.Receptor>
prm/pocket_docking_6.prm

>  <SCORE>
-14.3747

>  <SCORE.INTER>
-14.3747

>  <SCORE.INTER.CONST>
1

>  <SCORE.INTER.POLAR>
0

>  <SCORE.INTER.ROT>
0

>  <SCORE.INTER.SOLV>
8.13413

>  <SCORE.INTER.VDW>
-15.8945

>  <SCORE.INTER.norm>
-1.43747

>  <SCORE.INTRA>
0

>  <SCORE.INTRA.DIHEDRAL>
0

>  <SCORE.INTRA.DIHEDRAL.0>
0

>  <SCORE.INTRA.POLAR>
0

>  <SCORE.INTRA.POLAR.0>
0

>  <SCORE.INTRA.REPUL>
0

>  <SCORE.INTRA.REPUL.0>
0

>  <SCORE.INTRA.SOLV>
0

>  <SCORE.INTRA.SOLV.lig_0>
-23.8949

>  <SCORE.INTRA.VDW>
0

>  <SCORE.INTRA.VDW.0>
0

>  <SCORE.INTRA.norm>
0

>  <SCORE.RESTR>
0

>  <SCORE.RESTR.CAVITY>
0

>  <SCORE.RESTR.norm>
0

>  <SCORE.SYSTEM>
0

>  <SCORE.SYSTEM.CONST>
0

>  <SCORE.SYSTEM.DIHEDRAL>
0

>  <SCORE.SYSTEM.SOLV>
0

>  <SCORE.SYSTEM.norm>
0

>  <SCORE.heavy>
10

>  <SCORE.norm>
-1.43747

>  <RMSD>
0.407

$$$$
ligand
 OpenBabel11021811513D
libRbt.so/2013.1/901 2013/11/27
 10 11  0  0  0  0  0  0  0  0999 V2000
  -30.1660   17.0275  -14.9216 N   0  0  0  0  0  0  0  0  0  0  0  0
  -31.0093   18.0560  -14.7607 C   0  0  0  0  0  0  0  0  0  0  0  0
  -31.4578   18.9228  -15.6679 N   0  0  0  0  0  0  0  0  0  0  0  0
  -30.9433   18.6544  -16.8787 C   0  0  0  0  0  0  0  0  0  0  0  0
  -30.0645   17.6364  -17.1995 C   0  0  0  0  0  0  0  0  0  0  0  0
  -29.6659   16.7834  -16.1506 C   0  0  0  0  0  0  0  0  0  0  0  0
  -28.8231   15.7589  -16.3155 N   0  0  0  0  0  0  0  0  0  0  0  0
  -29.7517   17.6664  -18.5479 N   0  0  0  0  0  0  0  0  0  0  0  0
  -30.4350   18.6887  -19.0068 C   0  0  0  0  0  0  0  0  0  0  0  0
  -31.1758   19.3302  -18.0530 N   0  0  0  0  0  0  0  0  0  0  0  0
  1  2  2  0  0  0  0
  1  6  1  0  0  0  0
  2  3  1  0  0  0  0
  3  4  2  0  0  0  0
  4  5  1  0  0  0  0
  4 10  1  0  0  0  0
  5  6  2  0  0  0  0
  5  8  1  0  0  0  0
  6  7  1  0  0  0  0
  8  9  1  0  0  0  0
  9 10  2  0  0  0  0
M  END
>  <CHROM.1>
-30.34351946,17.84391579,-16.74646992,1.23975280,-0.88350203,1.88262779

>  <Name>
ligand

>  <RI>
0

>  <Rbt.Current_Directory>
/home/itssahil/PROJECTS/Mol_Feturizer/New_Systems/rnas/4TZX

>  <Rbt.Executable>
rbdock ($Id: //depot/dev/client3/rdock/2013.1/src/exe/rbdock.cxx#4 $)

>  <Rbt.Library>
libRbt.so (2013.1, Build901 2013/11/27)

>  <Rbt.Parameter_File>
/export/apps/rDock/src/rDock_2013.1_src/data/scripts/dock_solv.prm

>  <Rbt.Receptor>
prm/pocket_docking_6.prm

>  <SCORE>
-14.3818

>  <SCORE.INTER>
-14.3818

>  <SCORE.INTER.CONST>
1

>  <SCORE.INTER.POLAR>
0

>  <SCORE.INTER.ROT>
0

>  <SCORE.INTER.SOLV>
7.86266

>  <SCORE.INTER.VDW>
-15.8087

>  <SCORE.INTER.norm>
-1.43818

>  <SCORE.INTRA>
0

>  <SCORE.INTRA.DIHEDRAL>
0

>  <SCORE.INTRA.DIHEDRAL.0>
0

>  <SCORE.INTRA.POLAR>
0

>  <SCORE.INTRA.POLAR.0>
0

>  <SCORE.INTRA.REPUL>
0

>  <SCORE.INTRA.REPUL.0>
0

>  <SCORE.INTRA.SOLV>
0

>  <SCORE.INTRA.SOLV.lig_0>
-23.8949

>  <SCORE.INTRA.VDW>
0

>  <SCORE.INTRA.VDW.0>
0

>  <SCORE.INTRA.norm>
0

>  <SCORE.RESTR>
0

>  <SCORE.RESTR.CAVITY>
0

>  <SCORE.RESTR.norm>
0

>  <SCORE.SYSTEM>
0

>  <SCORE.SYSTEM.CONST>
0

>  <SCORE.SYSTEM.DIHEDRAL>
0

>  <SCORE.SYSTEM.SOLV>
0

>  <SCORE.SYSTEM.norm>
0

>  <SCORE.heavy>
10

>  <SCORE.norm>
-1.43818

>  <RMSD>
0.407

$$$$
ligand
 OpenBabel11021811513D
libRbt.so/2013.1/901 2013/11/27
 10 11  0  0  0  0  0  0  0  0999 V2000
  -30.2386   16.9891  -14.9594 N   0  0  0  0  0  0  0  0  0  0  0  0
  -31.0430   18.0482  -14.7983 C   0  0  0  0  0  0  0  0  0  0  0  0
  -31.4457   18.9409  -15.7019 N   0  0  0  0  0  0  0  0  0  0  0  0
  -30.9266   18.6645  -16.9089 C   0  0  0  0  0  0  0  0  0  0  0  0
  -30.0843   17.6160  -17.2294 C   0  0  0  0  0  0  0  0  0  0  0  0
  -29.7328   16.7377  -16.1846 C   0  0  0  0  0  0  0  0  0  0  0  0
  -28.9287   15.6826  -16.3496 N   0  0  0  0  0  0  0  0  0  0  0  0
  -29.7534   17.6470  -18.5734 N   0  0  0  0  0  0  0  0  0  0  0  0
  -30.3903   18.6997  -19.0302 C   0  0  0  0  0  0  0  0  0  0  0  0
  -31.1176   19.3604  -18.0790 N   0  0  0  0  0  0  0  0  0  0  0  0
  1  2  2  0  0  0  0
  1  6  1  0  0  0  0
  2  3  1  0  0  0  0
  3  4  2  0  0  0  0
  4  5  1  0  0  0  0
  4 10  1  0  0  0  0
  5  6  2  0  0  0  0
  5  8  1  0  0  0  0
  6  7  1  0  0  0  0
  8  9  1  0  0  0  0
  9 10  2  0  0  0  0
M  END
>  <CHROM.1>
-30.36078695,17.82980051,-16.77770883,1.27943298,-0.91645945,1.92382647

>  <Name>
ligand

>  <RI>
0

>  <Rbt.Current_Directory>
/home/itssahil/PROJECTS/Mol_Feturizer/New_Systems/rnas/4TZX

>  <Rbt.Executable>
rbdock ($Id: //depot/dev/client3/rdock/2013.1/src/exe/rbdock.cxx#4 $)

>  <Rbt.Library>
libRbt.so (2013.1, Build901 2013/11/27)

>  <Rbt.Parameter_File>
/export/apps/rDock/src/rDock_2013.1_src/data/scripts/dock_solv.prm

>  <Rbt.Receptor>
prm/pocket_docking_7.prm

>  <SCORE>
-14.3747

>  <SCORE.INTER>
-14.3747

>  <SCORE.INTER.CONST>
1

>  <SCORE.INTER.POLAR>
0

>  <SCORE.INTER.ROT>
0

>  <SCORE.INTER.SOLV>
8.33214

>  <SCORE.INTER.VDW>
-15.9605

>  <SCORE.INTER.norm>
-1.43747

>  <SCORE.INTRA>
0

>  <SCORE.INTRA.DIHEDRAL>
0

>  <SCORE.INTRA.DIHEDRAL.0>
0

>  <SCORE.INTRA.POLAR>
0

>  <SCORE.INTRA.POLAR.0>
0

>  <SCORE.INTRA.REPUL>
0

>  <SCORE.INTRA.REPUL.0>
0

>  <SCORE.INTRA.SOLV>
0

>  <SCORE.INTRA.SOLV.lig_0>
-23.8949

>  <SCORE.INTRA.VDW>
0

>  <SCORE.INTRA.VDW.0>
0

>  <SCORE.INTRA.norm>
0

>  <SCORE.RESTR>
0

>  <SCORE.RESTR.CAVITY>
0

>  <SCORE.RESTR.norm>
0

>  <SCORE.SYSTEM>
0

>  <SCORE.SYSTEM.CONST>
0

>  <SCORE.SYSTEM.DIHEDRAL>
0

>  <SCORE.SYSTEM.SOLV>
0

>  <SCORE.SYSTEM.norm>
0

>  <SCORE.heavy>
10

>  <SCORE.norm>
-1.43747

>  <RMSD>
0.407

$$$$
ligand
 OpenBabel11021811513D
libRbt.so/2013.1/901 2013/11/27
 10 11  0  0  0  0  0  0  0  0999 V2000
  -30.2468   16.9930  -14.9575 N   0  0  0  0  0  0  0  0  0  0  0  0
  -31.0512   18.0520  -14.7957 C   0  0  0  0  0  0  0  0  0  0  0  0
  -31.4530   18.9459  -15.6984 N   0  0  0  0  0  0  0  0  0  0  0  0
  -30.9330   18.6709  -16.9055 C   0  0  0  0  0  0  0  0  0  0  0  0
  -30.0906   17.6227  -17.2266 C   0  0  0  0  0  0  0  0  0  0  0  0
  -29.7401   16.7431  -16.1826 C   0  0  0  0  0  0  0  0  0  0  0  0
  -28.9359   15.6881  -16.3483 N   0  0  0  0  0  0  0  0  0  0  0  0
  -29.7586   17.6554  -18.5703 N   0  0  0  0  0  0  0  0  0  0  0  0
  -30.3950   18.7089  -19.0262 C   0  0  0  0  0  0  0  0  0  0  0  0
  -31.1229   19.3684  -18.0748 N   0  0  0  0  0  0  0  0  0  0  0  0
  1  2  2  0  0  0  0
  1  6  1  0  0  0  0
  2  3  1  0  0  0  0
  3  4  2  0  0  0  0
  4  5  1  0  0  0  0
  4 10  1  0  0  0  0
  5  6  2  0  0  0  0
  5  8  1  0  0  0  0
  6  7  1  0  0  0  0
  8  9  1  0  0  0  0
  9 10  2  0  0  0  0
M  END
>  <CHROM.1>
-30.36741351,17.83603875,-16.77484271,1.28076389,-0.91630225,1.92616395

>  <Name>
ligand

>  <RI>
0

>  <Rbt.Current_Directory>
/home/itssahil/PROJECTS/Mol_Feturizer/New_Systems/rnas/4TZX

>  <Rbt.Executable>
rbdock ($Id: //depot/dev/client3/rdock/2013.1/src/exe/rbdock.cxx#4 $)

>  <Rbt.Library>
libRbt.so (2013.1, Build901 2013/11/27)

>  <Rbt.Parameter_File>
/export/apps/rDock/src/rDock_2013.1_src/data/scripts/dock_solv.prm

>  <Rbt.Receptor>
prm/pocket_docking_8.prm

>  <SCORE>
-14.374

>  <SCORE.INTER>
-14.374

>  <SCORE.INTER.CONST>
1

>  <SCORE.INTER.POLAR>
0

>  <SCORE.INTER.ROT>
0

>  <SCORE.INTER.SOLV>
8.3402

>  <SCORE.INTER.VDW>
-15.9627

>  <SCORE.INTER.norm>
-1.4374

>  <SCORE.INTRA>
0

>  <SCORE.INTRA.DIHEDRAL>
0

>  <SCORE.INTRA.DIHEDRAL.0>
0

>  <SCORE.INTRA.POLAR>
0

>  <SCORE.INTRA.POLAR.0>
0

>  <SCORE.INTRA.REPUL>
0

>  <SCORE.INTRA.REPUL.0>
0

>  <SCORE.INTRA.SOLV>
0

>  <SCORE.INTRA.SOLV.lig_0>
-23.8949

>  <SCORE.INTRA.VDW>
0

>  <SCORE.INTRA.VDW.0>
0

>  <SCORE.INTRA.norm>
0

>  <SCORE.RESTR>
0

>  <SCORE.RESTR.CAVITY>
0

>  <SCORE.RESTR.norm>
0

>  <SCORE.SYSTEM>
0

>  <SCORE.SYSTEM.CONST>
0

>  <SCORE.SYSTEM.DIHEDRAL>
0

>  <SCORE.SYSTEM.SOLV>
0

>  <SCORE.SYSTEM.norm>
0

>  <SCORE.heavy>
10

>  <SCORE.norm>
-1.4374

>  <RMSD>
0.407

$$$$
ligand
 OpenBabel11021811513D
libRbt.so/2013.1/901 2013/11/27
 10 11  0  0  0  0  0  0  0  0999 V2000
  -30.2125   16.9831  -14.9599 N   0  0  0  0  0  0  0  0  0  0  0  0
  -31.0279   18.0330  -14.7942 C   0  0  0  0  0  0  0  0  0  0  0  0
  -31.4450   18.9216  -15.6953 N   0  0  0  0  0  0  0  0  0  0  0  0
  -30.9289   18.6516  -16.9050 C   0  0  0  0  0  0  0  0  0  0  0  0
  -30.0765   17.6128  -17.2303 C   0  0  0  0  0  0  0  0  0  0  0  0
  -29.7100   16.7380  -16.1877 C   0  0  0  0  0  0  0  0  0  0  0  0
  -28.8948   15.6921  -16.3573 N   0  0  0  0  0  0  0  0  0  0  0  0
  -29.7525   17.6483  -18.5758 N   0  0  0  0  0  0  0  0  0  0  0  0
  -30.4035   18.6940  -19.0289 C   0  0  0  0  0  0  0  0  0  0  0  0
  -31.1334   19.3460  -18.0738 N   0  0  0  0  0  0  0  0  0  0  0  0
  1  2  2  0  0  0  0
  1  6  1  0  0  0  0
  2  3  1  0  0  0  0
  3  4  2  0  0  0  0
  4  5  1  0  0  0  0
  4 10  1  0  0  0  0
  5  6  2  0  0  0  0
  5  8  1  0  0  0  0
  6  7  1  0  0  0  0
  8  9  1  0  0  0  0
  9 10  2  0  0  0  0
M  END
>  <CHROM.1>
-30.35307319,17.82331952,-16.77708295,1.26559381,-0.90756446,1.91342388

>  <Name>
ligand

>  <RI>
0

>  <Rbt.Current_Directory>
/home/itssahil/PROJECTS/Mol_Feturizer/New_Systems/rnas/4TZX

>  <Rbt.Executable>
rbdock ($Id: //depot/dev/client3/rdock/2013.1/src/exe/rbdock.cxx#4 $)

>  <Rbt.Library>
libRbt.so (2013.1, Build901 2013/11/27)

>  <Rbt.Parameter_File>
/export/apps/rDock/src/rDock_2013.1_src/data/scripts/dock_solv.prm

>  <Rbt.Receptor>
prm/blind_docking_60.prm

>  <SCORE>
-14.378

>  <SCORE.INTER>
-14.378

>  <SCORE.INTER.CONST>
1

>  <SCORE.INTER.POLAR>
0

>  <SCORE.INTER.ROT>
0

>  <SCORE.INTER.SOLV>
8.23344

>  <SCORE.INTER.VDW>
-15.9298

>  <SCORE.INTER.norm>
-1.4378

>  <SCORE.INTRA>
0

>  <SCORE.INTRA.DIHEDRAL>
0

>  <SCORE.INTRA.DIHEDRAL.0>
0

>  <SCORE.INTRA.POLAR>
0

>  <SCORE.INTRA.POLAR.0>
0

>  <SCORE.INTRA.REPUL>
0

>  <SCORE.INTRA.REPUL.0>
0

>  <SCORE.INTRA.SOLV>
0

>  <SCORE.INTRA.SOLV.lig_0>
-23.8949

>  <SCORE.INTRA.VDW>
0

>  <SCORE.INTRA.VDW.0>
0

>  <SCORE.INTRA.norm>
0

>  <SCORE.RESTR>
0

>  <SCORE.RESTR.CAVITY>
0

>  <SCORE.RESTR.norm>
0

>  <SCORE.SYSTEM>
0

>  <SCORE.SYSTEM.CONST>
0

>  <SCORE.SYSTEM.DIHEDRAL>
0

>  <SCORE.SYSTEM.SOLV>
0

>  <SCORE.SYSTEM.norm>
0

>  <SCORE.heavy>
10

>  <SCORE.norm>
-1.4378

>  <RMSD>
0.408

$$$$
ligand
 OpenBabel11021811513D
libRbt.so/2013.1/901 2013/11/27
 10 11  0  0  0  0  0  0  0  0999 V2000
  -30.1876   17.0319  -14.9254 N   0  0  0  0  0  0  0  0  0  0  0  0
  -31.0333   18.0596  -14.7720 C   0  0  0  0  0  0  0  0  0  0  0  0
  -31.4766   18.9244  -15.6837 N   0  0  0  0  0  0  0  0  0  0  0  0
  -30.9532   18.6548  -16.8904 C   0  0  0  0  0  0  0  0  0  0  0  0
  -30.0709   17.6374  -17.2035 C   0  0  0  0  0  0  0  0  0  0  0  0
  -29.6786   16.7865  -16.1505 C   0  0  0  0  0  0  0  0  0  0  0  0
  -28.8334   15.7629  -16.3078 N   0  0  0  0  0  0  0  0  0  0  0  0
  -29.7487   17.6657  -18.5496 N   0  0  0  0  0  0  0  0  0  0  0  0
  -30.4301   18.6864  -19.0150 C   0  0  0  0  0  0  0  0  0  0  0  0
  -31.1784   19.3284  -18.0674 N   0  0  0  0  0  0  0  0  0  0  0  0
  1  2  2  0  0  0  0
  1  6  1  0  0  0  0
  2  3  1  0  0  0  0
  3  4  2  0  0  0  0
  4  5  1  0  0  0  0
  4 10  1  0  0  0  0
  5  6  2  0  0  0  0
  5  8  1  0  0  0  0
  6  7  1  0  0  0  0
  8  9  1  0  0  0  0
  9 10  2  0  0  0  0
M  END
>  <CHROM.1>
-30.35338973,17.84527262,-16.75271121,1.24963726,-0.88012315,1.88869571

>  <Name>
ligand

>  <RI>
0

>  <Rbt.Current_Directory>
/home/itssahil/PROJECTS/Mol_Feturizer/New_Systems/rnas/4TZX

>  <Rbt.Executable>
rbdock ($Id: //depot/dev/client3/rdock/2013.1/src/exe/rbdock.cxx#4 $)

>  <Rbt.Library>
libRbt.so (2013.1, Build901 2013/11/27)

>  <Rbt.Parameter_File>
/export/apps/rDock/src/rDock_2013.1_src/data/scripts/dock_solv.prm

>  <Rbt.Receptor>
prm/blind_docking_60.prm

>  <SCORE>
-14.3834

>  <SCORE.INTER>
-14.3834

>  <SCORE.INTER.CONST>
1

>  <SCORE.INTER.POLAR>
0

>  <SCORE.INTER.ROT>
0

>  <SCORE.INTER.SOLV>
7.87639

>  <SCORE.INTER.VDW>
-15.8144

>  <SCORE.INTER.norm>
-1.43834

>  <SCORE.INTRA>
0

>  <SCORE.INTRA.DIHEDRAL>
0

>  <SCORE.INTRA.DIHEDRAL.0>
0

>  <SCORE.INTRA.POLAR>
0

>  <SCORE.INTRA.POLAR.0>
0

>  <SCORE.INTRA.REPUL>
0

>  <SCORE.INTRA.REPUL.0>
0

>  <SCORE.INTRA.SOLV>
0

>  <SCORE.INTRA.SOLV.lig_0>
-23.8949

>  <SCORE.INTRA.VDW>
0

>  <SCORE.INTRA.VDW.0>
0

>  <SCORE.INTRA.norm>
0

>  <SCORE.RESTR>
0

>  <SCORE.RESTR.CAVITY>
0

>  <SCORE.RESTR.norm>
0

>  <SCORE.SYSTEM>
0

>  <SCORE.SYSTEM.CONST>
0

>  <SCORE.SYSTEM.DIHEDRAL>
0

>  <SCORE.SYSTEM.SOLV>
0

>  <SCORE.SYSTEM.norm>
0

>  <SCORE.heavy>
10

>  <SCORE.norm>
-1.43834

>  <RMSD>
0.408

$$$$
ligand
 OpenBabel11021811513D
libRbt.so/2013.1/901 2013/11/27
 10 11  0  0  0  0  0  0  0  0999 V2000
  -30.2139   16.9981  -14.9534 N   0  0  0  0  0  0  0  0  0  0  0  0
  -31.0324   18.0465  -14.7932 C   0  0  0  0  0  0  0  0  0  0  0  0
  -31.4508   18.9301  -15.6986 N   0  0  0  0  0  0  0  0  0  0  0  0
  -30.9324   18.6563  -16.9066 C   0  0  0  0  0  0  0  0  0  0  0  0
  -30.0768   17.6184  -17.2263 C   0  0  0  0  0  0  0  0  0  0  0  0
  -29.7092   16.7491  -16.1795 C   0  0  0  0  0  0  0  0  0  0  0  0
  -28.8911   15.7047  -16.3436 N   0  0  0  0  0  0  0  0  0  0  0  0
  -29.7513   17.6489  -18.5716 N   0  0  0  0  0  0  0  0  0  0  0  0
  -30.4045   18.6910  -19.0299 C   0  0  0  0  0  0  0  0  0  0  0  0
  -31.1374   19.3451  -18.0785 N   0  0  0  0  0  0  0  0  0  0  0  0
  1  2  2  0  0  0  0
  1  6  1  0  0  0  0
  2  3  1  0  0  0  0
  3  4  2  0  0  0  0
  4  5  1  0  0  0  0
  4 10  1  0  0  0  0
  5  6  2  0  0  0  0
  5  8  1  0  0  0  0
  6  7  1  0  0  0  0
  8  9  1  0  0  0  0
  9 10  2  0  0  0  0
M  END
>  <CHROM.1>
-30.35452726,17.83011124,-16.77436566,1.26600382,-0.90462596,1.90944484

>  <Name>
ligand

>  <RI>
0

>  <Rbt.Current_Directory>
/home/itssahil/PROJECTS/Mol_Feturizer/New_Systems/rnas/4TZX

>  <Rbt.Executable>
rbdock ($Id: //depot/dev/client3/rdock/2013.1/src/exe/rbdock.cxx#4 $)

>  <Rbt.Library>
libRbt.so (2013.1, Build901 2013/11/27)

>  <Rbt.Parameter_File>
/export/apps/rDock/src/rDock_2013.1_src/data/scripts/dock_solv.prm

>  <Rbt.Receptor>
prm/pocket_docking_3.prm

>  <SCORE>
-14.3756

>  <SCORE.INTER>
-14.3756

>  <SCORE.INTER.CONST>
1

>  <SCORE.INTER.POLAR>
0

>  <SCORE.INTER.ROT>
0

>  <SCORE.INTER.SOLV>
8.18609

>  <SCORE.INTER.VDW>
-15.9124

>  <SCORE.INTER.norm>
-1.43756

>  <SCORE.INTRA>
0

>  <SCORE.INTRA.DIHEDRAL>
0

>  <SCORE.INTRA.DIHEDRAL.0>
0

>  <SCORE.INTRA.POLAR>
0

>  <SCORE.INTRA.POLAR.0>
0

>  <SCORE.INTRA.REPUL>
0

>  <SCORE.INTRA.REPUL.0>
0

>  <SCORE.INTRA.SOLV>
0

>  <SCORE.INTRA.SOLV.lig_0>
-23.8949

>  <SCORE.INTRA.VDW>
0

>  <SCORE.INTRA.VDW.0>
0

>  <SCORE.INTRA.norm>
0

>  <SCORE.RESTR>
0

>  <SCORE.RESTR.CAVITY>
0

>  <SCORE.RESTR.norm>
0

>  <SCORE.SYSTEM>
0

>  <SCORE.SYSTEM.CONST>
0

>  <SCORE.SYSTEM.DIHEDRAL>
0

>  <SCORE.SYSTEM.SOLV>
0

>  <SCORE.SYSTEM.norm>
0

>  <SCORE.heavy>
10

>  <SCORE.norm>
-1.43756

>  <RMSD>
0.408

$$$$
ligand
 OpenBabel11021811513D
libRbt.so/2013.1/901 2013/11/27
 10 11  0  0  0  0  0  0  0  0999 V2000
  -30.2239   16.9836  -14.9614 N   0  0  0  0  0  0  0  0  0  0  0  0
  -31.0357   18.0365  -14.7964 C   0  0  0  0  0  0  0  0  0  0  0  0
  -31.4478   18.9273  -15.6975 N   0  0  0  0  0  0  0  0  0  0  0  0
  -30.9305   18.6564  -16.9065 C   0  0  0  0  0  0  0  0  0  0  0  0
  -30.0814   17.6146  -17.2311 C   0  0  0  0  0  0  0  0  0  0  0  0
  -29.7201   16.7376  -16.1885 C   0  0  0  0  0  0  0  0  0  0  0  0
  -28.9086   15.6888  -16.3575 N   0  0  0  0  0  0  0  0  0  0  0  0
  -29.7549   17.6499  -18.5760 N   0  0  0  0  0  0  0  0  0  0  0  0
  -30.4011   18.6985  -19.0294 C   0  0  0  0  0  0  0  0  0  0  0  0
  -31.1303   19.3524  -18.0751 N   0  0  0  0  0  0  0  0  0  0  0  0
  1  2  2  0  0  0  0
  1  6  1  0  0  0  0
  2  3  1  0  0  0  0
  3  4  2  0  0  0  0
  4  5  1  0  0  0  0
  4 10  1  0  0  0  0
  5  6  2  0  0  0  0
  5  8  1  0  0  0  0
  6  7  1  0  0  0  0
  8  9  1  0  0  0  0
  9 10  2  0  0  0  0
M  END
>  <CHROM.1>
-30.35805201,17.82579032,-16.77821067,1.27044560,-0.91050007,1.91805611

>  <Name>
ligand

>  <RI>
0

>  <Rbt.Current_Directory>
/home/itssahil/PROJECTS/Mol_Feturizer/New_Systems/rnas/4TZX

>  <Rbt.Executable>
rbdock ($Id: //depot/dev/client3/rdock/2013.1/src/exe/rbdock.cxx#4 $)

>  <Rbt.Library>
libRbt.so (2013.1, Build901 2013/11/27)

>  <Rbt.Parameter_File>
/export/apps/rDock/src/rDock_2013.1_src/data/scripts/dock_solv.prm

>  <Rbt.Receptor>
prm/pocket_docking_3.prm

>  <SCORE>
-14.378

>  <SCORE.INTER>
-14.378

>  <SCORE.INTER.CONST>
1

>  <SCORE.INTER.POLAR>
0

>  <SCORE.INTER.ROT>
0

>  <SCORE.INTER.SOLV>
8.27682

>  <SCORE.INTER.VDW>
-15.9443

>  <SCORE.INTER.norm>
-1.4378

>  <SCORE.INTRA>
0

>  <SCORE.INTRA.DIHEDRAL>
0

>  <SCORE.INTRA.DIHEDRAL.0>
0

>  <SCORE.INTRA.POLAR>
0

>  <SCORE.INTRA.POLAR.0>
0

>  <SCORE.INTRA.REPUL>
0

>  <SCORE.INTRA.REPUL.0>
0

>  <SCORE.INTRA.SOLV>
0

>  <SCORE.INTRA.SOLV.lig_0>
-23.8949

>  <SCORE.INTRA.VDW>
0

>  <SCORE.INTRA.VDW.0>
0

>  <SCORE.INTRA.norm>
0

>  <SCORE.RESTR>
0

>  <SCORE.RESTR.CAVITY>
0

>  <SCORE.RESTR.norm>
0

>  <SCORE.SYSTEM>
0

>  <SCORE.SYSTEM.CONST>
0

>  <SCORE.SYSTEM.DIHEDRAL>
0

>  <SCORE.SYSTEM.SOLV>
0

>  <SCORE.SYSTEM.norm>
0

>  <SCORE.heavy>
10

>  <SCORE.norm>
-1.4378

>  <RMSD>
0.408

$$$$
ligand
 OpenBabel11021811513D
libRbt.so/2013.1/901 2013/11/27
 10 11  0  0  0  0  0  0  0  0999 V2000
  -30.1756   17.0354  -14.9199 N   0  0  0  0  0  0  0  0  0  0  0  0
  -31.0219   18.0623  -14.7649 C   0  0  0  0  0  0  0  0  0  0  0  0
  -31.4684   18.9262  -15.6759 N   0  0  0  0  0  0  0  0  0  0  0  0
  -30.9479   18.6564  -16.8838 C   0  0  0  0  0  0  0  0  0  0  0  0
  -30.0654   17.6397  -17.1986 C   0  0  0  0  0  0  0  0  0  0  0  0
  -29.6695   16.7899  -16.1461 C   0  0  0  0  0  0  0  0  0  0  0  0
  -28.8236   15.7670  -16.3051 N   0  0  0  0  0  0  0  0  0  0  0  0
  -29.7467   17.6676  -18.5456 N   0  0  0  0  0  0  0  0  0  0  0  0
  -30.4303   18.6874  -19.0097 C   0  0  0  0  0  0  0  0  0  0  0  0
  -31.1768   19.3292  -18.0606 N   0  0  0  0  0  0  0  0  0  0  0  0
  1  2  2  0  0  0  0
  1  6  1  0  0  0  0
  2  3  1  0  0  0  0
  3  4  2  0  0  0  0
  4  5  1  0  0  0  0
  4 10  1  0  0  0  0
  5  6  2  0  0  0  0
  5  8  1  0  0  0  0
  6  7  1  0  0  0  0
  8  9  1  0  0  0  0
  9 10  2  0  0  0  0
M  END
>  <CHROM.1>
-30.34691559,17.84759045,-16.74720884,1.24529373,-0.87996443,1.88478721

>  <Name>
ligand

>  <RI>
0

>  <Rbt.Current_Directory>
/home/itssahil/PROJECTS/Mol_Feturizer/New_Systems/rnas/4TZX

>  <Rbt.Executable>
rbdock ($Id: //depot/dev/client3/rdock/2013.1/src/exe/rbdock.cxx#4 $)

>  <Rbt.Library>
libRbt.so (2013.1, Build901 2013/11/27)

>  <Rbt.Parameter_File>
/export/apps/rDock/src/rDock_2013.1_src/data/scripts/dock_solv.prm

>  <Rbt.Receptor>
prm/pocket_docking_3.prm

>  <SCORE>
-14.3814

>  <SCORE.INTER>
-14.3817

>  <SCORE.INTER.CONST>
1

>  <SCORE.INTER.POLAR>
0

>  <SCORE.INTER.ROT>
0

>  <SCORE.INTER.SOLV>
7.84427

>  <SCORE.INTER.VDW>
-15.8026

>  <SCORE.INTER.norm>
-1.43817

>  <SCORE.INTRA>
0

>  <SCORE.INTRA.DIHEDRAL>
0

>  <SCORE.INTRA.DIHEDRAL.0>
0

>  <SCORE.INTRA.POLAR>
0

>  <SCORE.INTRA.POLAR.0>
0

>  <SCORE.INTRA.REPUL>
0

>  <SCORE.INTRA.REPUL.0>
0

>  <SCORE.INTRA.SOLV>
0

>  <SCORE.INTRA.SOLV.lig_0>
-23.8949

>  <SCORE.INTRA.VDW>
0

>  <SCORE.INTRA.VDW.0>
0

>  <SCORE.INTRA.norm>
0

>  <SCORE.RESTR>
0.000289672

>  <SCORE.RESTR.CAVITY>
0.000289672

>  <SCORE.RESTR.norm>
2.89672e-05

>  <SCORE.SYSTEM>
0

>  <SCORE.SYSTEM.CONST>
0

>  <SCORE.SYSTEM.DIHEDRAL>
0

>  <SCORE.SYSTEM.SOLV>
0

>  <SCORE.SYSTEM.norm>
0

>  <SCORE.heavy>
10

>  <SCORE.norm>
-1.43814

>  <RMSD>
0.408

$$$$
ligand
 OpenBabel11021811513D
libRbt.so/2013.1/901 2013/11/27
 10 11  0  0  0  0  0  0  0  0999 V2000
  -30.2139   17.0501  -14.9205 N   0  0  0  0  0  0  0  0  0  0  0  0
  -31.0408   18.0951  -14.7824 C   0  0  0  0  0  0  0  0  0  0  0  0
  -31.4582   18.9621  -15.7042 N   0  0  0  0  0  0  0  0  0  0  0  0
  -30.9284   18.6740  -16.9039 C   0  0  0  0  0  0  0  0  0  0  0  0
  -30.0631   17.6375  -17.2014 C   0  0  0  0  0  0  0  0  0  0  0  0
  -29.6978   16.7865  -16.1388 C   0  0  0  0  0  0  0  0  0  0  0  0
  -28.8712   15.7455  -16.2809 N   0  0  0  0  0  0  0  0  0  0  0  0
  -29.7272   17.6503  -18.5444 N   0  0  0  0  0  0  0  0  0  0  0  0
  -30.3840   18.6808  -19.0233 C   0  0  0  0  0  0  0  0  0  0  0  0
  -31.1288   19.3438  -18.0875 N   0  0  0  0  0  0  0  0  0  0  0  0
  1  2  2  0  0  0  0
  1  6  1  0  0  0  0
  2  3  1  0  0  0  0
  3  4  2  0  0  0  0
  4  5  1  0  0  0  0
  4 10  1  0  0  0  0
  5  6  2  0  0  0  0
  5  8  1  0  0  0  0
  6  7  1  0  0  0  0
  8  9  1  0  0  0  0
  9 10  2  0  0  0  0
M  END
>  <CHROM.1>
-30.34586143,17.85396622,-16.75479941,1.27425319,-0.89544969,1.90099630

>  <Name>
ligand

>  <RI>
0

>  <Rbt.Current_Directory>
/home/itssahil/PROJECTS/Mol_Feturizer/New_Systems/rnas/4TZX

>  <Rbt.Executable>
rbdock ($Id: //depot/dev/client3/rdock/2013.1/src/exe/rbdock.cxx#4 $)

>  <Rbt.Library>
libRbt.so (2013.1, Build901 2013/11/27)

>  <Rbt.Parameter_File>
/export/apps/rDock/src/rDock_2013.1_src/data/scripts/dock_solv.prm

>  <Rbt.Receptor>
prm/pocket_docking_3.prm

>  <SCORE>
-14.3614

>  <SCORE.INTER>
-14.3614

>  <SCORE.INTER.CONST>
1

>  <SCORE.INTER.POLAR>
0

>  <SCORE.INTER.ROT>
0

>  <SCORE.INTER.SOLV>
7.98072

>  <SCORE.INTER.VDW>
-15.8345

>  <SCORE.INTER.norm>
-1.43614

>  <SCORE.INTRA>
0

>  <SCORE.INTRA.DIHEDRAL>
0

>  <SCORE.INTRA.DIHEDRAL.0>
0

>  <SCORE.INTRA.POLAR>
0

>  <SCORE.INTRA.POLAR.0>
0

>  <SCORE.INTRA.REPUL>
0

>  <SCORE.INTRA.REPUL.0>
0

>  <SCORE.INTRA.SOLV>
0

>  <SCORE.INTRA.SOLV.lig_0>
-23.8949

>  <SCORE.INTRA.VDW>
0

>  <SCORE.INTRA.VDW.0>
0

>  <SCORE.INTRA.norm>
0

>  <SCORE.RESTR>
0

>  <SCORE.RESTR.CAVITY>
0

>  <SCORE.RESTR.norm>
0

>  <SCORE.SYSTEM>
0

>  <SCORE.SYSTEM.CONST>
0

>  <SCORE.SYSTEM.DIHEDRAL>
0

>  <SCORE.SYSTEM.SOLV>
0

>  <SCORE.SYSTEM.norm>
0

>  <SCORE.heavy>
10

>  <SCORE.norm>
-1.43614

>  <RMSD>
0.408

$$$$
ligand
 OpenBabel11021811513D
libRbt.so/2013.1/901 2013/11/27
 10 11  0  0  0  0  0  0  0  0999 V2000
  -30.1707   17.0396  -14.9182 N   0  0  0  0  0  0  0  0  0  0  0  0
  -31.0197   18.0647  -14.7656 C   0  0  0  0  0  0  0  0  0  0  0  0
  -31.4691   18.9247  -15.6787 N   0  0  0  0  0  0  0  0  0  0  0  0
  -30.9488   18.6528  -16.8862 C   0  0  0  0  0  0  0  0  0  0  0  0
  -30.0638   17.6376  -17.1987 C   0  0  0  0  0  0  0  0  0  0  0  0
  -29.6648   16.7919  -16.1441 C   0  0  0  0  0  0  0  0  0  0  0  0
  -28.8163   15.7708  -16.3007 N   0  0  0  0  0  0  0  0  0  0  0  0
  -29.7461   17.6625  -18.5460 N   0  0  0  0  0  0  0  0  0  0  0  0
  -30.4328   18.6790  -19.0126 C   0  0  0  0  0  0  0  0  0  0  0  0
  -31.1803   19.3215  -18.0648 N   0  0  0  0  0  0  0  0  0  0  0  0
  1  2  2  0  0  0  0
  1  6  1  0  0  0  0
  2  3  1  0  0  0  0
  3  4  2  0  0  0  0
  4  5  1  0  0  0  0
  4 10  1  0  0  0  0
  5  6  2  0  0  0  0
  5  8  1  0  0  0  0
  6  7  1  0  0  0  0
  8  9  1  0  0  0  0
  9 10  2  0  0  0  0
M  END
>  <CHROM.1>
-30.34549407,17.84604132,-16.74773987,1.24290593,-0.87760804,1.88004605

>  <Name>
ligand

>  <RI>
0

>  <Rbt.Current_Directory>
/home/itssahil/PROJECTS/Mol_Feturizer/New_Systems/rnas/4TZX

>  <Rbt.Executable>
rbdock ($Id: //depot/dev/client3/rdock/2013.1/src/exe/rbdock.cxx#4 $)

>  <Rbt.Library>
libRbt.so (2013.1, Build901 2013/11/27)

>  <Rbt.Parameter_File>
/export/apps/rDock/src/rDock_2013.1_src/data/scripts/dock_solv.prm

>  <Rbt.Receptor>
prm/pocket_docking_4.prm

>  <SCORE>
-14.378

>  <SCORE.INTER>
-14.378

>  <SCORE.INTER.CONST>
1

>  <SCORE.INTER.POLAR>
0

>  <SCORE.INTER.ROT>
0

>  <SCORE.INTER.SOLV>
7.81672

>  <SCORE.INTER.VDW>
-15.7909

>  <SCORE.INTER.norm>
-1.4378

>  <SCORE.INTRA>
0

>  <SCORE.INTRA.DIHEDRAL>
0

>  <SCORE.INTRA.DIHEDRAL.0>
0

>  <SCORE.INTRA.POLAR>
0

>  <SCORE.INTRA.POLAR.0>
0

>  <SCORE.INTRA.REPUL>
0

>  <SCORE.INTRA.REPUL.0>
0

>  <SCORE.INTRA.SOLV>
0

>  <SCORE.INTRA.SOLV.lig_0>
-23.8949

>  <SCORE.INTRA.VDW>
0

>  <SCORE.INTRA.VDW.0>
0

>  <SCORE.INTRA.norm>
0

>  <SCORE.RESTR>
0

>  <SCORE.RESTR.CAVITY>
0

>  <SCORE.RESTR.norm>
0

>  <SCORE.SYSTEM>
0

>  <SCORE.SYSTEM.CONST>
0

>  <SCORE.SYSTEM.DIHEDRAL>
0

>  <SCORE.SYSTEM.SOLV>
0

>  <SCORE.SYSTEM.norm>
0

>  <SCORE.heavy>
10

>  <SCORE.norm>
-1.4378

>  <RMSD>
0.408

$$$$
ligand
 OpenBabel11021811513D
libRbt.so/2013.1/901 2013/11/27
 10 11  0  0  0  0  0  0  0  0999 V2000
  -30.1964   17.0267  -14.9338 N   0  0  0  0  0  0  0  0  0  0  0  0
  -31.0380   18.0581  -14.7830 C   0  0  0  0  0  0  0  0  0  0  0  0
  -31.4771   18.9230  -15.6966 N   0  0  0  0  0  0  0  0  0  0  0  0
  -30.9540   18.6489  -16.9025 C   0  0  0  0  0  0  0  0  0  0  0  0
  -30.0756   17.6273  -17.2130 C   0  0  0  0  0  0  0  0  0  0  0  0
  -29.6876   16.7769  -16.1580 C   0  0  0  0  0  0  0  0  0  0  0  0
  -28.8464   15.7495  -16.3128 N   0  0  0  0  0  0  0  0  0  0  0  0
  -29.7523   17.6517  -18.5589 N   0  0  0  0  0  0  0  0  0  0  0  0
  -30.4292   18.6742  -19.0267 C   0  0  0  0  0  0  0  0  0  0  0  0
  -31.1755   19.3212  -18.0810 N   0  0  0  0  0  0  0  0  0  0  0  0
  1  2  2  0  0  0  0
  1  6  1  0  0  0  0
  2  3  1  0  0  0  0
  3  4  2  0  0  0  0
  4  5  1  0  0  0  0
  4 10  1  0  0  0  0
  5  6  2  0  0  0  0
  5  8  1  0  0  0  0
  6  7  1  0  0  0  0
  8  9  1  0  0  0  0
  9 10  2  0  0  0  0
M  END
>  <CHROM.1>
-30.35756373,17.83719737,-16.76278482,1.25272602,-0.88378851,1.88913651

>  <Name>
ligand

>  <RI>
0

>  <Rbt.Current_Directory>
/home/itssahil/PROJECTS/Mol_Feturizer/New_Systems/rnas/4TZX

>  <Rbt.Executable>
rbdock ($Id: //depot/dev/client3/rdock/2013.1/src/exe/rbdock.cxx#4 $)

>  <Rbt.Library>
libRbt.so (2013.1, Build901 2013/11/27)

>  <Rbt.Parameter_File>
/export/apps/rDock/src/rDock_2013.1_src/data/scripts/dock_solv.prm

>  <Rbt.Receptor>
prm/pocket_docking_6.prm

>  <SCORE>
-14.3743

>  <SCORE.INTER>
-14.3743

>  <SCORE.INTER.CONST>
1

>  <SCORE.INTER.POLAR>
0

>  <SCORE.INTER.ROT>
0

>  <SCORE.INTER.SOLV>
7.94037

>  <SCORE.INTER.VDW>
-15.8297

>  <SCORE.INTER.norm>
-1.43743

>  <SCORE.INTRA>
0

>  <SCORE.INTRA.DIHEDRAL>
0

>  <SCORE.INTRA.DIHEDRAL.0>
0

>  <SCORE.INTRA.POLAR>
0

>  <SCORE.INTRA.POLAR.0>
0

>  <SCORE.INTRA.REPUL>
0

>  <SCORE.INTRA.REPUL.0>
0

>  <SCORE.INTRA.SOLV>
0

>  <SCORE.INTRA.SOLV.lig_0>
-23.8949

>  <SCORE.INTRA.VDW>
0

>  <SCORE.INTRA.VDW.0>
0

>  <SCORE.INTRA.norm>
0

>  <SCORE.RESTR>
0

>  <SCORE.RESTR.CAVITY>
0

>  <SCORE.RESTR.norm>
0

>  <SCORE.SYSTEM>
0

>  <SCORE.SYSTEM.CONST>
0

>  <SCORE.SYSTEM.DIHEDRAL>
0

>  <SCORE.SYSTEM.SOLV>
0

>  <SCORE.SYSTEM.norm>
0

>  <SCORE.heavy>
10

>  <SCORE.norm>
-1.43743

>  <RMSD>
0.408

$$$$
ligand
 OpenBabel11021811513D
libRbt.so/2013.1/901 2013/11/27
 10 11  0  0  0  0  0  0  0  0999 V2000
  -30.1719   17.0263  -14.9247 N   0  0  0  0  0  0  0  0  0  0  0  0
  -31.0147   18.0552  -14.7641 C   0  0  0  0  0  0  0  0  0  0  0  0
  -31.4615   18.9230  -15.6711 N   0  0  0  0  0  0  0  0  0  0  0  0
  -30.9456   18.6552  -16.8815 C   0  0  0  0  0  0  0  0  0  0  0  0
  -30.0670   17.6369  -17.2020 C   0  0  0  0  0  0  0  0  0  0  0  0
  -29.6703   16.7828  -16.1532 C   0  0  0  0  0  0  0  0  0  0  0  0
  -28.8279   15.7579  -16.3178 N   0  0  0  0  0  0  0  0  0  0  0  0
  -29.7524   17.6678  -18.5499 N   0  0  0  0  0  0  0  0  0  0  0  0
  -30.4345   18.6908  -19.0089 C   0  0  0  0  0  0  0  0  0  0  0  0
  -31.1761   19.3320  -18.0556 N   0  0  0  0  0  0  0  0  0  0  0  0
  1  2  2  0  0  0  0
  1  6  1  0  0  0  0
  2  3  1  0  0  0  0
  3  4  2  0  0  0  0
  4  5  1  0  0  0  0
  4 10  1  0  0  0  0
  5  6  2  0  0  0  0
  5  8  1  0  0  0  0
  6  7  1  0  0  0  0
  8  9  1  0  0  0  0
  9 10  2  0  0  0  0
M  END
>  <CHROM.1>
-30.34650547,17.84424386,-16.74910554,1.24202838,-0.88370199,1.88517301

>  <Name>
ligand

>  <RI>
0

>  <Rbt.Current_Directory>
/home/itssahil/PROJECTS/Mol_Feturizer/New_Systems/rnas/4TZX

>  <Rbt.Executable>
rbdock ($Id: //depot/dev/client3/rdock/2013.1/src/exe/rbdock.cxx#4 $)

>  <Rbt.Library>
libRbt.so (2013.1, Build901 2013/11/27)

>  <Rbt.Parameter_File>
/export/apps/rDock/src/rDock_2013.1_src/data/scripts/dock_solv.prm

>  <Rbt.Receptor>
prm/pocket_docking_6.prm

>  <SCORE>
-14.3838

>  <SCORE.INTER>
-14.3838

>  <SCORE.INTER.CONST>
1

>  <SCORE.INTER.POLAR>
0

>  <SCORE.INTER.ROT>
0

>  <SCORE.INTER.SOLV>
7.87866

>  <SCORE.INTER.VDW>
-15.8154

>  <SCORE.INTER.norm>
-1.43838

>  <SCORE.INTRA>
0

>  <SCORE.INTRA.DIHEDRAL>
0

>  <SCORE.INTRA.DIHEDRAL.0>
0

>  <SCORE.INTRA.POLAR>
0

>  <SCORE.INTRA.POLAR.0>
0

>  <SCORE.INTRA.REPUL>
0

>  <SCORE.INTRA.REPUL.0>
0

>  <SCORE.INTRA.SOLV>
0

>  <SCORE.INTRA.SOLV.lig_0>
-23.8949

>  <SCORE.INTRA.VDW>
0

>  <SCORE.INTRA.VDW.0>
0

>  <SCORE.INTRA.norm>
0

>  <SCORE.RESTR>
0

>  <SCORE.RESTR.CAVITY>
0

>  <SCORE.RESTR.norm>
0

>  <SCORE.SYSTEM>
0

>  <SCORE.SYSTEM.CONST>
0

>  <SCORE.SYSTEM.DIHEDRAL>
0

>  <SCORE.SYSTEM.SOLV>
0

>  <SCORE.SYSTEM.norm>
0

>  <SCORE.heavy>
10

>  <SCORE.norm>
-1.43838

>  <RMSD>
0.408

$$$$
ligand
 OpenBabel11021811513D
libRbt.so/2013.1/901 2013/11/27
 10 11  0  0  0  0  0  0  0  0999 V2000
  -30.1850   17.0285  -14.9264 N   0  0  0  0  0  0  0  0  0  0  0  0
  -31.0286   18.0574  -14.7694 C   0  0  0  0  0  0  0  0  0  0  0  0
  -31.4726   18.9244  -15.6785 N   0  0  0  0  0  0  0  0  0  0  0  0
  -30.9527   18.6557  -16.8870 C   0  0  0  0  0  0  0  0  0  0  0  0
  -30.0729   17.6374  -17.2039 C   0  0  0  0  0  0  0  0  0  0  0  0
  -29.6794   16.7842  -16.1531 C   0  0  0  0  0  0  0  0  0  0  0  0
  -28.8362   15.7594  -16.3142 N   0  0  0  0  0  0  0  0  0  0  0  0
  -29.7539   17.6673  -18.5507 N   0  0  0  0  0  0  0  0  0  0  0  0
  -30.4348   18.6898  -19.0128 C   0  0  0  0  0  0  0  0  0  0  0  0
  -31.1796   19.3316  -18.0624 N   0  0  0  0  0  0  0  0  0  0  0  0
  1  2  2  0  0  0  0
  1  6  1  0  0  0  0
  2  3  1  0  0  0  0
  3  4  2  0  0  0  0
  4  5  1  0  0  0  0
  4 10  1  0  0  0  0
  5  6  2  0  0  0  0
  5  8  1  0  0  0  0
  6  7  1  0  0  0  0
  8  9  1  0  0  0  0
  9 10  2  0  0  0  0
M  END
>  <CHROM.1>
-30.35388568,17.84501994,-16.75205741,1.24675551,-0.88247014,1.88802735

>  <Name>
ligand

>  <RI>
0

>  <Rbt.Current_Directory>
/home/itssahil/PROJECTS/Mol_Feturizer/New_Systems/rnas/4TZX

>  <Rbt.Executable>
rbdock ($Id: //depot/dev/client3/rdock/2013.1/src/exe/rbdock.cxx#4 $)

>  <Rbt.Library>
libRbt.so (2013.1, Build901 2013/11/27)

>  <Rbt.Parameter_File>
/export/apps/rDock/src/rDock_2013.1_src/data/scripts/dock_solv.prm

>  <Rbt.Receptor>
prm/pocket_docking_6.prm

>  <SCORE>
-14.3826

>  <SCORE.INTER>
-14.3826

>  <SCORE.INTER.CONST>
1

>  <SCORE.INTER.POLAR>
0

>  <SCORE.INTER.ROT>
0

>  <SCORE.INTER.SOLV>
7.8946

>  <SCORE.INTER.VDW>
-15.8199

>  <SCORE.INTER.norm>
-1.43826

>  <SCORE.INTRA>
0

>  <SCORE.INTRA.DIHEDRAL>
0

>  <SCORE.INTRA.DIHEDRAL.0>
0

>  <SCORE.INTRA.POLAR>
0

>  <SCORE.INTRA.POLAR.0>
0

>  <SCORE.INTRA.REPUL>
0

>  <SCORE.INTRA.REPUL.0>
0

>  <SCORE.INTRA.SOLV>
0

>  <SCORE.INTRA.SOLV.lig_0>
-23.8949

>  <SCORE.INTRA.VDW>
0

>  <SCORE.INTRA.VDW.0>
0

>  <SCORE.INTRA.norm>
0

>  <SCORE.RESTR>
0

>  <SCORE.RESTR.CAVITY>
0

>  <SCORE.RESTR.norm>
0

>  <SCORE.SYSTEM>
0

>  <SCORE.SYSTEM.CONST>
0

>  <SCORE.SYSTEM.DIHEDRAL>
0

>  <SCORE.SYSTEM.SOLV>
0

>  <SCORE.SYSTEM.norm>
0

>  <SCORE.heavy>
10

>  <SCORE.norm>
-1.43826

>  <RMSD>
0.408

$$$$
ligand
 OpenBabel11021811513D
libRbt.so/2013.1/901 2013/11/27
 10 11  0  0  0  0  0  0  0  0999 V2000
  -30.2113   16.9937  -14.9539 N   0  0  0  0  0  0  0  0  0  0  0  0
  -31.0286   18.0426  -14.7903 C   0  0  0  0  0  0  0  0  0  0  0  0
  -31.4480   18.9281  -15.6933 N   0  0  0  0  0  0  0  0  0  0  0  0
  -30.9321   18.6561  -16.9027 C   0  0  0  0  0  0  0  0  0  0  0  0
  -30.0779   17.6181  -17.2259 C   0  0  0  0  0  0  0  0  0  0  0  0
  -29.7091   16.7465  -16.1814 C   0  0  0  0  0  0  0  0  0  0  0  0
  -28.8921   15.7017  -16.3489 N   0  0  0  0  0  0  0  0  0  0  0  0
  -29.7549   17.6507  -18.5718 N   0  0  0  0  0  0  0  0  0  0  0  0
  -30.4081   18.6941  -19.0270 C   0  0  0  0  0  0  0  0  0  0  0  0
  -31.1387   19.3471  -18.0730 N   0  0  0  0  0  0  0  0  0  0  0  0
  1  2  2  0  0  0  0
  1  6  1  0  0  0  0
  2  3  1  0  0  0  0
  3  4  2  0  0  0  0
  4  5  1  0  0  0  0
  4 10  1  0  0  0  0
  5  6  2  0  0  0  0
  5  8  1  0  0  0  0
  6  7  1  0  0  0  0
  8  9  1  0  0  0  0
  9 10  2  0  0  0  0
M  END
>  <CHROM.1>
-30.35462553,17.82915519,-16.77308310,1.26359462,-0.90602032,1.90935863

>  <Name>
ligand

>  <RI>
0

>  <Rbt.Current_Directory>
/home/itssahil/PROJECTS/Mol_Feturizer/New_Systems/rnas/4TZX

>  <Rbt.Executable>
rbdock ($Id: //depot/dev/client3/rdock/2013.1/src/exe/rbdock.cxx#4 $)

>  <Rbt.Library>
libRbt.so (2013.1, Build901 2013/11/27)

>  <Rbt.Parameter_File>
/export/apps/rDock/src/rDock_2013.1_src/data/scripts/dock_solv.prm

>  <Rbt.Receptor>
prm/pocket_docking_7.prm

>  <SCORE>
-14.3761

>  <SCORE.INTER>
-14.3761

>  <SCORE.INTER.CONST>
1

>  <SCORE.INTER.POLAR>
0

>  <SCORE.INTER.ROT>
0

>  <SCORE.INTER.SOLV>
8.19931

>  <SCORE.INTER.VDW>
-15.9172

>  <SCORE.INTER.norm>
-1.43761

>  <SCORE.INTRA>
0

>  <SCORE.INTRA.DIHEDRAL>
0

>  <SCORE.INTRA.DIHEDRAL.0>
0

>  <SCORE.INTRA.POLAR>
0

>  <SCORE.INTRA.POLAR.0>
0

>  <SCORE.INTRA.REPUL>
0

>  <SCORE.INTRA.REPUL.0>
0

>  <SCORE.INTRA.SOLV>
0

>  <SCORE.INTRA.SOLV.lig_0>
-23.8949

>  <SCORE.INTRA.VDW>
0

>  <SCORE.INTRA.VDW.0>
0

>  <SCORE.INTRA.norm>
0

>  <SCORE.RESTR>
0

>  <SCORE.RESTR.CAVITY>
0

>  <SCORE.RESTR.norm>
0

>  <SCORE.SYSTEM>
0

>  <SCORE.SYSTEM.CONST>
0

>  <SCORE.SYSTEM.DIHEDRAL>
0

>  <SCORE.SYSTEM.SOLV>
0

>  <SCORE.SYSTEM.norm>
0

>  <SCORE.heavy>
10

>  <SCORE.norm>
-1.43761

>  <RMSD>
0.408

$$$$
ligand
 OpenBabel11021811513D
libRbt.so/2013.1/901 2013/11/27
 10 11  0  0  0  0  0  0  0  0999 V2000
  -30.2022   16.9948  -14.9538 N   0  0  0  0  0  0  0  0  0  0  0  0
  -31.0232   18.0411  -14.7929 C   0  0  0  0  0  0  0  0  0  0  0  0
  -31.4458   18.9228  -15.6982 N   0  0  0  0  0  0  0  0  0  0  0  0
  -30.9290   18.6495  -16.9070 C   0  0  0  0  0  0  0  0  0  0  0  0
  -30.0712   17.6137  -17.2275 C   0  0  0  0  0  0  0  0  0  0  0  0
  -29.6991   16.7462  -16.1807 C   0  0  0  0  0  0  0  0  0  0  0  0
  -28.8784   15.7039  -16.3456 N   0  0  0  0  0  0  0  0  0  0  0  0
  -29.7483   17.6440  -18.5735 N   0  0  0  0  0  0  0  0  0  0  0  0
  -30.4053   18.6839  -19.0313 C   0  0  0  0  0  0  0  0  0  0  0  0
  -31.1381   19.3367  -18.0790 N   0  0  0  0  0  0  0  0  0  0  0  0
  1  2  2  0  0  0  0
  1  6  1  0  0  0  0
  2  3  1  0  0  0  0
  3  4  2  0  0  0  0
  4  5  1  0  0  0  0
  4 10  1  0  0  0  0
  5  6  2  0  0  0  0
  5  8  1  0  0  0  0
  6  7  1  0  0  0  0
  8  9  1  0  0  0  0
  9 10  2  0  0  0  0
M  END
>  <CHROM.1>
-30.34859020,17.82496613,-16.77520203,1.26159092,-0.90264752,1.90518933

>  <Name>
ligand

>  <RI>
0

>  <Rbt.Current_Directory>
/home/itssahil/PROJECTS/Mol_Feturizer/New_Systems/rnas/4TZX

>  <Rbt.Executable>
rbdock ($Id: //depot/dev/client3/rdock/2013.1/src/exe/rbdock.cxx#4 $)

>  <Rbt.Library>
libRbt.so (2013.1, Build901 2013/11/27)

>  <Rbt.Parameter_File>
/export/apps/rDock/src/rDock_2013.1_src/data/scripts/dock_solv.prm

>  <Rbt.Receptor>
prm/pocket_docking_8.prm

>  <SCORE>
-14.3749

>  <SCORE.INTER>
-14.3749

>  <SCORE.INTER.CONST>
1

>  <SCORE.INTER.POLAR>
0

>  <SCORE.INTER.ROT>
0

>  <SCORE.INTER.SOLV>
8.155

>  <SCORE.INTER.VDW>
-15.9016

>  <SCORE.INTER.norm>
-1.43749

>  <SCORE.INTRA>
0

>  <SCORE.INTRA.DIHEDRAL>
0

>  <SCORE.INTRA.DIHEDRAL.0>
0

>  <SCORE.INTRA.POLAR>
0

>  <SCORE.INTRA.POLAR.0>
0

>  <SCORE.INTRA.REPUL>
0

>  <SCORE.INTRA.REPUL.0>
0

>  <SCORE.INTRA.SOLV>
0

>  <SCORE.INTRA.SOLV.lig_0>
-23.8949

>  <SCORE.INTRA.VDW>
0

>  <SCORE.INTRA.VDW.0>
0

>  <SCORE.INTRA.norm>
0

>  <SCORE.RESTR>
0

>  <SCORE.RESTR.CAVITY>
0

>  <SCORE.RESTR.norm>
0

>  <SCORE.SYSTEM>
0

>  <SCORE.SYSTEM.CONST>
0

>  <SCORE.SYSTEM.DIHEDRAL>
0

>  <SCORE.SYSTEM.SOLV>
0

>  <SCORE.SYSTEM.norm>
0

>  <SCORE.heavy>
10

>  <SCORE.norm>
-1.43749

>  <RMSD>
0.408

$$$$
ligand
 OpenBabel11021811513D
libRbt.so/2013.1/901 2013/11/27
 10 11  0  0  0  0  0  0  0  0999 V2000
  -30.2343   16.9909  -14.9608 N   0  0  0  0  0  0  0  0  0  0  0  0
  -31.0477   18.0437  -14.8029 C   0  0  0  0  0  0  0  0  0  0  0  0
  -31.4569   18.9309  -15.7089 N   0  0  0  0  0  0  0  0  0  0  0  0
  -30.9344   18.6561  -16.9149 C   0  0  0  0  0  0  0  0  0  0  0  0
  -30.0831   17.6139  -17.2321 C   0  0  0  0  0  0  0  0  0  0  0  0
  -29.7252   16.7410  -16.1849 C   0  0  0  0  0  0  0  0  0  0  0  0
  -28.9122   15.6923  -16.3468 N   0  0  0  0  0  0  0  0  0  0  0  0
  -29.7511   17.6447  -18.5759 N   0  0  0  0  0  0  0  0  0  0  0  0
  -30.3963   18.6910  -19.0356 C   0  0  0  0  0  0  0  0  0  0  0  0
  -31.1300   19.3477  -18.0867 N   0  0  0  0  0  0  0  0  0  0  0  0
  1  2  2  0  0  0  0
  1  6  1  0  0  0  0
  2  3  1  0  0  0  0
  3  4  2  0  0  0  0
  4  5  1  0  0  0  0
  4 10  1  0  0  0  0
  5  6  2  0  0  0  0
  5  8  1  0  0  0  0
  6  7  1  0  0  0  0
  8  9  1  0  0  0  0
  9 10  2  0  0  0  0
M  END
>  <CHROM.1>
-30.36172548,17.82647428,-16.78118058,1.27622714,-0.90827947,1.91901524

>  <Name>
ligand

>  <RI>
0

>  <Rbt.Current_Directory>
/home/itssahil/PROJECTS/Mol_Feturizer/New_Systems/rnas/4TZX

>  <Rbt.Executable>
rbdock ($Id: //depot/dev/client3/rdock/2013.1/src/exe/rbdock.cxx#4 $)

>  <Rbt.Library>
libRbt.so (2013.1, Build901 2013/11/27)

>  <Rbt.Parameter_File>
/export/apps/rDock/src/rDock_2013.1_src/data/scripts/dock_solv.prm

>  <Rbt.Receptor>
prm/pocket_docking_8.prm

>  <SCORE>
-14.3751

>  <SCORE.INTER>
-14.3751

>  <SCORE.INTER.CONST>
1

>  <SCORE.INTER.POLAR>
0

>  <SCORE.INTER.ROT>
0

>  <SCORE.INTER.SOLV>
8.26802

>  <SCORE.INTER.VDW>
-15.9394

>  <SCORE.INTER.norm>
-1.43751

>  <SCORE.INTRA>
0

>  <SCORE.INTRA.DIHEDRAL>
0

>  <SCORE.INTRA.DIHEDRAL.0>
0

>  <SCORE.INTRA.POLAR>
0

>  <SCORE.INTRA.POLAR.0>
0

>  <SCORE.INTRA.REPUL>
0

>  <SCORE.INTRA.REPUL.0>
0

>  <SCORE.INTRA.SOLV>
0

>  <SCORE.INTRA.SOLV.lig_0>
-23.8949

>  <SCORE.INTRA.VDW>
0

>  <SCORE.INTRA.VDW.0>
0

>  <SCORE.INTRA.norm>
0

>  <SCORE.RESTR>
0

>  <SCORE.RESTR.CAVITY>
0

>  <SCORE.RESTR.norm>
0

>  <SCORE.SYSTEM>
0

>  <SCORE.SYSTEM.CONST>
0

>  <SCORE.SYSTEM.DIHEDRAL>
0

>  <SCORE.SYSTEM.SOLV>
0

>  <SCORE.SYSTEM.norm>
0

>  <SCORE.heavy>
10

>  <SCORE.norm>
-1.43751

>  <RMSD>
0.408

$$$$
ligand
 OpenBabel11021811513D
libRbt.so/2013.1/901 2013/11/27
 10 11  0  0  0  0  0  0  0  0999 V2000
  -30.2624   16.9704  -14.9739 N   0  0  0  0  0  0  0  0  0  0  0  0
  -31.0583   18.0348  -14.8056 C   0  0  0  0  0  0  0  0  0  0  0  0
  -31.4518   18.9381  -15.7027 N   0  0  0  0  0  0  0  0  0  0  0  0
  -30.9329   18.6672  -16.9110 C   0  0  0  0  0  0  0  0  0  0  0  0
  -30.0986   17.6144  -17.2385 C   0  0  0  0  0  0  0  0  0  0  0  0
  -29.7564   16.7248  -16.2001 C   0  0  0  0  0  0  0  0  0  0  0  0
  -28.9606   15.6644  -16.3723 N   0  0  0  0  0  0  0  0  0  0  0  0
  -29.7649   17.6536  -18.5815 N   0  0  0  0  0  0  0  0  0  0  0  0
  -30.3923   18.7152  -19.0309 C   0  0  0  0  0  0  0  0  0  0  0  0
  -31.1158   19.3741  -18.0757 N   0  0  0  0  0  0  0  0  0  0  0  0
  1  2  2  0  0  0  0
  1  6  1  0  0  0  0
  2  3  1  0  0  0  0
  3  4  2  0  0  0  0
  4  5  1  0  0  0  0
  4 10  1  0  0  0  0
  5  6  2  0  0  0  0
  5  8  1  0  0  0  0
  6  7  1  0  0  0  0
  8  9  1  0  0  0  0
  9 10  2  0  0  0  0
M  END
>  <CHROM.1>
-30.37416277,17.82684890,-16.78553405,1.28709303,-0.92354378,1.93804187

>  <Name>
ligand

>  <RI>
0

>  <Rbt.Current_Directory>
/home/itssahil/PROJECTS/Mol_Feturizer/New_Systems/rnas/4TZX

>  <Rbt.Executable>
rbdock ($Id: //depot/dev/client3/rdock/2013.1/src/exe/rbdock.cxx#4 $)

>  <Rbt.Library>
libRbt.so (2013.1, Build901 2013/11/27)

>  <Rbt.Parameter_File>
/export/apps/rDock/src/rDock_2013.1_src/data/scripts/dock_solv.prm

>  <Rbt.Receptor>
prm/blind_docking_100.prm

>  <SCORE>
-14.3436

>  <SCORE.INTER>
-14.3436

>  <SCORE.INTER.CONST>
1

>  <SCORE.INTER.POLAR>
0

>  <SCORE.INTER.ROT>
0

>  <SCORE.INTER.SOLV>
8.47502

>  <SCORE.INTER.VDW>
-15.9874

>  <SCORE.INTER.norm>
-1.43436

>  <SCORE.INTRA>
0

>  <SCORE.INTRA.DIHEDRAL>
0

>  <SCORE.INTRA.DIHEDRAL.0>
0

>  <SCORE.INTRA.POLAR>
0

>  <SCORE.INTRA.POLAR.0>
0

>  <SCORE.INTRA.REPUL>
0

>  <SCORE.INTRA.REPUL.0>
0

>  <SCORE.INTRA.SOLV>
0

>  <SCORE.INTRA.SOLV.lig_0>
-23.8949

>  <SCORE.INTRA.VDW>
0

>  <SCORE.INTRA.VDW.0>
0

>  <SCORE.INTRA.norm>
0

>  <SCORE.RESTR>
0

>  <SCORE.RESTR.CAVITY>
0

>  <SCORE.RESTR.norm>
0

>  <SCORE.SYSTEM>
0

>  <SCORE.SYSTEM.CONST>
0

>  <SCORE.SYSTEM.DIHEDRAL>
0

>  <SCORE.SYSTEM.SOLV>
0

>  <SCORE.SYSTEM.norm>
0

>  <SCORE.heavy>
10

>  <SCORE.norm>
-1.43436

>  <RMSD>
0.409

$$$$
ligand
 OpenBabel11021811513D
libRbt.so/2013.1/901 2013/11/27
 10 11  0  0  0  0  0  0  0  0999 V2000
  -30.1891   16.9947  -14.9531 N   0  0  0  0  0  0  0  0  0  0  0  0
  -31.0153   18.0369  -14.7909 C   0  0  0  0  0  0  0  0  0  0  0  0
  -31.4461   18.9146  -15.6961 N   0  0  0  0  0  0  0  0  0  0  0  0
  -30.9325   18.6420  -16.9063 C   0  0  0  0  0  0  0  0  0  0  0  0
  -30.0702   17.6103  -17.2284 C   0  0  0  0  0  0  0  0  0  0  0  0
  -29.6895   16.7467  -16.1815 C   0  0  0  0  0  0  0  0  0  0  0  0
  -28.8637   15.7087  -16.3477 N   0  0  0  0  0  0  0  0  0  0  0  0
  -29.7527   17.6401  -18.5756 N   0  0  0  0  0  0  0  0  0  0  0  0
  -30.4171   18.6755  -19.0328 C   0  0  0  0  0  0  0  0  0  0  0  0
  -31.1498   19.3260  -18.0788 N   0  0  0  0  0  0  0  0  0  0  0  0
  1  2  2  0  0  0  0
  1  6  1  0  0  0  0
  2  3  1  0  0  0  0
  3  4  2  0  0  0  0
  4  5  1  0  0  0  0
  4 10  1  0  0  0  0
  5  6  2  0  0  0  0
  5  8  1  0  0  0  0
  6  7  1  0  0  0  0
  8  9  1  0  0  0  0
  9 10  2  0  0  0  0
M  END
>  <CHROM.1>
-30.34703733,17.82090693,-16.77536480,1.25292193,-0.89872385,1.89663504

>  <Name>
ligand

>  <RI>
0

>  <Rbt.Current_Directory>
/home/itssahil/PROJECTS/Mol_Feturizer/New_Systems/rnas/4TZX

>  <Rbt.Executable>
rbdock ($Id: //depot/dev/client3/rdock/2013.1/src/exe/rbdock.cxx#4 $)

>  <Rbt.Library>
libRbt.so (2013.1, Build901 2013/11/27)

>  <Rbt.Parameter_File>
/export/apps/rDock/src/rDock_2013.1_src/data/scripts/dock_solv.prm

>  <Rbt.Receptor>
prm/blind_docking_100.prm

>  <SCORE>
-14.372

>  <SCORE.INTER>
-14.372

>  <SCORE.INTER.CONST>
1

>  <SCORE.INTER.POLAR>
0

>  <SCORE.INTER.ROT>
0

>  <SCORE.INTER.SOLV>
8.10733

>  <SCORE.INTER.VDW>
-15.8838

>  <SCORE.INTER.norm>
-1.4372

>  <SCORE.INTRA>
0

>  <SCORE.INTRA.DIHEDRAL>
0

>  <SCORE.INTRA.DIHEDRAL.0>
0

>  <SCORE.INTRA.POLAR>
0

>  <SCORE.INTRA.POLAR.0>
0

>  <SCORE.INTRA.REPUL>
0

>  <SCORE.INTRA.REPUL.0>
0

>  <SCORE.INTRA.SOLV>
0

>  <SCORE.INTRA.SOLV.lig_0>
-23.8949

>  <SCORE.INTRA.VDW>
0

>  <SCORE.INTRA.VDW.0>
0

>  <SCORE.INTRA.norm>
0

>  <SCORE.RESTR>
0

>  <SCORE.RESTR.CAVITY>
0

>  <SCORE.RESTR.norm>
0

>  <SCORE.SYSTEM>
0

>  <SCORE.SYSTEM.CONST>
0

>  <SCORE.SYSTEM.DIHEDRAL>
0

>  <SCORE.SYSTEM.SOLV>
0

>  <SCORE.SYSTEM.norm>
0

>  <SCORE.heavy>
10

>  <SCORE.norm>
-1.4372

>  <RMSD>
0.409

$$$$
ligand
 OpenBabel11021811513D
libRbt.so/2013.1/901 2013/11/27
 10 11  0  0  0  0  0  0  0  0999 V2000
  -30.2333   16.9908  -14.9615 N   0  0  0  0  0  0  0  0  0  0  0  0
  -31.0429   18.0461  -14.8013 C   0  0  0  0  0  0  0  0  0  0  0  0
  -31.4499   18.9360  -15.7057 N   0  0  0  0  0  0  0  0  0  0  0  0
  -30.9296   18.6609  -16.9126 C   0  0  0  0  0  0  0  0  0  0  0  0
  -30.0822   17.6163  -17.2321 C   0  0  0  0  0  0  0  0  0  0  0  0
  -29.7263   16.7407  -16.1864 C   0  0  0  0  0  0  0  0  0  0  0  0
  -28.9171   15.6894  -16.3505 N   0  0  0  0  0  0  0  0  0  0  0  0
  -29.7515   17.6476  -18.5761 N   0  0  0  0  0  0  0  0  0  0  0  0
  -30.3936   18.6968  -19.0339 C   0  0  0  0  0  0  0  0  0  0  0  0
  -31.1240   19.3548  -18.0833 N   0  0  0  0  0  0  0  0  0  0  0  0
  1  2  2  0  0  0  0
  1  6  1  0  0  0  0
  2  3  1  0  0  0  0
  3  4  2  0  0  0  0
  4  5  1  0  0  0  0
  4 10  1  0  0  0  0
  5  6  2  0  0  0  0
  5  8  1  0  0  0  0
  6  7  1  0  0  0  0
  8  9  1  0  0  0  0
  9 10  2  0  0  0  0
M  END
>  <CHROM.1>
-30.35966290,17.82917521,-16.78059146,1.27661124,-0.91187904,1.92064719

>  <Name>
ligand

>  <RI>
0

>  <Rbt.Current_Directory>
/home/itssahil/PROJECTS/Mol_Feturizer/New_Systems/rnas/4TZX

>  <Rbt.Executable>
rbdock ($Id: //depot/dev/client3/rdock/2013.1/src/exe/rbdock.cxx#4 $)

>  <Rbt.Library>
libRbt.so (2013.1, Build901 2013/11/27)

>  <Rbt.Parameter_File>
/export/apps/rDock/src/rDock_2013.1_src/data/scripts/dock_solv.prm

>  <Rbt.Receptor>
prm/blind_docking_60.prm

>  <SCORE>
-14.3756

>  <SCORE.INTER>
-14.3756

>  <SCORE.INTER.CONST>
1

>  <SCORE.INTER.POLAR>
0

>  <SCORE.INTER.ROT>
0

>  <SCORE.INTER.SOLV>
8.29214

>  <SCORE.INTER.VDW>
-15.9478

>  <SCORE.INTER.norm>
-1.43756

>  <SCORE.INTRA>
0

>  <SCORE.INTRA.DIHEDRAL>
0

>  <SCORE.INTRA.DIHEDRAL.0>
0

>  <SCORE.INTRA.POLAR>
0

>  <SCORE.INTRA.POLAR.0>
0

>  <SCORE.INTRA.REPUL>
0

>  <SCORE.INTRA.REPUL.0>
0

>  <SCORE.INTRA.SOLV>
0

>  <SCORE.INTRA.SOLV.lig_0>
-23.8949

>  <SCORE.INTRA.VDW>
0

>  <SCORE.INTRA.VDW.0>
0

>  <SCORE.INTRA.norm>
0

>  <SCORE.RESTR>
5.38681e-05

>  <SCORE.RESTR.CAVITY>
5.38681e-05

>  <SCORE.RESTR.norm>
5.38681e-06

>  <SCORE.SYSTEM>
0

>  <SCORE.SYSTEM.CONST>
0

>  <SCORE.SYSTEM.DIHEDRAL>
0

>  <SCORE.SYSTEM.SOLV>
0

>  <SCORE.SYSTEM.norm>
0

>  <SCORE.heavy>
10

>  <SCORE.norm>
-1.43756

>  <RMSD>
0.409

$$$$
ligand
 OpenBabel11021811513D
libRbt.so/2013.1/901 2013/11/27
 10 11  0  0  0  0  0  0  0  0999 V2000
  -30.1854   17.0096  -14.9434 N   0  0  0  0  0  0  0  0  0  0  0  0
  -31.0153   18.0494  -14.7860 C   0  0  0  0  0  0  0  0  0  0  0  0
  -31.4475   18.9228  -15.6948 N   0  0  0  0  0  0  0  0  0  0  0  0
  -30.9309   18.6480  -16.9033 C   0  0  0  0  0  0  0  0  0  0  0  0
  -30.0645   17.6183  -17.2205 C   0  0  0  0  0  0  0  0  0  0  0  0
  -29.6827   16.7594  -16.1701 C   0  0  0  0  0  0  0  0  0  0  0  0
  -28.8531   15.7236  -16.3315 N   0  0  0  0  0  0  0  0  0  0  0  0
  -29.7448   17.6447  -18.5672 N   0  0  0  0  0  0  0  0  0  0  0  0
  -30.4119   18.6764  -19.0289 C   0  0  0  0  0  0  0  0  0  0  0  0
  -31.1485   19.3275  -18.0784 N   0  0  0  0  0  0  0  0  0  0  0  0
  1  2  2  0  0  0  0
  1  6  1  0  0  0  0
  2  3  1  0  0  0  0
  3  4  2  0  0  0  0
  4  5  1  0  0  0  0
  4 10  1  0  0  0  0
  5  6  2  0  0  0  0
  5  8  1  0  0  0  0
  6  7  1  0  0  0  0
  8  9  1  0  0  0  0
  9 10  2  0  0  0  0
M  END
>  <CHROM.1>
-30.34287409,17.82935096,-16.76862577,1.25383679,-0.89494512,1.89410880

>  <Name>
ligand

>  <RI>
0

>  <Rbt.Current_Directory>
/home/itssahil/PROJECTS/Mol_Feturizer/New_Systems/rnas/4TZX

>  <Rbt.Executable>
rbdock ($Id: //depot/dev/client3/rdock/2013.1/src/exe/rbdock.cxx#4 $)

>  <Rbt.Library>
libRbt.so (2013.1, Build901 2013/11/27)

>  <Rbt.Parameter_File>
/export/apps/rDock/src/rDock_2013.1_src/data/scripts/dock_solv.prm

>  <Rbt.Receptor>
prm/blind_docking_60.prm

>  <SCORE>
-14.374

>  <SCORE.INTER>
-14.374

>  <SCORE.INTER.CONST>
1

>  <SCORE.INTER.POLAR>
0

>  <SCORE.INTER.ROT>
0

>  <SCORE.INTER.SOLV>
8.03311

>  <SCORE.INTER.VDW>
-15.8604

>  <SCORE.INTER.norm>
-1.4374

>  <SCORE.INTRA>
0

>  <SCORE.INTRA.DIHEDRAL>
0

>  <SCORE.INTRA.DIHEDRAL.0>
0

>  <SCORE.INTRA.POLAR>
0

>  <SCORE.INTRA.POLAR.0>
0

>  <SCORE.INTRA.REPUL>
0

>  <SCORE.INTRA.REPUL.0>
0

>  <SCORE.INTRA.SOLV>
0

>  <SCORE.INTRA.SOLV.lig_0>
-23.8949

>  <SCORE.INTRA.VDW>
0

>  <SCORE.INTRA.VDW.0>
0

>  <SCORE.INTRA.norm>
0

>  <SCORE.RESTR>
0

>  <SCORE.RESTR.CAVITY>
0

>  <SCORE.RESTR.norm>
0

>  <SCORE.SYSTEM>
0

>  <SCORE.SYSTEM.CONST>
0

>  <SCORE.SYSTEM.DIHEDRAL>
0

>  <SCORE.SYSTEM.SOLV>
0

>  <SCORE.SYSTEM.norm>
0

>  <SCORE.heavy>
10

>  <SCORE.norm>
-1.4374

>  <RMSD>
0.409

$$$$
ligand
 OpenBabel11021811513D
libRbt.so/2013.1/901 2013/11/27
 10 11  0  0  0  0  0  0  0  0999 V2000
  -30.2095   16.9879  -14.9585 N   0  0  0  0  0  0  0  0  0  0  0  0
  -31.0258   18.0373  -14.7935 C   0  0  0  0  0  0  0  0  0  0  0  0
  -31.4444   18.9244  -15.6953 N   0  0  0  0  0  0  0  0  0  0  0  0
  -30.9289   18.6535  -16.9052 C   0  0  0  0  0  0  0  0  0  0  0  0
  -30.0757   17.6151  -17.2298 C   0  0  0  0  0  0  0  0  0  0  0  0
  -29.7077   16.7418  -16.1864 C   0  0  0  0  0  0  0  0  0  0  0  0
  -28.8917   15.6965  -16.3554 N   0  0  0  0  0  0  0  0  0  0  0  0
  -29.7528   17.6493  -18.5756 N   0  0  0  0  0  0  0  0  0  0  0  0
  -30.4051   18.6939  -19.0294 C   0  0  0  0  0  0  0  0  0  0  0  0
  -31.1349   19.3463  -18.0745 N   0  0  0  0  0  0  0  0  0  0  0  0
  1  2  2  0  0  0  0
  1  6  1  0  0  0  0
  2  3  1  0  0  0  0
  3  4  2  0  0  0  0
  4  5  1  0  0  0  0
  4 10  1  0  0  0  0
  5  6  2  0  0  0  0
  5  8  1  0  0  0  0
  6  7  1  0  0  0  0
  8  9  1  0  0  0  0
  9 10  2  0  0  0  0
M  END
>  <CHROM.1>
-30.35220768,17.82588448,-16.77664763,1.26400500,-0.90696009,1.91100741

>  <Name>
ligand

>  <RI>
0

>  <Rbt.Current_Directory>
/home/itssahil/PROJECTS/Mol_Feturizer/New_Systems/rnas/4TZX

>  <Rbt.Executable>
rbdock ($Id: //depot/dev/client3/rdock/2013.1/src/exe/rbdock.cxx#4 $)

>  <Rbt.Library>
libRbt.so (2013.1, Build901 2013/11/27)

>  <Rbt.Parameter_File>
/export/apps/rDock/src/rDock_2013.1_src/data/scripts/dock_solv.prm

>  <Rbt.Receptor>
prm/blind_docking_80.prm

>  <SCORE>
-14.3771

>  <SCORE.INTER>
-14.3771

>  <SCORE.INTER.CONST>
1

>  <SCORE.INTER.POLAR>
0

>  <SCORE.INTER.ROT>
0

>  <SCORE.INTER.SOLV>
8.21643

>  <SCORE.INTER.VDW>
-15.9235

>  <SCORE.INTER.norm>
-1.43771

>  <SCORE.INTRA>
0

>  <SCORE.INTRA.DIHEDRAL>
0

>  <SCORE.INTRA.DIHEDRAL.0>
0

>  <SCORE.INTRA.POLAR>
0

>  <SCORE.INTRA.POLAR.0>
0

>  <SCORE.INTRA.REPUL>
0

>  <SCORE.INTRA.REPUL.0>
0

>  <SCORE.INTRA.SOLV>
0

>  <SCORE.INTRA.SOLV.lig_0>
-23.8949

>  <SCORE.INTRA.VDW>
0

>  <SCORE.INTRA.VDW.0>
0

>  <SCORE.INTRA.norm>
0

>  <SCORE.RESTR>
2.54971e-05

>  <SCORE.RESTR.CAVITY>
2.54971e-05

>  <SCORE.RESTR.norm>
2.54971e-06

>  <SCORE.SYSTEM>
0

>  <SCORE.SYSTEM.CONST>
0

>  <SCORE.SYSTEM.DIHEDRAL>
0

>  <SCORE.SYSTEM.SOLV>
0

>  <SCORE.SYSTEM.norm>
0

>  <SCORE.heavy>
10

>  <SCORE.norm>
-1.43771

>  <RMSD>
0.409

$$$$
ligand
 OpenBabel11021811513D
libRbt.so/2013.1/901 2013/11/27
 10 11  0  0  0  0  0  0  0  0999 V2000
  -30.2092   16.9992  -14.9541 N   0  0  0  0  0  0  0  0  0  0  0  0
  -31.0330   18.0441  -14.7975 C   0  0  0  0  0  0  0  0  0  0  0  0
  -31.4549   18.9231  -15.7058 N   0  0  0  0  0  0  0  0  0  0  0  0
  -30.9341   18.6485  -16.9125 C   0  0  0  0  0  0  0  0  0  0  0  0
  -30.0731   17.6140  -17.2286 C   0  0  0  0  0  0  0  0  0  0  0  0
  -29.7022   16.7493  -16.1790 C   0  0  0  0  0  0  0  0  0  0  0  0
  -28.8787   15.7085  -16.3395 N   0  0  0  0  0  0  0  0  0  0  0  0
  -29.7465   17.6424  -18.5737 N   0  0  0  0  0  0  0  0  0  0  0  0
  -30.4044   18.6799  -19.0355 C   0  0  0  0  0  0  0  0  0  0  0  0
  -31.1413   19.3330  -18.0866 N   0  0  0  0  0  0  0  0  0  0  0  0
  1  2  2  0  0  0  0
  1  6  1  0  0  0  0
  2  3  1  0  0  0  0
  3  4  2  0  0  0  0
  4  5  1  0  0  0  0
  4 10  1  0  0  0  0
  5  6  2  0  0  0  0
  5  8  1  0  0  0  0
  6  7  1  0  0  0  0
  8  9  1  0  0  0  0
  9 10  2  0  0  0  0
M  END
>  <CHROM.1>
-30.35225646,17.82552531,-16.77748313,1.26479542,-0.89966086,1.90573172

>  <Name>
ligand

>  <RI>
0

>  <Rbt.Current_Directory>
/home/itssahil/PROJECTS/Mol_Feturizer/New_Systems/rnas/4TZX

>  <Rbt.Executable>
rbdock ($Id: //depot/dev/client3/rdock/2013.1/src/exe/rbdock.cxx#4 $)

>  <Rbt.Library>
libRbt.so (2013.1, Build901 2013/11/27)

>  <Rbt.Parameter_File>
/export/apps/rDock/src/rDock_2013.1_src/data/scripts/dock_solv.prm

>  <Rbt.Receptor>
prm/pocket_docking_4.prm

>  <SCORE>
-14.3744

>  <SCORE.INTER>
-14.3744

>  <SCORE.INTER.CONST>
1

>  <SCORE.INTER.POLAR>
0

>  <SCORE.INTER.ROT>
0

>  <SCORE.INTER.SOLV>
8.14069

>  <SCORE.INTER.VDW>
-15.8965

>  <SCORE.INTER.norm>
-1.43744

>  <SCORE.INTRA>
0

>  <SCORE.INTRA.DIHEDRAL>
0

>  <SCORE.INTRA.DIHEDRAL.0>
0

>  <SCORE.INTRA.POLAR>
0

>  <SCORE.INTRA.POLAR.0>
0

>  <SCORE.INTRA.REPUL>
0

>  <SCORE.INTRA.REPUL.0>
0

>  <SCORE.INTRA.SOLV>
0

>  <SCORE.INTRA.SOLV.lig_0>
-23.8949

>  <SCORE.INTRA.VDW>
0

>  <SCORE.INTRA.VDW.0>
0

>  <SCORE.INTRA.norm>
0

>  <SCORE.RESTR>
0

>  <SCORE.RESTR.CAVITY>
0

>  <SCORE.RESTR.norm>
0

>  <SCORE.SYSTEM>
0

>  <SCORE.SYSTEM.CONST>
0

>  <SCORE.SYSTEM.DIHEDRAL>
0

>  <SCORE.SYSTEM.SOLV>
0

>  <SCORE.SYSTEM.norm>
0

>  <SCORE.heavy>
10

>  <SCORE.norm>
-1.43744

>  <RMSD>
0.409

$$$$
ligand
 OpenBabel11021811513D
libRbt.so/2013.1/901 2013/11/27
 10 11  0  0  0  0  0  0  0  0999 V2000
  -30.1627   17.0477  -14.9133 N   0  0  0  0  0  0  0  0  0  0  0  0
  -31.0039   18.0801  -14.7672 C   0  0  0  0  0  0  0  0  0  0  0  0
  -31.4445   18.9395  -15.6853 N   0  0  0  0  0  0  0  0  0  0  0  0
  -30.9237   18.6580  -16.8904 C   0  0  0  0  0  0  0  0  0  0  0  0
  -30.0460   17.6344  -17.1963 C   0  0  0  0  0  0  0  0  0  0  0  0
  -29.6561   16.7903  -16.1370 C   0  0  0  0  0  0  0  0  0  0  0  0
  -28.8153   15.7619  -16.2870 N   0  0  0  0  0  0  0  0  0  0  0  0
  -29.7252   17.6506  -18.5430 N   0  0  0  0  0  0  0  0  0  0  0  0
  -30.4029   18.6703  -19.0157 C   0  0  0  0  0  0  0  0  0  0  0  0
  -31.1474   19.3231  -18.0725 N   0  0  0  0  0  0  0  0  0  0  0  0
  1  2  2  0  0  0  0
  1  6  1  0  0  0  0
  2  3  1  0  0  0  0
  3  4  2  0  0  0  0
  4  5  1  0  0  0  0
  4 10  1  0  0  0  0
  5  6  2  0  0  0  0
  5  8  1  0  0  0  0
  6  7  1  0  0  0  0
  8  9  1  0  0  0  0
  9 10  2  0  0  0  0
M  END
>  <CHROM.1>
-30.32711204,17.84706250,-16.74690550,1.24999358,-0.88447085,1.88096192

>  <Name>
ligand

>  <RI>
0

>  <Rbt.Current_Directory>
/home/itssahil/PROJECTS/Mol_Feturizer/New_Systems/rnas/4TZX

>  <Rbt.Executable>
rbdock ($Id: //depot/dev/client3/rdock/2013.1/src/exe/rbdock.cxx#4 $)

>  <Rbt.Library>
libRbt.so (2013.1, Build901 2013/11/27)

>  <Rbt.Parameter_File>
/export/apps/rDock/src/rDock_2013.1_src/data/scripts/dock_solv.prm

>  <Rbt.Receptor>
prm/pocket_docking_5.prm

>  <SCORE>
-14.399

>  <SCORE.INTER>
-14.399

>  <SCORE.INTER.CONST>
1

>  <SCORE.INTER.POLAR>
0

>  <SCORE.INTER.ROT>
0

>  <SCORE.INTER.SOLV>
7.82463

>  <SCORE.INTER.VDW>
-15.8075

>  <SCORE.INTER.norm>
-1.4399

>  <SCORE.INTRA>
0

>  <SCORE.INTRA.DIHEDRAL>
0

>  <SCORE.INTRA.DIHEDRAL.0>
0

>  <SCORE.INTRA.POLAR>
0

>  <SCORE.INTRA.POLAR.0>
0

>  <SCORE.INTRA.REPUL>
0

>  <SCORE.INTRA.REPUL.0>
0

>  <SCORE.INTRA.SOLV>
0

>  <SCORE.INTRA.SOLV.lig_0>
-23.8949

>  <SCORE.INTRA.VDW>
0

>  <SCORE.INTRA.VDW.0>
0

>  <SCORE.INTRA.norm>
0

>  <SCORE.RESTR>
0

>  <SCORE.RESTR.CAVITY>
0

>  <SCORE.RESTR.norm>
0

>  <SCORE.SYSTEM>
0

>  <SCORE.SYSTEM.CONST>
0

>  <SCORE.SYSTEM.DIHEDRAL>
0

>  <SCORE.SYSTEM.SOLV>
0

>  <SCORE.SYSTEM.norm>
0

>  <SCORE.heavy>
10

>  <SCORE.norm>
-1.4399

>  <RMSD>
0.409

$$$$
ligand
 OpenBabel11021811513D
libRbt.so/2013.1/901 2013/11/27
 10 11  0  0  0  0  0  0  0  0999 V2000
  -30.2366   16.9602  -14.9767 N   0  0  0  0  0  0  0  0  0  0  0  0
  -31.0418   18.0172  -14.8060 C   0  0  0  0  0  0  0  0  0  0  0  0
  -31.4475   18.9161  -15.7020 N   0  0  0  0  0  0  0  0  0  0  0  0
  -30.9309   18.6491  -16.9123 C   0  0  0  0  0  0  0  0  0  0  0  0
  -30.0882   17.6040  -17.2424 C   0  0  0  0  0  0  0  0  0  0  0  0
  -29.7333   16.7184  -16.2049 C   0  0  0  0  0  0  0  0  0  0  0  0
  -28.9284   15.6654  -16.3795 N   0  0  0  0  0  0  0  0  0  0  0  0
  -29.7604   17.6453  -18.5869 N   0  0  0  0  0  0  0  0  0  0  0  0
  -30.3995   18.7007  -19.0344 C   0  0  0  0  0  0  0  0  0  0  0  0
  -31.1253   19.3535  -18.0767 N   0  0  0  0  0  0  0  0  0  0  0  0
  1  2  2  0  0  0  0
  1  6  1  0  0  0  0
  2  3  1  0  0  0  0
  3  4  2  0  0  0  0
  4  5  1  0  0  0  0
  4 10  1  0  0  0  0
  5  6  2  0  0  0  0
  5  8  1  0  0  0  0
  6  7  1  0  0  0  0
  8  9  1  0  0  0  0
  9 10  2  0  0  0  0
M  END
>  <CHROM.1>
-30.36385570,17.81416404,-16.78851305,1.27529938,-0.91620396,1.92793293

>  <Name>
ligand

>  <RI>
0

>  <Rbt.Current_Directory>
/home/itssahil/PROJECTS/Mol_Feturizer/New_Systems/rnas/4TZX

>  <Rbt.Executable>
rbdock ($Id: //depot/dev/client3/rdock/2013.1/src/exe/rbdock.cxx#4 $)

>  <Rbt.Library>
libRbt.so (2013.1, Build901 2013/11/27)

>  <Rbt.Parameter_File>
/export/apps/rDock/src/rDock_2013.1_src/data/scripts/dock_solv.prm

>  <Rbt.Receptor>
prm/pocket_docking_6.prm

>  <SCORE>
-14.3451

>  <SCORE.INTER>
-14.3451

>  <SCORE.INTER.CONST>
1

>  <SCORE.INTER.POLAR>
0

>  <SCORE.INTER.ROT>
0

>  <SCORE.INTER.SOLV>
8.39511

>  <SCORE.INTER.VDW>
-15.9618

>  <SCORE.INTER.norm>
-1.43451

>  <SCORE.INTRA>
0

>  <SCORE.INTRA.DIHEDRAL>
0

>  <SCORE.INTRA.DIHEDRAL.0>
0

>  <SCORE.INTRA.POLAR>
0

>  <SCORE.INTRA.POLAR.0>
0

>  <SCORE.INTRA.REPUL>
0

>  <SCORE.INTRA.REPUL.0>
0

>  <SCORE.INTRA.SOLV>
0

>  <SCORE.INTRA.SOLV.lig_0>
-23.8949

>  <SCORE.INTRA.VDW>
0

>  <SCORE.INTRA.VDW.0>
0

>  <SCORE.INTRA.norm>
0

>  <SCORE.RESTR>
0

>  <SCORE.RESTR.CAVITY>
0

>  <SCORE.RESTR.norm>
0

>  <SCORE.SYSTEM>
0

>  <SCORE.SYSTEM.CONST>
0

>  <SCORE.SYSTEM.DIHEDRAL>
0

>  <SCORE.SYSTEM.SOLV>
0

>  <SCORE.SYSTEM.norm>
0

>  <SCORE.heavy>
10

>  <SCORE.norm>
-1.43451

>  <RMSD>
0.409

$$$$
ligand
 OpenBabel11021811513D
libRbt.so/2013.1/901 2013/11/27
 10 11  0  0  0  0  0  0  0  0999 V2000
  -30.1958   17.0096  -14.9447 N   0  0  0  0  0  0  0  0  0  0  0  0
  -31.0239   18.0512  -14.7892 C   0  0  0  0  0  0  0  0  0  0  0  0
  -31.4509   18.9264  -15.6987 N   0  0  0  0  0  0  0  0  0  0  0  0
  -30.9307   18.6514  -16.9057 C   0  0  0  0  0  0  0  0  0  0  0  0
  -30.0657   17.6199  -17.2208 C   0  0  0  0  0  0  0  0  0  0  0  0
  -29.6895   16.7592  -16.1699 C   0  0  0  0  0  0  0  0  0  0  0  0
  -28.8619   15.7215  -16.3293 N   0  0  0  0  0  0  0  0  0  0  0  0
  -29.7413   17.6467  -18.5664 N   0  0  0  0  0  0  0  0  0  0  0  0
  -30.4043   18.6804  -19.0295 C   0  0  0  0  0  0  0  0  0  0  0  0
  -31.1426   19.3324  -18.0809 N   0  0  0  0  0  0  0  0  0  0  0  0
  1  2  2  0  0  0  0
  1  6  1  0  0  0  0
  2  3  1  0  0  0  0
  3  4  2  0  0  0  0
  4  5  1  0  0  0  0
  4 10  1  0  0  0  0
  5  6  2  0  0  0  0
  5  8  1  0  0  0  0
  6  7  1  0  0  0  0
  8  9  1  0  0  0  0
  9 10  2  0  0  0  0
M  END
>  <CHROM.1>
-30.34512301,17.83122812,-16.76969238,1.26027032,-0.89608415,1.90000185

>  <Name>
ligand

>  <RI>
0

>  <Rbt.Current_Directory>
/home/itssahil/PROJECTS/Mol_Feturizer/New_Systems/rnas/4TZX

>  <Rbt.Executable>
rbdock ($Id: //depot/dev/client3/rdock/2013.1/src/exe/rbdock.cxx#4 $)

>  <Rbt.Library>
libRbt.so (2013.1, Build901 2013/11/27)

>  <Rbt.Parameter_File>
/export/apps/rDock/src/rDock_2013.1_src/data/scripts/dock_solv.prm

>  <Rbt.Receptor>
prm/pocket_docking_6.prm

>  <SCORE>
-14.3753

>  <SCORE.INTER>
-14.3755

>  <SCORE.INTER.CONST>
1

>  <SCORE.INTER.POLAR>
0

>  <SCORE.INTER.ROT>
0

>  <SCORE.INTER.SOLV>
8.05935

>  <SCORE.INTER.VDW>
-15.8701

>  <SCORE.INTER.norm>
-1.43755

>  <SCORE.INTRA>
0

>  <SCORE.INTRA.DIHEDRAL>
0

>  <SCORE.INTRA.DIHEDRAL.0>
0

>  <SCORE.INTRA.POLAR>
0

>  <SCORE.INTRA.POLAR.0>
0

>  <SCORE.INTRA.REPUL>
0

>  <SCORE.INTRA.REPUL.0>
0

>  <SCORE.INTRA.SOLV>
0

>  <SCORE.INTRA.SOLV.lig_0>
-23.8949

>  <SCORE.INTRA.VDW>
0

>  <SCORE.INTRA.VDW.0>
0

>  <SCORE.INTRA.norm>
0

>  <SCORE.RESTR>
0.000210011

>  <SCORE.RESTR.CAVITY>
0.000210011

>  <SCORE.RESTR.norm>
2.10011e-05

>  <SCORE.SYSTEM>
0

>  <SCORE.SYSTEM.CONST>
0

>  <SCORE.SYSTEM.DIHEDRAL>
0

>  <SCORE.SYSTEM.SOLV>
0

>  <SCORE.SYSTEM.norm>
0

>  <SCORE.heavy>
10

>  <SCORE.norm>
-1.43753

>  <RMSD>
0.409

$$$$
ligand
 OpenBabel11021811513D
libRbt.so/2013.1/901 2013/11/27
 10 11  0  0  0  0  0  0  0  0999 V2000
  -30.1951   17.0197  -14.9391 N   0  0  0  0  0  0  0  0  0  0  0  0
  -31.0228   18.0618  -14.7850 C   0  0  0  0  0  0  0  0  0  0  0  0
  -31.4504   18.9353  -15.6959 N   0  0  0  0  0  0  0  0  0  0  0  0
  -30.9313   18.6578  -16.9027 C   0  0  0  0  0  0  0  0  0  0  0  0
  -30.0668   17.6254  -17.2165 C   0  0  0  0  0  0  0  0  0  0  0  0
  -29.6899   16.7667  -16.1642 C   0  0  0  0  0  0  0  0  0  0  0  0
  -28.8626   15.7286  -16.3222 N   0  0  0  0  0  0  0  0  0  0  0  0
  -29.7435   17.6495  -18.5624 N   0  0  0  0  0  0  0  0  0  0  0  0
  -30.4068   18.6824  -19.0270 C   0  0  0  0  0  0  0  0  0  0  0  0
  -31.1441   19.3365  -18.0791 N   0  0  0  0  0  0  0  0  0  0  0  0
  1  2  2  0  0  0  0
  1  6  1  0  0  0  0
  2  3  1  0  0  0  0
  3  4  2  0  0  0  0
  4  5  1  0  0  0  0
  4 10  1  0  0  0  0
  5  6  2  0  0  0  0
  5  8  1  0  0  0  0
  6  7  1  0  0  0  0
  8  9  1  0  0  0  0
  9 10  2  0  0  0  0
M  END
>  <CHROM.1>
-30.34579796,17.83775039,-16.76558788,1.25908053,-0.89656425,1.89707470

>  <Name>
ligand

>  <RI>
0

>  <Rbt.Current_Directory>
/home/itssahil/PROJECTS/Mol_Feturizer/New_Systems/rnas/4TZX

>  <Rbt.Executable>
rbdock ($Id: //depot/dev/client3/rdock/2013.1/src/exe/rbdock.cxx#4 $)

>  <Rbt.Library>
libRbt.so (2013.1, Build901 2013/11/27)

>  <Rbt.Parameter_File>
/export/apps/rDock/src/rDock_2013.1_src/data/scripts/dock_solv.prm

>  <Rbt.Receptor>
prm/pocket_docking_6.prm

>  <SCORE>
-14.373

>  <SCORE.INTER>
-14.373

>  <SCORE.INTER.CONST>
1

>  <SCORE.INTER.POLAR>
0

>  <SCORE.INTER.ROT>
0

>  <SCORE.INTER.SOLV>
8.04016

>  <SCORE.INTER.VDW>
-15.8621

>  <SCORE.INTER.norm>
-1.4373

>  <SCORE.INTRA>
0

>  <SCORE.INTRA.DIHEDRAL>
0

>  <SCORE.INTRA.DIHEDRAL.0>
0

>  <SCORE.INTRA.POLAR>
0

>  <SCORE.INTRA.POLAR.0>
0

>  <SCORE.INTRA.REPUL>
0

>  <SCORE.INTRA.REPUL.0>
0

>  <SCORE.INTRA.SOLV>
0

>  <SCORE.INTRA.SOLV.lig_0>
-23.8949

>  <SCORE.INTRA.VDW>
0

>  <SCORE.INTRA.VDW.0>
0

>  <SCORE.INTRA.norm>
0

>  <SCORE.RESTR>
0

>  <SCORE.RESTR.CAVITY>
0

>  <SCORE.RESTR.norm>
0

>  <SCORE.SYSTEM>
0

>  <SCORE.SYSTEM.CONST>
0

>  <SCORE.SYSTEM.DIHEDRAL>
0

>  <SCORE.SYSTEM.SOLV>
0

>  <SCORE.SYSTEM.norm>
0

>  <SCORE.heavy>
10

>  <SCORE.norm>
-1.4373

>  <RMSD>
0.409

$$$$
ligand
 OpenBabel11021811513D
libRbt.so/2013.1/901 2013/11/27
 10 11  0  0  0  0  0  0  0  0999 V2000
  -30.2507   16.9939  -14.9586 N   0  0  0  0  0  0  0  0  0  0  0  0
  -31.0531   18.0543  -14.7957 C   0  0  0  0  0  0  0  0  0  0  0  0
  -31.4531   18.9499  -15.6976 N   0  0  0  0  0  0  0  0  0  0  0  0
  -30.9336   18.6752  -16.9048 C   0  0  0  0  0  0  0  0  0  0  0  0
  -30.0931   17.6257  -17.2270 C   0  0  0  0  0  0  0  0  0  0  0  0
  -29.7443   16.7443  -16.1839 C   0  0  0  0  0  0  0  0  0  0  0  0
  -28.9421   15.6880  -16.3507 N   0  0  0  0  0  0  0  0  0  0  0  0
  -29.7609   17.6592  -18.5706 N   0  0  0  0  0  0  0  0  0  0  0  0
  -30.3953   18.7143  -19.0255 C   0  0  0  0  0  0  0  0  0  0  0  0
  -31.1221   19.3742  -18.0735 N   0  0  0  0  0  0  0  0  0  0  0  0
  1  2  2  0  0  0  0
  1  6  1  0  0  0  0
  2  3  1  0  0  0  0
  3  4  2  0  0  0  0
  4  5  1  0  0  0  0
  4 10  1  0  0  0  0
  5  6  2  0  0  0  0
  5  8  1  0  0  0  0
  6  7  1  0  0  0  0
  8  9  1  0  0  0  0
  9 10  2  0  0  0  0
M  END
>  <CHROM.1>
-30.36954802,17.83908580,-16.77505151,1.28194819,-0.91803241,1.92814683

>  <Name>
ligand

>  <RI>
0

>  <Rbt.Current_Directory>
/home/itssahil/PROJECTS/Mol_Feturizer/New_Systems/rnas/4TZX

>  <Rbt.Executable>
rbdock ($Id: //depot/dev/client3/rdock/2013.1/src/exe/rbdock.cxx#4 $)

>  <Rbt.Library>
libRbt.so (2013.1, Build901 2013/11/27)

>  <Rbt.Parameter_File>
/export/apps/rDock/src/rDock_2013.1_src/data/scripts/dock_solv.prm

>  <Rbt.Receptor>
prm/pocket_docking_8.prm

>  <SCORE>
-14.3728

>  <SCORE.INTER>
-14.3728

>  <SCORE.INTER.CONST>
1

>  <SCORE.INTER.POLAR>
0

>  <SCORE.INTER.ROT>
0

>  <SCORE.INTER.SOLV>
8.36041

>  <SCORE.INTER.VDW>
-15.9687

>  <SCORE.INTER.norm>
-1.43728

>  <SCORE.INTRA>
0

>  <SCORE.INTRA.DIHEDRAL>
0

>  <SCORE.INTRA.DIHEDRAL.0>
0

>  <SCORE.INTRA.POLAR>
0

>  <SCORE.INTRA.POLAR.0>
0

>  <SCORE.INTRA.REPUL>
0

>  <SCORE.INTRA.REPUL.0>
0

>  <SCORE.INTRA.SOLV>
0

>  <SCORE.INTRA.SOLV.lig_0>
-23.8949

>  <SCORE.INTRA.VDW>
0

>  <SCORE.INTRA.VDW.0>
0

>  <SCORE.INTRA.norm>
0

>  <SCORE.RESTR>
0

>  <SCORE.RESTR.CAVITY>
0

>  <SCORE.RESTR.norm>
0

>  <SCORE.SYSTEM>
0

>  <SCORE.SYSTEM.CONST>
0

>  <SCORE.SYSTEM.DIHEDRAL>
0

>  <SCORE.SYSTEM.SOLV>
0

>  <SCORE.SYSTEM.norm>
0

>  <SCORE.heavy>
10

>  <SCORE.norm>
-1.43728

>  <RMSD>
0.409

$$$$
ligand
 OpenBabel11021811513D
libRbt.so/2013.1/901 2013/11/27
 10 11  0  0  0  0  0  0  0  0999 V2000
  -30.2078   16.9902  -14.9592 N   0  0  0  0  0  0  0  0  0  0  0  0
  -31.0269   18.0376  -14.7952 C   0  0  0  0  0  0  0  0  0  0  0  0
  -31.4487   18.9221  -15.6980 N   0  0  0  0  0  0  0  0  0  0  0  0
  -30.9332   18.6508  -16.9078 C   0  0  0  0  0  0  0  0  0  0  0  0
  -30.0773   17.6144  -17.2315 C   0  0  0  0  0  0  0  0  0  0  0  0
  -29.7061   16.7438  -16.1870 C   0  0  0  0  0  0  0  0  0  0  0  0
  -28.8872   15.7005  -16.3550 N   0  0  0  0  0  0  0  0  0  0  0  0
  -29.7554   17.6474  -18.5776 N   0  0  0  0  0  0  0  0  0  0  0  0
  -30.4110   18.6895  -19.0325 C   0  0  0  0  0  0  0  0  0  0  0  0
  -31.1420   19.3412  -18.0781 N   0  0  0  0  0  0  0  0  0  0  0  0
  1  2  2  0  0  0  0
  1  6  1  0  0  0  0
  2  3  1  0  0  0  0
  3  4  2  0  0  0  0
  4  5  1  0  0  0  0
  4 10  1  0  0  0  0
  5  6  2  0  0  0  0
  5  8  1  0  0  0  0
  6  7  1  0  0  0  0
  8  9  1  0  0  0  0
  9 10  2  0  0  0  0
M  END
>  <CHROM.1>
-30.35408232,17.82505038,-16.77845855,1.26141277,-0.90449197,1.90744560

>  <Name>
ligand

>  <RI>
0

>  <Rbt.Current_Directory>
/home/itssahil/PROJECTS/Mol_Feturizer/New_Systems/rnas/4TZX

>  <Rbt.Executable>
rbdock ($Id: //depot/dev/client3/rdock/2013.1/src/exe/rbdock.cxx#4 $)

>  <Rbt.Library>
libRbt.so (2013.1, Build901 2013/11/27)

>  <Rbt.Parameter_File>
/export/apps/rDock/src/rDock_2013.1_src/data/scripts/dock_solv.prm

>  <Rbt.Receptor>
prm/blind_docking_100.prm

>  <SCORE>
-14.3757

>  <SCORE.INTER>
-14.3757

>  <SCORE.INTER.CONST>
1

>  <SCORE.INTER.POLAR>
0

>  <SCORE.INTER.ROT>
0

>  <SCORE.INTER.SOLV>
8.19675

>  <SCORE.INTER.VDW>
-15.916

>  <SCORE.INTER.norm>
-1.43757

>  <SCORE.INTRA>
0

>  <SCORE.INTRA.DIHEDRAL>
0

>  <SCORE.INTRA.DIHEDRAL.0>
0

>  <SCORE.INTRA.POLAR>
0

>  <SCORE.INTRA.POLAR.0>
0

>  <SCORE.INTRA.REPUL>
0

>  <SCORE.INTRA.REPUL.0>
0

>  <SCORE.INTRA.SOLV>
0

>  <SCORE.INTRA.SOLV.lig_0>
-23.8949

>  <SCORE.INTRA.VDW>
0

>  <SCORE.INTRA.VDW.0>
0

>  <SCORE.INTRA.norm>
0

>  <SCORE.RESTR>
0

>  <SCORE.RESTR.CAVITY>
0

>  <SCORE.RESTR.norm>
0

>  <SCORE.SYSTEM>
0

>  <SCORE.SYSTEM.CONST>
0

>  <SCORE.SYSTEM.DIHEDRAL>
0

>  <SCORE.SYSTEM.SOLV>
0

>  <SCORE.SYSTEM.norm>
0

>  <SCORE.heavy>
10

>  <SCORE.norm>
-1.43757

>  <RMSD>
0.410

$$$$
ligand
 OpenBabel11021811513D
libRbt.so/2013.1/901 2013/11/27
 10 11  0  0  0  0  0  0  0  0999 V2000
  -30.2018   17.0003  -14.9525 N   0  0  0  0  0  0  0  0  0  0  0  0
  -31.0246   18.0452  -14.7915 C   0  0  0  0  0  0  0  0  0  0  0  0
  -31.4499   18.9253  -15.6972 N   0  0  0  0  0  0  0  0  0  0  0  0
  -30.9341   18.6518  -16.9063 C   0  0  0  0  0  0  0  0  0  0  0  0
  -30.0746   17.6174  -17.2269 C   0  0  0  0  0  0  0  0  0  0  0  0
  -29.6997   16.7516  -16.1797 C   0  0  0  0  0  0  0  0  0  0  0  0
  -28.8772   15.7107  -16.3446 N   0  0  0  0  0  0  0  0  0  0  0  0
  -29.7534   17.6471  -18.5732 N   0  0  0  0  0  0  0  0  0  0  0  0
  -30.4129   18.6853  -19.0313 C   0  0  0  0  0  0  0  0  0  0  0  0
  -31.1458   19.3376  -18.0787 N   0  0  0  0  0  0  0  0  0  0  0  0
  1  2  2  0  0  0  0
  1  6  1  0  0  0  0
  2  3  1  0  0  0  0
  3  4  2  0  0  0  0
  4  5  1  0  0  0  0
  4 10  1  0  0  0  0
  5  6  2  0  0  0  0
  5  8  1  0  0  0  0
  6  7  1  0  0  0  0
  8  9  1  0  0  0  0
  9 10  2  0  0  0  0
M  END
>  <CHROM.1>
-30.35190224,17.82855459,-16.77443614,1.25881015,-0.90124947,1.90208460

>  <Name>
ligand

>  <RI>
0

>  <Rbt.Current_Directory>
/home/itssahil/PROJECTS/Mol_Feturizer/New_Systems/rnas/4TZX

>  <Rbt.Executable>
rbdock ($Id: //depot/dev/client3/rdock/2013.1/src/exe/rbdock.cxx#4 $)

>  <Rbt.Library>
libRbt.so (2013.1, Build901 2013/11/27)

>  <Rbt.Parameter_File>
/export/apps/rDock/src/rDock_2013.1_src/data/scripts/dock_solv.prm

>  <Rbt.Receptor>
prm/blind_docking_60.prm

>  <SCORE>
-14.3741

>  <SCORE.INTER>
-14.3741

>  <SCORE.INTER.CONST>
1

>  <SCORE.INTER.POLAR>
0

>  <SCORE.INTER.ROT>
0

>  <SCORE.INTER.SOLV>
8.1391

>  <SCORE.INTER.VDW>
-15.8958

>  <SCORE.INTER.norm>
-1.43741

>  <SCORE.INTRA>
0

>  <SCORE.INTRA.DIHEDRAL>
0

>  <SCORE.INTRA.DIHEDRAL.0>
0

>  <SCORE.INTRA.POLAR>
0

>  <SCORE.INTRA.POLAR.0>
0

>  <SCORE.INTRA.REPUL>
0

>  <SCORE.INTRA.REPUL.0>
0

>  <SCORE.INTRA.SOLV>
0

>  <SCORE.INTRA.SOLV.lig_0>
-23.8949

>  <SCORE.INTRA.VDW>
0

>  <SCORE.INTRA.VDW.0>
0

>  <SCORE.INTRA.norm>
0

>  <SCORE.RESTR>
0

>  <SCORE.RESTR.CAVITY>
0

>  <SCORE.RESTR.norm>
0

>  <SCORE.SYSTEM>
0

>  <SCORE.SYSTEM.CONST>
0

>  <SCORE.SYSTEM.DIHEDRAL>
0

>  <SCORE.SYSTEM.SOLV>
0

>  <SCORE.SYSTEM.norm>
0

>  <SCORE.heavy>
10

>  <SCORE.norm>
-1.43741

>  <RMSD>
0.410

$$$$
ligand
 OpenBabel11021811513D
libRbt.so/2013.1/901 2013/11/27
 10 11  0  0  0  0  0  0  0  0999 V2000
  -30.2066   17.0087  -14.9487 N   0  0  0  0  0  0  0  0  0  0  0  0
  -31.0295   18.0542  -14.7914 C   0  0  0  0  0  0  0  0  0  0  0  0
  -31.4523   18.9330  -15.6994 N   0  0  0  0  0  0  0  0  0  0  0  0
  -30.9335   18.6576  -16.9068 C   0  0  0  0  0  0  0  0  0  0  0  0
  -30.0736   17.6224  -17.2237 C   0  0  0  0  0  0  0  0  0  0  0  0
  -29.7016   16.7580  -16.1744 C   0  0  0  0  0  0  0  0  0  0  0  0
  -28.8790   15.7166  -16.3356 N   0  0  0  0  0  0  0  0  0  0  0  0
  -29.7490   17.6500  -18.5693 N   0  0  0  0  0  0  0  0  0  0  0  0
  -30.4070   18.6877  -19.0306 C   0  0  0  0  0  0  0  0  0  0  0  0
  -31.1421   19.3416  -18.0808 N   0  0  0  0  0  0  0  0  0  0  0  0
  1  2  2  0  0  0  0
  1  6  1  0  0  0  0
  2  3  1  0  0  0  0
  3  4  2  0  0  0  0
  4  5  1  0  0  0  0
  4 10  1  0  0  0  0
  5  6  2  0  0  0  0
  5  8  1  0  0  0  0
  6  7  1  0  0  0  0
  8  9  1  0  0  0  0
  9 10  2  0  0  0  0
M  END
>  <CHROM.1>
-30.35192277,17.83430115,-16.77230592,1.26276202,-0.90074022,1.90368203

>  <Name>
ligand

>  <RI>
0

>  <Rbt.Current_Directory>
/home/itssahil/PROJECTS/Mol_Feturizer/New_Systems/rnas/4TZX

>  <Rbt.Executable>
rbdock ($Id: //depot/dev/client3/rdock/2013.1/src/exe/rbdock.cxx#4 $)

>  <Rbt.Library>
libRbt.so (2013.1, Build901 2013/11/27)

>  <Rbt.Parameter_File>
/export/apps/rDock/src/rDock_2013.1_src/data/scripts/dock_solv.prm

>  <Rbt.Receptor>
prm/blind_docking_80.prm

>  <SCORE>
-14.3742

>  <SCORE.INTER>
-14.3742

>  <SCORE.INTER.CONST>
1

>  <SCORE.INTER.POLAR>
0

>  <SCORE.INTER.ROT>
0

>  <SCORE.INTER.SOLV>
8.12385

>  <SCORE.INTER.VDW>
-15.8908

>  <SCORE.INTER.norm>
-1.43742

>  <SCORE.INTRA>
0

>  <SCORE.INTRA.DIHEDRAL>
0

>  <SCORE.INTRA.DIHEDRAL.0>
0

>  <SCORE.INTRA.POLAR>
0

>  <SCORE.INTRA.POLAR.0>
0

>  <SCORE.INTRA.REPUL>
0

>  <SCORE.INTRA.REPUL.0>
0

>  <SCORE.INTRA.SOLV>
0

>  <SCORE.INTRA.SOLV.lig_0>
-23.8949

>  <SCORE.INTRA.VDW>
0

>  <SCORE.INTRA.VDW.0>
0

>  <SCORE.INTRA.norm>
0

>  <SCORE.RESTR>
0

>  <SCORE.RESTR.CAVITY>
0

>  <SCORE.RESTR.norm>
0

>  <SCORE.SYSTEM>
0

>  <SCORE.SYSTEM.CONST>
0

>  <SCORE.SYSTEM.DIHEDRAL>
0

>  <SCORE.SYSTEM.SOLV>
0

>  <SCORE.SYSTEM.norm>
0

>  <SCORE.heavy>
10

>  <SCORE.norm>
-1.43742

>  <RMSD>
0.410

$$$$
ligand
 OpenBabel11021811513D
libRbt.so/2013.1/901 2013/11/27
 10 11  0  0  0  0  0  0  0  0999 V2000
  -30.2025   16.9999  -14.9525 N   0  0  0  0  0  0  0  0  0  0  0  0
  -31.0219   18.0472  -14.7898 C   0  0  0  0  0  0  0  0  0  0  0  0
  -31.4450   18.9297  -15.6941 N   0  0  0  0  0  0  0  0  0  0  0  0
  -30.9307   18.6560  -16.9039 C   0  0  0  0  0  0  0  0  0  0  0  0
  -30.0747   17.6192  -17.2262 C   0  0  0  0  0  0  0  0  0  0  0  0
  -29.7020   16.7510  -16.1803 C   0  0  0  0  0  0  0  0  0  0  0  0
  -28.8828   15.7078  -16.3469 N   0  0  0  0  0  0  0  0  0  0  0  0
  -29.7543   17.6495  -18.5728 N   0  0  0  0  0  0  0  0  0  0  0  0
  -30.4108   18.6904  -19.0292 C   0  0  0  0  0  0  0  0  0  0  0  0
  -31.1411   19.3438  -18.0754 N   0  0  0  0  0  0  0  0  0  0  0  0
  1  2  2  0  0  0  0
  1  6  1  0  0  0  0
  2  3  1  0  0  0  0
  3  4  2  0  0  0  0
  4  5  1  0  0  0  0
  4 10  1  0  0  0  0
  5  6  2  0  0  0  0
  5  8  1  0  0  0  0
  6  7  1  0  0  0  0
  8  9  1  0  0  0  0
  9 10  2  0  0  0  0
M  END
>  <CHROM.1>
-30.35109815,17.83076438,-16.77338263,1.25952062,-0.90442588,1.90381728

>  <Name>
ligand

>  <RI>
0

>  <Rbt.Current_Directory>
/home/itssahil/PROJECTS/Mol_Feturizer/New_Systems/rnas/4TZX

>  <Rbt.Executable>
rbdock ($Id: //depot/dev/client3/rdock/2013.1/src/exe/rbdock.cxx#4 $)

>  <Rbt.Library>
libRbt.so (2013.1, Build901 2013/11/27)

>  <Rbt.Parameter_File>
/export/apps/rDock/src/rDock_2013.1_src/data/scripts/dock_solv.prm

>  <Rbt.Receptor>
prm/blind_docking_80.prm

>  <SCORE>
-14.3738

>  <SCORE.INTER>
-14.3738

>  <SCORE.INTER.CONST>
1

>  <SCORE.INTER.POLAR>
0

>  <SCORE.INTER.ROT>
0

>  <SCORE.INTER.SOLV>
8.16296

>  <SCORE.INTER.VDW>
-15.9035

>  <SCORE.INTER.norm>
-1.43738

>  <SCORE.INTRA>
0

>  <SCORE.INTRA.DIHEDRAL>
0

>  <SCORE.INTRA.DIHEDRAL.0>
0

>  <SCORE.INTRA.POLAR>
0

>  <SCORE.INTRA.POLAR.0>
0

>  <SCORE.INTRA.REPUL>
0

>  <SCORE.INTRA.REPUL.0>
0

>  <SCORE.INTRA.SOLV>
0

>  <SCORE.INTRA.SOLV.lig_0>
-23.8949

>  <SCORE.INTRA.VDW>
0

>  <SCORE.INTRA.VDW.0>
0

>  <SCORE.INTRA.norm>
0

>  <SCORE.RESTR>
0

>  <SCORE.RESTR.CAVITY>
0

>  <SCORE.RESTR.norm>
0

>  <SCORE.SYSTEM>
0

>  <SCORE.SYSTEM.CONST>
0

>  <SCORE.SYSTEM.DIHEDRAL>
0

>  <SCORE.SYSTEM.SOLV>
0

>  <SCORE.SYSTEM.norm>
0

>  <SCORE.heavy>
10

>  <SCORE.norm>
-1.43738

>  <RMSD>
0.410

$$$$
ligand
 OpenBabel11021811513D
libRbt.so/2013.1/901 2013/11/27
 10 11  0  0  0  0  0  0  0  0999 V2000
  -30.1802   17.0588  -14.9090 N   0  0  0  0  0  0  0  0  0  0  0  0
  -31.0142   18.0974  -14.7655 C   0  0  0  0  0  0  0  0  0  0  0  0
  -31.4459   18.9599  -15.6850 N   0  0  0  0  0  0  0  0  0  0  0  0
  -30.9237   18.6743  -16.8886 C   0  0  0  0  0  0  0  0  0  0  0  0
  -30.0527   17.6443  -17.1918 C   0  0  0  0  0  0  0  0  0  0  0  0
  -29.6720   16.7976  -16.1312 C   0  0  0  0  0  0  0  0  0  0  0  0
  -28.8384   15.7630  -16.2787 N   0  0  0  0  0  0  0  0  0  0  0  0
  -29.7279   17.6579  -18.5375 N   0  0  0  0  0  0  0  0  0  0  0  0
  -30.3967   18.6825  -19.0124 C   0  0  0  0  0  0  0  0  0  0  0  0
  -31.1391   19.3409  -18.0714 N   0  0  0  0  0  0  0  0  0  0  0  0
  1  2  2  0  0  0  0
  1  6  1  0  0  0  0
  2  3  1  0  0  0  0
  3  4  2  0  0  0  0
  4  5  1  0  0  0  0
  4 10  1  0  0  0  0
  5  6  2  0  0  0  0
  5  8  1  0  0  0  0
  6  7  1  0  0  0  0
  8  9  1  0  0  0  0
  9 10  2  0  0  0  0
M  END
>  <CHROM.1>
-30.33350400,17.85908821,-16.74321536,1.25789051,-0.89058104,1.88690401

>  <Name>
ligand

>  <RI>
0

>  <Rbt.Current_Directory>
/home/itssahil/PROJECTS/Mol_Feturizer/New_Systems/rnas/4TZX

>  <Rbt.Executable>
rbdock ($Id: //depot/dev/client3/rdock/2013.1/src/exe/rbdock.cxx#4 $)

>  <Rbt.Library>
libRbt.so (2013.1, Build901 2013/11/27)

>  <Rbt.Parameter_File>
/export/apps/rDock/src/rDock_2013.1_src/data/scripts/dock_solv.prm

>  <Rbt.Receptor>
prm/pocket_docking_3.prm

>  <SCORE>
-14.3528

>  <SCORE.INTER>
-14.3528

>  <SCORE.INTER.CONST>
1

>  <SCORE.INTER.POLAR>
0

>  <SCORE.INTER.ROT>
0

>  <SCORE.INTER.SOLV>
7.87428

>  <SCORE.INTER.VDW>
-15.7933

>  <SCORE.INTER.norm>
-1.43528

>  <SCORE.INTRA>
0

>  <SCORE.INTRA.DIHEDRAL>
0

>  <SCORE.INTRA.DIHEDRAL.0>
0

>  <SCORE.INTRA.POLAR>
0

>  <SCORE.INTRA.POLAR.0>
0

>  <SCORE.INTRA.REPUL>
0

>  <SCORE.INTRA.REPUL.0>
0

>  <SCORE.INTRA.SOLV>
0

>  <SCORE.INTRA.SOLV.lig_0>
-23.8949

>  <SCORE.INTRA.VDW>
0

>  <SCORE.INTRA.VDW.0>
0

>  <SCORE.INTRA.norm>
0

>  <SCORE.RESTR>
0

>  <SCORE.RESTR.CAVITY>
0

>  <SCORE.RESTR.norm>
0

>  <SCORE.SYSTEM>
0

>  <SCORE.SYSTEM.CONST>
0

>  <SCORE.SYSTEM.DIHEDRAL>
0

>  <SCORE.SYSTEM.SOLV>
0

>  <SCORE.SYSTEM.norm>
0

>  <SCORE.heavy>
10

>  <SCORE.norm>
-1.43528

>  <RMSD>
0.410

$$$$
ligand
 OpenBabel11021811513D
libRbt.so/2013.1/901 2013/11/27
 10 11  0  0  0  0  0  0  0  0999 V2000
  -30.1980   16.9919  -14.9567 N   0  0  0  0  0  0  0  0  0  0  0  0
  -31.0227   18.0351  -14.7942 C   0  0  0  0  0  0  0  0  0  0  0  0
  -31.4496   18.9158  -15.6984 N   0  0  0  0  0  0  0  0  0  0  0  0
  -30.9331   18.6452  -16.9080 C   0  0  0  0  0  0  0  0  0  0  0  0
  -30.0718   17.6128  -17.2301 C   0  0  0  0  0  0  0  0  0  0  0  0
  -29.6955   16.7460  -16.1843 C   0  0  0  0  0  0  0  0  0  0  0  0
  -28.8711   15.7068  -16.3508 N   0  0  0  0  0  0  0  0  0  0  0  0
  -29.7506   17.6452  -18.5764 N   0  0  0  0  0  0  0  0  0  0  0  0
  -30.4119   18.6830  -19.0329 C   0  0  0  0  0  0  0  0  0  0  0  0
  -31.1461   19.3324  -18.0793 N   0  0  0  0  0  0  0  0  0  0  0  0
  1  2  2  0  0  0  0
  1  6  1  0  0  0  0
  2  3  1  0  0  0  0
  3  4  2  0  0  0  0
  4  5  1  0  0  0  0
  4 10  1  0  0  0  0
  5  6  2  0  0  0  0
  5  8  1  0  0  0  0
  6  7  1  0  0  0  0
  8  9  1  0  0  0  0
  9 10  2  0  0  0  0
M  END
>  <CHROM.1>
-30.34951906,17.82274877,-16.77737578,1.25796915,-0.89953670,1.90300734

>  <Name>
ligand

>  <RI>
0

>  <Rbt.Current_Directory>
/home/itssahil/PROJECTS/Mol_Feturizer/New_Systems/rnas/4TZX

>  <Rbt.Executable>
rbdock ($Id: //depot/dev/client3/rdock/2013.1/src/exe/rbdock.cxx#4 $)

>  <Rbt.Library>
libRbt.so (2013.1, Build901 2013/11/27)

>  <Rbt.Parameter_File>
/export/apps/rDock/src/rDock_2013.1_src/data/scripts/dock_solv.prm

>  <Rbt.Receptor>
prm/pocket_docking_3.prm

>  <SCORE>
-14.3761

>  <SCORE.INTER>
-14.3761

>  <SCORE.INTER.CONST>
1

>  <SCORE.INTER.POLAR>
0

>  <SCORE.INTER.ROT>
0

>  <SCORE.INTER.SOLV>
8.13631

>  <SCORE.INTER.VDW>
-15.8962

>  <SCORE.INTER.norm>
-1.43761

>  <SCORE.INTRA>
0

>  <SCORE.INTRA.DIHEDRAL>
0

>  <SCORE.INTRA.DIHEDRAL.0>
0

>  <SCORE.INTRA.POLAR>
0

>  <SCORE.INTRA.POLAR.0>
0

>  <SCORE.INTRA.REPUL>
0

>  <SCORE.INTRA.REPUL.0>
0

>  <SCORE.INTRA.SOLV>
0

>  <SCORE.INTRA.SOLV.lig_0>
-23.8949

>  <SCORE.INTRA.VDW>
0

>  <SCORE.INTRA.VDW.0>
0

>  <SCORE.INTRA.norm>
0

>  <SCORE.RESTR>
0

>  <SCORE.RESTR.CAVITY>
0

>  <SCORE.RESTR.norm>
0

>  <SCORE.SYSTEM>
0

>  <SCORE.SYSTEM.CONST>
0

>  <SCORE.SYSTEM.DIHEDRAL>
0

>  <SCORE.SYSTEM.SOLV>
0

>  <SCORE.SYSTEM.norm>
0

>  <SCORE.heavy>
10

>  <SCORE.norm>
-1.43761

>  <RMSD>
0.410

$$$$
ligand
 OpenBabel11021811513D
libRbt.so/2013.1/901 2013/11/27
 10 11  0  0  0  0  0  0  0  0999 V2000
  -30.2022   16.9910  -14.9579 N   0  0  0  0  0  0  0  0  0  0  0  0
  -31.0235   18.0366  -14.7932 C   0  0  0  0  0  0  0  0  0  0  0  0
  -31.4481   18.9200  -15.6958 N   0  0  0  0  0  0  0  0  0  0  0  0
  -30.9334   18.6495  -16.9061 C   0  0  0  0  0  0  0  0  0  0  0  0
  -30.0756   17.6149  -17.2304 C   0  0  0  0  0  0  0  0  0  0  0  0
  -29.7013   16.7453  -16.1862 C   0  0  0  0  0  0  0  0  0  0  0  0
  -28.8803   15.7038  -16.3548 N   0  0  0  0  0  0  0  0  0  0  0  0
  -29.7552   17.6483  -18.5769 N   0  0  0  0  0  0  0  0  0  0  0  0
  -30.4136   18.6889  -19.0313 C   0  0  0  0  0  0  0  0  0  0  0  0
  -31.1450   19.3392  -18.0763 N   0  0  0  0  0  0  0  0  0  0  0  0
  1  2  2  0  0  0  0
  1  6  1  0  0  0  0
  2  3  1  0  0  0  0
  3  4  2  0  0  0  0
  4  5  1  0  0  0  0
  4 10  1  0  0  0  0
  5  6  2  0  0  0  0
  5  8  1  0  0  0  0
  6  7  1  0  0  0  0
  8  9  1  0  0  0  0
  9 10  2  0  0  0  0
M  END
>  <CHROM.1>
-30.35232282,17.82507085,-16.77716890,1.25858137,-0.90276462,1.90498383

>  <Name>
ligand

>  <RI>
0

>  <Rbt.Current_Directory>
/home/itssahil/PROJECTS/Mol_Feturizer/New_Systems/rnas/4TZX

>  <Rbt.Executable>
rbdock ($Id: //depot/dev/client3/rdock/2013.1/src/exe/rbdock.cxx#4 $)

>  <Rbt.Library>
libRbt.so (2013.1, Build901 2013/11/27)

>  <Rbt.Parameter_File>
/export/apps/rDock/src/rDock_2013.1_src/data/scripts/dock_solv.prm

>  <Rbt.Receptor>
prm/pocket_docking_7.prm

>  <SCORE>
-14.3759

>  <SCORE.INTER>
-14.3759

>  <SCORE.INTER.CONST>
1

>  <SCORE.INTER.POLAR>
0

>  <SCORE.INTER.ROT>
0

>  <SCORE.INTER.SOLV>
8.17182

>  <SCORE.INTER.VDW>
-15.9079

>  <SCORE.INTER.norm>
-1.43759

>  <SCORE.INTRA>
0

>  <SCORE.INTRA.DIHEDRAL>
0

>  <SCORE.INTRA.DIHEDRAL.0>
0

>  <SCORE.INTRA.POLAR>
0

>  <SCORE.INTRA.POLAR.0>
0

>  <SCORE.INTRA.REPUL>
0

>  <SCORE.INTRA.REPUL.0>
0

>  <SCORE.INTRA.SOLV>
0

>  <SCORE.INTRA.SOLV.lig_0>
-23.8949

>  <SCORE.INTRA.VDW>
0

>  <SCORE.INTRA.VDW.0>
0

>  <SCORE.INTRA.norm>
0

>  <SCORE.RESTR>
0

>  <SCORE.RESTR.CAVITY>
0

>  <SCORE.RESTR.norm>
0

>  <SCORE.SYSTEM>
0

>  <SCORE.SYSTEM.CONST>
0

>  <SCORE.SYSTEM.DIHEDRAL>
0

>  <SCORE.SYSTEM.SOLV>
0

>  <SCORE.SYSTEM.norm>
0

>  <SCORE.heavy>
10

>  <SCORE.norm>
-1.43759

>  <RMSD>
0.410

$$$$
ligand
 OpenBabel11021811513D
libRbt.so/2013.1/901 2013/11/27
 10 11  0  0  0  0  0  0  0  0999 V2000
  -30.2466   16.9927  -14.9594 N   0  0  0  0  0  0  0  0  0  0  0  0
  -31.0493   18.0526  -14.7948 C   0  0  0  0  0  0  0  0  0  0  0  0
  -31.4509   18.9486  -15.6955 N   0  0  0  0  0  0  0  0  0  0  0  0
  -30.9327   18.6751  -16.9036 C   0  0  0  0  0  0  0  0  0  0  0  0
  -30.0921   17.6263  -17.2276 C   0  0  0  0  0  0  0  0  0  0  0  0
  -29.7416   16.7443  -16.1855 C   0  0  0  0  0  0  0  0  0  0  0  0
  -28.9391   15.6885  -16.3540 N   0  0  0  0  0  0  0  0  0  0  0  0
  -29.7615   17.6610  -18.5715 N   0  0  0  0  0  0  0  0  0  0  0  0
  -30.3970   18.7161  -19.0249 C   0  0  0  0  0  0  0  0  0  0  0  0
  -31.1229   19.3749  -18.0715 N   0  0  0  0  0  0  0  0  0  0  0  0
  1  2  2  0  0  0  0
  1  6  1  0  0  0  0
  2  3  1  0  0  0  0
  3  4  2  0  0  0  0
  4  5  1  0  0  0  0
  4 10  1  0  0  0  0
  5  6  2  0  0  0  0
  5  8  1  0  0  0  0
  6  7  1  0  0  0  0
  8  9  1  0  0  0  0
  9 10  2  0  0  0  0
M  END
>  <CHROM.1>
-30.36804581,17.83919894,-16.77511111,1.27982275,-0.91797850,1.92719201

>  <Name>
ligand

>  <RI>
0

>  <Rbt.Current_Directory>
/home/itssahil/PROJECTS/Mol_Feturizer/New_Systems/rnas/4TZX

>  <Rbt.Executable>
rbdock ($Id: //depot/dev/client3/rdock/2013.1/src/exe/rbdock.cxx#4 $)

>  <Rbt.Library>
libRbt.so (2013.1, Build901 2013/11/27)

>  <Rbt.Parameter_File>
/export/apps/rDock/src/rDock_2013.1_src/data/scripts/dock_solv.prm

>  <Rbt.Receptor>
prm/pocket_docking_8.prm

>  <SCORE>
-14.3735

>  <SCORE.INTER>
-14.3735

>  <SCORE.INTER.CONST>
1

>  <SCORE.INTER.POLAR>
0

>  <SCORE.INTER.ROT>
0

>  <SCORE.INTER.SOLV>
8.35584

>  <SCORE.INTER.VDW>
-15.9676

>  <SCORE.INTER.norm>
-1.43735

>  <SCORE.INTRA>
0

>  <SCORE.INTRA.DIHEDRAL>
0

>  <SCORE.INTRA.DIHEDRAL.0>
0

>  <SCORE.INTRA.POLAR>
0

>  <SCORE.INTRA.POLAR.0>
0

>  <SCORE.INTRA.REPUL>
0

>  <SCORE.INTRA.REPUL.0>
0

>  <SCORE.INTRA.SOLV>
0

>  <SCORE.INTRA.SOLV.lig_0>
-23.8949

>  <SCORE.INTRA.VDW>
0

>  <SCORE.INTRA.VDW.0>
0

>  <SCORE.INTRA.norm>
0

>  <SCORE.RESTR>
0

>  <SCORE.RESTR.CAVITY>
0

>  <SCORE.RESTR.norm>
0

>  <SCORE.SYSTEM>
0

>  <SCORE.SYSTEM.CONST>
0

>  <SCORE.SYSTEM.DIHEDRAL>
0

>  <SCORE.SYSTEM.SOLV>
0

>  <SCORE.SYSTEM.norm>
0

>  <SCORE.heavy>
10

>  <SCORE.norm>
-1.43735

>  <RMSD>
0.410

$$$$
ligand
 OpenBabel11021811513D
libRbt.so/2013.1/901 2013/11/27
 10 11  0  0  0  0  0  0  0  0999 V2000
  -30.1753   17.0351  -14.9238 N   0  0  0  0  0  0  0  0  0  0  0  0
  -31.0216   18.0621  -14.7695 C   0  0  0  0  0  0  0  0  0  0  0  0
  -31.4686   18.9250  -15.6812 N   0  0  0  0  0  0  0  0  0  0  0  0
  -30.9486   18.6539  -16.8891 C   0  0  0  0  0  0  0  0  0  0  0  0
  -30.0662   17.6370  -17.2032 C   0  0  0  0  0  0  0  0  0  0  0  0
  -29.6698   16.7883  -16.1500 C   0  0  0  0  0  0  0  0  0  0  0  0
  -28.8239   15.7652  -16.3083 N   0  0  0  0  0  0  0  0  0  0  0  0
  -29.7481   17.6634  -18.5504 N   0  0  0  0  0  0  0  0  0  0  0  0
  -30.4321   18.6826  -19.0153 C   0  0  0  0  0  0  0  0  0  0  0  0
  -31.1781   19.3254  -18.0665 N   0  0  0  0  0  0  0  0  0  0  0  0
  1  2  2  0  0  0  0
  1  6  1  0  0  0  0
  2  3  1  0  0  0  0
  3  4  2  0  0  0  0
  4  5  1  0  0  0  0
  4 10  1  0  0  0  0
  5  6  2  0  0  0  0
  5  8  1  0  0  0  0
  6  7  1  0  0  0  0
  8  9  1  0  0  0  0
  9 10  2  0  0  0  0
M  END
>  <CHROM.1>
-30.34752288,17.84528330,-16.75192762,1.24453272,-0.88005321,1.88312037

>  <Name>
ligand

>  <RI>
0

>  <Rbt.Current_Directory>
/home/itssahil/PROJECTS/Mol_Feturizer/New_Systems/rnas/4TZX

>  <Rbt.Executable>
rbdock ($Id: //depot/dev/client3/rdock/2013.1/src/exe/rbdock.cxx#4 $)

>  <Rbt.Library>
libRbt.so (2013.1, Build901 2013/11/27)

>  <Rbt.Parameter_File>
/export/apps/rDock/src/rDock_2013.1_src/data/scripts/dock_solv.prm

>  <Rbt.Receptor>
prm/pocket_docking_8.prm

>  <SCORE>
-14.3808

>  <SCORE.INTER>
-14.3808

>  <SCORE.INTER.CONST>
1

>  <SCORE.INTER.POLAR>
0

>  <SCORE.INTER.ROT>
0

>  <SCORE.INTER.SOLV>
7.85132

>  <SCORE.INTER.VDW>
-15.8043

>  <SCORE.INTER.norm>
-1.43808

>  <SCORE.INTRA>
0

>  <SCORE.INTRA.DIHEDRAL>
0

>  <SCORE.INTRA.DIHEDRAL.0>
0

>  <SCORE.INTRA.POLAR>
0

>  <SCORE.INTRA.POLAR.0>
0

>  <SCORE.INTRA.REPUL>
0

>  <SCORE.INTRA.REPUL.0>
0

>  <SCORE.INTRA.SOLV>
0

>  <SCORE.INTRA.SOLV.lig_0>
-23.8949

>  <SCORE.INTRA.VDW>
0

>  <SCORE.INTRA.VDW.0>
0

>  <SCORE.INTRA.norm>
0

>  <SCORE.RESTR>
0

>  <SCORE.RESTR.CAVITY>
0

>  <SCORE.RESTR.norm>
0

>  <SCORE.SYSTEM>
0

>  <SCORE.SYSTEM.CONST>
0

>  <SCORE.SYSTEM.DIHEDRAL>
0

>  <SCORE.SYSTEM.SOLV>
0

>  <SCORE.SYSTEM.norm>
0

>  <SCORE.heavy>
10

>  <SCORE.norm>
-1.43808

>  <RMSD>
0.410

$$$$
ligand
 OpenBabel11021811513D
libRbt.so/2013.1/901 2013/11/27
 10 11  0  0  0  0  0  0  0  0999 V2000
  -30.2101   16.9850  -14.9625 N   0  0  0  0  0  0  0  0  0  0  0  0
  -31.0294   18.0323  -14.7990 C   0  0  0  0  0  0  0  0  0  0  0  0
  -31.4501   18.9172  -15.7019 N   0  0  0  0  0  0  0  0  0  0  0  0
  -30.9334   18.6465  -16.9113 C   0  0  0  0  0  0  0  0  0  0  0  0
  -30.0772   17.6101  -17.2344 C   0  0  0  0  0  0  0  0  0  0  0  0
  -29.7070   16.7390  -16.1900 C   0  0  0  0  0  0  0  0  0  0  0  0
  -28.8880   15.6958  -16.3575 N   0  0  0  0  0  0  0  0  0  0  0  0
  -29.7538   17.6438  -18.5802 N   0  0  0  0  0  0  0  0  0  0  0  0
  -30.4089   18.6860  -19.0353 C   0  0  0  0  0  0  0  0  0  0  0  0
  -31.1409   19.3374  -18.0815 N   0  0  0  0  0  0  0  0  0  0  0  0
  1  2  2  0  0  0  0
  1  6  1  0  0  0  0
  2  3  1  0  0  0  0
  3  4  2  0  0  0  0
  4  5  1  0  0  0  0
  4 10  1  0  0  0  0
  5  6  2  0  0  0  0
  5  8  1  0  0  0  0
  6  7  1  0  0  0  0
  8  9  1  0  0  0  0
  9 10  2  0  0  0  0
M  END
>  <CHROM.1>
-30.35441616,17.82060435,-16.78162174,1.26304428,-0.90414344,1.90916105

>  <Name>
ligand

>  <RI>
0

>  <Rbt.Current_Directory>
/home/itssahil/PROJECTS/Mol_Feturizer/New_Systems/rnas/4TZX

>  <Rbt.Executable>
rbdock ($Id: //depot/dev/client3/rdock/2013.1/src/exe/rbdock.cxx#4 $)

>  <Rbt.Library>
libRbt.so (2013.1, Build901 2013/11/27)

>  <Rbt.Parameter_File>
/export/apps/rDock/src/rDock_2013.1_src/data/scripts/dock_solv.prm

>  <Rbt.Receptor>
prm/pocket_docking_8.prm

>  <SCORE>
-14.3758

>  <SCORE.INTER>
-14.3758

>  <SCORE.INTER.CONST>
1

>  <SCORE.INTER.POLAR>
0

>  <SCORE.INTER.ROT>
0

>  <SCORE.INTER.SOLV>
8.20945

>  <SCORE.INTER.VDW>
-15.9203

>  <SCORE.INTER.norm>
-1.43758

>  <SCORE.INTRA>
0

>  <SCORE.INTRA.DIHEDRAL>
0

>  <SCORE.INTRA.DIHEDRAL.0>
0

>  <SCORE.INTRA.POLAR>
0

>  <SCORE.INTRA.POLAR.0>
0

>  <SCORE.INTRA.REPUL>
0

>  <SCORE.INTRA.REPUL.0>
0

>  <SCORE.INTRA.SOLV>
0

>  <SCORE.INTRA.SOLV.lig_0>
-23.8949

>  <SCORE.INTRA.VDW>
0

>  <SCORE.INTRA.VDW.0>
0

>  <SCORE.INTRA.norm>
0

>  <SCORE.RESTR>
0

>  <SCORE.RESTR.CAVITY>
0

>  <SCORE.RESTR.norm>
0

>  <SCORE.SYSTEM>
0

>  <SCORE.SYSTEM.CONST>
0

>  <SCORE.SYSTEM.DIHEDRAL>
0

>  <SCORE.SYSTEM.SOLV>
0

>  <SCORE.SYSTEM.norm>
0

>  <SCORE.heavy>
10

>  <SCORE.norm>
-1.43758

>  <RMSD>
0.410

$$$$
ligand
 OpenBabel11021811513D
libRbt.so/2013.1/901 2013/11/27
 10 11  0  0  0  0  0  0  0  0999 V2000
  -30.1528   17.0716  -14.8778 N   0  0  0  0  0  0  0  0  0  0  0  0
  -31.0136   18.0845  -14.7114 C   0  0  0  0  0  0  0  0  0  0  0  0
  -31.4839   18.9428  -15.6157 N   0  0  0  0  0  0  0  0  0  0  0  0
  -30.9726   18.6835  -16.8299 C   0  0  0  0  0  0  0  0  0  0  0  0
  -30.0775   17.6817  -17.1564 C   0  0  0  0  0  0  0  0  0  0  0  0
  -29.6564   16.8364  -16.1100 C   0  0  0  0  0  0  0  0  0  0  0  0
  -28.7961   15.8274  -16.2803 N   0  0  0  0  0  0  0  0  0  0  0  0
  -29.7741   17.7171  -18.5067 N   0  0  0  0  0  0  0  0  0  0  0  0
  -30.4791   18.7265  -18.9613 C   0  0  0  0  0  0  0  0  0  0  0  0
  -31.2252   19.3546  -18.0027 N   0  0  0  0  0  0  0  0  0  0  0  0
  1  2  2  0  0  0  0
  1  6  1  0  0  0  0
  2  3  1  0  0  0  0
  3  4  2  0  0  0  0
  4  5  1  0  0  0  0
  4 10  1  0  0  0  0
  5  6  2  0  0  0  0
  5  8  1  0  0  0  0
  6  7  1  0  0  0  0
  8  9  1  0  0  0  0
  9 10  2  0  0  0  0
M  END
>  <CHROM.1>
-30.35724248,17.88416822,-16.70149268,1.22136582,-0.86803301,1.86830180

>  <Name>
ligand

>  <RI>
0

>  <Rbt.Current_Directory>
/home/itssahil/PROJECTS/Mol_Feturizer/New_Systems/rnas/4TZX

>  <Rbt.Executable>
rbdock ($Id: //depot/dev/client3/rdock/2013.1/src/exe/rbdock.cxx#4 $)

>  <Rbt.Library>
libRbt.so (2013.1, Build901 2013/11/27)

>  <Rbt.Parameter_File>
/export/apps/rDock/src/rDock_2013.1_src/data/scripts/dock_solv.prm

>  <Rbt.Receptor>
prm/blind_docking_100.prm

>  <SCORE>
-14.3198

>  <SCORE.INTER>
-14.3198

>  <SCORE.INTER.CONST>
1

>  <SCORE.INTER.POLAR>
0

>  <SCORE.INTER.ROT>
0

>  <SCORE.INTER.SOLV>
7.6471

>  <SCORE.INTER.VDW>
-15.6956

>  <SCORE.INTER.norm>
-1.43198

>  <SCORE.INTRA>
0

>  <SCORE.INTRA.DIHEDRAL>
0

>  <SCORE.INTRA.DIHEDRAL.0>
0

>  <SCORE.INTRA.POLAR>
0

>  <SCORE.INTRA.POLAR.0>
0

>  <SCORE.INTRA.REPUL>
0

>  <SCORE.INTRA.REPUL.0>
0

>  <SCORE.INTRA.SOLV>
0

>  <SCORE.INTRA.SOLV.lig_0>
-23.8949

>  <SCORE.INTRA.VDW>
0

>  <SCORE.INTRA.VDW.0>
0

>  <SCORE.INTRA.norm>
0

>  <SCORE.RESTR>
0

>  <SCORE.RESTR.CAVITY>
0

>  <SCORE.RESTR.norm>
0

>  <SCORE.SYSTEM>
0

>  <SCORE.SYSTEM.CONST>
0

>  <SCORE.SYSTEM.DIHEDRAL>
0

>  <SCORE.SYSTEM.SOLV>
0

>  <SCORE.SYSTEM.norm>
0

>  <SCORE.heavy>
10

>  <SCORE.norm>
-1.43198

>  <RMSD>
0.411

$$$$
ligand
 OpenBabel11021811513D
libRbt.so/2013.1/901 2013/11/27
 10 11  0  0  0  0  0  0  0  0999 V2000
  -30.1880   17.0321  -14.9330 N   0  0  0  0  0  0  0  0  0  0  0  0
  -31.0327   18.0611  -14.7830 C   0  0  0  0  0  0  0  0  0  0  0  0
  -31.4758   18.9228  -15.6977 N   0  0  0  0  0  0  0  0  0  0  0  0
  -30.9534   18.6482  -16.9037 C   0  0  0  0  0  0  0  0  0  0  0  0
  -30.0722   17.6289  -17.2135 C   0  0  0  0  0  0  0  0  0  0  0  0
  -29.6800   16.7817  -16.1575 C   0  0  0  0  0  0  0  0  0  0  0  0
  -28.8357   15.7567  -16.3114 N   0  0  0  0  0  0  0  0  0  0  0  0
  -29.7507   17.6518  -18.5599 N   0  0  0  0  0  0  0  0  0  0  0  0
  -30.4315   18.6713  -19.0287 C   0  0  0  0  0  0  0  0  0  0  0  0
  -31.1787   19.3175  -18.0831 N   0  0  0  0  0  0  0  0  0  0  0  0
  1  2  2  0  0  0  0
  1  6  1  0  0  0  0
  2  3  1  0  0  0  0
  3  4  2  0  0  0  0
  4  5  1  0  0  0  0
  4 10  1  0  0  0  0
  5  6  2  0  0  0  0
  5  8  1  0  0  0  0
  6  7  1  0  0  0  0
  8  9  1  0  0  0  0
  9 10  2  0  0  0  0
M  END
>  <CHROM.1>
-30.35417742,17.83868934,-16.76330426,1.24915788,-0.88111788,1.88453847

>  <Name>
ligand

>  <RI>
0

>  <Rbt.Current_Directory>
/home/itssahil/PROJECTS/Mol_Feturizer/New_Systems/rnas/4TZX

>  <Rbt.Executable>
rbdock ($Id: //depot/dev/client3/rdock/2013.1/src/exe/rbdock.cxx#4 $)

>  <Rbt.Library>
libRbt.so (2013.1, Build901 2013/11/27)

>  <Rbt.Parameter_File>
/export/apps/rDock/src/rDock_2013.1_src/data/scripts/dock_solv.prm

>  <Rbt.Receptor>
prm/blind_docking_60.prm

>  <SCORE>
-14.3751

>  <SCORE.INTER>
-14.3751

>  <SCORE.INTER.CONST>
1

>  <SCORE.INTER.POLAR>
0

>  <SCORE.INTER.ROT>
0

>  <SCORE.INTER.SOLV>
7.89701

>  <SCORE.INTER.VDW>
-15.8157

>  <SCORE.INTER.norm>
-1.43751

>  <SCORE.INTRA>
0

>  <SCORE.INTRA.DIHEDRAL>
0

>  <SCORE.INTRA.DIHEDRAL.0>
0

>  <SCORE.INTRA.POLAR>
0

>  <SCORE.INTRA.POLAR.0>
0

>  <SCORE.INTRA.REPUL>
0

>  <SCORE.INTRA.REPUL.0>
0

>  <SCORE.INTRA.SOLV>
0

>  <SCORE.INTRA.SOLV.lig_0>
-23.8949

>  <SCORE.INTRA.VDW>
0

>  <SCORE.INTRA.VDW.0>
0

>  <SCORE.INTRA.norm>
0

>  <SCORE.RESTR>
0

>  <SCORE.RESTR.CAVITY>
0

>  <SCORE.RESTR.norm>
0

>  <SCORE.SYSTEM>
0

>  <SCORE.SYSTEM.CONST>
0

>  <SCORE.SYSTEM.DIHEDRAL>
0

>  <SCORE.SYSTEM.SOLV>
0

>  <SCORE.SYSTEM.norm>
0

>  <SCORE.heavy>
10

>  <SCORE.norm>
-1.43751

>  <RMSD>
0.411

$$$$
ligand
 OpenBabel11021811513D
libRbt.so/2013.1/901 2013/11/27
 10 11  0  0  0  0  0  0  0  0999 V2000
  -30.1834   17.0251  -14.9357 N   0  0  0  0  0  0  0  0  0  0  0  0
  -31.0254   18.0558  -14.7826 C   0  0  0  0  0  0  0  0  0  0  0  0
  -31.4667   18.9212  -15.6947 N   0  0  0  0  0  0  0  0  0  0  0  0
  -30.9456   18.6485  -16.9017 C   0  0  0  0  0  0  0  0  0  0  0  0
  -30.0671   17.6277  -17.2146 C   0  0  0  0  0  0  0  0  0  0  0  0
  -29.6766   16.7766  -16.1611 C   0  0  0  0  0  0  0  0  0  0  0  0
  -28.8350   15.7499  -16.3182 N   0  0  0  0  0  0  0  0  0  0  0  0
  -29.7462   17.6535  -18.5611 N   0  0  0  0  0  0  0  0  0  0  0  0
  -30.4246   18.6759  -19.0269 C   0  0  0  0  0  0  0  0  0  0  0  0
  -31.1697   19.3216  -18.0792 N   0  0  0  0  0  0  0  0  0  0  0  0
  1  2  2  0  0  0  0
  1  6  1  0  0  0  0
  2  3  1  0  0  0  0
  3  4  2  0  0  0  0
  4  5  1  0  0  0  0
  4 10  1  0  0  0  0
  5  6  2  0  0  0  0
  5  8  1  0  0  0  0
  6  7  1  0  0  0  0
  8  9  1  0  0  0  0
  9 10  2  0  0  0  0
M  END
>  <CHROM.1>
-30.34837778,17.83704260,-16.76376112,1.24971808,-0.88371959,1.88766684

>  <Name>
ligand

>  <RI>
0

>  <Rbt.Current_Directory>
/home/itssahil/PROJECTS/Mol_Feturizer/New_Systems/rnas/4TZX

>  <Rbt.Executable>
rbdock ($Id: //depot/dev/client3/rdock/2013.1/src/exe/rbdock.cxx#4 $)

>  <Rbt.Library>
libRbt.so (2013.1, Build901 2013/11/27)

>  <Rbt.Parameter_File>
/export/apps/rDock/src/rDock_2013.1_src/data/scripts/dock_solv.prm

>  <Rbt.Receptor>
prm/blind_docking_60.prm

>  <SCORE>
-14.3789

>  <SCORE.INTER>
-14.3789

>  <SCORE.INTER.CONST>
1

>  <SCORE.INTER.POLAR>
0

>  <SCORE.INTER.ROT>
0

>  <SCORE.INTER.SOLV>
7.91783

>  <SCORE.INTER.VDW>
-15.8252

>  <SCORE.INTER.norm>
-1.43789

>  <SCORE.INTRA>
0

>  <SCORE.INTRA.DIHEDRAL>
0

>  <SCORE.INTRA.DIHEDRAL.0>
0

>  <SCORE.INTRA.POLAR>
0

>  <SCORE.INTRA.POLAR.0>
0

>  <SCORE.INTRA.REPUL>
0

>  <SCORE.INTRA.REPUL.0>
0

>  <SCORE.INTRA.SOLV>
0

>  <SCORE.INTRA.SOLV.lig_0>
-23.8949

>  <SCORE.INTRA.VDW>
0

>  <SCORE.INTRA.VDW.0>
0

>  <SCORE.INTRA.norm>
0

>  <SCORE.RESTR>
0

>  <SCORE.RESTR.CAVITY>
0

>  <SCORE.RESTR.norm>
0

>  <SCORE.SYSTEM>
0

>  <SCORE.SYSTEM.CONST>
0

>  <SCORE.SYSTEM.DIHEDRAL>
0

>  <SCORE.SYSTEM.SOLV>
0

>  <SCORE.SYSTEM.norm>
0

>  <SCORE.heavy>
10

>  <SCORE.norm>
-1.43789

>  <RMSD>
0.411

$$$$
ligand
 OpenBabel11021811513D
libRbt.so/2013.1/901 2013/11/27
 10 11  0  0  0  0  0  0  0  0999 V2000
  -30.1817   17.0075  -14.9469 N   0  0  0  0  0  0  0  0  0  0  0  0
  -31.0139   18.0454  -14.7887 C   0  0  0  0  0  0  0  0  0  0  0  0
  -31.4490   18.9178  -15.6970 N   0  0  0  0  0  0  0  0  0  0  0  0
  -30.9329   18.6442  -16.9060 C   0  0  0  0  0  0  0  0  0  0  0  0
  -30.0645   17.6165  -17.2241 C   0  0  0  0  0  0  0  0  0  0  0  0
  -29.6797   16.7584  -16.1741 C   0  0  0  0  0  0  0  0  0  0  0  0
  -28.8479   15.7245  -16.3364 N   0  0  0  0  0  0  0  0  0  0  0  0
  -29.7461   17.6437  -18.5711 N   0  0  0  0  0  0  0  0  0  0  0  0
  -30.4160   18.6739  -19.0321 C   0  0  0  0  0  0  0  0  0  0  0  0
  -31.1532   19.3233  -18.0808 N   0  0  0  0  0  0  0  0  0  0  0  0
  1  2  2  0  0  0  0
  1  6  1  0  0  0  0
  2  3  1  0  0  0  0
  3  4  2  0  0  0  0
  4  5  1  0  0  0  0
  4 10  1  0  0  0  0
  5  6  2  0  0  0  0
  5  8  1  0  0  0  0
  6  7  1  0  0  0  0
  8  9  1  0  0  0  0
  9 10  2  0  0  0  0
M  END
>  <CHROM.1>
-30.34287485,17.82693101,-16.77195060,1.25120455,-0.89309112,1.89209947

>  <Name>
ligand

>  <RI>
0

>  <Rbt.Current_Directory>
/home/itssahil/PROJECTS/Mol_Feturizer/New_Systems/rnas/4TZX

>  <Rbt.Executable>
rbdock ($Id: //depot/dev/client3/rdock/2013.1/src/exe/rbdock.cxx#4 $)

>  <Rbt.Library>
libRbt.so (2013.1, Build901 2013/11/27)

>  <Rbt.Parameter_File>
/export/apps/rDock/src/rDock_2013.1_src/data/scripts/dock_solv.prm

>  <Rbt.Receptor>
prm/pocket_docking_4.prm

>  <SCORE>
-14.374

>  <SCORE.INTER>
-14.374

>  <SCORE.INTER.CONST>
1

>  <SCORE.INTER.POLAR>
0

>  <SCORE.INTER.ROT>
0

>  <SCORE.INTER.SOLV>
8.02372

>  <SCORE.INTER.VDW>
-15.8573

>  <SCORE.INTER.norm>
-1.4374

>  <SCORE.INTRA>
0

>  <SCORE.INTRA.DIHEDRAL>
0

>  <SCORE.INTRA.DIHEDRAL.0>
0

>  <SCORE.INTRA.POLAR>
0

>  <SCORE.INTRA.POLAR.0>
0

>  <SCORE.INTRA.REPUL>
0

>  <SCORE.INTRA.REPUL.0>
0

>  <SCORE.INTRA.SOLV>
0

>  <SCORE.INTRA.SOLV.lig_0>
-23.8949

>  <SCORE.INTRA.VDW>
0

>  <SCORE.INTRA.VDW.0>
0

>  <SCORE.INTRA.norm>
0

>  <SCORE.RESTR>
0

>  <SCORE.RESTR.CAVITY>
0

>  <SCORE.RESTR.norm>
0

>  <SCORE.SYSTEM>
0

>  <SCORE.SYSTEM.CONST>
0

>  <SCORE.SYSTEM.DIHEDRAL>
0

>  <SCORE.SYSTEM.SOLV>
0

>  <SCORE.SYSTEM.norm>
0

>  <SCORE.heavy>
10

>  <SCORE.norm>
-1.4374

>  <RMSD>
0.411

$$$$
ligand
 OpenBabel11021811513D
libRbt.so/2013.1/901 2013/11/27
 10 11  0  0  0  0  0  0  0  0999 V2000
  -30.3083   17.0157  -14.9591 N   0  0  0  0  0  0  0  0  0  0  0  0
  -31.0811   18.1001  -14.8123 C   0  0  0  0  0  0  0  0  0  0  0  0
  -31.4521   18.9958  -15.7264 N   0  0  0  0  0  0  0  0  0  0  0  0
  -30.9355   18.6923  -16.9280 C   0  0  0  0  0  0  0  0  0  0  0  0
  -30.1236   17.6158  -17.2341 C   0  0  0  0  0  0  0  0  0  0  0  0
  -29.8041   16.7374  -16.1791 C   0  0  0  0  0  0  0  0  0  0  0  0
  -29.0313   15.6571  -16.3298 N   0  0  0  0  0  0  0  0  0  0  0  0
  -29.7851   17.6240  -18.5765 N   0  0  0  0  0  0  0  0  0  0  0  0
  -30.3876   18.6910  -19.0466 C   0  0  0  0  0  0  0  0  0  0  0  0
  -31.0994   19.3823  -18.1056 N   0  0  0  0  0  0  0  0  0  0  0  0
  1  2  2  0  0  0  0
  1  6  1  0  0  0  0
  2  3  1  0  0  0  0
  3  4  2  0  0  0  0
  4  5  1  0  0  0  0
  4 10  1  0  0  0  0
  5  6  2  0  0  0  0
  5  8  1  0  0  0  0
  6  7  1  0  0  0  0
  8  9  1  0  0  0  0
  9 10  2  0  0  0  0
M  END
>  <CHROM.1>
-30.39577945,17.84224725,-16.78588814,1.30529980,-0.94284284,1.93502986

>  <Name>
ligand

>  <RI>
0

>  <Rbt.Current_Directory>
/home/itssahil/PROJECTS/Mol_Feturizer/New_Systems/rnas/4TZX

>  <Rbt.Executable>
rbdock ($Id: //depot/dev/client3/rdock/2013.1/src/exe/rbdock.cxx#4 $)

>  <Rbt.Library>
libRbt.so (2013.1, Build901 2013/11/27)

>  <Rbt.Parameter_File>
/export/apps/rDock/src/rDock_2013.1_src/data/scripts/dock_solv.prm

>  <Rbt.Receptor>
prm/pocket_docking_4.prm

>  <SCORE>
-14.3289

>  <SCORE.INTER>
-14.3289

>  <SCORE.INTER.CONST>
1

>  <SCORE.INTER.POLAR>
0

>  <SCORE.INTER.ROT>
0

>  <SCORE.INTER.SOLV>
8.63377

>  <SCORE.INTER.VDW>
-16.0305

>  <SCORE.INTER.norm>
-1.43289

>  <SCORE.INTRA>
0

>  <SCORE.INTRA.DIHEDRAL>
0

>  <SCORE.INTRA.DIHEDRAL.0>
0

>  <SCORE.INTRA.POLAR>
0

>  <SCORE.INTRA.POLAR.0>
0

>  <SCORE.INTRA.REPUL>
0

>  <SCORE.INTRA.REPUL.0>
0

>  <SCORE.INTRA.SOLV>
0

>  <SCORE.INTRA.SOLV.lig_0>
-23.8949

>  <SCORE.INTRA.VDW>
0

>  <SCORE.INTRA.VDW.0>
0

>  <SCORE.INTRA.norm>
0

>  <SCORE.RESTR>
0

>  <SCORE.RESTR.CAVITY>
0

>  <SCORE.RESTR.norm>
0

>  <SCORE.SYSTEM>
0

>  <SCORE.SYSTEM.CONST>
0

>  <SCORE.SYSTEM.DIHEDRAL>
0

>  <SCORE.SYSTEM.SOLV>
0

>  <SCORE.SYSTEM.norm>
0

>  <SCORE.heavy>
10

>  <SCORE.norm>
-1.43289

>  <RMSD>
0.411

$$$$
ligand
 OpenBabel11021811513D
libRbt.so/2013.1/901 2013/11/27
 10 11  0  0  0  0  0  0  0  0999 V2000
  -30.1620   17.0287  -14.9251 N   0  0  0  0  0  0  0  0  0  0  0  0
  -31.0059   18.0563  -14.7620 C   0  0  0  0  0  0  0  0  0  0  0  0
  -31.4581   18.9223  -15.6681 N   0  0  0  0  0  0  0  0  0  0  0  0
  -30.9469   18.6540  -16.8804 C   0  0  0  0  0  0  0  0  0  0  0  0
  -30.0680   17.6369  -17.2035 C   0  0  0  0  0  0  0  0  0  0  0  0
  -29.6653   16.7847  -16.1555 C   0  0  0  0  0  0  0  0  0  0  0  0
  -28.8218   15.7611  -16.3225 N   0  0  0  0  0  0  0  0  0  0  0  0
  -29.7592   17.6668  -18.5527 N   0  0  0  0  0  0  0  0  0  0  0  0
  -30.4451   18.6881  -19.0100 C   0  0  0  0  0  0  0  0  0  0  0  0
  -31.1837   19.3291  -18.0542 N   0  0  0  0  0  0  0  0  0  0  0  0
  1  2  2  0  0  0  0
  1  6  1  0  0  0  0
  2  3  1  0  0  0  0
  3  4  2  0  0  0  0
  4  5  1  0  0  0  0
  4 10  1  0  0  0  0
  5  6  2  0  0  0  0
  5  8  1  0  0  0  0
  6  7  1  0  0  0  0
  8  9  1  0  0  0  0
  9 10  2  0  0  0  0
M  END
>  <CHROM.1>
-30.34586205,17.84426387,-16.74965738,1.23473745,-0.88333207,1.87840253

>  <Name>
ligand

>  <RI>
0

>  <Rbt.Current_Directory>
/home/itssahil/PROJECTS/Mol_Feturizer/New_Systems/rnas/4TZX

>  <Rbt.Executable>
rbdock ($Id: //depot/dev/client3/rdock/2013.1/src/exe/rbdock.cxx#4 $)

>  <Rbt.Library>
libRbt.so (2013.1, Build901 2013/11/27)

>  <Rbt.Parameter_File>
/export/apps/rDock/src/rDock_2013.1_src/data/scripts/dock_solv.prm

>  <Rbt.Receptor>
prm/pocket_docking_5.prm

>  <SCORE>
-14.378

>  <SCORE.INTER>
-14.378

>  <SCORE.INTER.CONST>
1

>  <SCORE.INTER.POLAR>
0

>  <SCORE.INTER.ROT>
0

>  <SCORE.INTER.SOLV>
7.86169

>  <SCORE.INTER.VDW>
-15.8059

>  <SCORE.INTER.norm>
-1.4378

>  <SCORE.INTRA>
0

>  <SCORE.INTRA.DIHEDRAL>
0

>  <SCORE.INTRA.DIHEDRAL.0>
0

>  <SCORE.INTRA.POLAR>
0

>  <SCORE.INTRA.POLAR.0>
0

>  <SCORE.INTRA.REPUL>
0

>  <SCORE.INTRA.REPUL.0>
0

>  <SCORE.INTRA.SOLV>
0

>  <SCORE.INTRA.SOLV.lig_0>
-23.8949

>  <SCORE.INTRA.VDW>
0

>  <SCORE.INTRA.VDW.0>
0

>  <SCORE.INTRA.norm>
0

>  <SCORE.RESTR>
0

>  <SCORE.RESTR.CAVITY>
0

>  <SCORE.RESTR.norm>
0

>  <SCORE.SYSTEM>
0

>  <SCORE.SYSTEM.CONST>
0

>  <SCORE.SYSTEM.DIHEDRAL>
0

>  <SCORE.SYSTEM.SOLV>
0

>  <SCORE.SYSTEM.norm>
0

>  <SCORE.heavy>
10

>  <SCORE.norm>
-1.4378

>  <RMSD>
0.411

$$$$
ligand
 OpenBabel11021811513D
libRbt.so/2013.1/901 2013/11/27
 10 11  0  0  0  0  0  0  0  0999 V2000
  -30.2013   16.9961  -14.9567 N   0  0  0  0  0  0  0  0  0  0  0  0
  -31.0267   18.0392  -14.7972 C   0  0  0  0  0  0  0  0  0  0  0  0
  -31.4530   18.9179  -15.7038 N   0  0  0  0  0  0  0  0  0  0  0  0
  -30.9352   18.6450  -16.9122 C   0  0  0  0  0  0  0  0  0  0  0  0
  -30.0731   17.6123  -17.2313 C   0  0  0  0  0  0  0  0  0  0  0  0
  -29.6974   16.7479  -16.1833 C   0  0  0  0  0  0  0  0  0  0  0  0
  -28.8723   15.7088  -16.3468 N   0  0  0  0  0  0  0  0  0  0  0  0
  -29.7505   17.6421  -18.5774 N   0  0  0  0  0  0  0  0  0  0  0  0
  -30.4118   18.6786  -19.0367 C   0  0  0  0  0  0  0  0  0  0  0  0
  -31.1473   19.3297  -18.0852 N   0  0  0  0  0  0  0  0  0  0  0  0
  1  2  2  0  0  0  0
  1  6  1  0  0  0  0
  2  3  1  0  0  0  0
  3  4  2  0  0  0  0
  4  5  1  0  0  0  0
  4 10  1  0  0  0  0
  5  6  2  0  0  0  0
  5  8  1  0  0  0  0
  6  7  1  0  0  0  0
  8  9  1  0  0  0  0
  9 10  2  0  0  0  0
M  END
>  <CHROM.1>
-30.35133257,17.82309979,-16.77929953,1.25928254,-0.89874932,1.90195113

>  <Name>
ligand

>  <RI>
0

>  <Rbt.Current_Directory>
/home/itssahil/PROJECTS/Mol_Feturizer/New_Systems/rnas/4TZX

>  <Rbt.Executable>
rbdock ($Id: //depot/dev/client3/rdock/2013.1/src/exe/rbdock.cxx#4 $)

>  <Rbt.Library>
libRbt.so (2013.1, Build901 2013/11/27)

>  <Rbt.Parameter_File>
/export/apps/rDock/src/rDock_2013.1_src/data/scripts/dock_solv.prm

>  <Rbt.Receptor>
prm/pocket_docking_5.prm

>  <SCORE>
-14.3738

>  <SCORE.INTER>
-14.3738

>  <SCORE.INTER.CONST>
1

>  <SCORE.INTER.POLAR>
0

>  <SCORE.INTER.ROT>
0

>  <SCORE.INTER.SOLV>
8.13195

>  <SCORE.INTER.VDW>
-15.8932

>  <SCORE.INTER.norm>
-1.43738

>  <SCORE.INTRA>
0

>  <SCORE.INTRA.DIHEDRAL>
0

>  <SCORE.INTRA.DIHEDRAL.0>
0

>  <SCORE.INTRA.POLAR>
0

>  <SCORE.INTRA.POLAR.0>
0

>  <SCORE.INTRA.REPUL>
0

>  <SCORE.INTRA.REPUL.0>
0

>  <SCORE.INTRA.SOLV>
0

>  <SCORE.INTRA.SOLV.lig_0>
-23.8949

>  <SCORE.INTRA.VDW>
0

>  <SCORE.INTRA.VDW.0>
0

>  <SCORE.INTRA.norm>
0

>  <SCORE.RESTR>
0

>  <SCORE.RESTR.CAVITY>
0

>  <SCORE.RESTR.norm>
0

>  <SCORE.SYSTEM>
0

>  <SCORE.SYSTEM.CONST>
0

>  <SCORE.SYSTEM.DIHEDRAL>
0

>  <SCORE.SYSTEM.SOLV>
0

>  <SCORE.SYSTEM.norm>
0

>  <SCORE.heavy>
10

>  <SCORE.norm>
-1.43738

>  <RMSD>
0.411

$$$$
ligand
 OpenBabel11021811513D
libRbt.so/2013.1/901 2013/11/27
 10 11  0  0  0  0  0  0  0  0999 V2000
  -30.2361   17.0158  -14.9452 N   0  0  0  0  0  0  0  0  0  0  0  0
  -31.0621   18.0580  -14.7830 C   0  0  0  0  0  0  0  0  0  0  0  0
  -31.4865   18.9405  -15.6866 N   0  0  0  0  0  0  0  0  0  0  0  0
  -30.9658   18.6731  -16.8950 C   0  0  0  0  0  0  0  0  0  0  0  0
  -30.1027   17.6420  -17.2167 C   0  0  0  0  0  0  0  0  0  0  0  0
  -29.7292   16.7731  -16.1717 C   0  0  0  0  0  0  0  0  0  0  0  0
  -28.9036   15.7349  -16.3378 N   0  0  0  0  0  0  0  0  0  0  0  0
  -29.7770   17.6778  -18.5619 N   0  0  0  0  0  0  0  0  0  0  0  0
  -30.4375   18.7162  -19.0181 C   0  0  0  0  0  0  0  0  0  0  0  0
  -31.1753   19.3629  -18.0655 N   0  0  0  0  0  0  0  0  0  0  0  0
  1  2  2  0  0  0  0
  1  6  1  0  0  0  0
  2  3  1  0  0  0  0
  3  4  2  0  0  0  0
  4  5  1  0  0  0  0
  4 10  1  0  0  0  0
  5  6  2  0  0  0  0
  5  8  1  0  0  0  0
  6  7  1  0  0  0  0
  8  9  1  0  0  0  0
  9 10  2  0  0  0  0
M  END
>  <CHROM.1>
-30.38207702,17.85075479,-16.76442200,1.26267244,-0.89777454,1.90901064

>  <Name>
ligand

>  <RI>
0

>  <Rbt.Current_Directory>
/home/itssahil/PROJECTS/Mol_Feturizer/New_Systems/rnas/4TZX

>  <Rbt.Executable>
rbdock ($Id: //depot/dev/client3/rdock/2013.1/src/exe/rbdock.cxx#4 $)

>  <Rbt.Library>
libRbt.so (2013.1, Build901 2013/11/27)

>  <Rbt.Parameter_File>
/export/apps/rDock/src/rDock_2013.1_src/data/scripts/dock_solv.prm

>  <Rbt.Receptor>
prm/pocket_docking_5.prm

>  <SCORE>
-14.3576

>  <SCORE.INTER>
-14.3576

>  <SCORE.INTER.CONST>
1

>  <SCORE.INTER.POLAR>
0

>  <SCORE.INTER.ROT>
0

>  <SCORE.INTER.SOLV>
8.15563

>  <SCORE.INTER.VDW>
-15.8903

>  <SCORE.INTER.norm>
-1.43576

>  <SCORE.INTRA>
0

>  <SCORE.INTRA.DIHEDRAL>
0

>  <SCORE.INTRA.DIHEDRAL.0>
0

>  <SCORE.INTRA.POLAR>
0

>  <SCORE.INTRA.POLAR.0>
0

>  <SCORE.INTRA.REPUL>
0

>  <SCORE.INTRA.REPUL.0>
0

>  <SCORE.INTRA.SOLV>
0

>  <SCORE.INTRA.SOLV.lig_0>
-23.8949

>  <SCORE.INTRA.VDW>
0

>  <SCORE.INTRA.VDW.0>
0

>  <SCORE.INTRA.norm>
0

>  <SCORE.RESTR>
0

>  <SCORE.RESTR.CAVITY>
0

>  <SCORE.RESTR.norm>
0

>  <SCORE.SYSTEM>
0

>  <SCORE.SYSTEM.CONST>
0

>  <SCORE.SYSTEM.DIHEDRAL>
0

>  <SCORE.SYSTEM.SOLV>
0

>  <SCORE.SYSTEM.norm>
0

>  <SCORE.heavy>
10

>  <SCORE.norm>
-1.43576

>  <RMSD>
0.411

$$$$
ligand
 OpenBabel11021811513D
libRbt.so/2013.1/901 2013/11/27
 10 11  0  0  0  0  0  0  0  0999 V2000
  -30.1948   17.0071  -14.9483 N   0  0  0  0  0  0  0  0  0  0  0  0
  -31.0190   18.0509  -14.7865 C   0  0  0  0  0  0  0  0  0  0  0  0
  -31.4471   18.9299  -15.6918 N   0  0  0  0  0  0  0  0  0  0  0  0
  -30.9327   18.6567  -16.9016 C   0  0  0  0  0  0  0  0  0  0  0  0
  -30.0722   17.6235  -17.2231 C   0  0  0  0  0  0  0  0  0  0  0  0
  -29.6943   16.7587  -16.1762 C   0  0  0  0  0  0  0  0  0  0  0  0
  -28.8705   15.7190  -16.3420 N   0  0  0  0  0  0  0  0  0  0  0  0
  -29.7532   17.6532  -18.5700 N   0  0  0  0  0  0  0  0  0  0  0  0
  -30.4149   18.6902  -19.0274 C   0  0  0  0  0  0  0  0  0  0  0  0
  -31.1474   19.3417  -18.0740 N   0  0  0  0  0  0  0  0  0  0  0  0
  1  2  2  0  0  0  0
  1  6  1  0  0  0  0
  2  3  1  0  0  0  0
  3  4  2  0  0  0  0
  4  5  1  0  0  0  0
  4 10  1  0  0  0  0
  5  6  2  0  0  0  0
  5  8  1  0  0  0  0
  6  7  1  0  0  0  0
  8  9  1  0  0  0  0
  9 10  2  0  0  0  0
M  END
>  <CHROM.1>
-30.34909137,17.83442322,-16.77032571,1.25562375,-0.90030808,1.89919184

>  <Name>
ligand

>  <RI>
0

>  <Rbt.Current_Directory>
/home/itssahil/PROJECTS/Mol_Feturizer/New_Systems/rnas/4TZX

>  <Rbt.Executable>
rbdock ($Id: //depot/dev/client3/rdock/2013.1/src/exe/rbdock.cxx#4 $)

>  <Rbt.Library>
libRbt.so (2013.1, Build901 2013/11/27)

>  <Rbt.Parameter_File>
/export/apps/rDock/src/rDock_2013.1_src/data/scripts/dock_solv.prm

>  <Rbt.Receptor>
prm/pocket_docking_7.prm

>  <SCORE>
-14.374

>  <SCORE.INTER>
-14.374

>  <SCORE.INTER.CONST>
1

>  <SCORE.INTER.POLAR>
0

>  <SCORE.INTER.ROT>
0

>  <SCORE.INTER.SOLV>
8.10424

>  <SCORE.INTER.VDW>
-15.8841

>  <SCORE.INTER.norm>
-1.4374

>  <SCORE.INTRA>
0

>  <SCORE.INTRA.DIHEDRAL>
0

>  <SCORE.INTRA.DIHEDRAL.0>
0

>  <SCORE.INTRA.POLAR>
0

>  <SCORE.INTRA.POLAR.0>
0

>  <SCORE.INTRA.REPUL>
0

>  <SCORE.INTRA.REPUL.0>
0

>  <SCORE.INTRA.SOLV>
0

>  <SCORE.INTRA.SOLV.lig_0>
-23.8949

>  <SCORE.INTRA.VDW>
0

>  <SCORE.INTRA.VDW.0>
0

>  <SCORE.INTRA.norm>
0

>  <SCORE.RESTR>
0

>  <SCORE.RESTR.CAVITY>
0

>  <SCORE.RESTR.norm>
0

>  <SCORE.SYSTEM>
0

>  <SCORE.SYSTEM.CONST>
0

>  <SCORE.SYSTEM.DIHEDRAL>
0

>  <SCORE.SYSTEM.SOLV>
0

>  <SCORE.SYSTEM.norm>
0

>  <SCORE.heavy>
10

>  <SCORE.norm>
-1.4374

>  <RMSD>
0.411

$$$$
ligand
 OpenBabel11021811513D
libRbt.so/2013.1/901 2013/11/27
 10 11  0  0  0  0  0  0  0  0999 V2000
  -30.2081   16.9912  -14.9624 N   0  0  0  0  0  0  0  0  0  0  0  0
  -31.0319   18.0357  -14.8038 C   0  0  0  0  0  0  0  0  0  0  0  0
  -31.4560   18.9149  -15.7108 N   0  0  0  0  0  0  0  0  0  0  0  0
  -30.9376   18.6410  -16.9187 C   0  0  0  0  0  0  0  0  0  0  0  0
  -30.0768   17.6069  -17.2370 C   0  0  0  0  0  0  0  0  0  0  0  0
  -29.7035   16.7420  -16.1886 C   0  0  0  0  0  0  0  0  0  0  0  0
  -28.8800   15.7015  -16.3512 N   0  0  0  0  0  0  0  0  0  0  0  0
  -29.7531   17.6360  -18.5827 N   0  0  0  0  0  0  0  0  0  0  0  0
  -30.4123   18.6735  -19.0427 C   0  0  0  0  0  0  0  0  0  0  0  0
  -31.1475   19.3259  -18.0920 N   0  0  0  0  0  0  0  0  0  0  0  0
  1  2  2  0  0  0  0
  1  6  1  0  0  0  0
  2  3  1  0  0  0  0
  3  4  2  0  0  0  0
  4  5  1  0  0  0  0
  4 10  1  0  0  0  0
  5  6  2  0  0  0  0
  5  8  1  0  0  0  0
  6  7  1  0  0  0  0
  8  9  1  0  0  0  0
  9 10  2  0  0  0  0
M  END
>  <CHROM.1>
-30.35515199,17.81819188,-16.78522056,1.26145111,-0.90001958,1.90352148

>  <Name>
ligand

>  <RI>
0

>  <Rbt.Current_Directory>
/home/itssahil/PROJECTS/Mol_Feturizer/New_Systems/rnas/4TZX

>  <Rbt.Executable>
rbdock ($Id: //depot/dev/client3/rdock/2013.1/src/exe/rbdock.cxx#4 $)

>  <Rbt.Library>
libRbt.so (2013.1, Build901 2013/11/27)

>  <Rbt.Parameter_File>
/export/apps/rDock/src/rDock_2013.1_src/data/scripts/dock_solv.prm

>  <Rbt.Receptor>
prm/pocket_docking_8.prm

>  <SCORE>
-14.3702

>  <SCORE.INTER>
-14.3702

>  <SCORE.INTER.CONST>
1

>  <SCORE.INTER.POLAR>
0

>  <SCORE.INTER.ROT>
0

>  <SCORE.INTER.SOLV>
8.17053

>  <SCORE.INTER.VDW>
-15.9036

>  <SCORE.INTER.norm>
-1.43702

>  <SCORE.INTRA>
0

>  <SCORE.INTRA.DIHEDRAL>
0

>  <SCORE.INTRA.DIHEDRAL.0>
0

>  <SCORE.INTRA.POLAR>
0

>  <SCORE.INTRA.POLAR.0>
0

>  <SCORE.INTRA.REPUL>
0

>  <SCORE.INTRA.REPUL.0>
0

>  <SCORE.INTRA.SOLV>
0

>  <SCORE.INTRA.SOLV.lig_0>
-23.8949

>  <SCORE.INTRA.VDW>
0

>  <SCORE.INTRA.VDW.0>
0

>  <SCORE.INTRA.norm>
0

>  <SCORE.RESTR>
0

>  <SCORE.RESTR.CAVITY>
0

>  <SCORE.RESTR.norm>
0

>  <SCORE.SYSTEM>
0

>  <SCORE.SYSTEM.CONST>
0

>  <SCORE.SYSTEM.DIHEDRAL>
0

>  <SCORE.SYSTEM.SOLV>
0

>  <SCORE.SYSTEM.norm>
0

>  <SCORE.heavy>
10

>  <SCORE.norm>
-1.43702

>  <RMSD>
0.411

$$$$
ligand
 OpenBabel11021811513D
libRbt.so/2013.1/901 2013/11/27
 10 11  0  0  0  0  0  0  0  0999 V2000
  -30.1773   17.0256  -14.9364 N   0  0  0  0  0  0  0  0  0  0  0  0
  -31.0210   18.0551  -14.7845 C   0  0  0  0  0  0  0  0  0  0  0  0
  -31.4639   18.9185  -15.6977 N   0  0  0  0  0  0  0  0  0  0  0  0
  -30.9427   18.6449  -16.9045 C   0  0  0  0  0  0  0  0  0  0  0  0
  -30.0626   17.6252  -17.2162 C   0  0  0  0  0  0  0  0  0  0  0  0
  -29.6704   16.7763  -16.1615 C   0  0  0  0  0  0  0  0  0  0  0  0
  -28.8271   15.7507  -16.3175 N   0  0  0  0  0  0  0  0  0  0  0  0
  -29.7421   17.6496  -18.5628 N   0  0  0  0  0  0  0  0  0  0  0  0
  -30.4223   18.6703  -19.0298 C   0  0  0  0  0  0  0  0  0  0  0  0
  -31.1682   19.3160  -18.0828 N   0  0  0  0  0  0  0  0  0  0  0  0
  1  2  2  0  0  0  0
  1  6  1  0  0  0  0
  2  3  1  0  0  0  0
  3  4  2  0  0  0  0
  4  5  1  0  0  0  0
  4 10  1  0  0  0  0
  5  6  2  0  0  0  0
  5  8  1  0  0  0  0
  6  7  1  0  0  0  0
  8  9  1  0  0  0  0
  9 10  2  0  0  0  0
M  END
>  <CHROM.1>
-30.34407687,17.83469901,-16.76553285,1.24851258,-0.88220246,1.88533604

>  <Name>
ligand

>  <RI>
0

>  <Rbt.Current_Directory>
/home/itssahil/PROJECTS/Mol_Feturizer/New_Systems/rnas/4TZX

>  <Rbt.Executable>
rbdock ($Id: //depot/dev/client3/rdock/2013.1/src/exe/rbdock.cxx#4 $)

>  <Rbt.Library>
libRbt.so (2013.1, Build901 2013/11/27)

>  <Rbt.Parameter_File>
/export/apps/rDock/src/rDock_2013.1_src/data/scripts/dock_solv.prm

>  <Rbt.Receptor>
prm/blind_docking_100.prm

>  <SCORE>
-14.3791

>  <SCORE.INTER>
-14.3791

>  <SCORE.INTER.CONST>
1

>  <SCORE.INTER.POLAR>
0

>  <SCORE.INTER.ROT>
0

>  <SCORE.INTER.SOLV>
7.89388

>  <SCORE.INTER.VDW>
-15.8174

>  <SCORE.INTER.norm>
-1.43791

>  <SCORE.INTRA>
0

>  <SCORE.INTRA.DIHEDRAL>
0

>  <SCORE.INTRA.DIHEDRAL.0>
0

>  <SCORE.INTRA.POLAR>
0

>  <SCORE.INTRA.POLAR.0>
0

>  <SCORE.INTRA.REPUL>
0

>  <SCORE.INTRA.REPUL.0>
0

>  <SCORE.INTRA.SOLV>
0

>  <SCORE.INTRA.SOLV.lig_0>
-23.8949

>  <SCORE.INTRA.VDW>
0

>  <SCORE.INTRA.VDW.0>
0

>  <SCORE.INTRA.norm>
0

>  <SCORE.RESTR>
0

>  <SCORE.RESTR.CAVITY>
0

>  <SCORE.RESTR.norm>
0

>  <SCORE.SYSTEM>
0

>  <SCORE.SYSTEM.CONST>
0

>  <SCORE.SYSTEM.DIHEDRAL>
0

>  <SCORE.SYSTEM.SOLV>
0

>  <SCORE.SYSTEM.norm>
0

>  <SCORE.heavy>
10

>  <SCORE.norm>
-1.43791

>  <RMSD>
0.412

$$$$
ligand
 OpenBabel11021811513D
libRbt.so/2013.1/901 2013/11/27
 10 11  0  0  0  0  0  0  0  0999 V2000
  -30.1913   16.9945  -14.9578 N   0  0  0  0  0  0  0  0  0  0  0  0
  -31.0169   18.0369  -14.7945 C   0  0  0  0  0  0  0  0  0  0  0  0
  -31.4481   18.9151  -15.6991 N   0  0  0  0  0  0  0  0  0  0  0  0
  -30.9355   18.6428  -16.9098 C   0  0  0  0  0  0  0  0  0  0  0  0
  -30.0738   17.6109  -17.2329 C   0  0  0  0  0  0  0  0  0  0  0  0
  -29.6927   16.7467  -16.1866 C   0  0  0  0  0  0  0  0  0  0  0  0
  -28.8674   15.7084  -16.3538 N   0  0  0  0  0  0  0  0  0  0  0  0
  -29.7573   17.6410  -18.5804 N   0  0  0  0  0  0  0  0  0  0  0  0
  -30.4217   18.6769  -19.0366 C   0  0  0  0  0  0  0  0  0  0  0  0
  -31.1534   19.3273  -18.0819 N   0  0  0  0  0  0  0  0  0  0  0  0
  1  2  2  0  0  0  0
  1  6  1  0  0  0  0
  2  3  1  0  0  0  0
  3  4  2  0  0  0  0
  4  5  1  0  0  0  0
  4 10  1  0  0  0  0
  5  6  2  0  0  0  0
  5  8  1  0  0  0  0
  6  7  1  0  0  0  0
  8  9  1  0  0  0  0
  9 10  2  0  0  0  0
M  END
>  <CHROM.1>
-30.35025964,17.82138702,-16.77961599,1.25197662,-0.89935145,1.89627157

>  <Name>
ligand

>  <RI>
0

>  <Rbt.Current_Directory>
/home/itssahil/PROJECTS/Mol_Feturizer/New_Systems/rnas/4TZX

>  <Rbt.Executable>
rbdock ($Id: //depot/dev/client3/rdock/2013.1/src/exe/rbdock.cxx#4 $)

>  <Rbt.Library>
libRbt.so (2013.1, Build901 2013/11/27)

>  <Rbt.Parameter_File>
/export/apps/rDock/src/rDock_2013.1_src/data/scripts/dock_solv.prm

>  <Rbt.Receptor>
prm/blind_docking_80.prm

>  <SCORE>
-14.3704

>  <SCORE.INTER>
-14.3704

>  <SCORE.INTER.CONST>
1

>  <SCORE.INTER.POLAR>
0

>  <SCORE.INTER.ROT>
0

>  <SCORE.INTER.SOLV>
8.1274

>  <SCORE.INTER.VDW>
-15.8894

>  <SCORE.INTER.norm>
-1.43704

>  <SCORE.INTRA>
0

>  <SCORE.INTRA.DIHEDRAL>
0

>  <SCORE.INTRA.DIHEDRAL.0>
0

>  <SCORE.INTRA.POLAR>
0

>  <SCORE.INTRA.POLAR.0>
0

>  <SCORE.INTRA.REPUL>
0

>  <SCORE.INTRA.REPUL.0>
0

>  <SCORE.INTRA.SOLV>
0

>  <SCORE.INTRA.SOLV.lig_0>
-23.8949

>  <SCORE.INTRA.VDW>
0

>  <SCORE.INTRA.VDW.0>
0

>  <SCORE.INTRA.norm>
0

>  <SCORE.RESTR>
0

>  <SCORE.RESTR.CAVITY>
0

>  <SCORE.RESTR.norm>
0

>  <SCORE.SYSTEM>
0

>  <SCORE.SYSTEM.CONST>
0

>  <SCORE.SYSTEM.DIHEDRAL>
0

>  <SCORE.SYSTEM.SOLV>
0

>  <SCORE.SYSTEM.norm>
0

>  <SCORE.heavy>
10

>  <SCORE.norm>
-1.43704

>  <RMSD>
0.412

$$$$
ligand
 OpenBabel11021811513D
libRbt.so/2013.1/901 2013/11/27
 10 11  0  0  0  0  0  0  0  0999 V2000
  -30.2056   17.0052  -14.9519 N   0  0  0  0  0  0  0  0  0  0  0  0
  -31.0238   18.0532  -14.7880 C   0  0  0  0  0  0  0  0  0  0  0  0
  -31.4479   18.9358  -15.6917 N   0  0  0  0  0  0  0  0  0  0  0  0
  -30.9361   18.6613  -16.9024 C   0  0  0  0  0  0  0  0  0  0  0  0
  -30.0817   17.6237  -17.2261 C   0  0  0  0  0  0  0  0  0  0  0  0
  -29.7076   16.7555  -16.1806 C   0  0  0  0  0  0  0  0  0  0  0  0
  -28.8898   15.7115  -16.3484 N   0  0  0  0  0  0  0  0  0  0  0  0
  -29.7637   17.6533  -18.5732 N   0  0  0  0  0  0  0  0  0  0  0  0
  -30.4202   18.6946  -19.0287 C   0  0  0  0  0  0  0  0  0  0  0  0
  -31.1481   19.3490  -18.0737 N   0  0  0  0  0  0  0  0  0  0  0  0
  1  2  2  0  0  0  0
  1  6  1  0  0  0  0
  2  3  1  0  0  0  0
  3  4  2  0  0  0  0
  4  5  1  0  0  0  0
  4 10  1  0  0  0  0
  5  6  2  0  0  0  0
  5  8  1  0  0  0  0
  6  7  1  0  0  0  0
  8  9  1  0  0  0  0
  9 10  2  0  0  0  0
M  END
>  <CHROM.1>
-30.35697690,17.83560752,-16.77273337,1.25708275,-0.90586078,1.90160313

>  <Name>
ligand

>  <RI>
0

>  <Rbt.Current_Directory>
/home/itssahil/PROJECTS/Mol_Feturizer/New_Systems/rnas/4TZX

>  <Rbt.Executable>
rbdock ($Id: //depot/dev/client3/rdock/2013.1/src/exe/rbdock.cxx#4 $)

>  <Rbt.Library>
libRbt.so (2013.1, Build901 2013/11/27)

>  <Rbt.Parameter_File>
/export/apps/rDock/src/rDock_2013.1_src/data/scripts/dock_solv.prm

>  <Rbt.Receptor>
prm/pocket_docking_5.prm

>  <SCORE>
-14.3691

>  <SCORE.INTER>
-14.3691

>  <SCORE.INTER.CONST>
1

>  <SCORE.INTER.POLAR>
0

>  <SCORE.INTER.ROT>
0

>  <SCORE.INTER.SOLV>
8.17722

>  <SCORE.INTER.VDW>
-15.9052

>  <SCORE.INTER.norm>
-1.43691

>  <SCORE.INTRA>
0

>  <SCORE.INTRA.DIHEDRAL>
0

>  <SCORE.INTRA.DIHEDRAL.0>
0

>  <SCORE.INTRA.POLAR>
0

>  <SCORE.INTRA.POLAR.0>
0

>  <SCORE.INTRA.REPUL>
0

>  <SCORE.INTRA.REPUL.0>
0

>  <SCORE.INTRA.SOLV>
0

>  <SCORE.INTRA.SOLV.lig_0>
-23.8949

>  <SCORE.INTRA.VDW>
0

>  <SCORE.INTRA.VDW.0>
0

>  <SCORE.INTRA.norm>
0

>  <SCORE.RESTR>
0

>  <SCORE.RESTR.CAVITY>
0

>  <SCORE.RESTR.norm>
0

>  <SCORE.SYSTEM>
0

>  <SCORE.SYSTEM.CONST>
0

>  <SCORE.SYSTEM.DIHEDRAL>
0

>  <SCORE.SYSTEM.SOLV>
0

>  <SCORE.SYSTEM.norm>
0

>  <SCORE.heavy>
10

>  <SCORE.norm>
-1.43691

>  <RMSD>
0.412

$$$$
ligand
 OpenBabel11021811513D
libRbt.so/2013.1/901 2013/11/27
 10 11  0  0  0  0  0  0  0  0999 V2000
  -30.2276   16.9878  -14.9652 N   0  0  0  0  0  0  0  0  0  0  0  0
  -31.0373   18.0424  -14.8016 C   0  0  0  0  0  0  0  0  0  0  0  0
  -31.4476   18.9331  -15.7038 N   0  0  0  0  0  0  0  0  0  0  0  0
  -30.9305   18.6597  -16.9125 C   0  0  0  0  0  0  0  0  0  0  0  0
  -30.0834   17.6159  -17.2356 C   0  0  0  0  0  0  0  0  0  0  0  0
  -29.7240   16.7394  -16.1919 C   0  0  0  0  0  0  0  0  0  0  0  0
  -28.9146   15.6888  -16.3596 N   0  0  0  0  0  0  0  0  0  0  0  0
  -29.7566   17.6490  -18.5805 N   0  0  0  0  0  0  0  0  0  0  0  0
  -30.4006   18.6983  -19.0352 C   0  0  0  0  0  0  0  0  0  0  0  0
  -31.1287   19.3548  -18.0818 N   0  0  0  0  0  0  0  0  0  0  0  0
  1  2  2  0  0  0  0
  1  6  1  0  0  0  0
  2  3  1  0  0  0  0
  3  4  2  0  0  0  0
  4  5  1  0  0  0  0
  4 10  1  0  0  0  0
  5  6  2  0  0  0  0
  5  8  1  0  0  0  0
  6  7  1  0  0  0  0
  8  9  1  0  0  0  0
  9 10  2  0  0  0  0
M  END
>  <CHROM.1>
-30.35972450,17.82815805,-16.78304431,1.27184838,-0.91228313,1.91801549

>  <Name>
ligand

>  <RI>
0

>  <Rbt.Current_Directory>
/home/itssahil/PROJECTS/Mol_Feturizer/New_Systems/rnas/4TZX

>  <Rbt.Executable>
rbdock ($Id: //depot/dev/client3/rdock/2013.1/src/exe/rbdock.cxx#4 $)

>  <Rbt.Library>
libRbt.so (2013.1, Build901 2013/11/27)

>  <Rbt.Parameter_File>
/export/apps/rDock/src/rDock_2013.1_src/data/scripts/dock_solv.prm

>  <Rbt.Receptor>
prm/pocket_docking_6.prm

>  <SCORE>
-14.376

>  <SCORE.INTER>
-14.376

>  <SCORE.INTER.CONST>
1

>  <SCORE.INTER.POLAR>
0

>  <SCORE.INTER.ROT>
0

>  <SCORE.INTER.SOLV>
8.29798

>  <SCORE.INTER.VDW>
-15.95

>  <SCORE.INTER.norm>
-1.4376

>  <SCORE.INTRA>
0

>  <SCORE.INTRA.DIHEDRAL>
0

>  <SCORE.INTRA.DIHEDRAL.0>
0

>  <SCORE.INTRA.POLAR>
0

>  <SCORE.INTRA.POLAR.0>
0

>  <SCORE.INTRA.REPUL>
0

>  <SCORE.INTRA.REPUL.0>
0

>  <SCORE.INTRA.SOLV>
0

>  <SCORE.INTRA.SOLV.lig_0>
-23.8949

>  <SCORE.INTRA.VDW>
0

>  <SCORE.INTRA.VDW.0>
0

>  <SCORE.INTRA.norm>
0

>  <SCORE.RESTR>
7.15069e-05

>  <SCORE.RESTR.CAVITY>
7.15069e-05

>  <SCORE.RESTR.norm>
7.15069e-06

>  <SCORE.SYSTEM>
0

>  <SCORE.SYSTEM.CONST>
0

>  <SCORE.SYSTEM.DIHEDRAL>
0

>  <SCORE.SYSTEM.SOLV>
0

>  <SCORE.SYSTEM.norm>
0

>  <SCORE.heavy>
10

>  <SCORE.norm>
-1.4376

>  <RMSD>
0.412

$$$$
ligand
 OpenBabel11021811513D
libRbt.so/2013.1/901 2013/11/27
 10 11  0  0  0  0  0  0  0  0999 V2000
  -30.1916   17.0254  -14.9391 N   0  0  0  0  0  0  0  0  0  0  0  0
  -31.0337   18.0560  -14.7855 C   0  0  0  0  0  0  0  0  0  0  0  0
  -31.4749   18.9218  -15.6972 N   0  0  0  0  0  0  0  0  0  0  0  0
  -30.9536   18.6497  -16.9043 C   0  0  0  0  0  0  0  0  0  0  0  0
  -30.0750   17.6292  -17.2176 C   0  0  0  0  0  0  0  0  0  0  0  0
  -29.6845   16.7777  -16.1645 C   0  0  0  0  0  0  0  0  0  0  0  0
  -28.8428   15.7511  -16.3220 N   0  0  0  0  0  0  0  0  0  0  0  0
  -29.7539   17.6558  -18.5640 N   0  0  0  0  0  0  0  0  0  0  0  0
  -30.4323   18.6784  -19.0293 C   0  0  0  0  0  0  0  0  0  0  0  0
  -31.1776   19.3234  -18.0815 N   0  0  0  0  0  0  0  0  0  0  0  0
  1  2  2  0  0  0  0
  1  6  1  0  0  0  0
  2  3  1  0  0  0  0
  3  4  2  0  0  0  0
  4  5  1  0  0  0  0
  4 10  1  0  0  0  0
  5  6  2  0  0  0  0
  5  8  1  0  0  0  0
  6  7  1  0  0  0  0
  8  9  1  0  0  0  0
  9 10  2  0  0  0  0
M  END
>  <CHROM.1>
-30.35633509,17.83830435,-16.76668193,1.24987978,-0.88354539,1.88831602

>  <Name>
ligand

>  <RI>
0

>  <Rbt.Current_Directory>
/home/itssahil/PROJECTS/Mol_Feturizer/New_Systems/rnas/4TZX

>  <Rbt.Executable>
rbdock ($Id: //depot/dev/client3/rdock/2013.1/src/exe/rbdock.cxx#4 $)

>  <Rbt.Library>
libRbt.so (2013.1, Build901 2013/11/27)

>  <Rbt.Parameter_File>
/export/apps/rDock/src/rDock_2013.1_src/data/scripts/dock_solv.prm

>  <Rbt.Receptor>
prm/pocket_docking_7.prm

>  <SCORE>
-14.3749

>  <SCORE.INTER>
-14.3749

>  <SCORE.INTER.CONST>
1

>  <SCORE.INTER.POLAR>
0

>  <SCORE.INTER.ROT>
0

>  <SCORE.INTER.SOLV>
7.94227

>  <SCORE.INTER.VDW>
-15.8307

>  <SCORE.INTER.norm>
-1.43749

>  <SCORE.INTRA>
0

>  <SCORE.INTRA.DIHEDRAL>
0

>  <SCORE.INTRA.DIHEDRAL.0>
0

>  <SCORE.INTRA.POLAR>
0

>  <SCORE.INTRA.POLAR.0>
0

>  <SCORE.INTRA.REPUL>
0

>  <SCORE.INTRA.REPUL.0>
0

>  <SCORE.INTRA.SOLV>
0

>  <SCORE.INTRA.SOLV.lig_0>
-23.8949

>  <SCORE.INTRA.VDW>
0

>  <SCORE.INTRA.VDW.0>
0

>  <SCORE.INTRA.norm>
0

>  <SCORE.RESTR>
0

>  <SCORE.RESTR.CAVITY>
0

>  <SCORE.RESTR.norm>
0

>  <SCORE.SYSTEM>
0

>  <SCORE.SYSTEM.CONST>
0

>  <SCORE.SYSTEM.DIHEDRAL>
0

>  <SCORE.SYSTEM.SOLV>
0

>  <SCORE.SYSTEM.norm>
0

>  <SCORE.heavy>
10

>  <SCORE.norm>
-1.43749

>  <RMSD>
0.412

$$$$
ligand
 OpenBabel11021811513D
libRbt.so/2013.1/901 2013/11/27
 10 11  0  0  0  0  0  0  0  0999 V2000
  -30.2730   16.9975  -14.9638 N   0  0  0  0  0  0  0  0  0  0  0  0
  -31.0611   18.0697  -14.8088 C   0  0  0  0  0  0  0  0  0  0  0  0
  -31.4423   18.9687  -15.7155 N   0  0  0  0  0  0  0  0  0  0  0  0
  -30.9188   18.6836  -16.9186 C   0  0  0  0  0  0  0  0  0  0  0  0
  -30.0914   17.6214  -17.2327 C   0  0  0  0  0  0  0  0  0  0  0  0
  -29.7622   16.7376  -16.1851 C   0  0  0  0  0  0  0  0  0  0  0  0
  -28.9741   15.6695  -16.3440 N   0  0  0  0  0  0  0  0  0  0  0  0
  -29.7499   17.6467  -18.5741 N   0  0  0  0  0  0  0  0  0  0  0  0
  -30.3660   18.7096  -19.0358 C   0  0  0  0  0  0  0  0  0  0  0  0
  -31.0895   19.3823  -18.0902 N   0  0  0  0  0  0  0  0  0  0  0  0
  1  2  2  0  0  0  0
  1  6  1  0  0  0  0
  2  3  1  0  0  0  0
  3  4  2  0  0  0  0
  4  5  1  0  0  0  0
  4 10  1  0  0  0  0
  5  6  2  0  0  0  0
  5  8  1  0  0  0  0
  6  7  1  0  0  0  0
  8  9  1  0  0  0  0
  9 10  2  0  0  0  0
M  END
>  <CHROM.1>
-30.36768684,17.83978272,-16.78307391,1.30069329,-0.92908898,1.94062864

>  <Name>
ligand

>  <RI>
0

>  <Rbt.Current_Directory>
/home/itssahil/PROJECTS/Mol_Feturizer/New_Systems/rnas/4TZX

>  <Rbt.Executable>
rbdock ($Id: //depot/dev/client3/rdock/2013.1/src/exe/rbdock.cxx#4 $)

>  <Rbt.Library>
libRbt.so (2013.1, Build901 2013/11/27)

>  <Rbt.Parameter_File>
/export/apps/rDock/src/rDock_2013.1_src/data/scripts/dock_solv.prm

>  <Rbt.Receptor>
prm/pocket_docking_7.prm

>  <SCORE>
-14.3264

>  <SCORE.INTER>
-14.3264

>  <SCORE.INTER.CONST>
1

>  <SCORE.INTER.POLAR>
0

>  <SCORE.INTER.ROT>
0

>  <SCORE.INTER.SOLV>
8.47209

>  <SCORE.INTER.VDW>
-15.975

>  <SCORE.INTER.norm>
-1.43264

>  <SCORE.INTRA>
0

>  <SCORE.INTRA.DIHEDRAL>
0

>  <SCORE.INTRA.DIHEDRAL.0>
0

>  <SCORE.INTRA.POLAR>
0

>  <SCORE.INTRA.POLAR.0>
0

>  <SCORE.INTRA.REPUL>
0

>  <SCORE.INTRA.REPUL.0>
0

>  <SCORE.INTRA.SOLV>
0

>  <SCORE.INTRA.SOLV.lig_0>
-23.8949

>  <SCORE.INTRA.VDW>
0

>  <SCORE.INTRA.VDW.0>
0

>  <SCORE.INTRA.norm>
0

>  <SCORE.RESTR>
0

>  <SCORE.RESTR.CAVITY>
0

>  <SCORE.RESTR.norm>
0

>  <SCORE.SYSTEM>
0

>  <SCORE.SYSTEM.CONST>
0

>  <SCORE.SYSTEM.DIHEDRAL>
0

>  <SCORE.SYSTEM.SOLV>
0

>  <SCORE.SYSTEM.norm>
0

>  <SCORE.heavy>
10

>  <SCORE.norm>
-1.43264

>  <RMSD>
0.412

$$$$
ligand
 OpenBabel11021811513D
libRbt.so/2013.1/901 2013/11/27
 10 11  0  0  0  0  0  0  0  0999 V2000
  -30.1937   17.0000  -14.9534 N   0  0  0  0  0  0  0  0  0  0  0  0
  -31.0184   18.0430  -14.7901 C   0  0  0  0  0  0  0  0  0  0  0  0
  -31.4475   18.9228  -15.6942 N   0  0  0  0  0  0  0  0  0  0  0  0
  -30.9336   18.6512  -16.9046 C   0  0  0  0  0  0  0  0  0  0  0  0
  -30.0727   17.6188  -17.2277 C   0  0  0  0  0  0  0  0  0  0  0  0
  -29.6938   16.7531  -16.1819 C   0  0  0  0  0  0  0  0  0  0  0  0
  -28.8694   15.7140  -16.3492 N   0  0  0  0  0  0  0  0  0  0  0  0
  -29.7544   17.6500  -18.5747 N   0  0  0  0  0  0  0  0  0  0  0  0
  -30.4171   18.6871  -19.0307 C   0  0  0  0  0  0  0  0  0  0  0  0
  -31.1494   19.3373  -18.0762 N   0  0  0  0  0  0  0  0  0  0  0  0
  1  2  2  0  0  0  0
  1  6  1  0  0  0  0
  2  3  1  0  0  0  0
  3  4  2  0  0  0  0
  4  5  1  0  0  0  0
  4 10  1  0  0  0  0
  5  6  2  0  0  0  0
  5  8  1  0  0  0  0
  6  7  1  0  0  0  0
  8  9  1  0  0  0  0
  9 10  2  0  0  0  0
M  END
>  <CHROM.1>
-30.34948052,17.82906231,-16.77454123,1.25447826,-0.89993350,1.89933208

>  <Name>
ligand

>  <RI>
0

>  <Rbt.Current_Directory>
/home/itssahil/PROJECTS/Mol_Feturizer/New_Systems/rnas/4TZX

>  <Rbt.Executable>
rbdock ($Id: //depot/dev/client3/rdock/2013.1/src/exe/rbdock.cxx#4 $)

>  <Rbt.Library>
libRbt.so (2013.1, Build901 2013/11/27)

>  <Rbt.Parameter_File>
/export/apps/rDock/src/rDock_2013.1_src/data/scripts/dock_solv.prm

>  <Rbt.Receptor>
prm/pocket_docking_8.prm

>  <SCORE>
-14.3746

>  <SCORE.INTER>
-14.3746

>  <SCORE.INTER.CONST>
1

>  <SCORE.INTER.POLAR>
0

>  <SCORE.INTER.ROT>
0

>  <SCORE.INTER.SOLV>
8.11862

>  <SCORE.INTER.VDW>
-15.8893

>  <SCORE.INTER.norm>
-1.43746

>  <SCORE.INTRA>
0

>  <SCORE.INTRA.DIHEDRAL>
0

>  <SCORE.INTRA.DIHEDRAL.0>
0

>  <SCORE.INTRA.POLAR>
0

>  <SCORE.INTRA.POLAR.0>
0

>  <SCORE.INTRA.REPUL>
0

>  <SCORE.INTRA.REPUL.0>
0

>  <SCORE.INTRA.SOLV>
0

>  <SCORE.INTRA.SOLV.lig_0>
-23.8949

>  <SCORE.INTRA.VDW>
0

>  <SCORE.INTRA.VDW.0>
0

>  <SCORE.INTRA.norm>
0

>  <SCORE.RESTR>
0

>  <SCORE.RESTR.CAVITY>
0

>  <SCORE.RESTR.norm>
0

>  <SCORE.SYSTEM>
0

>  <SCORE.SYSTEM.CONST>
0

>  <SCORE.SYSTEM.DIHEDRAL>
0

>  <SCORE.SYSTEM.SOLV>
0

>  <SCORE.SYSTEM.norm>
0

>  <SCORE.heavy>
10

>  <SCORE.norm>
-1.43746

>  <RMSD>
0.412

$$$$
ligand
 OpenBabel11021811513D
libRbt.so/2013.1/901 2013/11/27
 10 11  0  0  0  0  0  0  0  0999 V2000
  -30.2217   17.0088  -14.9561 N   0  0  0  0  0  0  0  0  0  0  0  0
  -31.0406   18.0576  -14.8002 C   0  0  0  0  0  0  0  0  0  0  0  0
  -31.4581   18.9382  -15.7090 N   0  0  0  0  0  0  0  0  0  0  0  0
  -30.9384   18.6606  -16.9155 C   0  0  0  0  0  0  0  0  0  0  0  0
  -30.0822   17.6219  -17.2309 C   0  0  0  0  0  0  0  0  0  0  0  0
  -29.7156   16.7560  -16.1808 C   0  0  0  0  0  0  0  0  0  0  0  0
  -28.8971   15.7112  -16.3407 N   0  0  0  0  0  0  0  0  0  0  0  0
  -29.7552   17.6481  -18.5759 N   0  0  0  0  0  0  0  0  0  0  0  0
  -30.4081   18.6885  -19.0383 C   0  0  0  0  0  0  0  0  0  0  0  0
  -31.1421   19.3455  -18.0898 N   0  0  0  0  0  0  0  0  0  0  0  0
  1  2  2  0  0  0  0
  1  6  1  0  0  0  0
  2  3  1  0  0  0  0
  3  4  2  0  0  0  0
  4  5  1  0  0  0  0
  4 10  1  0  0  0  0
  5  6  2  0  0  0  0
  5  8  1  0  0  0  0
  6  7  1  0  0  0  0
  8  9  1  0  0  0  0
  9 10  2  0  0  0  0
M  END
>  <CHROM.1>
-30.36045027,17.83496222,-16.77992282,1.26762417,-0.90407115,1.90749386

>  <Name>
ligand

>  <RI>
0

>  <Rbt.Current_Directory>
/home/itssahil/PROJECTS/Mol_Feturizer/New_Systems/rnas/4TZX

>  <Rbt.Executable>
rbdock ($Id: //depot/dev/client3/rdock/2013.1/src/exe/rbdock.cxx#4 $)

>  <Rbt.Library>
libRbt.so (2013.1, Build901 2013/11/27)

>  <Rbt.Parameter_File>
/export/apps/rDock/src/rDock_2013.1_src/data/scripts/dock_solv.prm

>  <Rbt.Receptor>
prm/blind_docking_60.prm

>  <SCORE>
-14.3705

>  <SCORE.INTER>
-14.3705

>  <SCORE.INTER.CONST>
1

>  <SCORE.INTER.POLAR>
0

>  <SCORE.INTER.ROT>
0

>  <SCORE.INTER.SOLV>
8.19023

>  <SCORE.INTER.VDW>
-15.9104

>  <SCORE.INTER.norm>
-1.43705

>  <SCORE.INTRA>
0

>  <SCORE.INTRA.DIHEDRAL>
0

>  <SCORE.INTRA.DIHEDRAL.0>
0

>  <SCORE.INTRA.POLAR>
0

>  <SCORE.INTRA.POLAR.0>
0

>  <SCORE.INTRA.REPUL>
0

>  <SCORE.INTRA.REPUL.0>
0

>  <SCORE.INTRA.SOLV>
0

>  <SCORE.INTRA.SOLV.lig_0>
-23.8949

>  <SCORE.INTRA.VDW>
0

>  <SCORE.INTRA.VDW.0>
0

>  <SCORE.INTRA.norm>
0

>  <SCORE.RESTR>
0

>  <SCORE.RESTR.CAVITY>
0

>  <SCORE.RESTR.norm>
0

>  <SCORE.SYSTEM>
0

>  <SCORE.SYSTEM.CONST>
0

>  <SCORE.SYSTEM.DIHEDRAL>
0

>  <SCORE.SYSTEM.SOLV>
0

>  <SCORE.SYSTEM.norm>
0

>  <SCORE.heavy>
10

>  <SCORE.norm>
-1.43705

>  <RMSD>
0.413

$$$$
ligand
 OpenBabel11021811513D
libRbt.so/2013.1/901 2013/11/27
 10 11  0  0  0  0  0  0  0  0999 V2000
  -30.1979   17.0032  -14.9536 N   0  0  0  0  0  0  0  0  0  0  0  0
  -31.0208   18.0477  -14.7906 C   0  0  0  0  0  0  0  0  0  0  0  0
  -31.4487   18.9276  -15.6951 N   0  0  0  0  0  0  0  0  0  0  0  0
  -30.9356   18.6546  -16.9055 C   0  0  0  0  0  0  0  0  0  0  0  0
  -30.0765   17.6205  -17.2282 C   0  0  0  0  0  0  0  0  0  0  0  0
  -29.6987   16.7548  -16.1821 C   0  0  0  0  0  0  0  0  0  0  0  0
  -28.8761   15.7143  -16.3490 N   0  0  0  0  0  0  0  0  0  0  0  0
  -29.7585   17.6505  -18.5754 N   0  0  0  0  0  0  0  0  0  0  0  0
  -30.4196   18.6885  -19.0317 C   0  0  0  0  0  0  0  0  0  0  0  0
  -31.1506   19.3403  -18.0774 N   0  0  0  0  0  0  0  0  0  0  0  0
  1  2  2  0  0  0  0
  1  6  1  0  0  0  0
  2  3  1  0  0  0  0
  3  4  2  0  0  0  0
  4  5  1  0  0  0  0
  4 10  1  0  0  0  0
  5  6  2  0  0  0  0
  5  8  1  0  0  0  0
  6  7  1  0  0  0  0
  8  9  1  0  0  0  0
  9 10  2  0  0  0  0
M  END
>  <CHROM.1>
-30.35277087,17.83155051,-16.77511542,1.25489372,-0.90157053,1.89909913

>  <Name>
ligand

>  <RI>
0

>  <Rbt.Current_Directory>
/home/itssahil/PROJECTS/Mol_Feturizer/New_Systems/rnas/4TZX

>  <Rbt.Executable>
rbdock ($Id: //depot/dev/client3/rdock/2013.1/src/exe/rbdock.cxx#4 $)

>  <Rbt.Library>
libRbt.so (2013.1, Build901 2013/11/27)

>  <Rbt.Parameter_File>
/export/apps/rDock/src/rDock_2013.1_src/data/scripts/dock_solv.prm

>  <Rbt.Receptor>
prm/pocket_docking_3.prm

>  <SCORE>
-14.372

>  <SCORE.INTER>
-14.372

>  <SCORE.INTER.CONST>
1

>  <SCORE.INTER.POLAR>
0

>  <SCORE.INTER.ROT>
0

>  <SCORE.INTER.SOLV>
8.13639

>  <SCORE.INTER.VDW>
-15.8934

>  <SCORE.INTER.norm>
-1.4372

>  <SCORE.INTRA>
0

>  <SCORE.INTRA.DIHEDRAL>
0

>  <SCORE.INTRA.DIHEDRAL.0>
0

>  <SCORE.INTRA.POLAR>
0

>  <SCORE.INTRA.POLAR.0>
0

>  <SCORE.INTRA.REPUL>
0

>  <SCORE.INTRA.REPUL.0>
0

>  <SCORE.INTRA.SOLV>
0

>  <SCORE.INTRA.SOLV.lig_0>
-23.8949

>  <SCORE.INTRA.VDW>
0

>  <SCORE.INTRA.VDW.0>
0

>  <SCORE.INTRA.norm>
0

>  <SCORE.RESTR>
0

>  <SCORE.RESTR.CAVITY>
0

>  <SCORE.RESTR.norm>
0

>  <SCORE.SYSTEM>
0

>  <SCORE.SYSTEM.CONST>
0

>  <SCORE.SYSTEM.DIHEDRAL>
0

>  <SCORE.SYSTEM.SOLV>
0

>  <SCORE.SYSTEM.norm>
0

>  <SCORE.heavy>
10

>  <SCORE.norm>
-1.4372

>  <RMSD>
0.413

$$$$
ligand
 OpenBabel11021811513D
libRbt.so/2013.1/901 2013/11/27
 10 11  0  0  0  0  0  0  0  0999 V2000
  -30.1899   17.0614  -14.9147 N   0  0  0  0  0  0  0  0  0  0  0  0
  -31.0232   18.1009  -14.7738 C   0  0  0  0  0  0  0  0  0  0  0  0
  -31.4528   18.9626  -15.6949 N   0  0  0  0  0  0  0  0  0  0  0  0
  -30.9290   18.6752  -16.8973 C   0  0  0  0  0  0  0  0  0  0  0  0
  -30.0584   17.6440  -17.1980 C   0  0  0  0  0  0  0  0  0  0  0  0
  -29.6801   16.7983  -16.1358 C   0  0  0  0  0  0  0  0  0  0  0  0
  -28.8471   15.7628  -16.2808 N   0  0  0  0  0  0  0  0  0  0  0  0
  -29.7316   17.6557  -18.5433 N   0  0  0  0  0  0  0  0  0  0  0  0
  -30.3987   18.6803  -19.0204 C   0  0  0  0  0  0  0  0  0  0  0  0
  -31.1420   19.3405  -18.0813 N   0  0  0  0  0  0  0  0  0  0  0  0
  1  2  2  0  0  0  0
  1  6  1  0  0  0  0
  2  3  1  0  0  0  0
  3  4  2  0  0  0  0
  4  5  1  0  0  0  0
  4 10  1  0  0  0  0
  5  6  2  0  0  0  0
  5  8  1  0  0  0  0
  6  7  1  0  0  0  0
  8  9  1  0  0  0  0
  9 10  2  0  0  0  0
M  END
>  <CHROM.1>
-30.33970396,17.85960261,-16.75010454,1.26063753,-0.89091837,1.88785228

>  <Name>
ligand

>  <RI>
0

>  <Rbt.Current_Directory>
/home/itssahil/PROJECTS/Mol_Feturizer/New_Systems/rnas/4TZX

>  <Rbt.Executable>
rbdock ($Id: //depot/dev/client3/rdock/2013.1/src/exe/rbdock.cxx#4 $)

>  <Rbt.Library>
libRbt.so (2013.1, Build901 2013/11/27)

>  <Rbt.Parameter_File>
/export/apps/rDock/src/rDock_2013.1_src/data/scripts/dock_solv.prm

>  <Rbt.Receptor>
prm/pocket_docking_3.prm

>  <SCORE>
-14.3555

>  <SCORE.INTER>
-14.3555

>  <SCORE.INTER.CONST>
1

>  <SCORE.INTER.POLAR>
0

>  <SCORE.INTER.ROT>
0

>  <SCORE.INTER.SOLV>
7.89743

>  <SCORE.INTER.VDW>
-15.8028

>  <SCORE.INTER.norm>
-1.43555

>  <SCORE.INTRA>
0

>  <SCORE.INTRA.DIHEDRAL>
0

>  <SCORE.INTRA.DIHEDRAL.0>
0

>  <SCORE.INTRA.POLAR>
0

>  <SCORE.INTRA.POLAR.0>
0

>  <SCORE.INTRA.REPUL>
0

>  <SCORE.INTRA.REPUL.0>
0

>  <SCORE.INTRA.SOLV>
0

>  <SCORE.INTRA.SOLV.lig_0>
-23.8949

>  <SCORE.INTRA.VDW>
0

>  <SCORE.INTRA.VDW.0>
0

>  <SCORE.INTRA.norm>
0

>  <SCORE.RESTR>
0

>  <SCORE.RESTR.CAVITY>
0

>  <SCORE.RESTR.norm>
0

>  <SCORE.SYSTEM>
0

>  <SCORE.SYSTEM.CONST>
0

>  <SCORE.SYSTEM.DIHEDRAL>
0

>  <SCORE.SYSTEM.SOLV>
0

>  <SCORE.SYSTEM.norm>
0

>  <SCORE.heavy>
10

>  <SCORE.norm>
-1.43555

>  <RMSD>
0.413

$$$$
ligand
 OpenBabel11021811513D
libRbt.so/2013.1/901 2013/11/27
 10 11  0  0  0  0  0  0  0  0999 V2000
  -30.2181   17.0448  -14.9352 N   0  0  0  0  0  0  0  0  0  0  0  0
  -31.0477   18.0878  -14.7988 C   0  0  0  0  0  0  0  0  0  0  0  0
  -31.4670   18.9525  -15.7219 N   0  0  0  0  0  0  0  0  0  0  0  0
  -30.9362   18.6640  -16.9211 C   0  0  0  0  0  0  0  0  0  0  0  0
  -30.0683   17.6292  -17.2169 C   0  0  0  0  0  0  0  0  0  0  0  0
  -29.7011   16.7806  -16.1530 C   0  0  0  0  0  0  0  0  0  0  0  0
  -28.8719   15.7415  -16.2934 N   0  0  0  0  0  0  0  0  0  0  0  0
  -29.7322   17.6409  -18.5598 N   0  0  0  0  0  0  0  0  0  0  0  0
  -30.3914   18.6690  -19.0404 C   0  0  0  0  0  0  0  0  0  0  0  0
  -31.1381   19.3315  -18.1057 N   0  0  0  0  0  0  0  0  0  0  0  0
  1  2  2  0  0  0  0
  1  6  1  0  0  0  0
  2  3  1  0  0  0  0
  3  4  2  0  0  0  0
  4  5  1  0  0  0  0
  4 10  1  0  0  0  0
  5  6  2  0  0  0  0
  5  8  1  0  0  0  0
  6  7  1  0  0  0  0
  8  9  1  0  0  0  0
  9 10  2  0  0  0  0
M  END
>  <CHROM.1>
-30.35169151,17.84557970,-16.77068783,1.27330308,-0.89302042,1.89879569

>  <Name>
ligand

>  <RI>
0

>  <Rbt.Current_Directory>
/home/itssahil/PROJECTS/Mol_Feturizer/New_Systems/rnas/4TZX

>  <Rbt.Executable>
rbdock ($Id: //depot/dev/client3/rdock/2013.1/src/exe/rbdock.cxx#4 $)

>  <Rbt.Library>
libRbt.so (2013.1, Build901 2013/11/27)

>  <Rbt.Parameter_File>
/export/apps/rDock/src/rDock_2013.1_src/data/scripts/dock_solv.prm

>  <Rbt.Receptor>
prm/pocket_docking_3.prm

>  <SCORE>
-14.3585

>  <SCORE.INTER>
-14.3585

>  <SCORE.INTER.CONST>
1

>  <SCORE.INTER.POLAR>
0

>  <SCORE.INTER.ROT>
0

>  <SCORE.INTER.SOLV>
8.00846

>  <SCORE.INTER.VDW>
-15.8418

>  <SCORE.INTER.norm>
-1.43585

>  <SCORE.INTRA>
0

>  <SCORE.INTRA.DIHEDRAL>
0

>  <SCORE.INTRA.DIHEDRAL.0>
0

>  <SCORE.INTRA.POLAR>
0

>  <SCORE.INTRA.POLAR.0>
0

>  <SCORE.INTRA.REPUL>
0

>  <SCORE.INTRA.REPUL.0>
0

>  <SCORE.INTRA.SOLV>
0

>  <SCORE.INTRA.SOLV.lig_0>
-23.8949

>  <SCORE.INTRA.VDW>
0

>  <SCORE.INTRA.VDW.0>
0

>  <SCORE.INTRA.norm>
0

>  <SCORE.RESTR>
0

>  <SCORE.RESTR.CAVITY>
0

>  <SCORE.RESTR.norm>
0

>  <SCORE.SYSTEM>
0

>  <SCORE.SYSTEM.CONST>
0

>  <SCORE.SYSTEM.DIHEDRAL>
0

>  <SCORE.SYSTEM.SOLV>
0

>  <SCORE.SYSTEM.norm>
0

>  <SCORE.heavy>
10

>  <SCORE.norm>
-1.43585

>  <RMSD>
0.413

$$$$
ligand
 OpenBabel11021811513D
libRbt.so/2013.1/901 2013/11/27
 10 11  0  0  0  0  0  0  0  0999 V2000
  -30.2318   16.9956  -14.9625 N   0  0  0  0  0  0  0  0  0  0  0  0
  -31.0426   18.0494  -14.7990 C   0  0  0  0  0  0  0  0  0  0  0  0
  -31.4543   18.9390  -15.7017 N   0  0  0  0  0  0  0  0  0  0  0  0
  -30.9376   18.6654  -16.9104 C   0  0  0  0  0  0  0  0  0  0  0  0
  -30.0895   17.6224  -17.2333 C   0  0  0  0  0  0  0  0  0  0  0  0
  -29.7286   16.7469  -16.1893 C   0  0  0  0  0  0  0  0  0  0  0  0
  -28.9180   15.6971  -16.3566 N   0  0  0  0  0  0  0  0  0  0  0  0
  -29.7634   17.6549  -18.5784 N   0  0  0  0  0  0  0  0  0  0  0  0
  -30.4089   18.7032  -19.0335 C   0  0  0  0  0  0  0  0  0  0  0  0
  -31.1372   19.3595  -18.0801 N   0  0  0  0  0  0  0  0  0  0  0  0
  1  2  2  0  0  0  0
  1  6  1  0  0  0  0
  2  3  1  0  0  0  0
  3  4  2  0  0  0  0
  4  5  1  0  0  0  0
  4 10  1  0  0  0  0
  5  6  2  0  0  0  0
  5  8  1  0  0  0  0
  6  7  1  0  0  0  0
  8  9  1  0  0  0  0
  9 10  2  0  0  0  0
M  END
>  <CHROM.1>
-30.36578963,17.83458638,-16.78074499,1.27040460,-0.91141364,1.91620487

>  <Name>
ligand

>  <RI>
0

>  <Rbt.Current_Directory>
/home/itssahil/PROJECTS/Mol_Feturizer/New_Systems/rnas/4TZX

>  <Rbt.Executable>
rbdock ($Id: //depot/dev/client3/rdock/2013.1/src/exe/rbdock.cxx#4 $)

>  <Rbt.Library>
libRbt.so (2013.1, Build901 2013/11/27)

>  <Rbt.Parameter_File>
/export/apps/rDock/src/rDock_2013.1_src/data/scripts/dock_solv.prm

>  <Rbt.Receptor>
prm/pocket_docking_6.prm

>  <SCORE>
-14.373

>  <SCORE.INTER>
-14.373

>  <SCORE.INTER.CONST>
1

>  <SCORE.INTER.POLAR>
0

>  <SCORE.INTER.ROT>
0

>  <SCORE.INTER.SOLV>
8.2891

>  <SCORE.INTER.VDW>
-15.9451

>  <SCORE.INTER.norm>
-1.4373

>  <SCORE.INTRA>
0

>  <SCORE.INTRA.DIHEDRAL>
0

>  <SCORE.INTRA.DIHEDRAL.0>
0

>  <SCORE.INTRA.POLAR>
0

>  <SCORE.INTRA.POLAR.0>
0

>  <SCORE.INTRA.REPUL>
0

>  <SCORE.INTRA.REPUL.0>
0

>  <SCORE.INTRA.SOLV>
0

>  <SCORE.INTRA.SOLV.lig_0>
-23.8949

>  <SCORE.INTRA.VDW>
0

>  <SCORE.INTRA.VDW.0>
0

>  <SCORE.INTRA.norm>
0

>  <SCORE.RESTR>
0

>  <SCORE.RESTR.CAVITY>
0

>  <SCORE.RESTR.norm>
0

>  <SCORE.SYSTEM>
0

>  <SCORE.SYSTEM.CONST>
0

>  <SCORE.SYSTEM.DIHEDRAL>
0

>  <SCORE.SYSTEM.SOLV>
0

>  <SCORE.SYSTEM.norm>
0

>  <SCORE.heavy>
10

>  <SCORE.norm>
-1.4373

>  <RMSD>
0.413

$$$$
ligand
 OpenBabel11021811513D
libRbt.so/2013.1/901 2013/11/27
 10 11  0  0  0  0  0  0  0  0999 V2000
  -30.2137   16.9785  -14.9725 N   0  0  0  0  0  0  0  0  0  0  0  0
  -31.0289   18.0284  -14.8053 C   0  0  0  0  0  0  0  0  0  0  0  0
  -31.4485   18.9164  -15.7058 N   0  0  0  0  0  0  0  0  0  0  0  0
  -30.9355   18.6458  -16.9168 C   0  0  0  0  0  0  0  0  0  0  0  0
  -30.0837   17.6070  -17.2436 C   0  0  0  0  0  0  0  0  0  0  0  0
  -29.7143   16.7328  -16.2014 C   0  0  0  0  0  0  0  0  0  0  0  0
  -28.8994   15.6870  -16.3726 N   0  0  0  0  0  0  0  0  0  0  0  0
  -29.7632   17.6417  -18.5900 N   0  0  0  0  0  0  0  0  0  0  0  0
  -30.4155   18.6871  -19.0419 C   0  0  0  0  0  0  0  0  0  0  0  0
  -31.1431   19.3395  -18.0853 N   0  0  0  0  0  0  0  0  0  0  0  0
  1  2  2  0  0  0  0
  1  6  1  0  0  0  0
  2  3  1  0  0  0  0
  3  4  2  0  0  0  0
  4  5  1  0  0  0  0
  4 10  1  0  0  0  0
  5  6  2  0  0  0  0
  5  8  1  0  0  0  0
  6  7  1  0  0  0  0
  8  9  1  0  0  0  0
  9 10  2  0  0  0  0
M  END
>  <CHROM.1>
-30.35915800,17.81767696,-16.78982704,1.26156058,-0.90825920,1.90969116

>  <Name>
ligand

>  <RI>
0

>  <Rbt.Current_Directory>
/home/itssahil/PROJECTS/Mol_Feturizer/New_Systems/rnas/4TZX

>  <Rbt.Executable>
rbdock ($Id: //depot/dev/client3/rdock/2013.1/src/exe/rbdock.cxx#4 $)

>  <Rbt.Library>
libRbt.so (2013.1, Build901 2013/11/27)

>  <Rbt.Parameter_File>
/export/apps/rDock/src/rDock_2013.1_src/data/scripts/dock_solv.prm

>  <Rbt.Receptor>
prm/blind_docking_100.prm

>  <SCORE>
-14.3722

>  <SCORE.INTER>
-14.3722

>  <SCORE.INTER.CONST>
1

>  <SCORE.INTER.POLAR>
0

>  <SCORE.INTER.ROT>
0

>  <SCORE.INTER.SOLV>
8.27495

>  <SCORE.INTER.VDW>
-15.9398

>  <SCORE.INTER.norm>
-1.43722

>  <SCORE.INTRA>
0

>  <SCORE.INTRA.DIHEDRAL>
0

>  <SCORE.INTRA.DIHEDRAL.0>
0

>  <SCORE.INTRA.POLAR>
0

>  <SCORE.INTRA.POLAR.0>
0

>  <SCORE.INTRA.REPUL>
0

>  <SCORE.INTRA.REPUL.0>
0

>  <SCORE.INTRA.SOLV>
0

>  <SCORE.INTRA.SOLV.lig_0>
-23.8949

>  <SCORE.INTRA.VDW>
0

>  <SCORE.INTRA.VDW.0>
0

>  <SCORE.INTRA.norm>
0

>  <SCORE.RESTR>
0

>  <SCORE.RESTR.CAVITY>
0

>  <SCORE.RESTR.norm>
0

>  <SCORE.SYSTEM>
0

>  <SCORE.SYSTEM.CONST>
0

>  <SCORE.SYSTEM.DIHEDRAL>
0

>  <SCORE.SYSTEM.SOLV>
0

>  <SCORE.SYSTEM.norm>
0

>  <SCORE.heavy>
10

>  <SCORE.norm>
-1.43722

>  <RMSD>
0.414

$$$$
ligand
 OpenBabel11021811513D
libRbt.so/2013.1/901 2013/11/27
 10 11  0  0  0  0  0  0  0  0999 V2000
  -30.1340   17.0557  -14.9060 N   0  0  0  0  0  0  0  0  0  0  0  0
  -30.9781   18.0845  -14.7512 C   0  0  0  0  0  0  0  0  0  0  0  0
  -31.4317   18.9421  -15.6645 N   0  0  0  0  0  0  0  0  0  0  0  0
  -30.9221   18.6629  -16.8750 C   0  0  0  0  0  0  0  0  0  0  0  0
  -30.0433   17.6431  -17.1900 C   0  0  0  0  0  0  0  0  0  0  0  0
  -29.6389   16.8006  -16.1347 C   0  0  0  0  0  0  0  0  0  0  0  0
  -28.7954   15.7757  -16.2936 N   0  0  0  0  0  0  0  0  0  0  0  0
  -29.7363   17.6607  -18.5399 N   0  0  0  0  0  0  0  0  0  0  0  0
  -30.4231   18.6776  -19.0055 C   0  0  0  0  0  0  0  0  0  0  0  0
  -31.1607   19.3271  -18.0547 N   0  0  0  0  0  0  0  0  0  0  0  0
  1  2  2  0  0  0  0
  1  6  1  0  0  0  0
  2  3  1  0  0  0  0
  3  4  2  0  0  0  0
  4  5  1  0  0  0  0
  4 10  1  0  0  0  0
  5  6  2  0  0  0  0
  5  8  1  0  0  0  0
  6  7  1  0  0  0  0
  8  9  1  0  0  0  0
  9 10  2  0  0  0  0
M  END
>  <CHROM.1>
-30.32062503,17.85449869,-16.73767443,1.23257995,-0.88348221,1.86758838

>  <Name>
ligand

>  <RI>
0

>  <Rbt.Current_Directory>
/home/itssahil/PROJECTS/Mol_Feturizer/New_Systems/rnas/4TZX

>  <Rbt.Executable>
rbdock ($Id: //depot/dev/client3/rdock/2013.1/src/exe/rbdock.cxx#4 $)

>  <Rbt.Library>
libRbt.so (2013.1, Build901 2013/11/27)

>  <Rbt.Parameter_File>
/export/apps/rDock/src/rDock_2013.1_src/data/scripts/dock_solv.prm

>  <Rbt.Receptor>
prm/blind_docking_60.prm

>  <SCORE>
-14.3519

>  <SCORE.INTER>
-14.3519

>  <SCORE.INTER.CONST>
1

>  <SCORE.INTER.POLAR>
0

>  <SCORE.INTER.ROT>
0

>  <SCORE.INTER.SOLV>
7.75918

>  <SCORE.INTER.VDW>
-15.7543

>  <SCORE.INTER.norm>
-1.43519

>  <SCORE.INTRA>
0

>  <SCORE.INTRA.DIHEDRAL>
0

>  <SCORE.INTRA.DIHEDRAL.0>
0

>  <SCORE.INTRA.POLAR>
0

>  <SCORE.INTRA.POLAR.0>
0

>  <SCORE.INTRA.REPUL>
0

>  <SCORE.INTRA.REPUL.0>
0

>  <SCORE.INTRA.SOLV>
0

>  <SCORE.INTRA.SOLV.lig_0>
-23.8949

>  <SCORE.INTRA.VDW>
0

>  <SCORE.INTRA.VDW.0>
0

>  <SCORE.INTRA.norm>
0

>  <SCORE.RESTR>
0

>  <SCORE.RESTR.CAVITY>
0

>  <SCORE.RESTR.norm>
0

>  <SCORE.SYSTEM>
0

>  <SCORE.SYSTEM.CONST>
0

>  <SCORE.SYSTEM.DIHEDRAL>
0

>  <SCORE.SYSTEM.SOLV>
0

>  <SCORE.SYSTEM.norm>
0

>  <SCORE.heavy>
10

>  <SCORE.norm>
-1.43519

>  <RMSD>
0.414

$$$$
ligand
 OpenBabel11021811513D
libRbt.so/2013.1/901 2013/11/27
 10 11  0  0  0  0  0  0  0  0999 V2000
  -30.2094   16.9853  -14.9664 N   0  0  0  0  0  0  0  0  0  0  0  0
  -31.0246   18.0347  -14.7961 C   0  0  0  0  0  0  0  0  0  0  0  0
  -31.4461   18.9240  -15.6946 N   0  0  0  0  0  0  0  0  0  0  0  0
  -30.9352   18.6554  -16.9069 C   0  0  0  0  0  0  0  0  0  0  0  0
  -30.0837   17.6173  -17.2368 C   0  0  0  0  0  0  0  0  0  0  0  0
  -29.7122   16.7416  -16.1966 C   0  0  0  0  0  0  0  0  0  0  0  0
  -28.8973   15.6963  -16.3708 N   0  0  0  0  0  0  0  0  0  0  0  0
  -29.7657   17.6541  -18.5837 N   0  0  0  0  0  0  0  0  0  0  0  0
  -30.4191   18.7000  -19.0329 C   0  0  0  0  0  0  0  0  0  0  0  0
  -31.1451   19.3507  -18.0740 N   0  0  0  0  0  0  0  0  0  0  0  0
  1  2  2  0  0  0  0
  1  6  1  0  0  0  0
  2  3  1  0  0  0  0
  3  4  2  0  0  0  0
  4  5  1  0  0  0  0
  4 10  1  0  0  0  0
  5  6  2  0  0  0  0
  5  8  1  0  0  0  0
  6  7  1  0  0  0  0
  8  9  1  0  0  0  0
  9 10  2  0  0  0  0
M  END
>  <CHROM.1>
-30.35840215,17.82719507,-16.78219664,1.25862439,-0.90859143,1.90886263

>  <Name>
ligand

>  <RI>
0

>  <Rbt.Current_Directory>
/home/itssahil/PROJECTS/Mol_Feturizer/New_Systems/rnas/4TZX

>  <Rbt.Executable>
rbdock ($Id: //depot/dev/client3/rdock/2013.1/src/exe/rbdock.cxx#4 $)

>  <Rbt.Library>
libRbt.so (2013.1, Build901 2013/11/27)

>  <Rbt.Parameter_File>
/export/apps/rDock/src/rDock_2013.1_src/data/scripts/dock_solv.prm

>  <Rbt.Receptor>
prm/pocket_docking_3.prm

>  <SCORE>
-14.3743

>  <SCORE.INTER>
-14.3743

>  <SCORE.INTER.CONST>
1

>  <SCORE.INTER.POLAR>
0

>  <SCORE.INTER.ROT>
0

>  <SCORE.INTER.SOLV>
8.25204

>  <SCORE.INTER.VDW>
-15.9335

>  <SCORE.INTER.norm>
-1.43743

>  <SCORE.INTRA>
0

>  <SCORE.INTRA.DIHEDRAL>
0

>  <SCORE.INTRA.DIHEDRAL.0>
0

>  <SCORE.INTRA.POLAR>
0

>  <SCORE.INTRA.POLAR.0>
0

>  <SCORE.INTRA.REPUL>
0

>  <SCORE.INTRA.REPUL.0>
0

>  <SCORE.INTRA.SOLV>
0

>  <SCORE.INTRA.SOLV.lig_0>
-23.8949

>  <SCORE.INTRA.VDW>
0

>  <SCORE.INTRA.VDW.0>
0

>  <SCORE.INTRA.norm>
0

>  <SCORE.RESTR>
0

>  <SCORE.RESTR.CAVITY>
0

>  <SCORE.RESTR.norm>
0

>  <SCORE.SYSTEM>
0

>  <SCORE.SYSTEM.CONST>
0

>  <SCORE.SYSTEM.DIHEDRAL>
0

>  <SCORE.SYSTEM.SOLV>
0

>  <SCORE.SYSTEM.norm>
0

>  <SCORE.heavy>
10

>  <SCORE.norm>
-1.43743

>  <RMSD>
0.414

$$$$
ligand
 OpenBabel11021811513D
libRbt.so/2013.1/901 2013/11/27
 10 11  0  0  0  0  0  0  0  0999 V2000
  -30.2701   17.0352  -14.9443 N   0  0  0  0  0  0  0  0  0  0  0  0
  -31.0698   18.1000  -14.7973 C   0  0  0  0  0  0  0  0  0  0  0  0
  -31.4615   18.9874  -15.7108 N   0  0  0  0  0  0  0  0  0  0  0  0
  -30.9357   18.6984  -16.9120 C   0  0  0  0  0  0  0  0  0  0  0  0
  -30.0970   17.6428  -17.2182 C   0  0  0  0  0  0  0  0  0  0  0  0
  -29.7573   16.7712  -16.1639 C   0  0  0  0  0  0  0  0  0  0  0  0
  -28.9578   15.7105  -16.3148 N   0  0  0  0  0  0  0  0  0  0  0  0
  -29.7567   17.6611  -18.5601 N   0  0  0  0  0  0  0  0  0  0  0  0
  -30.3848   18.7135  -19.0297 C   0  0  0  0  0  0  0  0  0  0  0  0
  -31.1149   19.3858  -18.0890 N   0  0  0  0  0  0  0  0  0  0  0  0
  1  2  2  0  0  0  0
  1  6  1  0  0  0  0
  2  3  1  0  0  0  0
  3  4  2  0  0  0  0
  4  5  1  0  0  0  0
  4 10  1  0  0  0  0
  5  6  2  0  0  0  0
  5  8  1  0  0  0  0
  6  7  1  0  0  0  0
  8  9  1  0  0  0  0
  9 10  2  0  0  0  0
M  END
>  <CHROM.1>
-30.37532168,17.86179059,-16.77013687,1.29308260,-0.91913135,1.92654812

>  <Name>
ligand

>  <RI>
0

>  <Rbt.Current_Directory>
/home/itssahil/PROJECTS/Mol_Feturizer/New_Systems/rnas/4TZX

>  <Rbt.Executable>
rbdock ($Id: //depot/dev/client3/rdock/2013.1/src/exe/rbdock.cxx#4 $)

>  <Rbt.Library>
libRbt.so (2013.1, Build901 2013/11/27)

>  <Rbt.Parameter_File>
/export/apps/rDock/src/rDock_2013.1_src/data/scripts/dock_solv.prm

>  <Rbt.Receptor>
prm/pocket_docking_3.prm

>  <SCORE>
-14.3514

>  <SCORE.INTER>
-14.3514

>  <SCORE.INTER.CONST>
1

>  <SCORE.INTER.POLAR>
0

>  <SCORE.INTER.ROT>
0

>  <SCORE.INTER.SOLV>
8.32123

>  <SCORE.INTER.VDW>
-15.9413

>  <SCORE.INTER.norm>
-1.43514

>  <SCORE.INTRA>
0

>  <SCORE.INTRA.DIHEDRAL>
0

>  <SCORE.INTRA.DIHEDRAL.0>
0

>  <SCORE.INTRA.POLAR>
0

>  <SCORE.INTRA.POLAR.0>
0

>  <SCORE.INTRA.REPUL>
0

>  <SCORE.INTRA.REPUL.0>
0

>  <SCORE.INTRA.SOLV>
0

>  <SCORE.INTRA.SOLV.lig_0>
-23.8949

>  <SCORE.INTRA.VDW>
0

>  <SCORE.INTRA.VDW.0>
0

>  <SCORE.INTRA.norm>
0

>  <SCORE.RESTR>
0

>  <SCORE.RESTR.CAVITY>
0

>  <SCORE.RESTR.norm>
0

>  <SCORE.SYSTEM>
0

>  <SCORE.SYSTEM.CONST>
0

>  <SCORE.SYSTEM.DIHEDRAL>
0

>  <SCORE.SYSTEM.SOLV>
0

>  <SCORE.SYSTEM.norm>
0

>  <SCORE.heavy>
10

>  <SCORE.norm>
-1.43514

>  <RMSD>
0.414

$$$$
ligand
 OpenBabel11021811513D
libRbt.so/2013.1/901 2013/11/27
 10 11  0  0  0  0  0  0  0  0999 V2000
  -30.1674   17.0329  -14.9269 N   0  0  0  0  0  0  0  0  0  0  0  0
  -31.0127   18.0590  -14.7613 C   0  0  0  0  0  0  0  0  0  0  0  0
  -31.4670   18.9259  -15.6655 N   0  0  0  0  0  0  0  0  0  0  0  0
  -30.9567   18.6604  -16.8787 C   0  0  0  0  0  0  0  0  0  0  0  0
  -30.0767   17.6450  -17.2044 C   0  0  0  0  0  0  0  0  0  0  0  0
  -29.6717   16.7917  -16.1582 C   0  0  0  0  0  0  0  0  0  0  0  0
  -28.8269   15.7696  -16.3278 N   0  0  0  0  0  0  0  0  0  0  0  0
  -29.7693   17.6776  -18.5539 N   0  0  0  0  0  0  0  0  0  0  0  0
  -30.4571   18.6987  -19.0088 C   0  0  0  0  0  0  0  0  0  0  0  0
  -31.1957   19.3371  -18.0512 N   0  0  0  0  0  0  0  0  0  0  0  0
  1  2  2  0  0  0  0
  1  6  1  0  0  0  0
  2  3  1  0  0  0  0
  3  4  2  0  0  0  0
  4  5  1  0  0  0  0
  4 10  1  0  0  0  0
  5  6  2  0  0  0  0
  5  8  1  0  0  0  0
  6  7  1  0  0  0  0
  8  9  1  0  0  0  0
  9 10  2  0  0  0  0
M  END
>  <CHROM.1>
-30.35437741,17.85125049,-16.74996594,1.23251466,-0.88230700,1.87832667

>  <Name>
ligand

>  <RI>
0

>  <Rbt.Current_Directory>
/home/itssahil/PROJECTS/Mol_Feturizer/New_Systems/rnas/4TZX

>  <Rbt.Executable>
rbdock ($Id: //depot/dev/client3/rdock/2013.1/src/exe/rbdock.cxx#4 $)

>  <Rbt.Library>
libRbt.so (2013.1, Build901 2013/11/27)

>  <Rbt.Parameter_File>
/export/apps/rDock/src/rDock_2013.1_src/data/scripts/dock_solv.prm

>  <Rbt.Receptor>
prm/pocket_docking_4.prm

>  <SCORE>
-14.37

>  <SCORE.INTER>
-14.37

>  <SCORE.INTER.CONST>
1

>  <SCORE.INTER.POLAR>
0

>  <SCORE.INTER.ROT>
0

>  <SCORE.INTER.SOLV>
7.86843

>  <SCORE.INTER.VDW>
-15.8028

>  <SCORE.INTER.norm>
-1.437

>  <SCORE.INTRA>
0

>  <SCORE.INTRA.DIHEDRAL>
0

>  <SCORE.INTRA.DIHEDRAL.0>
0

>  <SCORE.INTRA.POLAR>
0

>  <SCORE.INTRA.POLAR.0>
0

>  <SCORE.INTRA.REPUL>
0

>  <SCORE.INTRA.REPUL.0>
0

>  <SCORE.INTRA.SOLV>
0

>  <SCORE.INTRA.SOLV.lig_0>
-23.8949

>  <SCORE.INTRA.VDW>
0

>  <SCORE.INTRA.VDW.0>
0

>  <SCORE.INTRA.norm>
0

>  <SCORE.RESTR>
0

>  <SCORE.RESTR.CAVITY>
0

>  <SCORE.RESTR.norm>
0

>  <SCORE.SYSTEM>
0

>  <SCORE.SYSTEM.CONST>
0

>  <SCORE.SYSTEM.DIHEDRAL>
0

>  <SCORE.SYSTEM.SOLV>
0

>  <SCORE.SYSTEM.norm>
0

>  <SCORE.heavy>
10

>  <SCORE.norm>
-1.437

>  <RMSD>
0.414

$$$$
ligand
 OpenBabel11021811513D
libRbt.so/2013.1/901 2013/11/27
 10 11  0  0  0  0  0  0  0  0999 V2000
  -30.1885   17.0315  -14.9375 N   0  0  0  0  0  0  0  0  0  0  0  0
  -31.0332   18.0606  -14.7883 C   0  0  0  0  0  0  0  0  0  0  0  0
  -31.4752   18.9225  -15.7034 N   0  0  0  0  0  0  0  0  0  0  0  0
  -30.9518   18.6476  -16.9089 C   0  0  0  0  0  0  0  0  0  0  0  0
  -30.0706   17.6281  -17.2178 C   0  0  0  0  0  0  0  0  0  0  0  0
  -29.6795   16.7809  -16.1615 C   0  0  0  0  0  0  0  0  0  0  0  0
  -28.8352   15.7557  -16.3146 N   0  0  0  0  0  0  0  0  0  0  0  0
  -29.7479   17.6510  -18.5640 N   0  0  0  0  0  0  0  0  0  0  0  0
  -30.4281   18.6705  -19.0334 C   0  0  0  0  0  0  0  0  0  0  0  0
  -31.1759   19.3170  -18.0886 N   0  0  0  0  0  0  0  0  0  0  0  0
  1  2  2  0  0  0  0
  1  6  1  0  0  0  0
  2  3  1  0  0  0  0
  3  4  2  0  0  0  0
  4  5  1  0  0  0  0
  4 10  1  0  0  0  0
  5  6  2  0  0  0  0
  5  8  1  0  0  0  0
  6  7  1  0  0  0  0
  8  9  1  0  0  0  0
  9 10  2  0  0  0  0
M  END
>  <CHROM.1>
-30.35291700,17.83803749,-16.76794784,1.25058589,-0.88104296,1.88559360

>  <Name>
ligand

>  <RI>
0

>  <Rbt.Current_Directory>
/home/itssahil/PROJECTS/Mol_Feturizer/New_Systems/rnas/4TZX

>  <Rbt.Executable>
rbdock ($Id: //depot/dev/client3/rdock/2013.1/src/exe/rbdock.cxx#4 $)

>  <Rbt.Library>
libRbt.so (2013.1, Build901 2013/11/27)

>  <Rbt.Parameter_File>
/export/apps/rDock/src/rDock_2013.1_src/data/scripts/dock_solv.prm

>  <Rbt.Receptor>
prm/pocket_docking_5.prm

>  <SCORE>
-14.3754

>  <SCORE.INTER>
-14.3754

>  <SCORE.INTER.CONST>
1

>  <SCORE.INTER.POLAR>
0

>  <SCORE.INTER.ROT>
0

>  <SCORE.INTER.SOLV>
7.90431

>  <SCORE.INTER.VDW>
-15.8184

>  <SCORE.INTER.norm>
-1.43754

>  <SCORE.INTRA>
0

>  <SCORE.INTRA.DIHEDRAL>
0

>  <SCORE.INTRA.DIHEDRAL.0>
0

>  <SCORE.INTRA.POLAR>
0

>  <SCORE.INTRA.POLAR.0>
0

>  <SCORE.INTRA.REPUL>
0

>  <SCORE.INTRA.REPUL.0>
0

>  <SCORE.INTRA.SOLV>
0

>  <SCORE.INTRA.SOLV.lig_0>
-23.8949

>  <SCORE.INTRA.VDW>
0

>  <SCORE.INTRA.VDW.0>
0

>  <SCORE.INTRA.norm>
0

>  <SCORE.RESTR>
0

>  <SCORE.RESTR.CAVITY>
0

>  <SCORE.RESTR.norm>
0

>  <SCORE.SYSTEM>
0

>  <SCORE.SYSTEM.CONST>
0

>  <SCORE.SYSTEM.DIHEDRAL>
0

>  <SCORE.SYSTEM.SOLV>
0

>  <SCORE.SYSTEM.norm>
0

>  <SCORE.heavy>
10

>  <SCORE.norm>
-1.43754

>  <RMSD>
0.414

$$$$
ligand
 OpenBabel11021811513D
libRbt.so/2013.1/901 2013/11/27
 10 11  0  0  0  0  0  0  0  0999 V2000
  -30.2081   16.9830  -14.9682 N   0  0  0  0  0  0  0  0  0  0  0  0
  -31.0265   18.0302  -14.8000 C   0  0  0  0  0  0  0  0  0  0  0  0
  -31.4493   18.9174  -15.6999 N   0  0  0  0  0  0  0  0  0  0  0  0
  -30.9359   18.6491  -16.9112 C   0  0  0  0  0  0  0  0  0  0  0  0
  -30.0810   17.6132  -17.2390 C   0  0  0  0  0  0  0  0  0  0  0  0
  -29.7084   16.7396  -16.1974 C   0  0  0  0  0  0  0  0  0  0  0  0
  -28.8903   15.6964  -16.3695 N   0  0  0  0  0  0  0  0  0  0  0  0
  -29.7612   17.6497  -18.5855 N   0  0  0  0  0  0  0  0  0  0  0  0
  -30.4170   18.6932  -19.0366 C   0  0  0  0  0  0  0  0  0  0  0  0
  -31.1463   19.3427  -18.0793 N   0  0  0  0  0  0  0  0  0  0  0  0
  1  2  2  0  0  0  0
  1  6  1  0  0  0  0
  2  3  1  0  0  0  0
  3  4  2  0  0  0  0
  4  5  1  0  0  0  0
  4 10  1  0  0  0  0
  5  6  2  0  0  0  0
  5  8  1  0  0  0  0
  6  7  1  0  0  0  0
  8  9  1  0  0  0  0
  9 10  2  0  0  0  0
M  END
>  <CHROM.1>
-30.35694805,17.82274551,-16.78495992,1.25920988,-0.90541688,1.90838535

>  <Name>
ligand

>  <RI>
0

>  <Rbt.Current_Directory>
/home/itssahil/PROJECTS/Mol_Feturizer/New_Systems/rnas/4TZX

>  <Rbt.Executable>
rbdock ($Id: //depot/dev/client3/rdock/2013.1/src/exe/rbdock.cxx#4 $)

>  <Rbt.Library>
libRbt.so (2013.1, Build901 2013/11/27)

>  <Rbt.Parameter_File>
/export/apps/rDock/src/rDock_2013.1_src/data/scripts/dock_solv.prm

>  <Rbt.Receptor>
prm/pocket_docking_6.prm

>  <SCORE>
-14.3753

>  <SCORE.INTER>
-14.3754

>  <SCORE.INTER.CONST>
1

>  <SCORE.INTER.POLAR>
0

>  <SCORE.INTER.ROT>
0

>  <SCORE.INTER.SOLV>
8.2313

>  <SCORE.INTER.VDW>
-15.9274

>  <SCORE.INTER.norm>
-1.43754

>  <SCORE.INTRA>
0

>  <SCORE.INTRA.DIHEDRAL>
0

>  <SCORE.INTRA.DIHEDRAL.0>
0

>  <SCORE.INTRA.POLAR>
0

>  <SCORE.INTRA.POLAR.0>
0

>  <SCORE.INTRA.REPUL>
0

>  <SCORE.INTRA.REPUL.0>
0

>  <SCORE.INTRA.SOLV>
0

>  <SCORE.INTRA.SOLV.lig_0>
-23.8949

>  <SCORE.INTRA.VDW>
0

>  <SCORE.INTRA.VDW.0>
0

>  <SCORE.INTRA.norm>
0

>  <SCORE.RESTR>
8.48686e-05

>  <SCORE.RESTR.CAVITY>
8.48686e-05

>  <SCORE.RESTR.norm>
8.48686e-06

>  <SCORE.SYSTEM>
0

>  <SCORE.SYSTEM.CONST>
0

>  <SCORE.SYSTEM.DIHEDRAL>
0

>  <SCORE.SYSTEM.SOLV>
0

>  <SCORE.SYSTEM.norm>
0

>  <SCORE.heavy>
10

>  <SCORE.norm>
-1.43753

>  <RMSD>
0.414

$$$$
ligand
 OpenBabel11021811513D
libRbt.so/2013.1/901 2013/11/27
 10 11  0  0  0  0  0  0  0  0999 V2000
  -30.1714   17.0337  -14.9295 N   0  0  0  0  0  0  0  0  0  0  0  0
  -31.0179   18.0596  -14.7693 C   0  0  0  0  0  0  0  0  0  0  0  0
  -31.4700   18.9237  -15.6773 N   0  0  0  0  0  0  0  0  0  0  0  0
  -30.9557   18.6553  -16.8882 C   0  0  0  0  0  0  0  0  0  0  0  0
  -30.0740   17.6397  -17.2084 C   0  0  0  0  0  0  0  0  0  0  0  0
  -29.6716   16.7895  -16.1586 C   0  0  0  0  0  0  0  0  0  0  0  0
  -28.8256   15.7675  -16.3228 N   0  0  0  0  0  0  0  0  0  0  0  0
  -29.7624   17.6689  -18.5570 N   0  0  0  0  0  0  0  0  0  0  0  0
  -30.4495   18.6882  -19.0168 C   0  0  0  0  0  0  0  0  0  0  0  0
  -31.1915   19.3287  -18.0633 N   0  0  0  0  0  0  0  0  0  0  0  0
  1  2  2  0  0  0  0
  1  6  1  0  0  0  0
  2  3  1  0  0  0  0
  3  4  2  0  0  0  0
  4  5  1  0  0  0  0
  4 10  1  0  0  0  0
  5  6  2  0  0  0  0
  5  8  1  0  0  0  0
  6  7  1  0  0  0  0
  8  9  1  0  0  0  0
  9 10  2  0  0  0  0
M  END
>  <CHROM.1>
-30.35323912,17.84696149,-16.75535321,1.23685582,-0.88068033,1.87898207

>  <Name>
ligand

>  <RI>
0

>  <Rbt.Current_Directory>
/home/itssahil/PROJECTS/Mol_Feturizer/New_Systems/rnas/4TZX

>  <Rbt.Executable>
rbdock ($Id: //depot/dev/client3/rdock/2013.1/src/exe/rbdock.cxx#4 $)

>  <Rbt.Library>
libRbt.so (2013.1, Build901 2013/11/27)

>  <Rbt.Parameter_File>
/export/apps/rDock/src/rDock_2013.1_src/data/scripts/dock_solv.prm

>  <Rbt.Receptor>
prm/pocket_docking_6.prm

>  <SCORE>
-14.3758

>  <SCORE.INTER>
-14.3758

>  <SCORE.INTER.CONST>
1

>  <SCORE.INTER.POLAR>
0

>  <SCORE.INTER.ROT>
0

>  <SCORE.INTER.SOLV>
7.86343

>  <SCORE.INTER.VDW>
-15.805

>  <SCORE.INTER.norm>
-1.43758

>  <SCORE.INTRA>
0

>  <SCORE.INTRA.DIHEDRAL>
0

>  <SCORE.INTRA.DIHEDRAL.0>
0

>  <SCORE.INTRA.POLAR>
0

>  <SCORE.INTRA.POLAR.0>
0

>  <SCORE.INTRA.REPUL>
0

>  <SCORE.INTRA.REPUL.0>
0

>  <SCORE.INTRA.SOLV>
0

>  <SCORE.INTRA.SOLV.lig_0>
-23.8949

>  <SCORE.INTRA.VDW>
0

>  <SCORE.INTRA.VDW.0>
0

>  <SCORE.INTRA.norm>
0

>  <SCORE.RESTR>
0

>  <SCORE.RESTR.CAVITY>
0

>  <SCORE.RESTR.norm>
0

>  <SCORE.SYSTEM>
0

>  <SCORE.SYSTEM.CONST>
0

>  <SCORE.SYSTEM.DIHEDRAL>
0

>  <SCORE.SYSTEM.SOLV>
0

>  <SCORE.SYSTEM.norm>
0

>  <SCORE.heavy>
10

>  <SCORE.norm>
-1.43758

>  <RMSD>
0.414

$$$$
ligand
 OpenBabel11021811513D
libRbt.so/2013.1/901 2013/11/27
 10 11  0  0  0  0  0  0  0  0999 V2000
  -30.2082   17.0116  -14.9506 N   0  0  0  0  0  0  0  0  0  0  0  0
  -31.0282   18.0589  -14.7906 C   0  0  0  0  0  0  0  0  0  0  0  0
  -31.4505   18.9397  -15.6969 N   0  0  0  0  0  0  0  0  0  0  0  0
  -30.9346   18.6643  -16.9056 C   0  0  0  0  0  0  0  0  0  0  0  0
  -30.0778   17.6273  -17.2252 C   0  0  0  0  0  0  0  0  0  0  0  0
  -29.7061   16.7609  -16.1774 C   0  0  0  0  0  0  0  0  0  0  0  0
  -28.8864   15.7177  -16.3413 N   0  0  0  0  0  0  0  0  0  0  0  0
  -29.7556   17.6556  -18.5713 N   0  0  0  0  0  0  0  0  0  0  0  0
  -30.4119   18.6955  -19.0302 C   0  0  0  0  0  0  0  0  0  0  0  0
  -31.1436   19.3502  -18.0785 N   0  0  0  0  0  0  0  0  0  0  0  0
  1  2  2  0  0  0  0
  1  6  1  0  0  0  0
  2  3  1  0  0  0  0
  3  4  2  0  0  0  0
  4  5  1  0  0  0  0
  4 10  1  0  0  0  0
  5  6  2  0  0  0  0
  5  8  1  0  0  0  0
  6  7  1  0  0  0  0
  8  9  1  0  0  0  0
  9 10  2  0  0  0  0
M  END
>  <CHROM.1>
-30.35481116,17.83948380,-16.77299162,1.26131139,-0.90368449,1.90363242

>  <Name>
ligand

>  <RI>
0

>  <Rbt.Current_Directory>
/home/itssahil/PROJECTS/Mol_Feturizer/New_Systems/rnas/4TZX

>  <Rbt.Executable>
rbdock ($Id: //depot/dev/client3/rdock/2013.1/src/exe/rbdock.cxx#4 $)

>  <Rbt.Library>
libRbt.so (2013.1, Build901 2013/11/27)

>  <Rbt.Parameter_File>
/export/apps/rDock/src/rDock_2013.1_src/data/scripts/dock_solv.prm

>  <Rbt.Receptor>
prm/pocket_docking_8.prm

>  <SCORE>
-14.3716

>  <SCORE.INTER>
-14.3717

>  <SCORE.INTER.CONST>
1

>  <SCORE.INTER.POLAR>
0

>  <SCORE.INTER.ROT>
0

>  <SCORE.INTER.SOLV>
8.151

>  <SCORE.INTER.VDW>
-15.8981

>  <SCORE.INTER.norm>
-1.43717

>  <SCORE.INTRA>
0

>  <SCORE.INTRA.DIHEDRAL>
0

>  <SCORE.INTRA.DIHEDRAL.0>
0

>  <SCORE.INTRA.POLAR>
0

>  <SCORE.INTRA.POLAR.0>
0

>  <SCORE.INTRA.REPUL>
0

>  <SCORE.INTRA.REPUL.0>
0

>  <SCORE.INTRA.SOLV>
0

>  <SCORE.INTRA.SOLV.lig_0>
-23.8949

>  <SCORE.INTRA.VDW>
0

>  <SCORE.INTRA.VDW.0>
0

>  <SCORE.INTRA.norm>
0

>  <SCORE.RESTR>
5.56181e-05

>  <SCORE.RESTR.CAVITY>
5.56181e-05

>  <SCORE.RESTR.norm>
5.56181e-06

>  <SCORE.SYSTEM>
0

>  <SCORE.SYSTEM.CONST>
0

>  <SCORE.SYSTEM.DIHEDRAL>
0

>  <SCORE.SYSTEM.SOLV>
0

>  <SCORE.SYSTEM.norm>
0

>  <SCORE.heavy>
10

>  <SCORE.norm>
-1.43716

>  <RMSD>
0.414

$$$$
ligand
 OpenBabel11021811513D
libRbt.so/2013.1/901 2013/11/27
 10 11  0  0  0  0  0  0  0  0999 V2000
  -30.2438   17.0240  -14.9463 N   0  0  0  0  0  0  0  0  0  0  0  0
  -31.0477   18.0840  -14.7881 C   0  0  0  0  0  0  0  0  0  0  0  0
  -31.4511   18.9735  -15.6945 N   0  0  0  0  0  0  0  0  0  0  0  0
  -30.9335   18.6925  -16.9012 C   0  0  0  0  0  0  0  0  0  0  0  0
  -30.0919   17.6425  -17.2188 C   0  0  0  0  0  0  0  0  0  0  0  0
  -29.7395   16.7679  -16.1711 C   0  0  0  0  0  0  0  0  0  0  0  0
  -28.9359   15.7120  -16.3331 N   0  0  0  0  0  0  0  0  0  0  0  0
  -29.7625   17.6685  -18.5632 N   0  0  0  0  0  0  0  0  0  0  0  0
  -30.3995   18.7198  -19.0231 C   0  0  0  0  0  0  0  0  0  0  0  0
  -31.1255   19.3842  -18.0736 N   0  0  0  0  0  0  0  0  0  0  0  0
  1  2  2  0  0  0  0
  1  6  1  0  0  0  0
  2  3  1  0  0  0  0
  3  4  2  0  0  0  0
  4  5  1  0  0  0  0
  4 10  1  0  0  0  0
  5  6  2  0  0  0  0
  5  8  1  0  0  0  0
  6  7  1  0  0  0  0
  8  9  1  0  0  0  0
  9 10  2  0  0  0  0
M  END
>  <CHROM.1>
-30.36775936,17.85811108,-16.76752924,1.27789441,-0.91715765,1.91893865

>  <Name>
ligand

>  <RI>
0

>  <Rbt.Current_Directory>
/home/itssahil/PROJECTS/Mol_Feturizer/New_Systems/rnas/4TZX

>  <Rbt.Executable>
rbdock ($Id: //depot/dev/client3/rdock/2013.1/src/exe/rbdock.cxx#4 $)

>  <Rbt.Library>
libRbt.so (2013.1, Build901 2013/11/27)

>  <Rbt.Parameter_File>
/export/apps/rDock/src/rDock_2013.1_src/data/scripts/dock_solv.prm

>  <Rbt.Receptor>
prm/blind_docking_80.prm

>  <SCORE>
-14.3576

>  <SCORE.INTER>
-14.3576

>  <SCORE.INTER.CONST>
1

>  <SCORE.INTER.POLAR>
0

>  <SCORE.INTER.ROT>
0

>  <SCORE.INTER.SOLV>
8.28539

>  <SCORE.INTER.VDW>
-15.9336

>  <SCORE.INTER.norm>
-1.43576

>  <SCORE.INTRA>
0

>  <SCORE.INTRA.DIHEDRAL>
0

>  <SCORE.INTRA.DIHEDRAL.0>
0

>  <SCORE.INTRA.POLAR>
0

>  <SCORE.INTRA.POLAR.0>
0

>  <SCORE.INTRA.REPUL>
0

>  <SCORE.INTRA.REPUL.0>
0

>  <SCORE.INTRA.SOLV>
0

>  <SCORE.INTRA.SOLV.lig_0>
-23.8949

>  <SCORE.INTRA.VDW>
0

>  <SCORE.INTRA.VDW.0>
0

>  <SCORE.INTRA.norm>
0

>  <SCORE.RESTR>
0

>  <SCORE.RESTR.CAVITY>
0

>  <SCORE.RESTR.norm>
0

>  <SCORE.SYSTEM>
0

>  <SCORE.SYSTEM.CONST>
0

>  <SCORE.SYSTEM.DIHEDRAL>
0

>  <SCORE.SYSTEM.SOLV>
0

>  <SCORE.SYSTEM.norm>
0

>  <SCORE.heavy>
10

>  <SCORE.norm>
-1.43576

>  <RMSD>
0.415

$$$$
ligand
 OpenBabel11021811513D
libRbt.so/2013.1/901 2013/11/27
 10 11  0  0  0  0  0  0  0  0999 V2000
  -30.1487   17.0417  -14.9210 N   0  0  0  0  0  0  0  0  0  0  0  0
  -30.9958   18.0677  -14.7644 C   0  0  0  0  0  0  0  0  0  0  0  0
  -31.4498   18.9272  -15.6757 N   0  0  0  0  0  0  0  0  0  0  0  0
  -30.9368   18.6537  -16.8860 C   0  0  0  0  0  0  0  0  0  0  0  0
  -30.0546   17.6374  -17.2027 C   0  0  0  0  0  0  0  0  0  0  0  0
  -29.6502   16.7923  -16.1496 C   0  0  0  0  0  0  0  0  0  0  0  0
  -28.8036   15.7703  -16.3102 N   0  0  0  0  0  0  0  0  0  0  0  0
  -29.7447   17.6606  -18.5518 N   0  0  0  0  0  0  0  0  0  0  0  0
  -30.4332   18.6773  -19.0154 C   0  0  0  0  0  0  0  0  0  0  0  0
  -31.1746   19.3215  -18.0639 N   0  0  0  0  0  0  0  0  0  0  0  0
  1  2  2  0  0  0  0
  1  6  1  0  0  0  0
  2  3  1  0  0  0  0
  3  4  2  0  0  0  0
  4  5  1  0  0  0  0
  4 10  1  0  0  0  0
  5  6  2  0  0  0  0
  5  8  1  0  0  0  0
  6  7  1  0  0  0  0
  8  9  1  0  0  0  0
  9 10  2  0  0  0  0
M  END
>  <CHROM.1>
-30.33347237,17.84646381,-16.75027370,1.23459910,-0.88025377,1.87267746

>  <Name>
ligand

>  <RI>
0

>  <Rbt.Current_Directory>
/home/itssahil/PROJECTS/Mol_Feturizer/New_Systems/rnas/4TZX

>  <Rbt.Executable>
rbdock ($Id: //depot/dev/client3/rdock/2013.1/src/exe/rbdock.cxx#4 $)

>  <Rbt.Library>
libRbt.so (2013.1, Build901 2013/11/27)

>  <Rbt.Parameter_File>
/export/apps/rDock/src/rDock_2013.1_src/data/scripts/dock_solv.prm

>  <Rbt.Receptor>
prm/pocket_docking_3.prm

>  <SCORE>
-14.3723

>  <SCORE.INTER>
-14.3723

>  <SCORE.INTER.CONST>
1

>  <SCORE.INTER.POLAR>
0

>  <SCORE.INTER.ROT>
0

>  <SCORE.INTER.SOLV>
7.79845

>  <SCORE.INTER.VDW>
-15.781

>  <SCORE.INTER.norm>
-1.43723

>  <SCORE.INTRA>
0

>  <SCORE.INTRA.DIHEDRAL>
0

>  <SCORE.INTRA.DIHEDRAL.0>
0

>  <SCORE.INTRA.POLAR>
0

>  <SCORE.INTRA.POLAR.0>
0

>  <SCORE.INTRA.REPUL>
0

>  <SCORE.INTRA.REPUL.0>
0

>  <SCORE.INTRA.SOLV>
0

>  <SCORE.INTRA.SOLV.lig_0>
-23.8949

>  <SCORE.INTRA.VDW>
0

>  <SCORE.INTRA.VDW.0>
0

>  <SCORE.INTRA.norm>
0

>  <SCORE.RESTR>
0

>  <SCORE.RESTR.CAVITY>
0

>  <SCORE.RESTR.norm>
0

>  <SCORE.SYSTEM>
0

>  <SCORE.SYSTEM.CONST>
0

>  <SCORE.SYSTEM.DIHEDRAL>
0

>  <SCORE.SYSTEM.SOLV>
0

>  <SCORE.SYSTEM.norm>
0

>  <SCORE.heavy>
10

>  <SCORE.norm>
-1.43723

>  <RMSD>
0.415

$$$$
ligand
 OpenBabel11021811513D
libRbt.so/2013.1/901 2013/11/27
 10 11  0  0  0  0  0  0  0  0999 V2000
  -30.2351   17.0588  -14.9294 N   0  0  0  0  0  0  0  0  0  0  0  0
  -31.0590   18.1069  -14.7967 C   0  0  0  0  0  0  0  0  0  0  0  0
  -31.4696   18.9734  -15.7219 N   0  0  0  0  0  0  0  0  0  0  0  0
  -30.9361   18.6810  -16.9189 C   0  0  0  0  0  0  0  0  0  0  0  0
  -30.0733   17.6409  -17.2108 C   0  0  0  0  0  0  0  0  0  0  0  0
  -29.7151   16.7908  -16.1450 C   0  0  0  0  0  0  0  0  0  0  0  0
  -28.8916   15.7467  -16.2817 N   0  0  0  0  0  0  0  0  0  0  0  0
  -29.7320   17.6497  -18.5525 N   0  0  0  0  0  0  0  0  0  0  0  0
  -30.3833   18.6815  -19.0361 C   0  0  0  0  0  0  0  0  0  0  0  0
  -31.1295   19.3490  -18.1047 N   0  0  0  0  0  0  0  0  0  0  0  0
  1  2  2  0  0  0  0
  1  6  1  0  0  0  0
  2  3  1  0  0  0  0
  3  4  2  0  0  0  0
  4  5  1  0  0  0  0
  4 10  1  0  0  0  0
  5  6  2  0  0  0  0
  5  8  1  0  0  0  0
  6  7  1  0  0  0  0
  8  9  1  0  0  0  0
  9 10  2  0  0  0  0
M  END
>  <CHROM.1>
-30.35701487,17.85922241,-16.76579987,1.28209307,-0.89743864,1.90504058

>  <Name>
ligand

>  <RI>
0

>  <Rbt.Current_Directory>
/home/itssahil/PROJECTS/Mol_Feturizer/New_Systems/rnas/4TZX

>  <Rbt.Executable>
rbdock ($Id: //depot/dev/client3/rdock/2013.1/src/exe/rbdock.cxx#4 $)

>  <Rbt.Library>
libRbt.so (2013.1, Build901 2013/11/27)

>  <Rbt.Parameter_File>
/export/apps/rDock/src/rDock_2013.1_src/data/scripts/dock_solv.prm

>  <Rbt.Receptor>
prm/pocket_docking_3.prm

>  <SCORE>
-14.3546

>  <SCORE.INTER>
-14.3546

>  <SCORE.INTER.CONST>
1

>  <SCORE.INTER.POLAR>
0

>  <SCORE.INTER.ROT>
0

>  <SCORE.INTER.SOLV>
8.03864

>  <SCORE.INTER.VDW>
-15.8493

>  <SCORE.INTER.norm>
-1.43546

>  <SCORE.INTRA>
0

>  <SCORE.INTRA.DIHEDRAL>
0

>  <SCORE.INTRA.DIHEDRAL.0>
0

>  <SCORE.INTRA.POLAR>
0

>  <SCORE.INTRA.POLAR.0>
0

>  <SCORE.INTRA.REPUL>
0

>  <SCORE.INTRA.REPUL.0>
0

>  <SCORE.INTRA.SOLV>
0

>  <SCORE.INTRA.SOLV.lig_0>
-23.8949

>  <SCORE.INTRA.VDW>
0

>  <SCORE.INTRA.VDW.0>
0

>  <SCORE.INTRA.norm>
0

>  <SCORE.RESTR>
0

>  <SCORE.RESTR.CAVITY>
0

>  <SCORE.RESTR.norm>
0

>  <SCORE.SYSTEM>
0

>  <SCORE.SYSTEM.CONST>
0

>  <SCORE.SYSTEM.DIHEDRAL>
0

>  <SCORE.SYSTEM.SOLV>
0

>  <SCORE.SYSTEM.norm>
0

>  <SCORE.heavy>
10

>  <SCORE.norm>
-1.43546

>  <RMSD>
0.415

$$$$
ligand
 OpenBabel11021811513D
libRbt.so/2013.1/901 2013/11/27
 10 11  0  0  0  0  0  0  0  0999 V2000
  -30.2238   16.9833  -14.9698 N   0  0  0  0  0  0  0  0  0  0  0  0
  -31.0350   18.0359  -14.7997 C   0  0  0  0  0  0  0  0  0  0  0  0
  -31.4502   18.9287  -15.6974 N   0  0  0  0  0  0  0  0  0  0  0  0
  -30.9371   18.6604  -16.9089 C   0  0  0  0  0  0  0  0  0  0  0  0
  -30.0891   17.6193  -17.2386 C   0  0  0  0  0  0  0  0  0  0  0  0
  -29.7243   16.7400  -16.1992 C   0  0  0  0  0  0  0  0  0  0  0  0
  -28.9134   15.6915  -16.3733 N   0  0  0  0  0  0  0  0  0  0  0  0
  -29.7673   17.6576  -18.5846 N   0  0  0  0  0  0  0  0  0  0  0  0
  -30.4150   18.7071  -19.0334 C   0  0  0  0  0  0  0  0  0  0  0  0
  -31.1409   19.3590  -18.0752 N   0  0  0  0  0  0  0  0  0  0  0  0
  1  2  2  0  0  0  0
  1  6  1  0  0  0  0
  2  3  1  0  0  0  0
  3  4  2  0  0  0  0
  4  5  1  0  0  0  0
  4 10  1  0  0  0  0
  5  6  2  0  0  0  0
  5  8  1  0  0  0  0
  6  7  1  0  0  0  0
  8  9  1  0  0  0  0
  9 10  2  0  0  0  0
M  END
>  <CHROM.1>
-30.36419254,17.82953092,-16.78431977,1.26516112,-0.91171638,1.91606739

>  <Name>
ligand

>  <RI>
0

>  <Rbt.Current_Directory>
/home/itssahil/PROJECTS/Mol_Feturizer/New_Systems/rnas/4TZX

>  <Rbt.Executable>
rbdock ($Id: //depot/dev/client3/rdock/2013.1/src/exe/rbdock.cxx#4 $)

>  <Rbt.Library>
libRbt.so (2013.1, Build901 2013/11/27)

>  <Rbt.Parameter_File>
/export/apps/rDock/src/rDock_2013.1_src/data/scripts/dock_solv.prm

>  <Rbt.Receptor>
prm/pocket_docking_4.prm

>  <SCORE>
-14.3751

>  <SCORE.INTER>
-14.3754

>  <SCORE.INTER.CONST>
1

>  <SCORE.INTER.POLAR>
0

>  <SCORE.INTER.ROT>
0

>  <SCORE.INTER.SOLV>
8.30672

>  <SCORE.INTER.VDW>
-15.9525

>  <SCORE.INTER.norm>
-1.43754

>  <SCORE.INTRA>
0

>  <SCORE.INTRA.DIHEDRAL>
0

>  <SCORE.INTRA.DIHEDRAL.0>
0

>  <SCORE.INTRA.POLAR>
0

>  <SCORE.INTRA.POLAR.0>
0

>  <SCORE.INTRA.REPUL>
0

>  <SCORE.INTRA.REPUL.0>
0

>  <SCORE.INTRA.SOLV>
0

>  <SCORE.INTRA.SOLV.lig_0>
-23.8949

>  <SCORE.INTRA.VDW>
0

>  <SCORE.INTRA.VDW.0>
0

>  <SCORE.INTRA.norm>
0

>  <SCORE.RESTR>
0.000293017

>  <SCORE.RESTR.CAVITY>
0.000293017

>  <SCORE.RESTR.norm>
2.93017e-05

>  <SCORE.SYSTEM>
0

>  <SCORE.SYSTEM.CONST>
0

>  <SCORE.SYSTEM.DIHEDRAL>
0

>  <SCORE.SYSTEM.SOLV>
0

>  <SCORE.SYSTEM.norm>
0

>  <SCORE.heavy>
10

>  <SCORE.norm>
-1.43751

>  <RMSD>
0.415

$$$$
ligand
 OpenBabel11021811513D
libRbt.so/2013.1/901 2013/11/27
 10 11  0  0  0  0  0  0  0  0999 V2000
  -30.2055   16.9877  -14.9666 N   0  0  0  0  0  0  0  0  0  0  0  0
  -31.0217   18.0363  -14.7961 C   0  0  0  0  0  0  0  0  0  0  0  0
  -31.4480   18.9224  -15.6953 N   0  0  0  0  0  0  0  0  0  0  0  0
  -30.9413   18.6513  -16.9088 C   0  0  0  0  0  0  0  0  0  0  0  0
  -30.0895   17.6136  -17.2392 C   0  0  0  0  0  0  0  0  0  0  0  0
  -29.7126   16.7414  -16.1980 C   0  0  0  0  0  0  0  0  0  0  0  0
  -28.8968   15.6968  -16.3724 N   0  0  0  0  0  0  0  0  0  0  0  0
  -29.7767   17.6472  -18.5874 N   0  0  0  0  0  0  0  0  0  0  0  0
  -30.4335   18.6909  -19.0369 C   0  0  0  0  0  0  0  0  0  0  0  0
  -31.1568   19.3431  -18.0770 N   0  0  0  0  0  0  0  0  0  0  0  0
  1  2  2  0  0  0  0
  1  6  1  0  0  0  0
  2  3  1  0  0  0  0
  3  4  2  0  0  0  0
  4  5  1  0  0  0  0
  4 10  1  0  0  0  0
  5  6  2  0  0  0  0
  5  8  1  0  0  0  0
  6  7  1  0  0  0  0
  8  9  1  0  0  0  0
  9 10  2  0  0  0  0
M  END
>  <CHROM.1>
-30.36276681,17.82433548,-16.78407774,1.25190170,-0.90839372,1.90083139

>  <Name>
ligand

>  <RI>
0

>  <Rbt.Current_Directory>
/home/itssahil/PROJECTS/Mol_Feturizer/New_Systems/rnas/4TZX

>  <Rbt.Executable>
rbdock ($Id: //depot/dev/client3/rdock/2013.1/src/exe/rbdock.cxx#4 $)

>  <Rbt.Library>
libRbt.so (2013.1, Build901 2013/11/27)

>  <Rbt.Parameter_File>
/export/apps/rDock/src/rDock_2013.1_src/data/scripts/dock_solv.prm

>  <Rbt.Receptor>
prm/pocket_docking_4.prm

>  <SCORE>
-14.364

>  <SCORE.INTER>
-14.364

>  <SCORE.INTER.CONST>
1

>  <SCORE.INTER.POLAR>
0

>  <SCORE.INTER.ROT>
0

>  <SCORE.INTER.SOLV>
8.24985

>  <SCORE.INTER.VDW>
-15.9259

>  <SCORE.INTER.norm>
-1.4364

>  <SCORE.INTRA>
0

>  <SCORE.INTRA.DIHEDRAL>
0

>  <SCORE.INTRA.DIHEDRAL.0>
0

>  <SCORE.INTRA.POLAR>
0

>  <SCORE.INTRA.POLAR.0>
0

>  <SCORE.INTRA.REPUL>
0

>  <SCORE.INTRA.REPUL.0>
0

>  <SCORE.INTRA.SOLV>
0

>  <SCORE.INTRA.SOLV.lig_0>
-23.8949

>  <SCORE.INTRA.VDW>
0

>  <SCORE.INTRA.VDW.0>
0

>  <SCORE.INTRA.norm>
0

>  <SCORE.RESTR>
0

>  <SCORE.RESTR.CAVITY>
0

>  <SCORE.RESTR.norm>
0

>  <SCORE.SYSTEM>
0

>  <SCORE.SYSTEM.CONST>
0

>  <SCORE.SYSTEM.DIHEDRAL>
0

>  <SCORE.SYSTEM.SOLV>
0

>  <SCORE.SYSTEM.norm>
0

>  <SCORE.heavy>
10

>  <SCORE.norm>
-1.4364

>  <RMSD>
0.415

$$$$
ligand
 OpenBabel11021811513D
libRbt.so/2013.1/901 2013/11/27
 10 11  0  0  0  0  0  0  0  0999 V2000
  -30.2186   17.0467  -14.9359 N   0  0  0  0  0  0  0  0  0  0  0  0
  -31.0480   18.0899  -14.7988 C   0  0  0  0  0  0  0  0  0  0  0  0
  -31.4674   18.9551  -15.7213 N   0  0  0  0  0  0  0  0  0  0  0  0
  -30.9369   18.6672  -16.9207 C   0  0  0  0  0  0  0  0  0  0  0  0
  -30.0692   17.6325  -17.2172 C   0  0  0  0  0  0  0  0  0  0  0  0
  -29.7019   16.7832  -16.1539 C   0  0  0  0  0  0  0  0  0  0  0  0
  -28.8728   15.7441  -16.2951 N   0  0  0  0  0  0  0  0  0  0  0  0
  -29.7333   17.6449  -18.5603 N   0  0  0  0  0  0  0  0  0  0  0  0
  -30.3925   18.6734  -19.0401 C   0  0  0  0  0  0  0  0  0  0  0  0
  -31.1389   19.3354  -18.1049 N   0  0  0  0  0  0  0  0  0  0  0  0
  1  2  2  0  0  0  0
  1  6  1  0  0  0  0
  2  3  1  0  0  0  0
  3  4  2  0  0  0  0
  4  5  1  0  0  0  0
  4 10  1  0  0  0  0
  5  6  2  0  0  0  0
  5  8  1  0  0  0  0
  6  7  1  0  0  0  0
  8  9  1  0  0  0  0
  9 10  2  0  0  0  0
M  END
>  <CHROM.1>
-30.35244705,17.84864645,-16.77088604,1.27309270,-0.89321257,1.89920845

>  <Name>
ligand

>  <RI>
0

>  <Rbt.Current_Directory>
/home/itssahil/PROJECTS/Mol_Feturizer/New_Systems/rnas/4TZX

>  <Rbt.Executable>
rbdock ($Id: //depot/dev/client3/rdock/2013.1/src/exe/rbdock.cxx#4 $)

>  <Rbt.Library>
libRbt.so (2013.1, Build901 2013/11/27)

>  <Rbt.Parameter_File>
/export/apps/rDock/src/rDock_2013.1_src/data/scripts/dock_solv.prm

>  <Rbt.Receptor>
prm/pocket_docking_4.prm

>  <SCORE>
-14.3591

>  <SCORE.INTER>
-14.3592

>  <SCORE.INTER.CONST>
1

>  <SCORE.INTER.POLAR>
0

>  <SCORE.INTER.ROT>
0

>  <SCORE.INTER.SOLV>
8.00994

>  <SCORE.INTER.VDW>
-15.8428

>  <SCORE.INTER.norm>
-1.43592

>  <SCORE.INTRA>
0

>  <SCORE.INTRA.DIHEDRAL>
0

>  <SCORE.INTRA.DIHEDRAL.0>
0

>  <SCORE.INTRA.POLAR>
0

>  <SCORE.INTRA.POLAR.0>
0

>  <SCORE.INTRA.REPUL>
0

>  <SCORE.INTRA.REPUL.0>
0

>  <SCORE.INTRA.SOLV>
0

>  <SCORE.INTRA.SOLV.lig_0>
-23.8949

>  <SCORE.INTRA.VDW>
0

>  <SCORE.INTRA.VDW.0>
0

>  <SCORE.INTRA.norm>
0

>  <SCORE.RESTR>
0.000124074

>  <SCORE.RESTR.CAVITY>
0.000124074

>  <SCORE.RESTR.norm>
1.24074e-05

>  <SCORE.SYSTEM>
0

>  <SCORE.SYSTEM.CONST>
0

>  <SCORE.SYSTEM.DIHEDRAL>
0

>  <SCORE.SYSTEM.SOLV>
0

>  <SCORE.SYSTEM.norm>
0

>  <SCORE.heavy>
10

>  <SCORE.norm>
-1.43591

>  <RMSD>
0.415

$$$$
ligand
 OpenBabel11021811513D
libRbt.so/2013.1/901 2013/11/27
 10 11  0  0  0  0  0  0  0  0999 V2000
  -30.1660   17.0482  -14.9218 N   0  0  0  0  0  0  0  0  0  0  0  0
  -31.0023   18.0837  -14.7693 C   0  0  0  0  0  0  0  0  0  0  0  0
  -31.4441   18.9468  -15.6832 N   0  0  0  0  0  0  0  0  0  0  0  0
  -30.9304   18.6659  -16.8916 C   0  0  0  0  0  0  0  0  0  0  0  0
  -30.0584   17.6396  -17.2041 C   0  0  0  0  0  0  0  0  0  0  0  0
  -29.6666   16.7916  -16.1485 C   0  0  0  0  0  0  0  0  0  0  0  0
  -28.8307   15.7602  -16.3050 N   0  0  0  0  0  0  0  0  0  0  0  0
  -29.7442   17.6575  -18.5523 N   0  0  0  0  0  0  0  0  0  0  0  0
  -30.4201   18.6809  -19.0194 C   0  0  0  0  0  0  0  0  0  0  0  0
  -31.1573   19.3346  -18.0711 N   0  0  0  0  0  0  0  0  0  0  0  0
  1  2  2  0  0  0  0
  1  6  1  0  0  0  0
  2  3  1  0  0  0  0
  3  4  2  0  0  0  0
  4  5  1  0  0  0  0
  4 10  1  0  0  0  0
  5  6  2  0  0  0  0
  5  8  1  0  0  0  0
  6  7  1  0  0  0  0
  8  9  1  0  0  0  0
  9 10  2  0  0  0  0
M  END
>  <CHROM.1>
-30.33638438,17.85234885,-16.75278912,1.24440357,-0.88978386,1.87882806

>  <Name>
ligand

>  <RI>
0

>  <Rbt.Current_Directory>
/home/itssahil/PROJECTS/Mol_Feturizer/New_Systems/rnas/4TZX

>  <Rbt.Executable>
rbdock ($Id: //depot/dev/client3/rdock/2013.1/src/exe/rbdock.cxx#4 $)

>  <Rbt.Library>
libRbt.so (2013.1, Build901 2013/11/27)

>  <Rbt.Parameter_File>
/export/apps/rDock/src/rDock_2013.1_src/data/scripts/dock_solv.prm

>  <Rbt.Receptor>
prm/pocket_docking_5.prm

>  <SCORE>
-14.4023

>  <SCORE.INTER>
-14.4023

>  <SCORE.INTER.CONST>
1

>  <SCORE.INTER.POLAR>
0

>  <SCORE.INTER.ROT>
0

>  <SCORE.INTER.SOLV>
7.87926

>  <SCORE.INTER.VDW>
-15.8279

>  <SCORE.INTER.norm>
-1.44023

>  <SCORE.INTRA>
0

>  <SCORE.INTRA.DIHEDRAL>
0

>  <SCORE.INTRA.DIHEDRAL.0>
0

>  <SCORE.INTRA.POLAR>
0

>  <SCORE.INTRA.POLAR.0>
0

>  <SCORE.INTRA.REPUL>
0

>  <SCORE.INTRA.REPUL.0>
0

>  <SCORE.INTRA.SOLV>
0

>  <SCORE.INTRA.SOLV.lig_0>
-23.8949

>  <SCORE.INTRA.VDW>
0

>  <SCORE.INTRA.VDW.0>
0

>  <SCORE.INTRA.norm>
0

>  <SCORE.RESTR>
0

>  <SCORE.RESTR.CAVITY>
0

>  <SCORE.RESTR.norm>
0

>  <SCORE.SYSTEM>
0

>  <SCORE.SYSTEM.CONST>
0

>  <SCORE.SYSTEM.DIHEDRAL>
0

>  <SCORE.SYSTEM.SOLV>
0

>  <SCORE.SYSTEM.norm>
0

>  <SCORE.heavy>
10

>  <SCORE.norm>
-1.44023

>  <RMSD>
0.415

$$$$
ligand
 OpenBabel11021811513D
libRbt.so/2013.1/901 2013/11/27
 10 11  0  0  0  0  0  0  0  0999 V2000
  -30.1814   17.0020  -14.9545 N   0  0  0  0  0  0  0  0  0  0  0  0
  -31.0130   18.0398  -14.7929 C   0  0  0  0  0  0  0  0  0  0  0  0
  -31.4493   18.9142  -15.6987 N   0  0  0  0  0  0  0  0  0  0  0  0
  -30.9350   18.6431  -16.9090 C   0  0  0  0  0  0  0  0  0  0  0  0
  -30.0674   17.6158  -17.2305 C   0  0  0  0  0  0  0  0  0  0  0  0
  -29.6812   16.7554  -16.1830 C   0  0  0  0  0  0  0  0  0  0  0  0
  -28.8499   15.7217  -16.3486 N   0  0  0  0  0  0  0  0  0  0  0  0
  -29.7510   17.6457  -18.5780 N   0  0  0  0  0  0  0  0  0  0  0  0
  -30.4213   18.6771  -19.0359 C   0  0  0  0  0  0  0  0  0  0  0  0
  -31.1569   19.3246  -18.0821 N   0  0  0  0  0  0  0  0  0  0  0  0
  1  2  2  0  0  0  0
  1  6  1  0  0  0  0
  2  3  1  0  0  0  0
  3  4  2  0  0  0  0
  4  5  1  0  0  0  0
  4 10  1  0  0  0  0
  5  6  2  0  0  0  0
  5  8  1  0  0  0  0
  6  7  1  0  0  0  0
  8  9  1  0  0  0  0
  9 10  2  0  0  0  0
M  END
>  <CHROM.1>
-30.34505507,17.82532746,-16.77757836,1.24907535,-0.89378904,1.89252656

>  <Name>
ligand

>  <RI>
0

>  <Rbt.Current_Directory>
/home/itssahil/PROJECTS/Mol_Feturizer/New_Systems/rnas/4TZX

>  <Rbt.Executable>
rbdock ($Id: //depot/dev/client3/rdock/2013.1/src/exe/rbdock.cxx#4 $)

>  <Rbt.Library>
libRbt.so (2013.1, Build901 2013/11/27)

>  <Rbt.Parameter_File>
/export/apps/rDock/src/rDock_2013.1_src/data/scripts/dock_solv.prm

>  <Rbt.Receptor>
prm/pocket_docking_8.prm

>  <SCORE>
-14.3737

>  <SCORE.INTER>
-14.3738

>  <SCORE.INTER.CONST>
1

>  <SCORE.INTER.POLAR>
0

>  <SCORE.INTER.ROT>
0

>  <SCORE.INTER.SOLV>
8.05155

>  <SCORE.INTER.VDW>
-15.8664

>  <SCORE.INTER.norm>
-1.43738

>  <SCORE.INTRA>
0

>  <SCORE.INTRA.DIHEDRAL>
0

>  <SCORE.INTRA.DIHEDRAL.0>
0

>  <SCORE.INTRA.POLAR>
0

>  <SCORE.INTRA.POLAR.0>
0

>  <SCORE.INTRA.REPUL>
0

>  <SCORE.INTRA.REPUL.0>
0

>  <SCORE.INTRA.SOLV>
0

>  <SCORE.INTRA.SOLV.lig_0>
-23.8949

>  <SCORE.INTRA.VDW>
0

>  <SCORE.INTRA.VDW.0>
0

>  <SCORE.INTRA.norm>
0

>  <SCORE.RESTR>
0.000118322

>  <SCORE.RESTR.CAVITY>
0.000118322

>  <SCORE.RESTR.norm>
1.18322e-05

>  <SCORE.SYSTEM>
0

>  <SCORE.SYSTEM.CONST>
0

>  <SCORE.SYSTEM.DIHEDRAL>
0

>  <SCORE.SYSTEM.SOLV>
0

>  <SCORE.SYSTEM.norm>
0

>  <SCORE.heavy>
10

>  <SCORE.norm>
-1.43737

>  <RMSD>
0.415

$$$$
ligand
 OpenBabel11021811513D
libRbt.so/2013.1/901 2013/11/27
 10 11  0  0  0  0  0  0  0  0999 V2000
  -30.1714   17.0297  -14.9366 N   0  0  0  0  0  0  0  0  0  0  0  0
  -31.0167   18.0574  -14.7818 C   0  0  0  0  0  0  0  0  0  0  0  0
  -31.4649   18.9196  -15.6936 N   0  0  0  0  0  0  0  0  0  0  0  0
  -30.9476   18.6467  -16.9022 C   0  0  0  0  0  0  0  0  0  0  0  0
  -30.0665   17.6288  -17.2170 C   0  0  0  0  0  0  0  0  0  0  0  0
  -29.6685   16.7811  -16.1636 C   0  0  0  0  0  0  0  0  0  0  0  0
  -28.8237   15.7573  -16.3224 N   0  0  0  0  0  0  0  0  0  0  0  0
  -29.7512   17.6535  -18.5648 N   0  0  0  0  0  0  0  0  0  0  0  0
  -30.4353   18.6726  -19.0295 C   0  0  0  0  0  0  0  0  0  0  0  0
  -31.1790   19.3170  -18.0800 N   0  0  0  0  0  0  0  0  0  0  0  0
  1  2  2  0  0  0  0
  1  6  1  0  0  0  0
  2  3  1  0  0  0  0
  3  4  2  0  0  0  0
  4  5  1  0  0  0  0
  4 10  1  0  0  0  0
  5  6  2  0  0  0  0
  5  8  1  0  0  0  0
  6  7  1  0  0  0  0
  8  9  1  0  0  0  0
  9 10  2  0  0  0  0
M  END
>  <CHROM.1>
-30.34678922,17.83785830,-16.76533363,1.24183527,-0.88131645,1.87987092

>  <Name>
ligand

>  <RI>
0

>  <Rbt.Current_Directory>
/home/itssahil/PROJECTS/Mol_Feturizer/New_Systems/rnas/4TZX

>  <Rbt.Executable>
rbdock ($Id: //depot/dev/client3/rdock/2013.1/src/exe/rbdock.cxx#4 $)

>  <Rbt.Library>
libRbt.so (2013.1, Build901 2013/11/27)

>  <Rbt.Parameter_File>
/export/apps/rDock/src/rDock_2013.1_src/data/scripts/dock_solv.prm

>  <Rbt.Receptor>
prm/pocket_docking_8.prm

>  <SCORE>
-14.376

>  <SCORE.INTER>
-14.376

>  <SCORE.INTER.CONST>
1

>  <SCORE.INTER.POLAR>
0

>  <SCORE.INTER.ROT>
0

>  <SCORE.INTER.SOLV>
7.87902

>  <SCORE.INTER.VDW>
-15.8103

>  <SCORE.INTER.norm>
-1.4376

>  <SCORE.INTRA>
0

>  <SCORE.INTRA.DIHEDRAL>
0

>  <SCORE.INTRA.DIHEDRAL.0>
0

>  <SCORE.INTRA.POLAR>
0

>  <SCORE.INTRA.POLAR.0>
0

>  <SCORE.INTRA.REPUL>
0

>  <SCORE.INTRA.REPUL.0>
0

>  <SCORE.INTRA.SOLV>
0

>  <SCORE.INTRA.SOLV.lig_0>
-23.8949

>  <SCORE.INTRA.VDW>
0

>  <SCORE.INTRA.VDW.0>
0

>  <SCORE.INTRA.norm>
0

>  <SCORE.RESTR>
0

>  <SCORE.RESTR.CAVITY>
0

>  <SCORE.RESTR.norm>
0

>  <SCORE.SYSTEM>
0

>  <SCORE.SYSTEM.CONST>
0

>  <SCORE.SYSTEM.DIHEDRAL>
0

>  <SCORE.SYSTEM.SOLV>
0

>  <SCORE.SYSTEM.norm>
0

>  <SCORE.heavy>
10

>  <SCORE.norm>
-1.4376

>  <RMSD>
0.415

$$$$
ligand
 OpenBabel11021811513D
libRbt.so/2013.1/901 2013/11/27
 10 11  0  0  0  0  0  0  0  0999 V2000
  -30.1927   16.9916  -14.9637 N   0  0  0  0  0  0  0  0  0  0  0  0
  -31.0156   18.0354  -14.7964 C   0  0  0  0  0  0  0  0  0  0  0  0
  -31.4458   18.9173  -15.6980 N   0  0  0  0  0  0  0  0  0  0  0  0
  -30.9354   18.6471  -16.9101 C   0  0  0  0  0  0  0  0  0  0  0  0
  -30.0766   17.6141  -17.2372 C   0  0  0  0  0  0  0  0  0  0  0  0
  -29.6961   16.7462  -16.1938 C   0  0  0  0  0  0  0  0  0  0  0  0
  -28.8736   15.7063  -16.3650 N   0  0  0  0  0  0  0  0  0  0  0  0
  -29.7617   17.6473  -18.5849 N   0  0  0  0  0  0  0  0  0  0  0  0
  -30.4241   18.6860  -19.0375 C   0  0  0  0  0  0  0  0  0  0  0  0
  -31.1531   19.3355  -18.0800 N   0  0  0  0  0  0  0  0  0  0  0  0
  1  2  2  0  0  0  0
  1  6  1  0  0  0  0
  2  3  1  0  0  0  0
  3  4  2  0  0  0  0
  4  5  1  0  0  0  0
  4 10  1  0  0  0  0
  5  6  2  0  0  0  0
  5  8  1  0  0  0  0
  6  7  1  0  0  0  0
  8  9  1  0  0  0  0
  9 10  2  0  0  0  0
M  END
>  <CHROM.1>
-30.35193510,17.82400918,-16.78295199,1.25129399,-0.90197220,1.89855703

>  <Name>
ligand

>  <RI>
0

>  <Rbt.Current_Directory>
/home/itssahil/PROJECTS/Mol_Feturizer/New_Systems/rnas/4TZX

>  <Rbt.Executable>
rbdock ($Id: //depot/dev/client3/rdock/2013.1/src/exe/rbdock.cxx#4 $)

>  <Rbt.Library>
libRbt.so (2013.1, Build901 2013/11/27)

>  <Rbt.Parameter_File>
/export/apps/rDock/src/rDock_2013.1_src/data/scripts/dock_solv.prm

>  <Rbt.Receptor>
prm/blind_docking_100.prm

>  <SCORE>
-14.3712

>  <SCORE.INTER>
-14.3712

>  <SCORE.INTER.CONST>
1

>  <SCORE.INTER.POLAR>
0

>  <SCORE.INTER.ROT>
0

>  <SCORE.INTER.SOLV>
8.16389

>  <SCORE.INTER.VDW>
-15.9021

>  <SCORE.INTER.norm>
-1.43712

>  <SCORE.INTRA>
0

>  <SCORE.INTRA.DIHEDRAL>
0

>  <SCORE.INTRA.DIHEDRAL.0>
0

>  <SCORE.INTRA.POLAR>
0

>  <SCORE.INTRA.POLAR.0>
0

>  <SCORE.INTRA.REPUL>
0

>  <SCORE.INTRA.REPUL.0>
0

>  <SCORE.INTRA.SOLV>
0

>  <SCORE.INTRA.SOLV.lig_0>
-23.8949

>  <SCORE.INTRA.VDW>
0

>  <SCORE.INTRA.VDW.0>
0

>  <SCORE.INTRA.norm>
0

>  <SCORE.RESTR>
0

>  <SCORE.RESTR.CAVITY>
0

>  <SCORE.RESTR.norm>
0

>  <SCORE.SYSTEM>
0

>  <SCORE.SYSTEM.CONST>
0

>  <SCORE.SYSTEM.DIHEDRAL>
0

>  <SCORE.SYSTEM.SOLV>
0

>  <SCORE.SYSTEM.norm>
0

>  <SCORE.heavy>
10

>  <SCORE.norm>
-1.43712

>  <RMSD>
0.416

$$$$
ligand
 OpenBabel11021811513D
libRbt.so/2013.1/901 2013/11/27
 10 11  0  0  0  0  0  0  0  0999 V2000
  -30.2932   17.0390  -14.9464 N   0  0  0  0  0  0  0  0  0  0  0  0
  -31.0854   18.1103  -14.8066 C   0  0  0  0  0  0  0  0  0  0  0  0
  -31.4627   19.0000  -15.7240 N   0  0  0  0  0  0  0  0  0  0  0  0
  -30.9300   18.7055  -16.9208 C   0  0  0  0  0  0  0  0  0  0  0  0
  -30.0974   17.6429  -17.2195 C   0  0  0  0  0  0  0  0  0  0  0  0
  -29.7731   16.7696  -16.1617 C   0  0  0  0  0  0  0  0  0  0  0  0
  -28.9810   15.7023  -16.3054 N   0  0  0  0  0  0  0  0  0  0  0  0
  -29.7466   17.6571  -18.5587 N   0  0  0  0  0  0  0  0  0  0  0  0
  -30.3625   18.7141  -19.0342 C   0  0  0  0  0  0  0  0  0  0  0  0
  -31.0945   19.3931  -18.0998 N   0  0  0  0  0  0  0  0  0  0  0  0
  1  2  2  0  0  0  0
  1  6  1  0  0  0  0
  2  3  1  0  0  0  0
  3  4  2  0  0  0  0
  4  5  1  0  0  0  0
  4 10  1  0  0  0  0
  5  6  2  0  0  0  0
  5  8  1  0  0  0  0
  6  7  1  0  0  0  0
  8  9  1  0  0  0  0
  9 10  2  0  0  0  0
M  END
>  <CHROM.1>
-30.37749117,17.86456698,-16.77379512,1.30984416,-0.92393519,1.93892145

>  <Name>
ligand

>  <RI>
0

>  <Rbt.Current_Directory>
/home/itssahil/PROJECTS/Mol_Feturizer/New_Systems/rnas/4TZX

>  <Rbt.Executable>
rbdock ($Id: //depot/dev/client3/rdock/2013.1/src/exe/rbdock.cxx#4 $)

>  <Rbt.Library>
libRbt.so (2013.1, Build901 2013/11/27)

>  <Rbt.Parameter_File>
/export/apps/rDock/src/rDock_2013.1_src/data/scripts/dock_solv.prm

>  <Rbt.Receptor>
prm/blind_docking_80.prm

>  <SCORE>
-14.344

>  <SCORE.INTER>
-14.344

>  <SCORE.INTER.CONST>
1

>  <SCORE.INTER.POLAR>
0

>  <SCORE.INTER.ROT>
0

>  <SCORE.INTER.SOLV>
8.38619

>  <SCORE.INTER.VDW>
-15.9581

>  <SCORE.INTER.norm>
-1.4344

>  <SCORE.INTRA>
0

>  <SCORE.INTRA.DIHEDRAL>
0

>  <SCORE.INTRA.DIHEDRAL.0>
0

>  <SCORE.INTRA.POLAR>
0

>  <SCORE.INTRA.POLAR.0>
0

>  <SCORE.INTRA.REPUL>
0

>  <SCORE.INTRA.REPUL.0>
0

>  <SCORE.INTRA.SOLV>
0

>  <SCORE.INTRA.SOLV.lig_0>
-23.8949

>  <SCORE.INTRA.VDW>
0

>  <SCORE.INTRA.VDW.0>
0

>  <SCORE.INTRA.norm>
0

>  <SCORE.RESTR>
2.15981e-06

>  <SCORE.RESTR.CAVITY>
2.15981e-06

>  <SCORE.RESTR.norm>
2.15981e-07

>  <SCORE.SYSTEM>
0

>  <SCORE.SYSTEM.CONST>
0

>  <SCORE.SYSTEM.DIHEDRAL>
0

>  <SCORE.SYSTEM.SOLV>
0

>  <SCORE.SYSTEM.norm>
0

>  <SCORE.heavy>
10

>  <SCORE.norm>
-1.4344

>  <RMSD>
0.416

$$$$
ligand
 OpenBabel11021811513D
libRbt.so/2013.1/901 2013/11/27
 10 11  0  0  0  0  0  0  0  0999 V2000
  -30.2235   16.9807  -14.9738 N   0  0  0  0  0  0  0  0  0  0  0  0
  -31.0363   18.0325  -14.8064 C   0  0  0  0  0  0  0  0  0  0  0  0
  -31.4521   18.9228  -15.7063 N   0  0  0  0  0  0  0  0  0  0  0  0
  -30.9378   18.6526  -16.9168 C   0  0  0  0  0  0  0  0  0  0  0  0
  -30.0882   17.6121  -17.2438 C   0  0  0  0  0  0  0  0  0  0  0  0
  -29.7227   16.7355  -16.2023 C   0  0  0  0  0  0  0  0  0  0  0  0
  -28.9103   15.6878  -16.3736 N   0  0  0  0  0  0  0  0  0  0  0  0
  -29.7654   17.6479  -18.5896 N   0  0  0  0  0  0  0  0  0  0  0  0
  -30.4143   18.6956  -19.0411 C   0  0  0  0  0  0  0  0  0  0  0  0
  -31.1418   19.3485  -18.0848 N   0  0  0  0  0  0  0  0  0  0  0  0
  1  2  2  0  0  0  0
  1  6  1  0  0  0  0
  2  3  1  0  0  0  0
  3  4  2  0  0  0  0
  4  5  1  0  0  0  0
  4 10  1  0  0  0  0
  5  6  2  0  0  0  0
  5  8  1  0  0  0  0
  6  7  1  0  0  0  0
  8  9  1  0  0  0  0
  9 10  2  0  0  0  0
M  END
>  <CHROM.1>
-30.36382365,17.82285028,-16.79015088,1.26544390,-0.91013668,1.91417059

>  <Name>
ligand

>  <RI>
0

>  <Rbt.Current_Directory>
/home/itssahil/PROJECTS/Mol_Feturizer/New_Systems/rnas/4TZX

>  <Rbt.Executable>
rbdock ($Id: //depot/dev/client3/rdock/2013.1/src/exe/rbdock.cxx#4 $)

>  <Rbt.Library>
libRbt.so (2013.1, Build901 2013/11/27)

>  <Rbt.Parameter_File>
/export/apps/rDock/src/rDock_2013.1_src/data/scripts/dock_solv.prm

>  <Rbt.Receptor>
prm/blind_docking_80.prm

>  <SCORE>
-14.3738

>  <SCORE.INTER>
-14.3738

>  <SCORE.INTER.CONST>
1

>  <SCORE.INTER.POLAR>
0

>  <SCORE.INTER.ROT>
0

>  <SCORE.INTER.SOLV>
8.305

>  <SCORE.INTER.VDW>
-15.9509

>  <SCORE.INTER.norm>
-1.43738

>  <SCORE.INTRA>
0

>  <SCORE.INTRA.DIHEDRAL>
0

>  <SCORE.INTRA.DIHEDRAL.0>
0

>  <SCORE.INTRA.POLAR>
0

>  <SCORE.INTRA.POLAR.0>
0

>  <SCORE.INTRA.REPUL>
0

>  <SCORE.INTRA.REPUL.0>
0

>  <SCORE.INTRA.SOLV>
0

>  <SCORE.INTRA.SOLV.lig_0>
-23.8949

>  <SCORE.INTRA.VDW>
0

>  <SCORE.INTRA.VDW.0>
0

>  <SCORE.INTRA.norm>
0

>  <SCORE.RESTR>
0

>  <SCORE.RESTR.CAVITY>
0

>  <SCORE.RESTR.norm>
0

>  <SCORE.SYSTEM>
0

>  <SCORE.SYSTEM.CONST>
0

>  <SCORE.SYSTEM.DIHEDRAL>
0

>  <SCORE.SYSTEM.SOLV>
0

>  <SCORE.SYSTEM.norm>
0

>  <SCORE.heavy>
10

>  <SCORE.norm>
-1.43738

>  <RMSD>
0.416

$$$$
ligand
 OpenBabel11021811513D
libRbt.so/2013.1/901 2013/11/27
 10 11  0  0  0  0  0  0  0  0999 V2000
  -30.1880   17.0016  -14.9579 N   0  0  0  0  0  0  0  0  0  0  0  0
  -31.0170   18.0415  -14.7962 C   0  0  0  0  0  0  0  0  0  0  0  0
  -31.4510   18.9171  -15.7020 N   0  0  0  0  0  0  0  0  0  0  0  0
  -30.9373   18.6448  -16.9123 C   0  0  0  0  0  0  0  0  0  0  0  0
  -30.0722   17.6153  -17.2338 C   0  0  0  0  0  0  0  0  0  0  0  0
  -29.6883   16.7539  -16.1863 C   0  0  0  0  0  0  0  0  0  0  0  0
  -28.8596   15.7181  -16.3520 N   0  0  0  0  0  0  0  0  0  0  0  0
  -29.7556   17.6447  -18.5813 N   0  0  0  0  0  0  0  0  0  0  0  0
  -30.4233   18.6778  -19.0391 C   0  0  0  0  0  0  0  0  0  0  0  0
  -31.1573   19.3270  -18.0853 N   0  0  0  0  0  0  0  0  0  0  0  0
  1  2  2  0  0  0  0
  1  6  1  0  0  0  0
  2  3  1  0  0  0  0
  3  4  2  0  0  0  0
  4  5  1  0  0  0  0
  4 10  1  0  0  0  0
  5  6  2  0  0  0  0
  5  8  1  0  0  0  0
  6  7  1  0  0  0  0
  8  9  1  0  0  0  0
  9 10  2  0  0  0  0
M  END
>  <CHROM.1>
-30.34939343,17.82554622,-16.78086997,1.25050574,-0.89614455,1.89376679

>  <Name>
ligand

>  <RI>
0

>  <Rbt.Current_Directory>
/home/itssahil/PROJECTS/Mol_Feturizer/New_Systems/rnas/4TZX

>  <Rbt.Executable>
rbdock ($Id: //depot/dev/client3/rdock/2013.1/src/exe/rbdock.cxx#4 $)

>  <Rbt.Library>
libRbt.so (2013.1, Build901 2013/11/27)

>  <Rbt.Parameter_File>
/export/apps/rDock/src/rDock_2013.1_src/data/scripts/dock_solv.prm

>  <Rbt.Receptor>
prm/pocket_docking_3.prm

>  <SCORE>
-14.3711

>  <SCORE.INTER>
-14.3711

>  <SCORE.INTER.CONST>
1

>  <SCORE.INTER.POLAR>
0

>  <SCORE.INTER.ROT>
0

>  <SCORE.INTER.SOLV>
8.08957

>  <SCORE.INTER.VDW>
-15.8772

>  <SCORE.INTER.norm>
-1.43711

>  <SCORE.INTRA>
0

>  <SCORE.INTRA.DIHEDRAL>
0

>  <SCORE.INTRA.DIHEDRAL.0>
0

>  <SCORE.INTRA.POLAR>
0

>  <SCORE.INTRA.POLAR.0>
0

>  <SCORE.INTRA.REPUL>
0

>  <SCORE.INTRA.REPUL.0>
0

>  <SCORE.INTRA.SOLV>
0

>  <SCORE.INTRA.SOLV.lig_0>
-23.8949

>  <SCORE.INTRA.VDW>
0

>  <SCORE.INTRA.VDW.0>
0

>  <SCORE.INTRA.norm>
0

>  <SCORE.RESTR>
0

>  <SCORE.RESTR.CAVITY>
0

>  <SCORE.RESTR.norm>
0

>  <SCORE.SYSTEM>
0

>  <SCORE.SYSTEM.CONST>
0

>  <SCORE.SYSTEM.DIHEDRAL>
0

>  <SCORE.SYSTEM.SOLV>
0

>  <SCORE.SYSTEM.norm>
0

>  <SCORE.heavy>
10

>  <SCORE.norm>
-1.43711

>  <RMSD>
0.416

$$$$
ligand
 OpenBabel11021811513D
libRbt.so/2013.1/901 2013/11/27
 10 11  0  0  0  0  0  0  0  0999 V2000
  -30.1858   17.0330  -14.9414 N   0  0  0  0  0  0  0  0  0  0  0  0
  -31.0262   18.0664  -14.7981 C   0  0  0  0  0  0  0  0  0  0  0  0
  -31.4622   18.9267  -15.7175 N   0  0  0  0  0  0  0  0  0  0  0  0
  -30.9372   18.6450  -16.9208 C   0  0  0  0  0  0  0  0  0  0  0  0
  -30.0597   17.6204  -17.2237 C   0  0  0  0  0  0  0  0  0  0  0  0
  -29.6749   16.7755  -16.1632 C   0  0  0  0  0  0  0  0  0  0  0  0
  -28.8348   15.7460  -16.3104 N   0  0  0  0  0  0  0  0  0  0  0  0
  -29.7337   17.6367  -18.5691 N   0  0  0  0  0  0  0  0  0  0  0  0
  -30.4082   18.6575  -19.0441 C   0  0  0  0  0  0  0  0  0  0  0  0
  -31.1555   19.3109  -18.1035 N   0  0  0  0  0  0  0  0  0  0  0  0
  1  2  2  0  0  0  0
  1  6  1  0  0  0  0
  2  3  1  0  0  0  0
  3  4  2  0  0  0  0
  4  5  1  0  0  0  0
  4 10  1  0  0  0  0
  5  6  2  0  0  0  0
  5  8  1  0  0  0  0
  6  7  1  0  0  0  0
  8  9  1  0  0  0  0
  9 10  2  0  0  0  0
M  END
>  <CHROM.1>
-30.34218504,17.83330503,-16.77527460,1.25636505,-0.88450575,1.88627176

>  <Name>
ligand

>  <RI>
0

>  <Rbt.Current_Directory>
/home/itssahil/PROJECTS/Mol_Feturizer/New_Systems/rnas/4TZX

>  <Rbt.Executable>
rbdock ($Id: //depot/dev/client3/rdock/2013.1/src/exe/rbdock.cxx#4 $)

>  <Rbt.Library>
libRbt.so (2013.1, Build901 2013/11/27)

>  <Rbt.Parameter_File>
/export/apps/rDock/src/rDock_2013.1_src/data/scripts/dock_solv.prm

>  <Rbt.Receptor>
prm/pocket_docking_6.prm

>  <SCORE>
-14.4044

>  <SCORE.INTER>
-14.4044

>  <SCORE.INTER.CONST>
1

>  <SCORE.INTER.POLAR>
0

>  <SCORE.INTER.ROT>
0

>  <SCORE.INTER.SOLV>
7.91938

>  <SCORE.INTER.VDW>
-15.8427

>  <SCORE.INTER.norm>
-1.44044

>  <SCORE.INTRA>
0

>  <SCORE.INTRA.DIHEDRAL>
0

>  <SCORE.INTRA.DIHEDRAL.0>
0

>  <SCORE.INTRA.POLAR>
0

>  <SCORE.INTRA.POLAR.0>
0

>  <SCORE.INTRA.REPUL>
0

>  <SCORE.INTRA.REPUL.0>
0

>  <SCORE.INTRA.SOLV>
0

>  <SCORE.INTRA.SOLV.lig_0>
-23.8949

>  <SCORE.INTRA.VDW>
0

>  <SCORE.INTRA.VDW.0>
0

>  <SCORE.INTRA.norm>
0

>  <SCORE.RESTR>
0

>  <SCORE.RESTR.CAVITY>
0

>  <SCORE.RESTR.norm>
0

>  <SCORE.SYSTEM>
0

>  <SCORE.SYSTEM.CONST>
0

>  <SCORE.SYSTEM.DIHEDRAL>
0

>  <SCORE.SYSTEM.SOLV>
0

>  <SCORE.SYSTEM.norm>
0

>  <SCORE.heavy>
10

>  <SCORE.norm>
-1.44044

>  <RMSD>
0.416

$$$$
ligand
 OpenBabel11021811513D
libRbt.so/2013.1/901 2013/11/27
 10 11  0  0  0  0  0  0  0  0999 V2000
  -30.2084   17.0075  -14.9559 N   0  0  0  0  0  0  0  0  0  0  0  0
  -31.0278   18.0548  -14.7930 C   0  0  0  0  0  0  0  0  0  0  0  0
  -31.4511   18.9373  -15.6972 N   0  0  0  0  0  0  0  0  0  0  0  0
  -30.9373   18.6636  -16.9071 C   0  0  0  0  0  0  0  0  0  0  0  0
  -30.0814   17.6268  -17.2297 C   0  0  0  0  0  0  0  0  0  0  0  0
  -29.7084   16.7585  -16.1840 C   0  0  0  0  0  0  0  0  0  0  0  0
  -28.8894   15.7152  -16.3508 N   0  0  0  0  0  0  0  0  0  0  0  0
  -29.7614   17.6571  -18.5764 N   0  0  0  0  0  0  0  0  0  0  0  0
  -30.4180   18.6979  -19.0326 C   0  0  0  0  0  0  0  0  0  0  0  0
  -31.1479   19.3515  -18.0786 N   0  0  0  0  0  0  0  0  0  0  0  0
  1  2  2  0  0  0  0
  1  6  1  0  0  0  0
  2  3  1  0  0  0  0
  3  4  2  0  0  0  0
  4  5  1  0  0  0  0
  4 10  1  0  0  0  0
  5  6  2  0  0  0  0
  5  8  1  0  0  0  0
  6  7  1  0  0  0  0
  8  9  1  0  0  0  0
  9 10  2  0  0  0  0
M  END
>  <CHROM.1>
-30.35762927,17.83832983,-16.77678124,1.25906303,-0.90458908,1.90346709

>  <Name>
ligand

>  <RI>
0

>  <Rbt.Current_Directory>
/home/itssahil/PROJECTS/Mol_Feturizer/New_Systems/rnas/4TZX

>  <Rbt.Executable>
rbdock ($Id: //depot/dev/client3/rdock/2013.1/src/exe/rbdock.cxx#4 $)

>  <Rbt.Library>
libRbt.so (2013.1, Build901 2013/11/27)

>  <Rbt.Parameter_File>
/export/apps/rDock/src/rDock_2013.1_src/data/scripts/dock_solv.prm

>  <Rbt.Receptor>
prm/pocket_docking_7.prm

>  <SCORE>
-14.3706

>  <SCORE.INTER>
-14.3706

>  <SCORE.INTER.CONST>
1

>  <SCORE.INTER.POLAR>
0

>  <SCORE.INTER.ROT>
0

>  <SCORE.INTER.SOLV>
8.17595

>  <SCORE.INTER.VDW>
-15.9057

>  <SCORE.INTER.norm>
-1.43706

>  <SCORE.INTRA>
0

>  <SCORE.INTRA.DIHEDRAL>
0

>  <SCORE.INTRA.DIHEDRAL.0>
0

>  <SCORE.INTRA.POLAR>
0

>  <SCORE.INTRA.POLAR.0>
0

>  <SCORE.INTRA.REPUL>
0

>  <SCORE.INTRA.REPUL.0>
0

>  <SCORE.INTRA.SOLV>
0

>  <SCORE.INTRA.SOLV.lig_0>
-23.8949

>  <SCORE.INTRA.VDW>
0

>  <SCORE.INTRA.VDW.0>
0

>  <SCORE.INTRA.norm>
0

>  <SCORE.RESTR>
0

>  <SCORE.RESTR.CAVITY>
0

>  <SCORE.RESTR.norm>
0

>  <SCORE.SYSTEM>
0

>  <SCORE.SYSTEM.CONST>
0

>  <SCORE.SYSTEM.DIHEDRAL>
0

>  <SCORE.SYSTEM.SOLV>
0

>  <SCORE.SYSTEM.norm>
0

>  <SCORE.heavy>
10

>  <SCORE.norm>
-1.43706

>  <RMSD>
0.416

$$$$
ligand
 OpenBabel11021811513D
libRbt.so/2013.1/901 2013/11/27
 10 11  0  0  0  0  0  0  0  0999 V2000
  -30.2380   17.0498  -14.9380 N   0  0  0  0  0  0  0  0  0  0  0  0
  -31.0642   18.0963  -14.8067 C   0  0  0  0  0  0  0  0  0  0  0  0
  -31.4749   18.9620  -15.7326 N   0  0  0  0  0  0  0  0  0  0  0  0
  -30.9387   18.6708  -16.9286 C   0  0  0  0  0  0  0  0  0  0  0  0
  -30.0733   17.6324  -17.2190 C   0  0  0  0  0  0  0  0  0  0  0  0
  -29.7153   16.7830  -16.1527 C   0  0  0  0  0  0  0  0  0  0  0  0
  -28.8894   15.7406  -16.2880 N   0  0  0  0  0  0  0  0  0  0  0  0
  -29.7296   17.6421  -18.5601 N   0  0  0  0  0  0  0  0  0  0  0  0
  -30.3821   18.6725  -19.0449 C   0  0  0  0  0  0  0  0  0  0  0  0
  -31.1314   19.3384  -18.1147 N   0  0  0  0  0  0  0  0  0  0  0  0
  1  2  2  0  0  0  0
  1  6  1  0  0  0  0
  2  3  1  0  0  0  0
  3  4  2  0  0  0  0
  4  5  1  0  0  0  0
  4 10  1  0  0  0  0
  5  6  2  0  0  0  0
  5  8  1  0  0  0  0
  6  7  1  0  0  0  0
  8  9  1  0  0  0  0
  9 10  2  0  0  0  0
M  END
>  <CHROM.1>
-30.35823916,17.85018008,-16.77455914,1.28369912,-0.89494093,1.90636129

>  <Name>
ligand

>  <RI>
0

>  <Rbt.Current_Directory>
/home/itssahil/PROJECTS/Mol_Feturizer/New_Systems/rnas/4TZX

>  <Rbt.Executable>
rbdock ($Id: //depot/dev/client3/rdock/2013.1/src/exe/rbdock.cxx#4 $)

>  <Rbt.Library>
libRbt.so (2013.1, Build901 2013/11/27)

>  <Rbt.Parameter_File>
/export/apps/rDock/src/rDock_2013.1_src/data/scripts/dock_solv.prm

>  <Rbt.Receptor>
prm/pocket_docking_8.prm

>  <SCORE>
-14.3528

>  <SCORE.INTER>
-14.3529

>  <SCORE.INTER.CONST>
1

>  <SCORE.INTER.POLAR>
0

>  <SCORE.INTER.ROT>
0

>  <SCORE.INTER.SOLV>
8.05261

>  <SCORE.INTER.VDW>
-15.8528

>  <SCORE.INTER.norm>
-1.43529

>  <SCORE.INTRA>
0

>  <SCORE.INTRA.DIHEDRAL>
0

>  <SCORE.INTRA.DIHEDRAL.0>
0

>  <SCORE.INTRA.POLAR>
0

>  <SCORE.INTRA.POLAR.0>
0

>  <SCORE.INTRA.REPUL>
0

>  <SCORE.INTRA.REPUL.0>
0

>  <SCORE.INTRA.SOLV>
0

>  <SCORE.INTRA.SOLV.lig_0>
-23.8949

>  <SCORE.INTRA.VDW>
0

>  <SCORE.INTRA.VDW.0>
0

>  <SCORE.INTRA.norm>
0

>  <SCORE.RESTR>
9.72893e-05

>  <SCORE.RESTR.CAVITY>
9.72893e-05

>  <SCORE.RESTR.norm>
9.72893e-06

>  <SCORE.SYSTEM>
0

>  <SCORE.SYSTEM.CONST>
0

>  <SCORE.SYSTEM.DIHEDRAL>
0

>  <SCORE.SYSTEM.SOLV>
0

>  <SCORE.SYSTEM.norm>
0

>  <SCORE.heavy>
10

>  <SCORE.norm>
-1.43528

>  <RMSD>
0.416

$$$$
ligand
 OpenBabel11021811513D
libRbt.so/2013.1/901 2013/11/27
 10 11  0  0  0  0  0  0  0  0999 V2000
  -30.2249   17.0258  -14.9465 N   0  0  0  0  0  0  0  0  0  0  0  0
  -31.0658   18.0576  -14.7945 C   0  0  0  0  0  0  0  0  0  0  0  0
  -31.4962   18.9301  -15.7050 N   0  0  0  0  0  0  0  0  0  0  0  0
  -30.9643   18.6640  -16.9088 C   0  0  0  0  0  0  0  0  0  0  0  0
  -30.0855   17.6431  -17.2201 C   0  0  0  0  0  0  0  0  0  0  0  0
  -29.7070   16.7841  -16.1686 C   0  0  0  0  0  0  0  0  0  0  0  0
  -28.8665   15.7564  -16.3245 N   0  0  0  0  0  0  0  0  0  0  0  0
  -29.7517   17.6769  -18.5633 N   0  0  0  0  0  0  0  0  0  0  0  0
  -30.4232   18.7041  -19.0287 C   0  0  0  0  0  0  0  0  0  0  0  0
  -31.1756   19.3454  -18.0839 N   0  0  0  0  0  0  0  0  0  0  0  0
  1  2  2  0  0  0  0
  1  6  1  0  0  0  0
  2  3  1  0  0  0  0
  3  4  2  0  0  0  0
  4  5  1  0  0  0  0
  4 10  1  0  0  0  0
  5  6  2  0  0  0  0
  5  8  1  0  0  0  0
  6  7  1  0  0  0  0
  8  9  1  0  0  0  0
  9 10  2  0  0  0  0
M  END
>  <CHROM.1>
-30.37046203,17.85015754,-16.77058639,1.26513148,-0.88302910,1.90617043

>  <Name>
ligand

>  <RI>
0

>  <Rbt.Current_Directory>
/home/itssahil/PROJECTS/Mol_Feturizer/New_Systems/rnas/4TZX

>  <Rbt.Executable>
rbdock ($Id: //depot/dev/client3/rdock/2013.1/src/exe/rbdock.cxx#4 $)

>  <Rbt.Library>
libRbt.so (2013.1, Build901 2013/11/27)

>  <Rbt.Parameter_File>
/export/apps/rDock/src/rDock_2013.1_src/data/scripts/dock_solv.prm

>  <Rbt.Receptor>
prm/blind_docking_60.prm

>  <SCORE>
-14.4042

>  <SCORE.INTER>
-14.4124

>  <SCORE.INTER.CONST>
1

>  <SCORE.INTER.POLAR>
0

>  <SCORE.INTER.ROT>
0

>  <SCORE.INTER.SOLV>
8.00597

>  <SCORE.INTER.VDW>
-15.8769

>  <SCORE.INTER.norm>
-1.44124

>  <SCORE.INTRA>
0

>  <SCORE.INTRA.DIHEDRAL>
0

>  <SCORE.INTRA.DIHEDRAL.0>
0

>  <SCORE.INTRA.POLAR>
0

>  <SCORE.INTRA.POLAR.0>
0

>  <SCORE.INTRA.REPUL>
0

>  <SCORE.INTRA.REPUL.0>
0

>  <SCORE.INTRA.SOLV>
0

>  <SCORE.INTRA.SOLV.lig_0>
-23.8949

>  <SCORE.INTRA.VDW>
0

>  <SCORE.INTRA.VDW.0>
0

>  <SCORE.INTRA.norm>
0

>  <SCORE.RESTR>
0.00816128

>  <SCORE.RESTR.CAVITY>
0.00816128

>  <SCORE.RESTR.norm>
0.000816128

>  <SCORE.SYSTEM>
0

>  <SCORE.SYSTEM.CONST>
0

>  <SCORE.SYSTEM.DIHEDRAL>
0

>  <SCORE.SYSTEM.SOLV>
0

>  <SCORE.SYSTEM.norm>
0

>  <SCORE.heavy>
10

>  <SCORE.norm>
-1.44042

>  <RMSD>
0.417

$$$$
ligand
 OpenBabel11021811513D
libRbt.so/2013.1/901 2013/11/27
 10 11  0  0  0  0  0  0  0  0999 V2000
  -30.2077   17.0000  -14.9607 N   0  0  0  0  0  0  0  0  0  0  0  0
  -31.0236   18.0490  -14.7915 C   0  0  0  0  0  0  0  0  0  0  0  0
  -31.4471   18.9361  -15.6911 N   0  0  0  0  0  0  0  0  0  0  0  0
  -30.9376   18.6656  -16.9035 C   0  0  0  0  0  0  0  0  0  0  0  0
  -30.0856   17.6276  -17.2326 C   0  0  0  0  0  0  0  0  0  0  0  0
  -29.7119   16.7544  -16.1912 C   0  0  0  0  0  0  0  0  0  0  0  0
  -28.8963   15.7094  -16.3644 N   0  0  0  0  0  0  0  0  0  0  0  0
  -29.7695   17.6621  -18.5800 N   0  0  0  0  0  0  0  0  0  0  0  0
  -30.4245   18.7065  -19.0303 C   0  0  0  0  0  0  0  0  0  0  0  0
  -31.1498   19.3584  -18.0717 N   0  0  0  0  0  0  0  0  0  0  0  0
  1  2  2  0  0  0  0
  1  6  1  0  0  0  0
  2  3  1  0  0  0  0
  3  4  2  0  0  0  0
  4  5  1  0  0  0  0
  4 10  1  0  0  0  0
  5  6  2  0  0  0  0
  5  8  1  0  0  0  0
  6  7  1  0  0  0  0
  8  9  1  0  0  0  0
  9 10  2  0  0  0  0
M  END
>  <CHROM.1>
-30.35988533,17.83817535,-16.77800306,1.25604410,-0.90819360,1.90485905

>  <Name>
ligand

>  <RI>
0

>  <Rbt.Current_Directory>
/home/itssahil/PROJECTS/Mol_Feturizer/New_Systems/rnas/4TZX

>  <Rbt.Executable>
rbdock ($Id: //depot/dev/client3/rdock/2013.1/src/exe/rbdock.cxx#4 $)

>  <Rbt.Library>
libRbt.so (2013.1, Build901 2013/11/27)

>  <Rbt.Parameter_File>
/export/apps/rDock/src/rDock_2013.1_src/data/scripts/dock_solv.prm

>  <Rbt.Receptor>
prm/blind_docking_80.prm

>  <SCORE>
-14.3687

>  <SCORE.INTER>
-14.3687

>  <SCORE.INTER.CONST>
1

>  <SCORE.INTER.POLAR>
0

>  <SCORE.INTER.ROT>
0

>  <SCORE.INTER.SOLV>
8.22142

>  <SCORE.INTER.VDW>
-15.9196

>  <SCORE.INTER.norm>
-1.43687

>  <SCORE.INTRA>
0

>  <SCORE.INTRA.DIHEDRAL>
0

>  <SCORE.INTRA.DIHEDRAL.0>
0

>  <SCORE.INTRA.POLAR>
0

>  <SCORE.INTRA.POLAR.0>
0

>  <SCORE.INTRA.REPUL>
0

>  <SCORE.INTRA.REPUL.0>
0

>  <SCORE.INTRA.SOLV>
0

>  <SCORE.INTRA.SOLV.lig_0>
-23.8949

>  <SCORE.INTRA.VDW>
0

>  <SCORE.INTRA.VDW.0>
0

>  <SCORE.INTRA.norm>
0

>  <SCORE.RESTR>
0

>  <SCORE.RESTR.CAVITY>
0

>  <SCORE.RESTR.norm>
0

>  <SCORE.SYSTEM>
0

>  <SCORE.SYSTEM.CONST>
0

>  <SCORE.SYSTEM.DIHEDRAL>
0

>  <SCORE.SYSTEM.SOLV>
0

>  <SCORE.SYSTEM.norm>
0

>  <SCORE.heavy>
10

>  <SCORE.norm>
-1.43687

>  <RMSD>
0.417

$$$$
ligand
 OpenBabel11021811513D
libRbt.so/2013.1/901 2013/11/27
 10 11  0  0  0  0  0  0  0  0999 V2000
  -30.2047   16.9788  -14.9718 N   0  0  0  0  0  0  0  0  0  0  0  0
  -31.0210   18.0268  -14.7980 C   0  0  0  0  0  0  0  0  0  0  0  0
  -31.4458   18.9169  -15.6939 N   0  0  0  0  0  0  0  0  0  0  0  0
  -30.9372   18.6511  -16.9078 C   0  0  0  0  0  0  0  0  0  0  0  0
  -30.0850   17.6148  -17.2414 C   0  0  0  0  0  0  0  0  0  0  0  0
  -29.7099   16.7379  -16.2036 C   0  0  0  0  0  0  0  0  0  0  0  0
  -28.8939   15.6941  -16.3814 N   0  0  0  0  0  0  0  0  0  0  0  0
  -29.7701   17.6544  -18.5890 N   0  0  0  0  0  0  0  0  0  0  0  0
  -30.4260   18.7001  -19.0349 C   0  0  0  0  0  0  0  0  0  0  0  0
  -31.1508   19.3481  -18.0733 N   0  0  0  0  0  0  0  0  0  0  0  0
  1  2  2  0  0  0  0
  1  6  1  0  0  0  0
  2  3  1  0  0  0  0
  3  4  2  0  0  0  0
  4  5  1  0  0  0  0
  4 10  1  0  0  0  0
  5  6  2  0  0  0  0
  5  8  1  0  0  0  0
  6  7  1  0  0  0  0
  8  9  1  0  0  0  0
  9 10  2  0  0  0  0
M  END
>  <CHROM.1>
-30.35897069,17.82357589,-16.78585456,1.25440392,-0.90797767,1.90725493

>  <Name>
ligand

>  <RI>
0

>  <Rbt.Current_Directory>
/home/itssahil/PROJECTS/Mol_Feturizer/New_Systems/rnas/4TZX

>  <Rbt.Executable>
rbdock ($Id: //depot/dev/client3/rdock/2013.1/src/exe/rbdock.cxx#4 $)

>  <Rbt.Library>
libRbt.so (2013.1, Build901 2013/11/27)

>  <Rbt.Parameter_File>
/export/apps/rDock/src/rDock_2013.1_src/data/scripts/dock_solv.prm

>  <Rbt.Receptor>
prm/pocket_docking_3.prm

>  <SCORE>
-14.3729

>  <SCORE.INTER>
-14.3729

>  <SCORE.INTER.CONST>
1

>  <SCORE.INTER.POLAR>
0

>  <SCORE.INTER.ROT>
0

>  <SCORE.INTER.SOLV>
8.25935

>  <SCORE.INTER.VDW>
-15.935

>  <SCORE.INTER.norm>
-1.43729

>  <SCORE.INTRA>
0

>  <SCORE.INTRA.DIHEDRAL>
0

>  <SCORE.INTRA.DIHEDRAL.0>
0

>  <SCORE.INTRA.POLAR>
0

>  <SCORE.INTRA.POLAR.0>
0

>  <SCORE.INTRA.REPUL>
0

>  <SCORE.INTRA.REPUL.0>
0

>  <SCORE.INTRA.SOLV>
0

>  <SCORE.INTRA.SOLV.lig_0>
-23.8949

>  <SCORE.INTRA.VDW>
0

>  <SCORE.INTRA.VDW.0>
0

>  <SCORE.INTRA.norm>
0

>  <SCORE.RESTR>
0

>  <SCORE.RESTR.CAVITY>
0

>  <SCORE.RESTR.norm>
0

>  <SCORE.SYSTEM>
0

>  <SCORE.SYSTEM.CONST>
0

>  <SCORE.SYSTEM.DIHEDRAL>
0

>  <SCORE.SYSTEM.SOLV>
0

>  <SCORE.SYSTEM.norm>
0

>  <SCORE.heavy>
10

>  <SCORE.norm>
-1.43729

>  <RMSD>
0.417

$$$$
ligand
 OpenBabel11021811513D
libRbt.so/2013.1/901 2013/11/27
 10 11  0  0  0  0  0  0  0  0999 V2000
  -30.1825   17.0326  -14.9380 N   0  0  0  0  0  0  0  0  0  0  0  0
  -31.0286   18.0599  -14.7841 C   0  0  0  0  0  0  0  0  0  0  0  0
  -31.4754   18.9225  -15.6962 N   0  0  0  0  0  0  0  0  0  0  0  0
  -30.9555   18.6508  -16.9040 C   0  0  0  0  0  0  0  0  0  0  0  0
  -30.0733   17.6335  -17.2177 C   0  0  0  0  0  0  0  0  0  0  0  0
  -29.6771   16.7852  -16.1641 C   0  0  0  0  0  0  0  0  0  0  0  0
  -28.8315   15.7619  -16.3220 N   0  0  0  0  0  0  0  0  0  0  0  0
  -29.7552   17.6594  -18.5648 N   0  0  0  0  0  0  0  0  0  0  0  0
  -30.4389   18.6785  -19.0302 C   0  0  0  0  0  0  0  0  0  0  0  0
  -31.1848   19.3219  -18.0816 N   0  0  0  0  0  0  0  0  0  0  0  0
  1  2  2  0  0  0  0
  1  6  1  0  0  0  0
  2  3  1  0  0  0  0
  3  4  2  0  0  0  0
  4  5  1  0  0  0  0
  4 10  1  0  0  0  0
  5  6  2  0  0  0  0
  5  8  1  0  0  0  0
  6  7  1  0  0  0  0
  8  9  1  0  0  0  0
  9 10  2  0  0  0  0
M  END
>  <CHROM.1>
-30.35457811,17.84210519,-16.76645573,1.24465167,-0.88028268,1.88280691

>  <Name>
ligand

>  <RI>
0

>  <Rbt.Current_Directory>
/home/itssahil/PROJECTS/Mol_Feturizer/New_Systems/rnas/4TZX

>  <Rbt.Executable>
rbdock ($Id: //depot/dev/client3/rdock/2013.1/src/exe/rbdock.cxx#4 $)

>  <Rbt.Library>
libRbt.so (2013.1, Build901 2013/11/27)

>  <Rbt.Parameter_File>
/export/apps/rDock/src/rDock_2013.1_src/data/scripts/dock_solv.prm

>  <Rbt.Receptor>
prm/pocket_docking_3.prm

>  <SCORE>
-14.3745

>  <SCORE.INTER>
-14.3745

>  <SCORE.INTER.CONST>
1

>  <SCORE.INTER.POLAR>
0

>  <SCORE.INTER.ROT>
0

>  <SCORE.INTER.SOLV>
7.8927

>  <SCORE.INTER.VDW>
-15.8139

>  <SCORE.INTER.norm>
-1.43745

>  <SCORE.INTRA>
0

>  <SCORE.INTRA.DIHEDRAL>
0

>  <SCORE.INTRA.DIHEDRAL.0>
0

>  <SCORE.INTRA.POLAR>
0

>  <SCORE.INTRA.POLAR.0>
0

>  <SCORE.INTRA.REPUL>
0

>  <SCORE.INTRA.REPUL.0>
0

>  <SCORE.INTRA.SOLV>
0

>  <SCORE.INTRA.SOLV.lig_0>
-23.8949

>  <SCORE.INTRA.VDW>
0

>  <SCORE.INTRA.VDW.0>
0

>  <SCORE.INTRA.norm>
0

>  <SCORE.RESTR>
0

>  <SCORE.RESTR.CAVITY>
0

>  <SCORE.RESTR.norm>
0

>  <SCORE.SYSTEM>
0

>  <SCORE.SYSTEM.CONST>
0

>  <SCORE.SYSTEM.DIHEDRAL>
0

>  <SCORE.SYSTEM.SOLV>
0

>  <SCORE.SYSTEM.norm>
0

>  <SCORE.heavy>
10

>  <SCORE.norm>
-1.43745

>  <RMSD>
0.417

$$$$
ligand
 OpenBabel11021811513D
libRbt.so/2013.1/901 2013/11/27
 10 11  0  0  0  0  0  0  0  0999 V2000
  -30.2008   17.0450  -14.9364 N   0  0  0  0  0  0  0  0  0  0  0  0
  -31.0350   18.0838  -14.7952 C   0  0  0  0  0  0  0  0  0  0  0  0
  -31.4635   18.9466  -15.7157 N   0  0  0  0  0  0  0  0  0  0  0  0
  -30.9376   18.6613  -16.9178 C   0  0  0  0  0  0  0  0  0  0  0  0
  -30.0660   17.6311  -17.2185 C   0  0  0  0  0  0  0  0  0  0  0  0
  -29.6888   16.7840  -16.1570 C   0  0  0  0  0  0  0  0  0  0  0  0
  -28.8550   15.7492  -16.3022 N   0  0  0  0  0  0  0  0  0  0  0  0
  -29.7369   17.6450  -18.5633 N   0  0  0  0  0  0  0  0  0  0  0  0
  -30.4039   18.6699  -19.0399 C   0  0  0  0  0  0  0  0  0  0  0  0
  -31.1491   19.3282  -18.1011 N   0  0  0  0  0  0  0  0  0  0  0  0
  1  2  2  0  0  0  0
  1  6  1  0  0  0  0
  2  3  1  0  0  0  0
  3  4  2  0  0  0  0
  4  5  1  0  0  0  0
  4 10  1  0  0  0  0
  5  6  2  0  0  0  0
  5  8  1  0  0  0  0
  6  7  1  0  0  0  0
  8  9  1  0  0  0  0
  9 10  2  0  0  0  0
M  END
>  <CHROM.1>
-30.34809855,17.84584823,-16.77078907,1.26277757,-0.88982279,1.89100953

>  <Name>
ligand

>  <RI>
0

>  <Rbt.Current_Directory>
/home/itssahil/PROJECTS/Mol_Feturizer/New_Systems/rnas/4TZX

>  <Rbt.Executable>
rbdock ($Id: //depot/dev/client3/rdock/2013.1/src/exe/rbdock.cxx#4 $)

>  <Rbt.Library>
libRbt.so (2013.1, Build901 2013/11/27)

>  <Rbt.Parameter_File>
/export/apps/rDock/src/rDock_2013.1_src/data/scripts/dock_solv.prm

>  <Rbt.Receptor>
prm/pocket_docking_4.prm

>  <SCORE>
-14.3625

>  <SCORE.INTER>
-14.3625

>  <SCORE.INTER.CONST>
1

>  <SCORE.INTER.POLAR>
0

>  <SCORE.INTER.ROT>
0

>  <SCORE.INTER.SOLV>
7.96048

>  <SCORE.INTER.VDW>
-15.8285

>  <SCORE.INTER.norm>
-1.43625

>  <SCORE.INTRA>
0

>  <SCORE.INTRA.DIHEDRAL>
0

>  <SCORE.INTRA.DIHEDRAL.0>
0

>  <SCORE.INTRA.POLAR>
0

>  <SCORE.INTRA.POLAR.0>
0

>  <SCORE.INTRA.REPUL>
0

>  <SCORE.INTRA.REPUL.0>
0

>  <SCORE.INTRA.SOLV>
0

>  <SCORE.INTRA.SOLV.lig_0>
-23.8949

>  <SCORE.INTRA.VDW>
0

>  <SCORE.INTRA.VDW.0>
0

>  <SCORE.INTRA.norm>
0

>  <SCORE.RESTR>
0

>  <SCORE.RESTR.CAVITY>
0

>  <SCORE.RESTR.norm>
0

>  <SCORE.SYSTEM>
0

>  <SCORE.SYSTEM.CONST>
0

>  <SCORE.SYSTEM.DIHEDRAL>
0

>  <SCORE.SYSTEM.SOLV>
0

>  <SCORE.SYSTEM.norm>
0

>  <SCORE.heavy>
10

>  <SCORE.norm>
-1.43625

>  <RMSD>
0.417

$$$$
ligand
 OpenBabel11021811513D
libRbt.so/2013.1/901 2013/11/27
 10 11  0  0  0  0  0  0  0  0999 V2000
  -30.1626   17.0329  -14.9350 N   0  0  0  0  0  0  0  0  0  0  0  0
  -31.0025   18.0653  -14.7824 C   0  0  0  0  0  0  0  0  0  0  0  0
  -31.4464   18.9277  -15.6960 N   0  0  0  0  0  0  0  0  0  0  0  0
  -30.9307   18.6494  -16.9041 C   0  0  0  0  0  0  0  0  0  0  0  0
  -30.0550   17.6263  -17.2167 C   0  0  0  0  0  0  0  0  0  0  0  0
  -29.6612   16.7789  -16.1614 C   0  0  0  0  0  0  0  0  0  0  0  0
  -28.8216   15.7504  -16.3180 N   0  0  0  0  0  0  0  0  0  0  0  0
  -29.7397   17.6462  -18.5646 N   0  0  0  0  0  0  0  0  0  0  0  0
  -30.4186   18.6678  -19.0315 C   0  0  0  0  0  0  0  0  0  0  0  0
  -31.1588   19.3182  -18.0834 N   0  0  0  0  0  0  0  0  0  0  0  0
  1  2  2  0  0  0  0
  1  6  1  0  0  0  0
  2  3  1  0  0  0  0
  3  4  2  0  0  0  0
  4  5  1  0  0  0  0
  4 10  1  0  0  0  0
  5  6  2  0  0  0  0
  5  8  1  0  0  0  0
  6  7  1  0  0  0  0
  8  9  1  0  0  0  0
  9 10  2  0  0  0  0
M  END
>  <CHROM.1>
-30.33404188,17.83776152,-16.76547680,1.24409125,-0.88628570,1.87934111

>  <Name>
ligand

>  <RI>
0

>  <Rbt.Current_Directory>
/home/itssahil/PROJECTS/Mol_Feturizer/New_Systems/rnas/4TZX

>  <Rbt.Executable>
rbdock ($Id: //depot/dev/client3/rdock/2013.1/src/exe/rbdock.cxx#4 $)

>  <Rbt.Library>
libRbt.so (2013.1, Build901 2013/11/27)

>  <Rbt.Parameter_File>
/export/apps/rDock/src/rDock_2013.1_src/data/scripts/dock_solv.prm

>  <Rbt.Receptor>
prm/pocket_docking_6.prm

>  <SCORE>
-14.4069

>  <SCORE.INTER>
-14.4069

>  <SCORE.INTER.CONST>
1

>  <SCORE.INTER.POLAR>
0

>  <SCORE.INTER.ROT>
0

>  <SCORE.INTER.SOLV>
7.8845

>  <SCORE.INTER.VDW>
-15.8327

>  <SCORE.INTER.norm>
-1.44069

>  <SCORE.INTRA>
0

>  <SCORE.INTRA.DIHEDRAL>
0

>  <SCORE.INTRA.DIHEDRAL.0>
0

>  <SCORE.INTRA.POLAR>
0

>  <SCORE.INTRA.POLAR.0>
0

>  <SCORE.INTRA.REPUL>
0

>  <SCORE.INTRA.REPUL.0>
0

>  <SCORE.INTRA.SOLV>
0

>  <SCORE.INTRA.SOLV.lig_0>
-23.8949

>  <SCORE.INTRA.VDW>
0

>  <SCORE.INTRA.VDW.0>
0

>  <SCORE.INTRA.norm>
0

>  <SCORE.RESTR>
0

>  <SCORE.RESTR.CAVITY>
0

>  <SCORE.RESTR.norm>
0

>  <SCORE.SYSTEM>
0

>  <SCORE.SYSTEM.CONST>
0

>  <SCORE.SYSTEM.DIHEDRAL>
0

>  <SCORE.SYSTEM.SOLV>
0

>  <SCORE.SYSTEM.norm>
0

>  <SCORE.heavy>
10

>  <SCORE.norm>
-1.44069

>  <RMSD>
0.417

$$$$
ligand
 OpenBabel11021811513D
libRbt.so/2013.1/901 2013/11/27
 10 11  0  0  0  0  0  0  0  0999 V2000
  -30.1447   17.0374  -14.9296 N   0  0  0  0  0  0  0  0  0  0  0  0
  -30.9960   18.0615  -14.7831 C   0  0  0  0  0  0  0  0  0  0  0  0
  -31.4491   18.9136  -15.7019 N   0  0  0  0  0  0  0  0  0  0  0  0
  -30.9300   18.6342  -16.9082 C   0  0  0  0  0  0  0  0  0  0  0  0
  -30.0429   17.6189  -17.2146 C   0  0  0  0  0  0  0  0  0  0  0  0
  -29.6402   16.7819  -16.1544 C   0  0  0  0  0  0  0  0  0  0  0  0
  -28.7894   15.7619  -16.3049 N   0  0  0  0  0  0  0  0  0  0  0  0
  -29.7274   17.6347  -18.5626 N   0  0  0  0  0  0  0  0  0  0  0  0
  -30.4174   18.6460  -19.0355 C   0  0  0  0  0  0  0  0  0  0  0  0
  -31.1650   19.2936  -18.0913 N   0  0  0  0  0  0  0  0  0  0  0  0
  1  2  2  0  0  0  0
  1  6  1  0  0  0  0
  2  3  1  0  0  0  0
  3  4  2  0  0  0  0
  4  5  1  0  0  0  0
  4 10  1  0  0  0  0
  5  6  2  0  0  0  0
  5  8  1  0  0  0  0
  6  7  1  0  0  0  0
  8  9  1  0  0  0  0
  9 10  2  0  0  0  0
M  END
>  <CHROM.1>
-30.32445688,17.82991876,-16.76474288,1.23937877,-0.87571947,1.86998922

>  <Name>
ligand

>  <RI>
0

>  <Rbt.Current_Directory>
/home/itssahil/PROJECTS/Mol_Feturizer/New_Systems/rnas/4TZX

>  <Rbt.Executable>
rbdock ($Id: //depot/dev/client3/rdock/2013.1/src/exe/rbdock.cxx#4 $)

>  <Rbt.Library>
libRbt.so (2013.1, Build901 2013/11/27)

>  <Rbt.Parameter_File>
/export/apps/rDock/src/rDock_2013.1_src/data/scripts/dock_solv.prm

>  <Rbt.Receptor>
prm/pocket_docking_8.prm

>  <SCORE>
-14.3582

>  <SCORE.INTER>
-14.3582

>  <SCORE.INTER.CONST>
1

>  <SCORE.INTER.POLAR>
0

>  <SCORE.INTER.ROT>
0

>  <SCORE.INTER.SOLV>
7.77687

>  <SCORE.INTER.VDW>
-15.7644

>  <SCORE.INTER.norm>
-1.43582

>  <SCORE.INTRA>
0

>  <SCORE.INTRA.DIHEDRAL>
0

>  <SCORE.INTRA.DIHEDRAL.0>
0

>  <SCORE.INTRA.POLAR>
0

>  <SCORE.INTRA.POLAR.0>
0

>  <SCORE.INTRA.REPUL>
0

>  <SCORE.INTRA.REPUL.0>
0

>  <SCORE.INTRA.SOLV>
0

>  <SCORE.INTRA.SOLV.lig_0>
-23.8949

>  <SCORE.INTRA.VDW>
0

>  <SCORE.INTRA.VDW.0>
0

>  <SCORE.INTRA.norm>
0

>  <SCORE.RESTR>
0

>  <SCORE.RESTR.CAVITY>
0

>  <SCORE.RESTR.norm>
0

>  <SCORE.SYSTEM>
0

>  <SCORE.SYSTEM.CONST>
0

>  <SCORE.SYSTEM.DIHEDRAL>
0

>  <SCORE.SYSTEM.SOLV>
0

>  <SCORE.SYSTEM.norm>
0

>  <SCORE.heavy>
10

>  <SCORE.norm>
-1.43582

>  <RMSD>
0.417

$$$$
ligand
 OpenBabel11021811513D
libRbt.so/2013.1/901 2013/11/27
 10 11  0  0  0  0  0  0  0  0999 V2000
  -30.2466   17.0530  -14.9413 N   0  0  0  0  0  0  0  0  0  0  0  0
  -31.0703   18.1014  -14.8108 C   0  0  0  0  0  0  0  0  0  0  0  0
  -31.4785   18.9679  -15.7372 N   0  0  0  0  0  0  0  0  0  0  0  0
  -30.9423   18.6749  -16.9328 C   0  0  0  0  0  0  0  0  0  0  0  0
  -30.0792   17.6344  -17.2225 C   0  0  0  0  0  0  0  0  0  0  0  0
  -29.7239   16.7845  -16.1557 C   0  0  0  0  0  0  0  0  0  0  0  0
  -28.9004   15.7400  -16.2901 N   0  0  0  0  0  0  0  0  0  0  0  0
  -29.7347   17.6428  -18.5634 N   0  0  0  0  0  0  0  0  0  0  0  0
  -30.3845   18.6747  -19.0488 C   0  0  0  0  0  0  0  0  0  0  0  0
  -31.1326   19.3427  -18.1193 N   0  0  0  0  0  0  0  0  0  0  0  0
  1  2  2  0  0  0  0
  1  6  1  0  0  0  0
  2  3  1  0  0  0  0
  3  4  2  0  0  0  0
  4  5  1  0  0  0  0
  4 10  1  0  0  0  0
  5  6  2  0  0  0  0
  5  8  1  0  0  0  0
  6  7  1  0  0  0  0
  8  9  1  0  0  0  0
  9 10  2  0  0  0  0
M  END
>  <CHROM.1>
-30.36387075,17.85299605,-16.77819655,1.28583987,-0.89703926,1.90771367

>  <Name>
ligand

>  <RI>
0

>  <Rbt.Current_Directory>
/home/itssahil/PROJECTS/Mol_Feturizer/New_Systems/rnas/4TZX

>  <Rbt.Executable>
rbdock ($Id: //depot/dev/client3/rdock/2013.1/src/exe/rbdock.cxx#4 $)

>  <Rbt.Library>
libRbt.so (2013.1, Build901 2013/11/27)

>  <Rbt.Parameter_File>
/export/apps/rDock/src/rDock_2013.1_src/data/scripts/dock_solv.prm

>  <Rbt.Receptor>
prm/blind_docking_60.prm

>  <SCORE>
-14.349

>  <SCORE.INTER>
-14.349

>  <SCORE.INTER.CONST>
1

>  <SCORE.INTER.POLAR>
0

>  <SCORE.INTER.ROT>
0

>  <SCORE.INTER.SOLV>
8.08713

>  <SCORE.INTER.VDW>
-15.8617

>  <SCORE.INTER.norm>
-1.4349

>  <SCORE.INTRA>
0

>  <SCORE.INTRA.DIHEDRAL>
0

>  <SCORE.INTRA.DIHEDRAL.0>
0

>  <SCORE.INTRA.POLAR>
0

>  <SCORE.INTRA.POLAR.0>
0

>  <SCORE.INTRA.REPUL>
0

>  <SCORE.INTRA.REPUL.0>
0

>  <SCORE.INTRA.SOLV>
0

>  <SCORE.INTRA.SOLV.lig_0>
-23.8949

>  <SCORE.INTRA.VDW>
0

>  <SCORE.INTRA.VDW.0>
0

>  <SCORE.INTRA.norm>
0

>  <SCORE.RESTR>
0

>  <SCORE.RESTR.CAVITY>
0

>  <SCORE.RESTR.norm>
0

>  <SCORE.SYSTEM>
0

>  <SCORE.SYSTEM.CONST>
0

>  <SCORE.SYSTEM.DIHEDRAL>
0

>  <SCORE.SYSTEM.SOLV>
0

>  <SCORE.SYSTEM.norm>
0

>  <SCORE.heavy>
10

>  <SCORE.norm>
-1.4349

>  <RMSD>
0.418

$$$$
ligand
 OpenBabel11021811513D
libRbt.so/2013.1/901 2013/11/27
 10 11  0  0  0  0  0  0  0  0999 V2000
  -30.2188   16.9984  -14.9655 N   0  0  0  0  0  0  0  0  0  0  0  0
  -31.0336   18.0490  -14.8008 C   0  0  0  0  0  0  0  0  0  0  0  0
  -31.4525   18.9353  -15.7033 N   0  0  0  0  0  0  0  0  0  0  0  0
  -30.9391   18.6620  -16.9135 C   0  0  0  0  0  0  0  0  0  0  0  0
  -30.0875   17.6222  -17.2378 C   0  0  0  0  0  0  0  0  0  0  0  0
  -29.7190   16.7500  -16.1937 C   0  0  0  0  0  0  0  0  0  0  0  0
  -28.9044   15.7035  -16.3623 N   0  0  0  0  0  0  0  0  0  0  0  0
  -29.7665   17.6540  -18.5842 N   0  0  0  0  0  0  0  0  0  0  0  0
  -30.4182   18.6987  -19.0385 C   0  0  0  0  0  0  0  0  0  0  0  0
  -31.1459   19.3533  -18.0836 N   0  0  0  0  0  0  0  0  0  0  0  0
  1  2  2  0  0  0  0
  1  6  1  0  0  0  0
  2  3  1  0  0  0  0
  3  4  2  0  0  0  0
  4  5  1  0  0  0  0
  4 10  1  0  0  0  0
  5  6  2  0  0  0  0
  5  8  1  0  0  0  0
  6  7  1  0  0  0  0
  8  9  1  0  0  0  0
  9 10  2  0  0  0  0
M  END
>  <CHROM.1>
-30.36311506,17.83392628,-16.78460412,1.26239712,-0.90849251,1.90827521

>  <Name>
ligand

>  <RI>
0

>  <Rbt.Current_Directory>
/home/itssahil/PROJECTS/Mol_Feturizer/New_Systems/rnas/4TZX

>  <Rbt.Executable>
rbdock ($Id: //depot/dev/client3/rdock/2013.1/src/exe/rbdock.cxx#4 $)

>  <Rbt.Library>
libRbt.so (2013.1, Build901 2013/11/27)

>  <Rbt.Parameter_File>
/export/apps/rDock/src/rDock_2013.1_src/data/scripts/dock_solv.prm

>  <Rbt.Receptor>
prm/pocket_docking_3.prm

>  <SCORE>
-14.3698

>  <SCORE.INTER>
-14.3698

>  <SCORE.INTER.CONST>
1

>  <SCORE.INTER.POLAR>
0

>  <SCORE.INTER.ROT>
0

>  <SCORE.INTER.SOLV>
8.25129

>  <SCORE.INTER.VDW>
-15.9303

>  <SCORE.INTER.norm>
-1.43698

>  <SCORE.INTRA>
0

>  <SCORE.INTRA.DIHEDRAL>
0

>  <SCORE.INTRA.DIHEDRAL.0>
0

>  <SCORE.INTRA.POLAR>
0

>  <SCORE.INTRA.POLAR.0>
0

>  <SCORE.INTRA.REPUL>
0

>  <SCORE.INTRA.REPUL.0>
0

>  <SCORE.INTRA.SOLV>
0

>  <SCORE.INTRA.SOLV.lig_0>
-23.8949

>  <SCORE.INTRA.VDW>
0

>  <SCORE.INTRA.VDW.0>
0

>  <SCORE.INTRA.norm>
0

>  <SCORE.RESTR>
0

>  <SCORE.RESTR.CAVITY>
0

>  <SCORE.RESTR.norm>
0

>  <SCORE.SYSTEM>
0

>  <SCORE.SYSTEM.CONST>
0

>  <SCORE.SYSTEM.DIHEDRAL>
0

>  <SCORE.SYSTEM.SOLV>
0

>  <SCORE.SYSTEM.norm>
0

>  <SCORE.heavy>
10

>  <SCORE.norm>
-1.43698

>  <RMSD>
0.418

$$$$
ligand
 OpenBabel11021811513D
libRbt.so/2013.1/901 2013/11/27
 10 11  0  0  0  0  0  0  0  0999 V2000
  -30.2182   17.0087  -14.9634 N   0  0  0  0  0  0  0  0  0  0  0  0
  -31.0441   18.0526  -14.8122 C   0  0  0  0  0  0  0  0  0  0  0  0
  -31.4660   18.9275  -15.7244 N   0  0  0  0  0  0  0  0  0  0  0  0
  -30.9427   18.6494  -16.9292 C   0  0  0  0  0  0  0  0  0  0  0  0
  -30.0793   17.6152  -17.2400 C   0  0  0  0  0  0  0  0  0  0  0  0
  -29.7086   16.7552  -16.1866 C   0  0  0  0  0  0  0  0  0  0  0  0
  -28.8831   15.7152  -16.3418 N   0  0  0  0  0  0  0  0  0  0  0  0
  -29.7505   17.6393  -18.5846 N   0  0  0  0  0  0  0  0  0  0  0  0
  -30.4094   18.6739  -19.0514 C   0  0  0  0  0  0  0  0  0  0  0  0
  -31.1491   19.3292  -18.1061 N   0  0  0  0  0  0  0  0  0  0  0  0
  1  2  2  0  0  0  0
  1  6  1  0  0  0  0
  2  3  1  0  0  0  0
  3  4  2  0  0  0  0
  4  5  1  0  0  0  0
  4 10  1  0  0  0  0
  5  6  2  0  0  0  0
  5  8  1  0  0  0  0
  6  7  1  0  0  0  0
  8  9  1  0  0  0  0
  9 10  2  0  0  0  0
M  END
>  <CHROM.1>
-30.35957723,17.82797878,-16.79014544,1.26641470,-0.89743227,1.90330047

>  <Name>
ligand

>  <RI>
0

>  <Rbt.Current_Directory>
/home/itssahil/PROJECTS/Mol_Feturizer/New_Systems/rnas/4TZX

>  <Rbt.Executable>
rbdock ($Id: //depot/dev/client3/rdock/2013.1/src/exe/rbdock.cxx#4 $)

>  <Rbt.Library>
libRbt.so (2013.1, Build901 2013/11/27)

>  <Rbt.Parameter_File>
/export/apps/rDock/src/rDock_2013.1_src/data/scripts/dock_solv.prm

>  <Rbt.Receptor>
prm/pocket_docking_5.prm

>  <SCORE>
-14.3665

>  <SCORE.INTER>
-14.3665

>  <SCORE.INTER.CONST>
1

>  <SCORE.INTER.POLAR>
0

>  <SCORE.INTER.ROT>
0

>  <SCORE.INTER.SOLV>
8.14918

>  <SCORE.INTER.VDW>
-15.8941

>  <SCORE.INTER.norm>
-1.43665

>  <SCORE.INTRA>
0

>  <SCORE.INTRA.DIHEDRAL>
0

>  <SCORE.INTRA.DIHEDRAL.0>
0

>  <SCORE.INTRA.POLAR>
0

>  <SCORE.INTRA.POLAR.0>
0

>  <SCORE.INTRA.REPUL>
0

>  <SCORE.INTRA.REPUL.0>
0

>  <SCORE.INTRA.SOLV>
0

>  <SCORE.INTRA.SOLV.lig_0>
-23.8949

>  <SCORE.INTRA.VDW>
0

>  <SCORE.INTRA.VDW.0>
0

>  <SCORE.INTRA.norm>
0

>  <SCORE.RESTR>
0

>  <SCORE.RESTR.CAVITY>
0

>  <SCORE.RESTR.norm>
0

>  <SCORE.SYSTEM>
0

>  <SCORE.SYSTEM.CONST>
0

>  <SCORE.SYSTEM.DIHEDRAL>
0

>  <SCORE.SYSTEM.SOLV>
0

>  <SCORE.SYSTEM.norm>
0

>  <SCORE.heavy>
10

>  <SCORE.norm>
-1.43665

>  <RMSD>
0.418

$$$$
ligand
 OpenBabel11021811513D
libRbt.so/2013.1/901 2013/11/27
 10 11  0  0  0  0  0  0  0  0999 V2000
  -30.1775   17.0359  -14.9375 N   0  0  0  0  0  0  0  0  0  0  0  0
  -31.0228   18.0637  -14.7831 C   0  0  0  0  0  0  0  0  0  0  0  0
  -31.4707   18.9257  -15.6952 N   0  0  0  0  0  0  0  0  0  0  0  0
  -30.9529   18.6527  -16.9036 C   0  0  0  0  0  0  0  0  0  0  0  0
  -30.0717   17.6348  -17.2179 C   0  0  0  0  0  0  0  0  0  0  0  0
  -29.6742   16.7871  -16.1642 C   0  0  0  0  0  0  0  0  0  0  0  0
  -28.8293   15.7633  -16.3226 N   0  0  0  0  0  0  0  0  0  0  0  0
  -29.7559   17.6593  -18.5656 N   0  0  0  0  0  0  0  0  0  0  0  0
  -30.4398   18.6783  -19.0307 C   0  0  0  0  0  0  0  0  0  0  0  0
  -31.1839   19.3229  -18.0815 N   0  0  0  0  0  0  0  0  0  0  0  0
  1  2  2  0  0  0  0
  1  6  1  0  0  0  0
  2  3  1  0  0  0  0
  3  4  2  0  0  0  0
  4  5  1  0  0  0  0
  4 10  1  0  0  0  0
  5  6  2  0  0  0  0
  5  8  1  0  0  0  0
  6  7  1  0  0  0  0
  8  9  1  0  0  0  0
  9 10  2  0  0  0  0
M  END
>  <CHROM.1>
-30.35215536,17.84384910,-16.76637002,1.24242498,-0.88122760,1.88022611

>  <Name>
ligand

>  <RI>
0

>  <Rbt.Current_Directory>
/home/itssahil/PROJECTS/Mol_Feturizer/New_Systems/rnas/4TZX

>  <Rbt.Executable>
rbdock ($Id: //depot/dev/client3/rdock/2013.1/src/exe/rbdock.cxx#4 $)

>  <Rbt.Library>
libRbt.so (2013.1, Build901 2013/11/27)

>  <Rbt.Parameter_File>
/export/apps/rDock/src/rDock_2013.1_src/data/scripts/dock_solv.prm

>  <Rbt.Receptor>
prm/pocket_docking_6.prm

>  <SCORE>
-14.3727

>  <SCORE.INTER>
-14.3727

>  <SCORE.INTER.CONST>
1

>  <SCORE.INTER.POLAR>
0

>  <SCORE.INTER.ROT>
0

>  <SCORE.INTER.SOLV>
7.88595

>  <SCORE.INTER.VDW>
-15.8104

>  <SCORE.INTER.norm>
-1.43727

>  <SCORE.INTRA>
0

>  <SCORE.INTRA.DIHEDRAL>
0

>  <SCORE.INTRA.DIHEDRAL.0>
0

>  <SCORE.INTRA.POLAR>
0

>  <SCORE.INTRA.POLAR.0>
0

>  <SCORE.INTRA.REPUL>
0

>  <SCORE.INTRA.REPUL.0>
0

>  <SCORE.INTRA.SOLV>
0

>  <SCORE.INTRA.SOLV.lig_0>
-23.8949

>  <SCORE.INTRA.VDW>
0

>  <SCORE.INTRA.VDW.0>
0

>  <SCORE.INTRA.norm>
0

>  <SCORE.RESTR>
0

>  <SCORE.RESTR.CAVITY>
0

>  <SCORE.RESTR.norm>
0

>  <SCORE.SYSTEM>
0

>  <SCORE.SYSTEM.CONST>
0

>  <SCORE.SYSTEM.DIHEDRAL>
0

>  <SCORE.SYSTEM.SOLV>
0

>  <SCORE.SYSTEM.norm>
0

>  <SCORE.heavy>
10

>  <SCORE.norm>
-1.43727

>  <RMSD>
0.418

$$$$
ligand
 OpenBabel11021811513D
libRbt.so/2013.1/901 2013/11/27
 10 11  0  0  0  0  0  0  0  0999 V2000
  -30.1975   17.0395  -14.9421 N   0  0  0  0  0  0  0  0  0  0  0  0
  -31.0331   18.0769  -14.7995 C   0  0  0  0  0  0  0  0  0  0  0  0
  -31.4646   18.9390  -15.7193 N   0  0  0  0  0  0  0  0  0  0  0  0
  -30.9402   18.6546  -16.9222 C   0  0  0  0  0  0  0  0  0  0  0  0
  -30.0674   17.6258  -17.2245 C   0  0  0  0  0  0  0  0  0  0  0  0
  -29.6871   16.7793  -16.1635 C   0  0  0  0  0  0  0  0  0  0  0  0
  -28.8519   15.7458  -16.3101 N   0  0  0  0  0  0  0  0  0  0  0  0
  -29.7406   17.6402  -18.5697 N   0  0  0  0  0  0  0  0  0  0  0  0
  -30.4101   18.6641  -19.0453 C   0  0  0  0  0  0  0  0  0  0  0  0
  -31.1548   19.3212  -18.1052 N   0  0  0  0  0  0  0  0  0  0  0  0
  1  2  2  0  0  0  0
  1  6  1  0  0  0  0
  2  3  1  0  0  0  0
  3  4  2  0  0  0  0
  4  5  1  0  0  0  0
  4 10  1  0  0  0  0
  5  6  2  0  0  0  0
  5  8  1  0  0  0  0
  6  7  1  0  0  0  0
  8  9  1  0  0  0  0
  9 10  2  0  0  0  0
M  END
>  <CHROM.1>
-30.34914146,17.84008103,-16.77624318,1.25946000,-0.88882540,1.88844171

>  <Name>
ligand

>  <RI>
0

>  <Rbt.Current_Directory>
/home/itssahil/PROJECTS/Mol_Feturizer/New_Systems/rnas/4TZX

>  <Rbt.Executable>
rbdock ($Id: //depot/dev/client3/rdock/2013.1/src/exe/rbdock.cxx#4 $)

>  <Rbt.Library>
libRbt.so (2013.1, Build901 2013/11/27)

>  <Rbt.Parameter_File>
/export/apps/rDock/src/rDock_2013.1_src/data/scripts/dock_solv.prm

>  <Rbt.Receptor>
prm/pocket_docking_7.prm

>  <SCORE>
-14.3608

>  <SCORE.INTER>
-14.3608

>  <SCORE.INTER.CONST>
1

>  <SCORE.INTER.POLAR>
0

>  <SCORE.INTER.ROT>
0

>  <SCORE.INTER.SOLV>
7.96863

>  <SCORE.INTER.VDW>
-15.8301

>  <SCORE.INTER.norm>
-1.43608

>  <SCORE.INTRA>
0

>  <SCORE.INTRA.DIHEDRAL>
0

>  <SCORE.INTRA.DIHEDRAL.0>
0

>  <SCORE.INTRA.POLAR>
0

>  <SCORE.INTRA.POLAR.0>
0

>  <SCORE.INTRA.REPUL>
0

>  <SCORE.INTRA.REPUL.0>
0

>  <SCORE.INTRA.SOLV>
0

>  <SCORE.INTRA.SOLV.lig_0>
-23.8949

>  <SCORE.INTRA.VDW>
0

>  <SCORE.INTRA.VDW.0>
0

>  <SCORE.INTRA.norm>
0

>  <SCORE.RESTR>
0

>  <SCORE.RESTR.CAVITY>
0

>  <SCORE.RESTR.norm>
0

>  <SCORE.SYSTEM>
0

>  <SCORE.SYSTEM.CONST>
0

>  <SCORE.SYSTEM.DIHEDRAL>
0

>  <SCORE.SYSTEM.SOLV>
0

>  <SCORE.SYSTEM.norm>
0

>  <SCORE.heavy>
10

>  <SCORE.norm>
-1.43608

>  <RMSD>
0.418

$$$$
ligand
 OpenBabel11021811513D
libRbt.so/2013.1/901 2013/11/27
 10 11  0  0  0  0  0  0  0  0999 V2000
  -30.1649   17.0452  -14.9274 N   0  0  0  0  0  0  0  0  0  0  0  0
  -31.0011   18.0804  -14.7722 C   0  0  0  0  0  0  0  0  0  0  0  0
  -31.4444   18.9446  -15.6844 N   0  0  0  0  0  0  0  0  0  0  0  0
  -30.9326   18.6653  -16.8939 C   0  0  0  0  0  0  0  0  0  0  0  0
  -30.0610   17.6394  -17.2091 C   0  0  0  0  0  0  0  0  0  0  0  0
  -29.6674   16.7902  -16.1552 C   0  0  0  0  0  0  0  0  0  0  0  0
  -28.8317   15.7590  -16.3143 N   0  0  0  0  0  0  0  0  0  0  0  0
  -29.7490   17.6589  -18.5578 N   0  0  0  0  0  0  0  0  0  0  0  0
  -30.4257   18.6829  -19.0226 C   0  0  0  0  0  0  0  0  0  0  0  0
  -31.1614   19.3353  -18.0722 N   0  0  0  0  0  0  0  0  0  0  0  0
  1  2  2  0  0  0  0
  1  6  1  0  0  0  0
  2  3  1  0  0  0  0
  3  4  2  0  0  0  0
  4  5  1  0  0  0  0
  4 10  1  0  0  0  0
  5  6  2  0  0  0  0
  5  8  1  0  0  0  0
  6  7  1  0  0  0  0
  8  9  1  0  0  0  0
  9 10  2  0  0  0  0
M  END
>  <CHROM.1>
-30.33826793,17.85157120,-16.75709402,1.24193507,-0.89018966,1.87814255

>  <Name>
ligand

>  <RI>
0

>  <Rbt.Current_Directory>
/home/itssahil/PROJECTS/Mol_Feturizer/New_Systems/rnas/4TZX

>  <Rbt.Executable>
rbdock ($Id: //depot/dev/client3/rdock/2013.1/src/exe/rbdock.cxx#4 $)

>  <Rbt.Library>
libRbt.so (2013.1, Build901 2013/11/27)

>  <Rbt.Parameter_File>
/export/apps/rDock/src/rDock_2013.1_src/data/scripts/dock_solv.prm

>  <Rbt.Receptor>
prm/pocket_docking_8.prm

>  <SCORE>
-14.4047

>  <SCORE.INTER>
-14.4047

>  <SCORE.INTER.CONST>
1

>  <SCORE.INTER.POLAR>
0

>  <SCORE.INTER.ROT>
0

>  <SCORE.INTER.SOLV>
7.89153

>  <SCORE.INTER.VDW>
-15.8337

>  <SCORE.INTER.norm>
-1.44047

>  <SCORE.INTRA>
0

>  <SCORE.INTRA.DIHEDRAL>
0

>  <SCORE.INTRA.DIHEDRAL.0>
0

>  <SCORE.INTRA.POLAR>
0

>  <SCORE.INTRA.POLAR.0>
0

>  <SCORE.INTRA.REPUL>
0

>  <SCORE.INTRA.REPUL.0>
0

>  <SCORE.INTRA.SOLV>
0

>  <SCORE.INTRA.SOLV.lig_0>
-23.8949

>  <SCORE.INTRA.VDW>
0

>  <SCORE.INTRA.VDW.0>
0

>  <SCORE.INTRA.norm>
0

>  <SCORE.RESTR>
0

>  <SCORE.RESTR.CAVITY>
0

>  <SCORE.RESTR.norm>
0

>  <SCORE.SYSTEM>
0

>  <SCORE.SYSTEM.CONST>
0

>  <SCORE.SYSTEM.DIHEDRAL>
0

>  <SCORE.SYSTEM.SOLV>
0

>  <SCORE.SYSTEM.norm>
0

>  <SCORE.heavy>
10

>  <SCORE.norm>
-1.44047

>  <RMSD>
0.418

$$$$
ligand
 OpenBabel11021811513D
libRbt.so/2013.1/901 2013/11/27
 10 11  0  0  0  0  0  0  0  0999 V2000
  -30.1553   17.0527  -14.9219 N   0  0  0  0  0  0  0  0  0  0  0  0
  -30.9962   18.0844  -14.7693 C   0  0  0  0  0  0  0  0  0  0  0  0
  -31.4440   18.9440  -15.6836 N   0  0  0  0  0  0  0  0  0  0  0  0
  -30.9314   18.6637  -16.8926 C   0  0  0  0  0  0  0  0  0  0  0  0
  -30.0551   17.6410  -17.2053 C   0  0  0  0  0  0  0  0  0  0  0  0
  -29.6571   16.7966  -16.1492 C   0  0  0  0  0  0  0  0  0  0  0  0
  -28.8165   15.7690  -16.3058 N   0  0  0  0  0  0  0  0  0  0  0  0
  -29.7437   17.6583  -18.5541 N   0  0  0  0  0  0  0  0  0  0  0  0
  -30.4255   18.6778  -19.0215 C   0  0  0  0  0  0  0  0  0  0  0  0
  -31.1639   19.3294  -18.0727 N   0  0  0  0  0  0  0  0  0  0  0  0
  1  2  2  0  0  0  0
  1  6  1  0  0  0  0
  2  3  1  0  0  0  0
  3  4  2  0  0  0  0
  4  5  1  0  0  0  0
  4 10  1  0  0  0  0
  5  6  2  0  0  0  0
  5  8  1  0  0  0  0
  6  7  1  0  0  0  0
  8  9  1  0  0  0  0
  9 10  2  0  0  0  0
M  END
>  <CHROM.1>
-30.33318644,17.85316531,-16.75376307,1.23905498,-0.88580126,1.87312518

>  <Name>
ligand

>  <RI>
0

>  <Rbt.Current_Directory>
/home/itssahil/PROJECTS/Mol_Feturizer/New_Systems/rnas/4TZX

>  <Rbt.Executable>
rbdock ($Id: //depot/dev/client3/rdock/2013.1/src/exe/rbdock.cxx#4 $)

>  <Rbt.Library>
libRbt.so (2013.1, Build901 2013/11/27)

>  <Rbt.Parameter_File>
/export/apps/rDock/src/rDock_2013.1_src/data/scripts/dock_solv.prm

>  <Rbt.Receptor>
prm/blind_docking_60.prm

>  <SCORE>
-14.3995

>  <SCORE.INTER>
-14.3996

>  <SCORE.INTER.CONST>
1

>  <SCORE.INTER.POLAR>
0

>  <SCORE.INTER.ROT>
0

>  <SCORE.INTER.SOLV>
7.83294

>  <SCORE.INTER.VDW>
-15.8107

>  <SCORE.INTER.norm>
-1.43996

>  <SCORE.INTRA>
0

>  <SCORE.INTRA.DIHEDRAL>
0

>  <SCORE.INTRA.DIHEDRAL.0>
0

>  <SCORE.INTRA.POLAR>
0

>  <SCORE.INTRA.POLAR.0>
0

>  <SCORE.INTRA.REPUL>
0

>  <SCORE.INTRA.REPUL.0>
0

>  <SCORE.INTRA.SOLV>
0

>  <SCORE.INTRA.SOLV.lig_0>
-23.8949

>  <SCORE.INTRA.VDW>
0

>  <SCORE.INTRA.VDW.0>
0

>  <SCORE.INTRA.norm>
0

>  <SCORE.RESTR>
0.000106919

>  <SCORE.RESTR.CAVITY>
0.000106919

>  <SCORE.RESTR.norm>
1.06919e-05

>  <SCORE.SYSTEM>
0

>  <SCORE.SYSTEM.CONST>
0

>  <SCORE.SYSTEM.DIHEDRAL>
0

>  <SCORE.SYSTEM.SOLV>
0

>  <SCORE.SYSTEM.norm>
0

>  <SCORE.heavy>
10

>  <SCORE.norm>
-1.43995

>  <RMSD>
0.419

$$$$
ligand
 OpenBabel11021811513D
libRbt.so/2013.1/901 2013/11/27
 10 11  0  0  0  0  0  0  0  0999 V2000
  -30.2143   17.0299  -14.9451 N   0  0  0  0  0  0  0  0  0  0  0  0
  -31.0560   18.0601  -14.7870 C   0  0  0  0  0  0  0  0  0  0  0  0
  -31.4961   18.9306  -15.6948 N   0  0  0  0  0  0  0  0  0  0  0  0
  -30.9740   18.6643  -16.9028 C   0  0  0  0  0  0  0  0  0  0  0  0
  -30.0957   17.6450  -17.2205 C   0  0  0  0  0  0  0  0  0  0  0  0
  -29.7064   16.7880  -16.1714 C   0  0  0  0  0  0  0  0  0  0  0  0
  -28.8651   15.7618  -16.3334 N   0  0  0  0  0  0  0  0  0  0  0  0
  -29.7736   17.6780  -18.5666 N   0  0  0  0  0  0  0  0  0  0  0  0
  -30.4512   18.7033  -19.0273 C   0  0  0  0  0  0  0  0  0  0  0  0
  -31.1968   19.3440  -18.0768 N   0  0  0  0  0  0  0  0  0  0  0  0
  1  2  2  0  0  0  0
  1  6  1  0  0  0  0
  2  3  1  0  0  0  0
  3  4  2  0  0  0  0
  4  5  1  0  0  0  0
  4 10  1  0  0  0  0
  5  6  2  0  0  0  0
  5  8  1  0  0  0  0
  6  7  1  0  0  0  0
  8  9  1  0  0  0  0
  9 10  2  0  0  0  0
M  END
>  <CHROM.1>
-30.37727016,17.85192644,-16.76878971,1.25123926,-0.88380928,1.89433386

>  <Name>
ligand

>  <RI>
0

>  <Rbt.Current_Directory>
/home/itssahil/PROJECTS/Mol_Feturizer/New_Systems/rnas/4TZX

>  <Rbt.Executable>
rbdock ($Id: //depot/dev/client3/rdock/2013.1/src/exe/rbdock.cxx#4 $)

>  <Rbt.Library>
libRbt.so (2013.1, Build901 2013/11/27)

>  <Rbt.Parameter_File>
/export/apps/rDock/src/rDock_2013.1_src/data/scripts/dock_solv.prm

>  <Rbt.Receptor>
prm/pocket_docking_3.prm

>  <SCORE>
-14.3941

>  <SCORE.INTER>
-14.3941

>  <SCORE.INTER.CONST>
1

>  <SCORE.INTER.POLAR>
0

>  <SCORE.INTER.ROT>
0

>  <SCORE.INTER.SOLV>
8.00099

>  <SCORE.INTER.VDW>
-15.863

>  <SCORE.INTER.norm>
-1.43941

>  <SCORE.INTRA>
0

>  <SCORE.INTRA.DIHEDRAL>
0

>  <SCORE.INTRA.DIHEDRAL.0>
0

>  <SCORE.INTRA.POLAR>
0

>  <SCORE.INTRA.POLAR.0>
0

>  <SCORE.INTRA.REPUL>
0

>  <SCORE.INTRA.REPUL.0>
0

>  <SCORE.INTRA.SOLV>
0

>  <SCORE.INTRA.SOLV.lig_0>
-23.8949

>  <SCORE.INTRA.VDW>
0

>  <SCORE.INTRA.VDW.0>
0

>  <SCORE.INTRA.norm>
0

>  <SCORE.RESTR>
1.65714e-05

>  <SCORE.RESTR.CAVITY>
1.65714e-05

>  <SCORE.RESTR.norm>
1.65714e-06

>  <SCORE.SYSTEM>
0

>  <SCORE.SYSTEM.CONST>
0

>  <SCORE.SYSTEM.DIHEDRAL>
0

>  <SCORE.SYSTEM.SOLV>
0

>  <SCORE.SYSTEM.norm>
0

>  <SCORE.heavy>
10

>  <SCORE.norm>
-1.43941

>  <RMSD>
0.419

$$$$
ligand
 OpenBabel11021811513D
libRbt.so/2013.1/901 2013/11/27
 10 11  0  0  0  0  0  0  0  0999 V2000
  -30.2133   17.0586  -14.9318 N   0  0  0  0  0  0  0  0  0  0  0  0
  -31.0406   18.1031  -14.7917 C   0  0  0  0  0  0  0  0  0  0  0  0
  -31.4632   18.9678  -15.7132 N   0  0  0  0  0  0  0  0  0  0  0  0
  -30.9391   18.6778  -16.9149 C   0  0  0  0  0  0  0  0  0  0  0  0
  -30.0743   17.6415  -17.2145 C   0  0  0  0  0  0  0  0  0  0  0  0
  -29.7030   16.7930  -16.1520 C   0  0  0  0  0  0  0  0  0  0  0  0
  -28.8761   15.7525  -16.2961 N   0  0  0  0  0  0  0  0  0  0  0  0
  -29.7450   17.6519  -18.5592 N   0  0  0  0  0  0  0  0  0  0  0  0
  -30.4051   18.6808  -19.0369 C   0  0  0  0  0  0  0  0  0  0  0  0
  -31.1459   19.3450  -18.0989 N   0  0  0  0  0  0  0  0  0  0  0  0
  1  2  2  0  0  0  0
  1  6  1  0  0  0  0
  2  3  1  0  0  0  0
  3  4  2  0  0  0  0
  4  5  1  0  0  0  0
  4 10  1  0  0  0  0
  5  6  2  0  0  0  0
  5  8  1  0  0  0  0
  6  7  1  0  0  0  0
  8  9  1  0  0  0  0
  9 10  2  0  0  0  0
M  END
>  <CHROM.1>
-30.35504631,17.85860998,-16.76699209,1.26636307,-0.89612603,1.89280480

>  <Name>
ligand

>  <RI>
0

>  <Rbt.Current_Directory>
/home/itssahil/PROJECTS/Mol_Feturizer/New_Systems/rnas/4TZX

>  <Rbt.Executable>
rbdock ($Id: //depot/dev/client3/rdock/2013.1/src/exe/rbdock.cxx#4 $)

>  <Rbt.Library>
libRbt.so (2013.1, Build901 2013/11/27)

>  <Rbt.Parameter_File>
/export/apps/rDock/src/rDock_2013.1_src/data/scripts/dock_solv.prm

>  <Rbt.Receptor>
prm/pocket_docking_4.prm

>  <SCORE>
-14.356

>  <SCORE.INTER>
-14.356

>  <SCORE.INTER.CONST>
1

>  <SCORE.INTER.POLAR>
0

>  <SCORE.INTER.ROT>
0

>  <SCORE.INTER.SOLV>
8.00534

>  <SCORE.INTER.VDW>
-15.8391

>  <SCORE.INTER.norm>
-1.4356

>  <SCORE.INTRA>
0

>  <SCORE.INTRA.DIHEDRAL>
0

>  <SCORE.INTRA.DIHEDRAL.0>
0

>  <SCORE.INTRA.POLAR>
0

>  <SCORE.INTRA.POLAR.0>
0

>  <SCORE.INTRA.REPUL>
0

>  <SCORE.INTRA.REPUL.0>
0

>  <SCORE.INTRA.SOLV>
0

>  <SCORE.INTRA.SOLV.lig_0>
-23.8949

>  <SCORE.INTRA.VDW>
0

>  <SCORE.INTRA.VDW.0>
0

>  <SCORE.INTRA.norm>
0

>  <SCORE.RESTR>
0

>  <SCORE.RESTR.CAVITY>
0

>  <SCORE.RESTR.norm>
0

>  <SCORE.SYSTEM>
0

>  <SCORE.SYSTEM.CONST>
0

>  <SCORE.SYSTEM.DIHEDRAL>
0

>  <SCORE.SYSTEM.SOLV>
0

>  <SCORE.SYSTEM.norm>
0

>  <SCORE.heavy>
10

>  <SCORE.norm>
-1.4356

>  <RMSD>
0.419

$$$$
ligand
 OpenBabel11021811513D
libRbt.so/2013.1/901 2013/11/27
 10 11  0  0  0  0  0  0  0  0999 V2000
  -30.1650   17.0363  -14.9380 N   0  0  0  0  0  0  0  0  0  0  0  0
  -31.0033   18.0697  -14.7833 C   0  0  0  0  0  0  0  0  0  0  0  0
  -31.4500   18.9314  -15.6962 N   0  0  0  0  0  0  0  0  0  0  0  0
  -30.9394   18.6513  -16.9060 C   0  0  0  0  0  0  0  0  0  0  0  0
  -30.0658   17.6269  -17.2208 C   0  0  0  0  0  0  0  0  0  0  0  0
  -29.6687   16.7804  -16.1661 C   0  0  0  0  0  0  0  0  0  0  0  0
  -28.8308   15.7509  -16.3248 N   0  0  0  0  0  0  0  0  0  0  0  0
  -29.7558   17.6450  -18.5700 N   0  0  0  0  0  0  0  0  0  0  0  0
  -30.4357   18.6667  -19.0354 C   0  0  0  0  0  0  0  0  0  0  0  0
  -31.1715   19.3189  -18.0851 N   0  0  0  0  0  0  0  0  0  0  0  0
  1  2  2  0  0  0  0
  1  6  1  0  0  0  0
  2  3  1  0  0  0  0
  3  4  2  0  0  0  0
  4  5  1  0  0  0  0
  4 10  1  0  0  0  0
  5  6  2  0  0  0  0
  5  8  1  0  0  0  0
  6  7  1  0  0  0  0
  8  9  1  0  0  0  0
  9 10  2  0  0  0  0
M  END
>  <CHROM.1>
-30.34291605,17.83921160,-16.76873398,1.23858279,-0.88839322,1.87390776

>  <Name>
ligand

>  <RI>
0

>  <Rbt.Current_Directory>
/home/itssahil/PROJECTS/Mol_Feturizer/New_Systems/rnas/4TZX

>  <Rbt.Executable>
rbdock ($Id: //depot/dev/client3/rdock/2013.1/src/exe/rbdock.cxx#4 $)

>  <Rbt.Library>
libRbt.so (2013.1, Build901 2013/11/27)

>  <Rbt.Parameter_File>
/export/apps/rDock/src/rDock_2013.1_src/data/scripts/dock_solv.prm

>  <Rbt.Receptor>
prm/pocket_docking_6.prm

>  <SCORE>
-14.3975

>  <SCORE.INTER>
-14.3975

>  <SCORE.INTER.CONST>
1

>  <SCORE.INTER.POLAR>
0

>  <SCORE.INTER.ROT>
0

>  <SCORE.INTER.SOLV>
7.91664

>  <SCORE.INTER.VDW>
-15.8372

>  <SCORE.INTER.norm>
-1.43975

>  <SCORE.INTRA>
0

>  <SCORE.INTRA.DIHEDRAL>
0

>  <SCORE.INTRA.DIHEDRAL.0>
0

>  <SCORE.INTRA.POLAR>
0

>  <SCORE.INTRA.POLAR.0>
0

>  <SCORE.INTRA.REPUL>
0

>  <SCORE.INTRA.REPUL.0>
0

>  <SCORE.INTRA.SOLV>
0

>  <SCORE.INTRA.SOLV.lig_0>
-23.8949

>  <SCORE.INTRA.VDW>
0

>  <SCORE.INTRA.VDW.0>
0

>  <SCORE.INTRA.norm>
0

>  <SCORE.RESTR>
0

>  <SCORE.RESTR.CAVITY>
0

>  <SCORE.RESTR.norm>
0

>  <SCORE.SYSTEM>
0

>  <SCORE.SYSTEM.CONST>
0

>  <SCORE.SYSTEM.DIHEDRAL>
0

>  <SCORE.SYSTEM.SOLV>
0

>  <SCORE.SYSTEM.norm>
0

>  <SCORE.heavy>
10

>  <SCORE.norm>
-1.43975

>  <RMSD>
0.419

$$$$
ligand
 OpenBabel11021811513D
libRbt.so/2013.1/901 2013/11/27
 10 11  0  0  0  0  0  0  0  0999 V2000
  -30.2168   17.0445  -14.9430 N   0  0  0  0  0  0  0  0  0  0  0  0
  -31.0500   18.0847  -14.8074 C   0  0  0  0  0  0  0  0  0  0  0  0
  -31.4726   18.9470  -15.7312 N   0  0  0  0  0  0  0  0  0  0  0  0
  -30.9412   18.6592  -16.9302 C   0  0  0  0  0  0  0  0  0  0  0  0
  -30.0697   17.6273  -17.2253 C   0  0  0  0  0  0  0  0  0  0  0  0
  -29.6992   16.7810  -16.1607 C   0  0  0  0  0  0  0  0  0  0  0  0
  -28.8663   15.7447  -16.3004 N   0  0  0  0  0  0  0  0  0  0  0  0
  -29.7339   17.6389  -18.5683 N   0  0  0  0  0  0  0  0  0  0  0  0
  -30.3970   18.6642  -19.0497 C   0  0  0  0  0  0  0  0  0  0  0  0
  -31.1457   19.3249  -18.1154 N   0  0  0  0  0  0  0  0  0  0  0  0
  1  2  2  0  0  0  0
  1  6  1  0  0  0  0
  2  3  1  0  0  0  0
  3  4  2  0  0  0  0
  4  5  1  0  0  0  0
  4 10  1  0  0  0  0
  5  6  2  0  0  0  0
  5  8  1  0  0  0  0
  6  7  1  0  0  0  0
  8  9  1  0  0  0  0
  9 10  2  0  0  0  0
M  END
>  <CHROM.1>
-30.35371167,17.84307097,-16.77920357,1.27107050,-0.88975261,1.89611701

>  <Name>
ligand

>  <RI>
0

>  <Rbt.Current_Directory>
/home/itssahil/PROJECTS/Mol_Feturizer/New_Systems/rnas/4TZX

>  <Rbt.Executable>
rbdock ($Id: //depot/dev/client3/rdock/2013.1/src/exe/rbdock.cxx#4 $)

>  <Rbt.Library>
libRbt.so (2013.1, Build901 2013/11/27)

>  <Rbt.Parameter_File>
/export/apps/rDock/src/rDock_2013.1_src/data/scripts/dock_solv.prm

>  <Rbt.Receptor>
prm/pocket_docking_7.prm

>  <SCORE>
-14.3573

>  <SCORE.INTER>
-14.3575

>  <SCORE.INTER.CONST>
1

>  <SCORE.INTER.POLAR>
0

>  <SCORE.INTER.ROT>
0

>  <SCORE.INTER.SOLV>
7.99887

>  <SCORE.INTER.VDW>
-15.8379

>  <SCORE.INTER.norm>
-1.43575

>  <SCORE.INTRA>
0

>  <SCORE.INTRA.DIHEDRAL>
0

>  <SCORE.INTRA.DIHEDRAL.0>
0

>  <SCORE.INTRA.POLAR>
0

>  <SCORE.INTRA.POLAR.0>
0

>  <SCORE.INTRA.REPUL>
0

>  <SCORE.INTRA.REPUL.0>
0

>  <SCORE.INTRA.SOLV>
0

>  <SCORE.INTRA.SOLV.lig_0>
-23.8949

>  <SCORE.INTRA.VDW>
0

>  <SCORE.INTRA.VDW.0>
0

>  <SCORE.INTRA.norm>
0

>  <SCORE.RESTR>
0.00015689

>  <SCORE.RESTR.CAVITY>
0.00015689

>  <SCORE.RESTR.norm>
1.5689e-05

>  <SCORE.SYSTEM>
0

>  <SCORE.SYSTEM.CONST>
0

>  <SCORE.SYSTEM.DIHEDRAL>
0

>  <SCORE.SYSTEM.SOLV>
0

>  <SCORE.SYSTEM.norm>
0

>  <SCORE.heavy>
10

>  <SCORE.norm>
-1.43573

>  <RMSD>
0.419

$$$$
ligand
 OpenBabel11021811513D
libRbt.so/2013.1/901 2013/11/27
 10 11  0  0  0  0  0  0  0  0999 V2000
  -30.1907   17.0101  -14.9581 N   0  0  0  0  0  0  0  0  0  0  0  0
  -31.0166   18.0521  -14.7939 C   0  0  0  0  0  0  0  0  0  0  0  0
  -31.4499   18.9296  -15.6981 N   0  0  0  0  0  0  0  0  0  0  0  0
  -30.9393   18.6569  -16.9097 C   0  0  0  0  0  0  0  0  0  0  0  0
  -30.0777   17.6253  -17.2338 C   0  0  0  0  0  0  0  0  0  0  0  0
  -29.6941   16.7620  -16.1877 C   0  0  0  0  0  0  0  0  0  0  0  0
  -28.8686   15.7240  -16.3559 N   0  0  0  0  0  0  0  0  0  0  0  0
  -29.7637   17.6549  -18.5818 N   0  0  0  0  0  0  0  0  0  0  0  0
  -30.4295   18.6902  -19.0374 C   0  0  0  0  0  0  0  0  0  0  0  0
  -31.1598   19.3407  -18.0817 N   0  0  0  0  0  0  0  0  0  0  0  0
  1  2  2  0  0  0  0
  1  6  1  0  0  0  0
  2  3  1  0  0  0  0
  3  4  2  0  0  0  0
  4  5  1  0  0  0  0
  4 10  1  0  0  0  0
  5  6  2  0  0  0  0
  5  8  1  0  0  0  0
  6  7  1  0  0  0  0
  8  9  1  0  0  0  0
  9 10  2  0  0  0  0
M  END
>  <CHROM.1>
-30.35343465,17.83591260,-16.78008368,1.24890155,-0.89939079,1.89333244

>  <Name>
ligand

>  <RI>
0

>  <Rbt.Current_Directory>
/home/itssahil/PROJECTS/Mol_Feturizer/New_Systems/rnas/4TZX

>  <Rbt.Executable>
rbdock ($Id: //depot/dev/client3/rdock/2013.1/src/exe/rbdock.cxx#4 $)

>  <Rbt.Library>
libRbt.so (2013.1, Build901 2013/11/27)

>  <Rbt.Parameter_File>
/export/apps/rDock/src/rDock_2013.1_src/data/scripts/dock_solv.prm

>  <Rbt.Receptor>
prm/pocket_docking_6.prm

>  <SCORE>
-14.3675

>  <SCORE.INTER>
-14.3675

>  <SCORE.INTER.CONST>
1

>  <SCORE.INTER.POLAR>
0

>  <SCORE.INTER.ROT>
0

>  <SCORE.INTER.SOLV>
8.11196

>  <SCORE.INTER.VDW>
-15.8823

>  <SCORE.INTER.norm>
-1.43675

>  <SCORE.INTRA>
0

>  <SCORE.INTRA.DIHEDRAL>
0

>  <SCORE.INTRA.DIHEDRAL.0>
0

>  <SCORE.INTRA.POLAR>
0

>  <SCORE.INTRA.POLAR.0>
0

>  <SCORE.INTRA.REPUL>
0

>  <SCORE.INTRA.REPUL.0>
0

>  <SCORE.INTRA.SOLV>
0

>  <SCORE.INTRA.SOLV.lig_0>
-23.8949

>  <SCORE.INTRA.VDW>
0

>  <SCORE.INTRA.VDW.0>
0

>  <SCORE.INTRA.norm>
0

>  <SCORE.RESTR>
0

>  <SCORE.RESTR.CAVITY>
0

>  <SCORE.RESTR.norm>
0

>  <SCORE.SYSTEM>
0

>  <SCORE.SYSTEM.CONST>
0

>  <SCORE.SYSTEM.DIHEDRAL>
0

>  <SCORE.SYSTEM.SOLV>
0

>  <SCORE.SYSTEM.norm>
0

>  <SCORE.heavy>
10

>  <SCORE.norm>
-1.43675

>  <RMSD>
0.420

$$$$
ligand
 OpenBabel11021811513D
libRbt.so/2013.1/901 2013/11/27
 10 11  0  0  0  0  0  0  0  0999 V2000
  -30.2249   16.9802  -14.9820 N   0  0  0  0  0  0  0  0  0  0  0  0
  -31.0406   18.0301  -14.8166 C   0  0  0  0  0  0  0  0  0  0  0  0
  -31.4590   18.9175  -15.7182 N   0  0  0  0  0  0  0  0  0  0  0  0
  -30.9442   18.6463  -16.9283 C   0  0  0  0  0  0  0  0  0  0  0  0
  -30.0917   17.6075  -17.2533 C   0  0  0  0  0  0  0  0  0  0  0  0
  -29.7237   16.7340  -16.2101 C   0  0  0  0  0  0  0  0  0  0  0  0
  -28.9083   15.6882  -16.3794 N   0  0  0  0  0  0  0  0  0  0  0  0
  -29.7693   17.6415  -18.5993 N   0  0  0  0  0  0  0  0  0  0  0  0
  -30.4212   18.6865  -19.0527 C   0  0  0  0  0  0  0  0  0  0  0  0
  -31.1502   19.3392  -18.0975 N   0  0  0  0  0  0  0  0  0  0  0  0
  1  2  2  0  0  0  0
  1  6  1  0  0  0  0
  2  3  1  0  0  0  0
  3  4  2  0  0  0  0
  4  5  1  0  0  0  0
  4 10  1  0  0  0  0
  5  6  2  0  0  0  0
  5  8  1  0  0  0  0
  6  7  1  0  0  0  0
  8  9  1  0  0  0  0
  9 10  2  0  0  0  0
M  END
>  <CHROM.1>
-30.36786302,17.81836274,-16.80003064,1.26367151,-0.90758500,1.91078048

>  <Name>
ligand

>  <RI>
0

>  <Rbt.Current_Directory>
/home/itssahil/PROJECTS/Mol_Feturizer/New_Systems/rnas/4TZX

>  <Rbt.Executable>
rbdock ($Id: //depot/dev/client3/rdock/2013.1/src/exe/rbdock.cxx#4 $)

>  <Rbt.Library>
libRbt.so (2013.1, Build901 2013/11/27)

>  <Rbt.Parameter_File>
/export/apps/rDock/src/rDock_2013.1_src/data/scripts/dock_solv.prm

>  <Rbt.Receptor>
prm/pocket_docking_8.prm

>  <SCORE>
-14.3663

>  <SCORE.INTER>
-14.3663

>  <SCORE.INTER.CONST>
1

>  <SCORE.INTER.POLAR>
0

>  <SCORE.INTER.ROT>
0

>  <SCORE.INTER.SOLV>
8.30816

>  <SCORE.INTER.VDW>
-15.9469

>  <SCORE.INTER.norm>
-1.43663

>  <SCORE.INTRA>
0

>  <SCORE.INTRA.DIHEDRAL>
0

>  <SCORE.INTRA.DIHEDRAL.0>
0

>  <SCORE.INTRA.POLAR>
0

>  <SCORE.INTRA.POLAR.0>
0

>  <SCORE.INTRA.REPUL>
0

>  <SCORE.INTRA.REPUL.0>
0

>  <SCORE.INTRA.SOLV>
0

>  <SCORE.INTRA.SOLV.lig_0>
-23.8949

>  <SCORE.INTRA.VDW>
0

>  <SCORE.INTRA.VDW.0>
0

>  <SCORE.INTRA.norm>
0

>  <SCORE.RESTR>
0

>  <SCORE.RESTR.CAVITY>
0

>  <SCORE.RESTR.norm>
0

>  <SCORE.SYSTEM>
0

>  <SCORE.SYSTEM.CONST>
0

>  <SCORE.SYSTEM.DIHEDRAL>
0

>  <SCORE.SYSTEM.SOLV>
0

>  <SCORE.SYSTEM.norm>
0

>  <SCORE.heavy>
10

>  <SCORE.norm>
-1.43663

>  <RMSD>
0.420

$$$$
ligand
 OpenBabel11021811513D
libRbt.so/2013.1/901 2013/11/27
 10 11  0  0  0  0  0  0  0  0999 V2000
  -30.1530   17.0517  -14.9254 N   0  0  0  0  0  0  0  0  0  0  0  0
  -30.9951   18.0823  -14.7719 C   0  0  0  0  0  0  0  0  0  0  0  0
  -31.4451   18.9412  -15.6859 N   0  0  0  0  0  0  0  0  0  0  0  0
  -30.9336   18.6614  -16.8954 C   0  0  0  0  0  0  0  0  0  0  0  0
  -30.0563   17.6398  -17.2090 C   0  0  0  0  0  0  0  0  0  0  0  0
  -29.6560   16.7961  -16.1533 C   0  0  0  0  0  0  0  0  0  0  0  0
  -28.8143   15.7694  -16.3108 N   0  0  0  0  0  0  0  0  0  0  0  0
  -29.7466   17.6573  -18.5582 N   0  0  0  0  0  0  0  0  0  0  0  0
  -30.4302   18.6759  -19.0249 C   0  0  0  0  0  0  0  0  0  0  0  0
  -31.1683   19.3266  -18.0753 N   0  0  0  0  0  0  0  0  0  0  0  0
  1  2  2  0  0  0  0
  1  6  1  0  0  0  0
  2  3  1  0  0  0  0
  3  4  2  0  0  0  0
  4  5  1  0  0  0  0
  4 10  1  0  0  0  0
  5  6  2  0  0  0  0
  5  8  1  0  0  0  0
  6  7  1  0  0  0  0
  8  9  1  0  0  0  0
  9 10  2  0  0  0  0
M  END
>  <CHROM.1>
-30.33415119,17.85167181,-16.75716950,1.23665049,-0.88495182,1.87113380

>  <Name>
ligand

>  <RI>
0

>  <Rbt.Current_Directory>
/home/itssahil/PROJECTS/Mol_Feturizer/New_Systems/rnas/4TZX

>  <Rbt.Executable>
rbdock ($Id: //depot/dev/client3/rdock/2013.1/src/exe/rbdock.cxx#4 $)

>  <Rbt.Library>
libRbt.so (2013.1, Build901 2013/11/27)

>  <Rbt.Parameter_File>
/export/apps/rDock/src/rDock_2013.1_src/data/scripts/dock_solv.prm

>  <Rbt.Receptor>
prm/pocket_docking_3.prm

>  <SCORE>
-14.3998

>  <SCORE.INTER>
-14.3998

>  <SCORE.INTER.CONST>
1

>  <SCORE.INTER.POLAR>
0

>  <SCORE.INTER.ROT>
0

>  <SCORE.INTER.SOLV>
7.83128

>  <SCORE.INTER.VDW>
-15.8103

>  <SCORE.INTER.norm>
-1.43998

>  <SCORE.INTRA>
0

>  <SCORE.INTRA.DIHEDRAL>
0

>  <SCORE.INTRA.DIHEDRAL.0>
0

>  <SCORE.INTRA.POLAR>
0

>  <SCORE.INTRA.POLAR.0>
0

>  <SCORE.INTRA.REPUL>
0

>  <SCORE.INTRA.REPUL.0>
0

>  <SCORE.INTRA.SOLV>
0

>  <SCORE.INTRA.SOLV.lig_0>
-23.8949

>  <SCORE.INTRA.VDW>
0

>  <SCORE.INTRA.VDW.0>
0

>  <SCORE.INTRA.norm>
0

>  <SCORE.RESTR>
0

>  <SCORE.RESTR.CAVITY>
0

>  <SCORE.RESTR.norm>
0

>  <SCORE.SYSTEM>
0

>  <SCORE.SYSTEM.CONST>
0

>  <SCORE.SYSTEM.DIHEDRAL>
0

>  <SCORE.SYSTEM.SOLV>
0

>  <SCORE.SYSTEM.norm>
0

>  <SCORE.heavy>
10

>  <SCORE.norm>
-1.43998

>  <RMSD>
0.421

$$$$
ligand
 OpenBabel11021811513D
libRbt.so/2013.1/901 2013/11/27
 10 11  0  0  0  0  0  0  0  0999 V2000
  -30.2051   17.0255  -14.9473 N   0  0  0  0  0  0  0  0  0  0  0  0
  -31.0205   18.0752  -14.7806 C   0  0  0  0  0  0  0  0  0  0  0  0
  -31.4453   18.9591  -15.6828 N   0  0  0  0  0  0  0  0  0  0  0  0
  -30.9376   18.6841  -16.8950 C   0  0  0  0  0  0  0  0  0  0  0  0
  -30.0863   17.6447  -17.2216 C   0  0  0  0  0  0  0  0  0  0  0  0
  -29.7112   16.7752  -16.1776 C   0  0  0  0  0  0  0  0  0  0  0  0
  -28.8961   15.7295  -16.3483 N   0  0  0  0  0  0  0  0  0  0  0  0
  -29.7722   17.6743  -18.5697 N   0  0  0  0  0  0  0  0  0  0  0  0
  -30.4277   18.7171  -19.0228 C   0  0  0  0  0  0  0  0  0  0  0  0
  -31.1515   19.3727  -18.0655 N   0  0  0  0  0  0  0  0  0  0  0  0
  1  2  2  0  0  0  0
  1  6  1  0  0  0  0
  2  3  1  0  0  0  0
  3  4  2  0  0  0  0
  4  5  1  0  0  0  0
  4 10  1  0  0  0  0
  5  6  2  0  0  0  0
  5  8  1  0  0  0  0
  6  7  1  0  0  0  0
  8  9  1  0  0  0  0
  9 10  2  0  0  0  0
M  END
>  <CHROM.1>
-30.35987187,17.85702325,-16.76741266,1.25379899,-0.90884809,1.89944969

>  <Name>
ligand

>  <RI>
0

>  <Rbt.Current_Directory>
/home/itssahil/PROJECTS/Mol_Feturizer/New_Systems/rnas/4TZX

>  <Rbt.Executable>
rbdock ($Id: //depot/dev/client3/rdock/2013.1/src/exe/rbdock.cxx#4 $)

>  <Rbt.Library>
libRbt.so (2013.1, Build901 2013/11/27)

>  <Rbt.Parameter_File>
/export/apps/rDock/src/rDock_2013.1_src/data/scripts/dock_solv.prm

>  <Rbt.Receptor>
prm/pocket_docking_4.prm

>  <SCORE>
-14.3937

>  <SCORE.INTER>
-14.3937

>  <SCORE.INTER.CONST>
1

>  <SCORE.INTER.POLAR>
0

>  <SCORE.INTER.ROT>
0

>  <SCORE.INTER.SOLV>
8.169

>  <SCORE.INTER.VDW>
-15.9188

>  <SCORE.INTER.norm>
-1.43937

>  <SCORE.INTRA>
0

>  <SCORE.INTRA.DIHEDRAL>
0

>  <SCORE.INTRA.DIHEDRAL.0>
0

>  <SCORE.INTRA.POLAR>
0

>  <SCORE.INTRA.POLAR.0>
0

>  <SCORE.INTRA.REPUL>
0

>  <SCORE.INTRA.REPUL.0>
0

>  <SCORE.INTRA.SOLV>
0

>  <SCORE.INTRA.SOLV.lig_0>
-23.8949

>  <SCORE.INTRA.VDW>
0

>  <SCORE.INTRA.VDW.0>
0

>  <SCORE.INTRA.norm>
0

>  <SCORE.RESTR>
5.33963e-05

>  <SCORE.RESTR.CAVITY>
5.33963e-05

>  <SCORE.RESTR.norm>
5.33963e-06

>  <SCORE.SYSTEM>
0

>  <SCORE.SYSTEM.CONST>
0

>  <SCORE.SYSTEM.DIHEDRAL>
0

>  <SCORE.SYSTEM.SOLV>
0

>  <SCORE.SYSTEM.norm>
0

>  <SCORE.heavy>
10

>  <SCORE.norm>
-1.43937

>  <RMSD>
0.421

$$$$
ligand
 OpenBabel11021811513D
libRbt.so/2013.1/901 2013/11/27
 10 11  0  0  0  0  0  0  0  0999 V2000
  -30.1652   17.0346  -14.9410 N   0  0  0  0  0  0  0  0  0  0  0  0
  -31.0063   18.0661  -14.7881 C   0  0  0  0  0  0  0  0  0  0  0  0
  -31.4522   18.9274  -15.7018 N   0  0  0  0  0  0  0  0  0  0  0  0
  -30.9374   18.6492  -16.9102 C   0  0  0  0  0  0  0  0  0  0  0  0
  -30.0607   17.6269  -17.2232 C   0  0  0  0  0  0  0  0  0  0  0  0
  -29.6648   16.7806  -16.1679 C   0  0  0  0  0  0  0  0  0  0  0  0
  -28.8241   15.7530  -16.3248 N   0  0  0  0  0  0  0  0  0  0  0  0
  -29.7468   17.6466  -18.5714 N   0  0  0  0  0  0  0  0  0  0  0  0
  -30.4275   18.6671  -19.0382 C   0  0  0  0  0  0  0  0  0  0  0  0
  -31.1676   19.3171  -18.0896 N   0  0  0  0  0  0  0  0  0  0  0  0
  1  2  2  0  0  0  0
  1  6  1  0  0  0  0
  2  3  1  0  0  0  0
  3  4  2  0  0  0  0
  4  5  1  0  0  0  0
  4 10  1  0  0  0  0
  5  6  2  0  0  0  0
  5  8  1  0  0  0  0
  6  7  1  0  0  0  0
  8  9  1  0  0  0  0
  9 10  2  0  0  0  0
M  END
>  <CHROM.1>
-30.33957132,17.83832912,-16.77178266,1.24193789,-0.88542857,1.87716442

>  <Name>
ligand

>  <RI>
0

>  <Rbt.Current_Directory>
/home/itssahil/PROJECTS/Mol_Feturizer/New_Systems/rnas/4TZX

>  <Rbt.Executable>
rbdock ($Id: //depot/dev/client3/rdock/2013.1/src/exe/rbdock.cxx#4 $)

>  <Rbt.Library>
libRbt.so (2013.1, Build901 2013/11/27)

>  <Rbt.Parameter_File>
/export/apps/rDock/src/rDock_2013.1_src/data/scripts/dock_solv.prm

>  <Rbt.Receptor>
prm/pocket_docking_4.prm

>  <SCORE>
-14.4049

>  <SCORE.INTER>
-14.4049

>  <SCORE.INTER.CONST>
1

>  <SCORE.INTER.POLAR>
0

>  <SCORE.INTER.ROT>
0

>  <SCORE.INTER.SOLV>
7.89639

>  <SCORE.INTER.VDW>
-15.8354

>  <SCORE.INTER.norm>
-1.44049

>  <SCORE.INTRA>
0

>  <SCORE.INTRA.DIHEDRAL>
0

>  <SCORE.INTRA.DIHEDRAL.0>
0

>  <SCORE.INTRA.POLAR>
0

>  <SCORE.INTRA.POLAR.0>
0

>  <SCORE.INTRA.REPUL>
0

>  <SCORE.INTRA.REPUL.0>
0

>  <SCORE.INTRA.SOLV>
0

>  <SCORE.INTRA.SOLV.lig_0>
-23.8949

>  <SCORE.INTRA.VDW>
0

>  <SCORE.INTRA.VDW.0>
0

>  <SCORE.INTRA.norm>
0

>  <SCORE.RESTR>
0

>  <SCORE.RESTR.CAVITY>
0

>  <SCORE.RESTR.norm>
0

>  <SCORE.SYSTEM>
0

>  <SCORE.SYSTEM.CONST>
0

>  <SCORE.SYSTEM.DIHEDRAL>
0

>  <SCORE.SYSTEM.SOLV>
0

>  <SCORE.SYSTEM.norm>
0

>  <SCORE.heavy>
10

>  <SCORE.norm>
-1.44049

>  <RMSD>
0.421

$$$$
ligand
 OpenBabel11021811513D
libRbt.so/2013.1/901 2013/11/27
 10 11  0  0  0  0  0  0  0  0999 V2000
  -30.2611   17.0619  -14.9394 N   0  0  0  0  0  0  0  0  0  0  0  0
  -31.0782   18.1155  -14.8094 C   0  0  0  0  0  0  0  0  0  0  0  0
  -31.4797   18.9850  -15.7359 N   0  0  0  0  0  0  0  0  0  0  0  0
  -30.9441   18.6891  -16.9310 C   0  0  0  0  0  0  0  0  0  0  0  0
  -30.0873   17.6432  -17.2201 C   0  0  0  0  0  0  0  0  0  0  0  0
  -29.7387   16.7905  -16.1533 C   0  0  0  0  0  0  0  0  0  0  0  0
  -28.9218   15.7408  -16.2872 N   0  0  0  0  0  0  0  0  0  0  0  0
  -29.7413   17.6498  -18.5606 N   0  0  0  0  0  0  0  0  0  0  0  0
  -30.3839   18.6861  -19.0464 C   0  0  0  0  0  0  0  0  0  0  0  0
  -31.1288   19.3585  -18.1174 N   0  0  0  0  0  0  0  0  0  0  0  0
  1  2  2  0  0  0  0
  1  6  1  0  0  0  0
  2  3  1  0  0  0  0
  3  4  2  0  0  0  0
  4  5  1  0  0  0  0
  4 10  1  0  0  0  0
  5  6  2  0  0  0  0
  5  8  1  0  0  0  0
  6  7  1  0  0  0  0
  8  9  1  0  0  0  0
  9 10  2  0  0  0  0
M  END
>  <CHROM.1>
-30.37111859,17.86337864,-16.77608374,1.29100611,-0.90270500,1.91216581

>  <Name>
ligand

>  <RI>
0

>  <Rbt.Current_Directory>
/home/itssahil/PROJECTS/Mol_Feturizer/New_Systems/rnas/4TZX

>  <Rbt.Executable>
rbdock ($Id: //depot/dev/client3/rdock/2013.1/src/exe/rbdock.cxx#4 $)

>  <Rbt.Library>
libRbt.so (2013.1, Build901 2013/11/27)

>  <Rbt.Parameter_File>
/export/apps/rDock/src/rDock_2013.1_src/data/scripts/dock_solv.prm

>  <Rbt.Receptor>
prm/pocket_docking_6.prm

>  <SCORE>
-14.3812

>  <SCORE.INTER>
-14.3812

>  <SCORE.INTER.CONST>
1

>  <SCORE.INTER.POLAR>
0

>  <SCORE.INTER.ROT>
0

>  <SCORE.INTER.SOLV>
8.13913

>  <SCORE.INTER.VDW>
-15.9005

>  <SCORE.INTER.norm>
-1.43812

>  <SCORE.INTRA>
0

>  <SCORE.INTRA.DIHEDRAL>
0

>  <SCORE.INTRA.DIHEDRAL.0>
0

>  <SCORE.INTRA.POLAR>
0

>  <SCORE.INTRA.POLAR.0>
0

>  <SCORE.INTRA.REPUL>
0

>  <SCORE.INTRA.REPUL.0>
0

>  <SCORE.INTRA.SOLV>
0

>  <SCORE.INTRA.SOLV.lig_0>
-23.8949

>  <SCORE.INTRA.VDW>
0

>  <SCORE.INTRA.VDW.0>
0

>  <SCORE.INTRA.norm>
0

>  <SCORE.RESTR>
0

>  <SCORE.RESTR.CAVITY>
0

>  <SCORE.RESTR.norm>
0

>  <SCORE.SYSTEM>
0

>  <SCORE.SYSTEM.CONST>
0

>  <SCORE.SYSTEM.DIHEDRAL>
0

>  <SCORE.SYSTEM.SOLV>
0

>  <SCORE.SYSTEM.norm>
0

>  <SCORE.heavy>
10

>  <SCORE.norm>
-1.43812

>  <RMSD>
0.421

$$$$
ligand
 OpenBabel11021811513D
libRbt.so/2013.1/901 2013/11/27
 10 11  0  0  0  0  0  0  0  0999 V2000
  -30.1965   17.0323  -14.9454 N   0  0  0  0  0  0  0  0  0  0  0  0
  -31.0415   18.0594  -14.7852 C   0  0  0  0  0  0  0  0  0  0  0  0
  -31.4893   18.9267  -15.6923 N   0  0  0  0  0  0  0  0  0  0  0  0
  -30.9717   18.6605  -16.9023 C   0  0  0  0  0  0  0  0  0  0  0  0
  -30.0908   17.6441  -17.2224 C   0  0  0  0  0  0  0  0  0  0  0  0
  -29.6933   16.7904  -16.1736 C   0  0  0  0  0  0  0  0  0  0  0  0
  -28.8487   15.7673  -16.3379 N   0  0  0  0  0  0  0  0  0  0  0  0
  -29.7750   17.6762  -18.5700 N   0  0  0  0  0  0  0  0  0  0  0  0
  -30.4588   18.6981  -19.0292 C   0  0  0  0  0  0  0  0  0  0  0  0
  -31.2026   19.3374  -18.0763 N   0  0  0  0  0  0  0  0  0  0  0  0
  1  2  2  0  0  0  0
  1  6  1  0  0  0  0
  2  3  1  0  0  0  0
  3  4  2  0  0  0  0
  4  5  1  0  0  0  0
  4 10  1  0  0  0  0
  5  6  2  0  0  0  0
  5  8  1  0  0  0  0
  6  7  1  0  0  0  0
  8  9  1  0  0  0  0
  9 10  2  0  0  0  0
M  END
>  <CHROM.1>
-30.37111515,17.85069353,-16.76967778,1.24239417,-0.88148729,1.88587766

>  <Name>
ligand

>  <RI>
0

>  <Rbt.Current_Directory>
/home/itssahil/PROJECTS/Mol_Feturizer/New_Systems/rnas/4TZX

>  <Rbt.Executable>
rbdock ($Id: //depot/dev/client3/rdock/2013.1/src/exe/rbdock.cxx#4 $)

>  <Rbt.Library>
libRbt.so (2013.1, Build901 2013/11/27)

>  <Rbt.Parameter_File>
/export/apps/rDock/src/rDock_2013.1_src/data/scripts/dock_solv.prm

>  <Rbt.Receptor>
prm/blind_docking_100.prm

>  <SCORE>
-14.3955

>  <SCORE.INTER>
-14.3955

>  <SCORE.INTER.CONST>
1

>  <SCORE.INTER.POLAR>
0

>  <SCORE.INTER.ROT>
0

>  <SCORE.INTER.SOLV>
7.95258

>  <SCORE.INTER.VDW>
-15.8478

>  <SCORE.INTER.norm>
-1.43955

>  <SCORE.INTRA>
0

>  <SCORE.INTRA.DIHEDRAL>
0

>  <SCORE.INTRA.DIHEDRAL.0>
0

>  <SCORE.INTRA.POLAR>
0

>  <SCORE.INTRA.POLAR.0>
0

>  <SCORE.INTRA.REPUL>
0

>  <SCORE.INTRA.REPUL.0>
0

>  <SCORE.INTRA.SOLV>
0

>  <SCORE.INTRA.SOLV.lig_0>
-23.8949

>  <SCORE.INTRA.VDW>
0

>  <SCORE.INTRA.VDW.0>
0

>  <SCORE.INTRA.norm>
0

>  <SCORE.RESTR>
0

>  <SCORE.RESTR.CAVITY>
0

>  <SCORE.RESTR.norm>
0

>  <SCORE.SYSTEM>
0

>  <SCORE.SYSTEM.CONST>
0

>  <SCORE.SYSTEM.DIHEDRAL>
0

>  <SCORE.SYSTEM.SOLV>
0

>  <SCORE.SYSTEM.norm>
0

>  <SCORE.heavy>
10

>  <SCORE.norm>
-1.43955

>  <RMSD>
0.422

$$$$
ligand
 OpenBabel11021811513D
libRbt.so/2013.1/901 2013/11/27
 10 11  0  0  0  0  0  0  0  0999 V2000
  -30.1691   17.0368  -14.9427 N   0  0  0  0  0  0  0  0  0  0  0  0
  -31.0093   18.0691  -14.7899 C   0  0  0  0  0  0  0  0  0  0  0  0
  -31.4546   18.9306  -15.7037 N   0  0  0  0  0  0  0  0  0  0  0  0
  -30.9402   18.6516  -16.9122 C   0  0  0  0  0  0  0  0  0  0  0  0
  -30.0644   17.6285  -17.2250 C   0  0  0  0  0  0  0  0  0  0  0  0
  -29.6691   16.7821  -16.1695 C   0  0  0  0  0  0  0  0  0  0  0  0
  -28.8294   15.7538  -16.3262 N   0  0  0  0  0  0  0  0  0  0  0  0
  -29.7508   17.6475  -18.5733 N   0  0  0  0  0  0  0  0  0  0  0  0
  -30.4306   18.6684  -19.0402 C   0  0  0  0  0  0  0  0  0  0  0  0
  -31.1700   19.3193  -18.0917 N   0  0  0  0  0  0  0  0  0  0  0  0
  1  2  2  0  0  0  0
  1  6  1  0  0  0  0
  2  3  1  0  0  0  0
  3  4  2  0  0  0  0
  4  5  1  0  0  0  0
  4 10  1  0  0  0  0
  5  6  2  0  0  0  0
  5  8  1  0  0  0  0
  6  7  1  0  0  0  0
  8  9  1  0  0  0  0
  9 10  2  0  0  0  0
M  END
>  <CHROM.1>
-30.34307740,17.84024168,-16.77360982,1.24213152,-0.88629157,1.87703136

>  <Name>
ligand

>  <RI>
0

>  <Rbt.Current_Directory>
/home/itssahil/PROJECTS/Mol_Feturizer/New_Systems/rnas/4TZX

>  <Rbt.Executable>
rbdock ($Id: //depot/dev/client3/rdock/2013.1/src/exe/rbdock.cxx#4 $)

>  <Rbt.Library>
libRbt.so (2013.1, Build901 2013/11/27)

>  <Rbt.Parameter_File>
/export/apps/rDock/src/rDock_2013.1_src/data/scripts/dock_solv.prm

>  <Rbt.Receptor>
prm/pocket_docking_6.prm

>  <SCORE>
-14.4022

>  <SCORE.INTER>
-14.4022

>  <SCORE.INTER.CONST>
1

>  <SCORE.INTER.POLAR>
0

>  <SCORE.INTER.ROT>
0

>  <SCORE.INTER.SOLV>
7.91259

>  <SCORE.INTER.VDW>
-15.839

>  <SCORE.INTER.norm>
-1.44022

>  <SCORE.INTRA>
0

>  <SCORE.INTRA.DIHEDRAL>
0

>  <SCORE.INTRA.DIHEDRAL.0>
0

>  <SCORE.INTRA.POLAR>
0

>  <SCORE.INTRA.POLAR.0>
0

>  <SCORE.INTRA.REPUL>
0

>  <SCORE.INTRA.REPUL.0>
0

>  <SCORE.INTRA.SOLV>
0

>  <SCORE.INTRA.SOLV.lig_0>
-23.8949

>  <SCORE.INTRA.VDW>
0

>  <SCORE.INTRA.VDW.0>
0

>  <SCORE.INTRA.norm>
0

>  <SCORE.RESTR>
0

>  <SCORE.RESTR.CAVITY>
0

>  <SCORE.RESTR.norm>
0

>  <SCORE.SYSTEM>
0

>  <SCORE.SYSTEM.CONST>
0

>  <SCORE.SYSTEM.DIHEDRAL>
0

>  <SCORE.SYSTEM.SOLV>
0

>  <SCORE.SYSTEM.norm>
0

>  <SCORE.heavy>
10

>  <SCORE.norm>
-1.44022

>  <RMSD>
0.422

$$$$
ligand
 OpenBabel11021811513D
libRbt.so/2013.1/901 2013/11/27
 10 11  0  0  0  0  0  0  0  0999 V2000
  -30.1822   17.0207  -14.9539 N   0  0  0  0  0  0  0  0  0  0  0  0
  -31.0178   18.0563  -14.7986 C   0  0  0  0  0  0  0  0  0  0  0  0
  -31.4570   18.9238  -15.7097 N   0  0  0  0  0  0  0  0  0  0  0  0
  -30.9413   18.6475  -16.9182 C   0  0  0  0  0  0  0  0  0  0  0  0
  -30.0696   17.6216  -17.2334 C   0  0  0  0  0  0  0  0  0  0  0  0
  -29.6806   16.7689  -16.1808 C   0  0  0  0  0  0  0  0  0  0  0  0
  -28.8454   15.7373  -16.3401 N   0  0  0  0  0  0  0  0  0  0  0  0
  -29.7528   17.6450  -18.5810 N   0  0  0  0  0  0  0  0  0  0  0  0
  -30.4269   18.6711  -19.0450 C   0  0  0  0  0  0  0  0  0  0  0  0
  -31.1652   19.3214  -18.0953 N   0  0  0  0  0  0  0  0  0  0  0  0
  1  2  2  0  0  0  0
  1  6  1  0  0  0  0
  2  3  1  0  0  0  0
  3  4  2  0  0  0  0
  4  5  1  0  0  0  0
  4 10  1  0  0  0  0
  5  6  2  0  0  0  0
  5  8  1  0  0  0  0
  6  7  1  0  0  0  0
  8  9  1  0  0  0  0
  9 10  2  0  0  0  0
M  END
>  <CHROM.1>
-30.34824402,17.83277750,-16.78180654,1.24775902,-0.89009880,1.88568361

>  <Name>
ligand

>  <RI>
0

>  <Rbt.Current_Directory>
/home/itssahil/PROJECTS/Mol_Feturizer/New_Systems/rnas/4TZX

>  <Rbt.Executable>
rbdock ($Id: //depot/dev/client3/rdock/2013.1/src/exe/rbdock.cxx#4 $)

>  <Rbt.Library>
libRbt.so (2013.1, Build901 2013/11/27)

>  <Rbt.Parameter_File>
/export/apps/rDock/src/rDock_2013.1_src/data/scripts/dock_solv.prm

>  <Rbt.Receptor>
prm/pocket_docking_6.prm

>  <SCORE>
-14.3673

>  <SCORE.INTER>
-14.3674

>  <SCORE.INTER.CONST>
1

>  <SCORE.INTER.POLAR>
0

>  <SCORE.INTER.ROT>
0

>  <SCORE.INTER.SOLV>
8.00487

>  <SCORE.INTER.VDW>
-15.8465

>  <SCORE.INTER.norm>
-1.43674

>  <SCORE.INTRA>
0

>  <SCORE.INTRA.DIHEDRAL>
0

>  <SCORE.INTRA.DIHEDRAL.0>
0

>  <SCORE.INTRA.POLAR>
0

>  <SCORE.INTRA.POLAR.0>
0

>  <SCORE.INTRA.REPUL>
0

>  <SCORE.INTRA.REPUL.0>
0

>  <SCORE.INTRA.SOLV>
0

>  <SCORE.INTRA.SOLV.lig_0>
-23.8949

>  <SCORE.INTRA.VDW>
0

>  <SCORE.INTRA.VDW.0>
0

>  <SCORE.INTRA.norm>
0

>  <SCORE.RESTR>
8.65631e-05

>  <SCORE.RESTR.CAVITY>
8.65631e-05

>  <SCORE.RESTR.norm>
8.65631e-06

>  <SCORE.SYSTEM>
0

>  <SCORE.SYSTEM.CONST>
0

>  <SCORE.SYSTEM.DIHEDRAL>
0

>  <SCORE.SYSTEM.SOLV>
0

>  <SCORE.SYSTEM.norm>
0

>  <SCORE.heavy>
10

>  <SCORE.norm>
-1.43673

>  <RMSD>
0.422

$$$$
ligand
 OpenBabel11021811513D
libRbt.so/2013.1/901 2013/11/27
 10 11  0  0  0  0  0  0  0  0999 V2000
  -30.1625   17.0352  -14.9409 N   0  0  0  0  0  0  0  0  0  0  0  0
  -31.0014   18.0678  -14.7833 C   0  0  0  0  0  0  0  0  0  0  0  0
  -31.4486   18.9317  -15.6939 N   0  0  0  0  0  0  0  0  0  0  0  0
  -30.9380   18.6551  -16.9045 C   0  0  0  0  0  0  0  0  0  0  0  0
  -30.0640   17.6320  -17.2222 C   0  0  0  0  0  0  0  0  0  0  0  0
  -29.6663   16.7828  -16.1698 C   0  0  0  0  0  0  0  0  0  0  0  0
  -28.8278   15.7542  -16.3314 N   0  0  0  0  0  0  0  0  0  0  0  0
  -29.7542   17.6540  -18.5713 N   0  0  0  0  0  0  0  0  0  0  0  0
  -30.4346   18.6765  -19.0339 C   0  0  0  0  0  0  0  0  0  0  0  0
  -31.1706   19.3258  -18.0817 N   0  0  0  0  0  0  0  0  0  0  0  0
  1  2  2  0  0  0  0
  1  6  1  0  0  0  0
  2  3  1  0  0  0  0
  3  4  2  0  0  0  0
  4  5  1  0  0  0  0
  4 10  1  0  0  0  0
  5  6  2  0  0  0  0
  5  8  1  0  0  0  0
  6  7  1  0  0  0  0
  8  9  1  0  0  0  0
  9 10  2  0  0  0  0
M  END
>  <CHROM.1>
-30.34112094,17.84298364,-16.76950208,1.23813905,-0.88794535,1.87626640

>  <Name>
ligand

>  <RI>
0

>  <Rbt.Current_Directory>
/home/itssahil/PROJECTS/Mol_Feturizer/New_Systems/rnas/4TZX

>  <Rbt.Executable>
rbdock ($Id: //depot/dev/client3/rdock/2013.1/src/exe/rbdock.cxx#4 $)

>  <Rbt.Library>
libRbt.so (2013.1, Build901 2013/11/27)

>  <Rbt.Parameter_File>
/export/apps/rDock/src/rDock_2013.1_src/data/scripts/dock_solv.prm

>  <Rbt.Receptor>
prm/pocket_docking_6.prm

>  <SCORE>
-14.4024

>  <SCORE.INTER>
-14.4024

>  <SCORE.INTER.CONST>
1

>  <SCORE.INTER.POLAR>
0

>  <SCORE.INTER.ROT>
0

>  <SCORE.INTER.SOLV>
7.91369

>  <SCORE.INTER.VDW>
-15.8395

>  <SCORE.INTER.norm>
-1.44024

>  <SCORE.INTRA>
0

>  <SCORE.INTRA.DIHEDRAL>
0

>  <SCORE.INTRA.DIHEDRAL.0>
0

>  <SCORE.INTRA.POLAR>
0

>  <SCORE.INTRA.POLAR.0>
0

>  <SCORE.INTRA.REPUL>
0

>  <SCORE.INTRA.REPUL.0>
0

>  <SCORE.INTRA.SOLV>
0

>  <SCORE.INTRA.SOLV.lig_0>
-23.8949

>  <SCORE.INTRA.VDW>
0

>  <SCORE.INTRA.VDW.0>
0

>  <SCORE.INTRA.norm>
0

>  <SCORE.RESTR>
0

>  <SCORE.RESTR.CAVITY>
0

>  <SCORE.RESTR.norm>
0

>  <SCORE.SYSTEM>
0

>  <SCORE.SYSTEM.CONST>
0

>  <SCORE.SYSTEM.DIHEDRAL>
0

>  <SCORE.SYSTEM.SOLV>
0

>  <SCORE.SYSTEM.norm>
0

>  <SCORE.heavy>
10

>  <SCORE.norm>
-1.44024

>  <RMSD>
0.422

$$$$
ligand
 OpenBabel11021811513D
libRbt.so/2013.1/901 2013/11/27
 10 11  0  0  0  0  0  0  0  0999 V2000
  -30.2445   17.0614  -14.9390 N   0  0  0  0  0  0  0  0  0  0  0  0
  -31.0649   18.1120  -14.8048 C   0  0  0  0  0  0  0  0  0  0  0  0
  -31.4746   18.9799  -15.7292 N   0  0  0  0  0  0  0  0  0  0  0  0
  -30.9440   18.6860  -16.9271 C   0  0  0  0  0  0  0  0  0  0  0  0
  -30.0849   17.6433  -17.2207 C   0  0  0  0  0  0  0  0  0  0  0  0
  -29.7275   16.7920  -16.1557 C   0  0  0  0  0  0  0  0  0  0  0  0
  -28.9073   15.7454  -16.2939 N   0  0  0  0  0  0  0  0  0  0  0  0
  -29.7460   17.6512  -18.5630 N   0  0  0  0  0  0  0  0  0  0  0  0
  -30.3949   18.6850  -19.0454 C   0  0  0  0  0  0  0  0  0  0  0  0
  -31.1375   19.3547  -18.1126 N   0  0  0  0  0  0  0  0  0  0  0  0
  1  2  2  0  0  0  0
  1  6  1  0  0  0  0
  2  3  1  0  0  0  0
  3  4  2  0  0  0  0
  4  5  1  0  0  0  0
  4 10  1  0  0  0  0
  5  6  2  0  0  0  0
  5  8  1  0  0  0  0
  6  7  1  0  0  0  0
  8  9  1  0  0  0  0
  9 10  2  0  0  0  0
M  END
>  <CHROM.1>
-30.36719634,17.86242505,-16.77517894,1.28102660,-0.90089645,1.90431477

>  <Name>
ligand

>  <RI>
0

>  <Rbt.Current_Directory>
/home/itssahil/PROJECTS/Mol_Feturizer/New_Systems/rnas/4TZX

>  <Rbt.Executable>
rbdock ($Id: //depot/dev/client3/rdock/2013.1/src/exe/rbdock.cxx#4 $)

>  <Rbt.Library>
libRbt.so (2013.1, Build901 2013/11/27)

>  <Rbt.Parameter_File>
/export/apps/rDock/src/rDock_2013.1_src/data/scripts/dock_solv.prm

>  <Rbt.Receptor>
prm/pocket_docking_8.prm

>  <SCORE>
-14.3849

>  <SCORE.INTER>
-14.3849

>  <SCORE.INTER.CONST>
1

>  <SCORE.INTER.POLAR>
0

>  <SCORE.INTER.ROT>
0

>  <SCORE.INTER.SOLV>
8.10186

>  <SCORE.INTER.VDW>
-15.8906

>  <SCORE.INTER.norm>
-1.43849

>  <SCORE.INTRA>
0

>  <SCORE.INTRA.DIHEDRAL>
0

>  <SCORE.INTRA.DIHEDRAL.0>
0

>  <SCORE.INTRA.POLAR>
0

>  <SCORE.INTRA.POLAR.0>
0

>  <SCORE.INTRA.REPUL>
0

>  <SCORE.INTRA.REPUL.0>
0

>  <SCORE.INTRA.SOLV>
0

>  <SCORE.INTRA.SOLV.lig_0>
-23.8949

>  <SCORE.INTRA.VDW>
0

>  <SCORE.INTRA.VDW.0>
0

>  <SCORE.INTRA.norm>
0

>  <SCORE.RESTR>
0

>  <SCORE.RESTR.CAVITY>
0

>  <SCORE.RESTR.norm>
0

>  <SCORE.SYSTEM>
0

>  <SCORE.SYSTEM.CONST>
0

>  <SCORE.SYSTEM.DIHEDRAL>
0

>  <SCORE.SYSTEM.SOLV>
0

>  <SCORE.SYSTEM.norm>
0

>  <SCORE.heavy>
10

>  <SCORE.norm>
-1.43849

>  <RMSD>
0.422

$$$$
ligand
 OpenBabel11021811513D
libRbt.so/2013.1/901 2013/11/27
 10 11  0  0  0  0  0  0  0  0999 V2000
  -30.1696   17.0831  -14.9090 N   0  0  0  0  0  0  0  0  0  0  0  0
  -31.0109   18.1164  -14.7704 C   0  0  0  0  0  0  0  0  0  0  0  0
  -31.4522   18.9687  -15.6947 N   0  0  0  0  0  0  0  0  0  0  0  0
  -30.9319   18.6781  -16.8979 C   0  0  0  0  0  0  0  0  0  0  0  0
  -30.0542   17.6524  -17.1964 C   0  0  0  0  0  0  0  0  0  0  0  0
  -29.6636   16.8165  -16.1309 C   0  0  0  0  0  0  0  0  0  0  0  0
  -28.8227   15.7872  -16.2735 N   0  0  0  0  0  0  0  0  0  0  0  0
  -29.7340   17.6584  -18.5433 N   0  0  0  0  0  0  0  0  0  0  0  0
  -30.4120   18.6744  -19.0235 C   0  0  0  0  0  0  0  0  0  0  0  0
  -31.1562   19.3342  -18.0849 N   0  0  0  0  0  0  0  0  0  0  0  0
  1  2  2  0  0  0  0
  1  6  1  0  0  0  0
  2  3  1  0  0  0  0
  3  4  2  0  0  0  0
  4  5  1  0  0  0  0
  4 10  1  0  0  0  0
  5  6  2  0  0  0  0
  5  8  1  0  0  0  0
  6  7  1  0  0  0  0
  8  9  1  0  0  0  0
  9 10  2  0  0  0  0
M  END
>  <CHROM.1>
-30.33506305,17.86847258,-16.74851510,1.24918884,-0.88443508,1.87272558

>  <Name>
ligand

>  <RI>
0

>  <Rbt.Current_Directory>
/home/itssahil/PROJECTS/Mol_Feturizer/New_Systems/rnas/4TZX

>  <Rbt.Executable>
rbdock ($Id: //depot/dev/client3/rdock/2013.1/src/exe/rbdock.cxx#4 $)

>  <Rbt.Library>
libRbt.so (2013.1, Build901 2013/11/27)

>  <Rbt.Parameter_File>
/export/apps/rDock/src/rDock_2013.1_src/data/scripts/dock_solv.prm

>  <Rbt.Receptor>
prm/pocket_docking_8.prm

>  <SCORE>
-14.3403

>  <SCORE.INTER>
-14.3403

>  <SCORE.INTER.CONST>
1

>  <SCORE.INTER.POLAR>
0

>  <SCORE.INTER.ROT>
0

>  <SCORE.INTER.SOLV>
7.79685

>  <SCORE.INTER.VDW>
-15.7592

>  <SCORE.INTER.norm>
-1.43403

>  <SCORE.INTRA>
0

>  <SCORE.INTRA.DIHEDRAL>
0

>  <SCORE.INTRA.DIHEDRAL.0>
0

>  <SCORE.INTRA.POLAR>
0

>  <SCORE.INTRA.POLAR.0>
0

>  <SCORE.INTRA.REPUL>
0

>  <SCORE.INTRA.REPUL.0>
0

>  <SCORE.INTRA.SOLV>
0

>  <SCORE.INTRA.SOLV.lig_0>
-23.8949

>  <SCORE.INTRA.VDW>
0

>  <SCORE.INTRA.VDW.0>
0

>  <SCORE.INTRA.norm>
0

>  <SCORE.RESTR>
4.76666e-05

>  <SCORE.RESTR.CAVITY>
4.76666e-05

>  <SCORE.RESTR.norm>
4.76666e-06

>  <SCORE.SYSTEM>
0

>  <SCORE.SYSTEM.CONST>
0

>  <SCORE.SYSTEM.DIHEDRAL>
0

>  <SCORE.SYSTEM.SOLV>
0

>  <SCORE.SYSTEM.norm>
0

>  <SCORE.heavy>
10

>  <SCORE.norm>
-1.43403

>  <RMSD>
0.422

$$$$
ligand
 OpenBabel11021811513D
libRbt.so/2013.1/901 2013/11/27
 10 11  0  0  0  0  0  0  0  0999 V2000
  -30.2657   17.0649  -14.9404 N   0  0  0  0  0  0  0  0  0  0  0  0
  -31.0793   18.1215  -14.8115 C   0  0  0  0  0  0  0  0  0  0  0  0
  -31.4771   18.9919  -15.7387 N   0  0  0  0  0  0  0  0  0  0  0  0
  -30.9417   18.6936  -16.9333 C   0  0  0  0  0  0  0  0  0  0  0  0
  -30.0885   17.6445  -17.2213 C   0  0  0  0  0  0  0  0  0  0  0  0
  -29.7435   16.7911  -16.1539 C   0  0  0  0  0  0  0  0  0  0  0  0
  -28.9302   15.7385  -16.2868 N   0  0  0  0  0  0  0  0  0  0  0  0
  -29.7416   17.6493  -18.5616 N   0  0  0  0  0  0  0  0  0  0  0  0
  -30.3802   18.6875  -19.0483 C   0  0  0  0  0  0  0  0  0  0  0  0
  -31.1234   19.3631  -18.1202 N   0  0  0  0  0  0  0  0  0  0  0  0
  1  2  2  0  0  0  0
  1  6  1  0  0  0  0
  2  3  1  0  0  0  0
  3  4  2  0  0  0  0
  4  5  1  0  0  0  0
  4 10  1  0  0  0  0
  5  6  2  0  0  0  0
  5  8  1  0  0  0  0
  6  7  1  0  0  0  0
  8  9  1  0  0  0  0
  9 10  2  0  0  0  0
M  END
>  <CHROM.1>
-30.37180231,17.86592512,-16.77760515,1.29388360,-0.90580308,1.91394328

>  <Name>
ligand

>  <RI>
0

>  <Rbt.Current_Directory>
/home/itssahil/PROJECTS/Mol_Feturizer/New_Systems/rnas/4TZX

>  <Rbt.Executable>
rbdock ($Id: //depot/dev/client3/rdock/2013.1/src/exe/rbdock.cxx#4 $)

>  <Rbt.Library>
libRbt.so (2013.1, Build901 2013/11/27)

>  <Rbt.Parameter_File>
/export/apps/rDock/src/rDock_2013.1_src/data/scripts/dock_solv.prm

>  <Rbt.Receptor>
prm/blind_docking_60.prm

>  <SCORE>
-14.3773

>  <SCORE.INTER>
-14.3773

>  <SCORE.INTER.CONST>
1

>  <SCORE.INTER.POLAR>
0

>  <SCORE.INTER.ROT>
0

>  <SCORE.INTER.SOLV>
8.16621

>  <SCORE.INTER.VDW>
-15.907

>  <SCORE.INTER.norm>
-1.43773

>  <SCORE.INTRA>
0

>  <SCORE.INTRA.DIHEDRAL>
0

>  <SCORE.INTRA.DIHEDRAL.0>
0

>  <SCORE.INTRA.POLAR>
0

>  <SCORE.INTRA.POLAR.0>
0

>  <SCORE.INTRA.REPUL>
0

>  <SCORE.INTRA.REPUL.0>
0

>  <SCORE.INTRA.SOLV>
0

>  <SCORE.INTRA.SOLV.lig_0>
-23.8949

>  <SCORE.INTRA.VDW>
0

>  <SCORE.INTRA.VDW.0>
0

>  <SCORE.INTRA.norm>
0

>  <SCORE.RESTR>
0

>  <SCORE.RESTR.CAVITY>
0

>  <SCORE.RESTR.norm>
0

>  <SCORE.SYSTEM>
0

>  <SCORE.SYSTEM.CONST>
0

>  <SCORE.SYSTEM.DIHEDRAL>
0

>  <SCORE.SYSTEM.SOLV>
0

>  <SCORE.SYSTEM.norm>
0

>  <SCORE.heavy>
10

>  <SCORE.norm>
-1.43773

>  <RMSD>
0.423

$$$$
ligand
 OpenBabel11021811513D
libRbt.so/2013.1/901 2013/11/27
 10 11  0  0  0  0  0  0  0  0999 V2000
  -30.2354   17.0600  -14.9399 N   0  0  0  0  0  0  0  0  0  0  0  0
  -31.0581   18.1083  -14.8025 C   0  0  0  0  0  0  0  0  0  0  0  0
  -31.4725   18.9759  -15.7251 N   0  0  0  0  0  0  0  0  0  0  0  0
  -30.9446   18.6844  -16.9247 C   0  0  0  0  0  0  0  0  0  0  0  0
  -30.0836   17.6441  -17.2215 C   0  0  0  0  0  0  0  0  0  0  0  0
  -29.7211   16.7929  -16.1582 C   0  0  0  0  0  0  0  0  0  0  0  0
  -28.8986   15.7485  -16.2995 N   0  0  0  0  0  0  0  0  0  0  0  0
  -29.7484   17.6540  -18.5647 N   0  0  0  0  0  0  0  0  0  0  0  0
  -30.4014   18.6865  -19.0445 C   0  0  0  0  0  0  0  0  0  0  0  0
  -31.1431   19.3535  -18.1090 N   0  0  0  0  0  0  0  0  0  0  0  0
  1  2  2  0  0  0  0
  1  6  1  0  0  0  0
  2  3  1  0  0  0  0
  3  4  2  0  0  0  0
  4  5  1  0  0  0  0
  4 10  1  0  0  0  0
  5  6  2  0  0  0  0
  5  8  1  0  0  0  0
  6  7  1  0  0  0  0
  8  9  1  0  0  0  0
  9 10  2  0  0  0  0
M  END
>  <CHROM.1>
-30.36523448,17.86219154,-16.77503075,1.27544250,-0.89937572,1.90075784

>  <Name>
ligand

>  <RI>
0

>  <Rbt.Current_Directory>
/home/itssahil/PROJECTS/Mol_Feturizer/New_Systems/rnas/4TZX

>  <Rbt.Executable>
rbdock ($Id: //depot/dev/client3/rdock/2013.1/src/exe/rbdock.cxx#4 $)

>  <Rbt.Library>
libRbt.so (2013.1, Build901 2013/11/27)

>  <Rbt.Parameter_File>
/export/apps/rDock/src/rDock_2013.1_src/data/scripts/dock_solv.prm

>  <Rbt.Receptor>
prm/pocket_docking_3.prm

>  <SCORE>
-14.3873

>  <SCORE.INTER>
-14.3874

>  <SCORE.INTER.CONST>
1

>  <SCORE.INTER.POLAR>
0

>  <SCORE.INTER.ROT>
0

>  <SCORE.INTER.SOLV>
8.08094

>  <SCORE.INTER.VDW>
-15.8852

>  <SCORE.INTER.norm>
-1.43874

>  <SCORE.INTRA>
0

>  <SCORE.INTRA.DIHEDRAL>
0

>  <SCORE.INTRA.DIHEDRAL.0>
0

>  <SCORE.INTRA.POLAR>
0

>  <SCORE.INTRA.POLAR.0>
0

>  <SCORE.INTRA.REPUL>
0

>  <SCORE.INTRA.REPUL.0>
0

>  <SCORE.INTRA.SOLV>
0

>  <SCORE.INTRA.SOLV.lig_0>
-23.8949

>  <SCORE.INTRA.VDW>
0

>  <SCORE.INTRA.VDW.0>
0

>  <SCORE.INTRA.norm>
0

>  <SCORE.RESTR>
2.56541e-05

>  <SCORE.RESTR.CAVITY>
2.56541e-05

>  <SCORE.RESTR.norm>
2.56541e-06

>  <SCORE.SYSTEM>
0

>  <SCORE.SYSTEM.CONST>
0

>  <SCORE.SYSTEM.DIHEDRAL>
0

>  <SCORE.SYSTEM.SOLV>
0

>  <SCORE.SYSTEM.norm>
0

>  <SCORE.heavy>
10

>  <SCORE.norm>
-1.43873

>  <RMSD>
0.423

$$$$
ligand
 OpenBabel11021811513D
libRbt.so/2013.1/901 2013/11/27
 10 11  0  0  0  0  0  0  0  0999 V2000
  -30.2557   17.0643  -14.9394 N   0  0  0  0  0  0  0  0  0  0  0  0
  -31.0701   18.1201  -14.8091 C   0  0  0  0  0  0  0  0  0  0  0  0
  -31.4707   18.9898  -15.7358 N   0  0  0  0  0  0  0  0  0  0  0  0
  -30.9375   18.6916  -16.9314 C   0  0  0  0  0  0  0  0  0  0  0  0
  -30.0837   17.6434  -17.2209 C   0  0  0  0  0  0  0  0  0  0  0  0
  -29.7357   16.7907  -16.1538 C   0  0  0  0  0  0  0  0  0  0  0  0
  -28.9216   15.7389  -16.2881 N   0  0  0  0  0  0  0  0  0  0  0  0
  -29.7396   17.6481  -18.5619 N   0  0  0  0  0  0  0  0  0  0  0  0
  -30.3803   18.6855  -19.0475 C   0  0  0  0  0  0  0  0  0  0  0  0
  -31.1222   19.3606  -18.1181 N   0  0  0  0  0  0  0  0  0  0  0  0
  1  2  2  0  0  0  0
  1  6  1  0  0  0  0
  2  3  1  0  0  0  0
  3  4  2  0  0  0  0
  4  5  1  0  0  0  0
  4 10  1  0  0  0  0
  5  6  2  0  0  0  0
  5  8  1  0  0  0  0
  6  7  1  0  0  0  0
  8  9  1  0  0  0  0
  9 10  2  0  0  0  0
M  END
>  <CHROM.1>
-30.36635530,17.86461961,-16.77660708,1.29019675,-0.90551685,1.91073994

>  <Name>
ligand

>  <RI>
0

>  <Rbt.Current_Directory>
/home/itssahil/PROJECTS/Mol_Feturizer/New_Systems/rnas/4TZX

>  <Rbt.Executable>
rbdock ($Id: //depot/dev/client3/rdock/2013.1/src/exe/rbdock.cxx#4 $)

>  <Rbt.Library>
libRbt.so (2013.1, Build901 2013/11/27)

>  <Rbt.Parameter_File>
/export/apps/rDock/src/rDock_2013.1_src/data/scripts/dock_solv.prm

>  <Rbt.Receptor>
prm/pocket_docking_6.prm

>  <SCORE>
-14.3802

>  <SCORE.INTER>
-14.3802

>  <SCORE.INTER.CONST>
1

>  <SCORE.INTER.POLAR>
0

>  <SCORE.INTER.ROT>
0

>  <SCORE.INTER.SOLV>
8.14551

>  <SCORE.INTER.VDW>
-15.902

>  <SCORE.INTER.norm>
-1.43802

>  <SCORE.INTRA>
0

>  <SCORE.INTRA.DIHEDRAL>
0

>  <SCORE.INTRA.DIHEDRAL.0>
0

>  <SCORE.INTRA.POLAR>
0

>  <SCORE.INTRA.POLAR.0>
0

>  <SCORE.INTRA.REPUL>
0

>  <SCORE.INTRA.REPUL.0>
0

>  <SCORE.INTRA.SOLV>
0

>  <SCORE.INTRA.SOLV.lig_0>
-23.8949

>  <SCORE.INTRA.VDW>
0

>  <SCORE.INTRA.VDW.0>
0

>  <SCORE.INTRA.norm>
0

>  <SCORE.RESTR>
0

>  <SCORE.RESTR.CAVITY>
0

>  <SCORE.RESTR.norm>
0

>  <SCORE.SYSTEM>
0

>  <SCORE.SYSTEM.CONST>
0

>  <SCORE.SYSTEM.DIHEDRAL>
0

>  <SCORE.SYSTEM.SOLV>
0

>  <SCORE.SYSTEM.norm>
0

>  <SCORE.heavy>
10

>  <SCORE.norm>
-1.43802

>  <RMSD>
0.423

$$$$
ligand
 OpenBabel11021811513D
libRbt.so/2013.1/901 2013/11/27
 10 11  0  0  0  0  0  0  0  0999 V2000
  -30.2583   17.0651  -14.9398 N   0  0  0  0  0  0  0  0  0  0  0  0
  -31.0726   18.1211  -14.8108 C   0  0  0  0  0  0  0  0  0  0  0  0
  -31.4721   18.9905  -15.7383 N   0  0  0  0  0  0  0  0  0  0  0  0
  -30.9375   18.6918  -16.9332 C   0  0  0  0  0  0  0  0  0  0  0  0
  -30.0836   17.6433  -17.2212 C   0  0  0  0  0  0  0  0  0  0  0  0
  -29.7370   16.7909  -16.1535 C   0  0  0  0  0  0  0  0  0  0  0  0
  -28.9229   15.7389  -16.2864 N   0  0  0  0  0  0  0  0  0  0  0  0
  -29.7380   17.6475  -18.5619 N   0  0  0  0  0  0  0  0  0  0  0  0
  -30.3779   18.6848  -19.0486 C   0  0  0  0  0  0  0  0  0  0  0  0
  -31.1207   19.3603  -18.1203 N   0  0  0  0  0  0  0  0  0  0  0  0
  1  2  2  0  0  0  0
  1  6  1  0  0  0  0
  2  3  1  0  0  0  0
  3  4  2  0  0  0  0
  4  5  1  0  0  0  0
  4 10  1  0  0  0  0
  5  6  2  0  0  0  0
  5  8  1  0  0  0  0
  6  7  1  0  0  0  0
  8  9  1  0  0  0  0
  9 10  2  0  0  0  0
M  END
>  <CHROM.1>
-30.36671664,17.86476371,-16.77740575,1.29204667,-0.90531172,1.91181201

>  <Name>
ligand

>  <RI>
0

>  <Rbt.Current_Directory>
/home/itssahil/PROJECTS/Mol_Feturizer/New_Systems/rnas/4TZX

>  <Rbt.Executable>
rbdock ($Id: //depot/dev/client3/rdock/2013.1/src/exe/rbdock.cxx#4 $)

>  <Rbt.Library>
libRbt.so (2013.1, Build901 2013/11/27)

>  <Rbt.Parameter_File>
/export/apps/rDock/src/rDock_2013.1_src/data/scripts/dock_solv.prm

>  <Rbt.Receptor>
prm/pocket_docking_8.prm

>  <SCORE>
-14.3791

>  <SCORE.INTER>
-14.3792

>  <SCORE.INTER.CONST>
1

>  <SCORE.INTER.POLAR>
0

>  <SCORE.INTER.ROT>
0

>  <SCORE.INTER.SOLV>
8.14694

>  <SCORE.INTER.VDW>
-15.9018

>  <SCORE.INTER.norm>
-1.43792

>  <SCORE.INTRA>
0

>  <SCORE.INTRA.DIHEDRAL>
0

>  <SCORE.INTRA.DIHEDRAL.0>
0

>  <SCORE.INTRA.POLAR>
0

>  <SCORE.INTRA.POLAR.0>
0

>  <SCORE.INTRA.REPUL>
0

>  <SCORE.INTRA.REPUL.0>
0

>  <SCORE.INTRA.SOLV>
0

>  <SCORE.INTRA.SOLV.lig_0>
-23.8949

>  <SCORE.INTRA.VDW>
0

>  <SCORE.INTRA.VDW.0>
0

>  <SCORE.INTRA.norm>
0

>  <SCORE.RESTR>
0.000134179

>  <SCORE.RESTR.CAVITY>
0.000134179

>  <SCORE.RESTR.norm>
1.34179e-05

>  <SCORE.SYSTEM>
0

>  <SCORE.SYSTEM.CONST>
0

>  <SCORE.SYSTEM.DIHEDRAL>
0

>  <SCORE.SYSTEM.SOLV>
0

>  <SCORE.SYSTEM.norm>
0

>  <SCORE.heavy>
10

>  <SCORE.norm>
-1.43791

>  <RMSD>
0.423

$$$$
ligand
 OpenBabel11021811513D
libRbt.so/2013.1/901 2013/11/27
 10 11  0  0  0  0  0  0  0  0999 V2000
  -30.2049   17.0154  -14.9558 N   0  0  0  0  0  0  0  0  0  0  0  0
  -31.0563   18.0359  -14.7873 C   0  0  0  0  0  0  0  0  0  0  0  0
  -31.5094   18.9077  -15.6875 N   0  0  0  0  0  0  0  0  0  0  0  0
  -30.9903   18.6543  -16.8996 C   0  0  0  0  0  0  0  0  0  0  0  0
  -30.1032   17.6460  -17.2278 C   0  0  0  0  0  0  0  0  0  0  0  0
  -29.7004   16.7864  -16.1859 C   0  0  0  0  0  0  0  0  0  0  0  0
  -28.8495   15.7698  -16.3583 N   0  0  0  0  0  0  0  0  0  0  0  0
  -29.7877   17.6908  -18.5751 N   0  0  0  0  0  0  0  0  0  0  0  0
  -30.4778   18.7120  -19.0262 C   0  0  0  0  0  0  0  0  0  0  0  0
  -31.2254   19.3391  -18.0682 N   0  0  0  0  0  0  0  0  0  0  0  0
  1  2  2  0  0  0  0
  1  6  1  0  0  0  0
  2  3  1  0  0  0  0
  3  4  2  0  0  0  0
  4  5  1  0  0  0  0
  4 10  1  0  0  0  0
  5  6  2  0  0  0  0
  5  8  1  0  0  0  0
  6  7  1  0  0  0  0
  8  9  1  0  0  0  0
  9 10  2  0  0  0  0
M  END
>  <CHROM.1>
-30.38472352,17.84719956,-16.77347037,1.23930124,-0.87565333,1.89147431

>  <Name>
ligand

>  <RI>
0

>  <Rbt.Current_Directory>
/home/itssahil/PROJECTS/Mol_Feturizer/New_Systems/rnas/4TZX

>  <Rbt.Executable>
rbdock ($Id: //depot/dev/client3/rdock/2013.1/src/exe/rbdock.cxx#4 $)

>  <Rbt.Library>
libRbt.so (2013.1, Build901 2013/11/27)

>  <Rbt.Parameter_File>
/export/apps/rDock/src/rDock_2013.1_src/data/scripts/dock_solv.prm

>  <Rbt.Receptor>
prm/blind_docking_100.prm

>  <SCORE>
-14.3384

>  <SCORE.INTER>
-14.3391

>  <SCORE.INTER.CONST>
1

>  <SCORE.INTER.POLAR>
0

>  <SCORE.INTER.ROT>
0

>  <SCORE.INTER.SOLV>
7.98695

>  <SCORE.INTER.VDW>
-15.8217

>  <SCORE.INTER.norm>
-1.43391

>  <SCORE.INTRA>
0

>  <SCORE.INTRA.DIHEDRAL>
0

>  <SCORE.INTRA.DIHEDRAL.0>
0

>  <SCORE.INTRA.POLAR>
0

>  <SCORE.INTRA.POLAR.0>
0

>  <SCORE.INTRA.REPUL>
0

>  <SCORE.INTRA.REPUL.0>
0

>  <SCORE.INTRA.SOLV>
0

>  <SCORE.INTRA.SOLV.lig_0>
-23.8949

>  <SCORE.INTRA.VDW>
0

>  <SCORE.INTRA.VDW.0>
0

>  <SCORE.INTRA.norm>
0

>  <SCORE.RESTR>
0.00071453

>  <SCORE.RESTR.CAVITY>
0.00071453

>  <SCORE.RESTR.norm>
7.1453e-05

>  <SCORE.SYSTEM>
0

>  <SCORE.SYSTEM.CONST>
0

>  <SCORE.SYSTEM.DIHEDRAL>
0

>  <SCORE.SYSTEM.SOLV>
0

>  <SCORE.SYSTEM.norm>
0

>  <SCORE.heavy>
10

>  <SCORE.norm>
-1.43384

>  <RMSD>
0.424

$$$$
ligand
 OpenBabel11021811513D
libRbt.so/2013.1/901 2013/11/27
 10 11  0  0  0  0  0  0  0  0999 V2000
  -30.2160   17.0581  -14.9393 N   0  0  0  0  0  0  0  0  0  0  0  0
  -31.0417   18.1033  -14.7960 C   0  0  0  0  0  0  0  0  0  0  0  0
  -31.4654   18.9698  -15.7153 N   0  0  0  0  0  0  0  0  0  0  0  0
  -30.9444   18.6808  -16.9186 C   0  0  0  0  0  0  0  0  0  0  0  0
  -30.0816   17.6438  -17.2216 C   0  0  0  0  0  0  0  0  0  0  0  0
  -29.7089   16.7934  -16.1612 C   0  0  0  0  0  0  0  0  0  0  0  0
  -28.8836   15.7521  -16.3085 N   0  0  0  0  0  0  0  0  0  0  0  0
  -29.7554   17.6556  -18.5670 N   0  0  0  0  0  0  0  0  0  0  0  0
  -30.4154   18.6859  -19.0419 C   0  0  0  0  0  0  0  0  0  0  0  0
  -31.1532   19.3498  -18.1012 N   0  0  0  0  0  0  0  0  0  0  0  0
  1  2  2  0  0  0  0
  1  6  1  0  0  0  0
  2  3  1  0  0  0  0
  3  4  2  0  0  0  0
  4  5  1  0  0  0  0
  4 10  1  0  0  0  0
  5  6  2  0  0  0  0
  5  8  1  0  0  0  0
  6  7  1  0  0  0  0
  8  9  1  0  0  0  0
  9 10  2  0  0  0  0
M  END
>  <CHROM.1>
-30.36105542,17.86066242,-16.77317742,1.26342192,-0.89802966,1.89183505

>  <Name>
ligand

>  <RI>
0

>  <Rbt.Current_Directory>
/home/itssahil/PROJECTS/Mol_Feturizer/New_Systems/rnas/4TZX

>  <Rbt.Executable>
rbdock ($Id: //depot/dev/client3/rdock/2013.1/src/exe/rbdock.cxx#4 $)

>  <Rbt.Library>
libRbt.so (2013.1, Build901 2013/11/27)

>  <Rbt.Parameter_File>
/export/apps/rDock/src/rDock_2013.1_src/data/scripts/dock_solv.prm

>  <Rbt.Receptor>
prm/blind_docking_100.prm

>  <SCORE>
-14.3878

>  <SCORE.INTER>
-14.3878

>  <SCORE.INTER.CONST>
1

>  <SCORE.INTER.POLAR>
0

>  <SCORE.INTER.ROT>
0

>  <SCORE.INTER.SOLV>
8.04549

>  <SCORE.INTER.VDW>
-15.8737

>  <SCORE.INTER.norm>
-1.43878

>  <SCORE.INTRA>
0

>  <SCORE.INTRA.DIHEDRAL>
0

>  <SCORE.INTRA.DIHEDRAL.0>
0

>  <SCORE.INTRA.POLAR>
0

>  <SCORE.INTRA.POLAR.0>
0

>  <SCORE.INTRA.REPUL>
0

>  <SCORE.INTRA.REPUL.0>
0

>  <SCORE.INTRA.SOLV>
0

>  <SCORE.INTRA.SOLV.lig_0>
-23.8949

>  <SCORE.INTRA.VDW>
0

>  <SCORE.INTRA.VDW.0>
0

>  <SCORE.INTRA.norm>
0

>  <SCORE.RESTR>
0

>  <SCORE.RESTR.CAVITY>
0

>  <SCORE.RESTR.norm>
0

>  <SCORE.SYSTEM>
0

>  <SCORE.SYSTEM.CONST>
0

>  <SCORE.SYSTEM.DIHEDRAL>
0

>  <SCORE.SYSTEM.SOLV>
0

>  <SCORE.SYSTEM.norm>
0

>  <SCORE.heavy>
10

>  <SCORE.norm>
-1.43878

>  <RMSD>
0.424

$$$$
ligand
 OpenBabel11021811513D
libRbt.so/2013.1/901 2013/11/27
 10 11  0  0  0  0  0  0  0  0999 V2000
  -30.1595   17.0414  -14.9387 N   0  0  0  0  0  0  0  0  0  0  0  0
  -31.0005   18.0725  -14.7831 C   0  0  0  0  0  0  0  0  0  0  0  0
  -31.4498   18.9335  -15.6955 N   0  0  0  0  0  0  0  0  0  0  0  0
  -30.9389   18.6553  -16.9056 C   0  0  0  0  0  0  0  0  0  0  0  0
  -30.0628   17.6334  -17.2212 C   0  0  0  0  0  0  0  0  0  0  0  0
  -29.6631   16.7874  -16.1671 C   0  0  0  0  0  0  0  0  0  0  0  0
  -28.8225   15.7602  -16.3267 N   0  0  0  0  0  0  0  0  0  0  0  0
  -29.7534   17.6530  -18.5705 N   0  0  0  0  0  0  0  0  0  0  0  0
  -30.4361   18.6731  -19.0352 C   0  0  0  0  0  0  0  0  0  0  0  0
  -31.1733   19.3229  -18.0843 N   0  0  0  0  0  0  0  0  0  0  0  0
  1  2  2  0  0  0  0
  1  6  1  0  0  0  0
  2  3  1  0  0  0  0
  3  4  2  0  0  0  0
  4  5  1  0  0  0  0
  4 10  1  0  0  0  0
  5  6  2  0  0  0  0
  5  8  1  0  0  0  0
  6  7  1  0  0  0  0
  8  9  1  0  0  0  0
  9 10  2  0  0  0  0
M  END
>  <CHROM.1>
-30.34030102,17.84474051,-16.76898105,1.23674444,-0.88601425,1.87297684

>  <Name>
ligand

>  <RI>
0

>  <Rbt.Current_Directory>
/home/itssahil/PROJECTS/Mol_Feturizer/New_Systems/rnas/4TZX

>  <Rbt.Executable>
rbdock ($Id: //depot/dev/client3/rdock/2013.1/src/exe/rbdock.cxx#4 $)

>  <Rbt.Library>
libRbt.so (2013.1, Build901 2013/11/27)

>  <Rbt.Parameter_File>
/export/apps/rDock/src/rDock_2013.1_src/data/scripts/dock_solv.prm

>  <Rbt.Receptor>
prm/pocket_docking_3.prm

>  <SCORE>
-14.4011

>  <SCORE.INTER>
-14.4011

>  <SCORE.INTER.CONST>
1

>  <SCORE.INTER.POLAR>
0

>  <SCORE.INTER.ROT>
0

>  <SCORE.INTER.SOLV>
7.88214

>  <SCORE.INTER.VDW>
-15.8281

>  <SCORE.INTER.norm>
-1.44011

>  <SCORE.INTRA>
0

>  <SCORE.INTRA.DIHEDRAL>
0

>  <SCORE.INTRA.DIHEDRAL.0>
0

>  <SCORE.INTRA.POLAR>
0

>  <SCORE.INTRA.POLAR.0>
0

>  <SCORE.INTRA.REPUL>
0

>  <SCORE.INTRA.REPUL.0>
0

>  <SCORE.INTRA.SOLV>
0

>  <SCORE.INTRA.SOLV.lig_0>
-23.8949

>  <SCORE.INTRA.VDW>
0

>  <SCORE.INTRA.VDW.0>
0

>  <SCORE.INTRA.norm>
0

>  <SCORE.RESTR>
0

>  <SCORE.RESTR.CAVITY>
0

>  <SCORE.RESTR.norm>
0

>  <SCORE.SYSTEM>
0

>  <SCORE.SYSTEM.CONST>
0

>  <SCORE.SYSTEM.DIHEDRAL>
0

>  <SCORE.SYSTEM.SOLV>
0

>  <SCORE.SYSTEM.norm>
0

>  <SCORE.heavy>
10

>  <SCORE.norm>
-1.44011

>  <RMSD>
0.424

$$$$
ligand
 OpenBabel11021811513D
libRbt.so/2013.1/901 2013/11/27
 10 11  0  0  0  0  0  0  0  0999 V2000
  -30.2136   17.0552  -14.9410 N   0  0  0  0  0  0  0  0  0  0  0  0
  -31.0400   18.0997  -14.7964 C   0  0  0  0  0  0  0  0  0  0  0  0
  -31.4645   18.9669  -15.7147 N   0  0  0  0  0  0  0  0  0  0  0  0
  -30.9433   18.6797  -16.9183 C   0  0  0  0  0  0  0  0  0  0  0  0
  -30.0796   17.6438  -17.2225 C   0  0  0  0  0  0  0  0  0  0  0  0
  -29.7062   16.7924  -16.1631 C   0  0  0  0  0  0  0  0  0  0  0  0
  -28.8801   15.7519  -16.3116 N   0  0  0  0  0  0  0  0  0  0  0  0
  -29.7535   17.6573  -18.5680 N   0  0  0  0  0  0  0  0  0  0  0  0
  -30.4142   18.6877  -19.0416 C   0  0  0  0  0  0  0  0  0  0  0  0
  -31.1526   19.3499  -18.1002 N   0  0  0  0  0  0  0  0  0  0  0  0
  1  2  2  0  0  0  0
  1  6  1  0  0  0  0
  2  3  1  0  0  0  0
  3  4  2  0  0  0  0
  4  5  1  0  0  0  0
  4 10  1  0  0  0  0
  5  6  2  0  0  0  0
  5  8  1  0  0  0  0
  6  7  1  0  0  0  0
  8  9  1  0  0  0  0
  9 10  2  0  0  0  0
M  END
>  <CHROM.1>
-30.35925097,17.85983943,-16.77385090,1.26301005,-0.89727430,1.89267462

>  <Name>
ligand

>  <RI>
0

>  <Rbt.Current_Directory>
/home/itssahil/PROJECTS/Mol_Feturizer/New_Systems/rnas/4TZX

>  <Rbt.Executable>
rbdock ($Id: //depot/dev/client3/rdock/2013.1/src/exe/rbdock.cxx#4 $)

>  <Rbt.Library>
libRbt.so (2013.1, Build901 2013/11/27)

>  <Rbt.Parameter_File>
/export/apps/rDock/src/rDock_2013.1_src/data/scripts/dock_solv.prm

>  <Rbt.Receptor>
prm/pocket_docking_3.prm

>  <SCORE>
-14.3907

>  <SCORE.INTER>
-14.3912

>  <SCORE.INTER.CONST>
1

>  <SCORE.INTER.POLAR>
0

>  <SCORE.INTER.ROT>
0

>  <SCORE.INTER.SOLV>
8.04121

>  <SCORE.INTER.VDW>
-15.8746

>  <SCORE.INTER.norm>
-1.43912

>  <SCORE.INTRA>
0

>  <SCORE.INTRA.DIHEDRAL>
0

>  <SCORE.INTRA.DIHEDRAL.0>
0

>  <SCORE.INTRA.POLAR>
0

>  <SCORE.INTRA.POLAR.0>
0

>  <SCORE.INTRA.REPUL>
0

>  <SCORE.INTRA.REPUL.0>
0

>  <SCORE.INTRA.SOLV>
0

>  <SCORE.INTRA.SOLV.lig_0>
-23.8949

>  <SCORE.INTRA.VDW>
0

>  <SCORE.INTRA.VDW.0>
0

>  <SCORE.INTRA.norm>
0

>  <SCORE.RESTR>
0.000540151

>  <SCORE.RESTR.CAVITY>
0.000540151

>  <SCORE.RESTR.norm>
5.40151e-05

>  <SCORE.SYSTEM>
0

>  <SCORE.SYSTEM.CONST>
0

>  <SCORE.SYSTEM.DIHEDRAL>
0

>  <SCORE.SYSTEM.SOLV>
0

>  <SCORE.SYSTEM.norm>
0

>  <SCORE.heavy>
10

>  <SCORE.norm>
-1.43907

>  <RMSD>
0.424

$$$$
ligand
 OpenBabel11021811513D
libRbt.so/2013.1/901 2013/11/27
 10 11  0  0  0  0  0  0  0  0999 V2000
  -30.2272   17.0688  -14.9368 N   0  0  0  0  0  0  0  0  0  0  0  0
  -31.0508   18.1165  -14.7992 C   0  0  0  0  0  0  0  0  0  0  0  0
  -31.4717   18.9796  -15.7229 N   0  0  0  0  0  0  0  0  0  0  0  0
  -30.9500   18.6838  -16.9243 C   0  0  0  0  0  0  0  0  0  0  0  0
  -30.0891   17.6437  -17.2216 C   0  0  0  0  0  0  0  0  0  0  0  0
  -29.7193   16.7974  -16.1568 C   0  0  0  0  0  0  0  0  0  0  0  0
  -28.8961   15.7536  -16.2984 N   0  0  0  0  0  0  0  0  0  0  0  0
  -29.7614   17.6485  -18.5667 N   0  0  0  0  0  0  0  0  0  0  0  0
  -30.4186   18.6780  -19.0470 C   0  0  0  0  0  0  0  0  0  0  0  0
  -31.1561   19.3478  -18.1103 N   0  0  0  0  0  0  0  0  0  0  0  0
  1  2  2  0  0  0  0
  1  6  1  0  0  0  0
  2  3  1  0  0  0  0
  3  4  2  0  0  0  0
  4  5  1  0  0  0  0
  4 10  1  0  0  0  0
  5  6  2  0  0  0  0
  5  8  1  0  0  0  0
  6  7  1  0  0  0  0
  8  9  1  0  0  0  0
  9 10  2  0  0  0  0
M  END
>  <CHROM.1>
-30.36854501,17.86316597,-16.77444459,1.26615153,-0.89973508,1.88932778

>  <Name>
ligand

>  <RI>
0

>  <Rbt.Current_Directory>
/home/itssahil/PROJECTS/Mol_Feturizer/New_Systems/rnas/4TZX

>  <Rbt.Executable>
rbdock ($Id: //depot/dev/client3/rdock/2013.1/src/exe/rbdock.cxx#4 $)

>  <Rbt.Library>
libRbt.so (2013.1, Build901 2013/11/27)

>  <Rbt.Parameter_File>
/export/apps/rDock/src/rDock_2013.1_src/data/scripts/dock_solv.prm

>  <Rbt.Receptor>
prm/pocket_docking_4.prm

>  <SCORE>
-14.3736

>  <SCORE.INTER>
-14.3736

>  <SCORE.INTER.CONST>
1

>  <SCORE.INTER.POLAR>
0

>  <SCORE.INTER.ROT>
0

>  <SCORE.INTER.SOLV>
8.06215

>  <SCORE.INTER.VDW>
-15.8698

>  <SCORE.INTER.norm>
-1.43736

>  <SCORE.INTRA>
0

>  <SCORE.INTRA.DIHEDRAL>
0

>  <SCORE.INTRA.DIHEDRAL.0>
0

>  <SCORE.INTRA.POLAR>
0

>  <SCORE.INTRA.POLAR.0>
0

>  <SCORE.INTRA.REPUL>
0

>  <SCORE.INTRA.REPUL.0>
0

>  <SCORE.INTRA.SOLV>
0

>  <SCORE.INTRA.SOLV.lig_0>
-23.8949

>  <SCORE.INTRA.VDW>
0

>  <SCORE.INTRA.VDW.0>
0

>  <SCORE.INTRA.norm>
0

>  <SCORE.RESTR>
0

>  <SCORE.RESTR.CAVITY>
0

>  <SCORE.RESTR.norm>
0

>  <SCORE.SYSTEM>
0

>  <SCORE.SYSTEM.CONST>
0

>  <SCORE.SYSTEM.DIHEDRAL>
0

>  <SCORE.SYSTEM.SOLV>
0

>  <SCORE.SYSTEM.norm>
0

>  <SCORE.heavy>
10

>  <SCORE.norm>
-1.43736

>  <RMSD>
0.424

$$$$
ligand
 OpenBabel11021811513D
libRbt.so/2013.1/901 2013/11/27
 10 11  0  0  0  0  0  0  0  0999 V2000
  -30.2197   17.0556  -14.9415 N   0  0  0  0  0  0  0  0  0  0  0  0
  -31.0431   18.1024  -14.7964 C   0  0  0  0  0  0  0  0  0  0  0  0
  -31.4653   18.9711  -15.7144 N   0  0  0  0  0  0  0  0  0  0  0  0
  -30.9453   18.6827  -16.9182 C   0  0  0  0  0  0  0  0  0  0  0  0
  -30.0847   17.6444  -17.2230 C   0  0  0  0  0  0  0  0  0  0  0  0
  -29.7135   16.7917  -16.1639 C   0  0  0  0  0  0  0  0  0  0  0  0
  -28.8904   15.7489  -16.3130 N   0  0  0  0  0  0  0  0  0  0  0  0
  -29.7589   17.6574  -18.5685 N   0  0  0  0  0  0  0  0  0  0  0  0
  -30.4168   18.6898  -19.0417 C   0  0  0  0  0  0  0  0  0  0  0  0
  -31.1530   19.3538  -18.0998 N   0  0  0  0  0  0  0  0  0  0  0  0
  1  2  2  0  0  0  0
  1  6  1  0  0  0  0
  2  3  1  0  0  0  0
  3  4  2  0  0  0  0
  4  5  1  0  0  0  0
  4 10  1  0  0  0  0
  5  6  2  0  0  0  0
  5  8  1  0  0  0  0
  6  7  1  0  0  0  0
  8  9  1  0  0  0  0
  9 10  2  0  0  0  0
M  END
>  <CHROM.1>
-30.36359047,17.86116270,-16.77415250,1.26404879,-0.90010670,1.89377194

>  <Name>
ligand

>  <RI>
0

>  <Rbt.Current_Directory>
/home/itssahil/PROJECTS/Mol_Feturizer/New_Systems/rnas/4TZX

>  <Rbt.Executable>
rbdock ($Id: //depot/dev/client3/rdock/2013.1/src/exe/rbdock.cxx#4 $)

>  <Rbt.Library>
libRbt.so (2013.1, Build901 2013/11/27)

>  <Rbt.Parameter_File>
/export/apps/rDock/src/rDock_2013.1_src/data/scripts/dock_solv.prm

>  <Rbt.Receptor>
prm/pocket_docking_5.prm

>  <SCORE>
-14.3862

>  <SCORE.INTER>
-14.3862

>  <SCORE.INTER.CONST>
1

>  <SCORE.INTER.POLAR>
0

>  <SCORE.INTER.ROT>
0

>  <SCORE.INTER.SOLV>
8.07582

>  <SCORE.INTER.VDW>
-15.8827

>  <SCORE.INTER.norm>
-1.43862

>  <SCORE.INTRA>
0

>  <SCORE.INTRA.DIHEDRAL>
0

>  <SCORE.INTRA.DIHEDRAL.0>
0

>  <SCORE.INTRA.POLAR>
0

>  <SCORE.INTRA.POLAR.0>
0

>  <SCORE.INTRA.REPUL>
0

>  <SCORE.INTRA.REPUL.0>
0

>  <SCORE.INTRA.SOLV>
0

>  <SCORE.INTRA.SOLV.lig_0>
-23.8949

>  <SCORE.INTRA.VDW>
0

>  <SCORE.INTRA.VDW.0>
0

>  <SCORE.INTRA.norm>
0

>  <SCORE.RESTR>
0

>  <SCORE.RESTR.CAVITY>
0

>  <SCORE.RESTR.norm>
0

>  <SCORE.SYSTEM>
0

>  <SCORE.SYSTEM.CONST>
0

>  <SCORE.SYSTEM.DIHEDRAL>
0

>  <SCORE.SYSTEM.SOLV>
0

>  <SCORE.SYSTEM.norm>
0

>  <SCORE.heavy>
10

>  <SCORE.norm>
-1.43862

>  <RMSD>
0.424

$$$$
ligand
 OpenBabel11021811513D
libRbt.so/2013.1/901 2013/11/27
 10 11  0  0  0  0  0  0  0  0999 V2000
  -30.2211   17.0596  -14.9400 N   0  0  0  0  0  0  0  0  0  0  0  0
  -31.0455   18.1061  -14.7992 C   0  0  0  0  0  0  0  0  0  0  0  0
  -31.4658   18.9727  -15.7201 N   0  0  0  0  0  0  0  0  0  0  0  0
  -30.9425   18.6821  -16.9220 C   0  0  0  0  0  0  0  0  0  0  0  0
  -30.0805   17.6437  -17.2223 C   0  0  0  0  0  0  0  0  0  0  0  0
  -29.7115   16.7934  -16.1605 C   0  0  0  0  0  0  0  0  0  0  0  0
  -28.8874   15.7508  -16.3053 N   0  0  0  0  0  0  0  0  0  0  0  0
  -29.7512   17.6542  -18.5670 N   0  0  0  0  0  0  0  0  0  0  0  0
  -30.4085   18.6852  -19.0440 C   0  0  0  0  0  0  0  0  0  0  0  0
  -31.1476   19.3507  -18.1055 N   0  0  0  0  0  0  0  0  0  0  0  0
  1  2  2  0  0  0  0
  1  6  1  0  0  0  0
  2  3  1  0  0  0  0
  3  4  2  0  0  0  0
  4  5  1  0  0  0  0
  4 10  1  0  0  0  0
  5  6  2  0  0  0  0
  5  8  1  0  0  0  0
  6  7  1  0  0  0  0
  8  9  1  0  0  0  0
  9 10  2  0  0  0  0
M  END
>  <CHROM.1>
-30.36067338,17.86122733,-16.77468687,1.26769899,-0.89870599,1.89456449

>  <Name>
ligand

>  <RI>
0

>  <Rbt.Current_Directory>
/home/itssahil/PROJECTS/Mol_Feturizer/New_Systems/rnas/4TZX

>  <Rbt.Executable>
rbdock ($Id: //depot/dev/client3/rdock/2013.1/src/exe/rbdock.cxx#4 $)

>  <Rbt.Library>
libRbt.so (2013.1, Build901 2013/11/27)

>  <Rbt.Parameter_File>
/export/apps/rDock/src/rDock_2013.1_src/data/scripts/dock_solv.prm

>  <Rbt.Receptor>
prm/pocket_docking_5.prm

>  <SCORE>
-14.3882

>  <SCORE.INTER>
-14.3882

>  <SCORE.INTER.CONST>
1

>  <SCORE.INTER.POLAR>
0

>  <SCORE.INTER.ROT>
0

>  <SCORE.INTER.SOLV>
8.05506

>  <SCORE.INTER.VDW>
-15.8772

>  <SCORE.INTER.norm>
-1.43882

>  <SCORE.INTRA>
0

>  <SCORE.INTRA.DIHEDRAL>
0

>  <SCORE.INTRA.DIHEDRAL.0>
0

>  <SCORE.INTRA.POLAR>
0

>  <SCORE.INTRA.POLAR.0>
0

>  <SCORE.INTRA.REPUL>
0

>  <SCORE.INTRA.REPUL.0>
0

>  <SCORE.INTRA.SOLV>
0

>  <SCORE.INTRA.SOLV.lig_0>
-23.8949

>  <SCORE.INTRA.VDW>
0

>  <SCORE.INTRA.VDW.0>
0

>  <SCORE.INTRA.norm>
0

>  <SCORE.RESTR>
0

>  <SCORE.RESTR.CAVITY>
0

>  <SCORE.RESTR.norm>
0

>  <SCORE.SYSTEM>
0

>  <SCORE.SYSTEM.CONST>
0

>  <SCORE.SYSTEM.DIHEDRAL>
0

>  <SCORE.SYSTEM.SOLV>
0

>  <SCORE.SYSTEM.norm>
0

>  <SCORE.heavy>
10

>  <SCORE.norm>
-1.43882

>  <RMSD>
0.424

$$$$
ligand
 OpenBabel11021811513D
libRbt.so/2013.1/901 2013/11/27
 10 11  0  0  0  0  0  0  0  0999 V2000
  -30.2265   17.0578  -14.9410 N   0  0  0  0  0  0  0  0  0  0  0  0
  -31.0482   18.1063  -14.7984 C   0  0  0  0  0  0  0  0  0  0  0  0
  -31.4664   18.9754  -15.7178 N   0  0  0  0  0  0  0  0  0  0  0  0
  -30.9441   18.6852  -16.9203 C   0  0  0  0  0  0  0  0  0  0  0  0
  -30.0849   17.6451  -17.2224 C   0  0  0  0  0  0  0  0  0  0  0  0
  -29.7178   16.7922  -16.1619 C   0  0  0  0  0  0  0  0  0  0  0  0
  -28.8965   15.7477  -16.3085 N   0  0  0  0  0  0  0  0  0  0  0  0
  -29.7558   17.6567  -18.5671 N   0  0  0  0  0  0  0  0  0  0  0  0
  -30.4105   18.6901  -19.0425 C   0  0  0  0  0  0  0  0  0  0  0  0
  -31.1477   19.3561  -18.1028 N   0  0  0  0  0  0  0  0  0  0  0  0
  1  2  2  0  0  0  0
  1  6  1  0  0  0  0
  2  3  1  0  0  0  0
  3  4  2  0  0  0  0
  4  5  1  0  0  0  0
  4 10  1  0  0  0  0
  5  6  2  0  0  0  0
  5  8  1  0  0  0  0
  6  7  1  0  0  0  0
  8  9  1  0  0  0  0
  9 10  2  0  0  0  0
M  END
>  <CHROM.1>
-30.36438260,17.86263516,-16.77436700,1.26872541,-0.90122912,1.89687643

>  <Name>
ligand

>  <RI>
0

>  <Rbt.Current_Directory>
/home/itssahil/PROJECTS/Mol_Feturizer/New_Systems/rnas/4TZX

>  <Rbt.Executable>
rbdock ($Id: //depot/dev/client3/rdock/2013.1/src/exe/rbdock.cxx#4 $)

>  <Rbt.Library>
libRbt.so (2013.1, Build901 2013/11/27)

>  <Rbt.Parameter_File>
/export/apps/rDock/src/rDock_2013.1_src/data/scripts/dock_solv.prm

>  <Rbt.Receptor>
prm/pocket_docking_6.prm

>  <SCORE>
-14.3858

>  <SCORE.INTER>
-14.3858

>  <SCORE.INTER.CONST>
1

>  <SCORE.INTER.POLAR>
0

>  <SCORE.INTER.ROT>
0

>  <SCORE.INTER.SOLV>
8.08885

>  <SCORE.INTER.VDW>
-15.8868

>  <SCORE.INTER.norm>
-1.43858

>  <SCORE.INTRA>
0

>  <SCORE.INTRA.DIHEDRAL>
0

>  <SCORE.INTRA.DIHEDRAL.0>
0

>  <SCORE.INTRA.POLAR>
0

>  <SCORE.INTRA.POLAR.0>
0

>  <SCORE.INTRA.REPUL>
0

>  <SCORE.INTRA.REPUL.0>
0

>  <SCORE.INTRA.SOLV>
0

>  <SCORE.INTRA.SOLV.lig_0>
-23.8949

>  <SCORE.INTRA.VDW>
0

>  <SCORE.INTRA.VDW.0>
0

>  <SCORE.INTRA.norm>
0

>  <SCORE.RESTR>
0

>  <SCORE.RESTR.CAVITY>
0

>  <SCORE.RESTR.norm>
0

>  <SCORE.SYSTEM>
0

>  <SCORE.SYSTEM.CONST>
0

>  <SCORE.SYSTEM.DIHEDRAL>
0

>  <SCORE.SYSTEM.SOLV>
0

>  <SCORE.SYSTEM.norm>
0

>  <SCORE.heavy>
10

>  <SCORE.norm>
-1.43858

>  <RMSD>
0.424

$$$$
ligand
 OpenBabel11021811513D
libRbt.so/2013.1/901 2013/11/27
 10 11  0  0  0  0  0  0  0  0999 V2000
  -30.2342   17.0528  -14.9477 N   0  0  0  0  0  0  0  0  0  0  0  0
  -31.0625   18.0973  -14.8149 C   0  0  0  0  0  0  0  0  0  0  0  0
  -31.4791   18.9606  -15.7405 N   0  0  0  0  0  0  0  0  0  0  0  0
  -30.9469   18.6688  -16.9381 C   0  0  0  0  0  0  0  0  0  0  0  0
  -30.0799   17.6322  -17.2304 C   0  0  0  0  0  0  0  0  0  0  0  0
  -29.7156   16.7853  -16.1641 C   0  0  0  0  0  0  0  0  0  0  0  0
  -28.8876   15.7448  -16.3010 N   0  0  0  0  0  0  0  0  0  0  0  0
  -29.7416   17.6405  -18.5728 N   0  0  0  0  0  0  0  0  0  0  0  0
  -30.3986   18.6686  -19.0566 C   0  0  0  0  0  0  0  0  0  0  0  0
  -31.1459   19.3341  -18.1246 N   0  0  0  0  0  0  0  0  0  0  0  0
  1  2  2  0  0  0  0
  1  6  1  0  0  0  0
  2  3  1  0  0  0  0
  3  4  2  0  0  0  0
  4  5  1  0  0  0  0
  4 10  1  0  0  0  0
  5  6  2  0  0  0  0
  5  8  1  0  0  0  0
  6  7  1  0  0  0  0
  8  9  1  0  0  0  0
  9 10  2  0  0  0  0
M  END
>  <CHROM.1>
-30.36368631,17.84990195,-16.78509027,1.27644356,-0.89382597,1.89911849

>  <Name>
ligand

>  <RI>
0

>  <Rbt.Current_Directory>
/home/itssahil/PROJECTS/Mol_Feturizer/New_Systems/rnas/4TZX

>  <Rbt.Executable>
rbdock ($Id: //depot/dev/client3/rdock/2013.1/src/exe/rbdock.cxx#4 $)

>  <Rbt.Library>
libRbt.so (2013.1, Build901 2013/11/27)

>  <Rbt.Parameter_File>
/export/apps/rDock/src/rDock_2013.1_src/data/scripts/dock_solv.prm

>  <Rbt.Receptor>
prm/pocket_docking_6.prm

>  <SCORE>
-14.3484

>  <SCORE.INTER>
-14.3484

>  <SCORE.INTER.CONST>
1

>  <SCORE.INTER.POLAR>
0

>  <SCORE.INTER.ROT>
0

>  <SCORE.INTER.SOLV>
8.06021

>  <SCORE.INTER.VDW>
-15.8524

>  <SCORE.INTER.norm>
-1.43484

>  <SCORE.INTRA>
0

>  <SCORE.INTRA.DIHEDRAL>
0

>  <SCORE.INTRA.DIHEDRAL.0>
0

>  <SCORE.INTRA.POLAR>
0

>  <SCORE.INTRA.POLAR.0>
0

>  <SCORE.INTRA.REPUL>
0

>  <SCORE.INTRA.REPUL.0>
0

>  <SCORE.INTRA.SOLV>
0

>  <SCORE.INTRA.SOLV.lig_0>
-23.8949

>  <SCORE.INTRA.VDW>
0

>  <SCORE.INTRA.VDW.0>
0

>  <SCORE.INTRA.norm>
0

>  <SCORE.RESTR>
0

>  <SCORE.RESTR.CAVITY>
0

>  <SCORE.RESTR.norm>
0

>  <SCORE.SYSTEM>
0

>  <SCORE.SYSTEM.CONST>
0

>  <SCORE.SYSTEM.DIHEDRAL>
0

>  <SCORE.SYSTEM.SOLV>
0

>  <SCORE.SYSTEM.norm>
0

>  <SCORE.heavy>
10

>  <SCORE.norm>
-1.43484

>  <RMSD>
0.424

$$$$
ligand
 OpenBabel11021811513D
libRbt.so/2013.1/901 2013/11/27
 10 11  0  0  0  0  0  0  0  0999 V2000
  -30.2597   16.9418  -15.0053 N   0  0  0  0  0  0  0  0  0  0  0  0
  -31.0500   18.0082  -14.8239 C   0  0  0  0  0  0  0  0  0  0  0  0
  -31.4452   18.9201  -15.7115 N   0  0  0  0  0  0  0  0  0  0  0  0
  -30.9350   18.6563  -16.9251 C   0  0  0  0  0  0  0  0  0  0  0  0
  -30.1074   17.6025  -17.2659 C   0  0  0  0  0  0  0  0  0  0  0  0
  -29.7624   16.7035  -16.2366 C   0  0  0  0  0  0  0  0  0  0  0  0
  -28.9724   15.6411  -16.4219 N   0  0  0  0  0  0  0  0  0  0  0  0
  -29.7819   17.6507  -18.6107 N   0  0  0  0  0  0  0  0  0  0  0  0
  -30.4074   18.7185  -19.0479 C   0  0  0  0  0  0  0  0  0  0  0  0
  -31.1222   19.3730  -18.0831 N   0  0  0  0  0  0  0  0  0  0  0  0
  1  2  2  0  0  0  0
  1  6  1  0  0  0  0
  2  3  1  0  0  0  0
  3  4  2  0  0  0  0
  4  5  1  0  0  0  0
  4 10  1  0  0  0  0
  5  6  2  0  0  0  0
  5  8  1  0  0  0  0
  6  7  1  0  0  0  0
  8  9  1  0  0  0  0
  9 10  2  0  0  0  0
M  END
>  <CHROM.1>
-30.37912500,17.81266270,-16.80959968,1.27994432,-0.92978807,1.94004341

>  <Name>
ligand

>  <RI>
0

>  <Rbt.Current_Directory>
/home/itssahil/PROJECTS/Mol_Feturizer/New_Systems/rnas/4TZX

>  <Rbt.Executable>
rbdock ($Id: //depot/dev/client3/rdock/2013.1/src/exe/rbdock.cxx#4 $)

>  <Rbt.Library>
libRbt.so (2013.1, Build901 2013/11/27)

>  <Rbt.Parameter_File>
/export/apps/rDock/src/rDock_2013.1_src/data/scripts/dock_solv.prm

>  <Rbt.Receptor>
prm/pocket_docking_7.prm

>  <SCORE>
-14.3478

>  <SCORE.INTER>
-14.3478

>  <SCORE.INTER.CONST>
1

>  <SCORE.INTER.POLAR>
0

>  <SCORE.INTER.ROT>
0

>  <SCORE.INTER.SOLV>
8.60649

>  <SCORE.INTER.VDW>
-16.034

>  <SCORE.INTER.norm>
-1.43478

>  <SCORE.INTRA>
0

>  <SCORE.INTRA.DIHEDRAL>
0

>  <SCORE.INTRA.DIHEDRAL.0>
0

>  <SCORE.INTRA.POLAR>
0

>  <SCORE.INTRA.POLAR.0>
0

>  <SCORE.INTRA.REPUL>
0

>  <SCORE.INTRA.REPUL.0>
0

>  <SCORE.INTRA.SOLV>
0

>  <SCORE.INTRA.SOLV.lig_0>
-23.8949

>  <SCORE.INTRA.VDW>
0

>  <SCORE.INTRA.VDW.0>
0

>  <SCORE.INTRA.norm>
0

>  <SCORE.RESTR>
0

>  <SCORE.RESTR.CAVITY>
0

>  <SCORE.RESTR.norm>
0

>  <SCORE.SYSTEM>
0

>  <SCORE.SYSTEM.CONST>
0

>  <SCORE.SYSTEM.DIHEDRAL>
0

>  <SCORE.SYSTEM.SOLV>
0

>  <SCORE.SYSTEM.norm>
0

>  <SCORE.heavy>
10

>  <SCORE.norm>
-1.43478

>  <RMSD>
0.424

$$$$
ligand
 OpenBabel11021811513D
libRbt.so/2013.1/901 2013/11/27
 10 11  0  0  0  0  0  0  0  0999 V2000
  -30.2575   17.0680  -14.9392 N   0  0  0  0  0  0  0  0  0  0  0  0
  -31.0741   18.1224  -14.8119 C   0  0  0  0  0  0  0  0  0  0  0  0
  -31.4751   18.9897  -15.7406 N   0  0  0  0  0  0  0  0  0  0  0  0
  -30.9396   18.6906  -16.9350 C   0  0  0  0  0  0  0  0  0  0  0  0
  -30.0834   17.6436  -17.2214 C   0  0  0  0  0  0  0  0  0  0  0  0
  -29.7352   16.7934  -16.1525 C   0  0  0  0  0  0  0  0  0  0  0  0
  -28.9188   15.7429  -16.2838 N   0  0  0  0  0  0  0  0  0  0  0  0
  -29.7374   17.6467  -18.5619 N   0  0  0  0  0  0  0  0  0  0  0  0
  -30.3794   18.6821  -19.0503 C   0  0  0  0  0  0  0  0  0  0  0  0
  -31.1239   19.3572  -18.1230 N   0  0  0  0  0  0  0  0  0  0  0  0
  1  2  2  0  0  0  0
  1  6  1  0  0  0  0
  2  3  1  0  0  0  0
  3  4  2  0  0  0  0
  4  5  1  0  0  0  0
  4 10  1  0  0  0  0
  5  6  2  0  0  0  0
  5  8  1  0  0  0  0
  6  7  1  0  0  0  0
  8  9  1  0  0  0  0
  9 10  2  0  0  0  0
M  END
>  <CHROM.1>
-30.36707481,17.86502029,-16.77794943,1.29130986,-0.90318829,1.90992795

>  <Name>
ligand

>  <RI>
0

>  <Rbt.Current_Directory>
/home/itssahil/PROJECTS/Mol_Feturizer/New_Systems/rnas/4TZX

>  <Rbt.Executable>
rbdock ($Id: //depot/dev/client3/rdock/2013.1/src/exe/rbdock.cxx#4 $)

>  <Rbt.Library>
libRbt.so (2013.1, Build901 2013/11/27)

>  <Rbt.Parameter_File>
/export/apps/rDock/src/rDock_2013.1_src/data/scripts/dock_solv.prm

>  <Rbt.Receptor>
prm/pocket_docking_8.prm

>  <SCORE>
-14.3782

>  <SCORE.INTER>
-14.3783

>  <SCORE.INTER.CONST>
1

>  <SCORE.INTER.POLAR>
0

>  <SCORE.INTER.ROT>
0

>  <SCORE.INTER.SOLV>
8.12542

>  <SCORE.INTER.VDW>
-15.894

>  <SCORE.INTER.norm>
-1.43783

>  <SCORE.INTRA>
0

>  <SCORE.INTRA.DIHEDRAL>
0

>  <SCORE.INTRA.DIHEDRAL.0>
0

>  <SCORE.INTRA.POLAR>
0

>  <SCORE.INTRA.POLAR.0>
0

>  <SCORE.INTRA.REPUL>
0

>  <SCORE.INTRA.REPUL.0>
0

>  <SCORE.INTRA.SOLV>
0

>  <SCORE.INTRA.SOLV.lig_0>
-23.8949

>  <SCORE.INTRA.VDW>
0

>  <SCORE.INTRA.VDW.0>
0

>  <SCORE.INTRA.norm>
0

>  <SCORE.RESTR>
6.80244e-05

>  <SCORE.RESTR.CAVITY>
6.80244e-05

>  <SCORE.RESTR.norm>
6.80244e-06

>  <SCORE.SYSTEM>
0

>  <SCORE.SYSTEM.CONST>
0

>  <SCORE.SYSTEM.DIHEDRAL>
0

>  <SCORE.SYSTEM.SOLV>
0

>  <SCORE.SYSTEM.norm>
0

>  <SCORE.heavy>
10

>  <SCORE.norm>
-1.43782

>  <RMSD>
0.424

$$$$
ligand
 OpenBabel11021811513D
libRbt.so/2013.1/901 2013/11/27
 10 11  0  0  0  0  0  0  0  0999 V2000
  -30.2478   17.0686  -14.9403 N   0  0  0  0  0  0  0  0  0  0  0  0
  -31.0703   18.1181  -14.8099 C   0  0  0  0  0  0  0  0  0  0  0  0
  -31.4804   18.9828  -15.7371 N   0  0  0  0  0  0  0  0  0  0  0  0
  -30.9478   18.6868  -16.9335 C   0  0  0  0  0  0  0  0  0  0  0  0
  -30.0864   17.6449  -17.2233 C   0  0  0  0  0  0  0  0  0  0  0  0
  -29.7288   16.7970  -16.1556 C   0  0  0  0  0  0  0  0  0  0  0  0
  -28.9066   15.7515  -16.2901 N   0  0  0  0  0  0  0  0  0  0  0  0
  -29.7457   17.6499  -18.5652 N   0  0  0  0  0  0  0  0  0  0  0  0
  -30.3960   18.6813  -19.0511 C   0  0  0  0  0  0  0  0  0  0  0  0
  -31.1409   19.3520  -18.1209 N   0  0  0  0  0  0  0  0  0  0  0  0
  1  2  2  0  0  0  0
  1  6  1  0  0  0  0
  2  3  1  0  0  0  0
  3  4  2  0  0  0  0
  4  5  1  0  0  0  0
  4 10  1  0  0  0  0
  5  6  2  0  0  0  0
  5  8  1  0  0  0  0
  6  7  1  0  0  0  0
  8  9  1  0  0  0  0
  9 10  2  0  0  0  0
M  END
>  <CHROM.1>
-30.36963931,17.86467190,-16.77870224,1.28200421,-0.89876584,1.90248689

>  <Name>
ligand

>  <RI>
0

>  <Rbt.Current_Directory>
/home/itssahil/PROJECTS/Mol_Feturizer/New_Systems/rnas/4TZX

>  <Rbt.Executable>
rbdock ($Id: //depot/dev/client3/rdock/2013.1/src/exe/rbdock.cxx#4 $)

>  <Rbt.Library>
libRbt.so (2013.1, Build901 2013/11/27)

>  <Rbt.Parameter_File>
/export/apps/rDock/src/rDock_2013.1_src/data/scripts/dock_solv.prm

>  <Rbt.Receptor>
prm/blind_docking_60.prm

>  <SCORE>
-14.3798

>  <SCORE.INTER>
-14.3798

>  <SCORE.INTER.CONST>
1

>  <SCORE.INTER.POLAR>
0

>  <SCORE.INTER.ROT>
0

>  <SCORE.INTER.SOLV>
8.08476

>  <SCORE.INTER.VDW>
-15.8815

>  <SCORE.INTER.norm>
-1.43798

>  <SCORE.INTRA>
0

>  <SCORE.INTRA.DIHEDRAL>
0

>  <SCORE.INTRA.DIHEDRAL.0>
0

>  <SCORE.INTRA.POLAR>
0

>  <SCORE.INTRA.POLAR.0>
0

>  <SCORE.INTRA.REPUL>
0

>  <SCORE.INTRA.REPUL.0>
0

>  <SCORE.INTRA.SOLV>
0

>  <SCORE.INTRA.SOLV.lig_0>
-23.8949

>  <SCORE.INTRA.VDW>
0

>  <SCORE.INTRA.VDW.0>
0

>  <SCORE.INTRA.norm>
0

>  <SCORE.RESTR>
0

>  <SCORE.RESTR.CAVITY>
0

>  <SCORE.RESTR.norm>
0

>  <SCORE.SYSTEM>
0

>  <SCORE.SYSTEM.CONST>
0

>  <SCORE.SYSTEM.DIHEDRAL>
0

>  <SCORE.SYSTEM.SOLV>
0

>  <SCORE.SYSTEM.norm>
0

>  <SCORE.heavy>
10

>  <SCORE.norm>
-1.43798

>  <RMSD>
0.425

$$$$
ligand
 OpenBabel11021811513D
libRbt.so/2013.1/901 2013/11/27
 10 11  0  0  0  0  0  0  0  0999 V2000
  -30.3004   17.0731  -14.9410 N   0  0  0  0  0  0  0  0  0  0  0  0
  -31.1069   18.1359  -14.8200 C   0  0  0  0  0  0  0  0  0  0  0  0
  -31.4904   19.0083  -15.7513 N   0  0  0  0  0  0  0  0  0  0  0  0
  -30.9472   18.7048  -16.9411 C   0  0  0  0  0  0  0  0  0  0  0  0
  -30.0994   17.6490  -17.2209 C   0  0  0  0  0  0  0  0  0  0  0  0
  -29.7700   16.7941  -16.1497 C   0  0  0  0  0  0  0  0  0  0  0  0
  -28.9636   15.7353  -16.2748 N   0  0  0  0  0  0  0  0  0  0  0  0
  -29.7412   17.6499  -18.5582 N   0  0  0  0  0  0  0  0  0  0  0  0
  -30.3678   18.6925  -19.0512 C   0  0  0  0  0  0  0  0  0  0  0  0
  -31.1137   19.3745  -18.1300 N   0  0  0  0  0  0  0  0  0  0  0  0
  1  2  2  0  0  0  0
  1  6  1  0  0  0  0
  2  3  1  0  0  0  0
  3  4  2  0  0  0  0
  4  5  1  0  0  0  0
  4 10  1  0  0  0  0
  5  6  2  0  0  0  0
  5  8  1  0  0  0  0
  6  7  1  0  0  0  0
  8  9  1  0  0  0  0
  9 10  2  0  0  0  0
M  END
>  <CHROM.1>
-30.38482796,17.87304211,-16.77977399,1.31100562,-0.91001332,1.92649482

>  <Name>
ligand

>  <RI>
0

>  <Rbt.Current_Directory>
/home/itssahil/PROJECTS/Mol_Feturizer/New_Systems/rnas/4TZX

>  <Rbt.Executable>
rbdock ($Id: //depot/dev/client3/rdock/2013.1/src/exe/rbdock.cxx#4 $)

>  <Rbt.Library>
libRbt.so (2013.1, Build901 2013/11/27)

>  <Rbt.Parameter_File>
/export/apps/rDock/src/rDock_2013.1_src/data/scripts/dock_solv.prm

>  <Rbt.Receptor>
prm/blind_docking_60.prm

>  <SCORE>
-14.3594

>  <SCORE.INTER>
-14.3594

>  <SCORE.INTER.CONST>
1

>  <SCORE.INTER.POLAR>
0

>  <SCORE.INTER.ROT>
0

>  <SCORE.INTER.SOLV>
8.24067

>  <SCORE.INTER.VDW>
-15.9198

>  <SCORE.INTER.norm>
-1.43594

>  <SCORE.INTRA>
0

>  <SCORE.INTRA.DIHEDRAL>
0

>  <SCORE.INTRA.DIHEDRAL.0>
0

>  <SCORE.INTRA.POLAR>
0

>  <SCORE.INTRA.POLAR.0>
0

>  <SCORE.INTRA.REPUL>
0

>  <SCORE.INTRA.REPUL.0>
0

>  <SCORE.INTRA.SOLV>
0

>  <SCORE.INTRA.SOLV.lig_0>
-23.8949

>  <SCORE.INTRA.VDW>
0

>  <SCORE.INTRA.VDW.0>
0

>  <SCORE.INTRA.norm>
0

>  <SCORE.RESTR>
0

>  <SCORE.RESTR.CAVITY>
0

>  <SCORE.RESTR.norm>
0

>  <SCORE.SYSTEM>
0

>  <SCORE.SYSTEM.CONST>
0

>  <SCORE.SYSTEM.DIHEDRAL>
0

>  <SCORE.SYSTEM.SOLV>
0

>  <SCORE.SYSTEM.norm>
0

>  <SCORE.heavy>
10

>  <SCORE.norm>
-1.43594

>  <RMSD>
0.425

$$$$
ligand
 OpenBabel11021811513D
libRbt.so/2013.1/901 2013/11/27
 10 11  0  0  0  0  0  0  0  0999 V2000
  -30.2147   17.0607  -14.9397 N   0  0  0  0  0  0  0  0  0  0  0  0
  -31.0422   18.1048  -14.7985 C   0  0  0  0  0  0  0  0  0  0  0  0
  -31.4664   18.9695  -15.7193 N   0  0  0  0  0  0  0  0  0  0  0  0
  -30.9437   18.6798  -16.9217 C   0  0  0  0  0  0  0  0  0  0  0  0
  -30.0789   17.6439  -17.2226 C   0  0  0  0  0  0  0  0  0  0  0  0
  -29.7058   16.7954  -16.1607 C   0  0  0  0  0  0  0  0  0  0  0  0
  -28.8786   15.7554  -16.3060 N   0  0  0  0  0  0  0  0  0  0  0  0
  -29.7514   17.6546  -18.5677 N   0  0  0  0  0  0  0  0  0  0  0  0
  -30.4125   18.6833  -19.0445 C   0  0  0  0  0  0  0  0  0  0  0  0
  -31.1525   19.3470  -18.1054 N   0  0  0  0  0  0  0  0  0  0  0  0
  1  2  2  0  0  0  0
  1  6  1  0  0  0  0
  2  3  1  0  0  0  0
  3  4  2  0  0  0  0
  4  5  1  0  0  0  0
  4 10  1  0  0  0  0
  5  6  2  0  0  0  0
  5  8  1  0  0  0  0
  6  7  1  0  0  0  0
  8  9  1  0  0  0  0
  9 10  2  0  0  0  0
M  END
>  <CHROM.1>
-30.35914504,17.86084882,-16.77469520,1.26413049,-0.89612390,1.89117426

>  <Name>
ligand

>  <RI>
0

>  <Rbt.Current_Directory>
/home/itssahil/PROJECTS/Mol_Feturizer/New_Systems/rnas/4TZX

>  <Rbt.Executable>
rbdock ($Id: //depot/dev/client3/rdock/2013.1/src/exe/rbdock.cxx#4 $)

>  <Rbt.Library>
libRbt.so (2013.1, Build901 2013/11/27)

>  <Rbt.Parameter_File>
/export/apps/rDock/src/rDock_2013.1_src/data/scripts/dock_solv.prm

>  <Rbt.Receptor>
prm/pocket_docking_3.prm

>  <SCORE>
-14.389

>  <SCORE.INTER>
-14.3892

>  <SCORE.INTER.CONST>
1

>  <SCORE.INTER.POLAR>
0

>  <SCORE.INTER.ROT>
0

>  <SCORE.INTER.SOLV>
8.02409

>  <SCORE.INTER.VDW>
-15.8675

>  <SCORE.INTER.norm>
-1.43892

>  <SCORE.INTRA>
0

>  <SCORE.INTRA.DIHEDRAL>
0

>  <SCORE.INTRA.DIHEDRAL.0>
0

>  <SCORE.INTRA.POLAR>
0

>  <SCORE.INTRA.POLAR.0>
0

>  <SCORE.INTRA.REPUL>
0

>  <SCORE.INTRA.REPUL.0>
0

>  <SCORE.INTRA.SOLV>
0

>  <SCORE.INTRA.SOLV.lig_0>
-23.8949

>  <SCORE.INTRA.VDW>
0

>  <SCORE.INTRA.VDW.0>
0

>  <SCORE.INTRA.norm>
0

>  <SCORE.RESTR>
0.000146041

>  <SCORE.RESTR.CAVITY>
0.000146041

>  <SCORE.RESTR.norm>
1.46041e-05

>  <SCORE.SYSTEM>
0

>  <SCORE.SYSTEM.CONST>
0

>  <SCORE.SYSTEM.DIHEDRAL>
0

>  <SCORE.SYSTEM.SOLV>
0

>  <SCORE.SYSTEM.norm>
0

>  <SCORE.heavy>
10

>  <SCORE.norm>
-1.4389

>  <RMSD>
0.425

$$$$
ligand
 OpenBabel11021811513D
libRbt.so/2013.1/901 2013/11/27
 10 11  0  0  0  0  0  0  0  0999 V2000
  -30.2404   17.0602  -14.9427 N   0  0  0  0  0  0  0  0  0  0  0  0
  -31.0603   18.1107  -14.8047 C   0  0  0  0  0  0  0  0  0  0  0  0
  -31.4725   18.9798  -15.7267 N   0  0  0  0  0  0  0  0  0  0  0  0
  -30.9456   18.6874  -16.9266 C   0  0  0  0  0  0  0  0  0  0  0  0
  -30.0875   17.6450  -17.2241 C   0  0  0  0  0  0  0  0  0  0  0  0
  -29.7270   16.7923  -16.1612 C   0  0  0  0  0  0  0  0  0  0  0  0
  -28.9074   15.7458  -16.3033 N   0  0  0  0  0  0  0  0  0  0  0  0
  -29.7525   17.6547  -18.5674 N   0  0  0  0  0  0  0  0  0  0  0  0
  -30.4028   18.6892  -19.0465 C   0  0  0  0  0  0  0  0  0  0  0  0
  -31.1425   19.3577  -18.1106 N   0  0  0  0  0  0  0  0  0  0  0  0
  1  2  2  0  0  0  0
  1  6  1  0  0  0  0
  2  3  1  0  0  0  0
  3  4  2  0  0  0  0
  4  5  1  0  0  0  0
  4 10  1  0  0  0  0
  5  6  2  0  0  0  0
  5  8  1  0  0  0  0
  6  7  1  0  0  0  0
  8  9  1  0  0  0  0
  9 10  2  0  0  0  0
M  END
>  <CHROM.1>
-30.36842706,17.86364076,-16.77743938,1.27656374,-0.90198001,1.90213936

>  <Name>
ligand

>  <RI>
0

>  <Rbt.Current_Directory>
/home/itssahil/PROJECTS/Mol_Feturizer/New_Systems/rnas/4TZX

>  <Rbt.Executable>
rbdock ($Id: //depot/dev/client3/rdock/2013.1/src/exe/rbdock.cxx#4 $)

>  <Rbt.Library>
libRbt.so (2013.1, Build901 2013/11/27)

>  <Rbt.Parameter_File>
/export/apps/rDock/src/rDock_2013.1_src/data/scripts/dock_solv.prm

>  <Rbt.Receptor>
prm/pocket_docking_5.prm

>  <SCORE>
-14.3836

>  <SCORE.INTER>
-14.3836

>  <SCORE.INTER.CONST>
1

>  <SCORE.INTER.POLAR>
0

>  <SCORE.INTER.ROT>
0

>  <SCORE.INTER.SOLV>
8.11516

>  <SCORE.INTER.VDW>
-15.8942

>  <SCORE.INTER.norm>
-1.43836

>  <SCORE.INTRA>
0

>  <SCORE.INTRA.DIHEDRAL>
0

>  <SCORE.INTRA.DIHEDRAL.0>
0

>  <SCORE.INTRA.POLAR>
0

>  <SCORE.INTRA.POLAR.0>
0

>  <SCORE.INTRA.REPUL>
0

>  <SCORE.INTRA.REPUL.0>
0

>  <SCORE.INTRA.SOLV>
0

>  <SCORE.INTRA.SOLV.lig_0>
-23.8949

>  <SCORE.INTRA.VDW>
0

>  <SCORE.INTRA.VDW.0>
0

>  <SCORE.INTRA.norm>
0

>  <SCORE.RESTR>
0

>  <SCORE.RESTR.CAVITY>
0

>  <SCORE.RESTR.norm>
0

>  <SCORE.SYSTEM>
0

>  <SCORE.SYSTEM.CONST>
0

>  <SCORE.SYSTEM.DIHEDRAL>
0

>  <SCORE.SYSTEM.SOLV>
0

>  <SCORE.SYSTEM.norm>
0

>  <SCORE.heavy>
10

>  <SCORE.norm>
-1.43836

>  <RMSD>
0.425

$$$$
ligand
 OpenBabel11021811513D
libRbt.so/2013.1/901 2013/11/27
 10 11  0  0  0  0  0  0  0  0999 V2000
  -30.2622   16.9889  -14.9910 N   0  0  0  0  0  0  0  0  0  0  0  0
  -31.0599   18.0538  -14.8347 C   0  0  0  0  0  0  0  0  0  0  0  0
  -31.4590   18.9435  -15.7428 N   0  0  0  0  0  0  0  0  0  0  0  0
  -30.9441   18.6567  -16.9493 C   0  0  0  0  0  0  0  0  0  0  0  0
  -30.1087   17.6013  -17.2651 C   0  0  0  0  0  0  0  0  0  0  0  0
  -29.7604   16.7272  -16.2157 C   0  0  0  0  0  0  0  0  0  0  0  0
  -28.9629   15.6663  -16.3760 N   0  0  0  0  0  0  0  0  0  0  0  0
  -29.7803   17.6222  -18.6099 N   0  0  0  0  0  0  0  0  0  0  0  0
  -30.4119   18.6760  -19.0717 C   0  0  0  0  0  0  0  0  0  0  0  0
  -31.1332   19.3467  -18.1231 N   0  0  0  0  0  0  0  0  0  0  0  0
  1  2  2  0  0  0  0
  1  6  1  0  0  0  0
  2  3  1  0  0  0  0
  3  4  2  0  0  0  0
  4  5  1  0  0  0  0
  4 10  1  0  0  0  0
  5  6  2  0  0  0  0
  5  8  1  0  0  0  0
  6  7  1  0  0  0  0
  8  9  1  0  0  0  0
  9 10  2  0  0  0  0
M  END
>  <CHROM.1>
-30.38299522,17.81946238,-16.81414065,1.27973953,-0.92276432,1.91806587

>  <Name>
ligand

>  <RI>
0

>  <Rbt.Current_Directory>
/home/itssahil/PROJECTS/Mol_Feturizer/New_Systems/rnas/4TZX

>  <Rbt.Executable>
rbdock ($Id: //depot/dev/client3/rdock/2013.1/src/exe/rbdock.cxx#4 $)

>  <Rbt.Library>
libRbt.so (2013.1, Build901 2013/11/27)

>  <Rbt.Parameter_File>
/export/apps/rDock/src/rDock_2013.1_src/data/scripts/dock_solv.prm

>  <Rbt.Receptor>
prm/pocket_docking_5.prm

>  <SCORE>
-14.3469

>  <SCORE.INTER>
-14.3469

>  <SCORE.INTER.CONST>
1

>  <SCORE.INTER.POLAR>
0

>  <SCORE.INTER.ROT>
0

>  <SCORE.INTER.SOLV>
8.48832

>  <SCORE.INTER.VDW>
-15.9941

>  <SCORE.INTER.norm>
-1.43469

>  <SCORE.INTRA>
0

>  <SCORE.INTRA.DIHEDRAL>
0

>  <SCORE.INTRA.DIHEDRAL.0>
0

>  <SCORE.INTRA.POLAR>
0

>  <SCORE.INTRA.POLAR.0>
0

>  <SCORE.INTRA.REPUL>
0

>  <SCORE.INTRA.REPUL.0>
0

>  <SCORE.INTRA.SOLV>
0

>  <SCORE.INTRA.SOLV.lig_0>
-23.8949

>  <SCORE.INTRA.VDW>
0

>  <SCORE.INTRA.VDW.0>
0

>  <SCORE.INTRA.norm>
0

>  <SCORE.RESTR>
0

>  <SCORE.RESTR.CAVITY>
0

>  <SCORE.RESTR.norm>
0

>  <SCORE.SYSTEM>
0

>  <SCORE.SYSTEM.CONST>
0

>  <SCORE.SYSTEM.DIHEDRAL>
0

>  <SCORE.SYSTEM.SOLV>
0

>  <SCORE.SYSTEM.norm>
0

>  <SCORE.heavy>
10

>  <SCORE.norm>
-1.43469

>  <RMSD>
0.425

$$$$
ligand
 OpenBabel11021811513D
libRbt.so/2013.1/901 2013/11/27
 10 11  0  0  0  0  0  0  0  0999 V2000
  -30.1535   17.0413  -14.9396 N   0  0  0  0  0  0  0  0  0  0  0  0
  -30.9962   18.0711  -14.7839 C   0  0  0  0  0  0  0  0  0  0  0  0
  -31.4485   18.9302  -15.6965 N   0  0  0  0  0  0  0  0  0  0  0  0
  -30.9391   18.6514  -16.9072 C   0  0  0  0  0  0  0  0  0  0  0  0
  -30.0616   17.6307  -17.2230 C   0  0  0  0  0  0  0  0  0  0  0  0
  -29.6586   16.7867  -16.1685 C   0  0  0  0  0  0  0  0  0  0  0  0
  -28.8164   15.7609  -16.3282 N   0  0  0  0  0  0  0  0  0  0  0  0
  -29.7545   17.6492  -18.5728 N   0  0  0  0  0  0  0  0  0  0  0  0
  -30.4398   18.6675  -19.0376 C   0  0  0  0  0  0  0  0  0  0  0  0
  -31.1766   19.3171  -18.0863 N   0  0  0  0  0  0  0  0  0  0  0  0
  1  2  2  0  0  0  0
  1  6  1  0  0  0  0
  2  3  1  0  0  0  0
  3  4  2  0  0  0  0
  4  5  1  0  0  0  0
  4 10  1  0  0  0  0
  5  6  2  0  0  0  0
  5  8  1  0  0  0  0
  6  7  1  0  0  0  0
  8  9  1  0  0  0  0
  9 10  2  0  0  0  0
M  END
>  <CHROM.1>
-30.33876833,17.84209725,-16.77054299,1.23340778,-0.88473687,1.86916740

>  <Name>
ligand

>  <RI>
0

>  <Rbt.Current_Directory>
/home/itssahil/PROJECTS/Mol_Feturizer/New_Systems/rnas/4TZX

>  <Rbt.Executable>
rbdock ($Id: //depot/dev/client3/rdock/2013.1/src/exe/rbdock.cxx#4 $)

>  <Rbt.Library>
libRbt.so (2013.1, Build901 2013/11/27)

>  <Rbt.Parameter_File>
/export/apps/rDock/src/rDock_2013.1_src/data/scripts/dock_solv.prm

>  <Rbt.Receptor>
prm/pocket_docking_6.prm

>  <SCORE>
-14.3986

>  <SCORE.INTER>
-14.3986

>  <SCORE.INTER.CONST>
1

>  <SCORE.INTER.POLAR>
0

>  <SCORE.INTER.ROT>
0

>  <SCORE.INTER.SOLV>
7.86529

>  <SCORE.INTER.VDW>
-15.8208

>  <SCORE.INTER.norm>
-1.43986

>  <SCORE.INTRA>
0

>  <SCORE.INTRA.DIHEDRAL>
0

>  <SCORE.INTRA.DIHEDRAL.0>
0

>  <SCORE.INTRA.POLAR>
0

>  <SCORE.INTRA.POLAR.0>
0

>  <SCORE.INTRA.REPUL>
0

>  <SCORE.INTRA.REPUL.0>
0

>  <SCORE.INTRA.SOLV>
0

>  <SCORE.INTRA.SOLV.lig_0>
-23.8949

>  <SCORE.INTRA.VDW>
0

>  <SCORE.INTRA.VDW.0>
0

>  <SCORE.INTRA.norm>
0

>  <SCORE.RESTR>
0

>  <SCORE.RESTR.CAVITY>
0

>  <SCORE.RESTR.norm>
0

>  <SCORE.SYSTEM>
0

>  <SCORE.SYSTEM.CONST>
0

>  <SCORE.SYSTEM.DIHEDRAL>
0

>  <SCORE.SYSTEM.SOLV>
0

>  <SCORE.SYSTEM.norm>
0

>  <SCORE.heavy>
10

>  <SCORE.norm>
-1.43986

>  <RMSD>
0.425

$$$$
ligand
 OpenBabel11021811513D
libRbt.so/2013.1/901 2013/11/27
 10 11  0  0  0  0  0  0  0  0999 V2000
  -30.2279   17.0672  -14.9381 N   0  0  0  0  0  0  0  0  0  0  0  0
  -31.0543   18.1132  -14.8039 C   0  0  0  0  0  0  0  0  0  0  0  0
  -31.4725   18.9759  -15.7293 N   0  0  0  0  0  0  0  0  0  0  0  0
  -30.9444   18.6818  -16.9283 C   0  0  0  0  0  0  0  0  0  0  0  0
  -30.0799   17.6436  -17.2219 C   0  0  0  0  0  0  0  0  0  0  0  0
  -29.7136   16.7975  -16.1558 C   0  0  0  0  0  0  0  0  0  0  0  0
  -28.8875   15.7555  -16.2939 N   0  0  0  0  0  0  0  0  0  0  0  0
  -29.7458   17.6497  -18.5654 N   0  0  0  0  0  0  0  0  0  0  0  0
  -30.4028   18.6782  -19.0484 C   0  0  0  0  0  0  0  0  0  0  0  0
  -31.1461   19.3459  -18.1149 N   0  0  0  0  0  0  0  0  0  0  0  0
  1  2  2  0  0  0  0
  1  6  1  0  0  0  0
  2  3  1  0  0  0  0
  3  4  2  0  0  0  0
  4  5  1  0  0  0  0
  4 10  1  0  0  0  0
  5  6  2  0  0  0  0
  5  8  1  0  0  0  0
  6  7  1  0  0  0  0
  8  9  1  0  0  0  0
  9 10  2  0  0  0  0
M  END
>  <CHROM.1>
-30.36199148,17.86225994,-16.77604637,1.27246888,-0.89625291,1.89477885

>  <Name>
ligand

>  <RI>
0

>  <Rbt.Current_Directory>
/home/itssahil/PROJECTS/Mol_Feturizer/New_Systems/rnas/4TZX

>  <Rbt.Executable>
rbdock ($Id: //depot/dev/client3/rdock/2013.1/src/exe/rbdock.cxx#4 $)

>  <Rbt.Library>
libRbt.so (2013.1, Build901 2013/11/27)

>  <Rbt.Parameter_File>
/export/apps/rDock/src/rDock_2013.1_src/data/scripts/dock_solv.prm

>  <Rbt.Receptor>
prm/pocket_docking_6.prm

>  <SCORE>
-14.3853

>  <SCORE.INTER>
-14.3853

>  <SCORE.INTER.CONST>
1

>  <SCORE.INTER.POLAR>
0

>  <SCORE.INTER.ROT>
0

>  <SCORE.INTER.SOLV>
8.03182

>  <SCORE.INTER.VDW>
-15.8675

>  <SCORE.INTER.norm>
-1.43853

>  <SCORE.INTRA>
0

>  <SCORE.INTRA.DIHEDRAL>
0

>  <SCORE.INTRA.DIHEDRAL.0>
0

>  <SCORE.INTRA.POLAR>
0

>  <SCORE.INTRA.POLAR.0>
0

>  <SCORE.INTRA.REPUL>
0

>  <SCORE.INTRA.REPUL.0>
0

>  <SCORE.INTRA.SOLV>
0

>  <SCORE.INTRA.SOLV.lig_0>
-23.8949

>  <SCORE.INTRA.VDW>
0

>  <SCORE.INTRA.VDW.0>
0

>  <SCORE.INTRA.norm>
0

>  <SCORE.RESTR>
0

>  <SCORE.RESTR.CAVITY>
0

>  <SCORE.RESTR.norm>
0

>  <SCORE.SYSTEM>
0

>  <SCORE.SYSTEM.CONST>
0

>  <SCORE.SYSTEM.DIHEDRAL>
0

>  <SCORE.SYSTEM.SOLV>
0

>  <SCORE.SYSTEM.norm>
0

>  <SCORE.heavy>
10

>  <SCORE.norm>
-1.43853

>  <RMSD>
0.425

$$$$
ligand
 OpenBabel11021811513D
libRbt.so/2013.1/901 2013/11/27
 10 11  0  0  0  0  0  0  0  0999 V2000
  -30.2293   17.0592  -14.9420 N   0  0  0  0  0  0  0  0  0  0  0  0
  -31.0531   18.1064  -14.8022 C   0  0  0  0  0  0  0  0  0  0  0  0
  -31.4710   18.9738  -15.7233 N   0  0  0  0  0  0  0  0  0  0  0  0
  -30.9457   18.6834  -16.9244 C   0  0  0  0  0  0  0  0  0  0  0  0
  -30.0840   17.6444  -17.2237 C   0  0  0  0  0  0  0  0  0  0  0  0
  -29.7176   16.7932  -16.1616 C   0  0  0  0  0  0  0  0  0  0  0  0
  -28.8942   15.7500  -16.3054 N   0  0  0  0  0  0  0  0  0  0  0  0
  -29.7522   17.6552  -18.5678 N   0  0  0  0  0  0  0  0  0  0  0  0
  -30.4078   18.6870  -19.0455 C   0  0  0  0  0  0  0  0  0  0  0  0
  -31.1480   19.3527  -18.1080 N   0  0  0  0  0  0  0  0  0  0  0  0
  1  2  2  0  0  0  0
  1  6  1  0  0  0  0
  2  3  1  0  0  0  0
  3  4  2  0  0  0  0
  4  5  1  0  0  0  0
  4 10  1  0  0  0  0
  5  6  2  0  0  0  0
  5  8  1  0  0  0  0
  6  7  1  0  0  0  0
  8  9  1  0  0  0  0
  9 10  2  0  0  0  0
M  END
>  <CHROM.1>
-30.36480561,17.86191841,-16.77646305,1.27093248,-0.89891389,1.89758818

>  <Name>
ligand

>  <RI>
0

>  <Rbt.Current_Directory>
/home/itssahil/PROJECTS/Mol_Feturizer/New_Systems/rnas/4TZX

>  <Rbt.Executable>
rbdock ($Id: //depot/dev/client3/rdock/2013.1/src/exe/rbdock.cxx#4 $)

>  <Rbt.Library>
libRbt.so (2013.1, Build901 2013/11/27)

>  <Rbt.Parameter_File>
/export/apps/rDock/src/rDock_2013.1_src/data/scripts/dock_solv.prm

>  <Rbt.Receptor>
prm/pocket_docking_7.prm

>  <SCORE>
-14.3869

>  <SCORE.INTER>
-14.387

>  <SCORE.INTER.CONST>
1

>  <SCORE.INTER.POLAR>
0

>  <SCORE.INTER.ROT>
0

>  <SCORE.INTER.SOLV>
8.07495

>  <SCORE.INTER.VDW>
-15.883

>  <SCORE.INTER.norm>
-1.4387

>  <SCORE.INTRA>
0

>  <SCORE.INTRA.DIHEDRAL>
0

>  <SCORE.INTRA.DIHEDRAL.0>
0

>  <SCORE.INTRA.POLAR>
0

>  <SCORE.INTRA.POLAR.0>
0

>  <SCORE.INTRA.REPUL>
0

>  <SCORE.INTRA.REPUL.0>
0

>  <SCORE.INTRA.SOLV>
0

>  <SCORE.INTRA.SOLV.lig_0>
-23.8949

>  <SCORE.INTRA.VDW>
0

>  <SCORE.INTRA.VDW.0>
0

>  <SCORE.INTRA.norm>
0

>  <SCORE.RESTR>
8.01728e-05

>  <SCORE.RESTR.CAVITY>
8.01728e-05

>  <SCORE.RESTR.norm>
8.01728e-06

>  <SCORE.SYSTEM>
0

>  <SCORE.SYSTEM.CONST>
0

>  <SCORE.SYSTEM.DIHEDRAL>
0

>  <SCORE.SYSTEM.SOLV>
0

>  <SCORE.SYSTEM.norm>
0

>  <SCORE.heavy>
10

>  <SCORE.norm>
-1.43869

>  <RMSD>
0.425

$$$$
ligand
 OpenBabel11021811513D
libRbt.so/2013.1/901 2013/11/27
 10 11  0  0  0  0  0  0  0  0999 V2000
  -30.2051   17.0553  -14.9404 N   0  0  0  0  0  0  0  0  0  0  0  0
  -31.0332   18.0982  -14.7941 C   0  0  0  0  0  0  0  0  0  0  0  0
  -31.4615   18.9644  -15.7116 N   0  0  0  0  0  0  0  0  0  0  0  0
  -30.9426   18.6779  -16.9164 C   0  0  0  0  0  0  0  0  0  0  0  0
  -30.0777   17.6436  -17.2224 C   0  0  0  0  0  0  0  0  0  0  0  0
  -29.7001   16.7932  -16.1637 C   0  0  0  0  0  0  0  0  0  0  0  0
  -28.8724   15.7543  -16.3140 N   0  0  0  0  0  0  0  0  0  0  0  0
  -29.7548   17.6575  -18.5686 N   0  0  0  0  0  0  0  0  0  0  0  0
  -30.4186   18.6865  -19.0409 C   0  0  0  0  0  0  0  0  0  0  0  0
  -31.1560   19.3474  -18.0979 N   0  0  0  0  0  0  0  0  0  0  0  0
  1  2  2  0  0  0  0
  1  6  1  0  0  0  0
  2  3  1  0  0  0  0
  3  4  2  0  0  0  0
  4  5  1  0  0  0  0
  4 10  1  0  0  0  0
  5  6  2  0  0  0  0
  5  8  1  0  0  0  0
  6  7  1  0  0  0  0
  8  9  1  0  0  0  0
  9 10  2  0  0  0  0
M  END
>  <CHROM.1>
-30.35667589,17.85924779,-16.77312708,1.25843887,-0.89621322,1.88887635

>  <Name>
ligand

>  <RI>
0

>  <Rbt.Current_Directory>
/home/itssahil/PROJECTS/Mol_Feturizer/New_Systems/rnas/4TZX

>  <Rbt.Executable>
rbdock ($Id: //depot/dev/client3/rdock/2013.1/src/exe/rbdock.cxx#4 $)

>  <Rbt.Library>
libRbt.so (2013.1, Build901 2013/11/27)

>  <Rbt.Parameter_File>
/export/apps/rDock/src/rDock_2013.1_src/data/scripts/dock_solv.prm

>  <Rbt.Receptor>
prm/pocket_docking_8.prm

>  <SCORE>
-14.391

>  <SCORE.INTER>
-14.3913

>  <SCORE.INTER.CONST>
1

>  <SCORE.INTER.POLAR>
0

>  <SCORE.INTER.ROT>
0

>  <SCORE.INTER.SOLV>
8.01915

>  <SCORE.INTER.VDW>
-15.8672

>  <SCORE.INTER.norm>
-1.43913

>  <SCORE.INTRA>
0

>  <SCORE.INTRA.DIHEDRAL>
0

>  <SCORE.INTRA.DIHEDRAL.0>
0

>  <SCORE.INTRA.POLAR>
0

>  <SCORE.INTRA.POLAR.0>
0

>  <SCORE.INTRA.REPUL>
0

>  <SCORE.INTRA.REPUL.0>
0

>  <SCORE.INTRA.SOLV>
0

>  <SCORE.INTRA.SOLV.lig_0>
-23.8949

>  <SCORE.INTRA.VDW>
0

>  <SCORE.INTRA.VDW.0>
0

>  <SCORE.INTRA.norm>
0

>  <SCORE.RESTR>
0.00029652

>  <SCORE.RESTR.CAVITY>
0.00029652

>  <SCORE.RESTR.norm>
2.9652e-05

>  <SCORE.SYSTEM>
0

>  <SCORE.SYSTEM.CONST>
0

>  <SCORE.SYSTEM.DIHEDRAL>
0

>  <SCORE.SYSTEM.SOLV>
0

>  <SCORE.SYSTEM.norm>
0

>  <SCORE.heavy>
10

>  <SCORE.norm>
-1.4391

>  <RMSD>
0.425

$$$$
ligand
 OpenBabel11021811513D
libRbt.so/2013.1/901 2013/11/27
 10 11  0  0  0  0  0  0  0  0999 V2000
  -30.2541   16.9558  -15.0024 N   0  0  0  0  0  0  0  0  0  0  0  0
  -31.0441   18.0239  -14.8296 C   0  0  0  0  0  0  0  0  0  0  0  0
  -31.4383   18.9291  -15.7244 N   0  0  0  0  0  0  0  0  0  0  0  0
  -30.9272   18.6560  -16.9356 C   0  0  0  0  0  0  0  0  0  0  0  0
  -30.0998   17.5993  -17.2678 C   0  0  0  0  0  0  0  0  0  0  0  0
  -29.7560   16.7080  -16.2314 C   0  0  0  0  0  0  0  0  0  0  0  0
  -28.9662   15.6440  -16.4081 N   0  0  0  0  0  0  0  0  0  0  0  0
  -29.7732   17.6372  -18.6126 N   0  0  0  0  0  0  0  0  0  0  0  0
  -30.3981   18.7018  -19.0584 C   0  0  0  0  0  0  0  0  0  0  0  0
  -31.1133   19.3639  -18.0992 N   0  0  0  0  0  0  0  0  0  0  0  0
  1  2  2  0  0  0  0
  1  6  1  0  0  0  0
  2  3  1  0  0  0  0
  3  4  2  0  0  0  0
  4  5  1  0  0  0  0
  4 10  1  0  0  0  0
  5  6  2  0  0  0  0
  5  8  1  0  0  0  0
  6  7  1  0  0  0  0
  8  9  1  0  0  0  0
  9 10  2  0  0  0  0
M  END
>  <CHROM.1>
-30.37180402,17.81300007,-16.81331458,1.28134216,-0.92985921,1.93357467

>  <Name>
ligand

>  <RI>
0

>  <Rbt.Current_Directory>
/home/itssahil/PROJECTS/Mol_Feturizer/New_Systems/rnas/4TZX

>  <Rbt.Executable>
rbdock ($Id: //depot/dev/client3/rdock/2013.1/src/exe/rbdock.cxx#4 $)

>  <Rbt.Library>
libRbt.so (2013.1, Build901 2013/11/27)

>  <Rbt.Parameter_File>
/export/apps/rDock/src/rDock_2013.1_src/data/scripts/dock_solv.prm

>  <Rbt.Receptor>
prm/blind_docking_100.prm

>  <SCORE>
-14.3432

>  <SCORE.INTER>
-14.3432

>  <SCORE.INTER.CONST>
1

>  <SCORE.INTER.POLAR>
0

>  <SCORE.INTER.ROT>
0

>  <SCORE.INTER.SOLV>
8.57185

>  <SCORE.INTER.VDW>
-16.0194

>  <SCORE.INTER.norm>
-1.43432

>  <SCORE.INTRA>
0

>  <SCORE.INTRA.DIHEDRAL>
0

>  <SCORE.INTRA.DIHEDRAL.0>
0

>  <SCORE.INTRA.POLAR>
0

>  <SCORE.INTRA.POLAR.0>
0

>  <SCORE.INTRA.REPUL>
0

>  <SCORE.INTRA.REPUL.0>
0

>  <SCORE.INTRA.SOLV>
0

>  <SCORE.INTRA.SOLV.lig_0>
-23.8949

>  <SCORE.INTRA.VDW>
0

>  <SCORE.INTRA.VDW.0>
0

>  <SCORE.INTRA.norm>
0

>  <SCORE.RESTR>
0

>  <SCORE.RESTR.CAVITY>
0

>  <SCORE.RESTR.norm>
0

>  <SCORE.SYSTEM>
0

>  <SCORE.SYSTEM.CONST>
0

>  <SCORE.SYSTEM.DIHEDRAL>
0

>  <SCORE.SYSTEM.SOLV>
0

>  <SCORE.SYSTEM.norm>
0

>  <SCORE.heavy>
10

>  <SCORE.norm>
-1.43432

>  <RMSD>
0.426

$$$$
ligand
 OpenBabel11021811513D
libRbt.so/2013.1/901 2013/11/27
 10 11  0  0  0  0  0  0  0  0999 V2000
  -30.2391   17.0592  -14.9440 N   0  0  0  0  0  0  0  0  0  0  0  0
  -31.0575   18.1103  -14.8019 C   0  0  0  0  0  0  0  0  0  0  0  0
  -31.4708   18.9819  -15.7211 N   0  0  0  0  0  0  0  0  0  0  0  0
  -30.9470   18.6915  -16.9228 C   0  0  0  0  0  0  0  0  0  0  0  0
  -30.0907   17.6488  -17.2244 C   0  0  0  0  0  0  0  0  0  0  0  0
  -29.7288   16.7933  -16.1643 C   0  0  0  0  0  0  0  0  0  0  0  0
  -28.9108   15.7461  -16.3104 N   0  0  0  0  0  0  0  0  0  0  0  0
  -29.7588   17.6609  -18.5685 N   0  0  0  0  0  0  0  0  0  0  0  0
  -30.4090   18.6972  -19.0439 C   0  0  0  0  0  0  0  0  0  0  0  0
  -31.1458   19.3646  -18.1048 N   0  0  0  0  0  0  0  0  0  0  0  0
  1  2  2  0  0  0  0
  1  6  1  0  0  0  0
  2  3  1  0  0  0  0
  3  4  2  0  0  0  0
  4  5  1  0  0  0  0
  4 10  1  0  0  0  0
  5  6  2  0  0  0  0
  5  8  1  0  0  0  0
  6  7  1  0  0  0  0
  8  9  1  0  0  0  0
  9 10  2  0  0  0  0
M  END
>  <CHROM.1>
-30.37040113,17.86673183,-16.77670113,1.27369532,-0.90382023,1.90203616

>  <Name>
ligand

>  <RI>
0

>  <Rbt.Current_Directory>
/home/itssahil/PROJECTS/Mol_Feturizer/New_Systems/rnas/4TZX

>  <Rbt.Executable>
rbdock ($Id: //depot/dev/client3/rdock/2013.1/src/exe/rbdock.cxx#4 $)

>  <Rbt.Library>
libRbt.so (2013.1, Build901 2013/11/27)

>  <Rbt.Parameter_File>
/export/apps/rDock/src/rDock_2013.1_src/data/scripts/dock_solv.prm

>  <Rbt.Receptor>
prm/blind_docking_80.prm

>  <SCORE>
-14.3811

>  <SCORE.INTER>
-14.3811

>  <SCORE.INTER.CONST>
1

>  <SCORE.INTER.POLAR>
0

>  <SCORE.INTER.ROT>
0

>  <SCORE.INTER.SOLV>
8.13343

>  <SCORE.INTER.VDW>
-15.8985

>  <SCORE.INTER.norm>
-1.43811

>  <SCORE.INTRA>
0

>  <SCORE.INTRA.DIHEDRAL>
0

>  <SCORE.INTRA.DIHEDRAL.0>
0

>  <SCORE.INTRA.POLAR>
0

>  <SCORE.INTRA.POLAR.0>
0

>  <SCORE.INTRA.REPUL>
0

>  <SCORE.INTRA.REPUL.0>
0

>  <SCORE.INTRA.SOLV>
0

>  <SCORE.INTRA.SOLV.lig_0>
-23.8949

>  <SCORE.INTRA.VDW>
0

>  <SCORE.INTRA.VDW.0>
0

>  <SCORE.INTRA.norm>
0

>  <SCORE.RESTR>
2.32958e-05

>  <SCORE.RESTR.CAVITY>
2.32958e-05

>  <SCORE.RESTR.norm>
2.32958e-06

>  <SCORE.SYSTEM>
0

>  <SCORE.SYSTEM.CONST>
0

>  <SCORE.SYSTEM.DIHEDRAL>
0

>  <SCORE.SYSTEM.SOLV>
0

>  <SCORE.SYSTEM.norm>
0

>  <SCORE.heavy>
10

>  <SCORE.norm>
-1.43811

>  <RMSD>
0.426

$$$$
ligand
 OpenBabel11021811513D
libRbt.so/2013.1/901 2013/11/27
 10 11  0  0  0  0  0  0  0  0999 V2000
  -30.2149   17.0600  -14.9403 N   0  0  0  0  0  0  0  0  0  0  0  0
  -31.0429   18.1036  -14.7984 C   0  0  0  0  0  0  0  0  0  0  0  0
  -31.4678   18.9685  -15.7187 N   0  0  0  0  0  0  0  0  0  0  0  0
  -30.9453   18.6796  -16.9213 C   0  0  0  0  0  0  0  0  0  0  0  0
  -30.0800   17.6443  -17.2229 C   0  0  0  0  0  0  0  0  0  0  0  0
  -29.7062   16.7955  -16.1615 C   0  0  0  0  0  0  0  0  0  0  0  0
  -28.8786   15.7559  -16.3074 N   0  0  0  0  0  0  0  0  0  0  0  0
  -29.7529   17.6558  -18.5681 N   0  0  0  0  0  0  0  0  0  0  0  0
  -30.4147   18.6843  -19.0443 C   0  0  0  0  0  0  0  0  0  0  0  0
  -31.1547   19.3472  -18.1046 N   0  0  0  0  0  0  0  0  0  0  0  0
  1  2  2  0  0  0  0
  1  6  1  0  0  0  0
  2  3  1  0  0  0  0
  3  4  2  0  0  0  0
  4  5  1  0  0  0  0
  4 10  1  0  0  0  0
  5  6  2  0  0  0  0
  5  8  1  0  0  0  0
  6  7  1  0  0  0  0
  8  9  1  0  0  0  0
  9 10  2  0  0  0  0
M  END
>  <CHROM.1>
-30.36027953,17.86089452,-16.77484291,1.26345341,-0.89573112,1.89108226

>  <Name>
ligand

>  <RI>
0

>  <Rbt.Current_Directory>
/home/itssahil/PROJECTS/Mol_Feturizer/New_Systems/rnas/4TZX

>  <Rbt.Executable>
rbdock ($Id: //depot/dev/client3/rdock/2013.1/src/exe/rbdock.cxx#4 $)

>  <Rbt.Library>
libRbt.so (2013.1, Build901 2013/11/27)

>  <Rbt.Parameter_File>
/export/apps/rDock/src/rDock_2013.1_src/data/scripts/dock_solv.prm

>  <Rbt.Receptor>
prm/pocket_docking_3.prm

>  <SCORE>
-14.3889

>  <SCORE.INTER>
-14.3891

>  <SCORE.INTER.CONST>
1

>  <SCORE.INTER.POLAR>
0

>  <SCORE.INTER.ROT>
0

>  <SCORE.INTER.SOLV>
8.02466

>  <SCORE.INTER.VDW>
-15.8676

>  <SCORE.INTER.norm>
-1.43891

>  <SCORE.INTRA>
0

>  <SCORE.INTRA.DIHEDRAL>
0

>  <SCORE.INTRA.DIHEDRAL.0>
0

>  <SCORE.INTRA.POLAR>
0

>  <SCORE.INTRA.POLAR.0>
0

>  <SCORE.INTRA.REPUL>
0

>  <SCORE.INTRA.REPUL.0>
0

>  <SCORE.INTRA.SOLV>
0

>  <SCORE.INTRA.SOLV.lig_0>
-23.8949

>  <SCORE.INTRA.VDW>
0

>  <SCORE.INTRA.VDW.0>
0

>  <SCORE.INTRA.norm>
0

>  <SCORE.RESTR>
0.000154125

>  <SCORE.RESTR.CAVITY>
0.000154125

>  <SCORE.RESTR.norm>
1.54125e-05

>  <SCORE.SYSTEM>
0

>  <SCORE.SYSTEM.CONST>
0

>  <SCORE.SYSTEM.DIHEDRAL>
0

>  <SCORE.SYSTEM.SOLV>
0

>  <SCORE.SYSTEM.norm>
0

>  <SCORE.heavy>
10

>  <SCORE.norm>
-1.43889

>  <RMSD>
0.426

$$$$
ligand
 OpenBabel11021811513D
libRbt.so/2013.1/901 2013/11/27
 10 11  0  0  0  0  0  0  0  0999 V2000
  -30.2461   17.0654  -14.9415 N   0  0  0  0  0  0  0  0  0  0  0  0
  -31.0652   18.1168  -14.8060 C   0  0  0  0  0  0  0  0  0  0  0  0
  -31.4752   18.9853  -15.7296 N   0  0  0  0  0  0  0  0  0  0  0  0
  -30.9467   18.6910  -16.9284 C   0  0  0  0  0  0  0  0  0  0  0  0
  -30.0891   17.6474  -17.2233 C   0  0  0  0  0  0  0  0  0  0  0  0
  -29.7311   16.7955  -16.1589 C   0  0  0  0  0  0  0  0  0  0  0  0
  -28.9124   15.7480  -16.2985 N   0  0  0  0  0  0  0  0  0  0  0  0
  -29.7521   17.6552  -18.5661 N   0  0  0  0  0  0  0  0  0  0  0  0
  -30.4006   18.6898  -19.0474 C   0  0  0  0  0  0  0  0  0  0  0  0
  -31.1411   19.3601  -18.1134 N   0  0  0  0  0  0  0  0  0  0  0  0
  1  2  2  0  0  0  0
  1  6  1  0  0  0  0
  2  3  1  0  0  0  0
  3  4  2  0  0  0  0
  4  5  1  0  0  0  0
  4 10  1  0  0  0  0
  5  6  2  0  0  0  0
  5  8  1  0  0  0  0
  6  7  1  0  0  0  0
  8  9  1  0  0  0  0
  9 10  2  0  0  0  0
M  END
>  <CHROM.1>
-30.37055699,17.86681274,-16.77736020,1.27941962,-0.90242230,1.90320798

>  <Name>
ligand

>  <RI>
0

>  <Rbt.Current_Directory>
/home/itssahil/PROJECTS/Mol_Feturizer/New_Systems/rnas/4TZX

>  <Rbt.Executable>
rbdock ($Id: //depot/dev/client3/rdock/2013.1/src/exe/rbdock.cxx#4 $)

>  <Rbt.Library>
libRbt.so (2013.1, Build901 2013/11/27)

>  <Rbt.Parameter_File>
/export/apps/rDock/src/rDock_2013.1_src/data/scripts/dock_solv.prm

>  <Rbt.Receptor>
prm/pocket_docking_4.prm

>  <SCORE>
-14.3796

>  <SCORE.INTER>
-14.3796

>  <SCORE.INTER.CONST>
1

>  <SCORE.INTER.POLAR>
0

>  <SCORE.INTER.ROT>
0

>  <SCORE.INTER.SOLV>
8.11811

>  <SCORE.INTER.VDW>
-15.8925

>  <SCORE.INTER.norm>
-1.43796

>  <SCORE.INTRA>
0

>  <SCORE.INTRA.DIHEDRAL>
0

>  <SCORE.INTRA.DIHEDRAL.0>
0

>  <SCORE.INTRA.POLAR>
0

>  <SCORE.INTRA.POLAR.0>
0

>  <SCORE.INTRA.REPUL>
0

>  <SCORE.INTRA.REPUL.0>
0

>  <SCORE.INTRA.SOLV>
0

>  <SCORE.INTRA.SOLV.lig_0>
-23.8949

>  <SCORE.INTRA.VDW>
0

>  <SCORE.INTRA.VDW.0>
0

>  <SCORE.INTRA.norm>
0

>  <SCORE.RESTR>
0

>  <SCORE.RESTR.CAVITY>
0

>  <SCORE.RESTR.norm>
0

>  <SCORE.SYSTEM>
0

>  <SCORE.SYSTEM.CONST>
0

>  <SCORE.SYSTEM.DIHEDRAL>
0

>  <SCORE.SYSTEM.SOLV>
0

>  <SCORE.SYSTEM.norm>
0

>  <SCORE.heavy>
10

>  <SCORE.norm>
-1.43796

>  <RMSD>
0.426

$$$$
ligand
 OpenBabel11021811513D
libRbt.so/2013.1/901 2013/11/27
 10 11  0  0  0  0  0  0  0  0999 V2000
  -30.2449   17.0717  -14.9392 N   0  0  0  0  0  0  0  0  0  0  0  0
  -31.0694   18.1199  -14.8108 C   0  0  0  0  0  0  0  0  0  0  0  0
  -31.4809   18.9821  -15.7396 N   0  0  0  0  0  0  0  0  0  0  0  0
  -30.9476   18.6849  -16.9355 C   0  0  0  0  0  0  0  0  0  0  0  0
  -30.0842   17.6441  -17.2232 C   0  0  0  0  0  0  0  0  0  0  0  0
  -29.7252   16.7988  -16.1539 C   0  0  0  0  0  0  0  0  0  0  0  0
  -28.9010   15.7547  -16.2864 N   0  0  0  0  0  0  0  0  0  0  0  0
  -29.7434   17.6473  -18.5651 N   0  0  0  0  0  0  0  0  0  0  0  0
  -30.3956   18.6765  -19.0529 C   0  0  0  0  0  0  0  0  0  0  0  0
  -31.1419   19.3476  -18.1241 N   0  0  0  0  0  0  0  0  0  0  0  0
  1  2  2  0  0  0  0
  1  6  1  0  0  0  0
  2  3  1  0  0  0  0
  3  4  2  0  0  0  0
  4  5  1  0  0  0  0
  4 10  1  0  0  0  0
  5  6  2  0  0  0  0
  5  8  1  0  0  0  0
  6  7  1  0  0  0  0
  8  9  1  0  0  0  0
  9 10  2  0  0  0  0
M  END
>  <CHROM.1>
-30.36796218,17.86415649,-16.77907513,1.28121012,-0.89694173,1.90001980

>  <Name>
ligand

>  <RI>
0

>  <Rbt.Current_Directory>
/home/itssahil/PROJECTS/Mol_Feturizer/New_Systems/rnas/4TZX

>  <Rbt.Executable>
rbdock ($Id: //depot/dev/client3/rdock/2013.1/src/exe/rbdock.cxx#4 $)

>  <Rbt.Library>
libRbt.so (2013.1, Build901 2013/11/27)

>  <Rbt.Parameter_File>
/export/apps/rDock/src/rDock_2013.1_src/data/scripts/dock_solv.prm

>  <Rbt.Receptor>
prm/pocket_docking_5.prm

>  <SCORE>
-14.3792

>  <SCORE.INTER>
-14.3792

>  <SCORE.INTER.CONST>
1

>  <SCORE.INTER.POLAR>
0

>  <SCORE.INTER.ROT>
0

>  <SCORE.INTER.SOLV>
8.05931

>  <SCORE.INTER.VDW>
-15.8725

>  <SCORE.INTER.norm>
-1.43792

>  <SCORE.INTRA>
0

>  <SCORE.INTRA.DIHEDRAL>
0

>  <SCORE.INTRA.DIHEDRAL.0>
0

>  <SCORE.INTRA.POLAR>
0

>  <SCORE.INTRA.POLAR.0>
0

>  <SCORE.INTRA.REPUL>
0

>  <SCORE.INTRA.REPUL.0>
0

>  <SCORE.INTRA.SOLV>
0

>  <SCORE.INTRA.SOLV.lig_0>
-23.8949

>  <SCORE.INTRA.VDW>
0

>  <SCORE.INTRA.VDW.0>
0

>  <SCORE.INTRA.norm>
0

>  <SCORE.RESTR>
0

>  <SCORE.RESTR.CAVITY>
0

>  <SCORE.RESTR.norm>
0

>  <SCORE.SYSTEM>
0

>  <SCORE.SYSTEM.CONST>
0

>  <SCORE.SYSTEM.DIHEDRAL>
0

>  <SCORE.SYSTEM.SOLV>
0

>  <SCORE.SYSTEM.norm>
0

>  <SCORE.heavy>
10

>  <SCORE.norm>
-1.43792

>  <RMSD>
0.426

$$$$
ligand
 OpenBabel11021811513D
libRbt.so/2013.1/901 2013/11/27
 10 11  0  0  0  0  0  0  0  0999 V2000
  -30.2423   17.0607  -14.9434 N   0  0  0  0  0  0  0  0  0  0  0  0
  -31.0592   18.1132  -14.8026 C   0  0  0  0  0  0  0  0  0  0  0  0
  -31.4702   18.9850  -15.7227 N   0  0  0  0  0  0  0  0  0  0  0  0
  -30.9456   18.6931  -16.9237 C   0  0  0  0  0  0  0  0  0  0  0  0
  -30.0906   17.6489  -17.2239 C   0  0  0  0  0  0  0  0  0  0  0  0
  -29.7311   16.7934  -16.1629 C   0  0  0  0  0  0  0  0  0  0  0  0
  -28.9146   15.7449  -16.3077 N   0  0  0  0  0  0  0  0  0  0  0  0
  -29.7573   17.6599  -18.5676 N   0  0  0  0  0  0  0  0  0  0  0  0
  -30.4054   18.6969  -19.0442 C   0  0  0  0  0  0  0  0  0  0  0  0
  -31.1421   19.3659  -18.1063 N   0  0  0  0  0  0  0  0  0  0  0  0
  1  2  2  0  0  0  0
  1  6  1  0  0  0  0
  2  3  1  0  0  0  0
  3  4  2  0  0  0  0
  4  5  1  0  0  0  0
  4 10  1  0  0  0  0
  5  6  2  0  0  0  0
  5  8  1  0  0  0  0
  6  7  1  0  0  0  0
  8  9  1  0  0  0  0
  9 10  2  0  0  0  0
M  END
>  <CHROM.1>
-30.37042229,17.86754830,-16.77657773,1.27610267,-0.90493943,1.90341895

>  <Name>
ligand

>  <RI>
0

>  <Rbt.Current_Directory>
/home/itssahil/PROJECTS/Mol_Feturizer/New_Systems/rnas/4TZX

>  <Rbt.Executable>
rbdock ($Id: //depot/dev/client3/rdock/2013.1/src/exe/rbdock.cxx#4 $)

>  <Rbt.Library>
libRbt.so (2013.1, Build901 2013/11/27)

>  <Rbt.Parameter_File>
/export/apps/rDock/src/rDock_2013.1_src/data/scripts/dock_solv.prm

>  <Rbt.Receptor>
prm/pocket_docking_8.prm

>  <SCORE>
-14.3803

>  <SCORE.INTER>
-14.3803

>  <SCORE.INTER.CONST>
1

>  <SCORE.INTER.POLAR>
0

>  <SCORE.INTER.ROT>
0

>  <SCORE.INTER.SOLV>
8.14209

>  <SCORE.INTER.VDW>
-15.9009

>  <SCORE.INTER.norm>
-1.43803

>  <SCORE.INTRA>
0

>  <SCORE.INTRA.DIHEDRAL>
0

>  <SCORE.INTRA.DIHEDRAL.0>
0

>  <SCORE.INTRA.POLAR>
0

>  <SCORE.INTRA.POLAR.0>
0

>  <SCORE.INTRA.REPUL>
0

>  <SCORE.INTRA.REPUL.0>
0

>  <SCORE.INTRA.SOLV>
0

>  <SCORE.INTRA.SOLV.lig_0>
-23.8949

>  <SCORE.INTRA.VDW>
0

>  <SCORE.INTRA.VDW.0>
0

>  <SCORE.INTRA.norm>
0

>  <SCORE.RESTR>
0

>  <SCORE.RESTR.CAVITY>
0

>  <SCORE.RESTR.norm>
0

>  <SCORE.SYSTEM>
0

>  <SCORE.SYSTEM.CONST>
0

>  <SCORE.SYSTEM.DIHEDRAL>
0

>  <SCORE.SYSTEM.SOLV>
0

>  <SCORE.SYSTEM.norm>
0

>  <SCORE.heavy>
10

>  <SCORE.norm>
-1.43803

>  <RMSD>
0.426

$$$$
ligand
 OpenBabel11021811513D
libRbt.so/2013.1/901 2013/11/27
 10 11  0  0  0  0  0  0  0  0999 V2000
  -30.2012   17.0632  -14.9389 N   0  0  0  0  0  0  0  0  0  0  0  0
  -31.0341   18.1028  -14.7964 C   0  0  0  0  0  0  0  0  0  0  0  0
  -31.4663   18.9637  -15.7171 N   0  0  0  0  0  0  0  0  0  0  0  0
  -30.9459   18.6752  -16.9208 C   0  0  0  0  0  0  0  0  0  0  0  0
  -30.0762   17.6438  -17.2230 C   0  0  0  0  0  0  0  0  0  0  0  0
  -29.6948   16.7989  -16.1611 C   0  0  0  0  0  0  0  0  0  0  0  0
  -28.8623   15.7633  -16.3076 N   0  0  0  0  0  0  0  0  0  0  0  0
  -29.7531   17.6543  -18.5692 N   0  0  0  0  0  0  0  0  0  0  0  0
  -30.4217   18.6785  -19.0453 C   0  0  0  0  0  0  0  0  0  0  0  0
  -31.1622   19.3395  -18.1047 N   0  0  0  0  0  0  0  0  0  0  0  0
  1  2  2  0  0  0  0
  1  6  1  0  0  0  0
  2  3  1  0  0  0  0
  3  4  2  0  0  0  0
  4  5  1  0  0  0  0
  4 10  1  0  0  0  0
  5  6  2  0  0  0  0
  5  8  1  0  0  0  0
  6  7  1  0  0  0  0
  8  9  1  0  0  0  0
  9 10  2  0  0  0  0
M  END
>  <CHROM.1>
-30.35619930,17.85975330,-16.77449007,1.25634312,-0.89179236,1.88363781

>  <Name>
ligand

>  <RI>
0

>  <Rbt.Current_Directory>
/home/itssahil/PROJECTS/Mol_Feturizer/New_Systems/rnas/4TZX

>  <Rbt.Executable>
rbdock ($Id: //depot/dev/client3/rdock/2013.1/src/exe/rbdock.cxx#4 $)

>  <Rbt.Library>
libRbt.so (2013.1, Build901 2013/11/27)

>  <Rbt.Parameter_File>
/export/apps/rDock/src/rDock_2013.1_src/data/scripts/dock_solv.prm

>  <Rbt.Receptor>
prm/pocket_docking_3.prm

>  <SCORE>
-14.3894

>  <SCORE.INTER>
-14.3894

>  <SCORE.INTER.CONST>
1

>  <SCORE.INTER.POLAR>
0

>  <SCORE.INTER.ROT>
0

>  <SCORE.INTER.SOLV>
7.96704

>  <SCORE.INTER.VDW>
-15.8486

>  <SCORE.INTER.norm>
-1.43894

>  <SCORE.INTRA>
0

>  <SCORE.INTRA.DIHEDRAL>
0

>  <SCORE.INTRA.DIHEDRAL.0>
0

>  <SCORE.INTRA.POLAR>
0

>  <SCORE.INTRA.POLAR.0>
0

>  <SCORE.INTRA.REPUL>
0

>  <SCORE.INTRA.REPUL.0>
0

>  <SCORE.INTRA.SOLV>
0

>  <SCORE.INTRA.SOLV.lig_0>
-23.8949

>  <SCORE.INTRA.VDW>
0

>  <SCORE.INTRA.VDW.0>
0

>  <SCORE.INTRA.norm>
0

>  <SCORE.RESTR>
0

>  <SCORE.RESTR.CAVITY>
0

>  <SCORE.RESTR.norm>
0

>  <SCORE.SYSTEM>
0

>  <SCORE.SYSTEM.CONST>
0

>  <SCORE.SYSTEM.DIHEDRAL>
0

>  <SCORE.SYSTEM.SOLV>
0

>  <SCORE.SYSTEM.norm>
0

>  <SCORE.heavy>
10

>  <SCORE.norm>
-1.43894

>  <RMSD>
0.427

$$$$
ligand
 OpenBabel11021811513D
libRbt.so/2013.1/901 2013/11/27
 10 11  0  0  0  0  0  0  0  0999 V2000
  -30.1457   17.0478  -14.9376 N   0  0  0  0  0  0  0  0  0  0  0  0
  -30.9895   18.0765  -14.7808 C   0  0  0  0  0  0  0  0  0  0  0  0
  -31.4478   18.9322  -15.6937 N   0  0  0  0  0  0  0  0  0  0  0  0
  -30.9436   18.6509  -16.9060 C   0  0  0  0  0  0  0  0  0  0  0  0
  -30.0657   17.6310  -17.2231 C   0  0  0  0  0  0  0  0  0  0  0  0
  -29.6561   16.7907  -16.1681 C   0  0  0  0  0  0  0  0  0  0  0  0
  -28.8128   15.7660  -16.3289 N   0  0  0  0  0  0  0  0  0  0  0  0
  -29.7650   17.6462  -18.5744 N   0  0  0  0  0  0  0  0  0  0  0  0
  -30.4544   18.6619  -19.0388 C   0  0  0  0  0  0  0  0  0  0  0  0
  -31.1879   19.3129  -18.0858 N   0  0  0  0  0  0  0  0  0  0  0  0
  1  2  2  0  0  0  0
  1  6  1  0  0  0  0
  2  3  1  0  0  0  0
  3  4  2  0  0  0  0
  4  5  1  0  0  0  0
  4 10  1  0  0  0  0
  5  6  2  0  0  0  0
  5  8  1  0  0  0  0
  6  7  1  0  0  0  0
  8  9  1  0  0  0  0
  9 10  2  0  0  0  0
M  END
>  <CHROM.1>
-30.34111087,17.84312413,-16.76991080,1.22540212,-0.88434123,1.86015815

>  <Name>
ligand

>  <RI>
0

>  <Rbt.Current_Directory>
/home/itssahil/PROJECTS/Mol_Feturizer/New_Systems/rnas/4TZX

>  <Rbt.Executable>
rbdock ($Id: //depot/dev/client3/rdock/2013.1/src/exe/rbdock.cxx#4 $)

>  <Rbt.Library>
libRbt.so (2013.1, Build901 2013/11/27)

>  <Rbt.Parameter_File>
/export/apps/rDock/src/rDock_2013.1_src/data/scripts/dock_solv.prm

>  <Rbt.Receptor>
prm/pocket_docking_5.prm

>  <SCORE>
-14.3829

>  <SCORE.INTER>
-14.3829

>  <SCORE.INTER.CONST>
1

>  <SCORE.INTER.POLAR>
0

>  <SCORE.INTER.ROT>
0

>  <SCORE.INTER.SOLV>
7.85035

>  <SCORE.INTER.VDW>
-15.8054

>  <SCORE.INTER.norm>
-1.43829

>  <SCORE.INTRA>
0

>  <SCORE.INTRA.DIHEDRAL>
0

>  <SCORE.INTRA.DIHEDRAL.0>
0

>  <SCORE.INTRA.POLAR>
0

>  <SCORE.INTRA.POLAR.0>
0

>  <SCORE.INTRA.REPUL>
0

>  <SCORE.INTRA.REPUL.0>
0

>  <SCORE.INTRA.SOLV>
0

>  <SCORE.INTRA.SOLV.lig_0>
-23.8949

>  <SCORE.INTRA.VDW>
0

>  <SCORE.INTRA.VDW.0>
0

>  <SCORE.INTRA.norm>
0

>  <SCORE.RESTR>
0

>  <SCORE.RESTR.CAVITY>
0

>  <SCORE.RESTR.norm>
0

>  <SCORE.SYSTEM>
0

>  <SCORE.SYSTEM.CONST>
0

>  <SCORE.SYSTEM.DIHEDRAL>
0

>  <SCORE.SYSTEM.SOLV>
0

>  <SCORE.SYSTEM.norm>
0

>  <SCORE.heavy>
10

>  <SCORE.norm>
-1.43829

>  <RMSD>
0.427

$$$$
ligand
 OpenBabel11021811513D
libRbt.so/2013.1/901 2013/11/27
 10 11  0  0  0  0  0  0  0  0999 V2000
  -30.1414   17.0526  -14.9344 N   0  0  0  0  0  0  0  0  0  0  0  0
  -30.9865   18.0803  -14.7780 C   0  0  0  0  0  0  0  0  0  0  0  0
  -31.4460   18.9350  -15.6913 N   0  0  0  0  0  0  0  0  0  0  0  0
  -30.9416   18.6537  -16.9034 C   0  0  0  0  0  0  0  0  0  0  0  0
  -30.0626   17.6347  -17.2202 C   0  0  0  0  0  0  0  0  0  0  0  0
  -29.6518   16.7954  -16.1649 C   0  0  0  0  0  0  0  0  0  0  0  0
  -28.8072   15.7717  -16.3253 N   0  0  0  0  0  0  0  0  0  0  0  0
  -29.7621   17.6497  -18.5716 N   0  0  0  0  0  0  0  0  0  0  0  0
  -30.4528   18.6643  -19.0364 C   0  0  0  0  0  0  0  0  0  0  0  0
  -31.1870   19.3148  -18.0835 N   0  0  0  0  0  0  0  0  0  0  0  0
  1  2  2  0  0  0  0
  1  6  1  0  0  0  0
  2  3  1  0  0  0  0
  3  4  2  0  0  0  0
  4  5  1  0  0  0  0
  4 10  1  0  0  0  0
  5  6  2  0  0  0  0
  5  8  1  0  0  0  0
  6  7  1  0  0  0  0
  8  9  1  0  0  0  0
  9 10  2  0  0  0  0
M  END
>  <CHROM.1>
-30.33813201,17.84673609,-16.76708408,1.22461093,-0.88320675,1.85904612

>  <Name>
ligand

>  <RI>
0

>  <Rbt.Current_Directory>
/home/itssahil/PROJECTS/Mol_Feturizer/New_Systems/rnas/4TZX

>  <Rbt.Executable>
rbdock ($Id: //depot/dev/client3/rdock/2013.1/src/exe/rbdock.cxx#4 $)

>  <Rbt.Library>
libRbt.so (2013.1, Build901 2013/11/27)

>  <Rbt.Parameter_File>
/export/apps/rDock/src/rDock_2013.1_src/data/scripts/dock_solv.prm

>  <Rbt.Receptor>
prm/blind_docking_60.prm

>  <SCORE>
-14.3807

>  <SCORE.INTER>
-14.3807

>  <SCORE.INTER.CONST>
1

>  <SCORE.INTER.POLAR>
0

>  <SCORE.INTER.ROT>
0

>  <SCORE.INTER.SOLV>
7.82852

>  <SCORE.INTER.VDW>
-15.7966

>  <SCORE.INTER.norm>
-1.43807

>  <SCORE.INTRA>
0

>  <SCORE.INTRA.DIHEDRAL>
0

>  <SCORE.INTRA.DIHEDRAL.0>
0

>  <SCORE.INTRA.POLAR>
0

>  <SCORE.INTRA.POLAR.0>
0

>  <SCORE.INTRA.REPUL>
0

>  <SCORE.INTRA.REPUL.0>
0

>  <SCORE.INTRA.SOLV>
0

>  <SCORE.INTRA.SOLV.lig_0>
-23.8949

>  <SCORE.INTRA.VDW>
0

>  <SCORE.INTRA.VDW.0>
0

>  <SCORE.INTRA.norm>
0

>  <SCORE.RESTR>
0

>  <SCORE.RESTR.CAVITY>
0

>  <SCORE.RESTR.norm>
0

>  <SCORE.SYSTEM>
0

>  <SCORE.SYSTEM.CONST>
0

>  <SCORE.SYSTEM.DIHEDRAL>
0

>  <SCORE.SYSTEM.SOLV>
0

>  <SCORE.SYSTEM.norm>
0

>  <SCORE.heavy>
10

>  <SCORE.norm>
-1.43807

>  <RMSD>
0.428

$$$$
ligand
 OpenBabel11021811513D
libRbt.so/2013.1/901 2013/11/27
 10 11  0  0  0  0  0  0  0  0999 V2000
  -30.2002   17.0616  -14.9400 N   0  0  0  0  0  0  0  0  0  0  0  0
  -31.0302   18.1032  -14.7954 C   0  0  0  0  0  0  0  0  0  0  0  0
  -31.4613   18.9661  -15.7147 N   0  0  0  0  0  0  0  0  0  0  0  0
  -30.9434   18.6774  -16.9194 C   0  0  0  0  0  0  0  0  0  0  0  0
  -30.0768   17.6440  -17.2237 C   0  0  0  0  0  0  0  0  0  0  0  0
  -29.6962   16.7972  -16.1632 C   0  0  0  0  0  0  0  0  0  0  0  0
  -28.8666   15.7595  -16.3118 N   0  0  0  0  0  0  0  0  0  0  0  0
  -29.7556   17.6550  -18.5704 N   0  0  0  0  0  0  0  0  0  0  0  0
  -30.4221   18.6814  -19.0446 C   0  0  0  0  0  0  0  0  0  0  0  0
  -31.1596   19.3434  -18.1024 N   0  0  0  0  0  0  0  0  0  0  0  0
  1  2  2  0  0  0  0
  1  6  1  0  0  0  0
  2  3  1  0  0  0  0
  3  4  2  0  0  0  0
  4  5  1  0  0  0  0
  4 10  1  0  0  0  0
  5  6  2  0  0  0  0
  5  8  1  0  0  0  0
  6  7  1  0  0  0  0
  8  9  1  0  0  0  0
  9 10  2  0  0  0  0
M  END
>  <CHROM.1>
-30.35563246,17.86029686,-16.77466232,1.25554828,-0.89471677,1.88396828

>  <Name>
ligand

>  <RI>
0

>  <Rbt.Current_Directory>
/home/itssahil/PROJECTS/Mol_Feturizer/New_Systems/rnas/4TZX

>  <Rbt.Executable>
rbdock ($Id: //depot/dev/client3/rdock/2013.1/src/exe/rbdock.cxx#4 $)

>  <Rbt.Library>
libRbt.so (2013.1, Build901 2013/11/27)

>  <Rbt.Parameter_File>
/export/apps/rDock/src/rDock_2013.1_src/data/scripts/dock_solv.prm

>  <Rbt.Receptor>
prm/blind_docking_60.prm

>  <SCORE>
-14.3872

>  <SCORE.INTER>
-14.3872

>  <SCORE.INTER.CONST>
1

>  <SCORE.INTER.POLAR>
0

>  <SCORE.INTER.ROT>
0

>  <SCORE.INTER.SOLV>
7.99219

>  <SCORE.INTER.VDW>
-15.8555

>  <SCORE.INTER.norm>
-1.43872

>  <SCORE.INTRA>
0

>  <SCORE.INTRA.DIHEDRAL>
0

>  <SCORE.INTRA.DIHEDRAL.0>
0

>  <SCORE.INTRA.POLAR>
0

>  <SCORE.INTRA.POLAR.0>
0

>  <SCORE.INTRA.REPUL>
0

>  <SCORE.INTRA.REPUL.0>
0

>  <SCORE.INTRA.SOLV>
0

>  <SCORE.INTRA.SOLV.lig_0>
-23.8949

>  <SCORE.INTRA.VDW>
0

>  <SCORE.INTRA.VDW.0>
0

>  <SCORE.INTRA.norm>
0

>  <SCORE.RESTR>
0

>  <SCORE.RESTR.CAVITY>
0

>  <SCORE.RESTR.norm>
0

>  <SCORE.SYSTEM>
0

>  <SCORE.SYSTEM.CONST>
0

>  <SCORE.SYSTEM.DIHEDRAL>
0

>  <SCORE.SYSTEM.SOLV>
0

>  <SCORE.SYSTEM.norm>
0

>  <SCORE.heavy>
10

>  <SCORE.norm>
-1.43872

>  <RMSD>
0.428

$$$$
ligand
 OpenBabel11021811513D
libRbt.so/2013.1/901 2013/11/27
 10 11  0  0  0  0  0  0  0  0999 V2000
  -30.2543   17.0841  -14.9360 N   0  0  0  0  0  0  0  0  0  0  0  0
  -31.0838   18.1298  -14.8199 C   0  0  0  0  0  0  0  0  0  0  0  0
  -31.4917   18.9849  -15.7569 N   0  0  0  0  0  0  0  0  0  0  0  0
  -30.9485   18.6826  -16.9470 C   0  0  0  0  0  0  0  0  0  0  0  0
  -30.0790   17.6435  -17.2221 C   0  0  0  0  0  0  0  0  0  0  0  0
  -29.7246   16.8060  -16.1452 C   0  0  0  0  0  0  0  0  0  0  0  0
  -28.8954   15.7643  -16.2653 N   0  0  0  0  0  0  0  0  0  0  0  0
  -29.7283   17.6401  -18.5614 N   0  0  0  0  0  0  0  0  0  0  0  0
  -30.3808   18.6639  -19.0602 C   0  0  0  0  0  0  0  0  0  0  0  0
  -31.1365   19.3375  -18.1410 N   0  0  0  0  0  0  0  0  0  0  0  0
  1  2  2  0  0  0  0
  1  6  1  0  0  0  0
  2  3  1  0  0  0  0
  3  4  2  0  0  0  0
  4  5  1  0  0  0  0
  4 10  1  0  0  0  0
  5  6  2  0  0  0  0
  5  8  1  0  0  0  0
  6  7  1  0  0  0  0
  8  9  1  0  0  0  0
  9 10  2  0  0  0  0
M  END
>  <CHROM.1>
-30.36683606,17.86512474,-16.78141676,1.29035258,-0.89088296,1.90120372

>  <Name>
ligand

>  <RI>
0

>  <Rbt.Current_Directory>
/home/itssahil/PROJECTS/Mol_Feturizer/New_Systems/rnas/4TZX

>  <Rbt.Executable>
rbdock ($Id: //depot/dev/client3/rdock/2013.1/src/exe/rbdock.cxx#4 $)

>  <Rbt.Library>
libRbt.so (2013.1, Build901 2013/11/27)

>  <Rbt.Parameter_File>
/export/apps/rDock/src/rDock_2013.1_src/data/scripts/dock_solv.prm

>  <Rbt.Receptor>
prm/blind_docking_80.prm

>  <SCORE>
-14.37

>  <SCORE.INTER>
-14.3701

>  <SCORE.INTER.CONST>
1

>  <SCORE.INTER.POLAR>
0

>  <SCORE.INTER.ROT>
0

>  <SCORE.INTER.SOLV>
8.00047

>  <SCORE.INTER.VDW>
-15.8469

>  <SCORE.INTER.norm>
-1.43701

>  <SCORE.INTRA>
0

>  <SCORE.INTRA.DIHEDRAL>
0

>  <SCORE.INTRA.DIHEDRAL.0>
0

>  <SCORE.INTRA.POLAR>
0

>  <SCORE.INTRA.POLAR.0>
0

>  <SCORE.INTRA.REPUL>
0

>  <SCORE.INTRA.REPUL.0>
0

>  <SCORE.INTRA.SOLV>
0

>  <SCORE.INTRA.SOLV.lig_0>
-23.8949

>  <SCORE.INTRA.VDW>
0

>  <SCORE.INTRA.VDW.0>
0

>  <SCORE.INTRA.norm>
0

>  <SCORE.RESTR>
0.000171687

>  <SCORE.RESTR.CAVITY>
0.000171687

>  <SCORE.RESTR.norm>
1.71687e-05

>  <SCORE.SYSTEM>
0

>  <SCORE.SYSTEM.CONST>
0

>  <SCORE.SYSTEM.DIHEDRAL>
0

>  <SCORE.SYSTEM.SOLV>
0

>  <SCORE.SYSTEM.norm>
0

>  <SCORE.heavy>
10

>  <SCORE.norm>
-1.437

>  <RMSD>
0.428

$$$$
ligand
 OpenBabel11021811513D
libRbt.so/2013.1/901 2013/11/27
 10 11  0  0  0  0  0  0  0  0999 V2000
  -30.2299   17.0752  -14.9376 N   0  0  0  0  0  0  0  0  0  0  0  0
  -31.0604   18.1184  -14.8088 C   0  0  0  0  0  0  0  0  0  0  0  0
  -31.4800   18.9763  -15.7380 N   0  0  0  0  0  0  0  0  0  0  0  0
  -30.9484   18.6800  -16.9349 C   0  0  0  0  0  0  0  0  0  0  0  0
  -30.0795   17.6440  -17.2231 C   0  0  0  0  0  0  0  0  0  0  0  0
  -29.7120   16.8031  -16.1533 C   0  0  0  0  0  0  0  0  0  0  0  0
  -28.8818   15.7638  -16.2861 N   0  0  0  0  0  0  0  0  0  0  0  0
  -29.7426   17.6467  -18.5660 N   0  0  0  0  0  0  0  0  0  0  0  0
  -30.4026   18.6709  -19.0540 C   0  0  0  0  0  0  0  0  0  0  0  0
  -31.1503   19.3392  -18.1243 N   0  0  0  0  0  0  0  0  0  0  0  0
  1  2  2  0  0  0  0
  1  6  1  0  0  0  0
  2  3  1  0  0  0  0
  3  4  2  0  0  0  0
  4  5  1  0  0  0  0
  4 10  1  0  0  0  0
  5  6  2  0  0  0  0
  5  8  1  0  0  0  0
  6  7  1  0  0  0  0
  8  9  1  0  0  0  0
  9 10  2  0  0  0  0
M  END
>  <CHROM.1>
-30.36324455,17.86321826,-16.77860952,1.27358749,-0.89202528,1.89212375

>  <Name>
ligand

>  <RI>
0

>  <Rbt.Current_Directory>
/home/itssahil/PROJECTS/Mol_Feturizer/New_Systems/rnas/4TZX

>  <Rbt.Executable>
rbdock ($Id: //depot/dev/client3/rdock/2013.1/src/exe/rbdock.cxx#4 $)

>  <Rbt.Library>
libRbt.so (2013.1, Build901 2013/11/27)

>  <Rbt.Parameter_File>
/export/apps/rDock/src/rDock_2013.1_src/data/scripts/dock_solv.prm

>  <Rbt.Receptor>
prm/pocket_docking_3.prm

>  <SCORE>
-14.3816

>  <SCORE.INTER>
-14.3816

>  <SCORE.INTER.CONST>
1

>  <SCORE.INTER.POLAR>
0

>  <SCORE.INTER.ROT>
0

>  <SCORE.INTER.SOLV>
7.99148

>  <SCORE.INTER.VDW>
-15.8516

>  <SCORE.INTER.norm>
-1.43816

>  <SCORE.INTRA>
0

>  <SCORE.INTRA.DIHEDRAL>
0

>  <SCORE.INTRA.DIHEDRAL.0>
0

>  <SCORE.INTRA.POLAR>
0

>  <SCORE.INTRA.POLAR.0>
0

>  <SCORE.INTRA.REPUL>
0

>  <SCORE.INTRA.REPUL.0>
0

>  <SCORE.INTRA.SOLV>
0

>  <SCORE.INTRA.SOLV.lig_0>
-23.8949

>  <SCORE.INTRA.VDW>
0

>  <SCORE.INTRA.VDW.0>
0

>  <SCORE.INTRA.norm>
0

>  <SCORE.RESTR>
0

>  <SCORE.RESTR.CAVITY>
0

>  <SCORE.RESTR.norm>
0

>  <SCORE.SYSTEM>
0

>  <SCORE.SYSTEM.CONST>
0

>  <SCORE.SYSTEM.DIHEDRAL>
0

>  <SCORE.SYSTEM.SOLV>
0

>  <SCORE.SYSTEM.norm>
0

>  <SCORE.heavy>
10

>  <SCORE.norm>
-1.43816

>  <RMSD>
0.428

$$$$
ligand
 OpenBabel11021811513D
libRbt.so/2013.1/901 2013/11/27
 10 11  0  0  0  0  0  0  0  0999 V2000
  -30.2174   17.0708  -14.9382 N   0  0  0  0  0  0  0  0  0  0  0  0
  -31.0480   18.1133  -14.8035 C   0  0  0  0  0  0  0  0  0  0  0  0
  -31.4725   18.9726  -15.7292 N   0  0  0  0  0  0  0  0  0  0  0  0
  -30.9465   18.6788  -16.9291 C   0  0  0  0  0  0  0  0  0  0  0  0
  -30.0783   17.6439  -17.2234 C   0  0  0  0  0  0  0  0  0  0  0  0
  -29.7052   16.8013  -16.1569 C   0  0  0  0  0  0  0  0  0  0  0  0
  -28.8749   15.7628  -16.2956 N   0  0  0  0  0  0  0  0  0  0  0  0
  -29.7479   17.6493  -18.5679 N   0  0  0  0  0  0  0  0  0  0  0  0
  -30.4108   18.6740  -19.0508 C   0  0  0  0  0  0  0  0  0  0  0  0
  -31.1545   19.3401  -18.1163 N   0  0  0  0  0  0  0  0  0  0  0  0
  1  2  2  0  0  0  0
  1  6  1  0  0  0  0
  2  3  1  0  0  0  0
  3  4  2  0  0  0  0
  4  5  1  0  0  0  0
  4 10  1  0  0  0  0
  5  6  2  0  0  0  0
  5  8  1  0  0  0  0
  6  7  1  0  0  0  0
  8  9  1  0  0  0  0
  9 10  2  0  0  0  0
M  END
>  <CHROM.1>
-30.36005004,17.86213423,-16.77712895,1.26603209,-0.89293410,1.88807168

>  <Name>
ligand

>  <RI>
0

>  <Rbt.Current_Directory>
/home/itssahil/PROJECTS/Mol_Feturizer/New_Systems/rnas/4TZX

>  <Rbt.Executable>
rbdock ($Id: //depot/dev/client3/rdock/2013.1/src/exe/rbdock.cxx#4 $)

>  <Rbt.Library>
libRbt.so (2013.1, Build901 2013/11/27)

>  <Rbt.Parameter_File>
/export/apps/rDock/src/rDock_2013.1_src/data/scripts/dock_solv.prm

>  <Rbt.Receptor>
prm/pocket_docking_5.prm

>  <SCORE>
-14.3843

>  <SCORE.INTER>
-14.3843

>  <SCORE.INTER.CONST>
1

>  <SCORE.INTER.POLAR>
0

>  <SCORE.INTER.ROT>
0

>  <SCORE.INTER.SOLV>
7.98783

>  <SCORE.INTER.VDW>
-15.8522

>  <SCORE.INTER.norm>
-1.43843

>  <SCORE.INTRA>
0

>  <SCORE.INTRA.DIHEDRAL>
0

>  <SCORE.INTRA.DIHEDRAL.0>
0

>  <SCORE.INTRA.POLAR>
0

>  <SCORE.INTRA.POLAR.0>
0

>  <SCORE.INTRA.REPUL>
0

>  <SCORE.INTRA.REPUL.0>
0

>  <SCORE.INTRA.SOLV>
0

>  <SCORE.INTRA.SOLV.lig_0>
-23.8949

>  <SCORE.INTRA.VDW>
0

>  <SCORE.INTRA.VDW.0>
0

>  <SCORE.INTRA.norm>
0

>  <SCORE.RESTR>
0

>  <SCORE.RESTR.CAVITY>
0

>  <SCORE.RESTR.norm>
0

>  <SCORE.SYSTEM>
0

>  <SCORE.SYSTEM.CONST>
0

>  <SCORE.SYSTEM.DIHEDRAL>
0

>  <SCORE.SYSTEM.SOLV>
0

>  <SCORE.SYSTEM.norm>
0

>  <SCORE.heavy>
10

>  <SCORE.norm>
-1.43843

>  <RMSD>
0.428

$$$$
ligand
 OpenBabel11021811513D
libRbt.so/2013.1/901 2013/11/27
 10 11  0  0  0  0  0  0  0  0999 V2000
  -30.2562   16.9871  -14.9935 N   0  0  0  0  0  0  0  0  0  0  0  0
  -31.0459   18.0580  -14.8379 C   0  0  0  0  0  0  0  0  0  0  0  0
  -31.4372   18.9508  -15.7464 N   0  0  0  0  0  0  0  0  0  0  0  0
  -30.9231   18.6602  -16.9523 C   0  0  0  0  0  0  0  0  0  0  0  0
  -30.0955   17.5984  -17.2673 C   0  0  0  0  0  0  0  0  0  0  0  0
  -29.7550   16.7216  -16.2176 C   0  0  0  0  0  0  0  0  0  0  0  0
  -28.9655   15.6547  -16.3771 N   0  0  0  0  0  0  0  0  0  0  0  0
  -29.7655   17.6170  -18.6117 N   0  0  0  0  0  0  0  0  0  0  0  0
  -30.3884   18.6756  -19.0742 C   0  0  0  0  0  0  0  0  0  0  0  0
  -31.1057   19.3517  -18.1263 N   0  0  0  0  0  0  0  0  0  0  0  0
  1  2  2  0  0  0  0
  1  6  1  0  0  0  0
  2  3  1  0  0  0  0
  3  4  2  0  0  0  0
  4  5  1  0  0  0  0
  4 10  1  0  0  0  0
  5  6  2  0  0  0  0
  5  8  1  0  0  0  0
  6  7  1  0  0  0  0
  8  9  1  0  0  0  0
  9 10  2  0  0  0  0
M  END
>  <CHROM.1>
-30.36859496,17.81865244,-16.81663946,1.28582840,-0.92956087,1.92301669

>  <Name>
ligand

>  <RI>
0

>  <Rbt.Current_Directory>
/home/itssahil/PROJECTS/Mol_Feturizer/New_Systems/rnas/4TZX

>  <Rbt.Executable>
rbdock ($Id: //depot/dev/client3/rdock/2013.1/src/exe/rbdock.cxx#4 $)

>  <Rbt.Library>
libRbt.so (2013.1, Build901 2013/11/27)

>  <Rbt.Parameter_File>
/export/apps/rDock/src/rDock_2013.1_src/data/scripts/dock_solv.prm

>  <Rbt.Receptor>
prm/pocket_docking_5.prm

>  <SCORE>
-14.3539

>  <SCORE.INTER>
-14.3539

>  <SCORE.INTER.CONST>
1

>  <SCORE.INTER.POLAR>
0

>  <SCORE.INTER.ROT>
0

>  <SCORE.INTER.SOLV>
8.51899

>  <SCORE.INTER.VDW>
-16.0089

>  <SCORE.INTER.norm>
-1.43539

>  <SCORE.INTRA>
0

>  <SCORE.INTRA.DIHEDRAL>
0

>  <SCORE.INTRA.DIHEDRAL.0>
0

>  <SCORE.INTRA.POLAR>
0

>  <SCORE.INTRA.POLAR.0>
0

>  <SCORE.INTRA.REPUL>
0

>  <SCORE.INTRA.REPUL.0>
0

>  <SCORE.INTRA.SOLV>
0

>  <SCORE.INTRA.SOLV.lig_0>
-23.8949

>  <SCORE.INTRA.VDW>
0

>  <SCORE.INTRA.VDW.0>
0

>  <SCORE.INTRA.norm>
0

>  <SCORE.RESTR>
0

>  <SCORE.RESTR.CAVITY>
0

>  <SCORE.RESTR.norm>
0

>  <SCORE.SYSTEM>
0

>  <SCORE.SYSTEM.CONST>
0

>  <SCORE.SYSTEM.DIHEDRAL>
0

>  <SCORE.SYSTEM.SOLV>
0

>  <SCORE.SYSTEM.norm>
0

>  <SCORE.heavy>
10

>  <SCORE.norm>
-1.43539

>  <RMSD>
0.428

$$$$
ligand
 OpenBabel11021811513D
libRbt.so/2013.1/901 2013/11/27
 10 11  0  0  0  0  0  0  0  0999 V2000
  -30.1867   17.0557  -14.9408 N   0  0  0  0  0  0  0  0  0  0  0  0
  -31.0172   18.0961  -14.7896 C   0  0  0  0  0  0  0  0  0  0  0  0
  -31.4537   18.9608  -15.7045 N   0  0  0  0  0  0  0  0  0  0  0  0
  -30.9412   18.6757  -16.9124 C   0  0  0  0  0  0  0  0  0  0  0  0
  -30.0750   17.6441  -17.2236 C   0  0  0  0  0  0  0  0  0  0  0  0
  -29.6883   16.7950  -16.1670 C   0  0  0  0  0  0  0  0  0  0  0  0
  -28.8583   15.7587  -16.3222 N   0  0  0  0  0  0  0  0  0  0  0  0
  -29.7603   17.6588  -18.5717 N   0  0  0  0  0  0  0  0  0  0  0  0
  -30.4302   18.6857  -19.0401 C   0  0  0  0  0  0  0  0  0  0  0  0
  -31.1639   19.3445  -18.0927 N   0  0  0  0  0  0  0  0  0  0  0  0
  1  2  2  0  0  0  0
  1  6  1  0  0  0  0
  2  3  1  0  0  0  0
  3  4  2  0  0  0  0
  4  5  1  0  0  0  0
  4 10  1  0  0  0  0
  5  6  2  0  0  0  0
  5  8  1  0  0  0  0
  6  7  1  0  0  0  0
  8  9  1  0  0  0  0
  9 10  2  0  0  0  0
M  END
>  <CHROM.1>
-30.35189314,17.85893497,-16.77263470,1.24765412,-0.89511742,1.88033516

>  <Name>
ligand

>  <RI>
0

>  <Rbt.Current_Directory>
/home/itssahil/PROJECTS/Mol_Feturizer/New_Systems/rnas/4TZX

>  <Rbt.Executable>
rbdock ($Id: //depot/dev/client3/rdock/2013.1/src/exe/rbdock.cxx#4 $)

>  <Rbt.Library>
libRbt.so (2013.1, Build901 2013/11/27)

>  <Rbt.Parameter_File>
/export/apps/rDock/src/rDock_2013.1_src/data/scripts/dock_solv.prm

>  <Rbt.Receptor>
prm/pocket_docking_6.prm

>  <SCORE>
-14.3875

>  <SCORE.INTER>
-14.3875

>  <SCORE.INTER.CONST>
1

>  <SCORE.INTER.POLAR>
0

>  <SCORE.INTER.ROT>
0

>  <SCORE.INTER.SOLV>
7.98399

>  <SCORE.INTER.VDW>
-15.853

>  <SCORE.INTER.norm>
-1.43875

>  <SCORE.INTRA>
0

>  <SCORE.INTRA.DIHEDRAL>
0

>  <SCORE.INTRA.DIHEDRAL.0>
0

>  <SCORE.INTRA.POLAR>
0

>  <SCORE.INTRA.POLAR.0>
0

>  <SCORE.INTRA.REPUL>
0

>  <SCORE.INTRA.REPUL.0>
0

>  <SCORE.INTRA.SOLV>
0

>  <SCORE.INTRA.SOLV.lig_0>
-23.8949

>  <SCORE.INTRA.VDW>
0

>  <SCORE.INTRA.VDW.0>
0

>  <SCORE.INTRA.norm>
0

>  <SCORE.RESTR>
0

>  <SCORE.RESTR.CAVITY>
0

>  <SCORE.RESTR.norm>
0

>  <SCORE.SYSTEM>
0

>  <SCORE.SYSTEM.CONST>
0

>  <SCORE.SYSTEM.DIHEDRAL>
0

>  <SCORE.SYSTEM.SOLV>
0

>  <SCORE.SYSTEM.norm>
0

>  <SCORE.heavy>
10

>  <SCORE.norm>
-1.43875

>  <RMSD>
0.428

$$$$
ligand
 OpenBabel11021811513D
libRbt.so/2013.1/901 2013/11/27
 10 11  0  0  0  0  0  0  0  0999 V2000
  -30.2326   16.9838  -14.9932 N   0  0  0  0  0  0  0  0  0  0  0  0
  -31.0445   18.0372  -14.8314 C   0  0  0  0  0  0  0  0  0  0  0  0
  -31.4606   18.9224  -15.7363 N   0  0  0  0  0  0  0  0  0  0  0  0
  -30.9477   18.6445  -16.9457 C   0  0  0  0  0  0  0  0  0  0  0  0
  -30.0992   17.6013  -17.2672 C   0  0  0  0  0  0  0  0  0  0  0  0
  -29.7333   16.7308  -16.2207 C   0  0  0  0  0  0  0  0  0  0  0  0
  -28.9218   15.6815  -16.3865 N   0  0  0  0  0  0  0  0  0  0  0  0
  -29.7778   17.6288  -18.6135 N   0  0  0  0  0  0  0  0  0  0  0  0
  -30.4264   18.6742  -19.0707 C   0  0  0  0  0  0  0  0  0  0  0  0
  -31.1524   19.3334  -18.1176 N   0  0  0  0  0  0  0  0  0  0  0  0
  1  2  2  0  0  0  0
  1  6  1  0  0  0  0
  2  3  1  0  0  0  0
  3  4  2  0  0  0  0
  4  5  1  0  0  0  0
  4 10  1  0  0  0  0
  5  6  2  0  0  0  0
  5  8  1  0  0  0  0
  6  7  1  0  0  0  0
  8  9  1  0  0  0  0
  9 10  2  0  0  0  0
M  END
>  <CHROM.1>
-30.37422872,17.81505209,-16.81451787,1.26425401,-0.91118381,1.90716097

>  <Name>
ligand

>  <RI>
0

>  <Rbt.Current_Directory>
/home/itssahil/PROJECTS/Mol_Feturizer/New_Systems/rnas/4TZX

>  <Rbt.Executable>
rbdock ($Id: //depot/dev/client3/rdock/2013.1/src/exe/rbdock.cxx#4 $)

>  <Rbt.Library>
libRbt.so (2013.1, Build901 2013/11/27)

>  <Rbt.Parameter_File>
/export/apps/rDock/src/rDock_2013.1_src/data/scripts/dock_solv.prm

>  <Rbt.Receptor>
prm/pocket_docking_7.prm

>  <SCORE>
-14.3873

>  <SCORE.INTER>
-14.3873

>  <SCORE.INTER.CONST>
1

>  <SCORE.INTER.POLAR>
0

>  <SCORE.INTER.ROT>
0

>  <SCORE.INTER.SOLV>
8.36815

>  <SCORE.INTER.VDW>
-15.9809

>  <SCORE.INTER.norm>
-1.43873

>  <SCORE.INTRA>
0

>  <SCORE.INTRA.DIHEDRAL>
0

>  <SCORE.INTRA.DIHEDRAL.0>
0

>  <SCORE.INTRA.POLAR>
0

>  <SCORE.INTRA.POLAR.0>
0

>  <SCORE.INTRA.REPUL>
0

>  <SCORE.INTRA.REPUL.0>
0

>  <SCORE.INTRA.SOLV>
0

>  <SCORE.INTRA.SOLV.lig_0>
-23.8949

>  <SCORE.INTRA.VDW>
0

>  <SCORE.INTRA.VDW.0>
0

>  <SCORE.INTRA.norm>
0

>  <SCORE.RESTR>
0

>  <SCORE.RESTR.CAVITY>
0

>  <SCORE.RESTR.norm>
0

>  <SCORE.SYSTEM>
0

>  <SCORE.SYSTEM.CONST>
0

>  <SCORE.SYSTEM.DIHEDRAL>
0

>  <SCORE.SYSTEM.SOLV>
0

>  <SCORE.SYSTEM.norm>
0

>  <SCORE.heavy>
10

>  <SCORE.norm>
-1.43873

>  <RMSD>
0.428

$$$$
ligand
 OpenBabel11021811513D
libRbt.so/2013.1/901 2013/11/27
 10 11  0  0  0  0  0  0  0  0999 V2000
  -30.1962   17.0598  -14.9399 N   0  0  0  0  0  0  0  0  0  0  0  0
  -31.0283   18.0996  -14.7936 C   0  0  0  0  0  0  0  0  0  0  0  0
  -31.4625   18.9621  -15.7117 N   0  0  0  0  0  0  0  0  0  0  0  0
  -30.9455   18.6753  -16.9173 C   0  0  0  0  0  0  0  0  0  0  0  0
  -30.0771   17.6440  -17.2234 C   0  0  0  0  0  0  0  0  0  0  0  0
  -29.6933   16.7973  -16.1639 C   0  0  0  0  0  0  0  0  0  0  0  0
  -28.8616   15.7616  -16.3143 N   0  0  0  0  0  0  0  0  0  0  0  0
  -29.7577   17.6565  -18.5705 N   0  0  0  0  0  0  0  0  0  0  0  0
  -30.4271   18.6817  -19.0432 C   0  0  0  0  0  0  0  0  0  0  0  0
  -31.1648   19.3415  -18.0996 N   0  0  0  0  0  0  0  0  0  0  0  0
  1  2  2  0  0  0  0
  1  6  1  0  0  0  0
  2  3  1  0  0  0  0
  3  4  2  0  0  0  0
  4  5  1  0  0  0  0
  4 10  1  0  0  0  0
  5  6  2  0  0  0  0
  5  8  1  0  0  0  0
  6  7  1  0  0  0  0
  8  9  1  0  0  0  0
  9 10  2  0  0  0  0
M  END
>  <CHROM.1>
-30.35581387,17.85937946,-16.77386529,1.25245841,-0.89303504,1.88217970

>  <Name>
ligand

>  <RI>
0

>  <Rbt.Current_Directory>
/home/itssahil/PROJECTS/Mol_Feturizer/New_Systems/rnas/4TZX

>  <Rbt.Executable>
rbdock ($Id: //depot/dev/client3/rdock/2013.1/src/exe/rbdock.cxx#4 $)

>  <Rbt.Library>
libRbt.so (2013.1, Build901 2013/11/27)

>  <Rbt.Parameter_File>
/export/apps/rDock/src/rDock_2013.1_src/data/scripts/dock_solv.prm

>  <Rbt.Receptor>
prm/pocket_docking_7.prm

>  <SCORE>
-14.3882

>  <SCORE.INTER>
-14.3882

>  <SCORE.INTER.CONST>
1

>  <SCORE.INTER.POLAR>
0

>  <SCORE.INTER.ROT>
0

>  <SCORE.INTER.SOLV>
7.9769

>  <SCORE.INTER.VDW>
-15.8511

>  <SCORE.INTER.norm>
-1.43882

>  <SCORE.INTRA>
0

>  <SCORE.INTRA.DIHEDRAL>
0

>  <SCORE.INTRA.DIHEDRAL.0>
0

>  <SCORE.INTRA.POLAR>
0

>  <SCORE.INTRA.POLAR.0>
0

>  <SCORE.INTRA.REPUL>
0

>  <SCORE.INTRA.REPUL.0>
0

>  <SCORE.INTRA.SOLV>
0

>  <SCORE.INTRA.SOLV.lig_0>
-23.8949

>  <SCORE.INTRA.VDW>
0

>  <SCORE.INTRA.VDW.0>
0

>  <SCORE.INTRA.norm>
0

>  <SCORE.RESTR>
0

>  <SCORE.RESTR.CAVITY>
0

>  <SCORE.RESTR.norm>
0

>  <SCORE.SYSTEM>
0

>  <SCORE.SYSTEM.CONST>
0

>  <SCORE.SYSTEM.DIHEDRAL>
0

>  <SCORE.SYSTEM.SOLV>
0

>  <SCORE.SYSTEM.norm>
0

>  <SCORE.heavy>
10

>  <SCORE.norm>
-1.43882

>  <RMSD>
0.428

$$$$
ligand
 OpenBabel11021811513D
libRbt.so/2013.1/901 2013/11/27
 10 11  0  0  0  0  0  0  0  0999 V2000
  -30.1770   17.0537  -14.9412 N   0  0  0  0  0  0  0  0  0  0  0  0
  -31.0118   18.0901  -14.7870 C   0  0  0  0  0  0  0  0  0  0  0  0
  -31.4548   18.9535  -15.7001 N   0  0  0  0  0  0  0  0  0  0  0  0
  -30.9443   18.6717  -16.9096 C   0  0  0  0  0  0  0  0  0  0  0  0
  -30.0741   17.6443  -17.2239 C   0  0  0  0  0  0  0  0  0  0  0  0
  -29.6808   16.7962  -16.1691 C   0  0  0  0  0  0  0  0  0  0  0  0
  -28.8464   15.7638  -16.3273 N   0  0  0  0  0  0  0  0  0  0  0  0
  -29.7631   17.6615  -18.5729 N   0  0  0  0  0  0  0  0  0  0  0  0
  -30.4390   18.6856  -19.0387 C   0  0  0  0  0  0  0  0  0  0  0  0
  -31.1732   19.3403  -18.0887 N   0  0  0  0  0  0  0  0  0  0  0  0
  1  2  2  0  0  0  0
  1  6  1  0  0  0  0
  2  3  1  0  0  0  0
  3  4  2  0  0  0  0
  4  5  1  0  0  0  0
  4 10  1  0  0  0  0
  5  6  2  0  0  0  0
  5  8  1  0  0  0  0
  6  7  1  0  0  0  0
  8  9  1  0  0  0  0
  9 10  2  0  0  0  0
M  END
>  <CHROM.1>
-30.35081941,17.85749417,-16.77202599,1.24135140,-0.89154470,1.87619894

>  <Name>
ligand

>  <RI>
0

>  <Rbt.Current_Directory>
/home/itssahil/PROJECTS/Mol_Feturizer/New_Systems/rnas/4TZX

>  <Rbt.Executable>
rbdock ($Id: //depot/dev/client3/rdock/2013.1/src/exe/rbdock.cxx#4 $)

>  <Rbt.Library>
libRbt.so (2013.1, Build901 2013/11/27)

>  <Rbt.Parameter_File>
/export/apps/rDock/src/rDock_2013.1_src/data/scripts/dock_solv.prm

>  <Rbt.Receptor>
prm/pocket_docking_4.prm

>  <SCORE>
-14.3886

>  <SCORE.INTER>
-14.3886

>  <SCORE.INTER.CONST>
1

>  <SCORE.INTER.POLAR>
0

>  <SCORE.INTER.ROT>
0

>  <SCORE.INTER.SOLV>
7.94749

>  <SCORE.INTER.VDW>
-15.8415

>  <SCORE.INTER.norm>
-1.43886

>  <SCORE.INTRA>
0

>  <SCORE.INTRA.DIHEDRAL>
0

>  <SCORE.INTRA.DIHEDRAL.0>
0

>  <SCORE.INTRA.POLAR>
0

>  <SCORE.INTRA.POLAR.0>
0

>  <SCORE.INTRA.REPUL>
0

>  <SCORE.INTRA.REPUL.0>
0

>  <SCORE.INTRA.SOLV>
0

>  <SCORE.INTRA.SOLV.lig_0>
-23.8949

>  <SCORE.INTRA.VDW>
0

>  <SCORE.INTRA.VDW.0>
0

>  <SCORE.INTRA.norm>
0

>  <SCORE.RESTR>
0

>  <SCORE.RESTR.CAVITY>
0

>  <SCORE.RESTR.norm>
0

>  <SCORE.SYSTEM>
0

>  <SCORE.SYSTEM.CONST>
0

>  <SCORE.SYSTEM.DIHEDRAL>
0

>  <SCORE.SYSTEM.SOLV>
0

>  <SCORE.SYSTEM.norm>
0

>  <SCORE.heavy>
10

>  <SCORE.norm>
-1.43886

>  <RMSD>
0.429

$$$$
ligand
 OpenBabel11021811513D
libRbt.so/2013.1/901 2013/11/27
 10 11  0  0  0  0  0  0  0  0999 V2000
  -30.2511   17.0705  -14.9431 N   0  0  0  0  0  0  0  0  0  0  0  0
  -31.0673   18.1241  -14.8065 C   0  0  0  0  0  0  0  0  0  0  0  0
  -31.4761   18.9938  -15.7295 N   0  0  0  0  0  0  0  0  0  0  0  0
  -30.9497   18.6983  -16.9289 C   0  0  0  0  0  0  0  0  0  0  0  0
  -30.0951   17.6525  -17.2250 C   0  0  0  0  0  0  0  0  0  0  0  0
  -29.7382   16.7996  -16.1611 C   0  0  0  0  0  0  0  0  0  0  0  0
  -28.9222   15.7500  -16.3018 N   0  0  0  0  0  0  0  0  0  0  0  0
  -29.7596   17.6597  -18.5681 N   0  0  0  0  0  0  0  0  0  0  0  0
  -30.4060   18.6960  -19.0485 C   0  0  0  0  0  0  0  0  0  0  0  0
  -31.1437   19.3681  -18.1136 N   0  0  0  0  0  0  0  0  0  0  0  0
  1  2  2  0  0  0  0
  1  6  1  0  0  0  0
  2  3  1  0  0  0  0
  3  4  2  0  0  0  0
  4  5  1  0  0  0  0
  4 10  1  0  0  0  0
  5  6  2  0  0  0  0
  5  8  1  0  0  0  0
  6  7  1  0  0  0  0
  8  9  1  0  0  0  0
  9 10  2  0  0  0  0
M  END
>  <CHROM.1>
-30.37550161,17.87260071,-16.77867534,1.27906416,-0.90521109,1.90309690

>  <Name>
ligand

>  <RI>
0

>  <Rbt.Current_Directory>
/home/itssahil/PROJECTS/Mol_Feturizer/New_Systems/rnas/4TZX

>  <Rbt.Executable>
rbdock ($Id: //depot/dev/client3/rdock/2013.1/src/exe/rbdock.cxx#4 $)

>  <Rbt.Library>
libRbt.so (2013.1, Build901 2013/11/27)

>  <Rbt.Parameter_File>
/export/apps/rDock/src/rDock_2013.1_src/data/scripts/dock_solv.prm

>  <Rbt.Receptor>
prm/pocket_docking_5.prm

>  <SCORE>
-14.37

>  <SCORE.INTER>
-14.37

>  <SCORE.INTER.CONST>
1

>  <SCORE.INTER.POLAR>
0

>  <SCORE.INTER.ROT>
0

>  <SCORE.INTER.SOLV>
8.14661

>  <SCORE.INTER.VDW>
-15.8955

>  <SCORE.INTER.norm>
-1.437

>  <SCORE.INTRA>
0

>  <SCORE.INTRA.DIHEDRAL>
0

>  <SCORE.INTRA.DIHEDRAL.0>
0

>  <SCORE.INTRA.POLAR>
0

>  <SCORE.INTRA.POLAR.0>
0

>  <SCORE.INTRA.REPUL>
0

>  <SCORE.INTRA.REPUL.0>
0

>  <SCORE.INTRA.SOLV>
0

>  <SCORE.INTRA.SOLV.lig_0>
-23.8949

>  <SCORE.INTRA.VDW>
0

>  <SCORE.INTRA.VDW.0>
0

>  <SCORE.INTRA.norm>
0

>  <SCORE.RESTR>
0

>  <SCORE.RESTR.CAVITY>
0

>  <SCORE.RESTR.norm>
0

>  <SCORE.SYSTEM>
0

>  <SCORE.SYSTEM.CONST>
0

>  <SCORE.SYSTEM.DIHEDRAL>
0

>  <SCORE.SYSTEM.SOLV>
0

>  <SCORE.SYSTEM.norm>
0

>  <SCORE.heavy>
10

>  <SCORE.norm>
-1.437

>  <RMSD>
0.429

$$$$
ligand
 OpenBabel11021811513D
libRbt.so/2013.1/901 2013/11/27
 10 11  0  0  0  0  0  0  0  0999 V2000
  -30.2076   17.0677  -14.9396 N   0  0  0  0  0  0  0  0  0  0  0  0
  -31.0398   18.1083  -14.8003 C   0  0  0  0  0  0  0  0  0  0  0  0
  -31.4694   18.9682  -15.7231 N   0  0  0  0  0  0  0  0  0  0  0  0
  -30.9472   18.6773  -16.9254 C   0  0  0  0  0  0  0  0  0  0  0  0
  -30.0779   17.6445  -17.2244 C   0  0  0  0  0  0  0  0  0  0  0  0
  -29.6993   16.8011  -16.1605 C   0  0  0  0  0  0  0  0  0  0  0  0
  -28.8675   15.7644  -16.3038 N   0  0  0  0  0  0  0  0  0  0  0  0
  -29.7525   17.6526  -18.5700 N   0  0  0  0  0  0  0  0  0  0  0  0
  -30.4191   18.6767  -19.0490 C   0  0  0  0  0  0  0  0  0  0  0  0
  -31.1608   19.3399  -18.1108 N   0  0  0  0  0  0  0  0  0  0  0  0
  1  2  2  0  0  0  0
  1  6  1  0  0  0  0
  2  3  1  0  0  0  0
  3  4  2  0  0  0  0
  4  5  1  0  0  0  0
  4 10  1  0  0  0  0
  5  6  2  0  0  0  0
  5  8  1  0  0  0  0
  6  7  1  0  0  0  0
  8  9  1  0  0  0  0
  9 10  2  0  0  0  0
M  END
>  <CHROM.1>
-30.35853928,17.86151310,-16.77677181,1.25953097,-0.89214389,1.88451857

>  <Name>
ligand

>  <RI>
0

>  <Rbt.Current_Directory>
/home/itssahil/PROJECTS/Mol_Feturizer/New_Systems/rnas/4TZX

>  <Rbt.Executable>
rbdock ($Id: //depot/dev/client3/rdock/2013.1/src/exe/rbdock.cxx#4 $)

>  <Rbt.Library>
libRbt.so (2013.1, Build901 2013/11/27)

>  <Rbt.Parameter_File>
/export/apps/rDock/src/rDock_2013.1_src/data/scripts/dock_solv.prm

>  <Rbt.Receptor>
prm/pocket_docking_5.prm

>  <SCORE>
-14.3857

>  <SCORE.INTER>
-14.3857

>  <SCORE.INTER.CONST>
1

>  <SCORE.INTER.POLAR>
0

>  <SCORE.INTER.ROT>
0

>  <SCORE.INTER.SOLV>
7.97551

>  <SCORE.INTER.VDW>
-15.849

>  <SCORE.INTER.norm>
-1.43857

>  <SCORE.INTRA>
0

>  <SCORE.INTRA.DIHEDRAL>
0

>  <SCORE.INTRA.DIHEDRAL.0>
0

>  <SCORE.INTRA.POLAR>
0

>  <SCORE.INTRA.POLAR.0>
0

>  <SCORE.INTRA.REPUL>
0

>  <SCORE.INTRA.REPUL.0>
0

>  <SCORE.INTRA.SOLV>
0

>  <SCORE.INTRA.SOLV.lig_0>
-23.8949

>  <SCORE.INTRA.VDW>
0

>  <SCORE.INTRA.VDW.0>
0

>  <SCORE.INTRA.norm>
0

>  <SCORE.RESTR>
0

>  <SCORE.RESTR.CAVITY>
0

>  <SCORE.RESTR.norm>
0

>  <SCORE.SYSTEM>
0

>  <SCORE.SYSTEM.CONST>
0

>  <SCORE.SYSTEM.DIHEDRAL>
0

>  <SCORE.SYSTEM.SOLV>
0

>  <SCORE.SYSTEM.norm>
0

>  <SCORE.heavy>
10

>  <SCORE.norm>
-1.43857

>  <RMSD>
0.429

$$$$
ligand
 OpenBabel11021811513D
libRbt.so/2013.1/901 2013/11/27
 10 11  0  0  0  0  0  0  0  0999 V2000
  -30.2581   16.9874  -14.9953 N   0  0  0  0  0  0  0  0  0  0  0  0
  -31.0557   18.0527  -14.8410 C   0  0  0  0  0  0  0  0  0  0  0  0
  -31.4511   18.9433  -15.7499 N   0  0  0  0  0  0  0  0  0  0  0  0
  -30.9320   18.6571  -16.9547 C   0  0  0  0  0  0  0  0  0  0  0  0
  -30.0961   17.6014  -17.2683 C   0  0  0  0  0  0  0  0  0  0  0  0
  -29.7520   16.7263  -16.2183 C   0  0  0  0  0  0  0  0  0  0  0  0
  -28.9546   15.6651  -16.3766 N   0  0  0  0  0  0  0  0  0  0  0  0
  -29.7628   17.6233  -18.6119 N   0  0  0  0  0  0  0  0  0  0  0  0
  -30.3921   18.6778  -19.0752 C   0  0  0  0  0  0  0  0  0  0  0  0
  -31.1165   19.3482  -18.1286 N   0  0  0  0  0  0  0  0  0  0  0  0
  1  2  2  0  0  0  0
  1  6  1  0  0  0  0
  2  3  1  0  0  0  0
  3  4  2  0  0  0  0
  4  5  1  0  0  0  0
  4 10  1  0  0  0  0
  5  6  2  0  0  0  0
  5  8  1  0  0  0  0
  6  7  1  0  0  0  0
  8  9  1  0  0  0  0
  9 10  2  0  0  0  0
M  END
>  <CHROM.1>
-30.37184867,17.81944478,-16.81818176,1.28566192,-0.92208162,1.92357285

>  <Name>
ligand

>  <RI>
0

>  <Rbt.Current_Directory>
/home/itssahil/PROJECTS/Mol_Feturizer/New_Systems/rnas/4TZX

>  <Rbt.Executable>
rbdock ($Id: //depot/dev/client3/rdock/2013.1/src/exe/rbdock.cxx#4 $)

>  <Rbt.Library>
libRbt.so (2013.1, Build901 2013/11/27)

>  <Rbt.Parameter_File>
/export/apps/rDock/src/rDock_2013.1_src/data/scripts/dock_solv.prm

>  <Rbt.Receptor>
prm/blind_docking_80.prm

>  <SCORE>
-14.3551

>  <SCORE.INTER>
-14.3551

>  <SCORE.INTER.CONST>
1

>  <SCORE.INTER.POLAR>
0

>  <SCORE.INTER.ROT>
0

>  <SCORE.INTER.SOLV>
8.47438

>  <SCORE.INTER.VDW>
-15.9948

>  <SCORE.INTER.norm>
-1.43551

>  <SCORE.INTRA>
0

>  <SCORE.INTRA.DIHEDRAL>
0

>  <SCORE.INTRA.DIHEDRAL.0>
0

>  <SCORE.INTRA.POLAR>
0

>  <SCORE.INTRA.POLAR.0>
0

>  <SCORE.INTRA.REPUL>
0

>  <SCORE.INTRA.REPUL.0>
0

>  <SCORE.INTRA.SOLV>
0

>  <SCORE.INTRA.SOLV.lig_0>
-23.8949

>  <SCORE.INTRA.VDW>
0

>  <SCORE.INTRA.VDW.0>
0

>  <SCORE.INTRA.norm>
0

>  <SCORE.RESTR>
0

>  <SCORE.RESTR.CAVITY>
0

>  <SCORE.RESTR.norm>
0

>  <SCORE.SYSTEM>
0

>  <SCORE.SYSTEM.CONST>
0

>  <SCORE.SYSTEM.DIHEDRAL>
0

>  <SCORE.SYSTEM.SOLV>
0

>  <SCORE.SYSTEM.norm>
0

>  <SCORE.heavy>
10

>  <SCORE.norm>
-1.43551

>  <RMSD>
0.430

$$$$
ligand
 OpenBabel11021811513D
libRbt.so/2013.1/901 2013/11/27
 10 11  0  0  0  0  0  0  0  0999 V2000
  -30.1572   17.0427  -14.9430 N   0  0  0  0  0  0  0  0  0  0  0  0
  -31.0007   18.0704  -14.7784 C   0  0  0  0  0  0  0  0  0  0  0  0
  -31.4583   18.9335  -15.6845 N   0  0  0  0  0  0  0  0  0  0  0  0
  -30.9536   18.6619  -16.8988 C   0  0  0  0  0  0  0  0  0  0  0  0
  -30.0759   17.6443  -17.2237 C   0  0  0  0  0  0  0  0  0  0  0  0
  -29.6671   16.7954  -16.1754 C   0  0  0  0  0  0  0  0  0  0  0  0
  -28.8240   15.7717  -16.3440 N   0  0  0  0  0  0  0  0  0  0  0  0
  -29.7745   17.6704  -18.5747 N   0  0  0  0  0  0  0  0  0  0  0  0
  -30.4634   18.6900  -19.0312 C   0  0  0  0  0  0  0  0  0  0  0  0
  -31.1971   19.3335  -18.0733 N   0  0  0  0  0  0  0  0  0  0  0  0
  1  2  2  0  0  0  0
  1  6  1  0  0  0  0
  2  3  1  0  0  0  0
  3  4  2  0  0  0  0
  4  5  1  0  0  0  0
  4 10  1  0  0  0  0
  5  6  2  0  0  0  0
  5  8  1  0  0  0  0
  6  7  1  0  0  0  0
  8  9  1  0  0  0  0
  9 10  2  0  0  0  0
M  END
>  <CHROM.1>
-30.35142526,17.85287045,-16.76895054,1.22629251,-0.88450018,1.86892178

>  <Name>
ligand

>  <RI>
0

>  <Rbt.Current_Directory>
/home/itssahil/PROJECTS/Mol_Feturizer/New_Systems/rnas/4TZX

>  <Rbt.Executable>
rbdock ($Id: //depot/dev/client3/rdock/2013.1/src/exe/rbdock.cxx#4 $)

>  <Rbt.Library>
libRbt.so (2013.1, Build901 2013/11/27)

>  <Rbt.Parameter_File>
/export/apps/rDock/src/rDock_2013.1_src/data/scripts/dock_solv.prm

>  <Rbt.Receptor>
prm/pocket_docking_4.prm

>  <SCORE>
-14.3839

>  <SCORE.INTER>
-14.3839

>  <SCORE.INTER.CONST>
1

>  <SCORE.INTER.POLAR>
0

>  <SCORE.INTER.ROT>
0

>  <SCORE.INTER.SOLV>
7.90348

>  <SCORE.INTER.VDW>
-15.8238

>  <SCORE.INTER.norm>
-1.43839

>  <SCORE.INTRA>
0

>  <SCORE.INTRA.DIHEDRAL>
0

>  <SCORE.INTRA.DIHEDRAL.0>
0

>  <SCORE.INTRA.POLAR>
0

>  <SCORE.INTRA.POLAR.0>
0

>  <SCORE.INTRA.REPUL>
0

>  <SCORE.INTRA.REPUL.0>
0

>  <SCORE.INTRA.SOLV>
0

>  <SCORE.INTRA.SOLV.lig_0>
-23.8949

>  <SCORE.INTRA.VDW>
0

>  <SCORE.INTRA.VDW.0>
0

>  <SCORE.INTRA.norm>
0

>  <SCORE.RESTR>
0

>  <SCORE.RESTR.CAVITY>
0

>  <SCORE.RESTR.norm>
0

>  <SCORE.SYSTEM>
0

>  <SCORE.SYSTEM.CONST>
0

>  <SCORE.SYSTEM.DIHEDRAL>
0

>  <SCORE.SYSTEM.SOLV>
0

>  <SCORE.SYSTEM.norm>
0

>  <SCORE.heavy>
10

>  <SCORE.norm>
-1.43839

>  <RMSD>
0.430

$$$$
ligand
 OpenBabel11021811513D
libRbt.so/2013.1/901 2013/11/27
 10 11  0  0  0  0  0  0  0  0999 V2000
  -30.2013   17.0230  -14.9584 N   0  0  0  0  0  0  0  0  0  0  0  0
  -31.0142   18.0733  -14.7830 C   0  0  0  0  0  0  0  0  0  0  0  0
  -31.4434   18.9608  -15.6795 N   0  0  0  0  0  0  0  0  0  0  0  0
  -30.9440   18.6890  -16.8959 C   0  0  0  0  0  0  0  0  0  0  0  0
  -30.0963   17.6496  -17.2313 C   0  0  0  0  0  0  0  0  0  0  0  0
  -29.7157   16.7761  -16.1926 C   0  0  0  0  0  0  0  0  0  0  0  0
  -28.9032   15.7298  -16.3720 N   0  0  0  0  0  0  0  0  0  0  0  0
  -29.7908   17.6831  -18.5813 N   0  0  0  0  0  0  0  0  0  0  0  0
  -30.4477   18.7284  -19.0267 C   0  0  0  0  0  0  0  0  0  0  0  0
  -31.1643   19.3818  -18.0626 N   0  0  0  0  0  0  0  0  0  0  0  0
  1  2  2  0  0  0  0
  1  6  1  0  0  0  0
  2  3  1  0  0  0  0
  3  4  2  0  0  0  0
  4  5  1  0  0  0  0
  4 10  1  0  0  0  0
  5  6  2  0  0  0  0
  5  8  1  0  0  0  0
  6  7  1  0  0  0  0
  8  9  1  0  0  0  0
  9 10  2  0  0  0  0
M  END
>  <CHROM.1>
-30.36659104,17.86076463,-16.77468415,1.24463560,-0.91225265,1.89552268

>  <Name>
ligand

>  <RI>
0

>  <Rbt.Current_Directory>
/home/itssahil/PROJECTS/Mol_Feturizer/New_Systems/rnas/4TZX

>  <Rbt.Executable>
rbdock ($Id: //depot/dev/client3/rdock/2013.1/src/exe/rbdock.cxx#4 $)

>  <Rbt.Library>
libRbt.so (2013.1, Build901 2013/11/27)

>  <Rbt.Parameter_File>
/export/apps/rDock/src/rDock_2013.1_src/data/scripts/dock_solv.prm

>  <Rbt.Receptor>
prm/pocket_docking_4.prm

>  <SCORE>
-14.3743

>  <SCORE.INTER>
-14.3743

>  <SCORE.INTER.CONST>
1

>  <SCORE.INTER.POLAR>
0

>  <SCORE.INTER.ROT>
0

>  <SCORE.INTER.SOLV>
8.21972

>  <SCORE.INTER.VDW>
-15.9228

>  <SCORE.INTER.norm>
-1.43743

>  <SCORE.INTRA>
0

>  <SCORE.INTRA.DIHEDRAL>
0

>  <SCORE.INTRA.DIHEDRAL.0>
0

>  <SCORE.INTRA.POLAR>
0

>  <SCORE.INTRA.POLAR.0>
0

>  <SCORE.INTRA.REPUL>
0

>  <SCORE.INTRA.REPUL.0>
0

>  <SCORE.INTRA.SOLV>
0

>  <SCORE.INTRA.SOLV.lig_0>
-23.8949

>  <SCORE.INTRA.VDW>
0

>  <SCORE.INTRA.VDW.0>
0

>  <SCORE.INTRA.norm>
0

>  <SCORE.RESTR>
0

>  <SCORE.RESTR.CAVITY>
0

>  <SCORE.RESTR.norm>
0

>  <SCORE.SYSTEM>
0

>  <SCORE.SYSTEM.CONST>
0

>  <SCORE.SYSTEM.DIHEDRAL>
0

>  <SCORE.SYSTEM.SOLV>
0

>  <SCORE.SYSTEM.norm>
0

>  <SCORE.heavy>
10

>  <SCORE.norm>
-1.43743

>  <RMSD>
0.430

$$$$
ligand
 OpenBabel11021811513D
libRbt.so/2013.1/901 2013/11/27
 10 11  0  0  0  0  0  0  0  0999 V2000
  -30.2659   17.0868  -14.9378 N   0  0  0  0  0  0  0  0  0  0  0  0
  -31.0871   18.1386  -14.8187 C   0  0  0  0  0  0  0  0  0  0  0  0
  -31.4898   18.9984  -15.7535 N   0  0  0  0  0  0  0  0  0  0  0  0
  -30.9506   18.6941  -16.9450 C   0  0  0  0  0  0  0  0  0  0  0  0
  -30.0895   17.6488  -17.2232 C   0  0  0  0  0  0  0  0  0  0  0  0
  -29.7400   16.8067  -16.1482 C   0  0  0  0  0  0  0  0  0  0  0  0
  -28.9191   15.7589  -16.2713 N   0  0  0  0  0  0  0  0  0  0  0  0
  -29.7408   17.6450  -18.5630 N   0  0  0  0  0  0  0  0  0  0  0  0
  -30.3861   18.6747  -19.0590 C   0  0  0  0  0  0  0  0  0  0  0  0
  -31.1353   19.3525  -18.1375 N   0  0  0  0  0  0  0  0  0  0  0  0
  1  2  2  0  0  0  0
  1  6  1  0  0  0  0
  2  3  1  0  0  0  0
  3  4  2  0  0  0  0
  4  5  1  0  0  0  0
  4 10  1  0  0  0  0
  5  6  2  0  0  0  0
  5  8  1  0  0  0  0
  6  7  1  0  0  0  0
  8  9  1  0  0  0  0
  9 10  2  0  0  0  0
M  END
>  <CHROM.1>
-30.37503905,17.87184508,-16.78164713,1.29217351,-0.89862862,1.90436182

>  <Name>
ligand

>  <RI>
0

>  <Rbt.Current_Directory>
/home/itssahil/PROJECTS/Mol_Feturizer/New_Systems/rnas/4TZX

>  <Rbt.Executable>
rbdock ($Id: //depot/dev/client3/rdock/2013.1/src/exe/rbdock.cxx#4 $)

>  <Rbt.Library>
libRbt.so (2013.1, Build901 2013/11/27)

>  <Rbt.Parameter_File>
/export/apps/rDock/src/rDock_2013.1_src/data/scripts/dock_solv.prm

>  <Rbt.Receptor>
prm/pocket_docking_4.prm

>  <SCORE>
-14.3625

>  <SCORE.INTER>
-14.3625

>  <SCORE.INTER.CONST>
1

>  <SCORE.INTER.POLAR>
0

>  <SCORE.INTER.ROT>
0

>  <SCORE.INTER.SOLV>
8.08068

>  <SCORE.INTER.VDW>
-15.8686

>  <SCORE.INTER.norm>
-1.43625

>  <SCORE.INTRA>
0

>  <SCORE.INTRA.DIHEDRAL>
0

>  <SCORE.INTRA.DIHEDRAL.0>
0

>  <SCORE.INTRA.POLAR>
0

>  <SCORE.INTRA.POLAR.0>
0

>  <SCORE.INTRA.REPUL>
0

>  <SCORE.INTRA.REPUL.0>
0

>  <SCORE.INTRA.SOLV>
0

>  <SCORE.INTRA.SOLV.lig_0>
-23.8949

>  <SCORE.INTRA.VDW>
0

>  <SCORE.INTRA.VDW.0>
0

>  <SCORE.INTRA.norm>
0

>  <SCORE.RESTR>
0

>  <SCORE.RESTR.CAVITY>
0

>  <SCORE.RESTR.norm>
0

>  <SCORE.SYSTEM>
0

>  <SCORE.SYSTEM.CONST>
0

>  <SCORE.SYSTEM.DIHEDRAL>
0

>  <SCORE.SYSTEM.SOLV>
0

>  <SCORE.SYSTEM.norm>
0

>  <SCORE.heavy>
10

>  <SCORE.norm>
-1.43625

>  <RMSD>
0.430

$$$$
ligand
 OpenBabel11021811513D
libRbt.so/2013.1/901 2013/11/27
 10 11  0  0  0  0  0  0  0  0999 V2000
  -30.2060   17.0753  -14.9365 N   0  0  0  0  0  0  0  0  0  0  0  0
  -31.0420   18.1134  -14.8021 C   0  0  0  0  0  0  0  0  0  0  0  0
  -31.4738   18.9682  -15.7287 N   0  0  0  0  0  0  0  0  0  0  0  0
  -30.9491   18.6746  -16.9293 C   0  0  0  0  0  0  0  0  0  0  0  0
  -30.0758   17.6439  -17.2234 C   0  0  0  0  0  0  0  0  0  0  0  0
  -29.6954   16.8058  -16.1558 C   0  0  0  0  0  0  0  0  0  0  0  0
  -28.8597   15.7716  -16.2942 N   0  0  0  0  0  0  0  0  0  0  0  0
  -29.7488   17.6480  -18.5687 N   0  0  0  0  0  0  0  0  0  0  0  0
  -30.4187   18.6678  -19.0522 C   0  0  0  0  0  0  0  0  0  0  0  0
  -31.1637   19.3319  -18.1174 N   0  0  0  0  0  0  0  0  0  0  0  0
  1  2  2  0  0  0  0
  1  6  1  0  0  0  0
  2  3  1  0  0  0  0
  3  4  2  0  0  0  0
  4  5  1  0  0  0  0
  4 10  1  0  0  0  0
  5  6  2  0  0  0  0
  5  8  1  0  0  0  0
  6  7  1  0  0  0  0
  8  9  1  0  0  0  0
  9 10  2  0  0  0  0
M  END
>  <CHROM.1>
-30.35770256,17.86153912,-16.77686860,1.25948446,-0.88838572,1.88067446

>  <Name>
ligand

>  <RI>
0

>  <Rbt.Current_Directory>
/home/itssahil/PROJECTS/Mol_Feturizer/New_Systems/rnas/4TZX

>  <Rbt.Executable>
rbdock ($Id: //depot/dev/client3/rdock/2013.1/src/exe/rbdock.cxx#4 $)

>  <Rbt.Library>
libRbt.so (2013.1, Build901 2013/11/27)

>  <Rbt.Parameter_File>
/export/apps/rDock/src/rDock_2013.1_src/data/scripts/dock_solv.prm

>  <Rbt.Receptor>
prm/pocket_docking_4.prm

>  <SCORE>
-14.383

>  <SCORE.INTER>
-14.383

>  <SCORE.INTER.CONST>
1

>  <SCORE.INTER.POLAR>
0

>  <SCORE.INTER.ROT>
0

>  <SCORE.INTER.SOLV>
7.92931

>  <SCORE.INTER.VDW>
-15.8317

>  <SCORE.INTER.norm>
-1.4383

>  <SCORE.INTRA>
0

>  <SCORE.INTRA.DIHEDRAL>
0

>  <SCORE.INTRA.DIHEDRAL.0>
0

>  <SCORE.INTRA.POLAR>
0

>  <SCORE.INTRA.POLAR.0>
0

>  <SCORE.INTRA.REPUL>
0

>  <SCORE.INTRA.REPUL.0>
0

>  <SCORE.INTRA.SOLV>
0

>  <SCORE.INTRA.SOLV.lig_0>
-23.8949

>  <SCORE.INTRA.VDW>
0

>  <SCORE.INTRA.VDW.0>
0

>  <SCORE.INTRA.norm>
0

>  <SCORE.RESTR>
0

>  <SCORE.RESTR.CAVITY>
0

>  <SCORE.RESTR.norm>
0

>  <SCORE.SYSTEM>
0

>  <SCORE.SYSTEM.CONST>
0

>  <SCORE.SYSTEM.DIHEDRAL>
0

>  <SCORE.SYSTEM.SOLV>
0

>  <SCORE.SYSTEM.norm>
0

>  <SCORE.heavy>
10

>  <SCORE.norm>
-1.4383

>  <RMSD>
0.430

$$$$
ligand
 OpenBabel11021811513D
libRbt.so/2013.1/901 2013/11/27
 10 11  0  0  0  0  0  0  0  0999 V2000
  -30.2243   17.0793  -14.9378 N   0  0  0  0  0  0  0  0  0  0  0  0
  -31.0566   18.1212  -14.8092 C   0  0  0  0  0  0  0  0  0  0  0  0
  -31.4788   18.9772  -15.7390 N   0  0  0  0  0  0  0  0  0  0  0  0
  -30.9482   18.6804  -16.9362 C   0  0  0  0  0  0  0  0  0  0  0  0
  -30.0777   17.6456  -17.2242 C   0  0  0  0  0  0  0  0  0  0  0  0
  -29.7075   16.8066  -16.1538 C   0  0  0  0  0  0  0  0  0  0  0  0
  -28.8756   15.7686  -16.2864 N   0  0  0  0  0  0  0  0  0  0  0  0
  -29.7425   17.6473  -18.5675 N   0  0  0  0  0  0  0  0  0  0  0  0
  -30.4049   18.6697  -19.0559 C   0  0  0  0  0  0  0  0  0  0  0  0
  -31.1526   19.3378  -18.1261 N   0  0  0  0  0  0  0  0  0  0  0  0
  1  2  2  0  0  0  0
  1  6  1  0  0  0  0
  2  3  1  0  0  0  0
  3  4  2  0  0  0  0
  4  5  1  0  0  0  0
  4 10  1  0  0  0  0
  5  6  2  0  0  0  0
  5  8  1  0  0  0  0
  6  7  1  0  0  0  0
  8  9  1  0  0  0  0
  9 10  2  0  0  0  0
M  END
>  <CHROM.1>
-30.36133942,17.86482782,-16.77958696,1.27086018,-0.89073040,1.88878180

>  <Name>
ligand

>  <RI>
0

>  <Rbt.Current_Directory>
/home/itssahil/PROJECTS/Mol_Feturizer/New_Systems/rnas/4TZX

>  <Rbt.Executable>
rbdock ($Id: //depot/dev/client3/rdock/2013.1/src/exe/rbdock.cxx#4 $)

>  <Rbt.Library>
libRbt.so (2013.1, Build901 2013/11/27)

>  <Rbt.Parameter_File>
/export/apps/rDock/src/rDock_2013.1_src/data/scripts/dock_solv.prm

>  <Rbt.Receptor>
prm/pocket_docking_7.prm

>  <SCORE>
-14.38

>  <SCORE.INTER>
-14.3803

>  <SCORE.INTER.CONST>
1

>  <SCORE.INTER.POLAR>
0

>  <SCORE.INTER.ROT>
0

>  <SCORE.INTER.SOLV>
7.96786

>  <SCORE.INTER.VDW>
-15.8428

>  <SCORE.INTER.norm>
-1.43803

>  <SCORE.INTRA>
0

>  <SCORE.INTRA.DIHEDRAL>
0

>  <SCORE.INTRA.DIHEDRAL.0>
0

>  <SCORE.INTRA.POLAR>
0

>  <SCORE.INTRA.POLAR.0>
0

>  <SCORE.INTRA.REPUL>
0

>  <SCORE.INTRA.REPUL.0>
0

>  <SCORE.INTRA.SOLV>
0

>  <SCORE.INTRA.SOLV.lig_0>
-23.8949

>  <SCORE.INTRA.VDW>
0

>  <SCORE.INTRA.VDW.0>
0

>  <SCORE.INTRA.norm>
0

>  <SCORE.RESTR>
0.000335938

>  <SCORE.RESTR.CAVITY>
0.000335938

>  <SCORE.RESTR.norm>
3.35938e-05

>  <SCORE.SYSTEM>
0

>  <SCORE.SYSTEM.CONST>
0

>  <SCORE.SYSTEM.DIHEDRAL>
0

>  <SCORE.SYSTEM.SOLV>
0

>  <SCORE.SYSTEM.norm>
0

>  <SCORE.heavy>
10

>  <SCORE.norm>
-1.438

>  <RMSD>
0.430

$$$$
ligand
 OpenBabel11021811513D
libRbt.so/2013.1/901 2013/11/27
 10 11  0  0  0  0  0  0  0  0999 V2000
  -30.2144   17.0635  -14.9450 N   0  0  0  0  0  0  0  0  0  0  0  0
  -31.0417   18.1074  -14.8011 C   0  0  0  0  0  0  0  0  0  0  0  0
  -31.4691   18.9719  -15.7206 N   0  0  0  0  0  0  0  0  0  0  0  0
  -30.9502   18.6823  -16.9246 C   0  0  0  0  0  0  0  0  0  0  0  0
  -30.0862   17.6465  -17.2283 C   0  0  0  0  0  0  0  0  0  0  0  0
  -29.7095   16.7982  -16.1676 C   0  0  0  0  0  0  0  0  0  0  0  0
  -28.8826   15.7582  -16.3154 N   0  0  0  0  0  0  0  0  0  0  0  0
  -29.7631   17.6572  -18.5744 N   0  0  0  0  0  0  0  0  0  0  0  0
  -30.4260   18.6857  -19.0491 C   0  0  0  0  0  0  0  0  0  0  0  0
  -31.1629   19.3494  -18.1077 N   0  0  0  0  0  0  0  0  0  0  0  0
  1  2  2  0  0  0  0
  1  6  1  0  0  0  0
  2  3  1  0  0  0  0
  3  4  2  0  0  0  0
  4  5  1  0  0  0  0
  4 10  1  0  0  0  0
  5  6  2  0  0  0  0
  5  8  1  0  0  0  0
  6  7  1  0  0  0  0
  8  9  1  0  0  0  0
  9 10  2  0  0  0  0
M  END
>  <CHROM.1>
-30.36503201,17.86342179,-16.77948417,1.25908235,-0.89699194,1.88715417

>  <Name>
ligand

>  <RI>
0

>  <Rbt.Current_Directory>
/home/itssahil/PROJECTS/Mol_Feturizer/New_Systems/rnas/4TZX

>  <Rbt.Executable>
rbdock ($Id: //depot/dev/client3/rdock/2013.1/src/exe/rbdock.cxx#4 $)

>  <Rbt.Library>
libRbt.so (2013.1, Build901 2013/11/27)

>  <Rbt.Parameter_File>
/export/apps/rDock/src/rDock_2013.1_src/data/scripts/dock_solv.prm

>  <Rbt.Receptor>
prm/pocket_docking_7.prm

>  <SCORE>
-14.3788

>  <SCORE.INTER>
-14.3788

>  <SCORE.INTER.CONST>
1

>  <SCORE.INTER.POLAR>
0

>  <SCORE.INTER.ROT>
0

>  <SCORE.INTER.SOLV>
8.04413

>  <SCORE.INTER.VDW>
-15.8672

>  <SCORE.INTER.norm>
-1.43788

>  <SCORE.INTRA>
0

>  <SCORE.INTRA.DIHEDRAL>
0

>  <SCORE.INTRA.DIHEDRAL.0>
0

>  <SCORE.INTRA.POLAR>
0

>  <SCORE.INTRA.POLAR.0>
0

>  <SCORE.INTRA.REPUL>
0

>  <SCORE.INTRA.REPUL.0>
0

>  <SCORE.INTRA.SOLV>
0

>  <SCORE.INTRA.SOLV.lig_0>
-23.8949

>  <SCORE.INTRA.VDW>
0

>  <SCORE.INTRA.VDW.0>
0

>  <SCORE.INTRA.norm>
0

>  <SCORE.RESTR>
0

>  <SCORE.RESTR.CAVITY>
0

>  <SCORE.RESTR.norm>
0

>  <SCORE.SYSTEM>
0

>  <SCORE.SYSTEM.CONST>
0

>  <SCORE.SYSTEM.DIHEDRAL>
0

>  <SCORE.SYSTEM.SOLV>
0

>  <SCORE.SYSTEM.norm>
0

>  <SCORE.heavy>
10

>  <SCORE.norm>
-1.43788

>  <RMSD>
0.430

$$$$
ligand
 OpenBabel11021811513D
libRbt.so/2013.1/901 2013/11/27
 10 11  0  0  0  0  0  0  0  0999 V2000
  -30.1736   17.0568  -14.9413 N   0  0  0  0  0  0  0  0  0  0  0  0
  -31.0106   18.0916  -14.7880 C   0  0  0  0  0  0  0  0  0  0  0  0
  -31.4559   18.9528  -15.7021 N   0  0  0  0  0  0  0  0  0  0  0  0
  -30.9454   18.6704  -16.9114 C   0  0  0  0  0  0  0  0  0  0  0  0
  -30.0732   17.6445  -17.2248 C   0  0  0  0  0  0  0  0  0  0  0  0
  -29.6775   16.7987  -16.1690 C   0  0  0  0  0  0  0  0  0  0  0  0
  -28.8409   15.7678  -16.3262 N   0  0  0  0  0  0  0  0  0  0  0  0
  -29.7630   17.6605  -18.5739 N   0  0  0  0  0  0  0  0  0  0  0  0
  -30.4413   18.6825  -19.0408 C   0  0  0  0  0  0  0  0  0  0  0  0
  -31.1764   19.3369  -18.0914 N   0  0  0  0  0  0  0  0  0  0  0  0
  1  2  2  0  0  0  0
  1  6  1  0  0  0  0
  2  3  1  0  0  0  0
  3  4  2  0  0  0  0
  4  5  1  0  0  0  0
  4 10  1  0  0  0  0
  5  6  2  0  0  0  0
  5  8  1  0  0  0  0
  6  7  1  0  0  0  0
  8  9  1  0  0  0  0
  9 10  2  0  0  0  0
M  END
>  <CHROM.1>
-30.35011849,17.85770359,-16.77305322,1.23951349,-0.88965649,1.87339212

>  <Name>
ligand

>  <RI>
0

>  <Rbt.Current_Directory>
/home/itssahil/PROJECTS/Mol_Feturizer/New_Systems/rnas/4TZX

>  <Rbt.Executable>
rbdock ($Id: //depot/dev/client3/rdock/2013.1/src/exe/rbdock.cxx#4 $)

>  <Rbt.Library>
libRbt.so (2013.1, Build901 2013/11/27)

>  <Rbt.Parameter_File>
/export/apps/rDock/src/rDock_2013.1_src/data/scripts/dock_solv.prm

>  <Rbt.Receptor>
prm/blind_docking_100.prm

>  <SCORE>
-14.3876

>  <SCORE.INTER>
-14.3876

>  <SCORE.INTER.CONST>
1

>  <SCORE.INTER.POLAR>
0

>  <SCORE.INTER.ROT>
0

>  <SCORE.INTER.SOLV>
7.92413

>  <SCORE.INTER.VDW>
-15.8331

>  <SCORE.INTER.norm>
-1.43876

>  <SCORE.INTRA>
0

>  <SCORE.INTRA.DIHEDRAL>
0

>  <SCORE.INTRA.DIHEDRAL.0>
0

>  <SCORE.INTRA.POLAR>
0

>  <SCORE.INTRA.POLAR.0>
0

>  <SCORE.INTRA.REPUL>
0

>  <SCORE.INTRA.REPUL.0>
0

>  <SCORE.INTRA.SOLV>
0

>  <SCORE.INTRA.SOLV.lig_0>
-23.8949

>  <SCORE.INTRA.VDW>
0

>  <SCORE.INTRA.VDW.0>
0

>  <SCORE.INTRA.norm>
0

>  <SCORE.RESTR>
0

>  <SCORE.RESTR.CAVITY>
0

>  <SCORE.RESTR.norm>
0

>  <SCORE.SYSTEM>
0

>  <SCORE.SYSTEM.CONST>
0

>  <SCORE.SYSTEM.DIHEDRAL>
0

>  <SCORE.SYSTEM.SOLV>
0

>  <SCORE.SYSTEM.norm>
0

>  <SCORE.heavy>
10

>  <SCORE.norm>
-1.43876

>  <RMSD>
0.431

$$$$
ligand
 OpenBabel11021811513D
libRbt.so/2013.1/901 2013/11/27
 10 11  0  0  0  0  0  0  0  0999 V2000
  -30.1974   17.0731  -14.9377 N   0  0  0  0  0  0  0  0  0  0  0  0
  -31.0329   18.1113  -14.8002 C   0  0  0  0  0  0  0  0  0  0  0  0
  -31.4666   18.9672  -15.7247 N   0  0  0  0  0  0  0  0  0  0  0  0
  -30.9449   18.6747  -16.9269 C   0  0  0  0  0  0  0  0  0  0  0  0
  -30.0726   17.6442  -17.2242 C   0  0  0  0  0  0  0  0  0  0  0  0
  -29.6897   16.8049  -16.1585 C   0  0  0  0  0  0  0  0  0  0  0  0
  -28.8546   15.7706  -16.3001 N   0  0  0  0  0  0  0  0  0  0  0  0
  -29.7489   17.6497  -18.5703 N   0  0  0  0  0  0  0  0  0  0  0  0
  -30.4196   18.6702  -19.0512 C   0  0  0  0  0  0  0  0  0  0  0  0
  -31.1623   19.3334  -18.1138 N   0  0  0  0  0  0  0  0  0  0  0  0
  1  2  2  0  0  0  0
  1  6  1  0  0  0  0
  2  3  1  0  0  0  0
  3  4  2  0  0  0  0
  4  5  1  0  0  0  0
  4 10  1  0  0  0  0
  5  6  2  0  0  0  0
  5  8  1  0  0  0  0
  6  7  1  0  0  0  0
  8  9  1  0  0  0  0
  9 10  2  0  0  0  0
M  END
>  <CHROM.1>
-30.35335090,17.86138991,-16.77680679,1.25594426,-0.88932120,1.87901057

>  <Name>
ligand

>  <RI>
0

>  <Rbt.Current_Directory>
/home/itssahil/PROJECTS/Mol_Feturizer/New_Systems/rnas/4TZX

>  <Rbt.Executable>
rbdock ($Id: //depot/dev/client3/rdock/2013.1/src/exe/rbdock.cxx#4 $)

>  <Rbt.Library>
libRbt.so (2013.1, Build901 2013/11/27)

>  <Rbt.Parameter_File>
/export/apps/rDock/src/rDock_2013.1_src/data/scripts/dock_solv.prm

>  <Rbt.Receptor>
prm/blind_docking_100.prm

>  <SCORE>
-14.3854

>  <SCORE.INTER>
-14.3854

>  <SCORE.INTER.CONST>
1

>  <SCORE.INTER.POLAR>
0

>  <SCORE.INTER.ROT>
0

>  <SCORE.INTER.SOLV>
7.92512

>  <SCORE.INTER.VDW>
-15.832

>  <SCORE.INTER.norm>
-1.43854

>  <SCORE.INTRA>
0

>  <SCORE.INTRA.DIHEDRAL>
0

>  <SCORE.INTRA.DIHEDRAL.0>
0

>  <SCORE.INTRA.POLAR>
0

>  <SCORE.INTRA.POLAR.0>
0

>  <SCORE.INTRA.REPUL>
0

>  <SCORE.INTRA.REPUL.0>
0

>  <SCORE.INTRA.SOLV>
0

>  <SCORE.INTRA.SOLV.lig_0>
-23.8949

>  <SCORE.INTRA.VDW>
0

>  <SCORE.INTRA.VDW.0>
0

>  <SCORE.INTRA.norm>
0

>  <SCORE.RESTR>
0

>  <SCORE.RESTR.CAVITY>
0

>  <SCORE.RESTR.norm>
0

>  <SCORE.SYSTEM>
0

>  <SCORE.SYSTEM.CONST>
0

>  <SCORE.SYSTEM.DIHEDRAL>
0

>  <SCORE.SYSTEM.SOLV>
0

>  <SCORE.SYSTEM.norm>
0

>  <SCORE.heavy>
10

>  <SCORE.norm>
-1.43854

>  <RMSD>
0.431

$$$$
ligand
 OpenBabel11021811513D
libRbt.so/2013.1/901 2013/11/27
 10 11  0  0  0  0  0  0  0  0999 V2000
  -30.2323   16.9867  -14.9949 N   0  0  0  0  0  0  0  0  0  0  0  0
  -31.0445   18.0397  -14.8331 C   0  0  0  0  0  0  0  0  0  0  0  0
  -31.4610   18.9247  -15.7381 N   0  0  0  0  0  0  0  0  0  0  0  0
  -30.9480   18.6470  -16.9474 C   0  0  0  0  0  0  0  0  0  0  0  0
  -30.0990   17.6041  -17.2689 C   0  0  0  0  0  0  0  0  0  0  0  0
  -29.7329   16.7338  -16.2224 C   0  0  0  0  0  0  0  0  0  0  0  0
  -28.9209   15.6848  -16.3881 N   0  0  0  0  0  0  0  0  0  0  0  0
  -29.7777   17.6316  -18.6152 N   0  0  0  0  0  0  0  0  0  0  0  0
  -30.4267   18.6768  -19.0724 C   0  0  0  0  0  0  0  0  0  0  0  0
  -31.1529   19.3357  -18.1194 N   0  0  0  0  0  0  0  0  0  0  0  0
  1  2  2  0  0  0  0
  1  6  1  0  0  0  0
  2  3  1  0  0  0  0
  3  4  2  0  0  0  0
  4  5  1  0  0  0  0
  4 10  1  0  0  0  0
  5  6  2  0  0  0  0
  5  8  1  0  0  0  0
  6  7  1  0  0  0  0
  8  9  1  0  0  0  0
  9 10  2  0  0  0  0
M  END
>  <CHROM.1>
-30.37416910,17.81776610,-16.81623154,1.26407280,-0.91079840,1.90697002

>  <Name>
ligand

>  <RI>
0

>  <Rbt.Current_Directory>
/home/itssahil/PROJECTS/Mol_Feturizer/New_Systems/rnas/4TZX

>  <Rbt.Executable>
rbdock ($Id: //depot/dev/client3/rdock/2013.1/src/exe/rbdock.cxx#4 $)

>  <Rbt.Library>
libRbt.so (2013.1, Build901 2013/11/27)

>  <Rbt.Parameter_File>
/export/apps/rDock/src/rDock_2013.1_src/data/scripts/dock_solv.prm

>  <Rbt.Receptor>
prm/pocket_docking_5.prm

>  <SCORE>
-14.3872

>  <SCORE.INTER>
-14.3872

>  <SCORE.INTER.CONST>
1

>  <SCORE.INTER.POLAR>
0

>  <SCORE.INTER.ROT>
0

>  <SCORE.INTER.SOLV>
8.36409

>  <SCORE.INTER.VDW>
-15.9795

>  <SCORE.INTER.norm>
-1.43872

>  <SCORE.INTRA>
0

>  <SCORE.INTRA.DIHEDRAL>
0

>  <SCORE.INTRA.DIHEDRAL.0>
0

>  <SCORE.INTRA.POLAR>
0

>  <SCORE.INTRA.POLAR.0>
0

>  <SCORE.INTRA.REPUL>
0

>  <SCORE.INTRA.REPUL.0>
0

>  <SCORE.INTRA.SOLV>
0

>  <SCORE.INTRA.SOLV.lig_0>
-23.8949

>  <SCORE.INTRA.VDW>
0

>  <SCORE.INTRA.VDW.0>
0

>  <SCORE.INTRA.norm>
0

>  <SCORE.RESTR>
0

>  <SCORE.RESTR.CAVITY>
0

>  <SCORE.RESTR.norm>
0

>  <SCORE.SYSTEM>
0

>  <SCORE.SYSTEM.CONST>
0

>  <SCORE.SYSTEM.DIHEDRAL>
0

>  <SCORE.SYSTEM.SOLV>
0

>  <SCORE.SYSTEM.norm>
0

>  <SCORE.heavy>
10

>  <SCORE.norm>
-1.43872

>  <RMSD>
0.431

$$$$
ligand
 OpenBabel11021811513D
libRbt.so/2013.1/901 2013/11/27
 10 11  0  0  0  0  0  0  0  0999 V2000
  -30.1863   17.0630  -14.9403 N   0  0  0  0  0  0  0  0  0  0  0  0
  -31.0210   18.1004  -14.7922 C   0  0  0  0  0  0  0  0  0  0  0  0
  -31.4605   18.9610  -15.7096 N   0  0  0  0  0  0  0  0  0  0  0  0
  -30.9463   18.6749  -16.9165 C   0  0  0  0  0  0  0  0  0  0  0  0
  -30.0758   17.6459  -17.2246 C   0  0  0  0  0  0  0  0  0  0  0  0
  -29.6863   16.8011  -16.1656 C   0  0  0  0  0  0  0  0  0  0  0  0
  -28.8520   15.7677  -16.3177 N   0  0  0  0  0  0  0  0  0  0  0  0
  -29.7605   17.6584  -18.5726 N   0  0  0  0  0  0  0  0  0  0  0  0
  -30.4343   18.6813  -19.0440 C   0  0  0  0  0  0  0  0  0  0  0  0
  -31.1711   19.3396  -18.0986 N   0  0  0  0  0  0  0  0  0  0  0  0
  1  2  2  0  0  0  0
  1  6  1  0  0  0  0
  2  3  1  0  0  0  0
  3  4  2  0  0  0  0
  4  5  1  0  0  0  0
  4 10  1  0  0  0  0
  5  6  2  0  0  0  0
  5  8  1  0  0  0  0
  6  7  1  0  0  0  0
  8  9  1  0  0  0  0
  9 10  2  0  0  0  0
M  END
>  <CHROM.1>
-30.35380487,17.86080859,-16.77427786,1.24645848,-0.89116163,1.87680578

>  <Name>
ligand

>  <RI>
0

>  <Rbt.Current_Directory>
/home/itssahil/PROJECTS/Mol_Feturizer/New_Systems/rnas/4TZX

>  <Rbt.Executable>
rbdock ($Id: //depot/dev/client3/rdock/2013.1/src/exe/rbdock.cxx#4 $)

>  <Rbt.Library>
libRbt.so (2013.1, Build901 2013/11/27)

>  <Rbt.Parameter_File>
/export/apps/rDock/src/rDock_2013.1_src/data/scripts/dock_solv.prm

>  <Rbt.Receptor>
prm/pocket_docking_5.prm

>  <SCORE>
-14.3853

>  <SCORE.INTER>
-14.3853

>  <SCORE.INTER.CONST>
1

>  <SCORE.INTER.POLAR>
0

>  <SCORE.INTER.ROT>
0

>  <SCORE.INTER.SOLV>
7.94523

>  <SCORE.INTER.VDW>
-15.8386

>  <SCORE.INTER.norm>
-1.43853

>  <SCORE.INTRA>
0

>  <SCORE.INTRA.DIHEDRAL>
0

>  <SCORE.INTRA.DIHEDRAL.0>
0

>  <SCORE.INTRA.POLAR>
0

>  <SCORE.INTRA.POLAR.0>
0

>  <SCORE.INTRA.REPUL>
0

>  <SCORE.INTRA.REPUL.0>
0

>  <SCORE.INTRA.SOLV>
0

>  <SCORE.INTRA.SOLV.lig_0>
-23.8949

>  <SCORE.INTRA.VDW>
0

>  <SCORE.INTRA.VDW.0>
0

>  <SCORE.INTRA.norm>
0

>  <SCORE.RESTR>
0

>  <SCORE.RESTR.CAVITY>
0

>  <SCORE.RESTR.norm>
0

>  <SCORE.SYSTEM>
0

>  <SCORE.SYSTEM.CONST>
0

>  <SCORE.SYSTEM.DIHEDRAL>
0

>  <SCORE.SYSTEM.SOLV>
0

>  <SCORE.SYSTEM.norm>
0

>  <SCORE.heavy>
10

>  <SCORE.norm>
-1.43853

>  <RMSD>
0.431

$$$$
ligand
 OpenBabel11021811513D
libRbt.so/2013.1/901 2013/11/27
 10 11  0  0  0  0  0  0  0  0999 V2000
  -30.2256   16.9837  -14.9948 N   0  0  0  0  0  0  0  0  0  0  0  0
  -31.0383   18.0363  -14.8320 C   0  0  0  0  0  0  0  0  0  0  0  0
  -31.4559   18.9214  -15.7363 N   0  0  0  0  0  0  0  0  0  0  0  0
  -30.9436   18.6443  -16.9462 C   0  0  0  0  0  0  0  0  0  0  0  0
  -30.0944   17.6020  -17.2686 C   0  0  0  0  0  0  0  0  0  0  0  0
  -29.7270   16.7315  -16.2227 C   0  0  0  0  0  0  0  0  0  0  0  0
  -28.9146   15.6830  -16.3894 N   0  0  0  0  0  0  0  0  0  0  0  0
  -29.7741   17.6301  -18.6152 N   0  0  0  0  0  0  0  0  0  0  0  0
  -30.4239   18.6751  -19.0716 C   0  0  0  0  0  0  0  0  0  0  0  0
  -31.1498   19.3333  -18.1177 N   0  0  0  0  0  0  0  0  0  0  0  0
  1  2  2  0  0  0  0
  1  6  1  0  0  0  0
  2  3  1  0  0  0  0
  3  4  2  0  0  0  0
  4  5  1  0  0  0  0
  4 10  1  0  0  0  0
  5  6  2  0  0  0  0
  5  8  1  0  0  0  0
  6  7  1  0  0  0  0
  8  9  1  0  0  0  0
  9 10  2  0  0  0  0
M  END
>  <CHROM.1>
-30.36929886,17.81535000,-16.81570931,1.26262359,-0.91057339,1.90616257

>  <Name>
ligand

>  <RI>
0

>  <Rbt.Current_Directory>
/home/itssahil/PROJECTS/Mol_Feturizer/New_Systems/rnas/4TZX

>  <Rbt.Executable>
rbdock ($Id: //depot/dev/client3/rdock/2013.1/src/exe/rbdock.cxx#4 $)

>  <Rbt.Library>
libRbt.so (2013.1, Build901 2013/11/27)

>  <Rbt.Parameter_File>
/export/apps/rDock/src/rDock_2013.1_src/data/scripts/dock_solv.prm

>  <Rbt.Receptor>
prm/pocket_docking_6.prm

>  <SCORE>
-14.3899

>  <SCORE.INTER>
-14.3899

>  <SCORE.INTER.CONST>
1

>  <SCORE.INTER.POLAR>
0

>  <SCORE.INTER.ROT>
0

>  <SCORE.INTER.SOLV>
8.35207

>  <SCORE.INTER.VDW>
-15.9773

>  <SCORE.INTER.norm>
-1.43899

>  <SCORE.INTRA>
0

>  <SCORE.INTRA.DIHEDRAL>
0

>  <SCORE.INTRA.DIHEDRAL.0>
0

>  <SCORE.INTRA.POLAR>
0

>  <SCORE.INTRA.POLAR.0>
0

>  <SCORE.INTRA.REPUL>
0

>  <SCORE.INTRA.REPUL.0>
0

>  <SCORE.INTRA.SOLV>
0

>  <SCORE.INTRA.SOLV.lig_0>
-23.8949

>  <SCORE.INTRA.VDW>
0

>  <SCORE.INTRA.VDW.0>
0

>  <SCORE.INTRA.norm>
0

>  <SCORE.RESTR>
0

>  <SCORE.RESTR.CAVITY>
0

>  <SCORE.RESTR.norm>
0

>  <SCORE.SYSTEM>
0

>  <SCORE.SYSTEM.CONST>
0

>  <SCORE.SYSTEM.DIHEDRAL>
0

>  <SCORE.SYSTEM.SOLV>
0

>  <SCORE.SYSTEM.norm>
0

>  <SCORE.heavy>
10

>  <SCORE.norm>
-1.43899

>  <RMSD>
0.431

$$$$
ligand
 OpenBabel11021811513D
libRbt.so/2013.1/901 2013/11/27
 10 11  0  0  0  0  0  0  0  0999 V2000
  -30.2009   17.0746  -14.9380 N   0  0  0  0  0  0  0  0  0  0  0  0
  -31.0371   18.1123  -14.8008 C   0  0  0  0  0  0  0  0  0  0  0  0
  -31.4712   18.9677  -15.7256 N   0  0  0  0  0  0  0  0  0  0  0  0
  -30.9491   18.6755  -16.9276 C   0  0  0  0  0  0  0  0  0  0  0  0
  -30.0760   17.6454  -17.2246 C   0  0  0  0  0  0  0  0  0  0  0  0
  -29.6929   16.8065  -16.1587 C   0  0  0  0  0  0  0  0  0  0  0  0
  -28.8570   15.7728  -16.2999 N   0  0  0  0  0  0  0  0  0  0  0  0
  -29.7521   17.6509  -18.5706 N   0  0  0  0  0  0  0  0  0  0  0  0
  -30.4234   18.6709  -19.0518 C   0  0  0  0  0  0  0  0  0  0  0  0
  -31.1666   19.3338  -18.1147 N   0  0  0  0  0  0  0  0  0  0  0  0
  1  2  2  0  0  0  0
  1  6  1  0  0  0  0
  2  3  1  0  0  0  0
  3  4  2  0  0  0  0
  4  5  1  0  0  0  0
  4 10  1  0  0  0  0
  5  6  2  0  0  0  0
  5  8  1  0  0  0  0
  6  7  1  0  0  0  0
  8  9  1  0  0  0  0
  9 10  2  0  0  0  0
M  END
>  <CHROM.1>
-30.35703008,17.86253013,-16.77729208,1.25592672,-0.88865885,1.87884307

>  <Name>
ligand

>  <RI>
0

>  <Rbt.Current_Directory>
/home/itssahil/PROJECTS/Mol_Feturizer/New_Systems/rnas/4TZX

>  <Rbt.Executable>
rbdock ($Id: //depot/dev/client3/rdock/2013.1/src/exe/rbdock.cxx#4 $)

>  <Rbt.Library>
libRbt.so (2013.1, Build901 2013/11/27)

>  <Rbt.Parameter_File>
/export/apps/rDock/src/rDock_2013.1_src/data/scripts/dock_solv.prm

>  <Rbt.Receptor>
prm/pocket_docking_7.prm

>  <SCORE>
-14.3831

>  <SCORE.INTER>
-14.3831

>  <SCORE.INTER.CONST>
1

>  <SCORE.INTER.POLAR>
0

>  <SCORE.INTER.ROT>
0

>  <SCORE.INTER.SOLV>
7.92721

>  <SCORE.INTER.VDW>
-15.8311

>  <SCORE.INTER.norm>
-1.43831

>  <SCORE.INTRA>
0

>  <SCORE.INTRA.DIHEDRAL>
0

>  <SCORE.INTRA.DIHEDRAL.0>
0

>  <SCORE.INTRA.POLAR>
0

>  <SCORE.INTRA.POLAR.0>
0

>  <SCORE.INTRA.REPUL>
0

>  <SCORE.INTRA.REPUL.0>
0

>  <SCORE.INTRA.SOLV>
0

>  <SCORE.INTRA.SOLV.lig_0>
-23.8949

>  <SCORE.INTRA.VDW>
0

>  <SCORE.INTRA.VDW.0>
0

>  <SCORE.INTRA.norm>
0

>  <SCORE.RESTR>
0

>  <SCORE.RESTR.CAVITY>
0

>  <SCORE.RESTR.norm>
0

>  <SCORE.SYSTEM>
0

>  <SCORE.SYSTEM.CONST>
0

>  <SCORE.SYSTEM.DIHEDRAL>
0

>  <SCORE.SYSTEM.SOLV>
0

>  <SCORE.SYSTEM.norm>
0

>  <SCORE.heavy>
10

>  <SCORE.norm>
-1.43831

>  <RMSD>
0.431

$$$$
ligand
 OpenBabel11021811513D
libRbt.so/2013.1/901 2013/11/27
 10 11  0  0  0  0  0  0  0  0999 V2000
  -30.2084   17.0725  -14.9398 N   0  0  0  0  0  0  0  0  0  0  0  0
  -31.0420   18.1122  -14.8026 C   0  0  0  0  0  0  0  0  0  0  0  0
  -31.4730   18.9696  -15.7271 N   0  0  0  0  0  0  0  0  0  0  0  0
  -30.9505   18.6769  -16.9289 C   0  0  0  0  0  0  0  0  0  0  0  0
  -30.0798   17.6448  -17.2259 C   0  0  0  0  0  0  0  0  0  0  0  0
  -29.6999   16.8041  -16.1603 C   0  0  0  0  0  0  0  0  0  0  0  0
  -28.8666   15.7683  -16.3015 N   0  0  0  0  0  0  0  0  0  0  0  0
  -29.7545   17.6506  -18.5715 N   0  0  0  0  0  0  0  0  0  0  0  0
  -30.4227   18.6727  -19.0525 C   0  0  0  0  0  0  0  0  0  0  0  0
  -31.1652   19.3368  -18.1156 N   0  0  0  0  0  0  0  0  0  0  0  0
  1  2  2  0  0  0  0
  1  6  1  0  0  0  0
  2  3  1  0  0  0  0
  3  4  2  0  0  0  0
  4  5  1  0  0  0  0
  4 10  1  0  0  0  0
  5  6  2  0  0  0  0
  5  8  1  0  0  0  0
  6  7  1  0  0  0  0
  8  9  1  0  0  0  0
  9 10  2  0  0  0  0
M  END
>  <CHROM.1>
-30.36067454,17.86230457,-16.77863197,1.25866279,-0.89083837,1.88177994

>  <Name>
ligand

>  <RI>
0

>  <Rbt.Current_Directory>
/home/itssahil/PROJECTS/Mol_Feturizer/New_Systems/rnas/4TZX

>  <Rbt.Executable>
rbdock ($Id: //depot/dev/client3/rdock/2013.1/src/exe/rbdock.cxx#4 $)

>  <Rbt.Library>
libRbt.so (2013.1, Build901 2013/11/27)

>  <Rbt.Parameter_File>
/export/apps/rDock/src/rDock_2013.1_src/data/scripts/dock_solv.prm

>  <Rbt.Receptor>
prm/pocket_docking_7.prm

>  <SCORE>
-14.3808

>  <SCORE.INTER>
-14.3808

>  <SCORE.INTER.CONST>
1

>  <SCORE.INTER.POLAR>
0

>  <SCORE.INTER.ROT>
0

>  <SCORE.INTER.SOLV>
7.9635

>  <SCORE.INTER.VDW>
-15.8417

>  <SCORE.INTER.norm>
-1.43808

>  <SCORE.INTRA>
0

>  <SCORE.INTRA.DIHEDRAL>
0

>  <SCORE.INTRA.DIHEDRAL.0>
0

>  <SCORE.INTRA.POLAR>
0

>  <SCORE.INTRA.POLAR.0>
0

>  <SCORE.INTRA.REPUL>
0

>  <SCORE.INTRA.REPUL.0>
0

>  <SCORE.INTRA.SOLV>
0

>  <SCORE.INTRA.SOLV.lig_0>
-23.8949

>  <SCORE.INTRA.VDW>
0

>  <SCORE.INTRA.VDW.0>
0

>  <SCORE.INTRA.norm>
0

>  <SCORE.RESTR>
0

>  <SCORE.RESTR.CAVITY>
0

>  <SCORE.RESTR.norm>
0

>  <SCORE.SYSTEM>
0

>  <SCORE.SYSTEM.CONST>
0

>  <SCORE.SYSTEM.DIHEDRAL>
0

>  <SCORE.SYSTEM.SOLV>
0

>  <SCORE.SYSTEM.norm>
0

>  <SCORE.heavy>
10

>  <SCORE.norm>
-1.43808

>  <RMSD>
0.431

$$$$
ligand
 OpenBabel11021811513D
libRbt.so/2013.1/901 2013/11/27
 10 11  0  0  0  0  0  0  0  0999 V2000
  -30.2049   17.0800  -14.9370 N   0  0  0  0  0  0  0  0  0  0  0  0
  -31.0404   18.1187  -14.8029 C   0  0  0  0  0  0  0  0  0  0  0  0
  -31.4729   18.9724  -15.7300 N   0  0  0  0  0  0  0  0  0  0  0  0
  -30.9499   18.6770  -16.9309 C   0  0  0  0  0  0  0  0  0  0  0  0
  -30.0775   17.6454  -17.2247 C   0  0  0  0  0  0  0  0  0  0  0  0
  -29.6960   16.8086  -16.1566 C   0  0  0  0  0  0  0  0  0  0  0  0
  -28.8610   15.7739  -16.2947 N   0  0  0  0  0  0  0  0  0  0  0  0
  -29.7523   17.6476  -18.5705 N   0  0  0  0  0  0  0  0  0  0  0  0
  -30.4223   18.6671  -19.0546 C   0  0  0  0  0  0  0  0  0  0  0  0
  -31.1658   19.3327  -18.1197 N   0  0  0  0  0  0  0  0  0  0  0  0
  1  2  2  0  0  0  0
  1  6  1  0  0  0  0
  2  3  1  0  0  0  0
  3  4  2  0  0  0  0
  4  5  1  0  0  0  0
  4 10  1  0  0  0  0
  5  6  2  0  0  0  0
  5  8  1  0  0  0  0
  6  7  1  0  0  0  0
  8  9  1  0  0  0  0
  9 10  2  0  0  0  0
M  END
>  <CHROM.1>
-30.35871868,17.86382598,-16.77817105,1.25772246,-0.88921534,1.87794739

>  <Name>
ligand

>  <RI>
0

>  <Rbt.Current_Directory>
/home/itssahil/PROJECTS/Mol_Feturizer/New_Systems/rnas/4TZX

>  <Rbt.Executable>
rbdock ($Id: //depot/dev/client3/rdock/2013.1/src/exe/rbdock.cxx#4 $)

>  <Rbt.Library>
libRbt.so (2013.1, Build901 2013/11/27)

>  <Rbt.Parameter_File>
/export/apps/rDock/src/rDock_2013.1_src/data/scripts/dock_solv.prm

>  <Rbt.Receptor>
prm/blind_docking_100.prm

>  <SCORE>
-14.377

>  <SCORE.INTER>
-14.377

>  <SCORE.INTER.CONST>
1

>  <SCORE.INTER.POLAR>
0

>  <SCORE.INTER.ROT>
0

>  <SCORE.INTER.SOLV>
7.93039

>  <SCORE.INTER.VDW>
-15.8281

>  <SCORE.INTER.norm>
-1.4377

>  <SCORE.INTRA>
0

>  <SCORE.INTRA.DIHEDRAL>
0

>  <SCORE.INTRA.DIHEDRAL.0>
0

>  <SCORE.INTRA.POLAR>
0

>  <SCORE.INTRA.POLAR.0>
0

>  <SCORE.INTRA.REPUL>
0

>  <SCORE.INTRA.REPUL.0>
0

>  <SCORE.INTRA.SOLV>
0

>  <SCORE.INTRA.SOLV.lig_0>
-23.8949

>  <SCORE.INTRA.VDW>
0

>  <SCORE.INTRA.VDW.0>
0

>  <SCORE.INTRA.norm>
0

>  <SCORE.RESTR>
0

>  <SCORE.RESTR.CAVITY>
0

>  <SCORE.RESTR.norm>
0

>  <SCORE.SYSTEM>
0

>  <SCORE.SYSTEM.CONST>
0

>  <SCORE.SYSTEM.DIHEDRAL>
0

>  <SCORE.SYSTEM.SOLV>
0

>  <SCORE.SYSTEM.norm>
0

>  <SCORE.heavy>
10

>  <SCORE.norm>
-1.4377

>  <RMSD>
0.432

$$$$
ligand
 OpenBabel11021811513D
libRbt.so/2013.1/901 2013/11/27
 10 11  0  0  0  0  0  0  0  0999 V2000
  -30.2202   16.9836  -14.9954 N   0  0  0  0  0  0  0  0  0  0  0  0
  -31.0297   18.0389  -14.8343 C   0  0  0  0  0  0  0  0  0  0  0  0
  -31.4440   18.9243  -15.7398 N   0  0  0  0  0  0  0  0  0  0  0  0
  -30.9319   18.6443  -16.9490 C   0  0  0  0  0  0  0  0  0  0  0  0
  -30.0857   17.5990  -17.2698 C   0  0  0  0  0  0  0  0  0  0  0  0
  -29.7216   16.7285  -16.2228 C   0  0  0  0  0  0  0  0  0  0  0  0
  -28.9125   15.6773  -16.3878 N   0  0  0  0  0  0  0  0  0  0  0  0
  -29.7644   17.6247  -18.6163 N   0  0  0  0  0  0  0  0  0  0  0  0
  -30.4108   18.6712  -19.0742 C   0  0  0  0  0  0  0  0  0  0  0  0
  -31.1351   19.3327  -18.1215 N   0  0  0  0  0  0  0  0  0  0  0  0
  1  2  2  0  0  0  0
  1  6  1  0  0  0  0
  2  3  1  0  0  0  0
  3  4  2  0  0  0  0
  4  5  1  0  0  0  0
  4 10  1  0  0  0  0
  5  6  2  0  0  0  0
  5  8  1  0  0  0  0
  6  7  1  0  0  0  0
  8  9  1  0  0  0  0
  9 10  2  0  0  0  0
M  END
>  <CHROM.1>
-30.36019825,17.81370905,-16.81732694,1.26526771,-0.91332026,1.90718906

>  <Name>
ligand

>  <RI>
0

>  <Rbt.Current_Directory>
/home/itssahil/PROJECTS/Mol_Feturizer/New_Systems/rnas/4TZX

>  <Rbt.Executable>
rbdock ($Id: //depot/dev/client3/rdock/2013.1/src/exe/rbdock.cxx#4 $)

>  <Rbt.Library>
libRbt.so (2013.1, Build901 2013/11/27)

>  <Rbt.Parameter_File>
/export/apps/rDock/src/rDock_2013.1_src/data/scripts/dock_solv.prm

>  <Rbt.Receptor>
prm/pocket_docking_3.prm

>  <SCORE>
-14.3916

>  <SCORE.INTER>
-14.3916

>  <SCORE.INTER.CONST>
1

>  <SCORE.INTER.POLAR>
0

>  <SCORE.INTER.ROT>
0

>  <SCORE.INTER.SOLV>
8.35633

>  <SCORE.INTER.VDW>
-15.9799

>  <SCORE.INTER.norm>
-1.43916

>  <SCORE.INTRA>
0

>  <SCORE.INTRA.DIHEDRAL>
0

>  <SCORE.INTRA.DIHEDRAL.0>
0

>  <SCORE.INTRA.POLAR>
0

>  <SCORE.INTRA.POLAR.0>
0

>  <SCORE.INTRA.REPUL>
0

>  <SCORE.INTRA.REPUL.0>
0

>  <SCORE.INTRA.SOLV>
0

>  <SCORE.INTRA.SOLV.lig_0>
-23.8949

>  <SCORE.INTRA.VDW>
0

>  <SCORE.INTRA.VDW.0>
0

>  <SCORE.INTRA.norm>
0

>  <SCORE.RESTR>
0

>  <SCORE.RESTR.CAVITY>
0

>  <SCORE.RESTR.norm>
0

>  <SCORE.SYSTEM>
0

>  <SCORE.SYSTEM.CONST>
0

>  <SCORE.SYSTEM.DIHEDRAL>
0

>  <SCORE.SYSTEM.SOLV>
0

>  <SCORE.SYSTEM.norm>
0

>  <SCORE.heavy>
10

>  <SCORE.norm>
-1.43916

>  <RMSD>
0.432

$$$$
ligand
 OpenBabel11021811513D
libRbt.so/2013.1/901 2013/11/27
 10 11  0  0  0  0  0  0  0  0999 V2000
  -30.2332   16.9849  -14.9968 N   0  0  0  0  0  0  0  0  0  0  0  0
  -31.0488   18.0354  -14.8355 C   0  0  0  0  0  0  0  0  0  0  0  0
  -31.4657   18.9204  -15.7401 N   0  0  0  0  0  0  0  0  0  0  0  0
  -30.9493   18.6457  -16.9487 C   0  0  0  0  0  0  0  0  0  0  0  0
  -30.0967   17.6057  -17.2697 C   0  0  0  0  0  0  0  0  0  0  0  0
  -29.7304   16.7350  -16.2235 C   0  0  0  0  0  0  0  0  0  0  0  0
  -28.9151   15.6885  -16.3889 N   0  0  0  0  0  0  0  0  0  0  0  0
  -29.7724   17.6359  -18.6153 N   0  0  0  0  0  0  0  0  0  0  0  0
  -30.4234   18.6798  -19.0726 C   0  0  0  0  0  0  0  0  0  0  0  0
  -31.1535   19.3355  -18.1202 N   0  0  0  0  0  0  0  0  0  0  0  0
  1  2  2  0  0  0  0
  1  6  1  0  0  0  0
  2  3  1  0  0  0  0
  3  4  2  0  0  0  0
  4  5  1  0  0  0  0
  4 10  1  0  0  0  0
  5  6  2  0  0  0  0
  5  8  1  0  0  0  0
  6  7  1  0  0  0  0
  8  9  1  0  0  0  0
  9 10  2  0  0  0  0
M  END
>  <CHROM.1>
-30.37342287,17.81796482,-16.81738659,1.26593949,-0.90743073,1.90977821

>  <Name>
ligand

>  <RI>
0

>  <Rbt.Current_Directory>
/home/itssahil/PROJECTS/Mol_Feturizer/New_Systems/rnas/4TZX

>  <Rbt.Executable>
rbdock ($Id: //depot/dev/client3/rdock/2013.1/src/exe/rbdock.cxx#4 $)

>  <Rbt.Library>
libRbt.so (2013.1, Build901 2013/11/27)

>  <Rbt.Parameter_File>
/export/apps/rDock/src/rDock_2013.1_src/data/scripts/dock_solv.prm

>  <Rbt.Receptor>
prm/pocket_docking_6.prm

>  <SCORE>
-14.3912

>  <SCORE.INTER>
-14.3913

>  <SCORE.INTER.CONST>
1

>  <SCORE.INTER.POLAR>
0

>  <SCORE.INTER.ROT>
0

>  <SCORE.INTER.SOLV>
8.34457

>  <SCORE.INTER.VDW>
-15.9757

>  <SCORE.INTER.norm>
-1.43913

>  <SCORE.INTRA>
0

>  <SCORE.INTRA.DIHEDRAL>
0

>  <SCORE.INTRA.DIHEDRAL.0>
0

>  <SCORE.INTRA.POLAR>
0

>  <SCORE.INTRA.POLAR.0>
0

>  <SCORE.INTRA.REPUL>
0

>  <SCORE.INTRA.REPUL.0>
0

>  <SCORE.INTRA.SOLV>
0

>  <SCORE.INTRA.SOLV.lig_0>
-23.8949

>  <SCORE.INTRA.VDW>
0

>  <SCORE.INTRA.VDW.0>
0

>  <SCORE.INTRA.norm>
0

>  <SCORE.RESTR>
6.17484e-05

>  <SCORE.RESTR.CAVITY>
6.17484e-05

>  <SCORE.RESTR.norm>
6.17484e-06

>  <SCORE.SYSTEM>
0

>  <SCORE.SYSTEM.CONST>
0

>  <SCORE.SYSTEM.DIHEDRAL>
0

>  <SCORE.SYSTEM.SOLV>
0

>  <SCORE.SYSTEM.norm>
0

>  <SCORE.heavy>
10

>  <SCORE.norm>
-1.43912

>  <RMSD>
0.432

$$$$
ligand
 OpenBabel11021811513D
libRbt.so/2013.1/901 2013/11/27
 10 11  0  0  0  0  0  0  0  0999 V2000
  -30.2329   16.9875  -14.9964 N   0  0  0  0  0  0  0  0  0  0  0  0
  -31.0483   18.0381  -14.8348 C   0  0  0  0  0  0  0  0  0  0  0  0
  -31.4660   18.9228  -15.7394 N   0  0  0  0  0  0  0  0  0  0  0  0
  -30.9506   18.6476  -16.9484 C   0  0  0  0  0  0  0  0  0  0  0  0
  -30.0983   17.6074  -17.2696 C   0  0  0  0  0  0  0  0  0  0  0  0
  -29.7311   16.7371  -16.2235 C   0  0  0  0  0  0  0  0  0  0  0  0
  -28.9161   15.6905  -16.3890 N   0  0  0  0  0  0  0  0  0  0  0  0
  -29.7753   17.6370  -18.6155 N   0  0  0  0  0  0  0  0  0  0  0  0
  -30.4265   18.6808  -19.0727 C   0  0  0  0  0  0  0  0  0  0  0  0
  -31.1559   19.3368  -18.1199 N   0  0  0  0  0  0  0  0  0  0  0  0
  1  2  2  0  0  0  0
  1  6  1  0  0  0  0
  2  3  1  0  0  0  0
  3  4  2  0  0  0  0
  4  5  1  0  0  0  0
  4 10  1  0  0  0  0
  5  6  2  0  0  0  0
  5  8  1  0  0  0  0
  6  7  1  0  0  0  0
  8  9  1  0  0  0  0
  9 10  2  0  0  0  0
M  END
>  <CHROM.1>
-30.37465200,17.81984336,-16.81717478,1.26461923,-0.90775671,1.90832712

>  <Name>
ligand

>  <RI>
0

>  <Rbt.Current_Directory>
/home/itssahil/PROJECTS/Mol_Feturizer/New_Systems/rnas/4TZX

>  <Rbt.Executable>
rbdock ($Id: //depot/dev/client3/rdock/2013.1/src/exe/rbdock.cxx#4 $)

>  <Rbt.Library>
libRbt.so (2013.1, Build901 2013/11/27)

>  <Rbt.Parameter_File>
/export/apps/rDock/src/rDock_2013.1_src/data/scripts/dock_solv.prm

>  <Rbt.Receptor>
prm/blind_docking_100.prm

>  <SCORE>
-14.3892

>  <SCORE.INTER>
-14.3892

>  <SCORE.INTER.CONST>
1

>  <SCORE.INTER.POLAR>
0

>  <SCORE.INTER.ROT>
0

>  <SCORE.INTER.SOLV>
8.34424

>  <SCORE.INTER.VDW>
-15.9742

>  <SCORE.INTER.norm>
-1.43892

>  <SCORE.INTRA>
0

>  <SCORE.INTRA.DIHEDRAL>
0

>  <SCORE.INTRA.DIHEDRAL.0>
0

>  <SCORE.INTRA.POLAR>
0

>  <SCORE.INTRA.POLAR.0>
0

>  <SCORE.INTRA.REPUL>
0

>  <SCORE.INTRA.REPUL.0>
0

>  <SCORE.INTRA.SOLV>
0

>  <SCORE.INTRA.SOLV.lig_0>
-23.8949

>  <SCORE.INTRA.VDW>
0

>  <SCORE.INTRA.VDW.0>
0

>  <SCORE.INTRA.norm>
0

>  <SCORE.RESTR>
0

>  <SCORE.RESTR.CAVITY>
0

>  <SCORE.RESTR.norm>
0

>  <SCORE.SYSTEM>
0

>  <SCORE.SYSTEM.CONST>
0

>  <SCORE.SYSTEM.DIHEDRAL>
0

>  <SCORE.SYSTEM.SOLV>
0

>  <SCORE.SYSTEM.norm>
0

>  <SCORE.heavy>
10

>  <SCORE.norm>
-1.43892

>  <RMSD>
0.433

$$$$
ligand
 OpenBabel11021811513D
libRbt.so/2013.1/901 2013/11/27
 10 11  0  0  0  0  0  0  0  0999 V2000
  -30.2090   16.9959  -14.9899 N   0  0  0  0  0  0  0  0  0  0  0  0
  -31.0267   18.0444  -14.8256 C   0  0  0  0  0  0  0  0  0  0  0  0
  -31.4571   18.9224  -15.7308 N   0  0  0  0  0  0  0  0  0  0  0  0
  -30.9532   18.6425  -16.9434 C   0  0  0  0  0  0  0  0  0  0  0  0
  -30.1003   17.6038  -17.2678 C   0  0  0  0  0  0  0  0  0  0  0  0
  -29.7189   16.7407  -16.2207 C   0  0  0  0  0  0  0  0  0  0  0  0
  -28.9016   15.6963  -16.3890 N   0  0  0  0  0  0  0  0  0  0  0  0
  -29.7912   17.6272  -18.6171 N   0  0  0  0  0  0  0  0  0  0  0  0
  -30.4512   18.6660  -19.0732 C   0  0  0  0  0  0  0  0  0  0  0  0
  -31.1732   19.3245  -18.1166 N   0  0  0  0  0  0  0  0  0  0  0  0
  1  2  2  0  0  0  0
  1  6  1  0  0  0  0
  2  3  1  0  0  0  0
  3  4  2  0  0  0  0
  4  5  1  0  0  0  0
  4 10  1  0  0  0  0
  5  6  2  0  0  0  0
  5  8  1  0  0  0  0
  6  7  1  0  0  0  0
  8  9  1  0  0  0  0
  9 10  2  0  0  0  0
M  END
>  <CHROM.1>
-30.37271431,17.81770023,-16.81365975,1.24673176,-0.90744128,1.88873099

>  <Name>
ligand

>  <RI>
0

>  <Rbt.Current_Directory>
/home/itssahil/PROJECTS/Mol_Feturizer/New_Systems/rnas/4TZX

>  <Rbt.Executable>
rbdock ($Id: //depot/dev/client3/rdock/2013.1/src/exe/rbdock.cxx#4 $)

>  <Rbt.Library>
libRbt.so (2013.1, Build901 2013/11/27)

>  <Rbt.Parameter_File>
/export/apps/rDock/src/rDock_2013.1_src/data/scripts/dock_solv.prm

>  <Rbt.Receptor>
prm/pocket_docking_3.prm

>  <SCORE>
-14.364

>  <SCORE.INTER>
-14.364

>  <SCORE.INTER.CONST>
1

>  <SCORE.INTER.POLAR>
0

>  <SCORE.INTER.ROT>
0

>  <SCORE.INTER.SOLV>
8.29682

>  <SCORE.INTER.VDW>
-15.9416

>  <SCORE.INTER.norm>
-1.4364

>  <SCORE.INTRA>
0

>  <SCORE.INTRA.DIHEDRAL>
0

>  <SCORE.INTRA.DIHEDRAL.0>
0

>  <SCORE.INTRA.POLAR>
0

>  <SCORE.INTRA.POLAR.0>
0

>  <SCORE.INTRA.REPUL>
0

>  <SCORE.INTRA.REPUL.0>
0

>  <SCORE.INTRA.SOLV>
0

>  <SCORE.INTRA.SOLV.lig_0>
-23.8949

>  <SCORE.INTRA.VDW>
0

>  <SCORE.INTRA.VDW.0>
0

>  <SCORE.INTRA.norm>
0

>  <SCORE.RESTR>
0

>  <SCORE.RESTR.CAVITY>
0

>  <SCORE.RESTR.norm>
0

>  <SCORE.SYSTEM>
0

>  <SCORE.SYSTEM.CONST>
0

>  <SCORE.SYSTEM.DIHEDRAL>
0

>  <SCORE.SYSTEM.SOLV>
0

>  <SCORE.SYSTEM.norm>
0

>  <SCORE.heavy>
10

>  <SCORE.norm>
-1.4364

>  <RMSD>
0.433

$$$$
ligand
 OpenBabel11021811513D
libRbt.so/2013.1/901 2013/11/27
 10 11  0  0  0  0  0  0  0  0999 V2000
  -30.2343   16.9793  -14.9991 N   0  0  0  0  0  0  0  0  0  0  0  0
  -31.0362   18.0391  -14.8304 C   0  0  0  0  0  0  0  0  0  0  0  0
  -31.4465   18.9323  -15.7301 N   0  0  0  0  0  0  0  0  0  0  0  0
  -30.9389   18.6556  -16.9420 C   0  0  0  0  0  0  0  0  0  0  0  0
  -30.1006   17.6064  -17.2704 C   0  0  0  0  0  0  0  0  0  0  0  0
  -29.7402   16.7276  -16.2290 C   0  0  0  0  0  0  0  0  0  0  0  0
  -28.9385   15.6718  -16.4016 N   0  0  0  0  0  0  0  0  0  0  0  0
  -29.7821   17.6373  -18.6174 N   0  0  0  0  0  0  0  0  0  0  0  0
  -30.4223   18.6907  -19.0681 C   0  0  0  0  0  0  0  0  0  0  0  0
  -31.1401   19.3518  -18.1101 N   0  0  0  0  0  0  0  0  0  0  0  0
  1  2  2  0  0  0  0
  1  6  1  0  0  0  0
  2  3  1  0  0  0  0
  3  4  2  0  0  0  0
  4  5  1  0  0  0  0
  4 10  1  0  0  0  0
  5  6  2  0  0  0  0
  5  8  1  0  0  0  0
  6  7  1  0  0  0  0
  8  9  1  0  0  0  0
  9 10  2  0  0  0  0
M  END
>  <CHROM.1>
-30.37263349,17.82040567,-16.81610499,1.26554128,-0.92045670,1.91293114

>  <Name>
ligand

>  <RI>
0

>  <Rbt.Current_Directory>
/home/itssahil/PROJECTS/Mol_Feturizer/New_Systems/rnas/4TZX

>  <Rbt.Executable>
rbdock ($Id: //depot/dev/client3/rdock/2013.1/src/exe/rbdock.cxx#4 $)

>  <Rbt.Library>
libRbt.so (2013.1, Build901 2013/11/27)

>  <Rbt.Parameter_File>
/export/apps/rDock/src/rDock_2013.1_src/data/scripts/dock_solv.prm

>  <Rbt.Receptor>
prm/pocket_docking_8.prm

>  <SCORE>
-14.3593

>  <SCORE.INTER>
-14.3593

>  <SCORE.INTER.CONST>
1

>  <SCORE.INTER.POLAR>
0

>  <SCORE.INTER.ROT>
0

>  <SCORE.INTER.SOLV>
8.44921

>  <SCORE.INTER.VDW>
-15.9893

>  <SCORE.INTER.norm>
-1.43593

>  <SCORE.INTRA>
0

>  <SCORE.INTRA.DIHEDRAL>
0

>  <SCORE.INTRA.DIHEDRAL.0>
0

>  <SCORE.INTRA.POLAR>
0

>  <SCORE.INTRA.POLAR.0>
0

>  <SCORE.INTRA.REPUL>
0

>  <SCORE.INTRA.REPUL.0>
0

>  <SCORE.INTRA.SOLV>
0

>  <SCORE.INTRA.SOLV.lig_0>
-23.8949

>  <SCORE.INTRA.VDW>
0

>  <SCORE.INTRA.VDW.0>
0

>  <SCORE.INTRA.norm>
0

>  <SCORE.RESTR>
0

>  <SCORE.RESTR.CAVITY>
0

>  <SCORE.RESTR.norm>
0

>  <SCORE.SYSTEM>
0

>  <SCORE.SYSTEM.CONST>
0

>  <SCORE.SYSTEM.DIHEDRAL>
0

>  <SCORE.SYSTEM.SOLV>
0

>  <SCORE.SYSTEM.norm>
0

>  <SCORE.heavy>
10

>  <SCORE.norm>
-1.43593

>  <RMSD>
0.433

$$$$
ligand
 OpenBabel11021811513D
libRbt.so/2013.1/901 2013/11/27
 10 11  0  0  0  0  0  0  0  0999 V2000
  -30.2675   17.0749  -14.9615 N   0  0  0  0  0  0  0  0  0  0  0  0
  -31.0955   18.1222  -14.8508 C   0  0  0  0  0  0  0  0  0  0  0  0
  -31.5073   18.9693  -15.7933 N   0  0  0  0  0  0  0  0  0  0  0  0
  -30.9702   18.6558  -16.9833 C   0  0  0  0  0  0  0  0  0  0  0  0
  -30.1029   17.6135  -17.2534 C   0  0  0  0  0  0  0  0  0  0  0  0
  -29.7439   16.7854  -16.1707 C   0  0  0  0  0  0  0  0  0  0  0  0
  -28.9162   15.7420  -16.2855 N   0  0  0  0  0  0  0  0  0  0  0  0
  -29.7588   17.5978  -18.5943 N   0  0  0  0  0  0  0  0  0  0  0  0
  -30.4128   18.6176  -19.0991 C   0  0  0  0  0  0  0  0  0  0  0  0
  -31.1635   19.3001  -18.1822 N   0  0  0  0  0  0  0  0  0  0  0  0
  1  2  2  0  0  0  0
  1  6  1  0  0  0  0
  2  3  1  0  0  0  0
  3  4  2  0  0  0  0
  4  5  1  0  0  0  0
  4 10  1  0  0  0  0
  5  6  2  0  0  0  0
  5  8  1  0  0  0  0
  6  7  1  0  0  0  0
  8  9  1  0  0  0  0
  9 10  2  0  0  0  0
M  END
>  <CHROM.1>
-30.38839256,17.83933875,-16.81326464,1.28339419,-0.89326709,1.88679027

>  <Name>
ligand

>  <RI>
0

>  <Rbt.Current_Directory>
/home/itssahil/PROJECTS/Mol_Feturizer/New_Systems/rnas/4TZX

>  <Rbt.Executable>
rbdock ($Id: //depot/dev/client3/rdock/2013.1/src/exe/rbdock.cxx#4 $)

>  <Rbt.Library>
libRbt.so (2013.1, Build901 2013/11/27)

>  <Rbt.Parameter_File>
/export/apps/rDock/src/rDock_2013.1_src/data/scripts/dock_solv.prm

>  <Rbt.Receptor>
prm/pocket_docking_6.prm

>  <SCORE>
-14.3074

>  <SCORE.INTER>
-14.3074

>  <SCORE.INTER.CONST>
1

>  <SCORE.INTER.POLAR>
0

>  <SCORE.INTER.ROT>
0

>  <SCORE.INTER.SOLV>
8.12018

>  <SCORE.INTER.VDW>
-15.845

>  <SCORE.INTER.norm>
-1.43074

>  <SCORE.INTRA>
0

>  <SCORE.INTRA.DIHEDRAL>
0

>  <SCORE.INTRA.DIHEDRAL.0>
0

>  <SCORE.INTRA.POLAR>
0

>  <SCORE.INTRA.POLAR.0>
0

>  <SCORE.INTRA.REPUL>
0

>  <SCORE.INTRA.REPUL.0>
0

>  <SCORE.INTRA.SOLV>
0

>  <SCORE.INTRA.SOLV.lig_0>
-23.8949

>  <SCORE.INTRA.VDW>
0

>  <SCORE.INTRA.VDW.0>
0

>  <SCORE.INTRA.norm>
0

>  <SCORE.RESTR>
0

>  <SCORE.RESTR.CAVITY>
0

>  <SCORE.RESTR.norm>
0

>  <SCORE.SYSTEM>
0

>  <SCORE.SYSTEM.CONST>
0

>  <SCORE.SYSTEM.DIHEDRAL>
0

>  <SCORE.SYSTEM.SOLV>
0

>  <SCORE.SYSTEM.norm>
0

>  <SCORE.heavy>
10

>  <SCORE.norm>
-1.43074

>  <RMSD>
0.436

$$$$
ligand
 OpenBabel11021811513D
libRbt.so/2013.1/901 2013/11/27
 10 11  0  0  0  0  0  0  0  0999 V2000
  -30.3349   17.0207  -14.9970 N   0  0  0  0  0  0  0  0  0  0  0  0
  -31.1133   18.1030  -14.8640 C   0  0  0  0  0  0  0  0  0  0  0  0
  -31.4798   18.9912  -15.7872 N   0  0  0  0  0  0  0  0  0  0  0  0
  -30.9516   18.6819  -16.9822 C   0  0  0  0  0  0  0  0  0  0  0  0
  -30.1329   17.6068  -17.2742 C   0  0  0  0  0  0  0  0  0  0  0  0
  -29.8191   16.7365  -16.2107 C   0  0  0  0  0  0  0  0  0  0  0  0
  -29.0408   15.6583  -16.3477 N   0  0  0  0  0  0  0  0  0  0  0  0
  -29.7827   17.6075  -18.6136 N   0  0  0  0  0  0  0  0  0  0  0  0
  -30.3853   18.6690  -19.0959 C   0  0  0  0  0  0  0  0  0  0  0  0
  -31.1080   19.3637  -18.1657 N   0  0  0  0  0  0  0  0  0  0  0  0
  1  2  2  0  0  0  0
  1  6  1  0  0  0  0
  2  3  1  0  0  0  0
  3  4  2  0  0  0  0
  4  5  1  0  0  0  0
  4 10  1  0  0  0  0
  5  6  2  0  0  0  0
  5  8  1  0  0  0  0
  6  7  1  0  0  0  0
  8  9  1  0  0  0  0
  9 10  2  0  0  0  0
M  END
>  <CHROM.1>
-30.40979321,17.83498827,-16.82986975,1.31663520,-0.93607527,1.93765204

>  <Name>
ligand

>  <RI>
0

>  <Rbt.Current_Directory>
/home/itssahil/PROJECTS/Mol_Feturizer/New_Systems/rnas/4TZX

>  <Rbt.Executable>
rbdock ($Id: //depot/dev/client3/rdock/2013.1/src/exe/rbdock.cxx#4 $)

>  <Rbt.Library>
libRbt.so (2013.1, Build901 2013/11/27)

>  <Rbt.Parameter_File>
/export/apps/rDock/src/rDock_2013.1_src/data/scripts/dock_solv.prm

>  <Rbt.Receptor>
prm/pocket_docking_8.prm

>  <SCORE>
-14.3412

>  <SCORE.INTER>
-14.3412

>  <SCORE.INTER.CONST>
1

>  <SCORE.INTER.POLAR>
0

>  <SCORE.INTER.ROT>
0

>  <SCORE.INTER.SOLV>
8.68972

>  <SCORE.INTER.VDW>
-16.0574

>  <SCORE.INTER.norm>
-1.43412

>  <SCORE.INTRA>
0

>  <SCORE.INTRA.DIHEDRAL>
0

>  <SCORE.INTRA.DIHEDRAL.0>
0

>  <SCORE.INTRA.POLAR>
0

>  <SCORE.INTRA.POLAR.0>
0

>  <SCORE.INTRA.REPUL>
0

>  <SCORE.INTRA.REPUL.0>
0

>  <SCORE.INTRA.SOLV>
0

>  <SCORE.INTRA.SOLV.lig_0>
-23.8949

>  <SCORE.INTRA.VDW>
0

>  <SCORE.INTRA.VDW.0>
0

>  <SCORE.INTRA.norm>
0

>  <SCORE.RESTR>
0

>  <SCORE.RESTR.CAVITY>
0

>  <SCORE.RESTR.norm>
0

>  <SCORE.SYSTEM>
0

>  <SCORE.SYSTEM.CONST>
0

>  <SCORE.SYSTEM.DIHEDRAL>
0

>  <SCORE.SYSTEM.SOLV>
0

>  <SCORE.SYSTEM.norm>
0

>  <SCORE.heavy>
10

>  <SCORE.norm>
-1.43412

>  <RMSD>
0.439

$$$$
ligand
 OpenBabel11021811513D
libRbt.so/2013.1/901 2013/11/27
 10 11  0  0  0  0  0  0  0  0999 V2000
  -30.3276   17.0242  -14.9957 N   0  0  0  0  0  0  0  0  0  0  0  0
  -31.1004   18.1105  -14.8634 C   0  0  0  0  0  0  0  0  0  0  0  0
  -31.4638   18.9990  -15.7875 N   0  0  0  0  0  0  0  0  0  0  0  0
  -30.9389   18.6851  -16.9828 C   0  0  0  0  0  0  0  0  0  0  0  0
  -30.1259   17.6055  -17.2742 C   0  0  0  0  0  0  0  0  0  0  0  0
  -29.8149   16.7354  -16.2098 C   0  0  0  0  0  0  0  0  0  0  0  0
  -29.0422   15.6531  -16.3461 N   0  0  0  0  0  0  0  0  0  0  0  0
  -29.7777   17.6023  -18.6141 N   0  0  0  0  0  0  0  0  0  0  0  0
  -30.3757   18.6660  -19.0973 C   0  0  0  0  0  0  0  0  0  0  0  0
  -31.0936   19.3657  -18.1672 N   0  0  0  0  0  0  0  0  0  0  0  0
  1  2  2  0  0  0  0
  1  6  1  0  0  0  0
  2  3  1  0  0  0  0
  3  4  2  0  0  0  0
  4  5  1  0  0  0  0
  4 10  1  0  0  0  0
  5  6  2  0  0  0  0
  5  8  1  0  0  0  0
  6  7  1  0  0  0  0
  8  9  1  0  0  0  0
  9 10  2  0  0  0  0
M  END
>  <CHROM.1>
-30.40107098,17.83578382,-16.82985199,1.31737916,-0.94121599,1.93661596

>  <Name>
ligand

>  <RI>
0

>  <Rbt.Current_Directory>
/home/itssahil/PROJECTS/Mol_Feturizer/New_Systems/rnas/4TZX

>  <Rbt.Executable>
rbdock ($Id: //depot/dev/client3/rdock/2013.1/src/exe/rbdock.cxx#4 $)

>  <Rbt.Library>
libRbt.so (2013.1, Build901 2013/11/27)

>  <Rbt.Parameter_File>
/export/apps/rDock/src/rDock_2013.1_src/data/scripts/dock_solv.prm

>  <Rbt.Receptor>
prm/pocket_docking_5.prm

>  <SCORE>
-14.3457

>  <SCORE.INTER>
-14.3457

>  <SCORE.INTER.CONST>
1

>  <SCORE.INTER.POLAR>
0

>  <SCORE.INTER.ROT>
0

>  <SCORE.INTER.SOLV>
8.70509

>  <SCORE.INTER.VDW>
-16.0655

>  <SCORE.INTER.norm>
-1.43457

>  <SCORE.INTRA>
0

>  <SCORE.INTRA.DIHEDRAL>
0

>  <SCORE.INTRA.DIHEDRAL.0>
0

>  <SCORE.INTRA.POLAR>
0

>  <SCORE.INTRA.POLAR.0>
0

>  <SCORE.INTRA.REPUL>
0

>  <SCORE.INTRA.REPUL.0>
0

>  <SCORE.INTRA.SOLV>
0

>  <SCORE.INTRA.SOLV.lig_0>
-23.8949

>  <SCORE.INTRA.VDW>
0

>  <SCORE.INTRA.VDW.0>
0

>  <SCORE.INTRA.norm>
0

>  <SCORE.RESTR>
0

>  <SCORE.RESTR.CAVITY>
0

>  <SCORE.RESTR.norm>
0

>  <SCORE.SYSTEM>
0

>  <SCORE.SYSTEM.CONST>
0

>  <SCORE.SYSTEM.DIHEDRAL>
0

>  <SCORE.SYSTEM.SOLV>
0

>  <SCORE.SYSTEM.norm>
0

>  <SCORE.heavy>
10

>  <SCORE.norm>
-1.43457

>  <RMSD>
0.440

$$$$
ligand
 OpenBabel11021811513D
libRbt.so/2013.1/901 2013/11/27
 10 11  0  0  0  0  0  0  0  0999 V2000
  -30.3207   17.0253  -14.9954 N   0  0  0  0  0  0  0  0  0  0  0  0
  -31.0923   18.1125  -14.8632 C   0  0  0  0  0  0  0  0  0  0  0  0
  -31.4565   19.0001  -15.7879 N   0  0  0  0  0  0  0  0  0  0  0  0
  -30.9340   18.6841  -16.9837 C   0  0  0  0  0  0  0  0  0  0  0  0
  -30.1225   17.6033  -17.2750 C   0  0  0  0  0  0  0  0  0  0  0  0
  -29.8104   16.7345  -16.2099 C   0  0  0  0  0  0  0  0  0  0  0  0
  -29.0389   15.6513  -16.3461 N   0  0  0  0  0  0  0  0  0  0  0  0
  -29.7765   17.5980  -18.6155 N   0  0  0  0  0  0  0  0  0  0  0  0
  -30.3744   18.6616  -19.0991 C   0  0  0  0  0  0  0  0  0  0  0  0
  -31.0901   19.3632  -18.1687 N   0  0  0  0  0  0  0  0  0  0  0  0
  1  2  2  0  0  0  0
  1  6  1  0  0  0  0
  2  3  1  0  0  0  0
  3  4  2  0  0  0  0
  4  5  1  0  0  0  0
  4 10  1  0  0  0  0
  5  6  2  0  0  0  0
  5  8  1  0  0  0  0
  6  7  1  0  0  0  0
  8  9  1  0  0  0  0
  9 10  2  0  0  0  0
M  END
>  <CHROM.1>
-30.39664166,17.83451791,-16.83048336,1.31520234,-0.94266273,1.93348376

>  <Name>
ligand

>  <RI>
0

>  <Rbt.Current_Directory>
/home/itssahil/PROJECTS/Mol_Feturizer/New_Systems/rnas/4TZX

>  <Rbt.Executable>
rbdock ($Id: //depot/dev/client3/rdock/2013.1/src/exe/rbdock.cxx#4 $)

>  <Rbt.Library>
libRbt.so (2013.1, Build901 2013/11/27)

>  <Rbt.Parameter_File>
/export/apps/rDock/src/rDock_2013.1_src/data/scripts/dock_solv.prm

>  <Rbt.Receptor>
prm/pocket_docking_3.prm

>  <SCORE>
-14.3445

>  <SCORE.INTER>
-14.3445

>  <SCORE.INTER.CONST>
1

>  <SCORE.INTER.POLAR>
0

>  <SCORE.INTER.ROT>
0

>  <SCORE.INTER.SOLV>
8.70058

>  <SCORE.INTER.VDW>
-16.0632

>  <SCORE.INTER.norm>
-1.43445

>  <SCORE.INTRA>
0

>  <SCORE.INTRA.DIHEDRAL>
0

>  <SCORE.INTRA.DIHEDRAL.0>
0

>  <SCORE.INTRA.POLAR>
0

>  <SCORE.INTRA.POLAR.0>
0

>  <SCORE.INTRA.REPUL>
0

>  <SCORE.INTRA.REPUL.0>
0

>  <SCORE.INTRA.SOLV>
0

>  <SCORE.INTRA.SOLV.lig_0>
-23.8949

>  <SCORE.INTRA.VDW>
0

>  <SCORE.INTRA.VDW.0>
0

>  <SCORE.INTRA.norm>
0

>  <SCORE.RESTR>
0

>  <SCORE.RESTR.CAVITY>
0

>  <SCORE.RESTR.norm>
0

>  <SCORE.SYSTEM>
0

>  <SCORE.SYSTEM.CONST>
0

>  <SCORE.SYSTEM.DIHEDRAL>
0

>  <SCORE.SYSTEM.SOLV>
0

>  <SCORE.SYSTEM.norm>
0

>  <SCORE.heavy>
10

>  <SCORE.norm>
-1.43445

>  <RMSD>
0.441

$$$$
ligand
 OpenBabel11021811513D
libRbt.so/2013.1/901 2013/11/27
 10 11  0  0  0  0  0  0  0  0999 V2000
  -30.3189   17.0286  -14.9951 N   0  0  0  0  0  0  0  0  0  0  0  0
  -31.0908   18.1153  -14.8613 C   0  0  0  0  0  0  0  0  0  0  0  0
  -31.4576   19.0027  -15.7852 N   0  0  0  0  0  0  0  0  0  0  0  0
  -30.9375   18.6870  -16.9821 C   0  0  0  0  0  0  0  0  0  0  0  0
  -30.1260   17.6066  -17.2751 C   0  0  0  0  0  0  0  0  0  0  0  0
  -29.8111   16.7380  -16.2107 C   0  0  0  0  0  0  0  0  0  0  0  0
  -29.0392   15.6552  -16.3485 N   0  0  0  0  0  0  0  0  0  0  0  0
  -29.7830   17.6015  -18.6164 N   0  0  0  0  0  0  0  0  0  0  0  0
  -30.3826   18.6647  -19.0987 C   0  0  0  0  0  0  0  0  0  0  0  0
  -31.0966   19.3659  -18.1668 N   0  0  0  0  0  0  0  0  0  0  0  0
  1  2  2  0  0  0  0
  1  6  1  0  0  0  0
  2  3  1  0  0  0  0
  3  4  2  0  0  0  0
  4  5  1  0  0  0  0
  4 10  1  0  0  0  0
  5  6  2  0  0  0  0
  5  8  1  0  0  0  0
  6  7  1  0  0  0  0
  8  9  1  0  0  0  0
  9 10  2  0  0  0  0
M  END
>  <CHROM.1>
-30.39930492,17.83767350,-16.83002296,1.31134751,-0.94289380,1.93033299

>  <Name>
ligand

>  <RI>
0

>  <Rbt.Current_Directory>
/home/itssahil/PROJECTS/Mol_Feturizer/New_Systems/rnas/4TZX

>  <Rbt.Executable>
rbdock ($Id: //depot/dev/client3/rdock/2013.1/src/exe/rbdock.cxx#4 $)

>  <Rbt.Library>
libRbt.so (2013.1, Build901 2013/11/27)

>  <Rbt.Parameter_File>
/export/apps/rDock/src/rDock_2013.1_src/data/scripts/dock_solv.prm

>  <Rbt.Receptor>
prm/blind_docking_80.prm

>  <SCORE>
-14.3436

>  <SCORE.INTER>
-14.3436

>  <SCORE.INTER.CONST>
1

>  <SCORE.INTER.POLAR>
0

>  <SCORE.INTER.ROT>
0

>  <SCORE.INTER.SOLV>
8.69475

>  <SCORE.INTER.VDW>
-16.0606

>  <SCORE.INTER.norm>
-1.43436

>  <SCORE.INTRA>
0

>  <SCORE.INTRA.DIHEDRAL>
0

>  <SCORE.INTRA.DIHEDRAL.0>
0

>  <SCORE.INTRA.POLAR>
0

>  <SCORE.INTRA.POLAR.0>
0

>  <SCORE.INTRA.REPUL>
0

>  <SCORE.INTRA.REPUL.0>
0

>  <SCORE.INTRA.SOLV>
0

>  <SCORE.INTRA.SOLV.lig_0>
-23.8949

>  <SCORE.INTRA.VDW>
0

>  <SCORE.INTRA.VDW.0>
0

>  <SCORE.INTRA.norm>
0

>  <SCORE.RESTR>
0

>  <SCORE.RESTR.CAVITY>
0

>  <SCORE.RESTR.norm>
0

>  <SCORE.SYSTEM>
0

>  <SCORE.SYSTEM.CONST>
0

>  <SCORE.SYSTEM.DIHEDRAL>
0

>  <SCORE.SYSTEM.SOLV>
0

>  <SCORE.SYSTEM.norm>
0

>  <SCORE.heavy>
10

>  <SCORE.norm>
-1.43436

>  <RMSD>
0.442

$$$$
ligand
 OpenBabel11021811513D
libRbt.so/2013.1/901 2013/11/27
 10 11  0  0  0  0  0  0  0  0999 V2000
  -30.2852   17.1033  -14.9470 N   0  0  0  0  0  0  0  0  0  0  0  0
  -31.1083   18.1550  -14.8413 C   0  0  0  0  0  0  0  0  0  0  0  0
  -31.5052   19.0077  -15.7852 N   0  0  0  0  0  0  0  0  0  0  0  0
  -30.9572   18.6954  -16.9705 C   0  0  0  0  0  0  0  0  0  0  0  0
  -30.0931   17.6491  -17.2350 C   0  0  0  0  0  0  0  0  0  0  0  0
  -29.7504   16.8151  -16.1516 C   0  0  0  0  0  0  0  0  0  0  0  0
  -28.9275   15.7673  -16.2613 N   0  0  0  0  0  0  0  0  0  0  0  0
  -29.7348   17.6360  -18.5722 N   0  0  0  0  0  0  0  0  0  0  0  0
  -30.3776   18.6614  -19.0803 C   0  0  0  0  0  0  0  0  0  0  0  0
  -31.1341   19.3450  -18.1691 N   0  0  0  0  0  0  0  0  0  0  0  0
  1  2  2  0  0  0  0
  1  6  1  0  0  0  0
  2  3  1  0  0  0  0
  3  4  2  0  0  0  0
  4  5  1  0  0  0  0
  4 10  1  0  0  0  0
  5  6  2  0  0  0  0
  5  8  1  0  0  0  0
  6  7  1  0  0  0  0
  8  9  1  0  0  0  0
  9 10  2  0  0  0  0
M  END
>  <CHROM.1>
-30.38196504,17.87496433,-16.79716386,1.30241969,-0.89528635,1.90516507

>  <Name>
ligand

>  <RI>
0

>  <Rbt.Current_Directory>
/home/itssahil/PROJECTS/Mol_Feturizer/New_Systems/rnas/4TZX

>  <Rbt.Executable>
rbdock ($Id: //depot/dev/client3/rdock/2013.1/src/exe/rbdock.cxx#4 $)

>  <Rbt.Library>
libRbt.so (2013.1, Build901 2013/11/27)

>  <Rbt.Parameter_File>
/export/apps/rDock/src/rDock_2013.1_src/data/scripts/dock_solv.prm

>  <Rbt.Receptor>
prm/pocket_docking_7.prm

>  <SCORE>
-14.3707

>  <SCORE.INTER>
-14.3707

>  <SCORE.INTER.CONST>
1

>  <SCORE.INTER.POLAR>
0

>  <SCORE.INTER.ROT>
0

>  <SCORE.INTER.SOLV>
8.07785

>  <SCORE.INTER.VDW>
-15.8731

>  <SCORE.INTER.norm>
-1.43707

>  <SCORE.INTRA>
0

>  <SCORE.INTRA.DIHEDRAL>
0

>  <SCORE.INTRA.DIHEDRAL.0>
0

>  <SCORE.INTRA.POLAR>
0

>  <SCORE.INTRA.POLAR.0>
0

>  <SCORE.INTRA.REPUL>
0

>  <SCORE.INTRA.REPUL.0>
0

>  <SCORE.INTRA.SOLV>
0

>  <SCORE.INTRA.SOLV.lig_0>
-23.8949

>  <SCORE.INTRA.VDW>
0

>  <SCORE.INTRA.VDW.0>
0

>  <SCORE.INTRA.norm>
0

>  <SCORE.RESTR>
4.29523e-05

>  <SCORE.RESTR.CAVITY>
4.29523e-05

>  <SCORE.RESTR.norm>
4.29523e-06

>  <SCORE.SYSTEM>
0

>  <SCORE.SYSTEM.CONST>
0

>  <SCORE.SYSTEM.DIHEDRAL>
0

>  <SCORE.SYSTEM.SOLV>
0

>  <SCORE.SYSTEM.norm>
0

>  <SCORE.heavy>
10

>  <SCORE.norm>
-1.43707

>  <RMSD>
0.442

$$$$
ligand
 OpenBabel11021811513D
libRbt.so/2013.1/901 2013/11/27
 10 11  0  0  0  0  0  0  0  0999 V2000
  -30.2105   16.9956  -14.9990 N   0  0  0  0  0  0  0  0  0  0  0  0
  -31.0378   18.0363  -14.8338 C   0  0  0  0  0  0  0  0  0  0  0  0
  -31.4707   18.9153  -15.7368 N   0  0  0  0  0  0  0  0  0  0  0  0
  -30.9581   18.6457  -16.9482 C   0  0  0  0  0  0  0  0  0  0  0  0
  -30.0948   17.6158  -17.2732 C   0  0  0  0  0  0  0  0  0  0  0  0
  -29.7119   16.7506  -16.2284 C   0  0  0  0  0  0  0  0  0  0  0  0
  -28.8850   15.7139  -16.3975 N   0  0  0  0  0  0  0  0  0  0  0  0
  -29.7789   17.6485  -18.6207 N   0  0  0  0  0  0  0  0  0  0  0  0
  -30.4450   18.6841  -19.0751 C   0  0  0  0  0  0  0  0  0  0  0  0
  -31.1775   19.3317  -18.1191 N   0  0  0  0  0  0  0  0  0  0  0  0
  1  2  2  0  0  0  0
  1  6  1  0  0  0  0
  2  3  1  0  0  0  0
  3  4  2  0  0  0  0
  4  5  1  0  0  0  0
  4 10  1  0  0  0  0
  5  6  2  0  0  0  0
  5  8  1  0  0  0  0
  6  7  1  0  0  0  0
  8  9  1  0  0  0  0
  9 10  2  0  0  0  0
M  END
>  <CHROM.1>
-30.37145751,17.82510082,-16.81945718,1.25061219,-0.89789570,1.89678681

>  <Name>
ligand

>  <RI>
0

>  <Rbt.Current_Directory>
/home/itssahil/PROJECTS/Mol_Feturizer/New_Systems/rnas/4TZX

>  <Rbt.Executable>
rbdock ($Id: //depot/dev/client3/rdock/2013.1/src/exe/rbdock.cxx#4 $)

>  <Rbt.Library>
libRbt.so (2013.1, Build901 2013/11/27)

>  <Rbt.Parameter_File>
/export/apps/rDock/src/rDock_2013.1_src/data/scripts/dock_solv.prm

>  <Rbt.Receptor>
prm/pocket_docking_8.prm

>  <SCORE>
-14.3689

>  <SCORE.INTER>
-14.3721

>  <SCORE.INTER.CONST>
1

>  <SCORE.INTER.POLAR>
0

>  <SCORE.INTER.ROT>
0

>  <SCORE.INTER.SOLV>
8.25423

>  <SCORE.INTER.VDW>
-15.9328

>  <SCORE.INTER.norm>
-1.43721

>  <SCORE.INTRA>
0

>  <SCORE.INTRA.DIHEDRAL>
0

>  <SCORE.INTRA.DIHEDRAL.0>
0

>  <SCORE.INTRA.POLAR>
0

>  <SCORE.INTRA.POLAR.0>
0

>  <SCORE.INTRA.REPUL>
0

>  <SCORE.INTRA.REPUL.0>
0

>  <SCORE.INTRA.SOLV>
0

>  <SCORE.INTRA.SOLV.lig_0>
-23.8949

>  <SCORE.INTRA.VDW>
0

>  <SCORE.INTRA.VDW.0>
0

>  <SCORE.INTRA.norm>
0

>  <SCORE.RESTR>
0.00321967

>  <SCORE.RESTR.CAVITY>
0.00321967

>  <SCORE.RESTR.norm>
0.000321967

>  <SCORE.SYSTEM>
0

>  <SCORE.SYSTEM.CONST>
0

>  <SCORE.SYSTEM.DIHEDRAL>
0

>  <SCORE.SYSTEM.SOLV>
0

>  <SCORE.SYSTEM.norm>
0

>  <SCORE.heavy>
10

>  <SCORE.norm>
-1.43689

>  <RMSD>
0.442

$$$$
ligand
 OpenBabel11021811513D
libRbt.so/2013.1/901 2013/11/27
 10 11  0  0  0  0  0  0  0  0999 V2000
  -30.3343   17.0271  -14.9968 N   0  0  0  0  0  0  0  0  0  0  0  0
  -31.1102   18.1111  -14.8635 C   0  0  0  0  0  0  0  0  0  0  0  0
  -31.4720   19.0023  -15.7856 N   0  0  0  0  0  0  0  0  0  0  0  0
  -30.9415   18.6943  -16.9800 C   0  0  0  0  0  0  0  0  0  0  0  0
  -30.1249   17.6176  -17.2722 C   0  0  0  0  0  0  0  0  0  0  0  0
  -29.8161   16.7442  -16.2099 C   0  0  0  0  0  0  0  0  0  0  0  0
  -29.0403   15.6642  -16.3473 N   0  0  0  0  0  0  0  0  0  0  0  0
  -29.7713   17.6204  -18.6108 N   0  0  0  0  0  0  0  0  0  0  0  0
  -30.3699   18.6846  -19.0922 C   0  0  0  0  0  0  0  0  0  0  0  0
  -31.0931   19.3790  -18.1623 N   0  0  0  0  0  0  0  0  0  0  0  0
  1  2  2  0  0  0  0
  1  6  1  0  0  0  0
  2  3  1  0  0  0  0
  3  4  2  0  0  0  0
  4  5  1  0  0  0  0
  4 10  1  0  0  0  0
  5  6  2  0  0  0  0
  5  8  1  0  0  0  0
  6  7  1  0  0  0  0
  8  9  1  0  0  0  0
  9 10  2  0  0  0  0
M  END
>  <CHROM.1>
-30.40234726,17.84559367,-16.82811011,1.32227567,-0.93759609,1.94440129

>  <Name>
ligand

>  <RI>
0

>  <Rbt.Current_Directory>
/home/itssahil/PROJECTS/Mol_Feturizer/New_Systems/rnas/4TZX

>  <Rbt.Executable>
rbdock ($Id: //depot/dev/client3/rdock/2013.1/src/exe/rbdock.cxx#4 $)

>  <Rbt.Library>
libRbt.so (2013.1, Build901 2013/11/27)

>  <Rbt.Parameter_File>
/export/apps/rDock/src/rDock_2013.1_src/data/scripts/dock_solv.prm

>  <Rbt.Receptor>
prm/pocket_docking_4.prm

>  <SCORE>
-14.3561

>  <SCORE.INTER>
-14.3561

>  <SCORE.INTER.CONST>
1

>  <SCORE.INTER.POLAR>
0

>  <SCORE.INTER.ROT>
0

>  <SCORE.INTER.SOLV>
8.67888

>  <SCORE.INTER.VDW>
-16.0637

>  <SCORE.INTER.norm>
-1.43561

>  <SCORE.INTRA>
0

>  <SCORE.INTRA.DIHEDRAL>
0

>  <SCORE.INTRA.DIHEDRAL.0>
0

>  <SCORE.INTRA.POLAR>
0

>  <SCORE.INTRA.POLAR.0>
0

>  <SCORE.INTRA.REPUL>
0

>  <SCORE.INTRA.REPUL.0>
0

>  <SCORE.INTRA.SOLV>
0

>  <SCORE.INTRA.SOLV.lig_0>
-23.8949

>  <SCORE.INTRA.VDW>
0

>  <SCORE.INTRA.VDW.0>
0

>  <SCORE.INTRA.norm>
0

>  <SCORE.RESTR>
0

>  <SCORE.RESTR.CAVITY>
0

>  <SCORE.RESTR.norm>
0

>  <SCORE.SYSTEM>
0

>  <SCORE.SYSTEM.CONST>
0

>  <SCORE.SYSTEM.DIHEDRAL>
0

>  <SCORE.SYSTEM.SOLV>
0

>  <SCORE.SYSTEM.norm>
0

>  <SCORE.heavy>
10

>  <SCORE.norm>
-1.43561

>  <RMSD>
0.444

$$$$
ligand
 OpenBabel11021811513D
libRbt.so/2013.1/901 2013/11/27
 10 11  0  0  0  0  0  0  0  0999 V2000
  -30.2544   17.0986  -14.9519 N   0  0  0  0  0  0  0  0  0  0  0  0
  -31.0801   18.1482  -14.8453 C   0  0  0  0  0  0  0  0  0  0  0  0
  -31.4858   18.9957  -15.7900 N   0  0  0  0  0  0  0  0  0  0  0  0
  -30.9444   18.6804  -16.9776 C   0  0  0  0  0  0  0  0  0  0  0  0
  -30.0786   17.6357  -17.2434 C   0  0  0  0  0  0  0  0  0  0  0  0
  -29.7264   16.8073  -16.1588 C   0  0  0  0  0  0  0  0  0  0  0  0
  -28.9009   15.7616  -16.2695 N   0  0  0  0  0  0  0  0  0  0  0  0
  -29.7288   17.6184  -18.5828 N   0  0  0  0  0  0  0  0  0  0  0  0
  -30.3781   18.6396  -19.0909 C   0  0  0  0  0  0  0  0  0  0  0  0
  -31.1309   19.3245  -18.1776 N   0  0  0  0  0  0  0  0  0  0  0  0
  1  2  2  0  0  0  0
  1  6  1  0  0  0  0
  2  3  1  0  0  0  0
  3  4  2  0  0  0  0
  4  5  1  0  0  0  0
  4 10  1  0  0  0  0
  5  6  2  0  0  0  0
  5  8  1  0  0  0  0
  6  7  1  0  0  0  0
  8  9  1  0  0  0  0
  9 10  2  0  0  0  0
M  END
>  <CHROM.1>
-30.36540339,17.86246523,-16.80459181,1.29114716,-0.89434307,1.89233636

>  <Name>
ligand

>  <RI>
0

>  <Rbt.Current_Directory>
/home/itssahil/PROJECTS/Mol_Feturizer/New_Systems/rnas/4TZX

>  <Rbt.Executable>
rbdock ($Id: //depot/dev/client3/rdock/2013.1/src/exe/rbdock.cxx#4 $)

>  <Rbt.Library>
libRbt.so (2013.1, Build901 2013/11/27)

>  <Rbt.Parameter_File>
/export/apps/rDock/src/rDock_2013.1_src/data/scripts/dock_solv.prm

>  <Rbt.Receptor>
prm/pocket_docking_6.prm

>  <SCORE>
-14.3328

>  <SCORE.INTER>
-14.3328

>  <SCORE.INTER.CONST>
1

>  <SCORE.INTER.POLAR>
0

>  <SCORE.INTER.ROT>
0

>  <SCORE.INTER.SOLV>
8.03437

>  <SCORE.INTER.VDW>
-15.8333

>  <SCORE.INTER.norm>
-1.43328

>  <SCORE.INTRA>
0

>  <SCORE.INTRA.DIHEDRAL>
0

>  <SCORE.INTRA.DIHEDRAL.0>
0

>  <SCORE.INTRA.POLAR>
0

>  <SCORE.INTRA.POLAR.0>
0

>  <SCORE.INTRA.REPUL>
0

>  <SCORE.INTRA.REPUL.0>
0

>  <SCORE.INTRA.SOLV>
0

>  <SCORE.INTRA.SOLV.lig_0>
-23.8949

>  <SCORE.INTRA.VDW>
0

>  <SCORE.INTRA.VDW.0>
0

>  <SCORE.INTRA.norm>
0

>  <SCORE.RESTR>
0

>  <SCORE.RESTR.CAVITY>
0

>  <SCORE.RESTR.norm>
0

>  <SCORE.SYSTEM>
0

>  <SCORE.SYSTEM.CONST>
0

>  <SCORE.SYSTEM.DIHEDRAL>
0

>  <SCORE.SYSTEM.SOLV>
0

>  <SCORE.SYSTEM.norm>
0

>  <SCORE.heavy>
10

>  <SCORE.norm>
-1.43328

>  <RMSD>
0.444

$$$$
ligand
 OpenBabel11021811513D
libRbt.so/2013.1/901 2013/11/27
 10 11  0  0  0  0  0  0  0  0999 V2000
  -30.2837   17.1044  -14.9485 N   0  0  0  0  0  0  0  0  0  0  0  0
  -31.0958   18.1644  -14.8401 C   0  0  0  0  0  0  0  0  0  0  0  0
  -31.4861   19.0219  -15.7824 N   0  0  0  0  0  0  0  0  0  0  0  0
  -30.9439   18.7051  -16.9691 C   0  0  0  0  0  0  0  0  0  0  0  0
  -30.0910   17.6502  -17.2364 C   0  0  0  0  0  0  0  0  0  0  0  0
  -29.7545   16.8119  -16.1545 C   0  0  0  0  0  0  0  0  0  0  0  0
  -28.9426   15.7558  -16.2669 N   0  0  0  0  0  0  0  0  0  0  0  0
  -29.7358   17.6347  -18.5744 N   0  0  0  0  0  0  0  0  0  0  0  0
  -30.3691   18.6670  -19.0802 C   0  0  0  0  0  0  0  0  0  0  0  0
  -31.1166   19.3575  -18.1667 N   0  0  0  0  0  0  0  0  0  0  0  0
  1  2  2  0  0  0  0
  1  6  1  0  0  0  0
  2  3  1  0  0  0  0
  3  4  2  0  0  0  0
  4  5  1  0  0  0  0
  4 10  1  0  0  0  0
  5  6  2  0  0  0  0
  5  8  1  0  0  0  0
  6  7  1  0  0  0  0
  8  9  1  0  0  0  0
  9 10  2  0  0  0  0
M  END
>  <CHROM.1>
-30.37663452,17.87866484,-16.79777008,1.30456447,-0.90564370,1.90773878

>  <Name>
ligand

>  <RI>
0

>  <Rbt.Current_Directory>
/home/itssahil/PROJECTS/Mol_Feturizer/New_Systems/rnas/4TZX

>  <Rbt.Executable>
rbdock ($Id: //depot/dev/client3/rdock/2013.1/src/exe/rbdock.cxx#4 $)

>  <Rbt.Library>
libRbt.so (2013.1, Build901 2013/11/27)

>  <Rbt.Parameter_File>
/export/apps/rDock/src/rDock_2013.1_src/data/scripts/dock_solv.prm

>  <Rbt.Receptor>
prm/pocket_docking_7.prm

>  <SCORE>
-14.3704

>  <SCORE.INTER>
-14.3704

>  <SCORE.INTER.CONST>
1

>  <SCORE.INTER.POLAR>
0

>  <SCORE.INTER.ROT>
0

>  <SCORE.INTER.SOLV>
8.15149

>  <SCORE.INTER.VDW>
-15.8974

>  <SCORE.INTER.norm>
-1.43704

>  <SCORE.INTRA>
0

>  <SCORE.INTRA.DIHEDRAL>
0

>  <SCORE.INTRA.DIHEDRAL.0>
0

>  <SCORE.INTRA.POLAR>
0

>  <SCORE.INTRA.POLAR.0>
0

>  <SCORE.INTRA.REPUL>
0

>  <SCORE.INTRA.REPUL.0>
0

>  <SCORE.INTRA.SOLV>
0

>  <SCORE.INTRA.SOLV.lig_0>
-23.8949

>  <SCORE.INTRA.VDW>
0

>  <SCORE.INTRA.VDW.0>
0

>  <SCORE.INTRA.norm>
0

>  <SCORE.RESTR>
0

>  <SCORE.RESTR.CAVITY>
0

>  <SCORE.RESTR.norm>
0

>  <SCORE.SYSTEM>
0

>  <SCORE.SYSTEM.CONST>
0

>  <SCORE.SYSTEM.DIHEDRAL>
0

>  <SCORE.SYSTEM.SOLV>
0

>  <SCORE.SYSTEM.norm>
0

>  <SCORE.heavy>
10

>  <SCORE.norm>
-1.43704

>  <RMSD>
0.445

$$$$
ligand
 OpenBabel11021811513D
libRbt.so/2013.1/901 2013/11/27
 10 11  0  0  0  0  0  0  0  0999 V2000
  -30.3293   17.0269  -14.9986 N   0  0  0  0  0  0  0  0  0  0  0  0
  -31.0993   18.1151  -14.8656 C   0  0  0  0  0  0  0  0  0  0  0  0
  -31.4549   19.0089  -15.7877 N   0  0  0  0  0  0  0  0  0  0  0  0
  -30.9245   18.6986  -16.9815 C   0  0  0  0  0  0  0  0  0  0  0  0
  -30.1134   17.6176  -17.2733 C   0  0  0  0  0  0  0  0  0  0  0  0
  -29.8110   16.7419  -16.2111 C   0  0  0  0  0  0  0  0  0  0  0  0
  -29.0410   15.6577  -16.3480 N   0  0  0  0  0  0  0  0  0  0  0  0
  -29.7580   17.6192  -18.6113 N   0  0  0  0  0  0  0  0  0  0  0  0
  -30.3500   18.6870  -19.0930 C   0  0  0  0  0  0  0  0  0  0  0  0
  -31.0706   19.3849  -18.1637 N   0  0  0  0  0  0  0  0  0  0  0  0
  1  2  2  0  0  0  0
  1  6  1  0  0  0  0
  2  3  1  0  0  0  0
  3  4  2  0  0  0  0
  4  5  1  0  0  0  0
  4 10  1  0  0  0  0
  5  6  2  0  0  0  0
  5  8  1  0  0  0  0
  6  7  1  0  0  0  0
  8  9  1  0  0  0  0
  9 10  2  0  0  0  0
M  END
>  <CHROM.1>
-30.39024081,17.84685304,-16.82942944,1.32792017,-0.94224363,1.94957052

>  <Name>
ligand

>  <RI>
0

>  <Rbt.Current_Directory>
/home/itssahil/PROJECTS/Mol_Feturizer/New_Systems/rnas/4TZX

>  <Rbt.Executable>
rbdock ($Id: //depot/dev/client3/rdock/2013.1/src/exe/rbdock.cxx#4 $)

>  <Rbt.Library>
libRbt.so (2013.1, Build901 2013/11/27)

>  <Rbt.Parameter_File>
/export/apps/rDock/src/rDock_2013.1_src/data/scripts/dock_solv.prm

>  <Rbt.Receptor>
prm/pocket_docking_4.prm

>  <SCORE>
-14.3607

>  <SCORE.INTER>
-14.3607

>  <SCORE.INTER.CONST>
1

>  <SCORE.INTER.POLAR>
0

>  <SCORE.INTER.ROT>
0

>  <SCORE.INTER.SOLV>
8.70101

>  <SCORE.INTER.VDW>
-16.0741

>  <SCORE.INTER.norm>
-1.43607

>  <SCORE.INTRA>
0

>  <SCORE.INTRA.DIHEDRAL>
0

>  <SCORE.INTRA.DIHEDRAL.0>
0

>  <SCORE.INTRA.POLAR>
0

>  <SCORE.INTRA.POLAR.0>
0

>  <SCORE.INTRA.REPUL>
0

>  <SCORE.INTRA.REPUL.0>
0

>  <SCORE.INTRA.SOLV>
0

>  <SCORE.INTRA.SOLV.lig_0>
-23.8949

>  <SCORE.INTRA.VDW>
0

>  <SCORE.INTRA.VDW.0>
0

>  <SCORE.INTRA.norm>
0

>  <SCORE.RESTR>
0

>  <SCORE.RESTR.CAVITY>
0

>  <SCORE.RESTR.norm>
0

>  <SCORE.SYSTEM>
0

>  <SCORE.SYSTEM.CONST>
0

>  <SCORE.SYSTEM.DIHEDRAL>
0

>  <SCORE.SYSTEM.SOLV>
0

>  <SCORE.SYSTEM.norm>
0

>  <SCORE.heavy>
10

>  <SCORE.norm>
-1.43607

>  <RMSD>
0.447

$$$$
ligand
 OpenBabel11021811513D
libRbt.so/2013.1/901 2013/11/27
 10 11  0  0  0  0  0  0  0  0999 V2000
  -30.2786   17.1034  -14.9519 N   0  0  0  0  0  0  0  0  0  0  0  0
  -31.0938   18.1606  -14.8404 C   0  0  0  0  0  0  0  0  0  0  0  0
  -31.4897   19.0175  -15.7810 N   0  0  0  0  0  0  0  0  0  0  0  0
  -30.9500   18.7032  -16.9696 C   0  0  0  0  0  0  0  0  0  0  0  0
  -30.0945   17.6513  -17.2401 C   0  0  0  0  0  0  0  0  0  0  0  0
  -29.7520   16.8133  -16.1597 C   0  0  0  0  0  0  0  0  0  0  0  0
  -28.9370   15.7600  -16.2752 N   0  0  0  0  0  0  0  0  0  0  0  0
  -29.7432   17.6378  -18.5792 N   0  0  0  0  0  0  0  0  0  0  0  0
  -30.3814   18.6684  -19.0824 C   0  0  0  0  0  0  0  0  0  0  0  0
  -31.1285   19.3558  -18.1662 N   0  0  0  0  0  0  0  0  0  0  0  0
  1  2  2  0  0  0  0
  1  6  1  0  0  0  0
  2  3  1  0  0  0  0
  3  4  2  0  0  0  0
  4  5  1  0  0  0  0
  4 10  1  0  0  0  0
  5  6  2  0  0  0  0
  5  8  1  0  0  0  0
  6  7  1  0  0  0  0
  8  9  1  0  0  0  0
  9 10  2  0  0  0  0
M  END
>  <CHROM.1>
-30.37952264,17.87852433,-16.80042773,1.29824336,-0.90354464,1.90340797

>  <Name>
ligand

>  <RI>
0

>  <Rbt.Current_Directory>
/home/itssahil/PROJECTS/Mol_Feturizer/New_Systems/rnas/4TZX

>  <Rbt.Executable>
rbdock ($Id: //depot/dev/client3/rdock/2013.1/src/exe/rbdock.cxx#4 $)

>  <Rbt.Library>
libRbt.so (2013.1, Build901 2013/11/27)

>  <Rbt.Parameter_File>
/export/apps/rDock/src/rDock_2013.1_src/data/scripts/dock_solv.prm

>  <Rbt.Receptor>
prm/pocket_docking_4.prm

>  <SCORE>
-14.3703

>  <SCORE.INTER>
-14.3705

>  <SCORE.INTER.CONST>
1

>  <SCORE.INTER.POLAR>
0

>  <SCORE.INTER.ROT>
0

>  <SCORE.INTER.SOLV>
8.14096

>  <SCORE.INTER.VDW>
-15.894

>  <SCORE.INTER.norm>
-1.43705

>  <SCORE.INTRA>
0

>  <SCORE.INTRA.DIHEDRAL>
0

>  <SCORE.INTRA.DIHEDRAL.0>
0

>  <SCORE.INTRA.POLAR>
0

>  <SCORE.INTRA.POLAR.0>
0

>  <SCORE.INTRA.REPUL>
0

>  <SCORE.INTRA.REPUL.0>
0

>  <SCORE.INTRA.SOLV>
0

>  <SCORE.INTRA.SOLV.lig_0>
-23.8949

>  <SCORE.INTRA.VDW>
0

>  <SCORE.INTRA.VDW.0>
0

>  <SCORE.INTRA.norm>
0

>  <SCORE.RESTR>
0.000243353

>  <SCORE.RESTR.CAVITY>
0.000243353

>  <SCORE.RESTR.norm>
2.43353e-05

>  <SCORE.SYSTEM>
0

>  <SCORE.SYSTEM.CONST>
0

>  <SCORE.SYSTEM.DIHEDRAL>
0

>  <SCORE.SYSTEM.SOLV>
0

>  <SCORE.SYSTEM.norm>
0

>  <SCORE.heavy>
10

>  <SCORE.norm>
-1.43703

>  <RMSD>
0.447

$$$$
ligand
 OpenBabel11021811513D
libRbt.so/2013.1/901 2013/11/27
 10 11  0  0  0  0  0  0  0  0999 V2000
  -30.3257   17.0307  -14.9968 N   0  0  0  0  0  0  0  0  0  0  0  0
  -31.0957   18.1188  -14.8635 C   0  0  0  0  0  0  0  0  0  0  0  0
  -31.4536   19.0114  -15.7858 N   0  0  0  0  0  0  0  0  0  0  0  0
  -30.9259   18.6998  -16.9805 C   0  0  0  0  0  0  0  0  0  0  0  0
  -30.1151   17.6187  -17.2728 C   0  0  0  0  0  0  0  0  0  0  0  0
  -29.8100   16.7443  -16.2102 C   0  0  0  0  0  0  0  0  0  0  0  0
  -29.0401   15.6602  -16.3475 N   0  0  0  0  0  0  0  0  0  0  0  0
  -29.7627   17.6187  -18.6116 N   0  0  0  0  0  0  0  0  0  0  0  0
  -30.3561   18.6858  -19.0932 C   0  0  0  0  0  0  0  0  0  0  0  0
  -31.0748   19.3846  -18.1632 N   0  0  0  0  0  0  0  0  0  0  0  0
  1  2  2  0  0  0  0
  1  6  1  0  0  0  0
  2  3  1  0  0  0  0
  3  4  2  0  0  0  0
  4  5  1  0  0  0  0
  4 10  1  0  0  0  0
  5  6  2  0  0  0  0
  5  8  1  0  0  0  0
  6  7  1  0  0  0  0
  8  9  1  0  0  0  0
  9 10  2  0  0  0  0
M  END
>  <CHROM.1>
-30.39102134,17.84838463,-16.82856144,1.32418375,-0.94280998,1.94531948

>  <Name>
ligand

>  <RI>
0

>  <Rbt.Current_Directory>
/home/itssahil/PROJECTS/Mol_Feturizer/New_Systems/rnas/4TZX

>  <Rbt.Executable>
rbdock ($Id: //depot/dev/client3/rdock/2013.1/src/exe/rbdock.cxx#4 $)

>  <Rbt.Library>
libRbt.so (2013.1, Build901 2013/11/27)

>  <Rbt.Parameter_File>
/export/apps/rDock/src/rDock_2013.1_src/data/scripts/dock_solv.prm

>  <Rbt.Receptor>
prm/pocket_docking_6.prm

>  <SCORE>
-14.3603

>  <SCORE.INTER>
-14.3603

>  <SCORE.INTER.CONST>
1

>  <SCORE.INTER.POLAR>
0

>  <SCORE.INTER.ROT>
0

>  <SCORE.INTER.SOLV>
8.69139

>  <SCORE.INTER.VDW>
-16.0707

>  <SCORE.INTER.norm>
-1.43603

>  <SCORE.INTRA>
0

>  <SCORE.INTRA.DIHEDRAL>
0

>  <SCORE.INTRA.DIHEDRAL.0>
0

>  <SCORE.INTRA.POLAR>
0

>  <SCORE.INTRA.POLAR.0>
0

>  <SCORE.INTRA.REPUL>
0

>  <SCORE.INTRA.REPUL.0>
0

>  <SCORE.INTRA.SOLV>
0

>  <SCORE.INTRA.SOLV.lig_0>
-23.8949

>  <SCORE.INTRA.VDW>
0

>  <SCORE.INTRA.VDW.0>
0

>  <SCORE.INTRA.norm>
0

>  <SCORE.RESTR>
0

>  <SCORE.RESTR.CAVITY>
0

>  <SCORE.RESTR.norm>
0

>  <SCORE.SYSTEM>
0

>  <SCORE.SYSTEM.CONST>
0

>  <SCORE.SYSTEM.DIHEDRAL>
0

>  <SCORE.SYSTEM.SOLV>
0

>  <SCORE.SYSTEM.norm>
0

>  <SCORE.heavy>
10

>  <SCORE.norm>
-1.43603

>  <RMSD>
0.447

$$$$
ligand
 OpenBabel11021811513D
libRbt.so/2013.1/901 2013/11/27
 10 11  0  0  0  0  0  0  0  0999 V2000
  -30.3255   17.0354  -14.9954 N   0  0  0  0  0  0  0  0  0  0  0  0
  -31.0954   18.1235  -14.8613 C   0  0  0  0  0  0  0  0  0  0  0  0
  -31.4540   19.0162  -15.7833 N   0  0  0  0  0  0  0  0  0  0  0  0
  -30.9271   18.7048  -16.9784 C   0  0  0  0  0  0  0  0  0  0  0  0
  -30.1165   17.6237  -17.2714 C   0  0  0  0  0  0  0  0  0  0  0  0
  -29.8107   16.7492  -16.2091 C   0  0  0  0  0  0  0  0  0  0  0  0
  -29.0407   15.6651  -16.3472 N   0  0  0  0  0  0  0  0  0  0  0  0
  -29.7651   17.6240  -18.6105 N   0  0  0  0  0  0  0  0  0  0  0  0
  -30.3588   18.6911  -19.0915 C   0  0  0  0  0  0  0  0  0  0  0  0
  -31.0769   19.3898  -18.1608 N   0  0  0  0  0  0  0  0  0  0  0  0
  1  2  2  0  0  0  0
  1  6  1  0  0  0  0
  2  3  1  0  0  0  0
  3  4  2  0  0  0  0
  4  5  1  0  0  0  0
  4 10  1  0  0  0  0
  5  6  2  0  0  0  0
  5  8  1  0  0  0  0
  6  7  1  0  0  0  0
  8  9  1  0  0  0  0
  9 10  2  0  0  0  0
M  END
>  <CHROM.1>
-30.39210734,17.85336856,-16.82694943,1.32302074,-0.94305365,1.94451960

>  <Name>
ligand

>  <RI>
0

>  <Rbt.Current_Directory>
/home/itssahil/PROJECTS/Mol_Feturizer/New_Systems/rnas/4TZX

>  <Rbt.Executable>
rbdock ($Id: //depot/dev/client3/rdock/2013.1/src/exe/rbdock.cxx#4 $)

>  <Rbt.Library>
libRbt.so (2013.1, Build901 2013/11/27)

>  <Rbt.Parameter_File>
/export/apps/rDock/src/rDock_2013.1_src/data/scripts/dock_solv.prm

>  <Rbt.Receptor>
prm/pocket_docking_7.prm

>  <SCORE>
-14.3611

>  <SCORE.INTER>
-14.3611

>  <SCORE.INTER.CONST>
1

>  <SCORE.INTER.POLAR>
0

>  <SCORE.INTER.ROT>
0

>  <SCORE.INTER.SOLV>
8.68212

>  <SCORE.INTER.VDW>
-16.0681

>  <SCORE.INTER.norm>
-1.43611

>  <SCORE.INTRA>
0

>  <SCORE.INTRA.DIHEDRAL>
0

>  <SCORE.INTRA.DIHEDRAL.0>
0

>  <SCORE.INTRA.POLAR>
0

>  <SCORE.INTRA.POLAR.0>
0

>  <SCORE.INTRA.REPUL>
0

>  <SCORE.INTRA.REPUL.0>
0

>  <SCORE.INTRA.SOLV>
0

>  <SCORE.INTRA.SOLV.lig_0>
-23.8949

>  <SCORE.INTRA.VDW>
0

>  <SCORE.INTRA.VDW.0>
0

>  <SCORE.INTRA.norm>
0

>  <SCORE.RESTR>
0

>  <SCORE.RESTR.CAVITY>
0

>  <SCORE.RESTR.norm>
0

>  <SCORE.SYSTEM>
0

>  <SCORE.SYSTEM.CONST>
0

>  <SCORE.SYSTEM.DIHEDRAL>
0

>  <SCORE.SYSTEM.SOLV>
0

>  <SCORE.SYSTEM.norm>
0

>  <SCORE.heavy>
10

>  <SCORE.norm>
-1.43611

>  <RMSD>
0.448

$$$$
ligand
 OpenBabel11021811513D
libRbt.so/2013.1/901 2013/11/27
 10 11  0  0  0  0  0  0  0  0999 V2000
  -30.2486   17.1197  -14.9422 N   0  0  0  0  0  0  0  0  0  0  0  0
  -31.0811   18.1642  -14.8380 C   0  0  0  0  0  0  0  0  0  0  0  0
  -31.4937   19.0058  -15.7850 N   0  0  0  0  0  0  0  0  0  0  0  0
  -30.9520   18.6898  -16.9723 C   0  0  0  0  0  0  0  0  0  0  0  0
  -30.0798   17.6499  -17.2358 C   0  0  0  0  0  0  0  0  0  0  0  0
  -29.7205   16.8276  -16.1488 C   0  0  0  0  0  0  0  0  0  0  0  0
  -28.8883   15.7870  -16.2572 N   0  0  0  0  0  0  0  0  0  0  0  0
  -29.7319   17.6302  -18.5757 N   0  0  0  0  0  0  0  0  0  0  0  0
  -30.3886   18.6454  -19.0863 C   0  0  0  0  0  0  0  0  0  0  0  0
  -31.1446   19.3285  -18.1743 N   0  0  0  0  0  0  0  0  0  0  0  0
  1  2  2  0  0  0  0
  1  6  1  0  0  0  0
  2  3  1  0  0  0  0
  3  4  2  0  0  0  0
  4  5  1  0  0  0  0
  4 10  1  0  0  0  0
  5  6  2  0  0  0  0
  5  8  1  0  0  0  0
  6  7  1  0  0  0  0
  8  9  1  0  0  0  0
  9 10  2  0  0  0  0
M  END
>  <CHROM.1>
-30.36743483,17.87633730,-16.79735551,1.28560049,-0.88857996,1.88452502

>  <Name>
ligand

>  <RI>
0

>  <Rbt.Current_Directory>
/home/itssahil/PROJECTS/Mol_Feturizer/New_Systems/rnas/4TZX

>  <Rbt.Executable>
rbdock ($Id: //depot/dev/client3/rdock/2013.1/src/exe/rbdock.cxx#4 $)

>  <Rbt.Library>
libRbt.so (2013.1, Build901 2013/11/27)

>  <Rbt.Parameter_File>
/export/apps/rDock/src/rDock_2013.1_src/data/scripts/dock_solv.prm

>  <Rbt.Receptor>
prm/blind_docking_100.prm

>  <SCORE>
-14.3626

>  <SCORE.INTER>
-14.3626

>  <SCORE.INTER.CONST>
1

>  <SCORE.INTER.POLAR>
0

>  <SCORE.INTER.ROT>
0

>  <SCORE.INTER.SOLV>
7.95086

>  <SCORE.INTER.VDW>
-15.8254

>  <SCORE.INTER.norm>
-1.43626

>  <SCORE.INTRA>
0

>  <SCORE.INTRA.DIHEDRAL>
0

>  <SCORE.INTRA.DIHEDRAL.0>
0

>  <SCORE.INTRA.POLAR>
0

>  <SCORE.INTRA.POLAR.0>
0

>  <SCORE.INTRA.REPUL>
0

>  <SCORE.INTRA.REPUL.0>
0

>  <SCORE.INTRA.SOLV>
0

>  <SCORE.INTRA.SOLV.lig_0>
-23.8949

>  <SCORE.INTRA.VDW>
0

>  <SCORE.INTRA.VDW.0>
0

>  <SCORE.INTRA.norm>
0

>  <SCORE.RESTR>
0

>  <SCORE.RESTR.CAVITY>
0

>  <SCORE.RESTR.norm>
0

>  <SCORE.SYSTEM>
0

>  <SCORE.SYSTEM.CONST>
0

>  <SCORE.SYSTEM.DIHEDRAL>
0

>  <SCORE.SYSTEM.SOLV>
0

>  <SCORE.SYSTEM.norm>
0

>  <SCORE.heavy>
10

>  <SCORE.norm>
-1.43626

>  <RMSD>
0.449

$$$$
ligand
 OpenBabel11021811513D
libRbt.so/2013.1/901 2013/11/27
 10 11  0  0  0  0  0  0  0  0999 V2000
  -30.2666   17.1161  -14.9456 N   0  0  0  0  0  0  0  0  0  0  0  0
  -31.0845   18.1715  -14.8361 C   0  0  0  0  0  0  0  0  0  0  0  0
  -31.4849   19.0238  -15.7788 N   0  0  0  0  0  0  0  0  0  0  0  0
  -30.9472   18.7067  -16.9675 C   0  0  0  0  0  0  0  0  0  0  0  0
  -30.0894   17.6562  -17.2362 C   0  0  0  0  0  0  0  0  0  0  0  0
  -29.7421   16.8231  -16.1535 C   0  0  0  0  0  0  0  0  0  0  0  0
  -28.9244   15.7716  -16.2671 N   0  0  0  0  0  0  0  0  0  0  0  0
  -29.7412   17.6388  -18.5760 N   0  0  0  0  0  0  0  0  0  0  0  0
  -30.3835   18.6657  -19.0815 C   0  0  0  0  0  0  0  0  0  0  0  0
  -31.1303   19.3544  -18.1661 N   0  0  0  0  0  0  0  0  0  0  0  0
  1  2  2  0  0  0  0
  1  6  1  0  0  0  0
  2  3  1  0  0  0  0
  3  4  2  0  0  0  0
  4  5  1  0  0  0  0
  4 10  1  0  0  0  0
  5  6  2  0  0  0  0
  5  8  1  0  0  0  0
  6  7  1  0  0  0  0
  8  9  1  0  0  0  0
  9 10  2  0  0  0  0
M  END
>  <CHROM.1>
-30.37403358,17.88420693,-16.79669015,1.29321290,-0.90167337,1.89581100

>  <Name>
ligand

>  <RI>
0

>  <Rbt.Current_Directory>
/home/itssahil/PROJECTS/Mol_Feturizer/New_Systems/rnas/4TZX

>  <Rbt.Executable>
rbdock ($Id: //depot/dev/client3/rdock/2013.1/src/exe/rbdock.cxx#4 $)

>  <Rbt.Library>
libRbt.so (2013.1, Build901 2013/11/27)

>  <Rbt.Parameter_File>
/export/apps/rDock/src/rDock_2013.1_src/data/scripts/dock_solv.prm

>  <Rbt.Receptor>
prm/blind_docking_100.prm

>  <SCORE>
-14.3651

>  <SCORE.INTER>
-14.3654

>  <SCORE.INTER.CONST>
1

>  <SCORE.INTER.POLAR>
0

>  <SCORE.INTER.ROT>
0

>  <SCORE.INTER.SOLV>
8.07784

>  <SCORE.INTER.VDW>
-15.8695

>  <SCORE.INTER.norm>
-1.43654

>  <SCORE.INTRA>
0

>  <SCORE.INTRA.DIHEDRAL>
0

>  <SCORE.INTRA.DIHEDRAL.0>
0

>  <SCORE.INTRA.POLAR>
0

>  <SCORE.INTRA.POLAR.0>
0

>  <SCORE.INTRA.REPUL>
0

>  <SCORE.INTRA.REPUL.0>
0

>  <SCORE.INTRA.SOLV>
0

>  <SCORE.INTRA.SOLV.lig_0>
-23.8949

>  <SCORE.INTRA.VDW>
0

>  <SCORE.INTRA.VDW.0>
0

>  <SCORE.INTRA.norm>
0

>  <SCORE.RESTR>
0.0002639

>  <SCORE.RESTR.CAVITY>
0.0002639

>  <SCORE.RESTR.norm>
2.639e-05

>  <SCORE.SYSTEM>
0

>  <SCORE.SYSTEM.CONST>
0

>  <SCORE.SYSTEM.DIHEDRAL>
0

>  <SCORE.SYSTEM.SOLV>
0

>  <SCORE.SYSTEM.norm>
0

>  <SCORE.heavy>
10

>  <SCORE.norm>
-1.43651

>  <RMSD>
0.449

$$$$
ligand
 OpenBabel11021811513D
libRbt.so/2013.1/901 2013/11/27
 10 11  0  0  0  0  0  0  0  0999 V2000
  -30.2663   17.1054  -14.9528 N   0  0  0  0  0  0  0  0  0  0  0  0
  -31.0840   18.1605  -14.8391 C   0  0  0  0  0  0  0  0  0  0  0  0
  -31.4863   19.0152  -15.7789 N   0  0  0  0  0  0  0  0  0  0  0  0
  -30.9507   18.7011  -16.9694 C   0  0  0  0  0  0  0  0  0  0  0  0
  -30.0933   17.6513  -17.2423 C   0  0  0  0  0  0  0  0  0  0  0  0
  -29.7440   16.8155  -16.1624 C   0  0  0  0  0  0  0  0  0  0  0  0
  -28.9265   15.7644  -16.2802 N   0  0  0  0  0  0  0  0  0  0  0  0
  -29.7476   17.6374  -18.5829 N   0  0  0  0  0  0  0  0  0  0  0  0
  -30.3909   18.6655  -19.0845 C   0  0  0  0  0  0  0  0  0  0  0  0
  -31.1360   19.3519  -18.1660 N   0  0  0  0  0  0  0  0  0  0  0  0
  1  2  2  0  0  0  0
  1  6  1  0  0  0  0
  2  3  1  0  0  0  0
  3  4  2  0  0  0  0
  4  5  1  0  0  0  0
  4 10  1  0  0  0  0
  5  6  2  0  0  0  0
  5  8  1  0  0  0  0
  6  7  1  0  0  0  0
  8  9  1  0  0  0  0
  9 10  2  0  0  0  0
M  END
>  <CHROM.1>
-30.37719179,17.87821468,-16.80172132,1.29037379,-0.90221214,1.89613637

>  <Name>
ligand

>  <RI>
0

>  <Rbt.Current_Directory>
/home/itssahil/PROJECTS/Mol_Feturizer/New_Systems/rnas/4TZX

>  <Rbt.Executable>
rbdock ($Id: //depot/dev/client3/rdock/2013.1/src/exe/rbdock.cxx#4 $)

>  <Rbt.Library>
libRbt.so (2013.1, Build901 2013/11/27)

>  <Rbt.Parameter_File>
/export/apps/rDock/src/rDock_2013.1_src/data/scripts/dock_solv.prm

>  <Rbt.Receptor>
prm/pocket_docking_5.prm

>  <SCORE>
-14.3693

>  <SCORE.INTER>
-14.3693

>  <SCORE.INTER.CONST>
1

>  <SCORE.INTER.POLAR>
0

>  <SCORE.INTER.ROT>
0

>  <SCORE.INTER.SOLV>
8.11445

>  <SCORE.INTER.VDW>
-15.8843

>  <SCORE.INTER.norm>
-1.43693

>  <SCORE.INTRA>
0

>  <SCORE.INTRA.DIHEDRAL>
0

>  <SCORE.INTRA.DIHEDRAL.0>
0

>  <SCORE.INTRA.POLAR>
0

>  <SCORE.INTRA.POLAR.0>
0

>  <SCORE.INTRA.REPUL>
0

>  <SCORE.INTRA.REPUL.0>
0

>  <SCORE.INTRA.SOLV>
0

>  <SCORE.INTRA.SOLV.lig_0>
-23.8949

>  <SCORE.INTRA.VDW>
0

>  <SCORE.INTRA.VDW.0>
0

>  <SCORE.INTRA.norm>
0

>  <SCORE.RESTR>
0

>  <SCORE.RESTR.CAVITY>
0

>  <SCORE.RESTR.norm>
0

>  <SCORE.SYSTEM>
0

>  <SCORE.SYSTEM.CONST>
0

>  <SCORE.SYSTEM.DIHEDRAL>
0

>  <SCORE.SYSTEM.SOLV>
0

>  <SCORE.SYSTEM.norm>
0

>  <SCORE.heavy>
10

>  <SCORE.norm>
-1.43693

>  <RMSD>
0.449

$$$$
ligand
 OpenBabel11021811513D
libRbt.so/2013.1/901 2013/11/27
 10 11  0  0  0  0  0  0  0  0999 V2000
  -30.2665   17.1114  -14.9493 N   0  0  0  0  0  0  0  0  0  0  0  0
  -31.0875   18.1641  -14.8367 C   0  0  0  0  0  0  0  0  0  0  0  0
  -31.4936   19.0155  -15.7778 N   0  0  0  0  0  0  0  0  0  0  0  0
  -30.9585   18.7006  -16.9683 C   0  0  0  0  0  0  0  0  0  0  0  0
  -30.0982   17.6530  -17.2402 C   0  0  0  0  0  0  0  0  0  0  0  0
  -29.7449   16.8206  -16.1590 C   0  0  0  0  0  0  0  0  0  0  0  0
  -28.9242   15.7718  -16.2756 N   0  0  0  0  0  0  0  0  0  0  0  0
  -29.7541   17.6373  -18.5811 N   0  0  0  0  0  0  0  0  0  0  0  0
  -30.4013   18.6624  -19.0841 C   0  0  0  0  0  0  0  0  0  0  0  0
  -31.1474   19.3483  -18.1661 N   0  0  0  0  0  0  0  0  0  0  0  0
  1  2  2  0  0  0  0
  1  6  1  0  0  0  0
  2  3  1  0  0  0  0
  3  4  2  0  0  0  0
  4  5  1  0  0  0  0
  4 10  1  0  0  0  0
  5  6  2  0  0  0  0
  5  8  1  0  0  0  0
  6  7  1  0  0  0  0
  8  9  1  0  0  0  0
  9 10  2  0  0  0  0
M  END
>  <CHROM.1>
-30.38221394,17.87995005,-16.79967772,1.28682961,-0.89961529,1.89125351

>  <Name>
ligand

>  <RI>
0

>  <Rbt.Current_Directory>
/home/itssahil/PROJECTS/Mol_Feturizer/New_Systems/rnas/4TZX

>  <Rbt.Executable>
rbdock ($Id: //depot/dev/client3/rdock/2013.1/src/exe/rbdock.cxx#4 $)

>  <Rbt.Library>
libRbt.so (2013.1, Build901 2013/11/27)

>  <Rbt.Parameter_File>
/export/apps/rDock/src/rDock_2013.1_src/data/scripts/dock_solv.prm

>  <Rbt.Receptor>
prm/pocket_docking_7.prm

>  <SCORE>
-14.3595

>  <SCORE.INTER>
-14.3595

>  <SCORE.INTER.CONST>
1

>  <SCORE.INTER.POLAR>
0

>  <SCORE.INTER.ROT>
0

>  <SCORE.INTER.SOLV>
8.08593

>  <SCORE.INTER.VDW>
-15.8683

>  <SCORE.INTER.norm>
-1.43595

>  <SCORE.INTRA>
0

>  <SCORE.INTRA.DIHEDRAL>
0

>  <SCORE.INTRA.DIHEDRAL.0>
0

>  <SCORE.INTRA.POLAR>
0

>  <SCORE.INTRA.POLAR.0>
0

>  <SCORE.INTRA.REPUL>
0

>  <SCORE.INTRA.REPUL.0>
0

>  <SCORE.INTRA.SOLV>
0

>  <SCORE.INTRA.SOLV.lig_0>
-23.8949

>  <SCORE.INTRA.VDW>
0

>  <SCORE.INTRA.VDW.0>
0

>  <SCORE.INTRA.norm>
0

>  <SCORE.RESTR>
0

>  <SCORE.RESTR.CAVITY>
0

>  <SCORE.RESTR.norm>
0

>  <SCORE.SYSTEM>
0

>  <SCORE.SYSTEM.CONST>
0

>  <SCORE.SYSTEM.DIHEDRAL>
0

>  <SCORE.SYSTEM.SOLV>
0

>  <SCORE.SYSTEM.norm>
0

>  <SCORE.heavy>
10

>  <SCORE.norm>
-1.43595

>  <RMSD>
0.449

$$$$
ligand
 OpenBabel11021811513D
libRbt.so/2013.1/901 2013/11/27
 10 11  0  0  0  0  0  0  0  0999 V2000
  -30.3378   17.0248  -15.0053 N   0  0  0  0  0  0  0  0  0  0  0  0
  -31.1042   18.1146  -14.8643 C   0  0  0  0  0  0  0  0  0  0  0  0
  -31.4600   19.0142  -15.7806 N   0  0  0  0  0  0  0  0  0  0  0  0
  -30.9344   18.7086  -16.9777 C   0  0  0  0  0  0  0  0  0  0  0  0
  -30.1274   17.6267  -17.2776 C   0  0  0  0  0  0  0  0  0  0  0  0
  -29.8242   16.7446  -16.2209 C   0  0  0  0  0  0  0  0  0  0  0  0
  -29.0578   15.6589  -16.3659 N   0  0  0  0  0  0  0  0  0  0  0  0
  -29.7762   17.6342  -18.6168 N   0  0  0  0  0  0  0  0  0  0  0  0
  -30.3666   18.7062  -19.0910 C   0  0  0  0  0  0  0  0  0  0  0  0
  -31.0822   19.4014  -18.1558 N   0  0  0  0  0  0  0  0  0  0  0  0
  1  2  2  0  0  0  0
  1  6  1  0  0  0  0
  2  3  1  0  0  0  0
  3  4  2  0  0  0  0
  4  5  1  0  0  0  0
  4 10  1  0  0  0  0
  5  6  2  0  0  0  0
  5  8  1  0  0  0  0
  6  7  1  0  0  0  0
  8  9  1  0  0  0  0
  9 10  2  0  0  0  0
M  END
>  <CHROM.1>
-30.40213767,17.85447214,-16.83169849,1.32474685,-0.94615752,1.95218136

>  <Name>
ligand

>  <RI>
0

>  <Rbt.Current_Directory>
/home/itssahil/PROJECTS/Mol_Feturizer/New_Systems/rnas/4TZX

>  <Rbt.Executable>
rbdock ($Id: //depot/dev/client3/rdock/2013.1/src/exe/rbdock.cxx#4 $)

>  <Rbt.Library>
libRbt.so (2013.1, Build901 2013/11/27)

>  <Rbt.Parameter_File>
/export/apps/rDock/src/rDock_2013.1_src/data/scripts/dock_solv.prm

>  <Rbt.Receptor>
prm/pocket_docking_3.prm

>  <SCORE>
-14.3297

>  <SCORE.INTER>
-14.3297

>  <SCORE.INTER.CONST>
1

>  <SCORE.INTER.POLAR>
0

>  <SCORE.INTER.ROT>
0

>  <SCORE.INTER.SOLV>
8.76074

>  <SCORE.INTER.VDW>
-16.0734

>  <SCORE.INTER.norm>
-1.43297

>  <SCORE.INTRA>
0

>  <SCORE.INTRA.DIHEDRAL>
0

>  <SCORE.INTRA.DIHEDRAL.0>
0

>  <SCORE.INTRA.POLAR>
0

>  <SCORE.INTRA.POLAR.0>
0

>  <SCORE.INTRA.REPUL>
0

>  <SCORE.INTRA.REPUL.0>
0

>  <SCORE.INTRA.SOLV>
0

>  <SCORE.INTRA.SOLV.lig_0>
-23.8949

>  <SCORE.INTRA.VDW>
0

>  <SCORE.INTRA.VDW.0>
0

>  <SCORE.INTRA.norm>
0

>  <SCORE.RESTR>
0

>  <SCORE.RESTR.CAVITY>
0

>  <SCORE.RESTR.norm>
0

>  <SCORE.SYSTEM>
0

>  <SCORE.SYSTEM.CONST>
0

>  <SCORE.SYSTEM.DIHEDRAL>
0

>  <SCORE.SYSTEM.SOLV>
0

>  <SCORE.SYSTEM.norm>
0

>  <SCORE.heavy>
10

>  <SCORE.norm>
-1.43297

>  <RMSD>
0.453

$$$$
ligand
 OpenBabel11021811513D
libRbt.so/2013.1/901 2013/11/27
 10 11  0  0  0  0  0  0  0  0999 V2000
  -30.2559   17.1067  -14.9569 N   0  0  0  0  0  0  0  0  0  0  0  0
  -31.0781   18.1576  -14.8377 C   0  0  0  0  0  0  0  0  0  0  0  0
  -31.4903   19.0107  -15.7746 N   0  0  0  0  0  0  0  0  0  0  0  0
  -30.9604   18.6999  -16.9685 C   0  0  0  0  0  0  0  0  0  0  0  0
  -30.0995   17.6545  -17.2472 C   0  0  0  0  0  0  0  0  0  0  0  0
  -29.7394   16.8200  -16.1699 C   0  0  0  0  0  0  0  0  0  0  0  0
  -28.9174   15.7730  -16.2932 N   0  0  0  0  0  0  0  0  0  0  0  0
  -29.7618   17.6430  -18.5898 N   0  0  0  0  0  0  0  0  0  0  0  0
  -30.4132   18.6682  -19.0870 C   0  0  0  0  0  0  0  0  0  0  0  0
  -31.1562   19.3504  -18.1636 N   0  0  0  0  0  0  0  0  0  0  0  0
  1  2  2  0  0  0  0
  1  6  1  0  0  0  0
  2  3  1  0  0  0  0
  3  4  2  0  0  0  0
  4  5  1  0  0  0  0
  4 10  1  0  0  0  0
  5  6  2  0  0  0  0
  5  8  1  0  0  0  0
  6  7  1  0  0  0  0
  8  9  1  0  0  0  0
  9 10  2  0  0  0  0
M  END
>  <CHROM.1>
-30.38179240,17.87983012,-16.80475222,1.27858900,-0.89938907,1.88740048

>  <Name>
ligand

>  <RI>
0

>  <Rbt.Current_Directory>
/home/itssahil/PROJECTS/Mol_Feturizer/New_Systems/rnas/4TZX

>  <Rbt.Executable>
rbdock ($Id: //depot/dev/client3/rdock/2013.1/src/exe/rbdock.cxx#4 $)

>  <Rbt.Library>
libRbt.so (2013.1, Build901 2013/11/27)

>  <Rbt.Parameter_File>
/export/apps/rDock/src/rDock_2013.1_src/data/scripts/dock_solv.prm

>  <Rbt.Receptor>
prm/pocket_docking_6.prm

>  <SCORE>
-14.3593

>  <SCORE.INTER>
-14.3593

>  <SCORE.INTER.CONST>
1

>  <SCORE.INTER.POLAR>
0

>  <SCORE.INTER.ROT>
0

>  <SCORE.INTER.SOLV>
8.09375

>  <SCORE.INTER.VDW>
-15.8708

>  <SCORE.INTER.norm>
-1.43593

>  <SCORE.INTRA>
0

>  <SCORE.INTRA.DIHEDRAL>
0

>  <SCORE.INTRA.DIHEDRAL.0>
0

>  <SCORE.INTRA.POLAR>
0

>  <SCORE.INTRA.POLAR.0>
0

>  <SCORE.INTRA.REPUL>
0

>  <SCORE.INTRA.REPUL.0>
0

>  <SCORE.INTRA.SOLV>
0

>  <SCORE.INTRA.SOLV.lig_0>
-23.8949

>  <SCORE.INTRA.VDW>
0

>  <SCORE.INTRA.VDW.0>
0

>  <SCORE.INTRA.norm>
0

>  <SCORE.RESTR>
0

>  <SCORE.RESTR.CAVITY>
0

>  <SCORE.RESTR.norm>
0

>  <SCORE.SYSTEM>
0

>  <SCORE.SYSTEM.CONST>
0

>  <SCORE.SYSTEM.DIHEDRAL>
0

>  <SCORE.SYSTEM.SOLV>
0

>  <SCORE.SYSTEM.norm>
0

>  <SCORE.heavy>
10

>  <SCORE.norm>
-1.43593

>  <RMSD>
0.453

$$$$
ligand
 OpenBabel11021811513D
libRbt.so/2013.1/901 2013/11/27
 10 11  0  0  0  0  0  0  0  0999 V2000
  -30.2419   17.1195  -14.9463 N   0  0  0  0  0  0  0  0  0  0  0  0
  -31.0605   18.1743  -14.8361 C   0  0  0  0  0  0  0  0  0  0  0  0
  -31.4673   19.0226  -15.7796 N   0  0  0  0  0  0  0  0  0  0  0  0
  -30.9357   18.7018  -16.9702 C   0  0  0  0  0  0  0  0  0  0  0  0
  -30.0781   17.6514  -17.2398 C   0  0  0  0  0  0  0  0  0  0  0  0
  -29.7237   16.8228  -16.1561 C   0  0  0  0  0  0  0  0  0  0  0  0
  -28.9054   15.7719  -16.2704 N   0  0  0  0  0  0  0  0  0  0  0  0
  -29.7373   17.6296  -18.5815 N   0  0  0  0  0  0  0  0  0  0  0  0
  -30.3837   18.6539  -19.0871 C   0  0  0  0  0  0  0  0  0  0  0  0
  -31.1263   19.3450  -18.1701 N   0  0  0  0  0  0  0  0  0  0  0  0
  1  2  2  0  0  0  0
  1  6  1  0  0  0  0
  2  3  1  0  0  0  0
  3  4  2  0  0  0  0
  4  5  1  0  0  0  0
  4 10  1  0  0  0  0
  5  6  2  0  0  0  0
  5  8  1  0  0  0  0
  6  7  1  0  0  0  0
  8  9  1  0  0  0  0
  9 10  2  0  0  0  0
M  END
>  <CHROM.1>
-30.36058535,17.88071653,-16.79955167,1.28407466,-0.90223412,1.88499972

>  <Name>
ligand

>  <RI>
0

>  <Rbt.Current_Directory>
/home/itssahil/PROJECTS/Mol_Feturizer/New_Systems/rnas/4TZX

>  <Rbt.Executable>
rbdock ($Id: //depot/dev/client3/rdock/2013.1/src/exe/rbdock.cxx#4 $)

>  <Rbt.Library>
libRbt.so (2013.1, Build901 2013/11/27)

>  <Rbt.Parameter_File>
/export/apps/rDock/src/rDock_2013.1_src/data/scripts/dock_solv.prm

>  <Rbt.Receptor>
prm/pocket_docking_8.prm

>  <SCORE>
-14.3624

>  <SCORE.INTER>
-14.3624

>  <SCORE.INTER.CONST>
1

>  <SCORE.INTER.POLAR>
0

>  <SCORE.INTER.ROT>
0

>  <SCORE.INTER.SOLV>
8.03683

>  <SCORE.INTER.VDW>
-15.8538

>  <SCORE.INTER.norm>
-1.43624

>  <SCORE.INTRA>
0

>  <SCORE.INTRA.DIHEDRAL>
0

>  <SCORE.INTRA.DIHEDRAL.0>
0

>  <SCORE.INTRA.POLAR>
0

>  <SCORE.INTRA.POLAR.0>
0

>  <SCORE.INTRA.REPUL>
0

>  <SCORE.INTRA.REPUL.0>
0

>  <SCORE.INTRA.SOLV>
0

>  <SCORE.INTRA.SOLV.lig_0>
-23.8949

>  <SCORE.INTRA.VDW>
0

>  <SCORE.INTRA.VDW.0>
0

>  <SCORE.INTRA.norm>
0

>  <SCORE.RESTR>
0

>  <SCORE.RESTR.CAVITY>
0

>  <SCORE.RESTR.norm>
0

>  <SCORE.SYSTEM>
0

>  <SCORE.SYSTEM.CONST>
0

>  <SCORE.SYSTEM.DIHEDRAL>
0

>  <SCORE.SYSTEM.SOLV>
0

>  <SCORE.SYSTEM.norm>
0

>  <SCORE.heavy>
10

>  <SCORE.norm>
-1.43624

>  <RMSD>
0.453

$$$$
ligand
 OpenBabel11021811513D
libRbt.so/2013.1/901 2013/11/27
 10 11  0  0  0  0  0  0  0  0999 V2000
  -30.2386   17.1209  -14.9485 N   0  0  0  0  0  0  0  0  0  0  0  0
  -31.0684   18.1665  -14.8348 C   0  0  0  0  0  0  0  0  0  0  0  0
  -31.4879   19.0107  -15.7766 N   0  0  0  0  0  0  0  0  0  0  0  0
  -30.9570   18.6964  -16.9691 C   0  0  0  0  0  0  0  0  0  0  0  0
  -30.0887   17.6557  -17.2423 C   0  0  0  0  0  0  0  0  0  0  0  0
  -29.7214   16.8305  -16.1602 C   0  0  0  0  0  0  0  0  0  0  0  0
  -28.8919   15.7888  -16.2779 N   0  0  0  0  0  0  0  0  0  0  0  0
  -29.7524   17.6382  -18.5852 N   0  0  0  0  0  0  0  0  0  0  0  0
  -30.4119   18.6555  -19.0880 C   0  0  0  0  0  0  0  0  0  0  0  0
  -31.1589   19.3379  -18.1680 N   0  0  0  0  0  0  0  0  0  0  0  0
  1  2  2  0  0  0  0
  1  6  1  0  0  0  0
  2  3  1  0  0  0  0
  3  4  2  0  0  0  0
  4  5  1  0  0  0  0
  4 10  1  0  0  0  0
  5  6  2  0  0  0  0
  5  8  1  0  0  0  0
  6  7  1  0  0  0  0
  8  9  1  0  0  0  0
  9 10  2  0  0  0  0
M  END
>  <CHROM.1>
-30.37220375,17.88161037,-16.80092491,1.27330478,-0.89274242,1.87706333

>  <Name>
ligand

>  <RI>
0

>  <Rbt.Current_Directory>
/home/itssahil/PROJECTS/Mol_Feturizer/New_Systems/rnas/4TZX

>  <Rbt.Executable>
rbdock ($Id: //depot/dev/client3/rdock/2013.1/src/exe/rbdock.cxx#4 $)

>  <Rbt.Library>
libRbt.so (2013.1, Build901 2013/11/27)

>  <Rbt.Parameter_File>
/export/apps/rDock/src/rDock_2013.1_src/data/scripts/dock_solv.prm

>  <Rbt.Receptor>
prm/blind_docking_60.prm

>  <SCORE>
-14.3591

>  <SCORE.INTER>
-14.3591

>  <SCORE.INTER.CONST>
1

>  <SCORE.INTER.POLAR>
0

>  <SCORE.INTER.ROT>
0

>  <SCORE.INTER.SOLV>
7.97652

>  <SCORE.INTER.VDW>
-15.8316

>  <SCORE.INTER.norm>
-1.43591

>  <SCORE.INTRA>
0

>  <SCORE.INTRA.DIHEDRAL>
0

>  <SCORE.INTRA.DIHEDRAL.0>
0

>  <SCORE.INTRA.POLAR>
0

>  <SCORE.INTRA.POLAR.0>
0

>  <SCORE.INTRA.REPUL>
0

>  <SCORE.INTRA.REPUL.0>
0

>  <SCORE.INTRA.SOLV>
0

>  <SCORE.INTRA.SOLV.lig_0>
-23.8949

>  <SCORE.INTRA.VDW>
0

>  <SCORE.INTRA.VDW.0>
0

>  <SCORE.INTRA.norm>
0

>  <SCORE.RESTR>
0

>  <SCORE.RESTR.CAVITY>
0

>  <SCORE.RESTR.norm>
0

>  <SCORE.SYSTEM>
0

>  <SCORE.SYSTEM.CONST>
0

>  <SCORE.SYSTEM.DIHEDRAL>
0

>  <SCORE.SYSTEM.SOLV>
0

>  <SCORE.SYSTEM.norm>
0

>  <SCORE.heavy>
10

>  <SCORE.norm>
-1.43591

>  <RMSD>
0.455

$$$$
ligand
 OpenBabel11021811513D
libRbt.so/2013.1/901 2013/11/27
 10 11  0  0  0  0  0  0  0  0999 V2000
  -30.2396   17.1126  -14.9542 N   0  0  0  0  0  0  0  0  0  0  0  0
  -31.0749   18.1536  -14.8381 C   0  0  0  0  0  0  0  0  0  0  0  0
  -31.4989   18.9977  -15.7778 N   0  0  0  0  0  0  0  0  0  0  0  0
  -30.9666   18.6888  -16.9712 C   0  0  0  0  0  0  0  0  0  0  0  0
  -30.0930   17.6533  -17.2468 C   0  0  0  0  0  0  0  0  0  0  0  0
  -29.7211   16.8276  -16.1666 C   0  0  0  0  0  0  0  0  0  0  0  0
  -28.8862   15.7906  -16.2868 N   0  0  0  0  0  0  0  0  0  0  0  0
  -29.7569   17.6406  -18.5898 N   0  0  0  0  0  0  0  0  0  0  0  0
  -30.4218   18.6555  -19.0903 C   0  0  0  0  0  0  0  0  0  0  0  0
  -31.1721   19.3320  -18.1686 N   0  0  0  0  0  0  0  0  0  0  0  0
  1  2  2  0  0  0  0
  1  6  1  0  0  0  0
  2  3  1  0  0  0  0
  3  4  2  0  0  0  0
  4  5  1  0  0  0  0
  4 10  1  0  0  0  0
  5  6  2  0  0  0  0
  5  8  1  0  0  0  0
  6  7  1  0  0  0  0
  8  9  1  0  0  0  0
  9 10  2  0  0  0  0
M  END
>  <CHROM.1>
-30.37753895,17.87673549,-16.80491924,1.27050240,-0.88780618,1.87710713

>  <Name>
ligand

>  <RI>
0

>  <Rbt.Current_Directory>
/home/itssahil/PROJECTS/Mol_Feturizer/New_Systems/rnas/4TZX

>  <Rbt.Executable>
rbdock ($Id: //depot/dev/client3/rdock/2013.1/src/exe/rbdock.cxx#4 $)

>  <Rbt.Library>
libRbt.so (2013.1, Build901 2013/11/27)

>  <Rbt.Parameter_File>
/export/apps/rDock/src/rDock_2013.1_src/data/scripts/dock_solv.prm

>  <Rbt.Receptor>
prm/pocket_docking_3.prm

>  <SCORE>
-14.3609

>  <SCORE.INTER>
-14.3609

>  <SCORE.INTER.CONST>
1

>  <SCORE.INTER.POLAR>
0

>  <SCORE.INTER.ROT>
0

>  <SCORE.INTER.SOLV>
7.96813

>  <SCORE.INTER.VDW>
-15.83

>  <SCORE.INTER.norm>
-1.43609

>  <SCORE.INTRA>
0

>  <SCORE.INTRA.DIHEDRAL>
0

>  <SCORE.INTRA.DIHEDRAL.0>
0

>  <SCORE.INTRA.POLAR>
0

>  <SCORE.INTRA.POLAR.0>
0

>  <SCORE.INTRA.REPUL>
0

>  <SCORE.INTRA.REPUL.0>
0

>  <SCORE.INTRA.SOLV>
0

>  <SCORE.INTRA.SOLV.lig_0>
-23.8949

>  <SCORE.INTRA.VDW>
0

>  <SCORE.INTRA.VDW.0>
0

>  <SCORE.INTRA.norm>
0

>  <SCORE.RESTR>
0

>  <SCORE.RESTR.CAVITY>
0

>  <SCORE.RESTR.norm>
0

>  <SCORE.SYSTEM>
0

>  <SCORE.SYSTEM.CONST>
0

>  <SCORE.SYSTEM.DIHEDRAL>
0

>  <SCORE.SYSTEM.SOLV>
0

>  <SCORE.SYSTEM.norm>
0

>  <SCORE.heavy>
10

>  <SCORE.norm>
-1.43609

>  <RMSD>
0.455

$$$$
ligand
 OpenBabel11021811513D
libRbt.so/2013.1/901 2013/11/27
 10 11  0  0  0  0  0  0  0  0999 V2000
  -30.3320   17.0770  -14.9746 N   0  0  0  0  0  0  0  0  0  0  0  0
  -31.1051   18.1633  -14.8436 C   0  0  0  0  0  0  0  0  0  0  0  0
  -31.4672   19.0517  -15.7684 N   0  0  0  0  0  0  0  0  0  0  0  0
  -30.9405   18.7377  -16.9629 C   0  0  0  0  0  0  0  0  0  0  0  0
  -30.1271   17.6580  -17.2529 C   0  0  0  0  0  0  0  0  0  0  0  0
  -29.8176   16.7881  -16.1879 C   0  0  0  0  0  0  0  0  0  0  0  0
  -29.0446   15.7058  -16.3229 N   0  0  0  0  0  0  0  0  0  0  0  0
  -29.7769   17.6546  -18.5923 N   0  0  0  0  0  0  0  0  0  0  0  0
  -30.3742   18.7182  -19.0765 C   0  0  0  0  0  0  0  0  0  0  0  0
  -31.0935   19.4181  -18.1476 N   0  0  0  0  0  0  0  0  0  0  0  0
  1  2  2  0  0  0  0
  1  6  1  0  0  0  0
  2  3  1  0  0  0  0
  3  4  2  0  0  0  0
  4  5  1  0  0  0  0
  4 10  1  0  0  0  0
  5  6  2  0  0  0  0
  5  8  1  0  0  0  0
  6  7  1  0  0  0  0
  8  9  1  0  0  0  0
  9 10  2  0  0  0  0
M  END
>  <CHROM.1>
-30.40287867,17.88838289,-16.80898643,1.31967722,-0.94062941,1.93831551

>  <Name>
ligand

>  <RI>
0

>  <Rbt.Current_Directory>
/home/itssahil/PROJECTS/Mol_Feturizer/New_Systems/rnas/4TZX

>  <Rbt.Executable>
rbdock ($Id: //depot/dev/client3/rdock/2013.1/src/exe/rbdock.cxx#4 $)

>  <Rbt.Library>
libRbt.so (2013.1, Build901 2013/11/27)

>  <Rbt.Parameter_File>
/export/apps/rDock/src/rDock_2013.1_src/data/scripts/dock_solv.prm

>  <Rbt.Receptor>
prm/pocket_docking_7.prm

>  <SCORE>
-14.3317

>  <SCORE.INTER>
-14.3317

>  <SCORE.INTER.CONST>
1

>  <SCORE.INTER.POLAR>
0

>  <SCORE.INTER.ROT>
0

>  <SCORE.INTER.SOLV>
8.57468

>  <SCORE.INTER.VDW>
-16.0127

>  <SCORE.INTER.norm>
-1.43317

>  <SCORE.INTRA>
0

>  <SCORE.INTRA.DIHEDRAL>
0

>  <SCORE.INTRA.DIHEDRAL.0>
0

>  <SCORE.INTRA.POLAR>
0

>  <SCORE.INTRA.POLAR.0>
0

>  <SCORE.INTRA.REPUL>
0

>  <SCORE.INTRA.REPUL.0>
0

>  <SCORE.INTRA.SOLV>
0

>  <SCORE.INTRA.SOLV.lig_0>
-23.8949

>  <SCORE.INTRA.VDW>
0

>  <SCORE.INTRA.VDW.0>
0

>  <SCORE.INTRA.norm>
0

>  <SCORE.RESTR>
0

>  <SCORE.RESTR.CAVITY>
0

>  <SCORE.RESTR.norm>
0

>  <SCORE.SYSTEM>
0

>  <SCORE.SYSTEM.CONST>
0

>  <SCORE.SYSTEM.DIHEDRAL>
0

>  <SCORE.SYSTEM.SOLV>
0

>  <SCORE.SYSTEM.norm>
0

>  <SCORE.heavy>
10

>  <SCORE.norm>
-1.43317

>  <RMSD>
0.455

$$$$
ligand
 OpenBabel11021811513D
libRbt.so/2013.1/901 2013/11/27
 10 11  0  0  0  0  0  0  0  0999 V2000
  -30.2395   17.1138  -14.9542 N   0  0  0  0  0  0  0  0  0  0  0  0
  -31.0756   18.1540  -14.8374 C   0  0  0  0  0  0  0  0  0  0  0  0
  -31.5008   18.9980  -15.7767 N   0  0  0  0  0  0  0  0  0  0  0  0
  -30.9688   18.6899  -16.9704 C   0  0  0  0  0  0  0  0  0  0  0  0
  -30.0945   17.6552  -17.2468 C   0  0  0  0  0  0  0  0  0  0  0  0
  -29.7214   16.8295  -16.1670 C   0  0  0  0  0  0  0  0  0  0  0  0
  -28.8856   15.7932  -16.2879 N   0  0  0  0  0  0  0  0  0  0  0  0
  -29.7590   17.6431  -18.5899 N   0  0  0  0  0  0  0  0  0  0  0  0
  -30.4250   18.6576  -19.0898 C   0  0  0  0  0  0  0  0  0  0  0  0
  -31.1755   19.3332  -18.1676 N   0  0  0  0  0  0  0  0  0  0  0  0
  1  2  2  0  0  0  0
  1  6  1  0  0  0  0
  2  3  1  0  0  0  0
  3  4  2  0  0  0  0
  4  5  1  0  0  0  0
  4 10  1  0  0  0  0
  5  6  2  0  0  0  0
  5  8  1  0  0  0  0
  6  7  1  0  0  0  0
  8  9  1  0  0  0  0
  9 10  2  0  0  0  0
M  END
>  <CHROM.1>
-30.37902144,17.87827594,-16.80468774,1.26936604,-0.88716248,1.87650540

>  <Name>
ligand

>  <RI>
0

>  <Rbt.Current_Directory>
/home/itssahil/PROJECTS/Mol_Feturizer/New_Systems/rnas/4TZX

>  <Rbt.Executable>
rbdock ($Id: //depot/dev/client3/rdock/2013.1/src/exe/rbdock.cxx#4 $)

>  <Rbt.Library>
libRbt.so (2013.1, Build901 2013/11/27)

>  <Rbt.Parameter_File>
/export/apps/rDock/src/rDock_2013.1_src/data/scripts/dock_solv.prm

>  <Rbt.Receptor>
prm/pocket_docking_7.prm

>  <SCORE>
-14.3585

>  <SCORE.INTER>
-14.3585

>  <SCORE.INTER.CONST>
1

>  <SCORE.INTER.POLAR>
0

>  <SCORE.INTER.ROT>
0

>  <SCORE.INTER.SOLV>
7.96331

>  <SCORE.INTER.VDW>
-15.8268

>  <SCORE.INTER.norm>
-1.43585

>  <SCORE.INTRA>
0

>  <SCORE.INTRA.DIHEDRAL>
0

>  <SCORE.INTRA.DIHEDRAL.0>
0

>  <SCORE.INTRA.POLAR>
0

>  <SCORE.INTRA.POLAR.0>
0

>  <SCORE.INTRA.REPUL>
0

>  <SCORE.INTRA.REPUL.0>
0

>  <SCORE.INTRA.SOLV>
0

>  <SCORE.INTRA.SOLV.lig_0>
-23.8949

>  <SCORE.INTRA.VDW>
0

>  <SCORE.INTRA.VDW.0>
0

>  <SCORE.INTRA.norm>
0

>  <SCORE.RESTR>
0

>  <SCORE.RESTR.CAVITY>
0

>  <SCORE.RESTR.norm>
0

>  <SCORE.SYSTEM>
0

>  <SCORE.SYSTEM.CONST>
0

>  <SCORE.SYSTEM.DIHEDRAL>
0

>  <SCORE.SYSTEM.SOLV>
0

>  <SCORE.SYSTEM.norm>
0

>  <SCORE.heavy>
10

>  <SCORE.norm>
-1.43585

>  <RMSD>
0.456

$$$$
ligand
 OpenBabel11021811513D
libRbt.so/2013.1/901 2013/11/27
 10 11  0  0  0  0  0  0  0  0999 V2000
  -30.3582   16.9860  -15.0296 N   0  0  0  0  0  0  0  0  0  0  0  0
  -31.1110   18.0834  -14.8757 C   0  0  0  0  0  0  0  0  0  0  0  0
  -31.4596   18.9955  -15.7824 N   0  0  0  0  0  0  0  0  0  0  0  0
  -30.9421   18.6946  -16.9843 C   0  0  0  0  0  0  0  0  0  0  0  0
  -30.1492   17.6061  -17.2972 C   0  0  0  0  0  0  0  0  0  0  0  0
  -29.8525   16.7108  -16.2497 C   0  0  0  0  0  0  0  0  0  0  0  0
  -29.0996   15.6175  -16.4076 N   0  0  0  0  0  0  0  0  0  0  0  0
  -29.8030   17.6217  -18.6375 N   0  0  0  0  0  0  0  0  0  0  0  0
  -30.3824   18.7049  -19.0997 C   0  0  0  0  0  0  0  0  0  0  0  0
  -31.0862   19.3999  -18.1555 N   0  0  0  0  0  0  0  0  0  0  0  0
  1  2  2  0  0  0  0
  1  6  1  0  0  0  0
  2  3  1  0  0  0  0
  3  4  2  0  0  0  0
  4  5  1  0  0  0  0
  4 10  1  0  0  0  0
  5  6  2  0  0  0  0
  5  8  1  0  0  0  0
  6  7  1  0  0  0  0
  8  9  1  0  0  0  0
  9 10  2  0  0  0  0
M  END
>  <CHROM.1>
-30.41953525,17.83299152,-16.84813022,1.32635521,-0.95855912,1.96261258

>  <Name>
ligand

>  <RI>
0

>  <Rbt.Current_Directory>
/home/itssahil/PROJECTS/Mol_Feturizer/New_Systems/rnas/4TZX

>  <Rbt.Executable>
rbdock ($Id: //depot/dev/client3/rdock/2013.1/src/exe/rbdock.cxx#4 $)

>  <Rbt.Library>
libRbt.so (2013.1, Build901 2013/11/27)

>  <Rbt.Parameter_File>
/export/apps/rDock/src/rDock_2013.1_src/data/scripts/dock_solv.prm

>  <Rbt.Receptor>
prm/pocket_docking_8.prm

>  <SCORE>
-14.265

>  <SCORE.INTER>
-14.265

>  <SCORE.INTER.CONST>
1

>  <SCORE.INTER.POLAR>
0

>  <SCORE.INTER.ROT>
0

>  <SCORE.INTER.SOLV>
9.05296

>  <SCORE.INTER.VDW>
-16.1277

>  <SCORE.INTER.norm>
-1.4265

>  <SCORE.INTRA>
0

>  <SCORE.INTRA.DIHEDRAL>
0

>  <SCORE.INTRA.DIHEDRAL.0>
0

>  <SCORE.INTRA.POLAR>
0

>  <SCORE.INTRA.POLAR.0>
0

>  <SCORE.INTRA.REPUL>
0

>  <SCORE.INTRA.REPUL.0>
0

>  <SCORE.INTRA.SOLV>
0

>  <SCORE.INTRA.SOLV.lig_0>
-23.8949

>  <SCORE.INTRA.VDW>
0

>  <SCORE.INTRA.VDW.0>
0

>  <SCORE.INTRA.norm>
0

>  <SCORE.RESTR>
0

>  <SCORE.RESTR.CAVITY>
0

>  <SCORE.RESTR.norm>
0

>  <SCORE.SYSTEM>
0

>  <SCORE.SYSTEM.CONST>
0

>  <SCORE.SYSTEM.DIHEDRAL>
0

>  <SCORE.SYSTEM.SOLV>
0

>  <SCORE.SYSTEM.norm>
0

>  <SCORE.heavy>
10

>  <SCORE.norm>
-1.4265

>  <RMSD>
0.456

$$$$
ligand
 OpenBabel11021811513D
libRbt.so/2013.1/901 2013/11/27
 10 11  0  0  0  0  0  0  0  0999 V2000
  -30.3158   17.0201  -15.0121 N   0  0  0  0  0  0  0  0  0  0  0  0
  -31.0790   18.1114  -14.8657 C   0  0  0  0  0  0  0  0  0  0  0  0
  -31.4408   19.0108  -15.7799 N   0  0  0  0  0  0  0  0  0  0  0  0
  -30.9257   18.7031  -16.9810 C   0  0  0  0  0  0  0  0  0  0  0  0
  -30.1232   17.6195  -17.2867 C   0  0  0  0  0  0  0  0  0  0  0  0
  -29.8128   16.7378  -16.2317 C   0  0  0  0  0  0  0  0  0  0  0  0
  -29.0497   15.6506  -16.3821 N   0  0  0  0  0  0  0  0  0  0  0  0
  -29.7832   17.6252  -18.6287 N   0  0  0  0  0  0  0  0  0  0  0  0
  -30.3755   18.6978  -19.0990 C   0  0  0  0  0  0  0  0  0  0  0  0
  -31.0821   19.3952  -18.1585 N   0  0  0  0  0  0  0  0  0  0  0  0
  1  2  2  0  0  0  0
  1  6  1  0  0  0  0
  2  3  1  0  0  0  0
  3  4  2  0  0  0  0
  4  5  1  0  0  0  0
  4 10  1  0  0  0  0
  5  6  2  0  0  0  0
  5  8  1  0  0  0  0
  6  7  1  0  0  0  0
  8  9  1  0  0  0  0
  9 10  2  0  0  0  0
M  END
>  <CHROM.1>
-30.39383806,17.84819355,-16.83866967,1.31261295,-0.95089746,1.94139599

>  <Name>
ligand

>  <RI>
0

>  <Rbt.Current_Directory>
/home/itssahil/PROJECTS/Mol_Feturizer/New_Systems/rnas/4TZX

>  <Rbt.Executable>
rbdock ($Id: //depot/dev/client3/rdock/2013.1/src/exe/rbdock.cxx#4 $)

>  <Rbt.Library>
libRbt.so (2013.1, Build901 2013/11/27)

>  <Rbt.Parameter_File>
/export/apps/rDock/src/rDock_2013.1_src/data/scripts/dock_solv.prm

>  <Rbt.Receptor>
prm/pocket_docking_7.prm

>  <SCORE>
-14.3311

>  <SCORE.INTER>
-14.3311

>  <SCORE.INTER.CONST>
1

>  <SCORE.INTER.POLAR>
0

>  <SCORE.INTER.ROT>
0

>  <SCORE.INTER.SOLV>
8.7778

>  <SCORE.INTER.VDW>
-16.08

>  <SCORE.INTER.norm>
-1.43311

>  <SCORE.INTRA>
0

>  <SCORE.INTRA.DIHEDRAL>
0

>  <SCORE.INTRA.DIHEDRAL.0>
0

>  <SCORE.INTRA.POLAR>
0

>  <SCORE.INTRA.POLAR.0>
0

>  <SCORE.INTRA.REPUL>
0

>  <SCORE.INTRA.REPUL.0>
0

>  <SCORE.INTRA.SOLV>
0

>  <SCORE.INTRA.SOLV.lig_0>
-23.8949

>  <SCORE.INTRA.VDW>
0

>  <SCORE.INTRA.VDW.0>
0

>  <SCORE.INTRA.norm>
0

>  <SCORE.RESTR>
0

>  <SCORE.RESTR.CAVITY>
0

>  <SCORE.RESTR.norm>
0

>  <SCORE.SYSTEM>
0

>  <SCORE.SYSTEM.CONST>
0

>  <SCORE.SYSTEM.DIHEDRAL>
0

>  <SCORE.SYSTEM.SOLV>
0

>  <SCORE.SYSTEM.norm>
0

>  <SCORE.heavy>
10

>  <SCORE.norm>
-1.43311

>  <RMSD>
0.457

$$$$
ligand
 OpenBabel11021811513D
libRbt.so/2013.1/901 2013/11/27
 10 11  0  0  0  0  0  0  0  0999 V2000
  -30.4265   16.3564  -14.9200 N   0  0  0  0  0  0  0  0  0  0  0  0
  -29.7999   15.6305  -15.8556 C   0  0  0  0  0  0  0  0  0  0  0  0
  -29.5367   15.9439  -17.1237 N   0  0  0  0  0  0  0  0  0  0  0  0
  -29.9976   17.1704  -17.4169 C   0  0  0  0  0  0  0  0  0  0  0  0
  -30.6622   18.0326  -16.5646 C   0  0  0  0  0  0  0  0  0  0  0  0
  -30.8781   17.5853  -15.2455 C   0  0  0  0  0  0  0  0  0  0  0  0
  -31.5051   18.3126  -14.3154 N   0  0  0  0  0  0  0  0  0  0  0  0
  -30.9849   19.2117  -17.2146 N   0  0  0  0  0  0  0  0  0  0  0  0
  -30.5185   19.0392  -18.4293 C   0  0  0  0  0  0  0  0  0  0  0  0
  -29.9107   17.8292  -18.6204 N   0  0  0  0  0  0  0  0  0  0  0  0
  1  2  2  0  0  0  0
  1  6  1  0  0  0  0
  2  3  1  0  0  0  0
  3  4  2  0  0  0  0
  4  5  1  0  0  0  0
  4 10  1  0  0  0  0
  5  6  2  0  0  0  0
  5  8  1  0  0  0  0
  6  7  1  0  0  0  0
  8  9  1  0  0  0  0
  9 10  2  0  0  0  0
M  END
>  <CHROM.1>
-30.42591056,17.51269818,-16.56048190,-1.76269312,1.06511617,-0.95574186

>  <Name>
ligand

>  <RI>
0

>  <Rbt.Current_Directory>
/home/itssahil/PROJECTS/Mol_Feturizer/New_Systems/rnas/4TZX

>  <Rbt.Executable>
rbdock ($Id: //depot/dev/client3/rdock/2013.1/src/exe/rbdock.cxx#4 $)

>  <Rbt.Library>
libRbt.so (2013.1, Build901 2013/11/27)

>  <Rbt.Parameter_File>
/export/apps/rDock/src/rDock_2013.1_src/data/scripts/dock_solv.prm

>  <Rbt.Receptor>
prm/blind_docking_60.prm

>  <SCORE>
-13.4627

>  <SCORE.INTER>
-13.4627

>  <SCORE.INTER.CONST>
1

>  <SCORE.INTER.POLAR>
0

>  <SCORE.INTER.ROT>
0

>  <SCORE.INTER.SOLV>
11.7146

>  <SCORE.INTER.VDW>
-16.48

>  <SCORE.INTER.norm>
-1.34627

>  <SCORE.INTRA>
0

>  <SCORE.INTRA.DIHEDRAL>
0

>  <SCORE.INTRA.DIHEDRAL.0>
0

>  <SCORE.INTRA.POLAR>
0

>  <SCORE.INTRA.POLAR.0>
0

>  <SCORE.INTRA.REPUL>
0

>  <SCORE.INTRA.REPUL.0>
0

>  <SCORE.INTRA.SOLV>
0

>  <SCORE.INTRA.SOLV.lig_0>
-23.8949

>  <SCORE.INTRA.VDW>
0

>  <SCORE.INTRA.VDW.0>
0

>  <SCORE.INTRA.norm>
0

>  <SCORE.RESTR>
0

>  <SCORE.RESTR.CAVITY>
0

>  <SCORE.RESTR.norm>
0

>  <SCORE.SYSTEM>
0

>  <SCORE.SYSTEM.CONST>
0

>  <SCORE.SYSTEM.DIHEDRAL>
0

>  <SCORE.SYSTEM.SOLV>
0

>  <SCORE.SYSTEM.norm>
0

>  <SCORE.heavy>
10

>  <SCORE.norm>
-1.34627

>  <RMSD>
2.394

$$$$
ligand
 OpenBabel11021811513D
libRbt.so/2013.1/901 2013/11/27
 10 11  0  0  0  0  0  0  0  0999 V2000
  -30.4426   16.3752  -14.9136 N   0  0  0  0  0  0  0  0  0  0  0  0
  -29.8070   15.6425  -15.8377 C   0  0  0  0  0  0  0  0  0  0  0  0
  -29.5387   15.9432  -17.1078 N   0  0  0  0  0  0  0  0  0  0  0  0
  -30.0048   17.1638  -17.4172 C   0  0  0  0  0  0  0  0  0  0  0  0
  -30.6787   18.0317  -16.5781 C   0  0  0  0  0  0  0  0  0  0  0  0
  -30.8993   17.5979  -15.2552 C   0  0  0  0  0  0  0  0  0  0  0  0
  -31.5352   18.3319  -14.3367 N   0  0  0  0  0  0  0  0  0  0  0  0
  -31.0044   19.2016  -17.2429 N   0  0  0  0  0  0  0  0  0  0  0  0
  -30.5305   19.0182  -18.4531 C   0  0  0  0  0  0  0  0  0  0  0  0
  -29.9151   17.8096  -18.6274 N   0  0  0  0  0  0  0  0  0  0  0  0
  1  2  2  0  0  0  0
  1  6  1  0  0  0  0
  2  3  1  0  0  0  0
  3  4  2  0  0  0  0
  4  5  1  0  0  0  0
  4 10  1  0  0  0  0
  5  6  2  0  0  0  0
  5  8  1  0  0  0  0
  6  7  1  0  0  0  0
  8  9  1  0  0  0  0
  9 10  2  0  0  0  0
M  END
>  <CHROM.1>
-30.43956246,17.51313733,-16.56689271,-1.76513901,1.05747958,-0.96475373

>  <Name>
ligand

>  <RI>
0

>  <Rbt.Current_Directory>
/home/itssahil/PROJECTS/Mol_Feturizer/New_Systems/rnas/4TZX

>  <Rbt.Executable>
rbdock ($Id: //depot/dev/client3/rdock/2013.1/src/exe/rbdock.cxx#4 $)

>  <Rbt.Library>
libRbt.so (2013.1, Build901 2013/11/27)

>  <Rbt.Parameter_File>
/export/apps/rDock/src/rDock_2013.1_src/data/scripts/dock_solv.prm

>  <Rbt.Receptor>
prm/blind_docking_100.prm

>  <SCORE>
-13.4588

>  <SCORE.INTER>
-13.4588

>  <SCORE.INTER.CONST>
1

>  <SCORE.INTER.POLAR>
0

>  <SCORE.INTER.ROT>
0

>  <SCORE.INTER.SOLV>
11.7419

>  <SCORE.INTER.VDW>
-16.4865

>  <SCORE.INTER.norm>
-1.34588

>  <SCORE.INTRA>
0

>  <SCORE.INTRA.DIHEDRAL>
0

>  <SCORE.INTRA.DIHEDRAL.0>
0

>  <SCORE.INTRA.POLAR>
0

>  <SCORE.INTRA.POLAR.0>
0

>  <SCORE.INTRA.REPUL>
0

>  <SCORE.INTRA.REPUL.0>
0

>  <SCORE.INTRA.SOLV>
0

>  <SCORE.INTRA.SOLV.lig_0>
-23.8949

>  <SCORE.INTRA.VDW>
0

>  <SCORE.INTRA.VDW.0>
0

>  <SCORE.INTRA.norm>
0

>  <SCORE.RESTR>
0

>  <SCORE.RESTR.CAVITY>
0

>  <SCORE.RESTR.norm>
0

>  <SCORE.SYSTEM>
0

>  <SCORE.SYSTEM.CONST>
0

>  <SCORE.SYSTEM.DIHEDRAL>
0

>  <SCORE.SYSTEM.SOLV>
0

>  <SCORE.SYSTEM.norm>
0

>  <SCORE.heavy>
10

>  <SCORE.norm>
-1.34588

>  <RMSD>
2.395

$$$$
ligand
 OpenBabel11021811513D
libRbt.so/2013.1/901 2013/11/27
 10 11  0  0  0  0  0  0  0  0999 V2000
  -30.4579   16.3719  -14.9163 N   0  0  0  0  0  0  0  0  0  0  0  0
  -29.8200   15.6424  -15.8413 C   0  0  0  0  0  0  0  0  0  0  0  0
  -29.5437   15.9497  -17.1081 N   0  0  0  0  0  0  0  0  0  0  0  0
  -30.0037   17.1738  -17.4126 C   0  0  0  0  0  0  0  0  0  0  0  0
  -30.6790   18.0392  -16.5720 C   0  0  0  0  0  0  0  0  0  0  0  0
  -30.9083   17.5982  -15.2530 C   0  0  0  0  0  0  0  0  0  0  0  0
  -31.5466   18.3292  -14.3335 N   0  0  0  0  0  0  0  0  0  0  0  0
  -30.9968   19.2142  -17.2316 N   0  0  0  0  0  0  0  0  0  0  0  0
  -30.5171   19.0364  -18.4402 C   0  0  0  0  0  0  0  0  0  0  0  0
  -29.9050   17.8265  -18.6185 N   0  0  0  0  0  0  0  0  0  0  0  0
  1  2  2  0  0  0  0
  1  6  1  0  0  0  0
  2  3  1  0  0  0  0
  3  4  2  0  0  0  0
  4  5  1  0  0  0  0
  4 10  1  0  0  0  0
  5  6  2  0  0  0  0
  5  8  1  0  0  0  0
  6  7  1  0  0  0  0
  8  9  1  0  0  0  0
  9 10  2  0  0  0  0
M  END
>  <CHROM.1>
-30.44179884,17.51970177,-16.56265637,-1.77844581,1.05734014,-0.94716431

>  <Name>
ligand

>  <RI>
0

>  <Rbt.Current_Directory>
/home/itssahil/PROJECTS/Mol_Feturizer/New_Systems/rnas/4TZX

>  <Rbt.Executable>
rbdock ($Id: //depot/dev/client3/rdock/2013.1/src/exe/rbdock.cxx#4 $)

>  <Rbt.Library>
libRbt.so (2013.1, Build901 2013/11/27)

>  <Rbt.Parameter_File>
/export/apps/rDock/src/rDock_2013.1_src/data/scripts/dock_solv.prm

>  <Rbt.Receptor>
prm/blind_docking_100.prm

>  <SCORE>
-13.49

>  <SCORE.INTER>
-13.49

>  <SCORE.INTER.CONST>
1

>  <SCORE.INTER.POLAR>
0

>  <SCORE.INTER.ROT>
0

>  <SCORE.INTER.SOLV>
11.7719

>  <SCORE.INTER.VDW>
-16.5173

>  <SCORE.INTER.norm>
-1.349

>  <SCORE.INTRA>
0

>  <SCORE.INTRA.DIHEDRAL>
0

>  <SCORE.INTRA.DIHEDRAL.0>
0

>  <SCORE.INTRA.POLAR>
0

>  <SCORE.INTRA.POLAR.0>
0

>  <SCORE.INTRA.REPUL>
0

>  <SCORE.INTRA.REPUL.0>
0

>  <SCORE.INTRA.SOLV>
0

>  <SCORE.INTRA.SOLV.lig_0>
-23.8949

>  <SCORE.INTRA.VDW>
0

>  <SCORE.INTRA.VDW.0>
0

>  <SCORE.INTRA.norm>
0

>  <SCORE.RESTR>
0

>  <SCORE.RESTR.CAVITY>
0

>  <SCORE.RESTR.norm>
0

>  <SCORE.SYSTEM>
0

>  <SCORE.SYSTEM.CONST>
0

>  <SCORE.SYSTEM.DIHEDRAL>
0

>  <SCORE.SYSTEM.SOLV>
0

>  <SCORE.SYSTEM.norm>
0

>  <SCORE.heavy>
10

>  <SCORE.norm>
-1.349

>  <RMSD>
2.395

$$$$
ligand
 OpenBabel11021811513D
libRbt.so/2013.1/901 2013/11/27
 10 11  0  0  0  0  0  0  0  0999 V2000
  -30.4764   16.3839  -14.9025 N   0  0  0  0  0  0  0  0  0  0  0  0
  -29.8381   15.6443  -15.8192 C   0  0  0  0  0  0  0  0  0  0  0  0
  -29.5595   15.9386  -17.0886 N   0  0  0  0  0  0  0  0  0  0  0  0
  -30.0173   17.1603  -17.4060 C   0  0  0  0  0  0  0  0  0  0  0  0
  -30.6926   18.0349  -16.5750 C   0  0  0  0  0  0  0  0  0  0  0  0
  -30.9245   17.6075  -15.2520 C   0  0  0  0  0  0  0  0  0  0  0  0
  -31.5630   18.3484  -14.3408 N   0  0  0  0  0  0  0  0  0  0  0  0
  -31.0077   19.2038  -17.2467 N   0  0  0  0  0  0  0  0  0  0  0  0
  -30.5264   19.0132  -18.4528 C   0  0  0  0  0  0  0  0  0  0  0  0
  -29.9159   17.8008  -18.6181 N   0  0  0  0  0  0  0  0  0  0  0  0
  1  2  2  0  0  0  0
  1  6  1  0  0  0  0
  2  3  1  0  0  0  0
  3  4  2  0  0  0  0
  4  5  1  0  0  0  0
  4 10  1  0  0  0  0
  5  6  2  0  0  0  0
  5  8  1  0  0  0  0
  6  7  1  0  0  0  0
  8  9  1  0  0  0  0
  9 10  2  0  0  0  0
M  END
>  <CHROM.1>
-30.45614598,17.51523949,-16.56012883,-1.78265496,1.05765393,-0.95344816

>  <Name>
ligand

>  <RI>
0

>  <Rbt.Current_Directory>
/home/itssahil/PROJECTS/Mol_Feturizer/New_Systems/rnas/4TZX

>  <Rbt.Executable>
rbdock ($Id: //depot/dev/client3/rdock/2013.1/src/exe/rbdock.cxx#4 $)

>  <Rbt.Library>
libRbt.so (2013.1, Build901 2013/11/27)

>  <Rbt.Parameter_File>
/export/apps/rDock/src/rDock_2013.1_src/data/scripts/dock_solv.prm

>  <Rbt.Receptor>
prm/blind_docking_60.prm

>  <SCORE>
-13.4669

>  <SCORE.INTER>
-13.4669

>  <SCORE.INTER.CONST>
1

>  <SCORE.INTER.POLAR>
0

>  <SCORE.INTER.ROT>
0

>  <SCORE.INTER.SOLV>
11.8224

>  <SCORE.INTER.VDW>
-16.5187

>  <SCORE.INTER.norm>
-1.34669

>  <SCORE.INTRA>
0

>  <SCORE.INTRA.DIHEDRAL>
0

>  <SCORE.INTRA.DIHEDRAL.0>
0

>  <SCORE.INTRA.POLAR>
0

>  <SCORE.INTRA.POLAR.0>
0

>  <SCORE.INTRA.REPUL>
0

>  <SCORE.INTRA.REPUL.0>
0

>  <SCORE.INTRA.SOLV>
0

>  <SCORE.INTRA.SOLV.lig_0>
-23.8949

>  <SCORE.INTRA.VDW>
0

>  <SCORE.INTRA.VDW.0>
0

>  <SCORE.INTRA.norm>
0

>  <SCORE.RESTR>
0

>  <SCORE.RESTR.CAVITY>
0

>  <SCORE.RESTR.norm>
0

>  <SCORE.SYSTEM>
0

>  <SCORE.SYSTEM.CONST>
0

>  <SCORE.SYSTEM.DIHEDRAL>
0

>  <SCORE.SYSTEM.SOLV>
0

>  <SCORE.SYSTEM.norm>
0

>  <SCORE.heavy>
10

>  <SCORE.norm>
-1.34669

>  <RMSD>
2.395

$$$$
ligand
 OpenBabel11021811513D
libRbt.so/2013.1/901 2013/11/27
 10 11  0  0  0  0  0  0  0  0999 V2000
  -30.4618   16.3762  -14.9111 N   0  0  0  0  0  0  0  0  0  0  0  0
  -29.8209   15.6425  -15.8308 C   0  0  0  0  0  0  0  0  0  0  0  0
  -29.5452   15.9421  -17.0995 N   0  0  0  0  0  0  0  0  0  0  0  0
  -30.0093   17.1625  -17.4127 C   0  0  0  0  0  0  0  0  0  0  0  0
  -30.6880   18.0312  -16.5783 C   0  0  0  0  0  0  0  0  0  0  0  0
  -30.9163   17.5986  -15.2564 C   0  0  0  0  0  0  0  0  0  0  0  0
  -31.5574   18.3336  -14.3422 N   0  0  0  0  0  0  0  0  0  0  0  0
  -31.0096   19.2006  -17.2461 N   0  0  0  0  0  0  0  0  0  0  0  0
  -30.5288   19.0161  -18.4533 C   0  0  0  0  0  0  0  0  0  0  0  0
  -29.9125   17.8072  -18.6230 N   0  0  0  0  0  0  0  0  0  0  0  0
  1  2  2  0  0  0  0
  1  6  1  0  0  0  0
  2  3  1  0  0  0  0
  3  4  2  0  0  0  0
  4  5  1  0  0  0  0
  4 10  1  0  0  0  0
  5  6  2  0  0  0  0
  5  8  1  0  0  0  0
  6  7  1  0  0  0  0
  8  9  1  0  0  0  0
  9 10  2  0  0  0  0
M  END
>  <CHROM.1>
-30.44898856,17.51267871,-16.56527314,-1.77498110,1.05429178,-0.95707503

>  <Name>
ligand

>  <RI>
0

>  <Rbt.Current_Directory>
/home/itssahil/PROJECTS/Mol_Feturizer/New_Systems/rnas/4TZX

>  <Rbt.Executable>
rbdock ($Id: //depot/dev/client3/rdock/2013.1/src/exe/rbdock.cxx#4 $)

>  <Rbt.Library>
libRbt.so (2013.1, Build901 2013/11/27)

>  <Rbt.Parameter_File>
/export/apps/rDock/src/rDock_2013.1_src/data/scripts/dock_solv.prm

>  <Rbt.Receptor>
prm/blind_docking_80.prm

>  <SCORE>
-13.4665

>  <SCORE.INTER>
-13.4665

>  <SCORE.INTER.CONST>
1

>  <SCORE.INTER.POLAR>
0

>  <SCORE.INTER.ROT>
0

>  <SCORE.INTER.SOLV>
11.7729

>  <SCORE.INTER.VDW>
-16.502

>  <SCORE.INTER.norm>
-1.34665

>  <SCORE.INTRA>
0

>  <SCORE.INTRA.DIHEDRAL>
0

>  <SCORE.INTRA.DIHEDRAL.0>
0

>  <SCORE.INTRA.POLAR>
0

>  <SCORE.INTRA.POLAR.0>
0

>  <SCORE.INTRA.REPUL>
0

>  <SCORE.INTRA.REPUL.0>
0

>  <SCORE.INTRA.SOLV>
0

>  <SCORE.INTRA.SOLV.lig_0>
-23.8949

>  <SCORE.INTRA.VDW>
0

>  <SCORE.INTRA.VDW.0>
0

>  <SCORE.INTRA.norm>
0

>  <SCORE.RESTR>
0

>  <SCORE.RESTR.CAVITY>
0

>  <SCORE.RESTR.norm>
0

>  <SCORE.SYSTEM>
0

>  <SCORE.SYSTEM.CONST>
0

>  <SCORE.SYSTEM.DIHEDRAL>
0

>  <SCORE.SYSTEM.SOLV>
0

>  <SCORE.SYSTEM.norm>
0

>  <SCORE.heavy>
10

>  <SCORE.norm>
-1.34665

>  <RMSD>
2.395

$$$$
ligand
 OpenBabel11021811513D
libRbt.so/2013.1/901 2013/11/27
 10 11  0  0  0  0  0  0  0  0999 V2000
  -30.4602   16.3561  -14.9108 N   0  0  0  0  0  0  0  0  0  0  0  0
  -29.8137   15.6362  -15.8374 C   0  0  0  0  0  0  0  0  0  0  0  0
  -29.5416   15.9493  -17.1036 N   0  0  0  0  0  0  0  0  0  0  0  0
  -30.0166   17.1684  -17.4056 C   0  0  0  0  0  0  0  0  0  0  0  0
  -30.7021   18.0237  -16.5631 C   0  0  0  0  0  0  0  0  0  0  0  0
  -30.9256   17.5775  -15.2449 C   0  0  0  0  0  0  0  0  0  0  0  0
  -31.5724   18.2987  -14.3238 N   0  0  0  0  0  0  0  0  0  0  0  0
  -31.0344   19.1961  -17.2203 N   0  0  0  0  0  0  0  0  0  0  0  0
  -30.5530   19.0265  -18.4294 C   0  0  0  0  0  0  0  0  0  0  0  0
  -29.9263   17.8246  -18.6102 N   0  0  0  0  0  0  0  0  0  0  0  0
  1  2  2  0  0  0  0
  1  6  1  0  0  0  0
  2  3  1  0  0  0  0
  3  4  2  0  0  0  0
  4  5  1  0  0  0  0
  4 10  1  0  0  0  0
  5  6  2  0  0  0  0
  5  8  1  0  0  0  0
  6  7  1  0  0  0  0
  8  9  1  0  0  0  0
  9 10  2  0  0  0  0
M  END
>  <CHROM.1>
-30.45861468,17.50718096,-16.55484435,-1.76366382,1.04758810,-0.95803325

>  <Name>
ligand

>  <RI>
0

>  <Rbt.Current_Directory>
/home/itssahil/PROJECTS/Mol_Feturizer/New_Systems/rnas/4TZX

>  <Rbt.Executable>
rbdock ($Id: //depot/dev/client3/rdock/2013.1/src/exe/rbdock.cxx#4 $)

>  <Rbt.Library>
libRbt.so (2013.1, Build901 2013/11/27)

>  <Rbt.Parameter_File>
/export/apps/rDock/src/rDock_2013.1_src/data/scripts/dock_solv.prm

>  <Rbt.Receptor>
prm/blind_docking_80.prm

>  <SCORE>
-13.4718

>  <SCORE.INTER>
-13.4718

>  <SCORE.INTER.CONST>
1

>  <SCORE.INTER.POLAR>
0

>  <SCORE.INTER.ROT>
0

>  <SCORE.INTER.SOLV>
11.7716

>  <SCORE.INTER.VDW>
-16.5051

>  <SCORE.INTER.norm>
-1.34718

>  <SCORE.INTRA>
0

>  <SCORE.INTRA.DIHEDRAL>
0

>  <SCORE.INTRA.DIHEDRAL.0>
0

>  <SCORE.INTRA.POLAR>
0

>  <SCORE.INTRA.POLAR.0>
0

>  <SCORE.INTRA.REPUL>
0

>  <SCORE.INTRA.REPUL.0>
0

>  <SCORE.INTRA.SOLV>
0

>  <SCORE.INTRA.SOLV.lig_0>
-23.8949

>  <SCORE.INTRA.VDW>
0

>  <SCORE.INTRA.VDW.0>
0

>  <SCORE.INTRA.norm>
0

>  <SCORE.RESTR>
0

>  <SCORE.RESTR.CAVITY>
0

>  <SCORE.RESTR.norm>
0

>  <SCORE.SYSTEM>
0

>  <SCORE.SYSTEM.CONST>
0

>  <SCORE.SYSTEM.DIHEDRAL>
0

>  <SCORE.SYSTEM.SOLV>
0

>  <SCORE.SYSTEM.norm>
0

>  <SCORE.heavy>
10

>  <SCORE.norm>
-1.34718

>  <RMSD>
2.395

$$$$
ligand
 OpenBabel11021811513D
libRbt.so/2013.1/901 2013/11/27
 10 11  0  0  0  0  0  0  0  0999 V2000
  -30.4604   16.3607  -14.9052 N   0  0  0  0  0  0  0  0  0  0  0  0
  -29.8203   15.6344  -15.8312 C   0  0  0  0  0  0  0  0  0  0  0  0
  -29.5464   15.9437  -17.0980 N   0  0  0  0  0  0  0  0  0  0  0  0
  -30.0117   17.1661  -17.4014 C   0  0  0  0  0  0  0  0  0  0  0  0
  -30.6899   18.0280  -16.5596 C   0  0  0  0  0  0  0  0  0  0  0  0
  -30.9162   17.5853  -15.2407 C   0  0  0  0  0  0  0  0  0  0  0  0
  -31.5568   18.3130  -14.3202 N   0  0  0  0  0  0  0  0  0  0  0  0
  -31.0132   19.2021  -17.2182 N   0  0  0  0  0  0  0  0  0  0  0  0
  -30.5338   19.0271  -18.4273 C   0  0  0  0  0  0  0  0  0  0  0  0
  -29.9169   17.8199  -18.6069 N   0  0  0  0  0  0  0  0  0  0  0  0
  1  2  2  0  0  0  0
  1  6  1  0  0  0  0
  2  3  1  0  0  0  0
  3  4  2  0  0  0  0
  4  5  1  0  0  0  0
  4 10  1  0  0  0  0
  5  6  2  0  0  0  0
  5  8  1  0  0  0  0
  6  7  1  0  0  0  0
  8  9  1  0  0  0  0
  9 10  2  0  0  0  0
M  END
>  <CHROM.1>
-30.45057639,17.50953686,-16.55079251,-1.77206061,1.05444882,-0.95208796

>  <Name>
ligand

>  <RI>
0

>  <Rbt.Current_Directory>
/home/itssahil/PROJECTS/Mol_Feturizer/New_Systems/rnas/4TZX

>  <Rbt.Executable>
rbdock ($Id: //depot/dev/client3/rdock/2013.1/src/exe/rbdock.cxx#4 $)

>  <Rbt.Library>
libRbt.so (2013.1, Build901 2013/11/27)

>  <Rbt.Parameter_File>
/export/apps/rDock/src/rDock_2013.1_src/data/scripts/dock_solv.prm

>  <Rbt.Receptor>
prm/pocket_docking_6.prm

>  <SCORE>
-13.4786

>  <SCORE.INTER>
-13.4786

>  <SCORE.INTER.CONST>
1

>  <SCORE.INTER.POLAR>
0

>  <SCORE.INTER.ROT>
0

>  <SCORE.INTER.SOLV>
11.7887

>  <SCORE.INTER.VDW>
-16.5153

>  <SCORE.INTER.norm>
-1.34786

>  <SCORE.INTRA>
0

>  <SCORE.INTRA.DIHEDRAL>
0

>  <SCORE.INTRA.DIHEDRAL.0>
0

>  <SCORE.INTRA.POLAR>
0

>  <SCORE.INTRA.POLAR.0>
0

>  <SCORE.INTRA.REPUL>
0

>  <SCORE.INTRA.REPUL.0>
0

>  <SCORE.INTRA.SOLV>
0

>  <SCORE.INTRA.SOLV.lig_0>
-23.8949

>  <SCORE.INTRA.VDW>
0

>  <SCORE.INTRA.VDW.0>
0

>  <SCORE.INTRA.norm>
0

>  <SCORE.RESTR>
0

>  <SCORE.RESTR.CAVITY>
0

>  <SCORE.RESTR.norm>
0

>  <SCORE.SYSTEM>
0

>  <SCORE.SYSTEM.CONST>
0

>  <SCORE.SYSTEM.DIHEDRAL>
0

>  <SCORE.SYSTEM.SOLV>
0

>  <SCORE.SYSTEM.norm>
0

>  <SCORE.heavy>
10

>  <SCORE.norm>
-1.34786

>  <RMSD>
2.395

$$$$
ligand
 OpenBabel11021811513D
libRbt.so/2013.1/901 2013/11/27
 10 11  0  0  0  0  0  0  0  0999 V2000
  -30.4598   16.3754  -14.9023 N   0  0  0  0  0  0  0  0  0  0  0  0
  -29.8083   15.6510  -15.8218 C   0  0  0  0  0  0  0  0  0  0  0  0
  -29.5320   15.9566  -17.0890 N   0  0  0  0  0  0  0  0  0  0  0  0
  -30.0085   17.1726  -17.4007 C   0  0  0  0  0  0  0  0  0  0  0  0
  -30.6991   18.0319  -16.5662 C   0  0  0  0  0  0  0  0  0  0  0  0
  -30.9266   17.5936  -15.2461 C   0  0  0  0  0  0  0  0  0  0  0  0
  -31.5785   18.3193  -14.3320 N   0  0  0  0  0  0  0  0  0  0  0  0
  -31.0315   19.1993  -17.2322 N   0  0  0  0  0  0  0  0  0  0  0  0
  -30.5451   19.0230  -18.4384 C   0  0  0  0  0  0  0  0  0  0  0  0
  -29.9151   17.8213  -18.6091 N   0  0  0  0  0  0  0  0  0  0  0  0
  1  2  2  0  0  0  0
  1  6  1  0  0  0  0
  2  3  1  0  0  0  0
  3  4  2  0  0  0  0
  4  5  1  0  0  0  0
  4 10  1  0  0  0  0
  5  6  2  0  0  0  0
  5  8  1  0  0  0  0
  6  7  1  0  0  0  0
  8  9  1  0  0  0  0
  9 10  2  0  0  0  0
M  END
>  <CHROM.1>
-30.45450602,17.51592726,-16.55373412,-1.76734452,1.04362775,-0.96128005

>  <Name>
ligand

>  <RI>
0

>  <Rbt.Current_Directory>
/home/itssahil/PROJECTS/Mol_Feturizer/New_Systems/rnas/4TZX

>  <Rbt.Executable>
rbdock ($Id: //depot/dev/client3/rdock/2013.1/src/exe/rbdock.cxx#4 $)

>  <Rbt.Library>
libRbt.so (2013.1, Build901 2013/11/27)

>  <Rbt.Parameter_File>
/export/apps/rDock/src/rDock_2013.1_src/data/scripts/dock_solv.prm

>  <Rbt.Receptor>
prm/pocket_docking_8.prm

>  <SCORE>
-13.4802

>  <SCORE.INTER>
-13.4802

>  <SCORE.INTER.CONST>
1

>  <SCORE.INTER.POLAR>
0

>  <SCORE.INTER.ROT>
0

>  <SCORE.INTER.SOLV>
11.8015

>  <SCORE.INTER.VDW>
-16.5207

>  <SCORE.INTER.norm>
-1.34802

>  <SCORE.INTRA>
0

>  <SCORE.INTRA.DIHEDRAL>
0

>  <SCORE.INTRA.DIHEDRAL.0>
0

>  <SCORE.INTRA.POLAR>
0

>  <SCORE.INTRA.POLAR.0>
0

>  <SCORE.INTRA.REPUL>
0

>  <SCORE.INTRA.REPUL.0>
0

>  <SCORE.INTRA.SOLV>
0

>  <SCORE.INTRA.SOLV.lig_0>
-23.8949

>  <SCORE.INTRA.VDW>
0

>  <SCORE.INTRA.VDW.0>
0

>  <SCORE.INTRA.norm>
0

>  <SCORE.RESTR>
0

>  <SCORE.RESTR.CAVITY>
0

>  <SCORE.RESTR.norm>
0

>  <SCORE.SYSTEM>
0

>  <SCORE.SYSTEM.CONST>
0

>  <SCORE.SYSTEM.DIHEDRAL>
0

>  <SCORE.SYSTEM.SOLV>
0

>  <SCORE.SYSTEM.norm>
0

>  <SCORE.heavy>
10

>  <SCORE.norm>
-1.34802

>  <RMSD>
2.395

$$$$
ligand
 OpenBabel11021811513D
libRbt.so/2013.1/901 2013/11/27
 10 11  0  0  0  0  0  0  0  0999 V2000
  -30.4930   16.3703  -14.8938 N   0  0  0  0  0  0  0  0  0  0  0  0
  -29.8412   15.6385  -15.8072 C   0  0  0  0  0  0  0  0  0  0  0  0
  -29.5505   15.9404  -17.0721 N   0  0  0  0  0  0  0  0  0  0  0  0
  -30.0111   17.1613  -17.3885 C   0  0  0  0  0  0  0  0  0  0  0  0
  -30.6998   18.0284  -16.5606 C   0  0  0  0  0  0  0  0  0  0  0  0
  -30.9437   17.5933  -15.2423 C   0  0  0  0  0  0  0  0  0  0  0  0
  -31.5958   18.3265  -14.3344 N   0  0  0  0  0  0  0  0  0  0  0  0
  -31.0137   19.1989  -17.2300 N   0  0  0  0  0  0  0  0  0  0  0  0
  -30.5186   19.0167  -18.4317 C   0  0  0  0  0  0  0  0  0  0  0  0
  -29.9000   17.8083  -18.5963 N   0  0  0  0  0  0  0  0  0  0  0  0
  1  2  2  0  0  0  0
  1  6  1  0  0  0  0
  2  3  1  0  0  0  0
  3  4  2  0  0  0  0
  4  5  1  0  0  0  0
  4 10  1  0  0  0  0
  5  6  2  0  0  0  0
  5  8  1  0  0  0  0
  6  7  1  0  0  0  0
  8  9  1  0  0  0  0
  9 10  2  0  0  0  0
M  END
>  <CHROM.1>
-30.46087131,17.50984365,-16.54568520,-1.79414225,1.04719707,-0.93859225

>  <Name>
ligand

>  <RI>
0

>  <Rbt.Current_Directory>
/home/itssahil/PROJECTS/Mol_Feturizer/New_Systems/rnas/4TZX

>  <Rbt.Executable>
rbdock ($Id: //depot/dev/client3/rdock/2013.1/src/exe/rbdock.cxx#4 $)

>  <Rbt.Library>
libRbt.so (2013.1, Build901 2013/11/27)

>  <Rbt.Parameter_File>
/export/apps/rDock/src/rDock_2013.1_src/data/scripts/dock_solv.prm

>  <Rbt.Receptor>
prm/blind_docking_100.prm

>  <SCORE>
-13.5175

>  <SCORE.INTER>
-13.5175

>  <SCORE.INTER.CONST>
1

>  <SCORE.INTER.POLAR>
0

>  <SCORE.INTER.ROT>
0

>  <SCORE.INTER.SOLV>
11.8699

>  <SCORE.INTER.VDW>
-16.5683

>  <SCORE.INTER.norm>
-1.35175

>  <SCORE.INTRA>
0

>  <SCORE.INTRA.DIHEDRAL>
0

>  <SCORE.INTRA.DIHEDRAL.0>
0

>  <SCORE.INTRA.POLAR>
0

>  <SCORE.INTRA.POLAR.0>
0

>  <SCORE.INTRA.REPUL>
0

>  <SCORE.INTRA.REPUL.0>
0

>  <SCORE.INTRA.SOLV>
0

>  <SCORE.INTRA.SOLV.lig_0>
-23.8949

>  <SCORE.INTRA.VDW>
0

>  <SCORE.INTRA.VDW.0>
0

>  <SCORE.INTRA.norm>
0

>  <SCORE.RESTR>
0

>  <SCORE.RESTR.CAVITY>
0

>  <SCORE.RESTR.norm>
0

>  <SCORE.SYSTEM>
0

>  <SCORE.SYSTEM.CONST>
0

>  <SCORE.SYSTEM.DIHEDRAL>
0

>  <SCORE.SYSTEM.SOLV>
0

>  <SCORE.SYSTEM.norm>
0

>  <SCORE.heavy>
10

>  <SCORE.norm>
-1.35175

>  <RMSD>
2.396

$$$$
ligand
 OpenBabel11021811513D
libRbt.so/2013.1/901 2013/11/27
 10 11  0  0  0  0  0  0  0  0999 V2000
  -30.4933   16.3767  -14.8912 N   0  0  0  0  0  0  0  0  0  0  0  0
  -29.8287   15.6553  -15.8037 C   0  0  0  0  0  0  0  0  0  0  0  0
  -29.5411   15.9619  -17.0681 N   0  0  0  0  0  0  0  0  0  0  0  0
  -30.0207   17.1754  -17.3851 C   0  0  0  0  0  0  0  0  0  0  0  0
  -30.7242   18.0313  -16.5581 C   0  0  0  0  0  0  0  0  0  0  0  0
  -30.9629   17.5923  -15.2402 C   0  0  0  0  0  0  0  0  0  0  0  0
  -31.6278   18.3150  -14.3331 N   0  0  0  0  0  0  0  0  0  0  0  0
  -31.0558   19.1967  -17.2279 N   0  0  0  0  0  0  0  0  0  0  0  0
  -30.5562   19.0225  -18.4290 C   0  0  0  0  0  0  0  0  0  0  0  0
  -29.9183   17.8241  -18.5928 N   0  0  0  0  0  0  0  0  0  0  0  0
  1  2  2  0  0  0  0
  1  6  1  0  0  0  0
  2  3  1  0  0  0  0
  3  4  2  0  0  0  0
  4  5  1  0  0  0  0
  4 10  1  0  0  0  0
  5  6  2  0  0  0  0
  5  8  1  0  0  0  0
  6  7  1  0  0  0  0
  8  9  1  0  0  0  0
  9 10  2  0  0  0  0
M  END
>  <CHROM.1>
-30.47706858,17.51665356,-16.54291464,-1.77791627,1.03352147,-0.95255101

>  <Name>
ligand

>  <RI>
0

>  <Rbt.Current_Directory>
/home/itssahil/PROJECTS/Mol_Feturizer/New_Systems/rnas/4TZX

>  <Rbt.Executable>
rbdock ($Id: //depot/dev/client3/rdock/2013.1/src/exe/rbdock.cxx#4 $)

>  <Rbt.Library>
libRbt.so (2013.1, Build901 2013/11/27)

>  <Rbt.Parameter_File>
/export/apps/rDock/src/rDock_2013.1_src/data/scripts/dock_solv.prm

>  <Rbt.Receptor>
prm/blind_docking_100.prm

>  <SCORE>
-13.4936

>  <SCORE.INTER>
-13.4936

>  <SCORE.INTER.CONST>
1

>  <SCORE.INTER.POLAR>
0

>  <SCORE.INTER.ROT>
0

>  <SCORE.INTER.SOLV>
11.8999

>  <SCORE.INTER.VDW>
-16.5624

>  <SCORE.INTER.norm>
-1.34936

>  <SCORE.INTRA>
0

>  <SCORE.INTRA.DIHEDRAL>
0

>  <SCORE.INTRA.DIHEDRAL.0>
0

>  <SCORE.INTRA.POLAR>
0

>  <SCORE.INTRA.POLAR.0>
0

>  <SCORE.INTRA.REPUL>
0

>  <SCORE.INTRA.REPUL.0>
0

>  <SCORE.INTRA.SOLV>
0

>  <SCORE.INTRA.SOLV.lig_0>
-23.8949

>  <SCORE.INTRA.VDW>
0

>  <SCORE.INTRA.VDW.0>
0

>  <SCORE.INTRA.norm>
0

>  <SCORE.RESTR>
0

>  <SCORE.RESTR.CAVITY>
0

>  <SCORE.RESTR.norm>
0

>  <SCORE.SYSTEM>
0

>  <SCORE.SYSTEM.CONST>
0

>  <SCORE.SYSTEM.DIHEDRAL>
0

>  <SCORE.SYSTEM.SOLV>
0

>  <SCORE.SYSTEM.norm>
0

>  <SCORE.heavy>
10

>  <SCORE.norm>
-1.34936

>  <RMSD>
2.396

$$$$
ligand
 OpenBabel11021811513D
libRbt.so/2013.1/901 2013/11/27
 10 11  0  0  0  0  0  0  0  0999 V2000
  -30.4972   16.3624  -14.9073 N   0  0  0  0  0  0  0  0  0  0  0  0
  -29.8494   15.6350  -15.8271 C   0  0  0  0  0  0  0  0  0  0  0  0
  -29.5640   15.9433  -17.0916 N   0  0  0  0  0  0  0  0  0  0  0  0
  -30.0256   17.1659  -17.3999 C   0  0  0  0  0  0  0  0  0  0  0  0
  -30.7106   18.0289  -16.5647 C   0  0  0  0  0  0  0  0  0  0  0  0
  -30.9490   17.5872  -15.2476 C   0  0  0  0  0  0  0  0  0  0  0  0
  -31.5971   18.3159  -14.3333 N   0  0  0  0  0  0  0  0  0  0  0  0
  -31.0270   19.2029  -17.2268 N   0  0  0  0  0  0  0  0  0  0  0  0
  -30.5370   19.0267  -18.4316 C   0  0  0  0  0  0  0  0  0  0  0  0
  -29.9194   17.8189  -18.6049 N   0  0  0  0  0  0  0  0  0  0  0  0
  1  2  2  0  0  0  0
  1  6  1  0  0  0  0
  2  3  1  0  0  0  0
  3  4  2  0  0  0  0
  4  5  1  0  0  0  0
  4 10  1  0  0  0  0
  5  6  2  0  0  0  0
  5  8  1  0  0  0  0
  6  7  1  0  0  0  0
  8  9  1  0  0  0  0
  9 10  2  0  0  0  0
M  END
>  <CHROM.1>
-30.47172699,17.51021730,-16.55346289,-1.78764235,1.04988551,-0.93915989

>  <Name>
ligand

>  <RI>
0

>  <Rbt.Current_Directory>
/home/itssahil/PROJECTS/Mol_Feturizer/New_Systems/rnas/4TZX

>  <Rbt.Executable>
rbdock ($Id: //depot/dev/client3/rdock/2013.1/src/exe/rbdock.cxx#4 $)

>  <Rbt.Library>
libRbt.so (2013.1, Build901 2013/11/27)

>  <Rbt.Parameter_File>
/export/apps/rDock/src/rDock_2013.1_src/data/scripts/dock_solv.prm

>  <Rbt.Receptor>
prm/blind_docking_60.prm

>  <SCORE>
-13.5108

>  <SCORE.INTER>
-13.5108

>  <SCORE.INTER.CONST>
1

>  <SCORE.INTER.POLAR>
0

>  <SCORE.INTER.ROT>
0

>  <SCORE.INTER.SOLV>
11.8561

>  <SCORE.INTER.VDW>
-16.5592

>  <SCORE.INTER.norm>
-1.35108

>  <SCORE.INTRA>
0

>  <SCORE.INTRA.DIHEDRAL>
0

>  <SCORE.INTRA.DIHEDRAL.0>
0

>  <SCORE.INTRA.POLAR>
0

>  <SCORE.INTRA.POLAR.0>
0

>  <SCORE.INTRA.REPUL>
0

>  <SCORE.INTRA.REPUL.0>
0

>  <SCORE.INTRA.SOLV>
0

>  <SCORE.INTRA.SOLV.lig_0>
-23.8949

>  <SCORE.INTRA.VDW>
0

>  <SCORE.INTRA.VDW.0>
0

>  <SCORE.INTRA.norm>
0

>  <SCORE.RESTR>
0

>  <SCORE.RESTR.CAVITY>
0

>  <SCORE.RESTR.norm>
0

>  <SCORE.SYSTEM>
0

>  <SCORE.SYSTEM.CONST>
0

>  <SCORE.SYSTEM.DIHEDRAL>
0

>  <SCORE.SYSTEM.SOLV>
0

>  <SCORE.SYSTEM.norm>
0

>  <SCORE.heavy>
10

>  <SCORE.norm>
-1.35108

>  <RMSD>
2.396

$$$$
ligand
 OpenBabel11021811513D
libRbt.so/2013.1/901 2013/11/27
 10 11  0  0  0  0  0  0  0  0999 V2000
  -30.4727   16.3867  -14.8953 N   0  0  0  0  0  0  0  0  0  0  0  0
  -29.8174   15.6562  -15.8072 C   0  0  0  0  0  0  0  0  0  0  0  0
  -29.5316   15.9554  -17.0739 N   0  0  0  0  0  0  0  0  0  0  0  0
  -30.0019   17.1716  -17.3940 C   0  0  0  0  0  0  0  0  0  0  0  0
  -30.6952   18.0368  -16.5679 C   0  0  0  0  0  0  0  0  0  0  0  0
  -30.9331   17.6050  -15.2474 C   0  0  0  0  0  0  0  0  0  0  0  0
  -31.5886   18.3369  -14.3410 N   0  0  0  0  0  0  0  0  0  0  0  0
  -31.0192   19.2023  -17.2411 N   0  0  0  0  0  0  0  0  0  0  0  0
  -30.5253   19.0192  -18.4433 C   0  0  0  0  0  0  0  0  0  0  0  0
  -29.8982   17.8147  -18.6045 N   0  0  0  0  0  0  0  0  0  0  0  0
  1  2  2  0  0  0  0
  1  6  1  0  0  0  0
  2  3  1  0  0  0  0
  3  4  2  0  0  0  0
  4  5  1  0  0  0  0
  4 10  1  0  0  0  0
  5  6  2  0  0  0  0
  5  8  1  0  0  0  0
  6  7  1  0  0  0  0
  8  9  1  0  0  0  0
  9 10  2  0  0  0  0
M  END
>  <CHROM.1>
-30.45244319,17.52005527,-16.55155696,-1.78208806,1.04247452,-0.95288282

>  <Name>
ligand

>  <RI>
0

>  <Rbt.Current_Directory>
/home/itssahil/PROJECTS/Mol_Feturizer/New_Systems/rnas/4TZX

>  <Rbt.Executable>
rbdock ($Id: //depot/dev/client3/rdock/2013.1/src/exe/rbdock.cxx#4 $)

>  <Rbt.Library>
libRbt.so (2013.1, Build901 2013/11/27)

>  <Rbt.Parameter_File>
/export/apps/rDock/src/rDock_2013.1_src/data/scripts/dock_solv.prm

>  <Rbt.Receptor>
prm/blind_docking_60.prm

>  <SCORE>
-13.4878

>  <SCORE.INTER>
-13.4878

>  <SCORE.INTER.CONST>
1

>  <SCORE.INTER.POLAR>
0

>  <SCORE.INTER.ROT>
0

>  <SCORE.INTER.SOLV>
11.8434

>  <SCORE.INTER.VDW>
-16.5397

>  <SCORE.INTER.norm>
-1.34878

>  <SCORE.INTRA>
0

>  <SCORE.INTRA.DIHEDRAL>
0

>  <SCORE.INTRA.DIHEDRAL.0>
0

>  <SCORE.INTRA.POLAR>
0

>  <SCORE.INTRA.POLAR.0>
0

>  <SCORE.INTRA.REPUL>
0

>  <SCORE.INTRA.REPUL.0>
0

>  <SCORE.INTRA.SOLV>
0

>  <SCORE.INTRA.SOLV.lig_0>
-23.8949

>  <SCORE.INTRA.VDW>
0

>  <SCORE.INTRA.VDW.0>
0

>  <SCORE.INTRA.norm>
0

>  <SCORE.RESTR>
0

>  <SCORE.RESTR.CAVITY>
0

>  <SCORE.RESTR.norm>
0

>  <SCORE.SYSTEM>
0

>  <SCORE.SYSTEM.CONST>
0

>  <SCORE.SYSTEM.DIHEDRAL>
0

>  <SCORE.SYSTEM.SOLV>
0

>  <SCORE.SYSTEM.norm>
0

>  <SCORE.heavy>
10

>  <SCORE.norm>
-1.34878

>  <RMSD>
2.396

$$$$
ligand
 OpenBabel11021811513D
libRbt.so/2013.1/901 2013/11/27
 10 11  0  0  0  0  0  0  0  0999 V2000
  -30.4591   16.3624  -14.9245 N   0  0  0  0  0  0  0  0  0  0  0  0
  -29.8153   15.6390  -15.8502 C   0  0  0  0  0  0  0  0  0  0  0  0
  -29.5385   15.9512  -17.1157 N   0  0  0  0  0  0  0  0  0  0  0  0
  -30.0051   17.1734  -17.4179 C   0  0  0  0  0  0  0  0  0  0  0  0
  -30.6869   18.0326  -16.5763 C   0  0  0  0  0  0  0  0  0  0  0  0
  -30.9160   17.5869  -15.2589 C   0  0  0  0  0  0  0  0  0  0  0  0
  -31.5602   18.3117  -14.3386 N   0  0  0  0  0  0  0  0  0  0  0  0
  -31.0104   19.2075  -17.2334 N   0  0  0  0  0  0  0  0  0  0  0  0
  -30.5274   19.0356  -18.4416 C   0  0  0  0  0  0  0  0  0  0  0  0
  -29.9081   17.8298  -18.6219 N   0  0  0  0  0  0  0  0  0  0  0  0
  1  2  2  0  0  0  0
  1  6  1  0  0  0  0
  2  3  1  0  0  0  0
  3  4  2  0  0  0  0
  4  5  1  0  0  0  0
  4 10  1  0  0  0  0
  5  6  2  0  0  0  0
  5  8  1  0  0  0  0
  6  7  1  0  0  0  0
  8  9  1  0  0  0  0
  9 10  2  0  0  0  0
M  END
>  <CHROM.1>
-30.44673665,17.51451076,-16.56783647,-1.77453461,1.05154338,-0.94796534

>  <Name>
ligand

>  <RI>
0

>  <Rbt.Current_Directory>
/home/itssahil/PROJECTS/Mol_Feturizer/New_Systems/rnas/4TZX

>  <Rbt.Executable>
rbdock ($Id: //depot/dev/client3/rdock/2013.1/src/exe/rbdock.cxx#4 $)

>  <Rbt.Library>
libRbt.so (2013.1, Build901 2013/11/27)

>  <Rbt.Parameter_File>
/export/apps/rDock/src/rDock_2013.1_src/data/scripts/dock_solv.prm

>  <Rbt.Receptor>
prm/blind_docking_60.prm

>  <SCORE>
-13.4888

>  <SCORE.INTER>
-13.4888

>  <SCORE.INTER.CONST>
1

>  <SCORE.INTER.POLAR>
0

>  <SCORE.INTER.ROT>
0

>  <SCORE.INTER.SOLV>
11.7449

>  <SCORE.INTER.VDW>
-16.5075

>  <SCORE.INTER.norm>
-1.34888

>  <SCORE.INTRA>
0

>  <SCORE.INTRA.DIHEDRAL>
0

>  <SCORE.INTRA.DIHEDRAL.0>
0

>  <SCORE.INTRA.POLAR>
0

>  <SCORE.INTRA.POLAR.0>
0

>  <SCORE.INTRA.REPUL>
0

>  <SCORE.INTRA.REPUL.0>
0

>  <SCORE.INTRA.SOLV>
0

>  <SCORE.INTRA.SOLV.lig_0>
-23.8949

>  <SCORE.INTRA.VDW>
0

>  <SCORE.INTRA.VDW.0>
0

>  <SCORE.INTRA.norm>
0

>  <SCORE.RESTR>
0

>  <SCORE.RESTR.CAVITY>
0

>  <SCORE.RESTR.norm>
0

>  <SCORE.SYSTEM>
0

>  <SCORE.SYSTEM.CONST>
0

>  <SCORE.SYSTEM.DIHEDRAL>
0

>  <SCORE.SYSTEM.SOLV>
0

>  <SCORE.SYSTEM.norm>
0

>  <SCORE.heavy>
10

>  <SCORE.norm>
-1.34888

>  <RMSD>
2.396

$$$$
ligand
 OpenBabel11021811513D
libRbt.so/2013.1/901 2013/11/27
 10 11  0  0  0  0  0  0  0  0999 V2000
  -30.4709   16.3738  -14.9128 N   0  0  0  0  0  0  0  0  0  0  0  0
  -29.8234   15.6442  -15.8311 C   0  0  0  0  0  0  0  0  0  0  0  0
  -29.5386   15.9494  -17.0965 N   0  0  0  0  0  0  0  0  0  0  0  0
  -30.0004   17.1712  -17.4076 C   0  0  0  0  0  0  0  0  0  0  0  0
  -30.6852   18.0362  -16.5742 C   0  0  0  0  0  0  0  0  0  0  0  0
  -30.9229   17.5977  -15.2559 C   0  0  0  0  0  0  0  0  0  0  0  0
  -31.5707   18.3287  -14.3431 N   0  0  0  0  0  0  0  0  0  0  0  0
  -31.0020   19.2085  -17.2391 N   0  0  0  0  0  0  0  0  0  0  0  0
  -30.5125   19.0294  -18.4436 C   0  0  0  0  0  0  0  0  0  0  0  0
  -29.8949   17.8213  -18.6142 N   0  0  0  0  0  0  0  0  0  0  0  0
  1  2  2  0  0  0  0
  1  6  1  0  0  0  0
  2  3  1  0  0  0  0
  3  4  2  0  0  0  0
  4  5  1  0  0  0  0
  4 10  1  0  0  0  0
  5  6  2  0  0  0  0
  5  8  1  0  0  0  0
  6  7  1  0  0  0  0
  8  9  1  0  0  0  0
  9 10  2  0  0  0  0
M  END
>  <CHROM.1>
-30.44623196,17.51760133,-16.56179380,-1.78679167,1.05006216,-0.94238169

>  <Name>
ligand

>  <RI>
0

>  <Rbt.Current_Directory>
/home/itssahil/PROJECTS/Mol_Feturizer/New_Systems/rnas/4TZX

>  <Rbt.Executable>
rbdock ($Id: //depot/dev/client3/rdock/2013.1/src/exe/rbdock.cxx#4 $)

>  <Rbt.Library>
libRbt.so (2013.1, Build901 2013/11/27)

>  <Rbt.Parameter_File>
/export/apps/rDock/src/rDock_2013.1_src/data/scripts/dock_solv.prm

>  <Rbt.Receptor>
prm/blind_docking_60.prm

>  <SCORE>
-13.4938

>  <SCORE.INTER>
-13.4938

>  <SCORE.INTER.CONST>
1

>  <SCORE.INTER.POLAR>
0

>  <SCORE.INTER.ROT>
0

>  <SCORE.INTER.SOLV>
11.7953

>  <SCORE.INTER.VDW>
-16.5276

>  <SCORE.INTER.norm>
-1.34938

>  <SCORE.INTRA>
0

>  <SCORE.INTRA.DIHEDRAL>
0

>  <SCORE.INTRA.DIHEDRAL.0>
0

>  <SCORE.INTRA.POLAR>
0

>  <SCORE.INTRA.POLAR.0>
0

>  <SCORE.INTRA.REPUL>
0

>  <SCORE.INTRA.REPUL.0>
0

>  <SCORE.INTRA.SOLV>
0

>  <SCORE.INTRA.SOLV.lig_0>
-23.8949

>  <SCORE.INTRA.VDW>
0

>  <SCORE.INTRA.VDW.0>
0

>  <SCORE.INTRA.norm>
0

>  <SCORE.RESTR>
0

>  <SCORE.RESTR.CAVITY>
0

>  <SCORE.RESTR.norm>
0

>  <SCORE.SYSTEM>
0

>  <SCORE.SYSTEM.CONST>
0

>  <SCORE.SYSTEM.DIHEDRAL>
0

>  <SCORE.SYSTEM.SOLV>
0

>  <SCORE.SYSTEM.norm>
0

>  <SCORE.heavy>
10

>  <SCORE.norm>
-1.34938

>  <RMSD>
2.396

$$$$
ligand
 OpenBabel11021811513D
libRbt.so/2013.1/901 2013/11/27
 10 11  0  0  0  0  0  0  0  0999 V2000
  -30.4881   16.3567  -14.8993 N   0  0  0  0  0  0  0  0  0  0  0  0
  -29.8420   15.6274  -15.8188 C   0  0  0  0  0  0  0  0  0  0  0  0
  -29.5557   15.9346  -17.0834 N   0  0  0  0  0  0  0  0  0  0  0  0
  -30.0143   17.1582  -17.3921 C   0  0  0  0  0  0  0  0  0  0  0  0
  -30.6973   18.0232  -16.5573 C   0  0  0  0  0  0  0  0  0  0  0  0
  -30.9369   17.5825  -15.2401 C   0  0  0  0  0  0  0  0  0  0  0  0
  -31.5833   18.3131  -14.3261 N   0  0  0  0  0  0  0  0  0  0  0  0
  -31.0108   19.1977  -17.2199 N   0  0  0  0  0  0  0  0  0  0  0  0
  -30.5211   19.0198  -18.4245 C   0  0  0  0  0  0  0  0  0  0  0  0
  -29.9065   17.8105  -18.5974 N   0  0  0  0  0  0  0  0  0  0  0  0
  1  2  2  0  0  0  0
  1  6  1  0  0  0  0
  2  3  1  0  0  0  0
  3  4  2  0  0  0  0
  4  5  1  0  0  0  0
  4 10  1  0  0  0  0
  5  6  2  0  0  0  0
  5  8  1  0  0  0  0
  6  7  1  0  0  0  0
  8  9  1  0  0  0  0
  9 10  2  0  0  0  0
M  END
>  <CHROM.1>
-30.45968884,17.50392268,-16.54584767,-1.79065535,1.05179815,-0.93690715

>  <Name>
ligand

>  <RI>
0

>  <Rbt.Current_Directory>
/home/itssahil/PROJECTS/Mol_Feturizer/New_Systems/rnas/4TZX

>  <Rbt.Executable>
rbdock ($Id: //depot/dev/client3/rdock/2013.1/src/exe/rbdock.cxx#4 $)

>  <Rbt.Library>
libRbt.so (2013.1, Build901 2013/11/27)

>  <Rbt.Parameter_File>
/export/apps/rDock/src/rDock_2013.1_src/data/scripts/dock_solv.prm

>  <Rbt.Receptor>
prm/blind_docking_60.prm

>  <SCORE>
-13.5137

>  <SCORE.INTER>
-13.5137

>  <SCORE.INTER.CONST>
1

>  <SCORE.INTER.POLAR>
0

>  <SCORE.INTER.ROT>
0

>  <SCORE.INTER.SOLV>
11.838

>  <SCORE.INTER.VDW>
-16.5551

>  <SCORE.INTER.norm>
-1.35137

>  <SCORE.INTRA>
0

>  <SCORE.INTRA.DIHEDRAL>
0

>  <SCORE.INTRA.DIHEDRAL.0>
0

>  <SCORE.INTRA.POLAR>
0

>  <SCORE.INTRA.POLAR.0>
0

>  <SCORE.INTRA.REPUL>
0

>  <SCORE.INTRA.REPUL.0>
0

>  <SCORE.INTRA.SOLV>
0

>  <SCORE.INTRA.SOLV.lig_0>
-23.8949

>  <SCORE.INTRA.VDW>
0

>  <SCORE.INTRA.VDW.0>
0

>  <SCORE.INTRA.norm>
0

>  <SCORE.RESTR>
0

>  <SCORE.RESTR.CAVITY>
0

>  <SCORE.RESTR.norm>
0

>  <SCORE.SYSTEM>
0

>  <SCORE.SYSTEM.CONST>
0

>  <SCORE.SYSTEM.DIHEDRAL>
0

>  <SCORE.SYSTEM.SOLV>
0

>  <SCORE.SYSTEM.norm>
0

>  <SCORE.heavy>
10

>  <SCORE.norm>
-1.35137

>  <RMSD>
2.396

$$$$
ligand
 OpenBabel11021811513D
libRbt.so/2013.1/901 2013/11/27
 10 11  0  0  0  0  0  0  0  0999 V2000
  -30.4463   16.3829  -14.8998 N   0  0  0  0  0  0  0  0  0  0  0  0
  -29.8115   15.6309  -15.8088 C   0  0  0  0  0  0  0  0  0  0  0  0
  -29.5420   15.9059  -17.0844 N   0  0  0  0  0  0  0  0  0  0  0  0
  -30.0057   17.1209  -17.4182 C   0  0  0  0  0  0  0  0  0  0  0  0
  -30.6786   18.0065  -16.5969 C   0  0  0  0  0  0  0  0  0  0  0  0
  -30.9006   17.5994  -15.2658 C   0  0  0  0  0  0  0  0  0  0  0  0
  -31.5358   18.3527  -14.3624 N   0  0  0  0  0  0  0  0  0  0  0  0
  -31.0018   19.1635  -17.2850 N   0  0  0  0  0  0  0  0  0  0  0  0
  -30.5277   18.9553  -18.4910 C   0  0  0  0  0  0  0  0  0  0  0  0
  -29.9142   17.7424  -18.6410 N   0  0  0  0  0  0  0  0  0  0  0  0
  1  2  2  0  0  0  0
  1  6  1  0  0  0  0
  2  3  1  0  0  0  0
  3  4  2  0  0  0  0
  4  5  1  0  0  0  0
  4 10  1  0  0  0  0
  5  6  2  0  0  0  0
  5  8  1  0  0  0  0
  6  7  1  0  0  0  0
  8  9  1  0  0  0  0
  9 10  2  0  0  0  0
M  END
>  <CHROM.1>
-30.44037639,17.48782608,-16.57529278,-1.76811933,1.05863158,-0.98199694

>  <Name>
ligand

>  <RI>
0

>  <Rbt.Current_Directory>
/home/itssahil/PROJECTS/Mol_Feturizer/New_Systems/rnas/4TZX

>  <Rbt.Executable>
rbdock ($Id: //depot/dev/client3/rdock/2013.1/src/exe/rbdock.cxx#4 $)

>  <Rbt.Library>
libRbt.so (2013.1, Build901 2013/11/27)

>  <Rbt.Parameter_File>
/export/apps/rDock/src/rDock_2013.1_src/data/scripts/dock_solv.prm

>  <Rbt.Receptor>
prm/blind_docking_80.prm

>  <SCORE>
-13.4761

>  <SCORE.INTER>
-13.4761

>  <SCORE.INTER.CONST>
1

>  <SCORE.INTER.POLAR>
0

>  <SCORE.INTER.ROT>
0

>  <SCORE.INTER.SOLV>
11.7137

>  <SCORE.INTER.VDW>
-16.4887

>  <SCORE.INTER.norm>
-1.34761

>  <SCORE.INTRA>
0

>  <SCORE.INTRA.DIHEDRAL>
0

>  <SCORE.INTRA.DIHEDRAL.0>
0

>  <SCORE.INTRA.POLAR>
0

>  <SCORE.INTRA.POLAR.0>
0

>  <SCORE.INTRA.REPUL>
0

>  <SCORE.INTRA.REPUL.0>
0

>  <SCORE.INTRA.SOLV>
0

>  <SCORE.INTRA.SOLV.lig_0>
-23.8949

>  <SCORE.INTRA.VDW>
0

>  <SCORE.INTRA.VDW.0>
0

>  <SCORE.INTRA.norm>
0

>  <SCORE.RESTR>
0

>  <SCORE.RESTR.CAVITY>
0

>  <SCORE.RESTR.norm>
0

>  <SCORE.SYSTEM>
0

>  <SCORE.SYSTEM.CONST>
0

>  <SCORE.SYSTEM.DIHEDRAL>
0

>  <SCORE.SYSTEM.SOLV>
0

>  <SCORE.SYSTEM.norm>
0

>  <SCORE.heavy>
10

>  <SCORE.norm>
-1.34761

>  <RMSD>
2.396

$$$$
ligand
 OpenBabel11021811513D
libRbt.so/2013.1/901 2013/11/27
 10 11  0  0  0  0  0  0  0  0999 V2000
  -30.4100   16.3649  -14.8938 N   0  0  0  0  0  0  0  0  0  0  0  0
  -29.7779   15.6128  -15.8046 C   0  0  0  0  0  0  0  0  0  0  0  0
  -29.5112   15.8883  -17.0807 N   0  0  0  0  0  0  0  0  0  0  0  0
  -29.9748   17.1039  -17.4128 C   0  0  0  0  0  0  0  0  0  0  0  0
  -30.6450   17.9895  -16.5894 C   0  0  0  0  0  0  0  0  0  0  0  0
  -30.8643   17.5819  -15.2581 C   0  0  0  0  0  0  0  0  0  0  0  0
  -31.4967   18.3352  -14.3527 N   0  0  0  0  0  0  0  0  0  0  0  0
  -30.9690   19.1472  -17.2761 N   0  0  0  0  0  0  0  0  0  0  0  0
  -30.4978   18.9394  -18.4833 C   0  0  0  0  0  0  0  0  0  0  0  0
  -29.8857   17.7260  -18.6354 N   0  0  0  0  0  0  0  0  0  0  0  0
  1  2  2  0  0  0  0
  1  6  1  0  0  0  0
  2  3  1  0  0  0  0
  3  4  2  0  0  0  0
  4  5  1  0  0  0  0
  4 10  1  0  0  0  0
  5  6  2  0  0  0  0
  5  8  1  0  0  0  0
  6  7  1  0  0  0  0
  8  9  1  0  0  0  0
  9 10  2  0  0  0  0
M  END
>  <CHROM.1>
-30.40716640,17.47071740,-16.56864926,-1.76500704,1.06057228,-0.98415387

>  <Name>
ligand

>  <RI>
0

>  <Rbt.Current_Directory>
/home/itssahil/PROJECTS/Mol_Feturizer/New_Systems/rnas/4TZX

>  <Rbt.Executable>
rbdock ($Id: //depot/dev/client3/rdock/2013.1/src/exe/rbdock.cxx#4 $)

>  <Rbt.Library>
libRbt.so (2013.1, Build901 2013/11/27)

>  <Rbt.Parameter_File>
/export/apps/rDock/src/rDock_2013.1_src/data/scripts/dock_solv.prm

>  <Rbt.Receptor>
prm/blind_docking_80.prm

>  <SCORE>
-13.4548

>  <SCORE.INTER>
-13.4548

>  <SCORE.INTER.CONST>
1

>  <SCORE.INTER.POLAR>
0

>  <SCORE.INTER.ROT>
0

>  <SCORE.INTER.SOLV>
11.6378

>  <SCORE.INTER.VDW>
-16.4491

>  <SCORE.INTER.norm>
-1.34548

>  <SCORE.INTRA>
0

>  <SCORE.INTRA.DIHEDRAL>
0

>  <SCORE.INTRA.DIHEDRAL.0>
0

>  <SCORE.INTRA.POLAR>
0

>  <SCORE.INTRA.POLAR.0>
0

>  <SCORE.INTRA.REPUL>
0

>  <SCORE.INTRA.REPUL.0>
0

>  <SCORE.INTRA.SOLV>
0

>  <SCORE.INTRA.SOLV.lig_0>
-23.8949

>  <SCORE.INTRA.VDW>
0

>  <SCORE.INTRA.VDW.0>
0

>  <SCORE.INTRA.norm>
0

>  <SCORE.RESTR>
0

>  <SCORE.RESTR.CAVITY>
0

>  <SCORE.RESTR.norm>
0

>  <SCORE.SYSTEM>
0

>  <SCORE.SYSTEM.CONST>
0

>  <SCORE.SYSTEM.DIHEDRAL>
0

>  <SCORE.SYSTEM.SOLV>
0

>  <SCORE.SYSTEM.norm>
0

>  <SCORE.heavy>
10

>  <SCORE.norm>
-1.34548

>  <RMSD>
2.396

$$$$
ligand
 OpenBabel11021811513D
libRbt.so/2013.1/901 2013/11/27
 10 11  0  0  0  0  0  0  0  0999 V2000
  -30.4740   16.3755  -14.9089 N   0  0  0  0  0  0  0  0  0  0  0  0
  -29.8281   15.6435  -15.8264 C   0  0  0  0  0  0  0  0  0  0  0  0
  -29.5421   15.9470  -17.0920 N   0  0  0  0  0  0  0  0  0  0  0  0
  -30.0007   17.1697  -17.4042 C   0  0  0  0  0  0  0  0  0  0  0  0
  -30.6835   18.0371  -16.5718 C   0  0  0  0  0  0  0  0  0  0  0  0
  -30.9228   17.6003  -15.2532 C   0  0  0  0  0  0  0  0  0  0  0  0
  -31.5690   18.3336  -14.3412 N   0  0  0  0  0  0  0  0  0  0  0  0
  -30.9971   19.2097  -17.2377 N   0  0  0  0  0  0  0  0  0  0  0  0
  -30.5077   19.0283  -18.4419 C   0  0  0  0  0  0  0  0  0  0  0  0
  -29.8931   17.8185  -18.6114 N   0  0  0  0  0  0  0  0  0  0  0  0
  1  2  2  0  0  0  0
  1  6  1  0  0  0  0
  2  3  1  0  0  0  0
  3  4  2  0  0  0  0
  4  5  1  0  0  0  0
  4 10  1  0  0  0  0
  5  6  2  0  0  0  0
  5  8  1  0  0  0  0
  6  7  1  0  0  0  0
  8  9  1  0  0  0  0
  9 10  2  0  0  0  0
M  END
>  <CHROM.1>
-30.44587536,17.51787649,-16.55883780,-1.79031964,1.05195398,-0.94011132

>  <Name>
ligand

>  <RI>
0

>  <Rbt.Current_Directory>
/home/itssahil/PROJECTS/Mol_Feturizer/New_Systems/rnas/4TZX

>  <Rbt.Executable>
rbdock ($Id: //depot/dev/client3/rdock/2013.1/src/exe/rbdock.cxx#4 $)

>  <Rbt.Library>
libRbt.so (2013.1, Build901 2013/11/27)

>  <Rbt.Parameter_File>
/export/apps/rDock/src/rDock_2013.1_src/data/scripts/dock_solv.prm

>  <Rbt.Receptor>
prm/blind_docking_80.prm

>  <SCORE>
-13.4941

>  <SCORE.INTER>
-13.4941

>  <SCORE.INTER.CONST>
1

>  <SCORE.INTER.POLAR>
0

>  <SCORE.INTER.ROT>
0

>  <SCORE.INTER.SOLV>
11.8078

>  <SCORE.INTER.VDW>
-16.532

>  <SCORE.INTER.norm>
-1.34941

>  <SCORE.INTRA>
0

>  <SCORE.INTRA.DIHEDRAL>
0

>  <SCORE.INTRA.DIHEDRAL.0>
0

>  <SCORE.INTRA.POLAR>
0

>  <SCORE.INTRA.POLAR.0>
0

>  <SCORE.INTRA.REPUL>
0

>  <SCORE.INTRA.REPUL.0>
0

>  <SCORE.INTRA.SOLV>
0

>  <SCORE.INTRA.SOLV.lig_0>
-23.8949

>  <SCORE.INTRA.VDW>
0

>  <SCORE.INTRA.VDW.0>
0

>  <SCORE.INTRA.norm>
0

>  <SCORE.RESTR>
0

>  <SCORE.RESTR.CAVITY>
0

>  <SCORE.RESTR.norm>
0

>  <SCORE.SYSTEM>
0

>  <SCORE.SYSTEM.CONST>
0

>  <SCORE.SYSTEM.DIHEDRAL>
0

>  <SCORE.SYSTEM.SOLV>
0

>  <SCORE.SYSTEM.norm>
0

>  <SCORE.heavy>
10

>  <SCORE.norm>
-1.34941

>  <RMSD>
2.396

$$$$
ligand
 OpenBabel11021811513D
libRbt.so/2013.1/901 2013/11/27
 10 11  0  0  0  0  0  0  0  0999 V2000
  -30.4942   16.3679  -14.8995 N   0  0  0  0  0  0  0  0  0  0  0  0
  -29.8501   15.6337  -15.8164 C   0  0  0  0  0  0  0  0  0  0  0  0
  -29.5606   15.9368  -17.0813 N   0  0  0  0  0  0  0  0  0  0  0  0
  -30.0132   17.1618  -17.3934 C   0  0  0  0  0  0  0  0  0  0  0  0
  -30.6934   18.0317  -16.5614 C   0  0  0  0  0  0  0  0  0  0  0  0
  -30.9369   17.5950  -15.2436 C   0  0  0  0  0  0  0  0  0  0  0  0
  -31.5813   18.3306  -14.3321 N   0  0  0  0  0  0  0  0  0  0  0  0
  -31.0006   19.2062  -17.2270 N   0  0  0  0  0  0  0  0  0  0  0  0
  -30.5099   19.0235  -18.4305 C   0  0  0  0  0  0  0  0  0  0  0  0
  -29.9006   17.8110  -18.5999 N   0  0  0  0  0  0  0  0  0  0  0  0
  1  2  2  0  0  0  0
  1  6  1  0  0  0  0
  2  3  1  0  0  0  0
  3  4  2  0  0  0  0
  4  5  1  0  0  0  0
  4 10  1  0  0  0  0
  5  6  2  0  0  0  0
  5  8  1  0  0  0  0
  6  7  1  0  0  0  0
  8  9  1  0  0  0  0
  9 10  2  0  0  0  0
M  END
>  <CHROM.1>
-30.45816701,17.51142251,-16.54848613,-1.79849972,1.05461724,-0.93226159

>  <Name>
ligand

>  <RI>
0

>  <Rbt.Current_Directory>
/home/itssahil/PROJECTS/Mol_Feturizer/New_Systems/rnas/4TZX

>  <Rbt.Executable>
rbdock ($Id: //depot/dev/client3/rdock/2013.1/src/exe/rbdock.cxx#4 $)

>  <Rbt.Library>
libRbt.so (2013.1, Build901 2013/11/27)

>  <Rbt.Parameter_File>
/export/apps/rDock/src/rDock_2013.1_src/data/scripts/dock_solv.prm

>  <Rbt.Receptor>
prm/pocket_docking_3.prm

>  <SCORE>
-13.5199

>  <SCORE.INTER>
-13.5199

>  <SCORE.INTER.CONST>
1

>  <SCORE.INTER.POLAR>
0

>  <SCORE.INTER.ROT>
0

>  <SCORE.INTER.SOLV>
11.8585

>  <SCORE.INTER.VDW>
-16.5661

>  <SCORE.INTER.norm>
-1.35199

>  <SCORE.INTRA>
0

>  <SCORE.INTRA.DIHEDRAL>
0

>  <SCORE.INTRA.DIHEDRAL.0>
0

>  <SCORE.INTRA.POLAR>
0

>  <SCORE.INTRA.POLAR.0>
0

>  <SCORE.INTRA.REPUL>
0

>  <SCORE.INTRA.REPUL.0>
0

>  <SCORE.INTRA.SOLV>
0

>  <SCORE.INTRA.SOLV.lig_0>
-23.8949

>  <SCORE.INTRA.VDW>
0

>  <SCORE.INTRA.VDW.0>
0

>  <SCORE.INTRA.norm>
0

>  <SCORE.RESTR>
0

>  <SCORE.RESTR.CAVITY>
0

>  <SCORE.RESTR.norm>
0

>  <SCORE.SYSTEM>
0

>  <SCORE.SYSTEM.CONST>
0

>  <SCORE.SYSTEM.DIHEDRAL>
0

>  <SCORE.SYSTEM.SOLV>
0

>  <SCORE.SYSTEM.norm>
0

>  <SCORE.heavy>
10

>  <SCORE.norm>
-1.35199

>  <RMSD>
2.396

$$$$
ligand
 OpenBabel11021811513D
libRbt.so/2013.1/901 2013/11/27
 10 11  0  0  0  0  0  0  0  0999 V2000
  -30.4720   16.3813  -14.9011 N   0  0  0  0  0  0  0  0  0  0  0  0
  -29.8237   15.6497  -15.8172 C   0  0  0  0  0  0  0  0  0  0  0  0
  -29.5394   15.9513  -17.0836 N   0  0  0  0  0  0  0  0  0  0  0  0
  -30.0030   17.1714  -17.3985 C   0  0  0  0  0  0  0  0  0  0  0  0
  -30.6887   18.0382  -16.5678 C   0  0  0  0  0  0  0  0  0  0  0  0
  -30.9258   17.6036  -15.2481 C   0  0  0  0  0  0  0  0  0  0  0  0
  -31.5744   18.3365  -14.3375 N   0  0  0  0  0  0  0  0  0  0  0  0
  -31.0072   19.2079  -17.2364 N   0  0  0  0  0  0  0  0  0  0  0  0
  -30.5176   19.0256  -18.4404 C   0  0  0  0  0  0  0  0  0  0  0  0
  -29.8985   17.8178  -18.6073 N   0  0  0  0  0  0  0  0  0  0  0  0
  1  2  2  0  0  0  0
  1  6  1  0  0  0  0
  2  3  1  0  0  0  0
  3  4  2  0  0  0  0
  4  5  1  0  0  0  0
  4 10  1  0  0  0  0
  5  6  2  0  0  0  0
  5  8  1  0  0  0  0
  6  7  1  0  0  0  0
  8  9  1  0  0  0  0
  9 10  2  0  0  0  0
M  END
>  <CHROM.1>
-30.44911646,17.51992296,-16.55377566,-1.78499281,1.04907142,-0.94710004

>  <Name>
ligand

>  <RI>
0

>  <Rbt.Current_Directory>
/home/itssahil/PROJECTS/Mol_Feturizer/New_Systems/rnas/4TZX

>  <Rbt.Executable>
rbdock ($Id: //depot/dev/client3/rdock/2013.1/src/exe/rbdock.cxx#4 $)

>  <Rbt.Library>
libRbt.so (2013.1, Build901 2013/11/27)

>  <Rbt.Parameter_File>
/export/apps/rDock/src/rDock_2013.1_src/data/scripts/dock_solv.prm

>  <Rbt.Receptor>
prm/pocket_docking_4.prm

>  <SCORE>
-13.4925

>  <SCORE.INTER>
-13.4925

>  <SCORE.INTER.CONST>
1

>  <SCORE.INTER.POLAR>
0

>  <SCORE.INTER.ROT>
0

>  <SCORE.INTER.SOLV>
11.8265

>  <SCORE.INTER.VDW>
-16.5372

>  <SCORE.INTER.norm>
-1.34925

>  <SCORE.INTRA>
0

>  <SCORE.INTRA.DIHEDRAL>
0

>  <SCORE.INTRA.DIHEDRAL.0>
0

>  <SCORE.INTRA.POLAR>
0

>  <SCORE.INTRA.POLAR.0>
0

>  <SCORE.INTRA.REPUL>
0

>  <SCORE.INTRA.REPUL.0>
0

>  <SCORE.INTRA.SOLV>
0

>  <SCORE.INTRA.SOLV.lig_0>
-23.8949

>  <SCORE.INTRA.VDW>
0

>  <SCORE.INTRA.VDW.0>
0

>  <SCORE.INTRA.norm>
0

>  <SCORE.RESTR>
0

>  <SCORE.RESTR.CAVITY>
0

>  <SCORE.RESTR.norm>
0

>  <SCORE.SYSTEM>
0

>  <SCORE.SYSTEM.CONST>
0

>  <SCORE.SYSTEM.DIHEDRAL>
0

>  <SCORE.SYSTEM.SOLV>
0

>  <SCORE.SYSTEM.norm>
0

>  <SCORE.heavy>
10

>  <SCORE.norm>
-1.34925

>  <RMSD>
2.396

$$$$
ligand
 OpenBabel11021811513D
libRbt.so/2013.1/901 2013/11/27
 10 11  0  0  0  0  0  0  0  0999 V2000
  -30.4345   16.3749  -14.9155 N   0  0  0  0  0  0  0  0  0  0  0  0
  -29.8021   15.6271  -15.8297 C   0  0  0  0  0  0  0  0  0  0  0  0
  -29.5372   15.9074  -17.1051 N   0  0  0  0  0  0  0  0  0  0  0  0
  -30.0033   17.1233  -17.4325 C   0  0  0  0  0  0  0  0  0  0  0  0
  -30.6742   18.0049  -16.6054 C   0  0  0  0  0  0  0  0  0  0  0  0
  -30.8913   17.5923  -15.2752 C   0  0  0  0  0  0  0  0  0  0  0  0
  -31.5241   18.3413  -14.3666 N   0  0  0  0  0  0  0  0  0  0  0  0
  -31.0010   19.1643  -17.2878 N   0  0  0  0  0  0  0  0  0  0  0  0
  -30.5307   18.9615  -18.4962 C   0  0  0  0  0  0  0  0  0  0  0  0
  -29.9166   17.7498  -18.6531 N   0  0  0  0  0  0  0  0  0  0  0  0
  1  2  2  0  0  0  0
  1  6  1  0  0  0  0
  2  3  1  0  0  0  0
  3  4  2  0  0  0  0
  4  5  1  0  0  0  0
  4 10  1  0  0  0  0
  5  6  2  0  0  0  0
  5  8  1  0  0  0  0
  6  7  1  0  0  0  0
  8  9  1  0  0  0  0
  9 10  2  0  0  0  0
M  END
>  <CHROM.1>
-30.43541947,17.48643534,-16.58665038,-1.76118771,1.05967758,-0.98406380

>  <Name>
ligand

>  <RI>
0

>  <Rbt.Current_Directory>
/home/itssahil/PROJECTS/Mol_Feturizer/New_Systems/rnas/4TZX

>  <Rbt.Executable>
rbdock ($Id: //depot/dev/client3/rdock/2013.1/src/exe/rbdock.cxx#4 $)

>  <Rbt.Library>
libRbt.so (2013.1, Build901 2013/11/27)

>  <Rbt.Parameter_File>
/export/apps/rDock/src/rDock_2013.1_src/data/scripts/dock_solv.prm

>  <Rbt.Receptor>
prm/pocket_docking_4.prm

>  <SCORE>
-13.4742

>  <SCORE.INTER>
-13.4742

>  <SCORE.INTER.CONST>
1

>  <SCORE.INTER.POLAR>
0

>  <SCORE.INTER.ROT>
0

>  <SCORE.INTER.SOLV>
11.6614

>  <SCORE.INTER.VDW>
-16.47

>  <SCORE.INTER.norm>
-1.34742

>  <SCORE.INTRA>
0

>  <SCORE.INTRA.DIHEDRAL>
0

>  <SCORE.INTRA.DIHEDRAL.0>
0

>  <SCORE.INTRA.POLAR>
0

>  <SCORE.INTRA.POLAR.0>
0

>  <SCORE.INTRA.REPUL>
0

>  <SCORE.INTRA.REPUL.0>
0

>  <SCORE.INTRA.SOLV>
0

>  <SCORE.INTRA.SOLV.lig_0>
-23.8949

>  <SCORE.INTRA.VDW>
0

>  <SCORE.INTRA.VDW.0>
0

>  <SCORE.INTRA.norm>
0

>  <SCORE.RESTR>
0

>  <SCORE.RESTR.CAVITY>
0

>  <SCORE.RESTR.norm>
0

>  <SCORE.SYSTEM>
0

>  <SCORE.SYSTEM.CONST>
0

>  <SCORE.SYSTEM.DIHEDRAL>
0

>  <SCORE.SYSTEM.SOLV>
0

>  <SCORE.SYSTEM.norm>
0

>  <SCORE.heavy>
10

>  <SCORE.norm>
-1.34742

>  <RMSD>
2.396

$$$$
ligand
 OpenBabel11021811513D
libRbt.so/2013.1/901 2013/11/27
 10 11  0  0  0  0  0  0  0  0999 V2000
  -30.4895   16.3612  -14.8977 N   0  0  0  0  0  0  0  0  0  0  0  0
  -29.8476   15.6272  -15.8165 C   0  0  0  0  0  0  0  0  0  0  0  0
  -29.5586   15.9318  -17.0811 N   0  0  0  0  0  0  0  0  0  0  0  0
  -30.0091   17.1583  -17.3907 C   0  0  0  0  0  0  0  0  0  0  0  0
  -30.6868   18.0281  -16.5567 C   0  0  0  0  0  0  0  0  0  0  0  0
  -30.9301   17.5897  -15.2394 C   0  0  0  0  0  0  0  0  0  0  0  0
  -31.5722   18.3250  -14.3261 N   0  0  0  0  0  0  0  0  0  0  0  0
  -30.9923   19.2043  -17.2201 N   0  0  0  0  0  0  0  0  0  0  0  0
  -30.5030   19.0227  -18.4243 C   0  0  0  0  0  0  0  0  0  0  0  0
  -29.8963   17.8093  -18.5962 N   0  0  0  0  0  0  0  0  0  0  0  0
  1  2  2  0  0  0  0
  1  6  1  0  0  0  0
  2  3  1  0  0  0  0
  3  4  2  0  0  0  0
  4  5  1  0  0  0  0
  4 10  1  0  0  0  0
  5  6  2  0  0  0  0
  5  8  1  0  0  0  0
  6  7  1  0  0  0  0
  8  9  1  0  0  0  0
  9 10  2  0  0  0  0
M  END
>  <CHROM.1>
-30.45262492,17.50733772,-16.54484615,-1.79948477,1.05670936,-0.92973632

>  <Name>
ligand

>  <RI>
0

>  <Rbt.Current_Directory>
/home/itssahil/PROJECTS/Mol_Feturizer/New_Systems/rnas/4TZX

>  <Rbt.Executable>
rbdock ($Id: //depot/dev/client3/rdock/2013.1/src/exe/rbdock.cxx#4 $)

>  <Rbt.Library>
libRbt.so (2013.1, Build901 2013/11/27)

>  <Rbt.Parameter_File>
/export/apps/rDock/src/rDock_2013.1_src/data/scripts/dock_solv.prm

>  <Rbt.Receptor>
prm/pocket_docking_4.prm

>  <SCORE>
-13.516

>  <SCORE.INTER>
-13.516

>  <SCORE.INTER.CONST>
1

>  <SCORE.INTER.POLAR>
0

>  <SCORE.INTER.ROT>
0

>  <SCORE.INTER.SOLV>
11.8427

>  <SCORE.INTER.VDW>
-16.5582

>  <SCORE.INTER.norm>
-1.3516

>  <SCORE.INTRA>
0

>  <SCORE.INTRA.DIHEDRAL>
0

>  <SCORE.INTRA.DIHEDRAL.0>
0

>  <SCORE.INTRA.POLAR>
0

>  <SCORE.INTRA.POLAR.0>
0

>  <SCORE.INTRA.REPUL>
0

>  <SCORE.INTRA.REPUL.0>
0

>  <SCORE.INTRA.SOLV>
0

>  <SCORE.INTRA.SOLV.lig_0>
-23.8949

>  <SCORE.INTRA.VDW>
0

>  <SCORE.INTRA.VDW.0>
0

>  <SCORE.INTRA.norm>
0

>  <SCORE.RESTR>
0

>  <SCORE.RESTR.CAVITY>
0

>  <SCORE.RESTR.norm>
0

>  <SCORE.SYSTEM>
0

>  <SCORE.SYSTEM.CONST>
0

>  <SCORE.SYSTEM.DIHEDRAL>
0

>  <SCORE.SYSTEM.SOLV>
0

>  <SCORE.SYSTEM.norm>
0

>  <SCORE.heavy>
10

>  <SCORE.norm>
-1.3516

>  <RMSD>
2.396

$$$$
ligand
 OpenBabel11021811513D
libRbt.so/2013.1/901 2013/11/27
 10 11  0  0  0  0  0  0  0  0999 V2000
  -30.4690   16.3725  -14.9132 N   0  0  0  0  0  0  0  0  0  0  0  0
  -29.8243   15.6441  -15.8344 C   0  0  0  0  0  0  0  0  0  0  0  0
  -29.5428   15.9510  -17.1001 N   0  0  0  0  0  0  0  0  0  0  0  0
  -30.0051   17.1735  -17.4081 C   0  0  0  0  0  0  0  0  0  0  0  0
  -30.6871   18.0375  -16.5716 C   0  0  0  0  0  0  0  0  0  0  0  0
  -30.9215   17.5971  -15.2533 C   0  0  0  0  0  0  0  0  0  0  0  0
  -31.5665   18.3269  -14.3376 N   0  0  0  0  0  0  0  0  0  0  0  0
  -31.0053   19.2109  -17.2338 N   0  0  0  0  0  0  0  0  0  0  0  0
  -30.5192   19.0334  -18.4400 C   0  0  0  0  0  0  0  0  0  0  0  0
  -29.9025   17.8253  -18.6141 N   0  0  0  0  0  0  0  0  0  0  0  0
  1  2  2  0  0  0  0
  1  6  1  0  0  0  0
  2  3  1  0  0  0  0
  3  4  2  0  0  0  0
  4  5  1  0  0  0  0
  4 10  1  0  0  0  0
  5  6  2  0  0  0  0
  5  8  1  0  0  0  0
  6  7  1  0  0  0  0
  8  9  1  0  0  0  0
  9 10  2  0  0  0  0
M  END
>  <CHROM.1>
-30.44839859,17.51877352,-16.56058303,-1.78281772,1.05198500,-0.94432237

>  <Name>
ligand

>  <RI>
0

>  <Rbt.Current_Directory>
/home/itssahil/PROJECTS/Mol_Feturizer/New_Systems/rnas/4TZX

>  <Rbt.Executable>
rbdock ($Id: //depot/dev/client3/rdock/2013.1/src/exe/rbdock.cxx#4 $)

>  <Rbt.Library>
libRbt.so (2013.1, Build901 2013/11/27)

>  <Rbt.Parameter_File>
/export/apps/rDock/src/rDock_2013.1_src/data/scripts/dock_solv.prm

>  <Rbt.Receptor>
prm/pocket_docking_5.prm

>  <SCORE>
-13.4926

>  <SCORE.INTER>
-13.4926

>  <SCORE.INTER.CONST>
1

>  <SCORE.INTER.POLAR>
0

>  <SCORE.INTER.ROT>
0

>  <SCORE.INTER.SOLV>
11.7937

>  <SCORE.INTER.VDW>
-16.5263

>  <SCORE.INTER.norm>
-1.34926

>  <SCORE.INTRA>
0

>  <SCORE.INTRA.DIHEDRAL>
0

>  <SCORE.INTRA.DIHEDRAL.0>
0

>  <SCORE.INTRA.POLAR>
0

>  <SCORE.INTRA.POLAR.0>
0

>  <SCORE.INTRA.REPUL>
0

>  <SCORE.INTRA.REPUL.0>
0

>  <SCORE.INTRA.SOLV>
0

>  <SCORE.INTRA.SOLV.lig_0>
-23.8949

>  <SCORE.INTRA.VDW>
0

>  <SCORE.INTRA.VDW.0>
0

>  <SCORE.INTRA.norm>
0

>  <SCORE.RESTR>
0

>  <SCORE.RESTR.CAVITY>
0

>  <SCORE.RESTR.norm>
0

>  <SCORE.SYSTEM>
0

>  <SCORE.SYSTEM.CONST>
0

>  <SCORE.SYSTEM.DIHEDRAL>
0

>  <SCORE.SYSTEM.SOLV>
0

>  <SCORE.SYSTEM.norm>
0

>  <SCORE.heavy>
10

>  <SCORE.norm>
-1.34926

>  <RMSD>
2.396

$$$$
ligand
 OpenBabel11021811513D
libRbt.so/2013.1/901 2013/11/27
 10 11  0  0  0  0  0  0  0  0999 V2000
  -30.4888   16.3540  -14.9028 N   0  0  0  0  0  0  0  0  0  0  0  0
  -29.8455   15.6243  -15.8240 C   0  0  0  0  0  0  0  0  0  0  0  0
  -29.5625   15.9312  -17.0894 N   0  0  0  0  0  0  0  0  0  0  0  0
  -30.0213   17.1550  -17.3970 C   0  0  0  0  0  0  0  0  0  0  0  0
  -30.7015   18.0204  -16.5605 C   0  0  0  0  0  0  0  0  0  0  0  0
  -30.9378   17.5800  -15.2425 C   0  0  0  0  0  0  0  0  0  0  0  0
  -31.5814   18.3111  -14.3269 N   0  0  0  0  0  0  0  0  0  0  0  0
  -31.0162   19.1950  -17.2223 N   0  0  0  0  0  0  0  0  0  0  0  0
  -30.5298   19.0168  -18.4282 C   0  0  0  0  0  0  0  0  0  0  0  0
  -29.9163   17.8072  -18.6026 N   0  0  0  0  0  0  0  0  0  0  0  0
  1  2  2  0  0  0  0
  1  6  1  0  0  0  0
  2  3  1  0  0  0  0
  3  4  2  0  0  0  0
  4  5  1  0  0  0  0
  4 10  1  0  0  0  0
  5  6  2  0  0  0  0
  5  8  1  0  0  0  0
  6  7  1  0  0  0  0
  8  9  1  0  0  0  0
  9 10  2  0  0  0  0
M  END
>  <CHROM.1>
-30.46417130,17.50103724,-16.54957446,-1.78691367,1.05380730,-0.94025816

>  <Name>
ligand

>  <RI>
0

>  <Rbt.Current_Directory>
/home/itssahil/PROJECTS/Mol_Feturizer/New_Systems/rnas/4TZX

>  <Rbt.Executable>
rbdock ($Id: //depot/dev/client3/rdock/2013.1/src/exe/rbdock.cxx#4 $)

>  <Rbt.Library>
libRbt.so (2013.1, Build901 2013/11/27)

>  <Rbt.Parameter_File>
/export/apps/rDock/src/rDock_2013.1_src/data/scripts/dock_solv.prm

>  <Rbt.Receptor>
prm/pocket_docking_5.prm

>  <SCORE>
-13.4768

>  <SCORE.INTER>
-13.4768

>  <SCORE.INTER.CONST>
1

>  <SCORE.INTER.POLAR>
0

>  <SCORE.INTER.ROT>
0

>  <SCORE.INTER.SOLV>
11.8285

>  <SCORE.INTER.VDW>
-16.5274

>  <SCORE.INTER.norm>
-1.34768

>  <SCORE.INTRA>
0

>  <SCORE.INTRA.DIHEDRAL>
0

>  <SCORE.INTRA.DIHEDRAL.0>
0

>  <SCORE.INTRA.POLAR>
0

>  <SCORE.INTRA.POLAR.0>
0

>  <SCORE.INTRA.REPUL>
0

>  <SCORE.INTRA.REPUL.0>
0

>  <SCORE.INTRA.SOLV>
0

>  <SCORE.INTRA.SOLV.lig_0>
-23.8949

>  <SCORE.INTRA.VDW>
0

>  <SCORE.INTRA.VDW.0>
0

>  <SCORE.INTRA.norm>
0

>  <SCORE.RESTR>
0

>  <SCORE.RESTR.CAVITY>
0

>  <SCORE.RESTR.norm>
0

>  <SCORE.SYSTEM>
0

>  <SCORE.SYSTEM.CONST>
0

>  <SCORE.SYSTEM.DIHEDRAL>
0

>  <SCORE.SYSTEM.SOLV>
0

>  <SCORE.SYSTEM.norm>
0

>  <SCORE.heavy>
10

>  <SCORE.norm>
-1.34768

>  <RMSD>
2.396

$$$$
ligand
 OpenBabel11021811513D
libRbt.so/2013.1/901 2013/11/27
 10 11  0  0  0  0  0  0  0  0999 V2000
  -30.4627   16.3792  -14.9027 N   0  0  0  0  0  0  0  0  0  0  0  0
  -29.8103   15.6498  -15.8176 C   0  0  0  0  0  0  0  0  0  0  0  0
  -29.5256   15.9519  -17.0838 N   0  0  0  0  0  0  0  0  0  0  0  0
  -29.9936   17.1700  -17.3999 C   0  0  0  0  0  0  0  0  0  0  0  0
  -30.6839   18.0344  -16.5705 C   0  0  0  0  0  0  0  0  0  0  0  0
  -30.9209   17.5995  -15.2509 C   0  0  0  0  0  0  0  0  0  0  0  0
  -31.5736   18.3303  -14.3415 N   0  0  0  0  0  0  0  0  0  0  0  0
  -31.0062   19.2026  -17.2400 N   0  0  0  0  0  0  0  0  0  0  0  0
  -30.5143   19.0217  -18.4433 C   0  0  0  0  0  0  0  0  0  0  0  0
  -29.8901   17.8163  -18.6088 N   0  0  0  0  0  0  0  0  0  0  0  0
  1  2  2  0  0  0  0
  1  6  1  0  0  0  0
  2  3  1  0  0  0  0
  3  4  2  0  0  0  0
  4  5  1  0  0  0  0
  4 10  1  0  0  0  0
  5  6  2  0  0  0  0
  5  8  1  0  0  0  0
  6  7  1  0  0  0  0
  8  9  1  0  0  0  0
  9 10  2  0  0  0  0
M  END
>  <CHROM.1>
-30.44220619,17.51711941,-16.55587554,-1.78242341,1.04507321,-0.94980262

>  <Name>
ligand

>  <RI>
0

>  <Rbt.Current_Directory>
/home/itssahil/PROJECTS/Mol_Feturizer/New_Systems/rnas/4TZX

>  <Rbt.Executable>
rbdock ($Id: //depot/dev/client3/rdock/2013.1/src/exe/rbdock.cxx#4 $)

>  <Rbt.Library>
libRbt.so (2013.1, Build901 2013/11/27)

>  <Rbt.Parameter_File>
/export/apps/rDock/src/rDock_2013.1_src/data/scripts/dock_solv.prm

>  <Rbt.Receptor>
prm/pocket_docking_6.prm

>  <SCORE>
-13.4892

>  <SCORE.INTER>
-13.4892

>  <SCORE.INTER.CONST>
1

>  <SCORE.INTER.POLAR>
0

>  <SCORE.INTER.ROT>
0

>  <SCORE.INTER.SOLV>
11.7996

>  <SCORE.INTER.VDW>
-16.526

>  <SCORE.INTER.norm>
-1.34892

>  <SCORE.INTRA>
0

>  <SCORE.INTRA.DIHEDRAL>
0

>  <SCORE.INTRA.DIHEDRAL.0>
0

>  <SCORE.INTRA.POLAR>
0

>  <SCORE.INTRA.POLAR.0>
0

>  <SCORE.INTRA.REPUL>
0

>  <SCORE.INTRA.REPUL.0>
0

>  <SCORE.INTRA.SOLV>
0

>  <SCORE.INTRA.SOLV.lig_0>
-23.8949

>  <SCORE.INTRA.VDW>
0

>  <SCORE.INTRA.VDW.0>
0

>  <SCORE.INTRA.norm>
0

>  <SCORE.RESTR>
0

>  <SCORE.RESTR.CAVITY>
0

>  <SCORE.RESTR.norm>
0

>  <SCORE.SYSTEM>
0

>  <SCORE.SYSTEM.CONST>
0

>  <SCORE.SYSTEM.DIHEDRAL>
0

>  <SCORE.SYSTEM.SOLV>
0

>  <SCORE.SYSTEM.norm>
0

>  <SCORE.heavy>
10

>  <SCORE.norm>
-1.34892

>  <RMSD>
2.396

$$$$
ligand
 OpenBabel11021811513D
libRbt.so/2013.1/901 2013/11/27
 10 11  0  0  0  0  0  0  0  0999 V2000
  -30.4632   16.3732  -14.9128 N   0  0  0  0  0  0  0  0  0  0  0  0
  -29.8181   15.6444  -15.8334 C   0  0  0  0  0  0  0  0  0  0  0  0
  -29.5371   15.9503  -17.0994 N   0  0  0  0  0  0  0  0  0  0  0  0
  -30.0005   17.1720  -17.4086 C   0  0  0  0  0  0  0  0  0  0  0  0
  -30.6832   18.0363  -16.5728 C   0  0  0  0  0  0  0  0  0  0  0  0
  -30.9169   17.5970  -15.2540 C   0  0  0  0  0  0  0  0  0  0  0  0
  -31.5623   18.3272  -14.3389 N   0  0  0  0  0  0  0  0  0  0  0  0
  -31.0026   19.2087  -17.2362 N   0  0  0  0  0  0  0  0  0  0  0  0
  -30.5165   19.0304  -18.4422 C   0  0  0  0  0  0  0  0  0  0  0  0
  -29.8989   17.8227  -18.6152 N   0  0  0  0  0  0  0  0  0  0  0  0
  1  2  2  0  0  0  0
  1  6  1  0  0  0  0
  2  3  1  0  0  0  0
  3  4  2  0  0  0  0
  4  5  1  0  0  0  0
  4 10  1  0  0  0  0
  5  6  2  0  0  0  0
  5  8  1  0  0  0  0
  6  7  1  0  0  0  0
  8  9  1  0  0  0  0
  9 10  2  0  0  0  0
M  END
>  <CHROM.1>
-30.44397270,17.51776334,-16.56131094,-1.78137165,1.05139965,-0.94659438

>  <Name>
ligand

>  <RI>
0

>  <Rbt.Current_Directory>
/home/itssahil/PROJECTS/Mol_Feturizer/New_Systems/rnas/4TZX

>  <Rbt.Executable>
rbdock ($Id: //depot/dev/client3/rdock/2013.1/src/exe/rbdock.cxx#4 $)

>  <Rbt.Library>
libRbt.so (2013.1, Build901 2013/11/27)

>  <Rbt.Parameter_File>
/export/apps/rDock/src/rDock_2013.1_src/data/scripts/dock_solv.prm

>  <Rbt.Receptor>
prm/pocket_docking_7.prm

>  <SCORE>
-13.4935

>  <SCORE.INTER>
-13.4935

>  <SCORE.INTER.CONST>
1

>  <SCORE.INTER.POLAR>
0

>  <SCORE.INTER.ROT>
0

>  <SCORE.INTER.SOLV>
11.78

>  <SCORE.INTER.VDW>
-16.5224

>  <SCORE.INTER.norm>
-1.34935

>  <SCORE.INTRA>
0

>  <SCORE.INTRA.DIHEDRAL>
0

>  <SCORE.INTRA.DIHEDRAL.0>
0

>  <SCORE.INTRA.POLAR>
0

>  <SCORE.INTRA.POLAR.0>
0

>  <SCORE.INTRA.REPUL>
0

>  <SCORE.INTRA.REPUL.0>
0

>  <SCORE.INTRA.SOLV>
0

>  <SCORE.INTRA.SOLV.lig_0>
-23.8949

>  <SCORE.INTRA.VDW>
0

>  <SCORE.INTRA.VDW.0>
0

>  <SCORE.INTRA.norm>
0

>  <SCORE.RESTR>
0

>  <SCORE.RESTR.CAVITY>
0

>  <SCORE.RESTR.norm>
0

>  <SCORE.SYSTEM>
0

>  <SCORE.SYSTEM.CONST>
0

>  <SCORE.SYSTEM.DIHEDRAL>
0

>  <SCORE.SYSTEM.SOLV>
0

>  <SCORE.SYSTEM.norm>
0

>  <SCORE.heavy>
10

>  <SCORE.norm>
-1.34935

>  <RMSD>
2.396

$$$$
ligand
 OpenBabel11021811513D
libRbt.so/2013.1/901 2013/11/27
 10 11  0  0  0  0  0  0  0  0999 V2000
  -30.4390   16.3761  -14.9132 N   0  0  0  0  0  0  0  0  0  0  0  0
  -29.7998   15.6308  -15.8247 C   0  0  0  0  0  0  0  0  0  0  0  0
  -29.5313   15.9119  -17.0992 N   0  0  0  0  0  0  0  0  0  0  0  0
  -30.0014   17.1257  -17.4287 C   0  0  0  0  0  0  0  0  0  0  0  0
  -30.6793   18.0046  -16.6044 C   0  0  0  0  0  0  0  0  0  0  0  0
  -30.8996   17.5914  -15.2749 C   0  0  0  0  0  0  0  0  0  0  0  0
  -31.5391   18.3380  -14.3689 N   0  0  0  0  0  0  0  0  0  0  0  0
  -31.0084   19.1624  -17.2883 N   0  0  0  0  0  0  0  0  0  0  0  0
  -30.5326   18.9613  -18.4949 C   0  0  0  0  0  0  0  0  0  0  0  0
  -29.9127   17.7522  -18.6491 N   0  0  0  0  0  0  0  0  0  0  0  0
  1  2  2  0  0  0  0
  1  6  1  0  0  0  0
  2  3  1  0  0  0  0
  3  4  2  0  0  0  0
  4  5  1  0  0  0  0
  4 10  1  0  0  0  0
  5  6  2  0  0  0  0
  5  8  1  0  0  0  0
  6  7  1  0  0  0  0
  8  9  1  0  0  0  0
  9 10  2  0  0  0  0
M  END
>  <CHROM.1>
-30.43828770,17.48716142,-16.58458373,-1.76280205,1.05398773,-0.98292964

>  <Name>
ligand

>  <RI>
0

>  <Rbt.Current_Directory>
/home/itssahil/PROJECTS/Mol_Feturizer/New_Systems/rnas/4TZX

>  <Rbt.Executable>
rbdock ($Id: //depot/dev/client3/rdock/2013.1/src/exe/rbdock.cxx#4 $)

>  <Rbt.Library>
libRbt.so (2013.1, Build901 2013/11/27)

>  <Rbt.Parameter_File>
/export/apps/rDock/src/rDock_2013.1_src/data/scripts/dock_solv.prm

>  <Rbt.Receptor>
prm/pocket_docking_8.prm

>  <SCORE>
-13.4761

>  <SCORE.INTER>
-13.4761

>  <SCORE.INTER.CONST>
1

>  <SCORE.INTER.POLAR>
0

>  <SCORE.INTER.ROT>
0

>  <SCORE.INTER.SOLV>
11.6719

>  <SCORE.INTER.VDW>
-16.4747

>  <SCORE.INTER.norm>
-1.34761

>  <SCORE.INTRA>
0

>  <SCORE.INTRA.DIHEDRAL>
0

>  <SCORE.INTRA.DIHEDRAL.0>
0

>  <SCORE.INTRA.POLAR>
0

>  <SCORE.INTRA.POLAR.0>
0

>  <SCORE.INTRA.REPUL>
0

>  <SCORE.INTRA.REPUL.0>
0

>  <SCORE.INTRA.SOLV>
0

>  <SCORE.INTRA.SOLV.lig_0>
-23.8949

>  <SCORE.INTRA.VDW>
0

>  <SCORE.INTRA.VDW.0>
0

>  <SCORE.INTRA.norm>
0

>  <SCORE.RESTR>
0

>  <SCORE.RESTR.CAVITY>
0

>  <SCORE.RESTR.norm>
0

>  <SCORE.SYSTEM>
0

>  <SCORE.SYSTEM.CONST>
0

>  <SCORE.SYSTEM.DIHEDRAL>
0

>  <SCORE.SYSTEM.SOLV>
0

>  <SCORE.SYSTEM.norm>
0

>  <SCORE.heavy>
10

>  <SCORE.norm>
-1.34761

>  <RMSD>
2.396

$$$$
ligand
 OpenBabel11021811513D
libRbt.so/2013.1/901 2013/11/27
 10 11  0  0  0  0  0  0  0  0999 V2000
  -30.4918   16.3644  -14.8990 N   0  0  0  0  0  0  0  0  0  0  0  0
  -29.8389   15.6332  -15.8121 C   0  0  0  0  0  0  0  0  0  0  0  0
  -29.5446   15.9369  -17.0757 N   0  0  0  0  0  0  0  0  0  0  0  0
  -30.0024   17.1591  -17.3910 C   0  0  0  0  0  0  0  0  0  0  0  0
  -30.6918   18.0258  -16.5633 C   0  0  0  0  0  0  0  0  0  0  0  0
  -30.9396   17.5887  -15.2464 C   0  0  0  0  0  0  0  0  0  0  0  0
  -31.5928   18.3213  -14.3387 N   0  0  0  0  0  0  0  0  0  0  0  0
  -31.0022   19.1980  -17.2313 N   0  0  0  0  0  0  0  0  0  0  0  0
  -30.5043   19.0173  -18.4321 C   0  0  0  0  0  0  0  0  0  0  0  0
  -29.8873   17.8081  -18.5974 N   0  0  0  0  0  0  0  0  0  0  0  0
  1  2  2  0  0  0  0
  1  6  1  0  0  0  0
  2  3  1  0  0  0  0
  3  4  2  0  0  0  0
  4  5  1  0  0  0  0
  4 10  1  0  0  0  0
  5  6  2  0  0  0  0
  5  8  1  0  0  0  0
  6  7  1  0  0  0  0
  8  9  1  0  0  0  0
  9 10  2  0  0  0  0
M  END
>  <CHROM.1>
-30.45374896,17.50685270,-16.54871640,-1.80005056,1.04701666,-0.93165898

>  <Name>
ligand

>  <RI>
0

>  <Rbt.Current_Directory>
/home/itssahil/PROJECTS/Mol_Feturizer/New_Systems/rnas/4TZX

>  <Rbt.Executable>
rbdock ($Id: //depot/dev/client3/rdock/2013.1/src/exe/rbdock.cxx#4 $)

>  <Rbt.Library>
libRbt.so (2013.1, Build901 2013/11/27)

>  <Rbt.Parameter_File>
/export/apps/rDock/src/rDock_2013.1_src/data/scripts/dock_solv.prm

>  <Rbt.Receptor>
prm/blind_docking_100.prm

>  <SCORE>
-13.5176

>  <SCORE.INTER>
-13.5176

>  <SCORE.INTER.CONST>
1

>  <SCORE.INTER.POLAR>
0

>  <SCORE.INTER.ROT>
0

>  <SCORE.INTER.SOLV>
11.8482

>  <SCORE.INTER.VDW>
-16.5611

>  <SCORE.INTER.norm>
-1.35176

>  <SCORE.INTRA>
0

>  <SCORE.INTRA.DIHEDRAL>
0

>  <SCORE.INTRA.DIHEDRAL.0>
0

>  <SCORE.INTRA.POLAR>
0

>  <SCORE.INTRA.POLAR.0>
0

>  <SCORE.INTRA.REPUL>
0

>  <SCORE.INTRA.REPUL.0>
0

>  <SCORE.INTRA.SOLV>
0

>  <SCORE.INTRA.SOLV.lig_0>
-23.8949

>  <SCORE.INTRA.VDW>
0

>  <SCORE.INTRA.VDW.0>
0

>  <SCORE.INTRA.norm>
0

>  <SCORE.RESTR>
0

>  <SCORE.RESTR.CAVITY>
0

>  <SCORE.RESTR.norm>
0

>  <SCORE.SYSTEM>
0

>  <SCORE.SYSTEM.CONST>
0

>  <SCORE.SYSTEM.DIHEDRAL>
0

>  <SCORE.SYSTEM.SOLV>
0

>  <SCORE.SYSTEM.norm>
0

>  <SCORE.heavy>
10

>  <SCORE.norm>
-1.35176

>  <RMSD>
2.397

$$$$
ligand
 OpenBabel11021811513D
libRbt.so/2013.1/901 2013/11/27
 10 11  0  0  0  0  0  0  0  0999 V2000
  -30.4841   16.3520  -14.8977 N   0  0  0  0  0  0  0  0  0  0  0  0
  -29.8361   15.6217  -15.8150 C   0  0  0  0  0  0  0  0  0  0  0  0
  -29.5440   15.9290  -17.0783 N   0  0  0  0  0  0  0  0  0  0  0  0
  -29.9984   17.1539  -17.3881 C   0  0  0  0  0  0  0  0  0  0  0  0
  -30.6825   18.0200  -16.5555 C   0  0  0  0  0  0  0  0  0  0  0  0
  -30.9285   17.5791  -15.2395 C   0  0  0  0  0  0  0  0  0  0  0  0
  -31.5768   18.3107  -14.3276 N   0  0  0  0  0  0  0  0  0  0  0  0
  -30.9905   19.1957  -17.2185 N   0  0  0  0  0  0  0  0  0  0  0  0
  -30.4964   19.0174  -18.4213 C   0  0  0  0  0  0  0  0  0  0  0  0
  -29.8841   17.8067  -18.5925 N   0  0  0  0  0  0  0  0  0  0  0  0
  1  2  2  0  0  0  0
  1  6  1  0  0  0  0
  2  3  1  0  0  0  0
  3  4  2  0  0  0  0
  4  5  1  0  0  0  0
  4 10  1  0  0  0  0
  5  6  2  0  0  0  0
  5  8  1  0  0  0  0
  6  7  1  0  0  0  0
  8  9  1  0  0  0  0
  9 10  2  0  0  0  0
M  END
>  <CHROM.1>
-30.44627029,17.50017211,-16.54337144,-1.80008608,1.05138613,-0.92807985

>  <Name>
ligand

>  <RI>
0

>  <Rbt.Current_Directory>
/home/itssahil/PROJECTS/Mol_Feturizer/New_Systems/rnas/4TZX

>  <Rbt.Executable>
rbdock ($Id: //depot/dev/client3/rdock/2013.1/src/exe/rbdock.cxx#4 $)

>  <Rbt.Library>
libRbt.so (2013.1, Build901 2013/11/27)

>  <Rbt.Parameter_File>
/export/apps/rDock/src/rDock_2013.1_src/data/scripts/dock_solv.prm

>  <Rbt.Receptor>
prm/blind_docking_100.prm

>  <SCORE>
-13.5101

>  <SCORE.INTER>
-13.5101

>  <SCORE.INTER.CONST>
1

>  <SCORE.INTER.POLAR>
0

>  <SCORE.INTER.ROT>
0

>  <SCORE.INTER.SOLV>
11.8201

>  <SCORE.INTER.VDW>
-16.5468

>  <SCORE.INTER.norm>
-1.35101

>  <SCORE.INTRA>
0

>  <SCORE.INTRA.DIHEDRAL>
0

>  <SCORE.INTRA.DIHEDRAL.0>
0

>  <SCORE.INTRA.POLAR>
0

>  <SCORE.INTRA.POLAR.0>
0

>  <SCORE.INTRA.REPUL>
0

>  <SCORE.INTRA.REPUL.0>
0

>  <SCORE.INTRA.SOLV>
0

>  <SCORE.INTRA.SOLV.lig_0>
-23.8949

>  <SCORE.INTRA.VDW>
0

>  <SCORE.INTRA.VDW.0>
0

>  <SCORE.INTRA.norm>
0

>  <SCORE.RESTR>
0

>  <SCORE.RESTR.CAVITY>
0

>  <SCORE.RESTR.norm>
0

>  <SCORE.SYSTEM>
0

>  <SCORE.SYSTEM.CONST>
0

>  <SCORE.SYSTEM.DIHEDRAL>
0

>  <SCORE.SYSTEM.SOLV>
0

>  <SCORE.SYSTEM.norm>
0

>  <SCORE.heavy>
10

>  <SCORE.norm>
-1.35101

>  <RMSD>
2.397

$$$$
ligand
 OpenBabel11021811513D
libRbt.so/2013.1/901 2013/11/27
 10 11  0  0  0  0  0  0  0  0999 V2000
  -30.5036   16.3765  -14.9003 N   0  0  0  0  0  0  0  0  0  0  0  0
  -29.8552   15.6407  -15.8130 C   0  0  0  0  0  0  0  0  0  0  0  0
  -29.5609   15.9411  -17.0774 N   0  0  0  0  0  0  0  0  0  0  0  0
  -30.0132   17.1650  -17.3941 C   0  0  0  0  0  0  0  0  0  0  0  0
  -30.6974   18.0363  -16.5669 C   0  0  0  0  0  0  0  0  0  0  0  0
  -30.9458   17.6025  -15.2490 C   0  0  0  0  0  0  0  0  0  0  0  0
  -31.5944   18.3397  -14.3418 N   0  0  0  0  0  0  0  0  0  0  0  0
  -31.0028   19.2090  -17.2364 N   0  0  0  0  0  0  0  0  0  0  0  0
  -30.5072   19.0239  -18.4375 C   0  0  0  0  0  0  0  0  0  0  0  0
  -29.8963   17.8115  -18.6016 N   0  0  0  0  0  0  0  0  0  0  0  0
  1  2  2  0  0  0  0
  1  6  1  0  0  0  0
  2  3  1  0  0  0  0
  3  4  2  0  0  0  0
  4  5  1  0  0  0  0
  4 10  1  0  0  0  0
  5  6  2  0  0  0  0
  5  8  1  0  0  0  0
  6  7  1  0  0  0  0
  8  9  1  0  0  0  0
  9 10  2  0  0  0  0
M  END
>  <CHROM.1>
-30.46181071,17.51622888,-16.55180890,-1.80402695,1.05161018,-0.92977745

>  <Name>
ligand

>  <RI>
0

>  <Rbt.Current_Directory>
/home/itssahil/PROJECTS/Mol_Feturizer/New_Systems/rnas/4TZX

>  <Rbt.Executable>
rbdock ($Id: //depot/dev/client3/rdock/2013.1/src/exe/rbdock.cxx#4 $)

>  <Rbt.Library>
libRbt.so (2013.1, Build901 2013/11/27)

>  <Rbt.Parameter_File>
/export/apps/rDock/src/rDock_2013.1_src/data/scripts/dock_solv.prm

>  <Rbt.Receptor>
prm/blind_docking_60.prm

>  <SCORE>
-13.5224

>  <SCORE.INTER>
-13.5224

>  <SCORE.INTER.CONST>
1

>  <SCORE.INTER.POLAR>
0

>  <SCORE.INTER.ROT>
0

>  <SCORE.INTER.SOLV>
11.8841

>  <SCORE.INTER.VDW>
-16.5763

>  <SCORE.INTER.norm>
-1.35224

>  <SCORE.INTRA>
0

>  <SCORE.INTRA.DIHEDRAL>
0

>  <SCORE.INTRA.DIHEDRAL.0>
0

>  <SCORE.INTRA.POLAR>
0

>  <SCORE.INTRA.POLAR.0>
0

>  <SCORE.INTRA.REPUL>
0

>  <SCORE.INTRA.REPUL.0>
0

>  <SCORE.INTRA.SOLV>
0

>  <SCORE.INTRA.SOLV.lig_0>
-23.8949

>  <SCORE.INTRA.VDW>
0

>  <SCORE.INTRA.VDW.0>
0

>  <SCORE.INTRA.norm>
0

>  <SCORE.RESTR>
0

>  <SCORE.RESTR.CAVITY>
0

>  <SCORE.RESTR.norm>
0

>  <SCORE.SYSTEM>
0

>  <SCORE.SYSTEM.CONST>
0

>  <SCORE.SYSTEM.DIHEDRAL>
0

>  <SCORE.SYSTEM.SOLV>
0

>  <SCORE.SYSTEM.norm>
0

>  <SCORE.heavy>
10

>  <SCORE.norm>
-1.35224

>  <RMSD>
2.397

$$$$
ligand
 OpenBabel11021811513D
libRbt.so/2013.1/901 2013/11/27
 10 11  0  0  0  0  0  0  0  0999 V2000
  -30.4921   16.3581  -14.9042 N   0  0  0  0  0  0  0  0  0  0  0  0
  -29.8397   15.6289  -15.8192 C   0  0  0  0  0  0  0  0  0  0  0  0
  -29.5461   15.9354  -17.0823 N   0  0  0  0  0  0  0  0  0  0  0  0
  -30.0042   17.1582  -17.3947 C   0  0  0  0  0  0  0  0  0  0  0  0
  -30.6931   18.0231  -16.5647 C   0  0  0  0  0  0  0  0  0  0  0  0
  -30.9402   17.5831  -15.2486 C   0  0  0  0  0  0  0  0  0  0  0  0
  -31.5929   18.3138  -14.3391 N   0  0  0  0  0  0  0  0  0  0  0  0
  -31.0039   19.1967  -17.2301 N   0  0  0  0  0  0  0  0  0  0  0  0
  -30.5067   19.0185  -18.4316 C   0  0  0  0  0  0  0  0  0  0  0  0
  -29.8898   17.8098  -18.5998 N   0  0  0  0  0  0  0  0  0  0  0  0
  1  2  2  0  0  0  0
  1  6  1  0  0  0  0
  2  3  1  0  0  0  0
  3  4  2  0  0  0  0
  4  5  1  0  0  0  0
  4 10  1  0  0  0  0
  5  6  2  0  0  0  0
  5  8  1  0  0  0  0
  6  7  1  0  0  0  0
  8  9  1  0  0  0  0
  9 10  2  0  0  0  0
M  END
>  <CHROM.1>
-30.45500820,17.50411089,-16.55143396,-1.79909904,1.04730990,-0.93034159

>  <Name>
ligand

>  <RI>
0

>  <Rbt.Current_Directory>
/home/itssahil/PROJECTS/Mol_Feturizer/New_Systems/rnas/4TZX

>  <Rbt.Executable>
rbdock ($Id: //depot/dev/client3/rdock/2013.1/src/exe/rbdock.cxx#4 $)

>  <Rbt.Library>
libRbt.so (2013.1, Build901 2013/11/27)

>  <Rbt.Parameter_File>
/export/apps/rDock/src/rDock_2013.1_src/data/scripts/dock_solv.prm

>  <Rbt.Receptor>
prm/blind_docking_60.prm

>  <SCORE>
-13.5169

>  <SCORE.INTER>
-13.5169

>  <SCORE.INTER.CONST>
1

>  <SCORE.INTER.POLAR>
0

>  <SCORE.INTER.ROT>
0

>  <SCORE.INTER.SOLV>
11.8344

>  <SCORE.INTER.VDW>
-16.5561

>  <SCORE.INTER.norm>
-1.35169

>  <SCORE.INTRA>
0

>  <SCORE.INTRA.DIHEDRAL>
0

>  <SCORE.INTRA.DIHEDRAL.0>
0

>  <SCORE.INTRA.POLAR>
0

>  <SCORE.INTRA.POLAR.0>
0

>  <SCORE.INTRA.REPUL>
0

>  <SCORE.INTRA.REPUL.0>
0

>  <SCORE.INTRA.SOLV>
0

>  <SCORE.INTRA.SOLV.lig_0>
-23.8949

>  <SCORE.INTRA.VDW>
0

>  <SCORE.INTRA.VDW.0>
0

>  <SCORE.INTRA.norm>
0

>  <SCORE.RESTR>
0

>  <SCORE.RESTR.CAVITY>
0

>  <SCORE.RESTR.norm>
0

>  <SCORE.SYSTEM>
0

>  <SCORE.SYSTEM.CONST>
0

>  <SCORE.SYSTEM.DIHEDRAL>
0

>  <SCORE.SYSTEM.SOLV>
0

>  <SCORE.SYSTEM.norm>
0

>  <SCORE.heavy>
10

>  <SCORE.norm>
-1.35169

>  <RMSD>
2.397

$$$$
ligand
 OpenBabel11021811513D
libRbt.so/2013.1/901 2013/11/27
 10 11  0  0  0  0  0  0  0  0999 V2000
  -30.4558   16.3828  -14.9026 N   0  0  0  0  0  0  0  0  0  0  0  0
  -29.8073   15.6369  -15.8069 C   0  0  0  0  0  0  0  0  0  0  0  0
  -29.5292   15.9154  -17.0799 N   0  0  0  0  0  0  0  0  0  0  0  0
  -29.9998   17.1271  -17.4164 C   0  0  0  0  0  0  0  0  0  0  0  0
  -30.6866   18.0064  -16.5999 C   0  0  0  0  0  0  0  0  0  0  0  0
  -30.9167   17.5960  -15.2712 C   0  0  0  0  0  0  0  0  0  0  0  0
  -31.5655   18.3432  -14.3723 N   0  0  0  0  0  0  0  0  0  0  0  0
  -31.0132   19.1615  -17.2895 N   0  0  0  0  0  0  0  0  0  0  0  0
  -30.5272   18.9585  -18.4916 C   0  0  0  0  0  0  0  0  0  0  0  0
  -29.9028   17.7507  -18.6377 N   0  0  0  0  0  0  0  0  0  0  0  0
  1  2  2  0  0  0  0
  1  6  1  0  0  0  0
  2  3  1  0  0  0  0
  3  4  2  0  0  0  0
  4  5  1  0  0  0  0
  4 10  1  0  0  0  0
  5  6  2  0  0  0  0
  5  8  1  0  0  0  0
  6  7  1  0  0  0  0
  8  9  1  0  0  0  0
  9 10  2  0  0  0  0
M  END
>  <CHROM.1>
-30.44445484,17.48960963,-16.57678131,-1.77335614,1.04727546,-0.97636084

>  <Name>
ligand

>  <RI>
0

>  <Rbt.Current_Directory>
/home/itssahil/PROJECTS/Mol_Feturizer/New_Systems/rnas/4TZX

>  <Rbt.Executable>
rbdock ($Id: //depot/dev/client3/rdock/2013.1/src/exe/rbdock.cxx#4 $)

>  <Rbt.Library>
libRbt.so (2013.1, Build901 2013/11/27)

>  <Rbt.Parameter_File>
/export/apps/rDock/src/rDock_2013.1_src/data/scripts/dock_solv.prm

>  <Rbt.Receptor>
prm/blind_docking_80.prm

>  <SCORE>
-13.4756

>  <SCORE.INTER>
-13.4756

>  <SCORE.INTER.CONST>
1

>  <SCORE.INTER.POLAR>
0

>  <SCORE.INTER.ROT>
0

>  <SCORE.INTER.SOLV>
11.7341

>  <SCORE.INTER.VDW>
-16.4951

>  <SCORE.INTER.norm>
-1.34756

>  <SCORE.INTRA>
0

>  <SCORE.INTRA.DIHEDRAL>
0

>  <SCORE.INTRA.DIHEDRAL.0>
0

>  <SCORE.INTRA.POLAR>
0

>  <SCORE.INTRA.POLAR.0>
0

>  <SCORE.INTRA.REPUL>
0

>  <SCORE.INTRA.REPUL.0>
0

>  <SCORE.INTRA.SOLV>
0

>  <SCORE.INTRA.SOLV.lig_0>
-23.8949

>  <SCORE.INTRA.VDW>
0

>  <SCORE.INTRA.VDW.0>
0

>  <SCORE.INTRA.norm>
0

>  <SCORE.RESTR>
0

>  <SCORE.RESTR.CAVITY>
0

>  <SCORE.RESTR.norm>
0

>  <SCORE.SYSTEM>
0

>  <SCORE.SYSTEM.CONST>
0

>  <SCORE.SYSTEM.DIHEDRAL>
0

>  <SCORE.SYSTEM.SOLV>
0

>  <SCORE.SYSTEM.norm>
0

>  <SCORE.heavy>
10

>  <SCORE.norm>
-1.34756

>  <RMSD>
2.397

$$$$
ligand
 OpenBabel11021811513D
libRbt.so/2013.1/901 2013/11/27
 10 11  0  0  0  0  0  0  0  0999 V2000
  -30.4910   16.3672  -14.8956 N   0  0  0  0  0  0  0  0  0  0  0  0
  -29.8376   15.6365  -15.8088 C   0  0  0  0  0  0  0  0  0  0  0  0
  -29.5416   15.9415  -17.0717 N   0  0  0  0  0  0  0  0  0  0  0  0
  -29.9983   17.1644  -17.3861 C   0  0  0  0  0  0  0  0  0  0  0  0
  -30.6879   18.0306  -16.5581 C   0  0  0  0  0  0  0  0  0  0  0  0
  -30.9376   17.5922  -15.2420 C   0  0  0  0  0  0  0  0  0  0  0  0
  -31.5912   18.3242  -14.3343 N   0  0  0  0  0  0  0  0  0  0  0  0
  -30.9967   19.2038  -17.2252 N   0  0  0  0  0  0  0  0  0  0  0  0
  -30.4977   19.0240  -18.4257 C   0  0  0  0  0  0  0  0  0  0  0  0
  -29.8814   17.8146  -18.5916 N   0  0  0  0  0  0  0  0  0  0  0  0
  1  2  2  0  0  0  0
  1  6  1  0  0  0  0
  2  3  1  0  0  0  0
  3  4  2  0  0  0  0
  4  5  1  0  0  0  0
  4 10  1  0  0  0  0
  5  6  2  0  0  0  0
  5  8  1  0  0  0  0
  6  7  1  0  0  0  0
  8  9  1  0  0  0  0
  9 10  2  0  0  0  0
M  END
>  <CHROM.1>
-30.45026147,17.51145262,-16.54391996,-1.80268109,1.04692328,-0.92826032

>  <Name>
ligand

>  <RI>
0

>  <Rbt.Current_Directory>
/home/itssahil/PROJECTS/Mol_Feturizer/New_Systems/rnas/4TZX

>  <Rbt.Executable>
rbdock ($Id: //depot/dev/client3/rdock/2013.1/src/exe/rbdock.cxx#4 $)

>  <Rbt.Library>
libRbt.so (2013.1, Build901 2013/11/27)

>  <Rbt.Parameter_File>
/export/apps/rDock/src/rDock_2013.1_src/data/scripts/dock_solv.prm

>  <Rbt.Receptor>
prm/blind_docking_80.prm

>  <SCORE>
-13.5112

>  <SCORE.INTER>
-13.5112

>  <SCORE.INTER.CONST>
1

>  <SCORE.INTER.POLAR>
0

>  <SCORE.INTER.ROT>
0

>  <SCORE.INTER.SOLV>
11.8598

>  <SCORE.INTER.VDW>
-16.5607

>  <SCORE.INTER.norm>
-1.35112

>  <SCORE.INTRA>
0

>  <SCORE.INTRA.DIHEDRAL>
0

>  <SCORE.INTRA.DIHEDRAL.0>
0

>  <SCORE.INTRA.POLAR>
0

>  <SCORE.INTRA.POLAR.0>
0

>  <SCORE.INTRA.REPUL>
0

>  <SCORE.INTRA.REPUL.0>
0

>  <SCORE.INTRA.SOLV>
0

>  <SCORE.INTRA.SOLV.lig_0>
-23.8949

>  <SCORE.INTRA.VDW>
0

>  <SCORE.INTRA.VDW.0>
0

>  <SCORE.INTRA.norm>
0

>  <SCORE.RESTR>
0

>  <SCORE.RESTR.CAVITY>
0

>  <SCORE.RESTR.norm>
0

>  <SCORE.SYSTEM>
0

>  <SCORE.SYSTEM.CONST>
0

>  <SCORE.SYSTEM.DIHEDRAL>
0

>  <SCORE.SYSTEM.SOLV>
0

>  <SCORE.SYSTEM.norm>
0

>  <SCORE.heavy>
10

>  <SCORE.norm>
-1.35112

>  <RMSD>
2.397

$$$$
ligand
 OpenBabel11021811513D
libRbt.so/2013.1/901 2013/11/27
 10 11  0  0  0  0  0  0  0  0999 V2000
  -30.4592   16.3804  -14.8986 N   0  0  0  0  0  0  0  0  0  0  0  0
  -29.8085   15.6345  -15.8014 C   0  0  0  0  0  0  0  0  0  0  0  0
  -29.5281   15.9128  -17.0740 N   0  0  0  0  0  0  0  0  0  0  0  0
  -29.9988   17.1240  -17.4118 C   0  0  0  0  0  0  0  0  0  0  0  0
  -30.6878   18.0031  -16.5970 C   0  0  0  0  0  0  0  0  0  0  0  0
  -30.9202   17.5931  -15.2686 C   0  0  0  0  0  0  0  0  0  0  0  0
  -31.5713   18.3402  -14.3713 N   0  0  0  0  0  0  0  0  0  0  0  0
  -31.0139   19.1578  -17.2877 N   0  0  0  0  0  0  0  0  0  0  0  0
  -30.5254   18.9547  -18.4888 C   0  0  0  0  0  0  0  0  0  0  0  0
  -29.8999   17.7472  -18.6331 N   0  0  0  0  0  0  0  0  0  0  0  0
  1  2  2  0  0  0  0
  1  6  1  0  0  0  0
  2  3  1  0  0  0  0
  3  4  2  0  0  0  0
  4  5  1  0  0  0  0
  4 10  1  0  0  0  0
  5  6  2  0  0  0  0
  5  8  1  0  0  0  0
  6  7  1  0  0  0  0
  8  9  1  0  0  0  0
  9 10  2  0  0  0  0
M  END
>  <CHROM.1>
-30.44538413,17.48651895,-16.57323788,-1.77584889,1.04562219,-0.97456841

>  <Name>
ligand

>  <RI>
0

>  <Rbt.Current_Directory>
/home/itssahil/PROJECTS/Mol_Feturizer/New_Systems/rnas/4TZX

>  <Rbt.Executable>
rbdock ($Id: //depot/dev/client3/rdock/2013.1/src/exe/rbdock.cxx#4 $)

>  <Rbt.Library>
libRbt.so (2013.1, Build901 2013/11/27)

>  <Rbt.Parameter_File>
/export/apps/rDock/src/rDock_2013.1_src/data/scripts/dock_solv.prm

>  <Rbt.Receptor>
prm/blind_docking_80.prm

>  <SCORE>
-13.4717

>  <SCORE.INTER>
-13.4717

>  <SCORE.INTER.CONST>
1

>  <SCORE.INTER.POLAR>
0

>  <SCORE.INTER.ROT>
0

>  <SCORE.INTER.SOLV>
11.744

>  <SCORE.INTER.VDW>
-16.4958

>  <SCORE.INTER.norm>
-1.34717

>  <SCORE.INTRA>
0

>  <SCORE.INTRA.DIHEDRAL>
0

>  <SCORE.INTRA.DIHEDRAL.0>
0

>  <SCORE.INTRA.POLAR>
0

>  <SCORE.INTRA.POLAR.0>
0

>  <SCORE.INTRA.REPUL>
0

>  <SCORE.INTRA.REPUL.0>
0

>  <SCORE.INTRA.SOLV>
0

>  <SCORE.INTRA.SOLV.lig_0>
-23.8949

>  <SCORE.INTRA.VDW>
0

>  <SCORE.INTRA.VDW.0>
0

>  <SCORE.INTRA.norm>
0

>  <SCORE.RESTR>
0

>  <SCORE.RESTR.CAVITY>
0

>  <SCORE.RESTR.norm>
0

>  <SCORE.SYSTEM>
0

>  <SCORE.SYSTEM.CONST>
0

>  <SCORE.SYSTEM.DIHEDRAL>
0

>  <SCORE.SYSTEM.SOLV>
0

>  <SCORE.SYSTEM.norm>
0

>  <SCORE.heavy>
10

>  <SCORE.norm>
-1.34717

>  <RMSD>
2.397

$$$$
ligand
 OpenBabel11021811513D
libRbt.so/2013.1/901 2013/11/27
 10 11  0  0  0  0  0  0  0  0999 V2000
  -30.5023   16.3762  -14.9016 N   0  0  0  0  0  0  0  0  0  0  0  0
  -29.8482   15.6423  -15.8117 C   0  0  0  0  0  0  0  0  0  0  0  0
  -29.5511   15.9428  -17.0754 N   0  0  0  0  0  0  0  0  0  0  0  0
  -30.0074   17.1646  -17.3946 C   0  0  0  0  0  0  0  0  0  0  0  0
  -30.6977   18.0338  -16.5702 C   0  0  0  0  0  0  0  0  0  0  0  0
  -30.9485   17.6000  -15.2528 C   0  0  0  0  0  0  0  0  0  0  0  0
  -31.6028   18.3353  -14.3482 N   0  0  0  0  0  0  0  0  0  0  0  0
  -31.0058   19.2047  -17.2417 N   0  0  0  0  0  0  0  0  0  0  0  0
  -30.5058   19.0206  -18.4411 C   0  0  0  0  0  0  0  0  0  0  0  0
  -29.8894   17.8106  -18.6023 N   0  0  0  0  0  0  0  0  0  0  0  0
  1  2  2  0  0  0  0
  1  6  1  0  0  0  0
  2  3  1  0  0  0  0
  3  4  2  0  0  0  0
  4  5  1  0  0  0  0
  4 10  1  0  0  0  0
  5  6  2  0  0  0  0
  5  8  1  0  0  0  0
  6  7  1  0  0  0  0
  8  9  1  0  0  0  0
  9 10  2  0  0  0  0
M  END
>  <CHROM.1>
-30.46008498,17.51467421,-16.55396766,-1.80413318,1.04649451,-0.93051779

>  <Name>
ligand

>  <RI>
0

>  <Rbt.Current_Directory>
/home/itssahil/PROJECTS/Mol_Feturizer/New_Systems/rnas/4TZX

>  <Rbt.Executable>
rbdock ($Id: //depot/dev/client3/rdock/2013.1/src/exe/rbdock.cxx#4 $)

>  <Rbt.Library>
libRbt.so (2013.1, Build901 2013/11/27)

>  <Rbt.Parameter_File>
/export/apps/rDock/src/rDock_2013.1_src/data/scripts/dock_solv.prm

>  <Rbt.Receptor>
prm/blind_docking_80.prm

>  <SCORE>
-13.5232

>  <SCORE.INTER>
-13.5232

>  <SCORE.INTER.CONST>
1

>  <SCORE.INTER.POLAR>
0

>  <SCORE.INTER.ROT>
0

>  <SCORE.INTER.SOLV>
11.8771

>  <SCORE.INTER.VDW>
-16.5745

>  <SCORE.INTER.norm>
-1.35232

>  <SCORE.INTRA>
0

>  <SCORE.INTRA.DIHEDRAL>
0

>  <SCORE.INTRA.DIHEDRAL.0>
0

>  <SCORE.INTRA.POLAR>
0

>  <SCORE.INTRA.POLAR.0>
0

>  <SCORE.INTRA.REPUL>
0

>  <SCORE.INTRA.REPUL.0>
0

>  <SCORE.INTRA.SOLV>
0

>  <SCORE.INTRA.SOLV.lig_0>
-23.8949

>  <SCORE.INTRA.VDW>
0

>  <SCORE.INTRA.VDW.0>
0

>  <SCORE.INTRA.norm>
0

>  <SCORE.RESTR>
0

>  <SCORE.RESTR.CAVITY>
0

>  <SCORE.RESTR.norm>
0

>  <SCORE.SYSTEM>
0

>  <SCORE.SYSTEM.CONST>
0

>  <SCORE.SYSTEM.DIHEDRAL>
0

>  <SCORE.SYSTEM.SOLV>
0

>  <SCORE.SYSTEM.norm>
0

>  <SCORE.heavy>
10

>  <SCORE.norm>
-1.35232

>  <RMSD>
2.397

$$$$
ligand
 OpenBabel11021811513D
libRbt.so/2013.1/901 2013/11/27
 10 11  0  0  0  0  0  0  0  0999 V2000
  -30.5021   16.3759  -14.9013 N   0  0  0  0  0  0  0  0  0  0  0  0
  -29.8479   15.6418  -15.8113 C   0  0  0  0  0  0  0  0  0  0  0  0
  -29.5504   15.9423  -17.0749 N   0  0  0  0  0  0  0  0  0  0  0  0
  -30.0061   17.1643  -17.3940 C   0  0  0  0  0  0  0  0  0  0  0  0
  -30.6964   18.0337  -16.5698 C   0  0  0  0  0  0  0  0  0  0  0  0
  -30.9477   17.5999  -15.2524 C   0  0  0  0  0  0  0  0  0  0  0  0
  -31.6021   18.3353  -14.3480 N   0  0  0  0  0  0  0  0  0  0  0  0
  -31.0039   19.2048  -17.2412 N   0  0  0  0  0  0  0  0  0  0  0  0
  -30.5035   19.0207  -18.4405 C   0  0  0  0  0  0  0  0  0  0  0  0
  -29.8876   17.8104  -18.6016 N   0  0  0  0  0  0  0  0  0  0  0  0
  1  2  2  0  0  0  0
  1  6  1  0  0  0  0
  2  3  1  0  0  0  0
  3  4  2  0  0  0  0
  4  5  1  0  0  0  0
  4 10  1  0  0  0  0
  5  6  2  0  0  0  0
  5  8  1  0  0  0  0
  6  7  1  0  0  0  0
  8  9  1  0  0  0  0
  9 10  2  0  0  0  0
M  END
>  <CHROM.1>
-30.45893772,17.51450369,-16.55350639,-1.80505084,1.04658539,-0.92961054

>  <Name>
ligand

>  <RI>
0

>  <Rbt.Current_Directory>
/home/itssahil/PROJECTS/Mol_Feturizer/New_Systems/rnas/4TZX

>  <Rbt.Executable>
rbdock ($Id: //depot/dev/client3/rdock/2013.1/src/exe/rbdock.cxx#4 $)

>  <Rbt.Library>
libRbt.so (2013.1, Build901 2013/11/27)

>  <Rbt.Parameter_File>
/export/apps/rDock/src/rDock_2013.1_src/data/scripts/dock_solv.prm

>  <Rbt.Receptor>
prm/blind_docking_80.prm

>  <SCORE>
-13.5226

>  <SCORE.INTER>
-13.5226

>  <SCORE.INTER.CONST>
1

>  <SCORE.INTER.POLAR>
0

>  <SCORE.INTER.ROT>
0

>  <SCORE.INTER.SOLV>
11.8764

>  <SCORE.INTER.VDW>
-16.5739

>  <SCORE.INTER.norm>
-1.35226

>  <SCORE.INTRA>
0

>  <SCORE.INTRA.DIHEDRAL>
0

>  <SCORE.INTRA.DIHEDRAL.0>
0

>  <SCORE.INTRA.POLAR>
0

>  <SCORE.INTRA.POLAR.0>
0

>  <SCORE.INTRA.REPUL>
0

>  <SCORE.INTRA.REPUL.0>
0

>  <SCORE.INTRA.SOLV>
0

>  <SCORE.INTRA.SOLV.lig_0>
-23.8949

>  <SCORE.INTRA.VDW>
0

>  <SCORE.INTRA.VDW.0>
0

>  <SCORE.INTRA.norm>
0

>  <SCORE.RESTR>
0

>  <SCORE.RESTR.CAVITY>
0

>  <SCORE.RESTR.norm>
0

>  <SCORE.SYSTEM>
0

>  <SCORE.SYSTEM.CONST>
0

>  <SCORE.SYSTEM.DIHEDRAL>
0

>  <SCORE.SYSTEM.SOLV>
0

>  <SCORE.SYSTEM.norm>
0

>  <SCORE.heavy>
10

>  <SCORE.norm>
-1.35226

>  <RMSD>
2.397

$$$$
ligand
 OpenBabel11021811513D
libRbt.so/2013.1/901 2013/11/27
 10 11  0  0  0  0  0  0  0  0999 V2000
  -30.5049   16.3712  -14.9023 N   0  0  0  0  0  0  0  0  0  0  0  0
  -29.8522   15.6391  -15.8149 C   0  0  0  0  0  0  0  0  0  0  0  0
  -29.5576   15.9419  -17.0786 N   0  0  0  0  0  0  0  0  0  0  0  0
  -30.0149   17.1641  -17.3948 C   0  0  0  0  0  0  0  0  0  0  0  0
  -30.7040   18.0316  -16.5677 C   0  0  0  0  0  0  0  0  0  0  0  0
  -30.9522   17.5954  -15.2505 C   0  0  0  0  0  0  0  0  0  0  0  0
  -31.6052   18.3289  -14.3434 N   0  0  0  0  0  0  0  0  0  0  0  0
  -31.0138   19.2035  -17.2365 N   0  0  0  0  0  0  0  0  0  0  0  0
  -30.5159   19.0217  -18.4372 C   0  0  0  0  0  0  0  0  0  0  0  0
  -29.8994   17.8122  -18.6016 N   0  0  0  0  0  0  0  0  0  0  0  0
  1  2  2  0  0  0  0
  1  6  1  0  0  0  0
  2  3  1  0  0  0  0
  3  4  2  0  0  0  0
  4  5  1  0  0  0  0
  4 10  1  0  0  0  0
  5  6  2  0  0  0  0
  5  8  1  0  0  0  0
  6  7  1  0  0  0  0
  8  9  1  0  0  0  0
  9 10  2  0  0  0  0
M  END
>  <CHROM.1>
-30.46618150,17.51254315,-16.55274987,-1.80072950,1.04730108,-0.93172313

>  <Name>
ligand

>  <RI>
0

>  <Rbt.Current_Directory>
/home/itssahil/PROJECTS/Mol_Feturizer/New_Systems/rnas/4TZX

>  <Rbt.Executable>
rbdock ($Id: //depot/dev/client3/rdock/2013.1/src/exe/rbdock.cxx#4 $)

>  <Rbt.Library>
libRbt.so (2013.1, Build901 2013/11/27)

>  <Rbt.Parameter_File>
/export/apps/rDock/src/rDock_2013.1_src/data/scripts/dock_solv.prm

>  <Rbt.Receptor>
prm/pocket_docking_3.prm

>  <SCORE>
-13.5191

>  <SCORE.INTER>
-13.5191

>  <SCORE.INTER.CONST>
1

>  <SCORE.INTER.POLAR>
0

>  <SCORE.INTER.ROT>
0

>  <SCORE.INTER.SOLV>
11.8808

>  <SCORE.INTER.VDW>
-16.573

>  <SCORE.INTER.norm>
-1.35191

>  <SCORE.INTRA>
0

>  <SCORE.INTRA.DIHEDRAL>
0

>  <SCORE.INTRA.DIHEDRAL.0>
0

>  <SCORE.INTRA.POLAR>
0

>  <SCORE.INTRA.POLAR.0>
0

>  <SCORE.INTRA.REPUL>
0

>  <SCORE.INTRA.REPUL.0>
0

>  <SCORE.INTRA.SOLV>
0

>  <SCORE.INTRA.SOLV.lig_0>
-23.8949

>  <SCORE.INTRA.VDW>
0

>  <SCORE.INTRA.VDW.0>
0

>  <SCORE.INTRA.norm>
0

>  <SCORE.RESTR>
0

>  <SCORE.RESTR.CAVITY>
0

>  <SCORE.RESTR.norm>
0

>  <SCORE.SYSTEM>
0

>  <SCORE.SYSTEM.CONST>
0

>  <SCORE.SYSTEM.DIHEDRAL>
0

>  <SCORE.SYSTEM.SOLV>
0

>  <SCORE.SYSTEM.norm>
0

>  <SCORE.heavy>
10

>  <SCORE.norm>
-1.35191

>  <RMSD>
2.397

$$$$
ligand
 OpenBabel11021811513D
libRbt.so/2013.1/901 2013/11/27
 10 11  0  0  0  0  0  0  0  0999 V2000
  -30.4979   16.3673  -14.9045 N   0  0  0  0  0  0  0  0  0  0  0  0
  -29.8511   15.6341  -15.8204 C   0  0  0  0  0  0  0  0  0  0  0  0
  -29.5587   15.9381  -17.0843 N   0  0  0  0  0  0  0  0  0  0  0  0
  -30.0114   17.1630  -17.3967 C   0  0  0  0  0  0  0  0  0  0  0  0
  -30.6942   18.0319  -16.5659 C   0  0  0  0  0  0  0  0  0  0  0  0
  -30.9406   17.5943  -15.2489 C   0  0  0  0  0  0  0  0  0  0  0  0
  -31.5876   18.3288  -14.3385 N   0  0  0  0  0  0  0  0  0  0  0  0
  -31.0005   19.2066  -17.2315 N   0  0  0  0  0  0  0  0  0  0  0  0
  -30.5069   19.0250  -18.4339 C   0  0  0  0  0  0  0  0  0  0  0  0
  -29.8963   17.8131  -18.6025 N   0  0  0  0  0  0  0  0  0  0  0  0
  1  2  2  0  0  0  0
  1  6  1  0  0  0  0
  2  3  1  0  0  0  0
  3  4  2  0  0  0  0
  4  5  1  0  0  0  0
  4 10  1  0  0  0  0
  5  6  2  0  0  0  0
  5  8  1  0  0  0  0
  6  7  1  0  0  0  0
  8  9  1  0  0  0  0
  9 10  2  0  0  0  0
M  END
>  <CHROM.1>
-30.45863594,17.51179573,-16.55270277,-1.80159939,1.05263335,-0.92894671

>  <Name>
ligand

>  <RI>
0

>  <Rbt.Current_Directory>
/home/itssahil/PROJECTS/Mol_Feturizer/New_Systems/rnas/4TZX

>  <Rbt.Executable>
rbdock ($Id: //depot/dev/client3/rdock/2013.1/src/exe/rbdock.cxx#4 $)

>  <Rbt.Library>
libRbt.so (2013.1, Build901 2013/11/27)

>  <Rbt.Parameter_File>
/export/apps/rDock/src/rDock_2013.1_src/data/scripts/dock_solv.prm

>  <Rbt.Receptor>
prm/pocket_docking_3.prm

>  <SCORE>
-13.5206

>  <SCORE.INTER>
-13.5206

>  <SCORE.INTER.CONST>
1

>  <SCORE.INTER.POLAR>
0

>  <SCORE.INTER.ROT>
0

>  <SCORE.INTER.SOLV>
11.8565

>  <SCORE.INTER.VDW>
-16.5659

>  <SCORE.INTER.norm>
-1.35206

>  <SCORE.INTRA>
0

>  <SCORE.INTRA.DIHEDRAL>
0

>  <SCORE.INTRA.DIHEDRAL.0>
0

>  <SCORE.INTRA.POLAR>
0

>  <SCORE.INTRA.POLAR.0>
0

>  <SCORE.INTRA.REPUL>
0

>  <SCORE.INTRA.REPUL.0>
0

>  <SCORE.INTRA.SOLV>
0

>  <SCORE.INTRA.SOLV.lig_0>
-23.8949

>  <SCORE.INTRA.VDW>
0

>  <SCORE.INTRA.VDW.0>
0

>  <SCORE.INTRA.norm>
0

>  <SCORE.RESTR>
0

>  <SCORE.RESTR.CAVITY>
0

>  <SCORE.RESTR.norm>
0

>  <SCORE.SYSTEM>
0

>  <SCORE.SYSTEM.CONST>
0

>  <SCORE.SYSTEM.DIHEDRAL>
0

>  <SCORE.SYSTEM.SOLV>
0

>  <SCORE.SYSTEM.norm>
0

>  <SCORE.heavy>
10

>  <SCORE.norm>
-1.35206

>  <RMSD>
2.397

$$$$
ligand
 OpenBabel11021811513D
libRbt.so/2013.1/901 2013/11/27
 10 11  0  0  0  0  0  0  0  0999 V2000
  -30.4994   16.3726  -14.9008 N   0  0  0  0  0  0  0  0  0  0  0  0
  -29.8451   15.6416  -15.8131 C   0  0  0  0  0  0  0  0  0  0  0  0
  -29.5517   15.9444  -17.0772 N   0  0  0  0  0  0  0  0  0  0  0  0
  -30.0123   17.1652  -17.3939 C   0  0  0  0  0  0  0  0  0  0  0  0
  -30.7033   18.0315  -16.5671 C   0  0  0  0  0  0  0  0  0  0  0  0
  -30.9499   17.5955  -15.2496 C   0  0  0  0  0  0  0  0  0  0  0  0
  -31.6045   18.3278  -14.3428 N   0  0  0  0  0  0  0  0  0  0  0  0
  -31.0163   19.2022  -17.2366 N   0  0  0  0  0  0  0  0  0  0  0  0
  -30.5184   19.0210  -18.4373 C   0  0  0  0  0  0  0  0  0  0  0  0
  -29.8988   17.8129  -18.6012 N   0  0  0  0  0  0  0  0  0  0  0  0
  1  2  2  0  0  0  0
  1  6  1  0  0  0  0
  2  3  1  0  0  0  0
  3  4  2  0  0  0  0
  4  5  1  0  0  0  0
  4 10  1  0  0  0  0
  5  6  2  0  0  0  0
  5  8  1  0  0  0  0
  6  7  1  0  0  0  0
  8  9  1  0  0  0  0
  9 10  2  0  0  0  0
M  END
>  <CHROM.1>
-30.46414801,17.51305118,-16.55195662,-1.79716657,1.04542425,-0.93542304

>  <Name>
ligand

>  <RI>
0

>  <Rbt.Current_Directory>
/home/itssahil/PROJECTS/Mol_Feturizer/New_Systems/rnas/4TZX

>  <Rbt.Executable>
rbdock ($Id: //depot/dev/client3/rdock/2013.1/src/exe/rbdock.cxx#4 $)

>  <Rbt.Library>
libRbt.so (2013.1, Build901 2013/11/27)

>  <Rbt.Parameter_File>
/export/apps/rDock/src/rDock_2013.1_src/data/scripts/dock_solv.prm

>  <Rbt.Receptor>
prm/pocket_docking_4.prm

>  <SCORE>
-13.5199

>  <SCORE.INTER>
-13.5199

>  <SCORE.INTER.CONST>
1

>  <SCORE.INTER.POLAR>
0

>  <SCORE.INTER.ROT>
0

>  <SCORE.INTER.SOLV>
11.8745

>  <SCORE.INTER.VDW>
-16.5715

>  <SCORE.INTER.norm>
-1.35199

>  <SCORE.INTRA>
0

>  <SCORE.INTRA.DIHEDRAL>
0

>  <SCORE.INTRA.DIHEDRAL.0>
0

>  <SCORE.INTRA.POLAR>
0

>  <SCORE.INTRA.POLAR.0>
0

>  <SCORE.INTRA.REPUL>
0

>  <SCORE.INTRA.REPUL.0>
0

>  <SCORE.INTRA.SOLV>
0

>  <SCORE.INTRA.SOLV.lig_0>
-23.8949

>  <SCORE.INTRA.VDW>
0

>  <SCORE.INTRA.VDW.0>
0

>  <SCORE.INTRA.norm>
0

>  <SCORE.RESTR>
0

>  <SCORE.RESTR.CAVITY>
0

>  <SCORE.RESTR.norm>
0

>  <SCORE.SYSTEM>
0

>  <SCORE.SYSTEM.CONST>
0

>  <SCORE.SYSTEM.DIHEDRAL>
0

>  <SCORE.SYSTEM.SOLV>
0

>  <SCORE.SYSTEM.norm>
0

>  <SCORE.heavy>
10

>  <SCORE.norm>
-1.35199

>  <RMSD>
2.397

$$$$
ligand
 OpenBabel11021811513D
libRbt.so/2013.1/901 2013/11/27
 10 11  0  0  0  0  0  0  0  0999 V2000
  -30.4453   16.3753  -14.9131 N   0  0  0  0  0  0  0  0  0  0  0  0
  -29.8012   15.6314  -15.8222 C   0  0  0  0  0  0  0  0  0  0  0  0
  -29.5286   15.9131  -17.0957 N   0  0  0  0  0  0  0  0  0  0  0  0
  -30.0001   17.1259  -17.4269 C   0  0  0  0  0  0  0  0  0  0  0  0
  -30.6830   18.0033  -16.6051 C   0  0  0  0  0  0  0  0  0  0  0  0
  -30.9073   17.5896  -15.2765 C   0  0  0  0  0  0  0  0  0  0  0  0
  -31.5517   18.3348  -14.3728 N   0  0  0  0  0  0  0  0  0  0  0  0
  -31.0121   19.1604  -17.2903 N   0  0  0  0  0  0  0  0  0  0  0  0
  -30.5315   18.9603  -18.4951 C   0  0  0  0  0  0  0  0  0  0  0  0
  -29.9084   17.7526  -18.6470 N   0  0  0  0  0  0  0  0  0  0  0  0
  1  2  2  0  0  0  0
  1  6  1  0  0  0  0
  2  3  1  0  0  0  0
  3  4  2  0  0  0  0
  4  5  1  0  0  0  0
  4 10  1  0  0  0  0
  5  6  2  0  0  0  0
  5  8  1  0  0  0  0
  6  7  1  0  0  0  0
  8  9  1  0  0  0  0
  9 10  2  0  0  0  0
M  END
>  <CHROM.1>
-30.44092374,17.48640776,-16.58445786,-1.76645771,1.05012969,-0.97974757

>  <Name>
ligand

>  <RI>
0

>  <Rbt.Current_Directory>
/home/itssahil/PROJECTS/Mol_Feturizer/New_Systems/rnas/4TZX

>  <Rbt.Executable>
rbdock ($Id: //depot/dev/client3/rdock/2013.1/src/exe/rbdock.cxx#4 $)

>  <Rbt.Library>
libRbt.so (2013.1, Build901 2013/11/27)

>  <Rbt.Parameter_File>
/export/apps/rDock/src/rDock_2013.1_src/data/scripts/dock_solv.prm

>  <Rbt.Receptor>
prm/pocket_docking_4.prm

>  <SCORE>
-13.4751

>  <SCORE.INTER>
-13.4751

>  <SCORE.INTER.CONST>
1

>  <SCORE.INTER.POLAR>
0

>  <SCORE.INTER.ROT>
0

>  <SCORE.INTER.SOLV>
11.6856

>  <SCORE.INTER.VDW>
-16.4786

>  <SCORE.INTER.norm>
-1.34751

>  <SCORE.INTRA>
0

>  <SCORE.INTRA.DIHEDRAL>
0

>  <SCORE.INTRA.DIHEDRAL.0>
0

>  <SCORE.INTRA.POLAR>
0

>  <SCORE.INTRA.POLAR.0>
0

>  <SCORE.INTRA.REPUL>
0

>  <SCORE.INTRA.REPUL.0>
0

>  <SCORE.INTRA.SOLV>
0

>  <SCORE.INTRA.SOLV.lig_0>
-23.8949

>  <SCORE.INTRA.VDW>
0

>  <SCORE.INTRA.VDW.0>
0

>  <SCORE.INTRA.norm>
0

>  <SCORE.RESTR>
0

>  <SCORE.RESTR.CAVITY>
0

>  <SCORE.RESTR.norm>
0

>  <SCORE.SYSTEM>
0

>  <SCORE.SYSTEM.CONST>
0

>  <SCORE.SYSTEM.DIHEDRAL>
0

>  <SCORE.SYSTEM.SOLV>
0

>  <SCORE.SYSTEM.norm>
0

>  <SCORE.heavy>
10

>  <SCORE.norm>
-1.34751

>  <RMSD>
2.397

$$$$
ligand
 OpenBabel11021811513D
libRbt.so/2013.1/901 2013/11/27
 10 11  0  0  0  0  0  0  0  0999 V2000
  -30.4953   16.3634  -14.9039 N   0  0  0  0  0  0  0  0  0  0  0  0
  -29.8406   15.6344  -15.8176 C   0  0  0  0  0  0  0  0  0  0  0  0
  -29.5473   15.9398  -17.0810 N   0  0  0  0  0  0  0  0  0  0  0  0
  -30.0084   17.1610  -17.3955 C   0  0  0  0  0  0  0  0  0  0  0  0
  -30.6999   18.0253  -16.5670 C   0  0  0  0  0  0  0  0  0  0  0  0
  -30.9464   17.5867  -15.2504 C   0  0  0  0  0  0  0  0  0  0  0  0
  -31.6014   18.3170  -14.3422 N   0  0  0  0  0  0  0  0  0  0  0  0
  -31.0134   19.1972  -17.2342 N   0  0  0  0  0  0  0  0  0  0  0  0
  -30.5152   19.0185  -18.4353 C   0  0  0  0  0  0  0  0  0  0  0  0
  -29.8951   17.8111  -18.6014 N   0  0  0  0  0  0  0  0  0  0  0  0
  1  2  2  0  0  0  0
  1  6  1  0  0  0  0
  2  3  1  0  0  0  0
  3  4  2  0  0  0  0
  4  5  1  0  0  0  0
  4 10  1  0  0  0  0
  5  6  2  0  0  0  0
  5  8  1  0  0  0  0
  6  7  1  0  0  0  0
  8  9  1  0  0  0  0
  9 10  2  0  0  0  0
M  END
>  <CHROM.1>
-30.46044519,17.50700691,-16.55286498,-1.79674302,1.04500402,-0.93386225

>  <Name>
ligand

>  <RI>
0

>  <Rbt.Current_Directory>
/home/itssahil/PROJECTS/Mol_Feturizer/New_Systems/rnas/4TZX

>  <Rbt.Executable>
rbdock ($Id: //depot/dev/client3/rdock/2013.1/src/exe/rbdock.cxx#4 $)

>  <Rbt.Library>
libRbt.so (2013.1, Build901 2013/11/27)

>  <Rbt.Parameter_File>
/export/apps/rDock/src/rDock_2013.1_src/data/scripts/dock_solv.prm

>  <Rbt.Receptor>
prm/pocket_docking_5.prm

>  <SCORE>
-13.5184

>  <SCORE.INTER>
-13.5184

>  <SCORE.INTER.CONST>
1

>  <SCORE.INTER.POLAR>
0

>  <SCORE.INTER.ROT>
0

>  <SCORE.INTER.SOLV>
11.8492

>  <SCORE.INTER.VDW>
-16.562

>  <SCORE.INTER.norm>
-1.35184

>  <SCORE.INTRA>
0

>  <SCORE.INTRA.DIHEDRAL>
0

>  <SCORE.INTRA.DIHEDRAL.0>
0

>  <SCORE.INTRA.POLAR>
0

>  <SCORE.INTRA.POLAR.0>
0

>  <SCORE.INTRA.REPUL>
0

>  <SCORE.INTRA.REPUL.0>
0

>  <SCORE.INTRA.SOLV>
0

>  <SCORE.INTRA.SOLV.lig_0>
-23.8949

>  <SCORE.INTRA.VDW>
0

>  <SCORE.INTRA.VDW.0>
0

>  <SCORE.INTRA.norm>
0

>  <SCORE.RESTR>
0

>  <SCORE.RESTR.CAVITY>
0

>  <SCORE.RESTR.norm>
0

>  <SCORE.SYSTEM>
0

>  <SCORE.SYSTEM.CONST>
0

>  <SCORE.SYSTEM.DIHEDRAL>
0

>  <SCORE.SYSTEM.SOLV>
0

>  <SCORE.SYSTEM.norm>
0

>  <SCORE.heavy>
10

>  <SCORE.norm>
-1.35184

>  <RMSD>
2.397

$$$$
ligand
 OpenBabel11021811513D
libRbt.so/2013.1/901 2013/11/27
 10 11  0  0  0  0  0  0  0  0999 V2000
  -30.4971   16.3735  -14.8989 N   0  0  0  0  0  0  0  0  0  0  0  0
  -29.8467   15.6390  -15.8112 C   0  0  0  0  0  0  0  0  0  0  0  0
  -29.5519   15.9401  -17.0753 N   0  0  0  0  0  0  0  0  0  0  0  0
  -30.0062   17.1632  -17.3922 C   0  0  0  0  0  0  0  0  0  0  0  0
  -30.6926   18.0331  -16.5655 C   0  0  0  0  0  0  0  0  0  0  0  0
  -30.9413   17.5987  -15.2478 C   0  0  0  0  0  0  0  0  0  0  0  0
  -31.5920   18.3345  -14.3411 N   0  0  0  0  0  0  0  0  0  0  0  0
  -30.9997   19.2054  -17.2351 N   0  0  0  0  0  0  0  0  0  0  0  0
  -30.5028   19.0213  -18.4358 C   0  0  0  0  0  0  0  0  0  0  0  0
  -29.8895   17.8101  -18.5996 N   0  0  0  0  0  0  0  0  0  0  0  0
  1  2  2  0  0  0  0
  1  6  1  0  0  0  0
  2  3  1  0  0  0  0
  3  4  2  0  0  0  0
  4  5  1  0  0  0  0
  4 10  1  0  0  0  0
  5  6  2  0  0  0  0
  5  8  1  0  0  0  0
  6  7  1  0  0  0  0
  8  9  1  0  0  0  0
  9 10  2  0  0  0  0
M  END
>  <CHROM.1>
-30.45611297,17.51349901,-16.55024866,-1.80311979,1.04964934,-0.93043196

>  <Name>
ligand

>  <RI>
0

>  <Rbt.Current_Directory>
/home/itssahil/PROJECTS/Mol_Feturizer/New_Systems/rnas/4TZX

>  <Rbt.Executable>
rbdock ($Id: //depot/dev/client3/rdock/2013.1/src/exe/rbdock.cxx#4 $)

>  <Rbt.Library>
libRbt.so (2013.1, Build901 2013/11/27)

>  <Rbt.Parameter_File>
/export/apps/rDock/src/rDock_2013.1_src/data/scripts/dock_solv.prm

>  <Rbt.Receptor>
prm/pocket_docking_7.prm

>  <SCORE>
-13.5216

>  <SCORE.INTER>
-13.5216

>  <SCORE.INTER.CONST>
1

>  <SCORE.INTER.POLAR>
0

>  <SCORE.INTER.ROT>
0

>  <SCORE.INTER.SOLV>
11.8686

>  <SCORE.INTER.VDW>
-16.5706

>  <SCORE.INTER.norm>
-1.35216

>  <SCORE.INTRA>
0

>  <SCORE.INTRA.DIHEDRAL>
0

>  <SCORE.INTRA.DIHEDRAL.0>
0

>  <SCORE.INTRA.POLAR>
0

>  <SCORE.INTRA.POLAR.0>
0

>  <SCORE.INTRA.REPUL>
0

>  <SCORE.INTRA.REPUL.0>
0

>  <SCORE.INTRA.SOLV>
0

>  <SCORE.INTRA.SOLV.lig_0>
-23.8949

>  <SCORE.INTRA.VDW>
0

>  <SCORE.INTRA.VDW.0>
0

>  <SCORE.INTRA.norm>
0

>  <SCORE.RESTR>
0

>  <SCORE.RESTR.CAVITY>
0

>  <SCORE.RESTR.norm>
0

>  <SCORE.SYSTEM>
0

>  <SCORE.SYSTEM.CONST>
0

>  <SCORE.SYSTEM.DIHEDRAL>
0

>  <SCORE.SYSTEM.SOLV>
0

>  <SCORE.SYSTEM.norm>
0

>  <SCORE.heavy>
10

>  <SCORE.norm>
-1.35216

>  <RMSD>
2.397

$$$$
ligand
 OpenBabel11021811513D
libRbt.so/2013.1/901 2013/11/27
 10 11  0  0  0  0  0  0  0  0999 V2000
  -30.4474   16.3801  -14.9090 N   0  0  0  0  0  0  0  0  0  0  0  0
  -29.8117   15.6226  -15.8128 C   0  0  0  0  0  0  0  0  0  0  0  0
  -29.5332   15.8935  -17.0874 N   0  0  0  0  0  0  0  0  0  0  0  0
  -29.9880   17.1105  -17.4262 C   0  0  0  0  0  0  0  0  0  0  0  0
  -30.6605   18.0016  -16.6105 C   0  0  0  0  0  0  0  0  0  0  0  0
  -30.8925   17.5984  -15.2800 C   0  0  0  0  0  0  0  0  0  0  0  0
  -31.5285   18.3571  -14.3817 N   0  0  0  0  0  0  0  0  0  0  0  0
  -30.9730   19.1591  -17.3028 N   0  0  0  0  0  0  0  0  0  0  0  0
  -30.4931   18.9458  -18.5056 C   0  0  0  0  0  0  0  0  0  0  0  0
  -29.8858   17.7291  -18.6497 N   0  0  0  0  0  0  0  0  0  0  0  0
  1  2  2  0  0  0  0
  1  6  1  0  0  0  0
  2  3  1  0  0  0  0
  3  4  2  0  0  0  0
  4  5  1  0  0  0  0
  4 10  1  0  0  0  0
  5  6  2  0  0  0  0
  5  8  1  0  0  0  0
  6  7  1  0  0  0  0
  8  9  1  0  0  0  0
  9 10  2  0  0  0  0
M  END
>  <CHROM.1>
-30.42538732,17.48159812,-16.58656313,-1.78451675,1.06016912,-0.96965433

>  <Name>
ligand

>  <RI>
0

>  <Rbt.Current_Directory>
/home/itssahil/PROJECTS/Mol_Feturizer/New_Systems/rnas/4TZX

>  <Rbt.Executable>
rbdock ($Id: //depot/dev/client3/rdock/2013.1/src/exe/rbdock.cxx#4 $)

>  <Rbt.Library>
libRbt.so (2013.1, Build901 2013/11/27)

>  <Rbt.Parameter_File>
/export/apps/rDock/src/rDock_2013.1_src/data/scripts/dock_solv.prm

>  <Rbt.Receptor>
prm/pocket_docking_8.prm

>  <SCORE>
-13.4722

>  <SCORE.INTER>
-13.4722

>  <SCORE.INTER.CONST>
1

>  <SCORE.INTER.POLAR>
0

>  <SCORE.INTER.ROT>
0

>  <SCORE.INTER.SOLV>
11.6727

>  <SCORE.INTER.VDW>
-16.4724

>  <SCORE.INTER.norm>
-1.34722

>  <SCORE.INTRA>
0

>  <SCORE.INTRA.DIHEDRAL>
0

>  <SCORE.INTRA.DIHEDRAL.0>
0

>  <SCORE.INTRA.POLAR>
0

>  <SCORE.INTRA.POLAR.0>
0

>  <SCORE.INTRA.REPUL>
0

>  <SCORE.INTRA.REPUL.0>
0

>  <SCORE.INTRA.SOLV>
0

>  <SCORE.INTRA.SOLV.lig_0>
-23.8949

>  <SCORE.INTRA.VDW>
0

>  <SCORE.INTRA.VDW.0>
0

>  <SCORE.INTRA.norm>
0

>  <SCORE.RESTR>
0

>  <SCORE.RESTR.CAVITY>
0

>  <SCORE.RESTR.norm>
0

>  <SCORE.SYSTEM>
0

>  <SCORE.SYSTEM.CONST>
0

>  <SCORE.SYSTEM.DIHEDRAL>
0

>  <SCORE.SYSTEM.SOLV>
0

>  <SCORE.SYSTEM.norm>
0

>  <SCORE.heavy>
10

>  <SCORE.norm>
-1.34722

>  <RMSD>
2.397

$$$$
ligand
 OpenBabel11021811513D
libRbt.so/2013.1/901 2013/11/27
 10 11  0  0  0  0  0  0  0  0999 V2000
  -30.4981   16.3738  -14.8987 N   0  0  0  0  0  0  0  0  0  0  0  0
  -29.8484   15.6382  -15.8106 C   0  0  0  0  0  0  0  0  0  0  0  0
  -29.5526   15.9386  -17.0746 N   0  0  0  0  0  0  0  0  0  0  0  0
  -30.0050   17.1624  -17.3919 C   0  0  0  0  0  0  0  0  0  0  0  0
  -30.6905   18.0334  -16.5656 C   0  0  0  0  0  0  0  0  0  0  0  0
  -30.9404   17.5995  -15.2480 C   0  0  0  0  0  0  0  0  0  0  0  0
  -31.5903   18.3365  -14.3416 N   0  0  0  0  0  0  0  0  0  0  0  0
  -30.9956   19.2060  -17.2355 N   0  0  0  0  0  0  0  0  0  0  0  0
  -30.4985   19.0211  -18.4360 C   0  0  0  0  0  0  0  0  0  0  0  0
  -29.8869   17.8090  -18.5993 N   0  0  0  0  0  0  0  0  0  0  0  0
  1  2  2  0  0  0  0
  1  6  1  0  0  0  0
  2  3  1  0  0  0  0
  3  4  2  0  0  0  0
  4  5  1  0  0  0  0
  4 10  1  0  0  0  0
  5  6  2  0  0  0  0
  5  8  1  0  0  0  0
  6  7  1  0  0  0  0
  8  9  1  0  0  0  0
  9 10  2  0  0  0  0
M  END
>  <CHROM.1>
-30.45475864,17.51345679,-16.55018324,-1.80553502,1.05057023,-0.92848071

>  <Name>
ligand

>  <RI>
0

>  <Rbt.Current_Directory>
/home/itssahil/PROJECTS/Mol_Feturizer/New_Systems/rnas/4TZX

>  <Rbt.Executable>
rbdock ($Id: //depot/dev/client3/rdock/2013.1/src/exe/rbdock.cxx#4 $)

>  <Rbt.Library>
libRbt.so (2013.1, Build901 2013/11/27)

>  <Rbt.Parameter_File>
/export/apps/rDock/src/rDock_2013.1_src/data/scripts/dock_solv.prm

>  <Rbt.Receptor>
prm/pocket_docking_8.prm

>  <SCORE>
-13.5212

>  <SCORE.INTER>
-13.5212

>  <SCORE.INTER.CONST>
1

>  <SCORE.INTER.POLAR>
0

>  <SCORE.INTER.ROT>
0

>  <SCORE.INTER.SOLV>
11.8695

>  <SCORE.INTER.VDW>
-16.5706

>  <SCORE.INTER.norm>
-1.35212

>  <SCORE.INTRA>
0

>  <SCORE.INTRA.DIHEDRAL>
0

>  <SCORE.INTRA.DIHEDRAL.0>
0

>  <SCORE.INTRA.POLAR>
0

>  <SCORE.INTRA.POLAR.0>
0

>  <SCORE.INTRA.REPUL>
0

>  <SCORE.INTRA.REPUL.0>
0

>  <SCORE.INTRA.SOLV>
0

>  <SCORE.INTRA.SOLV.lig_0>
-23.8949

>  <SCORE.INTRA.VDW>
0

>  <SCORE.INTRA.VDW.0>
0

>  <SCORE.INTRA.norm>
0

>  <SCORE.RESTR>
0

>  <SCORE.RESTR.CAVITY>
0

>  <SCORE.RESTR.norm>
0

>  <SCORE.SYSTEM>
0

>  <SCORE.SYSTEM.CONST>
0

>  <SCORE.SYSTEM.DIHEDRAL>
0

>  <SCORE.SYSTEM.SOLV>
0

>  <SCORE.SYSTEM.norm>
0

>  <SCORE.heavy>
10

>  <SCORE.norm>
-1.35212

>  <RMSD>
2.397

$$$$
ligand
 OpenBabel11021811513D
libRbt.so/2013.1/901 2013/11/27
 10 11  0  0  0  0  0  0  0  0999 V2000
  -30.5012   16.3731  -14.9015 N   0  0  0  0  0  0  0  0  0  0  0  0
  -29.8487   15.6390  -15.8126 C   0  0  0  0  0  0  0  0  0  0  0  0
  -29.5519   15.9402  -17.0763 N   0  0  0  0  0  0  0  0  0  0  0  0
  -30.0065   17.1630  -17.3940 C   0  0  0  0  0  0  0  0  0  0  0  0
  -30.6950   18.0325  -16.5685 C   0  0  0  0  0  0  0  0  0  0  0  0
  -30.9457   17.5979  -15.2513 C   0  0  0  0  0  0  0  0  0  0  0  0
  -31.5984   18.3334  -14.3457 N   0  0  0  0  0  0  0  0  0  0  0  0
  -31.0017   19.2044  -17.2387 N   0  0  0  0  0  0  0  0  0  0  0  0
  -30.5027   19.0207  -18.4386 C   0  0  0  0  0  0  0  0  0  0  0  0
  -29.8883   17.8099  -18.6012 N   0  0  0  0  0  0  0  0  0  0  0  0
  1  2  2  0  0  0  0
  1  6  1  0  0  0  0
  2  3  1  0  0  0  0
  3  4  2  0  0  0  0
  4  5  1  0  0  0  0
  4 10  1  0  0  0  0
  5  6  2  0  0  0  0
  5  8  1  0  0  0  0
  6  7  1  0  0  0  0
  8  9  1  0  0  0  0
  9 10  2  0  0  0  0
M  END
>  <CHROM.1>
-30.45816743,17.51297531,-16.55285171,-1.80503235,1.04806054,-0.92883456

>  <Name>
ligand

>  <RI>
0

>  <Rbt.Current_Directory>
/home/itssahil/PROJECTS/Mol_Feturizer/New_Systems/rnas/4TZX

>  <Rbt.Executable>
rbdock ($Id: //depot/dev/client3/rdock/2013.1/src/exe/rbdock.cxx#4 $)

>  <Rbt.Library>
libRbt.so (2013.1, Build901 2013/11/27)

>  <Rbt.Parameter_File>
/export/apps/rDock/src/rDock_2013.1_src/data/scripts/dock_solv.prm

>  <Rbt.Receptor>
prm/pocket_docking_8.prm

>  <SCORE>
-13.5218

>  <SCORE.INTER>
-13.5218

>  <SCORE.INTER.CONST>
1

>  <SCORE.INTER.POLAR>
0

>  <SCORE.INTER.ROT>
0

>  <SCORE.INTER.SOLV>
11.8712

>  <SCORE.INTER.VDW>
-16.5716

>  <SCORE.INTER.norm>
-1.35218

>  <SCORE.INTRA>
0

>  <SCORE.INTRA.DIHEDRAL>
0

>  <SCORE.INTRA.DIHEDRAL.0>
0

>  <SCORE.INTRA.POLAR>
0

>  <SCORE.INTRA.POLAR.0>
0

>  <SCORE.INTRA.REPUL>
0

>  <SCORE.INTRA.REPUL.0>
0

>  <SCORE.INTRA.SOLV>
0

>  <SCORE.INTRA.SOLV.lig_0>
-23.8949

>  <SCORE.INTRA.VDW>
0

>  <SCORE.INTRA.VDW.0>
0

>  <SCORE.INTRA.norm>
0

>  <SCORE.RESTR>
0

>  <SCORE.RESTR.CAVITY>
0

>  <SCORE.RESTR.norm>
0

>  <SCORE.SYSTEM>
0

>  <SCORE.SYSTEM.CONST>
0

>  <SCORE.SYSTEM.DIHEDRAL>
0

>  <SCORE.SYSTEM.SOLV>
0

>  <SCORE.SYSTEM.norm>
0

>  <SCORE.heavy>
10

>  <SCORE.norm>
-1.35218

>  <RMSD>
2.397

$$$$
ligand
 OpenBabel11021811513D
libRbt.so/2013.1/901 2013/11/27
 10 11  0  0  0  0  0  0  0  0999 V2000
  -30.5014   16.3741  -14.9008 N   0  0  0  0  0  0  0  0  0  0  0  0
  -29.8272   15.6509  -15.8048 C   0  0  0  0  0  0  0  0  0  0  0  0
  -29.5262   15.9551  -17.0667 N   0  0  0  0  0  0  0  0  0  0  0  0
  -30.0023   17.1679  -17.3911 C   0  0  0  0  0  0  0  0  0  0  0  0
  -30.7145   18.0255  -16.5733 C   0  0  0  0  0  0  0  0  0  0  0  0
  -30.9672   17.5891  -15.2571 C   0  0  0  0  0  0  0  0  0  0  0  0
  -31.6417   18.3136  -14.3586 N   0  0  0  0  0  0  0  0  0  0  0  0
  -31.0389   19.1896  -17.2489 N   0  0  0  0  0  0  0  0  0  0  0  0
  -30.5266   19.0130  -18.4442 C   0  0  0  0  0  0  0  0  0  0  0  0
  -29.8870   17.8142  -18.5989 N   0  0  0  0  0  0  0  0  0  0  0  0
  1  2  2  0  0  0  0
  1  6  1  0  0  0  0
  2  3  1  0  0  0  0
  3  4  2  0  0  0  0
  4  5  1  0  0  0  0
  4 10  1  0  0  0  0
  5  6  2  0  0  0  0
  5  8  1  0  0  0  0
  6  7  1  0  0  0  0
  8  9  1  0  0  0  0
  9 10  2  0  0  0  0
M  END
>  <CHROM.1>
-30.46757980,17.51083683,-16.55451372,-1.79471175,1.02734448,-0.94009952

>  <Name>
ligand

>  <RI>
0

>  <Rbt.Current_Directory>
/home/itssahil/PROJECTS/Mol_Feturizer/New_Systems/rnas/4TZX

>  <Rbt.Executable>
rbdock ($Id: //depot/dev/client3/rdock/2013.1/src/exe/rbdock.cxx#4 $)

>  <Rbt.Library>
libRbt.so (2013.1, Build901 2013/11/27)

>  <Rbt.Parameter_File>
/export/apps/rDock/src/rDock_2013.1_src/data/scripts/dock_solv.prm

>  <Rbt.Receptor>
prm/blind_docking_100.prm

>  <SCORE>
-13.5069

>  <SCORE.INTER>
-13.5069

>  <SCORE.INTER.CONST>
1

>  <SCORE.INTER.POLAR>
0

>  <SCORE.INTER.ROT>
0

>  <SCORE.INTER.SOLV>
11.8781

>  <SCORE.INTER.VDW>
-16.564

>  <SCORE.INTER.norm>
-1.35069

>  <SCORE.INTRA>
0

>  <SCORE.INTRA.DIHEDRAL>
0

>  <SCORE.INTRA.DIHEDRAL.0>
0

>  <SCORE.INTRA.POLAR>
0

>  <SCORE.INTRA.POLAR.0>
0

>  <SCORE.INTRA.REPUL>
0

>  <SCORE.INTRA.REPUL.0>
0

>  <SCORE.INTRA.SOLV>
0

>  <SCORE.INTRA.SOLV.lig_0>
-23.8949

>  <SCORE.INTRA.VDW>
0

>  <SCORE.INTRA.VDW.0>
0

>  <SCORE.INTRA.norm>
0

>  <SCORE.RESTR>
0

>  <SCORE.RESTR.CAVITY>
0

>  <SCORE.RESTR.norm>
0

>  <SCORE.SYSTEM>
0

>  <SCORE.SYSTEM.CONST>
0

>  <SCORE.SYSTEM.DIHEDRAL>
0

>  <SCORE.SYSTEM.SOLV>
0

>  <SCORE.SYSTEM.norm>
0

>  <SCORE.heavy>
10

>  <SCORE.norm>
-1.35069

>  <RMSD>
2.398

$$$$
ligand
 OpenBabel11021811513D
libRbt.so/2013.1/901 2013/11/27
 10 11  0  0  0  0  0  0  0  0999 V2000
  -30.5047   16.3830  -14.9001 N   0  0  0  0  0  0  0  0  0  0  0  0
  -29.8394   15.6523  -15.8046 C   0  0  0  0  0  0  0  0  0  0  0  0
  -29.5393   15.9514  -17.0679 N   0  0  0  0  0  0  0  0  0  0  0  0
  -30.0056   17.1677  -17.3933 C   0  0  0  0  0  0  0  0  0  0  0  0
  -30.7079   18.0331  -16.5751 C   0  0  0  0  0  0  0  0  0  0  0  0
  -30.9607   17.6014  -15.2574 C   0  0  0  0  0  0  0  0  0  0  0  0
  -31.6262   18.3335  -14.3584 N   0  0  0  0  0  0  0  0  0  0  0  0
  -31.0239   19.1988  -17.2519 N   0  0  0  0  0  0  0  0  0  0  0  0
  -30.5165   19.0155  -18.4484 C   0  0  0  0  0  0  0  0  0  0  0  0
  -29.8880   17.8108  -18.6026 N   0  0  0  0  0  0  0  0  0  0  0  0
  1  2  2  0  0  0  0
  1  6  1  0  0  0  0
  2  3  1  0  0  0  0
  3  4  2  0  0  0  0
  4  5  1  0  0  0  0
  4 10  1  0  0  0  0
  5  6  2  0  0  0  0
  5  8  1  0  0  0  0
  6  7  1  0  0  0  0
  8  9  1  0  0  0  0
  9 10  2  0  0  0  0
M  END
>  <CHROM.1>
-30.46543439,17.51634837,-16.55601278,-1.80044025,1.03612535,-0.93706719

>  <Name>
ligand

>  <RI>
0

>  <Rbt.Current_Directory>
/home/itssahil/PROJECTS/Mol_Feturizer/New_Systems/rnas/4TZX

>  <Rbt.Executable>
rbdock ($Id: //depot/dev/client3/rdock/2013.1/src/exe/rbdock.cxx#4 $)

>  <Rbt.Library>
libRbt.so (2013.1, Build901 2013/11/27)

>  <Rbt.Parameter_File>
/export/apps/rDock/src/rDock_2013.1_src/data/scripts/dock_solv.prm

>  <Rbt.Receptor>
prm/blind_docking_100.prm

>  <SCORE>
-13.5204

>  <SCORE.INTER>
-13.5204

>  <SCORE.INTER.CONST>
1

>  <SCORE.INTER.POLAR>
0

>  <SCORE.INTER.ROT>
0

>  <SCORE.INTER.SOLV>
11.8914

>  <SCORE.INTER.VDW>
-16.5774

>  <SCORE.INTER.norm>
-1.35204

>  <SCORE.INTRA>
0

>  <SCORE.INTRA.DIHEDRAL>
0

>  <SCORE.INTRA.DIHEDRAL.0>
0

>  <SCORE.INTRA.POLAR>
0

>  <SCORE.INTRA.POLAR.0>
0

>  <SCORE.INTRA.REPUL>
0

>  <SCORE.INTRA.REPUL.0>
0

>  <SCORE.INTRA.SOLV>
0

>  <SCORE.INTRA.SOLV.lig_0>
-23.8949

>  <SCORE.INTRA.VDW>
0

>  <SCORE.INTRA.VDW.0>
0

>  <SCORE.INTRA.norm>
0

>  <SCORE.RESTR>
0

>  <SCORE.RESTR.CAVITY>
0

>  <SCORE.RESTR.norm>
0

>  <SCORE.SYSTEM>
0

>  <SCORE.SYSTEM.CONST>
0

>  <SCORE.SYSTEM.DIHEDRAL>
0

>  <SCORE.SYSTEM.SOLV>
0

>  <SCORE.SYSTEM.norm>
0

>  <SCORE.heavy>
10

>  <SCORE.norm>
-1.35204

>  <RMSD>
2.398

$$$$
ligand
 OpenBabel11021811513D
libRbt.so/2013.1/901 2013/11/27
 10 11  0  0  0  0  0  0  0  0999 V2000
  -30.4567   16.3753  -14.9106 N   0  0  0  0  0  0  0  0  0  0  0  0
  -29.8080   15.6316  -15.8166 C   0  0  0  0  0  0  0  0  0  0  0  0
  -29.5299   15.9132  -17.0890 N   0  0  0  0  0  0  0  0  0  0  0  0
  -30.0010   17.1255  -17.4227 C   0  0  0  0  0  0  0  0  0  0  0  0
  -30.6881   18.0026  -16.6041 C   0  0  0  0  0  0  0  0  0  0  0  0
  -30.9181   17.5891  -15.2764 C   0  0  0  0  0  0  0  0  0  0  0  0
  -31.5671   18.3340  -14.3759 N   0  0  0  0  0  0  0  0  0  0  0  0
  -31.0151   19.1593  -17.2911 N   0  0  0  0  0  0  0  0  0  0  0  0
  -30.5290   18.9592  -18.4937 C   0  0  0  0  0  0  0  0  0  0  0  0
  -29.9042   17.7519  -18.6425 N   0  0  0  0  0  0  0  0  0  0  0  0
  1  2  2  0  0  0  0
  1  6  1  0  0  0  0
  2  3  1  0  0  0  0
  3  4  2  0  0  0  0
  4  5  1  0  0  0  0
  4 10  1  0  0  0  0
  5  6  2  0  0  0  0
  5  8  1  0  0  0  0
  6  7  1  0  0  0  0
  8  9  1  0  0  0  0
  9 10  2  0  0  0  0
M  END
>  <CHROM.1>
-30.44578687,17.48590474,-16.58224411,-1.77298148,1.04697127,-0.97439198

>  <Name>
ligand

>  <RI>
0

>  <Rbt.Current_Directory>
/home/itssahil/PROJECTS/Mol_Feturizer/New_Systems/rnas/4TZX

>  <Rbt.Executable>
rbdock ($Id: //depot/dev/client3/rdock/2013.1/src/exe/rbdock.cxx#4 $)

>  <Rbt.Library>
libRbt.so (2013.1, Build901 2013/11/27)

>  <Rbt.Parameter_File>
/export/apps/rDock/src/rDock_2013.1_src/data/scripts/dock_solv.prm

>  <Rbt.Receptor>
prm/pocket_docking_5.prm

>  <SCORE>
-13.4742

>  <SCORE.INTER>
-13.4742

>  <SCORE.INTER.CONST>
1

>  <SCORE.INTER.POLAR>
0

>  <SCORE.INTER.ROT>
0

>  <SCORE.INTER.SOLV>
11.7142

>  <SCORE.INTER.VDW>
-16.4875

>  <SCORE.INTER.norm>
-1.34742

>  <SCORE.INTRA>
0

>  <SCORE.INTRA.DIHEDRAL>
0

>  <SCORE.INTRA.DIHEDRAL.0>
0

>  <SCORE.INTRA.POLAR>
0

>  <SCORE.INTRA.POLAR.0>
0

>  <SCORE.INTRA.REPUL>
0

>  <SCORE.INTRA.REPUL.0>
0

>  <SCORE.INTRA.SOLV>
0

>  <SCORE.INTRA.SOLV.lig_0>
-23.8949

>  <SCORE.INTRA.VDW>
0

>  <SCORE.INTRA.VDW.0>
0

>  <SCORE.INTRA.norm>
0

>  <SCORE.RESTR>
0

>  <SCORE.RESTR.CAVITY>
0

>  <SCORE.RESTR.norm>
0

>  <SCORE.SYSTEM>
0

>  <SCORE.SYSTEM.CONST>
0

>  <SCORE.SYSTEM.DIHEDRAL>
0

>  <SCORE.SYSTEM.SOLV>
0

>  <SCORE.SYSTEM.norm>
0

>  <SCORE.heavy>
10

>  <SCORE.norm>
-1.34742

>  <RMSD>
2.398

$$$$
ligand
 OpenBabel11021811513D
libRbt.so/2013.1/901 2013/11/27
 10 11  0  0  0  0  0  0  0  0999 V2000
  -30.4994   16.3698  -14.9054 N   0  0  0  0  0  0  0  0  0  0  0  0
  -29.8396   15.6419  -15.8162 C   0  0  0  0  0  0  0  0  0  0  0  0
  -29.5445   15.9462  -17.0795 N   0  0  0  0  0  0  0  0  0  0  0  0
  -30.0097   17.1650  -17.3972 C   0  0  0  0  0  0  0  0  0  0  0  0
  -30.7066   18.0281  -16.5719 C   0  0  0  0  0  0  0  0  0  0  0  0
  -30.9544   17.5908  -15.2550 C   0  0  0  0  0  0  0  0  0  0  0  0
  -31.6144   18.3201  -14.3497 N   0  0  0  0  0  0  0  0  0  0  0  0
  -31.0231   19.1975  -17.2419 N   0  0  0  0  0  0  0  0  0  0  0  0
  -30.5215   19.0186  -18.4415 C   0  0  0  0  0  0  0  0  0  0  0  0
  -29.8962   17.8134  -18.6040 N   0  0  0  0  0  0  0  0  0  0  0  0
  1  2  2  0  0  0  0
  1  6  1  0  0  0  0
  2  3  1  0  0  0  0
  3  4  2  0  0  0  0
  4  5  1  0  0  0  0
  4 10  1  0  0  0  0
  5  6  2  0  0  0  0
  5  8  1  0  0  0  0
  6  7  1  0  0  0  0
  8  9  1  0  0  0  0
  9 10  2  0  0  0  0
M  END
>  <CHROM.1>
-30.46512457,17.51069034,-16.55624139,-1.79581580,1.04042962,-0.93643522

>  <Name>
ligand

>  <RI>
0

>  <Rbt.Current_Directory>
/home/itssahil/PROJECTS/Mol_Feturizer/New_Systems/rnas/4TZX

>  <Rbt.Executable>
rbdock ($Id: //depot/dev/client3/rdock/2013.1/src/exe/rbdock.cxx#4 $)

>  <Rbt.Library>
libRbt.so (2013.1, Build901 2013/11/27)

>  <Rbt.Parameter_File>
/export/apps/rDock/src/rDock_2013.1_src/data/scripts/dock_solv.prm

>  <Rbt.Receptor>
prm/pocket_docking_5.prm

>  <SCORE>
-13.519

>  <SCORE.INTER>
-13.519

>  <SCORE.INTER.CONST>
1

>  <SCORE.INTER.POLAR>
0

>  <SCORE.INTER.ROT>
0

>  <SCORE.INTER.SOLV>
11.8628

>  <SCORE.INTER.VDW>
-16.5669

>  <SCORE.INTER.norm>
-1.3519

>  <SCORE.INTRA>
0

>  <SCORE.INTRA.DIHEDRAL>
0

>  <SCORE.INTRA.DIHEDRAL.0>
0

>  <SCORE.INTRA.POLAR>
0

>  <SCORE.INTRA.POLAR.0>
0

>  <SCORE.INTRA.REPUL>
0

>  <SCORE.INTRA.REPUL.0>
0

>  <SCORE.INTRA.SOLV>
0

>  <SCORE.INTRA.SOLV.lig_0>
-23.8949

>  <SCORE.INTRA.VDW>
0

>  <SCORE.INTRA.VDW.0>
0

>  <SCORE.INTRA.norm>
0

>  <SCORE.RESTR>
0

>  <SCORE.RESTR.CAVITY>
0

>  <SCORE.RESTR.norm>
0

>  <SCORE.SYSTEM>
0

>  <SCORE.SYSTEM.CONST>
0

>  <SCORE.SYSTEM.DIHEDRAL>
0

>  <SCORE.SYSTEM.SOLV>
0

>  <SCORE.SYSTEM.norm>
0

>  <SCORE.heavy>
10

>  <SCORE.norm>
-1.3519

>  <RMSD>
2.398

$$$$
ligand
 OpenBabel11021811513D
libRbt.so/2013.1/901 2013/11/27
 10 11  0  0  0  0  0  0  0  0999 V2000
  -29.8546   15.8374  -14.8053 N   0  0  0  0  0  0  0  0  0  0  0  0
  -29.4728   15.1598  -15.8960 C   0  0  0  0  0  0  0  0  0  0  0  0
  -29.4264   15.5679  -17.1636 N   0  0  0  0  0  0  0  0  0  0  0  0
  -29.8352   16.8425  -17.2691 C   0  0  0  0  0  0  0  0  0  0  0  0
  -30.2591   17.6654  -16.2421 C   0  0  0  0  0  0  0  0  0  0  0  0
  -30.2603   17.1166  -14.9438 C   0  0  0  0  0  0  0  0  0  0  0  0
  -30.6434   17.7961  -13.8582 N   0  0  0  0  0  0  0  0  0  0  0  0
  -30.6028   18.9159  -16.7268 N   0  0  0  0  0  0  0  0  0  0  0  0
  -30.3860   18.8235  -18.0179 C   0  0  0  0  0  0  0  0  0  0  0  0
  -29.9222   17.5994  -18.4134 N   0  0  0  0  0  0  0  0  0  0  0  0
  1  2  2  0  0  0  0
  1  6  1  0  0  0  0
  2  3  1  0  0  0  0
  3  4  2  0  0  0  0
  4  5  1  0  0  0  0
  4 10  1  0  0  0  0
  5  6  2  0  0  0  0
  5  8  1  0  0  0  0
  6  7  1  0  0  0  0
  8  9  1  0  0  0  0
  9 10  2  0  0  0  0
M  END
>  <CHROM.1>
-30.06808007,17.13328449,-16.32286851,-1.44509613,1.22298073,-1.16263635

>  <Name>
ligand

>  <RI>
0

>  <Rbt.Current_Directory>
/home/itssahil/PROJECTS/Mol_Feturizer/New_Systems/rnas/4TZX

>  <Rbt.Executable>
rbdock ($Id: //depot/dev/client3/rdock/2013.1/src/exe/rbdock.cxx#4 $)

>  <Rbt.Library>
libRbt.so (2013.1, Build901 2013/11/27)

>  <Rbt.Parameter_File>
/export/apps/rDock/src/rDock_2013.1_src/data/scripts/dock_solv.prm

>  <Rbt.Receptor>
prm/blind_docking_40.prm

>  <SCORE>
-10.9726

>  <SCORE.INTER>
-11.4948

>  <SCORE.INTER.CONST>
1

>  <SCORE.INTER.POLAR>
0

>  <SCORE.INTER.ROT>
0

>  <SCORE.INTER.SOLV>
10.0065

>  <SCORE.INTER.VDW>
-14.5987

>  <SCORE.INTER.norm>
-1.14948

>  <SCORE.INTRA>
0

>  <SCORE.INTRA.DIHEDRAL>
0

>  <SCORE.INTRA.DIHEDRAL.0>
0

>  <SCORE.INTRA.POLAR>
0

>  <SCORE.INTRA.POLAR.0>
0

>  <SCORE.INTRA.REPUL>
0

>  <SCORE.INTRA.REPUL.0>
0

>  <SCORE.INTRA.SOLV>
0

>  <SCORE.INTRA.SOLV.lig_0>
-23.8949

>  <SCORE.INTRA.VDW>
0

>  <SCORE.INTRA.VDW.0>
0

>  <SCORE.INTRA.norm>
0

>  <SCORE.RESTR>
0.522181

>  <SCORE.RESTR.CAVITY>
0.522181

>  <SCORE.RESTR.norm>
0.0522181

>  <SCORE.SYSTEM>
0

>  <SCORE.SYSTEM.CONST>
0

>  <SCORE.SYSTEM.DIHEDRAL>
0

>  <SCORE.SYSTEM.SOLV>
0

>  <SCORE.SYSTEM.norm>
0

>  <SCORE.heavy>
10

>  <SCORE.norm>
-1.09726

>  <RMSD>
2.441

$$$$
ligand
 OpenBabel11021811513D
libRbt.so/2013.1/901 2013/11/27
 10 11  0  0  0  0  0  0  0  0999 V2000
  -29.6650   17.3938  -17.8733 N   0  0  0  0  0  0  0  0  0  0  0  0
  -30.5107   18.4262  -17.9908 C   0  0  0  0  0  0  0  0  0  0  0  0
  -31.3144   18.9610  -17.0724 N   0  0  0  0  0  0  0  0  0  0  0  0
  -31.1957   18.3152  -15.9012 C   0  0  0  0  0  0  0  0  0  0  0  0
  -30.3734   17.2380  -15.6274 C   0  0  0  0  0  0  0  0  0  0  0  0
  -29.5683   16.7653  -16.6834 C   0  0  0  0  0  0  0  0  0  0  0  0
  -28.7266   15.7338  -16.5619 N   0  0  0  0  0  0  0  0  0  0  0  0
  -30.5156   16.8358  -14.3103 N   0  0  0  0  0  0  0  0  0  0  0  0
  -31.4099   17.6637  -13.8232 C   0  0  0  0  0  0  0  0  0  0  0  0
  -31.8629   18.5823  -14.7293 N   0  0  0  0  0  0  0  0  0  0  0  0
  1  2  2  0  0  0  0
  1  6  1  0  0  0  0
  2  3  1  0  0  0  0
  3  4  2  0  0  0  0
  4  5  1  0  0  0  0
  4 10  1  0  0  0  0
  5  6  2  0  0  0  0
  5  8  1  0  0  0  0
  6  7  1  0  0  0  0
  8  9  1  0  0  0  0
  9 10  2  0  0  0  0
M  END
>  <CHROM.1>
-30.50677514,17.58458337,-16.06130816,0.72065892,0.81715072,-1.16150488

>  <Name>
ligand

>  <RI>
0

>  <Rbt.Current_Directory>
/home/itssahil/PROJECTS/Mol_Feturizer/New_Systems/rnas/4TZX

>  <Rbt.Executable>
rbdock ($Id: //depot/dev/client3/rdock/2013.1/src/exe/rbdock.cxx#4 $)

>  <Rbt.Library>
libRbt.so (2013.1, Build901 2013/11/27)

>  <Rbt.Parameter_File>
/export/apps/rDock/src/rDock_2013.1_src/data/scripts/dock_solv.prm

>  <Rbt.Receptor>
prm/pocket_docking_7.prm

>  <SCORE>
-12.954

>  <SCORE.INTER>
-12.954

>  <SCORE.INTER.CONST>
1

>  <SCORE.INTER.POLAR>
0

>  <SCORE.INTER.ROT>
0

>  <SCORE.INTER.SOLV>
8.48815

>  <SCORE.INTER.VDW>
-15.0654

>  <SCORE.INTER.norm>
-1.2954

>  <SCORE.INTRA>
0

>  <SCORE.INTRA.DIHEDRAL>
0

>  <SCORE.INTRA.DIHEDRAL.0>
0

>  <SCORE.INTRA.POLAR>
0

>  <SCORE.INTRA.POLAR.0>
0

>  <SCORE.INTRA.REPUL>
0

>  <SCORE.INTRA.REPUL.0>
0

>  <SCORE.INTRA.SOLV>
0

>  <SCORE.INTRA.SOLV.lig_0>
-23.8949

>  <SCORE.INTRA.VDW>
0

>  <SCORE.INTRA.VDW.0>
0

>  <SCORE.INTRA.norm>
0

>  <SCORE.RESTR>
0

>  <SCORE.RESTR.CAVITY>
0

>  <SCORE.RESTR.norm>
0

>  <SCORE.SYSTEM>
0

>  <SCORE.SYSTEM.CONST>
0

>  <SCORE.SYSTEM.DIHEDRAL>
0

>  <SCORE.SYSTEM.SOLV>
0

>  <SCORE.SYSTEM.norm>
0

>  <SCORE.heavy>
10

>  <SCORE.norm>
-1.2954

>  <RMSD>
2.884

$$$$
ligand
 OpenBabel11021811513D
libRbt.so/2013.1/901 2013/11/27
 10 11  0  0  0  0  0  0  0  0999 V2000
  -29.6212   17.3279  -17.8071 N   0  0  0  0  0  0  0  0  0  0  0  0
  -30.4801   18.3436  -17.9670 C   0  0  0  0  0  0  0  0  0  0  0  0
  -31.3046   18.8932  -17.0762 N   0  0  0  0  0  0  0  0  0  0  0  0
  -31.1933   18.2841  -15.8847 C   0  0  0  0  0  0  0  0  0  0  0  0
  -30.3594   17.2279  -15.5676 C   0  0  0  0  0  0  0  0  0  0  0  0
  -29.5324   16.7364  -16.5978 C   0  0  0  0  0  0  0  0  0  0  0  0
  -28.6776   15.7217  -16.4340 N   0  0  0  0  0  0  0  0  0  0  0  0
  -30.5146   16.8627  -14.2413 N   0  0  0  0  0  0  0  0  0  0  0  0
  -31.4278   17.6911  -13.7914 C   0  0  0  0  0  0  0  0  0  0  0  0
  -31.8811   18.5756  -14.7307 N   0  0  0  0  0  0  0  0  0  0  0  0
  1  2  2  0  0  0  0
  1  6  1  0  0  0  0
  2  3  1  0  0  0  0
  3  4  2  0  0  0  0
  4  5  1  0  0  0  0
  4 10  1  0  0  0  0
  5  6  2  0  0  0  0
  5  8  1  0  0  0  0
  6  7  1  0  0  0  0
  8  9  1  0  0  0  0
  9 10  2  0  0  0  0
M  END
>  <CHROM.1>
-30.49159399,17.55949723,-16.01346002,0.71012494,0.79802644,-1.18353481

>  <Name>
ligand

>  <RI>
0

>  <Rbt.Current_Directory>
/home/itssahil/PROJECTS/Mol_Feturizer/New_Systems/rnas/4TZX

>  <Rbt.Executable>
rbdock ($Id: //depot/dev/client3/rdock/2013.1/src/exe/rbdock.cxx#4 $)

>  <Rbt.Library>
libRbt.so (2013.1, Build901 2013/11/27)

>  <Rbt.Parameter_File>
/export/apps/rDock/src/rDock_2013.1_src/data/scripts/dock_solv.prm

>  <Rbt.Receptor>
prm/blind_docking_100.prm

>  <SCORE>
-12.9956

>  <SCORE.INTER>
-12.9956

>  <SCORE.INTER.CONST>
1

>  <SCORE.INTER.POLAR>
0

>  <SCORE.INTER.ROT>
0

>  <SCORE.INTER.SOLV>
7.96653

>  <SCORE.INTER.VDW>
-14.9192

>  <SCORE.INTER.norm>
-1.29956

>  <SCORE.INTRA>
0

>  <SCORE.INTRA.DIHEDRAL>
0

>  <SCORE.INTRA.DIHEDRAL.0>
0

>  <SCORE.INTRA.POLAR>
0

>  <SCORE.INTRA.POLAR.0>
0

>  <SCORE.INTRA.REPUL>
0

>  <SCORE.INTRA.REPUL.0>
0

>  <SCORE.INTRA.SOLV>
0

>  <SCORE.INTRA.SOLV.lig_0>
-23.8949

>  <SCORE.INTRA.VDW>
0

>  <SCORE.INTRA.VDW.0>
0

>  <SCORE.INTRA.norm>
0

>  <SCORE.RESTR>
0

>  <SCORE.RESTR.CAVITY>
0

>  <SCORE.RESTR.norm>
0

>  <SCORE.SYSTEM>
0

>  <SCORE.SYSTEM.CONST>
0

>  <SCORE.SYSTEM.DIHEDRAL>
0

>  <SCORE.SYSTEM.SOLV>
0

>  <SCORE.SYSTEM.norm>
0

>  <SCORE.heavy>
10

>  <SCORE.norm>
-1.29956

>  <RMSD>
2.886

$$$$
ligand
 OpenBabel11021811513D
libRbt.so/2013.1/901 2013/11/27
 10 11  0  0  0  0  0  0  0  0999 V2000
  -29.6312   17.3131  -17.8002 N   0  0  0  0  0  0  0  0  0  0  0  0
  -30.4894   18.3295  -17.9588 C   0  0  0  0  0  0  0  0  0  0  0  0
  -31.3034   18.8875  -17.0635 N   0  0  0  0  0  0  0  0  0  0  0  0
  -31.1812   18.2870  -15.8688 C   0  0  0  0  0  0  0  0  0  0  0  0
  -30.3464   17.2313  -15.5526 C   0  0  0  0  0  0  0  0  0  0  0  0
  -29.5312   16.7303  -16.5875 C   0  0  0  0  0  0  0  0  0  0  0  0
  -28.6770   15.7148  -16.4251 N   0  0  0  0  0  0  0  0  0  0  0  0
  -30.4887   16.8762  -14.2220 N   0  0  0  0  0  0  0  0  0  0  0  0
  -31.3954   17.7100  -13.7689 C   0  0  0  0  0  0  0  0  0  0  0  0
  -31.8564   18.5886  -14.7100 N   0  0  0  0  0  0  0  0  0  0  0  0
  1  2  2  0  0  0  0
  1  6  1  0  0  0  0
  2  3  1  0  0  0  0
  3  4  2  0  0  0  0
  4  5  1  0  0  0  0
  4 10  1  0  0  0  0
  5  6  2  0  0  0  0
  5  8  1  0  0  0  0
  6  7  1  0  0  0  0
  8  9  1  0  0  0  0
  9 10  2  0  0  0  0
M  END
>  <CHROM.1>
-30.48244106,17.55985932,-15.99944561,0.72268597,0.80395136,-1.19992617

>  <Name>
ligand

>  <RI>
0

>  <Rbt.Current_Directory>
/home/itssahil/PROJECTS/Mol_Feturizer/New_Systems/rnas/4TZX

>  <Rbt.Executable>
rbdock ($Id: //depot/dev/client3/rdock/2013.1/src/exe/rbdock.cxx#4 $)

>  <Rbt.Library>
libRbt.so (2013.1, Build901 2013/11/27)

>  <Rbt.Parameter_File>
/export/apps/rDock/src/rDock_2013.1_src/data/scripts/dock_solv.prm

>  <Rbt.Receptor>
prm/blind_docking_100.prm

>  <SCORE>
-12.9413

>  <SCORE.INTER>
-12.9413

>  <SCORE.INTER.CONST>
1

>  <SCORE.INTER.POLAR>
0

>  <SCORE.INTER.ROT>
0

>  <SCORE.INTER.SOLV>
7.92944

>  <SCORE.INTER.VDW>
-14.8707

>  <SCORE.INTER.norm>
-1.29413

>  <SCORE.INTRA>
0

>  <SCORE.INTRA.DIHEDRAL>
0

>  <SCORE.INTRA.DIHEDRAL.0>
0

>  <SCORE.INTRA.POLAR>
0

>  <SCORE.INTRA.POLAR.0>
0

>  <SCORE.INTRA.REPUL>
0

>  <SCORE.INTRA.REPUL.0>
0

>  <SCORE.INTRA.SOLV>
0

>  <SCORE.INTRA.SOLV.lig_0>
-23.8949

>  <SCORE.INTRA.VDW>
0

>  <SCORE.INTRA.VDW.0>
0

>  <SCORE.INTRA.norm>
0

>  <SCORE.RESTR>
0

>  <SCORE.RESTR.CAVITY>
0

>  <SCORE.RESTR.norm>
0

>  <SCORE.SYSTEM>
0

>  <SCORE.SYSTEM.CONST>
0

>  <SCORE.SYSTEM.DIHEDRAL>
0

>  <SCORE.SYSTEM.SOLV>
0

>  <SCORE.SYSTEM.norm>
0

>  <SCORE.heavy>
10

>  <SCORE.norm>
-1.29413

>  <RMSD>
2.888

$$$$
ligand
 OpenBabel11021811513D
libRbt.so/2013.1/901 2013/11/27
 10 11  0  0  0  0  0  0  0  0999 V2000
  -29.6891   17.3945  -17.8733 N   0  0  0  0  0  0  0  0  0  0  0  0
  -30.5796   18.3873  -18.0006 C   0  0  0  0  0  0  0  0  0  0  0  0
  -31.4036   18.8975  -17.0861 N   0  0  0  0  0  0  0  0  0  0  0  0
  -31.2535   18.2719  -15.9076 C   0  0  0  0  0  0  0  0  0  0  0  0
  -30.3840   17.2352  -15.6234 C   0  0  0  0  0  0  0  0  0  0  0  0
  -29.5617   16.7855  -16.6762 C   0  0  0  0  0  0  0  0  0  0  0  0
  -28.6753   15.7935  -16.5450 N   0  0  0  0  0  0  0  0  0  0  0  0
  -30.5049   16.8433  -14.3011 N   0  0  0  0  0  0  0  0  0  0  0  0
  -31.4334   17.6371  -13.8212 C   0  0  0  0  0  0  0  0  0  0  0  0
  -31.9287   18.5237  -14.7369 N   0  0  0  0  0  0  0  0  0  0  0  0
  1  2  2  0  0  0  0
  1  6  1  0  0  0  0
  2  3  1  0  0  0  0
  3  4  2  0  0  0  0
  4  5  1  0  0  0  0
  4 10  1  0  0  0  0
  5  6  2  0  0  0  0
  5  8  1  0  0  0  0
  6  7  1  0  0  0  0
  8  9  1  0  0  0  0
  9 10  2  0  0  0  0
M  END
>  <CHROM.1>
-30.53363301,17.57033580,-16.06106671,0.74860329,0.77771418,-1.19364845

>  <Name>
ligand

>  <RI>
0

>  <Rbt.Current_Directory>
/home/itssahil/PROJECTS/Mol_Feturizer/New_Systems/rnas/4TZX

>  <Rbt.Executable>
rbdock ($Id: //depot/dev/client3/rdock/2013.1/src/exe/rbdock.cxx#4 $)

>  <Rbt.Library>
libRbt.so (2013.1, Build901 2013/11/27)

>  <Rbt.Parameter_File>
/export/apps/rDock/src/rDock_2013.1_src/data/scripts/dock_solv.prm

>  <Rbt.Receptor>
prm/pocket_docking_5.prm

>  <SCORE>
-12.9886

>  <SCORE.INTER>
-12.9886

>  <SCORE.INTER.CONST>
1

>  <SCORE.INTER.POLAR>
0

>  <SCORE.INTER.ROT>
0

>  <SCORE.INTER.SOLV>
8.28072

>  <SCORE.INTER.VDW>
-15.0193

>  <SCORE.INTER.norm>
-1.29886

>  <SCORE.INTRA>
0

>  <SCORE.INTRA.DIHEDRAL>
0

>  <SCORE.INTRA.DIHEDRAL.0>
0

>  <SCORE.INTRA.POLAR>
0

>  <SCORE.INTRA.POLAR.0>
0

>  <SCORE.INTRA.REPUL>
0

>  <SCORE.INTRA.REPUL.0>
0

>  <SCORE.INTRA.SOLV>
0

>  <SCORE.INTRA.SOLV.lig_0>
-23.8949

>  <SCORE.INTRA.VDW>
0

>  <SCORE.INTRA.VDW.0>
0

>  <SCORE.INTRA.norm>
0

>  <SCORE.RESTR>
0

>  <SCORE.RESTR.CAVITY>
0

>  <SCORE.RESTR.norm>
0

>  <SCORE.SYSTEM>
0

>  <SCORE.SYSTEM.CONST>
0

>  <SCORE.SYSTEM.DIHEDRAL>
0

>  <SCORE.SYSTEM.SOLV>
0

>  <SCORE.SYSTEM.norm>
0

>  <SCORE.heavy>
10

>  <SCORE.norm>
-1.29886

>  <RMSD>
2.889

$$$$
ligand
 OpenBabel11021811513D
libRbt.so/2013.1/901 2013/11/27
 10 11  0  0  0  0  0  0  0  0999 V2000
  -29.6033   17.3515  -17.7875 N   0  0  0  0  0  0  0  0  0  0  0  0
  -30.4787   18.3517  -17.9552 C   0  0  0  0  0  0  0  0  0  0  0  0
  -31.3188   18.8882  -17.0710 N   0  0  0  0  0  0  0  0  0  0  0  0
  -31.2052   18.2831  -15.8778 C   0  0  0  0  0  0  0  0  0  0  0  0
  -30.3551   17.2422  -15.5530 C   0  0  0  0  0  0  0  0  0  0  0  0
  -29.5125   16.7636  -16.5766 C   0  0  0  0  0  0  0  0  0  0  0  0
  -28.6412   15.7643  -16.4051 N   0  0  0  0  0  0  0  0  0  0  0  0
  -30.5130   16.8765  -14.2271 N   0  0  0  0  0  0  0  0  0  0  0  0
  -31.4437   17.6896  -13.7851 C   0  0  0  0  0  0  0  0  0  0  0  0
  -31.9059   18.5645  -14.7290 N   0  0  0  0  0  0  0  0  0  0  0  0
  1  2  2  0  0  0  0
  1  6  1  0  0  0  0
  2  3  1  0  0  0  0
  3  4  2  0  0  0  0
  4  5  1  0  0  0  0
  4 10  1  0  0  0  0
  5  6  2  0  0  0  0
  5  8  1  0  0  0  0
  6  7  1  0  0  0  0
  8  9  1  0  0  0  0
  9 10  2  0  0  0  0
M  END
>  <CHROM.1>
-30.48996097,17.57074143,-16.00036910,0.71039638,0.77919363,-1.18543030

>  <Name>
ligand

>  <RI>
0

>  <Rbt.Current_Directory>
/home/itssahil/PROJECTS/Mol_Feturizer/New_Systems/rnas/4TZX

>  <Rbt.Executable>
rbdock ($Id: //depot/dev/client3/rdock/2013.1/src/exe/rbdock.cxx#4 $)

>  <Rbt.Library>
libRbt.so (2013.1, Build901 2013/11/27)

>  <Rbt.Parameter_File>
/export/apps/rDock/src/rDock_2013.1_src/data/scripts/dock_solv.prm

>  <Rbt.Receptor>
prm/pocket_docking_8.prm

>  <SCORE>
-12.9617

>  <SCORE.INTER>
-12.9617

>  <SCORE.INTER.CONST>
1

>  <SCORE.INTER.POLAR>
0

>  <SCORE.INTER.ROT>
0

>  <SCORE.INTER.SOLV>
7.80432

>  <SCORE.INTER.VDW>
-14.8426

>  <SCORE.INTER.norm>
-1.29617

>  <SCORE.INTRA>
0

>  <SCORE.INTRA.DIHEDRAL>
0

>  <SCORE.INTRA.DIHEDRAL.0>
0

>  <SCORE.INTRA.POLAR>
0

>  <SCORE.INTRA.POLAR.0>
0

>  <SCORE.INTRA.REPUL>
0

>  <SCORE.INTRA.REPUL.0>
0

>  <SCORE.INTRA.SOLV>
0

>  <SCORE.INTRA.SOLV.lig_0>
-23.8949

>  <SCORE.INTRA.VDW>
0

>  <SCORE.INTRA.VDW.0>
0

>  <SCORE.INTRA.norm>
0

>  <SCORE.RESTR>
0

>  <SCORE.RESTR.CAVITY>
0

>  <SCORE.RESTR.norm>
0

>  <SCORE.SYSTEM>
0

>  <SCORE.SYSTEM.CONST>
0

>  <SCORE.SYSTEM.DIHEDRAL>
0

>  <SCORE.SYSTEM.SOLV>
0

>  <SCORE.SYSTEM.norm>
0

>  <SCORE.heavy>
10

>  <SCORE.norm>
-1.29617

>  <RMSD>
2.889

$$$$
ligand
 OpenBabel11021811513D
libRbt.so/2013.1/901 2013/11/27
 10 11  0  0  0  0  0  0  0  0999 V2000
  -29.6226   17.3812  -17.8064 N   0  0  0  0  0  0  0  0  0  0  0  0
  -30.5109   18.3716  -17.9641 C   0  0  0  0  0  0  0  0  0  0  0  0
  -31.3514   18.8945  -17.0722 N   0  0  0  0  0  0  0  0  0  0  0  0
  -31.2226   18.2859  -15.8822 C   0  0  0  0  0  0  0  0  0  0  0  0
  -30.3581   17.2538  -15.5675 C   0  0  0  0  0  0  0  0  0  0  0  0
  -29.5167   16.7895  -16.5986 C   0  0  0  0  0  0  0  0  0  0  0  0
  -28.6326   15.7999  -16.4371 N   0  0  0  0  0  0  0  0  0  0  0  0
  -30.5029   16.8808  -14.2422 N   0  0  0  0  0  0  0  0  0  0  0  0
  -31.4402   17.6809  -13.7906 C   0  0  0  0  0  0  0  0  0  0  0  0
  -31.9190   18.5541  -14.7277 N   0  0  0  0  0  0  0  0  0  0  0  0
  1  2  2  0  0  0  0
  1  6  1  0  0  0  0
  2  3  1  0  0  0  0
  3  4  2  0  0  0  0
  4  5  1  0  0  0  0
  4 10  1  0  0  0  0
  5  6  2  0  0  0  0
  5  8  1  0  0  0  0
  6  7  1  0  0  0  0
  8  9  1  0  0  0  0
  9 10  2  0  0  0  0
M  END
>  <CHROM.1>
-30.49988076,17.58254310,-16.01257445,0.72521146,0.77063549,-1.19164032

>  <Name>
ligand

>  <RI>
0

>  <Rbt.Current_Directory>
/home/itssahil/PROJECTS/Mol_Feturizer/New_Systems/rnas/4TZX

>  <Rbt.Executable>
rbdock ($Id: //depot/dev/client3/rdock/2013.1/src/exe/rbdock.cxx#4 $)

>  <Rbt.Library>
libRbt.so (2013.1, Build901 2013/11/27)

>  <Rbt.Parameter_File>
/export/apps/rDock/src/rDock_2013.1_src/data/scripts/dock_solv.prm

>  <Rbt.Receptor>
prm/blind_docking_100.prm

>  <SCORE>
-12.9685

>  <SCORE.INTER>
-12.9685

>  <SCORE.INTER.CONST>
1

>  <SCORE.INTER.POLAR>
0

>  <SCORE.INTER.ROT>
0

>  <SCORE.INTER.SOLV>
7.86062

>  <SCORE.INTER.VDW>
-14.8659

>  <SCORE.INTER.norm>
-1.29685

>  <SCORE.INTRA>
0

>  <SCORE.INTRA.DIHEDRAL>
0

>  <SCORE.INTRA.DIHEDRAL.0>
0

>  <SCORE.INTRA.POLAR>
0

>  <SCORE.INTRA.POLAR.0>
0

>  <SCORE.INTRA.REPUL>
0

>  <SCORE.INTRA.REPUL.0>
0

>  <SCORE.INTRA.SOLV>
0

>  <SCORE.INTRA.SOLV.lig_0>
-23.8949

>  <SCORE.INTRA.VDW>
0

>  <SCORE.INTRA.VDW.0>
0

>  <SCORE.INTRA.norm>
0

>  <SCORE.RESTR>
0

>  <SCORE.RESTR.CAVITY>
0

>  <SCORE.RESTR.norm>
0

>  <SCORE.SYSTEM>
0

>  <SCORE.SYSTEM.CONST>
0

>  <SCORE.SYSTEM.DIHEDRAL>
0

>  <SCORE.SYSTEM.SOLV>
0

>  <SCORE.SYSTEM.norm>
0

>  <SCORE.heavy>
10

>  <SCORE.norm>
-1.29685

>  <RMSD>
2.890

$$$$
ligand
 OpenBabel11021811513D
libRbt.so/2013.1/901 2013/11/27
 10 11  0  0  0  0  0  0  0  0999 V2000
  -29.6112   17.3813  -17.7978 N   0  0  0  0  0  0  0  0  0  0  0  0
  -30.4992   18.3714  -17.9598 C   0  0  0  0  0  0  0  0  0  0  0  0
  -31.3431   18.8950  -17.0715 N   0  0  0  0  0  0  0  0  0  0  0  0
  -31.2185   18.2877  -15.8805 C   0  0  0  0  0  0  0  0  0  0  0  0
  -30.3550   17.2561  -15.5615 C   0  0  0  0  0  0  0  0  0  0  0  0
  -29.5097   16.7909  -16.5890 C   0  0  0  0  0  0  0  0  0  0  0  0
  -28.6259   15.8017  -16.4232 N   0  0  0  0  0  0  0  0  0  0  0  0
  -30.5045   16.8845  -14.2363 N   0  0  0  0  0  0  0  0  0  0  0  0
  -31.4436   17.6849  -13.7890 C   0  0  0  0  0  0  0  0  0  0  0  0
  -31.9192   18.5570  -14.7288 N   0  0  0  0  0  0  0  0  0  0  0  0
  1  2  2  0  0  0  0
  1  6  1  0  0  0  0
  2  3  1  0  0  0  0
  3  4  2  0  0  0  0
  4  5  1  0  0  0  0
  4 10  1  0  0  0  0
  5  6  2  0  0  0  0
  5  8  1  0  0  0  0
  6  7  1  0  0  0  0
  8  9  1  0  0  0  0
  9 10  2  0  0  0  0
M  END
>  <CHROM.1>
-30.49515403,17.58435098,-16.00739929,0.72059309,0.76908219,-1.18948438

>  <Name>
ligand

>  <RI>
0

>  <Rbt.Current_Directory>
/home/itssahil/PROJECTS/Mol_Feturizer/New_Systems/rnas/4TZX

>  <Rbt.Executable>
rbdock ($Id: //depot/dev/client3/rdock/2013.1/src/exe/rbdock.cxx#4 $)

>  <Rbt.Library>
libRbt.so (2013.1, Build901 2013/11/27)

>  <Rbt.Parameter_File>
/export/apps/rDock/src/rDock_2013.1_src/data/scripts/dock_solv.prm

>  <Rbt.Receptor>
prm/pocket_docking_5.prm

>  <SCORE>
-12.97

>  <SCORE.INTER>
-12.97

>  <SCORE.INTER.CONST>
1

>  <SCORE.INTER.POLAR>
0

>  <SCORE.INTER.ROT>
0

>  <SCORE.INTER.SOLV>
7.81215

>  <SCORE.INTER.VDW>
-14.8507

>  <SCORE.INTER.norm>
-1.297

>  <SCORE.INTRA>
0

>  <SCORE.INTRA.DIHEDRAL>
0

>  <SCORE.INTRA.DIHEDRAL.0>
0

>  <SCORE.INTRA.POLAR>
0

>  <SCORE.INTRA.POLAR.0>
0

>  <SCORE.INTRA.REPUL>
0

>  <SCORE.INTRA.REPUL.0>
0

>  <SCORE.INTRA.SOLV>
0

>  <SCORE.INTRA.SOLV.lig_0>
-23.8949

>  <SCORE.INTRA.VDW>
0

>  <SCORE.INTRA.VDW.0>
0

>  <SCORE.INTRA.norm>
0

>  <SCORE.RESTR>
0

>  <SCORE.RESTR.CAVITY>
0

>  <SCORE.RESTR.norm>
0

>  <SCORE.SYSTEM>
0

>  <SCORE.SYSTEM.CONST>
0

>  <SCORE.SYSTEM.DIHEDRAL>
0

>  <SCORE.SYSTEM.SOLV>
0

>  <SCORE.SYSTEM.norm>
0

>  <SCORE.heavy>
10

>  <SCORE.norm>
-1.297

>  <RMSD>
2.890

$$$$
ligand
 OpenBabel11021811513D
libRbt.so/2013.1/901 2013/11/27
 10 11  0  0  0  0  0  0  0  0999 V2000
  -29.6208   17.3768  -17.8012 N   0  0  0  0  0  0  0  0  0  0  0  0
  -30.5083   18.3678  -17.9597 C   0  0  0  0  0  0  0  0  0  0  0  0
  -31.3481   18.8923  -17.0679 N   0  0  0  0  0  0  0  0  0  0  0  0
  -31.2194   18.2848  -15.8774 C   0  0  0  0  0  0  0  0  0  0  0  0
  -30.3556   17.2524  -15.5619 C   0  0  0  0  0  0  0  0  0  0  0  0
  -29.5150   16.7862  -16.5929 C   0  0  0  0  0  0  0  0  0  0  0  0
  -28.6317   15.7961  -16.4306 N   0  0  0  0  0  0  0  0  0  0  0  0
  -30.5002   16.8809  -14.2361 N   0  0  0  0  0  0  0  0  0  0  0  0
  -31.4367   17.6823  -13.7850 C   0  0  0  0  0  0  0  0  0  0  0  0
  -31.9151   18.5549  -14.7229 N   0  0  0  0  0  0  0  0  0  0  0  0
  1  2  2  0  0  0  0
  1  6  1  0  0  0  0
  2  3  1  0  0  0  0
  3  4  2  0  0  0  0
  4  5  1  0  0  0  0
  4 10  1  0  0  0  0
  5  6  2  0  0  0  0
  5  8  1  0  0  0  0
  6  7  1  0  0  0  0
  8  9  1  0  0  0  0
  9 10  2  0  0  0  0
M  END
>  <CHROM.1>
-30.49727082,17.58073552,-16.00728217,0.72524517,0.77157894,-1.19271931

>  <Name>
ligand

>  <RI>
0

>  <Rbt.Current_Directory>
/home/itssahil/PROJECTS/Mol_Feturizer/New_Systems/rnas/4TZX

>  <Rbt.Executable>
rbdock ($Id: //depot/dev/client3/rdock/2013.1/src/exe/rbdock.cxx#4 $)

>  <Rbt.Library>
libRbt.so (2013.1, Build901 2013/11/27)

>  <Rbt.Parameter_File>
/export/apps/rDock/src/rDock_2013.1_src/data/scripts/dock_solv.prm

>  <Rbt.Receptor>
prm/blind_docking_60.prm

>  <SCORE>
-12.9702

>  <SCORE.INTER>
-12.9702

>  <SCORE.INTER.CONST>
1

>  <SCORE.INTER.POLAR>
0

>  <SCORE.INTER.ROT>
0

>  <SCORE.INTER.SOLV>
7.84132

>  <SCORE.INTER.VDW>
-14.8606

>  <SCORE.INTER.norm>
-1.29702

>  <SCORE.INTRA>
0

>  <SCORE.INTRA.DIHEDRAL>
0

>  <SCORE.INTRA.DIHEDRAL.0>
0

>  <SCORE.INTRA.POLAR>
0

>  <SCORE.INTRA.POLAR.0>
0

>  <SCORE.INTRA.REPUL>
0

>  <SCORE.INTRA.REPUL.0>
0

>  <SCORE.INTRA.SOLV>
0

>  <SCORE.INTRA.SOLV.lig_0>
-23.8949

>  <SCORE.INTRA.VDW>
0

>  <SCORE.INTRA.VDW.0>
0

>  <SCORE.INTRA.norm>
0

>  <SCORE.RESTR>
0

>  <SCORE.RESTR.CAVITY>
0

>  <SCORE.RESTR.norm>
0

>  <SCORE.SYSTEM>
0

>  <SCORE.SYSTEM.CONST>
0

>  <SCORE.SYSTEM.DIHEDRAL>
0

>  <SCORE.SYSTEM.SOLV>
0

>  <SCORE.SYSTEM.norm>
0

>  <SCORE.heavy>
10

>  <SCORE.norm>
-1.29702

>  <RMSD>
2.891

$$$$
ligand
 OpenBabel11021811513D
libRbt.so/2013.1/901 2013/11/27
 10 11  0  0  0  0  0  0  0  0999 V2000
  -29.6200   17.3694  -17.7697 N   0  0  0  0  0  0  0  0  0  0  0  0
  -30.5028   18.3620  -17.9436 C   0  0  0  0  0  0  0  0  0  0  0  0
  -31.3575   18.8876  -17.0668 N   0  0  0  0  0  0  0  0  0  0  0  0
  -31.2510   18.2796  -15.8744 C   0  0  0  0  0  0  0  0  0  0  0  0
  -30.3947   17.2456  -15.5439 C   0  0  0  0  0  0  0  0  0  0  0  0
  -29.5367   16.7783  -16.5599 C   0  0  0  0  0  0  0  0  0  0  0  0
  -28.6580   15.7866  -16.3823 N   0  0  0  0  0  0  0  0  0  0  0  0
  -30.5635   16.8740  -14.2210 N   0  0  0  0  0  0  0  0  0  0  0  0
  -31.5065   17.6768  -13.7864 C   0  0  0  0  0  0  0  0  0  0  0  0
  -31.9667   18.5505  -14.7323 N   0  0  0  0  0  0  0  0  0  0  0  0
  1  2  2  0  0  0  0
  1  6  1  0  0  0  0
  2  3  1  0  0  0  0
  3  4  2  0  0  0  0
  4  5  1  0  0  0  0
  4 10  1  0  0  0  0
  5  6  2  0  0  0  0
  5  8  1  0  0  0  0
  6  7  1  0  0  0  0
  8  9  1  0  0  0  0
  9 10  2  0  0  0  0
M  END
>  <CHROM.1>
-30.52786211,17.57433755,-15.99157729,0.70144412,0.76643708,-1.17585623

>  <Name>
ligand

>  <RI>
0

>  <Rbt.Current_Directory>
/home/itssahil/PROJECTS/Mol_Feturizer/New_Systems/rnas/4TZX

>  <Rbt.Executable>
rbdock ($Id: //depot/dev/client3/rdock/2013.1/src/exe/rbdock.cxx#4 $)

>  <Rbt.Library>
libRbt.so (2013.1, Build901 2013/11/27)

>  <Rbt.Parameter_File>
/export/apps/rDock/src/rDock_2013.1_src/data/scripts/dock_solv.prm

>  <Rbt.Receptor>
prm/pocket_docking_6.prm

>  <SCORE>
-12.9396

>  <SCORE.INTER>
-12.9396

>  <SCORE.INTER.CONST>
1

>  <SCORE.INTER.POLAR>
0

>  <SCORE.INTER.ROT>
0

>  <SCORE.INTER.SOLV>
7.75991

>  <SCORE.INTER.VDW>
-14.813

>  <SCORE.INTER.norm>
-1.29396

>  <SCORE.INTRA>
0

>  <SCORE.INTRA.DIHEDRAL>
0

>  <SCORE.INTRA.DIHEDRAL.0>
0

>  <SCORE.INTRA.POLAR>
0

>  <SCORE.INTRA.POLAR.0>
0

>  <SCORE.INTRA.REPUL>
0

>  <SCORE.INTRA.REPUL.0>
0

>  <SCORE.INTRA.SOLV>
0

>  <SCORE.INTRA.SOLV.lig_0>
-23.8949

>  <SCORE.INTRA.VDW>
0

>  <SCORE.INTRA.VDW.0>
0

>  <SCORE.INTRA.norm>
0

>  <SCORE.RESTR>
0

>  <SCORE.RESTR.CAVITY>
0

>  <SCORE.RESTR.norm>
0

>  <SCORE.SYSTEM>
0

>  <SCORE.SYSTEM.CONST>
0

>  <SCORE.SYSTEM.DIHEDRAL>
0

>  <SCORE.SYSTEM.SOLV>
0

>  <SCORE.SYSTEM.norm>
0

>  <SCORE.heavy>
10

>  <SCORE.norm>
-1.29396

>  <RMSD>
2.891

$$$$
ligand
 OpenBabel11021811513D
libRbt.so/2013.1/901 2013/11/27
 10 11  0  0  0  0  0  0  0  0999 V2000
  -29.6186   17.4187  -17.8044 N   0  0  0  0  0  0  0  0  0  0  0  0
  -30.4928   18.4238  -17.9471 C   0  0  0  0  0  0  0  0  0  0  0  0
  -31.3262   18.9449  -17.0474 N   0  0  0  0  0  0  0  0  0  0  0  0
  -31.2064   18.3166  -15.8669 C   0  0  0  0  0  0  0  0  0  0  0  0
  -30.3566   17.2678  -15.5678 C   0  0  0  0  0  0  0  0  0  0  0  0
  -29.5215   16.8073  -16.6057 C   0  0  0  0  0  0  0  0  0  0  0  0
  -28.6515   15.8030  -16.4591 N   0  0  0  0  0  0  0  0  0  0  0  0
  -30.5071   16.8768  -14.2482 N   0  0  0  0  0  0  0  0  0  0  0  0
  -31.4332   17.6831  -13.7846 C   0  0  0  0  0  0  0  0  0  0  0  0
  -31.8993   18.5770  -14.7085 N   0  0  0  0  0  0  0  0  0  0  0  0
  1  2  2  0  0  0  0
  1  6  1  0  0  0  0
  2  3  1  0  0  0  0
  3  4  2  0  0  0  0
  4  5  1  0  0  0  0
  4 10  1  0  0  0  0
  5  6  2  0  0  0  0
  5  8  1  0  0  0  0
  6  7  1  0  0  0  0
  8  9  1  0  0  0  0
  9 10  2  0  0  0  0
M  END
>  <CHROM.1>
-30.49359736,17.60516072,-16.00776879,0.71741518,0.78360334,-1.17100072

>  <Name>
ligand

>  <RI>
0

>  <Rbt.Current_Directory>
/home/itssahil/PROJECTS/Mol_Feturizer/New_Systems/rnas/4TZX

>  <Rbt.Executable>
rbdock ($Id: //depot/dev/client3/rdock/2013.1/src/exe/rbdock.cxx#4 $)

>  <Rbt.Library>
libRbt.so (2013.1, Build901 2013/11/27)

>  <Rbt.Parameter_File>
/export/apps/rDock/src/rDock_2013.1_src/data/scripts/dock_solv.prm

>  <Rbt.Receptor>
prm/pocket_docking_8.prm

>  <SCORE>
-12.9811

>  <SCORE.INTER>
-12.9811

>  <SCORE.INTER.CONST>
1

>  <SCORE.INTER.POLAR>
0

>  <SCORE.INTER.ROT>
0

>  <SCORE.INTER.SOLV>
7.95827

>  <SCORE.INTER.VDW>
-14.9068

>  <SCORE.INTER.norm>
-1.29811

>  <SCORE.INTRA>
0

>  <SCORE.INTRA.DIHEDRAL>
0

>  <SCORE.INTRA.DIHEDRAL.0>
0

>  <SCORE.INTRA.POLAR>
0

>  <SCORE.INTRA.POLAR.0>
0

>  <SCORE.INTRA.REPUL>
0

>  <SCORE.INTRA.REPUL.0>
0

>  <SCORE.INTRA.SOLV>
0

>  <SCORE.INTRA.SOLV.lig_0>
-23.8949

>  <SCORE.INTRA.VDW>
0

>  <SCORE.INTRA.VDW.0>
0

>  <SCORE.INTRA.norm>
0

>  <SCORE.RESTR>
0

>  <SCORE.RESTR.CAVITY>
0

>  <SCORE.RESTR.norm>
0

>  <SCORE.SYSTEM>
0

>  <SCORE.SYSTEM.CONST>
0

>  <SCORE.SYSTEM.DIHEDRAL>
0

>  <SCORE.SYSTEM.SOLV>
0

>  <SCORE.SYSTEM.norm>
0

>  <SCORE.heavy>
10

>  <SCORE.norm>
-1.29811

>  <RMSD>
2.891

$$$$
ligand
 OpenBabel11021811513D
libRbt.so/2013.1/901 2013/11/27
 10 11  0  0  0  0  0  0  0  0999 V2000
  -29.6149   17.3656  -17.7823 N   0  0  0  0  0  0  0  0  0  0  0  0
  -30.4698   18.3862  -17.9314 C   0  0  0  0  0  0  0  0  0  0  0  0
  -31.2888   18.9324  -17.0334 N   0  0  0  0  0  0  0  0  0  0  0  0
  -31.1762   18.3135  -15.8471 C   0  0  0  0  0  0  0  0  0  0  0  0
  -30.3458   17.2512  -15.5412 C   0  0  0  0  0  0  0  0  0  0  0  0
  -29.5245   16.7642  -16.5780 C   0  0  0  0  0  0  0  0  0  0  0  0
  -28.6737   15.7445  -16.4251 N   0  0  0  0  0  0  0  0  0  0  0  0
  -30.4981   16.8763  -14.2172 N   0  0  0  0  0  0  0  0  0  0  0  0
  -31.4061   17.7052  -13.7578 C   0  0  0  0  0  0  0  0  0  0  0  0
  -31.8587   18.5990  -14.6885 N   0  0  0  0  0  0  0  0  0  0  0  0
  1  2  2  0  0  0  0
  1  6  1  0  0  0  0
  2  3  1  0  0  0  0
  3  4  2  0  0  0  0
  4  5  1  0  0  0  0
  4 10  1  0  0  0  0
  5  6  2  0  0  0  0
  5  8  1  0  0  0  0
  6  7  1  0  0  0  0
  8  9  1  0  0  0  0
  9 10  2  0  0  0  0
M  END
>  <CHROM.1>
-30.47808664,17.58689793,-15.98394788,0.71226880,0.80339021,-1.17724248

>  <Name>
ligand

>  <RI>
0

>  <Rbt.Current_Directory>
/home/itssahil/PROJECTS/Mol_Feturizer/New_Systems/rnas/4TZX

>  <Rbt.Executable>
rbdock ($Id: //depot/dev/client3/rdock/2013.1/src/exe/rbdock.cxx#4 $)

>  <Rbt.Library>
libRbt.so (2013.1, Build901 2013/11/27)

>  <Rbt.Parameter_File>
/export/apps/rDock/src/rDock_2013.1_src/data/scripts/dock_solv.prm

>  <Rbt.Receptor>
prm/blind_docking_60.prm

>  <SCORE>
-12.9197

>  <SCORE.INTER>
-12.9197

>  <SCORE.INTER.CONST>
1

>  <SCORE.INTER.POLAR>
0

>  <SCORE.INTER.ROT>
0

>  <SCORE.INTER.SOLV>
7.91797

>  <SCORE.INTER.VDW>
-14.8525

>  <SCORE.INTER.norm>
-1.29197

>  <SCORE.INTRA>
0

>  <SCORE.INTRA.DIHEDRAL>
0

>  <SCORE.INTRA.DIHEDRAL.0>
0

>  <SCORE.INTRA.POLAR>
0

>  <SCORE.INTRA.POLAR.0>
0

>  <SCORE.INTRA.REPUL>
0

>  <SCORE.INTRA.REPUL.0>
0

>  <SCORE.INTRA.SOLV>
0

>  <SCORE.INTRA.SOLV.lig_0>
-23.8949

>  <SCORE.INTRA.VDW>
0

>  <SCORE.INTRA.VDW.0>
0

>  <SCORE.INTRA.norm>
0

>  <SCORE.RESTR>
0

>  <SCORE.RESTR.CAVITY>
0

>  <SCORE.RESTR.norm>
0

>  <SCORE.SYSTEM>
0

>  <SCORE.SYSTEM.CONST>
0

>  <SCORE.SYSTEM.DIHEDRAL>
0

>  <SCORE.SYSTEM.SOLV>
0

>  <SCORE.SYSTEM.norm>
0

>  <SCORE.heavy>
10

>  <SCORE.norm>
-1.29197

>  <RMSD>
2.892

$$$$
ligand
 OpenBabel11021811513D
libRbt.so/2013.1/901 2013/11/27
 10 11  0  0  0  0  0  0  0  0999 V2000
  -29.6859   17.4604  -17.8541 N   0  0  0  0  0  0  0  0  0  0  0  0
  -30.5726   18.4583  -17.9667 C   0  0  0  0  0  0  0  0  0  0  0  0
  -31.3952   18.9576  -17.0450 N   0  0  0  0  0  0  0  0  0  0  0  0
  -31.2483   18.3135  -15.8761 C   0  0  0  0  0  0  0  0  0  0  0  0
  -30.3828   17.2693  -15.6073 C   0  0  0  0  0  0  0  0  0  0  0  0
  -29.5616   16.8327  -16.6664 C   0  0  0  0  0  0  0  0  0  0  0  0
  -28.6790   15.8354  -16.5498 N   0  0  0  0  0  0  0  0  0  0  0  0
  -30.5060   16.8576  -14.2913 N   0  0  0  0  0  0  0  0  0  0  0  0
  -31.4319   17.6475  -13.7998 C   0  0  0  0  0  0  0  0  0  0  0  0
  -31.9233   18.5499  -14.7021 N   0  0  0  0  0  0  0  0  0  0  0  0
  1  2  2  0  0  0  0
  1  6  1  0  0  0  0
  2  3  1  0  0  0  0
  3  4  2  0  0  0  0
  4  5  1  0  0  0  0
  4 10  1  0  0  0  0
  5  6  2  0  0  0  0
  5  8  1  0  0  0  0
  6  7  1  0  0  0  0
  8  9  1  0  0  0  0
  9 10  2  0  0  0  0
M  END
>  <CHROM.1>
-30.53092570,17.61162499,-16.03988825,0.74581912,0.78097189,-1.17639940

>  <Name>
ligand

>  <RI>
0

>  <Rbt.Current_Directory>
/home/itssahil/PROJECTS/Mol_Feturizer/New_Systems/rnas/4TZX

>  <Rbt.Executable>
rbdock ($Id: //depot/dev/client3/rdock/2013.1/src/exe/rbdock.cxx#4 $)

>  <Rbt.Library>
libRbt.so (2013.1, Build901 2013/11/27)

>  <Rbt.Parameter_File>
/export/apps/rDock/src/rDock_2013.1_src/data/scripts/dock_solv.prm

>  <Rbt.Receptor>
prm/pocket_docking_6.prm

>  <SCORE>
-12.9212

>  <SCORE.INTER>
-12.9212

>  <SCORE.INTER.CONST>
1

>  <SCORE.INTER.POLAR>
0

>  <SCORE.INTER.ROT>
0

>  <SCORE.INTER.SOLV>
8.27298

>  <SCORE.INTER.VDW>
-14.9718

>  <SCORE.INTER.norm>
-1.29212

>  <SCORE.INTRA>
0

>  <SCORE.INTRA.DIHEDRAL>
0

>  <SCORE.INTRA.DIHEDRAL.0>
0

>  <SCORE.INTRA.POLAR>
0

>  <SCORE.INTRA.POLAR.0>
0

>  <SCORE.INTRA.REPUL>
0

>  <SCORE.INTRA.REPUL.0>
0

>  <SCORE.INTRA.SOLV>
0

>  <SCORE.INTRA.SOLV.lig_0>
-23.8949

>  <SCORE.INTRA.VDW>
0

>  <SCORE.INTRA.VDW.0>
0

>  <SCORE.INTRA.norm>
0

>  <SCORE.RESTR>
0

>  <SCORE.RESTR.CAVITY>
0

>  <SCORE.RESTR.norm>
0

>  <SCORE.SYSTEM>
0

>  <SCORE.SYSTEM.CONST>
0

>  <SCORE.SYSTEM.DIHEDRAL>
0

>  <SCORE.SYSTEM.SOLV>
0

>  <SCORE.SYSTEM.norm>
0

>  <SCORE.heavy>
10

>  <SCORE.norm>
-1.29212

>  <RMSD>
2.893

$$$$
ligand
 OpenBabel11021811513D
libRbt.so/2013.1/901 2013/11/27
 10 11  0  0  0  0  0  0  0  0999 V2000
  -29.6466   17.3098  -17.7822 N   0  0  0  0  0  0  0  0  0  0  0  0
  -30.5255   18.3081  -17.9424 C   0  0  0  0  0  0  0  0  0  0  0  0
  -31.3338   18.8667  -17.0423 N   0  0  0  0  0  0  0  0  0  0  0  0
  -31.1802   18.2886  -15.8402 C   0  0  0  0  0  0  0  0  0  0  0  0
  -30.3212   17.2533  -15.5213 C   0  0  0  0  0  0  0  0  0  0  0  0
  -29.5151   16.7495  -16.5620 C   0  0  0  0  0  0  0  0  0  0  0  0
  -28.6402   15.7521  -16.3979 N   0  0  0  0  0  0  0  0  0  0  0  0
  -30.4339   16.9182  -14.1827 N   0  0  0  0  0  0  0  0  0  0  0  0
  -31.3475   17.7434  -13.7276 C   0  0  0  0  0  0  0  0  0  0  0  0
  -31.8405   18.5977  -14.6747 N   0  0  0  0  0  0  0  0  0  0  0  0
  1  2  2  0  0  0  0
  1  6  1  0  0  0  0
  2  3  1  0  0  0  0
  3  4  2  0  0  0  0
  4  5  1  0  0  0  0
  4 10  1  0  0  0  0
  5  6  2  0  0  0  0
  5  8  1  0  0  0  0
  6  7  1  0  0  0  0
  8  9  1  0  0  0  0
  9 10  2  0  0  0  0
M  END
>  <CHROM.1>
-30.47081853,17.57184971,-15.97105289,0.75501459,0.79320735,-1.23978835

>  <Name>
ligand

>  <RI>
0

>  <Rbt.Current_Directory>
/home/itssahil/PROJECTS/Mol_Feturizer/New_Systems/rnas/4TZX

>  <Rbt.Executable>
rbdock ($Id: //depot/dev/client3/rdock/2013.1/src/exe/rbdock.cxx#4 $)

>  <Rbt.Library>
libRbt.so (2013.1, Build901 2013/11/27)

>  <Rbt.Parameter_File>
/export/apps/rDock/src/rDock_2013.1_src/data/scripts/dock_solv.prm

>  <Rbt.Receptor>
prm/blind_docking_60.prm

>  <SCORE>
-12.9616

>  <SCORE.INTER>
-12.9616

>  <SCORE.INTER.CONST>
1

>  <SCORE.INTER.POLAR>
0

>  <SCORE.INTER.ROT>
0

>  <SCORE.INTER.SOLV>
7.7572

>  <SCORE.INTER.VDW>
-14.8268

>  <SCORE.INTER.norm>
-1.29616

>  <SCORE.INTRA>
0

>  <SCORE.INTRA.DIHEDRAL>
0

>  <SCORE.INTRA.DIHEDRAL.0>
0

>  <SCORE.INTRA.POLAR>
0

>  <SCORE.INTRA.POLAR.0>
0

>  <SCORE.INTRA.REPUL>
0

>  <SCORE.INTRA.REPUL.0>
0

>  <SCORE.INTRA.SOLV>
0

>  <SCORE.INTRA.SOLV.lig_0>
-23.8949

>  <SCORE.INTRA.VDW>
0

>  <SCORE.INTRA.VDW.0>
0

>  <SCORE.INTRA.norm>
0

>  <SCORE.RESTR>
0

>  <SCORE.RESTR.CAVITY>
0

>  <SCORE.RESTR.norm>
0

>  <SCORE.SYSTEM>
0

>  <SCORE.SYSTEM.CONST>
0

>  <SCORE.SYSTEM.DIHEDRAL>
0

>  <SCORE.SYSTEM.SOLV>
0

>  <SCORE.SYSTEM.norm>
0

>  <SCORE.heavy>
10

>  <SCORE.norm>
-1.29616

>  <RMSD>
2.895

$$$$
ligand
 OpenBabel11021811513D
libRbt.so/2013.1/901 2013/11/27
 10 11  0  0  0  0  0  0  0  0999 V2000
  -29.5659   17.3669  -17.7373 N   0  0  0  0  0  0  0  0  0  0  0  0
  -30.4592   18.3479  -17.9230 C   0  0  0  0  0  0  0  0  0  0  0  0
  -31.3193   18.8751  -17.0524 N   0  0  0  0  0  0  0  0  0  0  0  0
  -31.2062   18.2828  -15.8527 C   0  0  0  0  0  0  0  0  0  0  0  0
  -30.3390   17.2620  -15.5099 C   0  0  0  0  0  0  0  0  0  0  0  0
  -29.4762   16.7915  -16.5203 C   0  0  0  0  0  0  0  0  0  0  0  0
  -28.5871   15.8114  -16.3309 N   0  0  0  0  0  0  0  0  0  0  0  0
  -30.5037   16.9047  -14.1825 N   0  0  0  0  0  0  0  0  0  0  0  0
  -31.4551   17.7027  -13.7575 C   0  0  0  0  0  0  0  0  0  0  0  0
  -31.9246   18.5599  -14.7139 N   0  0  0  0  0  0  0  0  0  0  0  0
  1  2  2  0  0  0  0
  1  6  1  0  0  0  0
  2  3  1  0  0  0  0
  3  4  2  0  0  0  0
  4  5  1  0  0  0  0
  4 10  1  0  0  0  0
  5  6  2  0  0  0  0
  5  8  1  0  0  0  0
  6  7  1  0  0  0  0
  8  9  1  0  0  0  0
  9 10  2  0  0  0  0
M  END
>  <CHROM.1>
-30.47570120,17.58382678,-15.96150640,0.70719435,0.75669506,-1.19198148

>  <Name>
ligand

>  <RI>
0

>  <Rbt.Current_Directory>
/home/itssahil/PROJECTS/Mol_Feturizer/New_Systems/rnas/4TZX

>  <Rbt.Executable>
rbdock ($Id: //depot/dev/client3/rdock/2013.1/src/exe/rbdock.cxx#4 $)

>  <Rbt.Library>
libRbt.so (2013.1, Build901 2013/11/27)

>  <Rbt.Parameter_File>
/export/apps/rDock/src/rDock_2013.1_src/data/scripts/dock_solv.prm

>  <Rbt.Receptor>
prm/blind_docking_80.prm

>  <SCORE>
-12.9382

>  <SCORE.INTER>
-12.9382

>  <SCORE.INTER.CONST>
1

>  <SCORE.INTER.POLAR>
0

>  <SCORE.INTER.ROT>
0

>  <SCORE.INTER.SOLV>
7.4716

>  <SCORE.INTER.VDW>
-14.716

>  <SCORE.INTER.norm>
-1.29382

>  <SCORE.INTRA>
0

>  <SCORE.INTRA.DIHEDRAL>
0

>  <SCORE.INTRA.DIHEDRAL.0>
0

>  <SCORE.INTRA.POLAR>
0

>  <SCORE.INTRA.POLAR.0>
0

>  <SCORE.INTRA.REPUL>
0

>  <SCORE.INTRA.REPUL.0>
0

>  <SCORE.INTRA.SOLV>
0

>  <SCORE.INTRA.SOLV.lig_0>
-23.8949

>  <SCORE.INTRA.VDW>
0

>  <SCORE.INTRA.VDW.0>
0

>  <SCORE.INTRA.norm>
0

>  <SCORE.RESTR>
0

>  <SCORE.RESTR.CAVITY>
0

>  <SCORE.RESTR.norm>
0

>  <SCORE.SYSTEM>
0

>  <SCORE.SYSTEM.CONST>
0

>  <SCORE.SYSTEM.DIHEDRAL>
0

>  <SCORE.SYSTEM.SOLV>
0

>  <SCORE.SYSTEM.norm>
0

>  <SCORE.heavy>
10

>  <SCORE.norm>
-1.29382

>  <RMSD>
2.895

$$$$
ligand
 OpenBabel11021811513D
libRbt.so/2013.1/901 2013/11/27
 10 11  0  0  0  0  0  0  0  0999 V2000
  -29.4671   16.7102  -17.3369 N   0  0  0  0  0  0  0  0  0  0  0  0
  -29.8886   17.9358  -17.6762 C   0  0  0  0  0  0  0  0  0  0  0  0
  -30.5988   18.8067  -16.9602 N   0  0  0  0  0  0  0  0  0  0  0  0
  -30.8869   18.3048  -15.7486 C   0  0  0  0  0  0  0  0  0  0  0  0
  -30.5264   17.0636  -15.2577 C   0  0  0  0  0  0  0  0  0  0  0  0
  -29.7727   16.2339  -16.1122 C   0  0  0  0  0  0  0  0  0  0  0  0
  -29.3552   15.0109  -15.7699 N   0  0  0  0  0  0  0  0  0  0  0  0
  -30.9979   16.8916  -13.9674 N   0  0  0  0  0  0  0  0  0  0  0  0
  -31.6271   18.0143  -13.7100 C   0  0  0  0  0  0  0  0  0  0  0  0
  -31.5994   18.9115  -14.7416 N   0  0  0  0  0  0  0  0  0  0  0  0
  1  2  2  0  0  0  0
  1  6  1  0  0  0  0
  2  3  1  0  0  0  0
  3  4  2  0  0  0  0
  4  5  1  0  0  0  0
  4 10  1  0  0  0  0
  5  6  2  0  0  0  0
  5  8  1  0  0  0  0
  6  7  1  0  0  0  0
  8  9  1  0  0  0  0
  9 10  2  0  0  0  0
M  END
>  <CHROM.1>
-30.46676120,17.37894164,-15.73015426,0.17723740,1.00799594,-0.82226415

>  <Name>
ligand

>  <RI>
0

>  <Rbt.Current_Directory>
/home/itssahil/PROJECTS/Mol_Feturizer/New_Systems/rnas/4TZX

>  <Rbt.Executable>
rbdock ($Id: //depot/dev/client3/rdock/2013.1/src/exe/rbdock.cxx#4 $)

>  <Rbt.Library>
libRbt.so (2013.1, Build901 2013/11/27)

>  <Rbt.Parameter_File>
/export/apps/rDock/src/rDock_2013.1_src/data/scripts/dock_solv.prm

>  <Rbt.Receptor>
prm/blind_docking_40.prm

>  <SCORE>
-10.6118

>  <SCORE.INTER>
-10.6312

>  <SCORE.INTER.CONST>
1

>  <SCORE.INTER.POLAR>
0

>  <SCORE.INTER.ROT>
0

>  <SCORE.INTER.SOLV>
10.9771

>  <SCORE.INTER.VDW>
-14.3465

>  <SCORE.INTER.norm>
-1.06312

>  <SCORE.INTRA>
0

>  <SCORE.INTRA.DIHEDRAL>
0

>  <SCORE.INTRA.DIHEDRAL.0>
0

>  <SCORE.INTRA.POLAR>
0

>  <SCORE.INTRA.POLAR.0>
0

>  <SCORE.INTRA.REPUL>
0

>  <SCORE.INTRA.REPUL.0>
0

>  <SCORE.INTRA.SOLV>
0

>  <SCORE.INTRA.SOLV.lig_0>
-23.8949

>  <SCORE.INTRA.VDW>
0

>  <SCORE.INTRA.VDW.0>
0

>  <SCORE.INTRA.norm>
0

>  <SCORE.RESTR>
0.0193405

>  <SCORE.RESTR.CAVITY>
0.0193405

>  <SCORE.RESTR.norm>
0.00193405

>  <SCORE.SYSTEM>
0

>  <SCORE.SYSTEM.CONST>
0

>  <SCORE.SYSTEM.DIHEDRAL>
0

>  <SCORE.SYSTEM.SOLV>
0

>  <SCORE.SYSTEM.norm>
0

>  <SCORE.heavy>
10

>  <SCORE.norm>
-1.06118

>  <RMSD>
2.896

$$$$
ligand
 OpenBabel11021811513D
libRbt.so/2013.1/901 2013/11/27
 10 11  0  0  0  0  0  0  0  0999 V2000
  -29.6686   17.4567  -17.8113 N   0  0  0  0  0  0  0  0  0  0  0  0
  -30.5618   18.4470  -17.9393 C   0  0  0  0  0  0  0  0  0  0  0  0
  -31.3956   18.9474  -17.0283 N   0  0  0  0  0  0  0  0  0  0  0  0
  -31.2534   18.3138  -15.8531 C   0  0  0  0  0  0  0  0  0  0  0  0
  -30.3823   17.2785  -15.5688 C   0  0  0  0  0  0  0  0  0  0  0  0
  -29.5492   16.8396  -16.6176 C   0  0  0  0  0  0  0  0  0  0  0  0
  -28.6600   15.8500  -16.4859 N   0  0  0  0  0  0  0  0  0  0  0  0
  -30.5131   16.8765  -14.2505 N   0  0  0  0  0  0  0  0  0  0  0  0
  -31.4489   17.6632  -13.7729 C   0  0  0  0  0  0  0  0  0  0  0  0
  -31.9397   18.5545  -14.6865 N   0  0  0  0  0  0  0  0  0  0  0  0
  1  2  2  0  0  0  0
  1  6  1  0  0  0  0
  2  3  1  0  0  0  0
  3  4  2  0  0  0  0
  4  5  1  0  0  0  0
  4 10  1  0  0  0  0
  5  6  2  0  0  0  0
  5  8  1  0  0  0  0
  6  7  1  0  0  0  0
  8  9  1  0  0  0  0
  9 10  2  0  0  0  0
M  END
>  <CHROM.1>
-30.52943579,17.61614012,-16.00533752,0.73937640,0.77085867,-1.17997191

>  <Name>
ligand

>  <RI>
0

>  <Rbt.Current_Directory>
/home/itssahil/PROJECTS/Mol_Feturizer/New_Systems/rnas/4TZX

>  <Rbt.Executable>
rbdock ($Id: //depot/dev/client3/rdock/2013.1/src/exe/rbdock.cxx#4 $)

>  <Rbt.Library>
libRbt.so (2013.1, Build901 2013/11/27)

>  <Rbt.Parameter_File>
/export/apps/rDock/src/rDock_2013.1_src/data/scripts/dock_solv.prm

>  <Rbt.Receptor>
prm/blind_docking_80.prm

>  <SCORE>
-12.9624

>  <SCORE.INTER>
-12.9624

>  <SCORE.INTER.CONST>
1

>  <SCORE.INTER.POLAR>
0

>  <SCORE.INTER.ROT>
0

>  <SCORE.INTER.SOLV>
8.01197

>  <SCORE.INTER.VDW>
-14.9122

>  <SCORE.INTER.norm>
-1.29624

>  <SCORE.INTRA>
0

>  <SCORE.INTRA.DIHEDRAL>
0

>  <SCORE.INTRA.DIHEDRAL.0>
0

>  <SCORE.INTRA.POLAR>
0

>  <SCORE.INTRA.POLAR.0>
0

>  <SCORE.INTRA.REPUL>
0

>  <SCORE.INTRA.REPUL.0>
0

>  <SCORE.INTRA.SOLV>
0

>  <SCORE.INTRA.SOLV.lig_0>
-23.8949

>  <SCORE.INTRA.VDW>
0

>  <SCORE.INTRA.VDW.0>
0

>  <SCORE.INTRA.norm>
0

>  <SCORE.RESTR>
0

>  <SCORE.RESTR.CAVITY>
0

>  <SCORE.RESTR.norm>
0

>  <SCORE.SYSTEM>
0

>  <SCORE.SYSTEM.CONST>
0

>  <SCORE.SYSTEM.DIHEDRAL>
0

>  <SCORE.SYSTEM.SOLV>
0

>  <SCORE.SYSTEM.norm>
0

>  <SCORE.heavy>
10

>  <SCORE.norm>
-1.29624

>  <RMSD>
2.897

$$$$
ligand
 OpenBabel11021811513D
libRbt.so/2013.1/901 2013/11/27
 10 11  0  0  0  0  0  0  0  0999 V2000
  -29.3201   16.7163  -17.2768 N   0  0  0  0  0  0  0  0  0  0  0  0
  -29.8444   17.8785  -17.6882 C   0  0  0  0  0  0  0  0  0  0  0  0
  -30.5953   18.7464  -17.0112 N   0  0  0  0  0  0  0  0  0  0  0  0
  -30.8052   18.3175  -15.7563 C   0  0  0  0  0  0  0  0  0  0  0  0
  -30.3356   17.1467  -15.1903 C   0  0  0  0  0  0  0  0  0  0  0  0
  -29.5489   16.3126  -16.0100 C   0  0  0  0  0  0  0  0  0  0  0  0
  -29.0287   15.1529  -15.5956 N   0  0  0  0  0  0  0  0  0  0  0  0
  -30.7508   17.0384  -13.8740 N   0  0  0  0  0  0  0  0  0  0  0  0
  -31.4550   18.1280  -13.6753 C   0  0  0  0  0  0  0  0  0  0  0  0
  -31.5289   18.9444  -14.7699 N   0  0  0  0  0  0  0  0  0  0  0  0
  1  2  2  0  0  0  0
  1  6  1  0  0  0  0
  2  3  1  0  0  0  0
  3  4  2  0  0  0  0
  4  5  1  0  0  0  0
  4 10  1  0  0  0  0
  5  6  2  0  0  0  0
  5  8  1  0  0  0  0
  6  7  1  0  0  0  0
  8  9  1  0  0  0  0
  9 10  2  0  0  0  0
M  END
>  <CHROM.1>
-30.31542688,17.42906465,-15.68634962,0.31105997,0.96988681,-1.00846608

>  <Name>
ligand

>  <RI>
0

>  <Rbt.Current_Directory>
/home/itssahil/PROJECTS/Mol_Feturizer/New_Systems/rnas/4TZX

>  <Rbt.Executable>
rbdock ($Id: //depot/dev/client3/rdock/2013.1/src/exe/rbdock.cxx#4 $)

>  <Rbt.Library>
libRbt.so (2013.1, Build901 2013/11/27)

>  <Rbt.Parameter_File>
/export/apps/rDock/src/rDock_2013.1_src/data/scripts/dock_solv.prm

>  <Rbt.Receptor>
prm/blind_docking_40.prm

>  <SCORE>
-10.4824

>  <SCORE.INTER>
-10.4827

>  <SCORE.INTER.CONST>
1

>  <SCORE.INTER.POLAR>
0

>  <SCORE.INTER.ROT>
0

>  <SCORE.INTER.SOLV>
9.64925

>  <SCORE.INTER.VDW>
-13.8049

>  <SCORE.INTER.norm>
-1.04827

>  <SCORE.INTRA>
0

>  <SCORE.INTRA.DIHEDRAL>
0

>  <SCORE.INTRA.DIHEDRAL.0>
0

>  <SCORE.INTRA.POLAR>
0

>  <SCORE.INTRA.POLAR.0>
0

>  <SCORE.INTRA.REPUL>
0

>  <SCORE.INTRA.REPUL.0>
0

>  <SCORE.INTRA.SOLV>
0

>  <SCORE.INTRA.SOLV.lig_0>
-23.8949

>  <SCORE.INTRA.VDW>
0

>  <SCORE.INTRA.VDW.0>
0

>  <SCORE.INTRA.norm>
0

>  <SCORE.RESTR>
0.000263686

>  <SCORE.RESTR.CAVITY>
0.000263686

>  <SCORE.RESTR.norm>
2.63686e-05

>  <SCORE.SYSTEM>
0

>  <SCORE.SYSTEM.CONST>
0

>  <SCORE.SYSTEM.DIHEDRAL>
0

>  <SCORE.SYSTEM.SOLV>
0

>  <SCORE.SYSTEM.norm>
0

>  <SCORE.heavy>
10

>  <SCORE.norm>
-1.04824

>  <RMSD>
2.898

$$$$
ligand
 OpenBabel11021811513D
libRbt.so/2013.1/901 2013/11/27
 10 11  0  0  0  0  0  0  0  0999 V2000
  -29.6469   17.4720  -17.7947 N   0  0  0  0  0  0  0  0  0  0  0  0
  -30.5469   18.4550  -17.9312 C   0  0  0  0  0  0  0  0  0  0  0  0
  -31.3917   18.9504  -17.0277 N   0  0  0  0  0  0  0  0  0  0  0  0
  -31.2536   18.3199  -15.8502 C   0  0  0  0  0  0  0  0  0  0  0  0
  -30.3766   17.2919  -15.5575 C   0  0  0  0  0  0  0  0  0  0  0  0
  -29.5320   16.8578  -16.5990 C   0  0  0  0  0  0  0  0  0  0  0  0
  -28.6361   15.8756  -16.4586 N   0  0  0  0  0  0  0  0  0  0  0  0
  -30.5145   16.8912  -14.2395 N   0  0  0  0  0  0  0  0  0  0  0  0
  -31.4601   17.6713  -13.7706 C   0  0  0  0  0  0  0  0  0  0  0  0
  -31.9508   18.5572  -14.6895 N   0  0  0  0  0  0  0  0  0  0  0  0
  1  2  2  0  0  0  0
  1  6  1  0  0  0  0
  2  3  1  0  0  0  0
  3  4  2  0  0  0  0
  4  5  1  0  0  0  0
  4 10  1  0  0  0  0
  5  6  2  0  0  0  0
  5  8  1  0  0  0  0
  6  7  1  0  0  0  0
  8  9  1  0  0  0  0
  9 10  2  0  0  0  0
M  END
>  <CHROM.1>
-30.52303242,17.62771753,-15.99568403,0.73358514,0.76062740,-1.17768094

>  <Name>
ligand

>  <RI>
0

>  <Rbt.Current_Directory>
/home/itssahil/PROJECTS/Mol_Feturizer/New_Systems/rnas/4TZX

>  <Rbt.Executable>
rbdock ($Id: //depot/dev/client3/rdock/2013.1/src/exe/rbdock.cxx#4 $)

>  <Rbt.Library>
libRbt.so (2013.1, Build901 2013/11/27)

>  <Rbt.Parameter_File>
/export/apps/rDock/src/rDock_2013.1_src/data/scripts/dock_solv.prm

>  <Rbt.Receptor>
prm/pocket_docking_3.prm

>  <SCORE>
-12.967

>  <SCORE.INTER>
-12.967

>  <SCORE.INTER.CONST>
1

>  <SCORE.INTER.POLAR>
0

>  <SCORE.INTER.ROT>
0

>  <SCORE.INTER.SOLV>
7.88626

>  <SCORE.INTER.VDW>
-14.8734

>  <SCORE.INTER.norm>
-1.2967

>  <SCORE.INTRA>
0

>  <SCORE.INTRA.DIHEDRAL>
0

>  <SCORE.INTRA.DIHEDRAL.0>
0

>  <SCORE.INTRA.POLAR>
0

>  <SCORE.INTRA.POLAR.0>
0

>  <SCORE.INTRA.REPUL>
0

>  <SCORE.INTRA.REPUL.0>
0

>  <SCORE.INTRA.SOLV>
0

>  <SCORE.INTRA.SOLV.lig_0>
-23.8949

>  <SCORE.INTRA.VDW>
0

>  <SCORE.INTRA.VDW.0>
0

>  <SCORE.INTRA.norm>
0

>  <SCORE.RESTR>
0

>  <SCORE.RESTR.CAVITY>
0

>  <SCORE.RESTR.norm>
0

>  <SCORE.SYSTEM>
0

>  <SCORE.SYSTEM.CONST>
0

>  <SCORE.SYSTEM.DIHEDRAL>
0

>  <SCORE.SYSTEM.SOLV>
0

>  <SCORE.SYSTEM.norm>
0

>  <SCORE.heavy>
10

>  <SCORE.norm>
-1.2967

>  <RMSD>
2.898

$$$$
ligand
 OpenBabel11021811513D
libRbt.so/2013.1/901 2013/11/27
 10 11  0  0  0  0  0  0  0  0999 V2000
  -29.6559   17.4680  -17.8046 N   0  0  0  0  0  0  0  0  0  0  0  0
  -30.5557   18.4520  -17.9349 C   0  0  0  0  0  0  0  0  0  0  0  0
  -31.3963   18.9458  -17.0266 N   0  0  0  0  0  0  0  0  0  0  0  0
  -31.2538   18.3122  -15.8513 C   0  0  0  0  0  0  0  0  0  0  0  0
  -30.3764   17.2828  -15.5649 C   0  0  0  0  0  0  0  0  0  0  0  0
  -29.5364   16.8507  -16.6110 C   0  0  0  0  0  0  0  0  0  0  0  0
  -28.6408   15.8674  -16.4769 N   0  0  0  0  0  0  0  0  0  0  0  0
  -30.5090   16.8788  -14.2473 N   0  0  0  0  0  0  0  0  0  0  0  0
  -31.4520   17.6585  -13.7725 C   0  0  0  0  0  0  0  0  0  0  0  0
  -31.9459   18.5471  -14.6870 N   0  0  0  0  0  0  0  0  0  0  0  0
  1  2  2  0  0  0  0
  1  6  1  0  0  0  0
  2  3  1  0  0  0  0
  3  4  2  0  0  0  0
  4  5  1  0  0  0  0
  4 10  1  0  0  0  0
  5  6  2  0  0  0  0
  5  8  1  0  0  0  0
  6  7  1  0  0  0  0
  8  9  1  0  0  0  0
  9 10  2  0  0  0  0
M  END
>  <CHROM.1>
-30.52434277,17.61982198,-16.00159348,0.73854865,0.76296049,-1.17856560

>  <Name>
ligand

>  <RI>
0

>  <Rbt.Current_Directory>
/home/itssahil/PROJECTS/Mol_Feturizer/New_Systems/rnas/4TZX

>  <Rbt.Executable>
rbdock ($Id: //depot/dev/client3/rdock/2013.1/src/exe/rbdock.cxx#4 $)

>  <Rbt.Library>
libRbt.so (2013.1, Build901 2013/11/27)

>  <Rbt.Parameter_File>
/export/apps/rDock/src/rDock_2013.1_src/data/scripts/dock_solv.prm

>  <Rbt.Receptor>
prm/pocket_docking_8.prm

>  <SCORE>
-12.9672

>  <SCORE.INTER>
-12.9672

>  <SCORE.INTER.CONST>
1

>  <SCORE.INTER.POLAR>
0

>  <SCORE.INTER.ROT>
0

>  <SCORE.INTER.SOLV>
7.94411

>  <SCORE.INTER.VDW>
-14.8928

>  <SCORE.INTER.norm>
-1.29672

>  <SCORE.INTRA>
0

>  <SCORE.INTRA.DIHEDRAL>
0

>  <SCORE.INTRA.DIHEDRAL.0>
0

>  <SCORE.INTRA.POLAR>
0

>  <SCORE.INTRA.POLAR.0>
0

>  <SCORE.INTRA.REPUL>
0

>  <SCORE.INTRA.REPUL.0>
0

>  <SCORE.INTRA.SOLV>
0

>  <SCORE.INTRA.SOLV.lig_0>
-23.8949

>  <SCORE.INTRA.VDW>
0

>  <SCORE.INTRA.VDW.0>
0

>  <SCORE.INTRA.norm>
0

>  <SCORE.RESTR>
0

>  <SCORE.RESTR.CAVITY>
0

>  <SCORE.RESTR.norm>
0

>  <SCORE.SYSTEM>
0

>  <SCORE.SYSTEM.CONST>
0

>  <SCORE.SYSTEM.DIHEDRAL>
0

>  <SCORE.SYSTEM.SOLV>
0

>  <SCORE.SYSTEM.norm>
0

>  <SCORE.heavy>
10

>  <SCORE.norm>
-1.29672

>  <RMSD>
2.898

$$$$
ligand
 OpenBabel11021811513D
libRbt.so/2013.1/901 2013/11/27
 10 11  0  0  0  0  0  0  0  0999 V2000
  -29.3687   16.6850  -17.2969 N   0  0  0  0  0  0  0  0  0  0  0  0
  -29.8657   17.8655  -17.6896 C   0  0  0  0  0  0  0  0  0  0  0  0
  -30.5997   18.7378  -16.9998 N   0  0  0  0  0  0  0  0  0  0  0  0
  -30.8233   18.2919  -15.7532 C   0  0  0  0  0  0  0  0  0  0  0  0
  -30.3816   17.1013  -15.2063 C   0  0  0  0  0  0  0  0  0  0  0  0
  -29.6106   16.2644  -16.0381 C   0  0  0  0  0  0  0  0  0  0  0  0
  -29.1176   15.0864  -15.6425 N   0  0  0  0  0  0  0  0  0  0  0  0
  -30.8036   16.9792  -13.8934 N   0  0  0  0  0  0  0  0  0  0  0  0
  -31.4842   18.0805  -13.6779 C   0  0  0  0  0  0  0  0  0  0  0  0
  -31.5364   18.9173  -14.7582 N   0  0  0  0  0  0  0  0  0  0  0  0
  1  2  2  0  0  0  0
  1  6  1  0  0  0  0
  2  3  1  0  0  0  0
  3  4  2  0  0  0  0
  4  5  1  0  0  0  0
  4 10  1  0  0  0  0
  5  6  2  0  0  0  0
  5  8  1  0  0  0  0
  6  7  1  0  0  0  0
  8  9  1  0  0  0  0
  9 10  2  0  0  0  0
M  END
>  <CHROM.1>
-30.35345577,17.39175224,-15.69732628,0.28446703,0.98654632,-0.96893267

>  <Name>
ligand

>  <RI>
0

>  <Rbt.Current_Directory>
/home/itssahil/PROJECTS/Mol_Feturizer/New_Systems/rnas/4TZX

>  <Rbt.Executable>
rbdock ($Id: //depot/dev/client3/rdock/2013.1/src/exe/rbdock.cxx#4 $)

>  <Rbt.Library>
libRbt.so (2013.1, Build901 2013/11/27)

>  <Rbt.Parameter_File>
/export/apps/rDock/src/rDock_2013.1_src/data/scripts/dock_solv.prm

>  <Rbt.Receptor>
prm/blind_docking_40.prm

>  <SCORE>
-10.5321

>  <SCORE.INTER>
-10.5335

>  <SCORE.INTER.CONST>
1

>  <SCORE.INTER.POLAR>
0

>  <SCORE.INTER.ROT>
0

>  <SCORE.INTER.SOLV>
10.0458

>  <SCORE.INTER.VDW>
-13.9709

>  <SCORE.INTER.norm>
-1.05335

>  <SCORE.INTRA>
0

>  <SCORE.INTRA.DIHEDRAL>
0

>  <SCORE.INTRA.DIHEDRAL.0>
0

>  <SCORE.INTRA.POLAR>
0

>  <SCORE.INTRA.POLAR.0>
0

>  <SCORE.INTRA.REPUL>
0

>  <SCORE.INTRA.REPUL.0>
0

>  <SCORE.INTRA.SOLV>
0

>  <SCORE.INTRA.SOLV.lig_0>
-23.8949

>  <SCORE.INTRA.VDW>
0

>  <SCORE.INTRA.VDW.0>
0

>  <SCORE.INTRA.norm>
0

>  <SCORE.RESTR>
0.00136534

>  <SCORE.RESTR.CAVITY>
0.00136534

>  <SCORE.RESTR.norm>
0.000136534

>  <SCORE.SYSTEM>
0

>  <SCORE.SYSTEM.CONST>
0

>  <SCORE.SYSTEM.DIHEDRAL>
0

>  <SCORE.SYSTEM.SOLV>
0

>  <SCORE.SYSTEM.norm>
0

>  <SCORE.heavy>
10

>  <SCORE.norm>
-1.05321

>  <RMSD>
2.899

$$$$
ligand
 OpenBabel11021811513D
libRbt.so/2013.1/901 2013/11/27
 10 11  0  0  0  0  0  0  0  0999 V2000
  -29.6470   17.4729  -17.7899 N   0  0  0  0  0  0  0  0  0  0  0  0
  -30.5500   18.4534  -17.9247 C   0  0  0  0  0  0  0  0  0  0  0  0
  -31.3952   18.9457  -17.0199 N   0  0  0  0  0  0  0  0  0  0  0  0
  -31.2540   18.3148  -15.8431 C   0  0  0  0  0  0  0  0  0  0  0  0
  -30.3738   17.2891  -15.5520 C   0  0  0  0  0  0  0  0  0  0  0  0
  -29.5290   16.8582  -16.5948 C   0  0  0  0  0  0  0  0  0  0  0  0
  -28.6302   15.8784  -16.4561 N   0  0  0  0  0  0  0  0  0  0  0  0
  -30.5091   16.8869  -14.2342 N   0  0  0  0  0  0  0  0  0  0  0  0
  -31.4564   17.6640  -13.7637 C   0  0  0  0  0  0  0  0  0  0  0  0
  -31.9506   18.5492  -14.6813 N   0  0  0  0  0  0  0  0  0  0  0  0
  1  2  2  0  0  0  0
  1  6  1  0  0  0  0
  2  3  1  0  0  0  0
  3  4  2  0  0  0  0
  4  5  1  0  0  0  0
  4 10  1  0  0  0  0
  5  6  2  0  0  0  0
  5  8  1  0  0  0  0
  6  7  1  0  0  0  0
  8  9  1  0  0  0  0
  9 10  2  0  0  0  0
M  END
>  <CHROM.1>
-30.52161665,17.62477208,-15.98983847,0.73649074,0.75839688,-1.17892472

>  <Name>
ligand

>  <RI>
0

>  <Rbt.Current_Directory>
/home/itssahil/PROJECTS/Mol_Feturizer/New_Systems/rnas/4TZX

>  <Rbt.Executable>
rbdock ($Id: //depot/dev/client3/rdock/2013.1/src/exe/rbdock.cxx#4 $)

>  <Rbt.Library>
libRbt.so (2013.1, Build901 2013/11/27)

>  <Rbt.Parameter_File>
/export/apps/rDock/src/rDock_2013.1_src/data/scripts/dock_solv.prm

>  <Rbt.Receptor>
prm/blind_docking_80.prm

>  <SCORE>
-13.0045

>  <SCORE.INTER>
-13.0045

>  <SCORE.INTER.CONST>
1

>  <SCORE.INTER.POLAR>
0

>  <SCORE.INTER.ROT>
0

>  <SCORE.INTER.SOLV>
7.86481

>  <SCORE.INTER.VDW>
-14.8913

>  <SCORE.INTER.norm>
-1.30045

>  <SCORE.INTRA>
0

>  <SCORE.INTRA.DIHEDRAL>
0

>  <SCORE.INTRA.DIHEDRAL.0>
0

>  <SCORE.INTRA.POLAR>
0

>  <SCORE.INTRA.POLAR.0>
0

>  <SCORE.INTRA.REPUL>
0

>  <SCORE.INTRA.REPUL.0>
0

>  <SCORE.INTRA.SOLV>
0

>  <SCORE.INTRA.SOLV.lig_0>
-23.8949

>  <SCORE.INTRA.VDW>
0

>  <SCORE.INTRA.VDW.0>
0

>  <SCORE.INTRA.norm>
0

>  <SCORE.RESTR>
0

>  <SCORE.RESTR.CAVITY>
0

>  <SCORE.RESTR.norm>
0

>  <SCORE.SYSTEM>
0

>  <SCORE.SYSTEM.CONST>
0

>  <SCORE.SYSTEM.DIHEDRAL>
0

>  <SCORE.SYSTEM.SOLV>
0

>  <SCORE.SYSTEM.norm>
0

>  <SCORE.heavy>
10

>  <SCORE.norm>
-1.30045

>  <RMSD>
2.900

$$$$
ligand
 OpenBabel11021811513D
libRbt.so/2013.1/901 2013/11/27
 10 11  0  0  0  0  0  0  0  0999 V2000
  -29.6492   17.4692  -17.7895 N   0  0  0  0  0  0  0  0  0  0  0  0
  -30.5511   18.4506  -17.9248 C   0  0  0  0  0  0  0  0  0  0  0  0
  -31.3951   18.9448  -17.0199 N   0  0  0  0  0  0  0  0  0  0  0  0
  -31.2539   18.3150  -15.8425 C   0  0  0  0  0  0  0  0  0  0  0  0
  -30.3747   17.2886  -15.5510 C   0  0  0  0  0  0  0  0  0  0  0  0
  -29.5311   16.8556  -16.5938 C   0  0  0  0  0  0  0  0  0  0  0  0
  -28.6333   15.8749  -16.4547 N   0  0  0  0  0  0  0  0  0  0  0  0
  -30.5096   16.8880  -14.2326 N   0  0  0  0  0  0  0  0  0  0  0  0
  -31.4557   17.6666  -13.7623 C   0  0  0  0  0  0  0  0  0  0  0  0
  -31.9495   18.5514  -14.6806 N   0  0  0  0  0  0  0  0  0  0  0  0
  1  2  2  0  0  0  0
  1  6  1  0  0  0  0
  2  3  1  0  0  0  0
  3  4  2  0  0  0  0
  4  5  1  0  0  0  0
  4 10  1  0  0  0  0
  5  6  2  0  0  0  0
  5  8  1  0  0  0  0
  6  7  1  0  0  0  0
  8  9  1  0  0  0  0
  9 10  2  0  0  0  0
M  END
>  <CHROM.1>
-30.52242374,17.62397228,-15.98902815,0.73670698,0.75971887,-1.18012198

>  <Name>
ligand

>  <RI>
0

>  <Rbt.Current_Directory>
/home/itssahil/PROJECTS/Mol_Feturizer/New_Systems/rnas/4TZX

>  <Rbt.Executable>
rbdock ($Id: //depot/dev/client3/rdock/2013.1/src/exe/rbdock.cxx#4 $)

>  <Rbt.Library>
libRbt.so (2013.1, Build901 2013/11/27)

>  <Rbt.Parameter_File>
/export/apps/rDock/src/rDock_2013.1_src/data/scripts/dock_solv.prm

>  <Rbt.Receptor>
prm/blind_docking_80.prm

>  <SCORE>
-13.0042

>  <SCORE.INTER>
-13.0042

>  <SCORE.INTER.CONST>
1

>  <SCORE.INTER.POLAR>
0

>  <SCORE.INTER.ROT>
0

>  <SCORE.INTER.SOLV>
7.8672

>  <SCORE.INTER.VDW>
-14.8919

>  <SCORE.INTER.norm>
-1.30042

>  <SCORE.INTRA>
0

>  <SCORE.INTRA.DIHEDRAL>
0

>  <SCORE.INTRA.DIHEDRAL.0>
0

>  <SCORE.INTRA.POLAR>
0

>  <SCORE.INTRA.POLAR.0>
0

>  <SCORE.INTRA.REPUL>
0

>  <SCORE.INTRA.REPUL.0>
0

>  <SCORE.INTRA.SOLV>
0

>  <SCORE.INTRA.SOLV.lig_0>
-23.8949

>  <SCORE.INTRA.VDW>
0

>  <SCORE.INTRA.VDW.0>
0

>  <SCORE.INTRA.norm>
0

>  <SCORE.RESTR>
0

>  <SCORE.RESTR.CAVITY>
0

>  <SCORE.RESTR.norm>
0

>  <SCORE.SYSTEM>
0

>  <SCORE.SYSTEM.CONST>
0

>  <SCORE.SYSTEM.DIHEDRAL>
0

>  <SCORE.SYSTEM.SOLV>
0

>  <SCORE.SYSTEM.norm>
0

>  <SCORE.heavy>
10

>  <SCORE.norm>
-1.30042

>  <RMSD>
2.900

$$$$
ligand
 OpenBabel11021811513D
libRbt.so/2013.1/901 2013/11/27
 10 11  0  0  0  0  0  0  0  0999 V2000
  -29.6003   17.3534  -17.7468 N   0  0  0  0  0  0  0  0  0  0  0  0
  -30.5013   18.3295  -17.9212 C   0  0  0  0  0  0  0  0  0  0  0  0
  -31.3393   18.8657  -17.0348 N   0  0  0  0  0  0  0  0  0  0  0  0
  -31.1924   18.2894  -15.8310 C   0  0  0  0  0  0  0  0  0  0  0  0
  -30.3132   17.2756  -15.4984 C   0  0  0  0  0  0  0  0  0  0  0  0
  -29.4763   16.7942  -16.5253 C   0  0  0  0  0  0  0  0  0  0  0  0
  -28.5795   15.8191  -16.3471 N   0  0  0  0  0  0  0  0  0  0  0  0
  -30.4412   16.9352  -14.1625 N   0  0  0  0  0  0  0  0  0  0  0  0
  -31.3833   17.7361  -13.7225 C   0  0  0  0  0  0  0  0  0  0  0  0
  -31.8808   18.5795  -14.6770 N   0  0  0  0  0  0  0  0  0  0  0  0
  1  2  2  0  0  0  0
  1  6  1  0  0  0  0
  2  3  1  0  0  0  0
  3  4  2  0  0  0  0
  4  5  1  0  0  0  0
  4 10  1  0  0  0  0
  5  6  2  0  0  0  0
  5  8  1  0  0  0  0
  6  7  1  0  0  0  0
  8  9  1  0  0  0  0
  9 10  2  0  0  0  0
M  END
>  <CHROM.1>
-30.46289575,17.59108625,-15.95028055,0.74319060,0.76345399,-1.22982693

>  <Name>
ligand

>  <RI>
0

>  <Rbt.Current_Directory>
/home/itssahil/PROJECTS/Mol_Feturizer/New_Systems/rnas/4TZX

>  <Rbt.Executable>
rbdock ($Id: //depot/dev/client3/rdock/2013.1/src/exe/rbdock.cxx#4 $)

>  <Rbt.Library>
libRbt.so (2013.1, Build901 2013/11/27)

>  <Rbt.Parameter_File>
/export/apps/rDock/src/rDock_2013.1_src/data/scripts/dock_solv.prm

>  <Rbt.Receptor>
prm/pocket_docking_4.prm

>  <SCORE>
-12.9552

>  <SCORE.INTER>
-12.9552

>  <SCORE.INTER.CONST>
1

>  <SCORE.INTER.POLAR>
0

>  <SCORE.INTER.ROT>
0

>  <SCORE.INTER.SOLV>
7.47776

>  <SCORE.INTER.VDW>
-14.7294

>  <SCORE.INTER.norm>
-1.29552

>  <SCORE.INTRA>
0

>  <SCORE.INTRA.DIHEDRAL>
0

>  <SCORE.INTRA.DIHEDRAL.0>
0

>  <SCORE.INTRA.POLAR>
0

>  <SCORE.INTRA.POLAR.0>
0

>  <SCORE.INTRA.REPUL>
0

>  <SCORE.INTRA.REPUL.0>
0

>  <SCORE.INTRA.SOLV>
0

>  <SCORE.INTRA.SOLV.lig_0>
-23.8949

>  <SCORE.INTRA.VDW>
0

>  <SCORE.INTRA.VDW.0>
0

>  <SCORE.INTRA.norm>
0

>  <SCORE.RESTR>
0

>  <SCORE.RESTR.CAVITY>
0

>  <SCORE.RESTR.norm>
0

>  <SCORE.SYSTEM>
0

>  <SCORE.SYSTEM.CONST>
0

>  <SCORE.SYSTEM.DIHEDRAL>
0

>  <SCORE.SYSTEM.SOLV>
0

>  <SCORE.SYSTEM.norm>
0

>  <SCORE.heavy>
10

>  <SCORE.norm>
-1.29552

>  <RMSD>
2.900

$$$$
ligand
 OpenBabel11021811513D
libRbt.so/2013.1/901 2013/11/27
 10 11  0  0  0  0  0  0  0  0999 V2000
  -29.7214   17.4775  -17.8430 N   0  0  0  0  0  0  0  0  0  0  0  0
  -30.6518   18.4330  -17.9706 C   0  0  0  0  0  0  0  0  0  0  0  0
  -31.4894   18.9159  -17.0537 N   0  0  0  0  0  0  0  0  0  0  0  0
  -31.3066   18.3047  -15.8722 C   0  0  0  0  0  0  0  0  0  0  0  0
  -30.3944   17.3056  -15.5874 C   0  0  0  0  0  0  0  0  0  0  0  0
  -29.5618   16.8821  -16.6429 C   0  0  0  0  0  0  0  0  0  0  0  0
  -28.6355   15.9272  -16.5115 N   0  0  0  0  0  0  0  0  0  0  0  0
  -30.4907   16.9180  -14.2618 N   0  0  0  0  0  0  0  0  0  0  0  0
  -31.4471   17.6772  -13.7806 C   0  0  0  0  0  0  0  0  0  0  0  0
  -31.9835   18.5372  -14.6985 N   0  0  0  0  0  0  0  0  0  0  0  0
  1  2  2  0  0  0  0
  1  6  1  0  0  0  0
  2  3  1  0  0  0  0
  3  4  2  0  0  0  0
  4  5  1  0  0  0  0
  4 10  1  0  0  0  0
  5  6  2  0  0  0  0
  5  8  1  0  0  0  0
  6  7  1  0  0  0  0
  8  9  1  0  0  0  0
  9 10  2  0  0  0  0
M  END
>  <CHROM.1>
-30.56023843,17.63149535,-16.02617399,0.77702198,0.74271497,-1.21980736

>  <Name>
ligand

>  <RI>
0

>  <Rbt.Current_Directory>
/home/itssahil/PROJECTS/Mol_Feturizer/New_Systems/rnas/4TZX

>  <Rbt.Executable>
rbdock ($Id: //depot/dev/client3/rdock/2013.1/src/exe/rbdock.cxx#4 $)

>  <Rbt.Library>
libRbt.so (2013.1, Build901 2013/11/27)

>  <Rbt.Parameter_File>
/export/apps/rDock/src/rDock_2013.1_src/data/scripts/dock_solv.prm

>  <Rbt.Receptor>
prm/pocket_docking_5.prm

>  <SCORE>
-12.9165

>  <SCORE.INTER>
-12.9165

>  <SCORE.INTER.CONST>
1

>  <SCORE.INTER.POLAR>
0

>  <SCORE.INTER.ROT>
0

>  <SCORE.INTER.SOLV>
7.98476

>  <SCORE.INTER.VDW>
-14.8726

>  <SCORE.INTER.norm>
-1.29165

>  <SCORE.INTRA>
0

>  <SCORE.INTRA.DIHEDRAL>
0

>  <SCORE.INTRA.DIHEDRAL.0>
0

>  <SCORE.INTRA.POLAR>
0

>  <SCORE.INTRA.POLAR.0>
0

>  <SCORE.INTRA.REPUL>
0

>  <SCORE.INTRA.REPUL.0>
0

>  <SCORE.INTRA.SOLV>
0

>  <SCORE.INTRA.SOLV.lig_0>
-23.8949

>  <SCORE.INTRA.VDW>
0

>  <SCORE.INTRA.VDW.0>
0

>  <SCORE.INTRA.norm>
0

>  <SCORE.RESTR>
0

>  <SCORE.RESTR.CAVITY>
0

>  <SCORE.RESTR.norm>
0

>  <SCORE.SYSTEM>
0

>  <SCORE.SYSTEM.CONST>
0

>  <SCORE.SYSTEM.DIHEDRAL>
0

>  <SCORE.SYSTEM.SOLV>
0

>  <SCORE.SYSTEM.norm>
0

>  <SCORE.heavy>
10

>  <SCORE.norm>
-1.29165

>  <RMSD>
2.900

$$$$
ligand
 OpenBabel11021811513D
libRbt.so/2013.1/901 2013/11/27
 10 11  0  0  0  0  0  0  0  0999 V2000
  -29.6497   17.4699  -17.7879 N   0  0  0  0  0  0  0  0  0  0  0  0
  -30.5552   18.4478  -17.9241 C   0  0  0  0  0  0  0  0  0  0  0  0
  -31.4013   18.9395  -17.0198 N   0  0  0  0  0  0  0  0  0  0  0  0
  -31.2580   18.3111  -15.8419 C   0  0  0  0  0  0  0  0  0  0  0  0
  -30.3750   17.2882  -15.5494 C   0  0  0  0  0  0  0  0  0  0  0  0
  -29.5296   16.8576  -16.5918 C   0  0  0  0  0  0  0  0  0  0  0  0
  -28.6282   15.8803  -16.4517 N   0  0  0  0  0  0  0  0  0  0  0  0
  -30.5087   16.8881  -14.2308 N   0  0  0  0  0  0  0  0  0  0  0  0
  -31.4578   17.6635  -13.7612 C   0  0  0  0  0  0  0  0  0  0  0  0
  -31.9546   18.5458  -14.6803 N   0  0  0  0  0  0  0  0  0  0  0  0
  1  2  2  0  0  0  0
  1  6  1  0  0  0  0
  2  3  1  0  0  0  0
  3  4  2  0  0  0  0
  4  5  1  0  0  0  0
  4 10  1  0  0  0  0
  5  6  2  0  0  0  0
  5  8  1  0  0  0  0
  6  7  1  0  0  0  0
  8  9  1  0  0  0  0
  9 10  2  0  0  0  0
M  END
>  <CHROM.1>
-30.52386683,17.62269059,-15.98772607,0.73840027,0.75619830,-1.18203915

>  <Name>
ligand

>  <RI>
0

>  <Rbt.Current_Directory>
/home/itssahil/PROJECTS/Mol_Feturizer/New_Systems/rnas/4TZX

>  <Rbt.Executable>
rbdock ($Id: //depot/dev/client3/rdock/2013.1/src/exe/rbdock.cxx#4 $)

>  <Rbt.Library>
libRbt.so (2013.1, Build901 2013/11/27)

>  <Rbt.Parameter_File>
/export/apps/rDock/src/rDock_2013.1_src/data/scripts/dock_solv.prm

>  <Rbt.Receptor>
prm/pocket_docking_7.prm

>  <SCORE>
-13.0016

>  <SCORE.INTER>
-13.0016

>  <SCORE.INTER.CONST>
1

>  <SCORE.INTER.POLAR>
0

>  <SCORE.INTER.ROT>
0

>  <SCORE.INTER.SOLV>
7.84556

>  <SCORE.INTER.VDW>
-14.8829

>  <SCORE.INTER.norm>
-1.30016

>  <SCORE.INTRA>
0

>  <SCORE.INTRA.DIHEDRAL>
0

>  <SCORE.INTRA.DIHEDRAL.0>
0

>  <SCORE.INTRA.POLAR>
0

>  <SCORE.INTRA.POLAR.0>
0

>  <SCORE.INTRA.REPUL>
0

>  <SCORE.INTRA.REPUL.0>
0

>  <SCORE.INTRA.SOLV>
0

>  <SCORE.INTRA.SOLV.lig_0>
-23.8949

>  <SCORE.INTRA.VDW>
0

>  <SCORE.INTRA.VDW.0>
0

>  <SCORE.INTRA.norm>
0

>  <SCORE.RESTR>
0

>  <SCORE.RESTR.CAVITY>
0

>  <SCORE.RESTR.norm>
0

>  <SCORE.SYSTEM>
0

>  <SCORE.SYSTEM.CONST>
0

>  <SCORE.SYSTEM.DIHEDRAL>
0

>  <SCORE.SYSTEM.SOLV>
0

>  <SCORE.SYSTEM.norm>
0

>  <SCORE.heavy>
10

>  <SCORE.norm>
-1.30016

>  <RMSD>
2.900

$$$$
ligand
 OpenBabel11021811513D
libRbt.so/2013.1/901 2013/11/27
 10 11  0  0  0  0  0  0  0  0999 V2000
  -29.6523   17.5216  -17.7786 N   0  0  0  0  0  0  0  0  0  0  0  0
  -30.5691   18.4875  -17.9252 C   0  0  0  0  0  0  0  0  0  0  0  0
  -31.4356   18.9641  -17.0322 N   0  0  0  0  0  0  0  0  0  0  0  0
  -31.3016   18.3332  -15.8545 C   0  0  0  0  0  0  0  0  0  0  0  0
  -30.4092   17.3214  -15.5522 C   0  0  0  0  0  0  0  0  0  0  0  0
  -29.5420   16.9065  -16.5830 C   0  0  0  0  0  0  0  0  0  0  0  0
  -28.6295   15.9412  -16.4327 N   0  0  0  0  0  0  0  0  0  0  0  0
  -30.5575   16.9145  -14.2372 N   0  0  0  0  0  0  0  0  0  0  0  0
  -31.5242   17.6750  -13.7795 C   0  0  0  0  0  0  0  0  0  0  0  0
  -32.0192   18.5538  -14.7029 N   0  0  0  0  0  0  0  0  0  0  0  0
  1  2  2  0  0  0  0
  1  6  1  0  0  0  0
  2  3  1  0  0  0  0
  3  4  2  0  0  0  0
  4  5  1  0  0  0  0
  4 10  1  0  0  0  0
  5  6  2  0  0  0  0
  5  8  1  0  0  0  0
  6  7  1  0  0  0  0
  8  9  1  0  0  0  0
  9 10  2  0  0  0  0
M  END
>  <CHROM.1>
-30.55594413,17.65552284,-15.99153865,0.72636726,0.73755608,-1.17015764

>  <Name>
ligand

>  <RI>
0

>  <Rbt.Current_Directory>
/home/itssahil/PROJECTS/Mol_Feturizer/New_Systems/rnas/4TZX

>  <Rbt.Executable>
rbdock ($Id: //depot/dev/client3/rdock/2013.1/src/exe/rbdock.cxx#4 $)

>  <Rbt.Library>
libRbt.so (2013.1, Build901 2013/11/27)

>  <Rbt.Parameter_File>
/export/apps/rDock/src/rDock_2013.1_src/data/scripts/dock_solv.prm

>  <Rbt.Receptor>
prm/blind_docking_100.prm

>  <SCORE>
-12.944

>  <SCORE.INTER>
-12.944

>  <SCORE.INTER.CONST>
1

>  <SCORE.INTER.POLAR>
0

>  <SCORE.INTER.ROT>
0

>  <SCORE.INTER.SOLV>
7.77129

>  <SCORE.INTER.VDW>
-14.8198

>  <SCORE.INTER.norm>
-1.2944

>  <SCORE.INTRA>
0

>  <SCORE.INTRA.DIHEDRAL>
0

>  <SCORE.INTRA.DIHEDRAL.0>
0

>  <SCORE.INTRA.POLAR>
0

>  <SCORE.INTRA.POLAR.0>
0

>  <SCORE.INTRA.REPUL>
0

>  <SCORE.INTRA.REPUL.0>
0

>  <SCORE.INTRA.SOLV>
0

>  <SCORE.INTRA.SOLV.lig_0>
-23.8949

>  <SCORE.INTRA.VDW>
0

>  <SCORE.INTRA.VDW.0>
0

>  <SCORE.INTRA.norm>
0

>  <SCORE.RESTR>
0

>  <SCORE.RESTR.CAVITY>
0

>  <SCORE.RESTR.norm>
0

>  <SCORE.SYSTEM>
0

>  <SCORE.SYSTEM.CONST>
0

>  <SCORE.SYSTEM.DIHEDRAL>
0

>  <SCORE.SYSTEM.SOLV>
0

>  <SCORE.SYSTEM.norm>
0

>  <SCORE.heavy>
10

>  <SCORE.norm>
-1.2944

>  <RMSD>
2.901

$$$$
ligand
 OpenBabel11021811513D
libRbt.so/2013.1/901 2013/11/27
 10 11  0  0  0  0  0  0  0  0999 V2000
  -29.6472   17.4733  -17.7811 N   0  0  0  0  0  0  0  0  0  0  0  0
  -30.5547   18.4492  -17.9185 C   0  0  0  0  0  0  0  0  0  0  0  0
  -31.4032   18.9389  -17.0153 N   0  0  0  0  0  0  0  0  0  0  0  0
  -31.2601   18.3107  -15.8373 C   0  0  0  0  0  0  0  0  0  0  0  0
  -30.3753   17.2897  -15.5436 C   0  0  0  0  0  0  0  0  0  0  0  0
  -29.5274   16.8612  -16.5849 C   0  0  0  0  0  0  0  0  0  0  0  0
  -28.6240   15.8859  -16.4437 N   0  0  0  0  0  0  0  0  0  0  0  0
  -30.5099   16.8891  -14.2253 N   0  0  0  0  0  0  0  0  0  0  0  0
  -31.4614   17.6624  -13.7570 C   0  0  0  0  0  0  0  0  0  0  0  0
  -31.9590   18.5437  -14.6766 N   0  0  0  0  0  0  0  0  0  0  0  0
  1  2  2  0  0  0  0
  1  6  1  0  0  0  0
  2  3  1  0  0  0  0
  3  4  2  0  0  0  0
  4  5  1  0  0  0  0
  4 10  1  0  0  0  0
  5  6  2  0  0  0  0
  5  8  1  0  0  0  0
  6  7  1  0  0  0  0
  8  9  1  0  0  0  0
  9 10  2  0  0  0  0
M  END
>  <CHROM.1>
-30.52427050,17.62395857,-15.98214818,0.73776913,0.75356026,-1.18147513

>  <Name>
ligand

>  <RI>
0

>  <Rbt.Current_Directory>
/home/itssahil/PROJECTS/Mol_Feturizer/New_Systems/rnas/4TZX

>  <Rbt.Executable>
rbdock ($Id: //depot/dev/client3/rdock/2013.1/src/exe/rbdock.cxx#4 $)

>  <Rbt.Library>
libRbt.so (2013.1, Build901 2013/11/27)

>  <Rbt.Parameter_File>
/export/apps/rDock/src/rDock_2013.1_src/data/scripts/dock_solv.prm

>  <Rbt.Receptor>
prm/blind_docking_80.prm

>  <SCORE>
-12.9979

>  <SCORE.INTER>
-12.9979

>  <SCORE.INTER.CONST>
1

>  <SCORE.INTER.POLAR>
0

>  <SCORE.INTER.ROT>
0

>  <SCORE.INTER.SOLV>
7.81302

>  <SCORE.INTER.VDW>
-14.8696

>  <SCORE.INTER.norm>
-1.29979

>  <SCORE.INTRA>
0

>  <SCORE.INTRA.DIHEDRAL>
0

>  <SCORE.INTRA.DIHEDRAL.0>
0

>  <SCORE.INTRA.POLAR>
0

>  <SCORE.INTRA.POLAR.0>
0

>  <SCORE.INTRA.REPUL>
0

>  <SCORE.INTRA.REPUL.0>
0

>  <SCORE.INTRA.SOLV>
0

>  <SCORE.INTRA.SOLV.lig_0>
-23.8949

>  <SCORE.INTRA.VDW>
0

>  <SCORE.INTRA.VDW.0>
0

>  <SCORE.INTRA.norm>
0

>  <SCORE.RESTR>
0

>  <SCORE.RESTR.CAVITY>
0

>  <SCORE.RESTR.norm>
0

>  <SCORE.SYSTEM>
0

>  <SCORE.SYSTEM.CONST>
0

>  <SCORE.SYSTEM.DIHEDRAL>
0

>  <SCORE.SYSTEM.SOLV>
0

>  <SCORE.SYSTEM.norm>
0

>  <SCORE.heavy>
10

>  <SCORE.norm>
-1.29979

>  <RMSD>
2.901

$$$$
ligand
 OpenBabel11021811513D
libRbt.so/2013.1/901 2013/11/27
 10 11  0  0  0  0  0  0  0  0999 V2000
  -29.3607   16.7285  -17.2848 N   0  0  0  0  0  0  0  0  0  0  0  0
  -29.8604   17.9109  -17.6685 C   0  0  0  0  0  0  0  0  0  0  0  0
  -30.5998   18.7744  -16.9735 N   0  0  0  0  0  0  0  0  0  0  0  0
  -30.8265   18.3163  -15.7319 C   0  0  0  0  0  0  0  0  0  0  0  0
  -30.3828   17.1223  -15.1943 C   0  0  0  0  0  0  0  0  0  0  0  0
  -29.6059   16.2956  -16.0308 C   0  0  0  0  0  0  0  0  0  0  0  0
  -29.1104   15.1158  -15.6441 N   0  0  0  0  0  0  0  0  0  0  0  0
  -30.8093   16.9868  -13.8842 N   0  0  0  0  0  0  0  0  0  0  0  0
  -31.4945   18.0838  -13.6611 C   0  0  0  0  0  0  0  0  0  0  0  0
  -31.5455   18.9303  -14.7339 N   0  0  0  0  0  0  0  0  0  0  0  0
  1  2  2  0  0  0  0
  1  6  1  0  0  0  0
  2  3  1  0  0  0  0
  3  4  2  0  0  0  0
  4  5  1  0  0  0  0
  4 10  1  0  0  0  0
  5  6  2  0  0  0  0
  5  8  1  0  0  0  0
  6  7  1  0  0  0  0
  8  9  1  0  0  0  0
  9 10  2  0  0  0  0
M  END
>  <CHROM.1>
-30.35388204,17.41732000,-15.68251876,0.28238445,0.98164185,-0.95804586

>  <Name>
ligand

>  <RI>
0

>  <Rbt.Current_Directory>
/home/itssahil/PROJECTS/Mol_Feturizer/New_Systems/rnas/4TZX

>  <Rbt.Executable>
rbdock ($Id: //depot/dev/client3/rdock/2013.1/src/exe/rbdock.cxx#4 $)

>  <Rbt.Library>
libRbt.so (2013.1, Build901 2013/11/27)

>  <Rbt.Parameter_File>
/export/apps/rDock/src/rDock_2013.1_src/data/scripts/dock_solv.prm

>  <Rbt.Receptor>
prm/blind_docking_40.prm

>  <SCORE>
-10.5165

>  <SCORE.INTER>
-10.5165

>  <SCORE.INTER.CONST>
1

>  <SCORE.INTER.POLAR>
0

>  <SCORE.INTER.ROT>
0

>  <SCORE.INTER.SOLV>
9.97062

>  <SCORE.INTER.VDW>
-13.9346

>  <SCORE.INTER.norm>
-1.05165

>  <SCORE.INTRA>
0

>  <SCORE.INTRA.DIHEDRAL>
0

>  <SCORE.INTRA.DIHEDRAL.0>
0

>  <SCORE.INTRA.POLAR>
0

>  <SCORE.INTRA.POLAR.0>
0

>  <SCORE.INTRA.REPUL>
0

>  <SCORE.INTRA.REPUL.0>
0

>  <SCORE.INTRA.SOLV>
0

>  <SCORE.INTRA.SOLV.lig_0>
-23.8949

>  <SCORE.INTRA.VDW>
0

>  <SCORE.INTRA.VDW.0>
0

>  <SCORE.INTRA.norm>
0

>  <SCORE.RESTR>
0

>  <SCORE.RESTR.CAVITY>
0

>  <SCORE.RESTR.norm>
0

>  <SCORE.SYSTEM>
0

>  <SCORE.SYSTEM.CONST>
0

>  <SCORE.SYSTEM.DIHEDRAL>
0

>  <SCORE.SYSTEM.SOLV>
0

>  <SCORE.SYSTEM.norm>
0

>  <SCORE.heavy>
10

>  <SCORE.norm>
-1.05165

>  <RMSD>
2.902

$$$$
ligand
 OpenBabel11021811513D
libRbt.so/2013.1/901 2013/11/27
 10 11  0  0  0  0  0  0  0  0999 V2000
  -29.6620   17.4950  -17.7802 N   0  0  0  0  0  0  0  0  0  0  0  0
  -30.5845   18.4545  -17.9319 C   0  0  0  0  0  0  0  0  0  0  0  0
  -31.4489   18.9358  -17.0393 N   0  0  0  0  0  0  0  0  0  0  0  0
  -31.3054   18.3179  -15.8559 C   0  0  0  0  0  0  0  0  0  0  0  0
  -30.4061   17.3140  -15.5479 C   0  0  0  0  0  0  0  0  0  0  0  0
  -29.5422   16.8929  -16.5789 C   0  0  0  0  0  0  0  0  0  0  0  0
  -28.6238   15.9340  -16.4234 N   0  0  0  0  0  0  0  0  0  0  0  0
  -30.5453   16.9199  -14.2280 N   0  0  0  0  0  0  0  0  0  0  0  0
  -31.5137   17.6801  -13.7730 C   0  0  0  0  0  0  0  0  0  0  0  0
  -32.0181   18.5468  -14.7028 N   0  0  0  0  0  0  0  0  0  0  0  0
  1  2  2  0  0  0  0
  1  6  1  0  0  0  0
  2  3  1  0  0  0  0
  3  4  2  0  0  0  0
  4  5  1  0  0  0  0
  4 10  1  0  0  0  0
  5  6  2  0  0  0  0
  5  8  1  0  0  0  0
  6  7  1  0  0  0  0
  8  9  1  0  0  0  0
  9 10  2  0  0  0  0
M  END
>  <CHROM.1>
-30.55691167,17.64272264,-15.98986482,0.73562473,0.73474214,-1.18674302

>  <Name>
ligand

>  <RI>
0

>  <Rbt.Current_Directory>
/home/itssahil/PROJECTS/Mol_Feturizer/New_Systems/rnas/4TZX

>  <Rbt.Executable>
rbdock ($Id: //depot/dev/client3/rdock/2013.1/src/exe/rbdock.cxx#4 $)

>  <Rbt.Library>
libRbt.so (2013.1, Build901 2013/11/27)

>  <Rbt.Parameter_File>
/export/apps/rDock/src/rDock_2013.1_src/data/scripts/dock_solv.prm

>  <Rbt.Receptor>
prm/pocket_docking_3.prm

>  <SCORE>
-12.9643

>  <SCORE.INTER>
-12.9643

>  <SCORE.INTER.CONST>
1

>  <SCORE.INTER.POLAR>
0

>  <SCORE.INTER.ROT>
0

>  <SCORE.INTER.SOLV>
7.7311

>  <SCORE.INTER.VDW>
-14.8199

>  <SCORE.INTER.norm>
-1.29643

>  <SCORE.INTRA>
0

>  <SCORE.INTRA.DIHEDRAL>
0

>  <SCORE.INTRA.DIHEDRAL.0>
0

>  <SCORE.INTRA.POLAR>
0

>  <SCORE.INTRA.POLAR.0>
0

>  <SCORE.INTRA.REPUL>
0

>  <SCORE.INTRA.REPUL.0>
0

>  <SCORE.INTRA.SOLV>
0

>  <SCORE.INTRA.SOLV.lig_0>
-23.8949

>  <SCORE.INTRA.VDW>
0

>  <SCORE.INTRA.VDW.0>
0

>  <SCORE.INTRA.norm>
0

>  <SCORE.RESTR>
0

>  <SCORE.RESTR.CAVITY>
0

>  <SCORE.RESTR.norm>
0

>  <SCORE.SYSTEM>
0

>  <SCORE.SYSTEM.CONST>
0

>  <SCORE.SYSTEM.DIHEDRAL>
0

>  <SCORE.SYSTEM.SOLV>
0

>  <SCORE.SYSTEM.norm>
0

>  <SCORE.heavy>
10

>  <SCORE.norm>
-1.29643

>  <RMSD>
2.902

$$$$
ligand
 OpenBabel11021811513D
libRbt.so/2013.1/901 2013/11/27
 10 11  0  0  0  0  0  0  0  0999 V2000
  -29.6483   17.4717  -17.7777 N   0  0  0  0  0  0  0  0  0  0  0  0
  -30.5624   18.4409  -17.9185 C   0  0  0  0  0  0  0  0  0  0  0  0
  -31.4145   18.9277  -17.0171 N   0  0  0  0  0  0  0  0  0  0  0  0
  -31.2676   18.3041  -15.8371 C   0  0  0  0  0  0  0  0  0  0  0  0
  -30.3759   17.2901  -15.5400 C   0  0  0  0  0  0  0  0  0  0  0  0
  -29.5247   16.8641  -16.5796 C   0  0  0  0  0  0  0  0  0  0  0  0
  -28.6148   15.8955  -16.4350 N   0  0  0  0  0  0  0  0  0  0  0  0
  -30.5082   16.8927  -14.2204 N   0  0  0  0  0  0  0  0  0  0  0  0
  -31.4651   17.6610  -13.7548 C   0  0  0  0  0  0  0  0  0  0  0  0
  -31.9684   18.5360  -14.6774 N   0  0  0  0  0  0  0  0  0  0  0  0
  1  2  2  0  0  0  0
  1  6  1  0  0  0  0
  2  3  1  0  0  0  0
  3  4  2  0  0  0  0
  4  5  1  0  0  0  0
  4 10  1  0  0  0  0
  5  6  2  0  0  0  0
  5  8  1  0  0  0  0
  6  7  1  0  0  0  0
  8  9  1  0  0  0  0
  9 10  2  0  0  0  0
M  END
>  <CHROM.1>
-30.52700967,17.62194508,-15.97955980,0.74087253,0.74713474,-1.18673154

>  <Name>
ligand

>  <RI>
0

>  <Rbt.Current_Directory>
/home/itssahil/PROJECTS/Mol_Feturizer/New_Systems/rnas/4TZX

>  <Rbt.Executable>
rbdock ($Id: //depot/dev/client3/rdock/2013.1/src/exe/rbdock.cxx#4 $)

>  <Rbt.Library>
libRbt.so (2013.1, Build901 2013/11/27)

>  <Rbt.Parameter_File>
/export/apps/rDock/src/rDock_2013.1_src/data/scripts/dock_solv.prm

>  <Rbt.Receptor>
prm/pocket_docking_7.prm

>  <SCORE>
-12.9935

>  <SCORE.INTER>
-12.9935

>  <SCORE.INTER.CONST>
1

>  <SCORE.INTER.POLAR>
0

>  <SCORE.INTER.ROT>
0

>  <SCORE.INTER.SOLV>
7.76543

>  <SCORE.INTER.VDW>
-14.8508

>  <SCORE.INTER.norm>
-1.29935

>  <SCORE.INTRA>
0

>  <SCORE.INTRA.DIHEDRAL>
0

>  <SCORE.INTRA.DIHEDRAL.0>
0

>  <SCORE.INTRA.POLAR>
0

>  <SCORE.INTRA.POLAR.0>
0

>  <SCORE.INTRA.REPUL>
0

>  <SCORE.INTRA.REPUL.0>
0

>  <SCORE.INTRA.SOLV>
0

>  <SCORE.INTRA.SOLV.lig_0>
-23.8949

>  <SCORE.INTRA.VDW>
0

>  <SCORE.INTRA.VDW.0>
0

>  <SCORE.INTRA.norm>
0

>  <SCORE.RESTR>
0

>  <SCORE.RESTR.CAVITY>
0

>  <SCORE.RESTR.norm>
0

>  <SCORE.SYSTEM>
0

>  <SCORE.SYSTEM.CONST>
0

>  <SCORE.SYSTEM.DIHEDRAL>
0

>  <SCORE.SYSTEM.SOLV>
0

>  <SCORE.SYSTEM.norm>
0

>  <SCORE.heavy>
10

>  <SCORE.norm>
-1.29935

>  <RMSD>
2.902

$$$$
ligand
 OpenBabel11021811513D
libRbt.so/2013.1/901 2013/11/27
 10 11  0  0  0  0  0  0  0  0999 V2000
  -29.6507   17.4779  -17.7801 N   0  0  0  0  0  0  0  0  0  0  0  0
  -30.5643   18.4480  -17.9180 C   0  0  0  0  0  0  0  0  0  0  0  0
  -31.4153   18.9334  -17.0147 N   0  0  0  0  0  0  0  0  0  0  0  0
  -31.2676   18.3072  -15.8362 C   0  0  0  0  0  0  0  0  0  0  0  0
  -30.3763   17.2921  -15.5421 C   0  0  0  0  0  0  0  0  0  0  0  0
  -29.5264   16.8677  -16.5834 C   0  0  0  0  0  0  0  0  0  0  0  0
  -28.6169   15.8982  -16.4417 N   0  0  0  0  0  0  0  0  0  0  0  0
  -30.5077   16.8920  -14.2232 N   0  0  0  0  0  0  0  0  0  0  0  0
  -31.4637   17.6598  -13.7551 C   0  0  0  0  0  0  0  0  0  0  0  0
  -31.9673   18.5370  -14.6754 N   0  0  0  0  0  0  0  0  0  0  0  0
  1  2  2  0  0  0  0
  1  6  1  0  0  0  0
  2  3  1  0  0  0  0
  3  4  2  0  0  0  0
  4  5  1  0  0  0  0
  4 10  1  0  0  0  0
  5  6  2  0  0  0  0
  5  8  1  0  0  0  0
  6  7  1  0  0  0  0
  8  9  1  0  0  0  0
  9 10  2  0  0  0  0
M  END
>  <CHROM.1>
-30.52763147,17.62491275,-15.98082545,0.74171170,0.74805491,-1.18517444

>  <Name>
ligand

>  <RI>
0

>  <Rbt.Current_Directory>
/home/itssahil/PROJECTS/Mol_Feturizer/New_Systems/rnas/4TZX

>  <Rbt.Executable>
rbdock ($Id: //depot/dev/client3/rdock/2013.1/src/exe/rbdock.cxx#4 $)

>  <Rbt.Library>
libRbt.so (2013.1, Build901 2013/11/27)

>  <Rbt.Parameter_File>
/export/apps/rDock/src/rDock_2013.1_src/data/scripts/dock_solv.prm

>  <Rbt.Receptor>
prm/pocket_docking_6.prm

>  <SCORE>
-12.9941

>  <SCORE.INTER>
-12.9941

>  <SCORE.INTER.CONST>
1

>  <SCORE.INTER.POLAR>
0

>  <SCORE.INTER.ROT>
0

>  <SCORE.INTER.SOLV>
7.7868

>  <SCORE.INTER.VDW>
-14.8584

>  <SCORE.INTER.norm>
-1.29941

>  <SCORE.INTRA>
0

>  <SCORE.INTRA.DIHEDRAL>
0

>  <SCORE.INTRA.DIHEDRAL.0>
0

>  <SCORE.INTRA.POLAR>
0

>  <SCORE.INTRA.POLAR.0>
0

>  <SCORE.INTRA.REPUL>
0

>  <SCORE.INTRA.REPUL.0>
0

>  <SCORE.INTRA.SOLV>
0

>  <SCORE.INTRA.SOLV.lig_0>
-23.8949

>  <SCORE.INTRA.VDW>
0

>  <SCORE.INTRA.VDW.0>
0

>  <SCORE.INTRA.norm>
0

>  <SCORE.RESTR>
0

>  <SCORE.RESTR.CAVITY>
0

>  <SCORE.RESTR.norm>
0

>  <SCORE.SYSTEM>
0

>  <SCORE.SYSTEM.CONST>
0

>  <SCORE.SYSTEM.DIHEDRAL>
0

>  <SCORE.SYSTEM.SOLV>
0

>  <SCORE.SYSTEM.norm>
0

>  <SCORE.heavy>
10

>  <SCORE.norm>
-1.29941

>  <RMSD>
2.903

$$$$
ligand
 OpenBabel11021811513D
libRbt.so/2013.1/901 2013/11/27
 10 11  0  0  0  0  0  0  0  0999 V2000
  -29.7128   17.4366  -17.7809 N   0  0  0  0  0  0  0  0  0  0  0  0
  -30.6310   18.4038  -17.9079 C   0  0  0  0  0  0  0  0  0  0  0  0
  -31.4462   18.9130  -16.9850 N   0  0  0  0  0  0  0  0  0  0  0  0
  -31.2528   18.3172  -15.7974 C   0  0  0  0  0  0  0  0  0  0  0  0
  -30.3507   17.3090  -15.5122 C   0  0  0  0  0  0  0  0  0  0  0  0
  -29.5420   16.8572  -16.5746 C   0  0  0  0  0  0  0  0  0  0  0  0
  -28.6277   15.8907  -16.4435 N   0  0  0  0  0  0  0  0  0  0  0  0
  -30.4307   16.9430  -14.1794 N   0  0  0  0  0  0  0  0  0  0  0  0
  -31.3677   17.7236  -13.6944 C   0  0  0  0  0  0  0  0  0  0  0  0
  -31.9067   18.5774  -14.6165 N   0  0  0  0  0  0  0  0  0  0  0  0
  1  2  2  0  0  0  0
  1  6  1  0  0  0  0
  2  3  1  0  0  0  0
  3  4  2  0  0  0  0
  4  5  1  0  0  0  0
  4 10  1  0  0  0  0
  5  6  2  0  0  0  0
  5  8  1  0  0  0  0
  6  7  1  0  0  0  0
  8  9  1  0  0  0  0
  9 10  2  0  0  0  0
M  END
>  <CHROM.1>
-30.51899334,17.63062763,-15.95316110,0.79158465,0.76210886,-1.24504950

>  <Name>
ligand

>  <RI>
0

>  <Rbt.Current_Directory>
/home/itssahil/PROJECTS/Mol_Feturizer/New_Systems/rnas/4TZX

>  <Rbt.Executable>
rbdock ($Id: //depot/dev/client3/rdock/2013.1/src/exe/rbdock.cxx#4 $)

>  <Rbt.Library>
libRbt.so (2013.1, Build901 2013/11/27)

>  <Rbt.Parameter_File>
/export/apps/rDock/src/rDock_2013.1_src/data/scripts/dock_solv.prm

>  <Rbt.Receptor>
prm/blind_docking_60.prm

>  <SCORE>
-12.9423

>  <SCORE.INTER>
-12.9423

>  <SCORE.INTER.CONST>
1

>  <SCORE.INTER.POLAR>
0

>  <SCORE.INTER.ROT>
0

>  <SCORE.INTER.SOLV>
7.78225

>  <SCORE.INTER.VDW>
-14.8223

>  <SCORE.INTER.norm>
-1.29423

>  <SCORE.INTRA>
0

>  <SCORE.INTRA.DIHEDRAL>
0

>  <SCORE.INTRA.DIHEDRAL.0>
0

>  <SCORE.INTRA.POLAR>
0

>  <SCORE.INTRA.POLAR.0>
0

>  <SCORE.INTRA.REPUL>
0

>  <SCORE.INTRA.REPUL.0>
0

>  <SCORE.INTRA.SOLV>
0

>  <SCORE.INTRA.SOLV.lig_0>
-23.8949

>  <SCORE.INTRA.VDW>
0

>  <SCORE.INTRA.VDW.0>
0

>  <SCORE.INTRA.norm>
0

>  <SCORE.RESTR>
0

>  <SCORE.RESTR.CAVITY>
0

>  <SCORE.RESTR.norm>
0

>  <SCORE.SYSTEM>
0

>  <SCORE.SYSTEM.CONST>
0

>  <SCORE.SYSTEM.DIHEDRAL>
0

>  <SCORE.SYSTEM.SOLV>
0

>  <SCORE.SYSTEM.norm>
0

>  <SCORE.heavy>
10

>  <SCORE.norm>
-1.29423

>  <RMSD>
2.909

$$$$
ligand
 OpenBabel11021811513D
libRbt.so/2013.1/901 2013/11/27
 10 11  0  0  0  0  0  0  0  0999 V2000
  -31.6299   18.8788  -15.8324 N   0  0  0  0  0  0  0  0  0  0  0  0
  -31.5361   18.3835  -14.5911 C   0  0  0  0  0  0  0  0  0  0  0  0
  -30.9155   17.2812  -14.1724 N   0  0  0  0  0  0  0  0  0  0  0  0
  -30.3335   16.6426  -15.2001 C   0  0  0  0  0  0  0  0  0  0  0  0
  -30.3447   17.0258  -16.5285 C   0  0  0  0  0  0  0  0  0  0  0  0
  -31.0342   18.2140  -16.8439 C   0  0  0  0  0  0  0  0  0  0  0  0
  -31.1264   18.7038  -18.0843 N   0  0  0  0  0  0  0  0  0  0  0  0
  -29.6376   16.1232  -17.3044 N   0  0  0  0  0  0  0  0  0  0  0  0
  -29.2224   15.2247  -16.4425 C   0  0  0  0  0  0  0  0  0  0  0  0
  -29.6069   15.4764  -15.1546 N   0  0  0  0  0  0  0  0  0  0  0  0
  1  2  2  0  0  0  0
  1  6  1  0  0  0  0
  2  3  1  0  0  0  0
  3  4  2  0  0  0  0
  4  5  1  0  0  0  0
  4 10  1  0  0  0  0
  5  6  2  0  0  0  0
  5  8  1  0  0  0  0
  6  7  1  0  0  0  0
  8  9  1  0  0  0  0
  9 10  2  0  0  0  0
M  END
>  <CHROM.1>
-30.54213250,17.20286315,-16.02265667,2.81805849,0.99197393,-1.29959745

>  <Name>
ligand

>  <RI>
0

>  <Rbt.Current_Directory>
/home/itssahil/PROJECTS/Mol_Feturizer/New_Systems/rnas/4TZX

>  <Rbt.Executable>
rbdock ($Id: //depot/dev/client3/rdock/2013.1/src/exe/rbdock.cxx#4 $)

>  <Rbt.Library>
libRbt.so (2013.1, Build901 2013/11/27)

>  <Rbt.Parameter_File>
/export/apps/rDock/src/rDock_2013.1_src/data/scripts/dock_solv.prm

>  <Rbt.Receptor>
prm/blind_docking_80.prm

>  <SCORE>
-10.9906

>  <SCORE.INTER>
-10.9906

>  <SCORE.INTER.CONST>
1

>  <SCORE.INTER.POLAR>
0

>  <SCORE.INTER.ROT>
0

>  <SCORE.INTER.SOLV>
9.83838

>  <SCORE.INTER.VDW>
-14.2065

>  <SCORE.INTER.norm>
-1.09906

>  <SCORE.INTRA>
0

>  <SCORE.INTRA.DIHEDRAL>
0

>  <SCORE.INTRA.DIHEDRAL.0>
0

>  <SCORE.INTRA.POLAR>
0

>  <SCORE.INTRA.POLAR.0>
0

>  <SCORE.INTRA.REPUL>
0

>  <SCORE.INTRA.REPUL.0>
0

>  <SCORE.INTRA.SOLV>
0

>  <SCORE.INTRA.SOLV.lig_0>
-23.8949

>  <SCORE.INTRA.VDW>
0

>  <SCORE.INTRA.VDW.0>
0

>  <SCORE.INTRA.norm>
0

>  <SCORE.RESTR>
0

>  <SCORE.RESTR.CAVITY>
0

>  <SCORE.RESTR.norm>
0

>  <SCORE.SYSTEM>
0

>  <SCORE.SYSTEM.CONST>
0

>  <SCORE.SYSTEM.DIHEDRAL>
0

>  <SCORE.SYSTEM.SOLV>
0

>  <SCORE.SYSTEM.norm>
0

>  <SCORE.heavy>
10

>  <SCORE.norm>
-1.09906

>  <RMSD>
2.909

$$$$
ligand
 OpenBabel11021811513D
libRbt.so/2013.1/901 2013/11/27
 10 11  0  0  0  0  0  0  0  0999 V2000
  -29.7007   17.4342  -17.7767 N   0  0  0  0  0  0  0  0  0  0  0  0
  -30.6238   18.3969  -17.9027 C   0  0  0  0  0  0  0  0  0  0  0  0
  -31.4436   18.8990  -16.9799 N   0  0  0  0  0  0  0  0  0  0  0  0
  -31.2495   18.3005  -15.7938 C   0  0  0  0  0  0  0  0  0  0  0  0
  -30.3426   17.2963  -15.5098 C   0  0  0  0  0  0  0  0  0  0  0  0
  -29.5293   16.8521  -16.5718 C   0  0  0  0  0  0  0  0  0  0  0  0
  -28.6101   15.8901  -16.4418 N   0  0  0  0  0  0  0  0  0  0  0  0
  -30.4234   16.9259  -14.1782 N   0  0  0  0  0  0  0  0  0  0  0  0
  -31.3655   17.6999  -13.6927 C   0  0  0  0  0  0  0  0  0  0  0  0
  -31.9072   18.5537  -14.6134 N   0  0  0  0  0  0  0  0  0  0  0  0
  1  2  2  0  0  0  0
  1  6  1  0  0  0  0
  2  3  1  0  0  0  0
  3  4  2  0  0  0  0
  4  5  1  0  0  0  0
  4 10  1  0  0  0  0
  5  6  2  0  0  0  0
  5  8  1  0  0  0  0
  6  7  1  0  0  0  0
  8  9  1  0  0  0  0
  9 10  2  0  0  0  0
M  END
>  <CHROM.1>
-30.51169166,17.61840436,-15.95005929,0.79124724,0.75639586,-1.24177800

>  <Name>
ligand

>  <RI>
0

>  <Rbt.Current_Directory>
/home/itssahil/PROJECTS/Mol_Feturizer/New_Systems/rnas/4TZX

>  <Rbt.Executable>
rbdock ($Id: //depot/dev/client3/rdock/2013.1/src/exe/rbdock.cxx#4 $)

>  <Rbt.Library>
libRbt.so (2013.1, Build901 2013/11/27)

>  <Rbt.Parameter_File>
/export/apps/rDock/src/rDock_2013.1_src/data/scripts/dock_solv.prm

>  <Rbt.Receptor>
prm/pocket_docking_8.prm

>  <SCORE>
-12.9693

>  <SCORE.INTER>
-12.9693

>  <SCORE.INTER.CONST>
1

>  <SCORE.INTER.POLAR>
0

>  <SCORE.INTER.ROT>
0

>  <SCORE.INTER.SOLV>
7.74873

>  <SCORE.INTER.VDW>
-14.8291

>  <SCORE.INTER.norm>
-1.29693

>  <SCORE.INTRA>
0

>  <SCORE.INTRA.DIHEDRAL>
0

>  <SCORE.INTRA.DIHEDRAL.0>
0

>  <SCORE.INTRA.POLAR>
0

>  <SCORE.INTRA.POLAR.0>
0

>  <SCORE.INTRA.REPUL>
0

>  <SCORE.INTRA.REPUL.0>
0

>  <SCORE.INTRA.SOLV>
0

>  <SCORE.INTRA.SOLV.lig_0>
-23.8949

>  <SCORE.INTRA.VDW>
0

>  <SCORE.INTRA.VDW.0>
0

>  <SCORE.INTRA.norm>
0

>  <SCORE.RESTR>
0

>  <SCORE.RESTR.CAVITY>
0

>  <SCORE.RESTR.norm>
0

>  <SCORE.SYSTEM>
0

>  <SCORE.SYSTEM.CONST>
0

>  <SCORE.SYSTEM.DIHEDRAL>
0

>  <SCORE.SYSTEM.SOLV>
0

>  <SCORE.SYSTEM.norm>
0

>  <SCORE.heavy>
10

>  <SCORE.norm>
-1.29693

>  <RMSD>
2.910

$$$$
ligand
 OpenBabel11021811513D
libRbt.so/2013.1/901 2013/11/27
 10 11  0  0  0  0  0  0  0  0999 V2000
  -29.7000   17.4399  -17.7732 N   0  0  0  0  0  0  0  0  0  0  0  0
  -30.6231   18.4026  -17.8993 C   0  0  0  0  0  0  0  0  0  0  0  0
  -31.4436   18.9040  -16.9769 N   0  0  0  0  0  0  0  0  0  0  0  0
  -31.2503   18.3048  -15.7909 C   0  0  0  0  0  0  0  0  0  0  0  0
  -30.3436   17.3005  -15.5069 C   0  0  0  0  0  0  0  0  0  0  0  0
  -29.5295   16.8569  -16.5686 C   0  0  0  0  0  0  0  0  0  0  0  0
  -28.6103   15.8949  -16.4385 N   0  0  0  0  0  0  0  0  0  0  0  0
  -30.4253   16.9292  -14.1756 N   0  0  0  0  0  0  0  0  0  0  0  0
  -31.3679   17.7029  -13.6904 C   0  0  0  0  0  0  0  0  0  0  0  0
  -31.9089   18.5572  -14.6109 N   0  0  0  0  0  0  0  0  0  0  0  0
  1  2  2  0  0  0  0
  1  6  1  0  0  0  0
  2  3  1  0  0  0  0
  3  4  2  0  0  0  0
  4  5  1  0  0  0  0
  4 10  1  0  0  0  0
  5  6  2  0  0  0  0
  5  8  1  0  0  0  0
  6  7  1  0  0  0  0
  8  9  1  0  0  0  0
  9 10  2  0  0  0  0
M  END
>  <CHROM.1>
-30.51236588,17.62281487,-15.94710571,0.79031586,0.75609820,-1.24050241

>  <Name>
ligand

>  <RI>
0

>  <Rbt.Current_Directory>
/home/itssahil/PROJECTS/Mol_Feturizer/New_Systems/rnas/4TZX

>  <Rbt.Executable>
rbdock ($Id: //depot/dev/client3/rdock/2013.1/src/exe/rbdock.cxx#4 $)

>  <Rbt.Library>
libRbt.so (2013.1, Build901 2013/11/27)

>  <Rbt.Parameter_File>
/export/apps/rDock/src/rDock_2013.1_src/data/scripts/dock_solv.prm

>  <Rbt.Receptor>
prm/pocket_docking_5.prm

>  <SCORE>
-12.972

>  <SCORE.INTER>
-12.972

>  <SCORE.INTER.CONST>
1

>  <SCORE.INTER.POLAR>
0

>  <SCORE.INTER.ROT>
0

>  <SCORE.INTER.SOLV>
7.7371

>  <SCORE.INTER.VDW>
-14.827

>  <SCORE.INTER.norm>
-1.2972

>  <SCORE.INTRA>
0

>  <SCORE.INTRA.DIHEDRAL>
0

>  <SCORE.INTRA.DIHEDRAL.0>
0

>  <SCORE.INTRA.POLAR>
0

>  <SCORE.INTRA.POLAR.0>
0

>  <SCORE.INTRA.REPUL>
0

>  <SCORE.INTRA.REPUL.0>
0

>  <SCORE.INTRA.SOLV>
0

>  <SCORE.INTRA.SOLV.lig_0>
-23.8949

>  <SCORE.INTRA.VDW>
0

>  <SCORE.INTRA.VDW.0>
0

>  <SCORE.INTRA.norm>
0

>  <SCORE.RESTR>
0

>  <SCORE.RESTR.CAVITY>
0

>  <SCORE.RESTR.norm>
0

>  <SCORE.SYSTEM>
0

>  <SCORE.SYSTEM.CONST>
0

>  <SCORE.SYSTEM.DIHEDRAL>
0

>  <SCORE.SYSTEM.SOLV>
0

>  <SCORE.SYSTEM.norm>
0

>  <SCORE.heavy>
10

>  <SCORE.norm>
-1.2972

>  <RMSD>
2.911

$$$$
ligand
 OpenBabel11021811513D
libRbt.so/2013.1/901 2013/11/27
 10 11  0  0  0  0  0  0  0  0999 V2000
  -29.7042   17.4707  -17.7751 N   0  0  0  0  0  0  0  0  0  0  0  0
  -30.6328   18.4292  -17.8925 C   0  0  0  0  0  0  0  0  0  0  0  0
  -31.4556   18.9181  -16.9654 N   0  0  0  0  0  0  0  0  0  0  0  0
  -31.2582   18.3099  -15.7847 C   0  0  0  0  0  0  0  0  0  0  0  0
  -30.3457   17.3083  -15.5097 C   0  0  0  0  0  0  0  0  0  0  0  0
  -29.5297   16.8785  -16.5756 C   0  0  0  0  0  0  0  0  0  0  0  0
  -28.6050   15.9206  -16.4543 N   0  0  0  0  0  0  0  0  0  0  0  0
  -30.4245   16.9252  -14.1817 N   0  0  0  0  0  0  0  0  0  0  0  0
  -31.3712   17.6893  -13.6893 C   0  0  0  0  0  0  0  0  0  0  0  0
  -31.9176   18.5485  -14.6022 N   0  0  0  0  0  0  0  0  0  0  0  0
  1  2  2  0  0  0  0
  1  6  1  0  0  0  0
  2  3  1  0  0  0  0
  3  4  2  0  0  0  0
  4  5  1  0  0  0  0
  4 10  1  0  0  0  0
  5  6  2  0  0  0  0
  5  8  1  0  0  0  0
  6  7  1  0  0  0  0
  8  9  1  0  0  0  0
  9 10  2  0  0  0  0
M  END
>  <CHROM.1>
-30.51655658,17.63345375,-15.94709435,0.79356516,0.75092089,-1.23416853

>  <Name>
ligand

>  <RI>
0

>  <Rbt.Current_Directory>
/home/itssahil/PROJECTS/Mol_Feturizer/New_Systems/rnas/4TZX

>  <Rbt.Executable>
rbdock ($Id: //depot/dev/client3/rdock/2013.1/src/exe/rbdock.cxx#4 $)

>  <Rbt.Library>
libRbt.so (2013.1, Build901 2013/11/27)

>  <Rbt.Parameter_File>
/export/apps/rDock/src/rDock_2013.1_src/data/scripts/dock_solv.prm

>  <Rbt.Receptor>
prm/blind_docking_80.prm

>  <SCORE>
-12.9658

>  <SCORE.INTER>
-12.9658

>  <SCORE.INTER.CONST>
1

>  <SCORE.INTER.POLAR>
0

>  <SCORE.INTER.ROT>
0

>  <SCORE.INTER.SOLV>
7.75769

>  <SCORE.INTER.VDW>
-14.8297

>  <SCORE.INTER.norm>
-1.29658

>  <SCORE.INTRA>
0

>  <SCORE.INTRA.DIHEDRAL>
0

>  <SCORE.INTRA.DIHEDRAL.0>
0

>  <SCORE.INTRA.POLAR>
0

>  <SCORE.INTRA.POLAR.0>
0

>  <SCORE.INTRA.REPUL>
0

>  <SCORE.INTRA.REPUL.0>
0

>  <SCORE.INTRA.SOLV>
0

>  <SCORE.INTRA.SOLV.lig_0>
-23.8949

>  <SCORE.INTRA.VDW>
0

>  <SCORE.INTRA.VDW.0>
0

>  <SCORE.INTRA.norm>
0

>  <SCORE.RESTR>
0

>  <SCORE.RESTR.CAVITY>
0

>  <SCORE.RESTR.norm>
0

>  <SCORE.SYSTEM>
0

>  <SCORE.SYSTEM.CONST>
0

>  <SCORE.SYSTEM.DIHEDRAL>
0

>  <SCORE.SYSTEM.SOLV>
0

>  <SCORE.SYSTEM.norm>
0

>  <SCORE.heavy>
10

>  <SCORE.norm>
-1.29658

>  <RMSD>
2.913

$$$$
ligand
 OpenBabel11021811513D
libRbt.so/2013.1/901 2013/11/27
 10 11  0  0  0  0  0  0  0  0999 V2000
  -31.6355   18.9148  -15.9188 N   0  0  0  0  0  0  0  0  0  0  0  0
  -31.5205   18.5079  -14.6476 C   0  0  0  0  0  0  0  0  0  0  0  0
  -30.8720   17.4506  -14.1607 N   0  0  0  0  0  0  0  0  0  0  0  0
  -30.2841   16.7559  -15.1480 C   0  0  0  0  0  0  0  0  0  0  0  0
  -30.3148   17.0470  -16.4992 C   0  0  0  0  0  0  0  0  0  0  0  0
  -31.0333   18.1955  -16.8883 C   0  0  0  0  0  0  0  0  0  0  0  0
  -31.1465   18.5972  -18.1583 N   0  0  0  0  0  0  0  0  0  0  0  0
  -29.5940   16.1091  -17.2186 N   0  0  0  0  0  0  0  0  0  0  0  0
  -29.1518   15.2809  -16.3015 C   0  0  0  0  0  0  0  0  0  0  0  0
  -29.5313   15.6118  -15.0301 N   0  0  0  0  0  0  0  0  0  0  0  0
  1  2  2  0  0  0  0
  1  6  1  0  0  0  0
  2  3  1  0  0  0  0
  3  4  2  0  0  0  0
  4  5  1  0  0  0  0
  4 10  1  0  0  0  0
  5  6  2  0  0  0  0
  5  8  1  0  0  0  0
  6  7  1  0  0  0  0
  8  9  1  0  0  0  0
  9 10  2  0  0  0  0
M  END
>  <CHROM.1>
-30.51202526,17.25394981,-16.00479815,2.84266425,0.97241599,-1.38845738

>  <Name>
ligand

>  <RI>
0

>  <Rbt.Current_Directory>
/home/itssahil/PROJECTS/Mol_Feturizer/New_Systems/rnas/4TZX

>  <Rbt.Executable>
rbdock ($Id: //depot/dev/client3/rdock/2013.1/src/exe/rbdock.cxx#4 $)

>  <Rbt.Library>
libRbt.so (2013.1, Build901 2013/11/27)

>  <Rbt.Parameter_File>
/export/apps/rDock/src/rDock_2013.1_src/data/scripts/dock_solv.prm

>  <Rbt.Receptor>
prm/blind_docking_100.prm

>  <SCORE>
-11.0146

>  <SCORE.INTER>
-11.0146

>  <SCORE.INTER.CONST>
1

>  <SCORE.INTER.POLAR>
0

>  <SCORE.INTER.ROT>
0

>  <SCORE.INTER.SOLV>
9.57507

>  <SCORE.INTER.VDW>
-14.1347

>  <SCORE.INTER.norm>
-1.10146

>  <SCORE.INTRA>
0

>  <SCORE.INTRA.DIHEDRAL>
0

>  <SCORE.INTRA.DIHEDRAL.0>
0

>  <SCORE.INTRA.POLAR>
0

>  <SCORE.INTRA.POLAR.0>
0

>  <SCORE.INTRA.REPUL>
0

>  <SCORE.INTRA.REPUL.0>
0

>  <SCORE.INTRA.SOLV>
0

>  <SCORE.INTRA.SOLV.lig_0>
-23.8949

>  <SCORE.INTRA.VDW>
0

>  <SCORE.INTRA.VDW.0>
0

>  <SCORE.INTRA.norm>
0

>  <SCORE.RESTR>
0

>  <SCORE.RESTR.CAVITY>
0

>  <SCORE.RESTR.norm>
0

>  <SCORE.SYSTEM>
0

>  <SCORE.SYSTEM.CONST>
0

>  <SCORE.SYSTEM.DIHEDRAL>
0

>  <SCORE.SYSTEM.SOLV>
0

>  <SCORE.SYSTEM.norm>
0

>  <SCORE.heavy>
10

>  <SCORE.norm>
-1.10146

>  <RMSD>
2.915

$$$$
ligand
 OpenBabel11021811513D
libRbt.so/2013.1/901 2013/11/27
 10 11  0  0  0  0  0  0  0  0999 V2000
  -29.6404   17.4058  -17.6944 N   0  0  0  0  0  0  0  0  0  0  0  0
  -30.5615   18.3663  -17.8492 C   0  0  0  0  0  0  0  0  0  0  0  0
  -31.3921   18.8854  -16.9458 N   0  0  0  0  0  0  0  0  0  0  0  0
  -31.2127   18.3087  -15.7466 C   0  0  0  0  0  0  0  0  0  0  0  0
  -30.3098   17.3096  -15.4333 C   0  0  0  0  0  0  0  0  0  0  0  0
  -29.4839   16.8457  -16.4771 C   0  0  0  0  0  0  0  0  0  0  0  0
  -28.5669   15.8861  -16.3184 N   0  0  0  0  0  0  0  0  0  0  0  0
  -30.4069   16.9636  -14.0963 N   0  0  0  0  0  0  0  0  0  0  0  0
  -31.3545   17.7466  -13.6365 C   0  0  0  0  0  0  0  0  0  0  0  0
  -31.8845   18.5836  -14.5792 N   0  0  0  0  0  0  0  0  0  0  0  0
  1  2  2  0  0  0  0
  1  6  1  0  0  0  0
  2  3  1  0  0  0  0
  3  4  2  0  0  0  0
  4  5  1  0  0  0  0
  4 10  1  0  0  0  0
  5  6  2  0  0  0  0
  5  8  1  0  0  0  0
  6  7  1  0  0  0  0
  8  9  1  0  0  0  0
  9 10  2  0  0  0  0
M  END
>  <CHROM.1>
-30.47341130,17.62359499,-15.88145024,0.77532561,0.75287259,-1.24917009

>  <Name>
ligand

>  <RI>
0

>  <Rbt.Current_Directory>
/home/itssahil/PROJECTS/Mol_Feturizer/New_Systems/rnas/4TZX

>  <Rbt.Executable>
rbdock ($Id: //depot/dev/client3/rdock/2013.1/src/exe/rbdock.cxx#4 $)

>  <Rbt.Library>
libRbt.so (2013.1, Build901 2013/11/27)

>  <Rbt.Parameter_File>
/export/apps/rDock/src/rDock_2013.1_src/data/scripts/dock_solv.prm

>  <Rbt.Receptor>
prm/blind_docking_60.prm

>  <SCORE>
-12.9168

>  <SCORE.INTER>
-12.9168

>  <SCORE.INTER.CONST>
1

>  <SCORE.INTER.POLAR>
0

>  <SCORE.INTER.ROT>
0

>  <SCORE.INTER.SOLV>
7.31143

>  <SCORE.INTER.VDW>
-14.6483

>  <SCORE.INTER.norm>
-1.29168

>  <SCORE.INTRA>
0

>  <SCORE.INTRA.DIHEDRAL>
0

>  <SCORE.INTRA.DIHEDRAL.0>
0

>  <SCORE.INTRA.POLAR>
0

>  <SCORE.INTRA.POLAR.0>
0

>  <SCORE.INTRA.REPUL>
0

>  <SCORE.INTRA.REPUL.0>
0

>  <SCORE.INTRA.SOLV>
0

>  <SCORE.INTRA.SOLV.lig_0>
-23.8949

>  <SCORE.INTRA.VDW>
0

>  <SCORE.INTRA.VDW.0>
0

>  <SCORE.INTRA.norm>
0

>  <SCORE.RESTR>
0

>  <SCORE.RESTR.CAVITY>
0

>  <SCORE.RESTR.norm>
0

>  <SCORE.SYSTEM>
0

>  <SCORE.SYSTEM.CONST>
0

>  <SCORE.SYSTEM.DIHEDRAL>
0

>  <SCORE.SYSTEM.SOLV>
0

>  <SCORE.SYSTEM.norm>
0

>  <SCORE.heavy>
10

>  <SCORE.norm>
-1.29168

>  <RMSD>
2.918

$$$$
ligand
 OpenBabel11021811513D
libRbt.so/2013.1/901 2013/11/27
 10 11  0  0  0  0  0  0  0  0999 V2000
  -31.6134   18.9296  -15.9079 N   0  0  0  0  0  0  0  0  0  0  0  0
  -31.5000   18.5278  -14.6349 C   0  0  0  0  0  0  0  0  0  0  0  0
  -30.8699   17.4608  -14.1450 N   0  0  0  0  0  0  0  0  0  0  0  0
  -30.3007   16.7491  -15.1311 C   0  0  0  0  0  0  0  0  0  0  0  0
  -30.3324   17.0331  -16.4839 C   0  0  0  0  0  0  0  0  0  0  0  0
  -31.0303   18.1932  -16.8761 C   0  0  0  0  0  0  0  0  0  0  0  0
  -31.1420   18.5897  -18.1479 N   0  0  0  0  0  0  0  0  0  0  0  0
  -29.6337   16.0771  -17.2013 N   0  0  0  0  0  0  0  0  0  0  0  0
  -29.2032   15.2457  -16.2815 C   0  0  0  0  0  0  0  0  0  0  0  0
  -29.5698   15.5912  -15.0102 N   0  0  0  0  0  0  0  0  0  0  0  0
  1  2  2  0  0  0  0
  1  6  1  0  0  0  0
  2  3  1  0  0  0  0
  3  4  2  0  0  0  0
  4  5  1  0  0  0  0
  4 10  1  0  0  0  0
  5  6  2  0  0  0  0
  5  8  1  0  0  0  0
  6  7  1  0  0  0  0
  8  9  1  0  0  0  0
  9 10  2  0  0  0  0
M  END
>  <CHROM.1>
-30.52309401,17.24662825,-15.98969550,2.84516896,0.99255756,-1.39631046

>  <Name>
ligand

>  <RI>
0

>  <Rbt.Current_Directory>
/home/itssahil/PROJECTS/Mol_Feturizer/New_Systems/rnas/4TZX

>  <Rbt.Executable>
rbdock ($Id: //depot/dev/client3/rdock/2013.1/src/exe/rbdock.cxx#4 $)

>  <Rbt.Library>
libRbt.so (2013.1, Build901 2013/11/27)

>  <Rbt.Parameter_File>
/export/apps/rDock/src/rDock_2013.1_src/data/scripts/dock_solv.prm

>  <Rbt.Receptor>
prm/blind_docking_100.prm

>  <SCORE>
-11.0748

>  <SCORE.INTER>
-11.0748

>  <SCORE.INTER.CONST>
1

>  <SCORE.INTER.POLAR>
0

>  <SCORE.INTER.ROT>
0

>  <SCORE.INTER.SOLV>
9.56628

>  <SCORE.INTER.VDW>
-14.1719

>  <SCORE.INTER.norm>
-1.10748

>  <SCORE.INTRA>
0

>  <SCORE.INTRA.DIHEDRAL>
0

>  <SCORE.INTRA.DIHEDRAL.0>
0

>  <SCORE.INTRA.POLAR>
0

>  <SCORE.INTRA.POLAR.0>
0

>  <SCORE.INTRA.REPUL>
0

>  <SCORE.INTRA.REPUL.0>
0

>  <SCORE.INTRA.SOLV>
0

>  <SCORE.INTRA.SOLV.lig_0>
-23.8949

>  <SCORE.INTRA.VDW>
0

>  <SCORE.INTRA.VDW.0>
0

>  <SCORE.INTRA.norm>
0

>  <SCORE.RESTR>
0

>  <SCORE.RESTR.CAVITY>
0

>  <SCORE.RESTR.norm>
0

>  <SCORE.SYSTEM>
0

>  <SCORE.SYSTEM.CONST>
0

>  <SCORE.SYSTEM.DIHEDRAL>
0

>  <SCORE.SYSTEM.SOLV>
0

>  <SCORE.SYSTEM.norm>
0

>  <SCORE.heavy>
10

>  <SCORE.norm>
-1.10748

>  <RMSD>
2.922

$$$$
ligand
 OpenBabel11021811513D
libRbt.so/2013.1/901 2013/11/27
 10 11  0  0  0  0  0  0  0  0999 V2000
  -29.6374   17.3437  -17.6411 N   0  0  0  0  0  0  0  0  0  0  0  0
  -30.6033   18.2468  -17.8563 C   0  0  0  0  0  0  0  0  0  0  0  0
  -31.4649   18.7763  -16.9888 N   0  0  0  0  0  0  0  0  0  0  0  0
  -31.2662   18.2805  -15.7569 C   0  0  0  0  0  0  0  0  0  0  0  0
  -30.3177   17.3474  -15.3812 C   0  0  0  0  0  0  0  0  0  0  0  0
  -29.4625   16.8644  -16.3922 C   0  0  0  0  0  0  0  0  0  0  0  0
  -28.5006   15.9622  -16.1732 N   0  0  0  0  0  0  0  0  0  0  0  0
  -30.4074   17.0760  -14.0266 N   0  0  0  0  0  0  0  0  0  0  0  0
  -31.3957   17.8370  -13.6180 C   0  0  0  0  0  0  0  0  0  0  0  0
  -31.9592   18.5900  -14.6106 N   0  0  0  0  0  0  0  0  0  0  0  0
  1  2  2  0  0  0  0
  1  6  1  0  0  0  0
  2  3  1  0  0  0  0
  3  4  2  0  0  0  0
  4  5  1  0  0  0  0
  4 10  1  0  0  0  0
  5  6  2  0  0  0  0
  5  8  1  0  0  0  0
  6  7  1  0  0  0  0
  8  9  1  0  0  0  0
  9 10  2  0  0  0  0
M  END
>  <CHROM.1>
-30.49323078,17.62608115,-15.84781886,0.78657373,0.70399484,-1.31554878

>  <Name>
ligand

>  <RI>
0

>  <Rbt.Current_Directory>
/home/itssahil/PROJECTS/Mol_Feturizer/New_Systems/rnas/4TZX

>  <Rbt.Executable>
rbdock ($Id: //depot/dev/client3/rdock/2013.1/src/exe/rbdock.cxx#4 $)

>  <Rbt.Library>
libRbt.so (2013.1, Build901 2013/11/27)

>  <Rbt.Parameter_File>
/export/apps/rDock/src/rDock_2013.1_src/data/scripts/dock_solv.prm

>  <Rbt.Receptor>
prm/blind_docking_80.prm

>  <SCORE>
-12.8619

>  <SCORE.INTER>
-12.8619

>  <SCORE.INTER.CONST>
1

>  <SCORE.INTER.POLAR>
0

>  <SCORE.INTER.ROT>
0

>  <SCORE.INTER.SOLV>
6.8512

>  <SCORE.INTER.VDW>
-14.4584

>  <SCORE.INTER.norm>
-1.28619

>  <SCORE.INTRA>
0

>  <SCORE.INTRA.DIHEDRAL>
0

>  <SCORE.INTRA.DIHEDRAL.0>
0

>  <SCORE.INTRA.POLAR>
0

>  <SCORE.INTRA.POLAR.0>
0

>  <SCORE.INTRA.REPUL>
0

>  <SCORE.INTRA.REPUL.0>
0

>  <SCORE.INTRA.SOLV>
0

>  <SCORE.INTRA.SOLV.lig_0>
-23.8949

>  <SCORE.INTRA.VDW>
0

>  <SCORE.INTRA.VDW.0>
0

>  <SCORE.INTRA.norm>
0

>  <SCORE.RESTR>
0

>  <SCORE.RESTR.CAVITY>
0

>  <SCORE.RESTR.norm>
0

>  <SCORE.SYSTEM>
0

>  <SCORE.SYSTEM.CONST>
0

>  <SCORE.SYSTEM.DIHEDRAL>
0

>  <SCORE.SYSTEM.SOLV>
0

>  <SCORE.SYSTEM.norm>
0

>  <SCORE.heavy>
10

>  <SCORE.norm>
-1.28619

>  <RMSD>
2.924

$$$$
ligand
 OpenBabel11021811513D
libRbt.so/2013.1/901 2013/11/27
 10 11  0  0  0  0  0  0  0  0999 V2000
  -29.2753   15.9719  -17.0637 N   0  0  0  0  0  0  0  0  0  0  0  0
  -29.0599   15.4415  -15.8524 C   0  0  0  0  0  0  0  0  0  0  0  0
  -29.5186   15.8427  -14.6675 N   0  0  0  0  0  0  0  0  0  0  0  0
  -30.2921   16.9322  -14.7999 C   0  0  0  0  0  0  0  0  0  0  0  0
  -30.6028   17.5912  -15.9749 C   0  0  0  0  0  0  0  0  0  0  0  0
  -30.0572   17.0667  -17.1640 C   0  0  0  0  0  0  0  0  0  0  0  0
  -30.2737   17.6000  -18.3706 N   0  0  0  0  0  0  0  0  0  0  0  0
  -31.4284   18.6741  -15.7254 N   0  0  0  0  0  0  0  0  0  0  0  0
  -31.5947   18.6498  -14.4237 C   0  0  0  0  0  0  0  0  0  0  0  0
  -30.9366   17.6247  -13.8024 N   0  0  0  0  0  0  0  0  0  0  0  0
  1  2  2  0  0  0  0
  1  6  1  0  0  0  0
  2  3  1  0  0  0  0
  3  4  2  0  0  0  0
  4  5  1  0  0  0  0
  4 10  1  0  0  0  0
  5  6  2  0  0  0  0
  5  8  1  0  0  0  0
  6  7  1  0  0  0  0
  8  9  1  0  0  0  0
  9 10  2  0  0  0  0
M  END
>  <CHROM.1>
-30.30259210,17.13972704,-15.79530636,-0.72544879,-0.93334697,1.76250716

>  <Name>
ligand

>  <RI>
0

>  <Rbt.Current_Directory>
/home/itssahil/PROJECTS/Mol_Feturizer/New_Systems/rnas/4TZX

>  <Rbt.Executable>
rbdock ($Id: //depot/dev/client3/rdock/2013.1/src/exe/rbdock.cxx#4 $)

>  <Rbt.Library>
libRbt.so (2013.1, Build901 2013/11/27)

>  <Rbt.Parameter_File>
/export/apps/rDock/src/rDock_2013.1_src/data/scripts/dock_solv.prm

>  <Rbt.Receptor>
prm/blind_docking_40.prm

>  <SCORE>
-8.50502

>  <SCORE.INTER>
-8.50502

>  <SCORE.INTER.CONST>
1

>  <SCORE.INTER.POLAR>
0

>  <SCORE.INTER.ROT>
0

>  <SCORE.INTER.SOLV>
13.5101

>  <SCORE.INTER.VDW>
-13.7734

>  <SCORE.INTER.norm>
-0.850502

>  <SCORE.INTRA>
0

>  <SCORE.INTRA.DIHEDRAL>
0

>  <SCORE.INTRA.DIHEDRAL.0>
0

>  <SCORE.INTRA.POLAR>
0

>  <SCORE.INTRA.POLAR.0>
0

>  <SCORE.INTRA.REPUL>
0

>  <SCORE.INTRA.REPUL.0>
0

>  <SCORE.INTRA.SOLV>
0

>  <SCORE.INTRA.SOLV.lig_0>
-23.8949

>  <SCORE.INTRA.VDW>
0

>  <SCORE.INTRA.VDW.0>
0

>  <SCORE.INTRA.norm>
0

>  <SCORE.RESTR>
0

>  <SCORE.RESTR.CAVITY>
0

>  <SCORE.RESTR.norm>
0

>  <SCORE.SYSTEM>
0

>  <SCORE.SYSTEM.CONST>
0

>  <SCORE.SYSTEM.DIHEDRAL>
0

>  <SCORE.SYSTEM.SOLV>
0

>  <SCORE.SYSTEM.norm>
0

>  <SCORE.heavy>
10

>  <SCORE.norm>
-0.850502

>  <RMSD>
3.222

$$$$
ligand
 OpenBabel11021811513D
libRbt.so/2013.1/901 2013/11/27
 10 11  0  0  0  0  0  0  0  0999 V2000
  -31.3423   19.2403  -16.3209 N   0  0  0  0  0  0  0  0  0  0  0  0
  -30.7786   19.0578  -17.5224 C   0  0  0  0  0  0  0  0  0  0  0  0
  -30.1018   18.0053  -17.9803 N   0  0  0  0  0  0  0  0  0  0  0  0
  -30.0227   17.0457  -17.0445 C   0  0  0  0  0  0  0  0  0  0  0  0
  -30.5480   17.0882  -15.7663 C   0  0  0  0  0  0  0  0  0  0  0  0
  -31.2457   18.2575  -15.4017 C   0  0  0  0  0  0  0  0  0  0  0  0
  -31.8056   18.4359  -14.2010 N   0  0  0  0  0  0  0  0  0  0  0  0
  -30.2711   15.9159  -15.0839 N   0  0  0  0  0  0  0  0  0  0  0  0
  -29.5915   15.2009  -15.9495 C   0  0  0  0  0  0  0  0  0  0  0  0
  -29.4050   15.8225  -17.1532 N   0  0  0  0  0  0  0  0  0  0  0  0
  1  2  2  0  0  0  0
  1  6  1  0  0  0  0
  2  3  1  0  0  0  0
  3  4  2  0  0  0  0
  4  5  1  0  0  0  0
  4 10  1  0  0  0  0
  5  6  2  0  0  0  0
  5  8  1  0  0  0  0
  6  7  1  0  0  0  0
  8  9  1  0  0  0  0
  9 10  2  0  0  0  0
M  END
>  <CHROM.1>
-30.51689727,17.41291185,-16.23511186,-2.66313213,-1.01915116,2.27253111

>  <Name>
ligand

>  <RI>
0

>  <Rbt.Current_Directory>
/home/itssahil/PROJECTS/Mol_Feturizer/New_Systems/rnas/4TZX

>  <Rbt.Executable>
rbdock ($Id: //depot/dev/client3/rdock/2013.1/src/exe/rbdock.cxx#4 $)

>  <Rbt.Library>
libRbt.so (2013.1, Build901 2013/11/27)

>  <Rbt.Parameter_File>
/export/apps/rDock/src/rDock_2013.1_src/data/scripts/dock_solv.prm

>  <Rbt.Receptor>
prm/pocket_docking_5.prm

>  <SCORE>
-11.7033

>  <SCORE.INTER>
-11.7033

>  <SCORE.INTER.CONST>
1

>  <SCORE.INTER.POLAR>
0

>  <SCORE.INTER.ROT>
0

>  <SCORE.INTER.SOLV>
12.9129

>  <SCORE.INTER.VDW>
-15.7065

>  <SCORE.INTER.norm>
-1.17033

>  <SCORE.INTRA>
0

>  <SCORE.INTRA.DIHEDRAL>
0

>  <SCORE.INTRA.DIHEDRAL.0>
0

>  <SCORE.INTRA.POLAR>
0

>  <SCORE.INTRA.POLAR.0>
0

>  <SCORE.INTRA.REPUL>
0

>  <SCORE.INTRA.REPUL.0>
0

>  <SCORE.INTRA.SOLV>
0

>  <SCORE.INTRA.SOLV.lig_0>
-23.8949

>  <SCORE.INTRA.VDW>
0

>  <SCORE.INTRA.VDW.0>
0

>  <SCORE.INTRA.norm>
0

>  <SCORE.RESTR>
0

>  <SCORE.RESTR.CAVITY>
0

>  <SCORE.RESTR.norm>
0

>  <SCORE.SYSTEM>
0

>  <SCORE.SYSTEM.CONST>
0

>  <SCORE.SYSTEM.DIHEDRAL>
0

>  <SCORE.SYSTEM.SOLV>
0

>  <SCORE.SYSTEM.norm>
0

>  <SCORE.heavy>
10

>  <SCORE.norm>
-1.17033

>  <RMSD>
3.225

$$$$
ligand
 OpenBabel11021811513D
libRbt.so/2013.1/901 2013/11/27
 10 11  0  0  0  0  0  0  0  0999 V2000
  -31.3116   19.2499  -16.3153 N   0  0  0  0  0  0  0  0  0  0  0  0
  -30.7484   19.0646  -17.5166 C   0  0  0  0  0  0  0  0  0  0  0  0
  -30.0821   18.0062  -17.9764 N   0  0  0  0  0  0  0  0  0  0  0  0
  -30.0141   17.0436  -17.0428 C   0  0  0  0  0  0  0  0  0  0  0  0
  -30.5404   17.0883  -15.7652 C   0  0  0  0  0  0  0  0  0  0  0  0
  -31.2263   18.2639  -15.3985 C   0  0  0  0  0  0  0  0  0  0  0  0
  -31.7858   18.4451  -14.1980 N   0  0  0  0  0  0  0  0  0  0  0  0
  -30.2765   15.9115  -15.0854 N   0  0  0  0  0  0  0  0  0  0  0  0
  -29.6033   15.1916  -15.9520 C   0  0  0  0  0  0  0  0  0  0  0  0
  -29.4089   15.8142  -17.1539 N   0  0  0  0  0  0  0  0  0  0  0  0
  1  2  2  0  0  0  0
  1  6  1  0  0  0  0
  2  3  1  0  0  0  0
  3  4  2  0  0  0  0
  4  5  1  0  0  0  0
  4 10  1  0  0  0  0
  5  6  2  0  0  0  0
  5  8  1  0  0  0  0
  6  7  1  0  0  0  0
  8  9  1  0  0  0  0
  9 10  2  0  0  0  0
M  END
>  <CHROM.1>
-30.50536909,17.41383944,-16.23315401,-2.64838829,-1.02626808,2.28762770

>  <Name>
ligand

>  <RI>
0

>  <Rbt.Current_Directory>
/home/itssahil/PROJECTS/Mol_Feturizer/New_Systems/rnas/4TZX

>  <Rbt.Executable>
rbdock ($Id: //depot/dev/client3/rdock/2013.1/src/exe/rbdock.cxx#4 $)

>  <Rbt.Library>
libRbt.so (2013.1, Build901 2013/11/27)

>  <Rbt.Parameter_File>
/export/apps/rDock/src/rDock_2013.1_src/data/scripts/dock_solv.prm

>  <Rbt.Receptor>
prm/blind_docking_60.prm

>  <SCORE>
-11.6667

>  <SCORE.INTER>
-11.6667

>  <SCORE.INTER.CONST>
1

>  <SCORE.INTER.POLAR>
0

>  <SCORE.INTER.ROT>
0

>  <SCORE.INTER.SOLV>
12.9129

>  <SCORE.INTER.VDW>
-15.6821

>  <SCORE.INTER.norm>
-1.16667

>  <SCORE.INTRA>
0

>  <SCORE.INTRA.DIHEDRAL>
0

>  <SCORE.INTRA.DIHEDRAL.0>
0

>  <SCORE.INTRA.POLAR>
0

>  <SCORE.INTRA.POLAR.0>
0

>  <SCORE.INTRA.REPUL>
0

>  <SCORE.INTRA.REPUL.0>
0

>  <SCORE.INTRA.SOLV>
0

>  <SCORE.INTRA.SOLV.lig_0>
-23.8949

>  <SCORE.INTRA.VDW>
0

>  <SCORE.INTRA.VDW.0>
0

>  <SCORE.INTRA.norm>
0

>  <SCORE.RESTR>
0

>  <SCORE.RESTR.CAVITY>
0

>  <SCORE.RESTR.norm>
0

>  <SCORE.SYSTEM>
0

>  <SCORE.SYSTEM.CONST>
0

>  <SCORE.SYSTEM.DIHEDRAL>
0

>  <SCORE.SYSTEM.SOLV>
0

>  <SCORE.SYSTEM.norm>
0

>  <SCORE.heavy>
10

>  <SCORE.norm>
-1.16667

>  <RMSD>
3.226

$$$$
ligand
 OpenBabel11021811513D
libRbt.so/2013.1/901 2013/11/27
 10 11  0  0  0  0  0  0  0  0999 V2000
  -31.3416   19.2423  -16.3334 N   0  0  0  0  0  0  0  0  0  0  0  0
  -30.7681   19.0580  -17.5300 C   0  0  0  0  0  0  0  0  0  0  0  0
  -30.0921   18.0027  -17.9826 N   0  0  0  0  0  0  0  0  0  0  0  0
  -30.0257   17.0422  -17.0468 C   0  0  0  0  0  0  0  0  0  0  0  0
  -30.5621   17.0863  -15.7732 C   0  0  0  0  0  0  0  0  0  0  0  0
  -31.2576   18.2585  -15.4141 C   0  0  0  0  0  0  0  0  0  0  0  0
  -31.8274   18.4387  -14.2183 N   0  0  0  0  0  0  0  0  0  0  0  0
  -30.2966   15.9122  -15.0892 N   0  0  0  0  0  0  0  0  0  0  0  0
  -29.6126   15.1946  -15.9493 C   0  0  0  0  0  0  0  0  0  0  0  0
  -29.4126   15.8162  -17.1508 N   0  0  0  0  0  0  0  0  0  0  0  0
  1  2  2  0  0  0  0
  1  6  1  0  0  0  0
  2  3  1  0  0  0  0
  3  4  2  0  0  0  0
  4  5  1  0  0  0  0
  4 10  1  0  0  0  0
  5  6  2  0  0  0  0
  5  8  1  0  0  0  0
  6  7  1  0  0  0  0
  8  9  1  0  0  0  0
  9 10  2  0  0  0  0
M  END
>  <CHROM.1>
-30.52536343,17.41107723,-16.24158584,-2.64462844,-1.01684402,2.28893971

>  <Name>
ligand

>  <RI>
0

>  <Rbt.Current_Directory>
/home/itssahil/PROJECTS/Mol_Feturizer/New_Systems/rnas/4TZX

>  <Rbt.Executable>
rbdock ($Id: //depot/dev/client3/rdock/2013.1/src/exe/rbdock.cxx#4 $)

>  <Rbt.Library>
libRbt.so (2013.1, Build901 2013/11/27)

>  <Rbt.Parameter_File>
/export/apps/rDock/src/rDock_2013.1_src/data/scripts/dock_solv.prm

>  <Rbt.Receptor>
prm/blind_docking_60.prm

>  <SCORE>
-11.6304

>  <SCORE.INTER>
-11.6304

>  <SCORE.INTER.CONST>
1

>  <SCORE.INTER.POLAR>
0

>  <SCORE.INTER.ROT>
0

>  <SCORE.INTER.SOLV>
12.9415

>  <SCORE.INTER.VDW>
-15.6675

>  <SCORE.INTER.norm>
-1.16304

>  <SCORE.INTRA>
0

>  <SCORE.INTRA.DIHEDRAL>
0

>  <SCORE.INTRA.DIHEDRAL.0>
0

>  <SCORE.INTRA.POLAR>
0

>  <SCORE.INTRA.POLAR.0>
0

>  <SCORE.INTRA.REPUL>
0

>  <SCORE.INTRA.REPUL.0>
0

>  <SCORE.INTRA.SOLV>
0

>  <SCORE.INTRA.SOLV.lig_0>
-23.8949

>  <SCORE.INTRA.VDW>
0

>  <SCORE.INTRA.VDW.0>
0

>  <SCORE.INTRA.norm>
0

>  <SCORE.RESTR>
0

>  <SCORE.RESTR.CAVITY>
0

>  <SCORE.RESTR.norm>
0

>  <SCORE.SYSTEM>
0

>  <SCORE.SYSTEM.CONST>
0

>  <SCORE.SYSTEM.DIHEDRAL>
0

>  <SCORE.SYSTEM.SOLV>
0

>  <SCORE.SYSTEM.norm>
0

>  <SCORE.heavy>
10

>  <SCORE.norm>
-1.16304

>  <RMSD>
3.229

$$$$
ligand
 OpenBabel11021811513D
libRbt.so/2013.1/901 2013/11/27
 10 11  0  0  0  0  0  0  0  0999 V2000
  -31.2820   19.2037  -16.3734 N   0  0  0  0  0  0  0  0  0  0  0  0
  -30.6885   18.9989  -17.5569 C   0  0  0  0  0  0  0  0  0  0  0  0
  -30.0133   17.9322  -17.9833 N   0  0  0  0  0  0  0  0  0  0  0  0
  -29.9717   16.9837  -17.0338 C   0  0  0  0  0  0  0  0  0  0  0  0
  -30.5306   17.0491  -15.7709 C   0  0  0  0  0  0  0  0  0  0  0  0
  -31.2227   18.2316  -15.4399 C   0  0  0  0  0  0  0  0  0  0  0  0
  -31.8123   18.4322  -14.2570 N   0  0  0  0  0  0  0  0  0  0  0  0
  -30.2872   15.8822  -15.0667 N   0  0  0  0  0  0  0  0  0  0  0  0
  -29.5938   15.1477  -15.9048 C   0  0  0  0  0  0  0  0  0  0  0  0
  -29.3670   15.7516  -17.1106 N   0  0  0  0  0  0  0  0  0  0  0  0
  1  2  2  0  0  0  0
  1  6  1  0  0  0  0
  2  3  1  0  0  0  0
  3  4  2  0  0  0  0
  4  5  1  0  0  0  0
  4 10  1  0  0  0  0
  5  6  2  0  0  0  0
  5  8  1  0  0  0  0
  6  7  1  0  0  0  0
  8  9  1  0  0  0  0
  9 10  2  0  0  0  0
M  END
>  <CHROM.1>
-30.48267964,17.36735982,-16.24268979,-2.60882330,-1.01094002,2.30609474

>  <Name>
ligand

>  <RI>
0

>  <Rbt.Current_Directory>
/home/itssahil/PROJECTS/Mol_Feturizer/New_Systems/rnas/4TZX

>  <Rbt.Executable>
rbdock ($Id: //depot/dev/client3/rdock/2013.1/src/exe/rbdock.cxx#4 $)

>  <Rbt.Library>
libRbt.so (2013.1, Build901 2013/11/27)

>  <Rbt.Parameter_File>
/export/apps/rDock/src/rDock_2013.1_src/data/scripts/dock_solv.prm

>  <Rbt.Receptor>
prm/blind_docking_60.prm

>  <SCORE>
-11.6117

>  <SCORE.INTER>
-11.6117

>  <SCORE.INTER.CONST>
1

>  <SCORE.INTER.POLAR>
0

>  <SCORE.INTER.ROT>
0

>  <SCORE.INTER.SOLV>
12.8599

>  <SCORE.INTER.VDW>
-15.6278

>  <SCORE.INTER.norm>
-1.16117

>  <SCORE.INTRA>
0

>  <SCORE.INTRA.DIHEDRAL>
0

>  <SCORE.INTRA.DIHEDRAL.0>
0

>  <SCORE.INTRA.POLAR>
0

>  <SCORE.INTRA.POLAR.0>
0

>  <SCORE.INTRA.REPUL>
0

>  <SCORE.INTRA.REPUL.0>
0

>  <SCORE.INTRA.SOLV>
0

>  <SCORE.INTRA.SOLV.lig_0>
-23.8949

>  <SCORE.INTRA.VDW>
0

>  <SCORE.INTRA.VDW.0>
0

>  <SCORE.INTRA.norm>
0

>  <SCORE.RESTR>
0

>  <SCORE.RESTR.CAVITY>
0

>  <SCORE.RESTR.norm>
0

>  <SCORE.SYSTEM>
0

>  <SCORE.SYSTEM.CONST>
0

>  <SCORE.SYSTEM.DIHEDRAL>
0

>  <SCORE.SYSTEM.SOLV>
0

>  <SCORE.SYSTEM.norm>
0

>  <SCORE.heavy>
10

>  <SCORE.norm>
-1.16117

>  <RMSD>
3.253

$$$$
ligand
 OpenBabel11021811513D
libRbt.so/2013.1/901 2013/11/27
 10 11  0  0  0  0  0  0  0  0999 V2000
  -31.2490   19.2276  -16.4231 N   0  0  0  0  0  0  0  0  0  0  0  0
  -30.6563   19.0030  -17.6035 C   0  0  0  0  0  0  0  0  0  0  0  0
  -29.9944   17.9234  -18.0178 N   0  0  0  0  0  0  0  0  0  0  0  0
  -29.9668   16.9841  -17.0587 C   0  0  0  0  0  0  0  0  0  0  0  0
  -30.5268   17.0696  -15.7975 C   0  0  0  0  0  0  0  0  0  0  0  0
  -31.2039   18.2643  -15.4797 C   0  0  0  0  0  0  0  0  0  0  0  0
  -31.7928   18.4846  -14.3000 N   0  0  0  0  0  0  0  0  0  0  0  0
  -30.2998   15.9068  -15.0811 N   0  0  0  0  0  0  0  0  0  0  0  0
  -29.6147   15.1549  -15.9105 C   0  0  0  0  0  0  0  0  0  0  0  0
  -29.3781   15.7435  -17.1219 N   0  0  0  0  0  0  0  0  0  0  0  0
  1  2  2  0  0  0  0
  1  6  1  0  0  0  0
  2  3  1  0  0  0  0
  3  4  2  0  0  0  0
  4  5  1  0  0  0  0
  4 10  1  0  0  0  0
  5  6  2  0  0  0  0
  5  8  1  0  0  0  0
  6  7  1  0  0  0  0
  8  9  1  0  0  0  0
  9 10  2  0  0  0  0
M  END
>  <CHROM.1>
-30.47397346,17.38241061,-16.27242244,-2.58978694,-1.01946468,2.31212804

>  <Name>
ligand

>  <RI>
0

>  <Rbt.Current_Directory>
/home/itssahil/PROJECTS/Mol_Feturizer/New_Systems/rnas/4TZX

>  <Rbt.Executable>
rbdock ($Id: //depot/dev/client3/rdock/2013.1/src/exe/rbdock.cxx#4 $)

>  <Rbt.Library>
libRbt.so (2013.1, Build901 2013/11/27)

>  <Rbt.Parameter_File>
/export/apps/rDock/src/rDock_2013.1_src/data/scripts/dock_solv.prm

>  <Rbt.Receptor>
prm/blind_docking_60.prm

>  <SCORE>
-11.5756

>  <SCORE.INTER>
-11.5756

>  <SCORE.INTER.CONST>
1

>  <SCORE.INTER.POLAR>
0

>  <SCORE.INTER.ROT>
0

>  <SCORE.INTER.SOLV>
12.8826

>  <SCORE.INTER.VDW>
-15.6113

>  <SCORE.INTER.norm>
-1.15756

>  <SCORE.INTRA>
0

>  <SCORE.INTRA.DIHEDRAL>
0

>  <SCORE.INTRA.DIHEDRAL.0>
0

>  <SCORE.INTRA.POLAR>
0

>  <SCORE.INTRA.POLAR.0>
0

>  <SCORE.INTRA.REPUL>
0

>  <SCORE.INTRA.REPUL.0>
0

>  <SCORE.INTRA.SOLV>
0

>  <SCORE.INTRA.SOLV.lig_0>
-23.8949

>  <SCORE.INTRA.VDW>
0

>  <SCORE.INTRA.VDW.0>
0

>  <SCORE.INTRA.norm>
0

>  <SCORE.RESTR>
0

>  <SCORE.RESTR.CAVITY>
0

>  <SCORE.RESTR.norm>
0

>  <SCORE.SYSTEM>
0

>  <SCORE.SYSTEM.CONST>
0

>  <SCORE.SYSTEM.DIHEDRAL>
0

>  <SCORE.SYSTEM.SOLV>
0

>  <SCORE.SYSTEM.norm>
0

>  <SCORE.heavy>
10

>  <SCORE.norm>
-1.15756

>  <RMSD>
3.262

$$$$
ligand
 OpenBabel11021811513D
libRbt.so/2013.1/901 2013/11/27
 10 11  0  0  0  0  0  0  0  0999 V2000
  -29.8043   16.6836  -17.5898 N   0  0  0  0  0  0  0  0  0  0  0  0
  -29.4505   15.7669  -16.6790 C   0  0  0  0  0  0  0  0  0  0  0  0
  -29.7694   15.7018  -15.3869 N   0  0  0  0  0  0  0  0  0  0  0  0
  -30.5530   16.7344  -15.0368 C   0  0  0  0  0  0  0  0  0  0  0  0
  -30.9973   17.7543  -15.8577 C   0  0  0  0  0  0  0  0  0  0  0  0
  -30.5926   17.7093  -17.2071 C   0  0  0  0  0  0  0  0  0  0  0  0
  -30.9469   18.6270  -18.1123 N   0  0  0  0  0  0  0  0  0  0  0  0
  -31.7886   18.6429  -15.1500 N   0  0  0  0  0  0  0  0  0  0  0  0
  -31.8036   18.1510  -13.9333 C   0  0  0  0  0  0  0  0  0  0  0  0
  -31.0781   17.0001  -13.7944 N   0  0  0  0  0  0  0  0  0  0  0  0
  1  2  2  0  0  0  0
  1  6  1  0  0  0  0
  2  3  1  0  0  0  0
  3  4  2  0  0  0  0
  4  5  1  0  0  0  0
  4 10  1  0  0  0  0
  5  6  2  0  0  0  0
  5  8  1  0  0  0  0
  6  7  1  0  0  0  0
  8  9  1  0  0  0  0
  9 10  2  0  0  0  0
M  END
>  <CHROM.1>
-30.67834820,17.28125998,-15.88483538,-0.92053453,-0.94640243,1.97046000

>  <Name>
ligand

>  <RI>
0

>  <Rbt.Current_Directory>
/home/itssahil/PROJECTS/Mol_Feturizer/New_Systems/rnas/4TZX

>  <Rbt.Executable>
rbdock ($Id: //depot/dev/client3/rdock/2013.1/src/exe/rbdock.cxx#4 $)

>  <Rbt.Library>
libRbt.so (2013.1, Build901 2013/11/27)

>  <Rbt.Parameter_File>
/export/apps/rDock/src/rDock_2013.1_src/data/scripts/dock_solv.prm

>  <Rbt.Receptor>
prm/blind_docking_100.prm

>  <SCORE>
-11.8308

>  <SCORE.INTER>
-11.8308

>  <SCORE.INTER.CONST>
1

>  <SCORE.INTER.POLAR>
0

>  <SCORE.INTER.ROT>
0

>  <SCORE.INTER.SOLV>
10.1795

>  <SCORE.INTER.VDW>
-14.8804

>  <SCORE.INTER.norm>
-1.18308

>  <SCORE.INTRA>
0

>  <SCORE.INTRA.DIHEDRAL>
0

>  <SCORE.INTRA.DIHEDRAL.0>
0

>  <SCORE.INTRA.POLAR>
0

>  <SCORE.INTRA.POLAR.0>
0

>  <SCORE.INTRA.REPUL>
0

>  <SCORE.INTRA.REPUL.0>
0

>  <SCORE.INTRA.SOLV>
0

>  <SCORE.INTRA.SOLV.lig_0>
-23.8949

>  <SCORE.INTRA.VDW>
0

>  <SCORE.INTRA.VDW.0>
0

>  <SCORE.INTRA.norm>
0

>  <SCORE.RESTR>
3.26109e-05

>  <SCORE.RESTR.CAVITY>
3.26109e-05

>  <SCORE.RESTR.norm>
3.26109e-06

>  <SCORE.SYSTEM>
0

>  <SCORE.SYSTEM.CONST>
0

>  <SCORE.SYSTEM.DIHEDRAL>
0

>  <SCORE.SYSTEM.SOLV>
0

>  <SCORE.SYSTEM.norm>
0

>  <SCORE.heavy>
10

>  <SCORE.norm>
-1.18308

>  <RMSD>
3.531

$$$$
ligand
 OpenBabel11021811513D
libRbt.so/2013.1/901 2013/11/27
 10 11  0  0  0  0  0  0  0  0999 V2000
  -29.8048   16.6790  -17.5902 N   0  0  0  0  0  0  0  0  0  0  0  0
  -29.4548   15.7599  -16.6805 C   0  0  0  0  0  0  0  0  0  0  0  0
  -29.7747   15.6940  -15.3886 N   0  0  0  0  0  0  0  0  0  0  0  0
  -30.5550   16.7288  -15.0376 C   0  0  0  0  0  0  0  0  0  0  0  0
  -30.9952   17.7514  -15.8573 C   0  0  0  0  0  0  0  0  0  0  0  0
  -30.5898   17.7070  -17.2065 C   0  0  0  0  0  0  0  0  0  0  0  0
  -30.9404   18.6271  -18.1107 N   0  0  0  0  0  0  0  0  0  0  0  0
  -31.7840   18.6417  -15.1489 N   0  0  0  0  0  0  0  0  0  0  0  0
  -31.8014   18.1481  -13.9329 C   0  0  0  0  0  0  0  0  0  0  0  0
  -31.0800   16.9946  -13.7952 N   0  0  0  0  0  0  0  0  0  0  0  0
  1  2  2  0  0  0  0
  1  6  1  0  0  0  0
  2  3  1  0  0  0  0
  3  4  2  0  0  0  0
  4  5  1  0  0  0  0
  4 10  1  0  0  0  0
  5  6  2  0  0  0  0
  5  8  1  0  0  0  0
  6  7  1  0  0  0  0
  8  9  1  0  0  0  0
  9 10  2  0  0  0  0
M  END
>  <CHROM.1>
-30.67789189,17.27730643,-15.88496192,-0.91719118,-0.94932004,1.97459463

>  <Name>
ligand

>  <RI>
0

>  <Rbt.Current_Directory>
/home/itssahil/PROJECTS/Mol_Feturizer/New_Systems/rnas/4TZX

>  <Rbt.Executable>
rbdock ($Id: //depot/dev/client3/rdock/2013.1/src/exe/rbdock.cxx#4 $)

>  <Rbt.Library>
libRbt.so (2013.1, Build901 2013/11/27)

>  <Rbt.Parameter_File>
/export/apps/rDock/src/rDock_2013.1_src/data/scripts/dock_solv.prm

>  <Rbt.Receptor>
prm/blind_docking_60.prm

>  <SCORE>
-11.8297

>  <SCORE.INTER>
-11.8297

>  <SCORE.INTER.CONST>
1

>  <SCORE.INTER.POLAR>
0

>  <SCORE.INTER.ROT>
0

>  <SCORE.INTER.SOLV>
10.2025

>  <SCORE.INTER.VDW>
-14.8873

>  <SCORE.INTER.norm>
-1.18297

>  <SCORE.INTRA>
0

>  <SCORE.INTRA.DIHEDRAL>
0

>  <SCORE.INTRA.DIHEDRAL.0>
0

>  <SCORE.INTRA.POLAR>
0

>  <SCORE.INTRA.POLAR.0>
0

>  <SCORE.INTRA.REPUL>
0

>  <SCORE.INTRA.REPUL.0>
0

>  <SCORE.INTRA.SOLV>
0

>  <SCORE.INTRA.SOLV.lig_0>
-23.8949

>  <SCORE.INTRA.VDW>
0

>  <SCORE.INTRA.VDW.0>
0

>  <SCORE.INTRA.norm>
0

>  <SCORE.RESTR>
0

>  <SCORE.RESTR.CAVITY>
0

>  <SCORE.RESTR.norm>
0

>  <SCORE.SYSTEM>
0

>  <SCORE.SYSTEM.CONST>
0

>  <SCORE.SYSTEM.DIHEDRAL>
0

>  <SCORE.SYSTEM.SOLV>
0

>  <SCORE.SYSTEM.norm>
0

>  <SCORE.heavy>
10

>  <SCORE.norm>
-1.18297

>  <RMSD>
3.531

$$$$
ligand
 OpenBabel11021811513D
libRbt.so/2013.1/901 2013/11/27
 10 11  0  0  0  0  0  0  0  0999 V2000
  -29.0700   14.3818  -16.1793 N   0  0  0  0  0  0  0  0  0  0  0  0
  -29.1093   15.6371  -15.7128 C   0  0  0  0  0  0  0  0  0  0  0  0
  -28.1415   16.5525  -15.6855 N   0  0  0  0  0  0  0  0  0  0  0  0
  -27.0091   16.0648  -16.2172 C   0  0  0  0  0  0  0  0  0  0  0  0
  -26.8140   14.7974  -16.7341 C   0  0  0  0  0  0  0  0  0  0  0  0
  -27.9175   13.9208  -16.7077 C   0  0  0  0  0  0  0  0  0  0  0  0
  -27.8734   12.6684  -17.1732 N   0  0  0  0  0  0  0  0  0  0  0  0
  -25.5173   14.6515  -17.1966 N   0  0  0  0  0  0  0  0  0  0  0  0
  -24.9626   15.8153  -16.9505 C   0  0  0  0  0  0  0  0  0  0  0  0
  -25.8063   16.7150  -16.3601 N   0  0  0  0  0  0  0  0  0  0  0  0
  1  2  2  0  0  0  0
  1  6  1  0  0  0  0
  2  3  1  0  0  0  0
  3  4  2  0  0  0  0
  4  5  1  0  0  0  0
  4 10  1  0  0  0  0
  5  6  2  0  0  0  0
  5  8  1  0  0  0  0
  6  7  1  0  0  0  0
  8  9  1  0  0  0  0
  9 10  2  0  0  0  0
M  END
>  <CHROM.1>
-27.22668071,15.11075258,-16.49379845,2.65831499,-0.28702491,-2.79484407

>  <Name>
ligand

>  <RI>
0

>  <Rbt.Current_Directory>
/home/itssahil/PROJECTS/Mol_Feturizer/New_Systems/rnas/4TZX

>  <Rbt.Executable>
rbdock ($Id: //depot/dev/client3/rdock/2013.1/src/exe/rbdock.cxx#4 $)

>  <Rbt.Library>
libRbt.so (2013.1, Build901 2013/11/27)

>  <Rbt.Parameter_File>
/export/apps/rDock/src/rDock_2013.1_src/data/scripts/dock_solv.prm

>  <Rbt.Receptor>
prm/blind_docking_40.prm

>  <SCORE>
-8.40828

>  <SCORE.INTER>
-8.40828

>  <SCORE.INTER.CONST>
1

>  <SCORE.INTER.POLAR>
0

>  <SCORE.INTER.ROT>
0

>  <SCORE.INTER.SOLV>
6.70439

>  <SCORE.INTER.VDW>
-11.4403

>  <SCORE.INTER.norm>
-0.840828

>  <SCORE.INTRA>
0

>  <SCORE.INTRA.DIHEDRAL>
0

>  <SCORE.INTRA.DIHEDRAL.0>
0

>  <SCORE.INTRA.POLAR>
0

>  <SCORE.INTRA.POLAR.0>
0

>  <SCORE.INTRA.REPUL>
0

>  <SCORE.INTRA.REPUL.0>
0

>  <SCORE.INTRA.SOLV>
0

>  <SCORE.INTRA.SOLV.lig_0>
-23.8949

>  <SCORE.INTRA.VDW>
0

>  <SCORE.INTRA.VDW.0>
0

>  <SCORE.INTRA.norm>
0

>  <SCORE.RESTR>
0

>  <SCORE.RESTR.CAVITY>
0

>  <SCORE.RESTR.norm>
0

>  <SCORE.SYSTEM>
0

>  <SCORE.SYSTEM.CONST>
0

>  <SCORE.SYSTEM.DIHEDRAL>
0

>  <SCORE.SYSTEM.SOLV>
0

>  <SCORE.SYSTEM.norm>
0

>  <SCORE.heavy>
10

>  <SCORE.norm>
-0.840828

>  <RMSD>
4.471

$$$$
ligand
 OpenBabel11021811513D
libRbt.so/2013.1/901 2013/11/27
 10 11  0  0  0  0  0  0  0  0999 V2000
  -28.9445   14.0742  -16.2605 N   0  0  0  0  0  0  0  0  0  0  0  0
  -29.1042   15.3653  -15.9410 C   0  0  0  0  0  0  0  0  0  0  0  0
  -28.2132   16.3553  -15.9789 N   0  0  0  0  0  0  0  0  0  0  0  0
  -27.0216   15.9078  -16.4064 C   0  0  0  0  0  0  0  0  0  0  0  0
  -26.7033   14.6120  -16.7684 C   0  0  0  0  0  0  0  0  0  0  0  0
  -27.7351   13.6551  -16.6870 C   0  0  0  0  0  0  0  0  0  0  0  0
  -27.5708   12.3673  -17.0057 N   0  0  0  0  0  0  0  0  0  0  0  0
  -25.3781   14.5243  -17.1593 N   0  0  0  0  0  0  0  0  0  0  0  0
  -24.9284   15.7499  -17.0245 C   0  0  0  0  0  0  0  0  0  0  0  0
  -25.8676   16.6359  -16.5739 N   0  0  0  0  0  0  0  0  0  0  0  0
  1  2  2  0  0  0  0
  1  6  1  0  0  0  0
  2  3  1  0  0  0  0
  3  4  2  0  0  0  0
  4  5  1  0  0  0  0
  4 10  1  0  0  0  0
  5  6  2  0  0  0  0
  5  8  1  0  0  0  0
  6  7  1  0  0  0  0
  8  9  1  0  0  0  0
  9 10  2  0  0  0  0
M  END
>  <CHROM.1>
-27.15036520,14.91448955,-16.58170691,2.56500477,-0.26633109,-2.93218634

>  <Name>
ligand

>  <RI>
0

>  <Rbt.Current_Directory>
/home/itssahil/PROJECTS/Mol_Feturizer/New_Systems/rnas/4TZX

>  <Rbt.Executable>
rbdock ($Id: //depot/dev/client3/rdock/2013.1/src/exe/rbdock.cxx#4 $)

>  <Rbt.Library>
libRbt.so (2013.1, Build901 2013/11/27)

>  <Rbt.Parameter_File>
/export/apps/rDock/src/rDock_2013.1_src/data/scripts/dock_solv.prm

>  <Rbt.Receptor>
prm/blind_docking_40.prm

>  <SCORE>
-8.60374

>  <SCORE.INTER>
-8.60374

>  <SCORE.INTER.CONST>
1

>  <SCORE.INTER.POLAR>
0

>  <SCORE.INTER.ROT>
0

>  <SCORE.INTER.SOLV>
4.94149

>  <SCORE.INTER.VDW>
-10.983

>  <SCORE.INTER.norm>
-0.860374

>  <SCORE.INTRA>
0

>  <SCORE.INTRA.DIHEDRAL>
0

>  <SCORE.INTRA.DIHEDRAL.0>
0

>  <SCORE.INTRA.POLAR>
0

>  <SCORE.INTRA.POLAR.0>
0

>  <SCORE.INTRA.REPUL>
0

>  <SCORE.INTRA.REPUL.0>
0

>  <SCORE.INTRA.SOLV>
0

>  <SCORE.INTRA.SOLV.lig_0>
-23.8949

>  <SCORE.INTRA.VDW>
0

>  <SCORE.INTRA.VDW.0>
0

>  <SCORE.INTRA.norm>
0

>  <SCORE.RESTR>
0

>  <SCORE.RESTR.CAVITY>
0

>  <SCORE.RESTR.norm>
0

>  <SCORE.SYSTEM>
0

>  <SCORE.SYSTEM.CONST>
0

>  <SCORE.SYSTEM.DIHEDRAL>
0

>  <SCORE.SYSTEM.SOLV>
0

>  <SCORE.SYSTEM.norm>
0

>  <SCORE.heavy>
10

>  <SCORE.norm>
-0.860374

>  <RMSD>
4.614

$$$$
ligand
 OpenBabel11021811513D
libRbt.so/2013.1/901 2013/11/27
 10 11  0  0  0  0  0  0  0  0999 V2000
  -25.5239   14.2086  -17.1181 N   0  0  0  0  0  0  0  0  0  0  0  0
  -25.2522   15.4872  -16.8248 C   0  0  0  0  0  0  0  0  0  0  0  0
  -26.0716   16.4372  -16.3756 N   0  0  0  0  0  0  0  0  0  0  0  0
  -27.3177   15.9601  -16.2262 C   0  0  0  0  0  0  0  0  0  0  0  0
  -27.7504   14.6733  -16.4882 C   0  0  0  0  0  0  0  0  0  0  0  0
  -26.7857   13.7590  -16.9575 C   0  0  0  0  0  0  0  0  0  0  0  0
  -27.0616   12.4841  -17.2502 N   0  0  0  0  0  0  0  0  0  0  0  0
  -29.1016   14.5460  -16.2152 N   0  0  0  0  0  0  0  0  0  0  0  0
  -29.4535   15.7414  -15.8031 C   0  0  0  0  0  0  0  0  0  0  0  0
  -28.4260   16.6435  -15.7853 N   0  0  0  0  0  0  0  0  0  0  0  0
  1  2  2  0  0  0  0
  1  6  1  0  0  0  0
  2  3  1  0  0  0  0
  3  4  2  0  0  0  0
  4  5  1  0  0  0  0
  4 10  1  0  0  0  0
  5  6  2  0  0  0  0
  5  8  1  0  0  0  0
  6  7  1  0  0  0  0
  8  9  1  0  0  0  0
  9 10  2  0  0  0  0
M  END
>  <CHROM.1>
-27.27155143,14.98405183,-16.50784075,-0.66172712,0.21461637,0.27108449

>  <Name>
ligand

>  <RI>
0

>  <Rbt.Current_Directory>
/home/itssahil/PROJECTS/Mol_Feturizer/New_Systems/rnas/4TZX

>  <Rbt.Executable>
rbdock ($Id: //depot/dev/client3/rdock/2013.1/src/exe/rbdock.cxx#4 $)

>  <Rbt.Library>
libRbt.so (2013.1, Build901 2013/11/27)

>  <Rbt.Parameter_File>
/export/apps/rDock/src/rDock_2013.1_src/data/scripts/dock_solv.prm

>  <Rbt.Receptor>
prm/blind_docking_40.prm

>  <SCORE>
-9.62656

>  <SCORE.INTER>
-9.62656

>  <SCORE.INTER.CONST>
1

>  <SCORE.INTER.POLAR>
0

>  <SCORE.INTER.ROT>
0

>  <SCORE.INTER.SOLV>
4.81633

>  <SCORE.INTER.VDW>
-11.6231

>  <SCORE.INTER.norm>
-0.962656

>  <SCORE.INTRA>
0

>  <SCORE.INTRA.DIHEDRAL>
0

>  <SCORE.INTRA.DIHEDRAL.0>
0

>  <SCORE.INTRA.POLAR>
0

>  <SCORE.INTRA.POLAR.0>
0

>  <SCORE.INTRA.REPUL>
0

>  <SCORE.INTRA.REPUL.0>
0

>  <SCORE.INTRA.SOLV>
0

>  <SCORE.INTRA.SOLV.lig_0>
-23.8949

>  <SCORE.INTRA.VDW>
0

>  <SCORE.INTRA.VDW.0>
0

>  <SCORE.INTRA.norm>
0

>  <SCORE.RESTR>
0

>  <SCORE.RESTR.CAVITY>
0

>  <SCORE.RESTR.norm>
0

>  <SCORE.SYSTEM>
0

>  <SCORE.SYSTEM.CONST>
0

>  <SCORE.SYSTEM.DIHEDRAL>
0

>  <SCORE.SYSTEM.SOLV>
0

>  <SCORE.SYSTEM.norm>
0

>  <SCORE.heavy>
10

>  <SCORE.norm>
-0.962656

>  <RMSD>
4.806

$$$$
ligand
 OpenBabel11021811513D
libRbt.so/2013.1/901 2013/11/27
 10 11  0  0  0  0  0  0  0  0999 V2000
  -25.5406   14.0460  -17.0390 N   0  0  0  0  0  0  0  0  0  0  0  0
  -25.2461   15.3452  -16.8971 C   0  0  0  0  0  0  0  0  0  0  0  0
  -26.0481   16.3555  -16.5629 N   0  0  0  0  0  0  0  0  0  0  0  0
  -27.3023   15.9212  -16.3598 C   0  0  0  0  0  0  0  0  0  0  0  0
  -27.7578   14.6204  -16.4697 C   0  0  0  0  0  0  0  0  0  0  0  0
  -26.8099   13.6406  -16.8279 C   0  0  0  0  0  0  0  0  0  0  0  0
  -27.1085   12.3453  -16.9697 N   0  0  0  0  0  0  0  0  0  0  0  0
  -29.1108   14.5497  -16.1849 N   0  0  0  0  0  0  0  0  0  0  0  0
  -29.4411   15.7911  -15.9158 C   0  0  0  0  0  0  0  0  0  0  0  0
  -28.3978   16.6709  -16.0028 N   0  0  0  0  0  0  0  0  0  0  0  0
  1  2  2  0  0  0  0
  1  6  1  0  0  0  0
  2  3  1  0  0  0  0
  3  4  2  0  0  0  0
  4  5  1  0  0  0  0
  4 10  1  0  0  0  0
  5  6  2  0  0  0  0
  5  8  1  0  0  0  0
  6  7  1  0  0  0  0
  8  9  1  0  0  0  0
  9 10  2  0  0  0  0
M  END
>  <CHROM.1>
-27.27360252,14.91822640,-16.52516803,-0.67937103,0.21101688,0.15748357

>  <Name>
ligand

>  <RI>
0

>  <Rbt.Current_Directory>
/home/itssahil/PROJECTS/Mol_Feturizer/New_Systems/rnas/4TZX

>  <Rbt.Executable>
rbdock ($Id: //depot/dev/client3/rdock/2013.1/src/exe/rbdock.cxx#4 $)

>  <Rbt.Library>
libRbt.so (2013.1, Build901 2013/11/27)

>  <Rbt.Parameter_File>
/export/apps/rDock/src/rDock_2013.1_src/data/scripts/dock_solv.prm

>  <Rbt.Receptor>
prm/blind_docking_80.prm

>  <SCORE>
-9.67408

>  <SCORE.INTER>
-9.67408

>  <SCORE.INTER.CONST>
1

>  <SCORE.INTER.POLAR>
0

>  <SCORE.INTER.ROT>
0

>  <SCORE.INTER.SOLV>
3.74878

>  <SCORE.INTER.VDW>
-11.299

>  <SCORE.INTER.norm>
-0.967408

>  <SCORE.INTRA>
0

>  <SCORE.INTRA.DIHEDRAL>
0

>  <SCORE.INTRA.DIHEDRAL.0>
0

>  <SCORE.INTRA.POLAR>
0

>  <SCORE.INTRA.POLAR.0>
0

>  <SCORE.INTRA.REPUL>
0

>  <SCORE.INTRA.REPUL.0>
0

>  <SCORE.INTRA.SOLV>
0

>  <SCORE.INTRA.SOLV.lig_0>
-23.8949

>  <SCORE.INTRA.VDW>
0

>  <SCORE.INTRA.VDW.0>
0

>  <SCORE.INTRA.norm>
0

>  <SCORE.RESTR>
0

>  <SCORE.RESTR.CAVITY>
0

>  <SCORE.RESTR.norm>
0

>  <SCORE.SYSTEM>
0

>  <SCORE.SYSTEM.CONST>
0

>  <SCORE.SYSTEM.DIHEDRAL>
0

>  <SCORE.SYSTEM.SOLV>
0

>  <SCORE.SYSTEM.norm>
0

>  <SCORE.heavy>
10

>  <SCORE.norm>
-0.967408

>  <RMSD>
4.822

$$$$
ligand
 OpenBabel11021811513D
libRbt.so/2013.1/901 2013/11/27
 10 11  0  0  0  0  0  0  0  0999 V2000
  -25.5431   14.0175  -17.0130 N   0  0  0  0  0  0  0  0  0  0  0  0
  -25.2452   15.3168  -16.8796 C   0  0  0  0  0  0  0  0  0  0  0  0
  -26.0457   16.3321  -16.5572 N   0  0  0  0  0  0  0  0  0  0  0  0
  -27.3022   15.9033  -16.3571 C   0  0  0  0  0  0  0  0  0  0  0  0
  -27.7613   14.6032  -16.4594 C   0  0  0  0  0  0  0  0  0  0  0  0
  -26.8148   13.6177  -16.8053 C   0  0  0  0  0  0  0  0  0  0  0  0
  -27.1167   12.3223  -16.9387 N   0  0  0  0  0  0  0  0  0  0  0  0
  -29.1159   14.5389  -16.1808 N   0  0  0  0  0  0  0  0  0  0  0  0
  -29.4436   15.7834  -15.9229 C   0  0  0  0  0  0  0  0  0  0  0  0
  -28.3972   16.6592  -16.0114 N   0  0  0  0  0  0  0  0  0  0  0  0
  1  2  2  0  0  0  0
  1  6  1  0  0  0  0
  2  3  1  0  0  0  0
  3  4  2  0  0  0  0
  4  5  1  0  0  0  0
  4 10  1  0  0  0  0
  5  6  2  0  0  0  0
  5  8  1  0  0  0  0
  6  7  1  0  0  0  0
  8  9  1  0  0  0  0
  9 10  2  0  0  0  0
M  END
>  <CHROM.1>
-27.27589842,14.89905401,-16.51465963,-0.68176981,0.20555814,0.15033985

>  <Name>
ligand

>  <RI>
0

>  <Rbt.Current_Directory>
/home/itssahil/PROJECTS/Mol_Feturizer/New_Systems/rnas/4TZX

>  <Rbt.Executable>
rbdock ($Id: //depot/dev/client3/rdock/2013.1/src/exe/rbdock.cxx#4 $)

>  <Rbt.Library>
libRbt.so (2013.1, Build901 2013/11/27)

>  <Rbt.Parameter_File>
/export/apps/rDock/src/rDock_2013.1_src/data/scripts/dock_solv.prm

>  <Rbt.Receptor>
prm/blind_docking_40.prm

>  <SCORE>
-9.68012

>  <SCORE.INTER>
-9.68012

>  <SCORE.INTER.CONST>
1

>  <SCORE.INTER.POLAR>
0

>  <SCORE.INTER.ROT>
0

>  <SCORE.INTER.SOLV>
3.60425

>  <SCORE.INTER.VDW>
-11.2548

>  <SCORE.INTER.norm>
-0.968012

>  <SCORE.INTRA>
0

>  <SCORE.INTRA.DIHEDRAL>
0

>  <SCORE.INTRA.DIHEDRAL.0>
0

>  <SCORE.INTRA.POLAR>
0

>  <SCORE.INTRA.POLAR.0>
0

>  <SCORE.INTRA.REPUL>
0

>  <SCORE.INTRA.REPUL.0>
0

>  <SCORE.INTRA.SOLV>
0

>  <SCORE.INTRA.SOLV.lig_0>
-23.8949

>  <SCORE.INTRA.VDW>
0

>  <SCORE.INTRA.VDW.0>
0

>  <SCORE.INTRA.norm>
0

>  <SCORE.RESTR>
0

>  <SCORE.RESTR.CAVITY>
0

>  <SCORE.RESTR.norm>
0

>  <SCORE.SYSTEM>
0

>  <SCORE.SYSTEM.CONST>
0

>  <SCORE.SYSTEM.DIHEDRAL>
0

>  <SCORE.SYSTEM.SOLV>
0

>  <SCORE.SYSTEM.norm>
0

>  <SCORE.heavy>
10

>  <SCORE.norm>
-0.968012

>  <RMSD>
4.828

$$$$
ligand
 OpenBabel11021811513D
libRbt.so/2013.1/901 2013/11/27
 10 11  0  0  0  0  0  0  0  0999 V2000
  -25.5712   13.9996  -17.0280 N   0  0  0  0  0  0  0  0  0  0  0  0
  -25.2682   15.2974  -16.8909 C   0  0  0  0  0  0  0  0  0  0  0  0
  -26.0624   16.3133  -16.5552 N   0  0  0  0  0  0  0  0  0  0  0  0
  -27.3181   15.8870  -16.3446 C   0  0  0  0  0  0  0  0  0  0  0  0
  -27.7820   14.5887  -16.4488 C   0  0  0  0  0  0  0  0  0  0  0  0
  -26.8418   13.6024  -16.8094 C   0  0  0  0  0  0  0  0  0  0  0  0
  -27.1489   12.3085  -16.9464 N   0  0  0  0  0  0  0  0  0  0  0  0
  -29.1339   14.5268  -16.1569 N   0  0  0  0  0  0  0  0  0  0  0  0
  -29.4554   15.7709  -15.8894 C   0  0  0  0  0  0  0  0  0  0  0  0
  -28.4073   16.6442  -15.9839 N   0  0  0  0  0  0  0  0  0  0  0  0
  1  2  2  0  0  0  0
  1  6  1  0  0  0  0
  2  3  1  0  0  0  0
  3  4  2  0  0  0  0
  4  5  1  0  0  0  0
  4 10  1  0  0  0  0
  5  6  2  0  0  0  0
  5  8  1  0  0  0  0
  6  7  1  0  0  0  0
  8  9  1  0  0  0  0
  9 10  2  0  0  0  0
M  END
>  <CHROM.1>
-27.29629988,14.88349468,-16.50755587,-0.68623588,0.21513683,0.15640778

>  <Name>
ligand

>  <RI>
0

>  <Rbt.Current_Directory>
/home/itssahil/PROJECTS/Mol_Feturizer/New_Systems/rnas/4TZX

>  <Rbt.Executable>
rbdock ($Id: //depot/dev/client3/rdock/2013.1/src/exe/rbdock.cxx#4 $)

>  <Rbt.Library>
libRbt.so (2013.1, Build901 2013/11/27)

>  <Rbt.Parameter_File>
/export/apps/rDock/src/rDock_2013.1_src/data/scripts/dock_solv.prm

>  <Rbt.Receptor>
prm/blind_docking_40.prm

>  <SCORE>
-9.64591

>  <SCORE.INTER>
-9.64591

>  <SCORE.INTER.CONST>
1

>  <SCORE.INTER.POLAR>
0

>  <SCORE.INTER.ROT>
0

>  <SCORE.INTER.SOLV>
3.61705

>  <SCORE.INTER.VDW>
-11.2363

>  <SCORE.INTER.norm>
-0.964591

>  <SCORE.INTRA>
0

>  <SCORE.INTRA.DIHEDRAL>
0

>  <SCORE.INTRA.DIHEDRAL.0>
0

>  <SCORE.INTRA.POLAR>
0

>  <SCORE.INTRA.POLAR.0>
0

>  <SCORE.INTRA.REPUL>
0

>  <SCORE.INTRA.REPUL.0>
0

>  <SCORE.INTRA.SOLV>
0

>  <SCORE.INTRA.SOLV.lig_0>
-23.8949

>  <SCORE.INTRA.VDW>
0

>  <SCORE.INTRA.VDW.0>
0

>  <SCORE.INTRA.norm>
0

>  <SCORE.RESTR>
0

>  <SCORE.RESTR.CAVITY>
0

>  <SCORE.RESTR.norm>
0

>  <SCORE.SYSTEM>
0

>  <SCORE.SYSTEM.CONST>
0

>  <SCORE.SYSTEM.DIHEDRAL>
0

>  <SCORE.SYSTEM.SOLV>
0

>  <SCORE.SYSTEM.norm>
0

>  <SCORE.heavy>
10

>  <SCORE.norm>
-0.964591

>  <RMSD>
4.829

$$$$
ligand
 OpenBabel11021811513D
libRbt.so/2013.1/901 2013/11/27
 10 11  0  0  0  0  0  0  0  0999 V2000
  -25.5697   13.9729  -17.0198 N   0  0  0  0  0  0  0  0  0  0  0  0
  -25.2653   15.2712  -16.8913 C   0  0  0  0  0  0  0  0  0  0  0  0
  -26.0609   16.2920  -16.5743 N   0  0  0  0  0  0  0  0  0  0  0  0
  -27.3200   15.8706  -16.3743 C   0  0  0  0  0  0  0  0  0  0  0  0
  -27.7856   14.5724  -16.4718 C   0  0  0  0  0  0  0  0  0  0  0  0
  -26.8438   13.5806  -16.8123 C   0  0  0  0  0  0  0  0  0  0  0  0
  -27.1523   12.2862  -16.9406 N   0  0  0  0  0  0  0  0  0  0  0  0
  -29.1410   14.5163  -16.1950 N   0  0  0  0  0  0  0  0  0  0  0  0
  -29.4626   15.7635  -15.9428 C   0  0  0  0  0  0  0  0  0  0  0  0
  -28.4115   16.6336  -16.0334 N   0  0  0  0  0  0  0  0  0  0  0  0
  1  2  2  0  0  0  0
  1  6  1  0  0  0  0
  2  3  1  0  0  0  0
  3  4  2  0  0  0  0
  4  5  1  0  0  0  0
  4 10  1  0  0  0  0
  5  6  2  0  0  0  0
  5  8  1  0  0  0  0
  6  7  1  0  0  0  0
  8  9  1  0  0  0  0
  9 10  2  0  0  0  0
M  END
>  <CHROM.1>
-27.29865195,14.86552349,-16.52762995,-0.68678675,0.20334512,0.14717251

>  <Name>
ligand

>  <RI>
0

>  <Rbt.Current_Directory>
/home/itssahil/PROJECTS/Mol_Feturizer/New_Systems/rnas/4TZX

>  <Rbt.Executable>
rbdock ($Id: //depot/dev/client3/rdock/2013.1/src/exe/rbdock.cxx#4 $)

>  <Rbt.Library>
libRbt.so (2013.1, Build901 2013/11/27)

>  <Rbt.Parameter_File>
/export/apps/rDock/src/rDock_2013.1_src/data/scripts/dock_solv.prm

>  <Rbt.Receptor>
prm/blind_docking_40.prm

>  <SCORE>
-9.65648

>  <SCORE.INTER>
-9.65648

>  <SCORE.INTER.CONST>
1

>  <SCORE.INTER.POLAR>
0

>  <SCORE.INTER.ROT>
0

>  <SCORE.INTER.SOLV>
3.54095

>  <SCORE.INTER.VDW>
-11.218

>  <SCORE.INTER.norm>
-0.965648

>  <SCORE.INTRA>
0

>  <SCORE.INTRA.DIHEDRAL>
0

>  <SCORE.INTRA.DIHEDRAL.0>
0

>  <SCORE.INTRA.POLAR>
0

>  <SCORE.INTRA.POLAR.0>
0

>  <SCORE.INTRA.REPUL>
0

>  <SCORE.INTRA.REPUL.0>
0

>  <SCORE.INTRA.SOLV>
0

>  <SCORE.INTRA.SOLV.lig_0>
-23.8949

>  <SCORE.INTRA.VDW>
0

>  <SCORE.INTRA.VDW.0>
0

>  <SCORE.INTRA.norm>
0

>  <SCORE.RESTR>
0

>  <SCORE.RESTR.CAVITY>
0

>  <SCORE.RESTR.norm>
0

>  <SCORE.SYSTEM>
0

>  <SCORE.SYSTEM.CONST>
0

>  <SCORE.SYSTEM.DIHEDRAL>
0

>  <SCORE.SYSTEM.SOLV>
0

>  <SCORE.SYSTEM.norm>
0

>  <SCORE.heavy>
10

>  <SCORE.norm>
-0.965648

>  <RMSD>
4.832

$$$$
ligand
 OpenBabel11021811513D
libRbt.so/2013.1/901 2013/11/27
 10 11  0  0  0  0  0  0  0  0999 V2000
  -25.5666   14.0103  -17.0450 N   0  0  0  0  0  0  0  0  0  0  0  0
  -25.2685   15.3063  -16.8832 C   0  0  0  0  0  0  0  0  0  0  0  0
  -26.0677   16.3135  -16.5331 N   0  0  0  0  0  0  0  0  0  0  0  0
  -27.3230   15.8796  -16.3363 C   0  0  0  0  0  0  0  0  0  0  0  0
  -27.7820   14.5819  -16.4661 C   0  0  0  0  0  0  0  0  0  0  0  0
  -26.8370   13.6052  -16.8398 C   0  0  0  0  0  0  0  0  0  0  0  0
  -27.1392   12.3130  -17.0014 N   0  0  0  0  0  0  0  0  0  0  0  0
  -29.1351   14.5105  -16.1819 N   0  0  0  0  0  0  0  0  0  0  0  0
  -29.4619   15.7485  -15.8936 C   0  0  0  0  0  0  0  0  0  0  0  0
  -28.4163   16.6267  -15.9674 N   0  0  0  0  0  0  0  0  0  0  0  0
  1  2  2  0  0  0  0
  1  6  1  0  0  0  0
  2  3  1  0  0  0  0
  3  4  2  0  0  0  0
  4  5  1  0  0  0  0
  4 10  1  0  0  0  0
  5  6  2  0  0  0  0
  5  8  1  0  0  0  0
  6  7  1  0  0  0  0
  8  9  1  0  0  0  0
  9 10  2  0  0  0  0
M  END
>  <CHROM.1>
-27.29707403,14.87921747,-16.51713353,-0.68219614,0.21090484,0.17351337

>  <Name>
ligand

>  <RI>
0

>  <Rbt.Current_Directory>
/home/itssahil/PROJECTS/Mol_Feturizer/New_Systems/rnas/4TZX

>  <Rbt.Executable>
rbdock ($Id: //depot/dev/client3/rdock/2013.1/src/exe/rbdock.cxx#4 $)

>  <Rbt.Library>
libRbt.so (2013.1, Build901 2013/11/27)

>  <Rbt.Parameter_File>
/export/apps/rDock/src/rDock_2013.1_src/data/scripts/dock_solv.prm

>  <Rbt.Receptor>
prm/blind_docking_40.prm

>  <SCORE>
-9.64092

>  <SCORE.INTER>
-9.64092

>  <SCORE.INTER.CONST>
1

>  <SCORE.INTER.POLAR>
0

>  <SCORE.INTER.ROT>
0

>  <SCORE.INTER.SOLV>
3.77004

>  <SCORE.INTER.VDW>
-11.284

>  <SCORE.INTER.norm>
-0.964092

>  <SCORE.INTRA>
0

>  <SCORE.INTRA.DIHEDRAL>
0

>  <SCORE.INTRA.DIHEDRAL.0>
0

>  <SCORE.INTRA.POLAR>
0

>  <SCORE.INTRA.POLAR.0>
0

>  <SCORE.INTRA.REPUL>
0

>  <SCORE.INTRA.REPUL.0>
0

>  <SCORE.INTRA.SOLV>
0

>  <SCORE.INTRA.SOLV.lig_0>
-23.8949

>  <SCORE.INTRA.VDW>
0

>  <SCORE.INTRA.VDW.0>
0

>  <SCORE.INTRA.norm>
0

>  <SCORE.RESTR>
0

>  <SCORE.RESTR.CAVITY>
0

>  <SCORE.RESTR.norm>
0

>  <SCORE.SYSTEM>
0

>  <SCORE.SYSTEM.CONST>
0

>  <SCORE.SYSTEM.DIHEDRAL>
0

>  <SCORE.SYSTEM.SOLV>
0

>  <SCORE.SYSTEM.norm>
0

>  <SCORE.heavy>
10

>  <SCORE.norm>
-0.964092

>  <RMSD>
4.832

$$$$
ligand
 OpenBabel11021811513D
libRbt.so/2013.1/901 2013/11/27
 10 11  0  0  0  0  0  0  0  0999 V2000
  -37.5201   14.8966  -23.7077 N   0  0  0  0  0  0  0  0  0  0  0  0
  -38.1660   15.3551  -22.6273 C   0  0  0  0  0  0  0  0  0  0  0  0
  -38.6079   16.5864  -22.3739 N   0  0  0  0  0  0  0  0  0  0  0  0
  -38.3239   17.4137  -23.3926 C   0  0  0  0  0  0  0  0  0  0  0  0
  -37.6654   17.0908  -24.5646 C   0  0  0  0  0  0  0  0  0  0  0  0
  -37.2493   15.7525  -24.7148 C   0  0  0  0  0  0  0  0  0  0  0  0
  -36.6039   15.2995  -25.7943 N   0  0  0  0  0  0  0  0  0  0  0  0
  -37.5540   18.2003  -25.3852 N   0  0  0  0  0  0  0  0  0  0  0  0
  -38.1359   19.1574  -24.7012 C   0  0  0  0  0  0  0  0  0  0  0  0
  -38.6228   18.7520  -23.4894 N   0  0  0  0  0  0  0  0  0  0  0  0
  1  2  2  0  0  0  0
  1  6  1  0  0  0  0
  2  3  1  0  0  0  0
  3  4  2  0  0  0  0
  4  5  1  0  0  0  0
  4 10  1  0  0  0  0
  5  6  2  0  0  0  0
  5  8  1  0  0  0  0
  6  7  1  0  0  0  0
  8  9  1  0  0  0  0
  9 10  2  0  0  0  0
M  END
>  <CHROM.1>
-37.84007835,16.84248803,-24.08085695,1.04367889,-1.06579418,2.65510201

>  <Name>
ligand

>  <RI>
0

>  <Rbt.Current_Directory>
/home/itssahil/PROJECTS/Mol_Feturizer/New_Systems/rnas/4TZX

>  <Rbt.Executable>
rbdock ($Id: //depot/dev/client3/rdock/2013.1/src/exe/rbdock.cxx#4 $)

>  <Rbt.Library>
libRbt.so (2013.1, Build901 2013/11/27)

>  <Rbt.Parameter_File>
/export/apps/rDock/src/rDock_2013.1_src/data/scripts/dock_solv.prm

>  <Rbt.Receptor>
prm/blind_docking_60.prm

>  <SCORE>
-10.0675

>  <SCORE.INTER>
-10.0675

>  <SCORE.INTER.CONST>
1

>  <SCORE.INTER.POLAR>
0

>  <SCORE.INTER.ROT>
0

>  <SCORE.INTER.SOLV>
2.45085

>  <SCORE.INTER.VDW>
-11.1286

>  <SCORE.INTER.norm>
-1.00675

>  <SCORE.INTRA>
0

>  <SCORE.INTRA.DIHEDRAL>
0

>  <SCORE.INTRA.DIHEDRAL.0>
0

>  <SCORE.INTRA.POLAR>
0

>  <SCORE.INTRA.POLAR.0>
0

>  <SCORE.INTRA.REPUL>
0

>  <SCORE.INTRA.REPUL.0>
0

>  <SCORE.INTRA.SOLV>
0

>  <SCORE.INTRA.SOLV.lig_0>
-23.8949

>  <SCORE.INTRA.VDW>
0

>  <SCORE.INTRA.VDW.0>
0

>  <SCORE.INTRA.norm>
0

>  <SCORE.RESTR>
0

>  <SCORE.RESTR.CAVITY>
0

>  <SCORE.RESTR.norm>
0

>  <SCORE.SYSTEM>
0

>  <SCORE.SYSTEM.CONST>
0

>  <SCORE.SYSTEM.DIHEDRAL>
0

>  <SCORE.SYSTEM.SOLV>
0

>  <SCORE.SYSTEM.norm>
0

>  <SCORE.heavy>
10

>  <SCORE.norm>
-1.00675

>  <RMSD>
10.779

$$$$
ligand
 OpenBabel11021811513D
libRbt.so/2013.1/901 2013/11/27
 10 11  0  0  0  0  0  0  0  0999 V2000
  -18.7313   16.1559  -12.7072 N   0  0  0  0  0  0  0  0  0  0  0  0
  -19.9645   15.9829  -12.2129 C   0  0  0  0  0  0  0  0  0  0  0  0
  -20.5652   14.8560  -11.8324 N   0  0  0  0  0  0  0  0  0  0  0  0
  -19.7516   13.8015  -12.0022 C   0  0  0  0  0  0  0  0  0  0  0  0
  -18.4619   13.8204  -12.5003 C   0  0  0  0  0  0  0  0  0  0  0  0
  -17.9377   15.0766  -12.8661 C   0  0  0  0  0  0  0  0  0  0  0  0
  -16.7069   15.2444  -13.3601 N   0  0  0  0  0  0  0  0  0  0  0  0
  -17.9298   12.5426  -12.5299 N   0  0  0  0  0  0  0  0  0  0  0  0
  -18.8953   11.7885  -12.0593 C   0  0  0  0  0  0  0  0  0  0  0  0
  -20.0235   12.4835  -11.7213 N   0  0  0  0  0  0  0  0  0  0  0  0
  1  2  2  0  0  0  0
  1  6  1  0  0  0  0
  2  3  1  0  0  0  0
  3  4  2  0  0  0  0
  4  5  1  0  0  0  0
  4 10  1  0  0  0  0
  5  6  2  0  0  0  0
  5  8  1  0  0  0  0
  6  7  1  0  0  0  0
  8  9  1  0  0  0  0
  9 10  2  0  0  0  0
M  END
>  <CHROM.1>
-18.88867081,14.18145610,-12.38308249,1.29616547,0.36235940,-0.13319252

>  <Name>
ligand

>  <RI>
0

>  <Rbt.Current_Directory>
/home/itssahil/PROJECTS/Mol_Feturizer/New_Systems/rnas/4TZX

>  <Rbt.Executable>
rbdock ($Id: //depot/dev/client3/rdock/2013.1/src/exe/rbdock.cxx#4 $)

>  <Rbt.Library>
libRbt.so (2013.1, Build901 2013/11/27)

>  <Rbt.Parameter_File>
/export/apps/rDock/src/rDock_2013.1_src/data/scripts/dock_solv.prm

>  <Rbt.Receptor>
prm/blind_docking_40.prm

>  <SCORE>
-8.29647

>  <SCORE.INTER>
-8.29647

>  <SCORE.INTER.CONST>
1

>  <SCORE.INTER.POLAR>
0

>  <SCORE.INTER.ROT>
0

>  <SCORE.INTER.SOLV>
2.97656

>  <SCORE.INTER.VDW>
-10.1232

>  <SCORE.INTER.norm>
-0.829647

>  <SCORE.INTRA>
0

>  <SCORE.INTRA.DIHEDRAL>
0

>  <SCORE.INTRA.DIHEDRAL.0>
0

>  <SCORE.INTRA.POLAR>
0

>  <SCORE.INTRA.POLAR.0>
0

>  <SCORE.INTRA.REPUL>
0

>  <SCORE.INTRA.REPUL.0>
0

>  <SCORE.INTRA.SOLV>
0

>  <SCORE.INTRA.SOLV.lig_0>
-23.8949

>  <SCORE.INTRA.VDW>
0

>  <SCORE.INTRA.VDW.0>
0

>  <SCORE.INTRA.norm>
0

>  <SCORE.RESTR>
0

>  <SCORE.RESTR.CAVITY>
0

>  <SCORE.RESTR.norm>
0

>  <SCORE.SYSTEM>
0

>  <SCORE.SYSTEM.CONST>
0

>  <SCORE.SYSTEM.DIHEDRAL>
0

>  <SCORE.SYSTEM.SOLV>
0

>  <SCORE.SYSTEM.norm>
0

>  <SCORE.heavy>
10

>  <SCORE.norm>
-0.829647

>  <RMSD>
13.015

$$$$
ligand
 OpenBabel11021811513D
libRbt.so/2013.1/901 2013/11/27
 10 11  0  0  0  0  0  0  0  0999 V2000
  -17.8140   12.0832  -12.6784 N   0  0  0  0  0  0  0  0  0  0  0  0
  -18.9798   11.7925  -12.0859 C   0  0  0  0  0  0  0  0  0  0  0  0
  -19.9681   12.6129  -11.7312 N   0  0  0  0  0  0  0  0  0  0  0  0
  -19.6696   13.8832  -12.0479 C   0  0  0  0  0  0  0  0  0  0  0  0
  -18.5135   14.3370  -12.6553 C   0  0  0  0  0  0  0  0  0  0  0  0
  -17.5432   13.3690  -12.9841 C   0  0  0  0  0  0  0  0  0  0  0  0
  -16.3805   13.6637  -13.5743 N   0  0  0  0  0  0  0  0  0  0  0  0
  -18.5572   15.7101  -12.8270 N   0  0  0  0  0  0  0  0  0  0  0  0
  -19.7200   16.0533  -12.3243 C   0  0  0  0  0  0  0  0  0  0  0  0
  -20.4428   15.0000  -11.8363 N   0  0  0  0  0  0  0  0  0  0  0  0
  1  2  2  0  0  0  0
  1  6  1  0  0  0  0
  2  3  1  0  0  0  0
  3  4  2  0  0  0  0
  4  5  1  0  0  0  0
  4 10  1  0  0  0  0
  5  6  2  0  0  0  0
  5  8  1  0  0  0  0
  6  7  1  0  0  0  0
  8  9  1  0  0  0  0
  9 10  2  0  0  0  0
M  END
>  <CHROM.1>
-18.74919415,13.84769934,-12.47868921,0.83924231,-0.43841559,3.00445174

>  <Name>
ligand

>  <RI>
0

>  <Rbt.Current_Directory>
/home/itssahil/PROJECTS/Mol_Feturizer/New_Systems/rnas/4TZX

>  <Rbt.Executable>
rbdock ($Id: //depot/dev/client3/rdock/2013.1/src/exe/rbdock.cxx#4 $)

>  <Rbt.Library>
libRbt.so (2013.1, Build901 2013/11/27)

>  <Rbt.Parameter_File>
/export/apps/rDock/src/rDock_2013.1_src/data/scripts/dock_solv.prm

>  <Rbt.Receptor>
prm/blind_docking_40.prm

>  <SCORE>
-7.47948

>  <SCORE.INTER>
-7.47948

>  <SCORE.INTER.CONST>
1

>  <SCORE.INTER.POLAR>
0

>  <SCORE.INTER.ROT>
0

>  <SCORE.INTER.SOLV>
3.98789

>  <SCORE.INTER.VDW>
-9.91562

>  <SCORE.INTER.norm>
-0.747948

>  <SCORE.INTRA>
0

>  <SCORE.INTRA.DIHEDRAL>
0

>  <SCORE.INTRA.DIHEDRAL.0>
0

>  <SCORE.INTRA.POLAR>
0

>  <SCORE.INTRA.POLAR.0>
0

>  <SCORE.INTRA.REPUL>
0

>  <SCORE.INTRA.REPUL.0>
0

>  <SCORE.INTRA.SOLV>
0

>  <SCORE.INTRA.SOLV.lig_0>
-23.8949

>  <SCORE.INTRA.VDW>
0

>  <SCORE.INTRA.VDW.0>
0

>  <SCORE.INTRA.norm>
0

>  <SCORE.RESTR>
0

>  <SCORE.RESTR.CAVITY>
0

>  <SCORE.RESTR.norm>
0

>  <SCORE.SYSTEM>
0

>  <SCORE.SYSTEM.CONST>
0

>  <SCORE.SYSTEM.DIHEDRAL>
0

>  <SCORE.SYSTEM.SOLV>
0

>  <SCORE.SYSTEM.norm>
0

>  <SCORE.heavy>
10

>  <SCORE.norm>
-0.747948

>  <RMSD>
13.104

$$$$
ligand
 OpenBabel11021811513D
libRbt.so/2013.1/901 2013/11/27
 10 11  0  0  0  0  0  0  0  0999 V2000
  -18.0877   11.7910  -12.5583 N   0  0  0  0  0  0  0  0  0  0  0  0
  -19.2746   11.7230  -11.9408 C   0  0  0  0  0  0  0  0  0  0  0  0
  -20.1226   12.7066  -11.6423 N   0  0  0  0  0  0  0  0  0  0  0  0
  -19.6414   13.8912  -12.0521 C   0  0  0  0  0  0  0  0  0  0  0  0
  -18.4398   14.1206  -12.6964 C   0  0  0  0  0  0  0  0  0  0  0  0
  -17.6314   12.9960  -12.9581 C   0  0  0  0  0  0  0  0  0  0  0  0
  -16.4468   13.0688  -13.5735 N   0  0  0  0  0  0  0  0  0  0  0  0
  -18.2791   15.4687  -12.9674 N   0  0  0  0  0  0  0  0  0  0  0  0
  -19.3691   16.0187  -12.4858 C   0  0  0  0  0  0  0  0  0  0  0  0
  -20.2344   15.1243  -11.9190 N   0  0  0  0  0  0  0  0  0  0  0  0
  1  2  2  0  0  0  0
  1  6  1  0  0  0  0
  2  3  1  0  0  0  0
  3  4  2  0  0  0  0
  4  5  1  0  0  0  0
  4 10  1  0  0  0  0
  5  6  2  0  0  0  0
  5  8  1  0  0  0  0
  6  7  1  0  0  0  0
  8  9  1  0  0  0  0
  9 10  2  0  0  0  0
M  END
>  <CHROM.1>
-18.74359532,13.68636350,-12.48343719,1.00467101,-0.46921822,3.00448862

>  <Name>
ligand

>  <RI>
0

>  <Rbt.Current_Directory>
/home/itssahil/PROJECTS/Mol_Feturizer/New_Systems/rnas/4TZX

>  <Rbt.Executable>
rbdock ($Id: //depot/dev/client3/rdock/2013.1/src/exe/rbdock.cxx#4 $)

>  <Rbt.Library>
libRbt.so (2013.1, Build901 2013/11/27)

>  <Rbt.Parameter_File>
/export/apps/rDock/src/rDock_2013.1_src/data/scripts/dock_solv.prm

>  <Rbt.Receptor>
prm/blind_docking_40.prm

>  <SCORE>
-7.47084

>  <SCORE.INTER>
-7.47084

>  <SCORE.INTER.CONST>
1

>  <SCORE.INTER.POLAR>
0

>  <SCORE.INTER.ROT>
0

>  <SCORE.INTER.SOLV>
4.33651

>  <SCORE.INTER.VDW>
-10.0261

>  <SCORE.INTER.norm>
-0.747084

>  <SCORE.INTRA>
0

>  <SCORE.INTRA.DIHEDRAL>
0

>  <SCORE.INTRA.DIHEDRAL.0>
0

>  <SCORE.INTRA.POLAR>
0

>  <SCORE.INTRA.POLAR.0>
0

>  <SCORE.INTRA.REPUL>
0

>  <SCORE.INTRA.REPUL.0>
0

>  <SCORE.INTRA.SOLV>
0

>  <SCORE.INTRA.SOLV.lig_0>
-23.8949

>  <SCORE.INTRA.VDW>
0

>  <SCORE.INTRA.VDW.0>
0

>  <SCORE.INTRA.norm>
0

>  <SCORE.RESTR>
0

>  <SCORE.RESTR.CAVITY>
0

>  <SCORE.RESTR.norm>
0

>  <SCORE.SYSTEM>
0

>  <SCORE.SYSTEM.CONST>
0

>  <SCORE.SYSTEM.DIHEDRAL>
0

>  <SCORE.SYSTEM.SOLV>
0

>  <SCORE.SYSTEM.norm>
0

>  <SCORE.heavy>
10

>  <SCORE.norm>
-0.747084

>  <RMSD>
13.124

$$$$
ligand
 OpenBabel11021811513D
libRbt.so/2013.1/901 2013/11/27
 10 11  0  0  0  0  0  0  0  0999 V2000
  -14.6278   19.2717  -15.6888 N   0  0  0  0  0  0  0  0  0  0  0  0
  -15.2335   19.1058  -16.8722 C   0  0  0  0  0  0  0  0  0  0  0  0
  -16.2557   18.3114  -17.1872 N   0  0  0  0  0  0  0  0  0  0  0  0
  -16.6709   17.6206  -16.1133 C   0  0  0  0  0  0  0  0  0  0  0  0
  -16.1482   17.6815  -14.8348 C   0  0  0  0  0  0  0  0  0  0  0  0
  -15.0681   18.5632  -14.6285 C   0  0  0  0  0  0  0  0  0  0  0  0
  -14.4658   18.7247  -13.4460 N   0  0  0  0  0  0  0  0  0  0  0  0
  -16.8320   16.8287  -13.9851 N   0  0  0  0  0  0  0  0  0  0  0  0
  -17.7384   16.2757  -14.7567 C   0  0  0  0  0  0  0  0  0  0  0  0
  -17.6974   16.7081  -16.0534 N   0  0  0  0  0  0  0  0  0  0  0  0
  1  2  2  0  0  0  0
  1  6  1  0  0  0  0
  2  3  1  0  0  0  0
  3  4  2  0  0  0  0
  4  5  1  0  0  0  0
  4 10  1  0  0  0  0
  5  6  2  0  0  0  0
  5  8  1  0  0  0  0
  6  7  1  0  0  0  0
  8  9  1  0  0  0  0
  9 10  2  0  0  0  0
M  END
>  <CHROM.1>
-16.06625712,17.91371800,-15.35010056,0.17700561,-0.69461470,-1.27344582

>  <Name>
ligand

>  <RI>
0

>  <Rbt.Current_Directory>
/home/itssahil/PROJECTS/Mol_Feturizer/New_Systems/rnas/4TZX

>  <Rbt.Executable>
rbdock ($Id: //depot/dev/client3/rdock/2013.1/src/exe/rbdock.cxx#4 $)

>  <Rbt.Library>
libRbt.so (2013.1, Build901 2013/11/27)

>  <Rbt.Parameter_File>
/export/apps/rDock/src/rDock_2013.1_src/data/scripts/dock_solv.prm

>  <Rbt.Receptor>
prm/blind_docking_40.prm

>  <SCORE>
-5.78582

>  <SCORE.INTER>
-5.78582

>  <SCORE.INTER.CONST>
1

>  <SCORE.INTER.POLAR>
0

>  <SCORE.INTER.ROT>
0

>  <SCORE.INTER.SOLV>
2.32135

>  <SCORE.INTER.VDW>
-8.231

>  <SCORE.INTER.norm>
-0.578582

>  <SCORE.INTRA>
0

>  <SCORE.INTRA.DIHEDRAL>
0

>  <SCORE.INTRA.DIHEDRAL.0>
0

>  <SCORE.INTRA.POLAR>
0

>  <SCORE.INTRA.POLAR.0>
0

>  <SCORE.INTRA.REPUL>
0

>  <SCORE.INTRA.REPUL.0>
0

>  <SCORE.INTRA.SOLV>
0

>  <SCORE.INTRA.SOLV.lig_0>
-23.8949

>  <SCORE.INTRA.VDW>
0

>  <SCORE.INTRA.VDW.0>
0

>  <SCORE.INTRA.norm>
0

>  <SCORE.RESTR>
0

>  <SCORE.RESTR.CAVITY>
0

>  <SCORE.RESTR.norm>
0

>  <SCORE.SYSTEM>
0

>  <SCORE.SYSTEM.CONST>
0

>  <SCORE.SYSTEM.DIHEDRAL>
0

>  <SCORE.SYSTEM.SOLV>
0

>  <SCORE.SYSTEM.norm>
0

>  <SCORE.heavy>
10

>  <SCORE.norm>
-0.578582

>  <RMSD>
14.730

$$$$
ligand
 OpenBabel11021811513D
libRbt.so/2013.1/901 2013/11/27
 10 11  0  0  0  0  0  0  0  0999 V2000
  -13.4994   16.8768  -12.1705 N   0  0  0  0  0  0  0  0  0  0  0  0
  -12.8285   16.2257  -13.1301 C   0  0  0  0  0  0  0  0  0  0  0  0
  -12.7778   16.4786  -14.4374 N   0  0  0  0  0  0  0  0  0  0  0  0
  -13.5303   17.5471  -14.7456 C   0  0  0  0  0  0  0  0  0  0  0  0
  -14.2774   18.3154  -13.8720 C   0  0  0  0  0  0  0  0  0  0  0  0
  -14.2468   17.9468  -12.5119 C   0  0  0  0  0  0  0  0  0  0  0  0
  -14.9189   18.5987  -11.5578 N   0  0  0  0  0  0  0  0  0  0  0  0
  -14.9229   19.3369  -14.5477 N   0  0  0  0  0  0  0  0  0  0  0  0
  -14.5609   19.1657  -15.7975 C   0  0  0  0  0  0  0  0  0  0  0  0
  -13.7210   18.1034  -15.9881 N   0  0  0  0  0  0  0  0  0  0  0  0
  1  2  2  0  0  0  0
  1  6  1  0  0  0  0
  2  3  1  0  0  0  0
  3  4  2  0  0  0  0
  4  5  1  0  0  0  0
  4 10  1  0  0  0  0
  5  6  2  0  0  0  0
  5  8  1  0  0  0  0
  6  7  1  0  0  0  0
  8  9  1  0  0  0  0
  9 10  2  0  0  0  0
M  END
>  <CHROM.1>
-13.93143370,17.86099983,-13.86548457,-1.40448292,0.90820593,-1.33064091

>  <Name>
ligand

>  <RI>
0

>  <Rbt.Current_Directory>
/home/itssahil/PROJECTS/Mol_Feturizer/New_Systems/rnas/4TZX

>  <Rbt.Executable>
rbdock ($Id: //depot/dev/client3/rdock/2013.1/src/exe/rbdock.cxx#4 $)

>  <Rbt.Library>
libRbt.so (2013.1, Build901 2013/11/27)

>  <Rbt.Parameter_File>
/export/apps/rDock/src/rDock_2013.1_src/data/scripts/dock_solv.prm

>  <Rbt.Receptor>
prm/blind_docking_100.prm

>  <SCORE>
-8.13414

>  <SCORE.INTER>
-8.13414

>  <SCORE.INTER.CONST>
1

>  <SCORE.INTER.POLAR>
0

>  <SCORE.INTER.ROT>
0

>  <SCORE.INTER.SOLV>
1.76146

>  <SCORE.INTER.VDW>
-9.60992

>  <SCORE.INTER.norm>
-0.813414

>  <SCORE.INTRA>
0

>  <SCORE.INTRA.DIHEDRAL>
0

>  <SCORE.INTRA.DIHEDRAL.0>
0

>  <SCORE.INTRA.POLAR>
0

>  <SCORE.INTRA.POLAR.0>
0

>  <SCORE.INTRA.REPUL>
0

>  <SCORE.INTRA.REPUL.0>
0

>  <SCORE.INTRA.SOLV>
0

>  <SCORE.INTRA.SOLV.lig_0>
-23.8949

>  <SCORE.INTRA.VDW>
0

>  <SCORE.INTRA.VDW.0>
0

>  <SCORE.INTRA.norm>
0

>  <SCORE.RESTR>
0

>  <SCORE.RESTR.CAVITY>
0

>  <SCORE.RESTR.norm>
0

>  <SCORE.SYSTEM>
0

>  <SCORE.SYSTEM.CONST>
0

>  <SCORE.SYSTEM.DIHEDRAL>
0

>  <SCORE.SYSTEM.SOLV>
0

>  <SCORE.SYSTEM.norm>
0

>  <SCORE.heavy>
10

>  <SCORE.norm>
-0.813414

>  <RMSD>
16.888

$$$$
ligand
 OpenBabel11021811513D
libRbt.so/2013.1/901 2013/11/27
 10 11  0  0  0  0  0  0  0  0999 V2000
  -14.9287   19.8106  -14.3683 N   0  0  0  0  0  0  0  0  0  0  0  0
  -14.5222   19.2912  -15.5344 C   0  0  0  0  0  0  0  0  0  0  0  0
  -13.8111   18.1867  -15.7583 N   0  0  0  0  0  0  0  0  0  0  0  0
  -13.5039   17.5754  -14.6029 C   0  0  0  0  0  0  0  0  0  0  0  0
  -13.8475   17.9883  -13.3290 C   0  0  0  0  0  0  0  0  0  0  0  0
  -14.6042   19.1730  -13.2246 C   0  0  0  0  0  0  0  0  0  0  0  0
  -15.0066   19.6885  -12.0587 N   0  0  0  0  0  0  0  0  0  0  0  0
  -13.3590   17.1066  -12.3800 N   0  0  0  0  0  0  0  0  0  0  0  0
  -12.7366   16.1941  -13.0891 C   0  0  0  0  0  0  0  0  0  0  0  0
  -12.7847   16.4156  -14.4377 N   0  0  0  0  0  0  0  0  0  0  0  0
  1  2  2  0  0  0  0
  1  6  1  0  0  0  0
  2  3  1  0  0  0  0
  3  4  2  0  0  0  0
  4  5  1  0  0  0  0
  4 10  1  0  0  0  0
  5  6  2  0  0  0  0
  5  8  1  0  0  0  0
  6  7  1  0  0  0  0
  8  9  1  0  0  0  0
  9 10  2  0  0  0  0
M  END
>  <CHROM.1>
-13.91563863,18.15056113,-13.87234435,-2.99212248,-1.00605551,1.67741106

>  <Name>
ligand

>  <RI>
0

>  <Rbt.Current_Directory>
/home/itssahil/PROJECTS/Mol_Feturizer/New_Systems/rnas/4TZX

>  <Rbt.Executable>
rbdock ($Id: //depot/dev/client3/rdock/2013.1/src/exe/rbdock.cxx#4 $)

>  <Rbt.Library>
libRbt.so (2013.1, Build901 2013/11/27)

>  <Rbt.Parameter_File>
/export/apps/rDock/src/rDock_2013.1_src/data/scripts/dock_solv.prm

>  <Rbt.Receptor>
prm/blind_docking_100.prm

>  <SCORE>
-8.53951

>  <SCORE.INTER>
-8.53951

>  <SCORE.INTER.CONST>
1

>  <SCORE.INTER.POLAR>
0

>  <SCORE.INTER.ROT>
0

>  <SCORE.INTER.SOLV>
1.7555

>  <SCORE.INTER.VDW>
-9.87818

>  <SCORE.INTER.norm>
-0.853951

>  <SCORE.INTRA>
0

>  <SCORE.INTRA.DIHEDRAL>
0

>  <SCORE.INTRA.DIHEDRAL.0>
0

>  <SCORE.INTRA.POLAR>
0

>  <SCORE.INTRA.POLAR.0>
0

>  <SCORE.INTRA.REPUL>
0

>  <SCORE.INTRA.REPUL.0>
0

>  <SCORE.INTRA.SOLV>
0

>  <SCORE.INTRA.SOLV.lig_0>
-23.8949

>  <SCORE.INTRA.VDW>
0

>  <SCORE.INTRA.VDW.0>
0

>  <SCORE.INTRA.norm>
0

>  <SCORE.RESTR>
0

>  <SCORE.RESTR.CAVITY>
0

>  <SCORE.RESTR.norm>
0

>  <SCORE.SYSTEM>
0

>  <SCORE.SYSTEM.CONST>
0

>  <SCORE.SYSTEM.DIHEDRAL>
0

>  <SCORE.SYSTEM.SOLV>
0

>  <SCORE.SYSTEM.norm>
0

>  <SCORE.heavy>
10

>  <SCORE.norm>
-0.853951

>  <RMSD>
17.077

$$$$
ligand
 OpenBabel11021811513D
libRbt.so/2013.1/901 2013/11/27
 10 11  0  0  0  0  0  0  0  0999 V2000
  -20.3288   30.3972   -3.9714 N   0  0  0  0  0  0  0  0  0  0  0  0
  -19.3108   30.4931   -3.1058 C   0  0  0  0  0  0  0  0  0  0  0  0
  -18.8926   29.6085   -2.2013 N   0  0  0  0  0  0  0  0  0  0  0  0
  -19.6518   28.5014   -2.2311 C   0  0  0  0  0  0  0  0  0  0  0  0
  -20.7309   28.2575   -3.0603 C   0  0  0  0  0  0  0  0  0  0  0  0
  -21.0731   29.2720   -3.9771 C   0  0  0  0  0  0  0  0  0  0  0  0
  -22.0907   29.1726   -4.8383 N   0  0  0  0  0  0  0  0  0  0  0  0
  -21.2692   27.0071   -2.8085 N   0  0  0  0  0  0  0  0  0  0  0  0
  -20.5176   26.5293   -1.8445 C   0  0  0  0  0  0  0  0  0  0  0  0
  -19.5225   27.3792   -1.4477 N   0  0  0  0  0  0  0  0  0  0  0  0
  1  2  2  0  0  0  0
  1  6  1  0  0  0  0
  2  3  1  0  0  0  0
  3  4  2  0  0  0  0
  4  5  1  0  0  0  0
  4 10  1  0  0  0  0
  5  6  2  0  0  0  0
  5  8  1  0  0  0  0
  6  7  1  0  0  0  0
  8  9  1  0  0  0  0
  9 10  2  0  0  0  0
M  END
>  <CHROM.1>
-20.34509097,28.66570869,-2.95666288,-1.75152219,0.66148925,2.60551337

>  <Name>
ligand

>  <RI>
0

>  <Rbt.Current_Directory>
/home/itssahil/PROJECTS/Mol_Feturizer/New_Systems/rnas/4TZX

>  <Rbt.Executable>
rbdock ($Id: //depot/dev/client3/rdock/2013.1/src/exe/rbdock.cxx#4 $)

>  <Rbt.Library>
libRbt.so (2013.1, Build901 2013/11/27)

>  <Rbt.Parameter_File>
/export/apps/rDock/src/rDock_2013.1_src/data/scripts/dock_solv.prm

>  <Rbt.Receptor>
prm/blind_docking_100.prm

>  <SCORE>
-7.38571

>  <SCORE.INTER>
-7.38571

>  <SCORE.INTER.CONST>
1

>  <SCORE.INTER.POLAR>
0

>  <SCORE.INTER.ROT>
0

>  <SCORE.INTER.SOLV>
0.953825

>  <SCORE.INTER.VDW>
-8.84175

>  <SCORE.INTER.norm>
-0.738571

>  <SCORE.INTRA>
0

>  <SCORE.INTRA.DIHEDRAL>
0

>  <SCORE.INTRA.DIHEDRAL.0>
0

>  <SCORE.INTRA.POLAR>
0

>  <SCORE.INTRA.POLAR.0>
0

>  <SCORE.INTRA.REPUL>
0

>  <SCORE.INTRA.REPUL.0>
0

>  <SCORE.INTRA.SOLV>
0

>  <SCORE.INTRA.SOLV.lig_0>
-23.8949

>  <SCORE.INTRA.VDW>
0

>  <SCORE.INTRA.VDW.0>
0

>  <SCORE.INTRA.norm>
0

>  <SCORE.RESTR>
0

>  <SCORE.RESTR.CAVITY>
0

>  <SCORE.RESTR.norm>
0

>  <SCORE.SYSTEM>
0

>  <SCORE.SYSTEM.CONST>
0

>  <SCORE.SYSTEM.DIHEDRAL>
0

>  <SCORE.SYSTEM.SOLV>
0

>  <SCORE.SYSTEM.norm>
0

>  <SCORE.heavy>
10

>  <SCORE.norm>
-0.738571

>  <RMSD>
20.452

$$$$
ligand
 OpenBabel11021811513D
libRbt.so/2013.1/901 2013/11/27
 10 11  0  0  0  0  0  0  0  0999 V2000
   -7.2062   29.7494   -7.8102 N   0  0  0  0  0  0  0  0  0  0  0  0
   -6.7131   28.5086   -7.9201 C   0  0  0  0  0  0  0  0  0  0  0  0
   -7.3215   27.3423   -7.7081 N   0  0  0  0  0  0  0  0  0  0  0  0
   -8.5982   27.5312   -7.3376 C   0  0  0  0  0  0  0  0  0  0  0  0
   -9.2453   28.7427   -7.1788 C   0  0  0  0  0  0  0  0  0  0  0  0
   -8.4928   29.9064   -7.4359 C   0  0  0  0  0  0  0  0  0  0  0  0
   -8.9887   31.1428   -7.3237 N   0  0  0  0  0  0  0  0  0  0  0  0
  -10.5595   28.5484   -6.7891 N   0  0  0  0  0  0  0  0  0  0  0  0
  -10.6771   27.2431   -6.7182 C   0  0  0  0  0  0  0  0  0  0  0  0
   -9.5313   26.5678   -7.0362 N   0  0  0  0  0  0  0  0  0  0  0  0
  1  2  2  0  0  0  0
  1  6  1  0  0  0  0
  2  3  1  0  0  0  0
  3  4  2  0  0  0  0
  4  5  1  0  0  0  0
  4 10  1  0  0  0  0
  5  6  2  0  0  0  0
  5  8  1  0  0  0  0
  6  7  1  0  0  0  0
  8  9  1  0  0  0  0
  9 10  2  0  0  0  0
M  END
>  <CHROM.1>
-8.73244409,28.53914496,-7.32638225,-0.84624559,-0.28622403,3.11359960

>  <Name>
ligand

>  <RI>
0

>  <Rbt.Current_Directory>
/home/itssahil/PROJECTS/Mol_Feturizer/New_Systems/rnas/4TZX

>  <Rbt.Executable>
rbdock ($Id: //depot/dev/client3/rdock/2013.1/src/exe/rbdock.cxx#4 $)

>  <Rbt.Library>
libRbt.so (2013.1, Build901 2013/11/27)

>  <Rbt.Parameter_File>
/export/apps/rDock/src/rDock_2013.1_src/data/scripts/dock_solv.prm

>  <Rbt.Receptor>
prm/blind_docking_40.prm

>  <SCORE>
-8.08275

>  <SCORE.INTER>
-8.08275

>  <SCORE.INTER.CONST>
1

>  <SCORE.INTER.POLAR>
0

>  <SCORE.INTER.ROT>
0

>  <SCORE.INTER.SOLV>
3.76286

>  <SCORE.INTER.VDW>
-10.2428

>  <SCORE.INTER.norm>
-0.808275

>  <SCORE.INTRA>
0

>  <SCORE.INTRA.DIHEDRAL>
0

>  <SCORE.INTRA.DIHEDRAL.0>
0

>  <SCORE.INTRA.POLAR>
0

>  <SCORE.INTRA.POLAR.0>
0

>  <SCORE.INTRA.REPUL>
0

>  <SCORE.INTRA.REPUL.0>
0

>  <SCORE.INTRA.SOLV>
0

>  <SCORE.INTRA.SOLV.lig_0>
-23.8949

>  <SCORE.INTRA.VDW>
0

>  <SCORE.INTRA.VDW.0>
0

>  <SCORE.INTRA.norm>
0

>  <SCORE.RESTR>
0

>  <SCORE.RESTR.CAVITY>
0

>  <SCORE.RESTR.norm>
0

>  <SCORE.SYSTEM>
0

>  <SCORE.SYSTEM.CONST>
0

>  <SCORE.SYSTEM.DIHEDRAL>
0

>  <SCORE.SYSTEM.SOLV>
0

>  <SCORE.SYSTEM.norm>
0

>  <SCORE.heavy>
10

>  <SCORE.norm>
-0.808275

>  <RMSD>
26.196

$$$$
ligand
 OpenBabel11021811513D
libRbt.so/2013.1/901 2013/11/27
 10 11  0  0  0  0  0  0  0  0999 V2000
   -7.1652   29.7781   -7.7887 N   0  0  0  0  0  0  0  0  0  0  0  0
   -6.7015   28.5301   -7.9376 C   0  0  0  0  0  0  0  0  0  0  0  0
   -7.3336   27.3723   -7.7491 N   0  0  0  0  0  0  0  0  0  0  0  0
   -8.6012   27.5796   -7.3579 C   0  0  0  0  0  0  0  0  0  0  0  0
   -9.2189   28.8005   -7.1590 C   0  0  0  0  0  0  0  0  0  0  0  0
   -8.4434   29.9537   -7.3943 C   0  0  0  0  0  0  0  0  0  0  0  0
   -8.9098   31.1973   -7.2432 N   0  0  0  0  0  0  0  0  0  0  0  0
  -10.5324   28.6251   -6.7582 N   0  0  0  0  0  0  0  0  0  0  0  0
  -10.6786   27.3213   -6.7206 C   0  0  0  0  0  0  0  0  0  0  0  0
   -9.5522   26.6294   -7.0706 N   0  0  0  0  0  0  0  0  0  0  0  0
  1  2  2  0  0  0  0
  1  6  1  0  0  0  0
  2  3  1  0  0  0  0
  3  4  2  0  0  0  0
  4  5  1  0  0  0  0
  4 10  1  0  0  0  0
  5  6  2  0  0  0  0
  5  8  1  0  0  0  0
  6  7  1  0  0  0  0
  8  9  1  0  0  0  0
  9 10  2  0  0  0  0
M  END
>  <CHROM.1>
-8.71253882,28.58962035,-7.31822457,-0.82296162,-0.29861262,-3.13614963

>  <Name>
ligand

>  <RI>
0

>  <Rbt.Current_Directory>
/home/itssahil/PROJECTS/Mol_Feturizer/New_Systems/rnas/4TZX

>  <Rbt.Executable>
rbdock ($Id: //depot/dev/client3/rdock/2013.1/src/exe/rbdock.cxx#4 $)

>  <Rbt.Library>
libRbt.so (2013.1, Build901 2013/11/27)

>  <Rbt.Parameter_File>
/export/apps/rDock/src/rDock_2013.1_src/data/scripts/dock_solv.prm

>  <Rbt.Receptor>
prm/blind_docking_40.prm

>  <SCORE>
-8.05441

>  <SCORE.INTER>
-8.05441

>  <SCORE.INTER.CONST>
1

>  <SCORE.INTER.POLAR>
0

>  <SCORE.INTER.ROT>
0

>  <SCORE.INTER.SOLV>
4.06935

>  <SCORE.INTER.VDW>
-10.3261

>  <SCORE.INTER.norm>
-0.805441

>  <SCORE.INTRA>
0

>  <SCORE.INTRA.DIHEDRAL>
0

>  <SCORE.INTRA.DIHEDRAL.0>
0

>  <SCORE.INTRA.POLAR>
0

>  <SCORE.INTRA.POLAR.0>
0

>  <SCORE.INTRA.REPUL>
0

>  <SCORE.INTRA.REPUL.0>
0

>  <SCORE.INTRA.SOLV>
0

>  <SCORE.INTRA.SOLV.lig_0>
-23.8949

>  <SCORE.INTRA.VDW>
0

>  <SCORE.INTRA.VDW.0>
0

>  <SCORE.INTRA.norm>
0

>  <SCORE.RESTR>
0

>  <SCORE.RESTR.CAVITY>
0

>  <SCORE.RESTR.norm>
0

>  <SCORE.SYSTEM>
0

>  <SCORE.SYSTEM.CONST>
0

>  <SCORE.SYSTEM.DIHEDRAL>
0

>  <SCORE.SYSTEM.SOLV>
0

>  <SCORE.SYSTEM.norm>
0

>  <SCORE.heavy>
10

>  <SCORE.norm>
-0.805441

>  <RMSD>
26.235

$$$$
ligand
 OpenBabel11021811513D
libRbt.so/2013.1/901 2013/11/27
 10 11  0  0  0  0  0  0  0  0999 V2000
  -10.4501   29.5346   -6.1310 N   0  0  0  0  0  0  0  0  0  0  0  0
   -9.5193   30.3561   -5.6275 C   0  0  0  0  0  0  0  0  0  0  0  0
   -8.1932   30.2912   -5.7411 N   0  0  0  0  0  0  0  0  0  0  0  0
   -7.8294   29.2275   -6.4752 C   0  0  0  0  0  0  0  0  0  0  0  0
   -8.6680   28.2941   -7.0557 C   0  0  0  0  0  0  0  0  0  0  0  0
  -10.0528   28.4744   -6.8646 C   0  0  0  0  0  0  0  0  0  0  0  0
  -10.9782   27.6513   -7.3679 N   0  0  0  0  0  0  0  0  0  0  0  0
   -7.9372   27.3378   -7.7400 N   0  0  0  0  0  0  0  0  0  0  0  0
   -6.6903   27.7056   -7.5591 C   0  0  0  0  0  0  0  0  0  0  0  0
   -6.5529   28.8380   -6.8049 N   0  0  0  0  0  0  0  0  0  0  0  0
  1  2  2  0  0  0  0
  1  6  1  0  0  0  0
  2  3  1  0  0  0  0
  3  4  2  0  0  0  0
  4  5  1  0  0  0  0
  4 10  1  0  0  0  0
  5  6  2  0  0  0  0
  5  8  1  0  0  0  0
  6  7  1  0  0  0  0
  8  9  1  0  0  0  0
  9 10  2  0  0  0  0
M  END
>  <CHROM.1>
-8.69750145,28.76797842,-6.73823885,-2.82510715,-0.04387838,-2.54988733

>  <Name>
ligand

>  <RI>
0

>  <Rbt.Current_Directory>
/home/itssahil/PROJECTS/Mol_Feturizer/New_Systems/rnas/4TZX

>  <Rbt.Executable>
rbdock ($Id: //depot/dev/client3/rdock/2013.1/src/exe/rbdock.cxx#4 $)

>  <Rbt.Library>
libRbt.so (2013.1, Build901 2013/11/27)

>  <Rbt.Parameter_File>
/export/apps/rDock/src/rDock_2013.1_src/data/scripts/dock_solv.prm

>  <Rbt.Receptor>
prm/blind_docking_40.prm

>  <SCORE>
-8.86132

>  <SCORE.INTER>
-8.86132

>  <SCORE.INTER.CONST>
1

>  <SCORE.INTER.POLAR>
0

>  <SCORE.INTER.ROT>
0

>  <SCORE.INTER.SOLV>
2.87509

>  <SCORE.INTER.VDW>
-10.4659

>  <SCORE.INTER.norm>
-0.886132

>  <SCORE.INTRA>
0

>  <SCORE.INTRA.DIHEDRAL>
0

>  <SCORE.INTRA.DIHEDRAL.0>
0

>  <SCORE.INTRA.POLAR>
0

>  <SCORE.INTRA.POLAR.0>
0

>  <SCORE.INTRA.REPUL>
0

>  <SCORE.INTRA.REPUL.0>
0

>  <SCORE.INTRA.SOLV>
0

>  <SCORE.INTRA.SOLV.lig_0>
-23.8949

>  <SCORE.INTRA.VDW>
0

>  <SCORE.INTRA.VDW.0>
0

>  <SCORE.INTRA.norm>
0

>  <SCORE.RESTR>
0

>  <SCORE.RESTR.CAVITY>
0

>  <SCORE.RESTR.norm>
0

>  <SCORE.SYSTEM>
0

>  <SCORE.SYSTEM.CONST>
0

>  <SCORE.SYSTEM.DIHEDRAL>
0

>  <SCORE.SYSTEM.SOLV>
0

>  <SCORE.SYSTEM.norm>
0

>  <SCORE.heavy>
10

>  <SCORE.norm>
-0.886132

>  <RMSD>
26.429

$$$$
ligand
 OpenBabel11021811513D
libRbt.so/2013.1/901 2013/11/27
 10 11  0  0  0  0  0  0  0  0999 V2000
  -10.4737   29.6622   -6.4943 N   0  0  0  0  0  0  0  0  0  0  0  0
   -9.6111   30.3917   -5.7742 C   0  0  0  0  0  0  0  0  0  0  0  0
   -8.2942   30.2410   -5.6383 N   0  0  0  0  0  0  0  0  0  0  0  0
   -7.8583   29.1920   -6.3542 C   0  0  0  0  0  0  0  0  0  0  0  0
   -8.6222   28.3483   -7.1391 C   0  0  0  0  0  0  0  0  0  0  0  0
  -10.0049   28.6143   -7.2030 C   0  0  0  0  0  0  0  0  0  0  0  0
  -10.8623   27.8828   -7.9219 N   0  0  0  0  0  0  0  0  0  0  0  0
   -7.8303   27.3785   -7.7299 N   0  0  0  0  0  0  0  0  0  0  0  0
   -6.6225   27.6499   -7.2940 C   0  0  0  0  0  0  0  0  0  0  0  0
   -6.5672   28.7318   -6.4594 N   0  0  0  0  0  0  0  0  0  0  0  0
  1  2  2  0  0  0  0
  1  6  1  0  0  0  0
  2  3  1  0  0  0  0
  3  4  2  0  0  0  0
  4  5  1  0  0  0  0
  4 10  1  0  0  0  0
  5  6  2  0  0  0  0
  5  8  1  0  0  0  0
  6  7  1  0  0  0  0
  8  9  1  0  0  0  0
  9 10  2  0  0  0  0
M  END
>  <CHROM.1>
-8.68471050,28.80694594,-6.80450140,-2.88492810,0.15013147,-2.49090121

>  <Name>
ligand

>  <RI>
0

>  <Rbt.Current_Directory>
/home/itssahil/PROJECTS/Mol_Feturizer/New_Systems/rnas/4TZX

>  <Rbt.Executable>
rbdock ($Id: //depot/dev/client3/rdock/2013.1/src/exe/rbdock.cxx#4 $)

>  <Rbt.Library>
libRbt.so (2013.1, Build901 2013/11/27)

>  <Rbt.Parameter_File>
/export/apps/rDock/src/rDock_2013.1_src/data/scripts/dock_solv.prm

>  <Rbt.Receptor>
prm/blind_docking_40.prm

>  <SCORE>
-9.09729

>  <SCORE.INTER>
-9.09729

>  <SCORE.INTER.CONST>
1

>  <SCORE.INTER.POLAR>
0

>  <SCORE.INTER.ROT>
0

>  <SCORE.INTER.SOLV>
2.75214

>  <SCORE.INTER.VDW>
-10.5822

>  <SCORE.INTER.norm>
-0.909729

>  <SCORE.INTRA>
0

>  <SCORE.INTRA.DIHEDRAL>
0

>  <SCORE.INTRA.DIHEDRAL.0>
0

>  <SCORE.INTRA.POLAR>
0

>  <SCORE.INTRA.POLAR.0>
0

>  <SCORE.INTRA.REPUL>
0

>  <SCORE.INTRA.REPUL.0>
0

>  <SCORE.INTRA.SOLV>
0

>  <SCORE.INTRA.SOLV.lig_0>
-23.8949

>  <SCORE.INTRA.VDW>
0

>  <SCORE.INTRA.VDW.0>
0

>  <SCORE.INTRA.norm>
0

>  <SCORE.RESTR>
0

>  <SCORE.RESTR.CAVITY>
0

>  <SCORE.RESTR.norm>
0

>  <SCORE.SYSTEM>
0

>  <SCORE.SYSTEM.CONST>
0

>  <SCORE.SYSTEM.DIHEDRAL>
0

>  <SCORE.SYSTEM.SOLV>
0

>  <SCORE.SYSTEM.norm>
0

>  <SCORE.heavy>
10

>  <SCORE.norm>
-0.909729

>  <RMSD>
26.444

$$$$
ligand
 OpenBabel11021811513D
libRbt.so/2013.1/901 2013/11/27
 10 11  0  0  0  0  0  0  0  0999 V2000
  -10.4592   29.7271   -6.5571 N   0  0  0  0  0  0  0  0  0  0  0  0
   -9.5986   30.4399   -5.8183 C   0  0  0  0  0  0  0  0  0  0  0  0
   -8.2897   30.2583   -5.6467 N   0  0  0  0  0  0  0  0  0  0  0  0
   -7.8606   29.1949   -6.3452 C   0  0  0  0  0  0  0  0  0  0  0  0
   -8.6237   28.3652   -7.1456 C   0  0  0  0  0  0  0  0  0  0  0  0
   -9.9974   28.6640   -7.2476 C   0  0  0  0  0  0  0  0  0  0  0  0
  -10.8530   27.9491   -7.9852 N   0  0  0  0  0  0  0  0  0  0  0  0
   -7.8402   27.3732   -7.7101 N   0  0  0  0  0  0  0  0  0  0  0  0
   -6.6381   27.6180   -7.2437 C   0  0  0  0  0  0  0  0  0  0  0  0
   -6.5787   28.7031   -6.4136 N   0  0  0  0  0  0  0  0  0  0  0  0
  1  2  2  0  0  0  0
  1  6  1  0  0  0  0
  2  3  1  0  0  0  0
  3  4  2  0  0  0  0
  4  5  1  0  0  0  0
  4 10  1  0  0  0  0
  5  6  2  0  0  0  0
  5  8  1  0  0  0  0
  6  7  1  0  0  0  0
  8  9  1  0  0  0  0
  9 10  2  0  0  0  0
M  END
>  <CHROM.1>
-8.68389799,28.82719827,-6.81524349,-2.88160689,0.18582120,-2.49706832

>  <Name>
ligand

>  <RI>
0

>  <Rbt.Current_Directory>
/home/itssahil/PROJECTS/Mol_Feturizer/New_Systems/rnas/4TZX

>  <Rbt.Executable>
rbdock ($Id: //depot/dev/client3/rdock/2013.1/src/exe/rbdock.cxx#4 $)

>  <Rbt.Library>
libRbt.so (2013.1, Build901 2013/11/27)

>  <Rbt.Parameter_File>
/export/apps/rDock/src/rDock_2013.1_src/data/scripts/dock_solv.prm

>  <Rbt.Receptor>
prm/blind_docking_40.prm

>  <SCORE>
-9.07488

>  <SCORE.INTER>
-9.07488

>  <SCORE.INTER.CONST>
1

>  <SCORE.INTER.POLAR>
0

>  <SCORE.INTER.ROT>
0

>  <SCORE.INTER.SOLV>
2.80091

>  <SCORE.INTER.VDW>
-10.5836

>  <SCORE.INTER.norm>
-0.907488

>  <SCORE.INTRA>
0

>  <SCORE.INTRA.DIHEDRAL>
0

>  <SCORE.INTRA.DIHEDRAL.0>
0

>  <SCORE.INTRA.POLAR>
0

>  <SCORE.INTRA.POLAR.0>
0

>  <SCORE.INTRA.REPUL>
0

>  <SCORE.INTRA.REPUL.0>
0

>  <SCORE.INTRA.SOLV>
0

>  <SCORE.INTRA.SOLV.lig_0>
-23.8949

>  <SCORE.INTRA.VDW>
0

>  <SCORE.INTRA.VDW.0>
0

>  <SCORE.INTRA.norm>
0

>  <SCORE.RESTR>
0

>  <SCORE.RESTR.CAVITY>
0

>  <SCORE.RESTR.norm>
0

>  <SCORE.SYSTEM>
0

>  <SCORE.SYSTEM.CONST>
0

>  <SCORE.SYSTEM.DIHEDRAL>
0

>  <SCORE.SYSTEM.SOLV>
0

>  <SCORE.SYSTEM.norm>
0

>  <SCORE.heavy>
10

>  <SCORE.norm>
-0.907488

>  <RMSD>
26.452

$$$$
ligand
 OpenBabel11021811513D
libRbt.so/2013.1/901 2013/11/27
 10 11  0  0  0  0  0  0  0  0999 V2000
  -10.4534   29.7530   -6.5167 N   0  0  0  0  0  0  0  0  0  0  0  0
   -9.5807   30.4452   -5.7723 C   0  0  0  0  0  0  0  0  0  0  0  0
   -8.2711   30.2529   -5.6191 N   0  0  0  0  0  0  0  0  0  0  0  0
   -7.8556   29.2024   -6.3447 C   0  0  0  0  0  0  0  0  0  0  0  0
   -8.6321   28.3942   -7.1543 C   0  0  0  0  0  0  0  0  0  0  0  0
  -10.0051   28.7025   -7.2348 C   0  0  0  0  0  0  0  0  0  0  0  0
  -10.8727   28.0082   -7.9780 N   0  0  0  0  0  0  0  0  0  0  0  0
   -7.8604   27.4103   -7.7484 N   0  0  0  0  0  0  0  0  0  0  0  0
   -6.6519   27.6386   -7.2902 C   0  0  0  0  0  0  0  0  0  0  0  0
   -6.5773   28.7053   -6.4378 N   0  0  0  0  0  0  0  0  0  0  0  0
  1  2  2  0  0  0  0
  1  6  1  0  0  0  0
  2  3  1  0  0  0  0
  3  4  2  0  0  0  0
  4  5  1  0  0  0  0
  4 10  1  0  0  0  0
  5  6  2  0  0  0  0
  5  8  1  0  0  0  0
  6  7  1  0  0  0  0
  8  9  1  0  0  0  0
  9 10  2  0  0  0  0
M  END
>  <CHROM.1>
-8.68608047,28.84931624,-6.81348113,-2.87037262,0.18049737,-2.47771682

>  <Name>
ligand

>  <RI>
0

>  <Rbt.Current_Directory>
/home/itssahil/PROJECTS/Mol_Feturizer/New_Systems/rnas/4TZX

>  <Rbt.Executable>
rbdock ($Id: //depot/dev/client3/rdock/2013.1/src/exe/rbdock.cxx#4 $)

>  <Rbt.Library>
libRbt.so (2013.1, Build901 2013/11/27)

>  <Rbt.Parameter_File>
/export/apps/rDock/src/rDock_2013.1_src/data/scripts/dock_solv.prm

>  <Rbt.Receptor>
prm/blind_docking_40.prm

>  <SCORE>
-9.06962

>  <SCORE.INTER>
-9.06962

>  <SCORE.INTER.CONST>
1

>  <SCORE.INTER.POLAR>
0

>  <SCORE.INTER.ROT>
0

>  <SCORE.INTER.SOLV>
2.76071

>  <SCORE.INTER.VDW>
-10.5666

>  <SCORE.INTER.norm>
-0.906962

>  <SCORE.INTRA>
0

>  <SCORE.INTRA.DIHEDRAL>
0

>  <SCORE.INTRA.DIHEDRAL.0>
0

>  <SCORE.INTRA.POLAR>
0

>  <SCORE.INTRA.POLAR.0>
0

>  <SCORE.INTRA.REPUL>
0

>  <SCORE.INTRA.REPUL.0>
0

>  <SCORE.INTRA.SOLV>
0

>  <SCORE.INTRA.SOLV.lig_0>
-23.8949

>  <SCORE.INTRA.VDW>
0

>  <SCORE.INTRA.VDW.0>
0

>  <SCORE.INTRA.norm>
0

>  <SCORE.RESTR>
0

>  <SCORE.RESTR.CAVITY>
0

>  <SCORE.RESTR.norm>
0

>  <SCORE.SYSTEM>
0

>  <SCORE.SYSTEM.CONST>
0

>  <SCORE.SYSTEM.DIHEDRAL>
0

>  <SCORE.SYSTEM.SOLV>
0

>  <SCORE.SYSTEM.norm>
0

>  <SCORE.heavy>
10

>  <SCORE.norm>
-0.906962

>  <RMSD>
26.459

$$$$
ligand
 OpenBabel11021811513D
libRbt.so/2013.1/901 2013/11/27
 10 11  0  0  0  0  0  0  0  0999 V2000
  -10.3725   29.8372   -6.5773 N   0  0  0  0  0  0  0  0  0  0  0  0
   -9.5207   30.4683   -5.7581 C   0  0  0  0  0  0  0  0  0  0  0  0
   -8.2344   30.2103   -5.5251 N   0  0  0  0  0  0  0  0  0  0  0  0
   -7.8198   29.1599   -6.2515 C   0  0  0  0  0  0  0  0  0  0  0  0
   -8.5768   28.4101   -7.1326 C   0  0  0  0  0  0  0  0  0  0  0  0
   -9.9258   28.7851   -7.2940 C   0  0  0  0  0  0  0  0  0  0  0  0
  -10.7727   28.1517   -8.1117 N   0  0  0  0  0  0  0  0  0  0  0  0
   -7.8128   27.4060   -7.7026 N   0  0  0  0  0  0  0  0  0  0  0  0
   -6.6284   27.5651   -7.1600 C   0  0  0  0  0  0  0  0  0  0  0  0
   -6.5622   28.6053   -6.2748 N   0  0  0  0  0  0  0  0  0  0  0  0
  1  2  2  0  0  0  0
  1  6  1  0  0  0  0
  2  3  1  0  0  0  0
  3  4  2  0  0  0  0
  4  5  1  0  0  0  0
  4 10  1  0  0  0  0
  5  6  2  0  0  0  0
  5  8  1  0  0  0  0
  6  7  1  0  0  0  0
  8  9  1  0  0  0  0
  9 10  2  0  0  0  0
M  END
>  <CHROM.1>
-8.63247300,28.85851832,-6.78332953,-2.87566866,0.26119323,-2.44976206

>  <Name>
ligand

>  <RI>
0

>  <Rbt.Current_Directory>
/home/itssahil/PROJECTS/Mol_Feturizer/New_Systems/rnas/4TZX

>  <Rbt.Executable>
rbdock ($Id: //depot/dev/client3/rdock/2013.1/src/exe/rbdock.cxx#4 $)

>  <Rbt.Library>
libRbt.so (2013.1, Build901 2013/11/27)

>  <Rbt.Parameter_File>
/export/apps/rDock/src/rDock_2013.1_src/data/scripts/dock_solv.prm

>  <Rbt.Receptor>
prm/blind_docking_40.prm

>  <SCORE>
-9.05406

>  <SCORE.INTER>
-9.05406

>  <SCORE.INTER.CONST>
1

>  <SCORE.INTER.POLAR>
0

>  <SCORE.INTER.ROT>
0

>  <SCORE.INTER.SOLV>
3.31182

>  <SCORE.INTER.VDW>
-10.74

>  <SCORE.INTER.norm>
-0.905406

>  <SCORE.INTRA>
0

>  <SCORE.INTRA.DIHEDRAL>
0

>  <SCORE.INTRA.DIHEDRAL.0>
0

>  <SCORE.INTRA.POLAR>
0

>  <SCORE.INTRA.POLAR.0>
0

>  <SCORE.INTRA.REPUL>
0

>  <SCORE.INTRA.REPUL.0>
0

>  <SCORE.INTRA.SOLV>
0

>  <SCORE.INTRA.SOLV.lig_0>
-23.8949

>  <SCORE.INTRA.VDW>
0

>  <SCORE.INTRA.VDW.0>
0

>  <SCORE.INTRA.norm>
0

>  <SCORE.RESTR>
0

>  <SCORE.RESTR.CAVITY>
0

>  <SCORE.RESTR.norm>
0

>  <SCORE.SYSTEM>
0

>  <SCORE.SYSTEM.CONST>
0

>  <SCORE.SYSTEM.DIHEDRAL>
0

>  <SCORE.SYSTEM.SOLV>
0

>  <SCORE.SYSTEM.norm>
0

>  <SCORE.heavy>
10

>  <SCORE.norm>
-0.905406

>  <RMSD>
26.523

$$$$
ligand
 OpenBabel11021811513D
libRbt.so/2013.1/901 2013/11/27
 10 11  0  0  0  0  0  0  0  0999 V2000
  -10.3693   29.8057   -6.5577 N   0  0  0  0  0  0  0  0  0  0  0  0
   -9.5131   30.4540   -5.7567 C   0  0  0  0  0  0  0  0  0  0  0  0
   -8.2225   30.2082   -5.5344 N   0  0  0  0  0  0  0  0  0  0  0  0
   -7.8084   29.1509   -6.2509 C   0  0  0  0  0  0  0  0  0  0  0  0
   -8.5695   28.3837   -7.1132 C   0  0  0  0  0  0  0  0  0  0  0  0
   -9.9230   28.7470   -7.2648 C   0  0  0  0  0  0  0  0  0  0  0  0
  -10.7742   28.0964   -8.0643 N   0  0  0  0  0  0  0  0  0  0  0  0
   -7.8047   27.3772   -7.6778 N   0  0  0  0  0  0  0  0  0  0  0  0
   -6.6156   27.5521   -7.1506 C   0  0  0  0  0  0  0  0  0  0  0  0
   -6.5472   28.6048   -6.2805 N   0  0  0  0  0  0  0  0  0  0  0  0
  1  2  2  0  0  0  0
  1  6  1  0  0  0  0
  2  3  1  0  0  0  0
  3  4  2  0  0  0  0
  4  5  1  0  0  0  0
  4 10  1  0  0  0  0
  5  6  2  0  0  0  0
  5  8  1  0  0  0  0
  6  7  1  0  0  0  0
  8  9  1  0  0  0  0
  9 10  2  0  0  0  0
M  END
>  <CHROM.1>
-8.62462758,28.83648425,-6.76950896,-2.87414957,0.24818721,-2.46389135

>  <Name>
ligand

>  <RI>
0

>  <Rbt.Current_Directory>
/home/itssahil/PROJECTS/Mol_Feturizer/New_Systems/rnas/4TZX

>  <Rbt.Executable>
rbdock ($Id: //depot/dev/client3/rdock/2013.1/src/exe/rbdock.cxx#4 $)

>  <Rbt.Library>
libRbt.so (2013.1, Build901 2013/11/27)

>  <Rbt.Parameter_File>
/export/apps/rDock/src/rDock_2013.1_src/data/scripts/dock_solv.prm

>  <Rbt.Receptor>
prm/blind_docking_40.prm

>  <SCORE>
-9.07917

>  <SCORE.INTER>
-9.07917

>  <SCORE.INTER.CONST>
1

>  <SCORE.INTER.POLAR>
0

>  <SCORE.INTER.ROT>
0

>  <SCORE.INTER.SOLV>
3.21231

>  <SCORE.INTER.VDW>
-10.7235

>  <SCORE.INTER.norm>
-0.907917

>  <SCORE.INTRA>
0

>  <SCORE.INTRA.DIHEDRAL>
0

>  <SCORE.INTRA.DIHEDRAL.0>
0

>  <SCORE.INTRA.POLAR>
0

>  <SCORE.INTRA.POLAR.0>
0

>  <SCORE.INTRA.REPUL>
0

>  <SCORE.INTRA.REPUL.0>
0

>  <SCORE.INTRA.SOLV>
0

>  <SCORE.INTRA.SOLV.lig_0>
-23.8949

>  <SCORE.INTRA.VDW>
0

>  <SCORE.INTRA.VDW.0>
0

>  <SCORE.INTRA.norm>
0

>  <SCORE.RESTR>
0

>  <SCORE.RESTR.CAVITY>
0

>  <SCORE.RESTR.norm>
0

>  <SCORE.SYSTEM>
0

>  <SCORE.SYSTEM.CONST>
0

>  <SCORE.SYSTEM.DIHEDRAL>
0

>  <SCORE.SYSTEM.SOLV>
0

>  <SCORE.SYSTEM.norm>
0

>  <SCORE.heavy>
10

>  <SCORE.norm>
-0.907917

>  <RMSD>
26.525

$$$$
ligand
 OpenBabel11021811513D
libRbt.so/2013.1/901 2013/11/27
 10 11  0  0  0  0  0  0  0  0999 V2000
  -10.3688   29.8110   -6.4903 N   0  0  0  0  0  0  0  0  0  0  0  0
   -9.4974   30.4536   -5.7013 C   0  0  0  0  0  0  0  0  0  0  0  0
   -8.1994   30.2154   -5.5165 N   0  0  0  0  0  0  0  0  0  0  0  0
   -7.7955   29.1733   -6.2605 C   0  0  0  0  0  0  0  0  0  0  0  0
   -8.5725   28.4135   -7.1153 C   0  0  0  0  0  0  0  0  0  0  0  0
   -9.9323   28.7676   -7.2258 C   0  0  0  0  0  0  0  0  0  0  0  0
  -10.7987   28.1227   -8.0136 N   0  0  0  0  0  0  0  0  0  0  0  0
   -7.8145   27.4229   -7.7158 N   0  0  0  0  0  0  0  0  0  0  0  0
   -6.6135   27.5994   -7.2167 C   0  0  0  0  0  0  0  0  0  0  0  0
   -6.5310   28.6386   -6.3316 N   0  0  0  0  0  0  0  0  0  0  0  0
  1  2  2  0  0  0  0
  1  6  1  0  0  0  0
  2  3  1  0  0  0  0
  3  4  2  0  0  0  0
  4  5  1  0  0  0  0
  4 10  1  0  0  0  0
  5  6  2  0  0  0  0
  5  8  1  0  0  0  0
  6  7  1  0  0  0  0
  8  9  1  0  0  0  0
  9 10  2  0  0  0  0
M  END
>  <CHROM.1>
-8.62235025,28.86029346,-6.76294645,-2.86395935,0.22280316,-2.45008950

>  <Name>
ligand

>  <RI>
0

>  <Rbt.Current_Directory>
/home/itssahil/PROJECTS/Mol_Feturizer/New_Systems/rnas/4TZX

>  <Rbt.Executable>
rbdock ($Id: //depot/dev/client3/rdock/2013.1/src/exe/rbdock.cxx#4 $)

>  <Rbt.Library>
libRbt.so (2013.1, Build901 2013/11/27)

>  <Rbt.Parameter_File>
/export/apps/rDock/src/rDock_2013.1_src/data/scripts/dock_solv.prm

>  <Rbt.Receptor>
prm/blind_docking_80.prm

>  <SCORE>
-9.06976

>  <SCORE.INTER>
-9.06976

>  <SCORE.INTER.CONST>
1

>  <SCORE.INTER.POLAR>
0

>  <SCORE.INTER.ROT>
0

>  <SCORE.INTER.SOLV>
3.08603

>  <SCORE.INTER.VDW>
-10.6752

>  <SCORE.INTER.norm>
-0.906976

>  <SCORE.INTRA>
0

>  <SCORE.INTRA.DIHEDRAL>
0

>  <SCORE.INTRA.DIHEDRAL.0>
0

>  <SCORE.INTRA.POLAR>
0

>  <SCORE.INTRA.POLAR.0>
0

>  <SCORE.INTRA.REPUL>
0

>  <SCORE.INTRA.REPUL.0>
0

>  <SCORE.INTRA.SOLV>
0

>  <SCORE.INTRA.SOLV.lig_0>
-23.8949

>  <SCORE.INTRA.VDW>
0

>  <SCORE.INTRA.VDW.0>
0

>  <SCORE.INTRA.norm>
0

>  <SCORE.RESTR>
0

>  <SCORE.RESTR.CAVITY>
0

>  <SCORE.RESTR.norm>
0

>  <SCORE.SYSTEM>
0

>  <SCORE.SYSTEM.CONST>
0

>  <SCORE.SYSTEM.DIHEDRAL>
0

>  <SCORE.SYSTEM.SOLV>
0

>  <SCORE.SYSTEM.norm>
0

>  <SCORE.heavy>
10

>  <SCORE.norm>
-0.906976

>  <RMSD>
26.538

$$$$
ligand
 OpenBabel11021811513D
libRbt.so/2013.1/901 2013/11/27
 10 11  0  0  0  0  0  0  0  0999 V2000
   -9.3302   31.4609   -7.7162 N   0  0  0  0  0  0  0  0  0  0  0  0
   -8.0285   31.7766   -7.7443 C   0  0  0  0  0  0  0  0  0  0  0  0
   -6.9687   30.9703   -7.6990 N   0  0  0  0  0  0  0  0  0  0  0  0
   -7.3504   29.6858   -7.6138 C   0  0  0  0  0  0  0  0  0  0  0  0
   -8.6466   29.2066   -7.5725 C   0  0  0  0  0  0  0  0  0  0  0  0
   -9.6819   30.1613   -7.6302 C   0  0  0  0  0  0  0  0  0  0  0  0
  -10.9797   29.8418   -7.6005 N   0  0  0  0  0  0  0  0  0  0  0  0
   -8.6552   27.8249   -7.4859 N   0  0  0  0  0  0  0  0  0  0  0  0
   -7.3831   27.5023   -7.4736 C   0  0  0  0  0  0  0  0  0  0  0  0
   -6.5406   28.5769   -7.5478 N   0  0  0  0  0  0  0  0  0  0  0  0
  1  2  2  0  0  0  0
  1  6  1  0  0  0  0
  2  3  1  0  0  0  0
  3  4  2  0  0  0  0
  4  5  1  0  0  0  0
  4 10  1  0  0  0  0
  5  6  2  0  0  0  0
  5  8  1  0  0  0  0
  6  7  1  0  0  0  0
  8  9  1  0  0  0  0
  9 10  2  0  0  0  0
M  END
>  <CHROM.1>
-8.36709854,29.70339305,-7.60852621,-2.26212020,-0.00641245,3.07723072

>  <Name>
ligand

>  <RI>
0

>  <Rbt.Current_Directory>
/home/itssahil/PROJECTS/Mol_Feturizer/New_Systems/rnas/4TZX

>  <Rbt.Executable>
rbdock ($Id: //depot/dev/client3/rdock/2013.1/src/exe/rbdock.cxx#4 $)

>  <Rbt.Library>
libRbt.so (2013.1, Build901 2013/11/27)

>  <Rbt.Parameter_File>
/export/apps/rDock/src/rDock_2013.1_src/data/scripts/dock_solv.prm

>  <Rbt.Receptor>
prm/blind_docking_40.prm

>  <SCORE>
-9.22724

>  <SCORE.INTER>
-9.22724

>  <SCORE.INTER.CONST>
1

>  <SCORE.INTER.POLAR>
0

>  <SCORE.INTER.ROT>
0

>  <SCORE.INTER.SOLV>
1.48328

>  <SCORE.INTER.VDW>
-10.2459

>  <SCORE.INTER.norm>
-0.922724

>  <SCORE.INTRA>
0

>  <SCORE.INTRA.DIHEDRAL>
0

>  <SCORE.INTRA.DIHEDRAL.0>
0

>  <SCORE.INTRA.POLAR>
0

>  <SCORE.INTRA.POLAR.0>
0

>  <SCORE.INTRA.REPUL>
0

>  <SCORE.INTRA.REPUL.0>
0

>  <SCORE.INTRA.SOLV>
0

>  <SCORE.INTRA.SOLV.lig_0>
-23.8949

>  <SCORE.INTRA.VDW>
0

>  <SCORE.INTRA.VDW.0>
0

>  <SCORE.INTRA.norm>
0

>  <SCORE.RESTR>
0

>  <SCORE.RESTR.CAVITY>
0

>  <SCORE.RESTR.norm>
0

>  <SCORE.SYSTEM>
0

>  <SCORE.SYSTEM.CONST>
0

>  <SCORE.SYSTEM.DIHEDRAL>
0

>  <SCORE.SYSTEM.SOLV>
0

>  <SCORE.SYSTEM.norm>
0

>  <SCORE.heavy>
10

>  <SCORE.norm>
-0.922724

>  <RMSD>
26.876

$$$$
ligand
 OpenBabel11021811513D
libRbt.so/2013.1/901 2013/11/27
 10 11  0  0  0  0  0  0  0  0999 V2000
   -8.6742   27.5382   -7.2999 N   0  0  0  0  0  0  0  0  0  0  0  0
   -7.3785   27.5434   -7.6405 C   0  0  0  0  0  0  0  0  0  0  0  0
   -6.5816   28.5811   -7.8927 N   0  0  0  0  0  0  0  0  0  0  0  0
   -7.2510   29.7380   -7.7651 C   0  0  0  0  0  0  0  0  0  0  0  0
   -8.5820   29.8931   -7.4246 C   0  0  0  0  0  0  0  0  0  0  0  0
   -9.3191   28.7170   -7.1795 C   0  0  0  0  0  0  0  0  0  0  0  0
  -10.6124   28.7165   -6.8411 N   0  0  0  0  0  0  0  0  0  0  0  0
   -8.9249   31.2340   -7.3877 N   0  0  0  0  0  0  0  0  0  0  0  0
   -7.8116   31.8524   -7.7051 C   0  0  0  0  0  0  0  0  0  0  0  0
   -6.7617   31.0099   -7.9459 N   0  0  0  0  0  0  0  0  0  0  0  0
  1  2  2  0  0  0  0
  1  6  1  0  0  0  0
  2  3  1  0  0  0  0
  3  4  2  0  0  0  0
  4  5  1  0  0  0  0
  4 10  1  0  0  0  0
  5  6  2  0  0  0  0
  5  8  1  0  0  0  0
  6  7  1  0  0  0  0
  8  9  1  0  0  0  0
  9 10  2  0  0  0  0
M  END
>  <CHROM.1>
-8.19901557,29.47725521,-7.50554888,-2.00893659,0.25629332,-0.04146993

>  <Name>
ligand

>  <RI>
0

>  <Rbt.Current_Directory>
/home/itssahil/PROJECTS/Mol_Feturizer/New_Systems/rnas/4TZX

>  <Rbt.Executable>
rbdock ($Id: //depot/dev/client3/rdock/2013.1/src/exe/rbdock.cxx#4 $)

>  <Rbt.Library>
libRbt.so (2013.1, Build901 2013/11/27)

>  <Rbt.Parameter_File>
/export/apps/rDock/src/rDock_2013.1_src/data/scripts/dock_solv.prm

>  <Rbt.Receptor>
prm/blind_docking_40.prm

>  <SCORE>
-9.64117

>  <SCORE.INTER>
-9.64117

>  <SCORE.INTER.CONST>
1

>  <SCORE.INTER.POLAR>
0

>  <SCORE.INTER.ROT>
0

>  <SCORE.INTER.SOLV>
2.13188

>  <SCORE.INTER.VDW>
-10.7381

>  <SCORE.INTER.norm>
-0.964117

>  <SCORE.INTRA>
0

>  <SCORE.INTRA.DIHEDRAL>
0

>  <SCORE.INTRA.DIHEDRAL.0>
0

>  <SCORE.INTRA.POLAR>
0

>  <SCORE.INTRA.POLAR.0>
0

>  <SCORE.INTRA.REPUL>
0

>  <SCORE.INTRA.REPUL.0>
0

>  <SCORE.INTRA.SOLV>
0

>  <SCORE.INTRA.SOLV.lig_0>
-23.8949

>  <SCORE.INTRA.VDW>
0

>  <SCORE.INTRA.VDW.0>
0

>  <SCORE.INTRA.norm>
0

>  <SCORE.RESTR>
0

>  <SCORE.RESTR.CAVITY>
0

>  <SCORE.RESTR.norm>
0

>  <SCORE.SYSTEM>
0

>  <SCORE.SYSTEM.CONST>
0

>  <SCORE.SYSTEM.DIHEDRAL>
0

>  <SCORE.SYSTEM.SOLV>
0

>  <SCORE.SYSTEM.norm>
0

>  <SCORE.heavy>
10

>  <SCORE.norm>
-0.964117

>  <RMSD>
26.905

$$$$
ligand
 OpenBabel11021811513D
libRbt.so/2013.1/901 2013/11/27
 10 11  0  0  0  0  0  0  0  0999 V2000
   -9.2843   31.4507   -7.6062 N   0  0  0  0  0  0  0  0  0  0  0  0
   -7.9918   31.7582   -7.7790 C   0  0  0  0  0  0  0  0  0  0  0  0
   -6.9372   30.9460   -7.8393 N   0  0  0  0  0  0  0  0  0  0  0  0
   -7.3136   29.6649   -7.6981 C   0  0  0  0  0  0  0  0  0  0  0  0
   -8.6000   29.1940   -7.5110 C   0  0  0  0  0  0  0  0  0  0  0  0
   -9.6308   30.1543   -7.4674 C   0  0  0  0  0  0  0  0  0  0  0  0
  -10.9193   29.8431   -7.2935 N   0  0  0  0  0  0  0  0  0  0  0  0
   -8.6058   27.8134   -7.4077 N   0  0  0  0  0  0  0  0  0  0  0  0
   -7.3414   27.4833   -7.5294 C   0  0  0  0  0  0  0  0  0  0  0  0
   -6.5068   28.5519   -7.7072 N   0  0  0  0  0  0  0  0  0  0  0  0
  1  2  2  0  0  0  0
  1  6  1  0  0  0  0
  2  3  1  0  0  0  0
  3  4  2  0  0  0  0
  4  5  1  0  0  0  0
  4 10  1  0  0  0  0
  5  6  2  0  0  0  0
  5  8  1  0  0  0  0
  6  7  1  0  0  0  0
  8  9  1  0  0  0  0
  9 10  2  0  0  0  0
M  END
>  <CHROM.1>
-8.32364364,29.68867234,-7.58287702,-2.26429067,-0.11513230,3.06557389

>  <Name>
ligand

>  <RI>
0

>  <Rbt.Current_Directory>
/home/itssahil/PROJECTS/Mol_Feturizer/New_Systems/rnas/4TZX

>  <Rbt.Executable>
rbdock ($Id: //depot/dev/client3/rdock/2013.1/src/exe/rbdock.cxx#4 $)

>  <Rbt.Library>
libRbt.so (2013.1, Build901 2013/11/27)

>  <Rbt.Parameter_File>
/export/apps/rDock/src/rDock_2013.1_src/data/scripts/dock_solv.prm

>  <Rbt.Receptor>
prm/blind_docking_60.prm

>  <SCORE>
-9.28281

>  <SCORE.INTER>
-9.28281

>  <SCORE.INTER.CONST>
1

>  <SCORE.INTER.POLAR>
0

>  <SCORE.INTER.ROT>
0

>  <SCORE.INTER.SOLV>
2.00665

>  <SCORE.INTER.VDW>
-10.4574

>  <SCORE.INTER.norm>
-0.928281

>  <SCORE.INTRA>
0

>  <SCORE.INTRA.DIHEDRAL>
0

>  <SCORE.INTRA.DIHEDRAL.0>
0

>  <SCORE.INTRA.POLAR>
0

>  <SCORE.INTRA.POLAR.0>
0

>  <SCORE.INTRA.REPUL>
0

>  <SCORE.INTRA.REPUL.0>
0

>  <SCORE.INTRA.SOLV>
0

>  <SCORE.INTRA.SOLV.lig_0>
-23.8949

>  <SCORE.INTRA.VDW>
0

>  <SCORE.INTRA.VDW.0>
0

>  <SCORE.INTRA.norm>
0

>  <SCORE.RESTR>
0

>  <SCORE.RESTR.CAVITY>
0

>  <SCORE.RESTR.norm>
0

>  <SCORE.SYSTEM>
0

>  <SCORE.SYSTEM.CONST>
0

>  <SCORE.SYSTEM.DIHEDRAL>
0

>  <SCORE.SYSTEM.SOLV>
0

>  <SCORE.SYSTEM.norm>
0

>  <SCORE.heavy>
10

>  <SCORE.norm>
-0.928281

>  <RMSD>
26.911

$$$$
ligand
 OpenBabel11021811513D
libRbt.so/2013.1/901 2013/11/27
 10 11  0  0  0  0  0  0  0  0999 V2000
   -8.5878   27.4819   -7.2860 N   0  0  0  0  0  0  0  0  0  0  0  0
   -7.2973   27.5305   -7.6428 C   0  0  0  0  0  0  0  0  0  0  0  0
   -6.5369   28.5947   -7.8973 N   0  0  0  0  0  0  0  0  0  0  0  0
   -7.2409   29.7289   -7.7527 C   0  0  0  0  0  0  0  0  0  0  0  0
   -8.5717   29.8394   -7.3945 C   0  0  0  0  0  0  0  0  0  0  0  0
   -9.2681   28.6388   -7.1490 C   0  0  0  0  0  0  0  0  0  0  0  0
  -10.5563   28.5949   -6.7944 N   0  0  0  0  0  0  0  0  0  0  0  0
   -8.9562   31.1684   -7.3434 N   0  0  0  0  0  0  0  0  0  0  0  0
   -7.8672   31.8240   -7.6701 C   0  0  0  0  0  0  0  0  0  0  0  0
   -6.7944   31.0169   -7.9302 N   0  0  0  0  0  0  0  0  0  0  0  0
  1  2  2  0  0  0  0
  1  6  1  0  0  0  0
  2  3  1  0  0  0  0
  3  4  2  0  0  0  0
  4  5  1  0  0  0  0
  4 10  1  0  0  0  0
  5  6  2  0  0  0  0
  5  8  1  0  0  0  0
  6  7  1  0  0  0  0
  8  9  1  0  0  0  0
  9 10  2  0  0  0  0
M  END
>  <CHROM.1>
-8.17677237,29.43646065,-7.48329454,-1.97563909,0.26755676,-0.04289724

>  <Name>
ligand

>  <RI>
0

>  <Rbt.Current_Directory>
/home/itssahil/PROJECTS/Mol_Feturizer/New_Systems/rnas/4TZX

>  <Rbt.Executable>
rbdock ($Id: //depot/dev/client3/rdock/2013.1/src/exe/rbdock.cxx#4 $)

>  <Rbt.Library>
libRbt.so (2013.1, Build901 2013/11/27)

>  <Rbt.Parameter_File>
/export/apps/rDock/src/rDock_2013.1_src/data/scripts/dock_solv.prm

>  <Rbt.Receptor>
prm/blind_docking_40.prm

>  <SCORE>
-9.68104

>  <SCORE.INTER>
-9.68104

>  <SCORE.INTER.CONST>
1

>  <SCORE.INTER.POLAR>
0

>  <SCORE.INTER.ROT>
0

>  <SCORE.INTER.SOLV>
2.36245

>  <SCORE.INTER.VDW>
-10.8415

>  <SCORE.INTER.norm>
-0.968104

>  <SCORE.INTRA>
0

>  <SCORE.INTRA.DIHEDRAL>
0

>  <SCORE.INTRA.DIHEDRAL.0>
0

>  <SCORE.INTRA.POLAR>
0

>  <SCORE.INTRA.POLAR.0>
0

>  <SCORE.INTRA.REPUL>
0

>  <SCORE.INTRA.REPUL.0>
0

>  <SCORE.INTRA.SOLV>
0

>  <SCORE.INTRA.SOLV.lig_0>
-23.8949

>  <SCORE.INTRA.VDW>
0

>  <SCORE.INTRA.VDW.0>
0

>  <SCORE.INTRA.norm>
0

>  <SCORE.RESTR>
0

>  <SCORE.RESTR.CAVITY>
0

>  <SCORE.RESTR.norm>
0

>  <SCORE.SYSTEM>
0

>  <SCORE.SYSTEM.CONST>
0

>  <SCORE.SYSTEM.DIHEDRAL>
0

>  <SCORE.SYSTEM.SOLV>
0

>  <SCORE.SYSTEM.norm>
0

>  <SCORE.heavy>
10

>  <SCORE.norm>
-0.968104

>  <RMSD>
26.912

$$$$
ligand
 OpenBabel11021811513D
libRbt.so/2013.1/901 2013/11/27
 10 11  0  0  0  0  0  0  0  0999 V2000
   -8.6175   27.4951   -7.2686 N   0  0  0  0  0  0  0  0  0  0  0  0
   -7.3306   27.5131   -7.6406 C   0  0  0  0  0  0  0  0  0  0  0  0
   -6.5514   28.5585   -7.9153 N   0  0  0  0  0  0  0  0  0  0  0  0
   -7.2300   29.7085   -7.7749 C   0  0  0  0  0  0  0  0  0  0  0  0
   -8.5539   29.8505   -7.4026 C   0  0  0  0  0  0  0  0  0  0  0  0
   -9.2721   28.6673   -7.1362 C   0  0  0  0  0  0  0  0  0  0  0  0
  -10.5567   28.6539   -6.7664 N   0  0  0  0  0  0  0  0  0  0  0  0
   -8.9103   31.1876   -7.3615 N   0  0  0  0  0  0  0  0  0  0  0  0
   -7.8118   31.8169   -7.7077 C   0  0  0  0  0  0  0  0  0  0  0  0
   -6.7590   30.9850   -7.9714 N   0  0  0  0  0  0  0  0  0  0  0  0
  1  2  2  0  0  0  0
  1  6  1  0  0  0  0
  2  3  1  0  0  0  0
  3  4  2  0  0  0  0
  4  5  1  0  0  0  0
  4 10  1  0  0  0  0
  5  6  2  0  0  0  0
  5  8  1  0  0  0  0
  6  7  1  0  0  0  0
  8  9  1  0  0  0  0
  9 10  2  0  0  0  0
M  END
>  <CHROM.1>
-8.16851318,29.43844823,-7.49161623,-1.99663010,0.28006502,-0.04788888

>  <Name>
ligand

>  <RI>
0

>  <Rbt.Current_Directory>
/home/itssahil/PROJECTS/Mol_Feturizer/New_Systems/rnas/4TZX

>  <Rbt.Executable>
rbdock ($Id: //depot/dev/client3/rdock/2013.1/src/exe/rbdock.cxx#4 $)

>  <Rbt.Library>
libRbt.so (2013.1, Build901 2013/11/27)

>  <Rbt.Parameter_File>
/export/apps/rDock/src/rDock_2013.1_src/data/scripts/dock_solv.prm

>  <Rbt.Receptor>
prm/blind_docking_40.prm

>  <SCORE>
-9.71792

>  <SCORE.INTER>
-9.71792

>  <SCORE.INTER.CONST>
1

>  <SCORE.INTER.POLAR>
0

>  <SCORE.INTER.ROT>
0

>  <SCORE.INTER.SOLV>
2.35509

>  <SCORE.INTER.VDW>
-10.8636

>  <SCORE.INTER.norm>
-0.971792

>  <SCORE.INTRA>
0

>  <SCORE.INTRA.DIHEDRAL>
0

>  <SCORE.INTRA.DIHEDRAL.0>
0

>  <SCORE.INTRA.POLAR>
0

>  <SCORE.INTRA.POLAR.0>
0

>  <SCORE.INTRA.REPUL>
0

>  <SCORE.INTRA.REPUL.0>
0

>  <SCORE.INTRA.SOLV>
0

>  <SCORE.INTRA.SOLV.lig_0>
-23.8949

>  <SCORE.INTRA.VDW>
0

>  <SCORE.INTRA.VDW.0>
0

>  <SCORE.INTRA.norm>
0

>  <SCORE.RESTR>
0

>  <SCORE.RESTR.CAVITY>
0

>  <SCORE.RESTR.norm>
0

>  <SCORE.SYSTEM>
0

>  <SCORE.SYSTEM.CONST>
0

>  <SCORE.SYSTEM.DIHEDRAL>
0

>  <SCORE.SYSTEM.SOLV>
0

>  <SCORE.SYSTEM.norm>
0

>  <SCORE.heavy>
10

>  <SCORE.norm>
-0.971792

>  <RMSD>
26.917

$$$$
ligand
 OpenBabel11021811513D
libRbt.so/2013.1/901 2013/11/27
 10 11  0  0  0  0  0  0  0  0999 V2000
   -9.2528   31.4681   -7.5887 N   0  0  0  0  0  0  0  0  0  0  0  0
   -7.9592   31.7643   -7.7722 C   0  0  0  0  0  0  0  0  0  0  0  0
   -6.9135   30.9422   -7.8515 N   0  0  0  0  0  0  0  0  0  0  0  0
   -7.3014   29.6636   -7.7188 C   0  0  0  0  0  0  0  0  0  0  0  0
   -8.5905   29.2038   -7.5226 C   0  0  0  0  0  0  0  0  0  0  0  0
   -9.6110   30.1739   -7.4588 C   0  0  0  0  0  0  0  0  0  0  0  0
  -10.9006   29.8739   -7.2743 N   0  0  0  0  0  0  0  0  0  0  0  0
   -8.6092   27.8224   -7.4326 N   0  0  0  0  0  0  0  0  0  0  0  0
   -7.3495   27.4809   -7.5710 C   0  0  0  0  0  0  0  0  0  0  0  0
   -6.5060   28.5427   -7.7472 N   0  0  0  0  0  0  0  0  0  0  0  0
  1  2  2  0  0  0  0
  1  6  1  0  0  0  0
  2  3  1  0  0  0  0
  3  4  2  0  0  0  0
  4  5  1  0  0  0  0
  4 10  1  0  0  0  0
  5  6  2  0  0  0  0
  5  8  1  0  0  0  0
  6  7  1  0  0  0  0
  8  9  1  0  0  0  0
  9 10  2  0  0  0  0
M  END
>  <CHROM.1>
-8.30990372,29.69637440,-7.59263621,-2.25491790,-0.12637239,3.07645209

>  <Name>
ligand

>  <RI>
0

>  <Rbt.Current_Directory>
/home/itssahil/PROJECTS/Mol_Feturizer/New_Systems/rnas/4TZX

>  <Rbt.Executable>
rbdock ($Id: //depot/dev/client3/rdock/2013.1/src/exe/rbdock.cxx#4 $)

>  <Rbt.Library>
libRbt.so (2013.1, Build901 2013/11/27)

>  <Rbt.Parameter_File>
/export/apps/rDock/src/rDock_2013.1_src/data/scripts/dock_solv.prm

>  <Rbt.Receptor>
prm/blind_docking_40.prm

>  <SCORE>
-9.26539

>  <SCORE.INTER>
-9.26539

>  <SCORE.INTER.CONST>
1

>  <SCORE.INTER.POLAR>
0

>  <SCORE.INTER.ROT>
0

>  <SCORE.INTER.SOLV>
2.08939

>  <SCORE.INTER.VDW>
-10.4734

>  <SCORE.INTER.norm>
-0.926539

>  <SCORE.INTRA>
0

>  <SCORE.INTRA.DIHEDRAL>
0

>  <SCORE.INTRA.DIHEDRAL.0>
0

>  <SCORE.INTRA.POLAR>
0

>  <SCORE.INTRA.POLAR.0>
0

>  <SCORE.INTRA.REPUL>
0

>  <SCORE.INTRA.REPUL.0>
0

>  <SCORE.INTRA.SOLV>
0

>  <SCORE.INTRA.SOLV.lig_0>
-23.8949

>  <SCORE.INTRA.VDW>
0

>  <SCORE.INTRA.VDW.0>
0

>  <SCORE.INTRA.norm>
0

>  <SCORE.RESTR>
0

>  <SCORE.RESTR.CAVITY>
0

>  <SCORE.RESTR.norm>
0

>  <SCORE.SYSTEM>
0

>  <SCORE.SYSTEM.CONST>
0

>  <SCORE.SYSTEM.DIHEDRAL>
0

>  <SCORE.SYSTEM.SOLV>
0

>  <SCORE.SYSTEM.norm>
0

>  <SCORE.heavy>
10

>  <SCORE.norm>
-0.926539

>  <RMSD>
26.922

$$$$
ligand
 OpenBabel11021811513D
libRbt.so/2013.1/901 2013/11/27
 10 11  0  0  0  0  0  0  0  0999 V2000
   -8.6118   27.5024   -7.2608 N   0  0  0  0  0  0  0  0  0  0  0  0
   -7.3218   27.5372   -7.6205 C   0  0  0  0  0  0  0  0  0  0  0  0
   -6.5514   28.5931   -7.8795 N   0  0  0  0  0  0  0  0  0  0  0  0
   -7.2436   29.7346   -7.7362 C   0  0  0  0  0  0  0  0  0  0  0  0
   -8.5724   29.8593   -7.3753 C   0  0  0  0  0  0  0  0  0  0  0  0
   -9.2802   28.6663   -7.1251 C   0  0  0  0  0  0  0  0  0  0  0  0
  -10.5680   28.6362   -6.7675 N   0  0  0  0  0  0  0  0  0  0  0  0
   -8.9436   31.1922   -7.3267 N   0  0  0  0  0  0  0  0  0  0  0  0
   -7.8488   31.8361   -7.6575 C   0  0  0  0  0  0  0  0  0  0  0  0
   -6.7847   31.0177   -7.9181 N   0  0  0  0  0  0  0  0  0  0  0  0
  1  2  2  0  0  0  0
  1  6  1  0  0  0  0
  2  3  1  0  0  0  0
  3  4  2  0  0  0  0
  4  5  1  0  0  0  0
  4 10  1  0  0  0  0
  5  6  2  0  0  0  0
  5  8  1  0  0  0  0
  6  7  1  0  0  0  0
  8  9  1  0  0  0  0
  9 10  2  0  0  0  0
M  END
>  <CHROM.1>
-8.18177612,29.45220148,-7.46393638,-1.98587997,0.27025186,-0.04272549

>  <Name>
ligand

>  <RI>
0

>  <Rbt.Current_Directory>
/home/itssahil/PROJECTS/Mol_Feturizer/New_Systems/rnas/4TZX

>  <Rbt.Executable>
rbdock ($Id: //depot/dev/client3/rdock/2013.1/src/exe/rbdock.cxx#4 $)

>  <Rbt.Library>
libRbt.so (2013.1, Build901 2013/11/27)

>  <Rbt.Parameter_File>
/export/apps/rDock/src/rDock_2013.1_src/data/scripts/dock_solv.prm

>  <Rbt.Receptor>
prm/blind_docking_40.prm

>  <SCORE>
-9.693

>  <SCORE.INTER>
-9.693

>  <SCORE.INTER.CONST>
1

>  <SCORE.INTER.POLAR>
0

>  <SCORE.INTER.ROT>
0

>  <SCORE.INTER.SOLV>
2.38291

>  <SCORE.INTER.VDW>
-10.8563

>  <SCORE.INTER.norm>
-0.9693

>  <SCORE.INTRA>
0

>  <SCORE.INTRA.DIHEDRAL>
0

>  <SCORE.INTRA.DIHEDRAL.0>
0

>  <SCORE.INTRA.POLAR>
0

>  <SCORE.INTRA.POLAR.0>
0

>  <SCORE.INTRA.REPUL>
0

>  <SCORE.INTRA.REPUL.0>
0

>  <SCORE.INTRA.SOLV>
0

>  <SCORE.INTRA.SOLV.lig_0>
-23.8949

>  <SCORE.INTRA.VDW>
0

>  <SCORE.INTRA.VDW.0>
0

>  <SCORE.INTRA.norm>
0

>  <SCORE.RESTR>
0

>  <SCORE.RESTR.CAVITY>
0

>  <SCORE.RESTR.norm>
0

>  <SCORE.SYSTEM>
0

>  <SCORE.SYSTEM.CONST>
0

>  <SCORE.SYSTEM.DIHEDRAL>
0

>  <SCORE.SYSTEM.SOLV>
0

>  <SCORE.SYSTEM.norm>
0

>  <SCORE.heavy>
10

>  <SCORE.norm>
-0.9693

>  <RMSD>
26.922

$$$$
ligand
 OpenBabel11021811513D
libRbt.so/2013.1/901 2013/11/27
 10 11  0  0  0  0  0  0  0  0999 V2000
   -8.6601   27.5359   -7.3007 N   0  0  0  0  0  0  0  0  0  0  0  0
   -7.3688   27.5314   -7.6575 C   0  0  0  0  0  0  0  0  0  0  0  0
   -6.5653   28.5635   -7.9120 N   0  0  0  0  0  0  0  0  0  0  0  0
   -7.2220   29.7257   -7.7672 C   0  0  0  0  0  0  0  0  0  0  0  0
   -8.5471   29.8907   -7.4089 C   0  0  0  0  0  0  0  0  0  0  0  0
   -9.2923   28.7198   -7.1635 C   0  0  0  0  0  0  0  0  0  0  0  0
  -10.5812   28.7288   -6.8089 N   0  0  0  0  0  0  0  0  0  0  0  0
   -8.8767   31.2344   -7.3577 N   0  0  0  0  0  0  0  0  0  0  0  0
   -7.7616   31.8447   -7.6843 C   0  0  0  0  0  0  0  0  0  0  0  0
   -6.7229   30.9942   -7.9446 N   0  0  0  0  0  0  0  0  0  0  0  0
  1  2  2  0  0  0  0
  1  6  1  0  0  0  0
  2  3  1  0  0  0  0
  3  4  2  0  0  0  0
  4  5  1  0  0  0  0
  4 10  1  0  0  0  0
  5  6  2  0  0  0  0
  5  8  1  0  0  0  0
  6  7  1  0  0  0  0
  8  9  1  0  0  0  0
  9 10  2  0  0  0  0
M  END
>  <CHROM.1>
-8.16911101,29.47189398,-7.49778972,-2.01827120,0.26913706,-0.03147169

>  <Name>
ligand

>  <RI>
0

>  <Rbt.Current_Directory>
/home/itssahil/PROJECTS/Mol_Feturizer/New_Systems/rnas/4TZX

>  <Rbt.Executable>
rbdock ($Id: //depot/dev/client3/rdock/2013.1/src/exe/rbdock.cxx#4 $)

>  <Rbt.Library>
libRbt.so (2013.1, Build901 2013/11/27)

>  <Rbt.Parameter_File>
/export/apps/rDock/src/rDock_2013.1_src/data/scripts/dock_solv.prm

>  <Rbt.Receptor>
prm/blind_docking_40.prm

>  <SCORE>
-9.69477

>  <SCORE.INTER>
-9.69477

>  <SCORE.INTER.CONST>
1

>  <SCORE.INTER.POLAR>
0

>  <SCORE.INTER.ROT>
0

>  <SCORE.INTER.SOLV>
2.205

>  <SCORE.INTER.VDW>
-10.7982

>  <SCORE.INTER.norm>
-0.969477

>  <SCORE.INTRA>
0

>  <SCORE.INTRA.DIHEDRAL>
0

>  <SCORE.INTRA.DIHEDRAL.0>
0

>  <SCORE.INTRA.POLAR>
0

>  <SCORE.INTRA.POLAR.0>
0

>  <SCORE.INTRA.REPUL>
0

>  <SCORE.INTRA.REPUL.0>
0

>  <SCORE.INTRA.SOLV>
0

>  <SCORE.INTRA.SOLV.lig_0>
-23.8949

>  <SCORE.INTRA.VDW>
0

>  <SCORE.INTRA.VDW.0>
0

>  <SCORE.INTRA.norm>
0

>  <SCORE.RESTR>
0

>  <SCORE.RESTR.CAVITY>
0

>  <SCORE.RESTR.norm>
0

>  <SCORE.SYSTEM>
0

>  <SCORE.SYSTEM.CONST>
0

>  <SCORE.SYSTEM.DIHEDRAL>
0

>  <SCORE.SYSTEM.SOLV>
0

>  <SCORE.SYSTEM.norm>
0

>  <SCORE.heavy>
10

>  <SCORE.norm>
-0.969477

>  <RMSD>
26.931

$$$$
ligand
 OpenBabel11021811513D
libRbt.so/2013.1/901 2013/11/27
 10 11  0  0  0  0  0  0  0  0999 V2000
   -8.6594   27.5736   -7.3102 N   0  0  0  0  0  0  0  0  0  0  0  0
   -7.3630   27.5996   -7.6468 C   0  0  0  0  0  0  0  0  0  0  0  0
   -6.5762   28.6507   -7.8741 N   0  0  0  0  0  0  0  0  0  0  0  0
   -7.2579   29.7976   -7.7231 C   0  0  0  0  0  0  0  0  0  0  0  0
   -8.5913   29.9315   -7.3832 C   0  0  0  0  0  0  0  0  0  0  0  0
   -9.3169   28.7428   -7.1660 C   0  0  0  0  0  0  0  0  0  0  0  0
  -10.6110   28.7215   -6.8314 N   0  0  0  0  0  0  0  0  0  0  0  0
   -8.9482   31.2676   -7.3180 N   0  0  0  0  0  0  0  0  0  0  0  0
   -7.8405   31.9043   -7.6186 C   0  0  0  0  0  0  0  0  0  0  0  0
   -6.7813   31.0781   -7.8747 N   0  0  0  0  0  0  0  0  0  0  0  0
  1  2  2  0  0  0  0
  1  6  1  0  0  0  0
  2  3  1  0  0  0  0
  3  4  2  0  0  0  0
  4  5  1  0  0  0  0
  4 10  1  0  0  0  0
  5  6  2  0  0  0  0
  5  8  1  0  0  0  0
  6  7  1  0  0  0  0
  8  9  1  0  0  0  0
  9 10  2  0  0  0  0
M  END
>  <CHROM.1>
-8.20381676,29.52147616,-7.47207794,-1.99835823,0.25319038,-0.02228125

>  <Name>
ligand

>  <RI>
0

>  <Rbt.Current_Directory>
/home/itssahil/PROJECTS/Mol_Feturizer/New_Systems/rnas/4TZX

>  <Rbt.Executable>
rbdock ($Id: //depot/dev/client3/rdock/2013.1/src/exe/rbdock.cxx#4 $)

>  <Rbt.Library>
libRbt.so (2013.1, Build901 2013/11/27)

>  <Rbt.Parameter_File>
/export/apps/rDock/src/rDock_2013.1_src/data/scripts/dock_solv.prm

>  <Rbt.Receptor>
prm/blind_docking_40.prm

>  <SCORE>
-9.71653

>  <SCORE.INTER>
-9.71653

>  <SCORE.INTER.CONST>
1

>  <SCORE.INTER.POLAR>
0

>  <SCORE.INTER.ROT>
0

>  <SCORE.INTER.SOLV>
2.17675

>  <SCORE.INTER.VDW>
-10.8033

>  <SCORE.INTER.norm>
-0.971653

>  <SCORE.INTRA>
0

>  <SCORE.INTRA.DIHEDRAL>
0

>  <SCORE.INTRA.DIHEDRAL.0>
0

>  <SCORE.INTRA.POLAR>
0

>  <SCORE.INTRA.POLAR.0>
0

>  <SCORE.INTRA.REPUL>
0

>  <SCORE.INTRA.REPUL.0>
0

>  <SCORE.INTRA.SOLV>
0

>  <SCORE.INTRA.SOLV.lig_0>
-23.8949

>  <SCORE.INTRA.VDW>
0

>  <SCORE.INTRA.VDW.0>
0

>  <SCORE.INTRA.norm>
0

>  <SCORE.RESTR>
0

>  <SCORE.RESTR.CAVITY>
0

>  <SCORE.RESTR.norm>
0

>  <SCORE.SYSTEM>
0

>  <SCORE.SYSTEM.CONST>
0

>  <SCORE.SYSTEM.DIHEDRAL>
0

>  <SCORE.SYSTEM.SOLV>
0

>  <SCORE.SYSTEM.norm>
0

>  <SCORE.heavy>
10

>  <SCORE.norm>
-0.971653

>  <RMSD>
26.933

$$$$
ligand
 OpenBabel11021811513D
libRbt.so/2013.1/901 2013/11/27
 10 11  0  0  0  0  0  0  0  0999 V2000
   -8.6981   27.5508   -7.3017 N   0  0  0  0  0  0  0  0  0  0  0  0
   -7.4049   27.5341   -7.6512 C   0  0  0  0  0  0  0  0  0  0  0  0
   -6.5875   28.5586   -7.8910 N   0  0  0  0  0  0  0  0  0  0  0  0
   -7.2308   29.7273   -7.7388 C   0  0  0  0  0  0  0  0  0  0  0  0
   -8.5559   29.9051   -7.3864 C   0  0  0  0  0  0  0  0  0  0  0  0
   -9.3166   28.7410   -7.1565 C   0  0  0  0  0  0  0  0  0  0  0  0
  -10.6074   28.7623   -6.8092 N   0  0  0  0  0  0  0  0  0  0  0  0
   -8.8694   31.2521   -7.3239 N   0  0  0  0  0  0  0  0  0  0  0  0
   -7.7452   31.8519   -7.6383 C   0  0  0  0  0  0  0  0  0  0  0  0
   -6.7154   30.9913   -7.9010 N   0  0  0  0  0  0  0  0  0  0  0  0
  1  2  2  0  0  0  0
  1  6  1  0  0  0  0
  2  3  1  0  0  0  0
  3  4  2  0  0  0  0
  4  5  1  0  0  0  0
  4 10  1  0  0  0  0
  5  6  2  0  0  0  0
  5  8  1  0  0  0  0
  6  7  1  0  0  0  0
  8  9  1  0  0  0  0
  9 10  2  0  0  0  0
M  END
>  <CHROM.1>
-8.18251735,29.48250898,-7.47716342,-2.03103378,0.26371487,-0.01844427

>  <Name>
ligand

>  <RI>
0

>  <Rbt.Current_Directory>
/home/itssahil/PROJECTS/Mol_Feturizer/New_Systems/rnas/4TZX

>  <Rbt.Executable>
rbdock ($Id: //depot/dev/client3/rdock/2013.1/src/exe/rbdock.cxx#4 $)

>  <Rbt.Library>
libRbt.so (2013.1, Build901 2013/11/27)

>  <Rbt.Parameter_File>
/export/apps/rDock/src/rDock_2013.1_src/data/scripts/dock_solv.prm

>  <Rbt.Receptor>
prm/blind_docking_80.prm

>  <SCORE>
-9.68248

>  <SCORE.INTER>
-9.68248

>  <SCORE.INTER.CONST>
1

>  <SCORE.INTER.POLAR>
0

>  <SCORE.INTER.ROT>
0

>  <SCORE.INTER.SOLV>
2.19382

>  <SCORE.INTER.VDW>
-10.7863

>  <SCORE.INTER.norm>
-0.968248

>  <SCORE.INTRA>
0

>  <SCORE.INTRA.DIHEDRAL>
0

>  <SCORE.INTRA.DIHEDRAL.0>
0

>  <SCORE.INTRA.POLAR>
0

>  <SCORE.INTRA.POLAR.0>
0

>  <SCORE.INTRA.REPUL>
0

>  <SCORE.INTRA.REPUL.0>
0

>  <SCORE.INTRA.SOLV>
0

>  <SCORE.INTRA.SOLV.lig_0>
-23.8949

>  <SCORE.INTRA.VDW>
0

>  <SCORE.INTRA.VDW.0>
0

>  <SCORE.INTRA.norm>
0

>  <SCORE.RESTR>
0

>  <SCORE.RESTR.CAVITY>
0

>  <SCORE.RESTR.norm>
0

>  <SCORE.SYSTEM>
0

>  <SCORE.SYSTEM.CONST>
0

>  <SCORE.SYSTEM.DIHEDRAL>
0

>  <SCORE.SYSTEM.SOLV>
0

>  <SCORE.SYSTEM.norm>
0

>  <SCORE.heavy>
10

>  <SCORE.norm>
-0.968248

>  <RMSD>
26.933

$$$$
ligand
 OpenBabel11021811513D
libRbt.so/2013.1/901 2013/11/27
 10 11  0  0  0  0  0  0  0  0999 V2000
   -8.6679   27.5671   -7.3227 N   0  0  0  0  0  0  0  0  0  0  0  0
   -7.3720   27.5863   -7.6621 C   0  0  0  0  0  0  0  0  0  0  0  0
   -6.5780   28.6335   -7.8823 N   0  0  0  0  0  0  0  0  0  0  0  0
   -7.2508   29.7841   -7.7202 C   0  0  0  0  0  0  0  0  0  0  0  0
   -8.5824   29.9250   -7.3761 C   0  0  0  0  0  0  0  0  0  0  0  0
   -9.3163   28.7399   -7.1672 C   0  0  0  0  0  0  0  0  0  0  0  0
  -10.6098   28.7254   -6.8299 N   0  0  0  0  0  0  0  0  0  0  0  0
   -8.9292   31.2631   -7.2989 N   0  0  0  0  0  0  0  0  0  0  0  0
   -7.8176   31.8940   -7.5967 C   0  0  0  0  0  0  0  0  0  0  0  0
   -6.7651   31.0623   -7.8621 N   0  0  0  0  0  0  0  0  0  0  0  0
  1  2  2  0  0  0  0
  1  6  1  0  0  0  0
  2  3  1  0  0  0  0
  3  4  2  0  0  0  0
  4  5  1  0  0  0  0
  4 10  1  0  0  0  0
  5  6  2  0  0  0  0
  5  8  1  0  0  0  0
  6  7  1  0  0  0  0
  8  9  1  0  0  0  0
  9 10  2  0  0  0  0
M  END
>  <CHROM.1>
-8.19820284,29.51285675,-7.46932259,-2.00596938,0.25554860,-0.01198792

>  <Name>
ligand

>  <RI>
0

>  <Rbt.Current_Directory>
/home/itssahil/PROJECTS/Mol_Feturizer/New_Systems/rnas/4TZX

>  <Rbt.Executable>
rbdock ($Id: //depot/dev/client3/rdock/2013.1/src/exe/rbdock.cxx#4 $)

>  <Rbt.Library>
libRbt.so (2013.1, Build901 2013/11/27)

>  <Rbt.Parameter_File>
/export/apps/rDock/src/rDock_2013.1_src/data/scripts/dock_solv.prm

>  <Rbt.Receptor>
prm/blind_docking_40.prm

>  <SCORE>
-9.71076

>  <SCORE.INTER>
-9.71076

>  <SCORE.INTER.CONST>
1

>  <SCORE.INTER.POLAR>
0

>  <SCORE.INTER.ROT>
0

>  <SCORE.INTER.SOLV>
2.194

>  <SCORE.INTER.VDW>
-10.8052

>  <SCORE.INTER.norm>
-0.971076

>  <SCORE.INTRA>
0

>  <SCORE.INTRA.DIHEDRAL>
0

>  <SCORE.INTRA.DIHEDRAL.0>
0

>  <SCORE.INTRA.POLAR>
0

>  <SCORE.INTRA.POLAR.0>
0

>  <SCORE.INTRA.REPUL>
0

>  <SCORE.INTRA.REPUL.0>
0

>  <SCORE.INTRA.SOLV>
0

>  <SCORE.INTRA.SOLV.lig_0>
-23.8949

>  <SCORE.INTRA.VDW>
0

>  <SCORE.INTRA.VDW.0>
0

>  <SCORE.INTRA.norm>
0

>  <SCORE.RESTR>
0

>  <SCORE.RESTR.CAVITY>
0

>  <SCORE.RESTR.norm>
0

>  <SCORE.SYSTEM>
0

>  <SCORE.SYSTEM.CONST>
0

>  <SCORE.SYSTEM.DIHEDRAL>
0

>  <SCORE.SYSTEM.SOLV>
0

>  <SCORE.SYSTEM.norm>
0

>  <SCORE.heavy>
10

>  <SCORE.norm>
-0.971076

>  <RMSD>
26.936

$$$$
ligand
 OpenBabel11021811513D
libRbt.so/2013.1/901 2013/11/27
 10 11  0  0  0  0  0  0  0  0999 V2000
   -8.6577   27.5748   -7.2966 N   0  0  0  0  0  0  0  0  0  0  0  0
   -7.3625   27.5982   -7.6381 C   0  0  0  0  0  0  0  0  0  0  0  0
   -6.5752   28.6476   -7.8709 N   0  0  0  0  0  0  0  0  0  0  0  0
   -7.2547   29.7959   -7.7205 C   0  0  0  0  0  0  0  0  0  0  0  0
   -8.5867   29.9325   -7.3760 C   0  0  0  0  0  0  0  0  0  0  0  0
   -9.3131   28.7453   -7.1531 C   0  0  0  0  0  0  0  0  0  0  0  0
  -10.6060   28.7266   -6.8138 N   0  0  0  0  0  0  0  0  0  0  0  0
   -8.9416   31.2692   -7.3131 N   0  0  0  0  0  0  0  0  0  0  0  0
   -7.8342   31.9036   -7.6193 C   0  0  0  0  0  0  0  0  0  0  0  0
   -6.7770   31.0753   -7.8772 N   0  0  0  0  0  0  0  0  0  0  0  0
  1  2  2  0  0  0  0
  1  6  1  0  0  0  0
  2  3  1  0  0  0  0
  3  4  2  0  0  0  0
  4  5  1  0  0  0  0
  4 10  1  0  0  0  0
  5  6  2  0  0  0  0
  5  8  1  0  0  0  0
  6  7  1  0  0  0  0
  8  9  1  0  0  0  0
  9 10  2  0  0  0  0
M  END
>  <CHROM.1>
-8.20012773,29.52166034,-7.46528060,-1.99965815,0.25684896,-0.02456702

>  <Name>
ligand

>  <RI>
0

>  <Rbt.Current_Directory>
/home/itssahil/PROJECTS/Mol_Feturizer/New_Systems/rnas/4TZX

>  <Rbt.Executable>
rbdock ($Id: //depot/dev/client3/rdock/2013.1/src/exe/rbdock.cxx#4 $)

>  <Rbt.Library>
libRbt.so (2013.1, Build901 2013/11/27)

>  <Rbt.Parameter_File>
/export/apps/rDock/src/rDock_2013.1_src/data/scripts/dock_solv.prm

>  <Rbt.Receptor>
prm/blind_docking_40.prm

>  <SCORE>
-9.71741

>  <SCORE.INTER>
-9.71741

>  <SCORE.INTER.CONST>
1

>  <SCORE.INTER.POLAR>
0

>  <SCORE.INTER.ROT>
0

>  <SCORE.INTER.SOLV>
2.20076

>  <SCORE.INTER.VDW>
-10.8119

>  <SCORE.INTER.norm>
-0.971741

>  <SCORE.INTRA>
0

>  <SCORE.INTRA.DIHEDRAL>
0

>  <SCORE.INTRA.DIHEDRAL.0>
0

>  <SCORE.INTRA.POLAR>
0

>  <SCORE.INTRA.POLAR.0>
0

>  <SCORE.INTRA.REPUL>
0

>  <SCORE.INTRA.REPUL.0>
0

>  <SCORE.INTRA.SOLV>
0

>  <SCORE.INTRA.SOLV.lig_0>
-23.8949

>  <SCORE.INTRA.VDW>
0

>  <SCORE.INTRA.VDW.0>
0

>  <SCORE.INTRA.norm>
0

>  <SCORE.RESTR>
0

>  <SCORE.RESTR.CAVITY>
0

>  <SCORE.RESTR.norm>
0

>  <SCORE.SYSTEM>
0

>  <SCORE.SYSTEM.CONST>
0

>  <SCORE.SYSTEM.DIHEDRAL>
0

>  <SCORE.SYSTEM.SOLV>
0

>  <SCORE.SYSTEM.norm>
0

>  <SCORE.heavy>
10

>  <SCORE.norm>
-0.971741

>  <RMSD>
26.938

$$$$
ligand
 OpenBabel11021811513D
libRbt.so/2013.1/901 2013/11/27
 10 11  0  0  0  0  0  0  0  0999 V2000
   -9.2267   31.5002   -7.5826 N   0  0  0  0  0  0  0  0  0  0  0  0
   -7.9328   31.7882   -7.7772 C   0  0  0  0  0  0  0  0  0  0  0  0
   -6.8930   30.9597   -7.8646 N   0  0  0  0  0  0  0  0  0  0  0  0
   -7.2876   29.6836   -7.7276 C   0  0  0  0  0  0  0  0  0  0  0  0
   -8.5777   29.2320   -7.5201 C   0  0  0  0  0  0  0  0  0  0  0  0
   -9.5918   30.2084   -7.4485 C   0  0  0  0  0  0  0  0  0  0  0  0
  -10.8816   29.9165   -7.2529 N   0  0  0  0  0  0  0  0  0  0  0  0
   -8.6043   27.8508   -7.4289 N   0  0  0  0  0  0  0  0  0  0  0  0
   -7.3479   27.5013   -7.5776 C   0  0  0  0  0  0  0  0  0  0  0  0
   -6.4994   28.5578   -7.7618 N   0  0  0  0  0  0  0  0  0  0  0  0
  1  2  2  0  0  0  0
  1  6  1  0  0  0  0
  2  3  1  0  0  0  0
  3  4  2  0  0  0  0
  4  5  1  0  0  0  0
  4 10  1  0  0  0  0
  5  6  2  0  0  0  0
  5  8  1  0  0  0  0
  6  7  1  0  0  0  0
  8  9  1  0  0  0  0
  9 10  2  0  0  0  0
M  END
>  <CHROM.1>
-8.29475674,29.72269225,-7.59293273,-2.24926091,-0.13518179,3.07638693

>  <Name>
ligand

>  <RI>
0

>  <Rbt.Current_Directory>
/home/itssahil/PROJECTS/Mol_Feturizer/New_Systems/rnas/4TZX

>  <Rbt.Executable>
rbdock ($Id: //depot/dev/client3/rdock/2013.1/src/exe/rbdock.cxx#4 $)

>  <Rbt.Library>
libRbt.so (2013.1, Build901 2013/11/27)

>  <Rbt.Parameter_File>
/export/apps/rDock/src/rDock_2013.1_src/data/scripts/dock_solv.prm

>  <Rbt.Receptor>
prm/blind_docking_80.prm

>  <SCORE>
-9.26333

>  <SCORE.INTER>
-9.26333

>  <SCORE.INTER.CONST>
1

>  <SCORE.INTER.POLAR>
0

>  <SCORE.INTER.ROT>
0

>  <SCORE.INTER.SOLV>
2.19195

>  <SCORE.INTER.VDW>
-10.5062

>  <SCORE.INTER.norm>
-0.926333

>  <SCORE.INTRA>
0

>  <SCORE.INTRA.DIHEDRAL>
0

>  <SCORE.INTRA.DIHEDRAL.0>
0

>  <SCORE.INTRA.POLAR>
0

>  <SCORE.INTRA.POLAR.0>
0

>  <SCORE.INTRA.REPUL>
0

>  <SCORE.INTRA.REPUL.0>
0

>  <SCORE.INTRA.SOLV>
0

>  <SCORE.INTRA.SOLV.lig_0>
-23.8949

>  <SCORE.INTRA.VDW>
0

>  <SCORE.INTRA.VDW.0>
0

>  <SCORE.INTRA.norm>
0

>  <SCORE.RESTR>
0

>  <SCORE.RESTR.CAVITY>
0

>  <SCORE.RESTR.norm>
0

>  <SCORE.SYSTEM>
0

>  <SCORE.SYSTEM.CONST>
0

>  <SCORE.SYSTEM.DIHEDRAL>
0

>  <SCORE.SYSTEM.SOLV>
0

>  <SCORE.SYSTEM.norm>
0

>  <SCORE.heavy>
10

>  <SCORE.norm>
-0.926333

>  <RMSD>
26.947

$$$$
ligand
 OpenBabel11021811513D
libRbt.so/2013.1/901 2013/11/27
 10 11  0  0  0  0  0  0  0  0999 V2000
   -8.6433   27.5379   -7.2580 N   0  0  0  0  0  0  0  0  0  0  0  0
   -7.3609   27.5297   -7.6455 C   0  0  0  0  0  0  0  0  0  0  0  0
   -6.5626   28.5593   -7.9252 N   0  0  0  0  0  0  0  0  0  0  0  0
   -7.2144   29.7231   -7.7718 C   0  0  0  0  0  0  0  0  0  0  0  0
   -8.5304   29.8919   -7.3829 C   0  0  0  0  0  0  0  0  0  0  0  0
   -9.2707   28.7233   -7.1127 C   0  0  0  0  0  0  0  0  0  0  0  0
  -10.5508   28.7361   -6.7275 N   0  0  0  0  0  0  0  0  0  0  0  0
   -8.8572   31.2363   -7.3318 N   0  0  0  0  0  0  0  0  0  0  0  0
   -7.7496   31.8433   -7.6886 C   0  0  0  0  0  0  0  0  0  0  0  0
   -6.7183   30.9900   -7.9686 N   0  0  0  0  0  0  0  0  0  0  0  0
  1  2  2  0  0  0  0
  1  6  1  0  0  0  0
  2  3  1  0  0  0  0
  3  4  2  0  0  0  0
  4  5  1  0  0  0  0
  4 10  1  0  0  0  0
  5  6  2  0  0  0  0
  5  8  1  0  0  0  0
  6  7  1  0  0  0  0
  8  9  1  0  0  0  0
  9 10  2  0  0  0  0
M  END
>  <CHROM.1>
-8.15508133,29.47207907,-7.47825541,-2.01861144,0.29304549,-0.03733965

>  <Name>
ligand

>  <RI>
0

>  <Rbt.Current_Directory>
/home/itssahil/PROJECTS/Mol_Feturizer/New_Systems/rnas/4TZX

>  <Rbt.Executable>
rbdock ($Id: //depot/dev/client3/rdock/2013.1/src/exe/rbdock.cxx#4 $)

>  <Rbt.Library>
libRbt.so (2013.1, Build901 2013/11/27)

>  <Rbt.Parameter_File>
/export/apps/rDock/src/rDock_2013.1_src/data/scripts/dock_solv.prm

>  <Rbt.Receptor>
prm/blind_docking_80.prm

>  <SCORE>
-9.66161

>  <SCORE.INTER>
-9.66161

>  <SCORE.INTER.CONST>
1

>  <SCORE.INTER.POLAR>
0

>  <SCORE.INTER.ROT>
0

>  <SCORE.INTER.SOLV>
2.38618

>  <SCORE.INTER.VDW>
-10.8365

>  <SCORE.INTER.norm>
-0.966161

>  <SCORE.INTRA>
0

>  <SCORE.INTRA.DIHEDRAL>
0

>  <SCORE.INTRA.DIHEDRAL.0>
0

>  <SCORE.INTRA.POLAR>
0

>  <SCORE.INTRA.POLAR.0>
0

>  <SCORE.INTRA.REPUL>
0

>  <SCORE.INTRA.REPUL.0>
0

>  <SCORE.INTRA.SOLV>
0

>  <SCORE.INTRA.SOLV.lig_0>
-23.8949

>  <SCORE.INTRA.VDW>
0

>  <SCORE.INTRA.VDW.0>
0

>  <SCORE.INTRA.norm>
0

>  <SCORE.RESTR>
0

>  <SCORE.RESTR.CAVITY>
0

>  <SCORE.RESTR.norm>
0

>  <SCORE.SYSTEM>
0

>  <SCORE.SYSTEM.CONST>
0

>  <SCORE.SYSTEM.DIHEDRAL>
0

>  <SCORE.SYSTEM.SOLV>
0

>  <SCORE.SYSTEM.norm>
0

>  <SCORE.heavy>
10

>  <SCORE.norm>
-0.966161

>  <RMSD>
26.948

$$$$
ligand
 OpenBabel11021811513D
libRbt.so/2013.1/901 2013/11/27
 10 11  0  0  0  0  0  0  0  0999 V2000
   -8.6178   27.5525   -7.2886 N   0  0  0  0  0  0  0  0  0  0  0  0
   -7.3317   27.5876   -7.6621 C   0  0  0  0  0  0  0  0  0  0  0  0
   -6.5568   28.6445   -7.9033 N   0  0  0  0  0  0  0  0  0  0  0  0
   -7.2394   29.7867   -7.7238 C   0  0  0  0  0  0  0  0  0  0  0  0
   -8.5631   29.9113   -7.3447 C   0  0  0  0  0  0  0  0  0  0  0  0
   -9.2765   28.7172   -7.1164 C   0  0  0  0  0  0  0  0  0  0  0  0
  -10.5603   28.6868   -6.7451 N   0  0  0  0  0  0  0  0  0  0  0  0
   -8.9244   31.2450   -7.2587 N   0  0  0  0  0  0  0  0  0  0  0  0
   -7.8289   31.8895   -7.5858 C   0  0  0  0  0  0  0  0  0  0  0  0
   -6.7735   31.0707   -7.8787 N   0  0  0  0  0  0  0  0  0  0  0  0
  1  2  2  0  0  0  0
  1  6  1  0  0  0  0
  2  3  1  0  0  0  0
  3  4  2  0  0  0  0
  4  5  1  0  0  0  0
  4 10  1  0  0  0  0
  5  6  2  0  0  0  0
  5  8  1  0  0  0  0
  6  7  1  0  0  0  0
  8  9  1  0  0  0  0
  9 10  2  0  0  0  0
M  END
>  <CHROM.1>
-8.17640057,29.50387630,-7.44797484,-1.99270503,0.28173407,-0.01586501

>  <Name>
ligand

>  <RI>
0

>  <Rbt.Current_Directory>
/home/itssahil/PROJECTS/Mol_Feturizer/New_Systems/rnas/4TZX

>  <Rbt.Executable>
rbdock ($Id: //depot/dev/client3/rdock/2013.1/src/exe/rbdock.cxx#4 $)

>  <Rbt.Library>
libRbt.so (2013.1, Build901 2013/11/27)

>  <Rbt.Parameter_File>
/export/apps/rDock/src/rDock_2013.1_src/data/scripts/dock_solv.prm

>  <Rbt.Receptor>
prm/blind_docking_100.prm

>  <SCORE>
-9.72416

>  <SCORE.INTER>
-9.72416

>  <SCORE.INTER.CONST>
1

>  <SCORE.INTER.POLAR>
0

>  <SCORE.INTER.ROT>
0

>  <SCORE.INTER.SOLV>
2.42265

>  <SCORE.INTER.VDW>
-10.8903

>  <SCORE.INTER.norm>
-0.972416

>  <SCORE.INTRA>
0

>  <SCORE.INTRA.DIHEDRAL>
0

>  <SCORE.INTRA.DIHEDRAL.0>
0

>  <SCORE.INTRA.POLAR>
0

>  <SCORE.INTRA.POLAR.0>
0

>  <SCORE.INTRA.REPUL>
0

>  <SCORE.INTRA.REPUL.0>
0

>  <SCORE.INTRA.SOLV>
0

>  <SCORE.INTRA.SOLV.lig_0>
-23.8949

>  <SCORE.INTRA.VDW>
0

>  <SCORE.INTRA.VDW.0>
0

>  <SCORE.INTRA.norm>
0

>  <SCORE.RESTR>
0

>  <SCORE.RESTR.CAVITY>
0

>  <SCORE.RESTR.norm>
0

>  <SCORE.SYSTEM>
0

>  <SCORE.SYSTEM.CONST>
0

>  <SCORE.SYSTEM.DIHEDRAL>
0

>  <SCORE.SYSTEM.SOLV>
0

>  <SCORE.SYSTEM.norm>
0

>  <SCORE.heavy>
10

>  <SCORE.norm>
-0.972416

>  <RMSD>
26.956

$$$$
ligand
 OpenBabel11021811513D
libRbt.so/2013.1/901 2013/11/27
 10 11  0  0  0  0  0  0  0  0999 V2000
   -8.6602   27.6013   -7.2720 N   0  0  0  0  0  0  0  0  0  0  0  0
   -7.3694   27.6005   -7.6310 C   0  0  0  0  0  0  0  0  0  0  0  0
   -6.5711   28.6346   -7.8936 N   0  0  0  0  0  0  0  0  0  0  0  0
   -7.2330   29.7946   -7.7554 C   0  0  0  0  0  0  0  0  0  0  0  0
   -8.5582   29.9559   -7.3960 C   0  0  0  0  0  0  0  0  0  0  0  0
   -9.2976   28.7831   -7.1415 C   0  0  0  0  0  0  0  0  0  0  0  0
  -10.5859   28.7886   -6.7848 N   0  0  0  0  0  0  0  0  0  0  0  0
   -8.8940   31.2983   -7.3530 N   0  0  0  0  0  0  0  0  0  0  0  0
   -7.7823   31.9116   -7.6856 C   0  0  0  0  0  0  0  0  0  0  0  0
   -6.7401   31.0643   -7.9420 N   0  0  0  0  0  0  0  0  0  0  0  0
  1  2  2  0  0  0  0
  1  6  1  0  0  0  0
  2  3  1  0  0  0  0
  3  4  2  0  0  0  0
  4  5  1  0  0  0  0
  4 10  1  0  0  0  0
  5  6  2  0  0  0  0
  5  8  1  0  0  0  0
  6  7  1  0  0  0  0
  8  9  1  0  0  0  0
  9 10  2  0  0  0  0
M  END
>  <CHROM.1>
-8.17847378,29.53822810,-7.48269506,-2.01339988,0.27064787,-0.03939114

>  <Name>
ligand

>  <RI>
0

>  <Rbt.Current_Directory>
/home/itssahil/PROJECTS/Mol_Feturizer/New_Systems/rnas/4TZX

>  <Rbt.Executable>
rbdock ($Id: //depot/dev/client3/rdock/2013.1/src/exe/rbdock.cxx#4 $)

>  <Rbt.Library>
libRbt.so (2013.1, Build901 2013/11/27)

>  <Rbt.Parameter_File>
/export/apps/rDock/src/rDock_2013.1_src/data/scripts/dock_solv.prm

>  <Rbt.Receptor>
prm/blind_docking_80.prm

>  <SCORE>
-9.69747

>  <SCORE.INTER>
-9.69747

>  <SCORE.INTER.CONST>
1

>  <SCORE.INTER.POLAR>
0

>  <SCORE.INTER.ROT>
0

>  <SCORE.INTER.SOLV>
2.18228

>  <SCORE.INTER.VDW>
-10.7924

>  <SCORE.INTER.norm>
-0.969747

>  <SCORE.INTRA>
0

>  <SCORE.INTRA.DIHEDRAL>
0

>  <SCORE.INTRA.DIHEDRAL.0>
0

>  <SCORE.INTRA.POLAR>
0

>  <SCORE.INTRA.POLAR.0>
0

>  <SCORE.INTRA.REPUL>
0

>  <SCORE.INTRA.REPUL.0>
0

>  <SCORE.INTRA.SOLV>
0

>  <SCORE.INTRA.SOLV.lig_0>
-23.8949

>  <SCORE.INTRA.VDW>
0

>  <SCORE.INTRA.VDW.0>
0

>  <SCORE.INTRA.norm>
0

>  <SCORE.RESTR>
0

>  <SCORE.RESTR.CAVITY>
0

>  <SCORE.RESTR.norm>
0

>  <SCORE.SYSTEM>
0

>  <SCORE.SYSTEM.CONST>
0

>  <SCORE.SYSTEM.DIHEDRAL>
0

>  <SCORE.SYSTEM.SOLV>
0

>  <SCORE.SYSTEM.norm>
0

>  <SCORE.heavy>
10

>  <SCORE.norm>
-0.969747

>  <RMSD>
26.957

$$$$
ligand
 OpenBabel11021811513D
libRbt.so/2013.1/901 2013/11/27
 10 11  0  0  0  0  0  0  0  0999 V2000
   -8.5966   27.5174   -7.3083 N   0  0  0  0  0  0  0  0  0  0  0  0
   -7.3075   27.5577   -7.6709 C   0  0  0  0  0  0  0  0  0  0  0  0
   -6.5324   28.6178   -7.8970 N   0  0  0  0  0  0  0  0  0  0  0  0
   -7.2184   29.7574   -7.7136 C   0  0  0  0  0  0  0  0  0  0  0  0
   -8.5454   29.8767   -7.3444 C   0  0  0  0  0  0  0  0  0  0  0  0
   -9.2586   28.6796   -7.1318 C   0  0  0  0  0  0  0  0  0  0  0  0
  -10.5454   28.6441   -6.7713 N   0  0  0  0  0  0  0  0  0  0  0  0
   -8.9095   31.2091   -7.2503 N   0  0  0  0  0  0  0  0  0  0  0  0
   -7.8125   31.8581   -7.5631 C   0  0  0  0  0  0  0  0  0  0  0  0
   -6.7534   31.0434   -7.8541 N   0  0  0  0  0  0  0  0  0  0  0  0
  1  2  2  0  0  0  0
  1  6  1  0  0  0  0
  2  3  1  0  0  0  0
  3  4  2  0  0  0  0
  4  5  1  0  0  0  0
  4 10  1  0  0  0  0
  5  6  2  0  0  0  0
  5  8  1  0  0  0  0
  6  7  1  0  0  0  0
  8  9  1  0  0  0  0
  9 10  2  0  0  0  0
M  END
>  <CHROM.1>
-8.15712173,29.47077675,-7.44785576,-1.99110239,0.27353822,-0.00801691

>  <Name>
ligand

>  <RI>
0

>  <Rbt.Current_Directory>
/home/itssahil/PROJECTS/Mol_Feturizer/New_Systems/rnas/4TZX

>  <Rbt.Executable>
rbdock ($Id: //depot/dev/client3/rdock/2013.1/src/exe/rbdock.cxx#4 $)

>  <Rbt.Library>
libRbt.so (2013.1, Build901 2013/11/27)

>  <Rbt.Parameter_File>
/export/apps/rDock/src/rDock_2013.1_src/data/scripts/dock_solv.prm

>  <Rbt.Receptor>
prm/blind_docking_40.prm

>  <SCORE>
-9.75648

>  <SCORE.INTER>
-9.75648

>  <SCORE.INTER.CONST>
1

>  <SCORE.INTER.POLAR>
0

>  <SCORE.INTER.ROT>
0

>  <SCORE.INTER.SOLV>
2.44119

>  <SCORE.INTER.VDW>
-10.9181

>  <SCORE.INTER.norm>
-0.975648

>  <SCORE.INTRA>
0

>  <SCORE.INTRA.DIHEDRAL>
0

>  <SCORE.INTRA.DIHEDRAL.0>
0

>  <SCORE.INTRA.POLAR>
0

>  <SCORE.INTRA.POLAR.0>
0

>  <SCORE.INTRA.REPUL>
0

>  <SCORE.INTRA.REPUL.0>
0

>  <SCORE.INTRA.SOLV>
0

>  <SCORE.INTRA.SOLV.lig_0>
-23.8949

>  <SCORE.INTRA.VDW>
0

>  <SCORE.INTRA.VDW.0>
0

>  <SCORE.INTRA.norm>
0

>  <SCORE.RESTR>
0

>  <SCORE.RESTR.CAVITY>
0

>  <SCORE.RESTR.norm>
0

>  <SCORE.SYSTEM>
0

>  <SCORE.SYSTEM.CONST>
0

>  <SCORE.SYSTEM.DIHEDRAL>
0

>  <SCORE.SYSTEM.SOLV>
0

>  <SCORE.SYSTEM.norm>
0

>  <SCORE.heavy>
10

>  <SCORE.norm>
-0.975648

>  <RMSD>
26.958

$$$$
ligand
 OpenBabel11021811513D
libRbt.so/2013.1/901 2013/11/27
 10 11  0  0  0  0  0  0  0  0999 V2000
   -8.5953   27.5404   -7.2985 N   0  0  0  0  0  0  0  0  0  0  0  0
   -7.3091   27.5793   -7.6714 C   0  0  0  0  0  0  0  0  0  0  0  0
   -6.5361   28.6384   -7.9083 N   0  0  0  0  0  0  0  0  0  0  0  0
   -7.2208   29.7787   -7.7246 C   0  0  0  0  0  0  0  0  0  0  0  0
   -8.5449   29.8994   -7.3455 C   0  0  0  0  0  0  0  0  0  0  0  0
   -9.2561   28.7032   -7.1219 C   0  0  0  0  0  0  0  0  0  0  0  0
  -10.5400   28.6690   -6.7511 N   0  0  0  0  0  0  0  0  0  0  0  0
   -8.9086   31.2321   -7.2544 N   0  0  0  0  0  0  0  0  0  0  0  0
   -7.8141   31.8799   -7.5786 C   0  0  0  0  0  0  0  0  0  0  0  0
   -6.7572   31.0642   -7.8744 N   0  0  0  0  0  0  0  0  0  0  0  0
  1  2  2  0  0  0  0
  1  6  1  0  0  0  0
  2  3  1  0  0  0  0
  3  4  2  0  0  0  0
  4  5  1  0  0  0  0
  4 10  1  0  0  0  0
  5  6  2  0  0  0  0
  5  8  1  0  0  0  0
  6  7  1  0  0  0  0
  8  9  1  0  0  0  0
  9 10  2  0  0  0  0
M  END
>  <CHROM.1>
-8.15734752,29.49313029,-7.45014210,-1.99080811,0.28140533,-0.01253243

>  <Name>
ligand

>  <RI>
0

>  <Rbt.Current_Directory>
/home/itssahil/PROJECTS/Mol_Feturizer/New_Systems/rnas/4TZX

>  <Rbt.Executable>
rbdock ($Id: //depot/dev/client3/rdock/2013.1/src/exe/rbdock.cxx#4 $)

>  <Rbt.Library>
libRbt.so (2013.1, Build901 2013/11/27)

>  <Rbt.Parameter_File>
/export/apps/rDock/src/rDock_2013.1_src/data/scripts/dock_solv.prm

>  <Rbt.Receptor>
prm/blind_docking_40.prm

>  <SCORE>
-9.74368

>  <SCORE.INTER>
-9.74368

>  <SCORE.INTER.CONST>
1

>  <SCORE.INTER.POLAR>
0

>  <SCORE.INTER.ROT>
0

>  <SCORE.INTER.SOLV>
2.44899

>  <SCORE.INTER.VDW>
-10.9121

>  <SCORE.INTER.norm>
-0.974368

>  <SCORE.INTRA>
0

>  <SCORE.INTRA.DIHEDRAL>
0

>  <SCORE.INTRA.DIHEDRAL.0>
0

>  <SCORE.INTRA.POLAR>
0

>  <SCORE.INTRA.POLAR.0>
0

>  <SCORE.INTRA.REPUL>
0

>  <SCORE.INTRA.REPUL.0>
0

>  <SCORE.INTRA.SOLV>
0

>  <SCORE.INTRA.SOLV.lig_0>
-23.8949

>  <SCORE.INTRA.VDW>
0

>  <SCORE.INTRA.VDW.0>
0

>  <SCORE.INTRA.norm>
0

>  <SCORE.RESTR>
0

>  <SCORE.RESTR.CAVITY>
0

>  <SCORE.RESTR.norm>
0

>  <SCORE.SYSTEM>
0

>  <SCORE.SYSTEM.CONST>
0

>  <SCORE.SYSTEM.DIHEDRAL>
0

>  <SCORE.SYSTEM.SOLV>
0

>  <SCORE.SYSTEM.norm>
0

>  <SCORE.heavy>
10

>  <SCORE.norm>
-0.974368

>  <RMSD>
26.966

$$$$
ligand
 OpenBabel11021811513D
libRbt.so/2013.1/901 2013/11/27
 10 11  0  0  0  0  0  0  0  0999 V2000
   -9.2383   31.4396   -7.4019 N   0  0  0  0  0  0  0  0  0  0  0  0
   -7.9656   31.7455   -7.6870 C   0  0  0  0  0  0  0  0  0  0  0  0
   -6.9232   30.9314   -7.8487 N   0  0  0  0  0  0  0  0  0  0  0  0
   -7.2895   29.6500   -7.6856 C   0  0  0  0  0  0  0  0  0  0  0  0
   -8.5555   29.1805   -7.3881 C   0  0  0  0  0  0  0  0  0  0  0  0
   -9.5752   30.1428   -7.2439 C   0  0  0  0  0  0  0  0  0  0  0  0
  -10.8439   29.8331   -6.9579 N   0  0  0  0  0  0  0  0  0  0  0  0
   -8.5565   27.7991   -7.2967 N   0  0  0  0  0  0  0  0  0  0  0  0
   -7.3091   27.4671   -7.5342 C   0  0  0  0  0  0  0  0  0  0  0  0
   -6.4903   28.5352   -7.7767 N   0  0  0  0  0  0  0  0  0  0  0  0
  1  2  2  0  0  0  0
  1  6  1  0  0  0  0
  2  3  1  0  0  0  0
  3  4  2  0  0  0  0
  4  5  1  0  0  0  0
  4 10  1  0  0  0  0
  5  6  2  0  0  0  0
  5  8  1  0  0  0  0
  6  7  1  0  0  0  0
  8  9  1  0  0  0  0
  9 10  2  0  0  0  0
M  END
>  <CHROM.1>
-8.28512532,29.67512892,-7.48009969,-2.26798639,-0.20482375,3.07389025

>  <Name>
ligand

>  <RI>
0

>  <Rbt.Current_Directory>
/home/itssahil/PROJECTS/Mol_Feturizer/New_Systems/rnas/4TZX

>  <Rbt.Executable>
rbdock ($Id: //depot/dev/client3/rdock/2013.1/src/exe/rbdock.cxx#4 $)

>  <Rbt.Library>
libRbt.so (2013.1, Build901 2013/11/27)

>  <Rbt.Parameter_File>
/export/apps/rDock/src/rDock_2013.1_src/data/scripts/dock_solv.prm

>  <Rbt.Receptor>
prm/blind_docking_40.prm

>  <SCORE>
-9.23227

>  <SCORE.INTER>
-9.23227

>  <SCORE.INTER.CONST>
1

>  <SCORE.INTER.POLAR>
0

>  <SCORE.INTER.ROT>
0

>  <SCORE.INTER.SOLV>
2.58822

>  <SCORE.INTER.VDW>
-10.6176

>  <SCORE.INTER.norm>
-0.923227

>  <SCORE.INTRA>
0

>  <SCORE.INTRA.DIHEDRAL>
0

>  <SCORE.INTRA.DIHEDRAL.0>
0

>  <SCORE.INTRA.POLAR>
0

>  <SCORE.INTRA.POLAR.0>
0

>  <SCORE.INTRA.REPUL>
0

>  <SCORE.INTRA.REPUL.0>
0

>  <SCORE.INTRA.SOLV>
0

>  <SCORE.INTRA.SOLV.lig_0>
-23.8949

>  <SCORE.INTRA.VDW>
0

>  <SCORE.INTRA.VDW.0>
0

>  <SCORE.INTRA.norm>
0

>  <SCORE.RESTR>
0

>  <SCORE.RESTR.CAVITY>
0

>  <SCORE.RESTR.norm>
0

>  <SCORE.SYSTEM>
0

>  <SCORE.SYSTEM.CONST>
0

>  <SCORE.SYSTEM.DIHEDRAL>
0

>  <SCORE.SYSTEM.SOLV>
0

>  <SCORE.SYSTEM.norm>
0

>  <SCORE.heavy>
10

>  <SCORE.norm>
-0.923227

>  <RMSD>
26.968

$$$$
ligand
 OpenBabel11021811513D
libRbt.so/2013.1/901 2013/11/27
 10 11  0  0  0  0  0  0  0  0999 V2000
   -9.1238   31.5064   -7.4288 N   0  0  0  0  0  0  0  0  0  0  0  0
   -7.8642   31.7732   -7.7990 C   0  0  0  0  0  0  0  0  0  0  0  0
   -6.8554   30.9289   -8.0107 N   0  0  0  0  0  0  0  0  0  0  0  0
   -7.2435   29.6606   -7.8013 C   0  0  0  0  0  0  0  0  0  0  0  0
   -8.4998   29.2304   -7.4163 C   0  0  0  0  0  0  0  0  0  0  0  0
   -9.4833   30.2220   -7.2261 C   0  0  0  0  0  0  0  0  0  0  0  0
  -10.7388   29.9513   -6.8554 N   0  0  0  0  0  0  0  0  0  0  0  0
   -8.5305   27.8512   -7.2996 N   0  0  0  0  0  0  0  0  0  0  0  0
   -7.3096   27.4819   -7.6088 C   0  0  0  0  0  0  0  0  0  0  0  0
   -6.4806   28.5234   -7.9218 N   0  0  0  0  0  0  0  0  0  0  0  0
  1  2  2  0  0  0  0
  1  6  1  0  0  0  0
  2  3  1  0  0  0  0
  3  4  2  0  0  0  0
  4  5  1  0  0  0  0
  4 10  1  0  0  0  0
  5  6  2  0  0  0  0
  5  8  1  0  0  0  0
  6  7  1  0  0  0  0
  8  9  1  0  0  0  0
  9 10  2  0  0  0  0
M  END
>  <CHROM.1>
-8.22316153,29.71594735,-7.53421529,-2.24581357,-0.26967780,3.06145685

>  <Name>
ligand

>  <RI>
0

>  <Rbt.Current_Directory>
/home/itssahil/PROJECTS/Mol_Feturizer/New_Systems/rnas/4TZX

>  <Rbt.Executable>
rbdock ($Id: //depot/dev/client3/rdock/2013.1/src/exe/rbdock.cxx#4 $)

>  <Rbt.Library>
libRbt.so (2013.1, Build901 2013/11/27)

>  <Rbt.Parameter_File>
/export/apps/rDock/src/rDock_2013.1_src/data/scripts/dock_solv.prm

>  <Rbt.Receptor>
prm/blind_docking_40.prm

>  <SCORE>
-9.30647

>  <SCORE.INTER>
-9.30647

>  <SCORE.INTER.CONST>
1

>  <SCORE.INTER.POLAR>
0

>  <SCORE.INTER.ROT>
0

>  <SCORE.INTER.SOLV>
2.84745

>  <SCORE.INTER.VDW>
-10.7535

>  <SCORE.INTER.norm>
-0.930647

>  <SCORE.INTRA>
0

>  <SCORE.INTRA.DIHEDRAL>
0

>  <SCORE.INTRA.DIHEDRAL.0>
0

>  <SCORE.INTRA.POLAR>
0

>  <SCORE.INTRA.POLAR.0>
0

>  <SCORE.INTRA.REPUL>
0

>  <SCORE.INTRA.REPUL.0>
0

>  <SCORE.INTRA.SOLV>
0

>  <SCORE.INTRA.SOLV.lig_0>
-23.8949

>  <SCORE.INTRA.VDW>
0

>  <SCORE.INTRA.VDW.0>
0

>  <SCORE.INTRA.norm>
0

>  <SCORE.RESTR>
0

>  <SCORE.RESTR.CAVITY>
0

>  <SCORE.RESTR.norm>
0

>  <SCORE.SYSTEM>
0

>  <SCORE.SYSTEM.CONST>
0

>  <SCORE.SYSTEM.DIHEDRAL>
0

>  <SCORE.SYSTEM.SOLV>
0

>  <SCORE.SYSTEM.norm>
0

>  <SCORE.heavy>
10

>  <SCORE.norm>
-0.930647

>  <RMSD>
27.020

$$$$
ligand
 OpenBabel11021811513D
libRbt.so/2013.1/901 2013/11/27
 10 11  0  0  0  0  0  0  0  0999 V2000
   -9.1309   31.5091   -7.4490 N   0  0  0  0  0  0  0  0  0  0  0  0
   -7.8700   31.7759   -7.8147 C   0  0  0  0  0  0  0  0  0  0  0  0
   -6.8545   30.9336   -8.0010 N   0  0  0  0  0  0  0  0  0  0  0  0
   -7.2367   29.6676   -7.7684 C   0  0  0  0  0  0  0  0  0  0  0  0
   -8.4934   29.2377   -7.3844 C   0  0  0  0  0  0  0  0  0  0  0  0
   -9.4843   30.2270   -7.2225 C   0  0  0  0  0  0  0  0  0  0  0  0
  -10.7411   29.9563   -6.8562 N   0  0  0  0  0  0  0  0  0  0  0  0
   -8.5168   27.8611   -7.2394 N   0  0  0  0  0  0  0  0  0  0  0  0
   -7.2913   27.4929   -7.5313 C   0  0  0  0  0  0  0  0  0  0  0  0
   -6.4661   28.5328   -7.8593 N   0  0  0  0  0  0  0  0  0  0  0  0
  1  2  2  0  0  0  0
  1  6  1  0  0  0  0
  2  3  1  0  0  0  0
  3  4  2  0  0  0  0
  4  5  1  0  0  0  0
  4 10  1  0  0  0  0
  5  6  2  0  0  0  0
  5  8  1  0  0  0  0
  6  7  1  0  0  0  0
  8  9  1  0  0  0  0
  9 10  2  0  0  0  0
M  END
>  <CHROM.1>
-8.21873330,29.72240588,-7.51018493,-2.25130104,-0.26123501,3.03932947

>  <Name>
ligand

>  <RI>
0

>  <Rbt.Current_Directory>
/home/itssahil/PROJECTS/Mol_Feturizer/New_Systems/rnas/4TZX

>  <Rbt.Executable>
rbdock ($Id: //depot/dev/client3/rdock/2013.1/src/exe/rbdock.cxx#4 $)

>  <Rbt.Library>
libRbt.so (2013.1, Build901 2013/11/27)

>  <Rbt.Parameter_File>
/export/apps/rDock/src/rDock_2013.1_src/data/scripts/dock_solv.prm

>  <Rbt.Receptor>
prm/blind_docking_80.prm

>  <SCORE>
-9.28281

>  <SCORE.INTER>
-9.28281

>  <SCORE.INTER.CONST>
1

>  <SCORE.INTER.POLAR>
0

>  <SCORE.INTER.ROT>
0

>  <SCORE.INTER.SOLV>
2.85545

>  <SCORE.INTER.VDW>
-10.7404

>  <SCORE.INTER.norm>
-0.928281

>  <SCORE.INTRA>
0

>  <SCORE.INTRA.DIHEDRAL>
0

>  <SCORE.INTRA.DIHEDRAL.0>
0

>  <SCORE.INTRA.POLAR>
0

>  <SCORE.INTRA.POLAR.0>
0

>  <SCORE.INTRA.REPUL>
0

>  <SCORE.INTRA.REPUL.0>
0

>  <SCORE.INTRA.SOLV>
0

>  <SCORE.INTRA.SOLV.lig_0>
-23.8949

>  <SCORE.INTRA.VDW>
0

>  <SCORE.INTRA.VDW.0>
0

>  <SCORE.INTRA.norm>
0

>  <SCORE.RESTR>
0

>  <SCORE.RESTR.CAVITY>
0

>  <SCORE.RESTR.norm>
0

>  <SCORE.SYSTEM>
0

>  <SCORE.SYSTEM.CONST>
0

>  <SCORE.SYSTEM.DIHEDRAL>
0

>  <SCORE.SYSTEM.SOLV>
0

>  <SCORE.SYSTEM.norm>
0

>  <SCORE.heavy>
10

>  <SCORE.norm>
-0.928281

>  <RMSD>
27.036

$$$$
ligand
 OpenBabel11021811513D
libRbt.so/2013.1/901 2013/11/27
 10 11  0  0  0  0  0  0  0  0999 V2000
   -9.1263   31.5061   -6.6844 N   0  0  0  0  0  0  0  0  0  0  0  0
   -9.6743   30.5170   -5.9660 C   0  0  0  0  0  0  0  0  0  0  0  0
   -9.3610   29.2220   -5.9458 N   0  0  0  0  0  0  0  0  0  0  0  0
   -8.3493   28.9632   -6.7898 C   0  0  0  0  0  0  0  0  0  0  0  0
   -7.6875   29.8718   -7.5948 C   0  0  0  0  0  0  0  0  0  0  0  0
   -8.1112   31.2143   -7.5238 C   0  0  0  0  0  0  0  0  0  0  0  0
   -7.5623   32.1980   -8.2435 N   0  0  0  0  0  0  0  0  0  0  0  0
   -6.6973   29.2436   -8.3307 N   0  0  0  0  0  0  0  0  0  0  0  0
   -6.7817   27.9864   -7.9632 C   0  0  0  0  0  0  0  0  0  0  0  0
   -7.7578   27.7469   -7.0359 N   0  0  0  0  0  0  0  0  0  0  0  0
  1  2  2  0  0  0  0
  1  6  1  0  0  0  0
  2  3  1  0  0  0  0
  3  4  2  0  0  0  0
  4  5  1  0  0  0  0
  4 10  1  0  0  0  0
  5  6  2  0  0  0  0
  5  8  1  0  0  0  0
  6  7  1  0  0  0  0
  8  9  1  0  0  0  0
  9 10  2  0  0  0  0
M  END
>  <CHROM.1>
-8.11011998,29.85739984,-7.21090100,2.11627136,0.71631328,-0.22792595

>  <Name>
ligand

>  <RI>
0

>  <Rbt.Current_Directory>
/home/itssahil/PROJECTS/Mol_Feturizer/New_Systems/rnas/4TZX

>  <Rbt.Executable>
rbdock ($Id: //depot/dev/client3/rdock/2013.1/src/exe/rbdock.cxx#4 $)

>  <Rbt.Library>
libRbt.so (2013.1, Build901 2013/11/27)

>  <Rbt.Parameter_File>
/export/apps/rDock/src/rDock_2013.1_src/data/scripts/dock_solv.prm

>  <Rbt.Receptor>
prm/blind_docking_40.prm

>  <SCORE>
-8.75098

>  <SCORE.INTER>
-8.75098

>  <SCORE.INTER.CONST>
1

>  <SCORE.INTER.POLAR>
0

>  <SCORE.INTER.ROT>
0

>  <SCORE.INTER.SOLV>
5.55133

>  <SCORE.INTER.VDW>
-11.2844

>  <SCORE.INTER.norm>
-0.875098

>  <SCORE.INTRA>
0

>  <SCORE.INTRA.DIHEDRAL>
0

>  <SCORE.INTRA.DIHEDRAL.0>
0

>  <SCORE.INTRA.POLAR>
0

>  <SCORE.INTRA.POLAR.0>
0

>  <SCORE.INTRA.REPUL>
0

>  <SCORE.INTRA.REPUL.0>
0

>  <SCORE.INTRA.SOLV>
0

>  <SCORE.INTRA.SOLV.lig_0>
-23.8949

>  <SCORE.INTRA.VDW>
0

>  <SCORE.INTRA.VDW.0>
0

>  <SCORE.INTRA.norm>
0

>  <SCORE.RESTR>
0

>  <SCORE.RESTR.CAVITY>
0

>  <SCORE.RESTR.norm>
0

>  <SCORE.SYSTEM>
0

>  <SCORE.SYSTEM.CONST>
0

>  <SCORE.SYSTEM.DIHEDRAL>
0

>  <SCORE.SYSTEM.SOLV>
0

>  <SCORE.SYSTEM.norm>
0

>  <SCORE.heavy>
10

>  <SCORE.norm>
-0.875098

>  <RMSD>
27.238

$$$$
ligand
 OpenBabel11021811513D
libRbt.so/2013.1/901 2013/11/27
 10 11  0  0  0  0  0  0  0  0999 V2000
   -9.1013   31.4882   -6.6981 N   0  0  0  0  0  0  0  0  0  0  0  0
   -9.6726   30.5029   -5.9926 C   0  0  0  0  0  0  0  0  0  0  0  0
   -9.3730   29.2047   -5.9701 N   0  0  0  0  0  0  0  0  0  0  0  0
   -8.3485   28.9378   -6.7960 C   0  0  0  0  0  0  0  0  0  0  0  0
   -7.6627   29.8415   -7.5861 C   0  0  0  0  0  0  0  0  0  0  0  0
   -8.0739   31.1881   -7.5193 C   0  0  0  0  0  0  0  0  0  0  0  0
   -7.5017   32.1679   -8.2261 N   0  0  0  0  0  0  0  0  0  0  0  0
   -6.6654   29.2051   -8.3052 N   0  0  0  0  0  0  0  0  0  0  0  0
   -6.7695   27.9479   -7.9429 C   0  0  0  0  0  0  0  0  0  0  0  0
   -7.7650   27.7161   -7.0344 N   0  0  0  0  0  0  0  0  0  0  0  0
  1  2  2  0  0  0  0
  1  6  1  0  0  0  0
  2  3  1  0  0  0  0
  3  4  2  0  0  0  0
  4  5  1  0  0  0  0
  4 10  1  0  0  0  0
  5  6  2  0  0  0  0
  5  8  1  0  0  0  0
  6  7  1  0  0  0  0
  8  9  1  0  0  0  0
  9 10  2  0  0  0  0
M  END
>  <CHROM.1>
-8.09242930,29.83048544,-7.21012658,2.09778948,0.70048109,-0.21326491

>  <Name>
ligand

>  <RI>
0

>  <Rbt.Current_Directory>
/home/itssahil/PROJECTS/Mol_Feturizer/New_Systems/rnas/4TZX

>  <Rbt.Executable>
rbdock ($Id: //depot/dev/client3/rdock/2013.1/src/exe/rbdock.cxx#4 $)

>  <Rbt.Library>
libRbt.so (2013.1, Build901 2013/11/27)

>  <Rbt.Parameter_File>
/export/apps/rDock/src/rDock_2013.1_src/data/scripts/dock_solv.prm

>  <Rbt.Receptor>
prm/blind_docking_40.prm

>  <SCORE>
-8.72766

>  <SCORE.INTER>
-8.72766

>  <SCORE.INTER.CONST>
1

>  <SCORE.INTER.POLAR>
0

>  <SCORE.INTER.ROT>
0

>  <SCORE.INTER.SOLV>
5.68366

>  <SCORE.INTER.VDW>
-11.313

>  <SCORE.INTER.norm>
-0.872766

>  <SCORE.INTRA>
0

>  <SCORE.INTRA.DIHEDRAL>
0

>  <SCORE.INTRA.DIHEDRAL.0>
0

>  <SCORE.INTRA.POLAR>
0

>  <SCORE.INTRA.POLAR.0>
0

>  <SCORE.INTRA.REPUL>
0

>  <SCORE.INTRA.REPUL.0>
0

>  <SCORE.INTRA.SOLV>
0

>  <SCORE.INTRA.SOLV.lig_0>
-23.8949

>  <SCORE.INTRA.VDW>
0

>  <SCORE.INTRA.VDW.0>
0

>  <SCORE.INTRA.norm>
0

>  <SCORE.RESTR>
0

>  <SCORE.RESTR.CAVITY>
0

>  <SCORE.RESTR.norm>
0

>  <SCORE.SYSTEM>
0

>  <SCORE.SYSTEM.CONST>
0

>  <SCORE.SYSTEM.DIHEDRAL>
0

>  <SCORE.SYSTEM.SOLV>
0

>  <SCORE.SYSTEM.norm>
0

>  <SCORE.heavy>
10

>  <SCORE.norm>
-0.872766

>  <RMSD>
27.241

$$$$
ligand
 OpenBabel11021811513D
libRbt.so/2013.1/901 2013/11/27
 10 11  0  0  0  0  0  0  0  0999 V2000
   -9.1283   31.5082   -6.6919 N   0  0  0  0  0  0  0  0  0  0  0  0
   -9.6774   30.5185   -5.9750 C   0  0  0  0  0  0  0  0  0  0  0  0
   -9.3614   29.2243   -5.9521 N   0  0  0  0  0  0  0  0  0  0  0  0
   -8.3452   28.9669   -6.7911 C   0  0  0  0  0  0  0  0  0  0  0  0
   -7.6817   29.8762   -7.5940 C   0  0  0  0  0  0  0  0  0  0  0  0
   -8.1087   31.2178   -7.5262 C   0  0  0  0  0  0  0  0  0  0  0  0
   -7.5586   32.2020   -8.2444 N   0  0  0  0  0  0  0  0  0  0  0  0
   -6.6866   29.2495   -8.3246 N   0  0  0  0  0  0  0  0  0  0  0  0
   -6.7700   27.9925   -7.9563 C   0  0  0  0  0  0  0  0  0  0  0  0
   -7.7498   27.7517   -7.0333 N   0  0  0  0  0  0  0  0  0  0  0  0
  1  2  2  0  0  0  0
  1  6  1  0  0  0  0
  2  3  1  0  0  0  0
  3  4  2  0  0  0  0
  4  5  1  0  0  0  0
  4 10  1  0  0  0  0
  5  6  2  0  0  0  0
  5  8  1  0  0  0  0
  6  7  1  0  0  0  0
  8  9  1  0  0  0  0
  9 10  2  0  0  0  0
M  END
>  <CHROM.1>
-8.10601771,29.86123144,-7.21197991,2.11776251,0.71129609,-0.22988732

>  <Name>
ligand

>  <RI>
0

>  <Rbt.Current_Directory>
/home/itssahil/PROJECTS/Mol_Feturizer/New_Systems/rnas/4TZX

>  <Rbt.Executable>
rbdock ($Id: //depot/dev/client3/rdock/2013.1/src/exe/rbdock.cxx#4 $)

>  <Rbt.Library>
libRbt.so (2013.1, Build901 2013/11/27)

>  <Rbt.Parameter_File>
/export/apps/rDock/src/rDock_2013.1_src/data/scripts/dock_solv.prm

>  <Rbt.Receptor>
prm/blind_docking_60.prm

>  <SCORE>
-8.75928

>  <SCORE.INTER>
-8.75928

>  <SCORE.INTER.CONST>
1

>  <SCORE.INTER.POLAR>
0

>  <SCORE.INTER.ROT>
0

>  <SCORE.INTER.SOLV>
5.54935

>  <SCORE.INTER.VDW>
-11.2893

>  <SCORE.INTER.norm>
-0.875928

>  <SCORE.INTRA>
0

>  <SCORE.INTRA.DIHEDRAL>
0

>  <SCORE.INTRA.DIHEDRAL.0>
0

>  <SCORE.INTRA.POLAR>
0

>  <SCORE.INTRA.POLAR.0>
0

>  <SCORE.INTRA.REPUL>
0

>  <SCORE.INTRA.REPUL.0>
0

>  <SCORE.INTRA.SOLV>
0

>  <SCORE.INTRA.SOLV.lig_0>
-23.8949

>  <SCORE.INTRA.VDW>
0

>  <SCORE.INTRA.VDW.0>
0

>  <SCORE.INTRA.norm>
0

>  <SCORE.RESTR>
0

>  <SCORE.RESTR.CAVITY>
0

>  <SCORE.RESTR.norm>
0

>  <SCORE.SYSTEM>
0

>  <SCORE.SYSTEM.CONST>
0

>  <SCORE.SYSTEM.DIHEDRAL>
0

>  <SCORE.SYSTEM.SOLV>
0

>  <SCORE.SYSTEM.norm>
0

>  <SCORE.heavy>
10

>  <SCORE.norm>
-0.875928

>  <RMSD>
27.243

$$$$
ligand
 OpenBabel11021811513D
libRbt.so/2013.1/901 2013/11/27
 10 11  0  0  0  0  0  0  0  0999 V2000
   -9.1261   31.5162   -6.6941 N   0  0  0  0  0  0  0  0  0  0  0  0
   -9.6788   30.5266   -5.9799 C   0  0  0  0  0  0  0  0  0  0  0  0
   -9.3655   29.2317   -5.9581 N   0  0  0  0  0  0  0  0  0  0  0  0
   -8.3479   28.9735   -6.7952 C   0  0  0  0  0  0  0  0  0  0  0  0
   -7.6807   29.8826   -7.5952 C   0  0  0  0  0  0  0  0  0  0  0  0
   -8.1052   31.2249   -7.5266 C   0  0  0  0  0  0  0  0  0  0  0  0
   -7.5515   32.2090   -8.2421 N   0  0  0  0  0  0  0  0  0  0  0  0
   -6.6853   29.2548   -8.3245 N   0  0  0  0  0  0  0  0  0  0  0  0
   -6.7720   27.9975   -7.9581 C   0  0  0  0  0  0  0  0  0  0  0  0
   -7.7544   27.7574   -7.0377 N   0  0  0  0  0  0  0  0  0  0  0  0
  1  2  2  0  0  0  0
  1  6  1  0  0  0  0
  2  3  1  0  0  0  0
  3  4  2  0  0  0  0
  4  5  1  0  0  0  0
  4 10  1  0  0  0  0
  5  6  2  0  0  0  0
  5  8  1  0  0  0  0
  6  7  1  0  0  0  0
  8  9  1  0  0  0  0
  9 10  2  0  0  0  0
M  END
>  <CHROM.1>
-8.10594479,29.86790347,-7.21424130,2.11448650,0.70952027,-0.22634051

>  <Name>
ligand

>  <RI>
0

>  <Rbt.Current_Directory>
/home/itssahil/PROJECTS/Mol_Feturizer/New_Systems/rnas/4TZX

>  <Rbt.Executable>
rbdock ($Id: //depot/dev/client3/rdock/2013.1/src/exe/rbdock.cxx#4 $)

>  <Rbt.Library>
libRbt.so (2013.1, Build901 2013/11/27)

>  <Rbt.Parameter_File>
/export/apps/rDock/src/rDock_2013.1_src/data/scripts/dock_solv.prm

>  <Rbt.Receptor>
prm/blind_docking_40.prm

>  <SCORE>
-8.7583

>  <SCORE.INTER>
-8.7583

>  <SCORE.INTER.CONST>
1

>  <SCORE.INTER.POLAR>
0

>  <SCORE.INTER.ROT>
0

>  <SCORE.INTER.SOLV>
5.55384

>  <SCORE.INTER.VDW>
-11.2901

>  <SCORE.INTER.norm>
-0.87583

>  <SCORE.INTRA>
0

>  <SCORE.INTRA.DIHEDRAL>
0

>  <SCORE.INTRA.DIHEDRAL.0>
0

>  <SCORE.INTRA.POLAR>
0

>  <SCORE.INTRA.POLAR.0>
0

>  <SCORE.INTRA.REPUL>
0

>  <SCORE.INTRA.REPUL.0>
0

>  <SCORE.INTRA.SOLV>
0

>  <SCORE.INTRA.SOLV.lig_0>
-23.8949

>  <SCORE.INTRA.VDW>
0

>  <SCORE.INTRA.VDW.0>
0

>  <SCORE.INTRA.norm>
0

>  <SCORE.RESTR>
0

>  <SCORE.RESTR.CAVITY>
0

>  <SCORE.RESTR.norm>
0

>  <SCORE.SYSTEM>
0

>  <SCORE.SYSTEM.CONST>
0

>  <SCORE.SYSTEM.DIHEDRAL>
0

>  <SCORE.SYSTEM.SOLV>
0

>  <SCORE.SYSTEM.norm>
0

>  <SCORE.heavy>
10

>  <SCORE.norm>
-0.87583

>  <RMSD>
27.246

$$$$
ligand
 OpenBabel11021811513D
libRbt.so/2013.1/901 2013/11/27
 10 11  0  0  0  0  0  0  0  0999 V2000
   -9.1280   31.5164   -6.6935 N   0  0  0  0  0  0  0  0  0  0  0  0
   -9.6794   30.5270   -5.9781 C   0  0  0  0  0  0  0  0  0  0  0  0
   -9.3637   29.2327   -5.9539 N   0  0  0  0  0  0  0  0  0  0  0  0
   -8.3450   28.9750   -6.7899 C   0  0  0  0  0  0  0  0  0  0  0  0
   -7.6789   29.8840   -7.5909 C   0  0  0  0  0  0  0  0  0  0  0  0
   -8.1059   31.2256   -7.5247 C   0  0  0  0  0  0  0  0  0  0  0  0
   -7.5535   32.2096   -8.2414 N   0  0  0  0  0  0  0  0  0  0  0  0
   -6.6818   29.2569   -8.3184 N   0  0  0  0  0  0  0  0  0  0  0  0
   -6.7665   28.0000   -7.9501 C   0  0  0  0  0  0  0  0  0  0  0  0
   -7.7491   27.7596   -7.0300 N   0  0  0  0  0  0  0  0  0  0  0  0
  1  2  2  0  0  0  0
  1  6  1  0  0  0  0
  2  3  1  0  0  0  0
  3  4  2  0  0  0  0
  4  5  1  0  0  0  0
  4 10  1  0  0  0  0
  5  6  2  0  0  0  0
  5  8  1  0  0  0  0
  6  7  1  0  0  0  0
  8  9  1  0  0  0  0
  9 10  2  0  0  0  0
M  END
>  <CHROM.1>
-8.10440242,29.86913814,-7.21016444,2.11662899,0.70839070,-0.22935302

>  <Name>
ligand

>  <RI>
0

>  <Rbt.Current_Directory>
/home/itssahil/PROJECTS/Mol_Feturizer/New_Systems/rnas/4TZX

>  <Rbt.Executable>
rbdock ($Id: //depot/dev/client3/rdock/2013.1/src/exe/rbdock.cxx#4 $)

>  <Rbt.Library>
libRbt.so (2013.1, Build901 2013/11/27)

>  <Rbt.Parameter_File>
/export/apps/rDock/src/rDock_2013.1_src/data/scripts/dock_solv.prm

>  <Rbt.Receptor>
prm/blind_docking_40.prm

>  <SCORE>
-8.75554

>  <SCORE.INTER>
-8.75554

>  <SCORE.INTER.CONST>
1

>  <SCORE.INTER.POLAR>
0

>  <SCORE.INTER.ROT>
0

>  <SCORE.INTER.SOLV>
5.55016

>  <SCORE.INTER.VDW>
-11.2871

>  <SCORE.INTER.norm>
-0.875554

>  <SCORE.INTRA>
0

>  <SCORE.INTRA.DIHEDRAL>
0

>  <SCORE.INTRA.DIHEDRAL.0>
0

>  <SCORE.INTRA.POLAR>
0

>  <SCORE.INTRA.POLAR.0>
0

>  <SCORE.INTRA.REPUL>
0

>  <SCORE.INTRA.REPUL.0>
0

>  <SCORE.INTRA.SOLV>
0

>  <SCORE.INTRA.SOLV.lig_0>
-23.8949

>  <SCORE.INTRA.VDW>
0

>  <SCORE.INTRA.VDW.0>
0

>  <SCORE.INTRA.norm>
0

>  <SCORE.RESTR>
0

>  <SCORE.RESTR.CAVITY>
0

>  <SCORE.RESTR.norm>
0

>  <SCORE.SYSTEM>
0

>  <SCORE.SYSTEM.CONST>
0

>  <SCORE.SYSTEM.DIHEDRAL>
0

>  <SCORE.SYSTEM.SOLV>
0

>  <SCORE.SYSTEM.norm>
0

>  <SCORE.heavy>
10

>  <SCORE.norm>
-0.875554

>  <RMSD>
27.249

$$$$
ligand
 OpenBabel11021811513D
libRbt.so/2013.1/901 2013/11/27
 10 11  0  0  0  0  0  0  0  0999 V2000
   -7.9321   32.5903   -8.8912 N   0  0  0  0  0  0  0  0  0  0  0  0
   -6.7389   32.1764   -8.4444 C   0  0  0  0  0  0  0  0  0  0  0  0
   -6.4604   31.3638   -7.4258 N   0  0  0  0  0  0  0  0  0  0  0  0
   -7.5873   30.9524   -6.8226 C   0  0  0  0  0  0  0  0  0  0  0  0
   -8.8830   31.2929   -7.1643 C   0  0  0  0  0  0  0  0  0  0  0  0
   -9.0461   32.1594   -8.2639 C   0  0  0  0  0  0  0  0  0  0  0  0
  -10.2388   32.5710   -8.7056 N   0  0  0  0  0  0  0  0  0  0  0  0
   -9.7902   30.6770   -6.3191 N   0  0  0  0  0  0  0  0  0  0  0  0
   -9.0353   29.9897   -5.4942 C   0  0  0  0  0  0  0  0  0  0  0  0
   -7.6958   30.1108   -5.7410 N   0  0  0  0  0  0  0  0  0  0  0  0
  1  2  2  0  0  0  0
  1  6  1  0  0  0  0
  2  3  1  0  0  0  0
  3  4  2  0  0  0  0
  4  5  1  0  0  0  0
  4 10  1  0  0  0  0
  5  6  2  0  0  0  0
  5  8  1  0  0  0  0
  6  7  1  0  0  0  0
  8  9  1  0  0  0  0
  9 10  2  0  0  0  0
M  END
>  <CHROM.1>
-8.34714623,31.39405287,-7.33406381,-1.55312093,-0.04267713,2.23519060

>  <Name>
ligand

>  <RI>
0

>  <Rbt.Current_Directory>
/home/itssahil/PROJECTS/Mol_Feturizer/New_Systems/rnas/4TZX

>  <Rbt.Executable>
rbdock ($Id: //depot/dev/client3/rdock/2013.1/src/exe/rbdock.cxx#4 $)

>  <Rbt.Library>
libRbt.so (2013.1, Build901 2013/11/27)

>  <Rbt.Parameter_File>
/export/apps/rDock/src/rDock_2013.1_src/data/scripts/dock_solv.prm

>  <Rbt.Receptor>
prm/blind_docking_60.prm

>  <SCORE>
-7.71124

>  <SCORE.INTER>
-7.71124

>  <SCORE.INTER.CONST>
1

>  <SCORE.INTER.POLAR>
0

>  <SCORE.INTER.ROT>
0

>  <SCORE.INTER.SOLV>
3.35565

>  <SCORE.INTER.VDW>
-9.85937

>  <SCORE.INTER.norm>
-0.771124

>  <SCORE.INTRA>
0

>  <SCORE.INTRA.DIHEDRAL>
0

>  <SCORE.INTRA.DIHEDRAL.0>
0

>  <SCORE.INTRA.POLAR>
0

>  <SCORE.INTRA.POLAR.0>
0

>  <SCORE.INTRA.REPUL>
0

>  <SCORE.INTRA.REPUL.0>
0

>  <SCORE.INTRA.SOLV>
0

>  <SCORE.INTRA.SOLV.lig_0>
-23.8949

>  <SCORE.INTRA.VDW>
0

>  <SCORE.INTRA.VDW.0>
0

>  <SCORE.INTRA.norm>
0

>  <SCORE.RESTR>
0

>  <SCORE.RESTR.CAVITY>
0

>  <SCORE.RESTR.norm>
0

>  <SCORE.SYSTEM>
0

>  <SCORE.SYSTEM.CONST>
0

>  <SCORE.SYSTEM.DIHEDRAL>
0

>  <SCORE.SYSTEM.SOLV>
0

>  <SCORE.SYSTEM.norm>
0

>  <SCORE.heavy>
10

>  <SCORE.norm>
-0.771124

>  <RMSD>
27.845

$$$$
ligand
 OpenBabel11021811513D
libRbt.so/2013.1/901 2013/11/27
 10 11  0  0  0  0  0  0  0  0999 V2000
   -7.6263   31.3786   -6.2519 N   0  0  0  0  0  0  0  0  0  0  0  0
   -7.7125   30.5508   -5.2021 C   0  0  0  0  0  0  0  0  0  0  0  0
   -7.4650   29.2429   -5.1427 N   0  0  0  0  0  0  0  0  0  0  0  0
   -7.0840   28.7750   -6.3422 C   0  0  0  0  0  0  0  0  0  0  0  0
   -6.9515   29.5005   -7.5116 C   0  0  0  0  0  0  0  0  0  0  0  0
   -7.2406   30.8783   -7.4439 C   0  0  0  0  0  0  0  0  0  0  0  0
   -7.1545   31.7006   -8.4945 N   0  0  0  0  0  0  0  0  0  0  0  0
   -6.5367   28.6840   -8.5499 N   0  0  0  0  0  0  0  0  0  0  0  0
   -6.4318   27.4989   -7.9958 C   0  0  0  0  0  0  0  0  0  0  0  0
   -6.7475   27.4819   -6.6654 N   0  0  0  0  0  0  0  0  0  0  0  0
  1  2  2  0  0  0  0
  1  6  1  0  0  0  0
  2  3  1  0  0  0  0
  3  4  2  0  0  0  0
  4  5  1  0  0  0  0
  4 10  1  0  0  0  0
  5  6  2  0  0  0  0
  5  8  1  0  0  0  0
  6  7  1  0  0  0  0
  8  9  1  0  0  0  0
  9 10  2  0  0  0  0
M  END
>  <CHROM.1>
-7.09588063,29.57900295,-6.96466211,2.47272138,1.26824600,-0.69641677

>  <Name>
ligand

>  <RI>
0

>  <Rbt.Current_Directory>
/home/itssahil/PROJECTS/Mol_Feturizer/New_Systems/rnas/4TZX

>  <Rbt.Executable>
rbdock ($Id: //depot/dev/client3/rdock/2013.1/src/exe/rbdock.cxx#4 $)

>  <Rbt.Library>
libRbt.so (2013.1, Build901 2013/11/27)

>  <Rbt.Parameter_File>
/export/apps/rDock/src/rDock_2013.1_src/data/scripts/dock_solv.prm

>  <Rbt.Receptor>
prm/blind_docking_40.prm

>  <SCORE>
-8.24772

>  <SCORE.INTER>
-8.24772

>  <SCORE.INTER.CONST>
1

>  <SCORE.INTER.POLAR>
0

>  <SCORE.INTER.ROT>
0

>  <SCORE.INTER.SOLV>
9.26515

>  <SCORE.INTER.VDW>
-12.1869

>  <SCORE.INTER.norm>
-0.824772

>  <SCORE.INTRA>
0

>  <SCORE.INTRA.DIHEDRAL>
0

>  <SCORE.INTRA.DIHEDRAL.0>
0

>  <SCORE.INTRA.POLAR>
0

>  <SCORE.INTRA.POLAR.0>
0

>  <SCORE.INTRA.REPUL>
0

>  <SCORE.INTRA.REPUL.0>
0

>  <SCORE.INTRA.SOLV>
0

>  <SCORE.INTRA.SOLV.lig_0>
-23.8949

>  <SCORE.INTRA.VDW>
0

>  <SCORE.INTRA.VDW.0>
0

>  <SCORE.INTRA.norm>
0

>  <SCORE.RESTR>
0

>  <SCORE.RESTR.CAVITY>
0

>  <SCORE.RESTR.norm>
0

>  <SCORE.SYSTEM>
0

>  <SCORE.SYSTEM.CONST>
0

>  <SCORE.SYSTEM.DIHEDRAL>
0

>  <SCORE.SYSTEM.SOLV>
0

>  <SCORE.SYSTEM.norm>
0

>  <SCORE.heavy>
10

>  <SCORE.norm>
-0.824772

>  <RMSD>
28.039

$$$$
ligand
 OpenBabel11021811513D
libRbt.so/2013.1/901 2013/11/27
 10 11  0  0  0  0  0  0  0  0999 V2000
   -7.6333   31.3737   -6.2502 N   0  0  0  0  0  0  0  0  0  0  0  0
   -7.7142   30.5450   -5.2007 C   0  0  0  0  0  0  0  0  0  0  0  0
   -7.4587   29.2385   -5.1419 N   0  0  0  0  0  0  0  0  0  0  0  0
   -7.0752   28.7735   -6.3417 C   0  0  0  0  0  0  0  0  0  0  0  0
   -6.9473   29.5003   -7.5109 C   0  0  0  0  0  0  0  0  0  0  0  0
   -7.2448   30.8763   -7.4425 C   0  0  0  0  0  0  0  0  0  0  0  0
   -7.1640   31.6995   -8.4928 N   0  0  0  0  0  0  0  0  0  0  0  0
   -6.5278   28.6868   -8.5496 N   0  0  0  0  0  0  0  0  0  0  0  0
   -6.4155   27.5021   -7.9960 C   0  0  0  0  0  0  0  0  0  0  0  0
   -6.7307   27.4826   -6.6655 N   0  0  0  0  0  0  0  0  0  0  0  0
  1  2  2  0  0  0  0
  1  6  1  0  0  0  0
  2  3  1  0  0  0  0
  3  4  2  0  0  0  0
  4  5  1  0  0  0  0
  4 10  1  0  0  0  0
  5  6  2  0  0  0  0
  5  8  1  0  0  0  0
  6  7  1  0  0  0  0
  8  9  1  0  0  0  0
  9 10  2  0  0  0  0
M  END
>  <CHROM.1>
-7.09204639,29.57768010,-6.96385832,2.48877622,1.26446465,-0.71130583

>  <Name>
ligand

>  <RI>
0

>  <Rbt.Current_Directory>
/home/itssahil/PROJECTS/Mol_Feturizer/New_Systems/rnas/4TZX

>  <Rbt.Executable>
rbdock ($Id: //depot/dev/client3/rdock/2013.1/src/exe/rbdock.cxx#4 $)

>  <Rbt.Library>
libRbt.so (2013.1, Build901 2013/11/27)

>  <Rbt.Parameter_File>
/export/apps/rDock/src/rDock_2013.1_src/data/scripts/dock_solv.prm

>  <Rbt.Receptor>
prm/blind_docking_40.prm

>  <SCORE>
-8.24535

>  <SCORE.INTER>
-8.24535

>  <SCORE.INTER.CONST>
1

>  <SCORE.INTER.POLAR>
0

>  <SCORE.INTER.ROT>
0

>  <SCORE.INTER.SOLV>
9.24518

>  <SCORE.INTER.VDW>
-12.1786

>  <SCORE.INTER.norm>
-0.824535

>  <SCORE.INTRA>
0

>  <SCORE.INTRA.DIHEDRAL>
0

>  <SCORE.INTRA.DIHEDRAL.0>
0

>  <SCORE.INTRA.POLAR>
0

>  <SCORE.INTRA.POLAR.0>
0

>  <SCORE.INTRA.REPUL>
0

>  <SCORE.INTRA.REPUL.0>
0

>  <SCORE.INTRA.SOLV>
0

>  <SCORE.INTRA.SOLV.lig_0>
-23.8949

>  <SCORE.INTRA.VDW>
0

>  <SCORE.INTRA.VDW.0>
0

>  <SCORE.INTRA.norm>
0

>  <SCORE.RESTR>
0

>  <SCORE.RESTR.CAVITY>
0

>  <SCORE.RESTR.norm>
0

>  <SCORE.SYSTEM>
0

>  <SCORE.SYSTEM.CONST>
0

>  <SCORE.SYSTEM.DIHEDRAL>
0

>  <SCORE.SYSTEM.SOLV>
0

>  <SCORE.SYSTEM.norm>
0

>  <SCORE.heavy>
10

>  <SCORE.norm>
-0.824535

>  <RMSD>
28.042

$$$$
ligand
 OpenBabel11021811513D
libRbt.so/2013.1/901 2013/11/27
 10 11  0  0  0  0  0  0  0  0999 V2000
   -7.6213   31.3784   -6.2576 N   0  0  0  0  0  0  0  0  0  0  0  0
   -7.7137   30.5515   -5.2077 C   0  0  0  0  0  0  0  0  0  0  0  0
   -7.4682   29.2433   -5.1461 N   0  0  0  0  0  0  0  0  0  0  0  0
   -7.0819   28.7741   -6.3434 C   0  0  0  0  0  0  0  0  0  0  0  0
   -6.9426   29.4985   -7.5127 C   0  0  0  0  0  0  0  0  0  0  0  0
   -7.2303   30.8768   -7.4474 C   0  0  0  0  0  0  0  0  0  0  0  0
   -7.1379   31.6981   -8.4981 N   0  0  0  0  0  0  0  0  0  0  0  0
   -6.5238   28.6807   -8.5483 N   0  0  0  0  0  0  0  0  0  0  0  0
   -6.4231   27.4959   -7.9928 C   0  0  0  0  0  0  0  0  0  0  0  0
   -6.7453   27.4803   -6.6639 N   0  0  0  0  0  0  0  0  0  0  0  0
  1  2  2  0  0  0  0
  1  6  1  0  0  0  0
  2  3  1  0  0  0  0
  3  4  2  0  0  0  0
  4  5  1  0  0  0  0
  4 10  1  0  0  0  0
  5  6  2  0  0  0  0
  5  8  1  0  0  0  0
  6  7  1  0  0  0  0
  8  9  1  0  0  0  0
  9 10  2  0  0  0  0
M  END
>  <CHROM.1>
-7.08960965,29.57761580,-6.96648037,2.45895249,1.26524553,-0.68400637

>  <Name>
ligand

>  <RI>
0

>  <Rbt.Current_Directory>
/home/itssahil/PROJECTS/Mol_Feturizer/New_Systems/rnas/4TZX

>  <Rbt.Executable>
rbdock ($Id: //depot/dev/client3/rdock/2013.1/src/exe/rbdock.cxx#4 $)

>  <Rbt.Library>
libRbt.so (2013.1, Build901 2013/11/27)

>  <Rbt.Parameter_File>
/export/apps/rDock/src/rDock_2013.1_src/data/scripts/dock_solv.prm

>  <Rbt.Receptor>
prm/blind_docking_40.prm

>  <SCORE>
-8.2467

>  <SCORE.INTER>
-8.2467

>  <SCORE.INTER.CONST>
1

>  <SCORE.INTER.POLAR>
0

>  <SCORE.INTER.ROT>
0

>  <SCORE.INTER.SOLV>
9.33276

>  <SCORE.INTER.VDW>
-12.2087

>  <SCORE.INTER.norm>
-0.82467

>  <SCORE.INTRA>
0

>  <SCORE.INTRA.DIHEDRAL>
0

>  <SCORE.INTRA.DIHEDRAL.0>
0

>  <SCORE.INTRA.POLAR>
0

>  <SCORE.INTRA.POLAR.0>
0

>  <SCORE.INTRA.REPUL>
0

>  <SCORE.INTRA.REPUL.0>
0

>  <SCORE.INTRA.SOLV>
0

>  <SCORE.INTRA.SOLV.lig_0>
-23.8949

>  <SCORE.INTRA.VDW>
0

>  <SCORE.INTRA.VDW.0>
0

>  <SCORE.INTRA.norm>
0

>  <SCORE.RESTR>
0

>  <SCORE.RESTR.CAVITY>
0

>  <SCORE.RESTR.norm>
0

>  <SCORE.SYSTEM>
0

>  <SCORE.SYSTEM.CONST>
0

>  <SCORE.SYSTEM.DIHEDRAL>
0

>  <SCORE.SYSTEM.SOLV>
0

>  <SCORE.SYSTEM.norm>
0

>  <SCORE.heavy>
10

>  <SCORE.norm>
-0.82467

>  <RMSD>
28.043

$$$$
ligand
 OpenBabel11021811513D
libRbt.so/2013.1/901 2013/11/27
 10 11  0  0  0  0  0  0  0  0999 V2000
   -7.6217   31.3402   -6.2261 N   0  0  0  0  0  0  0  0  0  0  0  0
   -7.6805   30.5161   -5.1714 C   0  0  0  0  0  0  0  0  0  0  0  0
   -7.4151   29.2117   -5.1103 N   0  0  0  0  0  0  0  0  0  0  0  0
   -7.0472   28.7434   -6.3137 C   0  0  0  0  0  0  0  0  0  0  0  0
   -6.9426   29.4652   -7.4883 C   0  0  0  0  0  0  0  0  0  0  0  0
   -7.2486   30.8395   -7.4219 C   0  0  0  0  0  0  0  0  0  0  0  0
   -7.1899   31.6580   -8.4773 N   0  0  0  0  0  0  0  0  0  0  0  0
   -6.5339   28.6494   -8.5295 N   0  0  0  0  0  0  0  0  0  0  0  0
   -6.4048   27.4683   -7.9720 C   0  0  0  0  0  0  0  0  0  0  0  0
   -6.6990   27.4533   -6.6366 N   0  0  0  0  0  0  0  0  0  0  0  0
  1  2  2  0  0  0  0
  1  6  1  0  0  0  0
  2  3  1  0  0  0  0
  3  4  2  0  0  0  0
  4  5  1  0  0  0  0
  4 10  1  0  0  0  0
  5  6  2  0  0  0  0
  5  8  1  0  0  0  0
  6  7  1  0  0  0  0
  8  9  1  0  0  0  0
  9 10  2  0  0  0  0
M  END
>  <CHROM.1>
-7.07937210,29.54430972,-6.93941421,2.54118621,1.27144140,-0.76624214

>  <Name>
ligand

>  <RI>
0

>  <Rbt.Current_Directory>
/home/itssahil/PROJECTS/Mol_Feturizer/New_Systems/rnas/4TZX

>  <Rbt.Executable>
rbdock ($Id: //depot/dev/client3/rdock/2013.1/src/exe/rbdock.cxx#4 $)

>  <Rbt.Library>
libRbt.so (2013.1, Build901 2013/11/27)

>  <Rbt.Parameter_File>
/export/apps/rDock/src/rDock_2013.1_src/data/scripts/dock_solv.prm

>  <Rbt.Receptor>
prm/blind_docking_60.prm

>  <SCORE>
-8.2476

>  <SCORE.INTER>
-8.2476

>  <SCORE.INTER.CONST>
1

>  <SCORE.INTER.POLAR>
0

>  <SCORE.INTER.ROT>
0

>  <SCORE.INTER.SOLV>
9.23872

>  <SCORE.INTER.VDW>
-12.178

>  <SCORE.INTER.norm>
-0.82476

>  <SCORE.INTRA>
0

>  <SCORE.INTRA.DIHEDRAL>
0

>  <SCORE.INTRA.DIHEDRAL.0>
0

>  <SCORE.INTRA.POLAR>
0

>  <SCORE.INTRA.POLAR.0>
0

>  <SCORE.INTRA.REPUL>
0

>  <SCORE.INTRA.REPUL.0>
0

>  <SCORE.INTRA.SOLV>
0

>  <SCORE.INTRA.SOLV.lig_0>
-23.8949

>  <SCORE.INTRA.VDW>
0

>  <SCORE.INTRA.VDW.0>
0

>  <SCORE.INTRA.norm>
0

>  <SCORE.RESTR>
0

>  <SCORE.RESTR.CAVITY>
0

>  <SCORE.RESTR.norm>
0

>  <SCORE.SYSTEM>
0

>  <SCORE.SYSTEM.CONST>
0

>  <SCORE.SYSTEM.DIHEDRAL>
0

>  <SCORE.SYSTEM.SOLV>
0

>  <SCORE.SYSTEM.norm>
0

>  <SCORE.heavy>
10

>  <SCORE.norm>
-0.82476

>  <RMSD>
28.047

$$$$
ligand
 OpenBabel11021811513D
libRbt.so/2013.1/901 2013/11/27
 10 11  0  0  0  0  0  0  0  0999 V2000
   -7.5885   31.3613   -6.2558 N   0  0  0  0  0  0  0  0  0  0  0  0
   -7.6642   30.5431   -5.1976 C   0  0  0  0  0  0  0  0  0  0  0  0
   -7.4191   29.2351   -5.1294 N   0  0  0  0  0  0  0  0  0  0  0  0
   -7.0535   28.7556   -6.3291 C   0  0  0  0  0  0  0  0  0  0  0  0
   -6.9330   29.4703   -7.5065 C   0  0  0  0  0  0  0  0  0  0  0  0
   -7.2182   30.8494   -7.4478 C   0  0  0  0  0  0  0  0  0  0  0  0
   -7.1426   31.6620   -8.5066 N   0  0  0  0  0  0  0  0  0  0  0  0
   -6.5326   28.6436   -8.5423 N   0  0  0  0  0  0  0  0  0  0  0  0
   -6.4239   27.4632   -7.9789 C   0  0  0  0  0  0  0  0  0  0  0  0
   -6.7238   27.4589   -6.6447 N   0  0  0  0  0  0  0  0  0  0  0  0
  1  2  2  0  0  0  0
  1  6  1  0  0  0  0
  2  3  1  0  0  0  0
  3  4  2  0  0  0  0
  4  5  1  0  0  0  0
  4 10  1  0  0  0  0
  5  6  2  0  0  0  0
  5  8  1  0  0  0  0
  6  7  1  0  0  0  0
  8  9  1  0  0  0  0
  9 10  2  0  0  0  0
M  END
>  <CHROM.1>
-7.07079461,29.55406871,-6.95861794,2.49293813,1.27879438,-0.72469908

>  <Name>
ligand

>  <RI>
0

>  <Rbt.Current_Directory>
/home/itssahil/PROJECTS/Mol_Feturizer/New_Systems/rnas/4TZX

>  <Rbt.Executable>
rbdock ($Id: //depot/dev/client3/rdock/2013.1/src/exe/rbdock.cxx#4 $)

>  <Rbt.Library>
libRbt.so (2013.1, Build901 2013/11/27)

>  <Rbt.Parameter_File>
/export/apps/rDock/src/rDock_2013.1_src/data/scripts/dock_solv.prm

>  <Rbt.Receptor>
prm/blind_docking_40.prm

>  <SCORE>
-8.21802

>  <SCORE.INTER>
-8.21802

>  <SCORE.INTER.CONST>
1

>  <SCORE.INTER.POLAR>
0

>  <SCORE.INTER.ROT>
0

>  <SCORE.INTER.SOLV>
9.43963

>  <SCORE.INTER.VDW>
-12.2252

>  <SCORE.INTER.norm>
-0.821802

>  <SCORE.INTRA>
0

>  <SCORE.INTRA.DIHEDRAL>
0

>  <SCORE.INTRA.DIHEDRAL.0>
0

>  <SCORE.INTRA.POLAR>
0

>  <SCORE.INTRA.POLAR.0>
0

>  <SCORE.INTRA.REPUL>
0

>  <SCORE.INTRA.REPUL.0>
0

>  <SCORE.INTRA.SOLV>
0

>  <SCORE.INTRA.SOLV.lig_0>
-23.8949

>  <SCORE.INTRA.VDW>
0

>  <SCORE.INTRA.VDW.0>
0

>  <SCORE.INTRA.norm>
0

>  <SCORE.RESTR>
0

>  <SCORE.RESTR.CAVITY>
0

>  <SCORE.RESTR.norm>
0

>  <SCORE.SYSTEM>
0

>  <SCORE.SYSTEM.CONST>
0

>  <SCORE.SYSTEM.DIHEDRAL>
0

>  <SCORE.SYSTEM.SOLV>
0

>  <SCORE.SYSTEM.norm>
0

>  <SCORE.heavy>
10

>  <SCORE.norm>
-0.821802

>  <RMSD>
28.052

$$$$
ligand
 OpenBabel11021811513D
libRbt.so/2013.1/901 2013/11/27
 10 11  0  0  0  0  0  0  0  0999 V2000
   -7.5875   31.3709   -6.2519 N   0  0  0  0  0  0  0  0  0  0  0  0
   -7.6693   30.5551   -5.1924 C   0  0  0  0  0  0  0  0  0  0  0  0
   -7.4278   29.2466   -5.1207 N   0  0  0  0  0  0  0  0  0  0  0  0
   -7.0589   28.7637   -6.3180 C   0  0  0  0  0  0  0  0  0  0  0  0
   -6.9322   29.4757   -7.4964 C   0  0  0  0  0  0  0  0  0  0  0  0
   -7.2140   30.8557   -7.4415 C   0  0  0  0  0  0  0  0  0  0  0  0
   -7.1323   31.6659   -8.5017 N   0  0  0  0  0  0  0  0  0  0  0  0
   -6.5300   28.6458   -8.5290 N   0  0  0  0  0  0  0  0  0  0  0  0
   -6.4265   27.4663   -7.9627 C   0  0  0  0  0  0  0  0  0  0  0  0
   -6.7314   27.4655   -6.6297 N   0  0  0  0  0  0  0  0  0  0  0  0
  1  2  2  0  0  0  0
  1  6  1  0  0  0  0
  2  3  1  0  0  0  0
  3  4  2  0  0  0  0
  4  5  1  0  0  0  0
  4 10  1  0  0  0  0
  5  6  2  0  0  0  0
  5  8  1  0  0  0  0
  6  7  1  0  0  0  0
  8  9  1  0  0  0  0
  9 10  2  0  0  0  0
M  END
>  <CHROM.1>
-7.07181559,29.56093201,-6.94917221,2.47757002,1.27764067,-0.71200375

>  <Name>
ligand

>  <RI>
0

>  <Rbt.Current_Directory>
/home/itssahil/PROJECTS/Mol_Feturizer/New_Systems/rnas/4TZX

>  <Rbt.Executable>
rbdock ($Id: //depot/dev/client3/rdock/2013.1/src/exe/rbdock.cxx#4 $)

>  <Rbt.Library>
libRbt.so (2013.1, Build901 2013/11/27)

>  <Rbt.Parameter_File>
/export/apps/rDock/src/rDock_2013.1_src/data/scripts/dock_solv.prm

>  <Rbt.Receptor>
prm/blind_docking_40.prm

>  <SCORE>
-8.26782

>  <SCORE.INTER>
-8.26782

>  <SCORE.INTER.CONST>
1

>  <SCORE.INTER.POLAR>
0

>  <SCORE.INTER.ROT>
0

>  <SCORE.INTER.SOLV>
9.45406

>  <SCORE.INTER.VDW>
-12.2632

>  <SCORE.INTER.norm>
-0.826782

>  <SCORE.INTRA>
0

>  <SCORE.INTRA.DIHEDRAL>
0

>  <SCORE.INTRA.DIHEDRAL.0>
0

>  <SCORE.INTRA.POLAR>
0

>  <SCORE.INTRA.POLAR.0>
0

>  <SCORE.INTRA.REPUL>
0

>  <SCORE.INTRA.REPUL.0>
0

>  <SCORE.INTRA.SOLV>
0

>  <SCORE.INTRA.SOLV.lig_0>
-23.8949

>  <SCORE.INTRA.VDW>
0

>  <SCORE.INTRA.VDW.0>
0

>  <SCORE.INTRA.norm>
0

>  <SCORE.RESTR>
0

>  <SCORE.RESTR.CAVITY>
0

>  <SCORE.RESTR.norm>
0

>  <SCORE.SYSTEM>
0

>  <SCORE.SYSTEM.CONST>
0

>  <SCORE.SYSTEM.DIHEDRAL>
0

>  <SCORE.SYSTEM.SOLV>
0

>  <SCORE.SYSTEM.norm>
0

>  <SCORE.heavy>
10

>  <SCORE.norm>
-0.826782

>  <RMSD>
28.057

$$$$
ligand
 OpenBabel11021811513D
libRbt.so/2013.1/901 2013/11/27
 10 11  0  0  0  0  0  0  0  0999 V2000
   -7.5894   31.3614   -6.2432 N   0  0  0  0  0  0  0  0  0  0  0  0
   -7.6655   30.5432   -5.1851 C   0  0  0  0  0  0  0  0  0  0  0  0
   -7.4194   29.2354   -5.1166 N   0  0  0  0  0  0  0  0  0  0  0  0
   -7.0523   28.7562   -6.3159 C   0  0  0  0  0  0  0  0  0  0  0  0
   -6.9313   29.4709   -7.4933 C   0  0  0  0  0  0  0  0  0  0  0  0
   -7.2175   30.8498   -7.4348 C   0  0  0  0  0  0  0  0  0  0  0  0
   -7.1415   31.6624   -8.4936 N   0  0  0  0  0  0  0  0  0  0  0  0
   -6.5292   28.6444   -8.5286 N   0  0  0  0  0  0  0  0  0  0  0  0
   -6.4202   27.4641   -7.9650 C   0  0  0  0  0  0  0  0  0  0  0  0
   -6.7213   27.4597   -6.6311 N   0  0  0  0  0  0  0  0  0  0  0  0
  1  2  2  0  0  0  0
  1  6  1  0  0  0  0
  2  3  1  0  0  0  0
  3  4  2  0  0  0  0
  4  5  1  0  0  0  0
  4 10  1  0  0  0  0
  5  6  2  0  0  0  0
  5  8  1  0  0  0  0
  6  7  1  0  0  0  0
  8  9  1  0  0  0  0
  9 10  2  0  0  0  0
M  END
>  <CHROM.1>
-7.06963829,29.55456732,-6.94547718,2.49265364,1.27757865,-0.72446344

>  <Name>
ligand

>  <RI>
0

>  <Rbt.Current_Directory>
/home/itssahil/PROJECTS/Mol_Feturizer/New_Systems/rnas/4TZX

>  <Rbt.Executable>
rbdock ($Id: //depot/dev/client3/rdock/2013.1/src/exe/rbdock.cxx#4 $)

>  <Rbt.Library>
libRbt.so (2013.1, Build901 2013/11/27)

>  <Rbt.Parameter_File>
/export/apps/rDock/src/rDock_2013.1_src/data/scripts/dock_solv.prm

>  <Rbt.Receptor>
prm/blind_docking_40.prm

>  <SCORE>
-8.22977

>  <SCORE.INTER>
-8.22977

>  <SCORE.INTER.CONST>
1

>  <SCORE.INTER.POLAR>
0

>  <SCORE.INTER.ROT>
0

>  <SCORE.INTER.SOLV>
9.42031

>  <SCORE.INTER.VDW>
-12.2266

>  <SCORE.INTER.norm>
-0.822977

>  <SCORE.INTRA>
0

>  <SCORE.INTRA.DIHEDRAL>
0

>  <SCORE.INTRA.DIHEDRAL.0>
0

>  <SCORE.INTRA.POLAR>
0

>  <SCORE.INTRA.POLAR.0>
0

>  <SCORE.INTRA.REPUL>
0

>  <SCORE.INTRA.REPUL.0>
0

>  <SCORE.INTRA.SOLV>
0

>  <SCORE.INTRA.SOLV.lig_0>
-23.8949

>  <SCORE.INTRA.VDW>
0

>  <SCORE.INTRA.VDW.0>
0

>  <SCORE.INTRA.norm>
0

>  <SCORE.RESTR>
0

>  <SCORE.RESTR.CAVITY>
0

>  <SCORE.RESTR.norm>
0

>  <SCORE.SYSTEM>
0

>  <SCORE.SYSTEM.CONST>
0

>  <SCORE.SYSTEM.DIHEDRAL>
0

>  <SCORE.SYSTEM.SOLV>
0

>  <SCORE.SYSTEM.norm>
0

>  <SCORE.heavy>
10

>  <SCORE.norm>
-0.822977

>  <RMSD>
28.058

$$$$
ligand
 OpenBabel11021811513D
libRbt.so/2013.1/901 2013/11/27
 10 11  0  0  0  0  0  0  0  0999 V2000
   -7.5829   31.3737   -6.2528 N   0  0  0  0  0  0  0  0  0  0  0  0
   -7.6661   30.5580   -5.1934 C   0  0  0  0  0  0  0  0  0  0  0  0
   -7.4269   29.2491   -5.1217 N   0  0  0  0  0  0  0  0  0  0  0  0
   -7.0588   28.7656   -6.3191 C   0  0  0  0  0  0  0  0  0  0  0  0
   -6.9309   29.4775   -7.4974 C   0  0  0  0  0  0  0  0  0  0  0  0
   -7.2103   30.8579   -7.4424 C   0  0  0  0  0  0  0  0  0  0  0  0
   -7.1273   31.6681   -8.5025 N   0  0  0  0  0  0  0  0  0  0  0  0
   -6.5302   28.6470   -8.5301 N   0  0  0  0  0  0  0  0  0  0  0  0
   -6.4287   27.4672   -7.9639 C   0  0  0  0  0  0  0  0  0  0  0  0
   -6.7336   27.4669   -6.6309 N   0  0  0  0  0  0  0  0  0  0  0  0
  1  2  2  0  0  0  0
  1  6  1  0  0  0  0
  2  3  1  0  0  0  0
  3  4  2  0  0  0  0
  4  5  1  0  0  0  0
  4 10  1  0  0  0  0
  5  6  2  0  0  0  0
  5  8  1  0  0  0  0
  6  7  1  0  0  0  0
  8  9  1  0  0  0  0
  9 10  2  0  0  0  0
M  END
>  <CHROM.1>
-7.07037612,29.56290452,-6.95019396,2.47310084,1.27880701,-0.70766153

>  <Name>
ligand

>  <RI>
0

>  <Rbt.Current_Directory>
/home/itssahil/PROJECTS/Mol_Feturizer/New_Systems/rnas/4TZX

>  <Rbt.Executable>
rbdock ($Id: //depot/dev/client3/rdock/2013.1/src/exe/rbdock.cxx#4 $)

>  <Rbt.Library>
libRbt.so (2013.1, Build901 2013/11/27)

>  <Rbt.Parameter_File>
/export/apps/rDock/src/rDock_2013.1_src/data/scripts/dock_solv.prm

>  <Rbt.Receptor>
prm/blind_docking_40.prm

>  <SCORE>
-8.26735

>  <SCORE.INTER>
-8.26735

>  <SCORE.INTER.CONST>
1

>  <SCORE.INTER.POLAR>
0

>  <SCORE.INTER.ROT>
0

>  <SCORE.INTER.SOLV>
9.46817

>  <SCORE.INTER.VDW>
-12.2676

>  <SCORE.INTER.norm>
-0.826735

>  <SCORE.INTRA>
0

>  <SCORE.INTRA.DIHEDRAL>
0

>  <SCORE.INTRA.DIHEDRAL.0>
0

>  <SCORE.INTRA.POLAR>
0

>  <SCORE.INTRA.POLAR.0>
0

>  <SCORE.INTRA.REPUL>
0

>  <SCORE.INTRA.REPUL.0>
0

>  <SCORE.INTRA.SOLV>
0

>  <SCORE.INTRA.SOLV.lig_0>
-23.8949

>  <SCORE.INTRA.VDW>
0

>  <SCORE.INTRA.VDW.0>
0

>  <SCORE.INTRA.norm>
0

>  <SCORE.RESTR>
0

>  <SCORE.RESTR.CAVITY>
0

>  <SCORE.RESTR.norm>
0

>  <SCORE.SYSTEM>
0

>  <SCORE.SYSTEM.CONST>
0

>  <SCORE.SYSTEM.DIHEDRAL>
0

>  <SCORE.SYSTEM.SOLV>
0

>  <SCORE.SYSTEM.norm>
0

>  <SCORE.heavy>
10

>  <SCORE.norm>
-0.826735

>  <RMSD>
28.059

$$$$
