@<TRIPOS>MOLECULE
4TZX_rdock.pdb
 1502 1677 0 0 0
SMALL
GASTEIGER

@<TRIPOS>ATOM
      1  P        -47.9460    7.7550  -13.5810 P.3    13  G13         0.1280
      2  C5'      -49.0870    7.6100  -11.2230 C.3    13  G13         0.1795
      3  O5'      -48.3950    6.9560  -12.2780 O.3    13  G13        -0.3259
      4  C4'      -49.2510    6.7050  -10.0280 C.3    13  G13         0.1772
      5  O4'      -50.0060    5.5260  -10.4040 O.3    13  G13        -0.3307
      6  C3'      -47.9660    6.1520   -9.4300 C.3    13  G13         0.1860
      7  O3'      -47.3380    7.0680   -8.5490 O.3    13  G13        -0.3112
      8  C2'      -48.4370    4.8790   -8.7370 C.3    13  G13         0.2309
      9  O2'      -49.0150    5.1830   -7.4760 O.3    13  G13        -0.2156
     10  C1'      -49.5480    4.4060   -9.6770 C.3    13  G13         0.2408
     11  N1       -47.7330   -0.3260  -10.2460 N.ar   13  G13        -0.1709
     12  C2       -48.0540    0.3500   -9.0960 C.ar   13  G13         0.2606
     13  N2       -47.8730   -0.3180   -7.9480 N.pl3  13  G13        -0.0859
     14  N3       -48.5230    1.5880   -9.0730 N.ar   13  G13        -0.1918
     15  C4       -48.6440    2.1070  -10.3130 C.ar   13  G13         0.1723
     16  C5       -48.3490    1.5170  -11.5240 C.ar   13  G13         0.1748
     17  C6       -47.8490    0.1890  -11.5340 C.ar   13  G13         0.3023
     18  O6       -47.5300   -0.5050  -12.5070 O.2    13  G13        -0.2633
     19  N7       -48.6110    2.3830  -12.5750 N.ar   13  G13        -0.2173
     20  C8       -49.0530    3.4660  -11.9980 C.ar   13  G13         0.1817
     21  N9       -49.0930    3.3700  -10.6270 N.ar   13  G13        -0.2693
     22  OP1      -47.3650    9.0510  -13.1460 O.3    13  G13        -0.1955
     23  OP2      -47.1400    6.8370  -14.4240 O.co2  13  G13        -0.7863
     24  P        -45.7410    7.2540   -8.5630 P.3    14  G14         0.2141
     25  C5'      -45.3680    5.8570   -6.3710 C.3    14  G14         0.1812
     26  O5'      -45.1870    5.9810   -7.7760 O.3    14  G14        -0.3114
     27  C4'      -44.9670    4.4890   -5.8720 C.3    14  G14         0.1773
     28  O4'      -45.7980    3.4730   -6.4920 O.3    14  G14        -0.3307
     29  C3'      -43.5480    4.0480   -6.1890 C.3    14  G14         0.1860
     30  O3'      -42.5830    4.5980   -5.3090 O.3    14  G14        -0.3112
     31  C2'      -43.6470    2.5280   -6.1140 C.3    14  G14         0.2309
     32  O2'      -43.6200    2.0850   -4.7650 O.3    14  G14        -0.2156
     33  C1'      -45.0500    2.2870   -6.6750 C.3    14  G14         0.2408
     34  N1       -43.7830   -1.2220  -10.1280 N.ar   14  G14        -0.1709
     35  C2       -43.6530   -1.2490   -8.7620 C.ar   14  G14         0.2606
     36  N2       -43.1120   -2.3600   -8.2420 N.pl3  14  G14        -0.0859
     37  N3       -44.0250   -0.2610   -7.9650 N.ar   14  G14        -0.1918
     38  C4       -44.5480    0.7760   -8.6540 C.ar   14  G14         0.1723
     39  C5       -44.7220    0.9030  -10.0150 C.ar   14  G14         0.1748
     40  C6       -44.3190   -0.1650  -10.8580 C.ar   14  G14         0.3023
     41  O6       -44.3910   -0.2390  -12.0900 O.2    14  G14        -0.2633
     42  N7       -45.2950    2.1280  -10.3260 N.ar   14  G14        -0.2173
     43  C8       -45.4570    2.7140   -9.1700 C.ar   14  G14         0.1817
     44  N9       -45.0230    1.9480   -8.1130 N.ar   14  G14        -0.2693
     45  OP1      -45.4130    8.4560   -7.7530 O.3    14  G14        -0.4373
     46  OP2      -45.2930    7.1870   -9.9780 O.co2  14  G14        -0.5172
     47  P        -41.0970    4.9190   -5.8360 P.3    15  G15         0.2141
     48  C5'      -40.1700    2.5600   -5.1790 C.3    15  G15         0.1812
     49  O5'      -40.4960    3.4890   -6.2010 O.3    15  G15        -0.3114
     50  C4'      -39.6460    1.2630   -5.7440 C.3    15  G15         0.1773
     51  O4'      -40.6860    0.5890   -6.5010 O.3    15  G15        -0.3307
     52  C3'      -38.4960    1.3690   -6.7300 C.3    15  G15         0.1860
     53  O3'      -37.2390    1.5880   -6.1130 O.3    15  G15        -0.3112
     54  C2'      -38.5890    0.0460   -7.4770 C.3    15  G15         0.2309
     55  O2'      -38.0520   -1.0110   -6.6960 O.3    15  G15        -0.2156
     56  C1'      -40.1040   -0.1400   -7.5650 C.3    15  G15         0.2408
     57  N1       -40.6960   -1.1100  -12.5110 N.ar   15  G15        -0.1709
     58  C2       -40.1090   -1.8720  -11.5310 C.ar   15  G15         0.2606
     59  N2       -39.6100   -3.0540  -11.9170 N.pl3  15  G15        -0.0859
     60  N3       -40.0190   -1.5010  -10.2650 N.ar   15  G15        -0.1918
     61  C4       -40.5710   -0.2880  -10.0520 C.ar   15  G15         0.1723
     62  C5       -41.1800    0.5530  -10.9590 C.ar   15  G15         0.1748
     63  C6       -41.2710    0.1420  -12.3150 C.ar   15  G15         0.3023
     64  O6       -41.7730    0.7410  -13.2740 O.2    15  G15        -0.2633
     65  N7       -41.6170    1.7120  -10.3330 N.ar   15  G15        -0.2173
     66  C8       -41.2720    1.5590   -9.0820 C.ar   15  G15         0.1817
     67  N9       -40.6370    0.3650   -8.8440 N.ar   15  G15        -0.2693
     68  OP1      -40.3320    5.4600   -4.6840 O.3    15  G15        -0.4373
     69  OP2      -41.1890    5.7060   -7.0920 O.co2  15  G15        -0.5172
     70  P        -36.1040    2.4230   -6.8870 P.3    16  A16         0.2141
     71  C5'      -34.9950    0.2120   -7.7420 C.3    16  A16         0.1812
     72  O5'      -35.6290    1.4440   -8.0510 O.3    16  A16        -0.3114
     73  C4'      -34.9340   -0.7140   -8.9320 C.3    16  A16         0.1773
     74  O4'      -36.2640   -0.9510   -9.4600 O.3    16  A16        -0.3307
     75  C3'      -34.1530   -0.2250  -10.1390 C.3    16  A16         0.1860
     76  O3'      -32.7510   -0.3430   -9.9810 O.3    16  A16        -0.3112
     77  C2'      -34.7140   -1.0900  -11.2590 C.3    16  A16         0.2309
     78  O2'      -34.1470   -2.3920  -11.2210 O.3    16  A16        -0.2156
     79  C1'      -36.1860   -1.1930  -10.8520 C.3    16  A16         0.2408
     80  N1       -38.3760   -0.0630  -15.3440 N.ar   16  A16        -0.2040
     81  C2       -37.6180   -1.0890  -14.9360 C.ar   16  A16         0.2016
     82  N3       -37.0820   -1.3120  -13.7390 N.ar   16  A16        -0.2048
     83  C4       -37.3970   -0.3210  -12.8860 C.ar   16  A16         0.1692
     84  C5       -38.1630    0.7970  -13.1550 C.ar   16  A16         0.1518
     85  C6       -38.6730    0.9160  -14.4610 C.ar   16  A16         0.1919
     86  N6       -39.4290    1.9360  -14.8750 N.pl3  16  A16        -0.1054
     87  N7       -38.2690    1.5980  -12.0250 N.ar   16  A16        -0.2193
     88  C8       -37.5760    0.9560  -11.1140 C.ar   16  A16         0.1816
     89  N9       -37.0240   -0.2150  -11.5700 N.ar   16  A16        -0.2693
     90  OP1      -34.9620    2.6260   -5.9610 O.3    16  A16        -0.4373
     91  OP2      -36.7560    3.6000   -7.5170 O.co2  16  A16        -0.5172
     92  P        -31.7800    0.8090  -10.5400 P.3    17  A17         0.2141
     93  C5'      -30.8380   -0.3420  -12.6920 C.3    17  A17         0.1812
     94  O5'      -31.7610    0.5700  -12.1160 O.3    17  A17        -0.3114
     95  C4'      -31.3680   -0.9720  -13.9560 C.3    17  A17         0.1773
     96  O4'      -32.8140   -1.0750  -13.9060 O.3    17  A17        -0.3307
     97  C3'      -31.1100   -0.2180  -15.2490 C.3    17  A17         0.1860
     98  O3'      -29.7880   -0.3750  -15.7290 O.3    17  A17        -0.3112
     99  C2'      -32.1680   -0.7970  -16.1770 C.3    17  A17         0.2309
    100  O2'      -31.7790   -2.0820  -16.6400 O.3    17  A17        -0.2156
    101  C1'      -33.3440   -0.9700  -15.2140 C.3    17  A17         0.2408
    102  N1       -36.7100    1.6060  -18.1290 N.ar   17  A17        -0.2040
    103  C2       -35.9610    0.5210  -18.3580 C.ar   17  A17         0.2016
    104  N3       -35.1040   -0.0950  -17.5470 N.ar   17  A17        -0.2048
    105  C4       -35.0440    0.5240  -16.3550 C.ar   17  A17         0.1692
    106  C5       -35.7520    1.6480  -15.9700 C.ar   17  A17         0.1518
    107  C6       -36.6280    2.2040  -16.9200 C.ar   17  A17         0.1919
    108  N6       -37.3760    3.2870  -16.6940 N.pl3  17  A17        -0.1054
    109  N7       -35.4330    2.0030  -14.6660 N.ar   17  A17        -0.2193
    110  C8       -34.5540    1.1020  -14.2970 C.ar   17  A17         0.1816
    111  N9       -34.2730    0.1760  -15.2710 N.ar   17  A17        -0.2693
    112  OP1      -30.4140    0.5340  -10.0230 O.3    17  A17        -0.4373
    113  OP2      -32.4150    2.1240  -10.2720 O.co2  17  A17        -0.5172
    114  P        -28.9580    0.9070  -16.2240 P.3    18  G18         0.2141
    115  C5'      -29.4500    0.1300  -18.6790 C.3    18  G18         0.1812
    116  O5'      -29.4890    1.1610  -17.7050 O.3    18  G18        -0.3114
    117  C4'      -30.3350    0.4510  -19.8570 C.3    18  G18         0.1773
    118  O4'      -31.7300    0.3940  -19.4560 O.3    18  G18        -0.3307
    119  C3'      -30.1820    1.8440  -20.4440 C.3    18  G18         0.1860
    120  O3'      -29.0630    1.9730  -21.3020 O.3    18  G18        -0.3112
    121  C2'      -31.5200    2.0540  -21.1380 C.3    18  G18         0.2309
    122  O2'      -31.5660    1.3460  -22.3680 O.3    18  G18        -0.2156
    123  C1'      -32.4700    1.3750  -20.1540 C.3    18  G18         0.2408
    124  N1       -35.7920    5.1350  -19.3600 N.ar   18  G18        -0.1709
    125  C2       -35.5530    4.4050  -20.4990 C.ar   18  G18         0.2606
    126  N2       -36.2960    4.7140  -21.5710 N.pl3  18  G18        -0.0859
    127  N3       -34.6520    3.4400  -20.5810 N.ar   18  G18        -0.1918
    128  C4       -33.9980    3.2620  -19.4140 C.ar   18  G18         0.1723
    129  C5       -34.1580    3.9360  -18.2230 C.ar   18  G18         0.1748
    130  C6       -35.1280    4.9690  -18.1490 C.ar   18  G18         0.3023
    131  O6       -35.4200    5.6820  -17.1820 O.2    18  G18        -0.2633
    132  N7       -33.2870    3.4480  -17.2590 N.ar   18  G18        -0.2173
    133  C8       -32.6240    2.5040  -17.8700 C.ar   18  G18         0.1817
    134  N9       -33.0100    2.3370  -19.1770 N.ar   18  G18        -0.2693
    135  OP1      -27.5240    0.5270  -16.2970 O.2    18  G18        -0.5172
    136  OP2      -29.3710    2.0640  -15.3890 O.co2  18  G18        -0.4373
    137  P        -28.2770    3.3710  -21.3880 P.3    19  A19         0.2141
    138  C5'      -29.5430    3.7520  -23.6480 C.3    19  A19         0.1812
    139  O5'      -29.1690    4.2500  -22.3720 O.3    19  A19        -0.3114
    140  C4'      -30.6920    4.5300  -24.2370 C.3    19  A19         0.1773
    141  O4'      -31.8830    4.3590  -23.4260 O.3    19  A19        -0.3307
    142  C3'      -30.5170    6.0370  -24.3090 C.3    19  A19         0.1860
    143  O3'      -29.7090    6.4480  -25.3970 O.3    19  A19        -0.3112
    144  C2'      -31.9560    6.5300  -24.3920 C.3    19  A19         0.2309
    145  O2'      -32.4650    6.3730  -25.7080 O.3    19  A19        -0.2156
    146  C1'      -32.6700    5.5320  -23.4780 C.3    19  A19         0.2408
    147  N1       -35.2940    8.7990  -20.4960 N.ar   19  A19        -0.2040
    148  C2       -35.3600    8.5150  -21.8030 C.ar   19  A19         0.2016
    149  N3       -34.6410    7.6490  -22.5120 N.ar   19  A19        -0.2048
    150  C4       -33.7500    7.0160  -21.7280 C.ar   19  A19         0.1692
    151  C5       -33.5620    7.1990  -20.3700 C.ar   19  A19         0.1518
    152  C6       -34.3880    8.1450  -19.7360 C.ar   19  A19         0.1919
    153  N6       -34.3270    8.4330  -18.4340 N.pl3  19  A19        -0.1054
    154  N7       -32.5510    6.3690  -19.9020 N.ar   19  A19        -0.2193
    155  C8       -32.1580    5.7150  -20.9700 C.ar   19  A19         0.1816
    156  N9       -32.8420    6.0580  -22.1100 N.ar   19  A19        -0.2693
    157  OP1      -26.9670    3.1270  -22.0430 O.2    19  A19        -0.5172
    158  OP2      -28.3210    4.0060  -20.0460 O.co2  19  A19        -0.4373
    159  P        -28.6810    7.6700  -25.2200 P.3    20  U20         0.2141
    160  C5'      -30.4350    9.1760  -26.4480 C.3    20  U20         0.1812
    161  O5'      -29.6060    8.9620  -25.3160 O.3    20  U20        -0.3114
    162  C4'      -31.4180   10.2950  -26.2150 C.3    20  U20         0.1773
    163  O4'      -32.4250    9.8840  -25.2530 O.3    20  U20        -0.3307
    164  C3'      -30.8480   11.5700  -25.6170 C.3    20  U20         0.1860
    165  O3'      -30.1780   12.3830  -26.5620 O.3    20  U20        -0.3112
    166  C2'      -32.0800   12.2210  -25.0060 C.3    20  U20         0.2309
    167  O2'      -32.8710   12.8410  -26.0090 O.3    20  U20        -0.2156
    168  C1'      -32.8340   10.9970  -24.4830 C.3    20  U20         0.2420
    169  N1       -32.5280   10.7350  -23.0580 N.ar   20  U20        -0.2534
    170  C2       -33.2180   11.4760  -22.1190 C.ar   20  U20         0.3546
    171  O2       -34.0550   12.3090  -22.4200 O.2    20  U20        -0.2443
    172  N3       -32.8980   11.2040  -20.8120 N.ar   20  U20        -0.1530
    173  C4       -31.9730   10.2870  -20.3580 C.ar   20  U20         0.2846
    174  O4       -31.7970   10.1570  -19.1450 O.2    20  U20        -0.2650
    175  C5       -31.2970    9.5630  -21.3900 C.ar   20  U20         0.0814
    176  C6       -31.5890    9.8060  -22.6720 C.ar   20  U20         0.0870
    177  OP1      -27.7630    7.6690  -26.3880 O.2    20  U20        -0.5172
    178  OP2      -28.1190    7.6090  -23.8470 O.co2  20  U20        -0.4373
    179  P        -28.8340   13.1520  -26.1380 P.3    21  A21         0.2141
    180  C5'      -30.2360   15.2620  -25.4830 C.3    21  A21         0.1812
    181  O5'      -29.3320   14.2420  -25.0900 O.3    21  A21        -0.3114
    182  C4'      -30.6250   16.1420  -24.3220 C.3    21  A21         0.1773
    183  O4'      -31.4700   15.4180  -23.3960 O.3    21  A21        -0.3307
    184  C3'      -29.4920   16.6520  -23.4510 C.3    21  A21         0.1860
    185  O3'      -28.8040   17.7420  -24.0380 O.3    21  A21        -0.3112
    186  C2'      -30.2070   17.0120  -22.1510 C.3    21  A21         0.2309
    187  O2'      -30.8030   18.2940  -22.2430 O.3    21  A21        -0.2156
    188  C1'      -31.3250   15.9630  -22.1020 C.3    21  A21         0.2408
    189  N1       -32.1860   14.4010  -17.3060 N.ar   21  A21        -0.2040
    190  C2       -32.5790   15.4800  -17.9960 C.ar   21  A21         0.2016
    191  N3       -32.3060   15.8140  -19.2550 N.ar   21  A21        -0.2048
    192  C4       -31.5270   14.8840  -19.8360 C.ar   21  A21         0.1692
    193  C5       -31.0470   13.7240  -19.2610 C.ar   21  A21         0.1518
    194  C6       -31.4050   13.4850  -17.9220 C.ar   21  A21         0.1919
    195  N6       -31.0180   12.4110  -17.2320 N.pl3  21  A21        -0.1054
    196  N7       -30.2780   13.0130  -20.1720 N.ar   21  A21        -0.2193
    197  C8       -30.3100   13.7450  -21.2610 C.ar   21  A21         0.1816
    198  N9       -31.0540   14.8900  -21.1250 N.ar   21  A21        -0.2693
    199  OP1      -28.3170   13.8620  -27.3360 O.2    21  A21        -0.5172
    200  OP2      -27.9610   12.1950  -25.4120 O.co2  21  A21        -0.4373
    201  P        -27.2520   17.6020  -24.4260 P.3    22  U22         0.2141
    202  C5'      -25.2240   17.1520  -22.8180 C.3    22  U22         0.1812
    203  O5'      -26.5000   17.7450  -23.0310 O.3    22  U22        -0.3114
    204  C4'      -25.0330   16.7580  -21.3740 C.3    22  U22         0.1773
    205  O4'      -25.2090   17.9350  -20.5380 O.3    22  U22        -0.3307
    206  C3'      -26.0190   15.7150  -20.8540 C.3    22  U22         0.1860
    207  O3'      -25.3750   14.8910  -19.8840 O.3    22  U22        -0.3112
    208  C2'      -27.0880   16.5680  -20.1770 C.3    22  U22         0.2309
    209  O2'      -27.8200   15.9030  -19.1690 O.3    22  U22        -0.2156
    210  C1'      -26.2570   17.7180  -19.6120 C.3    22  U22         0.2420
    211  N1       -27.0060   18.9760  -19.4770 N.ar   22  U22        -0.2534
    212  C2       -27.3000   19.4290  -18.2050 C.ar   22  U22         0.3546
    213  O2       -26.9670   18.8280  -17.1990 O.2    22  U22        -0.2443
    214  N3       -28.0030   20.6100  -18.1590 N.ar   22  U22        -0.1530
    215  C4       -28.4290   21.3670  -19.2340 C.ar   22  U22         0.2846
    216  O4       -29.0530   22.4110  -19.0390 O.2    22  U22        -0.2650
    217  C5       -28.0830   20.8300  -20.5130 C.ar   22  U22         0.0814
    218  C6       -27.4020   19.6830  -20.5880 C.ar   22  U22         0.0870
    219  OP1      -26.8870   18.7680  -25.2680 O.2    22  U22        -0.5172
    220  OP2      -27.0190   16.2260  -24.9320 O.co2  22  U22        -0.4373
    221  P        -24.5700   13.5770  -20.3430 P.3    23  A23         0.2141
    222  C5'      -22.6360   14.5270  -18.8620 C.3    23  A23         0.1812
    223  O5'      -23.0450   13.9640  -20.0990 O.3    23  A23        -0.3114
    224  C4'      -21.3390   15.2810  -18.9940 C.3    23  A23         0.1773
    225  O4'      -21.3920   16.1390  -20.1590 O.3    23  A23        -0.3307
    226  C3'      -21.0060   16.2270  -17.8510 C.3    23  A23         0.1860
    227  O3'      -20.4240   15.5690  -16.7360 O.3    23  A23        -0.3112
    228  C2'      -20.0740   17.2430  -18.5080 C.3    23  A23         0.2309
    229  O2'      -18.7480   16.7400  -18.5680 O.3    23  A23        -0.2156
    230  C1'      -20.6300   17.3060  -19.9340 C.3    23  A23         0.2408
    231  N1       -24.2980   20.7460  -18.3960 N.ar   23  A23        -0.2040
    232  C2       -23.7680   19.6920  -17.7640 C.ar   23  A23         0.2016
    233  N3       -22.8370   18.8360  -18.1830 N.ar   23  A23        -0.2048
    234  C4       -22.4150   19.1380  -19.4250 C.ar   23  A23         0.1692
    235  C5       -22.8720   20.1980  -20.1950 C.ar   23  A23         0.1518
    236  C6       -23.8600   21.0310  -19.6410 C.ar   23  A23         0.1919
    237  N6       -24.3830   22.0820  -20.2790 N.pl3  23  A23        -0.1054
    238  N7       -22.2360   20.2300  -21.4230 N.ar   23  A23        -0.2193
    239  C8       -21.4210   19.2100  -21.3740 C.ar   23  A23         0.1816
    240  N9       -21.4640   18.5000  -20.2010 N.ar   23  A23        -0.2693
    241  OP1      -24.7680   13.3830  -21.8010 O.2    23  A23        -0.5172
    242  OP2      -24.9130   12.4790  -19.4030 O.co2  23  A23        -0.4373
    243  P        -21.2890   15.2320  -15.4200 P.3    24  A24         0.2141
    244  C5'      -22.0370   17.7060  -14.9500 C.3    24  A24         0.1812
    245  O5'      -21.2660   16.5760  -14.5630 O.3    24  A24        -0.3114
    246  C4'      -22.8770   18.2340  -13.8150 C.3    24  A24         0.1773
    247  O4'      -23.8700   17.2540  -13.4320 O.3    24  A24        -0.3307
    248  C3'      -22.1430   18.5470  -12.5220 C.3    24  A24         0.1860
    249  O3'      -21.5180   19.8170  -12.5640 O.3    24  A24        -0.3112
    250  C2'      -23.2490   18.4610  -11.4750 C.3    24  A24         0.2309
    251  O2'      -23.9910   19.6710  -11.4320 O.3    24  A24        -0.2156
    252  C1'      -24.1480   17.3650  -12.0540 C.3    24  A24         0.2408
    253  N1       -24.6670   14.5610   -7.7520 N.ar   24  A24        -0.2040
    254  C2       -24.9500   15.8390   -8.0320 C.ar   24  A24         0.2016
    255  N3       -24.7890   16.5070   -9.1720 N.ar   24  A24        -0.2048
    256  C4       -24.2630   15.7130  -10.1210 C.ar   24  A24         0.1692
    257  C5       -23.9180   14.3820   -9.9840 C.ar   24  A24         0.1518
    258  C6       -24.1390   13.7920   -8.7290 C.ar   24  A24         0.1919
    259  N6       -23.8560   12.5170   -8.4570 N.pl3  24  A24        -0.1054
    260  N7       -23.4030   13.8810  -11.1710 N.ar   24  A24        -0.2193
    261  C8       -23.4460   14.9060  -11.9880 C.ar   24  A24         0.1816
    262  N9       -23.9470   16.0490  -11.4160 N.ar   24  A24        -0.2693
    263  OP1      -20.5420   14.1980  -14.6630 O.3    24  A24        -0.4373
    264  OP2      -22.6980   14.9740  -15.8060 O.co2  24  A24        -0.5172
    265  P        -19.9780   19.9930  -12.1470 P.3    25  U25         0.2141
    266  C5'      -18.8230   19.4190  -14.4300 C.3    25  U25         0.1812
    267  O5'      -19.2570   20.4060  -13.5070 O.3    25  U25        -0.3114
    268  C4'      -18.8610   19.9260  -15.8510 C.3    25  U25         0.1773
    269  O4'      -20.2350   20.0130  -16.3130 O.3    25  U25        -0.3307
    270  C3'      -18.3090   21.3240  -16.0800 C.3    25  U25         0.1860
    271  O3'      -16.8950   21.3600  -16.1520 O.3    25  U25        -0.3112
    272  C2'      -18.9960   21.7370  -17.3740 C.3    25  U25         0.2309
    273  O2'      -18.3720   21.1170  -18.4890 O.3    25  U25        -0.2156
    274  C1'      -20.3790   21.1130  -17.1890 C.3    25  U25         0.2420
    275  N1       -21.3430   22.0670  -16.5940 N.ar   25  U25        -0.2534
    276  C2       -21.8890   23.0430  -17.4080 C.ar   25  U25         0.3546
    277  O2       -21.6180   23.1580  -18.5910 O.2    25  U25        -0.2443
    278  N3       -22.7710   23.8890  -16.7810 N.ar   25  U25        -0.1530
    279  C4       -23.1540   23.8590  -15.4550 C.ar   25  U25         0.2846
    280  O4       -23.9610   24.6900  -15.0360 O.2    25  U25        -0.2650
    281  C5       -22.5470   22.8210  -14.6830 C.ar   25  U25         0.0814
    282  C6       -21.6850   21.9830  -15.2650 C.ar   25  U25         0.0870
    283  OP1      -19.4450   18.6720  -11.7210 O.2    25  U25        -0.5172
    284  OP2      -19.9030   21.1540  -11.2260 O.co2  25  U25        -0.4373
    285  P        -16.0950   22.6580  -15.6440 P.3    26  C26         0.2141
    286  C5'      -16.0330   23.6180  -18.0830 C.3    26  C26         0.1812
    287  O5'      -16.4350   23.7710  -16.7310 O.3    26  C26        -0.3114
    288  C4'      -16.6360   24.6880  -18.9580 C.3    26  C26         0.1773
    289  O4'      -18.0850   24.5940  -18.9240 O.3    26  C26        -0.3307
    290  C3'      -16.3570   26.1220  -18.5400 C.3    26  C26         0.1860
    291  O3'      -15.0750   26.5810  -18.9270 O.3    26  C26        -0.3112
    292  C2'      -17.5020   26.8790  -19.1920 C.3    26  C26         0.2309
    293  O2'      -17.2630   27.0420  -20.5820 O.3    26  C26        -0.2156
    294  C1'      -18.6510   25.8860  -19.0160 C.3    26  C26         0.2420
    295  N1       -19.4280   26.1570  -17.7840 N.ar   26  C26        -0.2535
    296  C2       -20.3550   27.2030  -17.7980 C.ar   26  C26         0.3532
    297  O2       -20.5010   27.8680  -18.8350 O.2    26  C26        -0.2443
    298  N3       -21.0740   27.4680  -16.6840 N.ar   26  C26        -0.1739
    299  C4       -20.8930   26.7350  -15.5860 C.ar   26  C26         0.1759
    300  N4       -21.6260   27.0360  -14.5120 N.pl3  26  C26        -0.1070
    301  C5       -19.9550   25.6630  -15.5400 C.ar   26  C26         0.0566
    302  C6       -19.2510   25.4110  -16.6510 C.ar   26  C26         0.0850
    303  OP1      -14.6420   22.3650  -15.7280 O.2    26  C26        -0.5172
    304  OP2      -16.6860   23.0870  -14.3510 O.co2  26  C26        -0.4373
    305  P        -14.3180   27.6800  -18.0320 P.3    27  C27         0.2141
    306  C5'      -14.9720   29.5340  -19.7600 C.3    27  C27         0.1812
    307  O5'      -15.0220   29.0530  -18.4260 O.3    27  C27        -0.3114
    308  C4'      -15.9450   30.6630  -19.9840 C.3    27  C27         0.1773
    309  O4'      -17.2950   30.2360  -19.6660 O.3    27  C27        -0.3307
    310  C3'      -15.7420   31.8930  -19.1190 C.3    27  C27         0.1860
    311  O3'      -14.6980   32.7280  -19.5830 O.3    27  C27        -0.3112
    312  C2'      -17.1140   32.5500  -19.1550 C.3    27  C27         0.2309
    313  O2'      -17.3020   33.2520  -20.3760 O.3    27  C27        -0.2156
    314  C1'      -18.0340   31.3280  -19.1550 C.3    27  C27         0.2420
    315  N1       -18.5220   30.9930  -17.7960 N.ar   27  C27        -0.2535
    316  C2       -19.5230   31.7890  -17.2240 C.ar   27  C27         0.3532
    317  O2       -19.9740   32.7540  -17.8600 O.2    27  C27        -0.2443
    318  N3       -19.9790   31.4930  -15.9860 N.ar   27  C27        -0.1739
    319  C4       -19.4800   30.4510  -15.3220 C.ar   27  C27         0.1759
    320  N4       -19.9600   30.1950  -14.1030 N.pl3  27  C27        -0.1070
    321  C5       -18.4630   29.6230  -15.8780 C.ar   27  C27         0.0566
    322  C6       -18.0190   29.9260  -17.1050 C.ar   27  C27         0.0850
    323  OP1      -12.9040   27.7360  -18.4810 O.2    27  C27        -0.5172
    324  OP2      -14.6270   27.4020  -16.6070 O.co2  27  C27        -0.4373
    325  P        -13.7430   33.4760  -18.5310 P.3    28  U28         0.2141
    326  C5'      -15.2450   35.5920  -18.9260 C.3    28  U28         0.1812
    327  O5'      -14.6190   34.7020  -18.0150 O.3    28  U28        -0.3114
    328  C4'      -16.2990   36.4210  -18.2380 C.3    28  U28         0.1773
    329  O4'      -17.4040   35.5760  -17.8260 O.3    28  U28        -0.3307
    330  C3'      -15.8630   37.1050  -16.9530 C.3    28  U28         0.1860
    331  O3'      -15.1380   38.2980  -17.1880 O.3    28  U28        -0.3112
    332  C2'      -17.1840   37.3200  -16.2250 C.3    28  U28         0.2309
    333  O2'      -17.8700   38.4470  -16.7500 O.3    28  U28        -0.2156
    334  C1'      -17.9550   36.0580  -16.6170 C.3    28  U28         0.2420
    335  N1       -17.8630   34.9930  -15.5910 N.ar   28  U28        -0.2534
    336  C2       -18.6780   35.0940  -14.4790 C.ar   28  U28         0.3546
    337  O2       -19.4540   36.0170  -14.3080 O.2    28  U28        -0.2443
    338  N3       -18.5490   34.0740  -13.5690 N.ar   28  U28        -0.1530
    339  C4       -17.7090   32.9830  -13.6560 C.ar   28  U28         0.2846
    340  O4       -17.7070   32.1460  -12.7530 O.2    28  U28        -0.2650
    341  C5       -16.9000   32.9480  -14.8350 C.ar   28  U28         0.0814
    342  C6       -17.0040   33.9280  -15.7390 C.ar   28  U28         0.0870
    343  OP1      -12.5780   34.0090  -19.2820 O.2    28  U28        -0.5172
    344  OP2      -13.5260   32.5670  -17.3750 O.co2  28  U28        -0.4373
    345  P        -13.9160   38.6990  -16.2280 P.3    29  A29         0.2141
    346  C5'      -15.4070   40.7060  -15.4520 C.3    29  A29         0.1812
    347  O5'      -14.5980   39.5930  -15.1020 O.3    29  A29        -0.3114
    348  C4'      -16.3330   41.0860  -14.3270 C.3    29  A29         0.1773
    349  O4'      -17.3080   40.0330  -14.1160 O.3    29  A29        -0.3307
    350  C3'      -15.6790   41.2600  -12.9670 C.3    29  A29         0.1860
    351  O3'      -15.0640   42.5260  -12.8130 O.3    29  A29        -0.3112
    352  C2'      -16.8370   41.0200  -12.0070 C.3    29  A29         0.2309
    353  O2'      -17.6610   42.1720  -11.9170 O.3    29  A29        -0.2156
    354  C1'      -17.6140   39.9270  -12.7420 C.3    29  A29         0.2408
    355  N1       -18.2900   36.2640   -9.1630 N.ar   29  A29        -0.2040
    356  C2       -18.8090   37.4910   -9.3030 C.ar   29  A29         0.2016
    357  N3       -18.5920   38.3940  -10.2570 N.ar   29  A29        -0.2048
    358  C4       -17.7160   37.9280  -11.1630 C.ar   29  A29         0.1692
    359  C5       -17.0980   36.6890  -11.1540 C.ar   29  A29         0.1518
    360  C6       -17.4130   35.8240  -10.0910 C.ar   29  A29         0.1919
    361  N6       -16.8930   34.6020   -9.9540 N.pl3  29  A29        -0.1054
    362  N7       -16.2560   36.5520  -12.2480 N.ar   29  A29        -0.2193
    363  C8       -16.3810   37.6910  -12.8840 C.ar   29  A29         0.1816
    364  N9       -17.2470   38.5720  -12.2840 N.ar   29  A29        -0.2693
    365  OP1      -12.9860   39.5610  -17.0030 O.2    29  A29        -0.5172
    366  OP2      -13.4100   37.4600  -15.5870 O.co2  29  A29        -0.4373
    367  P        -13.6370   42.6460  -12.0850 P.3    30  A30         0.2141
    368  C5'      -13.6660   42.2370   -9.4950 C.3    30  A30         0.1812
    369  O5'      -14.0070   43.0660  -10.5940 O.3    30  A30        -0.3114
    370  C4'      -14.8390   42.0450   -8.5690 C.3    30  A30         0.1773
    371  O4'      -15.6800   40.9680   -9.0590 O.3    30  A30        -0.3307
    372  C3'      -14.4960   41.6300   -7.1480 C.3    30  A30         0.1860
    373  O3'      -14.1260   42.7270   -6.3350 O.3    30  A30        -0.3112
    374  C2'      -15.7670   40.9310   -6.6880 C.3    30  A30         0.2309
    375  O2'      -16.7600   41.8810   -6.3330 O.3    30  A30        -0.2156
    376  C1'      -16.2050   40.2320   -7.9740 C.3    30  A30         0.2408
    377  N1       -16.1800   35.4870   -5.9170 N.ar   30  A30        -0.2040
    378  C2       -16.8110   36.6120   -5.5620 C.ar   30  A30         0.2016
    379  N3       -16.7780   37.8130   -6.1370 N.ar   30  A30        -0.2048
    380  C4       -15.9750   37.8050   -7.2150 C.ar   30  A30         0.1692
    381  C5       -15.2590   36.7260   -7.7020 C.ar   30  A30         0.1518
    382  C6       -15.3800   35.5110   -7.0050 C.ar   30  A30         0.1919
    383  N6       -14.7480   34.3900   -7.3600 N.pl3  30  A30        -0.1054
    384  N7       -14.5360   37.0840   -8.8310 N.ar   30  A30        -0.2193
    385  C8       -14.8250   38.3500   -9.0000 C.ar   30  A30         0.1816
    386  N9       -15.6880   38.8530   -8.0580 N.ar   30  A30        -0.2693
    387  OP1      -12.9000   43.7720  -12.7130 O.2    30  A30        -0.5172
    388  OP2      -13.0250   41.2940  -12.0460 O.co2  30  A30        -0.4373
    389  P        -12.7880   42.6570   -5.4510 P.3    31  U31         0.2141
    390  C5'      -14.2390   41.6540   -3.5140 C.3    31  U31         0.1812
    391  O5'      -13.1090   41.5380   -4.3650 O.3    31  U31        -0.3114
    392  C4'      -14.4900   40.3720   -2.7640 C.3    31  U31         0.1773
    393  O4'      -14.9660   39.3470   -3.6750 O.3    31  U31        -0.3307
    394  C3'      -13.2730   39.7420   -2.1110 C.3    31  U31         0.1860
    395  O3'      -12.9230   40.3550   -0.8850 O.3    31  U31        -0.3112
    396  C2'      -13.6900   38.2840   -1.9760 C.3    31  U31         0.2309
    397  O2'      -14.5660   38.1110   -0.8720 O.3    31  U31        -0.2156
    398  C1'      -14.4910   38.0820   -3.2630 C.3    31  U31         0.2420
    399  N1       -13.6620   37.5070   -4.3470 N.ar   31  U31        -0.2534
    400  C2       -13.4290   36.1440   -4.3200 C.ar   31  U31         0.3546
    401  O2       -13.8710   35.4070   -3.4550 O.2    31  U31        -0.2443
    402  N3       -12.6540   35.6700   -5.3480 N.ar   31  U31        -0.1530
    403  C4       -12.1020   36.4020   -6.3770 C.ar   31  U31         0.2846
    404  O4       -11.4280   35.8240   -7.2290 O.2    31  U31        -0.2650
    405  C5       -12.3870   37.8040   -6.3350 C.ar   31  U31         0.0814
    406  C6       -13.1400   38.2950   -5.3460 C.ar   31  U31         0.0870
    407  OP1      -12.6400   43.9550   -4.7450 O.3    31  U31        -0.4373
    408  OP2      -11.6930   42.1520   -6.3200 O.co2  31  U31        -0.5172
    409  P        -11.3770   40.5360   -0.4920 P.3    32  G32         0.2141
    410  C5'      -11.7100   38.4240    1.0120 C.3    32  G32         0.1812
    411  O5'      -10.9480   39.0910    0.0190 O.3    32  G32        -0.3114
    412  C4'      -11.3140   36.9760    1.1370 C.3    32  G32         0.1773
    413  O4'      -11.7360   36.2370   -0.0370 O.3    32  G32        -0.3307
    414  C3'       -9.8240   36.6980    1.2260 C.3    32  G32         0.1860
    415  O3'       -9.3020   36.9310    2.5220 O.3    32  G32        -0.3112
    416  C2'       -9.7290   35.2440    0.7750 C.3    32  G32         0.2309
    417  O2'      -10.0740   34.3660    1.8360 O.3    32  G32        -0.2156
    418  C1'      -10.8330   35.1780   -0.2850 C.3    32  G32         0.2408
    419  N1        -8.7010   32.7110   -4.1850 N.ar   32  G32        -0.1709
    420  C2        -9.0770   32.2410   -2.9510 C.ar   32  G32         0.2606
    421  N2        -8.8590   30.9380   -2.7190 N.pl3  32  G32        -0.0859
    422  N3        -9.6280   32.9930   -2.0130 N.ar   32  G32        -0.1918
    423  C4        -9.7740   34.2750   -2.4100 C.ar   32  G32         0.1723
    424  C5        -9.4320   34.8450   -3.6170 C.ar   32  G32         0.1748
    425  C6        -8.8430   34.0260   -4.6170 C.ar   32  G32         0.3023
    426  O6        -8.4700   34.3460   -5.7510 O.2    32  G32        -0.2633
    427  N7        -9.7480   36.1970   -3.6300 N.ar   32  G32        -0.2173
    428  C8       -10.2670   36.4200   -2.4510 C.ar   32  G32         0.1817
    429  N9       -10.3100   35.2970   -1.6600 N.ar   32  G32        -0.2693
    430  OP1      -11.2990   41.4720    0.6580 O.3    32  G32        -0.4373
    431  OP2      -10.6170   40.8320   -1.7350 O.co2  32  G32        -0.5172
    432  P         -7.7140   36.9540    2.7610 P.3    33  A33         0.2141
    433  C5'       -6.0700   34.9270    2.5180 C.3    33  A33         0.1812
    434  O5'       -7.3400   35.4150    2.9140 O.3    33  A33        -0.3114
    435  C4'       -6.0590   33.4210    2.4740 C.3    33  A33         0.1773
    436  O4'       -6.8870   32.9500    1.3820 O.3    33  A33        -0.3307
    437  C3'       -4.7100   32.7740    2.2190 C.3    33  A33         0.1860
    438  O3'       -3.9180   32.7010    3.3920 O.3    33  A33        -0.3112
    439  C2'       -5.0950   31.4110    1.6560 C.3    33  A33         0.2309
    440  O2'       -5.4560   30.5210    2.7020 O.3    33  A33        -0.2156
    441  C1'       -6.3530   31.7520    0.8570 C.3    33  A33         0.2408
    442  N1        -4.8640   29.4820   -3.5250 N.ar   33  A33        -0.2040
    443  C2        -5.0250   29.0220   -2.2790 C.ar   33  A33         0.2016
    444  N3        -5.4170   29.6690   -1.1840 N.ar   33  A33        -0.2048
    445  C4        -5.6620   30.9620   -1.4580 C.ar   33  A33         0.1692
    446  C5        -5.5410   31.5830   -2.6880 C.ar   33  A33         0.1518
    447  C6        -5.1200   30.7860   -3.7680 C.ar   33  A33         0.1919
    448  N6        -4.9560   31.2470   -5.0110 N.pl3  33  A33        -0.1054
    449  N7        -5.8770   32.9270   -2.5920 N.ar   33  A33        -0.2193
    450  C8        -6.1890   33.0850   -1.3280 C.ar   33  A33         0.1816
    451  N9        -6.0760   31.9370   -0.5820 N.ar   33  A33        -0.2693
    452  OP1       -7.4510   37.6200    4.0620 O.3    33  A33        -0.4373
    453  OP2       -7.0660   37.4680    1.5270 O.co2  33  A33        -0.5172
    454  P         -2.3360   32.9690    3.3260 P.3    34  U34         0.2141
    455  C5'       -2.1550   30.3610    3.2890 C.3    34  U34         0.1812
    456  O5'       -1.7500   31.6100    2.7440 O.3    34  U34        -0.3114
    457  C4'       -1.8300   29.2150    2.3670 C.3    34  U34         0.1773
    458  O4'       -2.4450   29.4470    1.0690 O.3    34  U34        -0.3307
    459  C3'       -0.3410   28.9980    2.1080 C.3    34  U34         0.1860
    460  O3'       -0.0630   27.6030    2.0460 O.3    34  U34        -0.3112
    461  C2'       -0.1270   29.6290    0.7360 C.3    34  U34         0.2309
    462  O2'        0.9440   29.0740    0.0020 O.3    34  U34        -0.2156
    463  C1'       -1.4650   29.3690    0.0530 C.3    34  U34         0.2420
    464  N1        -1.7900   30.3620   -0.9820 N.ar   34  U34        -0.2534
    465  C2        -1.6490   29.9850   -2.3030 C.ar   34  U34         0.3546
    466  O2        -1.2820   28.8710   -2.6360 O.2    34  U34        -0.2443
    467  N3        -1.9560   30.9600   -3.2200 N.ar   34  U34        -0.1530
    468  C4        -2.3760   32.2490   -2.9550 C.ar   34  U34         0.2846
    469  O4        -2.6180   33.0140   -3.8910 O.2    34  U34        -0.2650
    470  C5        -2.4940   32.5610   -1.5630 C.ar   34  U34         0.0814
    471  C6        -2.2020   31.6310   -0.6470 C.ar   34  U34         0.0870
    472  OP1       -1.8440   33.1090    4.7200 O.3    34  U34        -0.4373
    473  OP2       -2.0790   34.0490    2.3390 O.co2  34  U34        -0.5172
    474  P          0.8380   26.9300    3.1910 P.3    35  A35         0.2141
    475  C5'       -0.5570   24.7080    3.1960 C.3    35  A35         0.1812
    476  O5'        0.6760   25.3690    2.9360 O.3    35  A35        -0.3114
    477  C4'       -0.4720   23.2400    2.8600 C.3    35  A35         0.1773
    478  O4'       -0.2990   23.0930    1.4260 O.3    35  A35        -0.3307
    479  C3'        0.6920   22.4980    3.5080 C.3    35  A35         0.1860
    480  O3'        0.3050   21.1530    3.7820 O.3    35  A35        -0.3112
    481  C2'        1.7600   22.5260    2.4170 C.3    35  A35         0.2309
    482  O2'        2.7130   21.4880    2.4960 O.3    35  A35        -0.2156
    483  C1'        0.9190   22.4280    1.1470 C.3    35  A35         0.2408
    484  N1         3.9230   21.9920   -3.0450 N.ar   35  A35        -0.2040
    485  C2         3.5510   21.1000   -2.1190 C.ar   35  A35         0.2016
    486  N3         2.7700   21.2650   -1.0530 N.ar   35  A35        -0.2048
    487  C4         2.3380   22.5360   -0.9700 C.ar   35  A35         0.1692
    488  C5         2.6380   23.5660   -1.8440 C.ar   35  A35         0.1518
    489  C6         3.4740   23.2620   -2.9320 C.ar   35  A35         0.1919
    490  N6         3.8420   24.1580   -3.8500 N.pl3  35  A35        -0.1054
    491  N7         2.0220   24.7450   -1.4510 N.ar   35  A35        -0.2193
    492  C8         1.3760   24.4100   -0.3640 C.ar   35  A35         0.1816
    493  N9         1.5260   23.0930   -0.0090 N.ar   35  A35        -0.2693
    494  OP1        0.2280   27.2450    4.5090 O.3    35  A35        -0.4373
    495  OP2        2.2520   27.2990    2.9230 O.co2  35  A35        -0.5172
    496  P         -0.1750   20.7390    5.2600 P.3    36  U36         0.2141
    497  C5'       -2.7260   21.1810    5.6940 C.3    36  U36         0.1812
    498  O5'       -1.4070   21.7040    5.5650 O.3    36  U36        -0.3114
    499  C4'       -3.5370   21.9150    6.7380 C.3    36  U36         0.1773
    500  O4'       -2.8980   21.7820    8.0380 O.3    36  U36        -0.3307
    501  C3'       -3.7230   23.4160    6.5070 C.3    36  U36         0.1860
    502  O3'       -5.0130   23.8050    6.9770 O.3    36  U36        -0.3112
    503  C2'       -2.6640   24.0270    7.4180 C.3    36  U36         0.2309
    504  O2'       -2.9290   25.3550    7.8160 O.3    36  U36        -0.2156
    505  C1'       -2.6960   23.0640    8.6000 C.3    36  U36         0.2420
    506  N1        -1.4620   23.0390    9.3980 N.ar   36  U36        -0.2534
    507  C2        -1.5910   23.1810   10.7660 C.ar   36  U36         0.3546
    508  O2        -2.6700   23.3140   11.3170 O.2    36  U36        -0.2443
    509  N3        -0.4120   23.1530   11.4690 N.ar   36  U36        -0.1530
    510  C4         0.8580   23.0060   10.9520 C.ar   36  U36         0.2846
    511  O4         1.8260   23.0020   11.7160 O.2    36  U36        -0.2650
    512  C5         0.9080   22.8700    9.5280 C.ar   36  U36         0.0814
    513  C6        -0.2250   22.8920    8.8160 C.ar   36  U36         0.0870
    514  OP1        0.9120   21.0890    6.2090 O.3    36  U36        -0.4373
    515  OP2       -0.6830   19.3450    5.2000 O.co2  36  U36        -0.5172
    516  P         -6.2740   23.8250    5.9810 P.3    37  G37         0.2141
    517  C5'       -5.8570   26.2310    5.0240 C.3    37  G37         0.1812
    518  O5'       -5.8350   24.8260    4.8230 O.3    37  G37        -0.3114
    519  C4'       -5.6340   26.9680    3.7280 C.3    37  G37         0.1773
    520  O4'       -4.3190   26.6480    3.2090 O.3    37  G37        -0.3307
    521  C3'       -6.5820   26.6080    2.5950 C.3    37  G37         0.1860
    522  O3'       -7.8100   27.3090    2.6750 O.3    37  G37        -0.3112
    523  C2'       -5.7720   26.9450    1.3500 C.3    37  G37         0.2309
    524  O2'       -5.8270   28.3360    1.0780 O.3    37  G37        -0.2156
    525  C1'       -4.3530   26.5930    1.7990 C.3    37  G37         0.2408
    526  N1        -1.8880   23.8440   -1.6940 N.ar   37  G37        -0.1709
    527  C2        -2.0860   25.2010   -1.6340 C.ar   37  G37         0.2606
    528  N2        -1.5570   25.9210   -2.6340 N.pl3  37  G37        -0.0859
    529  N3        -2.7530   25.8050   -0.6640 N.ar   37  G37        -0.1918
    530  C4        -3.2150   24.9280    0.2540 C.ar   37  G37         0.1723
    531  C5        -3.0720   23.5580    0.2870 C.ar   37  G37         0.1748
    532  C6        -2.3530   22.9250   -0.7590 C.ar   37  G37         0.3023
    533  O6        -2.1150   21.7210   -0.9140 O.2    37  G37        -0.2633
    534  N7        -3.6940   23.0220    1.4060 N.ar   37  G37        -0.2173
    535  C8        -4.1950   24.0570    2.0230 C.ar   37  G37         0.1817
    536  N9        -3.9430   25.2420    1.3760 N.ar   37  G37        -0.2693
    537  OP1       -7.4140   24.4370    6.7080 O.3    37  G37        -0.4373
    538  OP2       -6.4260   22.4730    5.3850 O.co2  37  G37        -0.5172
    539  P         -9.1700   26.6180    2.1750 P.3    38  G38         0.2141
    540  C5'       -8.9990   27.7960   -0.1600 C.3    38  G38         0.1812
    541  O5'       -9.0290   26.5920    0.5890 O.3    38  G38        -0.3114
    542  C4'       -8.6190   27.5450   -1.5970 C.3    38  G38         0.1773
    543  O4'       -7.2750   27.0080   -1.6660 O.3    38  G38        -0.3307
    544  C3'       -9.4580   26.5260   -2.3490 C.3    38  G38         0.1860
    545  O3'      -10.6850   27.0600   -2.8110 O.3    38  G38        -0.3112
    546  C2'       -8.5230   26.0950   -3.4740 C.3    38  G38         0.2309
    547  O2'       -8.5260   27.0540   -4.5210 O.3    38  G38        -0.2156
    548  C1'       -7.1600   26.1440   -2.7770 C.3    38  G38         0.2408
    549  N1        -4.0770   22.2120   -3.6790 N.ar   38  G38        -0.1709
    550  C2        -4.2260   23.3880   -4.3710 C.ar   38  G38         0.2606
    551  N2        -3.4500   23.5380   -5.4550 N.pl3  38  G38        -0.0859
    552  N3        -5.0730   24.3440   -4.0280 N.ar   38  G38        -0.1918
    553  C4        -5.7720   24.0250   -2.9180 C.ar   38  G38         0.1723
    554  C5        -5.6980   22.8810   -2.1520 C.ar   38  G38         0.1748
    555  C6        -4.7860   21.8630   -2.5330 C.ar   38  G38         0.3023
    556  O6        -4.5700   20.7740   -1.9880 O.2    38  G38        -0.2633
    557  N7        -6.5870   22.9450   -1.0880 N.ar   38  G38        -0.2173
    558  C8        -7.1720   24.1050   -1.2240 C.ar   38  G38         0.1817
    559  N9        -6.7210   24.8140   -2.3120 N.ar   38  G38        -0.2693
    560  OP1      -10.2950   27.5240    2.5240 O.2    38  G38        -0.5172
    561  OP2       -9.1720   25.2140    2.6530 O.co2  38  G38        -0.4373
    562  P        -12.0300   26.1840   -2.7390 P.3    39  U39         0.2141
    563  C5'      -12.5710   26.9530   -0.2910 C.3    39  U39         0.1812
    564  O5'      -12.9260   26.9450   -1.6650 O.3    39  U39        -0.3114
    565  C4'      -12.9570   28.2500    0.3760 C.3    39  U39         0.1773
    566  O4'      -12.0380   29.3020   -0.0140 O.3    39  U39        -0.3307
    567  C3'      -14.3250   28.8090    0.0160 C.3    39  U39         0.1860
    568  O3'      -15.3830   28.1890    0.7240 O.3    39  U39        -0.3112
    569  C2'      -14.1710   30.2870    0.3410 C.3    39  U39         0.2309
    570  O2'      -14.2910   30.5050    1.7390 O.3    39  U39        -0.2156
    571  C1'      -12.7190   30.5390   -0.0650 C.3    39  U39         0.2420
    572  N1       -12.6070   31.0960   -1.4320 N.ar   39  U39        -0.2534
    573  C2       -12.9280   32.4310   -1.6040 C.ar   39  U39         0.3546
    574  O2       -13.2990   33.1510   -0.6930 O.2    39  U39        -0.2443
    575  N3       -12.8010   32.8970   -2.8890 N.ar   39  U39        -0.1530
    576  C4       -12.3920   32.1780   -3.9920 C.ar   39  U39         0.2846
    577  O4       -12.3270   32.7380   -5.0850 O.2    39  U39        -0.2650
    578  C5       -12.0770   30.8070   -3.7340 C.ar   39  U39         0.0814
    579  C6       -12.1910   30.3240   -2.4930 C.ar   39  U39         0.0870
    580  OP1      -11.6760   24.8480   -2.1980 O.3    39  U39        -0.4373
    581  OP2      -12.7170   26.2850   -4.0520 O.co2  39  U39        -0.5172
    582  P        -16.8480   28.0990    0.0710 P.3    40  U40         0.2141
    583  C5'      -17.5140   30.3170    1.3110 C.3    40  U40         0.1812
    584  O5'      -17.3720   29.6030    0.0920 O.3    40  U40        -0.3114
    585  C4'      -17.8620   31.7590    1.0460 C.3    40  U40         0.1773
    586  O4'      -16.7620   32.4040    0.3560 O.3    40  U40        -0.3307
    587  C3'      -19.0590   31.9850    0.1350 C.3    40  U40         0.1860
    588  O3'      -20.2950   31.9040    0.8220 O.3    40  U40        -0.3112
    589  C2'      -18.7820   33.3630   -0.4530 C.3    40  U40         0.2309
    590  O2'      -19.1580   34.3830    0.4590 O.3    40  U40        -0.2156
    591  C1'      -17.2570   33.3490   -0.5680 C.3    40  U40         0.2420
    592  N1       -16.7970   32.9760   -1.9260 N.ar   40  U40        -0.2534
    593  C2       -16.8160   33.9450   -2.9160 C.ar   40  U40         0.3546
    594  O2       -17.1990   35.0870   -2.7250 O.2    40  U40        -0.2443
    595  N3       -16.3700   33.5220   -4.1450 N.ar   40  U40        -0.1530
    596  C4       -15.9160   32.2600   -4.4730 C.ar   40  U40         0.2846
    597  O4       -15.5450   32.0240   -5.6230 O.2    40  U40        -0.2650
    598  C5       -15.9260   31.3200   -3.3960 C.ar   40  U40         0.0814
    599  C6       -16.3540   31.7020   -2.1900 C.ar   40  U40         0.0870
    600  OP1      -17.7020   27.2950    0.9800 O.3    40  U40        -0.4373
    601  OP2      -16.7030   27.6750   -1.3440 O.co2  40  U40        -0.5172
    602  P        -21.6390   31.5240    0.0290 P.3    41  U41         0.2141
    603  C5'      -22.5220   32.8620   -2.0380 C.3    41  U41         0.1812
    604  O5'      -22.0430   32.8760   -0.7040 O.3    41  U41        -0.3114
    605  C4'      -22.4560   34.2340   -2.6560 C.3    41  U41         0.1773
    606  O4'      -21.0760   34.5840   -2.9400 O.3    41  U41        -0.3307
    607  C3'      -23.1580   34.3940   -3.9930 C.3    41  U41         0.1860
    608  O3'      -24.5550   34.5740   -3.8550 O.3    41  U41        -0.3112
    609  C2'      -22.4420   35.5910   -4.6010 C.3    41  U41         0.2309
    610  O2'      -22.9120   36.8020   -4.0270 O.3    41  U41        -0.2156
    611  C1'      -21.0090   35.3540   -4.1230 C.3    41  U41         0.2420
    612  N1       -20.2020   34.6150   -5.1220 N.ar   41  U41        -0.2534
    613  C2       -19.7600   35.3000   -6.2390 C.ar   41  U41         0.3546
    614  O2       -20.0040   36.4780   -6.4400 O.2    41  U41        -0.2443
    615  N3       -19.0150   34.5550   -7.1190 N.ar   41  U41        -0.1530
    616  C4       -18.6730   33.2230   -7.0010 C.ar   41  U41         0.2846
    617  O4       -17.9950   32.6890   -7.8800 O.2    41  U41        -0.2650
    618  C5       -19.1660   32.5850   -5.8200 C.ar   41  U41         0.0814
    619  C6       -19.8940   33.2860   -4.9440 C.ar   41  U41         0.0870
    620  OP1      -22.7010   31.2280    1.0230 O.3    41  U41        -0.4373
    621  OP2      -21.2940   30.5240   -1.0140 O.co2  41  U41        -0.5172
    622  P        -25.5500   34.0840   -5.0150 P.3    42  G42         0.2141
    623  C5'      -25.7600   36.6080   -5.6680 C.3    42  G42         0.1812
    624  O5'      -25.5080   35.2720   -6.0730 O.3    42  G42        -0.3114
    625  C4'      -25.4640   37.5850   -6.7750 C.3    42  G42         0.1773
    626  O4'      -24.0290   37.7530   -6.9240 O.3    42  G42        -0.3307
    627  C3'      -25.9210   37.1740   -8.1630 C.3    42  G42         0.1860
    628  O3'      -27.3070   37.3610   -8.3830 O.3    42  G42        -0.3112
    629  C2'      -25.0310   38.0210   -9.0580 C.3    42  G42         0.2309
    630  O2'      -25.4820   39.3670   -9.0800 O.3    42  G42        -0.2156
    631  C1'      -23.7140   37.9690   -8.2860 C.3    42  G42         0.2408
    632  N1       -20.7050   36.3170  -12.0220 N.ar   42  G42        -0.1709
    633  C2       -21.3820   37.5040  -11.9060 C.ar   42  G42         0.2606
    634  N2       -21.2380   38.3660  -12.9250 N.pl3  42  G42        -0.0859
    635  N3       -22.1420   37.8190  -10.8700 N.ar   42  G42        -0.1918
    636  C4       -22.1690   36.8350   -9.9450 C.ar   42  G42         0.1723
    637  C5       -21.5290   35.6140   -9.9670 C.ar   42  G42         0.1748
    638  C6       -20.7160   35.2910  -11.0840 C.ar   42  G42         0.3023
    639  O6       -20.0660   34.2610  -11.2950 O.2    42  G42        -0.2633
    640  N7       -21.8160   34.8870   -8.8190 N.ar   42  G42        -0.2173
    641  C8       -22.6120   35.6640   -8.1330 C.ar   42  G42         0.1817
    642  N9       -22.8610   36.8630   -8.7580 N.ar   42  G42        -0.2693
    643  OP1      -26.9210   34.0260   -4.4450 O.3    42  G42        -0.4373
    644  OP2      -24.9590   32.8770   -5.6460 O.co2  42  G42        -0.5172
    645  P        -28.1250   36.2820   -9.2460 P.3    43  G43         0.2141
    646  C5'      -27.7570   37.7930  -11.3500 C.3    43  G43         0.1812
    647  O5'      -27.6180   36.5220  -10.7370 O.3    43  G43        -0.3114
    648  C4'      -26.9550   37.8910  -12.6220 C.3    43  G43         0.1773
    649  O4'      -25.5340   37.7810  -12.3370 O.3    43  G43        -0.3307
    650  C3'      -27.1910   36.8050  -13.6540 C.3    43  G43         0.1860
    651  O3'      -28.3930   36.9600  -14.3830 O.3    43  G43        -0.3112
    652  C2'      -25.9330   36.8980  -14.5030 C.3    43  G43         0.2309
    653  O2'      -25.9870   38.0310  -15.3570 O.3    43  G43        -0.2156
    654  C1'      -24.8800   37.1570  -13.4270 C.3    43  G43         0.2408
    655  N1       -21.7090   33.3790  -14.6210 N.ar   43  G43        -0.1709
    656  C2       -22.0560   34.4930  -15.3420 C.ar   43  G43         0.2606
    657  N2       -21.4830   34.6200  -16.5480 N.pl3  43  G43        -0.0859
    658  N3       -22.9030   35.4140  -14.9130 N.ar   43  G43        -0.1918
    659  C4       -23.3830   35.1270  -13.6830 C.ar   43  G43         0.1723
    660  C5       -23.1020   34.0420  -12.8810 C.ar   43  G43         0.1748
    661  C6       -22.1900   33.0620  -13.3550 C.ar   43  G43         0.3023
    662  O6       -21.8060   32.0270  -12.7980 O.2    43  G43        -0.2633
    663  N7       -23.8070   34.1230  -11.6860 N.ar   43  G43        -0.2173
    664  C8       -24.4900   35.2320  -11.7830 C.ar   43  G43         0.1817
    665  N9       -24.2730   35.8940  -12.9670 N.ar   43  G43        -0.2693
    666  OP1      -29.5680   36.6290   -9.1800 O.2    43  G43        -0.5172
    667  OP2      -27.6730   34.9290   -8.8340 O.co2  43  G43        -0.4373
    668  P        -29.1920   35.6550  -14.8730 P.3    44  G44         0.2141
    669  C5'      -28.1370   36.0230  -17.2410 C.3    44  G44         0.1812
    670  O5'      -28.3650   35.1560  -16.1400 O.3    44  G44        -0.3114
    671  C4'      -27.0020   35.5450  -18.1150 C.3    44  G44         0.1773
    672  O4'      -25.7900   35.3870  -17.3300 O.3    44  G44        -0.3307
    673  C3'      -27.1760   34.1890  -18.7760 C.3    44  G44         0.1860
    674  O3'      -28.0250   34.2160  -19.9090 O.3    44  G44        -0.3112
    675  C2'      -25.7400   33.8050  -19.1000 C.3    44  G44         0.2309
    676  O2'      -25.2750   34.5190  -20.2360 O.3    44  G44        -0.2156
    677  C1'      -25.0090   34.3370  -17.8670 C.3    44  G44         0.2408
    678  N1       -22.7580   29.9240  -16.7470 N.ar   44  G44        -0.1709
    679  C2       -22.6720   30.6880  -17.8840 C.ar   44  G44         0.2606
    680  N2       -21.8820   30.2170  -18.8600 N.pl3  44  G44        -0.0859
    681  N3       -23.3150   31.8310  -18.0520 N.ar   44  G44        -0.1918
    682  C4       -24.0640   32.1580  -16.9770 C.ar   44  G44         0.1723
    683  C5       -24.2190   31.4660  -15.7960 C.ar   44  G44         0.1748
    684  C6       -23.5220   30.2390  -15.6270 C.ar   44  G44         0.3023
    685  O6       -23.5270   29.4760  -14.6540 O.2    44  G44        -0.2633
    686  N7       -25.0800   32.1420  -14.9410 N.ar   44  G44        -0.2173
    687  C8       -25.4270   33.2120  -15.6050 C.ar   44  G44         0.1817
    688  N9       -24.8430   33.2850  -16.8460 N.ar   44  G44        -0.2693
    689  OP1      -30.5430   36.0810  -15.3220 O.2    44  G44        -0.5172
    690  OP2      -29.0680   34.6210  -13.8130 O.co2  44  G44        -0.4373
    691  P        -28.7910   32.8780  -20.3640 P.3    45  A45         0.2141
    692  C5'      -26.9510   32.4910  -22.2000 C.3    45  A45         0.1812
    693  O5'      -27.6620   32.0040  -21.0710 O.3    45  A45        -0.3114
    694  C4'      -25.8500   31.5430  -22.6020 C.3    45  A45         0.1773
    695  O4'      -24.9040   31.3980  -21.5100 O.3    45  A45        -0.3307
    696  C3'      -26.2840   30.1180  -22.9070 C.3    45  A45         0.1860
    697  O3'      -26.7970   29.9660  -24.2180 O.3    45  A45        -0.3112
    698  C2'      -25.0120   29.3200  -22.6550 C.3    45  A45         0.2309
    699  O2'      -24.1230   29.4360  -23.7560 O.3    45  A45        -0.2156
    700  C1'      -24.4140   30.0740  -21.4680 C.3    45  A45         0.2408
    701  N1       -23.7990   26.1200  -18.2050 N.ar   45  A45        -0.2040
    702  C2       -23.2540   26.3930  -19.3970 C.ar   45  A45         0.2016
    703  N3       -23.4550   27.4380  -20.1950 N.ar   45  A45        -0.2048
    704  C4       -24.3460   28.2880  -19.6520 C.ar   45  A45         0.1692
    705  C5       -24.9910   28.1440  -18.4360 C.ar   45  A45         0.1518
    706  C6       -24.6900   26.9930  -17.6860 C.ar   45  A45         0.1919
    707  N6       -25.2320   26.7200  -16.4980 N.pl3  45  A45        -0.1054
    708  N7       -25.8410   29.2170  -18.2010 N.ar   45  A45        -0.2193
    709  C8       -25.6940   29.9730  -19.2620 C.ar   45  A45         0.1816
    710  N9       -24.8050   29.4720  -20.1790 N.ar   45  A45        -0.2693
    711  OP1      -29.8100   33.2450  -21.3800 O.2    45  A45        -0.5172
    712  OP2      -29.2060   32.1530  -19.1370 O.co2  45  A45        -0.4373
    713  P        -28.1090   29.0740  -24.4750 P.3    46  G46         0.2141
    714  C5'      -26.5670   26.9780  -24.8100 C.3    46  G46         0.1812
    715  O5'      -27.6430   27.5930  -24.1180 O.3    46  G46        -0.3114
    716  C4'      -26.1030   25.7320  -24.1010 C.3    46  G46         0.1773
    717  O4'      -25.5940   26.0710  -22.7860 O.3    46  G46        -0.3307
    718  C3'      -27.1780   24.6960  -23.8240 C.3    46  G46         0.1860
    719  O3'      -27.4570   23.8910  -24.9540 O.3    46  G46        -0.3112
    720  C2'      -26.6020   23.9230  -22.6450 C.3    46  G46         0.2309
    721  O2'      -25.6230   22.9940  -23.0880 O.3    46  G46        -0.2156
    722  C1'      -25.8930   25.0370  -21.8720 C.3    46  G46         0.2408
    723  N1       -27.3940   24.6000  -17.0130 N.ar   46  G46        -0.1709
    724  C2       -26.5290   23.8110  -17.7310 C.ar   46  G46         0.2606
    725  N2       -25.9940   22.7730  -17.0700 N.pl3  46  G46        -0.0859
    726  N3       -26.2140   24.0240  -18.9990 N.ar   46  G46        -0.1918
    727  C4       -26.8430   25.1080  -19.5040 C.ar   46  G46         0.1723
    728  C5       -27.7230   25.9600  -18.8700 C.ar   46  G46         0.1748
    729  C6       -28.0530   25.7200  -17.5110 C.ar   46  G46         0.3023
    730  O6       -28.8140   26.3650  -16.7800 O.2    46  G46        -0.2633
    731  N7       -28.1520   26.9590  -19.7320 N.ar   46  G46        -0.2173
    732  C8       -27.5380   26.7030  -20.8540 C.ar   46  G46         0.1817
    733  N9       -26.7280   25.5930  -20.7880 N.ar   46  G46        -0.2693
    734  OP1      -28.4200   29.1210  -25.9270 O.2    46  G46        -0.5172
    735  OP2      -29.1400   29.4800  -23.4870 O.co2  46  G46        -0.4373
    736  P        -28.8620   24.0370  -25.7170 P.3    47  U47         0.2141
    737  C5'      -29.3420   21.5220  -25.1580 C.3    47  U47         0.1812
    738  O5'      -29.7550   22.8820  -25.0870 O.3    47  U47        -0.3114
    739  C4'      -30.3860   20.5940  -24.5890 C.3    47  U47         0.1773
    740  O4'      -30.4870   20.8140  -23.1550 O.3    47  U47        -0.3307
    741  C3'      -31.7950   20.7760  -25.1490 C.3    47  U47         0.1860
    742  O3'      -32.4510   19.5100  -25.1990 O.3    47  U47        -0.3112
    743  C2'      -32.4630   21.6560  -24.0960 C.3    47  U47         0.2309
    744  O2'      -33.8710   21.5590  -24.0570 O.3    47  U47        -0.2156
    745  C1'      -31.8220   21.1340  -22.8140 C.3    47  U47         0.2420
    746  N1       -31.7900   22.1040  -21.7100 N.ar   47  U47        -0.2534
    747  C2       -32.1340   21.6440  -20.4540 C.ar   47  U47         0.3546
    748  O2       -32.4530   20.4870  -20.2410 O.2    47  U47        -0.2443
    749  N3       -32.0880   22.5880  -19.4570 N.ar   47  U47        -0.1530
    750  C4       -31.7410   23.9160  -19.5910 C.ar   47  U47         0.2846
    751  O4       -31.7460   24.6460  -18.5990 O.2    47  U47        -0.2650
    752  C5       -31.3980   24.3130  -20.9220 C.ar   47  U47         0.0814
    753  C6       -31.4340   23.4150  -21.9120 C.ar   47  U47         0.0870
    754  OP1      -28.6420   23.7170  -27.1500 O.2    47  U47        -0.5172
    755  OP2      -29.4690   25.3390  -25.3390 O.co2  47  U47        -0.4373
    756  P        -32.5030   18.6780  -26.5740 P.3    48  U48         0.2141
    757  C5'      -34.9310   19.6100  -26.9040 C.3    48  U48         0.1812
    758  O5'      -33.6220   19.4200  -27.4290 O.3    48  U48        -0.3114
    759  C4'      -35.5880   20.8340  -27.4900 C.3    48  U48         0.1773
    760  O4'      -35.9840   20.5520  -28.8600 O.3    48  U48        -0.3307
    761  C3'      -36.8490   21.2980  -26.7680 C.3    48  U48         0.1860
    762  O3'      -36.9310   22.7210  -26.8210 O.3    48  U48        -0.3112
    763  C2'      -37.9650   20.6910  -27.6100 C.3    48  U48         0.2309
    764  O2'      -39.2000   21.3680  -27.5180 O.3    48  U48        -0.2156
    765  C1'      -37.3720   20.7780  -29.0130 C.3    48  U48         0.2420
    766  N1       -37.9020   19.7690  -29.9430 N.ar   48  U48        -0.2534
    767  C2       -38.1950   20.1660  -31.2330 C.ar   48  U48         0.3546
    768  O2       -38.0200   21.3060  -31.6280 O.2    48  U48        -0.2443
    769  N3       -38.6890   19.1750  -32.0470 N.ar   48  U48        -0.1530
    770  C4       -38.9230   17.8580  -31.7060 C.ar   48  U48         0.2846
    771  O4       -39.3740   17.0810  -32.5490 O.2    48  U48        -0.2650
    772  C5       -38.6000   17.5290  -30.3510 C.ar   48  U48         0.0814
    773  C6       -38.1150   18.4720  -29.5370 C.ar   48  U48         0.0870
    774  OP1      -32.9990   17.3120  -26.2700 O.3    48  U48        -0.4373
    775  OP2      -31.2060   18.8570  -27.2730 O.co2  48  U48        -0.5172
    776  P        -36.3350   23.6030  -25.6180 P.3    49  U49         0.2141
    777  C5'      -38.0200   22.7500  -23.7920 C.3    49  U49         0.1812
    778  O5'      -36.6940   22.7640  -24.3110 O.3    49  U49        -0.3114
    779  C4'      -38.0460   22.4010  -22.3240 C.3    49  U49         0.1773
    780  O4'      -37.9420   20.9590  -22.1610 O.3    49  U49        -0.3307
    781  C3'      -36.9230   23.0110  -21.4840 C.3    49  U49         0.1860
    782  O3'      -37.4320   23.3890  -20.2070 O.3    49  U49        -0.3112
    783  C2'      -35.9490   21.8470  -21.3160 C.3    49  U49         0.2309
    784  O2'      -35.1360   21.9270  -20.1650 O.3    49  U49        -0.2156
    785  C1'      -36.9030   20.6600  -21.2510 C.3    49  U49         0.2420
    786  N1       -36.2940   19.3760  -21.6320 N.ar   49  U49        -0.2534
    787  C2       -36.6020   18.2720  -20.8600 C.ar   49  U49         0.3546
    788  O2       -37.3560   18.3240  -19.9050 O.2    49  U49        -0.2443
    789  N3       -36.0020   17.1020  -21.2540 N.ar   49  U49        -0.1530
    790  C4       -35.1370   16.9300  -22.3150 C.ar   49  U49         0.2846
    791  O4       -34.6770   15.8100  -22.5430 O.2    49  U49        -0.2650
    792  C5       -34.8630   18.1200  -23.0600 C.ar   49  U49         0.0814
    793  C6       -35.4350   19.2740  -22.7000 C.ar   49  U49         0.0870
    794  OP1      -37.0840   24.8840  -25.5660 O.3    49  U49        -0.4373
    795  OP2      -34.8570   23.6210  -25.7600 O.co2  49  U49        -0.5172
    796  P        -36.9750   24.7770  -19.5420 P.3    50  C50         0.2141
    797  C5'      -39.0710   24.9640  -17.9790 C.3    50  C50         0.1812
    798  O5'      -37.6720   24.7640  -18.1110 O.3    50  C50        -0.3114
    799  C4'      -39.6140   24.2520  -16.7670 C.3    50  C50         0.1773
    800  O4'      -39.7430   22.8320  -17.0430 O.3    50  C50        -0.3307
    801  C3'      -38.7460   24.3040  -15.5210 C.3    50  C50         0.1860
    802  O3'      -38.8620   25.5210  -14.8060 O.3    50  C50        -0.3112
    803  C2'      -39.2200   23.0870  -14.7410 C.3    50  C50         0.2309
    804  O2'      -40.4560   23.3580  -14.0950 O.3    50  C50        -0.2156
    805  C1'      -39.4780   22.0890  -15.8710 C.3    50  C50         0.2420
    806  N1       -38.3130   21.2090  -16.1210 N.ar   50  C50        -0.2535
    807  C2       -37.9850   20.2140  -15.1920 C.ar   50  C50         0.3532
    808  O2       -38.6690   20.0850  -14.1650 O.2    50  C50        -0.2443
    809  N3       -36.9210   19.4140  -15.4310 N.ar   50  C50        -0.1739
    810  C4       -36.2010   19.5710  -16.5430 C.ar   50  C50         0.1759
    811  N4       -35.1630   18.7550  -16.7350 N.pl3  50  C50        -0.1070
    812  C5       -36.5140   20.5700  -17.5090 C.ar   50  C50         0.0566
    813  C6       -37.5670   21.3570  -17.2590 C.ar   50  C50         0.0850
    814  OP1      -37.5650   25.8850  -20.3370 O.2    50  C50        -0.5172
    815  OP2      -35.5050   24.7240  -19.3360 O.co2  50  C50        -0.4373
    816  P        -37.5410   26.3080  -14.3380 P.3    51  U51         0.2141
    817  C5'      -37.4630   24.9280  -12.1110 C.3    51  U51         0.1812
    818  O5'      -36.8310   25.3030  -13.3250 O.3    51  U51        -0.3114
    819  C4'      -36.8710   23.6630  -11.5420 C.3    51  U51         0.1773
    820  O4'      -36.9210   22.6050  -12.5340 O.3    51  U51        -0.3307
    821  C3'      -35.4040   23.7250  -11.1450 C.3    51  U51         0.1860
    822  O3'      -35.2010   24.3240   -9.8760 O.3    51  U51        -0.3112
    823  C2'      -34.9850   22.2610  -11.1960 C.3    51  U51         0.2309
    824  O2'      -35.4080   21.5790  -10.0250 O.3    51  U51        -0.2156
    825  C1'      -35.8100   21.7470  -12.3780 C.3    51  U51         0.2420
    826  N1       -35.0340   21.7250  -13.6400 N.ar   51  U51        -0.2534
    827  C2       -34.1410   20.6830  -13.8180 C.ar   51  U51         0.3546
    828  O2       -33.9700   19.8040  -12.9910 O.2    51  U51        -0.2443
    829  N3       -33.4490   20.7040  -15.0020 N.ar   51  U51        -0.1530
    830  C4       -33.5570   21.6400  -16.0080 C.ar   51  U51         0.2846
    831  O4       -32.8620   21.5160  -17.0170 O.2    51  U51        -0.2650
    832  C5       -34.5010   22.6860  -15.7530 C.ar   51  U51         0.0814
    833  C6       -35.1920   22.6920  -14.6060 C.ar   51  U51         0.0870
    834  OP1      -37.9660   27.5040  -13.5670 O.3    51  U51        -0.4373
    835  OP2      -36.6580   26.4690  -15.5210 O.co2  51  U51        -0.5172
    836  P        -33.8480   25.1340   -9.5630 P.3    52  A52         0.2141
    837  C5'      -32.6430   23.0260   -8.5550 C.3    52  A52         0.1812
    838  O5'      -32.7110   24.0170   -9.5710 O.3    52  A52        -0.3114
    839  C4'      -31.6420   21.9540   -8.9060 C.3    52  A52         0.1773
    840  O4'      -32.0060   21.3520  -10.1750 O.3    52  A52        -0.3307
    841  C3'      -30.2090   22.4270   -9.1080 C.3    52  A52         0.1860
    842  O3'      -29.4970   22.5290   -7.8860 O.3    52  A52        -0.3112
    843  C2'      -29.6320   21.3820  -10.0550 C.3    52  A52         0.2309
    844  O2'      -29.2400   20.2190   -9.3400 O.3    52  A52        -0.2156
    845  C1'      -30.8480   21.0370  -10.9160 C.3    52  A52         0.2408
    846  N1       -29.1490   21.4320  -15.7810 N.ar   52  A52        -0.2040
    847  C2       -28.8950   20.5420  -14.8120 C.ar   52  A52         0.2016
    848  N3       -29.3670   20.4940  -13.5670 N.ar   52  A52        -0.2048
    849  C4       -30.2070   21.5190  -13.3390 C.ar   52  A52         0.1692
    850  C5       -30.5660   22.5110  -14.2340 C.ar   52  A52         0.1518
    851  C6       -29.9980   22.4500  -15.5190 C.ar   52  A52         0.1919
    852  N6       -30.2510   23.3380  -16.4840 N.pl3  52  A52        -0.1054
    853  N7       -31.4530   23.4030  -13.6500 N.ar   52  A52        -0.2193
    854  C8       -31.6090   22.9390  -12.4350 C.ar   52  A52         0.1816
    855  N9       -30.8840   21.8030  -12.1760 N.ar   52  A52        -0.2693
    856  OP1      -33.9440   25.6800   -8.1850 O.3    52  A52        -0.4373
    857  OP2      -33.5900   26.0550  -10.6980 O.co2  52  A52        -0.5172
    858  P        -28.6840   23.8660   -7.5180 P.3    53  C53         0.2141
    859  C5'      -26.3810   22.7150   -8.0350 C.3    53  C53         0.1812
    860  O5'      -27.3220   23.7350   -8.3370 O.3    53  C53        -0.3114
    861  C4'      -25.5860   22.3180   -9.2540 C.3    53  C53         0.1773
    862  O4'      -26.4950   21.9920  -10.3350 O.3    53  C53        -0.3307
    863  C3'      -24.6750   23.3890   -9.8390 C.3    53  C53         0.1860
    864  O3'      -23.4210   23.4560   -9.1810 O.3    53  C53        -0.3112
    865  C2'      -24.5580   22.9740  -11.3020 C.3    53  C53         0.2309
    866  O2'      -23.5960   21.9410  -11.4560 O.3    53  C53        -0.2156
    867  C1'      -25.9440   22.3860  -11.5710 C.3    53  C53         0.2420
    868  N1       -26.8600   23.3560  -12.2150 N.ar   53  C53        -0.2535
    869  C2       -26.8650   23.4380  -13.6090 C.ar   53  C53         0.3532
    870  O2       -26.1030   22.7020  -14.2530 O.2    53  C53        -0.2443
    871  N3       -27.6970   24.3140  -14.2190 N.ar   53  C53        -0.1739
    872  C4       -28.5020   25.0870  -13.4870 C.ar   53  C53         0.1759
    873  N4       -29.3080   25.9390  -14.1250 N.pl3  53  C53        -0.1070
    874  C5       -28.5190   25.0220  -12.0640 C.ar   53  C53         0.0566
    875  C6       -27.6920   24.1500  -11.4750 C.ar   53  C53         0.0850
    876  OP1      -28.3530   23.8060   -6.0720 O.3    53  C53        -0.4373
    877  OP2      -29.4410   25.0280   -8.0500 O.co2  53  C53        -0.5172
    878  P        -23.1620   24.5190   -8.0030 P.3    54  C54         0.2141
    879  C5'      -23.5540   23.6570   -5.5630 C.3    54  C54         0.1812
    880  O5'      -22.7820   23.6070   -6.7520 O.3    54  C54        -0.3114
    881  C4'      -23.7720   22.2890   -4.9630 C.3    54  C54         0.1773
    882  O4'      -24.1670   21.3370   -5.9870 O.3    54  C54        -0.3307
    883  C3'      -22.5720   21.6260   -4.3110 C.3    54  C54         0.1860
    884  O3'      -22.2610   22.1470   -3.0320 O.3    54  C54        -0.3112
    885  C2'      -22.9930   20.1630   -4.2850 C.3    54  C54         0.2309
    886  O2'      -23.9250   19.9300   -3.2400 O.3    54  C54        -0.2156
    887  C1'      -23.7280   20.0410   -5.6210 C.3    54  C54         0.2420
    888  N1       -22.8500   19.4930   -6.6810 N.ar   54  C54        -0.2535
    889  C2       -22.6380   18.1100   -6.6980 C.ar   54  C54         0.3532
    890  O2       -23.1980   17.4060   -5.8450 O.2    54  C54        -0.2443
    891  N3       -21.8360   17.5690   -7.6430 N.ar   54  C54        -0.1739
    892  C4       -21.2490   18.3540   -8.5460 C.ar   54  C54         0.1759
    893  N4       -20.4660   17.7750   -9.4600 N.pl3  54  C54        -0.1070
    894  C5       -21.4420   19.7670   -8.5500 C.ar   54  C54         0.0566
    895  C6       -22.2390   20.2910   -7.6080 C.ar   54  C54         0.0850
    896  OP1      -24.4400   25.2130   -7.7020 O.3    54  C54        -0.4373
    897  OP2      -21.9690   25.3250   -8.3640 O.co2  54  C54        -0.5172
    898  P        -20.7610   22.0250   -2.4650 P.3    55  A55         0.2141
    899  C5'      -21.4890   19.9340   -1.0570 C.3    55  A55         0.1812
    900  O5'      -20.6310   20.4950   -2.0390 O.3    55  A55        -0.3114
    901  C4'      -21.3340   18.4360   -0.9750 C.3    55  A55         0.1773
    902  O4'      -21.6880   17.8290   -2.2440 O.3    55  A55        -0.3307
    903  C3'      -19.9290   17.9260   -0.7040 C.3    55  A55         0.1860
    904  O3'      -19.5750   17.9950    0.6660 O.3    55  A55        -0.3112
    905  C2'      -19.9770   16.5060   -1.2530 C.3    55  A55         0.2309
    906  O2'      -20.6080   15.6310   -0.3300 O.3    55  A55        -0.2156
    907  C1'      -20.8970   16.6780   -2.4630 C.3    55  A55         0.2408
    908  N1       -18.1010   14.3550   -6.1280 N.ar   55  A55        -0.2040
    909  C2       -18.6880   13.8940   -5.0160 C.ar   55  A55         0.2016
    910  N3       -19.4000   14.5550   -4.1050 N.ar   55  A55        -0.2048
    911  C4       -19.4930   15.8590   -4.4240 C.ar   55  A55         0.1692
    912  C5       -18.9450   16.4800   -5.5320 C.ar   55  A55         0.1518
    913  C6       -18.2130   15.6700   -6.4200 C.ar   55  A55         0.1919
    914  N6       -17.6270   16.1280   -7.5290 N.pl3  55  A55        -0.1054
    915  N7       -19.2470   17.8340   -5.5330 N.ar   55  A55        -0.2193
    916  C8       -19.9590   18.0000   -4.4440 C.ar   55  A55         0.1816
    917  N9       -20.1460   16.8470   -3.7230 N.ar   55  A55        -0.2693
    918  OP1      -20.6480   22.8610   -1.2430 O.3    55  A55        -0.4373
    919  OP2      -19.8340   22.2540   -3.6020 O.co2  55  A55        -0.5172
    920  P        -18.0510   18.2690    1.0910 P.3    56  A56         0.2141
    921  C5'      -17.7990   15.7540    1.7700 C.3    56  A56         0.1812
    922  O5'      -17.3600   16.8400    0.9710 O.3    56  A56        -0.3114
    923  C4'      -17.3030   14.4380    1.2300 C.3    56  A56         0.1773
    924  O4'      -17.8350   14.2260   -0.1060 O.3    56  A56        -0.3307
    925  C3'      -15.8000   14.3160    1.0450 C.3    56  A56         0.1860
    926  O3'      -15.1030   14.0330    2.2460 O.3    56  A56        -0.3112
    927  C2'      -15.6900   13.2190   -0.0030 C.3    56  A56         0.2309
    928  O2'      -15.9190   11.9450    0.5820 O.3    56  A56        -0.2156
    929  C1'      -16.8780   13.5560   -0.9020 C.3    56  A56         0.2408
    930  N1       -14.8480   13.8440   -5.6290 N.ar   56  A56        -0.2040
    931  C2       -15.1130   12.8090   -4.8220 C.ar   56  A56         0.2016
    932  N3       -15.6440   12.8060   -3.6020 N.ar   56  A56        -0.2048
    933  C4       -15.9210   14.0590   -3.2020 C.ar   56  A56         0.1692
    934  C5       -15.7070   15.2240   -3.9170 C.ar   56  A56         0.1518
    935  C6       -15.1390   15.0910   -5.1970 C.ar   56  A56         0.1919
    936  N6       -14.8740   16.1220   -6.0030 N.pl3  56  A56        -0.1054
    937  N7       -16.1180   16.3300   -3.1850 N.ar   56  A56        -0.2193
    938  C8       -16.5630   15.8170   -2.0640 C.ar   56  A56         0.1816
    939  N9       -16.4800   14.4480   -2.0080 N.ar   56  A56        -0.2693
    940  OP1      -18.0340   18.6670    2.5220 O.3    56  A56        -0.4373
    941  OP2      -17.4420   19.1600    0.0710 O.co2  56  A56        -0.5172
    942  P        -13.6210   14.6160    2.4700 P.3    57  G57         0.2141
    943  C5'      -12.4900   12.4030    1.6460 C.3    57  G57         0.1812
    944  O5'      -12.7230   13.7890    1.4460 O.3    57  G57        -0.3114
    945  C4'      -11.9580   11.7320    0.4040 C.3    57  G57         0.1773
    946  O4'      -12.8290   12.0080   -0.7250 O.3    57  G57        -0.3307
    947  C3'      -10.5900   12.1830   -0.0810 C.3    57  G57         0.1860
    948  O3'       -9.5140   11.6220    0.6510 O.3    57  G57        -0.3112
    949  C2'      -10.6150   11.7630   -1.5430 C.3    57  G57         0.2309
    950  O2'      -10.4150   10.3620   -1.6650 O.3    57  G57        -0.2156
    951  C1'      -12.0650   12.0740   -1.9130 C.3    57  G57         0.2408
    952  N1       -11.2360   14.9340   -6.0170 N.ar   57  G57        -0.1709
    953  C2       -10.9920   13.5990   -5.8120 C.ar   57  G57         0.2606
    954  N2       -10.4500   12.9320   -6.8410 N.pl3  57  G57        -0.0859
    955  N3       -11.2580   12.9650   -4.6820 N.ar   57  G57        -0.1918
    956  C4       -11.7980   13.7880   -3.7580 C.ar   57  G57         0.1723
    957  C5       -12.0820   15.1320   -3.8610 C.ar   57  G57         0.1748
    958  C6       -11.7900   15.8000   -5.0800 C.ar   57  G57         0.3023
    959  O6       -11.9660   16.9880   -5.3750 O.2    57  G57        -0.2633
    960  N7       -12.6340   15.6070   -2.6780 N.ar   57  G57        -0.2173
    961  C8       -12.6740   14.5630   -1.8930 C.ar   57  G57         0.1817
    962  N9       -12.1880   13.4250   -2.4910 N.ar   57  G57        -0.2693
    963  OP1      -13.1890   14.2550    3.8440 O.3    57  G57        -0.4373
    964  OP2      -13.6160   16.0400    2.0490 O.co2  57  G57        -0.5172
    965  P         -8.1510   12.4540    0.8380 P.3    58  A58         0.2141
    966  C5'       -6.9210   11.1550   -1.0810 C.3    58  A58         0.1812
    967  O5'       -7.4460   12.3800   -0.5900 O.3    58  A58        -0.3114
    968  C4'       -6.7340   11.1800   -2.5790 C.3    58  A58         0.1773
    969  O4'       -7.9250   11.7130   -3.2160 O.3    58  A58        -0.3307
    970  C3'       -5.6120   12.0610   -3.1080 C.3    58  A58         0.1860
    971  O3'       -4.3340   11.4560   -3.0150 O.3    58  A58        -0.3112
    972  C2'       -6.0530   12.3290   -4.5400 C.3    58  A58         0.2309
    973  O2'       -5.7800   11.2080   -5.3680 O.3    58  A58        -0.2156
    974  C1'       -7.5670   12.4450   -4.3700 C.3    58  A58         0.2408
    975  N1        -8.1530   17.0190   -6.6490 N.ar   58  A58        -0.2040
    976  C2        -7.7180   15.8350   -7.0990 C.ar   58  A58         0.2016
    977  N3        -7.5920   14.6820   -6.4470 N.ar   58  A58        -0.2048
    978  C4        -7.9770   14.8170   -5.1660 C.ar   58  A58         0.1692
    979  C5        -8.4460   15.9660   -4.5570 C.ar   58  A58         0.1518
    980  C6        -8.5320   17.1200   -5.3560 C.ar   58  A58         0.1919
    981  N6        -8.9660   18.2990   -4.9070 N.pl3  58  A58        -0.1054
    982  N7        -8.7470   15.7260   -3.2230 N.ar   58  A58        -0.2193
    983  C8        -8.4570   14.4580   -3.0570 C.ar   58  A58         0.1816
    984  N9        -7.9880   13.8470   -4.1940 N.ar   58  A58        -0.2693
    985  OP1       -7.2930   11.7270    1.8100 O.3    58  A58        -0.4373
    986  OP2       -8.5170   13.8690    1.1010 O.co2  58  A58        -0.5172
    987  P         -3.0180   12.3670   -2.8530 P.3    59  G59         0.2141
    988  C5'       -2.5290   12.2120   -5.4300 C.3    59  G59         0.1812
    989  O5'       -2.8100   13.0180   -4.2940 O.3    59  G59        -0.3114
    990  C4'       -2.7260   12.9770   -6.7160 C.3    59  G59         0.1773
    991  O4'       -4.0420   13.5880   -6.7240 O.3    59  G59        -0.3307
    992  C3'       -1.7740   14.1400   -6.9560 C.3    59  G59         0.1860
    993  O3'       -0.5270   13.7250   -7.4900 O.3    59  G59        -0.3112
    994  C2'       -2.5680   15.0360   -7.9000 C.3    59  G59         0.2309
    995  O2'       -2.4920   14.5570   -9.2340 O.3    59  G59        -0.2156
    996  C1'       -3.9950   14.8300   -7.3930 C.3    59  G59         0.2408
    997  N1        -5.2810   19.7340   -6.8150 N.ar   59  G59        -0.1709
    998  C2        -4.8940   19.0650   -7.9500 C.ar   59  G59         0.2606
    999  N2        -4.8430   19.7930   -9.0750 N.pl3  59  G59        -0.0859
   1000  N3        -4.5800   17.7800   -7.9790 N.ar   59  G59        -0.1918
   1001  C4        -4.6840   17.2050   -6.7610 C.ar   59  G59         0.1723
   1002  C5        -5.0600   17.7850   -5.5680 C.ar   59  G59         0.1748
   1003  C6        -5.3950   19.1640   -5.5520 C.ar   59  G59         0.3023
   1004  O6        -5.7520   19.8580   -4.5930 O.2    59  G59        -0.2633
   1005  N7        -5.0420   16.8550   -4.5380 N.ar   59  G59        -0.2173
   1006  C8        -4.6620   15.7460   -5.1120 C.ar   59  G59         0.1817
   1007  N9        -4.4230   15.8880   -6.4570 N.ar   59  G59        -0.2693
   1008  OP1       -1.8670   11.4680   -2.5810 O.2    59  G59        -0.5172
   1009  OP2       -3.3330   13.4590   -1.8970 O.co2  59  G59        -0.4373
   1010  P          0.8330   14.4660   -7.0610 P.3    60  C60         0.2141
   1011  C5'        0.6500   16.0810   -9.1240 C.3    60  C60         0.1812
   1012  O5'        0.7130   15.9140   -7.7150 O.3    60  C60        -0.3114
   1013  C4'        0.1850   17.4690   -9.4870 C.3    60  C60         0.1773
   1014  O4'       -1.1380   17.6970   -8.9360 O.3    60  C60        -0.3307
   1015  C3'        1.0240   18.6100   -8.9310 C.3    60  C60         0.1860
   1016  O3'        2.1680   18.8830   -9.7220 O.3    60  C60        -0.3112
   1017  C2'        0.0310   19.7640   -8.8690 C.3    60  C60         0.2309
   1018  O2'       -0.1310   20.3600  -10.1480 O.3    60  C60        -0.2156
   1019  C1'       -1.2640   19.0350   -8.5070 C.3    60  C60         0.2420
   1020  N1        -1.5340   19.0380   -7.0490 N.ar   60  C60        -0.2535
   1021  C2        -2.1000   20.1730   -6.4600 C.ar   60  C60         0.3532
   1022  O2        -2.3520   21.1580   -7.1690 O.2    60  C60        -0.2443
   1023  N3        -2.3540   20.1710   -5.1300 N.ar   60  C60        -0.1739
   1024  C4        -2.0720   19.0950   -4.3940 C.ar   60  C60         0.1759
   1025  N4        -2.3400   19.1390   -3.0860 N.pl3  60  C60        -0.1070
   1026  C5        -1.5000   17.9230   -4.9680 C.ar   60  C60         0.0566
   1027  C6        -1.2540   17.9390   -6.2830 C.ar   60  C60         0.0850
   1028  OP1        1.9600   13.7590   -7.7210 O.2    60  C60        -0.5172
   1029  OP2        0.8320   14.6280   -5.5840 O.co2  60  C60        -0.4373
   1030  P          3.5600   19.2800   -9.0240 P.3    61  C61         0.2141
   1031  C5'        3.0880   21.7340   -9.8210 C.3    61  C61         0.1812
   1032  O5'        3.4250   20.8460   -8.7650 O.3    61  C61        -0.3114
   1033  C4'        2.5230   23.0290   -9.2930 C.3    61  C61         0.1773
   1034  O4'        1.2860   22.7690   -8.5850 O.3    61  C61        -0.3307
   1035  C3'        3.3890   23.7660   -8.2820 C.3    61  C61         0.1860
   1036  O3'        4.3820   24.5630   -8.9060 O.3    61  C61        -0.3112
   1037  C2'        2.3730   24.5820   -7.4900 C.3    61  C61         0.2309
   1038  O2'        2.0440   25.7790   -8.1800 O.3    61  C61        -0.2156
   1039  C1'        1.1480   23.6640   -7.5040 C.3    61  C61         0.2420
   1040  N1         0.9920   22.8830   -6.2550 N.ar   61  C61        -0.2535
   1041  C2         0.3370   23.4730   -5.1700 C.ar   61  C61         0.3532
   1042  O2        -0.0800   24.6360   -5.2810 O.2    61  C61        -0.2443
   1043  N3         0.1780   22.7680   -4.0270 N.ar   61  C61        -0.1739
   1044  C4         0.6390   21.5190   -3.9430 C.ar   61  C61         0.1759
   1045  N4         0.4570   20.8620   -2.7960 N.pl3  61  C61        -0.1070
   1046  C5         1.3040   20.8890   -5.0340 C.ar   61  C61         0.0566
   1047  C6         1.4550   21.6000   -6.1590 C.ar   61  C61         0.0850
   1048  OP1        4.6490   19.0620  -10.0100 O.2    61  C61        -0.5172
   1049  OP2        3.6210   18.6020   -7.7040 O.co2  61  C61        -0.4373
   1050  P          5.9440   24.2890   -8.6420 P.3    62  U62         0.2141
   1051  C5'        7.5290   25.2420   -6.7780 C.3    62  U62         0.1812
   1052  O5'        6.2080   24.9340   -7.2100 O.3    62  U62        -0.3114
   1053  C4'        7.5750   25.5150   -5.2950 C.3    62  U62         0.1773
   1054  O4'        7.0220   24.3710   -4.5890 O.3    62  U62        -0.3307
   1055  C3'        8.9700   25.7380   -4.7140 C.3    62  U62         0.1860
   1056  O3'        8.8850   26.6620   -3.6290 O.3    62  U62        -0.3112
   1057  C2'        9.3330   24.3570   -4.1790 C.3    62  U62         0.2309
   1058  O2'       10.2990   24.3600   -3.1490 O.3    62  U62        -0.2156
   1059  C1'        7.9790   23.8560   -3.6840 C.3    62  U62         0.2420
   1060  N1         7.8510   22.3920   -3.6720 N.ar   62  U62        -0.2534
   1061  C2         7.4090   21.8010   -2.5060 C.ar   62  U62         0.3546
   1062  O2         7.1250   22.4420   -1.5080 O.2    62  U62        -0.2443
   1063  N3         7.3080   20.4330   -2.5520 N.ar   62  U62        -0.1530
   1064  C4         7.6020   19.6140   -3.6240 C.ar   62  U62         0.2846
   1065  O4         7.4610   18.3950   -3.5120 O.2    62  U62        -0.2650
   1066  C5         8.0550   20.3030   -4.7940 C.ar   62  U62         0.0814
   1067  C6         8.1620   21.6370   -4.7780 C.ar   62  U62         0.0870
   1068  OP1        6.7140   25.0710   -9.6420 O.2    62  U62        -0.5172
   1069  OP2        6.1520   22.8220   -8.5420 O.co2  62  U62        -0.4373
   1070  P          9.4750   28.1490   -3.7820 P.3    63  U63         0.2141
   1071  C5'        7.4040   29.7060   -4.2090 C.3    63  U63         0.1812
   1072  O5'        8.2900   29.0890   -3.2800 O.3    63  U63        -0.3114
   1073  C4'        6.2060   30.3240   -3.5290 C.3    63  U63         0.1773
   1074  O4'        5.3140   29.2720   -3.0680 O.3    63  U63        -0.3307
   1075  C3'        6.5120   31.1900   -2.3070 C.3    63  U63         0.1860
   1076  O3'        5.5750   32.2660   -2.2490 O.3    63  U63        -0.3112
   1077  C2'        6.2530   30.2330   -1.1470 C.3    63  U63         0.2309
   1078  O2'        5.9440   30.8610    0.0800 O.3    63  U63        -0.2156
   1079  C1'        5.0760   29.4250   -1.6820 C.3    63  U63         0.2420
   1080  N1         4.9310   28.0890   -1.0870 N.ar   63  U63        -0.2534
   1081  C2         4.0160   27.9520   -0.0630 C.ar   63  U63         0.3546
   1082  O2         3.3530   28.8850    0.3570 O.2    63  U63        -0.2443
   1083  N3         3.9130   26.6870    0.4560 N.ar   63  U63        -0.1530
   1084  C4         4.6150   25.5690    0.0560 C.ar   63  U63         0.2846
   1085  O4         4.4080   24.4950    0.6210 O.2    63  U63        -0.2650
   1086  C5         5.5380   25.7920   -1.0150 C.ar   63  U63         0.0814
   1087  C6         5.6610   27.0160   -1.5390 C.ar   63  U63         0.0870
   1088  OP1        9.6820   28.4110   -5.2290 O.2    63  U63        -0.5172
   1089  OP2       10.6100   28.2970   -2.8370 O.co2  63  U63        -0.4373
   1090  P          5.9790   33.7260   -2.7880 P.3    64  A64         0.2141
   1091  C5'        4.8700   34.1830   -5.1180 C.3    64  A64         0.1812
   1092  O5'        5.9230   33.5870   -4.3740 O.3    64  A64        -0.3114
   1093  C4'        4.6840   33.5080   -6.4530 C.3    64  A64         0.1773
   1094  O4'        5.0750   32.1190   -6.3560 O.3    64  A64        -0.3307
   1095  C3'        3.2570   33.4740   -6.9810 C.3    64  A64         0.1860
   1096  O3'        2.9360   34.6620   -7.6860 O.3    64  A64        -0.3112
   1097  C2'        3.2320   32.2310   -7.8710 C.3    64  A64         0.2309
   1098  O2'        3.6580   32.5470   -9.1880 O.3    64  A64        -0.2156
   1099  C1'        4.2890   31.3310   -7.2190 C.3    64  A64         0.2408
   1100  N1         1.8840   29.6130   -2.9330 N.ar   64  A64        -0.2040
   1101  C2         2.2290   30.8460   -3.3270 C.ar   64  A64         0.2016
   1102  N3         2.8440   31.2410   -4.4410 N.ar   64  A64        -0.2048
   1103  C4         3.1200   30.1870   -5.2280 C.ar   64  A64         0.1692
   1104  C5         2.8290   28.8600   -4.9580 C.ar   64  A64         0.1518
   1105  C6         2.1790   28.5760   -3.7440 C.ar   64  A64         0.1919
   1106  N6         1.8400   27.3440   -3.3590 N.pl3  64  A64        -0.1054
   1107  N7         3.2580   28.0390   -5.9880 N.ar   64  A64        -0.2193
   1108  C8         3.7920   28.8730   -6.8430 C.ar   64  A64         0.1816
   1109  N9         3.7380   30.1890   -6.4590 N.ar   64  A64        -0.2693
   1110  OP1        7.3880   33.9870   -2.4000 O.2    64  A64        -0.5172
   1111  OP2        4.9130   34.6730   -2.3720 O.co2  64  A64        -0.4373
   1112  P          1.6640   35.5550   -7.2790 P.3    65  A65         0.2141
   1113  C5'        0.7060   34.8600   -9.6170 C.3    65  A65         0.1812
   1114  O5'        0.5010   35.0040   -8.2150 O.3    65  A65        -0.3114
   1115  C4'       -0.2590   33.8770  -10.2340 C.3    65  A65         0.1773
   1116  O4'       -0.0700   32.5630   -9.6340 O.3    65  A65        -0.3307
   1117  C3'       -1.7440   34.2090  -10.0630 C.3    65  A65         0.1860
   1118  O3'       -2.4470   33.7590  -11.2210 O.3    65  A65        -0.3112
   1119  C2'       -2.1380   33.3380   -8.8760 C.3    65  A65         0.2309
   1120  O2'       -3.5160   33.0500   -8.7830 O.3    65  A65        -0.2156
   1121  C1'       -1.3120   32.0900   -9.1540 C.3    65  A65         0.2408
   1122  N1         0.0530   27.3920   -7.7030 N.ar   65  A65        -0.2040
   1123  C2        -0.0560   27.9770   -8.9020 C.ar   65  A65         0.2016
   1124  N3        -0.4200   29.2210   -9.1960 N.ar   65  A65        -0.2048
   1125  C4        -0.6970   29.9110   -8.0780 C.ar   65  A65         0.1692
   1126  C5        -0.6350   29.4530   -6.7770 C.ar   65  A65         0.1518
   1127  C6        -0.2360   28.1180   -6.6010 C.ar   65  A65         0.1919
   1128  N6        -0.1310   27.5300   -5.4100 N.pl3  65  A65        -0.1054
   1129  N7        -0.9950   30.4560   -5.8870 N.ar   65  A65        -0.2193
   1130  C8        -1.2650   31.4830   -6.6590 C.ar   65  A65         0.1816
   1131  N9        -1.0950   31.2190   -7.9970 N.ar   65  A65        -0.2693
   1132  OP1        1.9500   36.9530   -7.6890 O.2    65  A65        -0.5172
   1133  OP2        1.3110   35.2640   -5.8670 O.co2  65  A65        -0.4373
   1134  P         -3.7690   34.5190  -11.7220 P.3    66  A66         0.2141
   1135  C5'       -5.1960   32.3520  -11.3150 C.3    66  A66         0.1812
   1136  O5'       -4.7220   33.3420  -12.2170 O.3    66  A66        -0.3114
   1137  C4'       -4.7580   30.9720  -11.7330 C.3    66  A66         0.1773
   1138  O4'       -3.5490   30.5990  -11.0160 O.3    66  A66        -0.3307
   1139  C3'       -5.7220   29.8410  -11.4200 C.3    66  A66         0.1860
   1140  O3'       -6.8020   29.7450  -12.3310 O.3    66  A66        -0.3112
   1141  C2'       -4.8030   28.6320  -11.4180 C.3    66  A66         0.2309
   1142  O2'       -4.4500   28.2700  -12.7450 O.3    66  A66        -0.2156
   1143  C1'       -3.5700   29.2130  -10.7330 C.3    66  A66         0.2408
   1144  N1        -3.2680   25.8710   -6.8310 N.ar   66  A66        -0.2040
   1145  C2        -3.1220   25.7270   -8.1540 C.ar   66  A66         0.2016
   1146  N3        -3.2130   26.6450   -9.1140 N.ar   66  A66        -0.2048
   1147  C4        -3.4930   27.8520   -8.5920 C.ar   66  A66         0.1692
   1148  C5        -3.6720   28.1580   -7.2550 C.ar   66  A66         0.1518
   1149  C6        -3.5490   27.0980   -6.3390 C.ar   66  A66         0.1919
   1150  N6        -3.6940   27.2370   -5.0190 N.pl3  66  A66        -0.1054
   1151  N7        -3.9470   29.5090   -7.0940 N.ar   66  A66        -0.2193
   1152  C8        -3.9320   29.9810   -8.3170 C.ar   66  A66         0.1816
   1153  N9        -3.6520   29.0350   -9.2720 N.ar   66  A66        -0.2693
   1154  OP1       -3.4050   35.3340  -12.9080 O.2    66  A66        -0.5172
   1155  OP2       -4.4030   35.1670  -10.5470 O.co2  66  A66        -0.4373
   1156  P         -8.3130   29.7760  -11.7840 P.3    67  C67         0.2141
   1157  C5'       -8.3700   27.3970  -10.6780 C.3    67  C67         0.1812
   1158  O5'       -8.7500   28.2440  -11.7540 O.3    67  C67        -0.3114
   1159  C4'       -7.3920   26.3400  -11.1260 C.3    67  C67         0.1773
   1160  O4'       -6.4660   26.0350  -10.0530 O.3    67  C67        -0.3307
   1161  C3'       -7.9730   24.9880  -11.5080 C.3    67  C67         0.1860
   1162  O3'       -8.5100   24.9710  -12.8190 O.3    67  C67        -0.3112
   1163  C2'       -6.7820   24.0540  -11.3290 C.3    67  C67         0.2309
   1164  O2'       -5.9140   24.1310  -12.4490 O.3    67  C67        -0.2156
   1165  C1'       -6.0740   24.6810  -10.1250 C.3    67  C67         0.2420
   1166  N1        -6.4240   24.0120   -8.8520 N.ar   67  C67        -0.2535
   1167  C2        -5.7150   22.8650   -8.4810 C.ar   67  C67         0.3532
   1168  O2        -4.8190   22.4440   -9.2290 O.2    67  C67        -0.2443
   1169  N3        -6.0210   22.2440   -7.3190 N.ar   67  C67        -0.1739
   1170  C4        -6.9900   22.7270   -6.5400 C.ar   67  C67         0.1759
   1171  N4        -7.2590   22.0820   -5.4030 N.pl3  67  C67        -0.1070
   1172  C5        -7.7280   23.8940   -6.8920 C.ar   67  C67         0.0566
   1173  C6        -7.4150   24.4990   -8.0440 C.ar   67  C67         0.0850
   1174  OP1       -9.1570   30.4850  -12.7780 O.2    67  C67        -0.5172
   1175  OP2       -8.2660   30.2630  -10.3840 O.co2  67  C67        -0.4373
   1176  P         -9.7080   23.9670  -13.1930 P.3    68  U68         0.2141
   1177  C5'       -8.0400   22.2040  -14.1840 C.3    68  U68         0.1812
   1178  O5'       -9.0200   22.5300  -13.2100 O.3    68  U68        -0.3114
   1179  C4'       -7.4430   20.8420  -13.9350 C.3    68  U68         0.1773
   1180  O4'       -6.7810   20.8210  -12.6430 O.3    68  U68        -0.3307
   1181  C3'       -8.4260   19.6850  -13.8620 C.3    68  U68         0.1860
   1182  O3'       -8.8330   19.2180  -15.1360 O.3    68  U68        -0.3112
   1183  C2'       -7.6600   18.6510  -13.0480 C.3    68  U68         0.2309
   1184  O2'       -6.7070   17.9800  -13.8590 O.3    68  U68        -0.2156
   1185  C1'       -6.9100   19.5410  -12.0570 C.3    68  U68         0.2420
   1186  N1        -7.6300   19.6750  -10.7700 N.ar   68  U68        -0.2534
   1187  C2        -7.5780   18.6100   -9.8890 C.ar   68  U68         0.3546
   1188  O2        -6.9740   17.5770  -10.1270 O.2    68  U68        -0.2443
   1189  N3        -8.2590   18.7960   -8.7120 N.ar   68  U68        -0.1530
   1190  C4        -8.9730   19.9140   -8.3330 C.ar   68  U68         0.2846
   1191  O4        -9.5340   19.9300   -7.2370 O.2    68  U68        -0.2650
   1192  C5        -8.9790   20.9720   -9.2960 C.ar   68  U68         0.0814
   1193  C6        -8.3230   20.8200  -10.4510 C.ar   68  U68         0.0870
   1194  OP1      -10.1410   24.2740  -14.5790 O.2    68  U68        -0.5172
   1195  OP2      -10.6950   23.9920  -12.0840 O.co2  68  U68        -0.4373
   1196  P        -10.2750   18.5340  -15.3220 P.3    69  C69         0.2141
   1197  C5'       -9.1900   16.1580  -15.1470 C.3    69  C69         0.1812
   1198  O5'      -10.1150   17.1050  -14.6360 O.3    69  C69        -0.3114
   1199  C4'       -8.9240   15.0470  -14.1630 C.3    69  C69         0.1773
   1200  O4'       -8.4640   15.5960  -12.9020 O.3    69  C69        -0.3307
   1201  C3'      -10.1190   14.1930  -13.7760 C.3    69  C69         0.1860
   1202  O3'      -10.4210   13.2080  -14.7480 O.3    69  C69        -0.3112
   1203  C2'       -9.6890   13.6130  -12.4340 C.3    69  C69         0.2309
   1204  O2'       -8.8000   12.5200  -12.6200 O.3    69  C69        -0.2156
   1205  C1'       -8.8990   14.7780  -11.8350 C.3    69  C69         0.2420
   1206  N1        -9.7090   15.5940  -10.9000 N.ar   69  C69        -0.2535
   1207  C2        -9.8910   15.1260   -9.5940 C.ar   69  C69         0.3532
   1208  O2        -9.3770   14.0480   -9.2620 O.2    69  C69        -0.2443
   1209  N3       -10.6220   15.8580   -8.7230 N.ar   69  C69        -0.1739
   1210  C4       -11.1600   17.0140   -9.1110 C.ar   69  C69         0.1759
   1211  N4       -11.8730   17.6980   -8.2130 N.pl3  69  C69        -0.1070
   1212  C5       -10.9910   17.5180  -10.4330 C.ar   69  C69         0.0566
   1213  C6       -10.2630   16.7840  -11.2860 C.ar   69  C69         0.0850
   1214  OP1      -10.4940   18.3210  -16.7760 O.2    69  C69        -0.5172
   1215  OP2      -11.2640   19.3150  -14.5350 O.co2  69  C69        -0.4373
   1216  P        -11.9180   12.6450  -14.8980 P.3    70  U70         0.2141
   1217  C5'      -11.2230   10.5500  -13.4840 C.3    70  U70         0.1812
   1218  O5'      -12.0840   11.6660  -13.6530 O.3    70  U70        -0.3114
   1219  C4'      -11.4290    9.9000  -12.1400 C.3    70  U70         0.1773
   1220  O4'      -11.0260   10.8090  -11.0840 O.3    70  U70        -0.3307
   1221  C3'      -12.8650    9.5430  -11.7940 C.3    70  U70         0.1860
   1222  O3'      -13.2760    8.3200  -12.3790 O.3    70  U70        -0.3112
   1223  C2'      -12.8490    9.5150  -10.2710 C.3    70  U70         0.2309
   1224  O2'      -12.3150    8.2870   -9.7970 O.3    70  U70        -0.2156
   1225  C1'      -11.8530   10.6330   -9.9530 C.3    70  U70         0.2420
   1226  N1       -12.5160   11.9230   -9.6430 N.ar   70  U70        -0.2534
   1227  C2       -13.0870   12.0910   -8.3930 C.ar   70  U70         0.3546
   1228  O2       -13.0860   11.2240   -7.5360 O.2    70  U70        -0.2443
   1229  N3       -13.6680   13.3170   -8.1810 N.ar   70  U70        -0.1530
   1230  C4       -13.7320   14.3730   -9.0680 C.ar   70  U70         0.2846
   1231  O4       -14.2910   15.4180   -8.7320 O.2    70  U70        -0.2650
   1232  C5       -13.1160   14.1230  -10.3340 C.ar   70  U70         0.0814
   1233  C6       -12.5430   12.9390  -10.5680 C.ar   70  U70         0.0870
   1234  OP1      -11.9780   11.8260  -16.1360 O.2    70  U70        -0.5172
   1235  OP2      -12.8610   13.7790  -14.7260 O.co2  70  U70        -0.4373
   1236  P        -14.7880    8.1310  -12.8860 P.3    71  U71         0.2141
   1237  C5'      -15.2900    6.8540  -10.6550 C.3    71  U71         0.1812
   1238  O5'      -15.6140    7.9130  -11.5430 O.3    71  U71        -0.3114
   1239  C4'      -15.9550    7.0370   -9.3150 C.3    71  U71         0.1773
   1240  O4'      -15.3850    8.1830   -8.6320 O.3    71  U71        -0.3307
   1241  C3'      -17.4430    7.3360   -9.3520 C.3    71  U71         0.1860
   1242  O3'      -18.2330    6.1760   -9.5390 O.3    71  U71        -0.3112
   1243  C2'      -17.6760    8.0330   -8.0180 C.3    71  U71         0.2309
   1244  O2'      -17.7490    7.0860   -6.9630 O.3    71  U71        -0.2156
   1245  C1'      -16.3790    8.8290   -7.8630 C.3    71  U71         0.2420
   1246  N1       -16.5140   10.2270   -8.3370 N.ar   71  U71        -0.2534
   1247  C2       -17.0380   11.1550   -7.4580 C.ar   71  U71         0.3546
   1248  O2       -17.3930   10.8670   -6.3280 O.2    71  U71        -0.2443
   1249  N3       -17.1330   12.4340   -7.9510 N.ar   71  U71        -0.1530
   1250  C4       -16.7630   12.8710   -9.2070 C.ar   71  U71         0.2846
   1251  O4       -16.9090   14.0570   -9.5070 O.2    71  U71        -0.2650
   1252  C5       -16.2280   11.8520  -10.0560 C.ar   71  U71         0.0814
   1253  C6       -16.1240   10.5980   -9.6030 C.ar   71  U71         0.0870
   1254  OP1      -14.8500    6.8730  -13.6740 O.2    71  U71        -0.5172
   1255  OP2      -15.2340    9.4070  -13.5020 O.co2  71  U71        -0.4373
   1256  P        -19.6490    6.2800  -10.2870 P.3    72  G72         0.2141
   1257  C5'      -20.7960    6.2610   -7.9340 C.3    72  G72         0.1812
   1258  O5'      -20.6110    6.9060   -9.1850 O.3    72  G72        -0.3114
   1259  C4'      -21.5440    7.1440   -6.9700 C.3    72  G72         0.1773
   1260  O4'      -20.7220    8.2790   -6.5970 O.3    72  G72        -0.3307
   1261  C3'      -22.8190    7.7720   -7.5050 C.3    72  G72         0.1860
   1262  O3'      -23.9190    6.8780   -7.4700 O.3    72  G72        -0.3112
   1263  C2'      -22.9890    8.9970   -6.6140 C.3    72  G72         0.2309
   1264  O2'      -23.5530    8.6340   -5.3630 O.3    72  G72        -0.2156
   1265  C1'      -21.5340    9.4150   -6.3880 C.3    72  G72         0.2408
   1266  N1       -21.2780   14.4320   -7.2450 N.ar   72  G72        -0.1709
   1267  C2       -21.7990   13.7570   -6.1690 C.ar   72  G72         0.2606
   1268  N2       -22.3190   14.5140   -5.1930 N.pl3  72  G72        -0.0859
   1269  N3       -21.8060   12.4380   -6.0600 N.ar   72  G72        -0.1918
   1270  C4       -21.2420   11.8360   -7.1290 C.ar   72  G72         0.1723
   1271  C5       -20.6960   12.4200   -8.2530 C.ar   72  G72         0.1748
   1272  C6       -20.6940   13.8370   -8.3580 C.ar   72  G72         0.3023
   1273  O6       -20.2560   14.5450   -9.2730 O.2    72  G72        -0.2633
   1274  N7       -20.2200   11.4520   -9.1270 N.ar   72  G72        -0.2173
   1275  C8       -20.4820   10.3200   -8.5300 C.ar   72  G72         0.1817
   1276  N9       -21.1030   10.4800   -7.3150 N.ar   72  G72        -0.2693
   1277  OP1      -20.1130    4.9000  -10.5790 O.3    72  G72        -0.4373
   1278  OP2      -19.5200    7.2640  -11.3920 O.co2  72  G72        -0.5172
   1279  P        -25.1440    7.0540   -8.4950 P.3    73  A73         0.2141
   1280  C5'      -27.1750    8.6940   -8.2270 C.3    73  A73         0.1812
   1281  O5'      -25.7900    8.4420   -8.0640 O.3    73  A73        -0.3114
   1282  C4'      -27.5760    9.9600   -7.5160 C.3    73  A73         0.1773
   1283  O4'      -26.6150   11.0050   -7.8140 O.3    73  A73        -0.3307
   1284  C3'      -28.9150   10.5580   -7.9190 C.3    73  A73         0.1860
   1285  O3'      -30.0110    9.9450   -7.2640 O.3    73  A73        -0.3112
   1286  C2'      -28.7390   12.0290   -7.5710 C.3    73  A73         0.2309
   1287  O2'      -28.8950   12.2380   -6.1750 O.3    73  A73        -0.2156
   1288  C1'      -27.2710   12.2480   -7.9280 C.3    73  A73         0.2408
   1289  N1       -27.7410   16.2310  -11.1660 N.ar   73  A73        -0.2040
   1290  C2       -28.0070   16.0990   -9.8600 C.ar   73  A73         0.2016
   1291  N3       -27.8640   15.0330   -9.0770 N.ar   73  A73        -0.2048
   1292  C4       -27.3790   13.9920   -9.7760 C.ar   73  A73         0.1692
   1293  C5       -27.0570   13.9720  -11.1220 C.ar   73  A73         0.1518
   1294  C6       -27.2550   15.1640  -11.8390 C.ar   73  A73         0.1919
   1295  N6       -26.9900   15.2970  -13.1400 N.pl3  73  A73        -0.1054
   1296  N7       -26.5840   12.7220  -11.4980 N.ar   73  A73        -0.2193
   1297  C8       -26.6300   12.0250  -10.3900 C.ar   73  A73         0.1816
   1298  N9       -27.1020   12.7310   -9.3110 N.ar   73  A73        -0.2693
   1299  OP1      -26.1360    5.9830   -8.2260 O.3    73  A73        -0.4373
   1300  OP2      -24.5830    7.2030   -9.8620 O.co2  73  A73        -0.5172
   1301  P        -31.3930    9.7100   -8.0480 P.3    74  U74         0.2141
   1302  C5'      -32.2940   11.9340   -6.9920 C.3    74  U74         0.1812
   1303  O5'      -32.0260   11.1670   -8.1570 O.3    74  U74        -0.3114
   1304  C4'      -32.4850   13.3910   -7.3260 C.3    74  U74         0.1773
   1305  O4'      -31.2710   13.9210   -7.9200 O.3    74  U74        -0.3307
   1306  C3'      -33.5630   13.6990   -8.3520 C.3    74  U74         0.1860
   1307  O3'      -34.8640   13.7230   -7.7910 O.3    74  U74        -0.3112
   1308  C2'      -33.1140   15.0400   -8.9170 C.3    74  U74         0.2309
   1309  O2'      -33.4590   16.0990   -8.0370 O.3    74  U74        -0.2156
   1310  C1'      -31.5930   14.8790   -8.9050 C.3    74  U74         0.2420
   1311  N1       -31.0620   14.4140  -10.2080 N.ar   74  U74        -0.2534
   1312  C2       -30.9530   15.3350  -11.2330 C.ar   74  U74         0.3546
   1313  O2       -31.2780   16.5040  -11.1120 O.2    74  U74        -0.2443
   1314  N3       -30.4470   14.8380  -12.4100 N.ar   74  U74        -0.1530
   1315  C4       -30.0460   13.5410  -12.6610 C.ar   74  U74         0.2846
   1316  O4       -29.6110   13.2450  -13.7750 O.2    74  U74        -0.2650
   1317  C5       -30.1890   12.6500  -11.5520 C.ar   74  U74         0.0814
   1318  C6       -30.6770   13.1060  -10.3940 C.ar   74  U74         0.0870
   1319  OP1      -32.2710    8.8830   -7.1820 O.3    74  U74        -0.4373
   1320  OP2      -31.0700    9.2460   -9.4210 O.co2  74  U74        -0.5172
   1321  P        -36.1100   13.1330   -8.6160 P.3    75  U75         0.2141
   1322  C5'      -36.6470   15.5650   -9.4260 C.3    75  U75         0.1812
   1323  O5'      -36.3560   14.2150   -9.7560 O.3    75  U75        -0.3114
   1324  C4'      -36.5590   16.4550  -10.6380 C.3    75  U75         0.1773
   1325  O4'      -35.1840   16.5260  -11.0980 O.3    75  U75        -0.3307
   1326  C3'      -37.3300   15.9820  -11.8580 C.3    75  U75         0.1860
   1327  O3'      -38.7110   16.2890  -11.7920 O.3    75  U75        -0.3112
   1328  C2'      -36.5990   16.6710  -13.0010 C.3    75  U75         0.2309
   1329  O2'      -36.9910   18.0330  -13.0990 O.3    75  U75        -0.2156
   1330  C1'      -35.1520   16.6170  -12.5080 C.3    75  U75         0.2420
   1331  N1       -34.4230   15.4440  -13.0440 N.ar   75  U75        -0.2534
   1332  C2       -33.8990   15.5420  -14.3190 C.ar   75  U75         0.3546
   1333  O2       -34.0130   16.5430  -15.0050 O.2    75  U75        -0.2443
   1334  N3       -33.2340   14.4270  -14.7660 N.ar   75  U75        -0.1530
   1335  C4       -33.0420   13.2430  -14.0830 C.ar   75  U75         0.2846
   1336  O4       -32.4190   12.3260  -14.6220 O.2    75  U75        -0.2650
   1337  C5       -33.6130   13.2180  -12.7720 C.ar   75  U75         0.0814
   1338  C6       -34.2660   14.2900  -12.3100 C.ar   75  U75         0.0870
   1339  OP1      -37.2930   13.1340   -7.7190 O.3    75  U75        -0.4373
   1340  OP2      -35.6840   11.8690   -9.2700 O.co2  75  U75        -0.5172
   1341  P        -39.7870   15.2820  -12.4270 P.3    76  A76         0.2141
   1342  C5'      -39.9080   16.9020  -14.4810 C.3    76  A76         0.1812
   1343  O5'      -39.7100   15.5860  -13.9880 O.3    76  A76        -0.3114
   1344  C4'      -39.5980   16.9870  -15.9530 C.3    76  A76         0.1773
   1345  O4'      -38.1630   16.9470  -16.1630 O.3    76  A76        -0.3307
   1346  C3'      -40.1220   15.8430  -16.8020 C.3    76  A76         0.1860
   1347  O3'      -41.4970   15.9740  -17.1160 O.3    76  A76        -0.3112
   1348  C2'      -39.2030   15.8850  -18.0150 C.3    76  A76         0.2309
   1349  O2'      -39.5900   16.9260  -18.9000 O.3    76  A76        -0.2156
   1350  C1'      -37.8720   16.2690  -17.3680 C.3    76  A76         0.2408
   1351  N1       -34.4860   12.8110  -19.1600 N.ar   76  A76        -0.2040
   1352  C2       -35.1040   13.8500  -19.7370 C.ar   76  A76         0.2016
   1353  N3       -35.9740   14.7100  -19.2120 N.ar   76  A76        -0.2048
   1354  C4       -36.2090   14.4220  -17.9200 C.ar   76  A76         0.1692
   1355  C5       -35.6510   13.3890  -17.1880 C.ar   76  A76         0.1518
   1356  C6       -34.7440   12.5490  -17.8600 C.ar   76  A76         0.1919
   1357  N6       -34.1280   11.5120  -17.2850 N.pl3  76  A76        -0.1054
   1358  N7       -36.1290   13.4000  -15.8830 N.ar   76  A76        -0.2193
   1359  C8       -36.9500   14.4230  -15.8570 C.ar   76  A76         0.1816
   1360  N9       -37.0460   15.0870  -17.0550 N.ar   76  A76        -0.2693
   1361  OP1      -41.1380   15.6760  -11.9460 O.3    76  A76        -0.4373
   1362  OP2      -39.3010   13.8960  -12.2070 O.co2  76  A76        -0.5172
   1363  P        -42.4300   14.6690  -17.1840 P.3    77  U77         0.2141
   1364  C5'      -42.1330   14.7460  -19.7830 C.3    77  U77         0.1812
   1365  O5'      -42.0460   14.0020  -18.5770 O.3    77  U77        -0.3114
   1366  C4'      -41.4380   14.0440  -20.9210 C.3    77  U77         0.1773
   1367  O4'      -40.0000   14.0630  -20.7190 O.3    77  U77        -0.3307
   1368  C3'      -41.7580   12.5700  -21.0900 C.3    77  U77         0.1860
   1369  O3'      -43.0020   12.3340  -21.7230 O.3    77  U77        -0.3112
   1370  C2'      -40.5570   12.0640  -21.8760 C.3    77  U77         0.2309
   1371  O2'      -40.6670   12.4210  -23.2460 O.3    77  U77        -0.2156
   1372  C1'      -39.4270   12.8850  -21.2530 C.3    77  U77         0.2420
   1373  N1       -38.7450   12.1440  -20.1660 N.ar   77  U77        -0.2534
   1374  C2       -37.7550   11.2530  -20.5360 C.ar   77  U77         0.3546
   1375  O2       -37.4300   11.0720  -21.6960 O.2    77  U77        -0.2443
   1376  N3       -37.1560   10.5860  -19.4960 N.ar   77  U77        -0.1530
   1377  C4       -37.4440   10.7130  -18.1520 C.ar   77  U77         0.2846
   1378  O4       -36.8160   10.0420  -17.3310 O.2    77  U77        -0.2650
   1379  C5       -38.4830   11.6500  -17.8520 C.ar   77  U77         0.0814
   1380  C6       -39.0830   12.3160  -18.8440 C.ar   77  U77         0.0870
   1381  OP1      -43.8440   15.1180  -17.2570 O.2    77  U77        -0.5172
   1382  OP2      -42.0070   13.7460  -16.0990 O.co2  77  U77        -0.4373
   1383  P        -43.8800   11.0560  -21.3010 P.3    78  C78         0.2141
   1384  C5'      -43.0090    9.8490  -23.4500 C.3    78  C78         0.1812
   1385  O5'      -43.1590    9.8430  -22.0390 O.3    78  C78        -0.3114
   1386  C4'      -42.0130    8.8170  -23.9200 C.3    78  C78         0.1773
   1387  O4'      -40.6880    9.1200  -23.4130 O.3    78  C78        -0.3307
   1388  C3'      -42.2490    7.3880  -23.4660 C.3    78  C78         0.1860
   1389  O3'      -43.2780    6.7350  -24.1860 O.3    78  C78        -0.3112
   1390  C2'      -40.8740    6.7610  -23.6550 C.3    78  C78         0.2309
   1391  O2'      -40.6440    6.4610  -25.0240 O.3    78  C78        -0.2156
   1392  C1'      -39.9570    7.9190  -23.2540 C.3    78  C78         0.2420
   1393  N1       -39.4930    7.8010  -21.8510 N.ar   78  C78        -0.2535
   1394  C2       -38.3730    7.0000  -21.6040 C.ar   78  C78         0.3532
   1395  O2       -37.8180    6.4370  -22.5600 O.2    78  C78        -0.2443
   1396  N3       -37.9160    6.8590  -20.3390 N.ar   78  C78        -0.1739
   1397  C4       -38.5370    7.4790  -19.3350 C.ar   78  C78         0.1759
   1398  N4       -38.0510    7.3110  -18.1020 N.pl3  78  C78        -0.1070
   1399  C5       -39.6830    8.2990  -19.5550 C.ar   78  C78         0.0566
   1400  C6       -40.1240    8.4310  -20.8140 C.ar   78  C78         0.0850
   1401  OP1      -45.2370   11.2140  -21.8830 O.2    78  C78        -0.5172
   1402  OP2      -43.7260   10.8590  -19.8370 O.co2  78  C78        -0.4373
   1403  P        -44.1290    5.5690  -23.4800 P.3    79  U79         0.2141
   1404  C5'      -42.8410    3.8170  -24.9410 C.3    79  U79         0.1812
   1405  O5'      -43.2180    4.2740  -23.6510 O.3    79  U79        -0.3114
   1406  C4'      -41.6870    2.8480  -24.8740 C.3    79  U79         0.1773
   1407  O4'      -40.5210    3.5050  -24.3130 O.3    79  U79        -0.3307
   1408  C3'      -41.8840    1.6330  -23.9830 C.3    79  U79         0.1860
   1409  O3'      -42.6550    0.6120  -24.5910 O.3    79  U79        -0.3112
   1410  C2'      -40.4520    1.2170  -23.6730 C.3    79  U79         0.2309
   1411  O2'      -39.8860    0.5170  -24.7710 O.3    79  U79        -0.2156
   1412  C1'      -39.7630    2.5780  -23.5620 C.3    79  U79         0.2420
   1413  N1       -39.6840    3.0470  -22.1590 N.ar   79  U79        -0.2534
   1414  C2       -38.6580    2.5500  -21.3770 C.ar   79  U79         0.3546
   1415  O2       -37.8320    1.7580  -21.7960 O.2    79  U79        -0.2443
   1416  N3       -38.6320    3.0170  -20.0860 N.ar   79  U79        -0.1530
   1417  C4       -39.5100    3.9100  -19.5060 C.ar   79  U79         0.2846
   1418  O4       -39.3570    4.2350  -18.3270 O.2    79  U79        -0.2650
   1419  C5       -40.5440    4.3770  -20.3770 C.ar   79  U79         0.0814
   1420  C6       -40.5930    3.9390  -21.6400 C.ar   79  U79         0.0870
   1421  OP1      -45.3750    5.3700  -24.2620 O.2    79  U79        -0.5172
   1422  OP2      -44.2120    5.8800  -22.0300 O.co2  79  U79        -0.4373
   1423  P        -43.5910   -0.3320  -23.6900 P.3    80  U80         0.2141
   1424  C5'      -41.7260   -2.1730  -23.6310 C.3    80  U80         0.1812
   1425  O5'      -42.5610   -1.2720  -22.9190 O.3    80  U80        -0.3114
   1426  C4'      -40.6640   -2.7680  -22.7420 C.3    80  U80         0.1773
   1427  O4'      -39.7930   -1.7210  -22.2400 O.3    80  U80        -0.3307
   1428  C3'      -41.1570   -3.4660  -21.4850 C.3    80  U80         0.1860
   1429  O3'      -41.6310   -4.7800  -21.7270 O.3    80  U80        -0.3112
   1430  C2'      -39.9360   -3.4130  -20.5780 C.3    80  U80         0.2309
   1431  O2'      -38.9940   -4.4090  -20.9470 O.3    80  U80        -0.2156
   1432  C1'      -39.3560   -2.0440  -20.9350 C.3    80  U80         0.2420
   1433  N1       -39.8120   -0.9860  -20.0040 N.ar   80  U80        -0.2534
   1434  C2       -39.1890   -0.8990  -18.7730 C.ar   80  U80         0.3546
   1435  O2       -38.2930   -1.6500  -18.4290 O.2    80  U80        -0.2443
   1436  N3       -39.6560    0.1010  -17.9550 N.ar   80  U80        -0.1530
   1437  C4       -40.6600    1.0050  -18.2370 C.ar   80  U80         0.2846
   1438  O4       -40.9690    1.8510  -17.3970 O.2    80  U80        -0.2650
   1439  C5       -41.2530    0.8510  -19.5300 C.ar   80  U80         0.0814
   1440  C6       -40.8190   -0.1140  -20.3470 C.ar   80  U80         0.0870
   1441  OP1      -44.3970   -1.1850  -24.6000 O.2    80  U80        -0.5172
   1442  OP2      -44.2740    0.5240  -22.6860 O.co2  80  U80        -0.4373
   1443  P        -42.8010   -5.3950  -20.8130 P.3    81  C81         0.2141
   1444  C5'      -41.0090   -6.7730  -19.4880 C.3    81  C81         0.1812
   1445  O5'      -42.0570   -5.8160  -19.4690 O.3    81  C81        -0.3114
   1446  C4'      -40.3170   -6.8600  -18.1510 C.3    81  C81         0.1773
   1447  O4'      -39.6140   -5.6200  -17.8770 O.3    81  C81        -0.3307
   1448  C3'      -41.2240   -7.0410  -16.9450 C.3    81  C81         0.1860
   1449  O3'      -41.6470   -8.3800  -16.7620 O.3    81  C81        -0.3112
   1450  C2'      -40.3690   -6.5040  -15.8060 C.3    81  C81         0.2309
   1451  O2'      -39.3950   -7.4610  -15.4160 O.3    81  C81        -0.2156
   1452  C1'      -39.6540   -5.3400  -16.4930 C.3    81  C81         0.2420
   1453  N1       -40.3600   -4.0520  -16.2890 N.ar   81  C81        -0.2535
   1454  C2       -40.1920   -3.3710  -15.0800 C.ar   81  C81         0.3532
   1455  O2       -39.4590   -3.8610  -14.2080 O.2    81  C81        -0.2443
   1456  N3       -40.8330   -2.1940  -14.8880 N.ar   81  C81        -0.1739
   1457  C4       -41.6140   -1.6920  -15.8460 C.ar   81  C81         0.1759
   1458  N4       -42.2240   -0.5280  -15.6100 N.pl3  81  C81        -0.1070
   1459  C5       -41.8030   -2.3630  -17.0880 C.ar   81  C81         0.0566
   1460  C6       -41.1630   -3.5260  -17.2640 C.ar   81  C81         0.0850
   1461  OP1      -43.2950   -6.6330  -21.4660 O.2    81  C81        -0.5172
   1462  OP2      -43.7530   -4.3030  -20.4860 O.co2  81  C81        -0.4373
   1463  P        -43.1080   -8.6870  -16.1700 P.3    82  C82         0.2141
   1464  C5'      -41.9490   -9.2530  -13.8860 C.3    82  C82         0.1812
   1465  O5'      -42.9290   -8.5100  -14.5970 O.3    82  C82        -0.3114
   1466  C4'      -41.7280   -8.6920  -12.5040 C.3    82  C82         0.1773
   1467  O4'      -41.1490   -7.3640  -12.5990 O.3    82  C82        -0.3307
   1468  C3'      -42.9770   -8.4870  -11.6620 C.3    82  C82         0.1860
   1469  O3'      -43.4400   -9.6760  -11.0500 O.3    82  C82        -0.3112
   1470  C2'      -42.5360   -7.4180  -10.6730 C.3    82  C82         0.2309
   1471  O2'      -41.7360   -7.9830   -9.6450 O.3    82  C82        -0.2156
   1472  C1'      -41.6420   -6.5470  -11.5560 C.3    82  C82         0.2420
   1473  N1       -42.3860   -5.4150  -12.1550 N.ar   82  C82        -0.2535
   1474  C2       -42.6530   -4.2860  -11.3740 C.ar   82  C82         0.3532
   1475  O2       -42.2620   -4.2570  -10.1970 O.2    82  C82        -0.2443
   1476  N3       -43.3320   -3.2510  -11.9210 N.ar   82  C82        -0.1739
   1477  C4       -43.7380   -3.3140  -13.1890 C.ar   82  C82         0.1759
   1478  N4       -44.4040   -2.2690  -13.6860 N.pl3  82  C82        -0.1070
   1479  C5       -43.4810   -4.4500  -14.0080 C.ar   82  C82         0.0566
   1480  C6       -42.8080   -5.4660  -13.4550 C.ar   82  C82         0.0850
   1481  OP1      -43.4300  -10.1100  -16.4450 O.3    82  C82        -0.4373
   1482  OP2      -44.0270   -7.6230  -16.6470 O.co2  82  C82        -0.5172
   1483  P        -45.0170   -9.9240  -10.8750 P.3    83  C83         0.2141
   1484  C5'      -44.7380   -9.4770   -8.3060 C.3    83  C83         0.1813
   1485  O5'      -45.3810   -9.1520   -9.5300 O.3    83  C83        -0.3114
   1486  C4'      -44.9140   -8.3820   -7.2850 C.3    83  C83         0.1801
   1487  O4'      -44.3090   -7.1560   -7.7740 O.3    83  C83        -0.3306
   1488  C3'      -46.3500   -7.9870   -6.9750 C.3    83  C83         0.2161
   1489  O3'      -46.9770   -8.8600   -6.0510 O.3    83  C83        -0.2175
   1490  C2'      -46.2000   -6.5610   -6.4640 C.3    83  C83         0.2338
   1491  O2'      -45.7580   -6.5550   -5.1150 O.3    83  C83        -0.2155
   1492  C1'      -45.0630   -6.0410   -7.3450 C.3    83  C83         0.2421
   1493  N1       -45.5620   -5.3180   -8.5390 N.ar   83  C83        -0.2535
   1494  C2       -45.9720   -3.9870   -8.4040 C.ar   83  C83         0.3532
   1495  O2       -45.9110   -3.4480   -7.2890 O.2    83  C83        -0.2443
   1496  N3       -46.4260   -3.3210   -9.4920 N.ar   83  C83        -0.1739
   1497  C4       -46.4770   -3.9300  -10.6770 C.ar   83  C83         0.1759
   1498  N4       -46.9330   -3.2350  -11.7220 N.pl3  83  C83        -0.1070
   1499  C5       -46.0660   -5.2840  -10.8440 C.ar   83  C83         0.0566
   1500  C6       -45.6190   -5.9300   -9.7600 C.ar   83  C83         0.0850
   1501  OP1      -45.2330  -11.3760  -10.6510 O.3    83  C83        -0.4373
   1502  OP2      -45.7110   -9.2400  -11.9970 O.co2  83  C83        -0.5172
@<TRIPOS>BOND
     1   771   770    2
     2   769   770   ar
     3   769   767   ar
     4   770   772   ar
     5   768   767    2
     6   767   766   ar
     7   772   773   ar
     8   766   773   ar
     9   766   765    1
    10   765   760    1
    11   765   763    1
    12   760   759    1
    13   763   764    1
    14   763   761    1
    15   759   757    1
    16   759   761    1
    17   758   757    1
    18   758   756    1
    19   199   179    2
    20   775   756    2
    21   754   736    2
    22   762   761    1
    23   762   776    1
    24   756   774    1
    25   756   742    1
    26   165   179    1
    27   165   164    1
    28   160   162    1
    29   160   161    1
    30   177   159    2
    31   162   164    1
    32   162   163    1
    33   179   200    1
    34   179   181    1
    35   167   166    1
    36   734   713    2
    37   795   776    2
    38   736   755    1
    39   736   738    1
    40   736   719    1
    41   145   144    1
    42   776   794    1
    43   776   778    1
    44   164   166    1
    45   180   181    1
    46   180   182    1
    47   143   159    1
    48   143   142    1
    49   161   159    1
    50   219   201    2
    51   163   168    1
    52   159   178    1
    53   742   741    1
    54   737   738    1
    55   737   739    1
    56   741   739    1
    57   741   743    1
    58  1391  1390    1
    59   166   168    1
    60   719   718    1
    61  1404  1406    1
    62  1404  1405    1
    63   220   201    1
    64  1406  1407    1
    65  1406  1408    1
    66   714   715    1
    67   714   716    1
    68  1411  1410    1
    69  1441  1423    2
    70  1409  1408    1
    71  1409  1423    1
    72   739   740    1
    73   168   169    1
    74   713   697    1
    75   713   715    1
    76   713   735    1
    77   201   185    1
    78   201   203    1
    79   144   142    1
    80   144   146    1
    81   182   184    1
    82   182   183    1
    83  1407  1412    1
    84   778   777    1
    85   142   140    1
    86  1421  1403    2
    87   140   138    1
    88   140   141    1
    89   697   696    1
    90  1389  1403    1
    91  1389  1388    1
    92   716   718    1
    93   716   717    1
    94   743   744    1
    95   743   745    1
    96   185   184    1
    97  1408  1410    1
    98  1386  1388    1
    99  1386  1384    1
   100  1386  1387    1
   101   718   720    1
   102   777   779    1
   103   699   698    1
   104  1423  1425    1
   105  1423  1442    1
   106  1410  1412    1
   107  1390  1388    1
   108  1390  1392    1
   109  1405  1403    1
   110   138   139    1
   111  1424  1425    1
   112  1424  1426    1
   113  1412  1413    1
   114  1403  1422    1
   115   146   141    1
   116   146   156    1
   117   184   186    1
   118  1384  1385    1
   119  1387  1392    1
   120   183   188    1
   121  1392  1393    1
   122  1371  1370    1
   123   740   745    1
   124   721   720    1
   125   792   793   ar
   126   792   790   ar
   127   169   176   ar
   128   169   170   ar
   129   203   202    1
   130   696   698    1
   131   696   694    1
   132   202   204    1
   133   745   746    1
   134   717   722    1
   135  1426  1427    1
   136  1426  1428    1
   137   793   786   ar
   138   176   175   ar
   139   698   700    1
   140   720   722    1
   141   694   692    1
   142   694   695    1
   143  1395  1394    2
   144   791   790    2
   145   149   148   ar
   146   149   150   ar
   147   171   170    2
   148   139   137    1
   149   122   121    1
   150   779   780    1
   151   779   781    1
   152   790   789   ar
   153   187   186    1
   154  1427  1432    1
   155   692   693    1
   156   780   785    1
   157  1413  1420   ar
   158  1413  1414   ar
   159   186   188    1
   160   170   172   ar
   161   156   150   ar
   162   156   155   ar
   163   188   198    1
   164   157   137    2
   165  1385  1383    1
   166   753   746   ar
   167   753   752   ar
   168  1401  1383    2
   169  1370  1372    1
   170  1370  1368    1
   171   722   733    1
   172  1393  1394   ar
   173  1393  1400   ar
   174   148   147   ar
   175   241   221    2
   176  1415  1414    2
   177   150   151   ar
   178  1429  1428    1
   179  1429  1443    1
   180  1369  1383    1
   181  1369  1368    1
   182   746   747   ar
   183  1375  1374    2
   184  1420  1419   ar
   185   786   785    1
   186   786   787   ar
   187  1394  1396   ar
   188   126   125    1
   189   695   700    1
   190  1428  1430    1
   191   781   783    1
   192   781   782    1
   193   700   710    1
   194  1461  1443    2
   195   238   239   ar
   196   238   235   ar
   197   175   173   ar
   198   137   120    1
   199   137   158    1
   200   711   691    2
   201  1414  1416   ar
   202   204   206    1
   203   204   205    1
   204   239   240   ar
   205   783   785    1
   206   783   784    1
   207   120   119    1
   208  1383  1402    1
   209   197   198   ar
   210   197   196   ar
   211   789   787   ar
   212  1372  1367    1
   213  1372  1373    1
   214   121   119    1
   215   121   123    1
   216   198   192   ar
   217  1368  1366    1
   218   693   691    1
   219   155   154   ar
   220  1431  1430    1
   221  1432  1430    1
   222  1432  1433    1
   223   752   750   ar
   224  1366  1367    1
   225  1366  1364    1
   226   787   788    2
   227   732   733   ar
   228   732   731   ar
   229   206   208    1
   230   206   207    1
   231  1400  1399   ar
   232  1443  1462    1
   233  1443  1445    1
   234   172   173   ar
   235   733   727   ar
   236   218   217   ar
   237   218   211   ar
   238   293   292    1
   239   127   125   ar
   240   127   128   ar
   241   205   210    1
   242  1374  1373   ar
   243  1374  1376   ar
   244   217   215   ar
   245   125   124   ar
   246   147   152   ar
   247   747   748    2
   248   747   749   ar
   249   119   117    1
   250  1419  1417   ar
   251   313   312    1
   252   151   154   ar
   253   151   152   ar
   254   691   674    1
   255   691   712    1
   256   173   174    2
   257  1440  1433   ar
   258  1440  1439   ar
   259   221   223    1
   260   221   207    1
   261   221   242    1
   262  1396  1397   ar
   263   814   796    2
   264   237   236    1
   265   676   675    1
   266   782   796    1
   267   240   230    1
   268   240   234   ar
   269   235   236   ar
   270   235   234   ar
   271   703   704   ar
   272   703   702   ar
   273   710   704   ar
   274   710   709   ar
   275   208   210    1
   276   208   209    1
   277   196   193   ar
   278  1373  1380   ar
   279   225   230    1
   280   225   224    1
   281   123   118    1
   282   123   134    1
   283   223   222    1
   284  1416  1417   ar
   285  1433  1434   ar
   286   308   306    1
   287   308   309    1
   288   308   310    1
   289   230   228    1
   290   674   673    1
   291   117   118    1
   292   117   115    1
   293   192   193   ar
   294   192   191   ar
   295  1364  1365    1
   296   306   307    1
   297  1352  1353   ar
   298  1352  1351   ar
   299   152   153    1
   300   731   728   ar
   301   309   314    1
   302   704   705   ar
   303   236   231   ar
   304   210   211    1
   305   750   749   ar
   306   750   751    2
   307   311   310    1
   308   311   325    1
   309  1399  1397   ar
   310   796   815    1
   311   796   798    1
   312  1439  1437   ar
   313  1417  1418    2
   314   727   726   ar
   315   727   728   ar
   316  1376  1377   ar
   317  1444  1445    1
   318  1444  1446    1
   319   211   212   ar
   320   234   233   ar
   321   128   134   ar
   322   128   129   ar
   323   702   701   ar
   324   124   130   ar
   325  1397  1398    1
   326   343   325    2
   327   709   708   ar
   328   193   194   ar
   329   191   190   ar
   330   215   216    2
   331   215   214   ar
   332  1353  1354   ar
   333   292   294    1
   334   292   290    1
   335   134   133   ar
   336  1351  1356   ar
   337   312   314    1
   338   312   310    1
   339   314   315    1
   340   675   673    1
   341   675   677    1
   342   294   289    1
   343   294   295    1
   344   726   724   ar
   345   224   222    1
   346   224   226    1
   347   288   289    1
   348   288   290    1
   349   288   286    1
   350   291   290    1
   351   291   305    1
   352   326   328    1
   353   326   327    1
   354  1349  1348    1
   355   728   729   ar
   356   680   679    1
   357  1380  1379   ar
   358   297   296    2
   359   673   671    1
   360  1434  1435    2
   361  1434  1436   ar
   362   115   116    1
   363   277   276    2
   364  1365  1363    1
   365   229   228    1
   366   325   327    1
   367   325   344    1
   368   228   226    1
   369   273   272    1
   370   323   305    2
   371   705   708   ar
   372   705   706   ar
   373   307   305    1
   374   231   232   ar
   375   103   102   ar
   376   103   104   ar
   377   328   329    1
   378   328   330    1
   379  1437  1436   ar
   380  1437  1438    2
   381   129   130   ar
   382   129   132   ar
   383   701   706   ar
   384   212   214   ar
   385   212   213    2
   386   233   232   ar
   387  1377  1379   ar
   388  1377  1378    2
   389  1446  1447    1
   390  1446  1448    1
   391   130   131    2
   392   102   107   ar
   393   671   672    1
   394   671   669    1
   395   798   797    1
   396   286   287    1
   397   681   679   ar
   398   681   682   ar
   399   305   324    1
   400  1348  1350    1
   401  1348  1346    1
   402   190   189   ar
   403   797   799    1
   404   194   189   ar
   405   194   195    1
   406  1354  1355   ar
   407  1354  1360   ar
   408   679   678   ar
   409  1447  1452    1
   410   133   132   ar
   411   677   672    1
   412   677   688    1
   413   317   316    2
   414  1356  1357    1
   415  1356  1355   ar
   416   226   227    1
   417   329   334    1
   418   296   295   ar
   419   296   298   ar
   420   315   316   ar
   421   315   322   ar
   422   295   302   ar
   423   724   725    1
   424   724   723   ar
   425   116   114    1
   426   706   707    1
   427   104   105   ar
   428   729   723   ar
   429   729   730    2
   430   812   813   ar
   431   812   810   ar
   432   276   278   ar
   433   276   275   ar
   434   272   274    1
   435   272   270    1
   436  1350  1360    1
   437  1350  1345    1
   438  1460  1459   ar
   439  1460  1453   ar
   440   813   806   ar
   441  1381  1363    2
   442   669   670    1
   443   316   318   ar
   444   274   275    1
   445   274   269    1
   446   331   330    1
   447   331   345    1
   448  1355  1358   ar
   449  1363  1347    1
   450  1363  1382    1
   451  1347  1346    1
   452   322   321   ar
   453  1459  1457   ar
   454  1360  1359   ar
   455   800   799    1
   456   800   805    1
   457   831   830    2
   458   365   345    2
   459   682   688   ar
   460   682   683   ar
   461   330   332    1
   462  1448  1449    1
   463  1448  1450    1
   464   107   108    1
   465   107   106   ar
   466   688   687   ar
   467  1346  1344    1
   468   278   279   ar
   469  1214  1196    2
   470   799   801    1
   471  1449  1463    1
   472   333   332    1
   473   678   684   ar
   474   227   243    1
   475   811   810    1
   476   287   285    1
   477   298   299   ar
   478   302   301   ar
   479  1482  1463    2
   480   100    99    1
   481   334   332    1
   482   334   335    1
   483   275   282   ar
   484   657   656    1
   485   810   809   ar
   486  1452  1453    1
   487  1452  1450    1
   488   852   851    1
   489  1481  1463    1
   490   105   106   ar
   491   105   111   ar
   492   269   268    1
   493   135   114    2
   494  1453  1454   ar
   495   345   366    1
   496   345   347    1
   497   114    98    1
   498   114   136    1
   499    99    97    1
   500    99   101    1
   501  1463  1465    1
   502  1345  1344    1
   503   271   270    1
   504   271   285    1
   505   670   668    1
   506  1234  1216    2
   507   806   805    1
   508   806   807   ar
   509   270   268    1
   510   830   832   ar
   511   830   829   ar
   512   318   319   ar
   513   106   109   ar
   514  1344  1342    1
   515  1358  1359   ar
   516   321   319   ar
   517   805   803    1
   518   268   266    1
   519  1457  1458    1
   520  1457  1456   ar
   521   264   243    2
   522  1450  1451    1
   523   683   684   ar
   524   683   686   ar
   525   846   851   ar
   526   846   847   ar
   527   832   833   ar
   528   342   335   ar
   529   342   341   ar
   530    98    97    1
   531   303   285    2
   532   285   304    1
   533   684   685    2
   534   687   686   ar
   535   335   336   ar
   536   299   301   ar
   537   299   300    1
   538   835   816    2
   539   801   802    1
   540   801   803    1
   541   851   850   ar
   542   279   280    2
   543   279   281   ar
   544   346   347    1
   545   346   348    1
   546   809   807   ar
   547   243   263    1
   548   243   245    1
   549   653   652    1
   550    80    81   ar
   551    80    85   ar
   552   656   658   ar
   553   656   655   ar
   554   689   668    2
   555   319   320    1
   556  1196  1182    1
   557  1196  1198    1
   558  1196  1215    1
   559   111   101    1
   560   111   110   ar
   561   282   281   ar
   562    97    95    1
   563   101    96    1
   564   807   808    2
   565  1197  1198    1
   566  1197  1199    1
   567  1182  1181    1
   568  1454  1456   ar
   569  1454  1455    2
   570  1333  1332    2
   571   829   827   ar
   572   244   245    1
   573   244   246    1
   574    81    82   ar
   575   658   659   ar
   576  1216  1202    1
   577  1216  1235    1
   578  1216  1218    1
   579    86    85    1
   580   668   651    1
   581   668   690    1
   582   341   339   ar
   583   847   848   ar
   584   802   816    1
   585  1334  1332   ar
   586  1334  1335   ar
   587  1202  1201    1
   588   803   804    1
   589   109   110   ar
   590  1336  1335    2
   591   655   661   ar
   592   833   826   ar
   593  1465  1464    1
   594  1194  1176    2
   595   652   650    1
   596   652   654    1
   597  1342  1343    1
   598   336   337    2
   599   336   338   ar
   600    85    84   ar
   601   266   267    1
   602    23     1    1
   603   651   650    1
   604   816   834    1
   605   816   818    1
   606   348   349    1
   607   348   350    1
   608  1332  1331   ar
   609   870   869    2
   610   850   853   ar
   611   850   849   ar
   612   871   869   ar
   613   871   872   ar
   614  1177  1179    1
   615  1177  1178    1
   616  1199  1201    1
   617  1199  1200    1
   618   873   872    1
   619   349   354    1
   620  1335  1337   ar
   621  1479  1480   ar
   622  1479  1477   ar
   623  1343  1341    1
   624    95    96    1
   625    95    93    1
   626  1179  1181    1
   627  1179  1180    1
   628  1464  1466    1
   629  1181  1183    1
   630  1184  1183    1
   631   827   826   ar
   632   827   828    2
   633   246   247    1
   634   246   248    1
   635  1201  1203    1
   636  1316  1315    2
   637    82    83   ar
   638  1478  1477    1
   639   659   665   ar
   640   659   660   ar
   641  1254  1236    2
   642   339   338   ar
   643   339   340    2
   644   650   648    1
   645  1218  1217    1
   646   853   854   ar
   647   826   825    1
   648   869   868   ar
   649     1    22    1
   650     1     3    1
   651   848   849   ar
   652   267   265    1
   653  1255  1236    1
   654   872   874   ar
   655  1217  1219    1
   656  1480  1473   ar
   657   247   252    1
   658   654   665    1
   659   654   649    1
   660   661   660   ar
   661   661   662    2
   662   849   855   ar
   663   818   817    1
   664    64    63    2
   665  1178  1176    1
   666  1176  1162    1
   667  1176  1195    1
   668  1477  1476   ar
   669    84    83   ar
   670    84    87   ar
   671  1295  1294    1
   672  1329  1328    1
   673  1183  1185    1
   674  1331  1330    1
   675  1331  1338   ar
   676  1328  1330    1
   677  1328  1326    1
   678   665   664   ar
   679   350   351    1
   680   350   352    1
   681   634   633    1
   682  1154  1134    2
   683  1200  1205    1
   684    83    89   ar
   685  1236  1222    1
   686  1236  1238    1
   687   363   364   ar
   688   363   362   ar
   689   660   663   ar
   690  1162  1161    1
   691   351   367    1
   692  1174  1156    2
   693  1337  1338   ar
   694  1142  1141    1
   695   354   364    1
   696   354   352    1
   697   387   367    2
   698    93    94    1
   699  1315  1314   ar
   700  1315  1317   ar
   701  1180  1185    1
   702   648   649    1
   703   648   646    1
   704  1204  1203    1
   705  1467  1466    1
   706  1467  1472    1
   707    19    20   ar
   708    19    16   ar
   709   249   248    1
   710   249   265    1
   711   820   825    1
   712   820   819    1
   713   248   250    1
   714    57    63   ar
   715    57    58   ar
   716  1330  1325    1
   717    18    17    2
   718  1466  1468    1
   719  1164  1163    1
   720   854   855   ar
   721  1203  1205    1
   722  1341  1362    2
   723  1341  1361    1
   724  1341  1327    1
   725  1314  1312   ar
   726  1222  1221    1
   727   825   823    1
   728  1140  1156    1
   729  1140  1139    1
   730    63    62   ar
   731   364   358   ar
   732     3     2    1
   733   362   359   ar
   734  1136  1134    1
   735  1136  1135    1
   736   868   867    1
   737   868   875   ar
   738   855   845    1
   739  1473  1472    1
   740  1473  1474   ar
   741   265   283    2
   742   265   284    1
   743  1219  1221    1
   744  1219  1220    1
   745    94    92    1
   746   817   819    1
   747    41    40    2
   748   367   388    1
   749   367   369    1
   750   874   875   ar
   751  1185  1186    1
   752   252   250    1
   753   252   262    1
   754    87    88   ar
   755   632   633   ar
   756   632   638   ar
   757   352   353    1
   758    20    21   ar
   759  1502  1483    2
   760   261   262   ar
   761   261   260   ar
   762  1476  1474   ar
   763    59    58    1
   764   633   635   ar
   765  1326  1327    1
   766  1326  1324    1
   767  1294  1289   ar
   768  1294  1293   ar
   769  1205  1206    1
   770  1221  1223    1
   771  1156  1158    1
   772  1156  1175    1
   773   664   663   ar
   774  1158  1157    1
   775  1137  1139    1
   776  1137  1135    1
   777  1137  1138    1
   778  1498  1497    1
   779  1134  1118    1
   780  1134  1155    1
   781  1468  1469    1
   782  1468  1470    1
   783   867   865    1
   784   867   862    1
   785    89    88   ar
   786    89    79    1
   787  1472  1470    1
   788  1317  1318   ar
   789  1238  1237    1
   790   819   821    1
   791    17    16   ar
   792    17    11   ar
   793    58    60   ar
   794    16    15   ar
   795  1161  1163    1
   796  1161  1159    1
   797  1296  1293   ar
   798  1296  1297   ar
   799   250   251    1
   800   866   865    1
   801  1139  1141    1
   802  1141  1143    1
   803   262   256   ar
   804  1278  1256    2
   805  1474  1475    2
   806   646   647    1
   807  1163  1165    1
   808   865   863    1
   809   639   638    2
   810  1213  1206   ar
   811  1213  1212   ar
   812    77    78    1
   813    77    79    1
   814    77    75    1
   815  1312  1313    2
   816  1312  1311   ar
   817     2     4    1
   818  1118  1117    1
   819   823   821    1
   820   823   824    1
   821   260   257   ar
   822  1289  1290   ar
   823   358   359   ar
   824   358   357   ar
   825   359   360   ar
   826   821   822    1
   827  1159  1157    1
   828  1159  1160    1
   829  1293  1292   ar
   830  1325  1324    1
   831  1220  1225    1
   832   638   637   ar
   833  1469  1483    1
   834  1138  1143    1
   835    62    65   ar
   836    62    61   ar
   837   845   840    1
   838   845   843    1
   839  1206  1207   ar
   840  1483  1501    1
   841  1483  1485    1
   842   635   636   ar
   843    40    34   ar
   844    40    39   ar
   845    79    74    1
   846  1499  1497   ar
   847  1499  1500   ar
   848  1186  1193   ar
   849  1186  1187   ar
   850   647   645    1
   851  1143  1153    1
   852   857   836    2
   853  1497  1496   ar
   854  1470  1471    1
   855  1237  1239    1
   856  1324  1322    1
   857    21    15   ar
   858    21    10    1
   859   369   368    1
   860  1277  1256    1
   861  1233  1232   ar
   862  1233  1226   ar
   863    92   113    2
   864    92   112    1
   865    92    76    1
   866  1193  1192   ar
   867  1212  1210   ar
   868     5     4    1
   869     5    10    1
   870  1318  1311   ar
   871  1297  1298   ar
   872   862   861    1
   873  1232  1230   ar
   874    65    66   ar
   875    42    39   ar
   876    42    43   ar
   877    15    14   ar
   878  1256  1242    1
   879  1256  1258    1
   880  1223  1225    1
   881  1223  1224    1
   882    60    61   ar
   883   357   356   ar
   884    11    12   ar
   885  1115  1117    1
   886  1115  1116    1
   887  1115  1113    1
   888  1311  1310    1
   889   840   839    1
   890  1018  1017    1
   891    75    76    1
   892    75    73    1
   893    34    35   ar
   894  1188  1187    2
   895  1165  1160    1
   896  1165  1166    1
   897   256   257   ar
   898   256   255   ar
   899   360   361    1
   900   360   355   ar
   901  1117  1119    1
   902  1252  1253   ar
   903  1252  1250   ar
   904   843   844    1
   905   843   841    1
   906    61    67   ar
   907     4     6    1
   908    39    38   ar
   909  1048  1030    2
   910   257   258   ar
   911    46    24    2
   912   637   636   ar
   913   637   640   ar
   914  1225  1226    1
   915   636   642   ar
   916  1187  1189   ar
   917   822   836    1
   918  1300  1279    2
   919  1290  1291   ar
   920   863   861    1
   921   863   864    1
   922  1031  1033    1
   923  1031  1032    1
   924  1292  1298   ar
   925  1292  1291   ar
   926  1500  1493   ar
   927  1323  1322    1
   928  1323  1321    1
   929  1016  1030    1
   930  1016  1015    1
   931    10     8    1
   932  1226  1227   ar
   933  1068  1050    2
   934  1116  1121    1
   935  1113  1114    1
   936  1253  1246   ar
   937  1207  1208    2
   938  1207  1209   ar
   939   838   836    1
   940   838   837    1
   941   836   856    1
   942  1242  1241    1
   943  1485  1484    1
   944  1251  1250    2
   945   368   370    1
   946  1496  1494   ar
   947  1013  1011    1
   948  1013  1014    1
   949  1013  1015    1
   950   893   892    1
   951    74    73    1
   952     6     8    1
   953     6     7    1
   954  1320  1301    2
   955  1241  1239    1
   956  1241  1243    1
   957  1239  1240    1
   958  1298  1288    1
   959   356   355   ar
   960  1192  1190   ar
   961  1033  1034    1
   962  1033  1035    1
   963  1273  1272    2
   964  1153  1147   ar
   965  1153  1152   ar
   966  1340  1321    2
   967   861   859    1
   968   645   666    2
   969   645   667    1
   970   645   628    1
   971   995   994    1
   972  1168  1167    2
   973  1250  1249   ar
   974  1124  1123   ar
   975  1124  1125   ar
   976  1098  1097    1
   977  1258  1257    1
   978   864   878    1
   979   255   254   ar
   980    43    44   ar
   981  1121  1119    1
   982  1121  1131    1
   983  1274  1275   ar
   984  1274  1271   ar
   985  1011  1012    1
   986  1146  1147   ar
   987  1146  1145   ar
   988  1210  1209   ar
   989  1210  1211    1
   990   841   839    1
   991   841   842    1
   992    12    14   ar
   993    12    13    1
   994    66    67   ar
   995   630   629    1
   996   999   998    1
   997  1230  1231    2
   998  1230  1229   ar
   999   371   370    1
  1000   371   376    1
  1001   629   631    1
  1002   629   627    1
  1003  1030  1032    1
  1004  1030  1049    1
  1005   385   384   ar
  1006   385   386   ar
  1007  1014  1019    1
  1008    73    71    1
  1009  1015  1017    1
  1010  1308  1310    1
  1011  1308  1306    1
  1012  1308  1309    1
  1013  1036  1050    1
  1014  1036  1035    1
  1015   839   837    1
  1016  1310  1305    1
  1017  1123  1122   ar
  1018  1119  1120    1
  1019  1017  1019    1
  1020  1166  1167   ar
  1021  1166  1173   ar
  1022    67    56    1
  1023   384   381   ar
  1024   640   641   ar
  1025    35    36    1
  1026    35    37   ar
  1027   642   631    1
  1028   642   641   ar
  1029     8     9    1
  1030   258   259    1
  1031   258   253   ar
  1032  1189  1190   ar
  1033    38    44   ar
  1034    38    37   ar
  1035  1050  1069    1
  1036  1050  1052    1
  1037  1240  1245    1
  1038  1321  1307    1
  1039  1321  1339    1
  1040  1147  1148   ar
  1041  1034  1039    1
  1042   370   372    1
  1043    24     7    1
  1044    24    26    1
  1045    24    45    1
  1046   894   892   ar
  1047   894   895   ar
  1048   892   891   ar
  1049  1493  1494   ar
  1050  1493  1492    1
  1051  1275  1276   ar
  1052  1019  1020    1
  1053  1279  1299    1
  1054  1279  1281    1
  1055  1279  1262    1
  1056  1167  1169   ar
  1057  1494  1495    2
  1058  1227  1229   ar
  1059  1227  1228    2
  1060   628   627    1
  1061   897   878    2
  1062  1272  1271   ar
  1063  1272  1266   ar
  1064  1306  1307    1
  1065  1306  1304    1
  1066  1246  1245    1
  1067  1246  1247   ar
  1068   860   859    1
  1069   860   858    1
  1070  1190  1191    2
  1071  1152  1151   ar
  1072  1484  1486    1
  1073   631   626    1
  1074  1035  1037    1
  1075  1271  1270   ar
  1076  1280  1281    1
  1077  1280  1282    1
  1078  1114  1112    1
  1079  1038  1037    1
  1080   627   625    1
  1081  1303  1301    1
  1082  1303  1302    1
  1083  1145  1144   ar
  1084    44    33    1
  1085  1125  1131   ar
  1086  1125  1126   ar
  1087   386   376    1
  1088   386   380   ar
  1089    72    71    1
  1090    72    70    1
  1091   877   858    2
  1092  1301  1285    1
  1093  1301  1319    1
  1094  1173  1172   ar
  1095   254   253   ar
  1096  1243  1245    1
  1097  1243  1244    1
  1098   878   896    1
  1099   878   880    1
  1100  1131  1130   ar
  1101  1000   998   ar
  1102  1000  1001   ar
  1103   376   374    1
  1104  1249  1247   ar
  1105   998   997   ar
  1106  1257  1259    1
  1107  1288  1283    1
  1108  1288  1286    1
  1109  1305  1304    1
  1110  1284  1286    1
  1111  1284  1282    1
  1112  1284  1285    1
  1113   994   996    1
  1114   994   992    1
  1115   842   858    1
  1116   617   616    2
  1117  1097  1099    1
  1118  1097  1095    1
  1119  1283  1282    1
  1120    26    25    1
  1121  1487  1492    1
  1122  1487  1486    1
  1123  1028  1010    2
  1124  1012  1010    1
  1125  1122  1127   ar
  1126   381   380   ar
  1127   381   382   ar
  1128  1132  1112    2
  1129  1096  1112    1
  1130  1096  1095    1
  1131   891   889   ar
  1132   895   888   ar
  1133  1286  1287    1
  1134    56    54    1
  1135    56    51    1
  1136   914   913    1
  1137   858   876    1
  1138    91    70    2
  1139  1261  1262    1
  1140  1261  1259    1
  1141  1261  1263    1
  1142  1039  1037    1
  1143  1039  1040    1
  1144   993  1010    1
  1145   993   992    1
  1146    54    52    1
  1147    54    55    1
  1148  1247  1248    2
  1149   996   991    1
  1150   996  1007    1
  1151   383   382    1
  1152  1492  1490    1
  1153  1304  1302    1
  1154  1169  1170   ar
  1155  1276  1270   ar
  1156  1276  1265    1
  1157  1486  1488    1
  1158  1112  1133    1
  1159  1148  1151   ar
  1160  1148  1149   ar
  1161  1266  1267   ar
  1162   404   403    2
  1163  1099  1109    1
  1164  1099  1094    1
  1165   380   379   ar
  1166  1052  1051    1
  1167  1022  1021    2
  1168   372   374    1
  1169   372   373    1
  1170  1270  1269   ar
  1171   615   616   ar
  1172   615   613   ar
  1173   976   975   ar
  1174   976   977   ar
  1175    69    47    2
  1176  1010  1029    1
  1177  1020  1021   ar
  1178  1020  1027   ar
  1179   382   377   ar
  1180   616   618   ar
  1181  1095  1093    1
  1182  1488  1490    1
  1183  1488  1489    1
  1184  1259  1260    1
  1185   992   990    1
  1186   626   625    1
  1187  1172  1170   ar
  1188    70    53    1
  1189    70    90    1
  1190  1108  1109   ar
  1191  1108  1107   ar
  1192   954   953    1
  1193  1144  1149   ar
  1194   997  1003   ar
  1195  1051  1053    1
  1196  1126  1127   ar
  1197  1126  1129   ar
  1198   625   623    1
  1199  1001  1007   ar
  1200  1001  1002   ar
  1201   880   879    1
  1202    52    53    1
  1203    52    50    1
  1204   991   990    1
  1205   990   988    1
  1206   889   888   ar
  1207   889   890    2
  1208   374   375    1
  1209   888   887    1
  1210    33    28    1
  1211    33    31    1
  1212  1130  1129   ar
  1213   975   980   ar
  1214  1263  1265    1
  1215  1263  1264    1
  1216  1127  1128    1
  1217  1260  1265    1
  1218  1170  1171    1
  1219    51    50    1
  1220    28    27    1
  1221  1490  1491    1
  1222  1021  1023   ar
  1223  1109  1103   ar
  1224  1007  1006   ar
  1225  1093  1094    1
  1226  1093  1091    1
  1227   977   978   ar
  1228   614   613    2
  1229   913   908   ar
  1230   913   912   ar
  1231   403   405   ar
  1232   403   402   ar
  1233    25    27    1
  1234  1149  1150    1
  1235   405   406   ar
  1236   373   389    1
  1237   408   389    2
  1238  1027  1026   ar
  1239  1040  1047   ar
  1240  1040  1041   ar
  1241   613   612   ar
  1242    49    47    1
  1243    49    48    1
  1244    29    31    1
  1245    29    27    1
  1246    29    30    1
  1247  1267  1269   ar
  1248  1267  1268    1
  1249  1047  1046   ar
  1250   379   378   ar
  1251   908   909   ar
  1252    31    32    1
  1253   624   623    1
  1254   624   622    1
  1255   952   953   ar
  1256   952   958   ar
  1257   936   935    1
  1258  1107  1104   ar
  1259   882   887    1
  1260   882   881    1
  1261   377   378   ar
  1262    47    30    1
  1263    47    68    1
  1264   618   619   ar
  1265   953   955   ar
  1266   426   425    2
  1267    50    48    1
  1268   644   622    2
  1269   930   935   ar
  1270   930   931   ar
  1271   597   596    2
  1272   887   885    1
  1273  1002  1003   ar
  1274  1002  1005   ar
  1275   879   881    1
  1276  1003  1004    2
  1277   915   912   ar
  1278   915   916   ar
  1279   912   911   ar
  1280   551   550    1
  1281   389   407    1
  1282   389   391    1
  1283   988   989    1
  1284   959   958    2
  1285   973   972    1
  1286   980   981    1
  1287   980   979   ar
  1288   402   400   ar
  1289   406   399   ar
  1290  1053  1055    1
  1291  1053  1054    1
  1292  1042  1041    2
  1293  1088  1070    2
  1294  1103  1104   ar
  1295  1103  1102   ar
  1296   935   934   ar
  1297  1041  1043   ar
  1298   978   979   ar
  1299   978   984   ar
  1300  1023  1024   ar
  1301   612   619   ar
  1302   612   611    1
  1303  1091  1092    1
  1304  1006  1005   ar
  1305   577   576    2
  1306   958   957   ar
  1307  1046  1044   ar
  1308   909   910   ar
  1309   622   643    1
  1310   622   608    1
  1311   448   447    1
  1312  1026  1024   ar
  1313   881   883    1
  1314  1104  1105   ar
  1315   931   932   ar
  1316  1066  1067   ar
  1317  1066  1064   ar
  1318  1067  1060   ar
  1319  1055  1057    1
  1320  1055  1056    1
  1321   955   956   ar
  1322   425   419   ar
  1323   425   424   ar
  1324   609   611    1
  1325   609   610    1
  1326   609   607    1
  1327  1054  1059    1
  1328   979   982   ar
  1329   972   974    1
  1330   972   970    1
  1331   547   546    1
  1332   596   595   ar
  1333   596   598   ar
  1334   916   917   ar
  1335  1102  1101   ar
  1336   911   910   ar
  1337   911   917   ar
  1338  1024  1025    1
  1339  1092  1090    1
  1340   550   552   ar
  1341   550   549   ar
  1342   974   984    1
  1343   974   969    1
  1344   391   390    1
  1345   399   400   ar
  1346   399   398    1
  1347   400   401    2
  1348   883   885    1
  1349   883   884    1
  1350   989   987    1
  1351   885   886    1
  1352  1071  1073    1
  1353  1071  1072    1
  1354   984   983   ar
  1355   419   420   ar
  1356  1057  1059    1
  1357  1057  1058    1
  1358   595   593   ar
  1359   611   606    1
  1360   581   562    2
  1361   552   553   ar
  1362  1043  1044   ar
  1363   607   608    1
  1364   607   605    1
  1365   576   578   ar
  1366   576   575   ar
  1367  1044  1045    1
  1368   934   933   ar
  1369   934   937   ar
  1370   469   468    2
  1371   957   956   ar
  1372   957   960   ar
  1373   490   489    1
  1374  1070  1056    1
  1375  1070  1072    1
  1376  1070  1089    1
  1377   447   442   ar
  1378   447   446   ar
  1379   956   962   ar
  1380  1105  1106    1
  1381  1105  1100   ar
  1382   578   579   ar
  1383   917   907    1
  1384  1059  1060    1
  1385   549   555   ar
  1386   393   398    1
  1387   393   392    1
  1388  1060  1061   ar
  1389   427   424   ar
  1390   427   428   ar
  1391  1064  1065    2
  1392  1064  1063   ar
  1393   424   423   ar
  1394   919   898    2
  1395   932   933   ar
  1396  1073  1074    1
  1397  1073  1075    1
  1398   442   443   ar
  1399   390   392    1
  1400   546   548    1
  1401   546   544    1
  1402   598   599   ar
  1403  1101  1100   ar
  1404   398   396    1
  1405   982   983   ar
  1406   467   468   ar
  1407   467   465   ar
  1408   969   968    1
  1409   933   939   ar
  1410   937   938   ar
  1411   970   971    1
  1412   970   968    1
  1413  1074  1079    1
  1414   484   489   ar
  1415   484   485   ar
  1416   884   898    1
  1417   971   987    1
  1418   468   470   ar
  1419   420   421    1
  1420   420   422   ar
  1421   606   605    1
  1422   489   488   ar
  1423   553   559   ar
  1424   553   554   ar
  1425   593   594    2
  1426   593   592   ar
  1427   575   573   ar
  1428   987  1008    2
  1429   987  1009    1
  1430   545   562    1
  1431   545   544    1
  1432  1090  1110    2
  1433  1090  1111    1
  1434  1090  1076    1
  1435   548   559    1
  1436   548   543    1
  1437   392   394    1
  1438   562   580    1
  1439   562   564    1
  1440   446   449   ar
  1441   446   445   ar
  1442   960   961   ar
  1443   605   603    1
  1444   466   465    2
  1445   528   527    1
  1446   449   450   ar
  1447   968   966    1
  1448  1063  1061   ar
  1449   555   554   ar
  1450   555   556    2
  1451  1061  1062    2
  1452   579   572   ar
  1453   962   951    1
  1454   962   961   ar
  1455   898   900    1
  1456   898   918    1
  1457   907   902    1
  1458   907   905    1
  1459   428   429   ar
  1460   423   422   ar
  1461   423   429   ar
  1462   544   542    1
  1463   559   558   ar
  1464  1075  1076    1
  1465  1075  1077    1
  1466   465   464   ar
  1467   443   444   ar
  1468   902   901    1
  1469   599   592   ar
  1470   554   557   ar
  1471   485   486   ar
  1472   394   396    1
  1473   394   395    1
  1474   938   939   ar
  1475   900   899    1
  1476   603   604    1
  1477   939   929    1
  1478   396   397    1
  1479   592   591    1
  1480   951   949    1
  1481   951   946    1
  1482   488   491   ar
  1483   488   487   ar
  1484   431   409    2
  1485   526   527   ar
  1486   526   532   ar
  1487  1079  1077    1
  1488  1079  1080    1
  1489   543   542    1
  1490   564   563    1
  1491   950   949    1
  1492   429   418    1
  1493   527   529   ar
  1494   573   572   ar
  1495   573   574    2
  1496   542   540    1
  1497   470   471   ar
  1498   949   947    1
  1499  1087  1080   ar
  1500  1087  1086   ar
  1501   445   444   ar
  1502   445   451   ar
  1503   491   492   ar
  1504   572   571    1
  1505   601   582    2
  1506   450   451   ar
  1507   905   903    1
  1508   905   906    1
  1509   558   557   ar
  1510  1077  1078    1
  1511  1080  1081   ar
  1512   966   967    1
  1513   899   901    1
  1514   486   487   ar
  1515  1086  1084   ar
  1516   621   602    2
  1517   464   471   ar
  1518   464   463    1
  1519   901   903    1
  1520   487   493   ar
  1521   533   532    2
  1522   929   924    1
  1523   929   927    1
  1524   395   409    1
  1525   532   531   ar
  1526   946   945    1
  1527   604   602    1
  1528   903   904    1
  1529   529   530   ar
  1530   967   965    1
  1531   451   441    1
  1532   591   589    1
  1533   591   586    1
  1534   409   411    1
  1535   409   430    1
  1536   589   587    1
  1537   589   590    1
  1538   492   493   ar
  1539   563   565    1
  1540   418   413    1
  1541   418   416    1
  1542   540   541    1
  1543   924   923    1
  1544   947   945    1
  1545   947   948    1
  1546   571   566    1
  1547   571   569    1
  1548  1081  1082    2
  1549  1081  1083   ar
  1550   413   412    1
  1551   566   565    1
  1552   493   483    1
  1553   927   928    1
  1554   927   925    1
  1555   462   461    1
  1556   567   569    1
  1557   567   565    1
  1558   567   568    1
  1559   411   410    1
  1560   602   588    1
  1561   602   620    1
  1562   463   461    1
  1563   463   458    1
  1564  1084  1083   ar
  1565  1084  1085    2
  1566   582   584    1
  1567   582   568    1
  1568   582   600    1
  1569   941   920    2
  1570   584   583    1
  1571   587   588    1
  1572   587   585    1
  1573   530   531   ar
  1574   530   536   ar
  1575   531   534   ar
  1576   569   570    1
  1577   586   585    1
  1578   945   943    1
  1579   541   539    1
  1580   948   965    1
  1581   904   920    1
  1582   461   459    1
  1583   416   414    1
  1584   416   417    1
  1585   965   986    2
  1586   965   985    1
  1587   441   436    1
  1588   441   439    1
  1589   922   920    1
  1590   922   921    1
  1591   410   412    1
  1592   925   923    1
  1593   925   926    1
  1594   585   583    1
  1595   458   457    1
  1596   524   523    1
  1597   920   940    1
  1598   412   414    1
  1599   483   478    1
  1600   483   481    1
  1601   414   415    1
  1602   923   921    1
  1603   523   525    1
  1604   523   521    1
  1605   536   525    1
  1606   536   535   ar
  1607   436   435    1
  1608   534   535   ar
  1609   478   477    1
  1610   944   943    1
  1611   944   942    1
  1612   453   432    2
  1613   439   437    1
  1614   439   440    1
  1615   525   520    1
  1616   460   459    1
  1617   460   474    1
  1618   964   942    2
  1619   459   457    1
  1620   539   560    2
  1621   539   561    1
  1622   539   522    1
  1623   437   435    1
  1624   437   438    1
  1625   926   942    1
  1626   473   454    2
  1627   457   455    1
  1628   481   482    1
  1629   481   479    1
  1630   942   963    1
  1631   435   433    1
  1632   433   434    1
  1633   415   432    1
  1634   521   522    1
  1635   521   519    1
  1636   456   455    1
  1637   456   454    1
  1638   432   434    1
  1639   432   452    1
  1640   477   475    1
  1641   477   479    1
  1642   495   474    2
  1643   476   474    1
  1644   476   475    1
  1645   474   494    1
  1646   520   519    1
  1647   454   438    1
  1648   454   472    1
  1649   479   480    1
  1650   519   517    1
  1651   480   496    1
  1652   518   517    1
  1653   518   516    1
  1654   515   496    2
  1655   496   498    1
  1656   496   514    1
  1657   538   516    2
  1658   498   497    1
  1659   497   499    1
  1660   516   537    1
  1661   516   502    1
  1662   501   499    1
  1663   501   502    1
  1664   501   503    1
  1665   499   500    1
  1666   503   504    1
  1667   503   505    1
  1668   500   505    1
  1669   505   506    1
  1670   513   506   ar
  1671   513   512   ar
  1672   506   507   ar
  1673   512   510   ar
  1674   507   508    2
  1675   507   509   ar
  1676   510   509   ar
  1677   510   511    2
