ligand
  PyMOL2.2          3D                             0

 91101  0  0  0  0  0  0  0  0999 V2000
   11.1750    0.0700    5.1430 P   0  0  0  0  0  0  0  0  0  0  0  0
   11.7210   -1.1610    8.6680 C   0  0  0  0  0  0  0  0  0  0  0  0
   10.7200   -0.9570    7.5500 C   0  0  0  0  0  0  0  0  0  0  0  0
    9.3270   -0.6490    8.1000 C   0  0  0  0  0  0  0  0  0  0  0  0
   19.5430   -2.6590    5.0450 C   0  0  0  0  0  0  0  0  0  0  0  0
   13.7720   -2.6990    2.0850 C   0  0  0  0  0  0  0  0  0  0  0  0
   15.1850   -3.0730    1.9850 N   0  0  0  0  0  0  0  0  0  0  0  0
   21.0680   -2.0760    5.3660 C   0  0  0  0  0  0  0  0  0  0  0  0
   15.9030   -3.7830    2.8560 C   0  0  0  0  0  0  0  0  0  0  0  0
   13.5780   -1.3800    2.9250 C   0  0  0  0  0  0  0  0  0  0  0  0
   12.2010   -1.0790    4.9120 O   0  0  0  0  0  0  0  0  0  0  0  0
   21.6800   -2.1850    3.9510 C   0  0  0  0  0  0  0  0  0  0  0  0
   12.2930   -1.6700    3.6000 C   0  0  0  0  0  0  0  0  0  0  0  0
   17.2230   -3.8680    2.5840 N   0  0  0  0  0  0  0  0  0  0  0  0
   11.1850    0.2100    6.7200 O   0  0  0  0  0  0  0  0  0  0  0  0
   20.9550   -3.4130    3.3760 C   0  0  0  0  0  0  0  0  0  0  0  0
   18.4470   -2.7760    0.5370 C   0  0  0  0  0  0  0  0  0  0  0  0
   12.1390   -3.1550    3.7030 C   0  0  0  0  0  0  0  0  0  0  0  0
    9.8360   -0.3790    4.6140 O   0  5  0  0  0  0  0  0  0  0  0  0
   21.4420   -4.1800    2.2490 C   0  0  0  0  0  0  0  0  0  0  0  0
   18.2320   -2.0090   -0.6210 C   0  0  0  0  0  0  0  0  0  0  0  0
   19.4500   -1.6670   -1.4930 C   0  0  0  0  0  0  0  0  0  0  0  0
   10.7040   -3.6630    3.4230 C   0  0  0  0  0  0  0  0  0  0  0  0
   11.6820    1.3760    4.6380 O   0  0  0  0  0  0  0  0  0  0  0  0
   20.6820   -5.1650    1.6390 C   0  0  0  0  0  0  0  0  0  0  0  0
   16.9320   -1.5540   -1.0000 C   0  0  0  0  0  0  0  0  0  0  0  0
   16.7010   -0.7370   -2.2630 C   0  0  0  0  0  0  0  0  0  0  0  0
   13.0550   -3.7360    2.7490 O   0  0  0  0  0  0  0  0  0  0  0  0
   21.0630   -6.1100    0.4250 C   0  0  0  0  0  0  0  0  0  0  0  0
   15.8170   -1.8690   -0.1750 C   0  0  0  0  0  0  0  0  0  0  0  0
   14.6100   -1.2120    3.8930 O   0  0  0  0  0  0  0  0  0  0  0  0
   19.6440   -6.5970   -0.0420 C   0  0  0  0  0  0  0  0  0  0  0  0
   16.0630   -2.6350    0.9800 C   0  0  0  0  0  0  0  0  0  0  0  0
   10.4550   -3.9220    1.9990 O   0  0  0  0  0  0  0  0  0  0  0  0
   18.8810   -6.5020    1.2670 C   0  0  0  0  0  0  0  0  0  0  0  0
   17.3160   -3.1100    1.3690 C   0  0  0  0  0  0  0  0  0  0  0  0
   17.7870   -7.3140    1.5180 C   0  0  0  0  0  0  0  0  0  0  0  0
   17.0360   -7.3110    2.6590 C   0  0  0  0  0  0  0  0  0  0  0  0
   16.0190   -8.4330    3.0070 C   0  0  0  0  0  0  0  0  0  0  0  0
   15.1190   -7.7070    3.9840 C   0  0  0  0  0  0  0  0  0  0  0  0
   16.1250   -6.6620    4.5620 C   0  0  0  0  0  0  0  0  0  0  0  0
   15.9590   -5.9470    5.7540 C   0  0  0  0  0  0  0  0  0  0  0  0
   16.8570   -4.8280    6.1600 C   0  0  0  0  0  0  0  0  0  0  0  0
   16.8950   -4.0370    7.4980 C   0  0  0  0  0  0  0  0  0  0  0  0
   17.8280   -2.8120    7.1350 C   0  0  0  0  0  0  0  0  0  0  0  0
   18.7330   -3.4650    6.0910 C   0  0  0  0  0  0  0  0  0  0  0  0
   18.5880   -1.5660    4.5480 C   0  0  0  0  0  0  0  0  0  0  0  0
   19.7840   -3.6330    3.9420 N   0  0  0  0  0  0  0  0  0  0  0  0
   19.3900   -5.5960    2.0810 N   0  0  0  0  0  0  0  0  0  0  0  0
   17.1150   -6.4060    3.6650 N   0  0  0  0  0  0  0  0  0  0  0  0
   17.8450   -4.4180    5.3580 N   0  0  0  0  0  0  0  0  0  0  0  0
   21.0480   -0.6270    5.9530 C   0  0  0  0  0  0  0  0  0  0  0  0
   21.8560   -3.0250    6.3190 C   0  0  0  0  0  0  0  0  0  0  0  0
   23.3550   -2.7500    6.5000 C   0  0  0  0  0  0  0  0  0  0  0  0
   24.2170   -3.1230    5.6970 O   0  0  0  0  0  0  0  0  0  0  0  0
   23.6860   -2.0660    7.6050 N   0  0  0  0  0  0  0  0  0  0  0  0
   21.6880   -0.9310    3.0270 C   0  0  0  0  0  0  0  0  0  0  0  0
   23.1000   -0.2680    3.0100 C   0  0  0  0  0  0  0  0  0  0  0  0
   23.2250    0.9640    2.1760 C   0  0  0  0  0  0  0  0  0  0  0  0
   22.7880    2.0990    2.6790 N   0  0  0  0  0  0  0  0  0  0  0  0
   23.7580    0.9080    1.0410 O   0  0  0  0  0  0  0  0  0  0  0  0
   22.8980   -3.8970    1.8400 C   0  0  0  0  0  0  0  0  0  0  0  0
   21.8100   -5.4110   -0.7640 C   0  0  0  0  0  0  0  0  0  0  0  0
   21.8730   -7.3150    0.9940 C   0  0  0  0  0  0  0  0  0  0  0  0
   22.3040   -8.2730   -0.1080 C   0  0  0  0  0  0  0  0  0  0  0  0
   21.5100   -9.1080   -0.5390 O   0  0  0  0  0  0  0  0  0  0  0  0
   23.5480   -8.1250   -0.5650 N   0  0  0  0  0  0  0  0  0  0  0  0
   19.0080   -5.7090   -1.1550 C   0  0  0  0  0  0  0  0  0  0  0  0
   17.5500   -5.9410   -1.5450 C   0  0  0  0  0  0  0  0  0  0  0  0
   17.0950   -5.0240   -2.5970 C   0  0  0  0  0  0  0  0  0  0  0  0
   17.7380   -4.7830   -3.6570 O   0  0  0  0  0  0  0  0  0  0  0  0
   15.9240   -4.4140   -2.3920 N   0  0  0  0  0  0  0  0  0  0  0  0
   16.7760   -9.5530    3.7150 C   0  0  0  0  0  0  0  0  0  0  0  0
   15.3890   -9.0980    1.7290 C   0  0  0  0  0  0  0  0  0  0  0  0
   13.9230   -6.9240    3.3770 C   0  0  0  0  0  0  0  0  0  0  0  0
   12.5630   -7.6800    3.0640 C   0  0  0  0  0  0  0  0  0  0  0  0
   11.6070   -7.7470    4.2340 C   0  0  0  0  0  0  0  0  0  0  0  0
   10.8690   -8.7420    4.3550 O   0  0  0  0  0  0  0  0  0  0  0  0
   11.5750   -6.7170    5.1200 N   0  0  0  0  0  0  0  0  0  0  0  0
   14.7700   -6.3780    6.6530 C   0  0  0  0  0  0  0  0  0  0  0  0
   17.5100   -4.9820    8.5570 C   0  0  0  0  0  0  0  0  0  0  0  0
   15.5640   -3.4890    8.0030 C   0  0  0  0  0  0  0  0  0  0  0  0
   14.7260   -2.7300    7.0080 C   0  0  0  0  0  0  0  0  0  0  0  0
   13.3070   -2.5840    7.4510 C   0  0  0  0  0  0  0  0  0  0  0  0
   12.4610   -3.4740    7.1390 O   0  0  0  0  0  0  0  0  0  0  0  0
   13.0350   -1.4760    8.1610 N   0  0  0  0  0  0  0  0  0  0  0  0
   18.6200   -2.1860    8.3330 C   0  0  0  0  0  0  0  0  0  0  0  0
   17.9560   -0.9650    9.0220 C   0  0  0  0  0  0  0  0  0  0  0  0
   18.6080    0.0420    9.2270 N   0  0  0  0  0  0  0  0  0  0  0  0
   16.6920   -1.1130    9.3600 O   0  0  0  0  0  0  0  0  0  0  0  0
   18.5110   -5.0420    3.7100 Co  0  0  0  0  0  0  0  0  0  0  0  0
  1 11  1  0  0  0  0
  2  3  1  0  0  0  0
  3  4  1  0  0  0  0
  3 15  1  0  0  0  0
  5  8  1  0  0  0  0
  5 46  1  0  0  0  0
  5 47  1  0  0  0  0
  6  7  1  0  0  0  0
  6 28  1  0  0  0  0
  7  9  4  0  0  0  0
  7 33  4  0  0  0  0
  8 12  1  0  0  0  0
  8 52  1  0  0  0  0
  8 53  1  0  0  0  0
  9 14  4  0  0  0  0
  6 10  1  0  0  0  0
 10 31  1  0  0  0  0
 11 13  1  0  0  0  0
 12 16  1  0  0  0  0
 12 57  1  0  0  0  0
 10 13  1  0  0  0  0
 13 18  1  0  0  0  0
 14 36  4  0  0  0  0
  1 15  1  0  0  0  0
 16 20  4  0  0  0  0
 17 21  4  0  0  0  0
 18 23  1  0  0  0  0
  1 19  1  0  0  0  0
 20 25  4  0  0  0  0
 20 62  1  0  0  0  0
 21 22  1  0  0  0  0
 21 26  4  0  0  0  0
 23 34  1  0  0  0  0
  1 24  2  0  0  0  0
 25 29  1  0  0  0  0
 26 27  1  0  0  0  0
 26 30  4  0  0  0  0
 18 28  1  0  0  0  0
 29 32  1  0  0  0  0
 29 63  1  0  0  0  0
 29 64  1  0  0  0  0
 32 35  1  0  0  0  0
 32 68  1  0  0  0  0
 30 33  4  0  0  0  0
 33 36  4  0  0  0  0
 35 37  4  0  0  0  0
 17 36  4  0  0  0  0
 37 38  4  0  0  0  0
 38 39  1  0  0  0  0
 39 40  1  0  0  0  0
 39 73  1  0  0  0  0
 39 74  1  0  0  0  0
 40 41  1  0  0  0  0
 40 75  1  0  0  0  0
 41 42  4  0  0  0  0
 42 43  4  0  0  0  0
 42 80  1  0  0  0  0
 43 44  1  0  0  0  0
 44 45  1  0  0  0  0
 44 81  1  0  0  0  0
 44 82  1  0  0  0  0
 45 46  1  0  0  0  0
 45 87  1  0  0  0  0
  5 48  1  0  0  0  0
 16 48  4  0  0  0  0
 25 49  4  0  0  0  0
 35 49  4  0  0  0  0
 38 50  4  0  0  0  0
 41 50  4  0  0  0  0
 43 51  4  0  0  0  0
 46 51  1  0  0  0  0
 53 54  1  0  0  0  0
 54 55  2  0  0  0  0
 54 56  1  0  0  0  0
 57 58  1  0  0  0  0
 58 59  1  0  0  0  0
 59 60  1  0  0  0  0
 59 61  2  0  0  0  0
 64 65  1  0  0  0  0
 65 66  2  0  0  0  0
 65 67  1  0  0  0  0
 68 69  1  0  0  0  0
 69 70  1  0  0  0  0
 70 71  2  0  0  0  0
 70 72  1  0  0  0  0
 75 76  1  0  0  0  0
 76 77  1  0  0  0  0
 77 78  2  0  0  0  0
 77 79  1  0  0  0  0
 82 83  1  0  0  0  0
 83 84  1  0  0  0  0
 84 85  2  0  0  0  0
 84 86  1  0  0  0  0
  2 86  1  0  0  0  0
 87 88  1  0  0  0  0
 88 89  1  0  0  0  0
 88 90  2  0  0  0  0
 48 91  1  0  0  0  0
 49 91  1  0  0  0  0
 50 91  1  0  0  0  0
 51 91  1  0  0  0  0
M  END
$$$$
