@<TRIPOS>MOLECULE
1DDY_rdock.pdb
 530 589 0 0 0
SMALL
GASTEIGER

@<TRIPOS>ATOM
      1  P         52.8220   -5.5470   20.1950 P.3     1  G1          0.1280
      2  C5'       54.3310   -3.4360   19.6210 C.3     1  G1          0.1795
      3  O5'       53.5900   -4.5660   19.1440 O.3     1  G1         -0.3259
      4  C4'       55.0140   -2.7370   18.4770 C.3     1  G1          0.1772
      5  O4'       56.1770   -3.4890   18.0530 O.3     1  G1         -0.3307
      6  C3'       54.1930   -2.5890   17.2080 C.3     1  G1          0.1860
      7  O3'       53.2630   -1.5160   17.2990 O.3     1  G1         -0.3112
      8  C2'       55.2740   -2.3560   16.1600 C.3     1  G1          0.2309
      9  O2'       55.7760   -1.0330   16.1590 O.3     1  G1         -0.2156
     10  C1'       56.3650   -3.3100   16.6540 C.3     1  G1          0.2408
     11  N1        56.5140   -5.8140   12.2490 N.ar    1  G1         -0.1709
     12  C2        56.6960   -4.4740   12.5000 C.ar    1  G1          0.2606
     13  N2        56.9330   -3.6990   11.4280 N.pl3   1  G1         -0.0859
     14  N3        56.6500   -3.9340   13.7080 N.ar    1  G1         -0.1918
     15  C4        56.3970   -4.8570   14.6610 C.ar    1  G1          0.1723
     16  C5        56.2030   -6.2150   14.5160 C.ar    1  G1          0.1748
     17  C6        56.2630   -6.7810   13.2150 C.ar    1  G1          0.3023
     18  O6        56.1300   -7.9600   12.8820 O.2     1  G1         -0.2633
     19  N7        55.9710   -6.8130   15.7490 N.ar    1  G1         -0.2173
     20  C8        56.0210   -5.8260   16.6030 C.ar    1  G1          0.1817
     21  N9        56.2690   -4.6120   16.0070 N.ar    1  G1         -0.2693
     22  OP1       53.6070   -5.4500   21.5090 O.3     1  G1         -0.1955
     23  OP2       51.3950   -5.0190   20.3500 O.co2   1  G1         -0.7863
     24  P         51.9670   -1.5000   16.3420 P.3     2  G2          0.2141
     25  C5'       51.7810   -1.2110   13.7640 C.3     2  G2          0.1812
     26  O5'       52.5830   -1.1340   14.9210 O.3     2  G2         -0.3114
     27  C4'       52.6090   -1.0030   12.5250 C.3     2  G2          0.1773
     28  O4'       53.8370   -1.7680   12.5760 O.3     2  G2         -0.3307
     29  C3'       51.9040   -1.4520   11.2590 C.3     2  G2          0.1860
     30  O3'       51.0920   -0.4030   10.8030 O.3     2  G2         -0.3112
     31  C2'       53.0450   -1.8660   10.3520 C.3     2  G2          0.2309
     32  O2'       53.6770   -0.7600    9.7490 O.3     2  G2         -0.2156
     33  C1'       53.9860   -2.5050   11.3730 C.3     2  G2          0.2408
     34  N1        53.4230   -7.2320    9.5590 N.ar    2  G2         -0.1709
     35  C2        53.6230   -6.0560    8.8670 C.ar    2  G2          0.2606
     36  N2        53.7050   -6.1610    7.5230 N.pl3   2  G2         -0.0859
     37  N3        53.7280   -4.8630    9.4490 N.ar    2  G2         -0.1918
     38  C4        53.5970   -4.9460   10.7930 C.ar    2  G2          0.1723
     39  C5        53.3770   -6.0660   11.5710 C.ar    2  G2          0.1748
     40  C6        53.2860   -7.3370   10.9420 C.ar    2  G2          0.3023
     41  O6        53.1120   -8.4470   11.4640 O.2     2  G2         -0.2633
     42  N7        53.2850   -5.7230   12.9130 N.ar    2  G2         -0.2173
     43  C8        53.4620   -4.4320   12.9290 C.ar    2  G2          0.1817
     44  N9        53.6820   -3.9000   11.6800 N.ar    2  G2         -0.2693
     45  OP1       51.0930   -0.3720   16.7670 O.3     2  G2         -0.4373
     46  OP2       51.4000   -2.8820   16.2740 O.co2   2  G2         -0.5172
     47  P         49.5110   -0.5270   10.9700 P.3     3  A3          0.2141
     48  C5'       49.4980   -1.0060    8.3960 C.3     3  A3          0.1812
     49  O5'       49.1180   -1.4230    9.7090 O.3     3  A3         -0.3114
     50  C4'       49.7240   -2.1950    7.4970 C.3     3  A3          0.1773
     51  O4'       50.6800   -3.0920    8.1160 O.3     3  A3         -0.3307
     52  C3'       48.5140   -3.0810    7.2380 C.3     3  A3          0.1860
     53  O3'       47.6580   -2.5530    6.2210 O.3     3  A3         -0.3112
     54  C2'       49.1710   -4.3830    6.7860 C.3     3  A3          0.2309
     55  O2'       49.5700   -4.3940    5.4300 O.3     3  A3         -0.2156
     56  C1'       50.4220   -4.4160    7.6720 C.3     3  A3          0.2408
     57  N1        50.3370   -9.2840    9.2960 N.ar    3  A3         -0.2040
     58  C2        50.4770   -8.7410    8.0770 C.ar    3  A3          0.2016
     59  N3        50.4820   -7.4570    7.7230 N.ar    3  A3         -0.2048
     60  C4        50.3100   -6.6660    8.8030 C.ar    3  A3          0.1692
     61  C5        50.1480   -7.0760   10.1180 C.ar    3  A3          0.1518
     62  C6        50.1730   -8.4610   10.3610 C.ar    3  A3          0.1919
     63  N6        50.0490   -9.0020   11.5820 N.pl3   3  A3         -0.1054
     64  N7        50.0010   -5.9810   10.9580 N.ar    3  A3         -0.2193
     65  C8        50.0800   -4.9470   10.1490 C.ar    3  A3          0.1816
     66  N9        50.2730   -5.2890    8.8330 N.ar    3  A3         -0.2693
     67  OP1       48.9420    0.8390   10.8210 O.2     3  A3         -0.5172
     68  OP2       49.2690   -1.2870   12.2280 O.co2   3  A3         -0.4373
     69  P         46.2330   -1.8980    6.6110 P.3     4  A4          0.2141
     70  C5'       44.6650   -3.9830    6.7980 C.3     4  A4          0.1813
     71  O5'       45.4720   -3.0120    7.4530 O.3     4  A4         -0.3114
     72  C4'       45.5310   -5.1270    6.3470 C.3     4  A4          0.1801
     73  O4'       46.2500   -5.6330    7.4890 O.3     4  A4         -0.3306
     74  C3'       44.8060   -6.3570    5.8270 C.3     4  A4          0.2161
     75  O3'       44.4310   -6.1600    4.4650 O.3     4  A4         -0.2175
     76  C2'       45.8760   -7.4470    5.9770 C.3     4  A4          0.2337
     77  O2'       46.7670   -7.5040    4.8770 O.3     4  A4         -0.2155
     78  C1'       46.6650   -6.9500    7.2010 C.3     4  A4          0.2409
     79  N1        47.1810  -11.6450    9.1740 N.ar    4  A4         -0.2040
     80  C2        47.2060  -11.1770    7.9120 C.ar    4  A4          0.2016
     81  N3        47.0380   -9.9350    7.4720 N.ar    4  A4         -0.2048
     82  C4        46.8150   -9.0970    8.5000 C.ar    4  A4          0.1692
     83  C5        46.7550   -9.4180    9.8500 C.ar    4  A4          0.1518
     84  C6        46.9560  -10.7740   10.1890 C.ar    4  A4          0.1919
     85  N6        46.9450  -11.2440   11.4450 N.pl3   4  A4         -0.1054
     86  N7        46.5070   -8.2840   10.6160 N.ar    4  A4         -0.2193
     87  C8        46.4270   -7.3200    9.7290 C.ar    4  A4          0.1816
     88  N9        46.6210   -7.7430    8.4290 N.ar    4  A4         -0.2693
     89  OP1       45.4780   -1.7210    5.3440 O.2     4  A4         -0.5172
     90  OP2       46.4690   -0.7290    7.5010 O.co2   4  A4         -0.4373
     91  P         37.1460  -17.5810    2.6900 P.3     7  G7          0.1280
     92  C5'       37.7530  -19.8720    3.8360 C.3     7  G7          0.1795
     93  O5'       37.4430  -18.4840    3.9720 O.3     7  G7         -0.3259
     94  C4'       37.5230  -20.5990    5.1470 C.3     7  G7          0.1772
     95  O4'       38.4700  -20.1510    6.1530 O.3     7  G7         -0.3307
     96  C3'       36.1710  -20.3840    5.8050 C.3     7  G7          0.1860
     97  O3'       35.1490  -21.1790    5.2180 O.3     7  G7         -0.3112
     98  C2'       36.4520  -20.7900    7.2410 C.3     7  G7          0.2309
     99  O2'       36.4830  -22.1960    7.3690 O.3     7  G7         -0.2156
    100  C1'       37.8660  -20.2320    7.4370 C.3     7  G7          0.2408
    101  N1        37.7580  -17.4640   11.7210 N.ar    7  G7         -0.1709
    102  C2        37.6450  -18.8190   11.5730 C.ar    7  G7          0.2606
    103  N2        37.5160  -19.5080   12.7140 N.pl3   7  G7         -0.0859
    104  N3        37.6630  -19.4460   10.3990 N.ar    7  G7         -0.1918
    105  C4        37.8150  -18.5780    9.3730 C.ar    7  G7          0.1723
    106  C5        37.9340  -17.2050    9.4240 C.ar    7  G7          0.1748
    107  C6        37.9070  -16.5600   10.6820 C.ar    7  G7          0.3023
    108  O6        37.9930  -15.3580   10.9280 O.2     7  G7         -0.2633
    109  N7        38.0650  -16.6730    8.1490 N.ar    7  G7         -0.2173
    110  C8        38.0360  -17.7110    7.3580 C.ar    7  G7          0.1817
    111  N9        37.8990  -18.9000    8.0320 N.ar    7  G7         -0.2693
    112  OP1       36.4330  -18.4120    1.6780 O.3     7  G7         -0.1955
    113  OP2       36.5750  -16.2830    3.1320 O.co2   7  G7         -0.7863
    114  P         33.6190  -20.7020    5.3290 P.3     8  G8          0.2141
    115  C5'       33.4740  -21.9450    7.6170 C.3     8  G8          0.1812
    116  O5'       33.3470  -20.7280    6.8970 O.3     8  G8         -0.3114
    117  C4'       33.3390  -21.6990    9.0980 C.3     8  G8          0.1773
    118  O4'       34.4890  -20.9790    9.6090 O.3     8  G8         -0.3307
    119  C3'       32.1560  -20.8460    9.5140 C.3     8  G8          0.1860
    120  O3'       30.9590  -21.6050    9.5290 O.3     8  G8         -0.3112
    121  C2'       32.5840  -20.3650   10.8890 C.3     8  G8          0.2309
    122  O2'       32.4430  -21.3820   11.8530 O.3     8  G8         -0.2156
    123  C1'       34.0770  -20.1170   10.6580 C.3     8  G8          0.2408
    124  N1        34.7730  -15.3020   12.1110 N.ar    8  G8         -0.1709
    125  C2        34.4930  -16.4090   12.8750 C.ar    8  G8          0.2606
    126  N2        34.3770  -16.2010   14.1950 N.pl3   8  G8         -0.0859
    127  N3        34.3340  -17.6260   12.3820 N.ar    8  G8         -0.1918
    128  C4        34.4690  -17.6460   11.0410 C.ar    8  G8          0.1723
    129  C5        34.7400  -16.5990   10.1880 C.ar    8  G8          0.1748
    130  C6        34.9200  -15.3010   10.7310 C.ar    8  G8          0.3023
    131  O6        35.1800  -14.2450   10.1380 O.2     8  G8         -0.2633
    132  N7        34.7950  -17.0380    8.8710 N.ar    8  G8         -0.2173
    133  C8        34.5610  -18.3200    8.9480 C.ar    8  G8          0.1817
    134  N9        34.3570  -18.7530   10.2350 N.ar    8  G8         -0.2693
    135  OP1       32.7740  -21.7300    4.6820 O.2     8  G8         -0.5172
    136  OP2       33.5480  -19.2970    4.8640 O.co2   8  G8         -0.4373
    137  P         29.5460  -20.8490    9.4710 P.3     9  U9          0.2141
    138  C5'       29.2970  -20.6670   12.0530 C.3     9  U9          0.1812
    139  O5'       29.5190  -20.0070   10.8200 O.3     9  U9         -0.3114
    140  C4'       29.1040  -19.6660   13.1480 C.3     9  U9          0.1773
    141  O4'       30.3400  -18.9490   13.3530 O.3     9  U9         -0.3307
    142  C3'       28.0830  -18.5740   12.8750 C.3     9  U9          0.1860
    143  O3'       26.7530  -19.0390   13.1080 O.3     9  U9         -0.3112
    144  C2'       28.5220  -17.4800   13.8430 C.3     9  U9          0.2309
    145  O2'       28.0720  -17.6450   15.1740 O.3     9  U9         -0.2156
    146  C1'       30.0480  -17.6360   13.8020 C.3     9  U9          0.2420
    147  N1        30.6630  -16.6790   12.8770 N.ar    9  U9         -0.2534
    148  C2        31.0860  -15.4700   13.4060 C.ar    9  U9          0.3546
    149  O2        31.0540  -15.2160   14.6040 O.2     9  U9         -0.2443
    150  N3        31.5510  -14.5690   12.4850 N.ar    9  U9         -0.1530
    151  C4        31.6490  -14.7520   11.1230 C.ar    9  U9          0.2846
    152  O4        31.9520  -13.7960   10.4140 O.2     9  U9         -0.2650
    153  C5        31.2490  -16.0530   10.6600 C.ar    9  U9          0.0814
    154  C6        30.7820  -16.9520   11.5350 C.ar    9  U9          0.0870
    155  OP1       28.4880  -21.8850    9.5540 O.3     9  U9         -0.4373
    156  OP2       29.5720  -19.9170    8.3220 O.co2   9  U9         -0.5172
    157  P         25.5370  -18.4790   12.2140 P.3    10  G10         0.2141
    158  C5'       25.1570  -16.6790   14.0790 C.3    10  G10         0.1813
    159  O5'       25.4030  -16.9690   12.7060 O.3    10  G10        -0.3114
    160  C4'       24.2150  -15.5070   14.2030 C.3    10  G10         0.1801
    161  O4'       24.9080  -14.2710   13.9390 O.3    10  G10        -0.3306
    162  C3'       23.0650  -15.4810   13.2110 C.3    10  G10         0.2161
    163  O3'       22.0010  -16.2830   13.6740 O.3    10  G10        -0.2175
    164  C2'       22.6270  -14.0280   13.2600 C.3    10  G10         0.2337
    165  O2'       21.7330  -13.8370   14.3310 O.3    10  G10        -0.2155
    166  C1'       23.9560  -13.3060   13.5350 C.3    10  G10         0.2409
    167  N1        25.5850   -8.7920   11.9990 N.ar   10  G10        -0.1709
    168  C2        25.2350   -9.2220   13.2590 C.ar   10  G10         0.2606
    169  N2        25.2880   -8.3130   14.2440 N.pl3  10  G10        -0.0859
    170  N3        24.8540  -10.4520   13.5330 N.ar   10  G10        -0.1918
    171  C4        24.8640  -11.2380   12.4420 C.ar   10  G10         0.1723
    172  C5        25.2030  -10.9180   11.1490 C.ar   10  G10         0.1748
    173  C6        25.5720   -9.5850   10.8520 C.ar   10  G10         0.3023
    174  O6        25.8310   -9.0840    9.7470 O.2    10  G10        -0.2633
    175  N7        25.0900  -12.0240   10.3230 N.ar   10  G10        -0.2173
    176  C8        24.6740  -12.9710   11.1170 C.ar   10  G10         0.1817
    177  N9        24.4900  -12.5480   12.4090 N.ar   10  G10        -0.2693
    178  OP1       24.3110  -19.2110   12.6150 O.3    10  G10        -0.4373
    179  OP2       25.9450  -18.4770   10.7830 O.co2  10  G10        -0.5172
    180  P         15.8240  -16.3680   12.5690 P.3    12  G12         0.1280
    181  C5'       13.4420  -17.5100   12.5190 C.3    12  G12         0.1797
    182  O5'       14.2950  -16.4720   13.0070 O.3    12  G12        -0.3259
    183  C4'       11.9970  -17.0490   12.5280 C.3    12  G12         0.1801
    184  O4'       11.7510  -16.4330   13.8160 O.3    12  G12        -0.3306
    185  C3'       11.6540  -15.9760   11.5050 C.3    12  G12         0.2161
    186  O3'       12.6480  -15.4730   10.6540 O.3    12  G12        -0.2175
    187  C2'       10.6040  -15.1210   12.1890 C.3    12  G12         0.2337
    188  O2'        9.3090  -15.6360   12.0160 O.3    12  G12        -0.2155
    189  C1'       10.9950  -15.2550   13.6560 C.3    12  G12         0.2409
    190  N1        10.8850  -10.3940   14.9930 N.ar   12  G12        -0.1709
    191  C2         9.9110  -11.1660   14.4100 C.ar   12  G12         0.2606
    192  N2         8.7420  -10.5610   14.1660 N.pl3  12  G12        -0.0859
    193  N3        10.0690  -12.4340   14.0910 N.ar   12  G12        -0.1918
    194  C4        11.2940  -12.8770   14.4040 C.ar   12  G12         0.1723
    195  C5        12.3390  -12.1920   14.9830 C.ar   12  G12         0.1748
    196  C6        12.1560  -10.8330   15.3260 C.ar   12  G12         0.3023
    197  O6        12.9560  -10.0570   15.8610 O.2    12  G12        -0.2633
    198  N7        13.4450  -13.0140   15.1290 N.ar   12  G12        -0.2173
    199  C8        13.0530  -14.1650   14.6500 C.ar   12  G12         0.1817
    200  N9        11.7560  -14.1460   14.2070 N.ar   12  G12        -0.2693
    201  OP1       16.6670  -17.0770   13.5580 O.3    12  G12        -0.1955
    202  OP2       15.9400  -16.7150   11.1290 O.co2  12  G12        -0.7863
    203  P         11.0090  -12.2750    5.4680 P.3    14  A14         0.1280
    204  C5'       13.5850  -11.9970    5.0300 C.3    14  A14         0.1795
    205  O5'       12.4510  -11.7150    5.8550 O.3    14  A14        -0.3259
    206  C4'       14.8550  -11.9330    5.8390 C.3    14  A14         0.1772
    207  O4'       14.9480  -10.6330    6.4770 O.3    14  A14        -0.3307
    208  C3'       14.9660  -12.9430    6.9700 C.3    14  A14         0.1860
    209  O3'       16.3480  -13.1290    7.2000 O.3    14  A14        -0.3112
    210  C2'       14.3960  -12.1770    8.1500 C.3    14  A14         0.2309
    211  O2'       14.8700  -12.7110    9.3670 O.3    14  A14        -0.2156
    212  C1'       14.9740  -10.7880    7.8810 C.3    14  A14         0.2408
    213  N1        15.3880   -6.7100   10.9510 N.ar   14  A14        -0.2040
    214  C2        16.2370   -7.6960   10.6380 C.ar   14  A14         0.2016
    215  N3        16.0460   -8.7510    9.8490 N.ar   14  A14        -0.2048
    216  C4        14.8040   -8.7410    9.3390 C.ar   14  A14         0.1692
    217  C5        13.8210   -7.8030    9.5680 C.ar   14  A14         0.1518
    218  C6        14.1500   -6.7340   10.4190 C.ar   14  A14         0.1919
    219  N6        13.3160   -5.7430   10.7260 N.pl3  14  A14        -0.1054
    220  N7        12.6700   -8.1200    8.8650 N.ar   14  A14        -0.2193
    221  C8        12.9800   -9.2260    8.2330 C.ar   14  A14         0.1816
    222  N9        14.2640   -9.6470    8.4610 N.ar   14  A14        -0.2693
    223  OP1       10.6180  -11.7520    4.1350 O.3    14  A14        -0.1955
    224  OP2       11.0290  -13.7420    5.6960 O.co2  14  A14        -0.7863
    225  P         17.0310  -14.5420    6.8800 P.3    15  U15         0.2141
    226  C5'       19.2180  -13.6380    5.7370 C.3    15  U15         0.1812
    227  O5'       18.5890  -14.1930    6.8910 O.3    15  U15        -0.3114
    228  C4'       20.7170  -13.4790    5.9420 C.3    15  U15         0.1773
    229  O4'       21.0190  -12.3220    6.7710 O.3    15  U15        -0.3307
    230  C3'       21.4510  -14.6480    6.5920 C.3    15  U15         0.1860
    231  O3'       22.7060  -14.7900    5.9510 O.3    15  U15        -0.3112
    232  C2'       21.7890  -14.1010    7.9700 C.3    15  U15         0.2309
    233  O2'       22.9590  -14.6930    8.4670 O.3    15  U15        -0.2156
    234  C1'       22.0900  -12.6550    7.6120 C.3    15  U15         0.2420
    235  N1        22.1440  -11.6920    8.7160 N.ar   15  U15        -0.2534
    236  C2        22.6300  -10.4390    8.4260 C.ar   15  U15         0.3546
    237  O2        22.9920  -10.1200    7.3070 O.2    15  U15        -0.2443
    238  N3        22.6690   -9.5670    9.4840 N.ar   15  U15        -0.1530
    239  C4        22.2640   -9.8140   10.7780 C.ar   15  U15         0.2846
    240  O4        22.2760   -8.8990   11.6070 O.2    15  U15        -0.2650
    241  C5        21.7770  -11.1420   11.0000 C.ar   15  U15         0.0814
    242  C6        21.7350  -12.0130    9.9820 C.ar   15  U15         0.0870
    243  OP1       16.6610  -14.9650    5.4960 O.2    15  U15        -0.5172
    244  OP2       16.7090  -15.4250    8.0290 O.co2  15  U15        -0.4373
    245  P         22.8020  -15.5440    4.5370 P.3    16  A16         0.2141
    246  C5'       24.4940  -13.6160    3.9220 C.3    16  A16         0.1812
    247  O5'       23.3610  -14.4140    3.5560 O.3    16  A16        -0.3114
    248  C4'       25.0440  -12.8790    2.7170 C.3    16  A16         0.1773
    249  O4'       24.0480  -11.9580    2.1910 O.3    16  A16        -0.3307
    250  C3'       26.2510  -12.0000    3.0020 C.3    16  A16         0.1860
    251  O3'       27.4500  -12.7650    3.0290 O.3    16  A16        -0.3112
    252  C2'       26.1970  -10.9930    1.8610 C.3    16  A16         0.2309
    253  O2'       26.7120  -11.4980    0.6490 O.3    16  A16        -0.2156
    254  C1'       24.6850  -10.7730    1.7280 C.3    16  A16         0.2408
    255  N1        25.4100   -5.8390    3.0180 N.ar   16  A16        -0.2040
    256  C2        25.9540   -6.6120    2.0630 C.ar   16  A16         0.2016
    257  N3        25.6960   -7.8860    1.7550 N.ar   16  A16        -0.2048
    258  C4        24.7370   -8.3810    2.5580 C.ar   16  A16         0.1692
    259  C5        24.0740   -7.7080    3.5730 C.ar   16  A16         0.1518
    260  C6        24.4540   -6.3710    3.8100 C.ar   16  A16         0.1919
    261  N6        23.9320   -5.6130    4.7760 N.pl3  16  A16        -0.1054
    262  N7        23.1280   -8.5310    4.1720 N.ar   16  A16        -0.2193
    263  C8        23.2520   -9.6700    3.5300 C.ar   16  A16         0.1816
    264  N9        24.2280   -9.6580    2.5600 N.ar   16  A16        -0.2693
    265  OP1       21.4260  -15.9120    4.0910 O.2    16  A16        -0.5172
    266  OP2       23.8380  -16.6050    4.6680 O.co2  16  A16        -0.4373
    267  P         28.5870  -12.4210    4.1110 P.3    17  A17         0.2141
    268  C5'       29.7710  -11.0700    2.1730 C.3    17  A17         0.1813
    269  O5'       29.2960  -11.1200    3.5190 O.3    17  A17        -0.3114
    270  C4'       30.2190   -9.6670    1.8490 C.3    17  A17         0.1801
    271  O4'       29.0630   -8.7890    1.8470 O.3    17  A17        -0.3306
    272  C3'       31.1510   -9.0550    2.8820 C.3    17  A17         0.2161
    273  O3'       32.5000   -9.4440    2.6970 O.3    17  A17        -0.2175
    274  C2'       30.9140   -7.5610    2.7090 C.3    17  A17         0.2337
    275  O2'       31.6070   -6.9880    1.6200 O.3    17  A17        -0.2155
    276  C1'       29.4110   -7.5390    2.4300 C.3    17  A17         0.2409
    277  N1        28.1480   -4.3760    6.2780 N.ar   17  A17        -0.2040
    278  C2        28.9980   -4.2560    5.2610 C.ar   17  A17         0.2016
    279  N3        29.2940   -5.1270    4.3000 N.ar   17  A17        -0.2048
    280  C4        28.5950   -6.2600    4.4520 C.ar   17  A17         0.1692
    281  C5        27.6880   -6.5400    5.4560 C.ar   17  A17         0.1518
    282  C6        27.4600   -5.5290    6.4070 C.ar   17  A17         0.1919
    283  N6        26.6000   -5.6440    7.4210 N.pl3  17  A17        -0.1054
    284  N7        27.1720   -7.8210    5.3050 N.ar   17  A17        -0.2193
    285  C8        27.7620   -8.2730    4.2240 C.ar   17  A17         0.1816
    286  N9        28.6250   -7.3730    3.6490 N.ar   17  A17        -0.2693
    287  OP1       29.5680  -13.5370    4.1220 O.2    17  A17        -0.5172
    288  OP2       27.9180  -12.0230    5.3710 O.co2  17  A17        -0.4373
    289  P         37.4440   -5.5150   12.8690 P.3    20  A20         0.1280
    290  C5'       36.0140   -5.2340   15.0440 C.3    20  A20         0.1797
    291  O5'       36.5390   -6.1010   14.0420 O.3    20  A20        -0.3259
    292  C4'       34.9620   -5.9460   15.8530 C.3    20  A20         0.1801
    293  O4'       33.8230   -6.2620   15.0150 O.3    20  A20        -0.3306
    294  C3'       35.3880   -7.2860   16.4280 C.3    20  A20         0.2161
    295  O3'       36.1290   -7.0940   17.6240 O.3    20  A20        -0.2175
    296  C2'       34.0510   -7.9750   16.6460 C.3    20  A20         0.2337
    297  O2'       33.3950   -7.5040   17.8090 O.3    20  A20        -0.2155
    298  C1'       33.2850   -7.5130   15.4020 C.3    20  A20         0.2409
    299  N1        32.0460  -12.0230   13.2790 N.ar   20  A20        -0.2040
    300  C2        31.6450  -11.4220   14.4050 C.ar   20  A20         0.2016
    301  N3        32.0000  -10.2390   14.9020 N.ar   20  A20        -0.2048
    302  C4        32.8780   -9.6340   14.0930 C.ar   20  A20         0.1692
    303  C5        33.3810  -10.1210   12.9050 C.ar   20  A20         0.1518
    304  C6        32.9380  -11.3870   12.4950 C.ar   20  A20         0.1919
    305  N6        33.3540  -11.9930   11.3860 N.pl3  20  A20        -0.1054
    306  N7        34.2670   -9.2170   12.3450 N.ar   20  A20        -0.2193
    307  C8        34.2810   -8.2240   13.1970 C.ar   20  A20         0.1816
    308  N9        33.4700   -8.4160   14.2780 N.ar   20  A20        -0.2693
    309  OP1       38.5510   -4.7510   13.5050 O.3    20  A20        -0.1955
    310  OP2       37.7520   -6.6090   11.9040 O.co2  20  A20        -0.7863
    311  P         36.3320  -20.5730   20.8070 P.3    23  U23         0.1280
    312  C5'       33.8310  -20.3330   21.4340 C.3    23  U23         0.1797
    313  O5'       34.8810  -21.1760   21.0090 O.3    23  U23        -0.3259
    314  C4'       32.5170  -20.9960   21.1770 C.3    23  U23         0.1801
    315  O4'       32.4320  -21.2910   19.7580 O.3    23  U23        -0.3306
    316  C3'       32.3290  -22.3300   21.8790 C.3    23  U23         0.2161
    317  O3'       32.1210  -22.4610   23.2730 O.3    23  U23        -0.2175
    318  C2'       32.5880  -23.3920   20.8170 C.3    23  U23         0.2338
    319  O2'       31.7900  -24.5560   20.9720 O.3    23  U23        -0.2155
    320  C1'       32.1260  -22.6570   19.5650 C.3    23  U23         0.2421
    321  N1        32.8040  -23.1100   18.3470 N.ar   23  U23        -0.2534
    322  C2        32.1800  -24.0860   17.6050 C.ar   23  U23         0.3546
    323  O2        31.1150  -24.5820   17.9250 O.2    23  U23        -0.2443
    324  N3        32.8450  -24.4680   16.4730 N.ar   23  U23        -0.1530
    325  C4        34.0510  -23.9880   16.0190 C.ar   23  U23         0.2846
    326  O4        34.5240  -24.4400   14.9760 O.2    23  U23        -0.2650
    327  C5        34.6420  -22.9790   16.8460 C.ar   23  U23         0.0814
    328  C6        34.0090  -22.5840   17.9590 C.ar   23  U23         0.0870
    329  OP1       36.8030  -20.0770   22.1230 O.3    23  U23        -0.1955
    330  OP2       37.1630  -21.5240   20.0260 O.co2  23  U23        -0.7863
    331  P         28.0140  -18.1780   21.4650 P.3    25  A25         0.1280
    332  C5'       30.3400  -17.0020   21.2540 C.3    25  A25         0.1795
    333  O5'       29.4630  -18.0370   20.8420 O.3    25  A25        -0.3259
    334  C4'       31.2710  -16.6760   20.1240 C.3    25  A25         0.1772
    335  O4'       31.8330  -17.9240   19.6500 O.3    25  A25        -0.3307
    336  C3'       30.5940  -16.1060   18.8930 C.3    25  A25         0.1860
    337  O3'       30.4230  -14.7120   19.0610 O.3    25  A25        -0.3112
    338  C2'       31.5720  -16.4690   17.7840 C.3    25  A25         0.2309
    339  O2'       32.6850  -15.6030   17.7680 O.3    25  A25        -0.2156
    340  C1'       32.0650  -17.8390   18.2570 C.3    25  A25         0.2408
    341  N1        32.5750  -21.0680   14.3480 N.ar   25  A25        -0.2040
    342  C2        33.2820  -20.0070   14.7590 C.ar   25  A25         0.2016
    343  N3        33.0810  -19.2120   15.8030 N.ar   25  A25        -0.2048
    344  C4        31.9940  -19.6010   16.4860 C.ar   25  A25         0.1692
    345  C5        31.1650  -20.6720   16.1990 C.ar   25  A25         0.1518
    346  C6        31.4920  -21.4400   15.0530 C.ar   25  A25         0.1919
    347  N6        30.8040  -22.5010   14.6230 N.pl3  25  A25        -0.1054
    348  N7        30.1430  -20.7590   17.1360 N.ar   25  A25        -0.2193
    349  C8        30.3730  -19.7510   17.9490 C.ar   25  A25         0.1816
    350  N9        31.4790  -19.0110   17.6090 N.ar   25  A25        -0.2693
    351  OP1       27.3090  -16.8730   21.3160 O.3    25  A25        -0.1955
    352  OP2       27.4340  -19.4190   20.8810 O.co2  25  A25        -0.7863
    353  P         29.0150  -14.1530   19.5710 P.3    26  G26         0.2141
    354  C5'       28.6740  -11.5650   19.2520 C.3    26  G26         0.1812
    355  O5'       28.7840  -12.8620   18.6670 O.3    26  G26        -0.3114
    356  C4'       27.4150  -10.8900   18.7740 C.3    26  G26         0.1773
    357  O4'       27.6050  -10.4640   17.3970 O.3    26  G26        -0.3307
    358  C3'       26.1800  -11.7850   18.7750 C.3    26  G26         0.1860
    359  O3'       24.9890  -11.0360   19.0050 O.3    26  G26        -0.3112
    360  C2'       26.1580  -12.2990   17.3460 C.3    26  G26         0.2309
    361  O2'       24.8760  -12.7100   16.9200 O.3    26  G26        -0.2156
    362  C1'       26.6140  -11.0550   16.5910 C.3    26  G26         0.2408
    363  N1        29.5880   -9.3870   12.8510 N.ar   26  G26        -0.1709
    364  C2        29.3510   -8.8410   14.0860 C.ar   26  G26         0.2606
    365  N2        29.9740   -7.6920   14.3400 N.pl3  26  G26        -0.0859
    366  N3        28.5700   -9.3820   15.0010 N.ar   26  G26        -0.1918
    367  C4        28.0470  -10.5450   14.5800 C.ar   26  G26         0.1723
    368  C5        28.2290  -11.1870   13.3730 C.ar   26  G26         0.1748
    369  C6        29.0510  -10.5850   12.3920 C.ar   26  G26         0.3023
    370  O6        29.3100  -10.9920   11.2390 O.2    26  G26        -0.2633
    371  N7        27.5200  -12.3790   13.3370 N.ar   26  G26        -0.2173
    372  C8        26.9240  -12.4280   14.4940 C.ar   26  G26         0.1817
    373  N9        27.1820  -11.3360   15.2820 N.ar   26  G26        -0.2693
    374  OP1       29.2270  -13.7440   20.9790 O.3    26  G26        -0.4373
    375  OP2       27.9620  -15.1530   19.2530 O.co2  26  G26        -0.5172
    376  P         24.8250  -10.1910   20.3580 P.3    27  U27         0.2141
    377  C5'       24.0210   -7.7410   19.9790 C.3    27  U27         0.1812
    378  O5'       25.0570   -8.6990   19.8690 O.3    27  U27        -0.3114
    379  C4'       24.0930   -6.7610   18.8390 C.3    27  U27         0.1773
    380  O4'       24.1980   -7.4910   17.5870 O.3    27  U27        -0.3307
    381  C3'       22.8580   -5.8850   18.7010 C.3    27  U27         0.1860
    382  O3'       23.2400   -4.6580   18.1000 O.3    27  U27        -0.3112
    383  C2'       22.0160   -6.6960   17.7320 C.3    27  U27         0.2309
    384  O2'       21.0380   -5.9560   17.0420 O.3    27  U27        -0.2156
    385  C1'       23.0960   -7.1830   16.7740 C.3    27  U27         0.2420
    386  N1        22.7170   -8.3880   16.0380 N.ar   27  U27        -0.2534
    387  C2        22.0540   -8.2210   14.8530 C.ar   27  U27         0.3546
    388  O2        21.8200   -7.1310   14.3770 O.2    27  U27        -0.2443
    389  N3        21.6760   -9.3750   14.2320 N.ar   27  U27        -0.1530
    390  C4        21.8980  -10.6540   14.6640 C.ar   27  U27         0.2846
    391  O4        21.3980  -11.5900   14.0460 O.2    27  U27        -0.2650
    392  C5        22.6250  -10.7470   15.8850 C.ar   27  U27         0.0814
    393  C6        23.0000   -9.6320   16.5170 C.ar   27  U27         0.0870
    394  OP1       25.9160  -10.4690   21.3350 O.3    27  U27        -0.4373
    395  OP2       23.4140  -10.3360   20.7740 O.co2  27  U27        -0.5172
    396  P         24.0670   -3.5660   18.9460 P.3    28  G28         0.2141
    397  C5'       26.4280   -2.4930   18.5260 C.3    28  G28         0.1813
    398  O5'       25.3950   -3.3710   18.0870 O.3    28  G28        -0.3114
    399  C4'       27.2880   -2.0410   17.3580 C.3    28  G28         0.1801
    400  O4'       28.0200   -3.1440   16.7770 O.3    28  G28        -0.3306
    401  C3'       26.5540   -1.4490   16.1680 C.3    28  G28         0.2161
    402  O3'       26.1530   -0.1160   16.4350 O.3    28  G28        -0.2175
    403  C2'       27.6130   -1.5250   15.0750 C.3    28  G28         0.2337
    404  O2'       28.5800   -0.5000   15.1540 O.3    28  G28        -0.2155
    405  C1'       28.2990   -2.8430   15.4220 C.3    28  G28         0.2409
    406  N1        28.5920   -5.0590   10.8930 N.ar   28  G28        -0.1709
    407  C2        29.2300   -3.9370   11.3620 C.ar   28  G28         0.2606
    408  N2        30.0730   -3.3310   10.5100 N.pl3  28  G28        -0.0859
    409  N3        29.0600   -3.4430   12.5750 N.ar   28  G28        -0.1918
    410  C4        28.1920   -4.1780   13.2990 C.ar   28  G28         0.1723
    411  C5        27.5030   -5.3100   12.9290 C.ar   28  G28         0.1748
    412  C6        27.6860   -5.8260   11.6190 C.ar   28  G28         0.3023
    413  O6        27.1510   -6.8160   11.0960 O.2    28  G28        -0.2633
    414  N7        26.7130   -5.7650   13.9750 N.ar   28  G28        -0.2173
    415  C8        26.9350   -4.9170   14.9410 C.ar   28  G28         0.1817
    416  N9        27.8230   -3.9360   14.5950 N.ar   28  G28        -0.2693
    417  OP1       24.4420   -4.1380   20.2570 O.3    28  G28        -0.4373
    418  OP2       23.3090   -2.2900   18.9020 O.co2  28  G28        -0.5172
    419  P         22.9470    1.7500   10.3030 P.3    30  G30         0.1280
    420  C5'       20.8360    1.4980   11.8730 C.3    30  G30         0.1795
    421  O5'       22.0310    0.9340   11.3240 O.3    30  G30        -0.3259
    422  C4'       20.2840    0.6060   12.9700 C.3    30  G30         0.1772
    423  O4'       19.8700   -0.6740   12.4120 O.3    30  G30        -0.3307
    424  C3'       21.2630    0.2630   14.0830 C.3    30  G30         0.1860
    425  O3'       20.5210    0.0810   15.2780 O.3    30  G30        -0.3112
    426  C2'       21.8500   -1.0580   13.6060 C.3    30  G30         0.2309
    427  O2'       22.3640   -1.8350   14.6510 O.3    30  G30        -0.2156
    428  C1'       20.6200   -1.7250   13.0000 C.3    30  G30         0.2408
    429  N1        19.9490   -6.4780   11.2540 N.ar   30  G30        -0.1709
    430  C2        19.5220   -5.9270   12.4300 C.ar   30  G30         0.2606
    431  N2        18.8140   -6.7370   13.2210 N.pl3  30  G30        -0.0859
    432  N3        19.7690   -4.6740   12.8010 N.ar   30  G30        -0.1918
    433  C4        20.5010   -4.0110   11.8780 C.ar   30  G30         0.1723
    434  C5        20.9780   -4.4770   10.6710 C.ar   30  G30         0.1748
    435  C6        20.6900   -5.8160   10.2860 C.ar   30  G30         0.3023
    436  O6        21.0010   -6.4030    9.2460 O.2    30  G30        -0.2633
    437  N7        21.6930   -3.4880   10.0080 N.ar   30  G30        -0.2173
    438  C8        21.6340   -2.4540   10.8060 C.ar   30  G30         0.1817
    439  N9        20.9140   -2.6930   11.9490 N.ar   30  G30        -0.2693
    440  OP1       22.9450    1.0580    8.9750 O.3    30  G30        -0.1955
    441  OP2       22.5770    3.1820   10.3920 O.co2  30  G30        -0.7863
    442  P         20.9740    0.8510   16.6130 P.3    31  A31         0.2141
    443  C5'       18.6120    1.5860   17.3850 C.3    31  A31         0.1812
    444  O5'       19.8600    1.9510   16.8560 O.3    31  A31        -0.3114
    445  C4'       17.5310    1.9310   16.4090 C.3    31  A31         0.1773
    446  O4'       17.8500    1.4100   15.0950 O.3    31  A31        -0.3307
    447  C3'       16.1830    1.3260   16.7350 C.3    31  A31         0.1860
    448  O3'       15.5650    2.1340   17.7100 O.3    31  A31        -0.3112
    449  C2'       15.4860    1.3320   15.3830 C.3    31  A31         0.2309
    450  O2'       14.9930    2.6100   15.0720 O.3    31  A31        -0.2156
    451  C1'       16.6530    1.0250   14.4380 C.3    31  A31         0.2408
    452  N1        14.6870   -2.8500   11.6960 N.ar   31  A31        -0.2040
    453  C2        14.3170   -1.5650   11.8430 C.ar   31  A31         0.2016
    454  N3        14.8750   -0.6030   12.5790 N.ar   31  A31        -0.2048
    455  C4        15.9490   -1.0750   13.2250 C.ar   31  A31         0.1692
    456  C5        16.4510   -2.3640   13.1750 C.ar   31  A31         0.1518
    457  C6        15.7720   -3.2860   12.3630 C.ar   31  A31         0.1919
    458  N6        16.1370   -4.5560   12.2130 N.pl3  31  A31        -0.1054
    459  N7        17.5750   -2.4810   13.9730 N.ar   31  A31        -0.2193
    460  C8        17.7260   -1.2790   14.4790 C.ar   31  A31         0.1816
    461  N9        16.7750   -0.3820   14.0670 N.ar   31  A31        -0.2693
    462  OP1       22.2300    1.5780   16.2960 O.2    31  A31        -0.5172
    463  OP2       20.9190   -0.0880   17.7730 O.co2  31  A31        -0.4373
    464  P         14.3670    1.5340   18.5750 P.3    32  G32         0.2141
    465  C5'       12.3490    0.1220   17.7100 C.3    32  G32         0.1813
    466  O5'       13.3360    1.0900   17.4530 O.3    32  G32        -0.3114
    467  C4'       11.6670   -0.2250   16.4230 C.3    32  G32         0.1801
    468  O4'       12.6410   -0.7430   15.4840 O.3    32  G32        -0.3306
    469  C3'       10.6140   -1.3140   16.5130 C.3    32  G32         0.2161
    470  O3'        9.3990   -0.7760   17.0350 O.3    32  G32        -0.2175
    471  C2'       10.5510   -1.8210   15.0720 C.3    32  G32         0.2337
    472  O2'        9.8080   -1.0060   14.1940 O.3    32  G32        -0.2155
    473  C1'       12.0230   -1.7180   14.6590 C.3    32  G32         0.2409
    474  N1        12.3400   -6.5750   13.2470 N.ar   32  G32        -0.1709
    475  C2        11.3870   -5.6410   12.9480 C.ar   32  G32         0.2606
    476  N2        10.3880   -6.0560   12.1530 N.pl3  32  G32        -0.0859
    477  N3        11.4040   -4.3950   13.3930 N.ar   32  G32        -0.1918
    478  C4        12.4640   -4.1580   14.1860 C.ar   32  G32         0.1723
    479  C5        13.4650   -5.0200   14.5580 C.ar   32  G32         0.1748
    480  C6        13.4410   -6.3540   14.0590 C.ar   32  G32         0.3023
    481  O6        14.2480   -7.2700   14.2580 O.2    32  G32        -0.2633
    482  N7        14.3690   -4.3890   15.4020 N.ar   32  G32        -0.2173
    483  C8        13.9110   -3.1730   15.5120 C.ar   32  G32         0.1817
    484  N9        12.7660   -2.9640   14.7880 N.ar   32  G32        -0.2693
    485  OP1       13.7690    2.6360   19.3870 O.3    32  G32        -0.4373
    486  OP2       14.8760    0.3110   19.2480 O.co2  32  G32        -0.5172
    487  P          4.5090   -5.2870   17.8560 P.3    34  A34         0.1280
    488  C5'        4.0000   -7.5280   16.6530 C.3    34  A34         0.1795
    489  O5'        4.7230   -6.8500   17.6700 O.3    34  A34        -0.3259
    490  C4'        4.4590   -8.9550   16.5400 C.3    34  A34         0.1772
    491  O4'        5.8370   -8.9990   16.0950 O.3    34  A34        -0.3307
    492  C3'        4.4670   -9.7490   17.8350 C.3    34  A34         0.1860
    493  O3'        3.1710  -10.2220   18.1680 O.3    34  A34        -0.3112
    494  C2'        5.4360  -10.8720   17.5010 C.3    34  A34         0.2309
    495  O2'        4.8360  -11.8300   16.6500 O.3    34  A34        -0.2156
    496  C1'        6.4920  -10.1070   16.6960 C.3    34  A34         0.2408
    497  N1        11.1260  -11.0890   18.6770 N.ar   34  A34        -0.2040
    498  C2        10.2960  -11.8190   17.9160 C.ar   34  A34         0.2016
    499  N3         9.0930  -11.5020   17.4360 N.ar   34  A34        -0.2048
    500  C4         8.7430  -10.2630   17.8250 C.ar   34  A34         0.1692
    501  C5         9.4860   -9.3970   18.6110 C.ar   34  A34         0.1518
    502  C6        10.7410   -9.8470   19.0430 C.ar   34  A34         0.1919
    503  N6        11.5660   -9.1170   19.7850 N.pl3  34  A34        -0.1054
    504  N7         8.8010   -8.2060   18.8150 N.ar   34  A34        -0.2193
    505  C8         7.6800   -8.3730   18.1500 C.ar   34  A34         0.1816
    506  N9         7.5830   -9.5950   17.5230 N.ar   34  A34        -0.2693
    507  OP1        3.0490   -5.0510   17.9880 O.3    34  A34        -0.1955
    508  OP2        5.4410   -4.7580   18.8900 O.co2  34  A34        -0.7863
    509  P          2.8010  -10.4870   19.7050 P.3    35  A35         0.2141
    510  C5'        3.3620  -13.0260   19.4810 C.3    35  A35         0.1813
    511  O5'        3.6510  -11.7740   20.0820 O.3    35  A35        -0.3114
    512  C4'        4.3590  -14.0570   19.9370 C.3    35  A35         0.1801
    513  O4'        5.6750  -13.7280   19.4160 O.3    35  A35        -0.3306
    514  C3'        4.5620  -14.1430   21.4420 C.3    35  A35         0.2161
    515  O3'        3.4470  -14.6970   22.1850 O.3    35  A35        -0.2175
    516  C2'        5.9440  -14.7870   21.5340 C.3    35  A35         0.2337
    517  O2'        5.9330  -16.1870   21.3250 O.3    35  A35        -0.2155
    518  C1'        6.6640  -14.1110   20.3590 C.3    35  A35         0.2409
    519  N1        11.0900  -12.1450   22.0460 N.ar   35  A35        -0.2040
    520  C2        10.7670  -13.3520   21.5600 C.ar   35  A35         0.2016
    521  N3         9.5990  -13.7910   21.1050 N.ar   35  A35        -0.2048
    522  C4         8.6760  -12.8200   21.1650 C.ar   35  A35         0.1692
    523  C5         8.8560  -11.5300   21.6250 C.ar   35  A35         0.1518
    524  C6        10.1320  -11.1950   22.1030 C.ar   35  A35         0.1919
    525  N6        10.4430  -10.0010   22.6190 N.pl3  35  A35        -0.1054
    526  N7         7.6830  -10.8010   21.5090 N.ar   35  A35        -0.2193
    527  C8         6.8290  -11.6600   21.0070 C.ar   35  A35         0.1816
    528  N9         7.3570  -12.9080   20.8050 N.ar   35  A35        -0.2693
    529  OP1        1.3670  -10.8530   19.7200 O.2    35  A35        -0.5172
    530  OP2        3.2950   -9.3700   20.5610 O.co2  35  A35        -0.4373
@<TRIPOS>BOND
     1   253   252    1
     2   275   274    1
     3   112    91    1
     4   254   252    1
     5   254   249    1
     6   254   264    1
     7   257   256   ar
     8   257   258   ar
     9   271   270    1
    10   271   276    1
    11   270   268    1
    12   270   272    1
    13   252   250    1
    14   256   255   ar
    15   268   269    1
    16   249   248    1
    17   276   274    1
    18   276   286    1
    19   258   264   ar
    20   258   259   ar
    21   264   263   ar
    22    91   113    1
    23    91    93    1
    24   273   272    1
    25   274   272    1
    26   248   250    1
    27   248   246    1
    28   250   251    1
    29   255   260   ar
    30   251   267    1
    31   269   267    1
    32   263   262   ar
    33   247   246    1
    34   247   245    1
    35   259   260   ar
    36   259   262   ar
    37   286   285   ar
    38   286   280   ar
    39   260   261    1
    40    92    93    1
    41    92    94    1
    42   265   245    2
    43   267   287    2
    44   267   288    1
    45   223   203    1
    46   285   284   ar
    47   279   280   ar
    48   279   278   ar
    49   280   281   ar
    50    75    74    1
    51   245   266    1
    52   245   231    1
    53   135   114    2
    54   136   114    1
    55    77    76    1
    56   204   206    1
    57   204   205    1
    58    94    96    1
    59    94    95    1
    60    97   114    1
    61    97    96    1
    62   278   277   ar
    63   284   281   ar
    64   114   116    1
    65    89    69    2
    66    55    54    1
    67   281   282   ar
    68   203   224    1
    69   203   205    1
    70   243   225    2
    71   226   228    1
    72   226   227    1
    73    96    98    1
    74    74    76    1
    75    74    72    1
    76   206   207    1
    77   206   208    1
    78   228   230    1
    79   228   229    1
    80   231   230    1
    81    76    78    1
    82    95   100    1
    83    53    69    1
    84    53    52    1
    85   277   282   ar
    86    72    70    1
    87    72    73    1
    88   282   283    1
    89   207   212    1
    90   230   232    1
    91    69    71    1
    92    69    90    1
    93   229   234    1
    94    54    52    1
    95    54    56    1
    96    70    71    1
    97   225   227    1
    98   225   209    1
    99   225   244    1
   100   116   115    1
   101   208   209    1
   102   208   210    1
   103    78    73    1
   104    78    88    1
   105    52    50    1
   106    98    99    1
   107    98   100    1
   108   237   236    2
   109   110   111   ar
   110   110   109   ar
   111   100   111    1
   112    81    80   ar
   113    81    82   ar
   114    50    51    1
   115    50    48    1
   116    36    35    1
   117   234   232    1
   118   234   235    1
   119   115   117    1
   120    56    51    1
   121    56    66    1
   122    59    58   ar
   123    59    60   ar
   124   212   210    1
   125   212   222    1
   126    80    79   ar
   127   232   233    1
   128   111   105   ar
   129    58    57   ar
   130   109   106   ar
   131   210   211    1
   132   221   222   ar
   133   221   220   ar
   134   156   137    2
   135    48    49    1
   136   236   235   ar
   137   236   238   ar
   138    88    82   ar
   139    88    87   ar
   140   222   216   ar
   141    82    83   ar
   142   235   242   ar
   143    60    66   ar
   144    60    61   ar
   145    66    65   ar
   146   220   217   ar
   147    35    37   ar
   148    35    34   ar
   149   132   133   ar
   150   132   129   ar
   151   133   134   ar
   152   440   419    1
   153   117   119    1
   154   117   118    1
   155    79    84   ar
   156   436   435    2
   157    57    62   ar
   158   216   217   ar
   159   216   215   ar
   160   105   106   ar
   161   105   104   ar
   162   106   107   ar
   163    37    38   ar
   164   137   120    1
   165   137   155    1
   166   137   139    1
   167   238   239   ar
   168   119   120    1
   169   119   121    1
   170    34    40   ar
   171   217   218   ar
   172   118   123    1
   173    49    47    1
   174    87    86   ar
   175   174   173    2
   176    32    31    1
   177   215   214   ar
   178    83    84   ar
   179    83    86   ar
   180   242   241   ar
   181   437   434   ar
   182   437   438   ar
   183    61    62   ar
   184    61    64   ar
   185   131   130    2
   186    65    64   ar
   187   129   130   ar
   188   129   128   ar
   189    84    85    1
   190   134   123    1
   191   134   128   ar
   192   435   434   ar
   193   435   429   ar
   194   419   441    1
   195   419   421    1
   196   175   176   ar
   197   175   172   ar
   198    31    29    1
   199    31    33    1
   200    62    63    1
   201   104   102   ar
   202   152   151    2
   203   218   219    1
   204   218   213   ar
   205   408   407    1
   206   214   213   ar
   207   186   185    1
   208   123   121    1
   209   153   151   ar
   210   153   154   ar
   211   434   433   ar
   212   107   108    2
   213   107   101   ar
   214   130   124   ar
   215   239   241   ar
   216   239   240    2
   217   179   157    2
   218    38    39   ar
   219    38    44   ar
   220    30    47    1
   221    30    29    1
   222   438   439   ar
   223   139   138    1
   224    67    47    2
   225   173   172   ar
   226   173   167   ar
   227   121   122    1
   228   406   407   ar
   229   406   412   ar
   230    40    41    2
   231    40    39   ar
   232    47    68    1
   233   128   127   ar
   234   413   412    2
   235   176   177   ar
   236   151   150   ar
   237   202   180    1
   238   172   171   ar
   239   370   369    2
   240   429   430   ar
   241    29    27    1
   242   421   420    1
   243   407   409   ar
   244    33    44    1
   245    33    28    1
   246   305   304    1
   247    13    12    1
   248   185   187    1
   249   185   183    1
   250   154   147   ar
   251    39    42   ar
   252   102   101   ar
   253   102   103    1
   254   412   411   ar
   255    44    43   ar
   256   452   453   ar
   257   452   457   ar
   258   453   454   ar
   259   420   422    1
   260   433   439   ar
   261   433   432   ar
   262   310   289    1
   263   439   428    1
   264   167   168   ar
   265   188   187    1
   266   138   140    1
   267   124   125   ar
   268   476   475    1
   269   187   189    1
   270   458   457    1
   271   157   178    1
   272   157   159    1
   273   157   143    1
   274    11    12   ar
   275    11    17   ar
   276   306   303   ar
   277   306   307   ar
   278   457   456   ar
   279   127   125   ar
   280   369   363   ar
   281   369   368   ar
   282   177   171   ar
   283   177   166    1
   284   423   422    1
   285   423   428    1
   286   430   432   ar
   287   430   431    1
   288   171   170   ar
   289   150   148   ar
   290   304   303   ar
   291   304   299   ar
   292    12    14   ar
   293   181   183    1
   294   181   182    1
   295    27    28    1
   296    27    25    1
   297   183   184    1
   298   180   182    1
   299   180   201    1
   300   409   410   ar
   301   454   455   ar
   302   159   158    1
   303   363   364   ar
   304   289   309    1
   305   289   291    1
   306   125   126    1
   307   142   143    1
   308   142   140    1
   309   142   144    1
   310   147   148   ar
   311   147   146    1
   312    18    17    2
   313   303   302   ar
   314    42    43   ar
   315   411   410   ar
   316   411   414   ar
   317   475   474   ar
   318   475   477   ar
   319   422   424    1
   320   428   426    1
   321   140   141    1
   322   456   455   ar
   323   456   459   ar
   324   307   308   ar
   325   162   164    1
   326   162   163    1
   327   162   160    1
   328    17    16   ar
   329   455   461   ar
   330   474   480   ar
   331   168   170   ar
   332   168   169    1
   333   164   166    1
   334   164   165    1
   335   299   300   ar
   336   410   416   ar
   337   371   368   ar
   338   371   372   ar
   339   141   146    1
   340   368   367   ar
   341   477   478   ar
   342   148   149    2
   343   166   161    1
   344   426   424    1
   345   426   427    1
   346   189   184    1
   347   189   200    1
   348    14    15   ar
   349    25    26    1
   350   146   144    1
   351   144   145    1
   352   161   160    1
   353   459   460   ar
   354   414   415   ar
   355   291   290    1
   356   391   390    2
   357   480   481    2
   358   480   479   ar
   359   461   451    1
   360   461   460   ar
   361   158   160    1
   362   424   425    1
   363   364   365    1
   364   364   366   ar
   365   193   194   ar
   366   193   191   ar
   367   302   308   ar
   368   302   301   ar
   369   192   191    1
   370   478   479   ar
   371   478   484   ar
   372   472   471    1
   373   200   194   ar
   374   200   199   ar
   375   389   390   ar
   376   389   387   ar
   377   308   298    1
   378   341   342   ar
   379   341   346   ar
   380   388   387    2
   381   194   195   ar
   382   300   301   ar
   383   191   190   ar
   384   451   446    1
   385   451   449    1
   386   372   373   ar
   387    16    15   ar
   388    16    19   ar
   389   479   482   ar
   390   367   366   ar
   391   367   373   ar
   392   416   415   ar
   393   416   405    1
   394   347   346    1
   395   199   198   ar
   396   473   484    1
   397   473   471    1
   398   473   468    1
   399    15    21   ar
   400   390   392   ar
   401   342   343   ar
   402   484   483   ar
   403   387   386   ar
   404    26    24    1
   405   326   325    2
   406   195   198   ar
   407   195   196   ar
   408   190   196   ar
   409   293   298    1
   410   293   292    1
   411   290   292    1
   412   346   345   ar
   413   450   449    1
   414   471   469    1
   415   403   404    1
   416   403   405    1
   417   403   401    1
   418   446   445    1
   419   425   442    1
   420   373   362    1
   421   196   197    2
   422   449   447    1
   423   482   483   ar
   424   298   296    1
   425   405   400    1
   426   468   467    1
   427    19    20   ar
   428   343   344   ar
   429   292   294    1
   430   392   393   ar
   431    21    20   ar
   432    21    10    1
   433   325   324   ar
   434   325   327   ar
   435   386   393   ar
   436   386   385    1
   437   491   490    1
   438   491   496    1
   439     9     8    1
   440     8    10    1
   441     8     6    1
   442   401   402    1
   443   401   399    1
   444   345   344   ar
   445   345   348   ar
   446    46    24    2
   447   462   442    2
   448    24    45    1
   449    24     7    1
   450   445   447    1
   451   445   443    1
   452   467   469    1
   453   467   465    1
   454   294   296    1
   455   294   295    1
   456   324   322   ar
   457   344   350   ar
   458   469   470    1
   459   490   488    1
   460   490   492    1
   461   362   360    1
   462   362   357    1
   463   442   444    1
   464   442   463    1
   465   296   297    1
   466   495   494    1
   467   488   489    1
   468    10     5    1
   469   496   494    1
   470   496   506    1
   471   447   448    1
   472   385   380    1
   473   385   383    1
   474   400   399    1
   475   327   328   ar
   476   444   443    1
   477   361   360    1
   478   384   383    1
   479   348   349   ar
   480     6     7    1
   481     6     4    1
   482   360   358    1
   483   399   397    1
   484   357   356    1
   485   499   500   ar
   486   499   498   ar
   487   466   465    1
   488   466   464    1
   489   494   492    1
   490   506   500   ar
   491   506   505   ar
   492   380   379    1
   493   322   323    2
   494   322   321   ar
   495   350   349   ar
   496   350   340    1
   497   489   487    1
   498   448   464    1
   499   383   381    1
   500   339   338    1
   501   338   340    1
   502   338   336    1
   503   500   501   ar
   504   492   493    1
   505   487   507    1
   506   487   508    1
   507   498   497   ar
   508   328   321   ar
   509     5     4    1
   510   398   397    1
   511   398   396    1
   512   382   381    1
   513   382   396    1
   514   505   504   ar
   515   493   509    1
   516   340   335    1
   517   321   320    1
   518     4     2    1
   519   464   486    2
   520   464   485    1
   521   501   504   ar
   522   501   502   ar
   523   355   354    1
   524   355   353    1
   525   497   502   ar
   526   381   379    1
   527   356   358    1
   528   356   354    1
   529   358   359    1
   530   379   377    1
   531   336   337    1
   532   336   334    1
   533   418   396    2
   534   396   417    1
   535   359   376    1
   536   502   503    1
   537   337   353    1
   538     3     2    1
   539     3     1    1
   540   375   353    2
   541   513   512    1
   542   513   518    1
   543   510   512    1
   544   510   511    1
   545   320   315    1
   546   320   318    1
   547   353   374    1
   548   335   334    1
   549   509   529    2
   550   509   511    1
   551   509   530    1
   552   315   314    1
   553   378   377    1
   554   378   376    1
   555   512   514    1
   556   330   311    1
   557   334   332    1
   558     1    23    1
   559     1    22    1
   560   376   395    2
   561   376   394    1
   562   518   528    1
   563   518   516    1
   564   528   527   ar
   565   528   522   ar
   566   311   313    1
   567   311   329    1
   568   318   319    1
   569   318   316    1
   570   333   332    1
   571   333   331    1
   572   352   331    1
   573   527   526   ar
   574   313   312    1
   575   521   522   ar
   576   521   520   ar
   577   522   523   ar
   578   314   312    1
   579   314   316    1
   580   351   331    1
   581   517   516    1
   582   514   516    1
   583   514   515    1
   584   526   523   ar
   585   520   519   ar
   586   523   524   ar
   587   316   317    1
   588   519   524   ar
   589   524   525    1
